data_POSCAR
  _audit_creation_date              2014-09-24
  _audit_creation_method            'ToBaCCo'
  _symmetry_space_group_name_H-M    'P1'
  _symmetry_Int_Tables_number       1
  _symmetry_cell_setting            triclinic
  loop_
  _symmetry_equiv_pos_as_xyz
 x,y,z
_cell_length_a 37.1713
_cell_length_b 40.1887
_cell_length_c 30.5949
_cell_angle_alpha 89.862800
_cell_angle_beta 89.753600
_cell_angle_gamma 89.947200
loop_
  _atom_site_label
  _atom_site_type_symbol
  _atom_site_fract_x
  _atom_site_fract_y
  _atom_site_fract_z
C1 C 0.27879 0.28370 0.23137
 C2 C 0.25098 0.26655 0.25295
 C3 C 0.22370 0.28450 0.27431
 C4 C 0.22441 0.31932 0.27449
 C5 C 0.25197 0.33631 0.25253
 C6 C 0.27904 0.31855 0.23076
 C7 C 0.25022 0.22991 0.25295
 C8 C 0.27765 0.21176 0.27354
 C9 C 0.27645 0.17692 0.27428
 C10 C 0.24830 0.16015 0.25356
 C11 C 0.22110 0.17815 0.23255
 C12 C 0.22185 0.21298 0.23265
 H13 H 0.29972 0.26994 0.21446
 H14 H 0.20231 0.27135 0.29124
 H15 H 0.29943 0.22475 0.28963
 H16 H 0.20073 0.22691 0.21646
 H17 H 0.25230 0.36330 0.25231
 H18 H 0.24753 0.13317 0.25383
 C19 C 0.77767 0.78558 0.22570
 C20 C 0.75037 0.76796 0.24752
 C21 C 0.72327 0.78539 0.26993
 C22 C 0.72371 0.82025 0.27095
 C23 C 0.75078 0.83773 0.24871
 C24 C 0.77766 0.82045 0.22589
 C25 C 0.75038 0.73130 0.24728
 C26 C 0.77865 0.71370 0.26697
 C27 C 0.77850 0.67886 0.26730
 C28 C 0.75050 0.66151 0.24707
 C29 C 0.72243 0.67896 0.22695
 C30 C 0.72216 0.71382 0.22748
 H31 H 0.79850 0.77212 0.20816
 H32 H 0.70237 0.77177 0.28717
 H33 H 0.80033 0.72712 0.28265
 H34 H 0.70041 0.72733 0.21194
 H35 H 0.75097 0.86475 0.24921
 H36 H 0.75054 0.63452 0.24702
 C37 C 0.77646 0.28525 0.72697
 C38 C 0.74919 0.26738 0.74851
 C39 C 0.72135 0.28459 0.76989
 C40 C 0.72105 0.31947 0.77016
 C41 C 0.74814 0.33714 0.74817
 C42 C 0.77572 0.32007 0.72641
 C43 C 0.75002 0.23073 0.74890
 C44 C 0.77841 0.21385 0.76942
 C45 C 0.77923 0.17899 0.76988
 C46 C 0.75206 0.16097 0.74898
 C47 C 0.72391 0.17771 0.72806
 C48 C 0.72265 0.21254 0.72845
 H49 H 0.79787 0.27203 0.71019
 H50 H 0.70047 0.27080 0.78692
 H51 H 0.79946 0.22790 0.78546
 H52 H 0.70086 0.22550 0.71219
 H53 H 0.74787 0.36415 0.74804
 H54 H 0.75280 0.13397 0.74890
 C55 C 0.27631 0.78580 0.72882
 C56 C 0.24911 0.76808 0.75072
 C57 C 0.22156 0.78544 0.77241
 C58 C 0.22144 0.82028 0.77260
 C59 C 0.24837 0.83785 0.75031
 C60 C 0.27571 0.82068 0.72819
 C61 C 0.24935 0.73142 0.75073
 C62 C 0.27773 0.71391 0.77036
 C63 C 0.27767 0.67905 0.77076
 C64 C 0.24967 0.66162 0.75066
 C65 C 0.22151 0.67899 0.73059
 C66 C 0.22115 0.71382 0.73106
 H67 H 0.29744 0.77241 0.71172
 H68 H 0.20066 0.77185 0.78964
 H69 H 0.29941 0.72741 0.78591
 H70 H 0.19934 0.72726 0.71553
 H71 H 0.24800 0.86485 0.75022
 H72 H 0.24978 0.63463 0.75062
 C73 C 0.04799 0.05314 0.01887
 H74 H 0.04897 0.05503 -0.01640
 C75 C 0.06980 0.07356 0.04430
 H76 H 0.08787 0.09087 0.02827
 C77 C 0.02386 0.02747 0.08232
 H78 H 0.00566 0.00974 0.09705
 C79 C 0.04524 0.04740 0.10903
 H80 H 0.04322 0.04476 0.14419
 N81 N 0.02618 0.03017 0.03806
 C82 C 0.01586 -0.04792 -0.06001
 H83 H -0.01307 -0.04963 -0.06302
 C84 C 0.03806 -0.06847 -0.08520
 H85 H 0.02602 -0.08571 -0.10798
 C86 C 0.06665 -0.02304 -0.02693
 H87 H 0.07778 -0.00579 -0.00365
 C88 C 0.08979 -0.04304 -0.05143
 H89 H 0.11854 -0.04085 -0.04668
 Zn90 Zn -0.00084 0.00244 0.00055
 N91 N 0.03042 -0.02533 -0.03218
 C92 C -0.02529 0.02816 -0.08112
 N93 N -0.02768 0.03058 -0.03686
 C94 C -0.04942 0.05355 -0.01760
 C95 C -0.07112 0.07424 -0.04300
 C96 C -0.04655 0.04837 -0.10779
 C97 C -0.01784 -0.04818 0.06087
 C98 C -0.04017 -0.06879 0.08590
 C99 C -0.09174 -0.04283 0.05218
 C100 C -0.06848 -0.02279 0.02784
 N101 N -0.03227 -0.02533 0.03314
 H102 H -0.00713 0.01043 -0.09589
 H103 H -0.05045 0.05522 0.01767
 H104 H -0.08915 0.09153 -0.02693
 H105 H -0.04449 0.04594 -0.14295
 H106 H 0.01107 -0.05009 0.06391
 H107 H -0.02824 -0.08626 0.10860
 H108 H -0.12048 -0.04045 0.04738
 H109 H -0.07950 -0.00532 0.00463
 C110 C 0.07560 -0.06589 -0.08139
 C111 C 0.06893 0.07055 0.09004
 C112 C -0.07770 -0.06598 0.08202
 C113 C -0.07020 0.07150 -0.08874
 C114 C 0.04865 0.55263 0.51789
 H115 H 0.04960 0.55449 0.48261
 C116 C 0.07046 0.57312 0.54326
 H117 H 0.08846 0.59046 0.52716
 C118 C 0.02471 0.52694 0.58141
 H119 H 0.00660 0.50916 0.59621
 C120 C 0.04609 0.54693 0.60806
 H121 H 0.04416 0.54430 0.64322
 N122 N 0.02695 0.52961 0.53715
 C123 C 0.01738 0.45113 0.43942
 H124 H -0.01152 0.44922 0.43621
 C125 C 0.03987 0.43069 0.41442
 H126 H 0.02807 0.41333 0.39160
 C127 C 0.06783 0.47639 0.47277
 H128 H 0.07872 0.49375 0.49607
 C129 C 0.09124 0.45651 0.44847
 H130 H 0.11995 0.45890 0.45342
 Zn131 Zn 0.00010 0.50166 0.49967
 N132 N 0.03164 0.47387 0.46728
 C133 C -0.02451 0.52681 0.41769
 N134 N -0.02674 0.52959 0.46193
 C135 C -0.04845 0.55268 0.48097
 C136 C -0.07026 0.57314 0.45541
 C137 C -0.04591 0.54678 0.39085
 C138 C -0.01719 0.45128 0.56042
 C139 C -0.03969 0.43091 0.58559
 C140 C -0.09105 0.45675 0.55126
 C141 C -0.06762 0.47655 0.52679
 N142 N -0.03144 0.47398 0.53233
 H143 H -0.00641 0.50898 0.40306
 H144 H -0.04939 0.55461 0.51623
 H145 H -0.08826 0.59054 0.47134
 H146 H -0.04398 0.54407 0.35572
 H147 H 0.01171 0.44933 0.56366
 H148 H -0.02789 0.41358 0.60858
 H149 H -0.11975 0.45917 0.54627
 H150 H -0.07852 0.49388 0.50333
 C151 C 0.07738 0.43352 0.41846
 C152 C 0.06970 0.57012 0.58900
 C153 C -0.07719 0.43380 0.58150
 C154 C -0.06951 0.57005 0.40970
 C155 C 0.55634 0.04291 0.51634
 H156 H 0.55823 0.04266 0.48104
 C157 C 0.57951 0.06291 0.54057
 H158 H 0.59943 0.07782 0.52363
 C159 C 0.52869 0.02285 0.58115
 H160 H 0.50913 0.00693 0.59689
 C161 C 0.55138 0.04244 0.60669
 H162 H 0.54856 0.04181 0.64191
 N163 N 0.53126 0.02373 0.53680
 C164 C 0.52992 -0.02833 0.42149
 H165 H 0.51094 -0.01206 0.40547
 C166 C 0.55310 -0.04791 0.39630
 H167 H 0.55170 -0.04643 0.36100
 C168 C 0.55601 -0.04890 0.48673
 H169 H 0.55701 -0.04896 0.52207
 C170 C 0.57968 -0.06885 0.46284
 H171 H 0.59856 -0.08457 0.48012
 Zn172 Zn 0.50120 -0.00265 0.50109
 N173 N 0.53154 -0.02941 0.46588
 C174 C 0.44684 0.00974 0.44006
 N175 N 0.47152 0.02480 0.46604
 C176 C 0.47368 0.05853 0.46844
 C177 C 0.45081 0.07849 0.44352
 C178 C 0.42346 0.02875 0.41455
 C179 C 0.47224 -0.06341 0.53360
 C180 C 0.44870 -0.08293 0.55842
 C181 C 0.42157 -0.03264 0.58651
 C182 C 0.44562 -0.01410 0.56116
 N183 N 0.47052 -0.02963 0.53569
 H184 H 0.44522 -0.01714 0.43942
 H185 H 0.49286 0.07010 0.48997
 H186 H 0.45323 0.10529 0.44554
 H187 H 0.40371 0.01628 0.39451
 H188 H 0.49150 -0.07534 0.51227
 H189 H 0.45018 -0.10976 0.55586
 H190 H 0.40229 -0.01978 0.60704
 H191 H 0.44450 0.01280 0.56173
 C192 C 0.57841 -0.06854 0.41697
 C193 C 0.57712 0.06294 0.58639
 C194 C 0.42291 -0.06757 0.58533
 C195 C 0.42524 0.06364 0.41613
 C196 C 0.54921 0.55065 0.01620
 H197 H 0.54974 0.55245 -0.01909
 C198 C 0.57116 0.57134 0.04113
 H199 H 0.58885 0.58875 0.02466
 C200 C 0.52611 0.52501 0.08022
 H201 H 0.50825 0.50720 0.09538
 C202 C 0.54765 0.54521 0.10643
 H203 H 0.54607 0.54268 0.14163
 N204 N 0.52783 0.52759 0.03591
 C205 C 0.51680 0.44916 -0.06177
 H206 H 0.48786 0.44724 -0.06431
 C207 C 0.53890 0.42872 -0.08730
 H208 H 0.52675 0.41138 -0.10986
 C209 C 0.56775 0.47440 -0.02956
 H210 H 0.57901 0.49175 -0.00650
 C211 C 0.59079 0.45454 -0.05442
 H212 H 0.61957 0.45694 -0.05014
 Zn213 Zn 0.50044 0.49960 -0.00099
 N214 N 0.53149 0.47187 -0.03420
 C215 C 0.47465 0.52503 -0.08232
 N216 N 0.47297 0.52759 -0.03802
 C217 C 0.45155 0.55064 -0.01841
 C218 C 0.42955 0.57134 -0.04342
 C219 C 0.45305 0.54524 -0.10861
 C220 C 0.48423 0.44912 0.06008
 C221 C 0.46220 0.42868 0.08576
 C222 C 0.41023 0.45449 0.05278
 C223 C 0.43320 0.47436 0.02777
 N224 N 0.46948 0.47184 0.03239
 H225 H 0.49253 0.50722 -0.09741
 H226 H 0.45106 0.55242 0.01687
 H227 H 0.41183 0.58874 -0.02703
 H228 H 0.45460 0.54272 -0.14380
 H229 H 0.51319 0.44722 0.06260
 H230 H 0.47442 0.41135 0.10842
 H231 H 0.38144 0.45688 0.04852
 H232 H 0.42188 0.49171 0.00463
 C233 C 0.57647 0.43157 -0.08413
 C234 C 0.57087 0.56851 0.08689
 C235 C 0.42463 0.43152 0.08262
 C236 C 0.42980 0.56853 -0.08917
 C237 C 0.14739 -0.12586 -0.15865
 C238 C 0.15498 -0.09224 -0.15144
 C239 C 0.13148 -0.07274 -0.12664
 C240 C 0.19430 -0.16173 -0.20351
 C241 C 0.09234 -0.12037 -0.11642
 C242 C 0.11597 -0.13988 -0.14125
 C243 C 0.17242 -0.14583 -0.18320
 C244 C 0.09999 -0.08662 -0.10860
 H245 H 0.17918 -0.08112 -0.16485
 H246 H 0.13783 -0.04672 -0.12179
 H247 H 0.06849 -0.13182 -0.10263
 H248 H 0.10990 -0.16592 -0.14654
 C249 C 0.15008 0.37383 0.34203
 C250 C 0.15740 0.40750 0.34922
 C251 C 0.13360 0.42692 0.37373
 C252 C 0.19736 0.33781 0.29790
 C253 C 0.09469 0.37910 0.38368
 C254 C 0.11862 0.35967 0.35915
 C255 C 0.17539 0.35388 0.31785
 C256 C 0.10207 0.41291 0.39149
 H257 H 0.18163 0.41873 0.33603
 H258 H 0.13976 0.45298 0.37857
 H259 H 0.07083 0.36753 0.39727
 H260 H 0.11275 0.33359 0.35389
 C261 C 0.65191 -0.12794 0.34122
 C262 C 0.61598 -0.12492 0.32830
 C263 C 0.59200 -0.10568 0.35295
 C264 C 0.69853 -0.16272 0.29443
 C265 C 0.63985 -0.09251 0.40360
 C266 C 0.66376 -0.11172 0.37892
 C267 C 0.67691 -0.14713 0.31557
 C268 C 0.60369 -0.08922 0.39088
 H269 H 0.60652 -0.13738 0.29917
 H270 H 0.56424 -0.10395 0.34260
 H271 H 0.64982 -0.07977 0.43224
 H272 H 0.69157 -0.11375 0.38908
 C273 C 0.64811 0.37201 -0.16227
 C274 C 0.65545 0.40570 -0.15523
 C275 C 0.63197 0.42507 -0.13019
 C276 C 0.69523 0.33639 -0.20725
 C277 C 0.59332 0.37717 -0.11941
 C278 C 0.61693 0.35779 -0.14448
 C279 C 0.67322 0.35216 -0.18692
 C280 C 0.60075 0.41099 -0.11172
 H281 H 0.67945 0.41699 -0.16893
 H282 H 0.63815 0.45113 -0.12547
 H283 H 0.56969 0.36556 -0.10530
 H284 H 0.61106 0.33169 -0.14961
 C285 C -0.14410 0.12921 -0.16561
 C286 C -0.13666 0.09618 -0.17685
 C287 C -0.11208 0.07762 -0.15238
 C288 C -0.19406 0.16255 -0.20869
 C289 C -0.10187 0.12529 -0.10565
 C290 C -0.12646 0.14381 -0.13020
 C291 C -0.17094 0.14760 -0.18930
 C292 C -0.09466 0.09187 -0.11623
 H293 H -0.15033 0.08459 -0.20405
 H294 H -0.10751 0.05184 -0.16099
 H295 H -0.08857 0.13707 -0.07835
 H296 H -0.13203 0.16937 -0.12123
 C297 C -0.14363 0.62731 0.33249
 C298 C -0.13631 0.59417 0.32164
 C299 C -0.11167 0.57575 0.34621
 C300 C -0.19346 0.66087 0.28947
 C301 C -0.10117 0.62373 0.39226
 C302 C -0.12580 0.64212 0.36762
 C303 C -0.17046 0.64567 0.30872
 C304 C -0.09406 0.59023 0.38208
 H305 H -0.15011 0.58241 0.29466
 H306 H -0.10717 0.54990 0.33790
 H307 H -0.08772 0.63570 0.41932
 H308 H -0.13126 0.66776 0.37629
 C309 C 0.35144 0.12316 0.34137
 C310 C 0.36676 0.09459 0.32298
 C311 C 0.39094 0.07532 0.34713
 C312 C 0.30351 0.15829 0.29730
 C313 C 0.38471 0.11330 0.40813
 C314 C 0.36054 0.13251 0.38393
 C315 C 0.32562 0.14239 0.31712
 C316 C 0.40011 0.08440 0.39006
 H317 H 0.35988 0.08712 0.29005
 H318 H 0.40266 0.05345 0.33213
 H319 H 0.39080 0.12070 0.44128
 H320 H 0.34866 0.15447 0.39858
 C321 C 0.35564 0.62696 -0.16489
 C322 C 0.37381 0.64135 -0.12972
 C323 C 0.39843 0.62258 -0.10554
 C324 C 0.30582 0.66108 -0.20723
 C325 C 0.38720 0.57503 -0.15212
 C326 C 0.36258 0.59385 -0.17622
 C327 C 0.32884 0.64570 -0.18823
 C328 C 0.40518 0.58909 -0.11623
 H329 H 0.36865 0.66697 -0.12067
 H330 H 0.41216 0.63423 -0.07846
 H331 H 0.39141 0.54922 -0.16082
 H332 H 0.34852 0.58240 -0.20323
 C333 C -0.14983 -0.12621 0.15866
 C334 C -0.15730 -0.09251 0.15166
 C335 C -0.13369 -0.07293 0.12705
 C336 C -0.19680 -0.16227 0.20329
 C337 C -0.09468 -0.12065 0.11662
 C338 C -0.11842 -0.14025 0.14126
 C339 C -0.17492 -0.14626 0.18307
 C340 C -0.10221 -0.08680 0.10902
 H341 H -0.18149 -0.08138 0.16508
 H342 H -0.13996 -0.04685 0.12237
 H343 H -0.07085 -0.13210 0.10282
 H344 H -0.11244 -0.16635 0.14639
 C345 C -0.14993 0.37433 0.65840
 C346 C -0.11845 0.36010 0.64145
 C347 C -0.09451 0.37946 0.61677
 C348 C -0.19722 0.33846 0.70283
 C349 C -0.13344 0.42735 0.62624
 C350 C -0.15725 0.40800 0.65090
 C351 C -0.17525 0.35447 0.68275
 C352 C -0.10189 0.41326 0.60864
 H353 H -0.11258 0.33402 0.64695
 H354 H -0.07064 0.36783 0.60330
 H355 H -0.13960 0.45340 0.62116
 H356 H -0.18149 0.41929 0.66396
 C357 C 0.34817 -0.12643 0.66020
 C358 C 0.38418 -0.13631 0.65677
 C359 C 0.40855 -0.11716 0.63251
 C360 C 0.30107 -0.16198 0.70538
 C361 C 0.36093 -0.07813 0.61514
 C362 C 0.33663 -0.09731 0.63936
 C363 C 0.32289 -0.14605 0.68492
 C364 C 0.39719 -0.08784 0.61140
 H365 H 0.39341 -0.15877 0.67286
 H366 H 0.43637 -0.12508 0.63068
 H367 H 0.35121 -0.05598 0.59877
 H368 H 0.30878 -0.08949 0.64169
 C369 C 0.35322 0.37199 0.16132
 C370 C 0.34579 0.40567 0.15405
 C371 C 0.36918 0.42502 0.12881
 C372 C 0.30629 0.33637 0.20671
 C373 C 0.40794 0.37714 0.11832
 C374 C 0.38441 0.35777 0.14358
 C375 C 0.32821 0.35214 0.18620
 C376 C 0.40041 0.41095 0.11039
 H377 H 0.32177 0.41695 0.16770
 H378 H 0.36293 0.45108 0.12391
 H379 H 0.43158 0.36553 0.10425
 H380 H 0.39036 0.33168 0.14890
 C381 C 0.14298 0.12763 0.16700
 C382 C 0.13554 0.09454 0.17811
 C383 C 0.11092 0.07618 0.15362
 C384 C 0.19291 0.16076 0.21007
 C385 C 0.10068 0.12414 0.10710
 C386 C 0.12530 0.14247 0.13167
 C387 C 0.16983 0.14585 0.19072
 C388 C 0.09345 0.09068 0.11756
 H389 H 0.14923 0.08276 0.20526
 H390 H 0.10633 0.05036 0.16214
 H391 H 0.08734 0.13612 0.07987
 H392 H 0.13087 0.16807 0.12279
 C393 C 0.14375 0.62744 0.66570
 C394 C 0.12594 0.64220 0.63040
 C395 C 0.10133 0.62380 0.60592
 C396 C 0.19351 0.66103 0.70850
 C397 C 0.11182 0.57590 0.65246
 C398 C 0.13644 0.59434 0.67687
 C399 C 0.17054 0.64583 0.68934
 C400 C 0.09423 0.59032 0.61643
 H401 H 0.13140 0.66782 0.62149
 H402 H 0.08790 0.63572 0.57873
 H403 H 0.10732 0.55007 0.66102
 H404 H 0.15021 0.58262 0.70399
 C405 C 0.64938 0.12333 0.66159
 C406 C 0.64056 0.09123 0.67583
 C407 C 0.61680 0.07168 0.65164
 C408 C 0.69693 0.15899 0.70519
 C409 C 0.61040 0.11642 0.59896
 C410 C 0.63414 0.13593 0.62323
 C411 C 0.67495 0.14291 0.68556
 C412 C 0.60161 0.08398 0.61277
 H413 H 0.65238 0.08117 0.70536
 H414 H 0.61094 0.04668 0.66284
 H415 H 0.59878 0.12676 0.56951
 H416 H 0.64079 0.16075 0.61190
 C417 C 0.64479 0.62691 0.16246
 C418 C 0.62665 0.64131 0.12716
 C419 C 0.60212 0.62255 0.10302
 C420 C 0.69440 0.66101 0.20485
 C421 C 0.61338 0.57498 0.14988
 C422 C 0.63791 0.59379 0.17394
 C423 C 0.67148 0.64565 0.18581
 C424 C 0.59543 0.58906 0.11387
 H425 H 0.63177 0.66694 0.11800
 H426 H 0.58841 0.63422 0.07585
 H427 H 0.60921 0.54916 0.15870
 H428 H 0.65195 0.58233 0.20105
   
