data_POSCAR
  _audit_creation_date              2014-09-24
  _audit_creation_method            'ToBaCCo'
  _symmetry_space_group_name_H-M    'P1'
  _symmetry_Int_Tables_number       1
  _symmetry_cell_setting            triclinic
  loop_
  _symmetry_equiv_pos_as_xyz
 x,y,z
_cell_length_a 42.7109
_cell_length_b 43.6442
_cell_length_c 42.5998
_cell_angle_alpha 90.031300
_cell_angle_beta 90.197500
_cell_angle_gamma 80.530600
loop_
  _atom_site_label
  _atom_site_type_symbol
  _atom_site_fract_x
  _atom_site_fract_y
  _atom_site_fract_z
N1 N 0.33260 0.23174 0.21473
 N2 N 0.31460 0.25760 0.20563
 C3 C 0.32913 0.27003 0.18189
 C4 C 0.35768 0.25090 0.17583
 C5 C 0.35907 0.22683 0.19718
 H6 H 0.31951 0.29112 0.16949
 H7 H 0.37765 0.20692 0.19954
 Cu8 Cu 0.27351 0.27179 0.22519
 Cu9 Cu 0.32028 0.20559 0.24793
 Cu10 Cu 0.24792 0.23048 0.28358
 N11 N 0.23256 0.28522 0.24535
 N12 N 0.22318 0.26899 0.26845
 C13 C 0.19452 0.28287 0.27839
 C14 C 0.18521 0.30929 0.26060
 C15 C 0.20991 0.31006 0.23974
 H16 H 0.18128 0.27399 0.29690
 H17 H 0.21116 0.32741 0.22189
 N18 N 0.27615 0.19206 0.29569
 N19 N 0.30367 0.18238 0.28200
 C20 C 0.31685 0.15504 0.29484
 C21 C 0.29658 0.14722 0.31769
 C22 C 0.27112 0.17122 0.31759
 H23 H 0.33935 0.14173 0.28786
 H24 H 0.25024 0.17303 0.33219
 H25 H 0.27193 0.21868 0.24206
 H26 H 0.29181 0.24095 0.27142
 N27 N 0.65856 -0.23001 0.22176
 N28 N 0.67211 -0.25837 0.21460
 C29 C 0.65705 -0.26845 0.18984
 C30 C 0.63256 -0.24518 0.18100
 C31 C 0.63415 -0.22108 0.20192
 H32 H 0.66377 -0.29086 0.17874
 H33 H 0.61940 -0.19845 0.20226
 Cu34 Cu 0.70871 -0.27901 0.23759
 Cu35 Cu 0.67511 -0.20620 0.25492
 Cu36 Cu 0.74635 -0.23986 0.28946
 N37 N 0.75102 -0.29548 0.25230
 N38 N 0.76539 -0.28068 0.27339
 C39 C 0.79429 -0.29722 0.27933
 C40 C 0.79839 -0.32358 0.26058
 C41 C 0.77032 -0.32164 0.24372
 H42 H 0.81148 -0.29012 0.29533
 H43 H 0.76428 -0.33776 0.22633
 N44 N 0.72301 -0.19871 0.30193
 N45 N 0.69591 -0.18604 0.28878
 C46 C 0.68634 -0.15784 0.30150
 C47 C 0.70849 -0.15235 0.32370
 C48 C 0.73138 -0.17877 0.32337
 H49 H 0.66508 -0.14227 0.29468
 H50 H 0.75277 -0.18290 0.33747
 H51 H 0.72155 -0.22787 0.24842
 H52 H 0.69925 -0.24248 0.28128
 N53 N 0.72729 0.26076 0.78548
 N54 N 0.74128 0.28389 0.79478
 C55 C 0.72821 0.29524 0.82200
 C56 C 0.70471 0.27836 0.83024
 C57 C 0.70482 0.25666 0.80649
 H58 H 0.73553 0.31412 0.83501
 H59 H 0.68979 0.23905 0.80478
 Cu60 Cu 0.77593 0.29617 0.77086
 Cu61 Cu 0.73983 0.23739 0.74708
 Cu62 Cu 0.80219 0.25899 0.70487
 N63 N 0.81074 0.30842 0.74712
 N64 N 0.82112 0.29337 0.72148
 C65 C 0.84580 0.30541 0.71006
 C66 C 0.85132 0.32939 0.72963
 C67 C 0.82851 0.33066 0.75287
 H68 H 0.85878 0.29704 0.68920
 H69 H 0.82550 0.34631 0.77273
 N70 N 0.77996 0.22488 0.69179
 N71 N 0.75612 0.21673 0.70764
 C72 C 0.74624 0.19275 0.69274
 C73 C 0.76479 0.18543 0.66636
 C74 C 0.78589 0.20631 0.66651
 H75 H 0.72720 0.18113 0.70062
 H76 H 0.80429 0.20785 0.64952
 H77 H 0.78625 0.24463 0.74730
 H78 H 0.75748 0.27240 0.72391
 N79 N 0.27443 -0.26121 0.78143
 N80 N 0.25964 -0.28368 0.79079
 C81 C 0.27121 -0.29393 0.81904
 C82 C 0.29446 -0.27689 0.82777
 C83 C 0.29582 -0.25634 0.80334
 H84 H 0.26304 -0.31213 0.83237
 H85 H 0.31120 -0.23905 0.80175
 Cu86 Cu 0.22618 -0.29686 0.76557
 Cu87 Cu 0.26469 -0.23965 0.74182
 Cu88 Cu 0.20406 -0.26104 0.69696
 N89 N 0.19135 -0.30760 0.74057
 N90 N 0.18302 -0.29379 0.71371
 C91 C 0.15825 -0.30536 0.70159
 C92 C 0.15049 -0.32759 0.72211
 C93 C 0.17204 -0.32835 0.74656
 H94 H 0.14660 -0.29772 0.67975
 H95 H 0.17330 -0.34279 0.76730
 N96 N 0.22823 -0.22842 0.68404
 N97 N 0.25148 -0.22050 0.70110
 C98 C 0.26292 -0.19734 0.68655
 C99 C 0.24600 -0.19017 0.65911
 C100 C 0.22418 -0.21035 0.65821
 H101 H 0.28176 -0.18596 0.69549
 H102 H 0.20640 -0.21153 0.64034
 H103 H 0.21772 -0.24610 0.74019
 H104 H 0.24720 -0.27510 0.71888
 N105 N 0.65890 -0.23074 0.77852
 N106 N 0.67230 -0.25927 0.78531
 C107 C 0.65718 -0.26962 0.80977
 C108 C 0.63285 -0.24637 0.81874
 C109 C 0.63459 -0.22199 0.79835
 H110 H 0.66379 -0.29214 0.82067
 H111 H 0.61999 -0.19927 0.79849
 Cu112 Cu 0.70897 -0.27964 0.76248
 Cu113 Cu 0.67548 -0.20654 0.74590
 Cu114 Cu 0.74667 -0.23984 0.71157
 N115 N 0.75138 -0.29580 0.74812
 N116 N 0.76570 -0.28077 0.72731
 C117 C 0.79466 -0.29713 0.72149
 C118 C 0.79887 -0.32359 0.74006
 C119 C 0.77080 -0.32194 0.75668
 H120 H 0.81182 -0.28980 0.70575
 H121 H 0.76483 -0.33824 0.77385
 N122 N 0.72336 -0.19859 0.69941
 N123 N 0.69630 -0.18601 0.71252
 C124 C 0.68676 -0.15768 0.70006
 C125 C 0.70889 -0.15204 0.67808
 C126 C 0.73174 -0.17848 0.67826
 H127 H 0.66552 -0.14214 0.70688
 H128 H 0.75309 -0.18251 0.66426
 H129 H 0.69953 -0.24255 0.71924
 H130 H 0.72186 -0.22841 0.75253
 N131 N 0.33300 0.23195 0.78385
 N132 N 0.31499 0.25783 0.79283
 C133 C 0.32956 0.27032 0.81661
 C134 C 0.35814 0.25123 0.82281
 C135 C 0.35952 0.22711 0.80151
 H136 H 0.31993 0.29141 0.82896
 H137 H 0.37808 0.20720 0.79929
 Cu138 Cu 0.27387 0.27197 0.77309
 Cu139 Cu 0.32053 0.20562 0.75082
 Cu140 Cu 0.24802 0.23031 0.71491
 N141 N 0.23290 0.28531 0.75271
 N142 N 0.22339 0.26895 0.72970
 C143 C 0.19469 0.28280 0.71963
 C144 C 0.18551 0.30934 0.73726
 C145 C 0.21031 0.31020 0.75813
 H146 H 0.18133 0.27383 0.70118
 H147 H 0.21167 0.32765 0.77589
 N148 N 0.27617 0.19180 0.70314
 N149 N 0.30375 0.18220 0.71691
 C150 C 0.31684 0.15476 0.70430
 C151 C 0.29644 0.14679 0.68152
 C152 C 0.27100 0.17080 0.68141
 H153 H 0.33937 0.14148 0.71139
 H154 H 0.25004 0.17251 0.66679
 H155 H 0.29196 0.24083 0.72710
 H156 H 0.27221 0.21876 0.75658
 N157 N 0.27375 -0.26000 0.21656
 N158 N 0.25866 -0.28222 0.20695
 C159 C 0.27019 -0.29253 0.17878
 C160 C 0.29369 -0.27574 0.17035
 C161 C 0.29525 -0.25531 0.19486
 H162 H 0.26185 -0.31056 0.16528
 H163 H 0.31087 -0.23823 0.19667
 Cu164 Cu 0.22487 -0.29475 0.23189
 Cu165 Cu 0.26429 -0.23852 0.25623
 Cu166 Cu 0.20420 -0.26036 0.30122
 N167 N 0.19120 -0.30677 0.25736
 N168 N 0.18330 -0.29329 0.28445
 C169 C 0.15909 -0.30540 0.29683
 C170 C 0.15135 -0.32764 0.27634
 C171 C 0.17220 -0.32788 0.25157
 H172 H 0.14770 -0.29812 0.31883
 H173 H 0.17311 -0.34216 0.23074
 N174 N 0.22825 -0.22756 0.31407
 N175 N 0.25130 -0.21950 0.29700
 C176 C 0.26273 -0.19628 0.31157
 C177 C 0.24600 -0.18924 0.33902
 C178 C 0.22432 -0.20954 0.33993
 H179 H 0.28141 -0.18477 0.30261
 H180 H 0.20674 -0.21086 0.35784
 H181 H 0.24689 -0.27419 0.27875
 H182 H 0.21724 -0.24453 0.25833
 N183 N 0.72460 0.26121 0.21750
 N184 N 0.73651 0.28614 0.21000
 C185 C 0.72373 0.29754 0.18264
 C186 C 0.70256 0.27879 0.17238
 C187 C 0.70372 0.25597 0.19514
 H188 H 0.72958 0.31791 0.17113
 H189 H 0.69045 0.23689 0.19529
 Cu190 Cu 0.76769 0.30157 0.23635
 Cu191 Cu 0.73744 0.23747 0.25560
 Cu192 Cu 0.80027 0.25863 0.29725
 N193 N 0.80625 0.30984 0.25665
 N194 N 0.81889 0.29297 0.28043
 C195 C 0.84527 0.30346 0.28992
 C196 C 0.84945 0.32829 0.27105
 C197 C 0.82421 0.33167 0.25016
 H198 H 0.86029 0.29358 0.30906
 H199 H 0.81942 0.34865 0.23153
 N200 N 0.77820 0.22463 0.31052
 N201 N 0.75413 0.21658 0.29480
 C202 C 0.74438 0.19260 0.30969
 C203 C 0.76330 0.18514 0.33593
 C204 C 0.78445 0.20598 0.33572
 H205 H 0.72518 0.18108 0.30189
 H206 H 0.80309 0.20745 0.35258
 H207 H 0.75408 0.27164 0.28121
 H208 H 0.78269 0.24820 0.25379
 C209 C 0.28585 0.00976 0.43316
 C210 C 0.28630 -0.01813 0.41695
 C211 C 0.28618 -0.04621 0.43278
 C212 C 0.28630 -0.04662 0.46604
 C213 C 0.28601 -0.01850 0.48285
 C214 C 0.28615 0.00973 0.46637
 C215 C 0.28751 0.03700 0.48352
 C216 C 0.28737 0.03687 0.51614
 C217 C 0.28587 0.00947 0.53298
 C218 C 0.28587 -0.01863 0.51623
 C219 C 0.28774 -0.07449 0.48295
 C220 C 0.28760 -0.07462 0.51562
 C221 C 0.28603 -0.04689 0.53277
 C222 C 0.28570 -0.04672 0.56604
 C223 C 0.28565 -0.01874 0.58214
 C224 C 0.28530 0.00925 0.56618
 H225 H 0.28916 0.05871 0.47192
 H226 H 0.28890 0.05850 0.52800
 H227 H 0.28959 -0.09665 0.47116
 H228 H 0.28932 -0.09686 0.52722
 H229 H 0.28553 -0.01775 0.39149
 H230 H 0.28473 -0.01853 0.60759
 C231 C 0.73463 0.04110 0.56781
 C232 C 0.73460 0.01306 0.58378
 C233 C 0.73549 -0.01499 0.56776
 C234 C 0.73570 -0.01525 0.53456
 C235 C 0.73584 0.01287 0.51787
 C236 C 0.73524 0.04119 0.53450
 C237 C 0.73395 0.06889 0.51735
 C238 C 0.73382 0.06879 0.48464
 C239 C 0.73499 0.04097 0.46765
 C240 C 0.73572 0.01276 0.48445
 C241 C 0.73452 -0.04268 0.51763
 C242 C 0.73442 -0.04279 0.48503
 C243 C 0.73548 -0.01547 0.46793
 C244 C 0.73503 -0.01542 0.43471
 C245 C 0.73401 0.01255 0.41854
 C246 C 0.73415 0.04068 0.43436
 H247 H 0.73235 0.09110 0.52901
 H248 H 0.73211 0.09094 0.47285
 H249 H 0.73304 -0.06436 0.52936
 H250 H 0.73286 -0.06454 0.47344
 H251 H 0.73448 0.01294 0.60925
 H252 H 0.73372 0.01232 0.39307
 C253 C 0.45338 0.28932 0.02849
 C254 C 0.43720 0.29157 -0.00023
 C255 C 0.45333 0.28955 -0.02886
 C256 C 0.48690 0.28580 -0.02897
 C257 C 0.50377 0.28347 -0.00007
 C258 C 0.48696 0.28548 0.02876
 C259 C 0.50413 0.28447 0.05704
 C260 C 0.53713 0.28052 0.05711
 C261 C 0.55439 0.27723 0.02891
 C262 C 0.53754 0.27926 -0.00000
 C263 C 0.50398 0.28518 -0.05716
 C264 C 0.53698 0.28126 -0.05709
 C265 C 0.55432 0.27758 -0.02884
 C266 C 0.58795 0.27338 -0.02857
 C267 C 0.60416 0.27173 0.00015
 C268 C 0.58801 0.27307 0.02878
 H269 H 0.49222 0.28729 0.07947
 H270 H 0.54890 0.28056 0.07962
 H271 H 0.49199 0.28831 -0.07962
 H272 H 0.54866 0.28164 -0.07952
 H273 H 0.41156 0.29340 -0.00030
 H274 H 0.62990 0.26849 0.00022
 C275 C 0.54124 0.72490 0.02931
 C276 C 0.55759 0.72318 0.00084
 C277 C 0.54155 0.72464 -0.02792
 C278 C 0.50808 0.72728 -0.02842
 C279 C 0.49114 0.72897 0.00029
 C280 C 0.50779 0.72762 0.02927
 C281 C 0.49066 0.72797 0.05739
 C282 C 0.45779 0.73031 0.05714
 C283 C 0.44063 0.73278 0.02875
 C284 C 0.45751 0.73160 0.00002
 C285 C 0.49123 0.72718 -0.05679
 C286 C 0.45836 0.72954 -0.05706
 C287 C 0.44091 0.73240 -0.02897
 C288 C 0.40741 0.73490 -0.02900
 C289 C 0.39118 0.73578 -0.00049
 C290 C 0.40715 0.73526 0.02825
 H291 H 0.50255 0.72585 0.07995
 H292 H 0.44611 0.72962 0.07953
 H293 H 0.50332 0.72466 -0.07915
 H294 H 0.44690 0.72853 -0.07961
 H295 H 0.58320 0.72167 0.00107
 H296 H 0.36552 0.73775 -0.00068
 C297 C 0.03223 0.43566 0.24889
 C298 C 0.00489 0.42195 0.24978
 C299 C -0.02529 0.43973 0.25306
 C300 C -0.02837 0.47238 0.25649
 C301 C -0.00088 0.48674 0.25543
 C302 C 0.02956 0.46830 0.25181
 C303 C 0.05655 0.48285 0.25267
 C304 C 0.05376 0.51488 0.25578
 C305 C 0.02386 0.53373 0.25835
 C306 C -0.00372 0.51951 0.25896
 C307 C -0.05792 0.49088 0.26245
 C308 C -0.06066 0.52289 0.26623
 C309 C -0.03402 0.53787 0.26389
 C310 C -0.03653 0.57050 0.26761
 C311 C -0.00903 0.58405 0.26636
 C312 C 0.02088 0.56634 0.26156
 H313 H 0.08025 0.46964 0.25146
 H314 H 0.07546 0.52458 0.25682
 H315 H -0.07922 0.48074 0.26503
 H316 H -0.08392 0.53557 0.27166
 H317 H 0.00715 0.39692 0.24754
 H318 H -0.01099 0.60907 0.26841
 C319 C 0.03289 0.43596 0.74907
 C320 C 0.00548 0.42235 0.74836
 C321 C -0.02471 0.44026 0.74564
 C322 C -0.02775 0.47294 0.74263
 C323 C -0.00017 0.48719 0.74339
 C324 C 0.03028 0.46862 0.74640
 C325 C 0.05732 0.48308 0.74520
 C326 C 0.05458 0.51513 0.74238
 C327 C 0.02469 0.53412 0.74052
 C328 C -0.00298 0.51999 0.74021
 C329 C -0.05741 0.49157 0.73744
 C330 C -0.06011 0.52361 0.73392
 C331 C -0.03334 0.53847 0.73590
 C332 C -0.03582 0.57112 0.73245
 C333 C -0.00825 0.58459 0.73346
 C334 C 0.02175 0.56678 0.73767
 H335 H 0.08101 0.46977 0.74588
 H336 H 0.07631 0.52473 0.74099
 H337 H -0.07883 0.48151 0.73530
 H338 H -0.08348 0.53638 0.72899
 H339 H 0.00767 0.39730 0.75039
 H340 H -0.01022 0.60963 0.73163
 C341 C 0.39465 0.28355 0.10738
 C342 C 0.42150 0.26092 0.10211
 N343 N 0.42759 0.23596 0.12144
 C344 C 0.40790 0.23239 0.14570
 C345 C 0.38059 0.25471 0.15078
 N346 N 0.37482 0.27989 0.13145
 N347 N 0.38839 0.30838 0.08785
 C348 C 0.40759 0.31143 0.06304
 C349 C 0.43425 0.28855 0.05737
 N350 N 0.44052 0.26380 0.07719
 H351 H 0.41342 0.21208 0.16047
 H352 H 0.40186 0.33122 0.04755
 C353 C 0.59740 0.72670 0.11095
 C354 C 0.57329 0.75163 0.10378
 N355 N 0.56885 0.77705 0.12262
 C356 C 0.58755 0.77881 0.14826
 C357 C 0.61199 0.75392 0.15547
 N358 N 0.61604 0.72841 0.13651
 N359 N 0.60226 0.70146 0.09187
 C360 C 0.58414 0.70008 0.06578
 C361 C 0.55998 0.72501 0.05851
 N362 N 0.55515 0.75027 0.07775
 H363 H 0.58330 0.79950 0.16261
 H364 H 0.58859 0.67984 0.05074
 C365 C 0.64484 0.26435 -0.11048
 C366 C 0.64673 0.28804 -0.08860
 N367 N 0.66726 0.30815 -0.09358
 C368 C 0.68608 0.30570 -0.11943
 C369 C 0.68438 0.28197 -0.14149
 N370 N 0.66364 0.26186 -0.13635
 N371 N 0.62443 0.24409 -0.10534
 C372 C 0.60571 0.24655 -0.07937
 C373 C 0.60724 0.27052 -0.05761
 N374 N 0.62806 0.29051 -0.06268
 H375 H 0.70211 0.32218 -0.12257
 H376 H 0.58987 0.22993 -0.07562
 C377 C 0.35140 0.74070 -0.11156
 C378 C 0.35021 0.71709 -0.08948
 N379 N 0.33075 0.69594 -0.09461
 C380 C 0.31242 0.69726 -0.12091
 C381 C 0.31366 0.72079 -0.14322
 N382 N 0.33322 0.74196 -0.13785
 N383 N 0.37059 0.76208 -0.10630
 C384 C 0.38888 0.76076 -0.08000
 C385 C 0.38828 0.73674 -0.05815
 N386 N 0.36856 0.71568 -0.06328
 H387 H 0.29727 0.67998 -0.12432
 H388 H 0.40376 0.77824 -0.07613
 C389 C 0.11959 0.37407 0.24210
 C390 C 0.09873 0.37218 0.26716
 N391 N 0.10644 0.35017 0.28954
 C392 C 0.13408 0.32979 0.28806
 C393 C 0.15516 0.33144 0.26299
 N394 N 0.14732 0.35372 0.24059
 N395 N 0.11159 0.39602 0.21958
 C396 C 0.08374 0.41626 0.22110
 C397 C 0.06307 0.41467 0.24646
 N398 N 0.07103 0.39237 0.26871
 H399 H 0.13943 0.31266 0.30644
 H400 H 0.07771 0.43339 0.20276
 C401 C 0.09793 0.61763 0.74216
 C402 C 0.07745 0.62024 0.71615
 N403 N 0.08160 0.63991 0.69246
 C404 C 0.10531 0.65721 0.69354
 C405 C 0.12598 0.65478 0.71964
 N406 N 0.12162 0.63485 0.74328
 N407 N 0.09349 0.59828 0.76609
 C408 C 0.06949 0.58130 0.76513
 C409 C 0.04917 0.58355 0.73890
 N410 N 0.05352 0.60330 0.71516
 H411 H 0.10776 0.67260 0.67417
 H412 H 0.06610 0.56642 0.78472
 C413 C -0.12242 0.63409 0.27691
 C414 C -0.11954 0.61050 0.25422
 N415 N -0.14419 0.60865 0.23455
 C416 C -0.17159 0.62944 0.23636
 C417 C -0.17438 0.65369 0.25863
 N418 N -0.14953 0.65517 0.27842
 N419 N -0.09794 0.63574 0.29688
 C420 C -0.07055 0.61499 0.29500
 C421 C -0.06725 0.59161 0.27189
 N422 N -0.09198 0.59008 0.25196
 H423 H -0.19057 0.62720 0.22012
 H424 H -0.05136 0.61690 0.31117
 C425 C -0.10034 0.38866 0.74803
 C426 C -0.07725 0.38361 0.72444
 N427 N -0.07853 0.36117 0.70268
 C428 C -0.10178 0.34334 0.70345
 C429 C -0.12485 0.34790 0.72736
 N430 N -0.12344 0.37068 0.74903
 N431 N -0.09897 0.41111 0.76986
 C432 C -0.07543 0.42868 0.76919
 C433 C -0.05217 0.42354 0.74565
 N434 N -0.05361 0.40091 0.72393
 H435 H -0.10178 0.32565 0.68569
 H436 H -0.07450 0.44609 0.78712
 C437 C 0.27906 0.09079 0.37750
 C438 C 0.30512 0.06679 0.37458
 N439 N 0.32813 0.06948 0.35334
 C440 C 0.32627 0.09511 0.33482
 C441 C 0.30011 0.11918 0.33758
 N442 N 0.27715 0.11629 0.35898
 N443 N 0.25593 0.08810 0.39860
 C444 C 0.25773 0.06245 0.41703
 C445 C 0.28392 0.03847 0.41437
 N446 N 0.30689 0.04111 0.39290
 H447 H 0.34497 0.09647 0.31810
 H448 H 0.23884 0.06064 0.43345
 C449 C 0.73680 0.11901 0.62668
 C450 C 0.75953 0.11150 0.60299
 N451 N 0.78318 0.12857 0.59995
 C452 C 0.78527 0.15273 0.61962
 C453 C 0.76278 0.16011 0.64371
 N454 N 0.73899 0.14297 0.64648
 N455 N 0.71322 0.10187 0.62987
 C456 C 0.71149 0.07736 0.61061
 C457 C 0.73442 0.06947 0.58706
 N458 N 0.75798 0.08685 0.58388
 H459 H 0.80457 0.16566 0.61662
 H460 H 0.69261 0.06388 0.61383
 C461 C 0.27782 -0.12446 0.62305
 C462 C 0.25683 -0.11636 0.59788
 N463 N 0.23310 -0.13295 0.59256
 C464 C 0.22925 -0.15720 0.61143
 C465 C 0.24996 -0.16509 0.63700
 N466 N 0.27384 -0.14846 0.64200
 N467 N 0.30148 -0.10785 0.62851
 C468 C 0.30500 -0.08328 0.61003
 C469 C 0.28386 -0.07485 0.58495
 N470 N 0.26016 -0.09166 0.57955
 H471 H 0.20996 -0.16978 0.60669
 H472 H 0.32395 -0.07027 0.61498
 C473 C 0.73446 -0.09645 0.38012
 C474 C 0.70924 -0.07143 0.37849
 N475 N 0.68427 -0.07324 0.35922
 C476 C 0.68330 -0.09893 0.34143
 C477 C 0.70852 -0.12413 0.34291
 N478 N 0.73354 -0.12215 0.36235
 N479 N 0.75951 -0.09455 0.39935
 C480 C 0.76036 -0.06881 0.41717
 C481 C 0.73490 -0.04391 0.41590
 N482 N 0.71006 -0.04576 0.39627
 H483 H 0.66299 -0.09951 0.32639
 H484 H 0.78062 -0.06773 0.43222
 C485 C 0.59811 0.72626 -0.10896
 C486 C 0.57303 0.75056 -0.10280
 N487 N 0.56756 0.77527 -0.12255
 C488 C 0.58616 0.77688 -0.14817
 C489 C 0.61145 0.75265 -0.15433
 N490 N 0.61664 0.72785 -0.13450
 N491 N 0.60389 0.70172 -0.08903
 C492 C 0.58573 0.70041 -0.06308
 C493 C 0.56057 0.72468 -0.05684
 N494 N 0.55488 0.74927 -0.07690
 H495 H 0.58119 0.79690 -0.16341
 H496 H 0.59088 0.68071 -0.04739
 C497 C 0.39479 0.28381 -0.10828
 C498 C 0.42176 0.26131 -0.10292
 N499 N 0.42805 0.23647 -0.12237
 C500 C 0.40844 0.23289 -0.14683
 C501 C 0.38101 0.25508 -0.15198
 N502 N 0.37504 0.28015 -0.13254
 N503 N 0.38832 0.30852 -0.08863
 C504 C 0.40744 0.31156 -0.06361
 C505 C 0.43421 0.28880 -0.05786
 N506 N 0.44068 0.26418 -0.07780
 H507 H 0.41412 0.21269 -0.16170
 H508 H 0.40156 0.33125 -0.04803
 C509 C 0.35061 0.74170 0.11006
 C510 C 0.34969 0.71782 0.08818
 N511 N 0.33039 0.69656 0.09331
 C512 C 0.31195 0.69803 0.11941
 C513 C 0.31295 0.72181 0.14153
 N514 N 0.33235 0.74309 0.13617
 N515 N 0.36965 0.76317 0.10480
 C516 C 0.38807 0.76169 0.07871
 C517 C 0.38776 0.73739 0.05709
 N518 N 0.36818 0.71624 0.06220
 H519 H 0.29694 0.68065 0.12285
 H520 H 0.40285 0.77923 0.07484
 C521 C 0.64447 0.26382 0.11130
 C522 C 0.64606 0.28790 0.08985
 N523 N 0.66600 0.30847 0.09557
 C524 C 0.68443 0.30614 0.12183
 C525 C 0.68293 0.28207 0.14351
 N526 N 0.66289 0.26145 0.13756
 N527 N 0.62461 0.24316 0.10547
 C528 C 0.60612 0.24561 0.07922
 C529 C 0.60732 0.27000 0.05791
 N530 N 0.62762 0.29037 0.06365
 H531 H 0.70002 0.32296 0.12557
 H532 H 0.59065 0.22873 0.07494
 C533 C -0.12191 0.63456 0.72368
 C534 C -0.11867 0.61099 0.74640
 N535 N -0.14312 0.60898 0.76612
 C536 C -0.17065 0.62961 0.76433
 C537 C -0.17378 0.65384 0.74203
 N538 N -0.14913 0.65548 0.72221
 N539 N -0.09769 0.63631 0.70361
 C540 C -0.07021 0.61567 0.70538
 C541 C -0.06656 0.59230 0.72850
 N542 N -0.09102 0.59068 0.74856
 H543 H -0.18946 0.62727 0.78061
 H544 H -0.05125 0.61762 0.68908
 C545 C -0.10117 0.38834 0.25190
 C546 C -0.07655 0.38199 0.27403
 N547 N -0.07655 0.35848 0.29484
 C548 C -0.10005 0.34094 0.29457
 C549 C -0.12477 0.34707 0.27236
 N550 N -0.12464 0.37078 0.25154
 N551 N -0.10097 0.41171 0.23090
 C552 C -0.07723 0.42905 0.23106
 C553 C -0.05264 0.42285 0.25335
 N554 N -0.05284 0.39919 0.27413
 H555 H -0.09921 0.32239 0.31149
 H556 H -0.07728 0.44722 0.21377
 C557 C 0.12020 0.37425 0.75564
 C558 C 0.09904 0.37228 0.73071
 N559 N 0.10647 0.35014 0.70842
 C560 C 0.13410 0.32973 0.70987
 C561 C 0.15546 0.33148 0.73482
 N562 N 0.14790 0.35388 0.75712
 N563 N 0.11251 0.39630 0.77808
 C564 C 0.08468 0.41657 0.77660
 C565 C 0.06371 0.41491 0.75137
 N566 N 0.07136 0.39251 0.72920
 H567 H 0.13923 0.31249 0.69158
 H568 H 0.07890 0.43378 0.79489
 C569 C 0.09681 0.61728 0.25634
 C570 C 0.07746 0.61899 0.28304
 N571 N 0.08267 0.63779 0.30721
 C572 C 0.10636 0.65509 0.30590
 C573 C 0.12576 0.65358 0.27912
 N574 N 0.12043 0.63456 0.25500
 N575 N 0.09137 0.59874 0.23200
 C576 C 0.06743 0.58172 0.23320
 C577 C 0.04820 0.58314 0.26005
 N578 N 0.05356 0.60206 0.28423
 H579 H 0.10983 0.66983 0.32557
 H580 H 0.06322 0.56745 0.21333
 C581 C 0.73500 -0.09592 0.62233
 C582 C 0.70977 -0.07091 0.62383
 N583 N 0.68476 -0.07276 0.64287
 C584 C 0.68376 -0.09851 0.66053
 C585 C 0.70897 -0.12371 0.65912
 N586 N 0.73402 -0.12167 0.63994
 N587 N 0.76007 -0.09400 0.60333
 C588 C 0.76094 -0.06824 0.58560
 C589 C 0.73546 -0.04337 0.58670
 N590 N 0.71059 -0.04523 0.60612
 H591 H 0.66343 -0.09914 0.67538
 H592 H 0.78120 -0.06715 0.57069
 C593 C 0.27797 -0.12363 0.37534
 C594 C 0.25701 -0.11551 0.40038
 N595 N 0.23323 -0.13205 0.40552
 C596 C 0.22933 -0.15627 0.38660
 C597 C 0.25002 -0.16418 0.36116
 N598 N 0.27394 -0.14760 0.35632
 N599 N 0.30170 -0.10708 0.37008
 C600 C 0.30531 -0.08258 0.38866
 C601 C 0.28419 -0.07415 0.41362
 N602 N 0.26043 -0.09088 0.41880
 H603 H 0.21001 -0.16881 0.39119
 H604 H 0.32432 -0.06963 0.38390
 C605 C 0.73581 0.11855 0.37544
 C606 C 0.75879 0.11099 0.39905
 N607 N 0.78246 0.12807 0.40207
 C608 C 0.78432 0.15229 0.38247
 C609 C 0.76156 0.15974 0.35848
 N610 N 0.73777 0.14259 0.35572
 N611 N 0.71222 0.10140 0.37227
 C612 C 0.71069 0.07684 0.39150
 C613 C 0.73384 0.06895 0.41498
 N614 N 0.75743 0.08631 0.41813
 H615 H 0.80363 0.16523 0.38545
 H616 H 0.69178 0.06337 0.38832
 C617 C 0.27855 0.09013 0.62201
 C618 C 0.30465 0.06616 0.62499
 N619 N 0.32779 0.06892 0.64622
 C620 C 0.32603 0.09460 0.66467
 C621 C 0.29984 0.11865 0.66182
 N622 N 0.27674 0.11568 0.64045
 N623 N 0.25530 0.08739 0.60090
 C624 C 0.25704 0.06174 0.58249
 C625 C 0.28329 0.03782 0.58517
 N626 N 0.30637 0.04049 0.60666
 H627 H 0.34483 0.09603 0.68138
 H628 H 0.23809 0.05991 0.56600
   
