data_POSCAR
  _audit_creation_date              2014-09-24
  _audit_creation_method            'ToBaCCo'
  _symmetry_space_group_name_H-M    'P1'
  _symmetry_Int_Tables_number       1
  _symmetry_cell_setting            triclinic
  loop_
  _symmetry_equiv_pos_as_xyz
 x,y,z
_cell_length_a 40.6477
_cell_length_b 41.0171
_cell_length_c 62.4530
_cell_angle_alpha 90.031300
_cell_angle_beta 89.977500
_cell_angle_gamma 120.359000
loop_
  _atom_site_label
  _atom_site_type_symbol
  _atom_site_fract_x
  _atom_site_fract_y
  _atom_site_fract_z
C1 C 0.01942 0.50957 1.26958
 C2 C -0.02084 0.48846 1.26966
 C3 C -0.04072 0.47799 1.25018
 C4 C -0.02101 0.48819 1.23064
 C5 C 0.01917 0.50920 1.23058
 C6 C 0.03906 0.51975 1.25003
 H7 H 0.07000 0.53591 1.24990
 H8 H -0.07168 0.46176 1.25022
 C9 C 0.50890 0.48987 1.23111
 C10 C 0.48982 0.51051 1.23113
 C11 C 0.48007 0.52038 1.25061
 C12 C 0.48918 0.50990 1.27011
 C13 C 0.50825 0.48918 1.27007
 C14 C 0.51795 0.47931 1.25057
 H15 H 0.53270 0.46345 1.25053
 H16 H 0.46543 0.53636 1.25056
 C17 C 0.48960 0.98050 1.26995
 C18 C 0.50866 1.02039 1.26993
 C19 C 0.51741 1.03990 1.25041
 C20 C 0.50737 1.02020 1.23096
 C21 C 0.48829 0.98046 1.23097
 C22 C 0.47956 0.96087 1.25044
 H23 H 0.46487 0.93022 1.25036
 H24 H 0.53208 1.07055 1.25032
 C25 C 0.98026 0.48860 0.73103
 C26 C 1.02039 0.50912 0.73084
 C27 C 1.04049 0.51942 0.75022
 C28 C 1.02098 0.50940 0.76981
 C29 C 0.98078 0.48880 0.76999
 C30 C 0.96072 0.47859 0.75059
 H31 H 0.92979 0.46273 0.75072
 H32 H 1.07144 0.53523 0.75001
 C33 C 0.51110 0.49152 0.73015
 C34 C 0.49175 0.51190 0.73018
 C35 C 0.48217 0.52189 0.74968
 C36 C 0.49173 0.51179 0.76914
 C37 C 0.51106 0.49139 0.76910
 C38 C 0.52060 0.48137 0.74961
 H39 H 0.53555 0.46570 0.74958
 H40 H 0.46731 0.53765 0.74972
 C41 C 0.48658 -0.02132 0.76989
 C42 C 0.50587 0.01851 0.76998
 C43 C 0.51522 0.03822 0.75054
 C44 C 0.50566 0.01873 0.73101
 C45 C 0.48647 -0.02102 0.73091
 C46 C 0.47700 -0.04080 0.75034
 H47 H 0.46222 -0.07146 0.75019
 H48 H 0.53009 0.06887 0.75060
 O49 O 0.39188 0.67070 0.97571
 O50 O 0.39257 0.73377 0.98196
 C51 C 0.36851 0.73812 0.97125
 O52 O 0.33320 0.72098 0.97532
 O53 O 0.26917 0.65820 0.98139
 C54 C 0.26478 0.62980 0.97083
 O55 O 0.28185 0.61201 0.97517
 O56 O 0.34483 0.61161 0.98181
 C57 C 0.37381 0.63579 0.97141
 O58 O 0.39299 0.66054 1.01844
 O59 O 0.39037 0.72189 1.02468
 C60 C 0.37146 0.73791 1.02881
 O61 O 0.34264 0.73263 1.01808
 O62 O 0.28035 0.66826 1.02416
 C63 C 0.26394 0.63334 1.02836
 O64 O 0.26929 0.60994 1.01782
 O65 O 0.33388 0.61283 1.02447
 C66 C 0.36903 0.63166 1.02890
 Cr67 Cr 0.38984 0.69565 1.00018
 Cr68 Cr 0.30741 0.69401 0.99974
 Cr69 Cr 0.30850 0.61369 0.99982
 O70 O 0.33525 0.66778 0.99991
 O71 O 0.60880 0.34323 0.98175
 O72 O 0.60851 0.28032 0.97557
 C73 C 0.62624 0.26307 0.97151
 O74 O 0.65462 0.26722 0.98227
 O75 O 0.71849 0.33016 0.97630
 C76 C 0.73620 0.36509 0.97208
 O77 O 0.73190 0.38929 0.98249
 O78 O 0.66873 0.38923 0.97568
 C79 C 0.63354 0.37161 0.97126
 O80 O 0.60932 0.33284 1.02450
 O81 O 0.60563 0.26833 1.01828
 C82 C 0.62883 0.26272 1.02902
 O83 O 0.66412 0.27868 1.02503
 O84 O 0.72954 0.33995 1.01908
 C85 C 0.73514 0.36887 1.02956
 O86 O 0.71940 0.38787 1.02511
 O87 O 0.65796 0.39110 1.01831
 C88 C 0.62860 0.36774 1.02876
 Cr89 Cr 0.61018 0.30719 1.00004
 Cr90 Cr 0.69069 0.30509 1.00066
 Cr91 Cr 0.69339 0.38728 1.00039
 O92 O 0.66476 0.33318 1.00036
 O93 O 0.65872 0.38933 0.51802
 O94 O 0.72056 0.38657 0.52428
 C95 C 0.73659 0.36776 0.52854
 O96 O 0.73102 0.33891 0.51800
 O97 O 0.66606 0.27744 0.52449
 C98 C 0.63092 0.26138 0.52888
 O99 O 0.60722 0.26666 0.51842
 O100 O 0.61057 0.33102 0.52463
 C101 C 0.62971 0.36598 0.52871
 O102 O 0.66840 0.38704 0.47531
 O103 O 0.73205 0.38771 0.48156
 C104 C 0.73626 0.36357 0.47104
 O105 O 0.71879 0.32866 0.47531
 O106 O 0.65537 0.26554 0.48180
 C107 C 0.62658 0.26106 0.47135
 O108 O 0.60872 0.27807 0.47568
 O109 O 0.60877 0.34082 0.48190
 C110 C 0.63309 0.36915 0.47121
 Cr111 Cr 0.69384 0.38557 0.49980
 Cr112 Cr 0.69179 0.30371 0.49990
 Cr113 Cr 0.61093 0.30516 0.50015
 O114 O 0.66552 0.33147 0.49995
 O115 O 0.33257 0.61265 0.52405
 O116 O 0.26837 0.61070 0.51757
 C117 C 0.26352 0.63447 0.52806
 O118 O 0.28030 0.66936 0.52376
 O119 O 0.34304 0.73325 0.51746
 C120 C 0.37189 0.73834 0.52808
 O121 O 0.39032 0.72182 0.52397
 O122 O 0.39189 0.65987 0.51787
 C123 C 0.36777 0.63115 0.52839
 O124 O 0.34298 0.61092 0.48136
 O125 O 0.28044 0.61225 0.47487
 C126 C 0.26377 0.63042 0.47052
 O127 O 0.26866 0.65905 0.48103
 O128 O 0.33309 0.72127 0.47475
 C129 C 0.36835 0.73794 0.47056
 O130 O 0.39227 0.73328 0.48121
 O131 O 0.39057 0.66970 0.47512
 C132 C 0.37206 0.63476 0.47090
 Cr133 Cr 0.30715 0.61372 0.49946
 Cr134 Cr 0.30732 0.69469 0.49926
 Cr135 Cr 0.38914 0.69511 0.49954
 O136 O 0.33454 0.66784 0.49942
 C137 C 0.47953 0.52028 0.28880
 C138 C 0.47102 0.52966 0.30522
 C139 C 0.46077 0.54124 0.32464
 C140 C 0.44950 0.56828 0.32383
 C141 C 0.43948 0.57968 0.34261
 C142 C 0.44060 0.56416 0.36250
 C143 C 0.45193 0.53693 0.36316
 C144 C 0.46198 0.52558 0.34433
 C145 C 0.42981 0.57631 0.38241
 C146 C 0.40758 0.54978 0.39821
 C147 C 0.39648 0.56121 0.41662
 C148 C 0.40754 0.59924 0.41949
 C149 C 0.43001 0.62587 0.40399
 C150 C 0.44110 0.61453 0.38558
 C151 C 0.39512 0.61100 0.43802
 C152 C 0.38463 0.62149 0.45322
 H153 H 0.44834 0.58049 0.30867
 H154 H 0.43033 0.60026 0.34153
 H155 H 0.45347 0.52478 0.37824
 H156 H 0.47074 0.50466 0.34513
 H157 H 0.39808 0.52011 0.39612
 H158 H 0.37895 0.54033 0.42849
 H159 H 0.43878 0.65540 0.40606
 H160 H 0.45866 0.63570 0.37386
 C161 C 0.48054 0.96032 0.28860
 C162 C 0.47245 0.94237 0.30498
 C163 C 0.46253 0.92052 0.32438
 C164 C 0.46159 0.88596 0.32466
 C165 C 0.45101 0.86413 0.34329
 C166 C 0.44117 0.87658 0.36192
 C167 C 0.44262 0.91159 0.36156
 C168 C 0.45321 0.93340 0.34288
 C169 C 0.42882 0.85277 0.38150
 C170 C 0.44078 0.86911 0.40192
 C171 C 0.42899 0.84649 0.42029
 C172 C 0.40509 0.80733 0.41848
 C173 C 0.39301 0.79086 0.39826
 C174 C 0.40476 0.81338 0.37989
 C175 C 0.39279 0.78382 0.43727
 C176 C 0.38193 0.76332 0.45267
 H177 H 0.46886 0.87579 0.31044
 H178 H 0.45074 0.83760 0.34315
 H179 H 0.43480 0.92174 0.37556
 H180 H 0.45375 0.96008 0.34281
 H181 H 0.45963 0.89929 0.40366
 H182 H 0.43856 0.85951 0.43587
 H183 H 0.37439 0.76059 0.39668
 H184 H 0.39458 0.80001 0.36445
 C185 C 0.03996 0.52032 0.28819
 C186 C 0.05825 0.52984 0.30453
 C187 C 0.08050 0.54133 0.32388
 C188 C 0.11923 0.56876 0.32302
 C189 C 0.14119 0.57959 0.34168
 C190 C 0.12470 0.56309 0.36150
 C191 C 0.08564 0.53573 0.36223
 C192 C 0.06371 0.52490 0.34352
 C193 C 0.14834 0.57419 0.38123
 C194 C 0.13405 0.57914 0.40074
 C195 C 0.15667 0.59010 0.41920
 C196 C 0.19376 0.59613 0.41840
 C197 C 0.20809 0.59103 0.39911
 C198 C 0.18558 0.58013 0.38066
 C199 C 0.21746 0.60795 0.43721
 C200 C 0.23815 0.61808 0.45263
 H201 H 0.13248 0.58173 0.30791
 H202 H 0.17103 0.60112 0.34064
 H203 H 0.07222 0.52222 0.37719
 H204 H 0.03376 0.50354 0.34434
 H205 H 0.10565 0.57518 0.40164
 H206 H 0.14532 0.59407 0.43404
 H207 H 0.23673 0.59552 0.39832
 H208 H 0.19720 0.57599 0.36598
 C209 C 0.51838 0.47792 0.28975
 C210 C 0.52706 0.46847 0.30607
 C211 C 0.53781 0.45706 0.32535
 C212 C 0.53914 0.47438 0.34491
 C213 C 0.55039 0.46370 0.36354
 C214 C 0.56055 0.43560 0.36279
 C215 C 0.55879 0.41818 0.34307
 C216 C 0.54752 0.42887 0.32450
 C217 C 0.57334 0.42472 0.38240
 C218 C 0.60391 0.41786 0.38146
 C219 C 0.61575 0.40717 0.39980
 C220 C 0.59727 0.40319 0.41935
 C221 C 0.56697 0.41015 0.42052
 C222 C 0.55508 0.42090 0.40217
 C223 C 0.60932 0.39154 0.43806
 C224 C 0.61991 0.38148 0.45339
 H225 H 0.53181 0.49633 0.34573
 H226 H 0.55185 0.47791 0.37842
 H227 H 0.56587 0.39608 0.34203
 H228 H 0.54648 0.41521 0.30945
 H229 H 0.61891 0.42111 0.36656
 H230 H 0.63931 0.40195 0.39873
 H231 H 0.55240 0.40705 0.43557
 H232 H 0.53122 0.42560 0.40336
 C233 C 0.51877 0.04067 0.28856
 C234 C 0.52767 0.05870 0.30494
 C235 C 0.53835 0.08058 0.32435
 C236 C 0.52733 0.06260 0.34427
 C237 C 0.53749 0.08403 0.36309
 C238 C 0.55876 0.12375 0.36218
 C239 C 0.56982 0.14149 0.34206
 C240 C 0.55966 0.12003 0.32329
 C241 C 0.56935 0.14670 0.38208
 C242 C 0.56775 0.18015 0.38286
 C243 C 0.57853 0.20227 0.40138
 C244 C 0.59102 0.19131 0.41939
 C245 C 0.59241 0.15790 0.41887
 C246 C 0.58159 0.13568 0.40034
 C247 C 0.60320 0.21493 0.43815
 C248 C 0.61371 0.23553 0.45352
 H249 H 0.51075 0.03205 0.34525
 H250 H 0.52821 0.06957 0.37831
 H251 H 0.58670 0.17197 0.34084
 H252 H 0.56844 0.13421 0.30795
 H253 H 0.55792 0.18910 0.36918
 H254 H 0.57729 0.22805 0.40162
 H255 H 0.60218 0.14923 0.43270
 H256 H 0.58353 0.11031 0.40015
 C257 C 0.95887 0.47771 0.28836
 C258 C 0.94089 0.46811 0.30481
 C259 C 0.91910 0.45638 0.32431
 C260 C 0.88105 0.42712 0.32388
 C261 C 0.85965 0.41568 0.34274
 C262 C 0.87604 0.43340 0.36234
 C263 C 0.91435 0.46281 0.36262
 C264 C 0.93573 0.47418 0.34372
 C265 C 0.85305 0.42137 0.38232
 C266 C 0.85588 0.44830 0.39732
 C267 C 0.83325 0.43693 0.41577
 C268 C 0.80763 0.39856 0.41949
 C269 C 0.80497 0.37156 0.40480
 C270 C 0.82751 0.38285 0.38635
 C271 C 0.78326 0.38683 0.43802
 C272 C 0.76217 0.37649 0.45327
 H273 H 0.86787 0.41324 0.30893
 H274 H 0.83009 0.39337 0.34193
 H275 H 0.92788 0.47671 0.37749
 H276 H 0.96520 0.49684 0.34423
 H277 H 0.87493 0.47818 0.39455
 H278 H 0.83542 0.45808 0.42699
 H279 H 0.78526 0.34178 0.40753
 H280 H 0.82507 0.36142 0.37527
 C281 C 0.51963 0.47944 1.21135
 C282 C 0.52878 0.47071 1.19493
 C283 C 0.54001 0.46015 1.17549
 C284 C 0.55958 0.44028 1.17653
 C285 C 0.57076 0.43007 1.15773
 C286 C 0.56250 0.43960 1.13760
 C287 C 0.54270 0.45950 1.13671
 C288 C 0.53157 0.46974 1.15555
 C289 C 0.57446 0.42867 1.11767
 C290 C 0.54994 0.41483 1.09986
 C291 C 0.56087 0.40343 1.08137
 C292 C 0.59643 0.40584 1.08043
 C293 C 0.62119 0.42000 1.09796
 C294 C 0.61032 0.43136 1.11645
 C295 C 0.60728 0.39285 1.06179
 C296 C 0.61679 0.38159 1.04651
 H297 H 0.56614 0.43262 1.19187
 H298 H 0.58544 0.41427 1.15895
 H299 H 0.53629 0.46758 1.12146
 H300 H 0.51652 0.48522 1.15458
 H301 H 0.52200 0.41202 1.10040
 H302 H 0.54142 0.39236 1.06792
 H303 H 0.64881 0.42203 1.09739
 H304 H 0.63005 0.44240 1.12976
 C305 C 0.95865 0.47745 1.21199
 C306 C 0.94047 0.46788 1.19561
 C307 C 0.91830 0.45627 1.17623
 C308 C 0.93374 0.47576 1.15707
 C309 C 0.91177 0.46482 1.13837
 C310 C 0.87402 0.43427 1.13865
 C311 C 0.85893 0.41469 1.15797
 C312 C 0.88093 0.42565 1.17662
 C313 C 0.85022 0.42312 1.11898
 C314 C 0.81156 0.41276 1.12014
 C315 C 0.78901 0.40206 1.10171
 C316 C 0.80470 0.40156 1.08186
 C317 C 0.84316 0.41192 1.08049
 C318 C 0.86582 0.42268 1.09893
 C319 C 0.78110 0.39026 1.06301
 C320 C 0.76055 0.38059 1.04754
 H321 H 0.96260 0.49960 1.15662
 H322 H 0.92405 0.48071 1.12381
 H323 H 0.83019 0.39072 1.15864
 H324 H 0.86875 0.41030 1.19136
 H325 H 0.79886 0.41335 1.13527
 H326 H 0.75931 0.39421 1.10294
 H327 H 0.85558 0.41155 1.06520
 H328 H 0.89536 0.43011 1.09755
 C329 C 0.51693 0.04132 1.21121
 C330 C 0.52507 0.05918 1.19480
 C331 C 0.53505 0.08097 1.17537
 C332 C 0.55296 0.12036 1.17644
 C333 C 0.56290 0.14175 1.15765
 C334 C 0.55507 0.12398 1.13750
 C335 C 0.53705 0.08433 1.13659
 C336 C 0.52707 0.06297 1.15543
 C337 C 0.56604 0.14688 1.11759
 C338 C 0.58210 0.13786 1.10023
 C339 C 0.59369 0.16032 1.08181
 C340 C 0.58926 0.19196 1.08047
 C341 C 0.57285 0.20085 1.09753
 C342 C 0.56129 0.17848 1.11596
 C343 C 0.60264 0.21608 1.06194
 C344 C 0.61433 0.23699 1.04673
 H345 H 0.55939 0.13458 1.19180
 H346 H 0.57724 0.17223 1.15889
 H347 H 0.53029 0.06983 1.12133
 H348 H 0.51312 0.03246 1.15443
 H349 H 0.58653 0.11400 1.10111
 H350 H 0.60654 0.15330 1.06873
 H351 H 0.56928 0.22526 1.09665
 H352 H 0.54854 0.18584 1.12892
 C353 C 0.48010 0.52193 1.21140
 C354 C 0.47188 0.53158 1.19499
 C355 C 0.46181 0.54332 1.17558
 C356 C 0.45524 0.52251 1.15670
 C357 C 0.44464 0.53358 1.13798
 C358 C 0.44041 0.56558 1.13795
 C359 C 0.44745 0.58648 1.15698
 C360 C 0.45806 0.57538 1.17565
 C361 C 0.42818 0.57690 1.11828
 C362 C 0.40188 0.58955 1.11959
 C363 C 0.39038 0.60035 1.10115
 C364 C 0.40495 0.59866 1.08115
 C365 C 0.43104 0.58602 1.07963
 C366 C 0.44259 0.57516 1.09808
 C367 C 0.39300 0.61003 1.06229
 C368 C 0.38240 0.61979 1.04684
 H369 H 0.45797 0.49757 1.15649
 H370 H 0.43902 0.51668 1.12365
 H371 H 0.44501 0.61156 1.15740
 H372 H 0.46320 0.59175 1.19017
 H373 H 0.38982 0.59066 1.13485
 H374 H 0.37005 0.60995 1.10250
 H375 H 0.44255 0.58466 1.06422
 H376 H 0.46317 0.56592 1.09658
 C377 C 0.04065 0.52012 1.21084
 C378 C 0.05882 0.52927 1.19446
 C379 C 0.08098 0.54032 1.17507
 C380 C 0.06305 0.52832 1.15515
 C381 C 0.08477 0.53889 1.13635
 C382 C 0.12475 0.56154 1.13729
 C383 C 0.14244 0.57355 1.15741
 C384 C 0.12068 0.56299 1.17615
 C385 C 0.14803 0.57265 1.11742
 C386 C 0.18278 0.57294 1.11683
 C387 C 0.20522 0.58429 1.09834
 C388 C 0.19328 0.59547 1.08019
 C389 C 0.15858 0.59494 1.08052
 C390 C 0.13604 0.58355 1.09901
 C391 C 0.21723 0.60834 1.06148
 C392 C 0.23810 0.61953 1.04615
 H393 H 0.03232 0.51065 1.15414
 H394 H 0.07037 0.52889 1.12113
 H395 H 0.17308 0.59147 1.15865
 H396 H 0.13484 0.57253 1.19149
 H397 H 0.19252 0.56419 1.13063
 H398 H 0.23201 0.58455 1.09825
 H399 H 0.14914 0.60369 1.06658
 H400 H 0.10964 0.58401 1.09905
 C401 C 0.47737 0.95922 1.21124
 C402 C 0.46810 0.94124 1.19485
 C403 C 0.45682 0.91930 1.17546
 C404 C 0.42597 0.88225 1.17573
 C405 C 0.41533 0.86049 1.15707
 C406 C 0.43546 0.87551 1.13785
 C407 C 0.46624 0.91295 1.13769
 C408 C 0.47687 0.93467 1.15640
 C409 C 0.42465 0.85198 1.11817
 C410 C 0.42448 0.86744 1.09808
 C411 C 0.41402 0.84502 1.07963
 C412 C 0.40371 0.80696 1.08103
 C413 C 0.40395 0.79141 1.10092
 C414 C 0.41434 0.81372 1.11936
 C415 C 0.39265 0.78359 1.06219
 C416 C 0.38312 0.76319 1.04674
 H417 H 0.41019 0.87013 1.19039
 H418 H 0.39117 0.83198 1.15763
 H419 H 0.48255 0.92516 1.12321
 H420 H 0.50089 0.96330 1.15605
 H421 H 0.43186 0.89668 1.09669
 H422 H 0.41383 0.85731 1.06432
 H423 H 0.39613 0.76201 1.10218
 H424 H 0.41474 0.80114 1.13453
 C425 C 0.52161 0.48085 0.71041
 C426 C 0.53063 0.47183 0.69404
 C427 C 0.54174 0.46083 0.67472
 C428 C 0.56034 0.44005 0.67597
 C429 C 0.57144 0.42941 0.65731
 C430 C 0.56406 0.43943 0.63708
 C431 C 0.54521 0.46024 0.63597
 C432 C 0.53417 0.47091 0.65469
 C433 C 0.57596 0.42809 0.61729
 C434 C 0.55182 0.41487 0.59930
 C435 C 0.56268 0.40315 0.58092
 C436 C 0.59782 0.40459 0.58027
 C437 C 0.62219 0.41810 0.59798
 C438 C 0.61139 0.42979 0.61636
 C439 C 0.60863 0.39138 0.56170
 C440 C 0.61805 0.37997 0.54646
 H441 H 0.56623 0.43200 0.69140
 H442 H 0.58537 0.41292 0.65869
 H443 H 0.53949 0.46871 0.62065
 H444 H 0.51988 0.48710 0.65355
 H445 H 0.52420 0.41284 0.59961
 H446 H 0.54353 0.39259 0.56733
 H447 H 0.64948 0.41939 0.59764
 H448 H 0.63083 0.44033 0.62981
 C449 C 0.51602 0.04008 0.71133
 C450 C 0.52487 0.05814 0.69497
 C451 C 0.53577 0.08017 0.67562
 C452 C 0.53241 0.06289 0.65577
 C453 C 0.54358 0.08456 0.63704
 C454 C 0.55837 0.12384 0.63796
 C455 C 0.56137 0.14084 0.65800
 C456 C 0.55016 0.11914 0.67668
 C457 C 0.57095 0.14714 0.61819
 C458 C 0.60439 0.18285 0.61826
 C459 C 0.61604 0.20511 0.59980
 C460 C 0.59452 0.19205 0.58100
 C461 C 0.56134 0.15648 0.58069
 C462 C 0.54962 0.13411 0.59916
 C463 C 0.60651 0.21553 0.56219
 C464 C 0.61726 0.23602 0.54678
 H465 H 0.52141 0.03274 0.65479
 H466 H 0.54130 0.07072 0.62189
 H467 H 0.57209 0.17090 0.65921
 H468 H 0.55277 0.13278 0.69196
 H469 H 0.62174 0.19343 0.63255
 H470 H 0.64184 0.23255 0.60020
 H471 H 0.54441 0.14615 0.56623
 H472 H 0.52355 0.10693 0.59867
 C473 C 0.95863 0.47748 0.71138
 C474 C 0.94043 0.46810 0.69502
 C475 C 0.91837 0.45673 0.67561
 C476 C 0.93640 0.46220 0.65575
 C477 C 0.91480 0.45099 0.63692
 C478 C 0.87486 0.43407 0.63776
 C479 C 0.85707 0.42879 0.65782
 C480 C 0.87870 0.44005 0.67660
 C481 C 0.85174 0.42201 0.61785
 C482 C 0.81672 0.38777 0.61724
 C483 C 0.79442 0.37682 0.59871
 C484 C 0.80679 0.39989 0.58052
 C485 C 0.84175 0.43383 0.58087
 C486 C 0.86415 0.44483 0.59940
 C487 C 0.78299 0.38901 0.56177
 C488 C 0.76226 0.37953 0.54639
 H489 H 0.96709 0.47498 0.65483
 H490 H 0.92927 0.45506 0.62175
 H491 H 0.82646 0.41637 0.65897
 H492 H 0.86449 0.43581 0.69189
 H493 H 0.80665 0.36934 0.63107
 H494 H 0.76742 0.35046 0.59860
 H495 H 0.85151 0.45197 0.56690
 H496 H 0.89076 0.47154 0.59945
 C497 C 0.48155 0.52292 0.71047
 C498 C 0.47290 0.53226 0.69409
 C499 C 0.46232 0.54367 0.67474
 C500 C 0.45786 0.52413 0.65558
 C501 C 0.44684 0.53491 0.63690
 C502 C 0.44005 0.56533 0.63720
 C503 C 0.44494 0.58494 0.65652
 C504 C 0.45598 0.57416 0.67514
 C505 C 0.42746 0.57635 0.61755
 C506 C 0.39925 0.58654 0.61876
 C507 C 0.38752 0.59722 0.60036
 C508 C 0.40376 0.59786 0.58050
 C509 C 0.43174 0.58763 0.57908
 C510 C 0.44351 0.57689 0.59749
 C511 C 0.39170 0.60928 0.56170
 C512 C 0.38106 0.61912 0.54629
 H513 H 0.46258 0.50041 0.65511
 H514 H 0.44291 0.51900 0.62234
 H515 H 0.44050 0.60882 0.65720
 H516 H 0.45947 0.58954 0.68988
 H517 H 0.38593 0.58586 0.63390
 H518 H 0.36576 0.60497 0.60163
 H519 H 0.44457 0.58813 0.56378
 H520 H 0.46557 0.56959 0.59608
 C521 C 0.47653 0.95798 0.71109
 C522 C 0.46832 0.94034 0.69459
 C523 C 0.45854 0.91893 0.67501
 C524 C 0.45227 0.88212 0.67513
 C525 C 0.44267 0.86111 0.65620
 C526 C 0.43918 0.87667 0.63684
 C527 C 0.44554 0.91374 0.63688
 C528 C 0.45519 0.93473 0.65586
 C529 C 0.42865 0.85410 0.61680
 C530 C 0.40252 0.85488 0.60232
 C531 C 0.39166 0.83254 0.58384
 C532 C 0.40685 0.80927 0.57955
 C533 C 0.43322 0.80870 0.59370
 C534 C 0.44408 0.83094 0.61219
 C535 C 0.39463 0.78509 0.56101
 C536 C 0.38430 0.76413 0.54579
 H537 H 0.45467 0.86958 0.68988
 H538 H 0.43740 0.83248 0.65676
 H539 H 0.44347 0.92663 0.62220
 H540 H 0.46006 0.96325 0.65559
 H541 H 0.38982 0.87207 0.60555
 H542 H 0.37108 0.83308 0.57304
 H543 H 0.44519 0.79082 0.59053
 H544 H 0.46466 0.83013 0.62285
 C545 C 0.04151 0.51979 0.71101
 C546 C 0.05945 0.52881 0.69455
 C547 C 0.08143 0.53981 0.67510
 C548 C 0.06507 0.54201 0.65584
 C549 C 0.08677 0.55326 0.63704
 C550 C 0.12518 0.56254 0.63732
 C551 C 0.14123 0.55999 0.65676
 C552 C 0.11949 0.54871 0.67550
 C553 C 0.14861 0.57520 0.61753
 C554 C 0.18671 0.60495 0.61832
 C555 C 0.20905 0.61660 0.59981
 C556 C 0.19368 0.59876 0.58024
 C557 C 0.15574 0.56929 0.57922
 C558 C 0.13329 0.55759 0.59774
 C559 C 0.21722 0.61063 0.56137
 C560 C 0.23786 0.62118 0.54594
 H561 H 0.03565 0.53531 0.65538
 H562 H 0.07374 0.55535 0.62238
 H563 H 0.17053 0.56640 0.65744
 H564 H 0.13240 0.54700 0.69032
 H565 H 0.19915 0.61945 0.63323
 H566 H 0.23835 0.63952 0.60077
 H567 H 0.14360 0.55522 0.56415
 H568 H 0.10419 0.53435 0.59666
 C569 C 0.48164 0.52280 0.78891
 C570 C 0.47323 0.53218 0.80536
 C571 C 0.46316 0.54371 0.82486
 C572 C 0.45404 0.57233 0.82436
 C573 C 0.44415 0.58365 0.84321
 C574 C 0.44324 0.56645 0.86287
 C575 C 0.45243 0.53766 0.86321
 C576 C 0.46236 0.52640 0.84431
 C577 C 0.43244 0.57840 0.88285
 C578 C 0.40840 0.55147 0.89801
 C579 C 0.39725 0.56274 0.91646
 C580 C 0.41007 0.60102 0.92001
 C581 C 0.43436 0.62804 0.90516
 C582 C 0.44551 0.61685 0.88671
 C583 C 0.39749 0.61264 0.93852
 C584 C 0.38677 0.62291 0.95372
 H585 H 0.45443 0.58582 0.80937
 H586 H 0.43666 0.60547 0.84237
 H587 H 0.45238 0.52417 0.87812
 H588 H 0.46943 0.50424 0.84487
 H589 H 0.39752 0.52165 0.89537
 H590 H 0.37829 0.54158 0.92780
 H591 H 0.44448 0.65775 0.90776
 H592 H 0.46447 0.63829 0.87550
 C593 C 0.04150 0.51975 0.78840
 C594 C 0.05980 0.52892 0.80473
 C595 C 0.08206 0.53998 0.82407
 C596 C 0.12183 0.56167 0.82288
 C597 C 0.14367 0.57224 0.84158
 C598 C 0.12600 0.56123 0.86176
 C599 C 0.08596 0.53957 0.86280
 C600 C 0.06414 0.52898 0.84405
 C601 C 0.14937 0.57226 0.88158
 C602 C 0.13808 0.58422 0.89986
 C603 C 0.16064 0.59535 0.91834
 C604 C 0.19466 0.59456 0.91878
 C605 C 0.20593 0.58239 0.90075
 C606 C 0.18347 0.57130 0.88228
 C607 C 0.21848 0.60678 0.93754
 C608 C 0.23920 0.61720 0.95293
 H609 H 0.13597 0.57043 0.80749
 H610 H 0.17439 0.58939 0.84026
 H611 H 0.07156 0.53032 0.87808
 H612 H 0.03336 0.51208 0.84513
 H613 H 0.11221 0.58567 0.89973
 H614 H 0.15172 0.60485 0.93219
 H615 H 0.23216 0.58159 0.90095
 H616 H 0.19264 0.56170 0.86860
 C617 C 0.47706 0.95852 0.78854
 C618 C 0.46861 0.94056 0.80493
 C619 C 0.45835 0.91873 0.82435
 C620 C 0.43743 0.87926 0.82331
 C621 C 0.42748 0.85785 0.84209
 C622 C 0.43832 0.87566 0.86221
 C623 C 0.45926 0.91540 0.86310
 C624 C 0.46925 0.93677 0.84426
 C625 C 0.42769 0.85277 0.88212
 C626 C 0.41502 0.86363 0.90029
 C627 C 0.40398 0.84137 0.91879
 C628 C 0.40558 0.80809 0.91940
 C629 C 0.41857 0.79731 0.90151
 C630 C 0.42956 0.81947 0.88300
 C631 C 0.39299 0.78434 0.93810
 C632 C 0.38204 0.76367 0.95344
 H633 H 0.42874 0.86501 0.80798
 H634 H 0.41086 0.82736 0.84088
 H635 H 0.46837 0.92991 0.87832
 H636 H 0.48557 0.96732 0.84523
 H637 H 0.41286 0.88888 0.90002
 H638 H 0.39381 0.84989 0.93252
 H639 H 0.41997 0.77162 0.90182
 H640 H 0.43971 0.81064 0.86940
 C641 C 0.52152 0.48061 0.78881
 C642 C 0.53045 0.47154 0.80518
 C643 C 0.54143 0.46052 0.82453
 C644 C 0.54013 0.47613 0.84424
 C645 C 0.55133 0.46567 0.86296
 C646 C 0.56406 0.43952 0.86218
 C647 C 0.56504 0.42388 0.84229
 C648 C 0.55380 0.43433 0.82362
 C649 C 0.57648 0.42866 0.88195
 C650 C 0.60860 0.42420 0.88161
 C651 C 0.61997 0.41332 0.90006
 C652 C 0.59947 0.40676 0.91913
 C653 C 0.56764 0.41137 0.91971
 C654 C 0.55622 0.42231 0.90125
 C655 C 0.61094 0.39472 0.93791
 C656 C 0.62100 0.38433 0.95333
 H657 H 0.53071 0.49653 0.84510
 H658 H 0.55066 0.47850 0.87799
 H659 H 0.57414 0.40327 0.84120
 H660 H 0.55480 0.42200 0.80846
 H661 H 0.62512 0.42941 0.86710
 H662 H 0.64471 0.40991 0.89945
 H663 H 0.55149 0.40625 0.93437
 H664 H 0.53114 0.42511 0.90196
 C665 C 0.95952 0.47769 0.78980
 C666 C 0.94167 0.46826 0.80629
 C667 C 0.92005 0.45674 0.82585
 C668 C 0.93508 0.47779 0.84462
 C669 C 0.91379 0.46667 0.86356
 C670 C 0.87718 0.43428 0.86394
 C671 C 0.86243 0.41328 0.84499
 C672 C 0.88373 0.42446 0.82609
 C673 C 0.85421 0.42259 0.88392
 C674 C 0.83239 0.38415 0.88948
 C675 C 0.80971 0.37302 0.90788
 C676 C 0.80853 0.40010 0.92097
 C677 C 0.83046 0.43844 0.91573
 C678 C 0.85322 0.44966 0.89734
 C679 C 0.78383 0.38833 0.93937
 C680 C 0.76247 0.37799 0.95448
 H681 H 0.96321 0.50280 0.84461
 H682 H 0.92607 0.48318 0.87794
 H683 H 0.83414 0.38855 0.84469
 H684 H 0.87178 0.40804 0.81163
 H685 H 0.83294 0.36270 0.87963
 H686 H 0.79285 0.34326 0.91179
 H687 H 0.82960 0.45962 0.92570
 H688 H 0.86933 0.47940 0.89335
 C689 C 0.51659 0.03982 0.78972
 C690 C 0.52577 0.05792 0.80607
 C691 C 0.53706 0.08011 0.82538
 C692 C 0.51845 0.06432 0.84475
 C693 C 0.52920 0.08622 0.86340
 C694 C 0.55865 0.12427 0.86287
 C695 C 0.57733 0.13975 0.84334
 C696 C 0.56658 0.11781 0.82474
 C697 C 0.56970 0.14792 0.88251
 C698 C 0.57815 0.18565 0.88146
 C699 C 0.58901 0.20815 0.89984
 C700 C 0.59159 0.19332 0.91952
 C701 C 0.58304 0.15577 0.92079
 C702 C 0.57211 0.13316 0.90241
 C703 C 0.60343 0.21698 0.93827
 C704 C 0.61367 0.23759 0.95365
 H705 H 0.49546 0.03519 0.84539
 H706 H 0.51402 0.07363 0.87813
 H707 H 0.60047 0.16876 0.84248
 H708 H 0.58126 0.13027 0.80985
 H709 H 0.57601 0.19767 0.86646
 H710 H 0.59546 0.23716 0.89869
 H711 H 0.58506 0.14404 0.93594
 H712 H 0.56619 0.10435 0.90368
   
