data_POSCAR
  _audit_creation_date              2014-09-24
  _audit_creation_method            'ToBaCCo'
  _symmetry_space_group_name_H-M    'P1'
  _symmetry_Int_Tables_number       1
  _symmetry_cell_setting            triclinic
  loop_
  _symmetry_equiv_pos_as_xyz
 x,y,z
_cell_length_a 25.8762
_cell_length_b 25.9924
_cell_length_c 25.9169
_cell_angle_alpha 98.159800
_cell_angle_beta 76.106200
_cell_angle_gamma 81.760100
loop_
  _atom_site_label
  _atom_site_type_symbol
  _atom_site_fract_x
  _atom_site_fract_y
  _atom_site_fract_z
C1 C 0.51998 0.48025 0.00198
 C2 C 0.48136 0.52100 0.00017
 C3 C 0.42546 0.51414 -0.00138
 C4 C 0.49205 0.57581 0.00004
 C5 C 0.57490 0.48756 0.00604
 C6 C 0.51053 0.42512 -0.00038
 C7 C 0.41557 0.47616 -0.04023
 C8 C 0.36256 0.47409 -0.04331
 C9 C 0.31790 0.51167 -0.00921
 C10 C 0.32878 0.54896 0.03034
 C11 C 0.38141 0.54980 0.03426
 C12 C 0.47871 0.60295 -0.03952
 C13 C 0.48273 0.65606 -0.03764
 C14 C 0.50090 0.68294 0.00341
 C15 C 0.51613 0.65556 0.04199
 C16 C 0.51088 0.60258 0.04088
 C17 C 0.59456 0.46856 0.04708
 C18 C 0.64716 0.47151 0.05003
 C19 C 0.68110 0.49388 0.01219
 C20 C 0.66142 0.51347 -0.02864
 C21 C 0.60890 0.50975 -0.03212
 C22 C 0.47064 0.41109 0.03954
 C23 C 0.46613 0.35790 0.03858
 C24 C 0.50184 0.31805 -0.00200
 C25 C 0.54116 0.33262 -0.04212
 C26 C 0.54548 0.38548 -0.04122
 H27 H 0.44891 0.44909 -0.06936
 H28 H 0.35749 0.44511 -0.07516
 H29 H 0.29684 0.57688 0.06010
 H30 H 0.38789 0.57915 0.06503
 H31 H 0.46389 0.58321 -0.07122
 H32 H 0.47092 0.67645 -0.06785
 H33 H 0.52011 0.58297 0.07262
 H34 H 0.56914 0.45099 0.07671
 H35 H 0.66135 0.45641 0.08201
 H36 H 0.68723 0.53005 -0.05884
 H37 H 0.59512 0.52335 -0.06497
 H38 H 0.44398 0.44110 0.07200
 H39 H 0.43586 0.34789 0.07044
 H40 H 0.56882 0.30301 -0.07428
 H41 H 0.57667 0.39556 -0.07221
 H42 H 0.52967 0.67587 0.07435
 C43 C 0.00794 0.51952 0.52019
 C44 C 0.00708 0.47940 0.48057
 C45 C 0.00785 0.42383 0.48917
 C46 C 0.00384 0.48863 0.42601
 C47 C 0.00536 0.57504 0.51160
 C48 C 0.00939 0.51145 0.57549
 C49 C 0.04767 0.39721 0.50951
 C50 C 0.04906 0.34397 0.51390
 C51 C 0.01183 0.31618 0.49636
 C52 C -0.02807 0.34284 0.47645
 C53 C -0.03025 0.39615 0.47324
 C54 C 0.04167 0.45736 0.38019
 C55 C 0.03612 0.46076 0.32851
 C56 C -0.00738 0.49563 0.32157
 C57 C -0.04431 0.52825 0.36732
 C58 C -0.03914 0.52433 0.41919
 C59 C -0.03565 0.61446 0.54677
 C60 C -0.03719 0.66741 0.54239
 C61 C 0.00238 0.68229 0.50276
 C62 C 0.04323 0.64270 0.46701
 C63 C 0.04487 0.58947 0.47159
 C64 C -0.02949 0.48785 0.60681
 C65 C -0.03001 0.48502 0.66039
 C66 C 0.00722 0.50720 0.68394
 C67 C 0.04629 0.53035 0.65249
 C68 C 0.04749 0.53223 0.59874
 H69 H 0.07828 0.41724 0.52088
 H70 H 0.08051 0.32389 0.52889
 H71 H -0.05733 0.32221 0.46296
 H72 H -0.06131 0.41572 0.45741
 H73 H 0.07496 0.42943 0.38459
 H74 H 0.06563 0.43574 0.29394
 H75 H -0.06953 0.54792 0.45399
 H76 H -0.06641 0.60414 0.57799
 H77 H -0.06953 0.69681 0.57012
 H78 H 0.07472 0.65294 0.43653
 H79 H 0.07746 0.55969 0.44473
 H80 H -0.06022 0.47287 0.59028
 H81 H -0.06084 0.46740 0.68413
 H82 H 0.07567 0.54731 0.66966
 H83 H 0.07761 0.55090 0.57541
 H84 H -0.07838 0.55521 0.36302
 C85 C 0.52816 0.00139 0.48209
 C86 C 0.48619 -0.00203 0.52421
 C87 C 0.49135 -0.00385 0.58011
 C88 C 0.43146 -0.00447 0.51651
 C89 C 0.52024 0.00352 0.42740
 C90 C 0.58408 0.00349 0.48711
 C91 C 0.46841 -0.04116 0.60790
 C92 C 0.47125 -0.04346 0.66059
 C93 C 0.49853 -0.00936 0.68692
 C94 C 0.52093 0.02863 0.65904
 C95 C 0.51620 0.03213 0.60688
 C96 C 0.42264 -0.04599 0.48052
 C97 C 0.37029 -0.04868 0.47582
 C98 C 0.32596 -0.01024 0.50754
 C99 C 0.33521 0.03134 0.54320
 C100 C 0.38735 0.03407 0.54776
 C101 C 0.48380 0.04471 0.41848
 C102 C 0.47887 0.04710 0.36620
 C103 C 0.51079 0.00869 0.32198
 C104 C 0.54691 -0.03257 0.33135
 C105 C 0.55170 -0.03499 0.38342
 C106 C 0.61163 0.04092 0.46412
 C107 C 0.66423 0.04370 0.46724
 C108 C 0.69062 0.00999 0.49486
 C109 C 0.66304 -0.02822 0.51718
 C110 C 0.61102 -0.03221 0.51215
 H111 H 0.44851 -0.06912 0.58852
 H112 H 0.45396 -0.07380 0.67964
 H113 H 0.54028 0.05732 0.67802
 H114 H 0.53209 0.06290 0.58744
 H115 H 0.45616 -0.07668 0.45681
 H116 H 0.36457 -0.08161 0.44865
 H117 H 0.39338 0.06630 0.57582
 H118 H 0.45990 0.07540 0.45185
 H119 H 0.45135 0.07981 0.36045
 H120 H 0.57150 -0.06316 0.29823
 H121 H 0.58010 -0.06698 0.38949
 H122 H 0.59210 0.06864 0.44405
 H123 H 0.68310 0.07414 0.44995
 H124 H 0.68216 -0.05666 0.53673
 H125 H 0.59177 -0.06309 0.52806
 H126 H 0.30195 0.06193 0.56763
 O127 O 0.45978 -0.00087 -0.05743
 O128 O 0.45869 0.01512 0.08709
 O129 O 0.45520 0.07938 0.01764
 O130 O 0.45704 -0.06252 0.01345
 O131 O 0.54643 -0.07826 -0.00846
 O132 O 0.54456 0.06434 -0.00626
 O133 O 0.54805 0.00093 0.06307
 O134 O 0.54919 -0.01538 -0.07992
 Cu135 Cu 0.44872 0.00955 0.01753
 Cu136 Cu 0.55597 -0.00855 -0.01024
 C137 C 0.50493 -0.01041 -0.09324
 C138 C 0.50361 0.00951 0.09950
 C139 C 0.49948 0.09608 0.00540
 C140 C 0.50168 -0.09454 0.00286
 O141 O -0.08057 0.54481 1.01993
 O142 O 0.06334 0.54968 1.00476
 O143 O -0.00078 0.54886 0.94053
 O144 O -0.01787 0.54507 1.08505
 O145 O 0.00531 0.45811 1.06521
 O146 O 0.01554 0.46159 0.92193
 O147 O 0.08418 0.46276 0.98184
 O148 O -0.06113 0.45752 1.00417
 Cu149 Cu -0.01057 0.55588 1.01462
 Cu150 Cu 0.01344 0.45119 0.99150
 C151 C -0.09538 0.50032 1.01414
 C152 C 0.09846 0.50730 0.99029
 C153 C 0.00797 0.50586 0.90696
 C154 C -0.00909 0.50081 1.09980
 O155 O 0.02026 -0.07944 0.45370
 O156 O 0.01802 0.06211 0.45413
 O157 O 0.09073 -0.01625 0.45619
 O158 O -0.05394 0.00145 0.45726
 O159 O -0.07653 0.01659 0.54652
 O160 O 0.06667 -0.00138 0.54541
 O161 O -0.00398 0.07844 0.54336
 O162 O -0.00363 -0.06371 0.54292
 Cu163 Cu 0.02107 -0.00986 0.44637
 Cu164 Cu -0.00679 0.00903 0.55346
 C165 C 0.00786 -0.09575 0.49815
 C166 C 0.00785 0.09433 0.49848
 C167 C 0.10316 -0.01058 0.50101
 C168 C -0.08983 0.01156 0.50232
 C169 C -0.23974 0.54003 1.00991
 C170 C -0.26267 0.49511 1.01465
 C171 C -0.22871 0.45030 1.02192
 C172 C -0.17421 0.45175 1.02264
 C173 C -0.15262 0.49842 1.01729
 C174 C -0.18805 0.54181 1.01203
 C175 C -0.19136 0.59720 1.00249
 C176 C -0.25017 0.59539 1.00066
 H177 H -0.24373 0.41383 1.02564
 H178 H -0.14910 0.41638 1.02692
 H179 H -0.16422 0.59978 0.96294
 H180 H -0.18817 0.62494 1.03792
 H181 H -0.25677 0.59749 0.96014
 H182 H -0.28100 0.62181 1.03521
 C183 C 0.25153 0.46853 0.95786
 C184 C 0.26660 0.51263 0.98502
 C185 C 0.22532 0.55854 1.00497
 C186 C 0.17144 0.55744 1.00384
 C187 C 0.15623 0.51039 0.98373
 C188 C 0.19784 0.46728 0.95811
 C189 C 0.20272 0.41067 0.96371
 C190 C 0.26128 0.41162 0.96358
 H191 H 0.23378 0.59603 1.02143
 H192 H 0.14124 0.59294 1.02151
 H193 H 0.19845 0.38511 0.92734
 H194 H 0.17740 0.40501 1.00298
 H195 H 0.29054 0.38615 0.92723
 H196 H 0.26997 0.40637 1.00270
 C197 C -0.01816 -0.22222 0.54692
 C198 C 0.00075 -0.26088 0.49986
 C199 C 0.01635 -0.24328 0.45029
 C200 C 0.01800 -0.18938 0.44932
 C201 C 0.00450 -0.15201 0.49791
 C202 C -0.01624 -0.16938 0.54601
 C203 C -0.00137 -0.16158 0.59841
 C204 C -0.00358 -0.21957 0.59944
 H205 H 0.02840 -0.27113 0.41241
 H206 H 0.03158 -0.17742 0.41071
 H207 H -0.03374 -0.13426 0.63089
 H208 H 0.04003 -0.15250 0.59384
 H209 H -0.03726 -0.22557 0.63248
 H210 H 0.03651 -0.24419 0.59552
 C211 C 0.02088 0.23669 0.54071
 C212 C 0.01654 0.25873 0.49538
 C213 C 0.01649 0.22419 0.44829
 C214 C 0.01481 0.17044 0.44899
 C215 C 0.01211 0.15020 0.49710
 C216 C 0.01824 0.18378 0.54170
 C217 C -0.01442 0.19585 0.59932
 C218 C -0.01138 0.25372 0.59825
 H219 H 0.01583 0.23913 0.41147
 H220 H 0.01307 0.14543 0.41251
 H221 H 0.00808 0.17872 0.62630
 H222 H -0.05610 0.18743 0.60425
 H223 H 0.01296 0.26984 0.62450
 H224 H -0.05129 0.27892 0.60262
 C225 C 0.46633 -0.03622 -0.22523
 C226 C 0.50346 -0.01395 -0.26052
 C227 C 0.54659 0.00201 -0.24119
 C228 C 0.54848 0.00053 -0.18750
 C229 C 0.50655 -0.01525 -0.15101
 C230 C 0.46732 -0.03595 -0.17186
 C231 C 0.40714 -0.02461 -0.15159
 C232 C 0.40571 -0.02486 -0.20990
 H233 H 0.57908 0.01579 -0.26710
 H234 H 0.58117 0.01467 -0.17379
 H235 H 0.39127 0.01492 -0.12521
 H236 H 0.39119 -0.05805 -0.13496
 H237 H 0.38892 0.01445 -0.21727
 H238 H 0.38864 -0.05836 -0.22659
 C239 C 0.45903 0.01613 0.25132
 C240 C 0.50818 0.01103 0.26577
 C241 C 0.55632 0.00080 0.22347
 C242 C 0.55476 0.00047 0.16961
 C243 C 0.50495 0.01005 0.15626
 C244 C 0.45758 0.01510 0.19785
 C245 C 0.40705 0.05572 0.21321
 C246 C 0.40878 0.05758 0.27164
 H247 H 0.59539 -0.00558 0.23219
 H248 H 0.59274 -0.00633 0.13864
 H249 H 0.37227 0.03919 0.20406
 H250 H 0.41340 0.09301 0.19830
 H251 H 0.37457 0.04279 0.29631
 H252 H 0.41612 0.09625 0.28996
 C253 C 0.54450 -0.23732 0.01437
 C254 C 0.49973 -0.25961 0.00831
 C255 C 0.45272 -0.22527 0.00746
 C256 C 0.45304 -0.17132 0.00679
 C257 C 0.50073 -0.15069 0.00591
 C258 C 0.54517 -0.18419 0.01267
 C259 C 0.60329 -0.19555 -0.01870
 C260 C 0.60257 -0.25366 -0.01669
 H261 H 0.41625 -0.24048 0.00552
 H262 H 0.41667 -0.14642 0.00445
 H263 H 0.62946 -0.17850 0.00487
 H264 H 0.60910 -0.18654 -0.06018
 H265 H 0.62821 -0.27000 0.00812
 H266 H 0.60804 -0.27841 -0.05700
 C267 C 0.54685 0.22287 -0.02150
 C268 C 0.49945 0.26125 -0.00270
 C269 C 0.45009 0.24335 0.01357
 C270 C 0.44968 0.18947 0.01577
 C271 C 0.49865 0.15243 0.00218
 C272 C 0.54650 0.17005 -0.01905
 C273 C 0.59915 0.16294 -0.00446
 C274 C 0.59957 0.22091 -0.00725
 H275 H 0.41195 0.27096 0.02562
 H276 H 0.41122 0.17724 0.02970
 H277 H 0.63176 0.13563 -0.03670
 H278 H 0.59493 0.15424 0.03700
 H279 H 0.63239 0.22691 -0.04114
 H280 H 0.59564 0.24590 0.03255
 C281 C -0.22163 0.03727 0.46309
 C282 C -0.25704 0.01512 0.50021
 C283 C -0.23802 -0.00030 0.54369
 C284 C -0.18439 0.00137 0.54586
 C285 C -0.14766 0.01680 0.50389
 C286 C -0.16828 0.03715 0.46436
 C287 C -0.14764 0.02548 0.40430
 C288 C -0.20594 0.02557 0.40257
 H289 H -0.26413 -0.01390 0.57617
 H290 H -0.17085 -0.01250 0.57875
 H291 H -0.12112 -0.01406 0.38880
 H292 H -0.13096 0.05883 0.38821
 H293 H -0.21316 -0.01384 0.38598
 H294 H -0.22258 0.05889 0.38520
 C295 C 0.25515 -0.01767 0.45613
 C296 C 0.26974 -0.01284 0.50512
 C297 C 0.22754 -0.00283 0.55327
 C298 C 0.17357 -0.00240 0.55188
 C299 C 0.16006 -0.01166 0.50222
 C300 C 0.20156 -0.01658 0.45485
 C301 C 0.21685 -0.05714 0.40439
 C302 C 0.27542 -0.05905 0.40594
 H303 H 0.23644 0.00340 0.59221
 H304 H 0.14262 0.00430 0.58985
 H305 H 0.20755 -0.04053 0.36973
 H306 H 0.20198 -0.09444 0.41076
 H307 H 0.30002 -0.04419 0.37177
 H308 H 0.29389 -0.09775 0.41320
 C309 C -0.03207 0.54348 1.25070
 C310 C -0.01542 0.49618 1.26697
 C311 C -0.00624 0.44885 1.22919
 C312 C -0.00665 0.45010 1.17518
 C313 C -0.01599 0.49874 1.15768
 C314 C -0.03203 0.54478 1.19731
 C315 C -0.01240 0.59611 1.19876
 C316 C -0.01256 0.59470 1.25727
 H317 H 0.00362 0.41096 1.24072
 H318 H 0.00329 0.41310 1.14668
 H319 H -0.04316 0.62861 1.19448
 H320 H 0.02887 0.59234 1.17150
 H321 H -0.04347 0.62631 1.28662
 H322 H 0.02859 0.59016 1.26400
 C323 C -0.00477 0.46423 0.76549
 C324 C 0.00359 0.50850 0.74186
 C325 C 0.00714 0.55480 0.77555
 C326 C 0.00795 0.55440 0.82962
 C327 C 0.00626 0.50740 0.85076
 C328 C -0.00300 0.46356 0.81844
 C329 C 0.02561 0.40729 0.80486
 C330 C 0.02349 0.40804 0.74683
 H331 H 0.01065 0.59091 0.75973
 H332 H 0.01201 0.59023 0.85406
 H333 H 0.00025 0.38082 0.82467
 H334 H 0.06742 0.40279 0.80987
 H335 H -0.00318 0.38213 0.73330
 H336 H 0.06406 0.40391 0.71812
   
