data_POSCAR
  _audit_creation_date              2014-09-24
  _audit_creation_method            'ToBaCCo'
  _symmetry_space_group_name_H-M    'P1'
  _symmetry_Int_Tables_number       1
  _symmetry_cell_setting            triclinic
  loop_
  _symmetry_equiv_pos_as_xyz
 x,y,z
_cell_length_a 13.8624
_cell_length_b 18.9622
_cell_length_c 13.9534
_cell_angle_alpha 90.292200
_cell_angle_beta 89.738800
_cell_angle_gamma 89.841700
loop_
  _atom_site_label
  _atom_site_type_symbol
  _atom_site_fract_x
  _atom_site_fract_y
  _atom_site_fract_z
N1 N 0.16862 0.07519 0.10194
 N2 N 0.22781 0.12892 0.11354
 N3 N 0.10212 -0.07254 0.17034
 N4 N 0.11338 -0.12601 0.22956
 N5 N 0.16960 -0.07320 0.10394
 N6 N 0.22867 -0.12713 0.11608
 N7 N 0.10115 0.07576 0.16831
 N8 N 0.11242 0.12987 0.22698
 C9 C 0.19160 0.16221 0.19173
 C10 C 0.19261 -0.15924 0.19472
 N11 N -0.17201 -0.07347 0.10319
 N12 N -0.23018 -0.12778 0.11494
 N13 N -0.10639 0.07588 0.16779
 N14 N -0.11833 0.13058 0.22572
 N15 N -0.17287 0.07492 0.10112
 N16 N -0.23484 0.13236 0.11332
 N17 N -0.10547 -0.07250 0.16988
 N18 N -0.11641 -0.12606 0.22892
 Mn19 Mn -0.00217 0.00166 0.17020
 C20 C -0.19449 -0.15965 0.19369
 C21 C -0.19706 0.16432 0.19146
 N22 N 0.17129 -0.07525 -0.10232
 N23 N 0.23369 -0.13239 -0.11416
 N24 N 0.10383 0.07201 -0.17144
 N25 N 0.11517 0.12571 -0.23037
 N26 N 0.17013 0.07301 -0.10446
 N27 N 0.22840 0.12732 -0.11594
 N28 N 0.10479 -0.07662 -0.16897
 N29 N 0.11719 -0.13139 -0.22665
 Mn30 Mn 0.17105 -0.00005 -0.00023
 C31 C 0.19618 -0.16465 -0.19209
 C32 C 0.19322 0.15936 -0.19478
 N33 N -0.17135 0.07238 -0.10542
 N34 N -0.22983 0.12668 -0.11718
 N35 N -0.10339 -0.07718 -0.16957
 N36 N -0.11470 -0.13187 -0.22758
 N37 N -0.17082 -0.07596 -0.10319
 N38 N -0.23267 -0.13310 -0.11562
 N39 N -0.10405 0.07144 -0.17201
 N40 N -0.11481 0.12510 -0.23095
 Mn41 Mn -0.17293 -0.00051 -0.00109
 Mn42 Mn 0.00030 -0.00264 -0.17173
 Cl43 Cl -0.00095 -0.00038 -0.00075
 C44 C -0.19362 0.15866 -0.19581
 C45 C -0.19396 -0.16530 -0.19355
 N46 N 0.67234 0.57435 0.60340
 N47 N 0.73174 0.62805 0.61498
 N48 N 0.60492 0.42618 0.66959
 N49 N 0.61604 0.37209 0.72771
 N50 N 0.67192 0.42584 0.60270
 N51 N 0.73053 0.37148 0.61341
 N52 N 0.60532 0.57471 0.67029
 N53 N 0.61728 0.62867 0.72925
 C54 C 0.69641 0.66116 0.69375
 C55 C 0.69467 0.33882 0.69170
 N56 N 0.33007 0.42664 0.60422
 N57 N 0.27123 0.37260 0.61524
 N58 N 0.39726 0.57504 0.67130
 N59 N 0.38548 0.62897 0.73044
 N60 N 0.33023 0.57506 0.60507
 N61 N 0.27093 0.62898 0.61722
 N62 N 0.39703 0.42648 0.67055
 N63 N 0.38559 0.37228 0.72856
 Mn64 Mn 0.50114 0.50062 0.67162
 C65 C 0.30680 0.33950 0.69310
 C66 C 0.30643 0.66177 0.69565
 N67 N 0.67177 0.42539 0.39614
 N68 N 0.73068 0.37119 0.38378
 N69 N 0.60486 0.57395 0.33080
 N70 N 0.61588 0.62794 0.27252
 N71 N 0.67203 0.57392 0.39688
 N72 N 0.73072 0.62797 0.38545
 N73 N 0.60466 0.42565 0.32998
 N74 N 0.61598 0.37169 0.27078
 Mn75 Mn 0.67322 0.49986 0.49978
 C76 C 0.69484 0.33852 0.30531
 C77 C 0.69465 0.66076 0.30757
 N78 N 0.33029 0.57515 0.39874
 N79 N 0.27120 0.62921 0.38762
 N80 N 0.39710 0.42656 0.33104
 N81 N 0.38531 0.37287 0.27176
 N82 N 0.33008 0.42675 0.39785
 N83 N 0.27070 0.37316 0.38597
 N84 N 0.39731 0.57487 0.33188
 N85 N 0.38572 0.62871 0.27337
 Mn86 Mn 0.32901 0.50090 0.50149
 Mn87 Mn 0.50100 0.50026 0.32982
 Cl88 Cl 0.50111 0.50041 0.50072
 C89 C 0.30683 0.66182 0.30916
 C90 C 0.30626 0.34041 0.30708
 C91 C 0.23198 0.22498 0.23222
 C92 C 0.26579 0.27774 0.26640
 C93 C 0.76656 0.77716 0.23396
 C94 C 0.73397 0.72398 0.26774
 C95 C 0.76721 0.22203 0.76422
 C96 C 0.73426 0.27536 0.73099
 C97 C 0.23213 0.77793 0.77049
 C98 C 0.26586 0.72484 0.73627
 C99 C 0.23299 0.22276 0.76538
 C100 C 0.26662 0.27605 0.73239
 C101 C 0.77070 0.77729 0.76853
 C102 C 0.73717 0.72424 0.73417
 C103 C 0.23269 0.77781 0.23533
 C104 C 0.26640 0.72486 0.26914
 C105 C 0.76764 0.22193 0.22936
 C106 C 0.73474 0.27519 0.26421
   
