data_POSCAR
  _audit_creation_date              2014-09-24
  _audit_creation_method            'ToBaCCo'
  _symmetry_space_group_name_H-M    'P1'
  _symmetry_Int_Tables_number       1
  _symmetry_cell_setting            triclinic
  loop_
  _symmetry_equiv_pos_as_xyz
 x,y,z
_cell_length_a 61.9914
_cell_length_b 62.0367
_cell_length_c 37.2676
_cell_angle_alpha 89.961200
_cell_angle_beta 90.053500
_cell_angle_gamma 93.522400
loop_
  _atom_site_label
  _atom_site_type_symbol
  _atom_site_fract_x
  _atom_site_fract_y
  _atom_site_fract_z
C1 C -0.01757 0.27474 0.01822
 C2 C -0.01772 0.26993 -0.01928
 C3 C 0.00218 0.26735 -0.03664
 C4 C 0.02217 0.27010 -0.01867
 C5 C 0.02204 0.27528 0.01844
 C6 C 0.00243 0.27827 0.03585
 H7 H 0.00278 0.28097 0.06461
 H8 H 0.00225 0.26507 -0.06545
 C9 C 0.47837 0.77646 0.51572
 C10 C 0.47836 0.77426 0.47794
 C11 C 0.49811 0.77299 0.45992
 C12 C 0.51776 0.77360 0.47871
 C13 C 0.51765 0.77577 0.51648
 C14 C 0.49801 0.77761 0.53447
 H15 H 0.49792 0.77867 0.56352
 H16 H 0.49819 0.77158 0.43092
 C17 C 1.01533 0.73200 0.01508
 C18 C 1.01538 0.72955 -0.02294
 C19 C 0.99571 0.72890 -0.04184
 C20 C 0.97597 0.73216 -0.02465
 C21 C 0.97596 0.73492 0.01317
 C22 C 0.99546 0.73481 0.03219
 H23 H 0.99479 0.73563 0.06122
 H24 H 0.99611 0.72784 -0.07088
 C25 C 0.51932 0.22733 0.51718
 C26 C 0.51990 0.22699 0.47911
 C27 C 0.50037 0.22664 0.45989
 C28 C 0.48049 0.22747 0.47757
 C29 C 0.47991 0.22818 0.51544
 C30 C 0.49932 0.22794 0.53470
 H31 H 0.49884 0.22807 0.56379
 H32 H 0.50066 0.22677 0.43080
 C33 C 0.73391 -0.02204 0.02309
 C34 C 0.73412 -0.02177 -0.01518
 C35 C 0.73392 -0.00199 -0.03339
 C36 C 0.73361 0.01767 -0.01508
 C37 C 0.73337 0.01766 0.02287
 C38 C 0.73308 -0.00212 0.04127
 H39 H 0.73385 -0.00172 0.07032
 H40 H 0.73354 -0.00194 -0.06250
 C41 C 0.22827 0.47900 0.52303
 C42 C 0.22915 0.47854 0.48517
 C43 C 0.22879 0.49796 0.46601
 C44 C 0.22788 0.51788 0.48364
 C45 C 0.22738 0.51836 0.52170
 C46 C 0.22716 0.49880 0.54081
 H47 H 0.22716 0.49904 0.56991
 H48 H 0.22903 0.49754 0.43692
 C49 C 0.26875 1.02110 0.01936
 C50 C 0.27277 1.02127 -0.01849
 C51 C 0.27581 1.00155 -0.03603
 C52 C 0.27315 0.98178 -0.01799
 C53 C 0.26877 0.98146 0.01912
 C54 C 0.26663 1.00100 0.03721
 H55 H 0.26448 1.00043 0.06605
 H56 H 0.27808 1.00128 -0.06489
 C57 C 0.77625 0.52051 0.52039
 C58 C 0.77835 0.52026 0.48261
 C59 C 0.78026 0.50059 0.46477
 C60 C 0.77920 0.48103 0.48370
 C61 C 0.77706 0.48116 0.52148
 C62 C 0.77577 0.50094 0.53935
 H63 H 0.77438 0.50112 0.56835
 H64 H 0.78123 0.50040 0.43571
 O65 O 0.23266 0.26285 0.20733
 O66 O 0.28414 0.25566 0.25371
 O67 O 0.26152 0.23379 0.20529
 O68 O 0.25532 0.28405 0.25584
 O69 O 0.23775 0.26545 0.29828
 O70 O 0.24403 0.21525 0.24787
 O71 O 0.26677 0.23671 0.29602
 O72 O 0.21522 0.24385 0.24949
 Cu73 Cu 0.26015 0.26089 0.22618
 Cu74 Cu 0.23919 0.23847 0.27721
 C75 C 0.21515 0.25460 0.22047
 C76 C 0.28425 0.24507 0.28287
 C77 C 0.25383 0.21590 0.21795
 C78 C 0.24553 0.28334 0.28579
 O79 O 0.75388 0.78309 0.25106
 O80 O 0.76221 0.73217 0.29837
 O81 O 0.78315 0.75492 0.24951
 O82 O 0.73256 0.76038 0.29944
 O83 O 0.71442 0.74287 0.25641
 O84 O 0.76517 0.73596 0.20792
 O85 O 0.74319 0.71415 0.25685
 O86 O 0.73671 0.76486 0.20772
 Cu87 Cu 0.75974 0.75943 0.27893
 Cu88 Cu 0.73802 0.73764 0.22801
 C89 C 0.74418 0.78265 0.22101
 C90 C 0.75400 0.71448 0.28583
 C91 C 0.78281 0.74449 0.22016
 C92 C 0.71480 0.75268 0.28633
 O93 O 0.78808 0.24450 0.25220
 O94 O 0.73637 0.23723 0.30041
 O95 O 0.75668 0.21484 0.25320
 O96 O 0.76777 0.26701 0.29916
 O97 O 0.74964 0.28316 0.25697
 O98 O 0.74235 0.23186 0.20784
 O99 O 0.71974 0.25195 0.25500
 O100 O 0.77228 0.26305 0.21013
 Cu101 Cu 0.76384 0.23922 0.28067
 Cu102 Cu 0.74436 0.25916 0.22808
 C103 C 0.78906 0.25520 0.22311
 C104 C 0.71918 0.24317 0.28583
 C105 C 0.74812 0.21455 0.22220
 C106 C 0.76015 0.28392 0.28626
 O107 O 0.25772 0.76673 0.20396
 O108 O 0.24907 0.71474 0.25117
 O109 O 0.22742 0.73576 0.20399
 O110 O 0.27945 0.74541 0.25072
 O111 O 0.26308 0.76189 0.29447
 O112 O 0.21098 0.75199 0.24793
 O113 O 0.23264 0.73100 0.29508
 O114 O 0.24105 0.78294 0.24768
 Cu115 Cu 0.25506 0.73905 0.22305
 Cu116 Cu 0.23531 0.75858 0.27572
 C117 C 0.25069 0.78372 0.21761
 C118 C 0.23947 0.71398 0.28130
 C119 C 0.21030 0.74231 0.21788
 C120 C 0.28018 0.75519 0.28067
 O121 O 0.76881 0.26110 0.79497
 O122 O 0.71666 0.25170 0.74837
 O123 O 0.73809 0.23055 0.79564
 O124 O 0.74707 0.28237 0.74824
 O125 O 0.76348 0.26599 0.70444
 O126 O 0.75448 0.21412 0.75185
 O127 O 0.73294 0.23518 0.70458
 O128 O 0.78506 0.24457 0.75114
 Cu129 Cu 0.74103 0.25808 0.77621
 Cu130 Cu 0.76061 0.23833 0.72358
 C131 C 0.78586 0.25433 0.78111
 C132 C 0.71589 0.24191 0.71842
 C133 C 0.74486 0.21347 0.78196
 C134 C 0.75673 0.28306 0.71818
 O135 O 0.28176 0.74710 0.74574
 O136 O 0.23032 0.73968 0.79454
 O137 O 0.25052 0.71725 0.74736
 O138 O 0.26166 0.76950 0.79290
 O139 O 0.24339 0.78556 0.75079
 O140 O 0.23584 0.73407 0.70212
 O141 O 0.21345 0.75431 0.74929
 O142 O 0.26566 0.76533 0.70362
 Cu143 Cu 0.25771 0.74172 0.77455
 Cu144 Cu 0.23790 0.76147 0.72207
 C145 C 0.28256 0.75766 0.71651
 C146 C 0.21305 0.74555 0.78012
 C147 C 0.24174 0.71683 0.71652
 C148 C 0.25403 0.78639 0.77995
 O149 O 0.25624 0.28214 0.74574
 O150 O 0.26321 0.23045 0.79157
 O151 O 0.28453 0.25321 0.74333
 O152 O 0.23439 0.25947 0.79417
 O153 O 0.21561 0.24233 0.75147
 O154 O 0.26581 0.23581 0.70084
 O155 O 0.24385 0.21331 0.74947
 O156 O 0.23717 0.26502 0.70330
 Cu157 Cu 0.26142 0.25804 0.77304
 Cu158 Cu 0.23877 0.23740 0.72192
 C159 C 0.24562 0.28241 0.71660
 C160 C 0.25463 0.21308 0.77845
 C161 C 0.28376 0.24349 0.71334
 C162 C 0.21641 0.25194 0.78158
 O163 O 0.73489 0.76685 0.79143
 O164 O 0.74204 0.71667 0.74137
 O165 O 0.76440 0.73849 0.78959
 O166 O 0.71289 0.74488 0.74239
 O167 O 0.73032 0.76385 0.70017
 O168 O 0.78167 0.75782 0.74760
 O169 O 0.75970 0.73532 0.69909
 O170 O 0.75224 0.78557 0.74889
 Cu171 Cu 0.73681 0.73987 0.77049
 Cu172 Cu 0.75772 0.76245 0.71959
 C173 C 0.74238 0.78481 0.77876
 C174 C 0.75210 0.71738 0.71168
 C175 C 0.78180 0.74720 0.77673
 C176 C 0.71283 0.75546 0.71319
 C177 C 0.26682 0.07873 0.08116
 C178 C 0.25320 0.06047 0.08943
 C179 C 0.25399 0.04152 0.06938
 C180 C 0.26835 0.04027 0.04021
 C181 C 0.28248 0.05845 0.03284
 C182 C 0.28159 0.07743 0.05282
 C183 C 0.26546 0.09903 0.10182
 N184 N 0.27685 0.11742 0.09161
 N185 N 0.27531 0.13572 0.10987
 C186 C 0.26234 0.13640 0.13916
 N187 N 0.25101 0.11799 0.14942
 N188 N 0.25251 0.09972 0.13112
 C189 C 0.26041 0.15678 0.15939
 C190 C 0.24835 0.15689 0.19131
 C191 C 0.24632 0.17605 0.21031
 C192 C 0.25622 0.19562 0.19779
 C193 C 0.26829 0.19555 0.16590
 C194 C 0.27041 0.17634 0.14694
 H195 H 0.24160 0.06089 0.11108
 H196 H 0.24261 0.02816 0.07590
 H197 H 0.29459 0.05794 0.01201
 H198 H 0.29259 0.09106 0.04609
 H199 H 0.24046 0.14214 0.20174
 H200 H 0.23689 0.17553 0.23477
 H201 H 0.27614 0.21035 0.15556
 H202 H 0.27979 0.17685 0.12243
 C203 C 0.76974 0.57984 0.57832
 C204 C 0.75482 0.56208 0.58332
 C205 C 0.75703 0.54284 0.56461
 C206 C 0.77420 0.54091 0.54057
 C207 C 0.78933 0.55848 0.53594
 C208 C 0.78704 0.57780 0.55443
 C209 C 0.76725 0.60031 0.59796
 N210 N 0.77976 0.61841 0.58983
 N211 N 0.77745 0.63680 0.60746
 C212 C 0.76257 0.63786 0.63404
 N213 N 0.75009 0.61976 0.64218
 N214 N 0.75236 0.60140 0.62449
 C215 C 0.75998 0.65827 0.65382
 C216 C 0.74673 0.65848 0.68439
 C217 C 0.74427 0.67765 0.70317
 C218 C 0.75487 0.69711 0.69171
 C219 C 0.76808 0.69696 0.66109
 C220 C 0.77067 0.67773 0.64242
 H221 H 0.74129 0.56308 0.60146
 H222 H 0.74515 0.52950 0.56856
 H223 H 0.80296 0.55722 0.51809
 H224 H 0.79893 0.59108 0.55016
 H225 H 0.73830 0.64380 0.69399
 H226 H 0.73394 0.67721 0.72662
 H227 H 0.77649 0.71169 0.65161
 H228 H 0.78096 0.67816 0.61894
 C229 C 0.73731 0.92023 0.08418
 C230 C 0.72476 0.93688 0.09602
 C231 C 0.72374 0.95586 0.07602
 C232 C 0.73532 0.95876 0.04359
 C233 C 0.74867 0.94230 0.03287
 C234 C 0.74934 0.92318 0.05252
 C235 C 0.73782 0.89984 0.10465
 N236 N 0.74323 0.88139 0.08827
 N237 N 0.74356 0.86297 0.10658
 C238 C 0.73865 0.86229 0.14209
 N239 N 0.73331 0.88076 0.15851
 N240 N 0.73280 0.89915 0.14012
 C241 C 0.73935 0.84189 0.16248
 C242 C 0.74226 0.84220 0.19987
 C243 C 0.74374 0.82294 0.21894
 C244 C 0.74192 0.80297 0.20108
 C245 C 0.73853 0.80263 0.16381
 C246 C 0.73747 0.82191 0.14465
 H247 H 0.71528 0.93504 0.12035
 H248 H 0.71311 0.96787 0.08538
 H249 H 0.75915 0.94432 0.00978
 H250 H 0.75963 0.91084 0.04324
 H251 H 0.74383 0.85736 0.21431
 H252 H 0.74630 0.82366 0.24768
 H253 H 0.73716 0.78747 0.14934
 H254 H 0.73510 0.82117 0.11587
 C255 C 0.23307 0.42089 0.58432
 C256 C 0.25099 0.42984 0.56520
 C257 C 0.24941 0.44876 0.54529
 C258 C 0.23001 0.45923 0.54468
 C259 C 0.21221 0.45064 0.56430
 C260 C 0.21364 0.43145 0.58363
 C261 C 0.23464 0.40058 0.60468
 N262 N 0.21676 0.38741 0.61128
 N263 N 0.21827 0.36895 0.62915
 C264 C 0.23768 0.36303 0.64142
 N265 N 0.25552 0.37627 0.63500
 N266 N 0.25405 0.39462 0.61685
 C267 C 0.23942 0.34251 0.66113
 C268 C 0.25661 0.34003 0.68508
 C269 C 0.25839 0.32061 0.70354
 C270 C 0.24329 0.30312 0.69785
 C271 C 0.22615 0.30555 0.67378
 C272 C 0.22410 0.32515 0.65590
 H273 H 0.26613 0.42200 0.56511
 H274 H 0.26328 0.45526 0.53027
 H275 H 0.19713 0.45857 0.56405
 H276 H 0.19962 0.42497 0.59828
 H277 H 0.26860 0.35317 0.68976
 H278 H 0.27181 0.31914 0.72183
 H279 H 0.21425 0.29235 0.66900
 H280 H 0.21074 0.32659 0.63748
 C281 C 0.92578 0.26980 0.08251
 C282 C 0.92928 0.25426 0.05619
 C283 C 0.94778 0.25600 0.03480
 C284 C 0.96348 0.27319 0.03958
 C285 C 0.96020 0.28836 0.06690
 C286 C 0.94136 0.28691 0.08761
 C287 C 0.90597 0.26805 0.10457
 N288 N 0.89687 0.28601 0.11680
 N289 N 0.87874 0.28436 0.13607
 C290 C 0.86916 0.26468 0.14421
 N291 N 0.87837 0.24674 0.13221
 N292 N 0.89634 0.24840 0.11260
 C293 C 0.84899 0.26274 0.16533
 C294 C 0.84449 0.24467 0.18740
 C295 C 0.82522 0.24253 0.20686
 C296 C 0.80984 0.25813 0.20388
 C297 C 0.81429 0.27620 0.18176
 C298 C 0.83385 0.27863 0.16302
 H299 H 0.91755 0.24084 0.05184
 H300 H 0.95006 0.24352 0.01510
 H301 H 0.97184 0.30184 0.07138
 H302 H 0.93909 0.29903 0.10794
 H303 H 0.85593 0.23224 0.18975
 H304 H 0.82212 0.22840 0.22360
 H305 H 0.80270 0.28847 0.17911
 H306 H 0.83690 0.29266 0.14606
 C307 C 0.41963 0.77245 0.57677
 C308 C 0.42623 0.75444 0.55780
 C309 C 0.44523 0.75588 0.53763
 C310 C 0.45810 0.77525 0.53656
 C311 C 0.45173 0.79322 0.55573
 C312 C 0.43246 0.79192 0.57534
 C313 C 0.39955 0.77078 0.59817
 N314 N 0.38840 0.78849 0.60505
 N315 N 0.37019 0.78684 0.62410
 C316 C 0.36256 0.76743 0.63734
 N317 N 0.37378 0.74976 0.63062
 N318 N 0.39186 0.75139 0.61130
 C319 C 0.34235 0.76545 0.65837
 C320 C 0.33878 0.74846 0.68300
 C321 C 0.31953 0.74625 0.70244
 C322 C 0.30326 0.76070 0.69709
 C323 C 0.30680 0.77771 0.67248
 C324 C 0.32628 0.78021 0.65358
 H325 H 0.41660 0.73927 0.55827
 H326 H 0.45001 0.74185 0.52304
 H327 H 0.46156 0.80826 0.55518
 H328 H 0.42780 0.80601 0.58987
 H329 H 0.35094 0.73692 0.68737
 H330 H 0.31718 0.73293 0.72114
 H331 H 0.29454 0.78912 0.66794
 H332 H 0.32858 0.79341 0.63466
 C333 C 0.07223 0.73069 0.07908
 C334 C 0.05587 0.74447 0.08770
 C335 C 0.03719 0.74475 0.06684
 C336 C 0.03427 0.73130 0.03647
 C337 C 0.05050 0.71704 0.02858
 C338 C 0.06928 0.71687 0.04940
 C339 C 0.09232 0.73102 0.10074
 N340 N 0.10945 0.71997 0.09008
 N341 N 0.12768 0.72083 0.10914
 C342 C 0.12954 0.73274 0.13971
 N343 N 0.11236 0.74366 0.15045
 N344 N 0.09416 0.74284 0.13137
 C345 C 0.15001 0.73431 0.16043
 C346 C 0.15127 0.74548 0.19325
 C347 C 0.17074 0.74775 0.21216
 C348 C 0.18945 0.73897 0.19864
 C349 C 0.18814 0.72751 0.16610
 C350 C 0.16863 0.72516 0.14725
 H351 H 0.05761 0.75539 0.11031
 H352 H 0.02545 0.75627 0.07378
 H353 H 0.04854 0.70556 0.00678
 H354 H 0.08141 0.70579 0.04233
 H355 H 0.13724 0.75266 0.20429
 H356 H 0.17119 0.75666 0.23716
 H357 H 0.20225 0.72052 0.15500
 H358 H 0.16824 0.71645 0.12206
 C359 C 0.57723 0.22807 0.58129
 C360 C 0.56176 0.24337 0.58687
 C361 C 0.54296 0.24296 0.56618
 C362 C 0.53916 0.22721 0.53952
 C363 C 0.55433 0.21160 0.53437
 C364 C 0.57327 0.21212 0.55488
 C365 C 0.59744 0.22901 0.60266
 N366 N 0.61404 0.21672 0.59383
 N367 N 0.63238 0.21803 0.61260
 C368 C 0.63487 0.23164 0.64108
 N369 N 0.61822 0.24381 0.65001
 N370 N 0.59992 0.24255 0.63119
 C371 C 0.65543 0.23356 0.66151
 C372 C 0.65702 0.24579 0.69327
 C373 C 0.67655 0.24821 0.71199
 C374 C 0.69500 0.23859 0.69930
 C375 C 0.69338 0.22616 0.66777
 C376 C 0.67380 0.22362 0.64915
 H377 H 0.56428 0.25590 0.60690
 H378 H 0.53151 0.25519 0.57057
 H379 H 0.55157 0.19910 0.51433
 H380 H 0.58478 0.20000 0.55006
 H381 H 0.64318 0.25360 0.70365
 H382 H 0.67725 0.25789 0.73618
 H383 H 0.70729 0.21849 0.65734
 H384 H 0.67316 0.21410 0.62478
 C385 C 0.73393 0.07594 0.92193
 C386 C 0.74936 0.06064 0.91610
 C387 C 0.74916 0.04181 0.93661
 C388 C 0.73350 0.03779 0.96333
 C389 C 0.71785 0.05287 0.96893
 C390 C 0.71815 0.07185 0.94860
 C391 C 0.73447 0.09604 0.90034
 N392 N 0.72201 0.11250 0.90918
 N393 N 0.72289 0.13069 0.89002
 C394 C 0.73620 0.13313 0.86115
 N395 N 0.74855 0.11661 0.85224
 N396 N 0.74772 0.09848 0.87144
 C397 C 0.73763 0.15349 0.84022
 C398 C 0.74952 0.15494 0.80811
 C399 C 0.75155 0.17430 0.78892
 C400 C 0.74184 0.19272 0.80149
 C401 C 0.72972 0.19124 0.83336
 C402 C 0.72758 0.17182 0.85245
 H403 H 0.76179 0.06328 0.89590
 H404 H 0.76142 0.03043 0.93187
 H405 H 0.70541 0.04994 0.98905
 H406 H 0.70595 0.08324 0.95363
 H407 H 0.75740 0.14112 0.79781
 H408 H 0.76099 0.17490 0.76447
 H409 H 0.72201 0.20514 0.84371
 H410 H 0.71832 0.17127 0.87709
 C411 C 0.22799 0.57578 0.41967
 C412 C 0.24355 0.56055 0.41417
 C413 C 0.24335 0.54177 0.43484
 C414 C 0.22759 0.53774 0.46140
 C415 C 0.21175 0.55269 0.46650
 C416 C 0.21204 0.57161 0.44603
 C417 C 0.22865 0.59595 0.39822
 N418 N 0.21611 0.61237 0.40700
 N419 N 0.21713 0.63065 0.38811
 C420 C 0.23067 0.63326 0.35956
 N421 N 0.24310 0.61679 0.35069
 N422 N 0.24213 0.59856 0.36964
 C423 C 0.23223 0.65374 0.33893
 C424 C 0.24430 0.65537 0.30701
 C425 C 0.24637 0.67483 0.28806
 C426 C 0.23653 0.69316 0.30068
 C427 C 0.22427 0.69151 0.33239
 C428 C 0.22208 0.67199 0.35123
 H429 H 0.25609 0.56324 0.39418
 H430 H 0.25576 0.53050 0.43047
 H431 H 0.19923 0.54975 0.48647
 H432 H 0.19974 0.58293 0.45079
 H433 H 0.25227 0.64162 0.29667
 H434 H 0.25593 0.67556 0.26374
 H435 H 0.21644 0.70533 0.34278
 H436 H 0.21268 0.67132 0.37572
 C437 C 0.26948 0.92354 0.91949
 C438 C 0.25116 0.93047 0.93722
 C439 C 0.25252 0.94929 0.95781
 C440 C 0.27212 0.96169 0.96059
 C441 C 0.29042 0.95502 0.94261
 C442 C 0.28918 0.93590 0.92256
 C443 C 0.26785 0.90358 0.89775
 N444 N 0.28543 0.89203 0.89184
 N445 N 0.28373 0.87385 0.87273
 C446 C 0.26443 0.86663 0.85847
 N447 N 0.24692 0.87827 0.86418
 N448 N 0.24857 0.89632 0.88355
 C449 C 0.26235 0.84637 0.83753
 C450 C 0.24552 0.84297 0.81252
 C451 C 0.24313 0.82365 0.79330
 C452 C 0.25725 0.80715 0.79922
 C453 C 0.27412 0.81054 0.82417
 C454 C 0.27679 0.83007 0.84288
 H455 H 0.23580 0.92123 0.93549
 H456 H 0.23822 0.95431 0.97140
 H457 H 0.30566 0.96448 0.94446
 H458 H 0.30352 0.93098 0.90902
 H459 H 0.23421 0.85529 0.80771
 H460 H 0.22993 0.82145 0.77432
 H461 H 0.28528 0.79811 0.82915
 H462 H 0.28986 0.83222 0.86210
 C463 C 0.77508 0.42185 0.42378
 C464 C 0.79463 0.43460 0.42515
 C465 C 0.79595 0.45403 0.44430
 C466 C 0.77793 0.46067 0.46307
 C467 C 0.75849 0.44791 0.46201
 C468 C 0.75701 0.42875 0.44230
 C469 C 0.77338 0.40157 0.40290
 N470 N 0.75398 0.39384 0.38979
 N471 N 0.75232 0.37560 0.37094
 C472 C 0.76995 0.36421 0.36470
 N473 N 0.78936 0.37188 0.37794
 N474 N 0.79106 0.39026 0.39652
 C475 C 0.76793 0.34386 0.34403
 C476 C 0.78261 0.32775 0.34918
 C477 C 0.78010 0.30820 0.33048
 C478 C 0.76316 0.30463 0.30571
 C479 C 0.74876 0.32092 0.30006
 C480 C 0.75099 0.34024 0.31929
 H481 H 0.80876 0.42972 0.41096
 H482 H 0.81106 0.46376 0.44487
 H483 H 0.74442 0.45289 0.47631
 H484 H 0.74179 0.41921 0.44185
 H485 H 0.79577 0.33009 0.36819
 H486 H 0.79146 0.29593 0.33525
 H487 H 0.73550 0.31856 0.28125
 H488 H 0.73950 0.35241 0.31465
 C489 C 0.08027 0.26492 0.92160
 C490 C 0.06184 0.25138 0.91408
 C491 C 0.04279 0.25308 0.93366
 C492 C 0.04162 0.26832 0.96159
 C493 C 0.06010 0.28213 0.96846
 C494 C 0.07915 0.28034 0.94898
 C495 C 0.10049 0.26311 0.90082
 N496 N 0.11894 0.27466 0.91029
 N497 N 0.13709 0.27303 0.89162
 C498 C 0.13755 0.25982 0.86261
 N499 N 0.11909 0.24828 0.85314
 N500 N 0.10096 0.24987 0.87185
 C501 C 0.15774 0.25799 0.84178
 C502 C 0.15761 0.24598 0.80978
 C503 C 0.17661 0.24416 0.79018
 C504 C 0.19625 0.25420 0.80217
 C505 C 0.19641 0.26622 0.83413
 C506 C 0.17737 0.26814 0.85366
 H507 H 0.06212 0.23926 0.89321
 H508 H 0.02921 0.24186 0.92759
 H509 H 0.05970 0.29502 0.98791
 H510 H 0.09292 0.29132 0.95508
 H511 H 0.14279 0.23799 0.79977
 H512 H 0.17592 0.23475 0.76570
 H513 H 0.21127 0.27417 0.84408
 H514 H 0.17808 0.27750 0.87820
 C515 C 0.57694 0.76795 0.41997
 C516 C 0.55935 0.75279 0.41517
 C517 C 0.54015 0.75470 0.43418
 C518 C 0.53812 0.77180 0.45832
 C519 C 0.55551 0.78715 0.46274
 C520 C 0.57478 0.78517 0.44396
 C521 C 0.59738 0.76580 0.40008
 N522 N 0.61535 0.77851 0.40819
 N523 N 0.63374 0.77651 0.39039
 C524 C 0.63493 0.76176 0.36365
 N525 N 0.61695 0.74908 0.35551
 N526 N 0.59858 0.75104 0.37338
 C527 C 0.65538 0.75952 0.34382
 C528 C 0.65579 0.74645 0.31306
 C529 C 0.67505 0.74432 0.29433
 C530 C 0.69438 0.75509 0.30607
 C531 C 0.69401 0.76812 0.33686
 C532 C 0.67471 0.77037 0.35546
 H533 H 0.56046 0.73932 0.39696
 H534 H 0.52694 0.74266 0.43038
 H535 H 0.55414 0.80074 0.48064
 H536 H 0.58792 0.79724 0.44808
 H537 H 0.64120 0.73791 0.30329
 H538 H 0.67481 0.73413 0.27073
 H539 H 0.70863 0.77665 0.34656
 H540 H 0.67498 0.78053 0.37909
 C541 C 0.91924 0.73669 0.91256
 C542 C 0.92423 0.75168 0.93992
 C543 C 0.94283 0.75016 0.96069
 C544 C 0.95713 0.73378 0.95424
 C545 C 0.95245 0.71930 0.92575
 C546 C 0.93349 0.72047 0.90564
 C547 C 0.89921 0.73801 0.89142
 N548 N 0.88853 0.71987 0.87851
 N549 N 0.87018 0.72108 0.86016
 C550 C 0.86195 0.74050 0.85365
 N551 N 0.87273 0.75864 0.86633
 N552 N 0.89092 0.75740 0.88504
 C553 C 0.84159 0.74192 0.83345
 C554 C 0.83823 0.76015 0.81229
 C555 C 0.81893 0.76164 0.79333
 C556 C 0.80240 0.74520 0.79596
 C557 C 0.80566 0.72704 0.81734
 C558 C 0.82523 0.72527 0.83553
 H559 H 0.91357 0.76444 0.94561
 H560 H 0.94632 0.76226 0.98115
 H561 H 0.96299 0.70645 0.91993
 H562 H 0.93007 0.70882 0.88446
 H563 H 0.85063 0.77317 0.81014
 H564 H 0.81675 0.77586 0.77714
 H565 H 0.79317 0.71412 0.81967
 H566 H 0.82739 0.71110 0.85181
 C567 C 0.42245 0.23226 0.41603
 C568 C 0.43133 0.25015 0.43530
 C569 C 0.45024 0.24856 0.45529
 C570 C 0.46075 0.22920 0.45583
 C571 C 0.45222 0.21144 0.43607
 C572 C 0.43305 0.21286 0.41666
 C573 C 0.40217 0.23384 0.39558
 N574 N 0.38900 0.21599 0.38886
 N575 N 0.37056 0.21751 0.37090
 C576 C 0.36467 0.23692 0.35864
 N577 N 0.37791 0.25475 0.36518
 N578 N 0.39624 0.25325 0.38343
 C579 C 0.34420 0.23870 0.33880
 C580 C 0.34183 0.25588 0.31483
 C581 C 0.32245 0.25771 0.29622
 C582 C 0.30490 0.24267 0.30180
 C583 C 0.30722 0.22554 0.32589
 C584 C 0.32678 0.22344 0.34392
 H585 H 0.42345 0.26525 0.43544
 H586 H 0.45668 0.26241 0.47043
 H587 H 0.46020 0.19639 0.43627
 H588 H 0.42662 0.19888 0.40188
 H589 H 0.35502 0.26782 0.31023
 H590 H 0.32107 0.27112 0.27791
 H591 H 0.29396 0.21369 0.33059
 H592 H 0.32814 0.21009 0.36237
 C593 C 0.73277 0.92062 0.92014
 C594 C 0.71696 0.92299 0.94668
 C595 C 0.71709 0.94181 0.96741
 C596 C 0.73326 0.95841 0.96238
 C597 C 0.74883 0.95618 0.93556
 C598 C 0.74859 0.93753 0.91466
 C599 C 0.73308 0.90063 0.89844
 N600 N 0.74647 0.89969 0.86975
 N601 N 0.74721 0.88167 0.85058
 C602 C 0.73464 0.86374 0.85930
 N603 N 0.72118 0.86466 0.88795
 N604 N 0.72039 0.88274 0.90710
 C605 C 0.73598 0.84358 0.83829
 C606 C 0.72555 0.82407 0.85005
 C607 C 0.72751 0.80498 0.83067
 C608 C 0.73981 0.80502 0.79900
 C609 C 0.74997 0.82457 0.78701
 C610 C 0.74813 0.84359 0.80645
 H611 H 0.70447 0.91034 0.95141
 H612 H 0.70475 0.94334 0.98763
 H613 H 0.76143 0.96879 0.93121
 H614 H 0.76102 0.93626 0.89452
 H615 H 0.71609 0.82348 0.87448
 H616 H 0.71944 0.79018 0.84058
 H617 H 0.75957 0.82517 0.76272
 H618 H 0.75631 0.85832 0.79651
 C619 C 0.23356 0.41945 0.42573
 C620 C 0.24863 0.43704 0.42028
 C621 C 0.24716 0.45614 0.43968
 C622 C 0.23061 0.45810 0.46490
 C623 C 0.21541 0.44067 0.47017
 C624 C 0.21695 0.42148 0.45096
 C625 C 0.23513 0.39922 0.40501
 N626 N 0.22242 0.38125 0.41312
 N627 N 0.22388 0.36310 0.39443
 C628 C 0.23805 0.36215 0.36677
 N629 N 0.25073 0.38013 0.35866
 N630 N 0.24932 0.39825 0.37740
 C631 C 0.23973 0.34198 0.34592
 C632 C 0.25236 0.34191 0.31461
 C633 C 0.25409 0.32292 0.29499
 C634 C 0.24334 0.30351 0.30633
 C635 C 0.23069 0.30354 0.33760
 C636 C 0.22884 0.32259 0.35711
 H637 H 0.26165 0.43604 0.40112
 H638 H 0.25906 0.46940 0.43520
 H639 H 0.20223 0.44198 0.48892
 H640 H 0.20498 0.40832 0.45564
 H641 H 0.26092 0.35656 0.30513
 H642 H 0.26399 0.32344 0.27105
 H643 H 0.22218 0.28885 0.34701
 H644 H 0.21900 0.32206 0.38112
 C645 C 0.26739 0.07700 0.91669
 C646 C 0.28430 0.06335 0.91114
 C647 C 0.28586 0.04476 0.93201
 C648 C 0.27101 0.03988 0.95991
 C649 C 0.25395 0.05358 0.96505
 C650 C 0.25209 0.07181 0.94353
 C651 C 0.26572 0.09665 0.89476
 N652 N 0.24613 0.10432 0.88749
 N653 N 0.24461 0.12221 0.86812
 C654 C 0.26263 0.13329 0.85561
 N655 N 0.28223 0.12566 0.86296
 N656 N 0.28374 0.10762 0.88198
 C657 C 0.26092 0.15344 0.83500
 C658 C 0.27733 0.17005 0.83703
 C659 C 0.27525 0.18950 0.81873
 C660 C 0.25702 0.19245 0.79731
 C661 C 0.24085 0.17565 0.79460
 C662 C 0.24265 0.15643 0.81367
 H663 H 0.29622 0.06694 0.89041
 H664 H 0.29921 0.03466 0.92722
 H665 H 0.24170 0.04993 0.98523
 H666 H 0.23883 0.08202 0.94823
 H667 H 0.29152 0.16819 0.85343
 H668 H 0.28797 0.20220 0.82113
 H669 H 0.22659 0.17758 0.77838
 H670 H 0.22982 0.14383 0.81155
 C671 C 0.77191 0.57786 0.42069
 C672 C 0.79184 0.56822 0.42219
 C673 C 0.79390 0.54923 0.44183
 C674 C 0.77621 0.53995 0.46094
 C675 C 0.75633 0.54953 0.45957
 C676 C 0.75414 0.56824 0.43939
 C677 C 0.76957 0.59787 0.39989
 N678 N 0.74992 0.60289 0.38739
 N679 N 0.74771 0.62101 0.36893
 C680 C 0.76503 0.63495 0.36250
 N681 N 0.78469 0.62996 0.37507
 N682 N 0.78694 0.61173 0.39327
 C683 C 0.76243 0.65521 0.34251
 C684 C 0.77715 0.67311 0.34733
 C685 C 0.77433 0.69245 0.32912
 C686 C 0.75699 0.69409 0.30517
 C687 C 0.74246 0.67609 0.29994
 C688 C 0.74503 0.65691 0.31871
 H689 H 0.80576 0.57524 0.40788
 H690 H 0.80933 0.54196 0.44265
 H691 H 0.74252 0.54248 0.47413
 H692 H 0.73862 0.57535 0.43886
 H693 H 0.79066 0.67229 0.36563
 H694 H 0.78581 0.70606 0.33353
 H695 H 0.72892 0.67694 0.28172
 H696 H 0.73349 0.64334 0.31435
 C697 C 0.07423 0.73333 0.91531
 C698 C 0.05803 0.71705 0.90826
 C699 C 0.03895 0.71575 0.92837
 C700 C 0.03564 0.73087 0.95555
 C701 C 0.05153 0.74761 0.96164
 C702 C 0.07078 0.74861 0.94215
 C703 C 0.09473 0.73440 0.89504
 N704 N 0.11309 0.74350 0.90997
 N705 N 0.13162 0.74452 0.89185
 C706 C 0.13251 0.73666 0.85793
 N707 N 0.11414 0.72762 0.84290
 N708 N 0.09563 0.72640 0.86118
 C709 C 0.15306 0.73817 0.83779
 C710 C 0.15311 0.73906 0.80012
 C711 C 0.17261 0.74145 0.78127
 C712 C 0.19241 0.74249 0.79974
 C713 C 0.19236 0.74109 0.83735
 C714 C 0.17288 0.73919 0.85620
 H715 H 0.06029 0.70506 0.88771
 H716 H 0.02687 0.70279 0.92302
 H717 H 0.04911 0.75982 0.98174
 H718 H 0.08287 0.76151 0.94780
 H719 H 0.13805 0.73839 0.78527
 H720 H 0.17222 0.74243 0.75226
 H721 H 0.20739 0.74194 0.85226
 H722 H 0.17332 0.73842 0.88523
 C723 C 0.57965 0.23083 0.41961
 C724 C 0.56305 0.21531 0.41075
 C725 C 0.54373 0.21398 0.43022
 C726 C 0.54054 0.22833 0.45862
 C727 C 0.55691 0.24426 0.46672
 C728 C 0.57639 0.24527 0.44782
 C729 C 0.60029 0.23201 0.39961
 N730 N 0.61872 0.24045 0.41523
 N731 N 0.63733 0.24156 0.39730
 C732 C 0.63824 0.23445 0.36291
 N733 N 0.61980 0.22607 0.34722
 N734 N 0.60121 0.22478 0.36527
 C735 C 0.65890 0.23601 0.34296
 C736 C 0.65910 0.23727 0.30531
 C737 C 0.67868 0.23959 0.28665
 C738 C 0.69843 0.24019 0.30526
 C739 C 0.69822 0.23845 0.34284
 C740 C 0.67866 0.23661 0.36152
 H741 H 0.56513 0.20395 0.38916
 H742 H 0.53132 0.20162 0.42333
 H743 H 0.55462 0.25596 0.48770
 H744 H 0.58878 0.25761 0.45491
 H745 H 0.64410 0.23693 0.29032
 H746 H 0.67839 0.24085 0.25767
 H747 H 0.71320 0.23897 0.35789
 H748 H 0.67901 0.23556 0.39053
 C749 C 0.92485 0.26819 0.91751
 C750 C 0.92800 0.28322 0.94547
 C751 C 0.94692 0.28398 0.96594
 C752 C 0.96316 0.26948 0.95949
 C753 C 0.96009 0.25479 0.93078
 C754 C 0.94120 0.25412 0.91021
 C755 C 0.90455 0.26703 0.89633
 N756 N 0.90233 0.25408 0.86702
 N757 N 0.88397 0.25274 0.84836
 C758 C 0.86700 0.26425 0.85824
 N759 N 0.86923 0.27724 0.88751
 N760 N 0.88761 0.27862 0.90612
 C761 C 0.84639 0.26233 0.83793
 C762 C 0.82797 0.27202 0.85072
 C763 C 0.80836 0.26959 0.83213
 C764 C 0.80676 0.25753 0.80023
 C765 C 0.82525 0.24813 0.78715
 C766 C 0.84481 0.25045 0.80582
 H767 H 0.91590 0.29455 0.95146
 H768 H 0.94898 0.29633 0.98637
 H769 H 0.97189 0.24310 0.92499
 H770 H 0.93930 0.24230 0.88891
 H771 H 0.82859 0.28127 0.87536
 H772 H 0.79442 0.27707 0.84289
 H773 H 0.82457 0.23872 0.76266
 H774 H 0.85868 0.24283 0.79511
 C775 C 0.41927 0.77034 0.41664
 C776 C 0.42356 0.78732 0.44110
 C777 C 0.44282 0.78874 0.46074
 C778 C 0.45802 0.77304 0.45675
 C779 C 0.45384 0.75617 0.43217
 C780 C 0.43469 0.75484 0.41228
 C781 C 0.39884 0.76875 0.39584
 N782 N 0.39605 0.75441 0.36846
 N783 N 0.37765 0.75284 0.34991
 C784 C 0.36121 0.76549 0.35799
 N785 N 0.36399 0.77984 0.38537
 N786 N 0.38243 0.78147 0.40385
 C787 C 0.34061 0.76343 0.33767
 C788 C 0.32236 0.77373 0.34964
 C789 C 0.30277 0.77121 0.33101
 C790 C 0.30105 0.75847 0.29984
 C791 C 0.31938 0.74846 0.28757
 C792 C 0.33890 0.75084 0.30633
 H793 H 0.41213 0.79963 0.44490
 H794 H 0.44590 0.80217 0.47895
 H795 H 0.46532 0.74387 0.42866
 H796 H 0.43189 0.74153 0.39375
 H797 H 0.32310 0.78352 0.37370
 H798 H 0.28895 0.77917 0.34112
 H799 H 0.31859 0.73851 0.26367
 H800 H 0.35265 0.74275 0.29626
 C801 C 0.26396 0.92215 0.07979
 C802 C 0.24793 0.93715 0.08268
 C803 C 0.24946 0.95634 0.06290
 C804 C 0.26706 0.96096 0.03990
 C805 C 0.28323 0.94614 0.03734
 C806 C 0.28161 0.92686 0.05684
 C807 C 0.26233 0.90176 0.10066
 N808 N 0.27570 0.88572 0.09367
 N809 N 0.27420 0.86737 0.11234
 C810 C 0.25934 0.86430 0.13890
 N811 N 0.24601 0.88036 0.14594
 N812 N 0.24745 0.89867 0.12719
 C813 C 0.25757 0.84382 0.15952
 C814 C 0.24469 0.84195 0.19054
 C815 C 0.24274 0.82255 0.20968
 C816 C 0.25346 0.80450 0.19808
 C817 C 0.26643 0.80638 0.16719
 C818 C 0.26854 0.82585 0.14822
 H819 H 0.23410 0.93402 0.10005
 H820 H 0.23681 0.96754 0.06532
 H821 H 0.29722 0.94956 0.02045
 H822 H 0.29434 0.91578 0.05421
 H823 H 0.23609 0.85549 0.20009
 H824 H 0.23259 0.82161 0.23333
 H825 H 0.27493 0.79278 0.15759
 H826 H 0.27856 0.82671 0.12443
 C827 C 0.77273 0.42217 0.58283
 C828 C 0.78987 0.42642 0.55863
 C829 C 0.79144 0.44567 0.53903
 C830 C 0.77576 0.46090 0.54281
 C831 C 0.75876 0.45679 0.56718
 C832 C 0.75727 0.43764 0.58703
 C833 C 0.77093 0.40172 0.60348
 N834 N 0.75641 0.39894 0.63062
 N835 N 0.75464 0.38051 0.64901
 C836 C 0.76725 0.36403 0.64099
 N837 N 0.78177 0.36680 0.61385
 N838 N 0.78360 0.38527 0.59553
 C839 C 0.76500 0.34341 0.66115
 C840 C 0.77530 0.32516 0.64922
 C841 C 0.77271 0.30559 0.66780
 C842 C 0.75990 0.30387 0.69888
 C843 C 0.74983 0.32218 0.71107
 C844 C 0.75228 0.34170 0.69235
 H845 H 0.80215 0.41495 0.55497
 H846 H 0.80496 0.44870 0.52097
 H847 H 0.74647 0.46830 0.57051
 H848 H 0.74385 0.43489 0.60537
 H849 H 0.78518 0.32590 0.62525
 H850 H 0.78071 0.29178 0.65776
 H851 H 0.73983 0.32139 0.73490
 H852 H 0.74418 0.35544 0.70238
 C853 C 0.73703 0.07653 0.08454
 C854 C 0.75158 0.07366 0.05632
 C855 C 0.75065 0.05445 0.03672
 C856 C 0.73470 0.03797 0.04416
 C857 C 0.72027 0.04076 0.07259
 C858 C 0.72151 0.05981 0.09275
 C859 C 0.73806 0.09691 0.10518
 N860 N 0.73063 0.09744 0.13943
 N861 N 0.73174 0.11581 0.15803
 C862 C 0.74012 0.13444 0.14297
 N863 N 0.74743 0.13392 0.10867
 N864 N 0.74651 0.11552 0.09020
 C865 C 0.74145 0.15487 0.16349
 C866 C 0.74209 0.17478 0.14544
 C867 C 0.74375 0.19415 0.16464
 C868 C 0.74526 0.19400 0.20224
 C869 C 0.74460 0.17410 0.22035
 C870 C 0.74246 0.15471 0.20116
 H871 H 0.76391 0.08616 0.04972
 H872 H 0.76239 0.05245 0.01569
 H873 H 0.70790 0.02826 0.07897
 H874 H 0.71007 0.06160 0.11433
 H875 H 0.74122 0.17540 0.11643
 H876 H 0.74432 0.20925 0.14998
 H877 H 0.74568 0.17354 0.24934
 H878 H 0.74208 0.13958 0.21575
 C879 C 0.23036 0.57791 0.58151
 C880 C 0.21493 0.56116 0.59009
 C881 C 0.21389 0.54190 0.57051
 C882 C 0.22842 0.53892 0.54230
 C883 C 0.24426 0.55543 0.53448
 C884 C 0.24499 0.57485 0.55348
 C885 C 0.23127 0.59846 0.60164
 N886 N 0.23962 0.61698 0.58624
 N887 N 0.24053 0.63552 0.60431
 C888 C 0.23329 0.63627 0.63864
 N889 N 0.22500 0.61774 0.65412
 N890 N 0.22390 0.59923 0.63591
 C891 C 0.23469 0.65683 0.65879
 C892 C 0.23590 0.65689 0.69644
 C893 C 0.23815 0.67639 0.71530
 C894 C 0.23875 0.69619 0.69688
 C895 C 0.23705 0.69612 0.65930
 C896 C 0.23527 0.67664 0.64042
 H897 H 0.20344 0.56310 0.61154
 H898 H 0.20160 0.52938 0.57718
 H899 H 0.25609 0.55330 0.51363
 H900 H 0.25725 0.58736 0.54663
 H901 H 0.23558 0.64186 0.71128
 H902 H 0.23938 0.67599 0.74428
 H903 H 0.23756 0.71114 0.64441
 H904 H 0.23426 0.67708 0.61142
 C905 C 0.91785 0.73683 0.07606
 C906 C 0.92014 0.72024 0.05089
 C907 C 0.93899 0.71958 0.03049
 C908 C 0.95577 0.73566 0.03447
 C909 C 0.95355 0.75218 0.05964
 C910 C 0.93479 0.75278 0.08022
 C911 C 0.89796 0.73749 0.09795
 N912 N 0.89683 0.75178 0.12537
 N913 N 0.87895 0.75243 0.14503
 C914 C 0.86143 0.73885 0.13806
 N915 N 0.86256 0.72456 0.11063
 N916 N 0.88046 0.72386 0.09103
 C917 C 0.84145 0.73982 0.15962
 C918 C 0.82238 0.72799 0.14933
 C919 C 0.80339 0.72937 0.16914
 C920 C 0.80308 0.74251 0.19982
 C921 C 0.82221 0.75410 0.21042
 C922 C 0.84116 0.75282 0.19049
 H923 H 0.90747 0.70764 0.04715
 H924 H 0.94053 0.70648 0.01166
 H925 H 0.96632 0.76472 0.06317
 H926 H 0.93355 0.76580 0.09929
 H927 H 0.82202 0.71783 0.12570
 H928 H 0.78893 0.72021 0.16031
 H929 H 0.82249 0.76438 0.23391
 H930 H 0.85557 0.76209 0.19926
 C931 C 0.42048 0.23206 0.57434
 C932 C 0.42269 0.21557 0.54896
 C933 C 0.44200 0.21418 0.52996
 C934 C 0.45937 0.22942 0.53559
 C935 C 0.45723 0.24583 0.56098
 C936 C 0.43801 0.24714 0.58017
 C937 C 0.40011 0.23350 0.59483
 N938 N 0.39901 0.24756 0.62259
 N939 N 0.38078 0.24887 0.64113
 C940 C 0.36284 0.23622 0.63268
 N941 N 0.36392 0.22217 0.60487
 N942 N 0.38218 0.22081 0.58638
 C943 C 0.34257 0.23780 0.65339
 C944 C 0.32317 0.22700 0.64195
 C945 C 0.30405 0.22879 0.66138
 C946 C 0.30396 0.24130 0.69281
 C947 C 0.32339 0.25195 0.70437
 C948 C 0.34244 0.25028 0.68486
 H949 H 0.40958 0.20359 0.54399
 H950 H 0.44343 0.20110 0.51107
 H951 H 0.47042 0.25776 0.56575
 H952 H 0.43688 0.26007 0.59945
 H953 H 0.32268 0.21728 0.61781
 H954 H 0.28935 0.22037 0.65179
 H955 H 0.32389 0.26175 0.72843
 H956 H 0.35708 0.25877 0.69454
 C957 C 0.07849 0.27014 0.08425
 C958 C 0.06848 0.28984 0.08192
 C959 C 0.04988 0.29148 0.06104
 C960 C 0.04141 0.27363 0.04138
 C961 C 0.05130 0.25394 0.04383
 C962 C 0.06959 0.25217 0.06525
 C963 C 0.09823 0.26830 0.10603
 N964 N 0.10345 0.24884 0.11905
 N965 N 0.12145 0.24703 0.13805
 C966 C 0.13508 0.26458 0.14454
 N967 N 0.12987 0.28405 0.13152
 N968 N 0.11175 0.28590 0.11278
 C969 C 0.15537 0.26239 0.16473
 C970 C 0.17311 0.27728 0.15968
 C971 C 0.19258 0.27469 0.17770
 C972 C 0.19452 0.25744 0.20169
 C973 C 0.17665 0.24280 0.20728
 C974 C 0.15733 0.24512 0.18869
 H975 H 0.07493 0.30390 0.09649
 H976 H 0.04234 0.30674 0.05959
 H977 H 0.04482 0.23994 0.02911
 H978 H 0.07698 0.23682 0.06645
 H979 H 0.17209 0.29068 0.14125
 H980 H 0.20608 0.28627 0.17302
 H981 H 0.17773 0.22932 0.22555
 H982 H 0.14389 0.23345 0.19321
 C983 C 0.57550 0.77038 0.57838
 C984 C 0.56545 0.79008 0.57695
 C985 C 0.54640 0.79178 0.55726
 C986 C 0.53748 0.77399 0.53801
 C987 C 0.54749 0.75435 0.53928
 C988 C 0.56625 0.75250 0.55953
 C989 C 0.59557 0.76845 0.59928
 N990 N 0.60099 0.74894 0.61182
 N991 N 0.61915 0.74711 0.63040
 C992 C 0.63274 0.76469 0.63689
 N993 N 0.62735 0.78420 0.62428
 N994 N 0.60908 0.78606 0.60599
 C995 C 0.65311 0.76255 0.65690
 C996 C 0.67074 0.77758 0.65191
 C997 C 0.69019 0.77520 0.67005
 C998 C 0.69225 0.75800 0.69411
 C999 C 0.67451 0.74317 0.69956
 C1000 C 0.65520 0.74529 0.68084
 H1001 H 0.57216 0.80408 0.59137
 H1002 H 0.53880 0.80704 0.55654
 H1003 H 0.54072 0.74045 0.52463
 H1004 H 0.57370 0.73716 0.56000
 H1005 H 0.66961 0.79098 0.63351
 H1006 H 0.70359 0.78691 0.66546
 H1007 H 0.67568 0.72973 0.71787
 H1008 H 0.64184 0.73352 0.68532
   
