data_POSCAR
  _audit_creation_date              2014-09-24
  _audit_creation_method            'ToBaCCo'
  _symmetry_space_group_name_H-M    'P1'
  _symmetry_Int_Tables_number       1
  _symmetry_cell_setting            triclinic
  loop_
  _symmetry_equiv_pos_as_xyz
 x,y,z
_cell_length_a 34.7039
_cell_length_b 34.6685
_cell_length_c 34.5049
_cell_angle_alpha 90.075200
_cell_angle_beta 89.853700
_cell_angle_gamma 89.982800
loop_
  _atom_site_label
  _atom_site_type_symbol
  _atom_site_fract_x
  _atom_site_fract_y
  _atom_site_fract_z
O1 O 0.88278 0.17272 0.76268
 O2 O 0.92926 0.12278 0.75558
 O3 O 0.78268 0.11851 0.80253
 O4 O 0.76721 0.07521 0.85189
 O5 O 0.82223 0.21662 0.86517
 O6 O 0.87736 0.22659 0.90911
 O7 O 0.87592 0.01580 0.91151
 O8 O 0.83141 0.00906 0.86299
 O9 O 0.97296 0.06037 0.87675
 O10 O 0.98724 0.11177 0.81873
 O11 O 0.93228 0.11361 0.96234
 O12 O 0.87414 0.15877 0.97390
 O13 O 0.87626 0.06083 0.95970
 O14 O 0.83660 0.11515 0.97600
 O15 O 0.97841 0.11964 0.91593
 O16 O 0.99337 0.15416 0.86122
 O17 O 0.92736 0.01643 0.86063
 O18 O 0.87809 0.01318 0.81086
 O19 O 0.87993 0.21839 0.81018
 O20 O 0.91812 0.23103 0.86567
 O21 O 0.77695 0.16955 0.86040
 O22 O 0.76569 0.11780 0.90076
 O23 O 0.83166 0.11960 0.75851
 O24 O 0.88370 0.07422 0.75265
 Zr25 Zr 0.88071 0.12049 0.79297
 O26 O 0.91419 0.08258 0.82620
 Zr27 Zr 0.80936 0.11899 0.85781
 O28 O 0.84107 0.08309 0.89502
 Zr29 Zr 0.87630 0.18685 0.86261
 O30 O 0.91248 0.15264 0.89810
 Zr31 Zr 0.87750 0.04904 0.86083
 O32 O 0.84376 0.08280 0.82355
 Zr33 Zr 0.94701 0.11486 0.86493
 O34 O 0.91572 0.15377 0.82965
 Zr35 Zr 0.87848 0.11494 0.93135
 O36 O 0.84188 0.15156 0.89803
 O37 O 0.84284 0.15558 0.82437
 O38 O 0.91346 0.07886 0.89913
 C39 C 0.88237 0.20784 0.77438
 C40 C 0.79600 0.11881 0.76746
 C41 C 0.78681 0.20481 0.86425
 C42 C 0.87518 0.02568 0.94738
 C43 C 0.96065 0.02546 0.87288
 C44 C 0.96795 0.11659 0.95127
 H45 H 0.93050 0.06636 0.80917
 H46 H 0.92833 0.16999 0.91431
 H47 H 0.82686 0.17256 0.80789
 H48 H 0.82311 0.06700 0.91029
 H49 H 0.81466 0.01466 0.84049
 H50 H 0.77257 0.05501 0.87137
 H51 H 0.98393 0.17868 0.87244
 H52 H 0.94010 0.22239 0.84951
 H53 H 0.88102 -0.01399 0.81937
 H54 H 0.88047 0.08458 0.72604
 H55 H 0.89706 0.17552 0.97131
 H56 H 0.85811 0.21746 0.92822
 H57 H 0.94698 0.14265 0.76589
 H58 H 0.99493 0.08447 0.81546
 H59 H 0.77558 0.13271 0.92310
 H60 H 0.81447 0.09978 0.96669
 O61 O 0.82813 0.73812 0.37972
 O62 O 0.87875 0.74321 0.42693
 O63 O 0.87985 0.68862 0.28196
 O64 O 0.91961 0.63643 0.27084
 O65 O 0.77570 0.63617 0.32464
 O66 O 0.75919 0.60016 0.38134
 O67 O 0.96724 0.57050 0.38486
 O68 O 0.98482 0.61922 0.34269
 O69 O 0.92248 0.63049 0.48446
 O70 O 0.87047 0.68048 0.49184
 O71 O 0.86881 0.53701 0.43806
 O72 O 0.81924 0.52929 0.38181
 O73 O 0.91610 0.52946 0.38322
 O74 O 0.86214 0.52119 0.34282
 O75 O 0.86659 0.58432 0.48360
 O76 O 0.82767 0.64117 0.49337
 O77 O 0.97020 0.62305 0.43983
 O78 O 0.98408 0.67072 0.38827
 O79 O 0.77845 0.69519 0.37692
 O80 O 0.76060 0.64515 0.42045
 O81 O 0.82388 0.63504 0.27989
 O82 O 0.87569 0.59044 0.27115
 O83 O 0.88301 0.73421 0.32927
 O84 O 0.92820 0.73750 0.38263
 Zr85 Zr 0.87774 0.70289 0.38069
 O86 O 0.90986 0.66716 0.41783
 Zr87 Zr 0.87484 0.63559 0.31255
 O88 O 0.90571 0.59650 0.34746
 Zr89 Zr 0.80464 0.64064 0.37824
 O90 O 0.83307 0.60314 0.41660
 Zr91 Zr 0.94185 0.62644 0.38577
 O92 O 0.91369 0.66584 0.34794
 Zr93 Zr 0.87171 0.63456 0.45132
 O94 O 0.83933 0.67257 0.41663
 Zr95 Zr 0.86809 0.56585 0.38421
 O96 O 0.83673 0.60096 0.34535
 O97 O 0.84062 0.67362 0.34343
 O98 O 0.90557 0.59454 0.42141
 C99 C 0.79204 0.72967 0.37824
 C100 C 0.88264 0.72394 0.29370
 C101 C 0.78821 0.63380 0.28957
 C102 C 0.95229 0.53629 0.38315
 C103 C 0.95802 0.62618 0.47500
 C104 C 0.86793 0.54901 0.47337
 H105 H 0.92699 0.68333 0.43394
 H106 H 0.81397 0.58891 0.43233
 H107 H 0.82571 0.69054 0.32592
 H108 H 0.92060 0.57907 0.33037
 H109 H 0.98193 0.64103 0.32441
 H110 H 0.93989 0.61859 0.27995
 H111 H 0.80590 0.62446 0.48568
 H112 H 0.77066 0.66216 0.44115
 H113 H 1.00914 0.65879 0.39512
 H114 H 0.92114 0.76467 0.37699
 H115 H 0.80627 0.52994 0.40737
 H116 H 0.76725 0.57771 0.36555
 H117 H 0.85710 0.73679 0.44451
 H118 H 0.89440 0.69565 0.48860
 H119 H 0.85570 0.57169 0.27916
 H120 H 0.88009 0.52696 0.32129
 O121 O 0.35499 0.15725 0.27048
 O122 O 0.39770 0.10449 0.26414
 O123 O 0.25972 0.10877 0.33347
 O124 O 0.25404 0.07272 0.39031
 O125 O 0.30434 0.21500 0.36782
 O126 O 0.36242 0.23222 0.40783
 O127 O 0.37636 0.02532 0.44171
 O128 O 0.32176 0.01081 0.40376
 O129 O 0.46211 0.06454 0.37617
 O130 O 0.46668 0.11383 0.31914
 O131 O 0.43051 0.13211 0.46719
 O132 O 0.37073 0.17672 0.47939
 O133 O 0.38184 0.07775 0.48104
 O134 O 0.33973 0.12923 0.49604
 O135 O 0.47034 0.12505 0.41536
 O136 O 0.47527 0.15838 0.35640
 O137 O 0.41612 0.01863 0.38512
 O138 O 0.35987 0.00668 0.34416
 O139 O 0.35970 0.20909 0.31082
 O140 O 0.39847 0.23240 0.36061
 O141 O 0.26066 0.16758 0.37970
 O142 O 0.25813 0.12380 0.43192
 O143 O 0.30228 0.10576 0.28326
 O144 O 0.35283 0.05786 0.27674
 Zr145 Zr 0.35605 0.11008 0.30886
 O146 O 0.39515 0.07856 0.34229
 Zr147 Zr 0.29456 0.11780 0.38293
 O148 O 0.33256 0.08839 0.42042
 Zr149 Zr 0.35914 0.18640 0.36747
 O150 O 0.40126 0.15883 0.40206
 Zr151 Zr 0.36547 0.05013 0.38720
 O152 O 0.32544 0.07711 0.35025
 Zr153 Zr 0.43212 0.11737 0.36969
 O154 O 0.39456 0.14937 0.33413
 Zr155 Zr 0.37338 0.12623 0.44496
 O156 O 0.33102 0.15674 0.41244
 O157 O 0.32210 0.14911 0.33961
 O158 O 0.40546 0.08655 0.41372
 C159 C 0.35834 0.19362 0.27686
 C160 C 0.26813 0.10584 0.29719
 C161 C 0.26938 0.20280 0.37312
 C162 C 0.38345 0.04119 0.47461
 C163 C 0.45100 0.02943 0.38150
 C164 C 0.46439 0.13027 0.45144
 H165 H 0.40902 0.06010 0.32540
 H166 H 0.41850 0.17860 0.41324
 H167 H 0.30446 0.16332 0.32225
 H168 H 0.31817 0.07447 0.44083
 H169 H 0.30169 0.01204 0.38345
 H170 H 0.26229 0.05689 0.41264
 H171 H 0.46869 0.18235 0.37051
 H172 H 0.42106 0.22152 0.34686
 H173 H 0.36495 -0.01863 0.35650
 H174 H 0.34429 0.06370 0.24994
 H175 H 0.39282 0.19319 0.47197
 H176 H 0.34293 0.22693 0.42814
 H177 H 0.41718 0.12494 0.26815
 H178 H 0.46561 0.08701 0.30936
 H179 H 0.26904 0.14478 0.44798
 H180 H 0.31437 0.11789 0.48980
 O181 O 0.12122 0.33296 0.25585
 O182 O 0.07353 0.38529 0.25325
 O183 O 0.21944 0.38360 0.30579
 O184 O 0.23265 0.42109 0.35917
 O185 O 0.17548 0.28028 0.35826
 O186 O 0.11552 0.26751 0.39692
 O187 O 0.12537 0.47422 0.42214
 O188 O 0.17036 0.48630 0.37017
 O189 O 0.02515 0.43985 0.36767
 O190 O 0.01399 0.38702 0.31246
 O191 O 0.06326 0.37547 0.45810
 O192 O 0.11854 0.32638 0.46593
 O193 O 0.11985 0.42422 0.46440
 O194 O 0.15717 0.36859 0.47509
 O195 O 0.01852 0.37936 0.41039
 O196 O 0.00453 0.34667 0.35534
 O197 O 0.07428 0.48299 0.37134
 O198 O 0.12027 0.49415 0.32671
 O199 O 0.12181 0.28364 0.29938
 O200 O 0.07979 0.26683 0.34950
 O201 O 0.22147 0.32688 0.35634
 O202 O 0.23109 0.37375 0.40365
 O203 O 0.17280 0.38682 0.25968
 O204 O 0.12088 0.43061 0.25237
 Zr205 Zr 0.12162 0.38300 0.29103
 O206 O 0.08800 0.41917 0.32669
 Zr207 Zr 0.18967 0.37772 0.35884
 O208 O 0.15716 0.41017 0.39854
 Zr209 Zr 0.12169 0.31078 0.35421
 O210 O 0.08404 0.34252 0.39080
 Zr211 Zr 0.12274 0.44831 0.36706
 O212 O 0.15700 0.41747 0.32706
 Zr213 Zr 0.05196 0.38451 0.36035
 O214 O 0.08425 0.34766 0.32306
 Zr215 Zr 0.11756 0.37516 0.42908
 O216 O 0.15525 0.34156 0.39407
 O217 O 0.15746 0.34476 0.32063
 O218 O 0.08419 0.41580 0.40018
 C219 C 0.12139 0.29683 0.26446
 C220 C 0.20795 0.38647 0.27041
 C221 C 0.21112 0.29164 0.35847
 C222 C 0.12375 0.46009 0.45657
 C223 C 0.03856 0.47457 0.37135
 C224 C 0.02806 0.37689 0.44602
 H225 H 0.07331 0.43759 0.31059
 H226 H 0.06680 0.32439 0.40455
 H227 H 0.17424 0.32923 0.30340
 H228 H 0.17496 0.42384 0.41615
 H229 H 0.18666 0.48122 0.34712
 H230 H 0.22672 0.43937 0.38041
 H231 H 0.01444 0.32059 0.36123
 H232 H 0.05820 0.27802 0.33456
 H233 H 0.13177 0.48416 0.30244
 H234 H 0.12497 0.42105 0.22552
 H235 H 0.09428 0.31192 0.46202
 H236 H 0.13528 0.27272 0.41688
 H237 H 0.05753 0.36215 0.25815
 H238 H 0.01295 0.41405 0.30337
 H239 H 0.22088 0.35515 0.42284
 H240 H 0.18051 0.38340 0.46809
 O241 O 0.61494 0.83421 0.27301
 O242 O 0.57091 0.88864 0.27143
 O243 O 0.71737 0.87718 0.32057
 O244 O 0.73399 0.91361 0.37368
 O245 O 0.66629 0.77624 0.37133
 O246 O 0.61053 0.76518 0.41193
 O247 O 0.62220 0.97264 0.44151
 O248 O 0.67269 0.98320 0.39248
 O249 O 0.52665 0.94079 0.38464
 O250 O 0.50971 0.88760 0.33571
 O251 O 0.56618 0.87483 0.47888
 O252 O 0.61989 0.82491 0.48415
 O253 O 0.62083 0.92239 0.48368
 O254 O 0.66138 0.86532 0.49030
 O255 O 0.52040 0.88354 0.43279
 O256 O 0.50255 0.84849 0.37808
 O257 O 0.57638 0.98336 0.38719
 O258 O 0.62526 0.99317 0.34581
 O259 O 0.61242 0.78431 0.31578
 O260 O 0.56961 0.77066 0.36850
 O261 O 0.71549 0.81953 0.37289
 O262 O 0.73026 0.86734 0.41864
 O263 O 0.66940 0.88439 0.27635
 O264 O 0.61972 0.93229 0.27227
 Zr265 Zr 0.61887 0.88319 0.30902
 O266 O 0.58739 0.91924 0.34624
 Zr267 Zr 0.68817 0.87332 0.37473
 O268 O 0.65840 0.90758 0.41576
 Zr269 Zr 0.61587 0.81023 0.37103
 O270 O 0.58226 0.84254 0.41033
 Zr271 Zr 0.62400 0.94708 0.38594
 O272 O 0.65649 0.91538 0.34480
 Zr273 Zr 0.55112 0.88522 0.38059
 O274 O 0.58024 0.84892 0.34088
 Zr275 Zr 0.61872 0.87373 0.44738
 O276 O 0.65259 0.83857 0.41019
 O277 O 0.65306 0.84267 0.33715
 O278 O 0.58547 0.91528 0.41955
 C279 C 0.61263 0.79810 0.28112
 C280 C 0.70488 0.88159 0.28558
 C281 C 0.70224 0.78499 0.37268
 C282 C 0.62081 0.95855 0.47605
 C283 C 0.54058 0.97522 0.38615
 C284 C 0.53095 0.87924 0.46803
 H285 H 0.57315 0.93803 0.33017
 H286 H 0.56500 0.82498 0.42477
 H287 H 0.66842 0.82646 0.31923
 H288 H 0.67670 0.92108 0.43299
 H289 H 0.68969 0.97827 0.36991
 H290 H 0.72930 0.93267 0.39453
 H291 H 0.51068 0.82317 0.38836
 H292 H 0.54975 0.78250 0.35173
 H293 H 0.63824 0.98318 0.32229
 H294 H 0.62362 0.92371 0.24507
 H295 H 0.59571 0.81035 0.48014
 H296 H 0.62929 0.77074 0.43276
 H297 H 0.55279 0.86741 0.27747
 H298 H 0.51422 0.91157 0.32085
 H299 H 0.71893 0.85042 0.43874
 H300 H 0.68214 0.88431 0.48568
 O301 O 0.61074 0.67217 0.23428
 O302 O 0.56584 0.62150 0.23714
 O303 O 0.71504 0.62026 0.19790
 O304 O 0.73108 0.57636 0.15118
 O305 O 0.67991 0.71939 0.13762
 O306 O 0.62852 0.73527 0.09388
 O307 O 0.62975 0.52417 0.07600
 O308 O 0.66313 0.51071 0.13080
 O309 O 0.52278 0.57132 0.11774
 O310 O 0.50663 0.62636 0.16100
 O311 O 0.58205 0.62466 0.02600
 O312 O 0.63807 0.66897 0.02323
 O313 O 0.63378 0.57285 0.03198
 O314 O 0.67796 0.62789 0.02654
 O315 O 0.53040 0.62516 0.06644
 O316 O 0.51219 0.66754 0.12146
 O317 O 0.56775 0.52370 0.11873
 O318 O 0.61004 0.51445 0.17500
 O319 O 0.61890 0.72019 0.18997
 O320 O 0.58364 0.73552 0.13310
 O321 O 0.72395 0.67109 0.14272
 O322 O 0.73662 0.61761 0.10181
 O323 O 0.66361 0.62003 0.23884
 O324 O 0.60995 0.57206 0.23732
 Zr325 Zr 0.61552 0.62136 0.20136
 O326 O 0.58274 0.58780 0.16247
 Zr327 Zr 0.69065 0.62115 0.14219
 O328 O 0.66123 0.58800 0.10108
 Zr329 Zr 0.62555 0.69142 0.13628
 O330 O 0.59291 0.66085 0.09487
 Zr331 Zr 0.61963 0.55351 0.12855
 O332 O 0.65238 0.58376 0.17068
 Zr333 Zr 0.55421 0.62328 0.12260
 O334 O 0.58357 0.65741 0.16416
 Zr335 Zr 0.62954 0.62395 0.06379
 O336 O 0.66284 0.65769 0.10217
 O337 O 0.65573 0.65730 0.17484
 O338 O 0.58904 0.58737 0.08913
 C339 C 0.61304 0.70790 0.22475
 C340 C 0.70004 0.62042 0.23204
 C341 C 0.71482 0.70657 0.13928
 C342 C 0.63589 0.53733 0.04169
 C343 C 0.53278 0.53562 0.11678
 C344 C 0.54566 0.62512 0.03240
 H345 H 0.56454 0.57161 0.17739
 H346 H 0.57949 0.67921 0.07769
 H347 H 0.67065 0.67357 0.19298
 H348 H 0.68057 0.57233 0.08710
 H349 H 0.67755 0.51502 0.15516
 H350 H 0.72465 0.55519 0.13309
 H351 H 0.52110 0.68749 0.10305
 H352 H 0.56028 0.72532 0.14604
 H353 H 0.60598 0.48832 0.16399
 H354 H 0.61421 0.57999 0.26461
 H355 H 0.61618 0.68712 0.02548
 H356 H 0.64665 0.72595 0.07375
 H357 H 0.54731 0.63969 0.22531
 H358 H 0.50917 0.60507 0.17988
 H359 H 0.73117 0.63663 0.08117
 H360 H 0.69562 0.60642 0.03292
 O361 O 0.36700 0.83202 0.74031
 O362 O 0.40960 0.88102 0.75474
 O363 O 0.27373 0.89306 0.68233
 O364 O 0.26756 0.93214 0.63158
 O365 O 0.31773 0.78918 0.63396
 O366 O 0.37467 0.77301 0.59713
 O367 O 0.39215 0.98496 0.58777
 O368 O 0.34029 0.99649 0.63120
 O369 O 0.47936 0.93301 0.64364
 O370 O 0.48431 0.87839 0.69256
 O371 O 0.44072 0.88115 0.54485
 O372 O 0.38479 0.84340 0.52617
 O373 O 0.39617 0.93841 0.54131
 O374 O 0.34534 0.88652 0.52464
 O375 O 0.48241 0.87835 0.59542
 O376 O 0.48608 0.83590 0.65233
 O377 O 0.43567 0.98176 0.64041
 O378 O 0.38209 0.99077 0.68740
 O379 O 0.36915 0.78498 0.69425
 O380 O 0.41323 0.77063 0.64265
 O381 O 0.27487 0.83859 0.62940
 O382 O 0.27525 0.89146 0.58295
 O383 O 0.31465 0.88809 0.73352
 O384 O 0.37013 0.93219 0.74635
 Zr385 Zr 0.36989 0.88397 0.70836
 O386 O 0.41114 0.91744 0.67851
 Zr387 Zr 0.30940 0.88778 0.63360
 O388 O 0.34770 0.92180 0.60092
 Zr389 Zr 0.37218 0.81565 0.64091
 O390 O 0.41335 0.84635 0.60791
 Zr391 Zr 0.38276 0.95330 0.63870
 O392 O 0.34120 0.92302 0.67141
 Zr393 Zr 0.44648 0.88166 0.64461
 O394 O 0.40813 0.84761 0.67798
 Zr395 Zr 0.38575 0.88558 0.57052
 O396 O 0.34448 0.85113 0.59996
 O397 O 0.33526 0.85020 0.67288
 O398 O 0.42020 0.91916 0.60605
 C399 C 0.36800 0.79631 0.72992
 C400 C 0.28086 0.89182 0.71873
 C401 C 0.28335 0.80272 0.62974
 C402 C 0.39854 0.97371 0.55286
 C403 C 0.47023 0.96891 0.64121
 C404 C 0.47491 0.87894 0.55904
 H405 H 0.42623 0.93293 0.69717
 H406 H 0.42951 0.82771 0.59349
 H407 H 0.31662 0.83467 0.68800
 H408 H 0.33345 0.93918 0.58336
 H409 H 0.32092 0.99255 0.65195
 H410 H 0.27922 0.95424 0.61780
 H411 H 0.48099 0.81653 0.63190
 H412 H 0.43309 0.77867 0.66155
 H413 H 0.38871 1.01705 0.67822
 H414 H 0.35823 0.92452 0.77136
 H415 H 0.40008 0.82117 0.53536
 H416 H 0.35979 0.78317 0.57492
 H417 H 0.43192 0.86599 0.74517
 H418 H 0.48111 0.90214 0.70817
 H419 H 0.28402 0.87071 0.56528
 H420 H 0.33234 0.91191 0.52491
 O421 O 0.88284 0.33559 0.73006
 O422 O 0.93165 0.38606 0.73166
 O423 O 0.78448 0.38771 0.68319
 O424 O 0.77296 0.42884 0.63085
 O425 O 0.82258 0.28468 0.62953
 O426 O 0.88095 0.26937 0.58839
 O427 O 0.88037 0.47493 0.56342
 O428 O 0.83749 0.49036 0.61617
 O429 O 0.98024 0.43660 0.61835
 O430 O 0.99034 0.38207 0.67071
 O431 O 0.93696 0.37536 0.52636
 O432 O 0.87963 0.32695 0.52084
 O433 O 0.88208 0.42477 0.52092
 O434 O 0.84254 0.37111 0.51166
 O435 O 0.98278 0.37725 0.57313
 O436 O 0.99654 0.34252 0.62718
 O437 O 0.93320 0.48199 0.61404
 O438 O 0.88844 0.49608 0.65844
 O439 O 0.88007 0.28626 0.68650
 O440 O 0.91682 0.26586 0.63480
 O441 O 0.77894 0.33355 0.63096
 O442 O 0.76989 0.38129 0.58569
 O443 O 0.83278 0.39027 0.72757
 O444 O 0.88589 0.43312 0.73289
 Zr445 Zr 0.88284 0.38507 0.69477
 O446 O 0.91729 0.41925 0.65836
 Zr447 Zr 0.81296 0.38271 0.62905
 O448 O 0.84606 0.41323 0.58832
 Zr449 Zr 0.87795 0.31263 0.63157
 O450 O 0.91631 0.34230 0.59414
 Zr451 Zr 0.88303 0.44984 0.61875
 O452 O 0.84817 0.42109 0.65978
 Zr453 Zr 0.95085 0.38268 0.62405
 O454 O 0.91769 0.34771 0.66199
 Zr455 Zr 0.88335 0.37636 0.55677
 O456 O 0.84479 0.34499 0.59278
 O457 O 0.84472 0.34820 0.66618
 O458 O 0.91929 0.41545 0.58489
 C459 C 0.88218 0.29958 0.72131
 C460 C 0.79727 0.39012 0.71820
 C461 C 0.78754 0.29786 0.62922
 C462 C 0.88015 0.46070 0.52894
 C463 C 0.96850 0.47189 0.61495
 C464 C 0.97244 0.37571 0.53770
 H465 H 0.93305 0.43697 0.67425
 H466 H 0.93241 0.32345 0.57991
 H467 H 0.82804 0.33304 0.68379
 H468 H 0.82844 0.42763 0.57113
 H469 H 0.82144 0.48653 0.63963
 H470 H 0.77844 0.44617 0.60875
 H471 H 0.98543 0.31708 0.62068
 H472 H 0.94052 0.27615 0.64690
 H473 H 0.87728 0.48688 0.68316
 H474 H 0.88211 0.42406 0.75994
 H475 H 0.90443 0.31295 0.52235
 H476 H 0.86017 0.27496 0.56961
 H477 H 0.94702 0.36257 0.72631
 H478 H 0.99111 0.40829 0.68205
 H479 H 0.77905 0.36324 0.56541
 H480 H 0.82002 0.38702 0.51903
 O481 O 0.77551 0.87925 0.19020
 O482 O 0.76230 0.92838 0.14130
 O483 O 0.80644 0.78165 0.12426
 O484 O 0.84961 0.76967 0.07416
 O485 O 0.87799 0.81580 0.21759
 O486 O 0.92513 0.86903 0.22540
 O487 O 0.90871 0.87440 0.01666
 O488 O 0.85250 0.84012 0.01019
 O489 O 0.86593 0.97976 0.07455
 O490 O 0.82503 0.98700 0.13594
 O491 O 0.96452 0.93107 0.11226
 O492 O 0.97846 0.86881 0.15522
 O493 O 0.96009 0.87301 0.05744
 O494 O 0.98088 0.83784 0.10611
 O495 O 0.91894 0.97736 0.12104
 O496 O 0.87262 0.98712 0.17032
 O497 O 0.86644 0.93602 0.02552
 O498 O 0.80978 0.89178 0.02057
 O499 O 0.82771 0.87336 0.22976
 O500 O 0.88347 0.91034 0.23731
 O501 O 0.86822 0.77317 0.16856
 O502 O 0.90248 0.76466 0.10994
 O503 O 0.76371 0.83061 0.13330
 O504 O 0.75303 0.88463 0.09223
 Zr505 Zr 0.79839 0.87963 0.13318
 O506 O 0.82814 0.91523 0.09377
 Zr507 Zr 0.86120 0.80858 0.12000
 O508 O 0.89520 0.84240 0.08282
 Zr509 Zr 0.87457 0.87103 0.19133
 O510 O 0.90630 0.90920 0.15610
 Zr511 Zr 0.86042 0.88245 0.05372
 O512 O 0.82545 0.84649 0.08925
 Zr513 Zr 0.86899 0.94593 0.12516
 O514 O 0.83803 0.91215 0.16516
 Zr515 Zr 0.93486 0.87714 0.11322
 O516 O 0.90512 0.83812 0.15040
 O517 O 0.83265 0.83980 0.16232
 O518 O 0.90070 0.91598 0.08305
 C519 C 0.79142 0.87702 0.22400
 C520 C 0.77201 0.79497 0.12937
 C521 C 0.87492 0.78120 0.20409
 C522 C 0.94498 0.86964 0.02360
 C523 C 0.86691 0.97084 0.03846
 C524 C 0.95351 0.96652 0.11639
 H525 H 0.80989 0.93250 0.08029
 H526 H 0.92444 0.92383 0.17254
 H527 H 0.81776 0.82307 0.18010
 H528 H 0.90833 0.82425 0.06509
 H529 H 0.83018 0.82424 0.01832
 H530 H 0.86463 0.77816 0.05132
 H531 H 0.89260 0.97820 0.18862
 H532 H 0.86762 0.93333 0.23139
 H533 H 0.81767 0.89864 -0.00620
 H534 H 0.72792 0.88123 0.10568
 H535 H 0.98219 0.89348 0.16916
 H536 H 0.94116 0.84773 0.21507
 H537 H 0.77295 0.94364 0.16305
 H538 H 0.80764 0.98759 0.11328
 H539 H 0.92538 0.77130 0.12562
 H540 H 0.96904 0.81281 0.09919
 O541 O 0.37761 0.31609 0.22655
 O542 O 0.42974 0.36070 0.23111
 O543 O 0.28536 0.37979 0.18182
 O544 O 0.27358 0.41866 0.13013
 O545 O 0.31420 0.27245 0.12532
 O546 O 0.36920 0.25300 0.08440
 O547 O 0.38802 0.46144 0.06593
 O548 O 0.34822 0.47855 0.11698
 O549 O 0.48502 0.40858 0.12023
 O550 O 0.48939 0.34883 0.16563
 O551 O 0.43225 0.36102 0.02289
 O552 O 0.37386 0.31611 0.01517
 O553 O 0.38210 0.41283 0.02185
 O554 O 0.33632 0.36088 0.01243
 O555 O 0.47984 0.35988 0.06787
 O556 O 0.48978 0.31341 0.11453
 O557 O 0.44319 0.45862 0.11389
 O558 O 0.39630 0.47238 0.16620
 O559 O 0.36885 0.26794 0.18242
 O560 O 0.40786 0.24734 0.12920
 O561 O 0.27415 0.32422 0.12893
 O562 O 0.27009 0.37584 0.08331
 O563 O 0.33336 0.37514 0.22635
 O564 O 0.39062 0.41458 0.22940
 Zr565 Zr 0.38249 0.36608 0.19263
 O566 O 0.42045 0.39720 0.15695
 Zr567 Zr 0.31203 0.37132 0.12756
 O568 O 0.34760 0.40123 0.08866
 Zr569 Zr 0.37109 0.29595 0.12789
 O570 O 0.41064 0.32346 0.08982
 Zr571 Zr 0.38876 0.43297 0.11964
 O572 O 0.35082 0.40574 0.15893
 Zr573 Zr 0.44951 0.35876 0.12043
 O574 O 0.41393 0.32653 0.15869
 Zr575 Zr 0.38014 0.36229 0.05492
 O576 O 0.34023 0.33207 0.09028
 O577 O 0.34104 0.33351 0.16352
 O578 O 0.42016 0.39617 0.08396
 C579 C 0.37227 0.28058 0.21743
 C580 C 0.29817 0.38001 0.21685
 C581 C 0.28019 0.28789 0.12617
 C582 C 0.38470 0.44852 0.03108
 C583 C 0.47738 0.44475 0.11651
 C584 C 0.46799 0.36168 0.03277
 H585 H 0.43825 0.41226 0.17344
 H586 H 0.42478 0.30414 0.07420
 H587 H 0.32287 0.31989 0.18091
 H588 H 0.33119 0.41808 0.07255
 H589 H 0.33119 0.47574 0.13988
 H590 H 0.28388 0.43903 0.11296
 H591 H 0.47507 0.28918 0.11728
 H592 H 0.42898 0.25363 0.14739
 H593 H 0.40358 0.49778 0.15520
 H594 H 0.38554 0.40682 0.25663
 H595 H 0.39725 0.29985 0.01652
 H596 H 0.35237 0.26315 0.06367
 H597 H 0.44444 0.33745 0.22337
 H598 H 0.49070 0.37266 0.18139
 H599 H 0.27565 0.35512 0.06434
 H600 H 0.31776 0.38161 0.01883
 O601 O 0.37187 0.66794 0.77711
 O602 O 0.41916 0.61766 0.77234
 O603 O 0.27310 0.61050 0.82677
 O604 O 0.26037 0.57409 0.87778
 O605 O 0.31336 0.71628 0.87710
 O606 O 0.36953 0.73196 0.91838
 O607 O 0.37551 0.52406 0.94084
 O608 O 0.32837 0.50996 0.88974
 O609 O 0.47073 0.56454 0.88716
 O610 O 0.48233 0.62106 0.83903
 O611 O 0.42183 0.62624 0.98220
 O612 O 0.36610 0.66941 0.98931
 O613 O 0.37334 0.57337 0.98432
 O614 O 0.32625 0.62704 0.99141
 O615 O 0.46991 0.62196 0.93762
 O616 O 0.48556 0.65975 0.88314
 O617 O 0.42411 0.51855 0.88850
 O618 O 0.37822 0.50600 0.84464
 O619 O 0.36867 0.71680 0.82109
 O620 O 0.40955 0.73290 0.87331
 O621 O 0.26947 0.66755 0.87601
 O622 O 0.26224 0.61862 0.92468
 O623 O 0.31997 0.61217 0.78057
 O624 O 0.37591 0.56954 0.77307
 Zr625 Zr 0.37206 0.61719 0.81156
 O626 O 0.40750 0.58311 0.84766
 Zr627 Zr 0.30287 0.61790 0.87873
 O628 O 0.33560 0.58542 0.91779
 Zr629 Zr 0.36805 0.68836 0.87550
 O630 O 0.40483 0.65798 0.91370
 Zr631 Zr 0.37364 0.55069 0.88621
 O632 O 0.33812 0.58034 0.84659
 Zr633 Zr 0.44067 0.61857 0.88386
 O634 O 0.40768 0.65335 0.84506
 Zr635 Zr 0.37103 0.62288 0.94980
 O636 O 0.33427 0.65596 0.91424
 O637 O 0.33421 0.65307 0.84123
 O638 O 0.40840 0.58492 0.92142
 C639 C 0.37054 0.70409 0.78597
 C640 C 0.28456 0.60974 0.79152
 C641 C 0.27845 0.70320 0.87696
 C642 C 0.37553 0.53756 0.97560
 C643 C 0.45937 0.52891 0.88858
 C644 C 0.45747 0.62482 0.97275
 H645 H 0.42360 0.56605 0.83129
 H646 H 0.42026 0.67667 0.92875
 H647 H 0.31740 0.66802 0.82365
 H648 H 0.31861 0.56977 0.93457
 H649 H 0.31140 0.51455 0.86717
 H650 H 0.26779 0.55418 0.89685
 H651 H 0.47422 0.68445 0.89185
 H652 H 0.43123 0.72286 0.85755
 H653 H 0.36475 0.51530 0.82121
 H654 H 0.36871 0.57825 0.74666
 H655 H 0.38661 0.68825 0.98311
 H656 H 0.34988 0.72501 0.93801
 H657 H 0.43710 0.63805 0.78111
 H658 H 0.48008 0.59709 0.82362
 H659 H 0.26955 0.63997 0.94225
 H660 H 0.30919 0.60441 0.98821
 O661 O 0.14318 0.66522 0.72188
 O662 O 0.09998 0.61216 0.72620
 O663 O 0.24309 0.61714 0.66386
 O664 O 0.25530 0.58511 0.60987
 O665 O 0.19340 0.72323 0.62437
 O666 O 0.13602 0.73764 0.58499
 O667 O 0.13841 0.53095 0.55023
 O668 O 0.18960 0.51687 0.59686
 O669 O 0.04525 0.56366 0.61259
 O670 O 0.03283 0.61746 0.66271
 O671 O 0.08528 0.63117 0.51713
 O672 O 0.13729 0.67869 0.50955
 O673 O 0.13771 0.58249 0.50956
 O674 O 0.18045 0.64004 0.50383
 O675 O 0.04009 0.62212 0.56395
 O676 O 0.02523 0.65722 0.62070
 O677 O 0.09377 0.52006 0.60611
 O678 O 0.14374 0.50782 0.64516
 O679 O 0.14035 0.71671 0.68115
 O680 O 0.09661 0.73318 0.63090
 O681 O 0.24014 0.67753 0.61856
 O682 O 0.24772 0.63172 0.56607
 O683 O 0.19835 0.61269 0.71195
 O684 O 0.14517 0.56681 0.71969
 Zr685 Zr 0.14450 0.61686 0.68430
 O686 O 0.10913 0.58314 0.64810
 Zr687 Zr 0.20998 0.62582 0.61407
 O688 O 0.17708 0.59340 0.57488
 Zr689 Zr 0.14091 0.69175 0.62498
 O690 O 0.10421 0.66150 0.58656
 Zr691 Zr 0.14266 0.55478 0.60607
 O692 O 0.17867 0.58429 0.64539
 Zr693 Zr 0.07232 0.61877 0.61590
 O694 O 0.10517 0.65288 0.65521
 Zr695 Zr 0.13794 0.63024 0.54684
 O696 O 0.17443 0.66366 0.58259
 O697 O 0.17852 0.65666 0.65528
 O698 O 0.10422 0.58883 0.57482
 C699 C 0.14110 0.70176 0.71537
 C700 C 0.23331 0.61305 0.69941
 C701 C 0.22896 0.71247 0.62184
 C702 C 0.13683 0.54620 0.51630
 C703 C 0.05817 0.52878 0.60932
 C704 C 0.05033 0.62696 0.52835
 H705 H 0.09494 0.56452 0.66447
 H706 H 0.08698 0.67994 0.57332
 H707 H 0.19517 0.67142 0.67322
 H708 H 0.19403 0.57968 0.55637
 H709 H 0.20806 0.52144 0.61821
 H710 H 0.24783 0.56554 0.59042
 H711 H 0.03429 0.68267 0.61160
 H712 H 0.07641 0.72110 0.64716
 H713 H 0.15866 0.51655 0.66792
 H714 H 0.15377 0.57413 0.74612
 H715 H 0.11650 0.69615 0.51839
 H716 H 0.15473 0.73231 0.56395
 H717 H 0.08018 0.63162 0.71963
 H718 H 0.03770 0.59352 0.67750
 H719 H 0.23874 0.65418 0.55088
 H720 H 0.19907 0.61846 0.50479
 O721 O 0.13046 0.16977 0.22137
 O722 O 0.08373 0.11907 0.23175
 O723 O 0.22618 0.11048 0.16986
 O724 O 0.23678 0.07188 0.11709
 O725 O 0.18201 0.21372 0.11951
 O726 O 0.12564 0.22350 0.07518
 O727 O 0.12085 0.01334 0.07129
 O728 O 0.17317 0.00738 0.11737
 O729 O 0.03002 0.05639 0.12388
 O730 O 0.02062 0.11382 0.17555
 O731 O 0.06207 0.11483 0.02676
 O732 O 0.11838 0.15402 0.00837
 O733 O 0.10702 0.05809 0.02536
 O734 O 0.15793 0.11019 0.00634
 O735 O 0.02019 0.11276 0.07737
 O736 O 0.00977 0.15087 0.13028
 O737 O 0.07789 0.01163 0.12623
 O738 O 0.12724 0.00525 0.16767
 O739 O 0.12593 0.21555 0.17437
 O740 O 0.08587 0.22829 0.12038
 O741 O 0.22645 0.16568 0.11583
 O742 O 0.23245 0.11678 0.07080
 O743 O 0.18209 0.11407 0.21869
 O744 O 0.12945 0.07339 0.23356
 Zr745 Zr 0.12933 0.11733 0.19069
 O746 O 0.09322 0.07935 0.16068
 Zr747 Zr 0.19379 0.11529 0.11832
 O748 O 0.15871 0.07931 0.08393
 Zr749 Zr 0.12765 0.18398 0.12174
 O750 O 0.08792 0.14985 0.08972
 Zr751 Zr 0.12605 0.04588 0.12197
 O752 O 0.16275 0.07952 0.15610
 Zr753 Zr 0.05646 0.11198 0.12581
 O754 O 0.09114 0.15094 0.15796
 Zr755 Zr 0.11784 0.11199 0.05271
 O756 O 0.15762 0.14863 0.08236
 O757 O 0.16435 0.15189 0.15605
 O758 O 0.08610 0.07604 0.08837
 C759 C 0.12743 0.20495 0.21015
 C760 C 0.21649 0.11048 0.20591
 C761 C 0.21725 0.20132 0.11725
 C762 C 0.10920 0.02301 0.03753
 C763 C 0.04264 0.02119 0.12457
 C764 C 0.02753 0.11402 0.04104
 H765 H 0.07901 0.06299 0.17934
 H766 H 0.07055 0.16724 0.07526
 H767 H 0.18170 0.16800 0.17203
 H768 H 0.17439 0.06294 0.06653
 H769 H 0.19150 0.01424 0.13822
 H770 H 0.22935 0.05227 0.09765
 H771 H 0.01855 0.17534 0.11850
 H772 H 0.06427 0.21939 0.13688
 H773 H 0.14301 0.01679 0.18851
 H774 H 0.13604 0.08492 0.25908
 H775 H 0.10249 0.17587 0.01763
 H776 H 0.14565 0.21530 0.05639
 H777 H 0.06674 0.14098 0.22495
 H778 H 0.01836 0.08729 0.18584
 H779 H 0.21800 0.12778 0.04875
 H780 H 0.16976 0.08422 0.00584
 O781 O 0.72703 0.38208 0.81212
 O782 O 0.74326 0.42746 0.86243
 O783 O 0.69417 0.28243 0.87616
 O784 O 0.64920 0.27096 0.92528
 O785 O 0.62559 0.32207 0.78252
 O786 O 0.57718 0.37521 0.77737
 O787 O 0.59406 0.38110 0.98541
 O788 O 0.64434 0.33858 0.99016
 O789 O 0.64746 0.47993 0.93047
 O790 O 0.67994 0.48846 0.86413
 O791 O 0.53861 0.43685 0.89050
 O792 O 0.52420 0.37593 0.84651
 O793 O 0.54337 0.38028 0.94374
 O794 O 0.52164 0.34378 0.89498
 O795 O 0.58563 0.48217 0.88670
 O796 O 0.62859 0.49479 0.83863
 O797 O 0.64604 0.43517 0.97852
 O798 O 0.69469 0.38510 0.98057
 O799 O 0.67479 0.37987 0.77235
 O800 O 0.61965 0.41642 0.76548
 O801 O 0.63248 0.27776 0.83052
 O802 O 0.59678 0.26848 0.88744
 O803 O 0.73787 0.33042 0.86702
 O804 O 0.74941 0.38310 0.91066
 Zr805 Zr 0.70447 0.38059 0.86895
 O806 O 0.67560 0.41599 0.90878
 Zr807 Zr 0.63977 0.31125 0.88021
 O808 O 0.60635 0.34544 0.91808
 Zr809 Zr 0.62825 0.37632 0.81071
 O810 O 0.59754 0.41482 0.84664
 Zr811 Zr 0.64272 0.38305 0.94817
 O812 O 0.67672 0.34697 0.91194
 Zr813 Zr 0.63540 0.44949 0.87904
 O814 O 0.66572 0.41566 0.83821
 Zr815 Zr 0.56817 0.38255 0.88843
 O816 O 0.59689 0.34328 0.85063
 O817 O 0.66922 0.34279 0.83874
 O818 O 0.60337 0.41934 0.92040
 C819 C 0.71104 0.38237 0.77838
 C820 C 0.72906 0.29486 0.87106
 C821 C 0.62762 0.28710 0.79509
 C822 C 0.55771 0.37897 0.97795
 C823 C 0.65136 0.46942 0.96590
 C824 C 0.55032 0.47233 0.88935
 H825 H 0.69552 0.43150 0.92206
 H826 H 0.57983 0.43051 0.83073
 H827 H 0.68415 0.32638 0.82062
 H828 H 0.59226 0.32809 0.93585
 H829 H 0.66594 0.32134 0.98288
 H830 H 0.63195 0.27773 0.94712
 H831 H 0.61372 0.48436 0.81659
 H832 H 0.63465 0.43966 0.77254
 H833 H 0.68810 0.38942 1.00823
 H834 H 0.77457 0.37824 0.89774
 H835 H 0.52203 0.40046 0.83206
 H836 H 0.56181 0.35293 0.78649
 H837 H 0.73326 0.44429 0.84160
 H838 H 0.69974 0.48718 0.88469
 H839 H 0.57412 0.27704 0.87237
 H840 H 0.53294 0.31887 0.90307
 O841 O 0.13739 0.82561 0.77194
 O842 O 0.09041 0.87478 0.76231
 O843 O 0.22464 0.88424 0.84123
 O844 O 0.22425 0.91991 0.89598
 O845 O 0.18428 0.77486 0.87480
 O846 O 0.12610 0.75275 0.90861
 O847 O 0.10116 0.96059 0.93960
 O848 O 0.15190 0.97896 0.89607
 O849 O 0.01664 0.91033 0.88114
 O850 O 0.01800 0.86864 0.81596
 O851 O 0.04866 0.85237 0.96614
 O852 O 0.10566 0.81232 0.98357
 O853 O 0.09141 0.90839 0.97832
 O854 O 0.14268 0.85699 0.99385
 O855 O 0.01267 0.84785 0.91144
 O856 O 0.01280 0.81874 0.84852
 O857 O 0.05691 0.96184 0.88448
 O858 O 0.10763 0.98091 0.84469
 O859 O 0.13536 0.77413 0.81278
 O860 O 0.09129 0.75135 0.85998
 O861 O 0.22374 0.82560 0.88778
 O862 O 0.21860 0.87173 0.93914
 O863 O 0.18634 0.88319 0.78779
 O864 O 0.13094 0.92350 0.77276
 Zr865 Zr 0.13018 0.87393 0.80882
 O866 O 0.08643 0.90318 0.83966
 Zr867 Zr 0.18645 0.87281 0.88707
 O868 O 0.14460 0.90063 0.92142
 Zr869 Zr 0.12841 0.79888 0.86866
 O870 O 0.08324 0.82382 0.90134
 Zr871 Zr 0.11084 0.93519 0.88510
 O872 O 0.15499 0.91032 0.85118
 Zr873 Zr 0.05125 0.86227 0.86698
 O874 O 0.09272 0.83273 0.83306
 Zr875 Zr 0.10610 0.85963 0.94490
 O876 O 0.15151 0.83123 0.91470
 O877 O 0.16470 0.83840 0.84256
 O878 O 0.07341 0.89595 0.91113
 C879 C 0.13755 0.78904 0.77859
 C880 C 0.21925 0.88653 0.80454
 C881 C 0.21763 0.78970 0.88218
 C882 C 0.09141 0.94489 0.97182
 C883 C 0.02364 0.94625 0.88709
 C884 C 0.01630 0.84744 0.94839
 H885 H 0.07156 0.92012 0.82215
 H886 H 0.06697 0.80296 0.91201
 H887 H 0.18482 0.82547 0.82685
 H888 H 0.15719 0.91617 0.94180
 H889 H 0.17235 0.97633 0.87617
 H890 H 0.21176 0.93789 0.91439
 H891 H 0.01969 0.79508 0.86293
 H892 H 0.07131 0.76004 0.84153
 H893 H 0.12658 0.97492 0.82410
 H894 H 0.14291 0.91659 0.74751
 H895 H 0.09014 0.79166 0.97147
 H896 H 0.14009 0.76141 0.93202
 H897 H 0.07136 0.85413 0.76730
 H898 H 0.01118 0.89622 0.81317
 H899 H 0.20799 0.85053 0.95511
 H900 H 0.15552 0.88231 0.99656
 O901 O 0.71914 0.12594 0.67585
 O902 O 0.72270 0.07878 0.62319
 O903 O 0.68938 0.22890 0.61903
 O904 O 0.64188 0.24464 0.57265
 O905 O 0.62570 0.19639 0.71778
 O906 O 0.57648 0.14525 0.73054
 O907 O 0.56278 0.13704 0.52332
 O908 O 0.61532 0.18002 0.51021
 O909 O 0.61127 0.03779 0.56824
 O910 O 0.65417 0.02458 0.62709
 O911 O 0.51728 0.09449 0.62630
 O912 O 0.51634 0.15623 0.66990
 O913 O 0.51961 0.14524 0.57233
 O914 O 0.51118 0.18852 0.62113
 O915 O 0.55862 0.04373 0.62394
 O916 O 0.60908 0.02463 0.66304
 O917 O 0.61177 0.08370 0.52132
 O918 O 0.66361 0.12916 0.51198
 O919 O 0.67256 0.13431 0.72174
 O920 O 0.61726 0.10287 0.73680
 O921 O 0.63248 0.24022 0.66928
 O922 O 0.59394 0.25403 0.61666
 O923 O 0.72849 0.17629 0.62079
 O924 O 0.72839 0.12414 0.57484
 Zr925 Zr 0.68956 0.13018 0.62218
 O926 O 0.65187 0.09870 0.58628
 Zr927 Zr 0.63197 0.20632 0.61935
 O928 O 0.58994 0.17670 0.58646
 Zr929 Zr 0.62233 0.14193 0.69010
 O930 O 0.58366 0.10744 0.65894
 Zr931 Zr 0.61733 0.13533 0.55196
 O932 O 0.66000 0.16687 0.58302
 Zr933 Zr 0.61286 0.06913 0.62134
 O934 O 0.65153 0.09907 0.65780
 Zr935 Zr 0.55287 0.14403 0.62222
 O936 O 0.59027 0.17922 0.65516
 O937 O 0.66257 0.17125 0.65682
 O938 O 0.57895 0.10361 0.58575
 C939 C 0.70728 0.12797 0.71138
 C940 C 0.72312 0.21276 0.61987
 C941 C 0.62886 0.23119 0.70497
 C942 C 0.52801 0.14104 0.53660
 C943 C 0.61149 0.04857 0.53243
 C944 C 0.52480 0.05814 0.62687
 H945 H 0.66752 0.08116 0.56999
 H946 H 0.56688 0.09374 0.67758
 H947 H 0.68064 0.18597 0.67334
 H948 H 0.57524 0.19510 0.57035
 H949 H 0.63977 0.19455 0.51256
 H950 H 0.62058 0.24136 0.55393
 H951 H 0.59728 0.03597 0.68654
 H952 H 0.62772 0.07799 0.72740
 H953 H 0.65269 0.12648 0.48557
 H954 H 0.75526 0.12513 0.58462
 H955 H 0.51380 0.13238 0.68541
 H956 H 0.56209 0.16927 0.72502
 H957 H 0.71376 0.06324 0.64552
 H958 H 0.67064 0.02481 0.60364
 H959 H 0.57120 0.24725 0.63263
 H960 H 0.52278 0.21052 0.60712
 N961 N 0.36776 0.76791 0.76052
 N962 N 0.37046 0.73162 0.75455
 N963 N 0.36122 0.21852 0.24402
 N964 N 0.36884 0.25408 0.24884
 N965 N 0.61237 0.77153 0.24944
 N966 N 0.61071 0.73539 0.25551
 N967 N 0.12248 0.26960 0.23315
 N968 N 0.12600 0.23368 0.23999
 N969 N 0.13980 0.72702 0.74859
 N970 N 0.13999 0.76372 0.74549
 N971 N 0.88326 0.23660 0.74497
 N972 N 0.88267 0.27250 0.75241
 N973 N 0.77095 0.39020 0.74965
 N974 N 0.73520 0.38458 0.74519
 N975 N 0.25541 0.60848 0.76283
 N976 N 0.26346 0.61091 0.72705
 N977 N 0.23778 0.10573 0.26986
 N978 N 0.24600 0.10743 0.23392
 N979 N 0.76979 0.12022 0.73596
 N980 N 0.73410 0.12442 0.74212
 N981 N 0.73122 0.88207 0.25385
 N982 N 0.76727 0.87756 0.25756
 N983 N 0.76522 0.76072 0.37695
 N984 N 0.72928 0.75415 0.37388
 N985 N 0.75501 0.27239 0.62713
 N986 N 0.75721 0.23627 0.62145
 N987 N 0.74610 0.73299 0.13681
 N988 N 0.74055 0.76879 0.13212
 N989 N 0.24655 0.26360 0.12451
 N990 N 0.24930 0.22761 0.11801
 N991 N 0.24677 0.72925 0.87712
 N992 N 0.25055 0.76512 0.88291
 N993 N 0.23752 0.22919 0.37041
 N994 N 0.24214 0.26431 0.36107
 N995 N 0.52066 0.62500 0.99944
 N996 N 0.48432 0.62598 1.00409
 N997 N 0.49810 0.13338 0.47510
 N998 N 0.49552 0.13965 0.51121
 N999 N 0.50086 0.87981 0.49636
 N1000 N 0.50677 0.87741 0.53263
 N1001 N 0.99702 0.37623 0.47350
 N1002 N 1.00303 0.37507 0.50976
 N1003 N -0.03370 0.85478 0.99576
 N1004 N -0.01742 0.83629 0.96976
 N1005 N -0.00101 0.11658 -0.02114
 N1006 N -0.00521 0.11442 0.01540
 N1007 N 0.09379 0.99560 1.01681
 N1008 N 0.07615 0.96878 1.00163
 N1009 N 0.12728 0.48554 0.48861
 N1010 N 0.13317 0.52133 0.48377
 N1011 N 0.38239 0.47539 1.00024
 N1012 N 0.37853 0.51116 1.00683
 N1013 N 0.87007 0.52179 0.50379
 N1014 N 0.87696 0.48650 0.49729
 N1015 N 0.87261 0.99520 -0.02490
 N1016 N 0.86937 1.00178 0.01123
 N1017 N 0.61851 -0.01533 0.50814
 N1018 N 0.61284 0.02038 0.50222
 N1019 N 0.47879 0.99972 0.38343
 N1020 N 0.51450 1.00664 0.38540
 N1021 N -0.01909 -0.00333 0.11701
 N1022 N 0.01616 -0.00981 0.12290
 N1023 N 0.50257 0.50764 0.11460
 N1024 N 0.50887 0.47146 0.11651
 N1025 N -0.00427 0.50269 0.61261
 N1026 N 0.03177 0.49714 0.61027
 N1027 N 0.48691 0.49800 0.88959
 N1028 N 0.52306 0.50352 0.89007
 N1029 N 0.65066 0.51444 1.01593
 N1030 N 0.66865 0.49609 0.99149
 N1031 N 0.39764 1.01952 0.50212
 N1032 N 0.41522 1.00125 0.52708
 N1033 N -0.01436 0.62542 0.50582
 N1034 N 0.02156 0.62748 0.49868
 N1035 N 0.49593 0.36640 1.00262
 N1036 N 0.53131 0.37370 1.00948
 N1037 N 0.50062 -0.00381 0.63758
 N1038 N 0.49371 0.03180 0.63170
 N1039 N -0.02315 0.50322 0.37977
 N1040 N 0.01301 0.50672 0.37573
 N1041 N -0.01974 0.99717 0.88728
 N1042 N -0.00649 0.96851 0.90312
 N1043 N 0.76119 0.62961 0.25876
 N1044 N 0.72546 0.62357 0.26442
 N1045 N 0.24853 0.89210 0.74402
 N1046 N 0.25238 0.89043 0.78055
 N1047 N 0.23575 0.38677 0.24035
 N1048 N 0.27132 0.38353 0.24764
 N1049 N 0.88301 0.75465 0.26614
 N1050 N 0.87727 0.74931 0.23023
 N1051 N 0.62631 0.25616 0.76804
 N1052 N 0.62903 0.26225 0.73193
 N1053 N 0.75558 0.23187 0.86712
 N1054 N 0.76061 0.26812 0.86870
 N1055 N 0.25214 0.77630 0.62628
 N1056 N 0.25880 0.74043 0.62414
   
