data_POSCAR
  _audit_creation_date              2014-09-24
  _audit_creation_method            'ToBaCCo'
  _symmetry_space_group_name_H-M    'P1'
  _symmetry_Int_Tables_number       1
  _symmetry_cell_setting            triclinic
  loop_
  _symmetry_equiv_pos_as_xyz
 x,y,z
_cell_length_a 24.2778
_cell_length_b 24.2340
_cell_length_c 35.6109
_cell_angle_alpha 90.147700
_cell_angle_beta 89.951200
_cell_angle_gamma 89.930500
loop_
  _atom_site_label
  _atom_site_type_symbol
  _atom_site_fract_x
  _atom_site_fract_y
  _atom_site_fract_z
C1 C 0.00003 0.50118 0.98191
 C2 C 0.00023 0.50122 1.02016
 C3 C -0.00011 0.55326 1.04225
 C4 C 0.00077 0.44920 1.04210
 C5 C -0.00041 0.44915 0.95981
 C6 C 0.00025 0.55316 0.95994
 C7 C 0.04201 0.56308 1.06824
 C8 C 0.04276 0.61164 1.08936
 C9 C 0.00089 0.65176 1.08529
 C10 C -0.04179 0.64109 1.05927
 C11 C -0.04232 0.59232 1.03817
 C12 C 0.04292 0.41003 1.03762
 C13 C 0.04243 0.36125 1.05855
 C14 C -0.00000 0.35102 1.08457
 C15 C -0.04169 0.39082 1.08925
 C16 C -0.04114 0.43944 1.06834
 C17 C -0.04256 0.41006 0.96411
 C18 C -0.04210 0.36138 0.94291
 C19 C 0.00029 0.35118 0.91679
 C20 C 0.04200 0.39086 0.91233
 C21 C 0.04149 0.43938 0.93352
 C22 C -0.04185 0.56284 0.93386
 C23 C -0.04251 0.61125 0.91274
 C24 C -0.00074 0.65093 0.91704
 C25 C 0.04183 0.64085 0.94296
 C26 C 0.04243 0.59228 0.96411
 H27 H 0.07478 0.53320 1.07191
 H28 H 0.07645 0.61736 1.10891
 H29 H -0.07511 0.67020 1.05508
 H30 H -0.07576 0.58498 1.01869
 H31 H 0.07619 0.41729 1.01797
 H32 H 0.07533 0.33167 1.05437
 H33 H -0.07384 0.46935 1.07234
 H34 H -0.07581 0.41733 0.98381
 H35 H -0.07502 0.33188 0.94691
 H36 H 0.07517 0.38457 0.89243
 H37 H 0.07418 0.46923 0.92965
 H38 H -0.07457 0.53298 0.93011
 H39 H -0.07581 0.61745 0.89300
 H40 H 0.07479 0.67036 0.94685
 H41 H 0.07584 0.58508 0.98363
 H42 H -0.07488 0.38452 1.10909
 C43 C 0.49999 -0.00062 0.48055
 C44 C 0.49992 -0.00056 0.51880
 C45 C 0.44795 -0.00009 0.54081
 C46 C 0.55180 -0.00091 0.54085
 C47 C 0.55196 -0.00024 0.45854
 C48 C 0.44811 -0.00105 0.45850
 C49 C 0.40887 0.04216 0.53655
 C50 C 0.36021 0.04170 0.55763
 C51 C 0.35003 -0.00081 0.58359
 C52 C 0.38971 -0.04263 0.58801
 C53 C 0.43820 -0.04211 0.56694
 C54 C 0.56142 0.04120 0.56706
 C55 C 0.60983 0.04184 0.58815
 C56 C 0.64956 0.00003 0.58368
 C57 C 0.63949 -0.04259 0.55765
 C58 C 0.59092 -0.04316 0.53653
 C59 C 0.56180 -0.04234 0.43231
 C60 C 0.61029 -0.04293 0.41124
 C61 C 0.64987 -0.00111 0.41575
 C62 C 0.63960 0.04148 0.44179
 C63 C 0.59095 0.04202 0.46288
 C64 C 0.40909 -0.04329 0.46274
 C65 C 0.36050 -0.04277 0.44164
 C66 C 0.35033 -0.00024 0.41569
 C67 C 0.38996 0.04155 0.41129
 C68 C 0.43838 0.04098 0.43237
 H69 H 0.41612 0.07551 0.51698
 H70 H 0.33072 0.07470 0.55365
 H71 H 0.38342 -0.07589 0.60779
 H72 H 0.46803 -0.07489 0.57077
 H73 H 0.53155 0.07398 0.57093
 H74 H 0.61602 0.07518 0.60799
 H75 H 0.58376 -0.07659 0.51690
 H76 H 0.53204 -0.07512 0.42842
 H77 H 0.61664 -0.07625 0.39139
 H78 H 0.66902 0.07450 0.44583
 H79 H 0.58362 0.07543 0.48252
 H80 H 0.41633 -0.07665 0.48231
 H81 H 0.33104 -0.07575 0.44560
 H82 H 0.38368 0.07482 0.39152
 H83 H 0.46817 0.07374 0.42856
 H84 H 0.66903 -0.07558 0.55363
 C85 C 0.09977 0.04416 0.27837
 H86 H 0.09303 0.07720 0.25864
 C87 C 0.14647 0.04515 0.30120
 H88 H 0.17533 0.07891 0.29834
 C89 C 0.06992 -0.03906 0.30653
 H90 H 0.03964 -0.07166 0.30843
 C91 C 0.11609 -0.03974 0.32992
 H92 H 0.12103 -0.07321 0.34971
 N93 N 0.06315 0.00192 0.28091
 C94 C -0.03790 -0.07060 0.19218
 H95 H -0.07048 -0.04024 0.19024
 C96 C -0.03853 -0.11700 0.16882
 H97 H -0.07194 -0.12203 0.14900
 C98 C 0.04519 -0.10047 0.22046
 H99 H 0.07815 -0.09365 0.24024
 C100 C 0.04622 -0.14739 0.19766
 H101 H 0.07993 -0.17635 0.20059
 Zn102 Zn 0.00028 -0.00067 0.24943
 N103 N 0.00298 -0.06374 0.21786
 C104 C 0.03861 0.06924 0.19243
 N105 N -0.00235 0.06238 0.21808
 C106 C -0.04456 0.09911 0.22080
 C107 C -0.04554 0.14602 0.19815
 C108 C 0.03930 0.11564 0.16922
 C109 C -0.09928 -0.04551 0.27823
 C110 C -0.14602 -0.04650 0.30106
 C111 C -0.11572 0.03840 0.33006
 C112 C -0.06949 0.03772 0.30667
 N113 N -0.06266 -0.00326 0.28091
 H114 H 0.07120 0.03889 0.19039
 H115 H -0.07758 0.09229 0.24055
 H116 H -0.07927 0.17497 0.20117
 H117 H 0.07276 0.12067 0.14942
 H118 H -0.09248 -0.07856 0.25838
 H119 H -0.17487 -0.08026 0.29809
 H120 H -0.12071 0.07188 0.34997
 H121 H -0.03923 0.07033 0.30867
 C122 C 0.00369 -0.15648 0.17164
 C123 C 0.15543 0.00254 0.32718
 C124 C -0.15504 -0.00389 0.32719
 C125 C -0.00294 0.15511 0.17217
 C126 C -0.03879 0.07030 0.80707
 H127 H -0.07132 0.03996 0.80902
 C128 C -0.03946 0.11661 0.83052
 H129 H -0.07286 0.12160 0.85040
 C130 C 0.04428 0.10015 0.77875
 H131 H 0.07727 0.09333 0.75894
 C132 C 0.04528 0.14697 0.80164
 H133 H 0.07897 0.17587 0.79874
 N134 N 0.00213 0.06345 0.78136
 C135 C 0.09927 -0.04468 0.72101
 H136 H 0.09256 -0.07764 0.74081
 C137 C 0.14601 -0.04577 0.69818
 H138 H 0.17494 -0.07952 0.70109
 C139 C 0.06929 0.03844 0.69272
 H140 H 0.03895 0.07105 0.69078
 C141 C 0.11552 0.03902 0.66933
 H142 H 0.12042 0.07242 0.64947
 Zn143 Zn -0.00036 0.00029 0.74991
 N144 N 0.06256 -0.00244 0.71841
 C145 C -0.07000 -0.03844 0.69283
 N146 N -0.06328 0.00269 0.71847
 C147 C -0.09999 0.04496 0.72107
 C148 C -0.14670 0.04585 0.69826
 C149 C -0.11619 -0.03923 0.66946
 C150 C 0.03807 -0.06914 0.80711
 C151 C 0.03876 -0.11522 0.83060
 C152 C -0.04598 -0.14588 0.80187
 C153 C -0.04500 -0.09928 0.77893
 N154 N -0.00285 -0.06255 0.78144
 H155 H -0.03966 -0.07107 0.69090
 H156 H -0.09328 0.07812 0.74083
 H157 H -0.17562 0.07964 0.70116
 H158 H -0.12108 -0.07281 0.64964
 H159 H 0.07060 -0.03878 0.80898
 H160 H 0.07217 -0.12000 0.85045
 H161 H -0.07967 -0.17482 0.79905
 H162 H -0.07799 -0.09267 0.75915
 C163 C 0.15494 -0.00326 0.67212
 C164 C 0.00276 0.15600 0.82774
 C165 C -0.00345 -0.15464 0.82793
 C166 C -0.15560 0.00309 0.67224
 N167 N -0.03863 -0.26243 0.10243
 C168 C 0.00169 -0.30117 0.10594
 N169 N 0.04284 -0.29137 0.13099
 N170 N 0.04358 -0.24546 0.15156
 C171 C 0.00322 -0.20703 0.14809
 N172 N -0.03790 -0.21646 0.12304
 N173 N 0.03961 0.26107 0.10333
 C174 C -0.00085 0.29951 0.10697
 N175 N -0.04215 0.28990 0.13185
 N176 N -0.04291 0.24400 0.15230
 C177 C -0.00242 0.20564 0.14877
 N178 N 0.03886 0.21512 0.12382
 N179 N 0.28921 -0.04283 0.63111
 C180 C 0.29871 -0.00156 0.60621
 N181 N 0.26037 0.03901 0.60280
 N182 N 0.21462 0.03837 0.62350
 C183 C 0.20525 -0.00288 0.64848
 N184 N 0.24352 -0.04348 0.65179
 N185 N -0.28978 0.04235 0.63125
 C186 C -0.29920 0.00092 0.60633
 N187 N -0.26084 -0.03967 0.60290
 N188 N -0.21515 -0.03889 0.62361
 C189 C -0.20586 0.00253 0.64861
 N190 N -0.24415 0.04314 0.65193
 N191 N 0.03897 -0.25958 0.89755
 C192 C -0.00157 -0.29790 0.89428
 N193 N -0.04286 -0.28855 0.86938
 N194 N -0.04356 -0.24301 0.84857
 C195 C -0.00300 -0.20476 0.85172
 N196 N 0.03828 -0.21398 0.87670
 N197 N -0.03948 0.26153 0.89742
 C198 C 0.00102 0.29984 0.89401
 N199 N 0.04223 0.29031 0.86900
 N200 N 0.04287 0.24460 0.84820
 C201 C 0.00234 0.20635 0.85150
 N202 N -0.03884 0.21576 0.87659
 N203 N -0.26057 0.03864 0.39660
 C204 C -0.29881 -0.00194 0.39311
 N205 N -0.28922 -0.04330 0.36813
 N206 N -0.24353 -0.04402 0.34745
 C207 C -0.20535 -0.00342 0.35083
 N208 N -0.21481 0.03793 0.37589
 N209 N 0.26079 -0.03996 0.39645
 C210 C 0.29906 0.00059 0.39306
 N211 N 0.28955 0.04192 0.36821
 N212 N 0.24390 0.04264 0.34754
 C213 C 0.20569 0.00207 0.35081
 N214 N 0.21508 -0.03925 0.37574
   
