data_POSCAR
  _audit_creation_date              2014-09-24
  _audit_creation_method            'ToBaCCo'
  _symmetry_space_group_name_H-M    'P1'
  _symmetry_Int_Tables_number       1
  _symmetry_cell_setting            triclinic
  loop_
  _symmetry_equiv_pos_as_xyz
 x,y,z
_cell_length_a 18.3114
_cell_length_b 18.8071
_cell_length_c 54.8263
_cell_angle_alpha 89.081800
_cell_angle_beta 94.723900
_cell_angle_gamma 120.997200
loop_
  _atom_site_label
  _atom_site_type_symbol
  _atom_site_fract_x
  _atom_site_fract_y
  _atom_site_fract_z
C1 C 0.09991 0.17999 0.53779
 H2 H 0.16310 0.19081 0.53592
 C3 C 0.08883 0.22488 0.55549
 H4 H 0.14369 0.26767 0.56759
 C5 C -0.04798 0.10779 0.52499
 H6 H -0.10132 0.06072 0.51340
 C7 C -0.06208 0.15181 0.54255
 H8 H -0.12695 0.13612 0.54441
 N9 N 0.03198 0.12165 0.52325
 C10 C 0.01841 -0.10264 0.51656
 H11 H -0.01811 -0.12385 0.49902
 C12 C 0.00831 -0.16093 0.53417
 H13 H -0.03545 -0.22567 0.52944
 C14 C 0.12015 0.00729 0.54336
 H15 H 0.16263 0.07286 0.54716
 C16 C 0.11266 -0.04876 0.56139
 H17 H 0.14987 -0.02524 0.57887
 Zn18 Zn 0.05650 0.05834 0.50240
 N19 N 0.06934 -0.01994 0.52201
 C20 C 0.20450 0.10480 0.47785
 N21 N 0.15742 0.13245 0.48761
 C22 C 0.16559 0.20617 0.48125
 C23 C 0.21917 0.25320 0.46344
 C24 C 0.25914 0.15012 0.45984
 C25 C -0.11092 -0.06231 0.48064
 C26 C -0.16714 -0.11419 0.46119
 C27 C -0.06109 -0.03001 0.43350
 C28 C -0.00756 0.01951 0.45332
 N29 N -0.03140 0.00120 0.47649
 H30 H 0.19362 0.04403 0.48232
 H31 H 0.12401 0.22462 0.48817
 H32 H 0.21760 0.30733 0.45729
 H33 H 0.29000 0.12318 0.45082
 H34 H -0.12837 -0.07673 0.49924
 H35 H -0.22683 -0.16792 0.46548
 H36 H -0.03667 -0.01645 0.41562
 H37 H 0.05519 0.06997 0.45001
 C38 C 0.05160 -0.13378 0.55763
 C39 C 0.00711 0.21163 0.55819
 C40 C -0.14237 -0.09920 0.43699
 C41 C 0.26588 0.22490 0.45198
 C42 C 1.11253 0.01827 0.13020
 H43 H 1.09853 0.06725 0.13172
 C44 C 1.15631 0.01713 0.11093
 H45 H 1.17566 0.06565 0.09768
 C46 C 1.09887 -0.10672 0.14499
 H47 H 1.07385 -0.15584 0.15801
 C48 C 1.14331 -0.11024 0.12578
 H49 H 1.15182 -0.16266 0.12446
 N50 N 1.08426 -0.04310 0.14664
 C51 C 0.91998 0.03824 0.14519
 H52 H 0.95483 0.08990 0.15822
 C53 C 0.86678 0.04121 0.12576
 H54 H 0.86116 0.09550 0.12449
 C55 C 0.89075 -0.09232 0.13041
 H56 H 0.90270 -0.14295 0.13190
 C57 C 0.83748 -0.09206 0.11095
 H58 H 0.80804 -0.14334 0.09766
 Zn59 Zn 1.01441 -0.03348 0.16811
 N60 N 0.93135 -0.02768 0.14690
 C61 C 1.04655 0.07617 0.20741
 N62 N 1.08266 0.06203 0.18883
 C63 C 1.16892 0.10501 0.18780
 C64 C 1.22276 0.16078 0.20667
 C65 C 1.09822 0.13106 0.22683
 C66 C 0.87332 -0.17038 0.18794
 C67 C 0.83262 -0.21890 0.20755
 C68 C 0.97090 -0.17538 0.22850
 C69 C 1.00905 -0.12880 0.20825
 N70 N 0.96014 -0.12399 0.18903
 H71 H 0.97787 0.04038 0.20804
 H72 H 1.19702 0.09253 0.17315
 H73 H 1.29063 0.19205 0.20514
 H74 H 1.06843 0.13832 0.24210
 H75 H 0.83504 -0.16522 0.17278
 H76 H 0.76346 -0.25204 0.20679
 H77 H 1.01240 -0.17466 0.24374
 H78 H 1.07799 -0.09098 0.20873
 C79 C 0.82569 -0.02424 0.10799
 C80 C 1.17204 -0.04778 0.10822
 C81 C 0.88127 -0.21720 0.22900
 C82 C 1.18795 0.17113 0.22732
 C83 C 0.08900 0.98876 0.85138
 H84 H 0.08011 0.94997 0.83581
 C85 C 0.14732 0.99808 0.87092
 H86 H 0.18327 0.96727 0.86983
 C87 C 0.04797 1.06930 0.87270
 H88 H 0.00648 1.09415 0.87360
 C89 C 0.10434 1.07875 0.89293
 H90 H 0.10493 1.11196 0.90884
 N91 N 0.03907 1.02237 0.85283
 C92 C -0.20130 0.98480 0.84757
 H93 H -0.19588 1.02437 0.83251
 C94 C -0.25233 0.97762 0.86611
 H95 H -0.28840 1.00839 0.86374
 C96 C -0.16020 0.89794 0.86827
 H97 H -0.12136 0.86977 0.86946
 C98 C -0.20981 0.88972 0.88739
 H99 H -0.21013 0.85302 0.90286
 Zn100 Zn -0.05877 0.98711 0.83040
 N101 N -0.15345 0.94838 0.84948
 C102 C -0.13101 0.82594 0.80577
 N103 N -0.06716 0.90689 0.80825
 C104 C -0.00391 0.94033 0.79287
 C105 C -0.00273 0.89255 0.77409
 C106 C -0.13255 0.77527 0.78693
 C107 C 0.01534 1.15258 0.81182
 C108 C 0.02019 1.20837 0.79381
 C109 C -0.11309 1.09893 0.77396
 C110 C -0.11520 1.04582 0.79214
 N111 N -0.05142 1.07286 0.81045
 H112 H -0.18140 0.80120 0.81804
 H113 H 0.04538 1.00521 0.79506
 H114 H 0.04797 0.92137 0.76191
 H115 H -0.18463 0.71166 0.78516
 H116 H 0.06638 1.17194 0.82626
 H117 H 0.07582 1.27012 0.79481
 H118 H -0.16312 1.07463 0.75906
 H119 H -0.16647 0.98154 0.79121
 C120 C -0.25164 0.93538 0.88758
 C121 C 0.15303 1.04017 0.89261
 C122 C -0.04444 1.18136 0.77430
 C123 C -0.06786 0.80897 0.77057
 C124 C 0.62972 -0.04206 0.01973
 C125 C 0.65028 -0.05817 -0.00284
 C126 C 0.61040 -0.05445 -0.02548
 C127 C 0.53474 -0.05045 -0.02516
 C128 C 0.50795 -0.04043 -0.00250
 C129 C 0.55477 -0.03707 0.01991
 C130 C 0.52356 -0.03137 0.04194
 C131 C 0.44975 -0.02825 0.04216
 C132 C 0.40212 -0.03146 0.02037
 C133 C 0.43355 -0.03409 -0.00223
 C134 C 0.48252 -0.06017 -0.04670
 C135 C 0.41222 -0.05051 -0.04642
 C136 C 0.39025 -0.03131 -0.02459
 C137 C 0.32436 -0.01259 -0.02414
 C138 C 0.28954 -0.01909 -0.00173
 C139 C 0.32367 -0.03289 0.02048
 H140 H 0.55390 -0.03127 0.05963
 H141 H 0.43180 -0.02224 0.05990
 H142 H 0.49407 -0.07667 -0.06412
 H143 H 0.37357 -0.06140 -0.06348
 H144 H 0.69673 -0.07669 -0.00288
 H145 H 0.23504 -0.01190 -0.00179
 C146 C -0.03638 0.65739 0.68634
 C147 C -0.01429 0.70309 0.66493
 C148 C -0.01240 0.66995 0.64240
 C149 C -0.01856 0.59117 0.64239
 C150 C -0.02983 0.54744 0.66455
 C151 C -0.03807 0.58091 0.68654
 C152 C -0.04443 0.53842 0.70831
 C153 C -0.04593 0.46404 0.70856
 C154 C -0.03839 0.42900 0.68719
 C155 C -0.03169 0.47039 0.66479
 C156 C -0.01099 0.55581 0.62106
 C157 C -0.01820 0.47874 0.62102
 C158 C -0.02625 0.43535 0.64269
 C159 C -0.03083 0.35729 0.64283
 C160 C -0.04642 0.31509 0.66488
 C161 C -0.03965 0.35273 0.68748
 H162 H -0.04649 0.56240 0.72580
 H163 H -0.05446 0.43427 0.72593
 H164 H 0.00124 0.58678 0.60389
 H165 H -0.01726 0.45437 0.60347
 H166 H 0.00623 0.76760 0.66629
 H167 H -0.06697 0.25046 0.66443
 C168 C 0.38058 0.34838 0.31549
 C169 C 0.35234 0.31710 0.33856
 C170 C 0.39748 0.35825 0.36086
 C171 C 0.47843 0.43247 0.35989
 C172 C 0.50574 0.46886 0.33700
 C173 C 0.45605 0.42827 0.31485
 C174 C 0.48333 0.46966 0.29276
 C175 C 0.56128 0.54362 0.29211
 C176 C 0.61487 0.58071 0.31355
 C177 C 0.58330 0.54682 0.33629
 C178 C 0.53354 0.47174 0.38114
 C179 C 0.60632 0.54989 0.38045
 C180 C 0.62891 0.59116 0.35838
 C181 C 0.69696 0.67470 0.35744
 C182 C 0.73368 0.70087 0.33505
 C183 C 0.69790 0.65234 0.31330
 H184 H 0.44515 0.44618 0.27554
 H185 H 0.57751 0.57280 0.27466
 H186 H 0.52142 0.44346 0.39876
 H187 H 0.64573 0.57668 0.39741
 H188 H 0.29386 0.25936 0.33920
 H189 H 0.79149 0.76083 0.33453
 C190 C -0.00520 0.25186 0.58013
 C191 C -0.00443 0.20637 0.60349
 C192 C -0.01107 0.24033 0.62420
 C193 C -0.02024 0.31721 0.62000
 C194 C 0.05991 0.37577 0.60679
 C195 C 0.06652 0.34274 0.58576
 C196 C -0.08806 0.25435 0.57958
 C197 C -0.09597 0.28766 0.60037
 H198 H 0.00754 0.15546 0.60397
 H199 H 0.00054 0.21931 0.64179
 H200 H 0.10770 0.43813 0.61345
 H201 H 0.11859 0.37818 0.57432
 H202 H -0.13494 0.23562 0.56392
 H203 H -0.15027 0.29494 0.60239
 C204 C 0.83567 0.74657 0.25218
 C205 C 0.89189 0.76468 0.27650
 C206 C 0.84657 0.73114 0.29626
 C207 C 0.74835 0.68374 0.29052
 C208 C 0.73026 0.74550 0.27690
 C209 C 0.77575 0.77851 0.25721
 C210 C 0.77801 0.65147 0.25083
 C211 C 0.73377 0.61853 0.27094
 H212 H 0.96101 0.79818 0.27855
 H213 H 0.87854 0.73433 0.31414
 H214 H 0.68611 0.76303 0.28259
 H215 H 0.77061 0.82479 0.24635
 H216 H 0.77682 0.61293 0.23609
 H217 H 0.69706 0.55202 0.27334
 C218 C 0.20219 0.03247 -0.08463
 C219 C 0.29683 0.06401 -0.08779
 C220 C 0.33953 0.05246 -0.06797
 C221 C 0.28331 0.00756 -0.04682
 C222 C 0.24854 0.06468 -0.04130
 C223 C 0.20582 0.07702 -0.06079
 C224 C 0.16369 -0.05894 -0.07786
 C225 C 0.20585 -0.07171 -0.05844
 H226 H 0.32909 0.09834 -0.10347
 H227 H 0.40827 0.07922 -0.06679
 H228 H 0.26421 0.10017 -0.02427
 H229 H 0.18628 0.12205 -0.05940
 H230 H 0.10697 -0.10987 -0.08755
 H231 H 0.18535 -0.13331 -0.05174
 C232 C 0.03036 0.80958 0.57949
 C233 C 0.10528 0.80016 0.58976
 C234 C 0.09028 0.75521 0.61037
 C235 C 0.00108 0.72210 0.61924
 C236 C -0.00677 0.79993 0.62153
 C237 C 0.00901 0.84508 0.60101
 C238 C -0.04694 0.71980 0.57615
 C239 C -0.06271 0.67513 0.59694
 H240 H 0.16540 0.82669 0.58144
 H241 H 0.13790 0.74386 0.61962
 H242 H -0.03485 0.81304 0.63615
 H243 H -0.00176 0.89668 0.59941
 H244 H -0.09028 0.69425 0.55978
 H245 H -0.11827 0.61321 0.59776
 C246 C 0.24283 0.21848 0.25061
 C247 C 0.21368 0.16496 0.27330
 C248 C 0.25800 0.20500 0.29474
 C249 C 0.32841 0.29705 0.29197
 C250 C 0.38341 0.29004 0.27346
 C251 C 0.33970 0.25047 0.25189
 C252 C 0.23753 0.29506 0.25648
 C253 C 0.28130 0.33537 0.27794
 H254 H 0.16738 0.09875 0.27233
 H255 H 0.24978 0.16932 0.31104
 H256 H 0.45056 0.31061 0.27752
 H257 H 0.37168 0.23812 0.23830
 H258 H 0.20179 0.31571 0.24473
 H259 H 0.28238 0.39013 0.28447
 C260 C 0.71269 -0.05899 -0.09021
 C261 C 0.68881 0.00466 -0.08925
 C262 C 0.65529 0.00704 -0.06677
 C263 C 0.65026 -0.05479 -0.04936
 C264 C 0.60208 -0.13469 -0.06268
 C265 C 0.63596 -0.13694 -0.08506
 C266 C 0.77274 -0.03913 -0.06847
 C267 C 0.73900 -0.03640 -0.04616
 H268 H 0.70995 0.05687 -0.10121
 H269 H 0.64705 0.05815 -0.06197
 H270 H 0.54545 -0.18810 -0.05636
 H271 H 0.60636 -0.19208 -0.09698
 H272 H 0.84071 -0.01481 -0.06922
 H273 H 0.78291 -0.00495 -0.03015
 C274 C 0.21271 -0.04959 0.08531
 C275 C 0.15301 -0.06237 0.06229
 C276 C 0.18677 -0.05939 0.04091
 C277 C 0.27941 -0.04198 0.04407
 C278 C 0.32918 0.03732 0.06032
 C279 C 0.29552 0.03302 0.08179
 C280 C 0.23701 -0.11610 0.08232
 C281 C 0.27042 -0.11285 0.06066
 H282 H 0.08649 -0.08043 0.06284
 H283 H 0.14563 -0.07942 0.02400
 H284 H 0.38744 0.09222 0.05545
 H285 H 0.32567 0.08404 0.09523
 H286 H 0.22837 -0.16257 0.09556
 H287 H 0.28776 -0.15747 0.05561
 C288 C 0.81017 0.84165 0.41674
 C289 C 0.84669 0.78987 0.41301
 C290 C 0.80615 0.73253 0.39273
 C291 C 0.73586 0.73633 0.37962
 C292 C 0.67763 0.72581 0.39811
 C293 C 0.71864 0.78323 0.41872
 C294 C 0.81214 0.88096 0.39330
 C295 C 0.77152 0.82335 0.37300
 H296 H 0.89913 0.79282 0.42471
 H297 H 0.82567 0.68927 0.38796
 H298 H 0.60846 0.68886 0.39495
 H299 H 0.68104 0.79116 0.43151
 H300 H 0.83004 0.94550 0.39163
 H301 H 0.75631 0.84272 0.35551
 C302 C -0.03868 0.23277 0.75200
 C303 C -0.02241 0.19683 0.72958
 C304 C -0.02061 0.23615 0.70850
 C305 C -0.03722 0.30837 0.71121
 C306 C -0.12160 0.27007 0.72337
 C307 C -0.12208 0.23182 0.74463
 C308 C 0.03140 0.32562 0.75273
 C309 C 0.03296 0.36441 0.73132
 H310 H -0.00564 0.14917 0.73064
 H311 H 0.00195 0.22285 0.69252
 H312 H -0.17619 0.27411 0.71601
 H313 H -0.17689 0.20401 0.75543
 H314 H 0.07615 0.35906 0.76835
 H315 H 0.08029 0.42914 0.72889
 C316 C 0.77436 -0.02345 0.08477
 C317 C 0.68483 -0.10171 0.08155
 C318 C 0.63990 -0.10746 0.05997
 C319 C 0.68639 -0.03355 0.04330
 C320 C 0.71412 0.04448 0.05935
 C321 C 0.75850 0.04917 0.08112
 C322 C 0.81761 -0.02301 0.06186
 C323 C 0.77277 -0.02757 0.04034
 H324 H 0.65880 -0.14899 0.09519
 H325 H 0.57604 -0.15994 0.05521
 H326 H 0.70100 0.09279 0.05384
 H327 H 0.78098 0.10107 0.09385
 H328 H 0.88191 -0.01247 0.06253
 H329 H 0.80296 -0.01680 0.02340
 C330 C 0.30402 0.26256 0.42807
 C331 C 0.33736 0.35603 0.42579
 C332 C 0.36369 0.38594 0.40340
 C333 C 0.35938 0.32157 0.38533
 C334 C 0.40704 0.28351 0.39928
 C335 C 0.37907 0.25373 0.42155
 C336 C 0.23607 0.22128 0.40640
 C337 C 0.26394 0.25206 0.38426
 H338 H 0.34125 0.39607 0.44049
 H339 H 0.38616 0.45008 0.39901
 H340 H 0.46018 0.28211 0.39237
 H341 H 0.40982 0.22879 0.43364
 H342 H 0.16936 0.17595 0.40852
 H343 H 0.21795 0.23434 0.36845
 C344 C -0.06605 0.76214 0.74843
 C345 C -0.07127 0.80401 0.72462
 C346 C -0.06393 0.76944 0.70415
 C347 C -0.05020 0.69560 0.70896
 C348 C 0.02673 0.72909 0.72819
 C349 C 0.01824 0.76273 0.74868
 C350 C -0.13638 0.67017 0.74358
 C351 C -0.12876 0.63613 0.72278
 H352 H -0.08772 0.85190 0.72370
 H353 H -0.07850 0.78688 0.68628
 H354 H 0.08311 0.72548 0.72596
 H355 H 0.06726 0.78725 0.76392
 H356 H -0.18943 0.63485 0.75463
 H357 H -0.17577 0.57323 0.71637
   
