data_POSCAR
  _audit_creation_date              2014-09-24
  _audit_creation_method            'ToBaCCo'
  _symmetry_space_group_name_H-M    'P1'
  _symmetry_Int_Tables_number       1
  _symmetry_cell_setting            triclinic
  loop_
  _symmetry_equiv_pos_as_xyz
 x,y,z
_cell_length_a 18.4044
_cell_length_b 18.0935
_cell_length_c 18.4166
_cell_angle_alpha 91.568300
_cell_angle_beta 90.001000
_cell_angle_gamma 90.579500
loop_
  _atom_site_label
  _atom_site_type_symbol
  _atom_site_fract_x
  _atom_site_fract_y
  _atom_site_fract_z
C1 C -0.00305 0.50532 0.25588
 C2 C 0.00255 0.49512 0.74225
 C3 C 0.23973 -0.00297 0.49081
 C4 C 0.75959 0.00119 0.49605
 C5 C 0.50437 0.24803 0.99691
 C6 C 0.49971 0.74891 1.01147
 B7 B 1.00300 1.07943 0.04356
 B8 B 1.04833 1.00110 0.07040
 B9 B 0.95520 1.00236 0.07219
 B10 B 0.92601 1.04981 -0.00230
 B11 B 1.00303 1.07951 -0.04820
 B12 B 1.07921 1.04722 -0.00444
 B13 B 0.99858 0.92483 -0.05402
 B14 B 0.95376 1.00342 -0.07971
 B15 B 1.04701 1.00110 -0.08232
 B16 B 1.07632 0.95198 -0.00578
 B17 B 0.99955 0.92422 0.04015
 B18 B 0.92382 0.95515 -0.00496
 B19 B 0.57635 0.50041 0.45788
 B20 B 0.57601 0.49971 0.55120
 B21 B 0.54701 0.57762 0.50660
 B22 B 0.49914 0.54794 0.42924
 B23 B 0.49970 0.45261 0.42650
 B24 B 0.54631 0.42267 0.50066
 B25 B 0.42389 0.50026 0.55065
 B26 B 0.42309 0.50038 0.45722
 B27 B 0.45170 0.42295 0.50197
 B28 B 0.49915 0.45178 0.57858
 B29 B 0.50045 0.54671 0.58245
 B30 B 0.45422 0.57807 0.50595
 C31 C 0.98968 1.31182 0.13730
 C32 C 0.93705 1.25937 0.15525
 C33 C 0.94105 1.18707 0.12650
 C34 C 0.99358 1.44168 0.20549
 C35 C 1.04828 1.22039 0.06140
 C36 C 1.04470 1.29232 0.08948
 C37 C 0.99067 1.38390 0.17163
 C38 C 0.99941 1.16360 0.08186
 H39 H 0.89304 1.27412 0.19177
 H40 H 0.89800 1.15039 0.14063
 H41 H 1.08782 1.21199 0.01974
 H42 H 1.08478 1.33290 0.07314
 C43 C 0.99331 0.70660 0.15605
 C44 C 0.97974 0.77263 0.19467
 C45 C 0.98261 0.84058 0.15941
 C46 C 0.99431 0.57622 0.21869
 C47 C 1.01344 0.77671 0.04834
 C48 C 1.01046 0.70931 0.08292
 C49 C 0.99302 0.63592 0.19071
 C50 C 0.99868 0.84502 0.08420
 H51 H 0.96831 0.77193 0.25235
 H52 H 0.97685 0.88909 0.19342
 H53 H 1.02776 0.77209 -0.00680
 H54 H 1.02224 0.65891 0.05212
 C55 C 1.00670 1.30690 -0.14141
 C56 C 1.06687 1.26125 -0.14867
 C57 C 1.06619 1.19192 -0.11712
 C58 C 1.00360 1.43281 -0.20933
 C59 C 0.94895 1.21564 -0.06801
 C60 C 0.94847 1.28484 -0.09916
 C61 C 1.00527 1.37676 -0.17591
 C62 C 1.00421 1.16321 -0.08273
 H63 H 1.11549 1.28046 -0.17581
 H64 H 1.11721 1.16721 -0.11000
 H65 H 0.90972 1.20837 -0.02612
 H66 H 0.90389 1.32212 -0.08788
 C67 C 1.00273 0.70289 -0.16622
 C68 C 1.06194 0.75089 -0.17216
 C69 C 1.05815 0.82261 -0.14226
 C70 C 1.00584 0.56626 -0.21878
 C71 C 0.93485 0.79995 -0.10653
 C72 C 0.93836 0.72852 -0.13606
 C73 C 1.00612 0.62808 -0.19319
 C74 C 0.99591 0.84800 -0.10429
 H75 H 1.11174 0.73244 -0.19791
 H76 H 1.10647 0.85670 -0.14548
 H77 H 0.88391 0.81413 -0.08437
 H78 H 0.89086 0.69270 -0.13395
 C79 C 1.15022 0.99332 0.28921
 C80 C 1.13509 1.06111 0.25940
 C81 C 1.10830 1.06394 0.18902
 C82 C 1.20051 0.99282 0.42243
 C83 C 1.11778 0.93200 0.17586
 C84 C 1.14445 0.92881 0.24658
 C85 C 1.17533 0.99141 0.36238
 C86 C 1.09336 0.99913 0.14715
 H87 H 1.14142 1.11190 0.29149
 H88 H 1.09103 1.11716 0.17263
 H89 H 1.11726 0.88121 0.14412
 H90 H 1.16024 0.87611 0.26790
 C91 C 1.12942 0.99697 -0.31754
 C92 C 1.16072 1.04495 -0.26645
 C93 C 1.13628 1.04680 -0.19482
 C94 C 1.19168 0.99310 -0.44626
 C95 C 1.04785 0.95435 -0.22514
 C96 C 1.07221 0.95193 -0.29704
 C97 C 1.15946 0.99313 -0.38939
 C98 C 1.08052 0.99961 -0.16886
 H99 H 1.20516 1.08115 -0.28179
 H100 H 1.16514 1.08585 -0.16301
 H101 H 1.00136 0.92011 -0.21613
 H102 H 1.04597 0.91499 -0.33648
 C103 C 0.86306 0.99010 0.29948
 C104 C 0.92044 1.03728 0.28429
 C105 C 0.94491 1.04354 0.21322
 C106 C 0.80394 0.99411 0.43025
 C107 C 0.85440 0.95772 0.17099
 C108 C 0.82883 0.95132 0.24233
 C109 C 0.83310 0.99041 0.37164
 C110 C 0.91605 1.00151 0.15403
 H111 H 0.94475 1.07175 0.32700
 H112 H 0.98330 1.08614 0.20561
 H113 H 0.82159 0.93257 0.13020
 H114 H 0.78079 0.91802 0.25240
 C115 C 0.85769 1.00361 -0.30411
 C116 C 0.83932 0.94747 -0.25678
 C117 C 0.86625 0.94897 -0.18567
 C118 C 0.80205 1.00203 -0.43658
 C119 C 0.92854 1.06333 -0.20866
 C120 C 0.90163 1.06196 -0.27950
 C121 C 0.82971 1.00252 -0.37715
 C122 C 0.91157 1.00702 -0.15884
 H123 H 0.80492 0.90172 -0.27511
 H124 H 0.85249 0.90294 -0.15336
 H125 H 0.96644 1.10682 -0.19627
 H126 H 0.91680 1.10577 -0.31568
 C127 C 1.31017 1.13636 -0.00295
 C128 C 1.26100 1.16149 0.04912
 C129 C 1.18986 1.13420 0.04932
 C130 C 1.43942 1.20071 -0.00453
 C131 C 1.21704 1.05476 -0.05212
 C132 C 1.28848 1.08177 -0.05307
 C133 C 1.38192 1.16828 -0.00463
 C134 C 1.16293 1.08406 -0.00475
 H135 H 1.27771 1.20214 0.09029
 H136 H 1.15797 1.15384 0.09321
 H137 H 1.20599 1.00655 -0.08616
 H138 H 1.32695 1.05867 -0.09177
 C139 C 0.70102 1.14493 -0.00789
 C140 C 0.72835 1.11719 0.05598
 C141 C 0.79917 1.09103 0.05859
 C142 C 0.57103 1.20492 -0.00663
 C143 C 0.81637 1.12114 -0.06635
 C144 C 0.74537 1.14769 -0.06904
 C145 C 0.62935 1.17538 -0.00842
 C146 C 0.84618 1.09175 -0.00213
 H147 H 0.69481 1.11576 0.10433
 H148 H 0.81460 1.07041 0.10934
 H149 H 0.84750 1.12473 -0.11514
 H150 H 0.72525 1.17045 -0.11892
 C151 C 1.30019 0.84784 0.00859
 C152 C 1.28456 0.91265 0.04679
 C153 C 1.21407 0.94015 0.04687
 C154 C 1.43294 0.79247 0.00838
 C155 C 1.17226 0.83563 -0.02253
 C156 C 1.24309 0.80746 -0.02337
 C157 C 1.37334 0.81988 0.00767
 C158 C 1.15622 0.90739 0.00496
 H159 H 1.32697 0.94271 0.07628
 H160 H 1.20804 0.99034 0.07823
 H161 H 1.13197 0.79808 -0.04147
 H162 H 1.25291 0.75339 -0.04799
 C163 C 0.69942 0.85201 0.00493
 C164 C 0.71239 0.91468 -0.03499
 C165 C 0.78253 0.94361 -0.04034
 C166 C 0.56719 0.79294 0.01038
 C167 C 0.82865 0.84626 0.03186
 C168 C 0.75803 0.81668 0.03702
 C169 C 0.62672 0.82167 0.00870
 C170 C 0.84281 0.91333 -0.00430
 H171 H 0.66830 0.94096 -0.06318
 H172 H 0.78835 0.98872 -0.07578
 H173 H 0.87065 0.81680 0.05827
 H174 H 0.74924 0.76631 0.06642
 C175 C 0.80442 0.49022 0.36574
 C176 C 0.78425 0.54628 0.41383
 C177 C 0.71403 0.54827 0.44127
 C178 C 0.93280 0.49905 0.30232
 C179 C 0.68334 0.43687 0.37555
 C180 C 0.75414 0.43453 0.34710
 C181 C 0.87537 0.49335 0.33326
 C182 C 0.65910 0.49678 0.42052
 H183 H 0.82296 0.58905 0.43046
 H184 H 0.70558 0.59094 0.48027
 H185 H 0.64933 0.38929 0.36408
 H186 H 0.76966 0.38894 0.31122
 C187 C 0.19768 0.49780 0.35394
 C188 C 0.21500 0.54573 0.41130
 C189 C 0.28508 0.54755 0.43986
 C190 C 0.06590 0.50143 0.29586
 C191 C 0.32237 0.45484 0.35434
 C192 C 0.25196 0.45273 0.32464
 C193 C 0.12546 0.49862 0.32335
 C194 C 0.34199 0.50175 0.41437
 H195 H 0.17453 0.58313 0.43356
 H196 H 0.29351 0.58917 0.47974
 H197 H 0.35928 0.41731 0.33044
 H198 H 0.23996 0.41541 0.27910
 C199 C 0.79953 0.49678 0.65286
 C200 C 0.76933 0.56356 0.63380
 C201 C 0.69781 0.56545 0.60848
 C202 C 0.93408 0.49279 0.70200
 C203 C 0.68418 0.43718 0.62784
 C204 C 0.75548 0.43410 0.65349
 C205 C 0.87360 0.49378 0.67705
 C206 C 0.65547 0.50057 0.59586
 H207 H 0.80104 0.61431 0.63796
 H208 H 0.67913 0.61844 0.59642
 H209 H 0.65572 0.38680 0.62745
 H210 H 0.77645 0.38225 0.67236
 C211 C 0.19954 0.48994 0.64301
 C212 C 0.23068 0.55775 0.62699
 C213 C 0.30251 0.56165 0.60394
 C214 C 0.06724 0.48983 0.69690
 C215 C 0.31458 0.43108 0.61827
 C216 C 0.24232 0.42677 0.64140
 C217 C 0.12623 0.48785 0.66894
 C218 C 0.34524 0.49792 0.59348
 H219 H 0.19903 0.60790 0.63111
 H220 H 0.32088 0.61527 0.58844
 H221 H 0.34605 0.38168 0.62180
 H222 H 0.22021 0.37437 0.65864
 C223 C 0.48798 0.65694 0.21203
 C224 C 0.45730 0.58775 0.22158
 C225 C 0.45517 0.55828 0.29049
 C226 C 0.49744 0.71026 0.08019
 C227 C 0.50548 0.66867 0.34232
 C228 C 0.50834 0.69954 0.27325
 C229 C 0.49376 0.68507 0.14002
 C230 C 0.48957 0.59278 0.35144
 H231 H 0.43566 0.55583 0.17567
 H232 H 0.43006 0.50557 0.29297
 H233 H 0.51124 0.70622 0.38806
 H234 H 0.52493 0.75675 0.26796
 C235 C 0.49959 0.63489 0.81636
 C236 C 0.44251 0.64993 0.76982
 C237 C 0.44340 0.62352 0.69782
 C238 C 0.50022 0.69918 0.94715
 C239 C 0.55725 0.56593 0.71834
 C240 C 0.55693 0.59239 0.79047
 C241 C 0.50030 0.66651 0.88907
 C242 C 0.50209 0.58330 0.66744
 H243 H 0.39687 0.68241 0.78905
 H244 H 0.39719 0.63662 0.66723
 H245 H 0.59795 0.52619 0.70729
 H246 H 0.60078 0.57790 0.82652
 C247 C 0.50708 0.34645 0.20149
 C248 C 0.46534 0.31388 0.25576
 C249 C 0.46508 0.34407 0.32689
 C250 C 0.50466 0.29028 0.06653
 C251 C 0.54991 0.43754 0.29023
 C252 C 0.55049 0.40749 0.21960
 C253 C 0.50541 0.31759 0.12736
 C254 C 0.50600 0.40819 0.34629
 H255 H 0.43109 0.26632 0.24268
 H256 H 0.42727 0.32020 0.36437
 H257 H 0.58095 0.48789 0.29903
 H258 H 0.58336 0.43360 0.17856
 C259 C 0.49946 0.35200 0.80146
 C260 C 0.45325 0.40959 0.78569
 C261 C 0.45074 0.43698 0.71560
 C262 C 0.50260 0.29361 0.93202
 C263 C 0.53801 0.34760 0.67517
 C264 C 0.54066 0.31988 0.74550
 C265 C 0.50133 0.32278 0.87369
 C266 C 0.49545 0.40952 0.65817
 H267 H 0.41923 0.43402 0.82776
 H268 H 0.41463 0.48224 0.70886
 H269 H 0.56898 0.31813 0.63445
 H270 H 0.57474 0.27287 0.75600
 C271 C 0.64690 0.80549 0.50126
 C272 C 0.65240 0.75732 0.44121
 C273 C 0.62469 0.68532 0.44438
 C274 C 0.71115 0.93654 0.49744
 C275 C 0.58994 0.70768 0.56845
 C276 C 0.61735 0.77984 0.56556
 C277 C 0.67893 0.87824 0.49908
 C278 C 0.58874 0.65928 0.50672
 H279 H 0.67823 0.77524 0.39174
 H280 H 0.63008 0.65036 0.39626
 H281 H 0.57268 0.68966 0.62071
 H282 H 0.61672 0.81506 0.61410
 C283 C 0.66235 0.20405 0.48365
 C284 C 0.70195 0.26828 0.50154
 C285 C 0.66798 0.33743 0.50069
 C286 C 0.72070 0.07140 0.49259
 C287 C 0.55935 0.27966 0.45771
 C288 C 0.59201 0.21060 0.45802
 C289 C 0.69372 0.13173 0.48871
 C290 C 0.59240 0.34402 0.48849
 H291 H 0.75899 0.26521 0.51556
 H292 H 0.70239 0.38534 0.50755
 H293 H 0.50621 0.27973 0.43615
 H294 H 0.56169 0.16218 0.43896
 C295 C 0.35815 0.80674 0.49143
 C296 C 0.34795 0.75496 0.43479
 C297 C 0.37750 0.68417 0.43914
 C298 C 0.28910 0.93407 0.49135
 C299 C 0.42757 0.71700 0.55537
 C300 C 0.39859 0.78760 0.55142
 C301 C 0.32304 0.87739 0.49078
 C302 C 0.41663 0.66146 0.50105
 H303 H 0.31674 0.76897 0.38730
 H304 H 0.36872 0.64763 0.39287
 H305 H 0.45997 0.70877 0.60146
 H306 H 0.40776 0.82729 0.59573
 C307 C 0.33296 0.20408 0.50411
 C308 C 0.39701 0.21527 0.54231
 C309 C 0.42997 0.28465 0.54451
 C310 C 0.27714 0.06889 0.49485
 C311 C 0.33280 0.33470 0.47671
 C312 C 0.29893 0.26467 0.47363
 C313 C 0.30266 0.13055 0.49847
 C314 C 0.40356 0.34493 0.50564
 H315 H 0.42309 0.16975 0.56875
 H316 H 0.48071 0.28718 0.57055
 H317 H 0.30089 0.38000 0.46025
 H318 H 0.24602 0.25815 0.44834
   
