data_POSCAR
  _audit_creation_date              2014-09-24
  _audit_creation_method            'ToBaCCo'
  _symmetry_space_group_name_H-M    'P1'
  _symmetry_Int_Tables_number       1
  _symmetry_cell_setting            triclinic
  loop_
  _symmetry_equiv_pos_as_xyz
 x,y,z
_cell_length_a 45.0252
_cell_length_b 46.5160
_cell_length_c 34.4050
_cell_angle_alpha 89.897000
_cell_angle_beta 90.054800
_cell_angle_gamma 90.033200
loop_
  _atom_site_label
  _atom_site_type_symbol
  _atom_site_fract_x
  _atom_site_fract_y
  _atom_site_fract_z
C1 C 1.27602 0.21996 0.26577
 C2 C 1.25175 0.23424 0.24885
 C3 C 1.22880 0.21818 0.23172
 C4 C 1.23033 0.18812 0.23113
 C5 C 1.25442 0.17400 0.24833
 C6 C 1.27719 0.18988 0.26582
 C7 C 1.25067 0.26591 0.24864
 C8 C 1.27429 0.28169 0.23270
 C9 C 1.27344 0.31177 0.23242
 C10 C 1.24920 0.32620 0.24876
 C11 C 1.22569 0.31057 0.26504
 C12 C 1.22626 0.28047 0.26462
 H13 H 1.29366 0.23227 0.27935
 H14 H 1.21016 0.22908 0.21823
 H15 H 1.29306 0.27050 0.22002
 H16 H 1.20811 0.26840 0.27741
 H17 H 1.25537 0.15069 0.24808
 H18 H 1.24861 0.34953 0.24894
 C19 C 0.77515 -0.28070 0.26405
 C20 C 0.75067 -0.26613 0.24815
 C21 C 0.72698 -0.28190 0.23239
 C22 C 0.72782 -0.31194 0.23224
 C23 C 0.75209 -0.32642 0.24847
 C24 C 0.77571 -0.31082 0.26458
 C25 C 0.74954 -0.23447 0.24832
 C26 C 0.77250 -0.21832 0.23138
 C27 C 0.77090 -0.18827 0.23077
 C28 C 0.74672 -0.17425 0.24776
 C29 C 0.72395 -0.19024 0.26503
 C30 C 0.72519 -0.22027 0.26503
 H31 H 0.79332 -0.26858 0.27672
 H32 H 0.70814 -0.27076 0.21976
 H33 H 0.79122 -0.22915 0.21804
 H34 H 0.70751 -0.23259 0.27850
 H35 H 0.75251 -0.34975 0.24864
 H36 H 0.74563 -0.15095 0.24756
 C37 C 0.77275 0.21871 -0.23128
 C38 C 0.74984 0.23477 -0.24848
 C39 C 0.72555 0.22052 -0.26532
 C40 C 0.72431 0.19048 -0.26520
 C41 C 0.74702 0.17457 -0.24767
 C42 C 0.77114 0.18865 -0.23055
 C43 C 0.75097 0.26643 -0.24846
 C44 C 0.77541 0.28097 -0.26449
 C45 C 0.77595 0.31109 -0.26523
 C46 C 0.75235 0.32671 -0.24919
 C47 C 0.72813 0.31225 -0.23284
 C48 C 0.72731 0.28221 -0.23278
 H49 H 0.79142 0.22958 -0.21785
 H50 H 0.70791 0.23278 -0.27899
 H51 H 0.79356 0.26883 -0.27711
 H52 H 0.70849 0.27108 -0.22007
 H53 H 0.74593 0.15127 -0.24738
 H54 H 0.75275 0.35004 -0.24953
 C55 C 1.27320 -0.28182 -0.23098
 C56 C 1.24957 -0.26586 -0.24655
 C57 C 1.22494 -0.28021 -0.26236
 C58 C 1.22418 -0.31029 -0.26300
 C59 C 1.24770 -0.32612 -0.24713
 C60 C 1.27216 -0.31187 -0.23098
 C61 C 1.25095 -0.23424 -0.24672
 C62 C 1.27542 -0.22017 -0.26340
 C63 C 1.27686 -0.19015 -0.26345
 C64 C 1.25420 -0.17406 -0.24628
 C65 C 1.22990 -0.18796 -0.22934
 C66 C 1.22808 -0.21800 -0.22987
 H67 H 1.29215 -0.27078 -0.21845
 H68 H 1.20680 -0.26800 -0.27494
 H69 H 1.29301 -0.23256 -0.27684
 H70 H 1.20926 -0.22873 -0.21657
 H71 H 1.24698 -0.34944 -0.24755
 H72 H 1.25545 -0.15076 -0.24616
 C73 C 0.21765 0.27172 0.73141
 C74 C 0.23401 0.24921 0.74831
 C75 C 0.21893 0.22559 0.76449
 C76 C 0.18780 0.22460 0.76414
 C77 C 0.17167 0.24700 0.74680
 C78 C 0.18655 0.27047 0.73023
 C79 C 0.26683 0.25012 0.74857
 C80 C 0.28198 0.27305 0.76633
 C81 C 0.31316 0.27353 0.76697
 C82 C 0.32920 0.25141 0.74904
 C83 C 0.31423 0.22870 0.73091
 C84 C 0.28313 0.22790 0.73106
 H85 H 0.22916 0.28986 0.71851
 H86 H 0.23148 0.20828 0.77782
 H87 H 0.26949 0.29013 0.78017
 H88 H 0.27159 0.21026 0.71705
 H89 H 0.14758 0.24622 0.74618
 H90 H 0.35330 0.25180 0.74919
 C91 C 0.71616 0.77195 0.73019
 C92 C 0.73237 0.74964 0.74778
 C93 C 0.71714 0.72673 0.76554
 C94 C 0.68597 0.72634 0.76612
 C95 C 0.66999 0.74854 0.74811
 C96 C 0.68503 0.77126 0.72996
 C97 C 0.76520 0.75045 0.74764
 C98 C 0.78033 0.77399 0.76389
 C99 C 0.81145 0.77492 0.76363
 C100 C 0.82754 0.75257 0.74634
 C101 C 0.81263 0.72916 0.72969
 C102 C 0.78152 0.72797 0.73077
 H103 H 0.72783 0.78955 0.71621
 H104 H 0.72958 0.70959 0.77945
 H105 H 0.76790 0.79132 0.77721
 H106 H 0.76998 0.70989 0.71781
 H107 H 0.64587 0.74815 0.74827
 H108 H 0.85161 0.75338 0.74583
 C109 C 0.71854 0.27324 0.23414
 C110 C 0.73362 0.25027 0.25197
 C111 C 0.71726 0.22803 0.26947
 C112 C 0.68618 0.22886 0.26949
 C113 C 0.67129 0.25160 0.25130
 C114 C 0.68740 0.27371 0.23342
 C115 C 0.76641 0.24934 0.25226
 C116 C 0.78281 0.27186 0.26897
 C117 C 0.81390 0.27054 0.27016
 C118 C 0.82871 0.24701 0.25381
 C119 C 0.81250 0.22464 0.23670
 C120 C 0.78141 0.22567 0.23631
 H121 H 0.73101 0.29035 0.22025
 H122 H 0.72875 0.21036 0.28353
 H123 H 0.77136 0.29004 0.28170
 H124 H 0.76890 0.20832 0.22309
 H125 H 0.64720 0.25207 0.25100
 H126 H 0.85278 0.24612 0.25439
 C127 C 0.21813 0.77395 0.23647
 C128 C 0.23315 0.75037 0.25278
 C129 C 0.21679 0.72791 0.26977
 C130 C 0.18567 0.72919 0.27092
 C131 C 0.17082 0.75265 0.25420
 C132 C 0.18701 0.77497 0.23676
 C133 C 0.26596 0.74945 0.25252
 C134 C 0.28232 0.77160 0.27016
 C135 C 0.31341 0.77081 0.27021
 C136 C 0.32830 0.74817 0.25188
 C137 C 0.31218 0.72615 0.23384
 C138 C 0.28104 0.72660 0.23456
 H139 H 0.23071 0.79121 0.22306
 H140 H 0.22835 0.70982 0.28273
 H141 H 0.27083 0.78919 0.28430
 H142 H 0.26857 0.70956 0.22058
 H143 H 0.14672 0.75352 0.25473
 H144 H 0.35239 0.74773 0.25158
 N145 N 1.03215 0.03076 0.06910
 N146 N 1.05271 0.03633 0.09545
 N147 N 0.96967 0.05081 0.04224
 N148 N 0.95082 0.07155 0.05075
 N149 N 0.96975 0.03109 0.06964
 N150 N 0.95094 0.03802 0.09759
 N151 N 1.03203 0.05066 0.04195
 N152 N 1.05248 0.07028 0.04902
 C153 C 1.06533 0.06082 0.08214
 C154 C 0.93893 0.06299 0.08487
 N155 N 0.96914 0.03108 -0.06864
 N156 N 0.94855 0.03674 -0.09491
 N157 N 1.03169 0.05097 -0.04177
 N158 N 1.05044 0.07183 -0.05036
 N159 N 1.03154 0.03138 -0.06923
 N160 N 1.05020 0.03853 -0.09732
 N161 N 0.96933 0.05087 -0.04144
 N162 N 0.94889 0.07052 -0.04841
 Mn163 Mn 1.00068 0.05102 0.00025
 C164 C 0.93598 0.06117 -0.08151
 C165 C 1.06221 0.06350 -0.08460
 N166 N 0.96955 -0.03108 0.06934
 N167 N 0.94909 -0.03666 0.09576
 N168 N 1.03182 -0.05107 0.04185
 N169 N 1.05048 -0.07202 0.05034
 N170 N 1.03195 -0.03145 0.06929
 N171 N 1.05072 -0.03868 0.09726
 N172 N 0.96946 -0.05086 0.04213
 N173 N 0.94894 -0.07042 0.04924
 Mn174 Mn 1.00086 -0.00017 0.06973
 C175 C 0.93630 -0.06104 0.08245
 C176 C 1.06249 -0.06371 0.08448
 N177 N 1.03152 -0.03082 -0.06899
 N178 N 1.05206 -0.03626 -0.09534
 N179 N 0.96918 -0.05085 -0.04159
 N180 N 0.95042 -0.07171 -0.05009
 N181 N 0.96912 -0.03114 -0.06900
 N182 N 0.95031 -0.03822 -0.09696
 N183 N 1.03153 -0.05072 -0.04184
 N184 N 1.05206 -0.07022 -0.04890
 Mn185 Mn 1.00033 0.00012 -0.06935
 Mn186 Mn 1.00050 -0.05107 0.00013
 Cl187 Cl 1.00059 -0.00002 0.00019
 C188 C 1.06479 -0.06068 -0.08202
 C189 C 0.93843 -0.06326 -0.08422
 N190 N 1.05233 0.53048 0.54198
 N191 N 1.07306 0.54965 0.54990
 N192 N 1.03186 0.46992 0.56898
 N193 N 1.03728 0.44969 0.59505
 N194 N 1.05249 0.47006 0.54199
 N195 N 1.07249 0.44994 0.54895
 N196 N 1.03182 0.53038 0.56911
 N197 N 1.03810 0.54948 0.59629
 C198 C 1.06357 0.56159 0.58340
 C199 C 1.06251 0.43731 0.58187
 N200 N 0.94731 0.46998 0.54132
 N201 N 0.92643 0.45093 0.54906
 N202 N 0.96768 0.53040 0.56876
 N203 N 0.96212 0.55048 0.59488
 N204 N 0.94721 0.53042 0.54152
 N205 N 0.92717 0.55050 0.54835
 N206 N 0.96769 0.46993 0.56867
 N207 N 0.96114 0.45084 0.59583
 Mn208 Mn 0.99977 0.50015 0.56928
 C209 C 0.93566 0.43889 0.58269
 C210 C 0.93696 0.56294 0.58147
 N211 N 1.05272 0.47036 0.45821
 N212 N 1.07367 0.45143 0.45042
 N213 N 1.03213 0.53083 0.43099
 N214 N 1.03761 0.55107 0.40496
 N215 N 1.05262 0.53079 0.45821
 N216 N 1.07259 0.55100 0.45147
 N217 N 1.03236 0.47037 0.43083
 N218 N 1.03899 0.45142 0.40361
 Mn219 Mn 1.05279 0.50043 0.50011
 C220 C 1.06451 0.43950 0.41672
 C221 C 1.06273 0.56356 0.41842
 N222 N 0.94747 0.53049 0.45773
 N223 N 0.92656 0.54946 0.44976
 N224 N 0.96818 0.47014 0.43057
 N225 N 0.96288 0.44994 0.40451
 N226 N 0.94755 0.47008 0.45756
 N227 N 0.92767 0.44985 0.45063
 N228 N 0.96797 0.53059 0.43058
 N229 N 0.96148 0.54964 0.40332
 Mn230 Mn 0.94714 0.50024 0.49953
 Mn231 Mn 1.00016 0.50048 0.43034
 Cl232 Cl 0.99996 0.50032 0.49981
 C233 C 0.93590 0.56151 0.41620
 C234 C 0.93772 0.43738 0.41771
 N235 N 0.55282 0.02995 0.54160
 N236 N 0.57349 0.04929 0.54897
 N237 N 0.53232 -0.03040 0.56919
 N238 N 0.53772 -0.05061 0.59527
 N239 N 0.55277 -0.03045 0.54200
 N240 N 0.57266 -0.05070 0.54880
 N241 N 0.53244 0.03003 0.56889
 N242 N 0.53874 0.04944 0.59565
 C243 C 0.56409 0.06151 0.58232
 C244 C 0.56277 -0.06318 0.58186
 N245 N 0.44774 -0.03024 0.54225
 N246 N 0.42725 -0.04969 0.54982
 N247 N 0.46838 0.03019 0.56916
 N248 N 0.46307 0.05040 0.59515
 N249 N 0.44774 0.03015 0.54214
 N250 N 0.42783 0.05034 0.54899
 N251 N 0.46829 -0.03023 0.56938
 N252 N 0.46228 -0.04969 0.59624
 Mn253 Mn 0.50035 -0.00010 0.56957
 C254 C 0.43693 -0.06189 0.58314
 C255 C 0.43789 0.06288 0.58187
 N256 N 0.55243 -0.03046 0.45831
 N257 N 0.57303 -0.04978 0.45072
 N258 N 0.53195 0.02995 0.43094
 N259 N 0.53723 0.05022 0.40491
 N260 N 0.55259 0.02991 0.45795
 N261 N 0.57248 0.05015 0.45108
 N262 N 0.53191 -0.03046 0.43115
 N263 N 0.53804 -0.04979 0.40425
 Mn264 Mn 0.55293 -0.00027 0.49996
 C265 C 0.56344 -0.06192 0.41737
 C266 C 0.56240 0.06271 0.41817
 N267 N 0.44751 0.03000 0.45846
 N268 N 0.42688 0.04932 0.45089
 N269 N 0.46785 -0.03046 0.43140
 N270 N 0.46238 -0.05072 0.40551
 N271 N 0.44738 -0.03039 0.45858
 N272 N 0.42741 -0.05060 0.45196
 N273 N 0.46788 0.02997 0.43114
 N274 N 0.46159 0.04928 0.40416
 Mn275 Mn 0.44732 -0.00012 0.50036
 Mn276 Mn 0.49990 -0.00025 0.43074
 Cl277 Cl 0.50012 -0.00018 0.50016
 C278 C 0.43627 0.06142 0.41738
 C279 C 0.43728 -0.06319 0.41902
 N280 N 0.55185 0.53043 0.04083
 N281 N 0.57290 0.54920 0.04891
 N282 N 0.53161 0.46992 0.06822
 N283 N 0.53739 0.45001 0.09459
 N284 N 0.55213 0.47006 0.04110
 N285 N 0.57242 0.45026 0.04824
 N286 N 0.53148 0.53033 0.06816
 N287 N 0.53824 0.54904 0.09565
 C288 C 0.56380 0.56094 0.08270
 C289 C 0.56271 0.43781 0.08140
 N290 N 0.44703 0.46963 0.04095
 N291 N 0.42598 0.45085 0.04909
 N292 N 0.46729 0.53015 0.06807
 N293 N 0.46152 0.55004 0.09437
 N294 N 0.44675 0.53002 0.04093
 N295 N 0.42645 0.54981 0.04800
 N296 N 0.46742 0.46973 0.06829
 N297 N 0.46069 0.45100 0.09585
 Mn298 Mn 0.49945 0.50003 0.06858
 C299 C 0.43511 0.43910 0.08294
 C300 C 0.43618 0.56224 0.08114
 N301 N 0.55210 0.47014 -0.04260
 N302 N 0.57325 0.45148 -0.05056
 N303 N 0.53135 0.53046 -0.07007
 N304 N 0.53702 0.55034 -0.09653
 N305 N 0.55187 0.53053 -0.04290
 N306 N 0.57204 0.55046 -0.05010
 N307 N 0.53170 0.47002 -0.06994
 N308 N 0.53852 0.45127 -0.09731
 Mn309 Mn 0.55222 0.50030 -0.00089
 C310 C 0.56417 0.43958 -0.08428
 C311 C 0.56227 0.56277 -0.08335
 N312 N 0.44680 0.52990 -0.04278
 N313 N 0.42575 0.54870 -0.05073
 N314 N 0.46750 0.46958 -0.06992
 N315 N 0.46184 0.44967 -0.09625
 N316 N 0.44699 0.46953 -0.04279
 N317 N 0.42683 0.44958 -0.04988
 N318 N 0.46718 0.53000 -0.07009
 N319 N 0.46045 0.54889 -0.09745
 Mn320 Mn 0.44666 0.49977 -0.00093
 Mn321 Mn 0.49943 0.50002 -0.07040
 Cl322 Cl 0.49944 0.50003 -0.00091
 C323 C 0.43488 0.56066 -0.08443
 C324 C 0.43660 0.43725 -0.08303
 C325 C 1.16701 0.13958 0.17578
 C326 C 1.14353 0.12649 0.20288
 C327 C 1.12310 0.10995 0.18406
 C328 C 1.12818 0.10814 0.14001
 C329 C 1.16017 0.09733 0.13544
 C330 C 1.18060 0.11387 0.15426
 C331 C 1.14929 0.15602 0.14480
 C332 C 1.12887 0.13949 0.12599
 C333 C 1.18908 0.15730 0.19588
 C334 C 1.20762 0.17159 0.21211
 C335 C 1.10614 0.09054 0.11965
 C336 C 1.08773 0.07659 0.10265
 H337 H 1.14300 0.12991 0.23408
 H338 H 1.10506 0.09919 0.19913
 H339 H 1.16625 0.07837 0.11891
 H340 H 1.20419 0.10906 0.15385
 H341 H 1.15249 0.17865 0.13822
 H342 H 1.11457 0.14796 0.10327
 C343 C 1.15790 0.64505 0.68181
 C344 C 1.12571 0.65420 0.68986
 C345 C 1.10515 0.63815 0.67037
 C346 C 1.11889 0.61462 0.64484
 C347 C 1.13852 0.59693 0.67243
 C348 C 1.15901 0.61292 0.69186
 C349 C 1.16119 0.64644 0.63746
 C350 C 1.14069 0.63044 0.61803
 C351 C 1.18047 0.66186 0.70237
 C352 C 1.19997 0.67492 0.71856
 C353 C 1.09744 0.59692 0.62360
 C354 C 1.08118 0.58132 0.60552
 H355 H 1.11963 0.67169 0.70912
 H356 H 1.08143 0.64188 0.67291
 H357 H 1.13644 0.57386 0.67645
 H358 H 1.17450 0.60356 0.71250
 H359 H 1.17810 0.65895 0.62261
 H360 H 1.14003 0.62926 0.58652
 C361 C 0.65831 0.14584 0.67923
 C362 C 0.66460 0.11346 0.68075
 C363 C 0.64413 0.09735 0.66152
 C364 C 0.61934 0.11518 0.64263
 C365 C 0.63544 0.13698 0.61655
 C366 C 0.65594 0.15311 0.63581
 C367 C 0.62665 0.14921 0.69515
 C368 C 0.60610 0.13305 0.67585
 C369 C 0.68083 0.16273 0.69967
 C370 C 0.70026 0.17578 0.71596
 C371 C 0.59791 0.09733 0.62167
 C372 C 0.58167 0.08153 0.60392
 H373 H 0.68347 0.10399 0.69569
 H374 H 0.64546 0.07408 0.66000
 H375 H 0.63105 0.13957 0.58570
 H376 H 0.66914 0.16954 0.62148
 H377 H 0.62088 0.16307 0.71935
 H378 H 0.58271 0.13303 0.68348
 C379 C 0.66136 0.64206 0.17931
 C380 C 0.66822 0.60980 0.17764
 C381 C 0.64707 0.59418 0.15888
 C382 C 0.62109 0.61234 0.14359
 C383 C 0.63552 0.63554 0.11806
 C384 C 0.65669 0.65117 0.13684
 C385 C 0.63049 0.64412 0.19809
 C386 C 0.60927 0.62846 0.17927
 C387 C 0.68448 0.65868 0.19910
 C388 C 0.70404 0.67211 0.21460
 C389 C 0.59888 0.59513 0.12293
 C390 C 0.58201 0.58005 0.10502
 H391 H 0.68795 0.60006 0.19016
 H392 H 0.64868 0.57105 0.15533
 H393 H 0.62958 0.63941 0.08791
 H394 H 0.66889 0.66843 0.12278
 H395 H 0.62573 0.65676 0.22384
 H396 H 0.58633 0.62766 0.18887
 C397 C 0.83434 -0.13962 0.17584
 C398 C 0.83515 -0.14452 0.13175
 C399 C 0.85564 -0.12801 0.11302
 C400 C 0.87330 -0.10822 0.14022
 C401 C 0.88678 -0.12831 0.17099
 C402 C 0.86628 -0.14483 0.18973
 C403 C 0.82928 -0.10718 0.18073
 C404 C 0.84978 -0.09066 0.16199
 C405 C 0.81220 -0.15733 0.19582
 C406 C 0.79363 -0.17165 0.21194
 C407 C 0.89540 -0.09065 0.11994
 C408 C 0.91386 -0.07675 0.10296
 H409 H 0.82090 -0.15963 0.11658
 H410 H 0.85894 -0.12897 0.08180
 H411 H 0.91035 -0.12945 0.17749
 H412 H 0.87227 -0.16012 0.21228
 H413 H 0.81119 -0.09800 0.19746
 H414 H 0.84927 -0.06733 0.16264
 C415 C 0.84077 0.35535 0.68053
 C416 C 0.87275 0.35022 0.69451
 C417 C 0.89335 0.36631 0.67514
 C418 C 0.87987 0.38588 0.64375
 C419 C 0.85644 0.40389 0.66502
 C420 C 0.83591 0.38786 0.68433
 C421 C 0.84151 0.34963 0.63662
 C422 C 0.86206 0.36568 0.61728
 C423 C 0.81818 0.33846 0.70101
 C424 C 0.79871 0.32530 0.71719
 C425 C 0.90141 0.40362 0.62263
 C426 C 0.91781 0.41920 0.60467
 H427 H 0.87867 0.33529 0.71753
 H428 H 0.91693 0.36518 0.68153
 H429 H 0.85604 0.42723 0.66498
 H430 H 0.81793 0.39746 0.70083
 H431 H 0.82720 0.33427 0.62201
 H432 H 0.86536 0.36407 0.58611
 C433 C 0.34310 -0.14599 0.68092
 C434 C 0.34615 -0.15409 0.63788
 C435 C 0.36666 -0.13805 0.61847
 C436 C 0.38207 -0.11552 0.64403
 C437 C 0.39515 -0.13251 0.67830
 C438 C 0.37459 -0.14859 0.69776
 C439 C 0.33630 -0.11370 0.68094
 C440 C 0.35677 -0.09769 0.66156
 C441 C 0.32056 -0.16275 0.70147
 C442 C 0.30105 -0.17565 0.71778
 C443 C 0.40344 -0.09775 0.62290
 C444 C 0.41957 -0.08195 0.60497
 H445 H 0.33339 -0.17100 0.62393
 H446 H 0.37150 -0.14120 0.58786
 H447 H 0.41843 -0.13200 0.68650
 H448 H 0.38024 -0.16187 0.72266
 H449 H 0.31709 -0.10421 0.69501
 H450 H 0.35511 -0.07447 0.65903
 C451 C 0.33822 0.35727 0.17991
 C452 C 0.37002 0.35131 0.19401
 C453 C 0.39107 0.36714 0.17509
 C454 C 0.37817 0.38731 0.14400
 C455 C 0.35507 0.40561 0.16546
 C456 C 0.33408 0.38982 0.18433
 C457 C 0.33901 0.35199 0.13591
 C458 C 0.36000 0.36778 0.11703
 C459 C 0.31526 0.34048 0.19984
 C460 C 0.29582 0.32695 0.21548
 C461 C 0.40021 0.40469 0.12324
 C462 C 0.41698 0.41989 0.10528
 H463 H 0.37550 0.33603 0.21679
 H464 H 0.41459 0.36543 0.18163
 H465 H 0.35522 0.42895 0.16586
 H466 H 0.31625 0.39963 0.20088
 H467 H 0.32440 0.33711 0.12090
 H468 H 0.36338 0.36642 0.08585
 C469 C 0.83436 0.14006 -0.17508
 C470 C 0.86656 0.14925 -0.18272
 C471 C 0.88698 0.13270 -0.16388
 C472 C 0.87316 0.10860 -0.13926
 C473 C 0.85350 0.09161 -0.16753
 C474 C 0.83308 0.10816 -0.18638
 C475 C 0.83101 0.14040 -0.13070
 C476 C 0.85142 0.12385 -0.11186
 C477 C 0.81231 0.15779 -0.19521
 C478 C 0.79381 0.17210 -0.21148
 C479 C 0.89517 0.09098 -0.11890
 C480 C 0.91358 0.07700 -0.10192
 H481 H 0.87278 0.16716 -0.20129
 H482 H 0.91071 0.13643 -0.16630
 H483 H 0.85544 0.06862 -0.17232
 H484 H 0.81751 0.09936 -0.20734
 H485 H 0.81411 0.15257 -0.11541
 H486 H 0.85200 0.12183 -0.08042
 C487 C 0.84076 0.64490 0.31845
 C488 C 0.85514 0.62159 0.29319
 C489 C 0.87579 0.60555 0.31244
 C490 C 0.88003 0.61442 0.35504
 C491 C 0.84889 0.61281 0.37301
 C492 C 0.82828 0.62881 0.35380
 C493 C 0.86683 0.66267 0.33436
 C494 C 0.88751 0.64661 0.35364
 C495 C 0.81807 0.66178 0.29808
 C496 C 0.79854 0.67494 0.28202
 C497 C 0.90166 0.59671 0.37609
 C498 C 0.91809 0.58116 0.39408
 H499 H 0.84965 0.61803 0.26284
 H500 H 0.88800 0.58826 0.29858
 H501 H 0.84350 0.60021 0.39865
 H502 H 0.80524 0.62992 0.36298
 H503 H 0.86888 0.68578 0.33076
 H504 H 0.90729 0.65595 0.36655
 C505 C 0.34196 0.14591 0.32040
 C506 C 0.35544 0.12191 0.29547
 C507 C 0.37598 0.10573 0.31467
 C508 C 0.38099 0.11515 0.35690
 C509 C 0.35009 0.11449 0.37564
 C510 C 0.32959 0.13064 0.35647
 C511 C 0.36864 0.16336 0.33518
 C512 C 0.38921 0.14714 0.35443
 C513 C 0.31941 0.16285 0.30000
 C514 C 0.29994 0.17591 0.28373
 C515 C 0.40245 0.09724 0.37783
 C516 C 0.41870 0.08143 0.39561
 H517 H 0.34945 0.11802 0.26535
 H518 H 0.38759 0.08797 0.30102
 H519 H 0.34477 0.10241 0.40176
 H520 H 0.30672 0.13240 0.36616
 H521 H 0.37116 0.18636 0.33089
 H522 H 0.40937 0.15623 0.36663
 C523 C 0.33734 0.64248 -0.17986
 C524 C 0.35208 0.61989 -0.20595
 C525 C 0.37331 0.60411 -0.18742
 C526 C 0.37767 0.61251 -0.14466
 C527 C 0.34674 0.60989 -0.12628
 C528 C 0.32556 0.62563 -0.14477
 C529 C 0.36308 0.66067 -0.16389
 C530 C 0.38432 0.64487 -0.14534
 C531 C 0.31420 0.65924 -0.19934
 C532 C 0.29461 0.67282 -0.21455
 C533 C 0.39989 0.59516 -0.12429
 C534 C 0.41674 0.57994 -0.10656
 H535 H 0.34639 0.61662 -0.23630
 H536 H 0.38584 0.58731 -0.20188
 H537 H 0.34190 0.59680 -0.10089
 H538 H 0.30258 0.62603 -0.13525
 H539 H 0.36451 0.68386 -0.16693
 H540 H 0.40397 0.65451 -0.13248
 C541 C 1.16665 -0.13915 -0.17488
 C542 C 1.15921 -0.14983 -0.13380
 C543 C 1.13875 -0.13329 -0.11520
 C544 C 1.12777 -0.10771 -0.13950
 C545 C 1.11623 -0.12097 -0.17747
 C546 C 1.13670 -0.13752 -0.19609
 C547 C 1.17641 -0.10776 -0.16962
 C548 C 1.15594 -0.09121 -0.15100
 C549 C 1.18873 -0.15689 -0.19470
 C550 C 1.20725 -0.17127 -0.21068
 C551 C 1.10570 -0.09014 -0.11935
 C552 C 1.08724 -0.07629 -0.10246
 H553 H 1.16912 -0.16871 -0.12051
 H554 H 1.13113 -0.13800 -0.08593
 H555 H 1.09397 -0.11764 -0.18874
 H556 H 1.13200 -0.14838 -0.22331
 H557 H 1.19753 -0.09928 -0.17965
 H558 H 1.15950 -0.06855 -0.14506
 C559 C 1.15955 0.35583 0.31971
 C560 C 1.15343 0.34546 0.36133
 C561 C 1.13286 0.36159 0.38044
 C562 C 1.12041 0.38649 0.35606
 C563 C 1.10841 0.37240 0.31889
 C564 C 1.12902 0.35625 0.29974
 C565 C 1.16831 0.38754 0.32388
 C566 C 1.14777 0.40364 0.34296
 C567 C 1.18216 0.33884 0.29946
 C568 C 1.20160 0.32560 0.28343
 C569 C 1.09883 0.40429 0.37695
 C570 C 1.08239 0.41987 0.39479
 H571 H 1.16425 0.32703 0.37459
 H572 H 1.12605 0.35697 0.41007
 H573 H 1.08576 0.37486 0.30856
 H574 H 1.12403 0.34486 0.27301
 H575 H 1.18885 0.39659 0.31276
 H576 H 1.15073 0.42648 0.34817
 C577 C 0.65773 -0.14583 0.32029
 C578 C 0.65932 -0.11365 0.31074
 C579 C 0.63878 -0.09763 0.32991
 C580 C 0.61864 -0.11534 0.35679
 C581 C 0.63994 -0.13158 0.38388
 C582 C 0.66050 -0.14761 0.36469
 C583 C 0.62555 -0.15462 0.31137
 C584 C 0.60493 -0.13854 0.33061
 C585 C 0.68033 -0.16263 0.29993
 C586 C 0.69983 -0.17561 0.28374
 C587 C 0.59716 -0.09758 0.37773
 C588 C 0.58094 -0.08186 0.39556
 H589 H 0.67516 -0.10426 0.29059
 H590 H 0.63701 -0.07450 0.32619
 H591 H 0.63891 -0.13063 0.41538
 H592 H 0.67709 -0.16040 0.37973
 H593 H 0.61951 -0.17191 0.29173
 H594 H 0.58121 -0.14203 0.32750
 C595 C 0.66173 0.35832 -0.18022
 C596 C 0.66137 0.39013 -0.19202
 C597 C 0.64021 0.40579 -0.17336
 C598 C 0.62148 0.38810 -0.14473
 C599 C 0.64406 0.37404 -0.11721
 C600 C 0.66521 0.35839 -0.13586
 C601 C 0.62995 0.34757 -0.18760
 C602 C 0.60874 0.36326 -0.16890
 C603 C 0.68483 0.34167 -0.19989
 C604 C 0.70438 0.32822 -0.21530
 C605 C 0.59929 0.40534 -0.12422
 C606 C 0.58241 0.42045 -0.10643
 H607 H 0.67637 0.39953 -0.21322
 H608 H 0.63708 0.42862 -0.17860
 H609 H 0.64346 0.37614 -0.08579
 H610 H 0.68273 0.34709 -0.12043
 H611 H 0.62459 0.32928 -0.20587
 H612 H 0.58521 0.35844 -0.17112
 C613 C 1.14334 0.16015 -0.18257
 C614 C 1.12152 0.17193 -0.15232
 C615 C 1.10591 0.15113 -0.13337
 C616 C 1.11358 0.12048 -0.14644
 C617 C 1.14734 0.11799 -0.14108
 C618 C 1.16299 0.13885 -0.16008
 C619 C 1.12435 0.14139 -0.20961
 C620 C 1.10870 0.12054 -0.19062
 C621 C 1.15995 0.18296 -0.20268
 C622 C 1.17318 0.20229 -0.21855
 C623 C 1.09632 0.09852 -0.12553
 C624 C 1.08126 0.08173 -0.10738
 H625 H 1.11858 0.19465 -0.14629
 H626 H 1.08962 0.15608 -0.11113
 H627 H 1.15801 0.10131 -0.12396
 H628 H 1.18706 0.14001 -0.15921
 H629 H 1.12332 0.14421 -0.24092
 H630 H 1.09429 0.10550 -0.20567
 C631 C 1.13883 0.66689 0.32541
 C632 C 1.13908 0.63772 0.30461
 C633 C 1.12331 0.61692 0.32346
 C634 C 1.10880 0.62730 0.36130
 C635 C 1.09004 0.65343 0.34941
 C636 C 1.10581 0.67423 0.33055
 C637 C 1.15020 0.66053 0.36661
 C638 C 1.13444 0.63974 0.38546
 C639 C 1.15587 0.68935 0.30520
 C640 C 1.16988 0.70795 0.28892
 C641 C 1.09192 0.60480 0.38168
 C642 C 1.07838 0.58613 0.39846
 H643 H 1.15063 0.63376 0.27745
 H644 H 1.12136 0.59515 0.31243
 H645 H 1.06644 0.65541 0.35527
 H646 H 1.09571 0.69402 0.32027
 H647 H 1.16900 0.67141 0.37983
 H648 H 1.13974 0.63283 0.41482
 C649 C 0.63839 0.16575 0.32518
 C650 C 0.64538 0.13516 0.31130
 C651 C 0.62955 0.11443 0.33015
 C652 C 0.60827 0.12631 0.36104
 C653 C 0.58879 0.14816 0.33935
 C654 C 0.60462 0.16890 0.32049
 C655 C 0.64372 0.16514 0.36925
 C656 C 0.62789 0.14440 0.38810
 C657 C 0.65547 0.18809 0.30500
 C658 C 0.66951 0.20658 0.28865
 C659 C 0.59137 0.10390 0.38138
 C660 C 0.57789 0.08526 0.39816
 H661 H 0.66136 0.13022 0.28866
 H662 H 0.63197 0.09172 0.32364
 H663 H 0.56469 0.14740 0.33884
 H664 H 0.59409 0.18592 0.30383
 H665 H 0.65862 0.17971 0.38433
 H666 H 0.62922 0.14122 0.41932
 C667 C 0.64008 0.66409 -0.17798
 C668 C 0.64616 0.63337 -0.19210
 C669 C 0.63006 0.61293 -0.17299
 C670 C 0.60943 0.62519 -0.14159
 C671 C 0.59024 0.64753 -0.16280
 C672 C 0.60633 0.66796 -0.18191
 C673 C 0.64592 0.66323 -0.13402
 C674 C 0.62982 0.64281 -0.11491
 C675 C 0.65731 0.68625 -0.19851
 C676 C 0.67104 0.70483 -0.21521
 C677 C 0.59213 0.60313 -0.12092
 C678 C 0.57825 0.58486 -0.10383
 H679 H 0.66174 0.62812 -0.21508
 H680 H 0.63186 0.59019 -0.17962
 H681 H 0.56612 0.64732 -0.16282
 H682 H 0.59599 0.68524 -0.19829
 H683 H 0.66135 0.67742 -0.11920
 H684 H 0.63147 0.63952 -0.08373
 C685 C 0.85692 -0.15960 -0.18203
 C686 C 0.89068 -0.16258 -0.18645
 C687 C 0.90638 -0.14185 -0.16750
 C688 C 0.88683 -0.12007 -0.14591
 C689 C 0.86717 -0.13834 -0.11905
 C690 C 0.85148 -0.15908 -0.13800
 C691 C 0.84986 -0.12894 -0.19596
 C692 C 0.86559 -0.10815 -0.17695
 C693 C 0.84023 -0.18233 -0.20216
 C694 C 0.82694 -0.20157 -0.21806
 C695 C 0.90416 -0.09819 -0.12502
 C696 C 0.91929 -0.08145 -0.10691
 H697 H 0.90135 -0.17949 -0.20308
 H698 H 0.93048 -0.14102 -0.16793
 H699 H 0.86566 -0.13521 -0.08784
 H700 H 0.83654 -0.17370 -0.12302
 H701 H 0.83392 -0.12401 -0.21870
 H702 H 0.86313 -0.08543 -0.18342
 C703 C 0.86176 0.33408 0.32502
 C704 C 0.89552 0.33105 0.32031
 C705 C 0.91134 0.35186 0.33903
 C706 C 0.89184 0.37367 0.36065
 C707 C 0.87234 0.35550 0.38782
 C708 C 0.85654 0.33471 0.36910
 C709 C 0.85463 0.36465 0.31100
 C710 C 0.87044 0.38546 0.32972
 C711 C 0.84467 0.31162 0.30499
 C712 C 0.83062 0.29302 0.28889
 C713 C 0.90874 0.39615 0.38090
 C714 C 0.92222 0.41483 0.39766
 H715 H 0.90608 0.31407 0.30372
 H716 H 0.93543 0.35270 0.33848
 H717 H 0.87107 0.35869 0.41902
 H718 H 0.84173 0.32009 0.38429
 H719 H 0.83859 0.36954 0.28836
 H720 H 0.86793 0.40815 0.32309
 C721 C 0.36116 -0.16619 0.32619
 C722 C 0.39489 -0.16882 0.32075
 C723 C 0.41069 -0.14809 0.33964
 C724 C 0.39121 -0.12677 0.36212
 C725 C 0.37223 -0.14546 0.38926
 C726 C 0.35643 -0.16618 0.37037
 C727 C 0.35354 -0.13553 0.31301
 C728 C 0.36934 -0.11481 0.33189
 C729 C 0.34410 -0.18852 0.30593
 C730 C 0.33009 -0.20697 0.28950
 C731 C 0.40810 -0.10437 0.38248
 C732 C 0.42164 -0.08573 0.39919
 H733 H 0.40544 -0.18549 0.30357
 H734 H 0.43477 -0.14701 0.33864
 H735 H 0.37128 -0.14268 0.42055
 H736 H 0.34195 -0.18113 0.38551
 H737 H 0.33719 -0.13053 0.29080
 H738 H 0.36651 -0.09206 0.32584
 C739 C 0.35891 0.33584 -0.17727
 C740 C 0.39265 0.33225 -0.18158
 C741 C 0.40872 0.35270 -0.16253
 C742 C 0.38950 0.37477 -0.14101
 C743 C 0.36946 0.35685 -0.11420
 C744 C 0.35339 0.33640 -0.13325
 C745 C 0.35245 0.36658 -0.19117
 C746 C 0.36853 0.38704 -0.17211
 C747 C 0.34171 0.31366 -0.19774
 C748 C 0.32802 0.29505 -0.21440
 C749 C 0.40676 0.39684 -0.12042
 C750 C 0.42063 0.41514 -0.10340
 H751 H 0.40301 0.31515 -0.19816
 H752 H 0.43283 0.35310 -0.16280
 H753 H 0.36802 0.35995 -0.08299
 H754 H 0.33819 0.32200 -0.11834
 H755 H 0.33665 0.37183 -0.21395
 H756 H 0.36649 0.40980 -0.17861
 C757 C 1.14292 -0.16060 0.18298
 C758 C 1.14578 -0.16221 0.13859
 C759 C 1.13033 -0.14137 0.11946
 C760 C 1.11347 -0.12088 0.14653
 C761 C 1.13716 -0.10902 0.17437
 C762 C 1.15266 -0.12992 0.19355
 C763 C 1.10939 -0.16134 0.19088
 C764 C 1.09393 -0.14050 0.17175
 C765 C 1.15935 -0.18343 0.20328
 C766 C 1.17246 -0.20274 0.21930
 C767 C 1.09640 -0.09888 0.12545
 C768 C 1.08145 -0.08204 0.10724
 H769 H 1.15886 -0.17830 0.12349
 H770 H 1.13019 -0.13962 0.08798
 H771 H 1.14139 -0.08627 0.17863
 H772 H 1.17016 -0.12505 0.21425
 H773 H 1.09872 -0.17686 0.20991
 H774 H 1.07003 -0.13818 0.17442
 C775 C 1.13875 0.33404 0.67491
 C776 C 1.10526 0.33296 0.68324
 C777 C 1.08944 0.35376 0.66443
 C778 C 1.10862 0.37363 0.63911
 C779 C 1.12546 0.35340 0.61165
 C780 C 1.14127 0.33262 0.63045
 C781 C 1.14825 0.36473 0.68555
 C782 C 1.13243 0.38553 0.66675
 C783 C 1.15585 0.31158 0.69507
 C784 C 1.16988 0.29297 0.71130
 C785 C 1.09169 0.39611 0.61876
 C786 C 1.07813 0.41477 0.60195
 H787 H 1.09489 0.31724 0.70225
 H788 H 1.06553 0.35584 0.66734
 H789 H 1.12499 0.35524 0.58020
 H790 H 1.15434 0.31667 0.61508
 H791 H 1.16586 0.36971 0.70605
 H792 H 1.13650 0.40829 0.67117
 C793 C 0.63851 -0.16655 0.67500
 C794 C 0.60480 -0.17160 0.67532
 C795 C 0.58908 -0.15079 0.65642
 C796 C 0.60859 -0.12695 0.63904
 C797 C 0.63097 -0.14266 0.61299
 C798 C 0.64668 -0.16346 0.63189
 C799 C 0.64274 -0.13640 0.69221
 C800 C 0.62703 -0.11559 0.67332
 C801 C 0.65547 -0.18899 0.69527
 C802 C 0.66939 -0.20756 0.71169
 C803 C 0.59178 -0.10445 0.61864
 C804 C 0.57832 -0.08576 0.60185
 H805 H 0.59421 -0.18991 0.68918
 H806 H 0.56503 -0.15127 0.65409
 H807 H 0.63418 -0.13787 0.58239
 H808 H 0.66335 -0.17648 0.61746
 H809 H 0.65684 -0.13180 0.71706
 H810 H 0.62767 -0.09317 0.68199
 C811 C 0.64080 0.33700 0.17622
 C812 C 0.60719 0.33140 0.17680
 C813 C 0.59105 0.35174 0.15759
 C814 C 0.61008 0.37570 0.13966
 C815 C 0.63266 0.36010 0.11380
 C816 C 0.64880 0.33976 0.13301
 C817 C 0.64456 0.36739 0.19283
 C818 C 0.62841 0.38773 0.17362
 C819 C 0.65805 0.31495 0.19684
 C820 C 0.67176 0.29643 0.21363
 C821 C 0.59275 0.39764 0.11893
 C822 C 0.57880 0.41583 0.10182
 H823 H 0.59696 0.31307 0.19106
 H824 H 0.56701 0.35082 0.15541
 H825 H 0.63571 0.36462 0.08309
 H826 H 0.66568 0.32688 0.11875
 H827 H 0.65866 0.37248 0.21750
 H828 H 0.62868 0.41025 0.18185
 C829 C 0.85763 0.15902 0.18272
 C830 C 0.85673 0.16198 0.13830
 C831 C 0.87235 0.14124 0.11935
 C832 C 0.88739 0.11951 0.14661
 C833 C 0.86220 0.10758 0.17203
 C834 C 0.84654 0.12837 0.19104
 C835 C 0.89077 0.15854 0.19315
 C836 C 0.90640 0.13780 0.17419
 C837 C 0.84105 0.18175 0.20280
 C838 C 0.82786 0.20104 0.21860
 C839 C 0.90465 0.09767 0.12572
 C840 C 0.91977 0.08103 0.10758
 H841 H 0.84480 0.17887 0.12305
 H842 H 0.87378 0.14038 0.08787
 H843 H 0.85713 0.08485 0.17486
 H844 H 0.82804 0.12345 0.21015
 H845 H 0.90106 0.17318 0.21370
 H846 H 0.93007 0.13469 0.17853
 C847 C 0.86045 0.66578 0.67439
 C848 C 0.85572 0.63545 0.69093
 C849 C 0.87157 0.61474 0.67214
 C850 C 0.89063 0.62635 0.63860
 C851 C 0.91004 0.64984 0.65697
 C852 C 0.89419 0.67055 0.67576
 C853 C 0.85294 0.66325 0.63098
 C854 C 0.86879 0.64255 0.61220
 C855 C 0.84332 0.68816 0.69454
 C856 C 0.82929 0.70671 0.71076
 C857 C 0.90762 0.60395 0.61827
 C858 C 0.92123 0.58537 0.60149
 H859 H 0.84120 0.63066 0.71528
 H860 H 0.87061 0.59222 0.68042
 H861 H 0.93412 0.65017 0.65536
 H862 H 0.90470 0.68861 0.69024
 H863 H 0.83660 0.67656 0.61629
 H864 H 0.86602 0.63815 0.58143
 C865 C 0.36189 0.16568 0.67502
 C866 C 0.36155 0.16895 0.63061
 C867 C 0.37736 0.14827 0.61173
 C868 C 0.39196 0.12633 0.63908
 C869 C 0.36641 0.11438 0.66384
 C870 C 0.35061 0.13506 0.68273
 C871 C 0.39492 0.16503 0.68616
 C872 C 0.41073 0.14434 0.66726
 C873 C 0.34483 0.18798 0.69527
 C874 C 0.33084 0.20643 0.71167
 C875 C 0.40885 0.10397 0.61869
 C876 C 0.42235 0.08537 0.60189
 H877 H 0.34993 0.18601 0.61533
 H878 H 0.37926 0.14763 0.58028
 H879 H 0.36118 0.09166 0.66633
 H880 H 0.33186 0.13005 0.70138
 H881 H 0.40500 0.17954 0.70704
 H882 H 0.43434 0.14114 0.67196
 C883 C 0.35857 0.66303 0.17624
 C884 C 0.35708 0.66600 0.13183
 C885 C 0.37308 0.64568 0.11252
 C886 C 0.38903 0.62434 0.13948
 C887 C 0.36445 0.61181 0.16541
 C888 C 0.34845 0.63214 0.18472
 C889 C 0.39186 0.66341 0.18600
 C890 C 0.40786 0.64309 0.16669
 C891 C 0.34145 0.68506 0.19700
 C892 C 0.32781 0.70353 0.21390
 C893 C 0.40622 0.60241 0.11864
 C894 C 0.42011 0.58422 0.10151
 H895 H 0.34455 0.68260 0.11686
 H896 H 0.37425 0.64489 0.08102
 H897 H 0.36001 0.58896 0.16833
 H898 H 0.33031 0.62671 0.20417
 H899 H 0.40197 0.67834 0.20631
 H900 H 0.43166 0.64061 0.17046
   
