data_POSCAR
  _audit_creation_date              2014-09-24
  _audit_creation_method            'ToBaCCo'
  _symmetry_space_group_name_H-M    'P1'
  _symmetry_Int_Tables_number       1
  _symmetry_cell_setting            triclinic
  loop_
  _symmetry_equiv_pos_as_xyz
 x,y,z
_cell_length_a 29.1896
_cell_length_b 29.1588
_cell_length_c 49.0614
_cell_angle_alpha 89.853100
_cell_angle_beta 90.504000
_cell_angle_gamma 90.705600
loop_
  _atom_site_label
  _atom_site_type_symbol
  _atom_site_fract_x
  _atom_site_fract_y
  _atom_site_fract_z
C1 C -0.00488 0.64312 1.01371
 C2 C -0.00218 0.64319 0.98585
 C3 C -0.00110 0.59761 0.97775
 N4 N -0.00293 0.56993 0.99987
 C5 C -0.00517 0.59755 1.02189
 C6 C 0.00009 0.58273 0.95030
 C7 C -0.00099 0.53617 0.94192
 C8 C -0.00707 0.52192 0.91511
 C9 C -0.00698 0.47486 0.91531
 C10 C -0.00080 0.46126 0.94219
 N11 N 0.00355 0.49888 0.95821
 C12 C 0.00063 0.41490 0.95086
 C13 C 0.00064 0.40012 0.97834
 C14 C 0.00078 0.35455 0.98653
 C15 C -0.00088 0.35450 1.01442
 C16 C -0.00190 0.40008 1.02252
 N17 N -0.00099 0.42774 1.00038
 C18 C -0.00223 0.41499 1.04998
 C19 C -0.00209 0.46156 1.05835
 C20 C 0.00378 0.47593 1.08514
 C21 C 0.00264 0.52297 1.08495
 C22 C -0.00382 0.53644 1.05806
 N23 N -0.00747 0.49876 1.04205
 C24 C -0.00588 0.58276 1.04937
 H25 H -0.00610 0.67330 1.02647
 H26 H -0.00141 0.67342 0.97300
 H27 H -0.01643 0.49840 1.02160
 H28 H -0.01172 0.54325 0.89723
 H29 H -0.01151 0.45313 0.89761
 H30 H 0.00173 0.32437 0.97376
 H31 H -0.00105 0.32427 1.02727
 H32 H 0.00682 0.54477 1.10265
 H33 H 0.01254 0.49913 0.97866
 H34 H 0.00893 0.45471 1.10302
 C35 C 0.64567 0.00503 0.51192
 C36 C 0.64444 0.00251 0.48405
 C37 C 0.59855 0.00248 0.47632
 N38 N 0.57194 0.00476 0.49868
 C39 C 0.60054 0.00627 0.52048
 C40 C 0.58247 0.00192 0.44898
 C41 C 0.53566 0.00369 0.44102
 C42 C 0.52050 0.01047 0.41440
 C43 C 0.47350 0.01072 0.41499
 C44 C 0.46085 0.00407 0.44192
 N45 N 0.49896 -0.00092 0.45757
 C46 C 0.41488 0.00270 0.45095
 C47 C 0.40132 0.00268 0.47855
 C48 C 0.35619 0.00254 0.48719
 C49 C 0.35749 0.00435 0.51510
 C50 C 0.40338 0.00546 0.52271
 N51 N 0.42997 0.00446 0.50032
 C52 C 0.41948 0.00604 0.54998
 C53 C 0.46624 0.00561 0.55799
 C54 C 0.48134 0.00003 0.58468
 C55 C 0.52836 0.00045 0.58416
 C56 C 0.54102 0.00624 0.55715
 N57 N 0.50290 0.01018 0.54142
 C58 C 0.58697 0.00729 0.54809
 H59 H 0.67639 0.00553 0.52444
 H60 H 0.67404 0.00119 0.47095
 H61 H 0.50203 0.01866 0.52094
 H62 H 0.54119 0.01532 0.39640
 H63 H 0.45119 0.01577 0.39753
 H64 H 0.32544 0.00151 0.47472
 H65 H 0.32793 0.00459 0.52826
 H66 H 0.55067 -0.00378 0.60170
 H67 H 0.49979 -0.01049 0.47790
 H68 H 0.46064 -0.00455 0.60271
 C69 C 0.08839 0.00311 0.26255
 H70 H 0.09181 0.00317 0.24061
 C71 C 0.12748 0.00405 0.27918
 H72 H 0.16096 0.00425 0.26987
 C73 C 0.04042 0.00216 0.30125
 H74 H 0.00650 0.00224 0.30984
 C75 C 0.07853 0.00306 0.31863
 H76 H 0.07338 0.00381 0.34045
 N77 N 0.04595 0.00135 0.27376
 C78 C -0.04192 -0.06301 0.21201
 H79 H -0.06920 -0.03828 0.21083
 C80 C -0.04344 -0.10193 0.19549
 H81 H -0.07182 -0.10659 0.18137
 C82 C 0.02870 -0.08615 0.23147
 H83 H 0.05646 -0.08027 0.24577
 C84 C 0.02856 -0.12554 0.21533
 H85 H 0.05636 -0.14957 0.21743
 Zn86 Zn -0.00555 -0.00074 0.24997
 N87 N -0.00577 -0.05538 0.22914
 C88 C -0.00019 0.04615 0.19925
 N89 N -0.00183 0.05122 0.22678
 C90 C 0.00038 0.09347 0.23844
 C91 C 0.00274 0.13286 0.22221
 C92 C 0.00228 0.08456 0.18228
 C93 C -0.06919 -0.03666 0.28684
 C94 C -0.10834 -0.03773 0.30299
 C95 C -0.13008 0.03529 0.28381
 C96 C -0.09050 0.03496 0.26802
 N97 N -0.06053 -0.00024 0.27023
 H98 H -0.00081 0.01235 0.19033
 H99 H -0.00003 0.09651 0.26041
 H100 H 0.00440 0.16620 0.23186
 H101 H 0.00250 0.07977 0.16041
 H102 H -0.04509 -0.06451 0.28792
 H103 H -0.11380 -0.06635 0.31673
 H104 H -0.15344 0.06369 0.28185
 H105 H -0.08380 0.06296 0.25413
 C106 C -0.00760 -0.13358 0.19681
 C107 C 0.12280 0.00360 0.30765
 C108 C -0.13915 -0.00114 0.30183
 C109 C 0.00347 0.12867 0.19371
 C110 C 0.00194 0.09185 0.76223
 H111 H 0.00232 0.09542 0.74028
 C112 C 0.00092 0.13085 0.77869
 H113 H 0.00108 0.16444 0.76924
 C114 C 0.00190 0.04358 0.80115
 H115 H 0.00146 0.00957 0.80988
 C116 C 0.00089 0.08158 0.81835
 H117 H -0.00029 0.07626 0.84018
 N118 N 0.00327 0.04932 0.77365
 C119 C 0.06853 -0.03723 0.71320
 H120 H 0.04381 -0.06513 0.71202
 C121 C 0.10764 -0.03788 0.69703
 H122 H 0.11245 -0.06622 0.68317
 C123 C 0.09142 0.03409 0.73228
 H124 H 0.08534 0.06180 0.74629
 C125 C 0.13099 0.03483 0.71649
 H126 H 0.15497 0.06327 0.71854
 Zn127 Zn 0.00568 -0.00213 0.75019
 N128 N 0.06067 -0.00115 0.72995
 C129 C -0.04000 0.00194 0.69891
 N130 N -0.04573 0.00042 0.72639
 C131 C -0.08820 0.00183 0.73752
 C132 C -0.12716 0.00316 0.72080
 C133 C -0.07797 0.00325 0.68146
 C134 C 0.04081 -0.06510 0.78776
 C135 C 0.04153 -0.10425 0.80418
 C136 C -0.03131 -0.12751 0.78460
 C137 C -0.03063 -0.08789 0.76854
 N138 N 0.00466 -0.05718 0.77080
 H139 H -0.00603 0.00231 0.69041
 H140 H -0.09177 0.00135 0.75945
 H141 H -0.16071 0.00310 0.73003
 H142 H -0.07264 0.00458 0.65966
 H143 H 0.06872 -0.04040 0.78889
 H144 H 0.06994 -0.10914 0.81818
 H145 H -0.05976 -0.15147 0.78259
 H146 H -0.05842 -0.08174 0.75439
 C147 C 0.13925 -0.00122 0.69832
 C148 C 0.00085 0.12598 0.80718
 C149 C 0.00486 -0.13585 0.80295
 C150 C -0.12231 0.00344 0.69233
 C151 C -0.04809 -0.23576 0.15475
 C152 C -0.00726 -0.24910 0.14249
 C153 C 0.03355 -0.22534 0.14839
 C154 C 0.03353 -0.18814 0.16630
 C155 C -0.00645 -0.38206 0.07024
 C156 C -0.04820 -0.19853 0.17267
 C157 C -0.00735 -0.28633 0.12328
 C158 C -0.00722 -0.31701 0.10687
 C159 C -0.00686 -0.35236 0.08728
 C160 C -0.00741 -0.17413 0.17854
 H161 H -0.07988 -0.25394 0.15034
 H162 H 0.06530 -0.23522 0.13890
 H163 H 0.06536 -0.16969 0.17008
 H164 H -0.08015 -0.18895 0.18202
 C165 C -0.02154 0.24662 0.16459
 C166 C 0.00497 0.24665 0.14096
 C167 C 0.03192 0.20869 0.13495
 C168 C 0.03196 0.17060 0.15230
 C169 C -0.00074 0.38183 0.06989
 C170 C -0.02152 0.20855 0.18200
 C171 C 0.00355 0.28488 0.12237
 C172 C 0.00223 0.31620 0.10631
 C173 C 0.00062 0.35200 0.08694
 C174 C 0.00495 0.16994 0.17591
 H175 H -0.04268 0.27575 0.16937
 H176 H 0.05262 0.20837 0.11673
 H177 H 0.05318 0.14168 0.14726
 H178 H -0.04307 0.20887 0.19985
 C179 C 0.23092 0.04211 0.64995
 C180 C 0.25460 0.00181 0.64440
 C181 C 0.24137 -0.03933 0.65699
 C182 C 0.20426 -0.04029 0.67483
 C183 C 0.38535 0.00501 0.57131
 C184 C 0.19385 0.04125 0.66778
 C185 C 0.29145 0.00249 0.62509
 C186 C 0.32169 0.00320 0.60852
 C187 C 0.35637 0.00416 0.58867
 C188 C 0.17988 -0.00004 0.68030
 H189 H 0.24072 0.07410 0.64019
 H190 H 0.25947 -0.07073 0.65284
 H191 H 0.19471 -0.07247 0.68440
 H192 H 0.17541 0.07266 0.67125
 C193 C -0.20192 -0.02232 0.63263
 C194 C -0.23968 0.00475 0.63875
 C195 C -0.23939 0.03112 0.66256
 C196 C -0.20137 0.03058 0.68012
 C197 C -0.37698 0.00714 0.56865
 C198 C -0.16390 -0.02289 0.65011
 C199 C -0.27828 0.00581 0.62032
 C200 C -0.31000 0.00643 0.60444
 C201 C -0.34645 0.00690 0.58536
 C202 C -0.16309 0.00369 0.67402
 H203 H -0.20182 -0.04295 0.61429
 H204 H -0.26840 0.05232 0.66745
 H205 H -0.20158 0.05179 0.69820
 H206 H -0.13529 -0.04447 0.64506
 C207 C 0.04332 -0.23836 0.84483
 C208 C 0.00236 -0.25169 0.85736
 C209 C -0.03795 -0.22792 0.85162
 C210 C -0.03726 -0.19066 0.83363
 C211 C 0.00046 -0.38414 0.93036
 C212 C 0.04410 -0.20108 0.82685
 C213 C 0.00189 -0.28884 0.87674
 C214 C 0.00144 -0.31941 0.89332
 C215 C 0.00089 -0.35459 0.91312
 C216 C 0.00385 -0.17661 0.82117
 H217 H 0.07472 -0.25655 0.84913
 H218 H -0.06980 -0.23780 0.86131
 H219 H -0.06867 -0.17216 0.83000
 H220 H 0.07615 -0.19148 0.81733
 C221 C 0.02785 0.20545 0.86643
 C222 C 0.00094 0.24342 0.86002
 C223 C -0.02572 0.24333 0.83616
 C224 C -0.02563 0.20528 0.81883
 C225 C 0.00026 0.37965 0.93003
 C226 C 0.02797 0.16742 0.84918
 C227 C 0.00029 0.28196 0.87827
 C228 C 0.00006 0.31352 0.89408
 C229 C 0.00008 0.34960 0.91319
 C230 C 0.00108 0.16679 0.82523
 H231 H 0.04869 0.20519 0.88481
 H232 H -0.04682 0.27249 0.83106
 H233 H -0.04705 0.20563 0.80071
 H234 H 0.04942 0.13864 0.85446
 C235 C -0.24222 -0.04042 0.34289
 C236 C -0.25461 0.00041 0.35565
 C237 C -0.23006 0.04090 0.35029
 C238 C -0.19295 0.04053 0.33249
 C239 C -0.38527 0.00155 0.42878
 C240 C -0.20509 -0.04089 0.32508
 C241 C -0.29147 0.00055 0.37494
 C242 C -0.32171 0.00081 0.39151
 C243 C -0.35634 0.00119 0.41139
 C244 C -0.17982 -0.00046 0.31981
 H245 H -0.26101 -0.07197 0.34689
 H246 H -0.23919 0.07265 0.36017
 H247 H -0.17383 0.07207 0.32918
 H248 H -0.19619 -0.07285 0.31538
 C249 C 0.20233 -0.02391 0.36690
 C250 C 0.24072 0.00330 0.36082
 C251 C 0.24084 0.03041 0.33723
 C252 C 0.20261 0.03043 0.31983
 C253 C 0.37880 0.00324 0.43042
 C254 C 0.16410 -0.02392 0.34956
 C255 C 0.27958 0.00371 0.37909
 C256 C 0.31151 0.00377 0.39483
 C257 C 0.34816 0.00357 0.41378
 C258 C 0.16372 0.00337 0.32586
 H259 H 0.20190 -0.04510 0.38507
 H260 H 0.27034 0.05173 0.33239
 H261 H 0.20317 0.05217 0.30191
 H262 H 0.13500 -0.04563 0.35456
   
