data_POSCAR
  _audit_creation_date              2014-09-24
  _audit_creation_method            'ToBaCCo'
  _symmetry_space_group_name_H-M    'P1'
  _symmetry_Int_Tables_number       1
  _symmetry_cell_setting            triclinic
  loop_
  _symmetry_equiv_pos_as_xyz
 x,y,z
_cell_length_a 31.6165
_cell_length_b 33.2576
_cell_length_c 32.7038
_cell_angle_alpha 87.212900
_cell_angle_beta 93.816400
_cell_angle_gamma 94.072700
loop_
  _atom_site_label
  _atom_site_type_symbol
  _atom_site_fract_x
  _atom_site_fract_y
  _atom_site_fract_z
C1 C 0.32169 0.28294 0.23716
 H2 H 0.33224 0.26432 0.26332
 C3 C 0.35161 0.30647 0.21546
 H4 H 0.38487 0.30563 0.22548
 C5 C 0.26555 0.30816 0.19406
 H6 H 0.23182 0.30882 0.18617
 C7 C 0.29451 0.33159 0.17085
 H8 H 0.28263 0.34939 0.14454
 N9 N 0.27964 0.28318 0.22543
 C10 C 0.16294 0.27791 0.27205
 H11 H 0.14903 0.25703 0.24985
 C12 C 0.13698 0.30328 0.29006
 H13 H 0.10312 0.30099 0.28216
 C14 C 0.22390 0.30674 0.30879
 H15 H 0.25797 0.30828 0.31527
 C16 C 0.19907 0.33270 0.32759
 H17 H 0.21429 0.35429 0.34856
 Zn18 Zn 0.24057 0.24826 0.25397
 N19 N 0.20553 0.28006 0.28163
 C20 C 0.26878 0.21148 0.33176
 N21 N 0.27075 0.21304 0.29028
 C22 C 0.29357 0.18709 0.27140
 C23 C 0.31590 0.15823 0.29426
 C24 C 0.29086 0.18294 0.35597
 C25 C 0.20859 0.21742 0.17650
 C26 C 0.18498 0.18961 0.15197
 C27 C 0.15951 0.15521 0.21330
 C28 C 0.18288 0.18407 0.23658
 N29 N 0.20694 0.21430 0.21803
 H30 H 0.24979 0.23195 0.34604
 H31 H 0.29426 0.18887 0.23833
 H32 H 0.33436 0.13832 0.27851
 H33 H 0.28879 0.18170 0.38893
 H34 H 0.22882 0.24077 0.16227
 H35 H 0.18692 0.19202 0.11899
 H36 H 0.14100 0.13096 0.22851
 H37 H 0.18264 0.18198 0.26968
 C38 C 0.15502 0.33136 0.31800
 C39 C 0.33836 0.33028 0.18092
 C40 C 0.16056 0.15782 0.17051
 C41 C 0.31460 0.15569 0.33711
 C42 C 0.82147 0.79919 0.23700
 H43 H 0.83188 0.77883 0.26175
 C44 C 0.85169 0.82087 0.21401
 H45 H 0.88474 0.81718 0.22301
 C46 C 0.76589 0.83040 0.19868
 H47 H 0.73219 0.83351 0.19257
 C48 C 0.79499 0.85240 0.17441
 H49 H 0.78221 0.87129 0.14945
 N50 N 0.77937 0.80284 0.22780
 C51 C 0.66004 0.79482 0.27477
 H52 H 0.64590 0.77349 0.25311
 C53 C 0.63398 0.81829 0.29530
 H54 H 0.59985 0.81428 0.28959
 C55 C 0.72155 0.82580 0.30868
 H56 H 0.75581 0.82871 0.31342
 C57 C 0.69672 0.84981 0.32989
 H58 H 0.71219 0.87141 0.35072
 Zn59 Zn 0.73890 0.76736 0.25443
 N60 N 0.70296 0.79870 0.28205
 C61 C 0.76602 0.73316 0.33332
 N62 N 0.76794 0.73192 0.29195
 C63 C 0.79153 0.70508 0.27525
 C64 C 0.81563 0.67906 0.30033
 C65 C 0.78975 0.70762 0.35964
 C66 C 0.71337 0.74084 0.17450
 C67 C 0.69264 0.71527 0.14592
 C68 C 0.65997 0.67677 0.20130
 C69 C 0.68093 0.70355 0.22888
 N70 N 0.70722 0.73478 0.21518
 H71 H 0.74649 0.75417 0.34604
 H72 H 0.79232 0.70459 0.24225
 H73 H 0.83524 0.65891 0.28627
 H74 H 0.78809 0.70913 0.39249
 H75 H 0.73503 0.76497 0.16391
 H76 H 0.69783 0.72123 0.11375
 H77 H 0.64037 0.65139 0.21308
 H78 H 0.67713 0.69883 0.26143
 C79 C 0.65226 0.84617 0.32342
 C80 C 0.83895 0.84675 0.18056
 C81 C 0.66604 0.68222 0.15911
 C82 C 0.81526 0.68030 0.34318
 C83 C 0.83672 0.30188 0.73593
 H84 H 0.84895 0.28962 0.76518
 C85 C 0.86440 0.32411 0.71057
 H86 H 0.89769 0.32840 0.72058
 C87 C 0.77853 0.31285 0.68833
 H88 H 0.74509 0.30897 0.67979
 C89 C 0.80514 0.33526 0.66195
 H90 H 0.79178 0.34741 0.63300
 N91 N 0.79471 0.29585 0.72419
 C92 C 0.69634 0.28050 0.81232
 H93 H 0.69097 0.24801 0.81489
 C94 C 0.67199 0.30487 0.83368
 H95 H 0.64752 0.29090 0.85236
 C96 C 0.73432 0.33816 0.78411
 H97 H 0.75889 0.35097 0.76499
 C98 C 0.71070 0.36363 0.80482
 H99 H 0.71753 0.39595 0.80157
 Zn100 Zn 0.75930 0.26370 0.76001
 N101 N 0.72680 0.29745 0.78822
 C102 C 0.79463 0.23620 0.83889
 N103 N 0.79514 0.23427 0.79754
 C104 C 0.82120 0.20995 0.78058
 C105 C 0.84591 0.18423 0.80515
 C106 C 0.81956 0.21140 0.86493
 C107 C 0.69305 0.23870 0.70068
 C108 C 0.66939 0.21093 0.67594
 C109 C 0.70269 0.15707 0.71500
 C110 C 0.72565 0.18574 0.73879
 N111 N 0.72215 0.22589 0.73016
 H112 H 0.77408 0.25620 0.85180
 H113 H 0.82191 0.20986 0.74755
 H114 H 0.86670 0.16639 0.78969
 H115 H 0.81609 0.21257 0.89749
 H116 H 0.68835 0.27045 0.69597
 H117 H 0.64789 0.22185 0.65140
 H118 H 0.70677 0.12537 0.72201
 H119 H 0.74650 0.17551 0.76395
 C120 C 0.67903 0.34706 0.83001
 C121 C 0.84883 0.34066 0.67271
 C122 C 0.67513 0.16953 0.68222
 C123 C 0.84492 0.18342 0.84841
 C124 C 0.32769 0.78032 0.73731
 H125 H 0.33925 0.76185 0.76309
 C126 C 0.35688 0.80406 0.71483
 H127 H 0.39041 0.80320 0.72374
 C128 C 0.27038 0.80587 0.69629
 H129 H 0.23668 0.80767 0.68992
 C130 C 0.29852 0.82977 0.67259
 H131 H 0.28582 0.84827 0.64719
 N132 N 0.28527 0.78046 0.72696
 C133 C 0.16752 0.76587 0.78054
 H134 H 0.15474 0.74048 0.76316
 C135 C 0.14017 0.78823 0.80063
 H136 H 0.10642 0.77974 0.79855
 C137 C 0.22713 0.80697 0.80544
 H138 H 0.26113 0.81397 0.80705
 C139 C 0.20093 0.83010 0.82611
 H140 H 0.21497 0.85529 0.84323
 Zn141 Zn 0.24678 0.74477 0.75651
 N142 N 0.21009 0.77557 0.78328
 C143 C 0.27428 0.71525 0.83694
 N144 N 0.27864 0.71324 0.79596
 C145 C 0.30615 0.68850 0.78153
 C146 C 0.33062 0.66457 0.80853
 C147 C 0.29846 0.69191 0.86516
 C148 C 0.19089 0.72456 0.68710
 C149 C 0.16813 0.69880 0.65973
 C150 C 0.19069 0.64201 0.70228
 C151 C 0.21313 0.66881 0.72869
 N152 N 0.21388 0.70934 0.72027
 H153 H 0.25205 0.73486 0.84783
 H154 H 0.30910 0.68752 0.74883
 H155 H 0.35267 0.64548 0.79633
 H156 H 0.29452 0.69362 0.89765
 H157 H 0.18990 0.75666 0.68169
 H158 H 0.15126 0.71164 0.63287
 H159 H 0.19071 0.60993 0.70967
 H160 H 0.22966 0.65697 0.75609
 C161 C 0.15680 0.82082 0.82381
 C162 C 0.34256 0.82846 0.68120
 C163 C 0.16840 0.65686 0.66681
 C164 C 0.32693 0.66602 0.85095
 C165 C 0.03349 -0.03950 -0.03655
 C166 C 0.05829 -0.00868 -0.00904
 C167 C 0.03330 0.01527 0.00988
 C168 C -0.01447 0.00678 -0.00038
 C169 C 0.00211 -0.06243 -0.00868
 C170 C -0.02282 -0.03845 0.01056
 C171 C 0.00607 -0.01325 -0.06612
 C172 C -0.01968 0.01052 -0.04753
 H173 H 0.09263 -0.00485 -0.00594
 H174 H -0.03423 0.02624 0.01590
 H175 H 0.00023 -0.09500 -0.00449
 H176 H 0.00963 -0.01096 -0.09881
 C177 C 0.02758 0.47399 0.45140
 C178 C 0.05319 0.50614 0.47646
 C179 C 0.02953 0.52836 0.49901
 C180 C -0.01861 0.51743 0.49303
 C181 C 0.00071 0.44958 0.48242
 C182 C -0.02337 0.47199 0.50432
 C183 C -0.00456 0.49800 0.42472
 C184 C -0.02902 0.52038 0.44634
 H185 H 0.08748 0.51034 0.47663
 H186 H -0.03822 0.53566 0.51088
 H187 H 0.00003 0.41698 0.48569
 H188 H -0.00716 0.49901 0.39163
 C189 C 0.53129 -0.02310 0.47492
 C190 C 0.55738 0.00672 0.50265
 C191 C 0.53405 0.02734 0.52722
 C192 C 0.48584 0.01688 0.52061
 C193 C 0.50419 -0.04974 0.50402
 C194 C 0.48029 -0.02918 0.52795
 C195 C 0.49959 0.00332 0.45052
 C196 C 0.47566 0.02401 0.47428
 H197 H 0.59144 0.01200 0.50134
 H198 H 0.46618 0.03345 0.53991
 H199 H 0.50277 -0.08237 0.50400
 H200 H 0.49807 0.00809 0.41756
 C201 C 0.53537 0.46289 -0.02602
 C202 C 0.55978 0.49496 -0.00002
 C203 C 0.53482 0.51831 0.02001
 C204 C 0.48695 0.50726 0.01193
 C205 C 0.50631 0.43895 0.00362
 C206 C 0.48130 0.46196 0.02400
 C207 C 0.50419 0.48606 -0.05460
 C208 C 0.47896 0.50933 -0.03499
 H209 H 0.59413 0.49716 0.00380
 H210 H 0.46629 0.52636 0.02755
 H211 H 0.50362 0.40632 0.00601
 H212 H 0.50080 0.48293 -0.08744
 C213 C 0.08934 -0.14421 -0.17420
 C214 C 0.12824 -0.15486 -0.15480
 C215 C 0.13977 -0.14198 -0.11501
 C216 C 0.11314 -0.11828 -0.09514
 C217 C 0.07443 -0.10733 -0.11518
 C218 C 0.06264 -0.12074 -0.15455
 C219 C 0.04830 -0.08283 -0.09576
 C220 C 0.06090 -0.06768 -0.05696
 C221 C 0.09842 -0.08081 -0.03646
 C222 C 0.12446 -0.10546 -0.05550
 H223 H 0.16932 -0.15060 -0.09943
 H224 H 0.03304 -0.11264 -0.17038
 H225 H 0.01820 -0.07566 -0.11110
 H226 H 0.15357 -0.11433 -0.03925
 H227 H 0.07989 -0.15343 -0.20497
 H228 H 0.10788 -0.07194 -0.00561
 C229 C 0.09549 0.37765 0.31229
 C230 C 0.12803 0.35949 0.33638
 C231 C 0.13445 0.36820 0.37805
 C232 C 0.10854 0.39442 0.39549
 C233 C 0.07587 0.41239 0.37103
 C234 C 0.06966 0.40383 0.32943
 C235 C 0.04968 0.43835 0.38852
 C236 C 0.05580 0.44701 0.43037
 C237 C 0.08823 0.42832 0.45434
 C238 C 0.11441 0.40257 0.43712
 H239 H 0.15907 0.35400 0.39707
 H240 H 0.04484 0.41738 0.31013
 H241 H 0.02434 0.45074 0.36927
 H242 H 0.13908 0.38882 0.45647
 H243 H 0.09028 0.37191 0.27997
 H244 H 0.09316 0.43361 0.48679
 C245 C 0.58942 -0.11192 0.32556
 C246 C 0.62520 -0.12861 0.34575
 C247 C 0.63500 -0.12106 0.38741
 C248 C 0.60958 -0.09714 0.40851
 C249 C 0.57386 -0.08040 0.38783
 C250 C 0.56400 -0.08808 0.34638
 C251 C 0.54843 -0.05644 0.40893
 C252 C 0.55855 -0.04825 0.45054
 C253 C 0.59361 -0.06625 0.47087
 C254 C 0.61902 -0.09007 0.45008
 H255 H 0.66205 -0.13426 0.40358
 H256 H 0.53673 -0.07550 0.32997
 H257 H 0.52049 -0.04517 0.39277
 H258 H 0.64595 -0.10310 0.46661
 H259 H 0.58139 -0.11683 0.29340
 H260 H 0.60137 -0.06190 0.50317
 C261 C 0.63877 0.40914 -0.16772
 C262 C 0.65328 0.37370 -0.14805
 C263 C 0.64295 0.36384 -0.10743
 C264 C 0.61803 0.38874 -0.08696
 C265 C 0.60325 0.42399 -0.10724
 C266 C 0.61408 0.43409 -0.14750
 C267 C 0.57757 0.44841 -0.08713
 C268 C 0.56492 0.43743 -0.04734
 C269 C 0.58195 0.40341 -0.02676
 C270 C 0.60781 0.37912 -0.04647
 H271 H 0.65455 0.33698 -0.09166
 H272 H 0.60302 0.46102 -0.16354
 H273 H 0.56757 0.47591 -0.10272
 H274 H 0.61966 0.35269 -0.03008
 H275 H 0.64590 0.41723 -0.19911
 H276 H 0.57520 0.39534 0.00470
 C277 C -0.12067 0.16328 -0.08550
 C278 C -0.13281 0.15644 -0.12725
 C279 C -0.12129 0.12005 -0.14303
 C280 C -0.09791 0.09251 -0.11884
 C281 C -0.08487 0.10076 -0.07792
 C282 C -0.09671 0.13607 -0.06146
 C283 C -0.05998 0.07371 -0.05432
 C284 C -0.04814 0.03829 -0.07120
 C285 C -0.06319 0.02972 -0.11155
 C286 C -0.08752 0.05662 -0.13516
 H287 H -0.13216 0.11148 -0.17365
 H288 H -0.08700 0.14295 -0.03003
 H289 H -0.04928 0.08095 -0.02330
 H290 H -0.09799 0.04940 -0.16634
 H291 H -0.12714 0.19074 -0.07142
 H292 H -0.05625 0.00211 -0.12514
 C293 C -0.13479 0.66890 0.40520
 C294 C -0.15768 0.65389 0.37016
 C295 C -0.15281 0.61405 0.35968
 C296 C -0.12423 0.59016 0.38265
 C297 C -0.10049 0.60586 0.41716
 C298 C -0.10653 0.64507 0.42854
 C299 C -0.07036 0.58247 0.43892
 C300 C -0.06318 0.54397 0.42601
 C301 C -0.08793 0.52835 0.39234
 C302 C -0.11823 0.55114 0.37096
 H303 H -0.17080 0.60182 0.33320
 H304 H -0.08867 0.65766 0.45490
 H305 H -0.05141 0.59486 0.46471
 H306 H -0.13639 0.53852 0.34477
 H307 H -0.13767 0.69956 0.41380
 H308 H -0.08367 0.49841 0.38235
 C309 C 0.33936 0.08581 0.34700
 C310 C 0.33844 0.12487 0.36145
 C311 C 0.36231 0.13483 0.39783
 C312 C 0.38827 0.10673 0.41839
 C313 C 0.39006 0.06810 0.40263
 C314 C 0.36489 0.05769 0.36738
 C315 C 0.41779 0.04085 0.42175
 C316 C 0.44401 0.05168 0.45640
 C317 C 0.44109 0.08963 0.47256
 C318 C 0.41349 0.11697 0.45375
 H319 H 0.36208 0.16490 0.40916
 H320 H 0.36557 0.02807 0.35510
 H321 H 0.41942 0.01139 0.40934
 H322 H 0.41258 0.14643 0.46630
 H323 H 0.32061 0.07713 0.31951
 H324 H 0.46129 0.09885 0.49878
 C325 C 0.37414 0.65661 -0.08481
 C326 C 0.35299 0.64059 -0.12019
 C327 C 0.35843 0.60048 -0.12918
 C328 C 0.38599 0.57718 -0.10431
 C329 C 0.40826 0.59387 -0.06949
 C330 C 0.40157 0.63344 -0.05965
 C331 C 0.43762 0.57107 -0.04591
 C332 C 0.44532 0.53213 -0.05722
 C333 C 0.42183 0.51548 -0.09108
 C334 C 0.39242 0.53775 -0.11437
 H335 H 0.34168 0.58759 -0.15599
 H336 H 0.41824 0.64676 -0.03305
 H337 H 0.45565 0.58420 -0.01990
 H338 H 0.37528 0.52438 -0.14071
 H339 H 0.37055 0.68750 -0.07735
 H340 H 0.42639 0.48516 -0.09979
 C341 C -0.09181 -0.15253 0.14956
 C342 C -0.13100 -0.13527 0.15325
 C343 C -0.13971 -0.10080 0.12766
 C344 C -0.11090 -0.08495 0.09908
 C345 C -0.07239 -0.10319 0.09595
 C346 C -0.06303 -0.13665 0.12153
 C347 C -0.04384 -0.08787 0.06711
 C348 C -0.05323 -0.05444 0.04098
 C349 C -0.09146 -0.03615 0.04453
 C350 C -0.12003 -0.05124 0.07334
 H351 H -0.16830 -0.08533 0.13022
 H352 H -0.03370 -0.15118 0.11930
 H353 H -0.01406 -0.10177 0.06540
 H354 H -0.14944 -0.03676 0.07521
 H355 H -0.08361 -0.17980 0.16665
 H356 H -0.09966 -0.01058 0.02456
 C357 C -0.08184 0.34764 0.63935
 C358 C -0.12176 0.36230 0.64420
 C359 C -0.13358 0.39702 0.62108
 C360 C -0.10611 0.41647 0.59318
 C361 C -0.06627 0.40111 0.58844
 C362 C -0.05433 0.36690 0.61183
 C363 C -0.03917 0.41988 0.56001
 C364 C -0.05136 0.45371 0.53577
 C365 C -0.09071 0.46922 0.54115
 C366 C -0.11786 0.45077 0.56963
 H367 H -0.16404 0.40894 0.62487
 H368 H -0.02393 0.35470 0.60847
 H369 H -0.00854 0.40809 0.55678
 H370 H -0.14828 0.46299 0.57284
 H371 H -0.07217 0.32066 0.65626
 H372 H -0.10102 0.49498 0.52258
 C373 C 0.41153 -0.16546 0.64678
 C374 C 0.37344 -0.14867 0.65478
 C375 C 0.36483 -0.11058 0.63662
 C376 C 0.39350 -0.08996 0.61056
 C377 C 0.43159 -0.10726 0.60298
 C378 C 0.44040 -0.14488 0.62141
 C379 C 0.46008 -0.08694 0.57672
 C380 C 0.45082 -0.04971 0.55711
 C381 C 0.41285 -0.03270 0.56494
 C382 C 0.38458 -0.05252 0.59158
 H383 H 0.33598 -0.09687 0.64279
 H384 H 0.46935 -0.15870 0.61572
 H385 H 0.48951 -0.10021 0.57165
 H386 H 0.35542 -0.03885 0.59683
 H387 H 0.41876 -0.19503 0.65949
 H388 H 0.40434 -0.00451 0.54976
 C389 C 0.40863 0.33435 0.14908
 C390 C 0.37026 0.35182 0.15468
 C391 C 0.36234 0.38903 0.13407
 C392 C 0.39195 0.40798 0.10790
 C393 C 0.43030 0.38999 0.10290
 C394 C 0.43846 0.35340 0.12384
 C395 C 0.45965 0.40842 0.07648
 C396 C 0.45094 0.44421 0.05377
 C397 C 0.41282 0.46212 0.05912
 C398 C 0.38371 0.44430 0.08615
 H399 H 0.33326 0.40325 0.13829
 H400 H 0.46760 0.33905 0.12005
 H401 H 0.48929 0.39464 0.07356
 H402 H 0.35440 0.45850 0.08944
 H403 H 0.41536 0.30532 0.16351
 H404 H 0.40485 0.48933 0.04171
 C405 C 0.14503 0.08558 0.15456
 C406 C 0.13801 0.12634 0.14546
 C407 C 0.11020 0.13687 0.11200
 C408 C 0.08972 0.10686 0.08761
 C409 C 0.09794 0.06596 0.09634
 C410 C 0.12538 0.05561 0.13002
 C411 C 0.07891 0.03613 0.07100
 C412 C 0.05119 0.04655 0.03753
 C413 C 0.04213 0.08694 0.02968
 C414 C 0.06147 0.11700 0.05441
 H415 H 0.10447 0.16832 0.10516
 H416 H 0.13185 0.02441 0.13723
 H417 H 0.08566 0.00481 0.07716
 H418 H 0.05470 0.14814 0.04733
 H419 H 0.16653 0.07705 0.18018
 H420 H 0.02124 0.09538 0.00361
 C421 C 0.16603 0.59355 0.62809
 C422 C 0.14674 0.62866 0.63695
 C423 C 0.10730 0.63676 0.61667
 C424 C 0.08761 0.61019 0.58792
 C425 C 0.10753 0.57510 0.57945
 C426 C 0.14659 0.56699 0.59976
 C427 C 0.08821 0.54864 0.55069
 C428 C 0.04923 0.55672 0.52964
 C429 C 0.02936 0.59143 0.53859
 C430 C 0.04839 0.61798 0.56744
 H431 H 0.09179 0.66345 0.62350
 H432 H 0.16233 0.54026 0.59346
 H433 H 0.10344 0.52141 0.54516
 H434 H 0.03257 0.64470 0.57356
 H435 H 0.19668 0.58688 0.64260
 H436 H -0.00057 0.59846 0.52290
 C437 C 0.67657 0.10758 0.64196
 C438 C 0.65391 0.13941 0.65416
 C439 C 0.61145 0.14228 0.63912
 C440 C 0.59198 0.11373 0.61231
 C441 C 0.61519 0.08202 0.60027
 C442 C 0.65741 0.07915 0.61538
 C443 C 0.59597 0.05374 0.57317
 C444 C 0.55374 0.05676 0.55721
 C445 C 0.53076 0.08804 0.57023
 C446 C 0.54968 0.11625 0.59734
 H447 H 0.59347 0.16639 0.64860
 H448 H 0.67574 0.05509 0.60638
 H449 H 0.61403 0.02921 0.56497
 H450 H 0.53123 0.14020 0.60640
 H451 H 0.70950 0.10500 0.65251
 H452 H 0.49826 0.09142 0.55933
 C453 C 0.66868 0.64352 0.09534
 C454 C 0.64634 0.65296 0.12907
 C455 C 0.60556 0.63402 0.13389
 C456 C 0.58758 0.60614 0.10558
 C457 C 0.61032 0.59743 0.07170
 C458 C 0.65075 0.61635 0.06683
 C459 C 0.59253 0.56960 0.04344
 C460 C 0.55253 0.54938 0.04890
 C461 C 0.53019 0.55827 0.08278
 C462 C 0.54740 0.58655 0.11068
 H463 H 0.58766 0.64113 0.15941
 H464 H 0.66880 0.60975 0.04122
 H465 H 0.60999 0.56378 0.01720
 H466 H 0.52956 0.59262 0.13659
 H467 H 0.70049 0.65668 0.09119
 H468 H 0.49980 0.54271 0.08850
   
