data_POSCAR
  _audit_creation_date              2014-09-24
  _audit_creation_method            'ToBaCCo'
  _symmetry_space_group_name_H-M    'P1'
  _symmetry_Int_Tables_number       1
  _symmetry_cell_setting            triclinic
  loop_
  _symmetry_equiv_pos_as_xyz
 x,y,z
_cell_length_a 33.2666
_cell_length_b 22.9199
_cell_length_c 34.7585
_cell_angle_alpha 82.695100
_cell_angle_beta 97.823700
_cell_angle_gamma 87.625400
loop_
  _atom_site_label
  _atom_site_type_symbol
  _atom_site_fract_x
  _atom_site_fract_y
  _atom_site_fract_z
C1 C 0.58771 0.65837 0.58109
 C2 C 0.61655 0.63435 0.56079
 C3 C 0.64752 0.59517 0.58078
 C4 C 0.65026 0.58027 0.62152
 C5 C 0.62181 0.60444 0.64172
 C6 C 0.59029 0.64373 0.62134
 C7 C 0.55554 0.69918 0.56918
 N8 N 0.53878 0.70949 0.60115
 C9 C 0.55962 0.67629 0.63337
 C10 C 0.63435 0.58724 0.68115
 N11 N 0.66931 0.55339 0.68483
 C12 C 0.67970 0.54894 0.64898
 C13 C 0.67312 0.58341 0.55431
 N14 N 0.65828 0.61495 0.51916
 C15 C 0.62401 0.64644 0.52268
 H16 H 0.54520 0.72022 0.53960
 H17 H 0.55303 0.67602 0.66304
 H18 H 0.62059 0.60111 0.70525
 H19 H 0.70763 0.52760 0.64351
 H20 H 0.70172 0.55738 0.56069
 H21 H 0.60715 0.67810 0.49980
 C22 C 0.94709 0.33777 0.13032
 C23 C 0.90661 0.33234 0.11442
 C24 C 0.87523 0.34600 0.13489
 C25 C 0.88415 0.36571 0.17161
 C26 C 0.92427 0.37179 0.18703
 C27 C 0.95590 0.35747 0.16645
 C28 C 0.98327 0.33052 0.11587
 N29 N 1.01325 0.34525 0.14259
 C30 C 0.99739 0.36197 0.17358
 C31 C 0.92390 0.39801 0.22042
 N32 N 0.88464 0.40743 0.22567
 C33 C 0.85999 0.38780 0.19633
 C34 C 0.83922 0.34258 0.11049
 N35 N 0.84854 0.32743 0.07610
 C36 C 0.88938 0.32114 0.07806
 H37 H 0.98748 0.31637 0.08805
 H38 H 1.01459 0.37679 0.19890
 H39 H 0.95002 0.41168 0.23850
 H40 H 0.82712 0.39268 0.19205
 H41 H 0.80891 0.35391 0.11629
 H42 H 0.90525 0.31241 0.05400
 C43 C 0.40653 0.13268 -0.08821
 C44 C 0.37462 0.10592 -0.07153
 C45 C 0.34712 0.07559 -0.09393
 C46 C 0.35061 0.07269 -0.13336
 C47 C 0.38173 0.09988 -0.15008
 C48 C 0.40995 0.12980 -0.12730
 C49 C 0.43700 0.16643 -0.07385
 N50 N 0.45842 0.18377 -0.10329
 C51 C 0.44222 0.16214 -0.13617
 C52 C 0.37451 0.09663 -0.18977
 N53 N 0.34008 0.06792 -0.19689
 C54 C 0.32496 0.05336 -0.16300
 C55 C 0.31762 0.05820 -0.07151
 N56 N 0.32637 0.07793 -0.03648
 C57 C 0.36103 0.10722 -0.03587
 H58 H 0.44305 0.17785 -0.04443
 H59 H 0.45311 0.16934 -0.16426
 H60 H 0.39108 0.11740 -0.21201
 H61 H 0.29596 0.03442 -0.16063
 H62 H 0.29062 0.03585 -0.08064
 H63 H 0.37428 0.12963 -0.01203
 C64 C 0.04248 0.89908 0.38243
 C65 C 0.08303 0.90058 0.39955
 C66 C 0.11417 0.89393 0.37744
 C67 C 0.10517 0.88588 0.33798
 C68 C 0.06504 0.88444 0.32092
 C69 C 0.03350 0.89107 0.34330
 C70 C 0.00629 0.90191 0.39737
 N71 N -0.02390 0.89617 0.36811
 C72 C -0.00810 0.88918 0.33501
 C73 C 0.06543 0.87706 0.28219
 N74 N 0.10473 0.87386 0.27609
 C75 C 0.12938 0.87941 0.30953
 C76 C 0.15029 0.89634 0.40158
 N77 N 0.14146 0.90436 0.43757
 C78 C 0.10065 0.90713 0.43686
 H79 H 0.00227 0.90583 0.42735
 H80 H -0.02538 0.88130 0.30762
 H81 H 0.03937 0.87561 0.26005
 H82 H 0.16219 0.88009 0.31256
 H83 H 0.18057 0.89236 0.39370
 H84 H 0.08516 0.91300 0.46167
 N85 N 0.15663 0.21851 0.13250
 N86 N 0.12620 0.19108 0.14563
 C87 C 0.09662 0.23098 0.14932
 C88 C 0.10978 0.28616 0.13831
 C89 C 0.14789 0.27715 0.12802
 H90 H 0.06770 0.22068 0.15861
 H91 H 0.16701 0.31026 0.11659
 Cu92 Cu 0.12794 0.10578 0.15596
 Cu93 Cu 0.20339 0.17500 0.11909
 Cu94 Cu 0.18336 0.03194 0.10284
 N95 N 0.13527 0.02051 0.16558
 N96 N 0.15555 -0.00884 0.14346
 C97 C 0.15520 -0.06706 0.15554
 C98 C 0.13417 -0.07375 0.18718
 C99 C 0.12193 -0.01767 0.19306
 H100 H 0.17042 -0.10141 0.14325
 H101 H 0.10504 -0.00559 0.21564
 N102 N 0.22567 0.07623 0.07978
 N103 N 0.23532 0.12896 0.08832
 C104 C 0.26590 0.14704 0.06884
 C105 C 0.27536 0.10368 0.04697
 C106 C 0.24943 0.05942 0.05427
 H107 H 0.27847 0.18982 0.06871
 H108 H 0.24751 0.01873 0.04160
 H109 H 0.16208 0.12061 0.09796
 H110 H 0.19718 0.08747 0.14257
 N111 N 0.39908 0.85136 0.60413
 N112 N 0.40408 0.84983 0.64266
 C113 C 0.43871 0.81771 0.65820
 C114 C 0.45590 0.79861 0.62775
 C115 C 0.43030 0.82045 0.59394
 H116 H 0.45012 0.80844 0.68913
 H117 H 0.43326 0.81249 0.56442
 Cu118 Cu 0.36509 0.88999 0.66991
 Cu119 Cu 0.35009 0.88672 0.56934
 Cu120 Cu 0.27785 0.94270 0.61427
 N121 N 0.33165 0.95389 0.68416
 N122 N 0.29802 0.97557 0.66145
 C123 C 0.28154 1.02006 0.67701
 C124 C 0.30599 1.02592 0.71134
 C125 C 0.33755 0.98338 0.71547
 H126 H 0.25384 1.04588 0.66443
 H127 H 0.36294 0.97507 0.73886
 N128 N 0.26511 0.91993 0.56235
 N129 N 0.29386 0.89927 0.54432
 C130 C 0.27756 0.88937 0.50827
 C131 C 0.23650 0.90397 0.50410
 C132 C 0.22926 0.92327 0.53870
 H133 H 0.29423 0.87226 0.48709
 H134 H 0.20047 0.93893 0.54594
 H135 H 0.35156 0.93547 0.61628
 H136 H 0.32958 0.86179 0.62131
 N137 N 0.84523 0.75481 0.37899
 N138 N 0.87901 0.73397 0.36856
 C139 C 0.90528 0.77692 0.36612
 C140 C 0.88651 0.82715 0.37532
 C141 C 0.84852 0.81214 0.38321
 H142 H 0.93536 0.77214 0.35794
 H143 H 0.82534 0.84021 0.39184
 Cu144 Cu 0.88496 0.65375 0.35712
 Cu145 Cu 0.80007 0.70529 0.38689
 Cu146 Cu 0.81879 0.55619 0.38452
 N147 N 0.87889 0.58113 0.33415
 N148 N 0.85176 0.54360 0.34354
 C149 C 0.85272 0.49909 0.32167
 C150 C 0.88238 0.50991 0.29786
 C151 C 0.89857 0.56169 0.30649
 H152 H 0.83364 0.46201 0.32321
 H153 H 0.92204 0.58431 0.29299
 N154 N 0.77575 0.58695 0.41129
 N155 N 0.76699 0.64404 0.40994
 C156 C 0.73789 0.65181 0.43252
 C157 C 0.72850 0.59695 0.44896
 C158 C 0.75303 0.55670 0.43528
 H159 H 0.72723 0.69398 0.43937
 H160 H 0.75566 0.50946 0.44364
 H161 H 0.83983 0.63359 0.40606
 H162 H 0.81262 0.63760 0.35496
 N163 N 0.60065 0.30861 -0.10263
 N164 N 0.59825 0.31498 -0.14125
 C165 C 0.56437 0.29118 -0.15653
 C166 C 0.54474 0.26900 -0.12600
 C167 C 0.56822 0.28040 -0.09216
 H168 H 0.55523 0.28902 -0.18736
 H169 H 0.56305 0.26712 -0.06233
 Cu170 Cu 0.63971 0.35225 -0.16954
 Cu171 Cu 0.64805 0.33130 -0.06797
 Cu172 Cu 0.72551 0.37812 -0.11412
 N173 N 0.67590 0.41085 -0.18826
 N174 N 0.70968 0.42093 -0.16629
 C175 C 0.72911 0.46279 -0.18598
 C176 C 0.70613 0.47943 -0.22202
 C177 C 0.67254 0.44585 -0.22292
 H178 H 0.75760 0.47987 -0.17487
 H179 H 0.64771 0.44680 -0.24663
 N180 N 0.73328 0.35077 -0.05838
 N181 N 0.70268 0.33479 -0.03986
 C182 C 0.71596 0.32330 -0.00107
 C183 C 0.75706 0.33170 0.00440
 C184 C 0.76726 0.34909 -0.03233
 H185 H 0.69717 0.31028 0.02124
 H186 H 0.79664 0.36176 -0.03934
 H187 H 0.65158 0.38740 -0.11939
 H188 H 0.67150 0.30923 -0.11582
 N189 N 0.05112 0.34362 0.13891
 N190 N 0.08738 0.34150 0.13506
 N191 N 0.50461 0.74804 0.59986
 N192 N 0.49149 0.76028 0.63078
 N193 N 0.93878 0.89012 0.37255
 N194 N 0.90312 0.88337 0.37704
 N195 N 0.49255 0.21778 -0.09959
 N196 N 0.50934 0.23585 -0.12931
 N197 N 0.11681 -0.12747 0.24270
 N198 N 0.12894 -0.12784 0.21081
 N199 N 0.69287 0.53756 -0.28278
 N200 N 0.71586 0.52318 -0.25183
 N201 N 0.31963 1.06774 0.76907
 N202 N 0.29913 1.06845 0.73672
 N203 N 0.87129 0.43983 0.25369
 N204 N 0.89431 0.47596 0.26923
 N205 N 0.30048 0.07374 -0.00770
 N206 N 0.30258 0.10797 0.01848
 N207 N 0.67882 0.62326 0.48639
 N208 N 0.70531 0.58508 0.48044
 N209 N 0.82152 0.32773 0.04135
 N210 N 0.78323 0.32784 0.04092
 N211 N 0.16972 0.90856 0.47083
 N212 N 0.20762 0.89940 0.47045
   
