data_POSCAR
  _audit_creation_date              2014-09-24
  _audit_creation_method            'ToBaCCo'
  _symmetry_space_group_name_H-M    'P1'
  _symmetry_Int_Tables_number       1
  _symmetry_cell_setting            triclinic
  loop_
  _symmetry_equiv_pos_as_xyz
 x,y,z
_cell_length_a 45.1862
_cell_length_b 35.3208
_cell_length_c 31.8563
_cell_angle_alpha 90.169100
_cell_angle_beta 90.034200
_cell_angle_gamma 90.120300
loop_
  _atom_site_label
  _atom_site_type_symbol
  _atom_site_fract_x
  _atom_site_fract_y
  _atom_site_fract_z
C1 C 0.24950 0.27012 0.24924
 C2 C 0.24940 0.23151 0.24922
 C3 C 0.22728 0.20935 0.22484
 C4 C 0.27142 0.20941 0.27357
 C5 C 0.27322 0.29221 0.27047
 C6 C 0.22590 0.29220 0.22804
 C7 C 0.20984 0.18210 0.24524
 C8 C 0.18864 0.16140 0.22290
 C9 C 0.18480 0.16751 0.17978
 C10 C 0.20252 0.19421 0.15907
 C11 C 0.22376 0.21489 0.18145
 C12 C 0.27497 0.21512 0.31697
 C13 C 0.29615 0.19453 0.33928
 C14 C 0.31374 0.16778 0.31853
 C15 C 0.30989 0.16146 0.27547
 C16 C 0.28876 0.18205 0.25313
 C17 C 0.30319 0.28637 0.26058
 C18 C 0.32529 0.30661 0.28171
 C19 C 0.31765 0.33315 0.31259
 C20 C 0.28782 0.33969 0.32189
 C21 C 0.26571 0.31945 0.30083
 C22 C 0.23356 0.31934 0.19779
 C23 C 0.21156 0.33962 0.17681
 C24 C 0.18169 0.33321 0.18609
 C25 C 0.17391 0.30675 0.21685
 C26 C 0.19590 0.28648 0.23790
 H27 H 0.21237 0.17728 0.27861
 H28 H 0.17520 0.14080 0.23941
 H29 H 0.19996 0.19917 0.12569
 H30 H 0.23740 0.23526 0.16501
 H31 H 0.26142 0.23558 0.33346
 H32 H 0.29885 0.19951 0.37264
 H33 H 0.28622 0.17708 0.21975
 H34 H 0.30941 0.26600 0.23671
 H35 H 0.34830 0.30147 0.27411
 H36 H 0.28166 0.36023 0.34564
 H37 H 0.24274 0.32451 0.30871
 H38 H 0.25655 0.32432 0.18993
 H39 H 0.21783 0.36010 0.15315
 H40 H 0.15087 0.30171 0.22443
 H41 H 0.18957 0.26619 0.26169
 H42 H 0.32332 0.14077 0.25913
 C43 C 0.75006 0.22838 0.24962
 C44 C 0.75001 0.26699 0.24961
 C45 C 0.77207 0.28916 0.22530
 C46 C 0.72791 0.28909 0.27391
 C47 C 0.72636 0.20626 0.27068
 C48 C 0.77382 0.20636 0.22858
 C49 C 0.78938 0.31665 0.24573
 C50 C 0.81051 0.33734 0.22342
 C51 C 0.81439 0.33098 0.18039
 C52 C 0.79684 0.30409 0.15963
 C53 C 0.77566 0.28339 0.18192
 C54 C 0.72435 0.28354 0.31730
 C55 C 0.70314 0.30419 0.33959
 C56 C 0.68553 0.33082 0.31884
 C57 C 0.68938 0.33696 0.27579
 C58 C 0.71053 0.31632 0.25347
 C59 C 0.69640 0.21194 0.26063
 C60 C 0.67431 0.19172 0.28164
 C61 C 0.68195 0.16537 0.31254
 C62 C 0.71178 0.15897 0.32198
 C63 C 0.73389 0.17919 0.30104
 C64 C 0.76638 0.17905 0.19823
 C65 C 0.78853 0.15891 0.17732
 C66 C 0.81835 0.16564 0.18678
 C67 C 0.82591 0.19224 0.21767
 C68 C 0.80376 0.21238 0.23865
 H69 H 0.78681 0.32167 0.27909
 H70 H 0.82392 0.35815 0.23976
 H71 H 0.79956 0.29908 0.12629
 H72 H 0.76213 0.26283 0.16543
 H73 H 0.73793 0.26320 0.33379
 H74 H 0.70045 0.29936 0.37294
 H75 H 0.71309 0.32117 0.22011
 H76 H 0.69017 0.23218 0.23675
 H77 H 0.65130 0.19676 0.27394
 H78 H 0.71795 0.13857 0.34575
 H79 H 0.75685 0.17424 0.30904
 H80 H 0.74342 0.17385 0.19021
 H81 H 0.78243 0.13832 0.15356
 H82 H 0.84891 0.19754 0.22540
 H83 H 0.80994 0.23281 0.26253
 H84 H 0.67593 0.35757 0.25945
 C85 C 0.75047 0.77301 0.75050
 C86 C 0.75040 0.73439 0.75047
 C87 C 0.72822 0.71221 0.72622
 C88 C 0.77249 0.71230 0.77469
 C89 C 0.77428 0.79511 0.77151
 C90 C 0.72675 0.79504 0.72950
 C91 C 0.71087 0.68491 0.74671
 C92 C 0.68965 0.66417 0.72444
 C93 C 0.68572 0.67030 0.68141
 C94 C 0.70330 0.69701 0.66061
 C95 C 0.72456 0.71775 0.68285
 C96 C 0.77619 0.71803 0.81807
 C97 C 0.79738 0.69736 0.84027
 C98 C 0.81485 0.67054 0.81942
 C99 C 0.81087 0.66423 0.77639
 C100 C 0.78973 0.68489 0.75416
 C101 C 0.80420 0.78923 0.76137
 C102 C 0.82641 0.80940 0.78235
 C103 C 0.81894 0.83593 0.81335
 C104 C 0.78911 0.84252 0.82286
 C105 C 0.76691 0.82233 0.80193
 C106 C 0.73423 0.82214 0.69912
 C107 C 0.71210 0.84225 0.67821
 C108 C 0.68228 0.83571 0.68770
 C109 C 0.67468 0.80934 0.71864
 C110 C 0.69680 0.78923 0.73962
 H111 H 0.71349 0.68007 0.78006
 H112 H 0.67623 0.64350 0.74081
 H113 H 0.70053 0.70183 0.62727
 H114 H 0.73812 0.73816 0.66632
 H115 H 0.76271 0.73852 0.83462
 H116 H 0.80018 0.70233 0.87361
 H117 H 0.78708 0.67990 0.72080
 H118 H 0.81030 0.76886 0.73743
 H119 H 0.84938 0.80413 0.77449
 H120 H 0.78298 0.86303 0.84668
 H121 H 0.74398 0.82742 0.80999
 H122 H 0.75719 0.82718 0.69107
 H123 H 0.71823 0.86266 0.65442
 H124 H 0.65168 0.80419 0.72638
 H125 H 0.69061 0.76897 0.76351
 H126 H 0.82422 0.64348 0.75998
 C127 C 0.24951 0.72838 0.75096
 C128 C 0.24949 0.76699 0.75087
 C129 C 0.27157 0.78909 0.72653
 C130 C 0.22740 0.78916 0.77511
 C131 C 0.22582 0.70631 0.77211
 C132 C 0.27321 0.70629 0.72988
 C133 C 0.28893 0.81655 0.74695
 C134 C 0.31009 0.83718 0.72461
 C135 C 0.31395 0.83078 0.68158
 C136 C 0.29635 0.80392 0.66085
 C137 C 0.27515 0.78329 0.68315
 C138 C 0.22382 0.78372 0.81850
 C139 C 0.20262 0.80444 0.84074
 C140 C 0.18503 0.83108 0.81990
 C141 C 0.18891 0.83710 0.77681
 C142 C 0.21005 0.81637 0.75458
 C143 C 0.19586 0.71197 0.76208
 C144 C 0.17377 0.69176 0.78311
 C145 C 0.18143 0.66539 0.81405
 C146 C 0.21129 0.65904 0.82347
 C147 C 0.23337 0.67927 0.80249
 C148 C 0.26568 0.67898 0.69956
 C149 C 0.28777 0.65877 0.67861
 C150 C 0.31761 0.66543 0.68798
 C151 C 0.32526 0.69203 0.71883
 C152 C 0.30317 0.71224 0.73986
 H153 H 0.28637 0.82159 0.78030
 H154 H 0.32353 0.85796 0.74094
 H155 H 0.29906 0.79888 0.62751
 H156 H 0.26158 0.76275 0.66668
 H157 H 0.23738 0.76339 0.83505
 H158 H 0.19998 0.79962 0.87412
 H159 H 0.21262 0.82113 0.72121
 H160 H 0.18962 0.73219 0.73818
 H161 H 0.15077 0.69684 0.77533
 H162 H 0.21756 0.63866 0.84723
 H163 H 0.25634 0.67435 0.81046
 H164 H 0.24271 0.67383 0.69161
 H165 H 0.28160 0.63818 0.65487
 H166 H 0.34828 0.69727 0.72648
 H167 H 0.30941 0.73267 0.76370
 H168 H 0.17551 0.85768 0.76029
 O169 O 1.03080 -0.04835 -0.00418
 O170 O 0.97331 0.00411 0.05334
 O171 O 0.97316 -0.04799 -0.00486
 O172 O 1.03096 0.00433 0.05305
 O173 O 1.03107 0.04836 0.00382
 O174 O 0.97337 -0.00388 -0.05398
 O175 O 0.97342 0.04822 0.00422
 O176 O 1.03101 -0.00433 -0.05340
 Cu177 Cu 1.00200 -0.02642 0.02930
 Cu178 Cu 1.00220 0.02654 -0.02980
 C179 C 1.04066 -0.03519 -0.03843
 C180 C 0.96369 0.03503 0.03857
 C181 C 0.96355 -0.03477 -0.03926
 C182 C 1.04080 0.03515 0.03812
 O183 O 0.52996 0.45168 0.49637
 O184 O 0.47237 0.50384 0.55401
 O185 O 0.47233 0.45166 0.49588
 O186 O 0.53001 0.50439 0.55354
 O187 O 0.52988 0.54837 0.50426
 O188 O 0.47230 0.49573 0.44671
 O189 O 0.47225 0.54790 0.50484
 O190 O 0.52994 0.49566 0.44710
 Cu191 Cu 0.50114 0.47346 0.52992
 Cu192 Cu 0.50104 0.52636 0.47076
 C193 C 0.53972 0.46487 0.46207
 C194 C 0.46263 0.53471 0.53925
 C195 C 0.46264 0.46478 0.46148
 C196 C 0.53972 0.53526 0.53855
 O197 O -0.03003 0.45215 0.00318
 O198 O 0.02769 0.50443 -0.05410
 O199 O 0.02761 0.45218 0.00362
 O200 O -0.02995 0.50492 -0.05359
 O201 O -0.02969 0.54885 -0.00398
 O202 O 0.02778 0.49620 0.05314
 O203 O 0.02795 0.54845 -0.00459
 O204 O -0.02986 0.49609 0.05279
 Cu205 Cu -0.00115 0.47399 -0.03023
 Cu206 Cu -0.00089 0.52683 0.02934
 C207 C -0.03973 0.46531 0.03759
 C208 C 0.03752 0.53529 -0.03910
 C209 C 0.03734 0.46527 0.03812
 C210 C -0.03957 0.53576 -0.03836
 O211 O 0.52716 1.00366 0.44644
 O212 O 0.46962 0.95143 0.50413
 O213 O 0.46952 1.00375 0.44685
 O214 O 0.52727 0.95189 0.50467
 O215 O 0.52720 0.99629 0.55376
 O216 O 0.46955 1.04807 0.49604
 O217 O 0.46955 0.99575 0.55331
 O218 O 0.52719 1.04806 0.49553
 Cu219 Cu 0.49843 0.97321 0.47056
 Cu220 Cu 0.49841 1.02652 0.52962
 C221 C 0.53685 1.03470 0.46116
 C222 C 0.45982 0.96478 0.53838
 C223 C 0.45975 1.03464 0.46178
 C224 C 0.53693 0.96533 0.53905
 C225 C 1.16461 0.14851 0.15911
 C226 C 1.14585 0.13099 0.14036
 C227 C 1.12373 0.11050 0.11870
 C228 C 1.10476 0.09306 0.10033
 C229 C 1.08247 0.07273 0.07884
 C230 C 1.06343 0.05549 0.06037
 C231 C 0.66350 0.64930 0.65878
 C232 C 0.64472 0.63170 0.64018
 C233 C 0.62260 0.61110 0.61868
 C234 C 0.60362 0.59356 0.60042
 C235 C 0.58135 0.57310 0.57906
 C236 C 0.56233 0.55574 0.56069
 C237 C -0.16345 0.35190 0.15773
 C238 C -0.14471 0.36942 0.13910
 C239 C -0.12262 0.38992 0.11758
 C240 C -0.10366 0.40736 0.09933
 C241 C -0.08139 0.42770 0.07798
 C242 C -0.06236 0.44495 0.05965
 C243 C 0.33614 0.85164 0.65890
 C244 C 0.35489 0.86911 0.64025
 C245 C 0.37700 0.88955 0.61869
 C246 C 0.39596 0.90695 0.60040
 C247 C 0.41822 0.92725 0.57898
 C248 C 0.43723 0.94446 0.56057
 C249 C -0.16300 0.64961 -0.15800
 C250 C -0.14429 0.63207 -0.13944
 C251 C -0.12223 0.61152 -0.11801
 C252 C -0.10331 0.59401 -0.09984
 C253 C -0.08109 0.57358 -0.07859
 C254 C -0.06212 0.55624 -0.06034
 C255 C 0.33592 1.14701 0.34121
 C256 C 0.35468 1.12962 0.35986
 C257 C 0.37680 1.10929 0.38142
 C258 C 0.39578 1.09200 0.39972
 C259 C 0.41808 1.07186 0.42115
 C260 C 0.43712 1.05478 0.43957
 C261 C 1.16406 -0.14906 -0.15868
 C262 C 1.14535 -0.13147 -0.14006
 C263 C 1.12330 -0.11089 -0.11855
 C264 C 1.10439 -0.09337 -0.10030
 C265 C 1.08218 -0.07294 -0.07893
 C266 C 1.06321 -0.05562 -0.06057
 C267 C 0.66336 0.35170 0.34151
 C268 C 0.64462 0.36919 0.36017
 C269 C 0.62253 0.38965 0.38174
 C270 C 0.60358 0.40706 0.40004
 C271 C 0.58133 0.42735 0.42147
 C272 C 0.56232 0.44457 0.43989
 C273 C 0.84055 -0.14503 -0.16543
 C274 C 0.85955 -0.12824 -0.14633
 C275 C 0.88166 -0.10862 -0.12368
 C276 C 0.90046 -0.09183 -0.10422
 C277 C 0.92244 -0.07209 -0.08142
 C278 C 0.94120 -0.05513 -0.06205
 C279 C 0.34036 0.35340 0.33510
 C280 C 0.35923 0.37032 0.35429
 C281 C 0.38120 0.39014 0.37702
 C282 C 0.39988 0.40711 0.39653
 C283 C 0.42172 0.42706 0.41936
 C284 C 0.44037 0.44421 0.43873
 C285 C 0.15994 0.64625 -0.16475
 C286 C 0.14106 0.62935 -0.14568
 C287 C 0.11908 0.60957 -0.12310
 C288 C 0.10038 0.59266 -0.10371
 C289 C 0.07851 0.57279 -0.08100
 C290 C 0.05983 0.55573 -0.06175
 C291 C 0.65924 1.14520 0.33497
 C292 C 0.64035 1.12837 0.35409
 C293 C 0.61837 1.10869 0.37676
 C294 C 0.59966 1.09186 0.39623
 C295 C 0.57779 1.07208 0.41903
 C296 C 0.55912 1.05509 0.43839
 C297 C 0.15909 0.35353 0.16370
 C298 C 0.14031 0.37052 0.14462
 C299 C 0.11846 0.39043 0.12202
 C300 C 0.09986 0.40746 0.10264
 C301 C 0.07812 0.42748 0.07995
 C302 C 0.05953 0.44467 0.06072
 C303 C 0.65954 0.85574 0.66529
 C304 C 0.64062 0.87245 0.64616
 C305 C 0.61860 0.89197 0.62349
 C306 C 0.59986 0.90866 0.60402
 C307 C 0.57795 0.92828 0.58120
 C308 C 0.55924 0.94512 0.56183
 C309 C 0.84112 0.14554 0.16440
 C310 C 0.86005 0.12875 0.14532
 C311 C 0.88208 0.10910 0.12271
 C312 C 0.90082 0.09229 0.10329
 C313 C 0.92272 0.07250 0.08056
 C314 C 0.94142 0.05548 0.06126
 C315 C 0.34031 0.64526 0.66554
 C316 C 0.35918 0.62842 0.64639
 C317 C 0.38115 0.60873 0.62370
 C318 C 0.39984 0.59188 0.60421
 C319 C 0.42169 0.57209 0.58139
 C320 C 0.44036 0.55509 0.56202
   
