data_POSCAR
  _audit_creation_date              2014-09-24
  _audit_creation_method            'ToBaCCo'
  _symmetry_space_group_name_H-M    'P1'
  _symmetry_Int_Tables_number       1
  _symmetry_cell_setting            triclinic
  loop_
  _symmetry_equiv_pos_as_xyz
 x,y,z
_cell_length_a 31.5764
_cell_length_b 32.0838
_cell_length_c 31.3352
_cell_angle_alpha 90.069500
_cell_angle_beta 91.686600
_cell_angle_gamma 89.352200
loop_
  _atom_site_label
  _atom_site_type_symbol
  _atom_site_fract_x
  _atom_site_fract_y
  _atom_site_fract_z
N1 N 0.21527 0.21008 0.20898
 N2 N -0.23253 0.76097 0.24763
 N3 N -0.21344 0.21596 -0.21933
 N4 N 0.20916 0.78484 -0.20805
 N5 N 0.21103 1.21242 0.79908
 N6 N 0.79712 0.78452 0.77847
 N7 N 0.21188 0.80487 1.19014
 N8 N 0.78339 1.22338 1.21249
 O9 O 0.54948 0.95739 0.91300
 O10 O 0.48460 0.95027 1.06619
 O11 O 0.56104 0.93694 1.04437
 O12 O 0.42290 0.98747 0.95692
 O13 O 0.55333 0.98043 1.09306
 O14 O 0.47041 0.95470 0.91962
 O15 O 0.42891 0.97233 1.03259
 O16 O 0.56521 0.92672 0.97135
 C17 C 0.56641 0.92739 0.93214
 C18 C 0.44666 0.94572 1.05621
 C19 C 0.56861 0.94658 1.08211
 C20 C 0.43294 0.95887 0.93097
 O21 O 0.46714 1.03575 0.91466
 O22 O 0.53659 1.05084 1.05968
 O23 O 0.59665 1.00549 0.95895
 O24 O 0.45982 1.05048 1.04763
 O25 O 0.47970 1.01935 1.10576
 O26 O 0.54729 1.03691 0.91901
 O27 O 0.45645 1.06464 0.97447
 O28 O 0.59150 1.01734 1.03600
 Co29 Co 0.50863 0.99601 0.92423
 Co30 Co 0.50885 1.00081 1.06000
 Co31 Co 0.57352 0.97345 1.00239
 Co32 Co 0.44753 1.01669 1.00236
 O33 O 0.51128 0.99492 0.99478
 C34 C 0.45319 1.06596 0.93526
 C35 C 0.57575 1.04938 1.05347
 C36 C 0.58528 1.03329 0.93168
 C37 C 0.45297 1.04466 1.08669
 O38 O 0.04841 0.46827 0.06597
 O39 O 0.05235 0.53248 -0.05523
 O40 O 0.00514 0.41177 -0.03035
 O41 O 0.00456 0.59112 0.03083
 O42 O 0.05128 0.45751 -0.04188
 O43 O 0.04200 0.54697 0.07011
 O44 O 0.00597 0.58102 -0.04697
 O45 O 0.00726 0.41774 0.04605
 C46 C 0.04244 0.43019 0.06103
 C47 C 0.04223 0.56999 -0.05779
 C48 C 0.04180 0.42025 -0.04106
 C49 C 0.03476 0.58320 0.05690
 O50 O -0.03942 0.54051 0.08711
 O51 O -0.02715 0.45380 -0.08308
 O52 O -0.07308 0.45224 0.04115
 O53 O -0.07248 0.55055 -0.04795
 O54 O -0.02569 0.52888 -0.09186
 O55 O -0.03043 0.46289 0.09271
 O56 O -0.07420 0.56846 0.03220
 O57 O -0.07163 0.45048 -0.03372
 Co58 Co 0.00379 0.50395 0.07157
 Co59 Co 0.01076 0.49339 -0.06193
 Co60 Co -0.03113 0.43840 0.00567
 Co61 Co -0.03199 0.56555 -0.00741
 O62 O -0.01081 0.50069 0.00245
 C63 C -0.07007 0.56221 0.07150
 C64 C -0.06377 0.44509 -0.07156
 C65 C -0.06614 0.45139 0.07982
 C66 C -0.06146 0.54493 -0.08524
 O67 O 1.07031 0.05080 0.46522
 O68 O 0.92038 0.04080 0.53558
 O69 O 0.96244 0.00794 0.40767
 O70 O 1.04916 0.06558 0.54120
 O71 O 0.92449 0.04060 0.45546
 O72 O 1.10001 0.02465 0.53601
 O73 O 0.97698 0.07427 0.54555
 O74 O 1.03788 0.02400 0.41123
 C75 C 1.06066 0.05224 0.42651
 C76 C 0.93842 0.07252 0.54903
 C77 C 0.93473 0.03520 0.41750
 C78 C 1.08652 0.05758 0.55136
 O79 O 1.07003 -0.04755 0.52388
 O80 O 0.92360 -0.03971 0.45665
 O81 O 1.05604 -0.05171 0.44613
 O82 O 0.96867 -0.00299 0.58366
 O83 O 0.93094 -0.03849 0.53647
 O84 O 1.11232 -0.01713 0.46328
 O85 O 1.04507 -0.01266 0.57754
 O86 O 0.98295 -0.06840 0.44349
 Co87 Co 1.06717 0.00117 0.49301
 Co88 Co 0.93244 0.00127 0.49598
 Co89 Co 1.00924 -0.01981 0.43274
 Co90 Co 1.00957 0.02907 0.55721
 O91 O 1.00220 0.00440 0.49626
 C92 C 1.06472 -0.04415 0.56338
 C93 C 0.94398 -0.07057 0.44423
 C94 C 1.09416 -0.04394 0.43790
 C95 C 0.94398 -0.03292 0.57412
 C96 C 1.14253 0.15437 0.30438
 C97 C 1.12952 0.15119 0.26124
 C98 C 1.15327 0.17058 0.23015
 C99 C 1.18992 0.19272 0.24179
 C100 C 1.20235 0.19639 0.28511
 C101 C 1.17871 0.17702 0.31671
 C102 C 1.11883 0.13205 0.33698
 C103 C 1.13260 0.13365 0.38002
 C104 C 1.11153 0.10983 0.41043
 C105 C 1.07770 0.08393 0.39753
 C106 C 1.06388 0.08380 0.35436
 C107 C 1.08410 0.10775 0.32408
 C108 C 1.19093 0.17887 0.36019
 C109 C 1.16826 0.15760 0.39129
 C110 C 1.09370 0.12770 0.24987
 C111 C 1.07142 0.10623 0.28078
 H112 H 1.21866 0.19634 0.37019
 H113 H 1.17928 0.15921 0.42432
 H114 H 1.08334 0.12518 0.21670
 H115 H 1.04453 0.08762 0.27060
 H116 H 1.14407 0.16752 0.19673
 H117 H 1.23074 0.21346 0.29381
 H118 H 1.12289 0.10963 0.44341
 H119 H 1.03890 0.06312 0.34368
 C120 C 0.84627 -0.18478 0.34388
 C121 C 0.86477 -0.20304 0.30813
 C122 C 0.83877 -0.22249 0.27738
 C123 C 0.79457 -0.22422 0.28232
 C124 C 0.77679 -0.20750 0.31936
 C125 C 0.80243 -0.18707 0.34994
 C126 C 0.87287 -0.16033 0.37389
 C127 C 0.85378 -0.13901 0.40755
 C128 C 0.87825 -0.11191 0.43293
 C129 C 0.92136 -0.10599 0.42459
 C130 C 0.94069 -0.12977 0.39265
 C131 C 0.91635 -0.15639 0.36659
 C132 C 0.78489 -0.16712 0.38534
 C133 C 0.81012 -0.14332 0.41358
 C134 C 0.90862 -0.19979 0.30279
 C135 C 0.93405 -0.17701 0.33168
 H136 H 0.75117 -0.16877 0.39047
 H137 H 0.79511 -0.12722 0.43963
 H138 H 0.92324 -0.21407 0.27546
 H139 H 0.96754 -0.17430 0.32578
 H140 H 0.85263 -0.23451 0.24856
 H141 H 0.74280 -0.20861 0.32306
 H142 H 0.86330 -0.09376 0.45764
 H143 H 0.97378 -0.12512 0.38589
 C144 C 0.85057 0.16356 0.67601
 C145 C 0.80616 0.16174 0.67682
 C146 C 0.78520 0.17930 0.71144
 C147 C 0.80841 0.19790 0.74524
 C148 C 0.85298 0.19812 0.74459
 C149 C 0.87419 0.18184 0.70961
 C150 C 0.87286 0.14478 0.63998
 C151 C 0.91727 0.14630 0.63944
 C152 C 0.93850 0.12606 0.60659
 C153 C 0.91571 0.10275 0.57572
 C154 C 0.87111 0.10297 0.57568
 C155 C 0.84947 0.12407 0.60776
 C156 C 0.91853 0.18326 0.70767
 C157 C 0.93971 0.16604 0.67299
 C158 C 0.78374 0.14204 0.64323
 C159 C 0.80507 0.12324 0.60941
 H160 H 0.93702 0.19757 0.73330
 H161 H 0.97399 0.16730 0.67295
 H162 H 0.74949 0.14047 0.64347
 H163 H 0.78668 0.10747 0.58466
 H164 H 0.75092 0.17863 0.71229
 H165 H 0.87096 0.21133 0.77121
 H166 H 0.97283 0.12589 0.60698
 H167 H 0.85343 0.08505 0.55198
 C168 C 1.15110 -0.14399 0.69169
 C169 C 1.16526 -0.12415 0.72937
 C170 C 1.18531 -0.14771 0.76163
 C171 C 1.19088 -0.19104 0.75699
 C172 C 1.17654 -0.21065 0.71902
 C173 C 1.15682 -0.18708 0.68598
 C174 C 1.12930 -0.11915 0.65793
 C175 C 1.11531 -0.13853 0.61982
 C176 C 1.09445 -0.11432 0.58780
 C177 C 1.08668 -0.07158 0.59489
 C178 C 1.10093 -0.05311 0.63341
 C179 C 1.12254 -0.07644 0.66469
 C180 C 1.14238 -0.20552 0.64754
 C181 C 1.12223 -0.18165 0.61496
 C182 C 1.15853 -0.08115 0.73446
 C183 C 1.13736 -0.05769 0.70268
 H184 H 1.14665 -0.23871 0.64260
 H185 H 1.11163 -0.19715 0.58589
 H186 H 1.16936 -0.06559 0.76342
 H187 H 1.13247 -0.02460 0.70793
 H188 H 1.19548 -0.13247 0.79097
 H189 H 1.18068 -0.24403 0.71550
 H190 H 1.08363 -0.12864 0.55815
 H191 H 1.09568 -0.02009 0.63891
 C192 C 0.32241 1.14333 1.16289
 C193 C 0.30937 1.18075 1.14313
 C194 C 0.27513 1.20327 1.15939
 C195 C 0.25274 1.18811 1.19443
 C196 C 0.26699 1.15060 1.21420
 C197 C 0.30177 1.12824 1.19863
 C198 C 0.35776 1.11900 1.14519
 C199 C 0.37076 1.08134 1.16472
 C200 C 0.40356 1.05765 1.14679
 C201 C 0.42228 1.07115 1.10910
 C202 C 0.40915 1.10922 1.09037
 C203 C 0.37710 1.13334 1.10834
 C204 C 0.31587 1.09066 1.21761
 C205 C 0.34985 1.06770 1.20105
 C206 C 0.33026 1.19452 1.10687
 C207 C 0.36340 1.17109 1.08961
 H208 H 0.30027 1.07870 1.24532
 H209 H 0.35942 1.03873 1.21644
 H210 H 0.32046 1.22332 1.09127
 H211 H 0.37818 1.18245 1.06116
 H212 H 0.26550 1.23220 1.14403
 H213 H 0.25077 1.13819 1.24125
 H214 H 0.41327 1.02812 1.16096
 H215 H 0.42350 1.11982 1.06135
 C216 C 0.30701 0.85042 0.85622
 C217 C 0.26766 0.84651 0.87550
 C218 C 0.23647 0.82174 0.85574
 C219 C 0.24390 0.80259 0.81618
 C220 C 0.28359 0.80625 0.79758
 C221 C 0.31553 0.82981 0.81774
 C222 C 0.33932 0.87784 0.87584
 C223 C 0.37865 0.88163 0.85659
 C224 C 0.40916 0.90790 0.87513
 C225 C 0.40025 0.93118 0.91206
 C226 C 0.36033 0.92758 0.93056
 C227 C 0.32991 0.90049 0.91285
 C228 C 0.35533 0.83432 0.79954
 C229 C 0.38650 0.85951 0.81884
 C230 C 0.25973 0.86888 0.91307
 C231 C 0.29017 0.89572 0.93119
 H232 H 0.36234 0.81848 0.76997
 H233 H 0.41675 0.86224 0.80370
 H234 H 0.22943 0.86626 0.92813
 H235 H 0.28252 0.91292 0.95979
 H236 H 0.20543 0.81956 0.86940
 H237 H 0.28887 0.79179 0.76689
 H238 H 0.43962 0.91074 0.86037
 H239 H 0.35315 0.94544 0.95888
 C240 C 0.67439 0.84046 1.18833
 C241 C 0.66893 0.79709 1.18698
 C242 C 0.69786 0.77112 1.20954
 C243 C 0.73361 0.78806 1.23106
 C244 C 0.73784 0.83185 1.23272
 C245 C 0.70812 0.85811 1.21191
 C246 C 0.64536 0.86783 1.16306
 C247 C 0.65089 0.91122 1.16450
 C248 C 0.62409 0.93702 1.13937
 C249 C 0.59336 0.91950 1.11160
 C250 C 0.58814 0.87601 1.11044
 C251 C 0.61369 0.84999 1.13671
 C252 C 0.71237 0.90167 1.21290
 C253 C 0.68398 0.92780 1.18994
 C254 C 0.63573 0.78053 1.16160
 C255 C 0.60885 0.80649 1.13656
 H256 H 0.73816 0.91567 1.23121
 H257 H 0.68862 0.96119 1.19128
 H258 H 0.63119 0.74713 1.16017
 H259 H 0.58434 0.79236 1.11663
 H260 H 0.69411 0.73761 1.20832
 H261 H 0.76522 0.84557 1.24863
 H262 H 0.62839 0.97051 1.13981
 H263 H 0.56432 0.86259 1.08909
 C264 C 0.70228 1.13962 0.84759
 C265 C 0.68707 1.17674 0.82851
 C266 C 0.71503 1.20181 0.80622
 C267 C 0.75767 1.18971 0.80273
 C268 C 0.77241 1.15232 0.82170
 C269 C 0.74485 1.12719 0.84444
 C270 C 0.67300 1.11311 0.87105
 C271 C 0.68810 1.07600 0.89021
 C272 C 0.65975 1.05043 0.91167
 C273 C 0.61654 1.06153 0.91312
 C274 C 0.60225 1.09923 0.89426
 C275 C 0.63029 1.12514 0.87330
 C276 C 0.75890 1.08999 0.86415
 C277 C 0.73105 1.06488 0.88672
 C278 C 0.64421 1.18795 0.83205
 C279 C 0.61626 1.16251 0.85396
 H280 H 0.79171 1.08014 0.86203
 H281 H 0.74316 1.03636 0.90125
 H282 H 0.63210 1.21647 0.81753
 H283 H 0.58334 1.17210 0.85560
 H284 H 0.70394 1.23064 0.79153
 H285 H 0.80543 1.14334 0.81913
 H286 H 0.67092 1.02139 0.92588
 H287 H 0.56911 1.10823 0.89550
 C288 C 0.15151 0.30613 0.13944
 C289 C 0.17358 0.31583 0.17773
 C290 C 0.19547 0.28402 0.20015
 C291 C 0.19580 0.24315 0.18410
 C292 C 0.17465 0.23412 0.14509
 C293 C 0.15193 0.26545 0.12284
 C294 C 0.12622 0.33885 0.11715
 C295 C 0.10213 0.32858 0.08029
 C296 C 0.07575 0.35908 0.06100
 C297 C 0.07394 0.39968 0.07802
 C298 C 0.09971 0.40992 0.11388
 C299 C 0.12536 0.37940 0.13405
 C300 C 0.12863 0.25671 0.08504
 C301 C 0.10397 0.28770 0.06424
 C302 C 0.17245 0.35691 0.19326
 C303 C 0.14894 0.38821 0.17166
 H304 H 0.12876 0.22546 0.07191
 H305 H 0.08577 0.27945 0.03567
 H306 H 0.18949 0.36484 0.22261
 H307 H 0.14851 0.41937 0.18502
 H308 H 0.21173 0.29064 0.23029
 H309 H 0.17492 0.20245 0.13303
 H310 H 0.05603 0.35111 0.03334
 H311 H 0.09810 0.44101 0.12739
 C312 C -0.16596 0.32765 -0.16379
 C313 C -0.15824 0.31903 -0.20671
 C314 C -0.17753 0.28441 -0.22611
 C315 C -0.20123 0.25623 -0.20186
 C316 C -0.21009 0.26674 -0.15926
 C317 C -0.19294 0.30252 -0.14029
 C318 C -0.14344 0.36211 -0.14226
 C319 C -0.15098 0.37021 -0.09919
 C320 C -0.12722 0.40054 -0.07784
 C321 C -0.09415 0.42108 -0.09830
 C322 C -0.08787 0.41384 -0.14199
 C323 C -0.11291 0.38451 -0.16432
 C324 C -0.20059 0.31248 -0.09756
 C325 C -0.18030 0.34611 -0.07746
 C326 C -0.12958 0.34383 -0.22866
 C327 C -0.10686 0.37565 -0.20766
 H328 H -0.22168 0.29358 -0.07922
 H329 H -0.18630 0.35222 -0.04415
 H330 H -0.12335 0.33747 -0.26187
 H331 H -0.08379 0.39289 -0.22526
 H332 H -0.17192 0.27813 -0.25943
 H333 H -0.22865 0.24621 -0.14000
 H334 H -0.13250 0.40578 -0.04421
 H335 H -0.06267 0.42966 -0.15797
 C336 C 0.13921 0.69113 -0.14698
 C337 C 0.11783 0.72561 -0.16538
 C338 C 0.14094 0.75573 -0.18662
 C339 C 0.18525 0.75195 -0.18916
 C340 C 0.20626 0.71712 -0.17067
 C341 C 0.18329 0.68639 -0.14971
 C342 C 0.11499 0.65974 -0.12391
 C343 C 0.13608 0.62494 -0.10567
 C344 C 0.11255 0.59505 -0.08387
 C345 C 0.06857 0.60066 -0.07966
 C346 C 0.04829 0.63601 -0.09793
 C347 C 0.07114 0.66533 -0.12034
 C348 C 0.20341 0.65128 -0.13102
 C349 C 0.18019 0.62098 -0.10957
 C350 C 0.07380 0.72972 -0.16156
 C351 C 0.05084 0.70012 -0.13929
 H352 H 0.23740 0.64719 -0.13295
 H353 H 0.19695 0.59441 -0.09568
 H354 H 0.05700 0.75620 -0.17561
 H355 H 0.01692 0.70454 -0.13683
 H356 H 0.12465 0.78282 -0.20000
 H357 H 0.24039 0.71426 -0.17250
 H358 H 0.12831 0.56791 -0.06992
 H359 H 0.01436 0.64046 -0.09539
 C360 C -0.17761 0.66439 0.17398
 C361 C -0.17504 0.66185 0.21864
 C362 C -0.19641 0.69189 0.24288
 C363 C -0.21806 0.72567 0.22271
 C364 C -0.22061 0.72705 0.17775
 C365 C -0.20119 0.69623 0.15336
 C366 C -0.15310 0.63473 0.14824
 C367 C -0.15532 0.63807 0.10368
 C368 C -0.13012 0.61192 0.07934
 C369 C -0.10107 0.58358 0.09892
 C370 C -0.09995 0.57961 0.14374
 C371 C -0.12626 0.60514 0.16863
 C372 C -0.20333 0.69784 0.10862
 C373 C -0.18111 0.66892 0.08415
 C374 C -0.14951 0.63057 0.23802
 C375 C -0.12526 0.60293 0.21346
 H376 H -0.22173 0.72209 0.09239
 H377 H -0.18298 0.67164 0.04967
 H378 H -0.14722 0.62826 0.27251
 H379 H -0.10503 0.58015 0.22974
 H380 H -0.19410 0.69059 0.27743
 H381 H -0.23581 0.75323 0.16154
 H382 H -0.13162 0.61548 0.04493
 H383 H -0.07790 0.55786 0.15915
 C384 C 1.16184 0.14832 0.69154
 C385 C 1.18879 0.12725 0.72079
 C386 C 1.20414 0.14835 0.75716
 C387 C 1.19442 0.19113 0.76396
 C388 C 1.16670 0.21139 0.73399
 C389 C 1.15016 0.19010 0.69812
 C390 C 1.14492 0.12592 0.65363
 C391 C 1.11631 0.14641 0.62541
 C392 C 1.09862 0.12433 0.59068
 C393 C 1.11005 0.08237 0.58367
 C394 C 1.13998 0.06274 0.61134
 C395 C 1.15687 0.08415 0.64693
 C396 C 1.12210 0.20979 0.66867
 C397 C 1.10521 0.18823 0.63313
 C398 C 1.19979 0.08535 0.71318
 C399 C 1.18435 0.06426 0.67673
 H400 H 1.11274 0.24202 0.67337
 H401 H 1.08318 0.20441 0.61159
 H402 H 1.22063 0.06874 0.73554
 H403 H 1.19354 0.03196 0.67216
 H404 H 1.22324 0.13111 0.78053
 H405 H 1.15862 0.24403 0.73812
 H406 H 1.07529 0.13941 0.56963
 H407 H 1.14831 0.03024 0.60649
 C408 C 0.86252 -0.13846 0.69345
 C409 C 0.84832 -0.17774 0.67962
 C410 C 0.82586 -0.20263 0.70757
 C411 C 0.81765 -0.18850 0.74897
 C412 C 0.83152 -0.14887 0.76225
 C413 C 0.85420 -0.12369 0.73459
 C414 C 0.88630 -0.11221 0.66417
 C415 C 0.90034 -0.07276 0.67772
 C416 C 0.92162 -0.04729 0.64899
 C417 C 0.92787 -0.06102 0.60695
 C418 C 0.91462 -0.10112 0.59447
 C419 C 0.89378 -0.12678 0.62283
 C420 C 0.86901 -0.08427 0.74723
 C421 C 0.89170 -0.05924 0.71928
 C422 C 0.85704 -0.19141 0.63821
 C423 C 0.87933 -0.16630 0.61022
 H424 H 0.86289 -0.07259 0.77894
 H425 H 0.90224 -0.02891 0.73018
 H426 H 0.84633 -0.22167 0.62725
 H427 H 0.88502 -0.17778 0.57834
 H428 H 0.81507 -0.23318 0.69758
 H429 H 0.82540 -0.13827 0.79437
 H430 H 0.93146 -0.01632 0.65859
 H431 H 0.91961 -0.11196 0.56218
 C432 C 1.16790 -0.13290 0.29901
 C433 C 1.15632 -0.17436 0.29130
 C434 C 1.17190 -0.19519 0.25557
 C435 C 1.19803 -0.17470 0.22630
 C436 C 1.20862 -0.13251 0.23474
 C437 C 1.19425 -0.11185 0.27120
 C438 C 1.15130 -0.11078 0.33645
 C439 C 1.16297 -0.06925 0.34434
 C440 C 1.14616 -0.04805 0.37942
 C441 C 1.11680 -0.06780 0.40533
 C442 C 1.10559 -0.10942 0.39708
 C443 C 1.12313 -0.13124 0.36297
 C444 C 1.20526 -0.07031 0.28009
 C445 C 1.19014 -0.04948 0.31618
 C446 C 1.12894 -0.19412 0.31926
 C447 C 1.11234 -0.17281 0.35427
 H448 H 1.22569 -0.05371 0.25892
 H449 H 1.19927 -0.01743 0.32172
 H450 H 1.11971 -0.22613 0.31364
 H451 H 1.09072 -0.18896 0.37459
 H452 H 1.16378 -0.22761 0.25069
 H453 H 1.22706 -0.11517 0.21236
 H454 H 1.15412 -0.01572 0.38528
 H455 H 1.08279 -0.12458 0.41691
 C456 C 0.84805 0.14457 0.29871
 C457 C 0.87110 0.16594 0.26815
 C458 C 0.84975 0.19400 0.24048
 C459 C 0.80545 0.20028 0.24283
 C460 C 0.78302 0.17788 0.27341
 C461 C 0.80416 0.15063 0.30182
 C462 C 0.87020 0.11490 0.32775
 C463 C 0.84724 0.09445 0.35904
 C464 C 0.86865 0.06754 0.38761
 C465 C 0.91246 0.06027 0.38443
 C466 C 0.93482 0.07980 0.35206
 C467 C 0.91392 0.10780 0.32395
 C468 C 0.78218 0.12906 0.33307
 C469 C 0.80343 0.10169 0.36146
 C470 C 0.91485 0.15817 0.26538
 C471 C 0.93588 0.12948 0.29271
 H472 H 0.74830 0.13356 0.33578
 H473 H 0.78541 0.08597 0.38541
 H474 H 0.93298 0.17431 0.24181
 H475 H 0.96963 0.12445 0.28956
 H476 H 0.86709 0.20931 0.21573
 H477 H 0.74897 0.18202 0.27500
 H478 H 0.85138 0.05240 0.41256
 H479 H 0.96853 0.07458 0.35004
 C480 C 0.14038 0.30040 -0.13325
 C481 C 0.18278 0.30870 -0.14195
 C482 C 0.20597 0.27978 -0.16577
 C483 C 0.18702 0.24275 -0.18136
 C484 C 0.14379 0.23592 -0.17342
 C485 C 0.12063 0.26425 -0.14890
 C486 C 0.11621 0.33009 -0.10710
 C487 C 0.07405 0.32134 -0.09778
 C488 C 0.05089 0.34999 -0.07375
 C489 C 0.06911 0.38785 -0.06014
 C490 C 0.11170 0.39589 -0.06914
 C491 C 0.13551 0.36689 -0.09242
 C492 C 0.07832 0.25667 -0.13893
 C493 C 0.05549 0.28464 -0.11365
 C494 C 0.20125 0.34554 -0.12622
 C495 C 0.17795 0.37426 -0.10212
 H496 H 0.06277 0.22879 -0.15062
 H497 H 0.02289 0.27764 -0.10679
 H498 H 0.23396 0.35232 -0.13273
 H499 H 0.19329 0.40245 -0.09100
 H500 H 0.23891 0.28579 -0.17208
 H501 H 0.12892 0.20737 -0.18429
 H502 H 0.01802 0.34364 -0.06739
 H503 H 0.12591 0.42495 -0.05885
 C504 C -0.16776 0.33604 0.16809
 C505 C -0.20073 0.31677 0.14485
 C506 C -0.21839 0.28034 0.16068
 C507 C -0.20350 0.26247 0.19986
 C508 C -0.17324 0.28530 0.22462
 C509 C -0.15411 0.32089 0.20813
 C510 C -0.14536 0.37110 0.14884
 C511 C -0.10961 0.38786 0.17012
 C512 C -0.08502 0.41730 0.14899
 C513 C -0.09631 0.42962 0.10700
 C514 C -0.13435 0.41512 0.08789
 C515 C -0.15832 0.38511 0.10810
 C516 C -0.12004 0.34030 0.22985
 C517 C -0.09787 0.37292 0.21097
 C518 C -0.21394 0.33295 0.10496
 C519 C -0.19325 0.36677 0.08699
 H520 H -0.10925 0.32901 0.26093
 H521 H -0.07064 0.38576 0.22800
 H522 H -0.23967 0.31857 0.08689
 H523 H -0.20354 0.37748 0.05554
 H524 H -0.24205 0.26493 0.14082
 H525 H -0.16286 0.27437 0.25593
 H526 H -0.05589 0.42841 0.16397
 H527 H -0.14360 0.42466 0.05572
 C528 C -0.14674 0.66876 -0.18346
 C529 C -0.12188 0.69876 -0.20309
 C530 C -0.14071 0.73642 -0.21639
 C531 C -0.18438 0.74408 -0.21104
 C532 C -0.20925 0.71236 -0.19368
 C533 C -0.19037 0.67522 -0.17864
 C534 C -0.12613 0.63124 -0.16496
 C535 C -0.15011 0.60358 -0.14100
 C536 C -0.12922 0.57161 -0.11797
 C537 C -0.08494 0.56711 -0.11950
 C538 C -0.06197 0.59253 -0.14684
 C539 C -0.08219 0.62561 -0.16852
 C540 C -0.21386 0.64533 -0.15705
 C541 C -0.19397 0.61034 -0.13809
 C542 C -0.07828 0.69132 -0.20736
 C543 C -0.05880 0.65514 -0.19067
 H544 H -0.24759 0.64991 -0.15322
 H545 H -0.21287 0.58904 -0.12001
 H546 H -0.05885 0.71413 -0.22279
 H547 H -0.02488 0.65115 -0.19351
 H548 H -0.12090 0.76031 -0.22945
 H549 H -0.24297 0.71727 -0.19026
 H550 H -0.14679 0.55221 -0.09655
 H551 H -0.02773 0.58960 -0.14737
 C552 C 0.13765 0.71266 0.13083
 C553 C 0.11828 0.74978 0.14438
 C554 C 0.14306 0.78025 0.16492
 C555 C 0.18729 0.77435 0.17113
 C556 C 0.20611 0.73701 0.15640
 C557 C 0.18139 0.70589 0.13693
 C558 C 0.11155 0.68009 0.11013
 C559 C 0.13064 0.64222 0.09826
 C560 C 0.10538 0.61068 0.08027
 C561 C 0.06161 0.61733 0.07312
 C562 C 0.04316 0.65591 0.08392
 C563 C 0.06791 0.68720 0.10318
 C564 C 0.19950 0.66796 0.12377
 C565 C 0.17450 0.63653 0.10508
 C566 C 0.07451 0.75572 0.13696
 C567 C 0.04980 0.72509 0.11647
 H568 H 0.23322 0.66232 0.12838
 H569 H 0.18964 0.60754 0.09590
 H570 H 0.05920 0.78432 0.14707
 H571 H 0.01616 0.73091 0.11143
 H572 H 0.12827 0.80915 0.17495
 H573 H 0.23990 0.73185 0.16126
 H574 H 0.11963 0.58101 0.07181
 H575 H 0.00936 0.66087 0.07888
 C576 C 0.32535 1.16881 0.85529
 C577 C 0.29452 1.18676 0.88109
 C578 C 0.25714 1.20272 0.86205
 C579 C 0.25013 1.20132 0.81715
 C580 C 0.28343 1.18617 0.79176
 C581 C 0.32029 1.16864 0.81068
 C582 C 0.36232 1.14745 0.87554
 C583 C 0.39118 1.12603 0.84994
 C584 C 0.42329 1.10149 0.86958
 C585 C 0.42653 1.09863 0.91442
 C586 C 0.39927 1.12289 0.93948
 C587 C 0.36649 1.14650 0.92025
 C588 C 0.35124 1.14909 0.78597
 C589 C 0.38588 1.12781 0.80529
 C590 C 0.30063 1.18651 0.92568
 C591 C 0.33621 1.16697 0.94494
 H592 H 0.34779 1.14886 0.75147
 H593 H 0.40810 1.11175 0.78513
 H594 H 0.27718 1.20062 0.94591
 H595 H 0.33918 1.16650 0.97949
 H596 H 0.23238 1.21373 0.88260
 H597 H 0.27983 1.18643 0.75726
 H598 H 0.44425 1.08304 0.85010
 H599 H 0.40141 1.12090 0.97402
 C600 C 0.32200 0.84583 1.13210
 C601 C 0.28757 0.83226 1.10661
 C602 C 0.25165 0.81693 1.12621
 C603 C 0.24919 0.81590 1.17127
 C604 C 0.28530 0.82766 1.19615
 C605 C 0.32143 0.84312 1.17677
 C606 C 0.35825 0.86550 1.11170
 C607 C 0.39175 0.88115 1.13729
 C608 C 0.42384 0.90384 1.11804
 C609 C 0.42145 0.91198 1.07391
 C610 C 0.38907 0.89408 1.04848
 C611 C 0.35729 0.87083 1.06720
 C612 C 0.35640 0.85743 1.20121
 C613 C 0.39095 0.87614 1.18180
 C614 C 0.28891 0.83606 1.06200
 C615 C 0.32321 0.85504 1.04263
 H616 H 0.35651 0.85527 1.23571
 H617 H 0.41662 0.88794 1.20192
 H618 H 0.26266 0.82538 1.04195
 H619 H 0.32252 0.85838 1.00826
 H620 H 0.22448 0.80831 1.10631
 H621 H 0.28486 0.82556 1.23065
 H622 H 0.44845 0.91819 1.13773
 H623 H 0.38738 0.90031 1.01452
 C624 C 0.69483 1.15681 1.13923
 C625 C 0.73776 1.14490 1.13969
 C626 C 0.76679 1.16706 1.16495
 C627 C 0.75375 1.20202 1.18859
 C628 C 0.71070 1.21442 1.18707
 C629 C 0.68085 1.19123 1.16298
 C630 C 0.66389 1.13207 1.11413
 C631 C 0.62048 1.14198 1.11558
 C632 C 0.59098 1.11617 1.09400
 C633 C 0.60515 1.08124 1.07080
 C634 C 0.64902 1.07351 1.06798
 C635 C 0.67833 1.09806 1.09024
 C636 C 0.63732 1.20114 1.16257
 C637 C 0.60763 1.17671 1.13962
 C638 C 0.75093 1.11090 1.11502
 C639 C 0.72172 1.08806 1.09038
 H640 H 0.62601 1.22753 1.18075
 H641 H 0.57432 1.18493 1.14096
 H642 H 0.78406 1.10173 1.11495
 H643 H 0.73308 1.06177 1.07204
 H644 H 0.79996 1.15789 1.16560
 H645 H 0.70061 1.24119 1.20546
 H646 H 0.55733 1.12240 1.09638
 H647 H 0.66053 1.04686 1.05024
 C648 C 0.69168 0.83455 0.84293
 C649 C 0.72395 0.81371 0.86649
 C650 C 0.75861 0.79700 0.84508
 C651 C 0.76079 0.80052 0.80039
 C652 C 0.72798 0.82119 0.77725
 C653 C 0.69341 0.83846 0.79838
 C654 C 0.65625 0.85406 0.86551
 C655 C 0.62518 0.87679 0.84217
 C656 C 0.59359 0.89823 0.86410
 C657 C 0.59321 0.89736 0.90904
 C658 C 0.62323 0.87250 0.93178
 C659 C 0.65524 0.85129 0.91019
 C660 C 0.66098 0.86027 0.77598
 C661 C 0.62750 0.87922 0.79753
 C662 C 0.72131 0.81073 0.91105
 C663 C 0.68746 0.82912 0.93253
 H664 H 0.66192 0.86339 0.74160
 H665 H 0.60365 0.89658 0.77916
 H666 H 0.74592 0.79455 0.92955
 H667 H 0.68703 0.82676 0.96701
 H668 H 0.78424 0.78184 0.86306
 H669 H 0.72974 0.82406 0.74289
 H670 H 0.57065 0.91730 0.84635
 H671 H 0.62339 0.87183 0.96637
   
