data_POSCAR
  _audit_creation_date              2014-09-24
  _audit_creation_method            'ToBaCCo'
  _symmetry_space_group_name_H-M    'P1'
  _symmetry_Int_Tables_number       1
  _symmetry_cell_setting            triclinic
  loop_
  _symmetry_equiv_pos_as_xyz
 x,y,z
_cell_length_a 24.1941
_cell_length_b 24.1481
_cell_length_c 24.1903
_cell_angle_alpha 90.187900
_cell_angle_beta 89.971400
_cell_angle_gamma 90.071000
loop_
  _atom_site_label
  _atom_site_type_symbol
  _atom_site_fract_x
  _atom_site_fract_y
  _atom_site_fract_z
C1 C 0.49356 1.01014 -0.65313
 C2 C 0.44415 1.01781 -0.62337
 C3 C 0.44692 1.01800 -0.56525
 C4 C 0.49686 1.00746 -0.53700
 C5 C 0.54515 0.99836 -0.56868
 C6 C 0.54483 1.00241 -0.62682
 C7 C 0.49882 1.00716 -0.47471
 C8 C 0.54889 1.01704 -0.44613
 C9 C 0.55136 1.01528 -0.38824
 C10 C 0.50265 1.00680 -0.35820
 C11 C 0.45176 0.99991 -0.38496
 C12 C 0.45052 0.99786 -0.44301
 H13 H 0.49150 1.00543 -0.69749
 H14 H 0.41031 1.02897 -0.54224
 H15 H 0.58352 0.99004 -0.54789
 H16 H 0.58632 1.02739 -0.46813
 H17 H 0.50443 1.00475 -0.31351
 H18 H 0.41141 0.98978 -0.46292
 C19 C -0.65014 1.49526 0.02983
 C20 C -0.62050 1.44524 0.03162
 C21 C -0.56314 1.44696 0.02240
 C22 C -0.53575 1.49699 0.00917
 C23 C -0.56791 1.54571 0.00436
 C24 C -0.62476 1.54615 0.01712
 C25 C -0.47371 1.49893 0.00261
 C26 C -0.44443 1.54932 0.00933
 C27 C -0.38680 1.55167 0.00374
 C28 C -0.35747 1.50274 -0.00587
 C29 C -0.38458 1.45164 -0.00959
 C30 C -0.44264 1.45030 -0.00788
 H31 H -0.69468 1.49372 0.03308
 H32 H -0.53994 1.40939 0.02862
 H33 H -0.54832 1.58395 -0.00730
 H34 H -0.46543 1.58707 0.02076
 H35 H -0.31296 1.50440 -0.01057
 H36 H -0.46280 1.41081 -0.01346
 C37 C 0.02478 0.35239 0.50138
 C38 C 0.01440 0.37724 0.44987
 C39 C 0.00246 0.43445 0.44917
 C40 C 0.00683 0.46754 0.49753
 C41 C 0.01911 0.44074 0.54795
 C42 C 0.02625 0.38336 0.55027
 C43 C 0.00071 0.52970 0.49497
 C44 C -0.00983 0.56142 0.54322
 C45 C -0.00988 0.61993 0.54227
 C46 C -0.00610 0.64602 0.49050
 C47 C 0.00290 0.61590 0.44190
 C48 C 0.00795 0.55828 0.44459
 H49 H 0.02889 0.30786 0.50439
 H50 H -0.00787 0.45348 0.41039
 H51 H 0.02466 0.46363 0.58591
 H52 H -0.01547 0.54075 0.58207
 H53 H -0.01210 0.69028 0.48720
 H54 H 0.01905 0.53675 0.40704
 O55 O -0.14204 1.00580 -0.08224
 O56 O 0.14185 0.99656 -0.07658
 O57 O 0.00297 1.07545 -0.14541
 O58 O 0.00066 0.92617 -0.14743
 O59 O -0.00269 0.85775 -0.08135
 O60 O 0.00240 1.14324 -0.07804
 O61 O 0.07594 0.99665 -0.14539
 O62 O -0.07345 1.00539 -0.14842
 Zr63 Zr 0.00029 1.00053 -0.10165
 O64 O 0.04861 0.94897 -0.05449
 O65 O -0.05004 1.05136 -0.05524
 C66 C -0.12487 1.00775 -0.13302
 C67 C 0.12674 0.99551 -0.12805
 C68 C 0.00425 1.12670 -0.12928
 C69 C -0.00075 0.87470 -0.13222
 H70 H 0.07513 1.07264 -0.07491
 O71 O 0.05008 1.04932 -0.05257
 H72 H -0.07578 0.92829 -0.08052
 O73 O -0.05189 0.95110 -0.05631
 O74 O 0.13838 0.99976 0.07297
 O75 O -0.14539 0.99954 0.06707
 O76 O 0.07464 1.14032 0.00259
 O77 O 0.06977 0.85653 -0.00742
 O78 O -0.07930 0.85910 -0.00458
 O79 O -0.07440 1.14323 -0.00667
 O80 O -0.00160 1.07210 0.13796
 O81 O -0.00649 0.92314 0.13586
 O82 O 0.00086 1.14154 0.07288
 O83 O -0.00672 0.85613 0.06785
 O84 O 0.14194 1.07282 0.00284
 O85 O -0.14304 1.07698 -0.00912
 O86 O -0.14579 0.92734 -0.00620
 O87 O 0.13942 0.92167 -0.00420
 O88 O 0.06981 1.00033 0.13913
 O89 O -0.07967 0.99642 0.13590
 Zr90 Zr 0.09566 0.99802 -0.00274
 Zr91 Zr -0.09910 1.00147 -0.00669
 Zr92 Zr -0.00045 1.09723 -0.00331
 Zr93 Zr -0.00379 0.90250 -0.00609
 Zr94 Zr -0.00397 0.99837 0.09216
 O95 O -0.05415 0.94973 0.04365
 O96 O 0.04773 1.04825 0.04676
 C97 C 0.12126 1.00178 0.12378
 C98 C -0.13046 0.99694 0.11853
 C99 C 0.12560 1.12412 0.00564
 C100 C 0.12142 0.87086 -0.00617
 C101 C -0.13022 0.87591 -0.00416
 C102 C -0.12581 1.12792 -0.00925
 C103 C 0.00113 1.12367 0.12361
 C104 C -0.00715 0.87202 0.11919
 H105 H -0.07585 1.07385 0.06845
 O106 O -0.05215 1.05010 0.04499
 H107 H 0.06925 0.92443 0.06923
 O108 O 0.04631 0.94833 0.04538
 C109 C 0.29558 1.02289 0.28471
 C110 C 0.29413 1.00447 0.33968
 C111 C 0.34262 1.00518 0.37126
 C112 C 0.39306 1.02342 0.34813
 C113 C 0.39128 1.04448 0.29385
 N114 N 0.34382 1.04302 0.26418
 C115 C 0.24829 1.01770 0.24615
 N116 N 0.25937 1.02040 0.19110
 C117 C 0.21974 1.01513 0.15190
 C118 C 0.16437 1.00660 0.16705
 C119 C 0.15152 1.00430 0.22368
 C120 C 0.19333 1.00976 0.26338
 H121 H 0.34091 0.98763 0.41232
 H122 H 0.42737 1.06245 0.27454
 H123 H 0.23181 1.01792 0.10891
 H124 H 0.10928 0.99837 0.23729
 H125 H 0.25701 0.98718 0.35758
 H126 H 0.18233 1.00844 0.30667
 C127 C -0.30963 0.99540 0.27539
 C128 C -0.31003 0.96959 0.32726
 C129 C -0.35773 0.97181 0.35999
 C130 C -0.40567 0.99942 0.34126
 C131 C -0.40248 1.02515 0.28896
 N132 N -0.35576 1.02223 0.25822
 C133 C -0.26180 0.99362 0.23726
 N134 N -0.27132 1.00324 0.18271
 C135 C -0.23034 1.00398 0.14448
 C136 C -0.17523 0.99529 0.16034
 C137 C -0.16416 0.98548 0.21650
 C138 C -0.20729 0.98452 0.25508
 H139 H -0.35721 0.94949 0.39863
 H140 H -0.43615 1.04955 0.27274
 H141 H -0.24104 1.01197 0.10181
 H142 H -0.12227 0.97869 0.23065
 H143 H -0.27471 0.94654 0.34197
 H144 H -0.19765 0.97799 0.29821
 C145 C -0.29881 1.02293 -0.29461
 C146 C -0.29932 0.99436 -0.34535
 C147 C -0.34757 0.99367 -0.37715
 C148 C -0.39520 1.02119 -0.35856
 C149 C -0.39215 1.05101 -0.30877
 N150 N -0.34507 1.05056 -0.27832
 C151 C -0.25170 1.02032 -0.25566
 N152 N -0.26197 1.03021 -0.20123
 C153 C -0.22221 1.02687 -0.16189
 C154 C -0.16779 1.01278 -0.17635
 C155 C -0.15573 1.00361 -0.23244
 C156 C -0.19753 1.00726 -0.27222
 H157 H -0.34837 0.96957 -0.41498
 H158 H -0.42756 1.07365 -0.29336
 H159 H -0.23340 1.03516 -0.11934
 H160 H -0.11422 0.99308 -0.24551
 H161 H -0.26408 0.97065 -0.35931
 H162 H -0.18720 1.00033 -0.31518
 C163 C 0.30513 0.99352 -0.28547
 C164 C 0.30855 0.95984 -0.33284
 C165 C 0.35614 0.96177 -0.36577
 C166 C 0.40010 0.99717 -0.35162
 C167 C 0.39434 1.03064 -0.30438
 N168 N 0.34808 1.02764 -0.27289
 C169 C 0.25769 0.99196 -0.24695
 N170 N 0.26658 1.00708 -0.19347
 C171 C 0.22565 1.00802 -0.15515
 C172 C 0.17134 0.99389 -0.16993
 C173 C 0.16088 0.97864 -0.22505
 C174 C 0.20397 0.97738 -0.26366
 H175 H 0.35901 0.93470 -0.40141
 H176 H 0.42649 1.05948 -0.29243
 H177 H 0.23566 1.02052 -0.11332
 H178 H 0.11954 0.96753 -0.23825
 H179 H 0.27580 0.93123 -0.34356
 H180 H 0.19498 0.96632 -0.30608
 C181 C 0.28333 1.30011 0.04107
 C182 C 0.26904 1.34633 0.07319
 C183 C 0.30228 1.39325 0.07229
 C184 C 0.35092 1.39460 0.04034
 C185 C 0.36702 1.34484 0.01397
 N186 N 0.33261 1.30002 0.01382
 C187 C 0.24319 1.25440 0.03259
 N188 N 0.26068 1.20150 0.02317
 C189 C 0.22448 1.15890 0.01424
 C190 C 0.16716 1.16879 0.01374
 C191 C 0.14891 1.22333 0.02236
 C192 C 0.18642 1.26581 0.03154
 H193 H 0.28948 1.42865 0.09671
 H194 H 0.40426 1.34289 -0.01071
 H195 H 0.24045 1.11758 0.00754
 H196 H 0.10535 1.23359 0.02218
 H197 H 0.23158 1.34698 0.09767
 H198 H 0.17080 1.30750 0.03664
 C199 C 0.27496 0.68969 0.01153
 C200 C 0.26179 0.64653 0.04762
 C201 C 0.29563 0.60023 0.05031
 C202 C 0.34334 0.59578 0.01700
 C203 C 0.35686 0.64214 -0.01611
 N204 N 0.32250 0.68685 -0.01843
 C205 C 0.23601 0.73624 0.00407
 N206 N 0.25466 0.78924 -0.00152
 C207 C 0.21936 0.83310 -0.00593
 C208 C 0.16179 0.82456 -0.00493
 C209 C 0.14235 0.76986 -0.00098
 C210 C 0.17903 0.72601 0.00348
 H211 H 0.28451 0.56849 0.07978
 H212 H 0.39257 0.64192 -0.04293
 H213 H 0.23621 0.87447 -0.00949
 H214 H 0.09853 0.76065 -0.00049
 H215 H 0.22537 0.64842 0.07361
 H216 H 0.16283 0.68429 0.00641
 C217 C -0.29189 0.70119 0.00847
 C218 C -0.34346 0.70107 -0.01831
 C219 C -0.37562 0.65288 -0.01819
 C220 C -0.35648 0.60497 0.00834
 C221 C -0.30576 0.60762 0.03630
 N222 N -0.27507 0.65464 0.03514
 C223 C -0.25284 0.74831 0.00543
 N224 N -0.19833 0.73779 0.01415
 C225 C -0.15896 0.77767 0.01123
 C226 C -0.17347 0.83256 -0.00098
 C227 C -0.22961 0.84480 -0.00927
 C228 C -0.26943 0.80283 -0.00620
 H229 H -0.41426 0.65235 -0.04076
 H230 H -0.28992 0.57199 0.05819
 H231 H -0.11638 0.76624 0.01870
 H232 H -0.24275 0.88665 -0.01832
 H233 H -0.35793 0.73662 -0.04115
 H234 H -0.31244 0.81332 -0.01217
 C235 C -0.28446 1.30530 -0.01438
 C236 C -0.33285 1.30715 -0.04654
 C237 C -0.36615 1.35457 -0.04503
 C238 C -0.35126 1.39993 -0.01169
 C239 C -0.30308 1.39571 0.02038
 N240 N -0.27135 1.34957 0.01789
 C241 C -0.24557 1.25808 -0.01536
 N242 N -0.19219 1.26776 -0.00044
 C243 C -0.15356 1.22715 0.00130
 C244 C -0.16788 1.17233 -0.01179
 C245 C -0.22284 1.16110 -0.02698
 C246 C -0.26178 1.20385 -0.02900
 H247 H -0.40266 1.35625 -0.07082
 H248 H -0.29057 1.42901 0.04769
 H249 H -0.11187 1.23781 0.01361
 H250 H -0.23572 1.11938 -0.03737
 H251 H -0.34416 1.27330 -0.07367
 H252 H -0.30406 1.19415 -0.03988
 C253 C 0.01776 1.27661 0.30629
 C254 C 0.05213 1.26441 0.35115
 C255 C 0.05129 1.29798 0.39782
 C256 C 0.01676 1.34491 0.40062
 C257 C -0.01436 1.35770 0.35282
 N258 N -0.01364 1.32332 0.30795
 C259 C 0.01339 1.23766 0.25907
 N260 N 0.00364 1.25649 0.20686
 C261 C -0.00031 1.22146 0.16257
 C262 C 0.00506 1.16395 0.16992
 C263 C 0.01432 1.14421 0.22367
 C264 C 0.01824 1.18058 0.26794
 H265 H 0.07927 1.28758 0.43107
 H266 H -0.04195 1.39283 0.35189
 H267 H -0.00787 1.23845 0.12193
 H268 H 0.01866 1.10037 0.23190
 H269 H 0.07958 1.22905 0.35040
 H270 H 0.02416 1.16379 0.30894
 C271 C 0.03414 1.28653 -0.30303
 C272 C 0.07416 1.27907 -0.34448
 C273 C 0.07348 1.31273 -0.39107
 C274 C 0.03362 1.35442 -0.39626
 C275 C -0.00280 1.36360 -0.35191
 N276 N -0.00219 1.32936 -0.30725
 C277 C 0.02787 1.24577 -0.25787
 N278 N 0.00897 1.26189 -0.20719
 C279 C 0.00107 1.22512 -0.16516
 C280 C 0.01128 1.16841 -0.17357
 C281 C 0.02998 1.15127 -0.22584
 C282 C 0.03828 1.18951 -0.26775
 H283 H 0.10301 1.30513 -0.42390
 H284 H -0.03390 1.39569 -0.35430
 H285 H -0.01359 1.24008 -0.12557
 H286 H 0.03865 1.10811 -0.23451
 H287 H 0.10475 1.24653 -0.34176
 H288 H 0.05151 1.17475 -0.30792
 C289 C -0.00916 0.71768 -0.31170
 C290 C -0.03334 0.66483 -0.31040
 C291 C -0.03409 0.63231 -0.35841
 C292 C -0.01124 0.65222 -0.40834
 C293 C 0.01241 0.70573 -0.40706
 N294 N 0.01269 0.73613 -0.35993
 C295 C -0.00741 0.75552 -0.26344
 N296 N 0.00291 0.81003 -0.27309
 C297 C 0.00580 0.84826 -0.23204
 C298 C -0.00174 0.83249 -0.17677
 C299 C -0.01161 0.77628 -0.16548
 C300 C -0.01447 0.73766 -0.20863
 H301 H -0.05474 0.59267 -0.35630
 H302 H 0.03318 0.72311 -0.44256
 H303 H 0.01389 0.89095 -0.24291
 H304 H -0.01750 0.76219 -0.12343
 H305 H -0.05270 0.64897 -0.27340
 H306 H -0.02137 0.69458 -0.19877
 C307 C 0.00460 0.71020 0.29277
 C308 C -0.02229 0.65857 0.29326
 C309 C -0.02101 0.62640 0.34123
 C310 C 0.00687 0.64561 0.38845
 C311 C 0.03514 0.69623 0.38526
 N312 N 0.03273 0.72699 0.33854
 C313 C 0.00024 0.74940 0.24618
 N314 N 0.00807 0.80411 0.25717
 C315 C 0.00494 0.84357 0.21761
 C316 C -0.00618 0.82890 0.16253
 C317 C -0.01415 0.77261 0.14992
 C318 C -0.01113 0.73271 0.19164
 H319 H -0.04382 0.58780 0.34224
 H320 H 0.05802 0.71210 0.42035
 H321 H 0.01197 0.88629 0.22936
 H322 H -0.02247 0.75939 0.10791
 H323 H -0.04615 0.64420 0.25823
 H324 H -0.01653 0.68953 0.18093
   
