data_POSCAR
  _audit_creation_date              2014-09-24
  _audit_creation_method            'ToBaCCo'
  _symmetry_space_group_name_H-M    'P1'
  _symmetry_Int_Tables_number       1
  _symmetry_cell_setting            triclinic
  loop_
  _symmetry_equiv_pos_as_xyz
 x,y,z
_cell_length_a 45.1131
_cell_length_b 46.1210
_cell_length_c 44.2220
_cell_angle_alpha 91.069600
_cell_angle_beta 89.929900
_cell_angle_gamma 91.375100
loop_
  _atom_site_label
  _atom_site_type_symbol
  _atom_site_fract_x
  _atom_site_fract_y
  _atom_site_fract_z
C1 C 0.18540 0.19084 0.22133
 N2 N 0.17415 0.21430 0.20757
 C3 C 0.18562 0.22381 0.18099
 N4 N 0.20872 0.20969 0.16821
 C5 C 0.22037 0.18623 0.18160
 N6 N 0.20843 0.17697 0.20807
 C7 C -0.19955 0.78680 0.24820
 N8 N -0.19249 0.76034 0.23674
 C9 C -0.20358 0.75065 0.20974
 N10 N -0.22213 0.76773 0.19412
 C11 C -0.22954 0.79432 0.20523
 N12 N -0.21799 0.80359 0.23220
 C13 C -0.21864 0.22216 -0.26555
 N14 N -0.24098 0.20758 -0.25136
 C15 C -0.25428 0.21899 -0.22639
 N16 N -0.24474 0.24544 -0.21559
 C17 C -0.22241 0.26037 -0.22959
 N18 N -0.20947 0.24850 -0.25450
 C19 C 0.19219 0.80343 -0.23564
 N20 N 0.18084 0.78060 -0.21999
 C21 C 0.19374 0.77205 -0.19399
 N22 N 0.21831 0.78662 -0.18360
 C23 C 0.23019 0.80940 -0.19895
 N24 N 0.21690 0.81762 -0.22491
 C25 C 0.20987 1.19189 0.78200
 N26 N 0.23493 1.18234 0.79528
 C27 C 0.24551 1.19508 0.82121
 N28 N 0.23058 1.21739 0.83403
 C29 C 0.20552 1.22730 0.82120
 N30 N 0.19545 1.21445 0.79513
 C31 C 0.80684 0.79662 0.77474
 N32 N 0.78264 0.80771 0.78873
 C33 C 0.76666 0.79185 0.80887
 N34 N 0.77512 0.76453 0.81506
 C35 C 0.79914 0.75298 0.80122
 N36 N 0.81490 0.76918 0.78118
 C37 C 0.20838 0.80467 1.22330
 N38 N 0.19292 0.78355 1.20767
 C39 C 0.20528 0.76945 1.18361
 N40 N 0.23355 0.77661 1.17545
 C41 C 0.24928 0.79755 1.19078
 N42 N 0.23651 0.81156 1.21450
 C43 C 0.80843 1.20951 1.24751
 N44 N 0.78171 1.19926 1.23730
 C45 C 0.76447 1.21552 1.21948
 N46 N 0.77429 1.24238 1.21162
 C47 C 0.80102 1.25312 1.22140
 N48 N 0.81792 1.23650 1.23939
 O49 O 0.52855 0.96412 0.96082
 O50 O 0.48461 0.97098 1.06282
 O51 O 0.57419 0.99402 1.03379
 O52 O 0.47621 0.96322 0.96769
 O53 O 0.53997 0.97509 1.06366
 O54 O 0.48920 0.98788 0.92900
 O55 O 0.47675 0.95101 1.01932
 O56 O 0.56883 0.98495 0.97852
 C57 C 0.55593 0.96351 0.96538
 C58 C 0.47717 0.94911 1.04721
 C59 C 0.56643 0.97691 1.05473
 C60 C 0.47077 0.96917 0.94052
 O61 O 0.49381 1.03435 0.96078
 O62 O 0.53727 1.03068 1.06687
 O63 O 0.54887 1.04168 0.97477
 O64 O 0.45123 1.00162 1.03479
 O65 O 0.48259 1.02853 1.05998
 O66 O 0.54079 1.01305 0.93889
 O67 O 0.45502 1.01655 0.98234
 O68 O 0.55505 1.04848 1.02605
 Co69 Co 0.51031 0.99904 0.96251
 Co70 Co 0.51105 1.00131 1.05811
 Co71 Co 0.55789 1.01580 1.00334
 Co72 Co 0.46883 0.98478 1.00156
 O73 O 0.51347 1.00135 1.00859
 C74 C 0.46725 1.03663 0.96779
 C75 C 0.55129 1.05025 1.05369
 C76 C 0.55288 1.03597 0.94771
 C77 C 0.45675 1.02364 1.05115
 O78 O 0.03086 0.47341 0.04078
 O79 O 0.03265 0.52459 -0.04393
 O80 O 0.00036 0.43930 -0.03830
 O81 O 0.00189 0.56060 0.01795
 O82 O 0.03228 0.47269 -0.04697
 O83 O 0.03279 0.52840 0.03221
 O84 O 0.00122 0.55766 -0.03641
 O85 O 0.00446 0.43921 0.01737
 C86 C 0.02633 0.44722 0.03364
 C87 C 0.02716 0.55075 -0.04276
 C88 C 0.02627 0.44651 -0.04523
 C89 C 0.02716 0.55427 0.02770
 O90 O -0.02226 0.53066 0.05443
 O91 O -0.02402 0.47221 -0.07008
 O92 O -0.05143 0.45323 0.02295
 O93 O -0.05344 0.53068 -0.03453
 O94 O -0.02212 0.52479 -0.06982
 O95 O -0.02466 0.47701 0.05708
 O96 O -0.05372 0.53643 0.01928
 O97 O -0.05421 0.45976 -0.03423
 Co98 Co 0.00300 0.50236 0.04088
 Co99 Co 0.00338 0.49863 -0.05352
 Co100 Co -0.02392 0.45284 -0.00826
 Co101 Co -0.02468 0.54247 -0.00845
 O102 O -0.01030 0.49889 -0.00701
 C103 C -0.04794 0.53695 0.04657
 C104 C -0.04938 0.46339 -0.06164
 C105 C -0.04659 0.46079 0.04985
 C106 C -0.04791 0.53070 -0.06187
 O107 O 1.04859 0.03422 0.48134
 O108 O 0.94526 0.02704 0.53128
 O109 O 0.97304 0.00247 0.44084
 O110 O 1.03635 0.04100 0.53716
 O111 O 0.94893 0.02660 0.47517
 O112 O 1.07042 0.01270 0.52884
 O113 O 0.98634 0.04780 0.54422
 O114 O 1.02534 0.01655 0.44272
 C115 C 1.04091 0.03656 0.45450
 C116 C 0.95907 0.04843 0.54210
 C117 C 0.95685 0.02338 0.44832
 C118 C 1.06251 0.03518 0.54178
 O119 O 1.04696 -0.03622 0.51711
 O120 O 0.94554 -0.03037 0.47538
 O121 O 1.03814 -0.03704 0.46337
 O122 O 0.97758 -0.00672 0.56562
 O123 O 0.94823 -0.02855 0.53215
 O124 O 1.07752 -0.01238 0.47573
 O125 O 1.03096 -0.01542 0.55847
 O126 O 0.98711 -0.04946 0.46484
 Co127 Co 1.04597 -0.00129 0.49838
 Co128 Co 0.95216 -0.00118 0.50323
 Co129 Co 1.00557 -0.01530 0.45706
 Co130 Co 1.00757 0.01527 0.54764
 O131 O 1.00089 0.00042 0.50295
 C132 C 1.04288 -0.03681 0.54518
 C133 C 0.95979 -0.05172 0.46636
 C134 C 1.06502 -0.03113 0.45737
 C135 C 0.95765 -0.02566 0.55879
 C136 C 1.14450 0.15653 0.29971
 C137 C 1.13517 0.18288 0.28806
 C138 C 1.14896 0.19457 0.26250
 C139 C 1.17266 0.18028 0.24823
 C140 C 1.18274 0.15451 0.26099
 C141 C 1.16867 0.14273 0.28623
 C142 C 1.12784 0.14225 0.32442
 C143 C 1.11895 0.11301 0.32103
 C144 C 1.10272 0.09925 0.34367
 C145 C 1.09527 0.11430 0.37040
 C146 C 1.10445 0.14347 0.37412
 C147 C 1.12034 0.15747 0.35109
 C148 C 1.07816 0.09895 0.39406
 C149 C 1.08856 0.09810 0.42397
 C150 C 1.07520 0.07915 0.44467
 C151 C 1.05122 0.06097 0.43568
 C152 C 1.03945 0.06371 0.40648
 C153 C 1.05284 0.08241 0.38589
 H154 H 1.11647 0.19384 0.29803
 H155 H 1.14061 0.21454 0.25369
 H156 H 1.20101 0.14285 0.25106
 H157 H 1.17644 0.12250 0.29502
 H158 H 1.12422 0.10089 0.30058
 H159 H 1.09618 0.07665 0.34042
 H160 H 1.09895 0.15545 0.39457
 H161 H 1.12704 0.18003 0.35420
 H162 H 1.10810 0.11069 0.43074
 H163 H 1.08471 0.07747 0.46703
 H164 H 1.02077 0.05026 0.39897
 H165 H 1.04415 0.08305 0.36309
 C166 C 0.84077 -0.18060 0.32894
 C167 C 0.82222 -0.16316 0.31180
 C168 C 0.80827 -0.17416 0.28574
 C169 C 0.81294 -0.20282 0.27560
 C170 C 0.83108 -0.22046 0.29310
 C171 C 0.84462 -0.20955 0.31951
 C172 C 0.85719 -0.16797 0.35547
 C173 C 0.88629 -0.17631 0.36179
 C174 C 0.90294 -0.16198 0.38440
 C175 C 0.89114 -0.13855 0.40089
 C176 C 0.86152 -0.13123 0.39557
 C177 C 0.84470 -0.14593 0.37342
 C178 C 0.91023 -0.12003 0.42129
 C179 C 0.89803 -0.10519 0.44631
 C180 C 0.91466 -0.08388 0.46204
 C181 C 0.94404 -0.07749 0.45359
 C182 C 0.95706 -0.09386 0.43030
 C183 C 0.94027 -0.11468 0.41410
 H184 H 0.81915 -0.14059 0.31787
 H185 H 0.79457 -0.15973 0.27307
 H186 H 0.83503 -0.24275 0.28641
 H187 H 0.85825 -0.22380 0.33243
 H188 H 0.89679 -0.19307 0.34842
 H189 H 0.92540 -0.16875 0.38830
 H190 H 0.85159 -0.11318 0.40746
 H191 H 0.82211 -0.13941 0.36981
 H192 H 0.87530 -0.10930 0.45315
 H193 H 0.90426 -0.07175 0.48021
 H194 H 0.97967 -0.08924 0.42324
 H195 H 0.95046 -0.12525 0.39482
 C196 C 0.83052 0.18106 0.66267
 C197 C 0.83358 0.21112 0.66815
 C198 C 0.81717 0.22464 0.69102
 C199 C 0.79711 0.20844 0.70872
 C200 C 0.79338 0.17859 0.70263
 C201 C 0.81001 0.16504 0.68005
 C202 C 0.84945 0.16608 0.63998
 C203 C 0.83824 0.14204 0.62327
 C204 C 0.85674 0.12603 0.60436
 C205 C 0.88690 0.13387 0.60121
 C206 C 0.89782 0.15873 0.61682
 C207 C 0.87936 0.17455 0.63610
 C208 C 0.90706 0.11498 0.58338
 C209 C 0.93624 0.11046 0.59324
 C210 C 0.95389 0.08994 0.57870
 C211 C 0.94253 0.07318 0.55438
 C212 C 0.91400 0.07860 0.54357
 C213 C 0.89658 0.09948 0.55768
 H214 H 0.84879 0.22421 0.65488
 H215 H 0.82039 0.24774 0.69500
 H216 H 0.77830 0.16541 0.71597
 H217 H 0.80743 0.14179 0.67693
 H218 H 0.81520 0.13521 0.62521
 H219 H 0.84752 0.10683 0.59310
 H220 H 0.92077 0.16573 0.61458
 H221 H 0.88886 0.19280 0.64877
 H222 H 0.94500 0.12168 0.61313
 H223 H 0.97580 0.08606 0.58753
 H224 H 0.90492 0.06621 0.52454
 H225 H 0.87460 0.10295 0.54888
 C226 C 1.14684 -0.16522 0.68807
 C227 C 1.13629 -0.19010 0.70287
 C228 C 1.15159 -0.20089 0.72757
 C229 C 1.17785 -0.18699 0.73821
 C230 C 1.18883 -0.16259 0.72263
 C231 C 1.17351 -0.15187 0.69797
 C232 C 1.12934 -0.15214 0.66359
 C233 C 1.14357 -0.13980 0.63845
 C234 C 1.12739 -0.12477 0.61711
 C235 C 1.09662 -0.12173 0.62045
 C236 C 1.08221 -0.13519 0.64484
 C237 C 1.09839 -0.15022 0.66617
 C238 C 1.08017 -0.10252 0.60011
 C239 C 1.05945 -0.08322 0.61225
 C240 C 1.04642 -0.06270 0.59403
 C241 C 1.05376 -0.06101 0.56323
 C242 C 1.07336 -0.08118 0.55068
 C243 C 1.08653 -0.10169 0.56898
 H244 H 1.11603 -0.20112 0.69549
 H245 H 1.14241 -0.21987 0.73859
 H246 H 1.20896 -0.15121 0.72985
 H247 H 1.18205 -0.13244 0.68730
 H248 H 1.16733 -0.14126 0.63560
 H249 H 1.13919 -0.11445 0.59872
 H250 H 1.05848 -0.13352 0.64783
 H251 H 1.08678 -0.15929 0.68538
 H252 H 1.05430 -0.08305 0.63617
 H253 H 1.03126 -0.04755 0.60432
 H254 H 1.07938 -0.08042 0.52698
 H255 H 1.10212 -0.11653 0.55892
 C256 C 0.29060 1.14055 1.14008
 C257 C 0.27980 1.16569 1.12696
 C258 C 0.25672 1.18085 1.14065
 C259 C 0.24397 1.17133 1.16797
 C260 C 0.25522 1.14628 1.18121
 C261 C 0.27813 1.13108 1.16737
 C262 C 0.31467 1.12407 1.12532
 C263 C 0.31304 1.09362 1.12365
 C264 C 0.33588 1.07798 1.11024
 C265 C 0.36095 1.09243 1.09836
 C266 C 0.36253 1.12289 1.09987
 C267 C 0.33956 1.13856 1.11309
 C268 C 0.38559 1.07564 1.08509
 C269 C 0.41520 1.08318 1.09202
 C270 C 0.43835 1.06647 1.08077
 C271 C 0.43236 1.04194 1.06224
 C272 C 0.40278 1.03481 1.05472
 C273 C 0.37964 1.05143 1.06610
 H274 H 0.28885 1.17335 1.10579
 H275 H 0.24886 1.19998 1.12962
 H276 H 0.24627 1.13815 1.20223
 H277 H 0.28630 1.11199 1.17821
 H278 H 0.29400 1.08188 1.13259
 H279 H 0.33418 1.05451 1.10967
 H280 H 0.38148 1.13460 1.09069
 H281 H 0.34149 1.16201 1.11425
 H282 H 0.42043 1.10158 1.10680
 H283 H 0.46091 1.07260 1.08687
 H284 H 0.39746 1.01619 1.04028
 H285 H 0.35706 1.04535 1.06004
 C286 C 0.30439 0.85699 0.83646
 C287 C 0.29185 0.86454 0.80875
 C288 C 0.26759 0.84870 0.79685
 C289 C 0.25532 0.82477 0.81235
 C290 C 0.26851 0.81690 0.83978
 C291 C 0.29265 0.83282 0.85165
 C292 C 0.32915 0.87455 0.85005
 C293 C 0.32910 0.88111 0.88117
 C294 C 0.35264 0.89680 0.89444
 C295 C 0.37693 0.90627 0.87696
 C296 C 0.37670 0.90038 0.84565
 C297 C 0.35301 0.88467 0.83231
 C298 C 0.40252 0.92157 0.89181
 C299 C 0.41666 0.94578 0.87862
 C300 C 0.43956 0.96098 0.89396
 C301 C 0.44861 0.95218 0.92266
 C302 C 0.43513 0.92747 0.93530
 C303 C 0.41247 0.91232 0.92004
 H304 H 0.30034 0.88317 0.79664
 H305 H 0.25830 0.85553 0.77564
 H306 H 0.26008 0.79858 0.85243
 H307 H 0.30219 0.82618 0.87281
 H308 H 0.31071 0.87422 0.89530
 H309 H 0.35177 0.90161 0.91848
 H310 H 0.39518 0.90723 0.83164
 H311 H 0.35370 0.87981 0.80827
 H312 H 0.40939 0.95348 0.85694
 H313 H 0.44958 0.98003 0.88380
 H314 H 0.44186 0.91998 0.95726
 H315 H 0.40257 0.89337 0.93049
 C316 C 0.71305 0.84867 1.15716
 C317 C 0.72029 0.82127 1.14525
 C318 C 0.73926 0.80328 1.16098
 C319 C 0.75153 0.81230 1.18903
 C320 C 0.74443 0.83997 1.20061
 C321 C 0.72552 0.85785 1.18489
 C322 C 0.69205 0.86747 1.14123
 C323 C 0.67078 0.88293 1.15774
 C324 C 0.65096 0.90069 1.14309
 C325 C 0.65182 0.90342 1.11150
 C326 C 0.67319 0.88812 1.09491
 C327 C 0.69305 0.87025 1.10962
 C328 C 0.63007 0.92184 1.09614
 C329 C 0.63872 0.94000 1.07232
 C330 C 0.61815 0.95794 1.05873
 C331 C 0.58852 0.95798 1.06865
 C332 C 0.57988 0.93947 1.09215
 C333 C 0.60037 0.92166 1.10569
 H334 H 0.71080 0.81348 1.12405
 H335 H 0.74408 0.78222 1.15115
 H336 H 0.75341 0.84804 1.22194
 H337 H 0.72079 0.87903 1.19442
 H338 H 0.66918 0.88101 1.18206
 H339 H 0.63502 0.91245 1.15656
 H340 H 0.67424 0.88962 1.07052
 H341 H 0.70936 0.85882 1.09630
 H342 H 0.66151 0.94074 1.06460
 H343 H 0.62547 0.97184 1.04058
 H344 H 0.55720 0.93874 1.10022
 H345 H 0.59287 0.90753 1.12358
 C346 C 0.68152 1.16879 0.82117
 C347 C 0.69315 1.15864 0.79361
 C348 C 0.71389 1.17539 0.77768
 C349 C 0.72350 1.20291 0.78883
 C350 C 0.71102 1.21338 0.81604
 C351 C 0.69042 1.19646 0.83204
 C352 C 0.66112 1.15006 0.83909
 C353 C 0.66503 1.14788 0.87045
 C354 C 0.64660 1.12957 0.88733
 C355 C 0.62362 1.11311 0.87334
 C356 C 0.61964 1.11538 0.84193
 C357 C 0.63824 1.13360 0.82499
 C358 C 0.60411 1.09366 0.89158
 C359 C 0.59446 1.06630 0.88024
 C360 C 0.57725 1.04763 0.89816
 C361 C 0.56951 1.05593 0.92778
 C362 C 0.57865 1.08343 0.93888
 C363 C 0.59559 1.10211 0.92097
 H364 H 0.68689 1.13730 0.78479
 H365 H 0.72269 1.16642 0.75681
 H366 H 0.71752 1.23444 0.82541
 H367 H 0.68151 1.20500 0.85305
 H368 H 0.68282 1.15985 0.88185
 H369 H 0.65076 1.12790 0.91134
 H370 H 0.60193 1.10334 0.83050
 H371 H 0.63455 1.13505 0.80088
 H372 H 0.60087 1.05898 0.85782
 H373 H 0.57055 1.02649 0.88912
 H374 H 0.57283 1.09050 0.96157
 H375 H 0.60204 1.12322 0.93021
 C376 C 0.14488 0.29390 0.13450
 C377 C 0.16895 0.27943 0.12149
 C378 C 0.18249 0.25703 0.13678
 C379 C 0.17220 0.24850 0.16539
 C380 C 0.14833 0.26323 0.17852
 C381 C 0.13486 0.28567 0.16327
 C382 C 0.12992 0.31717 0.11799
 C383 C 0.12073 0.34230 0.13341
 C384 C 0.10570 0.36374 0.11816
 C385 C 0.09947 0.36056 0.08712
 C386 C 0.10896 0.33559 0.07158
 C387 C 0.12408 0.31415 0.08684
 C388 C 0.08233 0.38287 0.07139
 C389 C 0.05976 0.37469 0.05083
 C390 C 0.04207 0.39563 0.03788
 C391 C 0.04662 0.42520 0.04517
 C392 C 0.06989 0.43342 0.06489
 C393 C 0.08751 0.41249 0.07786
 H394 H 0.17740 0.28553 0.09953
 H395 H 0.20086 0.24623 0.12599
 H396 H 0.13977 0.25724 0.20048
 H397 H 0.11613 0.29616 0.17373
 H398 H 0.12517 0.34539 0.15733
 H399 H 0.09838 0.38256 0.13085
 H400 H 0.10469 0.33264 0.04762
 H401 H 0.13065 0.29491 0.07439
 H402 H 0.05507 0.35202 0.04556
 H403 H 0.02436 0.38857 0.02275
 H404 H 0.07413 0.45602 0.07085
 H405 H 0.10506 0.41950 0.09321
 C406 C -0.18434 0.33797 -0.18820
 C407 C -0.17194 0.32599 -0.21463
 C408 C -0.18493 0.30145 -0.22865
 C409 C -0.21059 0.28817 -0.21652
 C410 C -0.22371 0.30087 -0.19081
 C411 C -0.21077 0.32551 -0.17686
 C412 C -0.16849 0.36182 -0.17128
 C413 C -0.16701 0.36131 -0.13957
 C414 C -0.15001 0.38203 -0.12354
 C415 C -0.13397 0.40384 -0.13876
 C416 C -0.13597 0.40485 -0.17043
 C417 C -0.15311 0.38409 -0.18653
 C418 C -0.11382 0.42398 -0.12145
 C419 C -0.08502 0.43047 -0.13202
 C420 C -0.06440 0.44519 -0.11331
 C421 C -0.07220 0.45345 -0.08368
 C422 C -0.10159 0.44892 -0.07402
 C423 C -0.12219 0.43445 -0.09273
 H424 H -0.15142 0.33479 -0.22378
 H425 H -0.17421 0.29233 -0.24845
 H426 H -0.24363 0.29141 -0.18102
 H427 H -0.22120 0.33453 -0.15684
 H428 H -0.17801 0.34415 -0.12712
 H429 H -0.14844 0.38022 -0.09922
 H430 H -0.12409 0.42155 -0.18276
 H431 H -0.15410 0.38530 -0.21093
 H432 H -0.07786 0.42262 -0.15400
 H433 H -0.04189 0.44845 -0.12133
 H434 H -0.10836 0.45551 -0.05146
 H435 H -0.14441 0.43044 -0.08424
 C436 C 0.15383 0.70260 -0.14298
 C437 C 0.14497 0.70742 -0.17288
 C438 C 0.15807 0.72981 -0.18948
 C439 C 0.18052 0.74775 -0.17665
 C440 C 0.18970 0.74263 -0.14686
 C441 C 0.17637 0.72039 -0.13015
 C442 C 0.13903 0.67949 -0.12513
 C443 C 0.12988 0.68502 -0.09522
 C444 C 0.11411 0.66383 -0.07916
 C445 C 0.10746 0.63659 -0.09258
 C446 C 0.11739 0.63080 -0.12217
 C447 C 0.13290 0.65205 -0.13830
 C448 C 0.08871 0.61483 -0.07667
 C449 C 0.09552 0.58526 -0.07806
 C450 C 0.07614 0.56447 -0.06584
 C451 C 0.04942 0.57282 -0.05225
 C452 C 0.04320 0.60248 -0.04976
 C453 C 0.06272 0.62328 -0.06172
 H454 H 0.12742 0.69425 -0.18322
 H455 H 0.15048 0.73311 -0.21235
 H456 H 0.20690 0.75605 -0.13626
 H457 H 0.18377 0.71700 -0.10723
 H458 H 0.13413 0.70605 -0.08459
 H459 H 0.10687 0.66881 -0.05633
 H460 H 0.11232 0.61012 -0.13321
 H461 H 0.13993 0.64711 -0.16121
 H462 H 0.11560 0.57819 -0.08912
 H463 H 0.08158 0.54178 -0.06798
 H464 H 0.02282 0.60956 -0.03934
 H465 H 0.05679 0.64589 -0.06049
 C466 C -0.17140 0.67190 0.16893
 C467 C -0.15899 0.68308 0.19597
 C468 C -0.17014 0.70805 0.20973
 C469 C -0.19383 0.72262 0.19667
 C470 C -0.20696 0.71088 0.17022
 C471 C -0.19595 0.68574 0.15659
 C472 C -0.15740 0.64727 0.15260
 C473 C -0.15501 0.64740 0.12091
 C474 C -0.13976 0.62572 0.10550
 C475 C -0.12635 0.60340 0.12134
 C476 C -0.12918 0.60282 0.15295
 C477 C -0.14467 0.62447 0.16842
 C478 C -0.10808 0.58203 0.10472
 C479 C -0.07987 0.57488 0.11541
 C480 C -0.06074 0.55858 0.09726
 C481 C -0.06952 0.54925 0.06814
 C482 C -0.09849 0.55464 0.05843
 C483 C -0.11755 0.57083 0.07652
 H484 H -0.13983 0.67327 0.20591
 H485 H -0.15944 0.71647 0.23008
 H486 H -0.22544 0.72137 0.15974
 H487 H -0.20641 0.67738 0.13609
 H488 H -0.16392 0.66491 0.10802
 H489 H -0.13745 0.62709 0.08119
 H490 H -0.11927 0.58573 0.16569
 H491 H -0.14646 0.62349 0.19280
 H492 H -0.07195 0.58331 0.13702
 H493 H -0.03856 0.55469 0.10534
 H494 H -0.10604 0.54738 0.03625
 H495 H -0.13938 0.57550 0.06799
 C496 C 1.17303 0.14837 0.70484
 C497 C 1.15972 0.17312 0.71724
 C498 C 1.17214 0.18773 0.74228
 C499 C 1.19835 0.17803 0.75569
 C500 C 1.21218 0.15371 0.74259
 C501 C 1.19964 0.13908 0.71750
 C502 C 1.15848 0.13186 0.67950
 C503 C 1.17512 0.12017 0.65546
 C504 C 1.16101 0.10494 0.63159
 C505 C 1.12999 0.10115 0.63129
 C506 C 1.11350 0.11246 0.65559
 C507 C 1.12754 0.12760 0.67934
 C508 C 1.11451 0.08547 0.60598
 C509 C 1.08746 0.09561 0.59517
 C510 C 1.07125 0.07971 0.57346
 C511 C 1.08174 0.05333 0.56187
 C512 C 1.10942 0.04372 0.57154
 C513 C 1.12569 0.05967 0.59343
 H514 H 1.13953 0.18119 0.70762
 H515 H 1.16084 0.20648 0.75125
 H516 H 1.23240 0.14550 0.75201
 H517 H 1.21034 0.11997 0.70858
 H518 H 1.19898 0.12325 0.65483
 H519 H 1.17428 0.09662 0.61311
 H520 H 1.08966 0.10929 0.65644
 H521 H 1.11414 0.13567 0.69786
 H522 H 1.07855 0.11571 0.60388
 H523 H 1.05007 0.08775 0.56628
 H524 H 1.11794 0.02339 0.56302
 H525 H 1.14640 0.05123 0.60140
 C526 C 0.85781 -0.15208 0.71422
 C527 C 0.83269 -0.14081 0.72855
 C528 C 0.81581 -0.15773 0.74835
 C529 C 0.82368 -0.18644 0.75447
 C530 C 0.84896 -0.19764 0.74005
 C531 C 0.86575 -0.18067 0.72017
 C532 C 0.87526 -0.13422 0.69265
 C533 C 0.88532 -0.14643 0.66527
 C534 C 0.90040 -0.12931 0.64425
 C535 C 0.90584 -0.09960 0.65015
 C536 C 0.89648 -0.08754 0.67785
 C537 C 0.88129 -0.10465 0.69885
 C538 C 0.91995 -0.08104 0.62687
 C539 C 0.94133 -0.05956 0.63481
 C540 C 0.95385 -0.04165 0.61274
 C541 C 0.94506 -0.04477 0.58234
 C542 C 0.92382 -0.06641 0.57446
 C543 C 0.91145 -0.08432 0.59644
 H544 H 0.82575 -0.11899 0.72405
 H545 H 0.79655 -0.14816 0.75881
 H546 H 0.85596 -0.21953 0.74407
 H547 H 0.88518 -0.18986 0.70966
 H548 H 0.88083 -0.16908 0.65975
 H549 H 0.90764 -0.13927 0.62322
 H550 H 0.90017 -0.06468 0.68293
 H551 H 0.87413 -0.09472 0.71992
 H552 H 0.94849 -0.05673 0.65806
 H553 H 0.97028 -0.02529 0.61950
 H554 H 0.91655 -0.06944 0.55125
 H555 H 0.89473 -0.10038 0.58968
 C556 C 1.16853 -0.14824 0.29540
 C557 C 1.19793 -0.14211 0.28678
 C558 C 1.21114 -0.15782 0.26327
 C559 C 1.19528 -0.18017 0.24765
 C560 C 1.16592 -0.18656 0.25671
 C561 C 1.15275 -0.17078 0.28024
 C562 C 1.15417 -0.13081 0.31968
 C563 C 1.12459 -0.12248 0.31662
 C564 C 1.11096 -0.10610 0.33933
 C565 C 1.12655 -0.09765 0.36569
 C566 C 1.15624 -0.10567 0.36865
 C567 C 1.16990 -0.12210 0.34589
 C568 C 1.11151 -0.08099 0.39010
 C569 C 1.12606 -0.05774 0.40545
 C570 C 1.11121 -0.04162 0.42771
 C571 C 1.08162 -0.04856 0.43501
 C572 C 1.06735 -0.07213 0.42008
 C573 C 1.08210 -0.08815 0.39794
 H574 H 1.21058 -0.12467 0.29777
 H575 H 1.23377 -0.15207 0.25720
 H576 H 1.15289 -0.20363 0.24555
 H577 H 1.13019 -0.17634 0.28668
 H578 H 1.11206 -0.12829 0.29645
 H579 H 1.08824 -0.09978 0.33610
 H580 H 1.16871 -0.09976 0.38883
 H581 H 1.19263 -0.12844 0.34906
 H582 H 1.14867 -0.05160 0.39974
 H583 H 1.12267 -0.02349 0.43883
 H584 H 1.04462 -0.07820 0.42541
 H585 H 1.07047 -0.10627 0.38699
 C586 C 0.86218 0.15614 0.30075
 C587 C 0.83438 0.14607 0.29025
 C588 C 0.81667 0.16369 0.27287
 C589 C 0.82629 0.19198 0.26538
 C590 C 0.85425 0.20202 0.27594
 C591 C 0.87192 0.18432 0.29345
 C592 C 0.88035 0.13750 0.32005
 C593 C 0.89458 0.14914 0.34594
 C594 C 0.90946 0.13112 0.36558
 C595 C 0.91051 0.10110 0.35973
 C596 C 0.89732 0.08963 0.33321
 C597 C 0.88235 0.10764 0.31360
 C598 C 0.92353 0.08161 0.38220
 C599 C 0.94096 0.05812 0.37308
 C600 C 0.95201 0.03918 0.39448
 C601 C 0.94563 0.04328 0.42536
 C602 C 0.92841 0.06692 0.43441
 C603 C 0.91752 0.08583 0.41310
 H604 H 0.82603 0.12464 0.29596
 H605 H 0.79535 0.15498 0.26539
 H606 H 0.86263 0.22355 0.27071
 H607 H 0.89335 0.19259 0.30109
 H608 H 0.89329 0.17202 0.35159
 H609 H 0.91975 0.14061 0.38567
 H610 H 0.89761 0.06657 0.32820
 H611 H 0.87194 0.09813 0.29359
 H612 H 0.94613 0.05449 0.34941
 H613 H 0.96540 0.02128 0.38686
 H614 H 0.92316 0.07077 0.45803
 H615 H 0.90378 0.10344 0.42079
 C616 C 0.15727 0.29443 -0.13608
 C617 C 0.14841 0.28308 -0.16440
 C618 C 0.16432 0.26102 -0.17856
 C619 C 0.18979 0.24996 -0.16486
 C620 C 0.19882 0.26179 -0.13660
 C621 C 0.18262 0.28359 -0.12232
 C622 C 0.13995 0.31739 -0.12088
 C623 C 0.13221 0.31524 -0.09019
 C624 C 0.11501 0.33646 -0.07617
 C625 C 0.10563 0.36042 -0.09248
 C626 C 0.11379 0.36277 -0.12303
 C627 C 0.13063 0.34139 -0.13713
 C628 C 0.08667 0.38256 -0.07810
 C629 C 0.09264 0.41221 -0.08251
 C630 C 0.07357 0.43306 -0.07087
 C631 C 0.04789 0.42465 -0.05494
 C632 C 0.04235 0.39504 -0.04979
 C633 C 0.06167 0.37420 -0.06110
 H634 H 0.12879 0.29094 -0.17538
 H635 H 0.15652 0.25268 -0.20026
 H636 H 0.21825 0.25405 -0.12518
 H637 H 0.19005 0.29218 -0.10059
 H638 H 0.13897 0.29684 -0.07723
 H639 H 0.10910 0.33423 -0.05257
 H640 H 0.10660 0.38088 -0.13618
 H641 H 0.13648 0.34364 -0.16074
 H642 H 0.11196 0.41922 -0.09525
 H643 H 0.07845 0.45573 -0.07513
 H644 H 0.02279 0.38797 -0.03748
 H645 H 0.05650 0.35147 -0.05750
 C646 C -0.16396 0.33095 0.18501
 C647 C -0.19296 0.32140 0.17807
 C648 C -0.20498 0.29642 0.19107
 C649 C -0.18818 0.28015 0.21124
 C650 C -0.15970 0.29082 0.21953
 C651 C -0.14776 0.31594 0.20654
 C652 C -0.14977 0.35471 0.16766
 C653 C -0.13200 0.37632 0.18194
 C654 C -0.11728 0.39751 0.16482
 C655 C -0.11983 0.39726 0.13309
 C656 C -0.13789 0.37570 0.11903
 C657 C -0.15276 0.35483 0.13609
 C658 C -0.10247 0.41800 0.11424
 C659 C -0.11415 0.42754 0.08677
 C660 C -0.09627 0.44271 0.06642
 C661 C -0.06653 0.44933 0.07339
 C662 C -0.05541 0.44201 0.10179
 C663 C -0.07315 0.42625 0.12197
 H664 H -0.20610 0.33289 0.16190
 H665 H -0.22714 0.28942 0.18437
 H666 H -0.14609 0.27924 0.23520
 H667 H -0.12529 0.32280 0.21221
 H668 H -0.12946 0.37677 0.20629
 H669 H -0.10381 0.41395 0.17642
 H670 H -0.13975 0.37421 0.09465
 H671 H -0.16577 0.33807 0.12442
 H672 H -0.13688 0.42241 0.08047
 H673 H -0.10545 0.44853 0.04480
 H674 H -0.03246 0.44681 0.10758
 H675 H -0.06333 0.41914 0.14279
 C676 C -0.16974 0.66984 -0.17165
 C677 C -0.19689 0.68016 -0.16080
 C678 C -0.20741 0.70674 -0.17027
 C679 C -0.19104 0.72362 -0.19085
 C680 C -0.16451 0.71269 -0.20269
 C681 C -0.15397 0.68611 -0.19318
 C682 C -0.15672 0.64352 -0.15873
 C683 C -0.14113 0.62377 -0.17699
 C684 C -0.12648 0.60065 -0.16403
 C685 C -0.12708 0.59686 -0.13256
 C686 C -0.14349 0.61611 -0.11451
 C687 C -0.15814 0.63910 -0.12743
 C688 C -0.10866 0.57478 -0.11797
 C689 C -0.11874 0.56085 -0.09174
 C690 C -0.09939 0.54477 -0.07448
 C691 C -0.06967 0.54201 -0.08327
 C692 C -0.06025 0.55364 -0.11088
 C693 C -0.07954 0.57002 -0.12801
 H694 H -0.20976 0.66789 -0.14455
 H695 H -0.22809 0.71431 -0.16091
 H696 H -0.15137 0.72506 -0.21864
 H697 H -0.13283 0.67891 -0.20172
 H698 H -0.13996 0.62644 -0.20124
 H699 H -0.11431 0.58601 -0.17858
 H700 H -0.14388 0.61430 -0.09014
 H701 H -0.16945 0.65421 -0.11265
 H702 H -0.14125 0.56346 -0.08382
 H703 H -0.10732 0.53563 -0.05349
 H704 H -0.03744 0.55182 -0.11817
 H705 H -0.07099 0.58054 -0.14800
 C706 C 0.15530 0.70757 0.13130
 C707 C 0.14317 0.72023 0.15757
 C708 C 0.15962 0.74049 0.17495
 C709 C 0.18881 0.74850 0.16666
 C710 C 0.20100 0.73547 0.14051
 C711 C 0.18443 0.71545 0.12304
 C712 C 0.13774 0.68613 0.11268
 C713 C 0.15144 0.66214 0.09902
 C714 C 0.13485 0.64166 0.08209
 C715 C 0.10409 0.64449 0.07859
 C716 C 0.09047 0.66873 0.09184
 C717 C 0.10710 0.68933 0.10857
 C718 C 0.08602 0.62151 0.06268
 C719 C 0.06123 0.62856 0.04523
 C720 C 0.04265 0.60672 0.03285
 C721 C 0.04858 0.57737 0.03747
 C722 C 0.07410 0.57032 0.05367
 C723 C 0.09251 0.59210 0.06624
 H724 H 0.12099 0.71426 0.16493
 H725 H 0.14935 0.74977 0.19493
 H726 H 0.22329 0.74098 0.13310
 H727 H 0.19434 0.70649 0.10273
 H728 H 0.17492 0.65879 0.10192
 H729 H 0.14615 0.62348 0.07189
 H730 H 0.06678 0.67144 0.08996
 H731 H 0.09589 0.70778 0.11832
 H732 H 0.05593 0.65098 0.04152
 H733 H 0.02324 0.61283 0.02030
 H734 H 0.07927 0.54791 0.05770
 H735 H 0.11114 0.58582 0.07984
 C736 C 0.32221 1.16211 0.86600
 C737 C 0.31066 1.14808 0.83991
 C738 C 0.28612 1.15903 0.82505
 C739 C 0.27246 1.18421 0.83599
 C740 C 0.28439 1.19857 0.86172
 C741 C 0.30898 1.18766 0.87652
 C742 C 0.34704 1.14935 0.88290
 C743 C 0.34674 1.14915 0.91469
 C744 C 0.36867 1.13494 0.93058
 C745 C 0.39137 1.12053 0.91507
 C746 C 0.39234 1.12172 0.88333
 C747 C 0.37043 1.13598 0.86744
 C748 C 0.41234 1.10217 0.93157
 C749 C 0.44219 1.10041 0.92261
 C750 C 0.46072 1.08018 0.93563
 C751 C 0.44967 1.06127 0.95772
 C752 C 0.42035 1.06415 0.96786
 C753 C 0.40190 1.08436 0.95494
 H754 H 0.32004 1.12811 0.83147
 H755 H 0.27750 1.14738 0.80534
 H756 H 0.27461 1.21816 0.87065
 H757 H 0.31760 1.19922 0.89627
 H758 H 0.32892 1.15903 0.92730
 H759 H 0.36750 1.13469 0.95504
 H760 H 0.40934 1.11060 0.87067
 H761 H 0.37154 1.13612 0.84298
 H762 H 0.45098 1.11415 0.90499
 H763 H 0.48326 1.07848 0.92744
 H764 H 0.41124 1.04995 0.98493
 H765 H 0.37899 1.08493 0.96218
 C766 C 0.33501 0.82465 1.15753
 C767 C 0.31799 0.84341 1.17562
 C768 C 0.29067 0.83421 1.18726
 C769 C 0.27935 0.80623 1.18061
 C770 C 0.29645 0.78719 1.16308
 C771 C 0.32412 0.79620 1.15191
 C772 C 0.36285 0.83556 1.14303
 C773 C 0.37065 0.82624 1.11367
 C774 C 0.39435 0.83948 1.09842
 C775 C 0.41045 0.86283 1.11184
 C776 C 0.40378 0.87089 1.14189
 C777 C 0.38056 0.85720 1.15737
 C778 C 0.43162 0.88082 1.09374
 C779 C 0.45546 0.89611 1.10770
 C780 C 0.47149 0.91736 1.09204
 C781 C 0.46456 0.92318 1.06188
 C782 C 0.44263 0.90621 1.04706
 C783 C 0.42611 0.88550 1.06288
 H784 H 0.32514 0.86566 1.17991
 H785 H 0.27787 0.84945 1.20049
 H786 H 0.28838 0.76536 1.15788
 H787 H 0.33680 0.78094 1.13862
 H788 H 0.35759 0.80971 1.10174
 H789 H 0.39930 0.83206 1.07565
 H790 H 0.41537 0.88886 1.15309
 H791 H 0.37586 0.86438 1.18028
 H792 H 0.46104 0.89251 1.13110
 H793 H 0.48861 0.92997 1.10382
 H794 H 0.43675 0.91037 1.02382
 H795 H 0.40778 0.87460 1.05130
 C796 C 0.68499 1.17859 1.17914
 C797 C 0.70435 1.16129 1.19547
 C798 C 0.72958 1.17348 1.20935
 C799 C 0.73632 1.20325 1.20699
 C800 C 0.71662 1.22074 1.19132
 C801 C 0.69118 1.20856 1.17765
 C802 C 0.65957 1.16495 1.16233
 C803 C 0.65199 1.17451 1.13339
 C804 C 0.63049 1.15951 1.11610
 C805 C 0.61628 1.13439 1.12719
 C806 C 0.62287 1.12567 1.15669
 C807 C 0.64408 1.14086 1.17409
 C808 C 0.59670 1.11590 1.10733
 C809 C 0.57254 1.10010 1.11942
 C810 C 0.55691 1.07957 1.10164
 C811 C 0.56483 1.07468 1.07127
 C812 C 0.58773 1.09171 1.05865
 C813 C 0.60361 1.11194 1.07651
 H814 H 0.70066 1.13806 1.19664
 H815 H 0.74431 1.15932 1.22111
 H816 H 0.72104 1.24381 1.18929
 H817 H 0.67650 1.22260 1.16567
 H818 H 0.66355 1.19286 1.12350
 H819 H 0.62557 1.16718 1.09372
 H820 H 0.61265 1.10630 1.16594
 H821 H 0.64891 1.13325 1.19652
 H822 H 0.56615 1.10306 1.14285
 H823 H 0.53912 1.06696 1.11188
 H824 H 0.59440 1.08836 1.03533
 H825 H 0.62229 1.12336 1.06646
 C826 C 0.69418 0.83079 0.85693
 C827 C 0.70693 0.84438 0.83172
 C828 C 0.73015 0.83155 0.81590
 C829 C 0.74106 0.80472 0.82480
 C830 C 0.72785 0.79081 0.84964
 C831 C 0.70475 0.80379 0.86563
 C832 C 0.67078 0.84544 0.87470
 C833 C 0.67204 0.84653 0.90646
 C834 C 0.65155 0.86257 0.92310
 C835 C 0.62924 0.87765 0.90834
 C836 C 0.62732 0.87564 0.87665
 C837 C 0.64792 0.85977 0.86001
 C838 C 0.60942 0.89717 0.92556
 C839 C 0.57919 0.89863 0.91822
 C840 C 0.56136 0.91934 0.93221
 C841 C 0.57351 0.93915 0.95359
 C842 C 0.60342 0.93688 0.96184
 C843 C 0.62116 0.91606 0.94804
 H844 H 0.69948 0.86537 0.82473
 H845 H 0.73975 0.84284 0.79686
 H846 H 0.73569 0.77013 0.85711
 H847 H 0.69515 0.79273 0.88482
 H848 H 0.68954 0.83585 0.91837
 H849 H 0.65341 0.86357 0.94751
 H850 H 0.61056 0.88727 0.86462
 H851 H 0.64624 0.85906 0.83557
 H852 H 0.56950 0.88411 0.90122
 H853 H 0.53836 0.92055 0.92544
 H854 H 0.61336 0.95177 0.97836
 H855 H 0.64442 0.91562 0.95398
   
