data_POSCAR
  _audit_creation_date              2014-09-24
  _audit_creation_method            'ToBaCCo'
  _symmetry_space_group_name_H-M    'P1'
  _symmetry_Int_Tables_number       1
  _symmetry_cell_setting            triclinic
  loop_
  _symmetry_equiv_pos_as_xyz
 x,y,z
_cell_length_a 36.8550
_cell_length_b 35.8531
_cell_length_c 36.3517
_cell_angle_alpha 90.155600
_cell_angle_beta 89.699000
_cell_angle_gamma 90.189300
loop_
  _atom_site_label
  _atom_site_type_symbol
  _atom_site_fract_x
  _atom_site_fract_y
  _atom_site_fract_z
N1 N 0.23301 1.23315 0.24980
 N2 N 0.83366 0.83957 0.16359
 N3 N 0.75089 1.23202 -0.23164
 N4 N 0.23349 0.75010 -0.23423
 C5 C 0.53803 1.05291 -0.01444
 H6 H 0.54053 1.05308 0.01520
 C7 C 0.56083 1.07531 -0.03582
 H8 H 0.58086 1.09296 -0.02264
 C9 C 0.50973 1.02874 -0.06795
 H10 H 0.49039 1.00993 -0.08039
 C11 C 0.53206 1.05071 -0.09037
 H12 H 0.52959 1.04905 -0.12002
 N13 N 0.51301 1.03034 -0.03068
 C14 C 0.43436 1.00844 0.05695
 H15 H 0.43486 0.97828 0.05765
 C16 C 0.41133 1.02808 0.08067
 H17 H 0.39408 1.01307 0.09982
 C18 C 0.45571 1.06497 0.03073
 H19 H 0.47255 1.07925 0.01082
 C20 C 0.43310 1.08566 0.05393
 H21 H 0.43287 1.11581 0.05206
 Zn22 Zn 0.48590 0.99867 0.00078
 N23 N 0.45619 1.02707 0.03286
 C24 C 0.52255 0.97277 0.06482
 N25 N 0.52029 0.97079 0.02748
 C26 C 0.54500 0.95133 0.00726
 C27 C 0.57353 0.93297 0.02451
 C28 C 0.55076 0.95481 0.08319
 C29 C 0.42855 0.98286 -0.04695
 C30 C 0.40511 0.96081 -0.06790
 C31 C 0.43644 0.90602 -0.04630
 C32 C 0.45932 0.92909 -0.02576
 N33 N 0.45530 0.96681 -0.02682
 H34 H 0.50324 0.98917 0.08030
 H35 H 0.54298 0.95090 -0.02242
 H36 H 0.59349 0.91820 0.00810
 H37 H 0.55294 0.95718 0.11281
 H38 H 0.42563 1.01288 -0.04684
 H39 H 0.38409 0.97383 -0.08411
 H40 H 0.43994 0.87604 -0.04552
 H41 H 0.48014 0.91679 -0.00893
 C42 C 0.41076 1.06705 0.07914
 C43 C 0.55792 1.07408 -0.07412
 C44 C 0.40921 0.92205 -0.06767
 C45 C 0.57663 0.93502 0.06276
 C46 C -0.00774 0.54533 1.04741
 H47 H 0.02154 0.54322 1.04780
 C48 C -0.02488 0.57476 1.06559
 H49 H -0.00881 0.59533 1.08018
 C50 C -0.06437 0.52215 1.02644
 H51 H -0.07954 0.50220 1.01033
 C52 C -0.08262 0.55125 1.04423
 H53 H -0.11183 0.55344 1.04204
 N54 N -0.02755 0.51979 1.02832
 C55 C 0.04565 0.42486 1.01726
 H56 H 0.04576 0.42133 0.98769
 C57 C 0.06627 0.40120 1.03926
 H58 H 0.08242 0.37940 1.02666
 C59 C 0.02440 0.45749 1.06994
 H60 H 0.00773 0.47914 1.08184
 C61 C 0.04460 0.43443 1.09294
 H62 H 0.04371 0.43863 1.12245
 Zn63 Zn -0.00108 0.48393 1.00106
 N64 N 0.02569 0.45269 1.03279
 C65 C 0.06715 0.50737 0.97130
 N66 N 0.03044 0.51119 0.96976
 C67 C 0.01482 0.53682 0.94734
 C68 C 0.03628 0.55964 0.92500
 C69 C 0.08963 0.52969 0.94937
 C70 C -0.05680 0.43133 0.99138
 C71 C -0.08037 0.40799 0.97193
 C72 C -0.05317 0.42967 0.91522
 C73 C -0.03013 0.45260 0.93569
 N74 N -0.03260 0.45334 0.97307
 H75 H 0.07911 0.48758 0.98996
 H76 H -0.01438 0.53975 0.94720
 H77 H 0.02361 0.58013 0.90742
 H78 H 0.11883 0.52676 0.95093
 H79 H -0.05779 0.43204 1.02113
 H80 H -0.09969 0.39070 0.98668
 H81 H -0.05110 0.42932 0.88548
 H82 H -0.01017 0.46954 0.92166
 C83 C 0.06588 0.40619 1.07743
 C84 C -0.06262 0.57791 1.06375
 C85 C -0.07857 0.40726 0.93350
 C86 C 0.07402 0.55612 0.92612
 C87 C 1.04528 -0.01730 0.57408
 H88 H 1.04522 0.01269 0.57744
 C89 C 1.06600 -0.03943 0.59747
 H90 H 1.08208 -0.02650 0.61889
 C91 C 1.02432 -0.07092 0.54214
 H92 H 1.00772 -0.08313 0.52086
 C93 C 1.04464 -0.09407 0.56495
 H94 H 1.04391 -0.12402 0.56094
 N95 N 1.02540 -0.03323 0.54674
 C96 C 1.01415 0.05318 0.46362
 H97 H 0.98493 0.05347 0.46094
 C98 C 1.03557 0.07557 0.44080
 H99 H 1.02284 0.09334 0.42059
 C100 C 1.06656 0.02871 0.49234
 H101 H 1.07857 0.00979 0.51183
 C102 C 1.08900 0.05067 0.47002
 H103 H 1.11821 0.04888 0.47265
 Zn104 Zn 0.99845 -0.00119 0.51598
 N105 N 1.02984 0.03047 0.48886
 C106 C 0.96918 0.06509 0.54695
 N107 N 0.96695 0.02718 0.54628
 C108 C 0.94301 0.00852 0.56820
 C109 C 0.91949 0.02813 0.59144
 C110 C 0.94618 0.08575 0.56978
 C111 C 0.99164 -0.04831 0.45553
 C112 C 0.97441 -0.06653 0.42648
 C113 C 0.91677 -0.04459 0.44987
 C114 C 0.93510 -0.02677 0.47859
 N115 N 0.97191 -0.02888 0.48081
 H116 H 0.98894 0.07939 0.53004
 H117 H 0.94221 -0.02164 0.56753
 H118 H 0.90040 0.01310 0.60869
 H119 H 0.94806 0.11591 0.57010
 H120 H 1.02091 -0.04885 0.45753
 H121 H 0.99042 -0.08131 0.40609
 H122 H 0.88757 -0.04214 0.44775
 H123 H 0.91999 -0.01038 0.49833
 C124 C 1.07332 0.07419 0.44394
 C125 C 1.06582 -0.07814 0.59271
 C126 C 0.93669 -0.06438 0.42344
 C127 C 0.92106 0.06711 0.59214
 C128 C 0.13780 0.29886 1.13550
 C129 C 0.17785 0.30720 1.14540
 C130 C 0.16926 0.29800 1.18578
 C131 C 0.12955 0.28928 1.17625
 C132 C 0.12842 0.33980 1.14356
 C133 C 0.11982 0.33060 1.18394
 C134 C 0.16813 0.34850 1.15310
 C135 C 0.15988 0.33894 1.19383
 C136 C 0.19215 0.27470 1.20912
 C137 C 0.21111 0.25542 1.22812
 C138 C 0.10587 0.36323 1.11999
 C139 C 0.08752 0.38269 1.10058
 H140 H 0.12847 0.28263 1.11126
 H141 H 0.20198 0.29733 1.12982
 H142 H 0.11395 0.26467 1.18604
 H143 H 0.09569 0.34048 1.19951
 H144 H 0.18375 0.37311 1.14331
 H145 H 0.16921 0.35517 1.21807
 C146 C -0.08517 0.70465 1.12091
 C147 C -0.10818 0.73219 1.09821
 C148 C -0.13405 0.73656 1.13121
 C149 C -0.11122 0.70949 1.15412
 C150 C -0.10898 0.67242 1.10688
 C151 C -0.13486 0.67666 1.13990
 C152 C -0.13181 0.69950 1.08400
 C153 C -0.15794 0.70437 1.11720
 C154 C -0.14688 0.77304 1.14386
 C155 C -0.15633 0.80375 1.15338
 C156 C -0.09384 0.63757 1.09248
 C157 C -0.08021 0.60985 1.07979
 H158 H -0.05509 0.70441 1.12228
 H159 H -0.09733 0.75539 1.08119
 H160 H -0.10291 0.71402 1.18310
 H161 H -0.14565 0.65340 1.15686
 H162 H -0.14012 0.69502 1.05501
 H163 H -0.18802 0.70470 1.11584
 C164 C -0.13903 0.29824 0.86509
 C165 C -0.17973 0.29023 0.87268
 C166 C -0.18773 0.29714 0.83182
 C167 C -0.14740 0.30478 0.82390
 C168 C -0.14584 0.33983 0.87259
 C169 C -0.15385 0.34672 0.83174
 C170 C -0.18617 0.33221 0.88054
 C171 C -0.19454 0.33873 0.83932
 C172 C -0.21069 0.27332 0.80879
 C173 C -0.22920 0.25356 0.78953
 C174 C -0.12220 0.36370 0.89487
 C175 C -0.10246 0.38348 0.91273
 H176 H -0.11595 0.28185 0.87593
 H177 H -0.19064 0.26673 0.88924
 H178 H -0.13171 0.29324 0.80036
 H179 H -0.14295 0.37020 0.81515
 H180 H -0.20183 0.34376 0.90409
 H181 H -0.21762 0.35511 0.82847
 C182 C 0.17815 0.63183 0.86685
 C183 C 0.18024 0.63268 0.82426
 C184 C 0.17529 0.67520 0.82545
 C185 C 0.17355 0.67477 0.86768
 C186 C 0.13675 0.62755 0.86440
 C187 C 0.13182 0.67008 0.86557
 C188 C 0.13848 0.62798 0.82217
 C189 C 0.13388 0.67091 0.82302
 C190 C 0.19650 0.70202 0.80385
 C191 C 0.21375 0.72433 0.78613
 C192 C 0.11491 0.60143 0.88621
 C193 C 0.09652 0.58047 0.90431
 H194 H 0.19611 0.61546 0.88511
 H195 H 0.20039 0.61762 0.80701
 H196 H 0.18820 0.69432 0.88615
 H197 H 0.11168 0.68517 0.88280
 H198 H 0.12382 0.60844 0.80369
 H199 H 0.11592 0.68728 0.80477
 C200 C 1.17745 0.13259 0.36802
 C201 C 1.17283 0.13106 0.32570
 C202 C 1.17471 0.17385 0.32457
 C203 C 1.17968 0.17574 0.36647
 C204 C 1.13606 0.13537 0.37230
 C205 C 1.13793 0.17817 0.37118
 C206 C 1.13111 0.13350 0.33039
 C207 C 1.13331 0.17661 0.32887
 C208 C 1.19597 0.19524 0.29774
 C209 C 1.21325 0.21284 0.27548
 C210 C 1.11418 0.11380 0.39848
 C211 C 1.09579 0.09586 0.41951
 H212 H 1.19536 0.11426 0.38443
 H213 H 1.18741 0.11193 0.30669
 H214 H 1.19990 0.19336 0.38100
 H215 H 1.12335 0.19730 0.39018
 H216 H 1.11090 0.11590 0.31584
 H217 H 1.11540 0.19494 0.31246
 C218 C 1.13016 -0.14150 0.70095
 C219 C 1.12804 -0.18460 0.70323
 C220 C 1.16963 -0.18627 0.70069
 C221 C 1.17210 -0.14353 0.69878
 C222 C 1.12861 -0.14431 0.65881
 C223 C 1.17020 -0.14598 0.65629
 C224 C 1.12613 -0.18705 0.66072
 C225 C 1.16808 -0.18908 0.65855
 C226 C 1.19260 -0.20946 0.72406
 C227 C 1.21159 -0.22834 0.74342
 C228 C 1.10596 -0.12082 0.63540
 C229 C 1.08754 -0.10141 0.61602
 H230 H 1.11432 -0.12168 0.71813
 H231 H 1.11097 -0.20076 0.72280
 H232 H 1.19127 -0.12590 0.71469
 H233 H 1.18729 -0.12984 0.63673
 H234 H 1.10696 -0.20467 0.64480
 H235 H 1.18392 -0.20890 0.64138
 C236 C 0.90826 -0.13669 0.30584
 C237 C 0.87052 -0.15482 0.29971
 C238 C 0.86526 -0.12974 0.26596
 C239 C 0.90276 -0.11185 0.27160
 C240 C 0.89026 -0.10644 0.32968
 C241 C 0.88496 -0.08145 0.29588
 C242 C 0.85273 -0.12432 0.32417
 C243 C 0.84724 -0.09949 0.28977
 C244 C 0.85256 -0.14179 0.22971
 C245 C 0.84332 -0.15080 0.19919
 C246 C 0.90540 -0.09253 0.36428
 C247 C 0.91906 -0.08017 0.39179
 H248 H 0.93351 -0.15184 0.31282
 H249 H 0.86442 -0.18513 0.30084
 H250 H 0.92322 -0.10683 0.24962
 H251 H 0.89106 -0.05113 0.29466
 H252 H 0.83234 -0.12929 0.34621
 H253 H 0.82200 -0.08434 0.28275
 C254 C 0.84950 0.17061 0.65645
 C255 C 0.80793 0.16571 0.66078
 C256 C 0.81213 0.16877 0.70270
 C257 C 0.85335 0.17402 0.69873
 C258 C 0.85398 0.12816 0.65971
 C259 C 0.85817 0.13123 0.70163
 C260 C 0.81275 0.12289 0.66366
 C261 C 0.81658 0.12632 0.70598
 C262 C 0.78920 0.19171 0.72671
 C263 C 0.77073 0.21091 0.74664
 C264 C 0.87758 0.10592 0.63571
 C265 C 0.89727 0.08802 0.61590
 H266 H 0.86330 0.18858 0.63583
 H267 H 0.78701 0.18013 0.64425
 H268 H 0.86979 0.19531 0.71341
 H269 H 0.87909 0.11681 0.71817
 H270 H 0.79633 0.10160 0.64897
 H271 H 0.80277 0.10838 0.72662
 C272 C 0.34482 1.12976 0.18829
 C273 C 0.34151 1.17279 0.18650
 C274 C 0.30000 1.16884 0.18769
 C275 C 0.30292 1.12616 0.18985
 C276 C 0.34315 1.12817 0.14609
 C277 C 0.30164 1.12422 0.14728
 C278 C 0.34021 1.17085 0.14395
 C279 C 0.29835 1.16724 0.14549
 C280 C 0.27592 1.19178 0.21050
 C281 C 0.25599 1.21092 0.22891
 C282 C 0.36720 1.10590 0.12260
 C283 C 0.38703 1.08798 0.10296
 H284 H 0.36421 1.11408 0.20562
 H285 H 0.35764 1.19302 0.20288
 H286 H 0.28731 1.10805 0.20899
 H287 H 0.28551 1.10400 0.13089
 H288 H 0.35580 1.18898 0.12482
 H289 H 0.27897 1.18291 0.12814
 C290 C 0.62353 1.14939 -0.17586
 C291 C 0.63934 1.18781 -0.16448
 C292 C 0.67746 1.17386 -0.17474
 C293 C 0.66208 1.13579 -0.18646
 C294 C 0.62963 1.13532 -0.13650
 C295 C 0.66775 1.12139 -0.14677
 C296 C 0.64502 1.17339 -0.12478
 C297 C 0.68352 1.15978 -0.13538
 C298 C 0.70432 1.19525 -0.19580
 C299 C 0.72663 1.21284 -0.21298
 C300 C 0.60340 1.11371 -0.11482
 C301 C 0.58235 1.09576 -0.09654
 H302 H 0.59857 1.14488 -0.19225
 H303 H 0.62798 1.21538 -0.17199
 H304 H 0.66942 1.12057 -0.21206
 H305 H 0.67914 1.09383 -0.13927
 H306 H 0.63770 1.18863 -0.09919
 H307 H 0.70849 1.16428 -0.11897
 C308 C 0.30062 0.85789 -0.12988
 C309 C 0.30090 0.85665 -0.17248
 C310 C 0.29967 0.81384 -0.17091
 C311 C 0.29902 0.81471 -0.12866
 C312 C 0.34225 0.85591 -0.13026
 C313 C 0.34103 0.81310 -0.12868
 C314 C 0.34289 0.85503 -0.17252
 C315 C 0.34130 0.81186 -0.17129
 C316 C 0.27590 0.79060 -0.19366
 C317 C 0.25622 0.77168 -0.21249
 C318 C 0.36602 0.87942 -0.10777
 C319 C 0.38565 0.89883 -0.08941
 H320 H 0.28415 0.87707 -0.11260
 H321 H 0.28412 0.87429 -0.19075
 H322 H 0.28072 0.79787 -0.11088
 H323 H 0.35781 0.79546 -0.11041
 H324 H 0.36119 0.87187 -0.19031
 H325 H 0.35777 0.79268 -0.18857
 C326 C 0.67393 0.86576 0.14108
 C327 C 0.70239 0.84389 0.11805
 C328 C 0.73226 0.86962 0.13313
 C329 C 0.70445 0.89127 0.15639
 C330 C 0.66919 0.89284 0.10878
 C331 C 0.69911 0.91851 0.12388
 C332 C 0.69705 0.87119 0.08558
 C333 C 0.72739 0.89669 0.10085
 C334 C 0.76816 0.85770 0.14543
 C335 C 0.79840 0.84889 0.15433
 C336 C 0.63498 0.90676 0.09392
 C337 C 0.60781 0.91916 0.08039
 H338 H 0.65152 0.85322 0.15744
 H339 H 0.70416 0.81307 0.11581
 H340 H 0.70793 0.89937 0.18566
 H341 H 0.69740 0.94934 0.12612
 H342 H 0.69364 0.86308 0.05630
 H343 H 0.74973 0.90929 0.08442
   
