data_POSCAR
  _audit_creation_date              2014-09-24
  _audit_creation_method            'ToBaCCo'
  _symmetry_space_group_name_H-M    'P1'
  _symmetry_Int_Tables_number       1
  _symmetry_cell_setting            triclinic
  loop_
  _symmetry_equiv_pos_as_xyz
 x,y,z
_cell_length_a 33.9996
_cell_length_b 34.1907
_cell_length_c 40.3871
_cell_angle_alpha 90.449500
_cell_angle_beta 88.449400
_cell_angle_gamma 90.466800
loop_
  _atom_site_label
  _atom_site_type_symbol
  _atom_site_fract_x
  _atom_site_fract_y
  _atom_site_fract_z
C1 C 1.25266 0.24153 0.25087
 C2 C 0.75717 -0.25383 0.25033
 C3 C 0.74710 0.24116 -0.24974
 C4 C 1.24795 -0.26143 -0.24837
 C5 C 0.25422 0.26267 0.74927
 C6 C 0.74831 0.75653 0.74717
 C7 C 0.74630 0.25258 0.25098
 C8 C 0.24275 0.75982 0.24705
 O9 O 1.06698 0.02629 0.03845
 O10 O 0.93292 -0.01731 0.03684
 O11 O 0.97743 0.06991 0.03904
 O12 O 1.02333 -0.06185 0.03692
 O13 O 0.92471 0.04783 0.01914
 O14 O 1.07720 -0.03861 0.01798
 O15 O 0.95742 -0.07061 0.01909
 O16 O 1.04411 0.07976 0.02151
 C17 C 1.06052 0.06126 0.04370
 C18 C 0.93864 -0.05240 0.04118
 C19 C 0.94169 0.06422 0.04252
 C20 C 1.05900 -0.05695 0.04022
 O21 O 1.07118 -0.01251 -0.04491
 O22 O 0.93581 0.02369 -0.04522
 O23 O 1.02212 0.07269 -0.04295
 O24 O 0.98357 -0.06241 -0.04515
 O25 O 0.92832 -0.04262 -0.02682
 O26 O 1.07625 0.05328 -0.02478
 O27 O 1.04908 -0.06738 -0.02795
 O28 O 0.95563 0.07768 -0.02533
 Co29 Co 1.06595 0.00698 -0.00330
 Co30 Co 0.93742 0.00311 -0.00405
 Co31 Co 1.00002 0.06835 -0.00204
 Co32 Co 1.00316 -0.05879 -0.00412
 O33 O 1.00165 0.00488 -0.00339
 C34 C 1.06689 -0.04797 -0.04982
 C35 C 0.94037 0.05932 -0.04859
 C36 C 1.05795 0.06953 -0.04713
 C37 C 0.94793 -0.05961 -0.04905
 O38 O 1.06736 0.51817 0.53824
 O39 O 0.93177 0.48132 0.54497
 O40 O 0.97726 0.56640 0.53914
 O41 O 1.02187 0.43324 0.54218
 O42 O 0.92364 0.54520 0.52132
 O43 O 1.07431 0.45210 0.51835
 O44 O 0.95483 0.42595 0.52983
 O45 O 1.04339 0.57172 0.52150
 C46 C 1.06075 0.55325 0.54332
 C47 C 0.93752 0.44656 0.55136
 C48 C 0.94155 0.56226 0.54365
 C49 C 1.05781 0.43776 0.54326
 O50 O 1.06489 0.47635 0.45587
 O51 O 0.93013 0.51374 0.46035
 O52 O 1.02115 0.56192 0.45630
 O53 O 0.97454 0.42848 0.46270
 O54 O 0.92220 0.44977 0.48458
 O55 O 1.07455 0.54304 0.47560
 O56 O 1.04108 0.42309 0.47555
 O57 O 0.95480 0.56909 0.47371
 Co58 Co 1.06311 0.49745 0.49724
 Co59 Co 0.93397 0.49750 0.50251
 Co60 Co 0.99907 0.56080 0.49784
 Co61 Co 0.99809 0.43416 0.50233
 O62 O 0.99854 0.49750 0.49997
 C63 C 1.05889 0.44073 0.45251
 C64 C 0.93572 0.54862 0.45378
 C65 C 1.05717 0.55948 0.45298
 C66 C 0.93882 0.43310 0.46073
 O67 O 0.57296 0.04163 0.52064
 O68 O 0.41921 -0.04905 0.52115
 O69 O 0.45359 0.07028 0.52377
 O70 O 0.53788 -0.07722 0.52801
 O71 O 0.42796 0.01672 0.54074
 O72 O 0.56233 -0.02274 0.54357
 O73 O 0.47116 -0.06837 0.54272
 O74 O 0.51941 0.06370 0.54009
 C75 C 0.55508 0.05965 0.54318
 C76 C 0.43529 -0.06435 0.54505
 C77 C 0.43415 0.05196 0.54547
 C78 C 0.55482 -0.05744 0.54965
 O79 O 0.57244 -0.05304 0.48206
 O80 O 0.42346 0.04215 0.47805
 O81 O 0.54390 0.06710 0.47411
 O82 O 0.45231 -0.07804 0.47690
 O83 O 0.43159 -0.02422 0.45813
 O84 O 0.56753 0.01174 0.45929
 O85 O 0.51930 -0.07304 0.46205
 O86 O 0.47832 0.06083 0.45839
 Co87 Co 0.56172 -0.00555 0.50134
 Co88 Co 0.43269 -0.00371 0.49956
 Co89 Co 0.49862 0.05890 0.49927
 Co90 Co 0.49534 -0.06767 0.50227
 O91 O 0.49712 -0.00449 0.50059
 C92 C 0.55528 -0.06992 0.45914
 C93 C 0.44262 0.05768 0.45497
 C94 C 0.56281 0.04681 0.45327
 C95 C 0.43671 -0.05973 0.45405
 O96 O 0.58083 0.54757 0.01903
 O97 O 0.42587 0.46085 0.02690
 O98 O 0.46241 0.57933 0.02720
 O99 O 0.54450 0.42922 0.02879
 O100 O 0.43747 0.52622 0.04552
 O101 O 0.57126 0.48357 0.04197
 O102 O 0.47845 0.43974 0.04643
 O103 O 0.52901 0.57075 0.04083
 C104 C 0.56452 0.56466 0.04287
 C105 C 0.44273 0.44463 0.04998
 C106 C 0.44359 0.56152 0.04961
 C107 C 0.56486 0.44882 0.04843
 O108 O 0.57603 0.45285 -0.01950
 O109 O 0.42946 0.55130 -0.01716
 O110 O 0.54997 0.57389 -0.02594
 O111 O 0.45529 0.43033 -0.01829
 O112 O 0.43482 0.48452 -0.03668
 O113 O 0.57095 0.51801 -0.04212
 O114 O 0.52117 0.43339 -0.03632
 O115 O 0.48365 0.56849 -0.03898
 Co116 Co 0.56782 0.50073 0.00009
 Co117 Co 0.43905 0.50549 0.00439
 Co118 Co 0.50595 0.56651 0.00101
 Co119 Co 0.50023 0.43979 0.00496
 O120 O 0.50331 0.50313 0.00264
 C121 C 0.55686 0.43633 -0.04143
 C122 C 0.44774 0.56626 -0.04100
 C123 C 0.56704 0.55330 -0.04765
 C124 C 0.43843 0.44877 -0.04043
 C125 C 1.24674 0.18907 0.20605
 C126 C 1.22555 0.16397 0.18569
 C127 C 1.18439 0.16309 0.18755
 C128 C 1.16482 0.18641 0.21149
 C129 C 1.18606 0.21140 0.23212
 C130 C 1.22745 0.21456 0.22875
 C131 C 1.16317 0.13725 0.16434
 C132 C 1.12687 0.14475 0.15401
 C133 C 1.10818 0.12174 0.12739
 C134 C 1.08178 0.14047 0.10677
 C135 C 1.06580 0.12061 0.07987
 C136 C 1.07553 0.08140 0.07333
 C137 C 1.10045 0.06203 0.09490
 C138 C 1.11666 0.08199 0.12168
 H139 H 1.27855 0.18917 0.20372
 H140 H 1.24142 0.14562 0.16798
 H141 H 1.13315 0.18492 0.21479
 H142 H 1.16974 0.22758 0.25093
 H143 H 1.17962 0.11343 0.15304
 H144 H 1.11189 0.17083 0.16278
 H145 H 1.07442 0.17092 0.11090
 H146 H 1.04622 0.13611 0.06392
 H147 H 1.10802 0.03164 0.09072
 H148 H 1.13582 0.06625 0.13778
 C149 C 1.24149 0.70203 0.69496
 C150 C 1.22157 0.67722 0.67347
 C151 C 1.18438 0.66235 0.68212
 C152 C 1.16761 0.67184 0.71319
 C153 C 1.18792 0.69600 0.73513
 C154 C 1.22521 0.71243 0.72643
 C155 C 1.16462 0.63614 0.65849
 C156 C 1.12577 0.63665 0.65402
 C157 C 1.10768 0.61379 0.62716
 C158 C 1.07789 0.63072 0.60885
 C159 C 1.06257 0.61098 0.58159
 C160 C 1.07611 0.57352 0.57272
 C161 C 1.10469 0.55583 0.59199
 C162 C 1.12054 0.57589 0.61885
 H163 H 1.26976 0.71235 0.68617
 H164 H 1.23520 0.66993 0.64967
 H165 H 1.13934 0.65974 0.72092
 H166 H 1.17464 0.70116 0.75942
 H167 H 1.18316 0.61867 0.64200
 H168 H 1.10759 0.65727 0.66788
 H169 H 1.06740 0.65979 0.61499
 H170 H 1.04029 0.62512 0.56733
 H171 H 1.11539 0.52683 0.58589
 H172 H 1.14290 0.56183 0.63306
 C173 C 0.68966 0.19229 0.74470
 C174 C 0.66195 0.17172 0.72612
 C175 C 0.65837 0.17928 0.69230
 C176 C 0.68033 0.21005 0.67813
 C177 C 0.70767 0.23070 0.69663
 C178 C 0.71509 0.22032 0.72970
 C179 C 0.63221 0.15483 0.67180
 C180 C 0.64317 0.14458 0.64082
 C181 C 0.61931 0.12025 0.61842
 C182 C 0.63897 0.09928 0.59312
 C183 C 0.61795 0.07869 0.56941
 C184 C 0.57664 0.07915 0.57008
 C185 C 0.55673 0.09952 0.59578
 C186 C 0.57790 0.11985 0.61986
 H187 H 0.69236 0.18530 0.77064
 H188 H 0.64428 0.14901 0.73790
 H189 H 0.67636 0.21823 0.65259
 H190 H 0.72276 0.25482 0.68458
 H191 H 0.60526 0.14326 0.68292
 H192 H 0.67216 0.15326 0.63157
 H193 H 0.67083 0.09926 0.59142
 H194 H 0.63416 0.06321 0.55000
 H195 H 0.52488 0.10036 0.59687
 H196 H 0.56188 0.13636 0.63871
 C197 C 0.69870 0.74144 0.21235
 C198 C 0.67304 0.72120 0.19193
 C199 C 0.67685 0.68085 0.18688
 C200 C 0.70673 0.66097 0.20312
 C201 C 0.73252 0.68125 0.22357
 C202 C 0.72829 0.72179 0.22941
 C203 C 0.64952 0.66103 0.16414
 C204 C 0.65794 0.62746 0.14823
 C205 C 0.63255 0.61031 0.12261
 C206 C 0.64998 0.58644 0.09804
 C207 C 0.62773 0.57138 0.07233
 C208 C 0.58742 0.57963 0.07081
 C209 C 0.56951 0.60225 0.09606
 C210 C 0.59183 0.61741 0.12181
 H211 H 0.69542 0.77280 0.21501
 H212 H 0.65054 0.73734 0.17949
 H213 H 0.71047 0.62975 0.20018
 H214 H 0.75617 0.66491 0.23404
 H215 H 0.62302 0.67658 0.15829
 H216 H 0.68608 0.61372 0.15164
 H217 H 0.68115 0.58014 0.09832
 H218 H 0.64221 0.55355 0.05344
 H219 H 0.53834 0.60850 0.09576
 H220 H 0.57704 0.63446 0.14099
 C221 C 0.80583 -0.25021 0.20136
 C222 C 0.82719 -0.23035 0.17674
 C223 C 0.82376 -0.18982 0.17355
 C224 C 0.79706 -0.16969 0.19454
 C225 C 0.77548 -0.18961 0.21913
 C226 C 0.78075 -0.23007 0.22399
 C227 C 0.84709 -0.17002 0.14711
 C228 C 0.85774 -0.13224 0.14866
 C229 C 0.88039 -0.11238 0.12180
 C230 C 0.87644 -0.07183 0.11838
 C231 C 0.89591 -0.05219 0.09250
 C232 C 0.91998 -0.07276 0.06965
 C233 C 0.92525 -0.11307 0.07382
 C234 C 0.90576 -0.13272 0.09970
 H235 H 0.80923 -0.28159 0.20310
 H236 H 0.84673 -0.24671 0.16025
 H237 H 0.79187 -0.13877 0.19150
 H238 H 0.75411 -0.17313 0.23364
 H239 H 0.85609 -0.18766 0.12592
 H240 H 0.84864 -0.11462 0.16985
 H241 H 0.85752 -0.05543 0.13535
 H242 H 0.89160 -0.02099 0.09009
 H243 H 0.94418 -0.12951 0.05690
 H244 H 0.91090 -0.16369 0.10234
 C245 C 0.79566 0.24883 0.70150
 C246 C 0.82121 0.27023 0.68093
 C247 C 0.82773 0.31021 0.68662
 C248 C 0.80914 0.32799 0.71435
 C249 C 0.78329 0.30655 0.73490
 C250 C 0.77471 0.26683 0.72806
 C251 C 0.85424 0.33153 0.66301
 C252 C 0.85800 0.37062 0.66163
 C253 C 0.88156 0.39076 0.63527
 C254 C 0.87206 0.42937 0.62721
 C255 C 0.89119 0.44819 0.60063
 C256 C 0.92019 0.42863 0.58157
 C257 C 0.93123 0.39084 0.59071
 C258 C 0.91241 0.37220 0.61745
 H259 H 0.79156 0.21794 0.69634
 H260 H 0.83577 0.25540 0.66026
 H261 H 0.81474 0.35821 0.72079
 H262 H 0.77102 0.32128 0.75651
 H263 H 0.86931 0.31381 0.64443
 H264 H 0.84088 0.38891 0.67841
 H265 H 0.84887 0.44459 0.64082
 H266 H 0.88233 0.47750 0.59431
 H267 H 0.95414 0.37545 0.57689
 H268 H 0.92206 0.34322 0.62380
 C269 C 0.31398 -0.24779 0.72025
 C270 C 0.33933 -0.22450 0.70093
 C271 C 0.32895 -0.18633 0.69278
 C272 C 0.29355 -0.17116 0.70588
 C273 C 0.26803 -0.19445 0.72506
 C274 C 0.27713 -0.23377 0.73226
 C275 C 0.35534 -0.16371 0.67009
 C276 C 0.34263 -0.13456 0.65114
 C277 C 0.36747 -0.11496 0.62541
 C278 C 0.34880 -0.09625 0.59938
 C279 C 0.37085 -0.07922 0.57356
 C280 C 0.41211 -0.08041 0.57331
 C281 C 0.43091 -0.09769 0.59999
 C282 C 0.40886 -0.11471 0.62587
 H283 H 0.32263 -0.27765 0.72472
 H284 H 0.36667 -0.23687 0.69146
 H285 H 0.28522 -0.14124 0.70141
 H286 H 0.24116 -0.18091 0.73372
 H287 H 0.38523 -0.17395 0.66685
 H288 H 0.31183 -0.12683 0.65226
 H289 H 0.31699 -0.09558 0.59861
 H290 H 0.35555 -0.06570 0.55350
 H291 H 0.46270 -0.09828 0.60078
 H292 H 0.42442 -0.12744 0.64609
 C293 C 0.31049 0.28988 0.24599
 C294 C 0.33574 0.31487 0.22807
 C295 C 0.33110 0.32002 0.19405
 C296 C 0.30098 0.29942 0.17819
 C297 C 0.27600 0.27426 0.19597
 C298 C 0.28109 0.26778 0.23009
 C299 C 0.35842 0.34612 0.17532
 C300 C 0.34684 0.36623 0.14900
 C301 C 0.37345 0.38946 0.12705
 C302 C 0.35650 0.41620 0.10560
 C303 C 0.37943 0.43525 0.08146
 C304 C 0.41988 0.42778 0.07807
 C305 C 0.43734 0.40228 0.10037
 C306 C 0.41432 0.38312 0.12460
 H307 H 0.31415 0.28739 0.27244
 H308 H 0.35857 0.33068 0.24090
 H309 H 0.29679 0.30236 0.15186
 H310 H 0.25233 0.26058 0.18269
 H311 H 0.38816 0.34923 0.18390
 H312 H 0.31599 0.36566 0.14294
 H313 H 0.32514 0.42159 0.10691
 H314 H 0.36521 0.45501 0.06480
 H315 H 0.46848 0.39598 0.09826
 H316 H 0.42841 0.36216 0.14020
 C317 C 0.77552 0.17154 -0.23844
 C318 C 0.80059 0.14744 -0.22085
 C319 C 0.82744 0.16354 -0.19865
 C320 C 0.83086 0.20446 -0.19643
 C321 C 0.80544 0.22838 -0.21334
 C322 C 0.77579 0.21250 -0.23337
 C323 C 0.85094 0.13715 -0.17797
 C324 C 0.86632 0.14905 -0.14929
 C325 C 0.88815 0.12389 -0.12663
 C326 C 0.91273 0.14238 -0.10390
 C327 C 0.93071 0.12100 -0.07941
 C328 C 0.92423 0.08054 -0.07682
 C329 C 0.90076 0.06154 -0.10025
 C330 C 0.88275 0.08306 -0.12499
 H331 H 0.75611 0.15762 -0.25573
 H332 H 0.79848 0.11603 -0.22415
 H333 H 0.85292 0.21848 -0.18155
 H334 H 0.80817 0.25974 -0.21004
 H335 H 0.85410 0.10703 -0.18594
 H336 H 0.86244 0.17897 -0.14111
 H337 H 0.91740 0.17376 -0.10463
 H338 H 0.94894 0.13644 -0.06194
 H339 H 0.89528 0.03034 -0.09879
 H340 H 0.86341 0.06789 -0.14169
 C341 C 0.82523 0.72819 0.27308
 C342 C 0.84863 0.70650 0.29386
 C343 C 0.83206 0.67742 0.31418
 C344 C 0.79117 0.67108 0.31398
 C345 C 0.76769 0.69281 0.29318
 C346 C 0.78436 0.72083 0.27135
 C347 C 0.85797 0.65675 0.33700
 C348 C 0.84890 0.62223 0.35084
 C349 C 0.87384 0.60344 0.37557
 C350 C 0.86987 0.56306 0.38088
 C351 C 0.89093 0.54484 0.40560
 C352 C 0.91612 0.56682 0.42570
 C353 C 0.92065 0.60707 0.42002
 C354 C 0.89959 0.62526 0.39540
 H355 H 0.83946 0.75147 0.25922
 H356 H 0.87986 0.71295 0.29442
 H357 H 0.77691 0.65035 0.33054
 H358 H 0.73617 0.68791 0.29420
 H359 H 0.88609 0.67040 0.34183
 H360 H 0.82265 0.60663 0.34357
 H361 H 0.85003 0.54565 0.36613
 H362 H 0.88681 0.51375 0.40947
 H363 H 0.93968 0.62479 0.43524
 H364 H 0.90260 0.65661 0.39295
 C365 C 0.25243 0.18992 0.29626
 C366 C 0.27077 0.16361 0.31697
 C367 C 0.31154 0.15821 0.31464
 C368 C 0.33327 0.17781 0.28966
 C369 C 0.31492 0.20412 0.26888
 C370 C 0.27443 0.21241 0.27302
 C371 C 0.33010 0.13196 0.33860
 C372 C 0.36764 0.13602 0.34756
 C373 C 0.38580 0.11296 0.37402
 C374 C 0.42699 0.11271 0.37557
 C375 C 0.44550 0.09397 0.40143
 C376 C 0.42316 0.07530 0.42651
 C377 C 0.38198 0.07480 0.42471
 C378 C 0.36342 0.09357 0.39885
 H379 H 0.22089 0.19358 0.29892
 H380 H 0.25311 0.14800 0.33535
 H381 H 0.36436 0.17250 0.28564
 H382 H 0.33271 0.21732 0.24936
 H383 H 0.31134 0.11018 0.35036
 H384 H 0.38608 0.15810 0.33577
 H385 H 0.44495 0.12753 0.35690
 H386 H 0.47731 0.09465 0.40205
 H387 H 0.36401 0.06069 0.44376
 H388 H 0.33164 0.09382 0.39927
 C389 C 0.25924 0.67291 -0.21756
 C390 C 0.27960 0.65010 -0.19529
 C391 C 0.31276 0.66489 -0.17956
 C392 C 0.32507 0.70337 -0.18628
 C393 C 0.30477 0.72625 -0.20850
 C394 C 0.27131 0.71168 -0.22490
 C395 C 0.33214 0.64033 -0.15481
 C396 C 0.36963 0.64554 -0.14620
 C397 C 0.38856 0.62264 -0.12010
 C398 C 0.42978 0.62129 -0.11996
 C399 C 0.44898 0.60219 -0.09468
 C400 C 0.42731 0.58435 -0.06874
 C401 C 0.38605 0.58515 -0.06903
 C402 C 0.36681 0.60424 -0.09436
 H403 H 0.23385 0.65955 -0.22844
 H404 H 0.26917 0.62066 -0.19019
 H405 H 0.34953 0.71656 -0.17362
 H406 H 0.31456 0.75618 -0.21195
 H407 H 0.31500 0.61654 -0.14415
 H408 H 0.38782 0.66685 -0.15924
 H409 H 0.44724 0.63537 -0.13936
 H410 H 0.48082 0.60188 -0.09520
 H411 H 0.36861 0.57175 -0.04929
 H412 H 0.33505 0.60554 -0.09297
 C413 C 1.18452 -0.22013 -0.24160
 C414 C 1.15875 -0.19602 -0.22337
 C415 C 1.16689 -0.18557 -0.19073
 C416 C 1.20039 -0.20063 -0.17618
 C417 C 1.22562 -0.22546 -0.19398
 C418 C 1.21846 -0.23605 -0.22724
 C419 C 1.13985 -0.15992 -0.17157
 C420 C 1.15343 -0.13163 -0.15169
 C421 C 1.12790 -0.10881 -0.12872
 C422 C 1.13895 -0.07048 -0.12020
 C423 C 1.11798 -0.04985 -0.09557
 C424 C 1.08628 -0.06773 -0.07838
 C425 C 1.07474 -0.10581 -0.08736
 C426 C 1.09515 -0.12608 -0.11248
 H427 H 1.17829 -0.22563 -0.26736
 H428 H 1.13300 -0.18462 -0.23509
 H429 H 1.20690 -0.19355 -0.15070
 H430 H 1.25071 -0.23569 -0.18103
 H431 H 1.10847 -0.16421 -0.17410
 H432 H 1.18471 -0.12514 -0.15194
 H433 H 1.16433 -0.05678 -0.13222
 H434 H 1.12756 -0.02057 -0.08904
 H435 H 1.05048 -0.12028 -0.07441
 H436 H 1.08648 -0.15592 -0.11797
 C437 C 1.20234 0.29692 0.25528
 C438 C 1.18016 0.32469 0.27307
 C439 C 1.18301 0.32775 0.30749
 C440 C 1.21020 0.30436 0.32356
 C441 C 1.23274 0.27707 0.30581
 C442 C 1.22779 0.27122 0.27149
 C443 C 1.15787 0.35555 0.32647
 C444 C 1.14219 0.34577 0.35604
 C445 C 1.11759 0.37188 0.37712
 C446 C 1.09122 0.35462 0.39999
 C447 C 1.07080 0.37743 0.42330
 C448 C 1.07677 0.41812 0.42469
 C449 C 1.10203 0.43580 0.40096
 C450 C 1.12230 0.41284 0.37727
 H451 H 1.19929 0.29506 0.22869
 H452 H 1.16014 0.34321 0.26002
 H453 H 1.21453 0.30761 0.34991
 H454 H 1.25442 0.26122 0.31929
 H455 H 1.15061 0.38315 0.31527
 H456 H 1.14670 0.31642 0.36511
 H457 H 1.08710 0.32316 0.40036
 H458 H 1.05132 0.36290 0.44104
 H459 H 1.10722 0.46709 0.40148
 H460 H 1.14296 0.42695 0.36027
 C461 C 0.75642 -0.19922 0.29411
 C462 C 0.73780 -0.17622 0.31851
 C463 C 0.69773 -0.18158 0.32627
 C464 C 0.67708 -0.21171 0.31032
 C465 C 0.69566 -0.23476 0.28607
 C466 C 0.73531 -0.22781 0.27628
 C467 C 0.67880 -0.15701 0.35237
 C468 C 0.64025 -0.14884 0.35276
 C469 C 0.61952 -0.12683 0.37964
 C470 C 0.57837 -0.13020 0.38233
 C471 C 0.55742 -0.11136 0.40792
 C472 C 0.57723 -0.08860 0.43136
 C473 C 0.61825 -0.08417 0.42819
 C474 C 0.63924 -0.10296 0.40254
 H475 H 0.78750 -0.19450 0.28888
 H476 H 0.75471 -0.15405 0.33126
 H477 H 0.64682 -0.21845 0.31722
 H478 H 0.67882 -0.25863 0.27577
 H479 H 0.69746 -0.14568 0.37150
 H480 H 0.62238 -0.15991 0.33291
 H481 H 0.56239 -0.14806 0.36487
 H482 H 0.52575 -0.11504 0.40959
 H483 H 0.63418 -0.06624 0.44563
 H484 H 0.67070 -0.09837 0.40082
 C485 C 0.72349 0.25569 -0.18916
 C486 C 0.70358 0.27877 -0.16572
 C487 C 0.68173 0.31101 -0.17538
 C488 C 0.67927 0.31926 -0.20930
 C489 C 0.69960 0.29629 -0.23287
 C490 C 0.72381 0.26523 -0.22318
 C491 C 0.66336 0.33577 -0.14913
 C492 C 0.63110 0.35725 -0.15318
 C493 C 0.61271 0.37953 -0.12533
 C494 C 0.57162 0.38255 -0.12310
 C495 C 0.55343 0.40126 -0.09592
 C496 C 0.57611 0.41787 -0.07074
 C497 C 0.61731 0.41632 -0.07371
 C498 C 0.63545 0.39729 -0.10071
 H499 H 0.73845 0.23033 -0.18011
 H500 H 0.70510 0.27120 -0.13978
 H501 H 0.66267 0.34399 -0.21767
 H502 H 0.69748 0.30353 -0.25882
 H503 H 0.67576 0.33423 -0.12474
 H504 H 0.61595 0.35597 -0.17640
 H505 H 0.55354 0.36945 -0.14195
 H506 H 0.52160 0.40242 -0.09447
 H507 H 0.63552 0.42936 -0.05493
 H508 H 0.66727 0.39654 -0.10227
 C509 C 1.25330 0.20936 -0.20678
 C510 C 1.23457 0.18163 -0.18657
 C511 C 1.19419 0.17429 -0.18904
 C512 C 1.17347 0.19319 -0.21387
 C513 C 1.19226 0.22085 -0.23425
 C514 C 1.23208 0.23126 -0.22974
 C515 C 1.17488 0.14702 -0.16523
 C516 C 1.13701 0.15030 -0.15545
 C517 C 1.11783 0.12670 -0.12877
 C518 C 1.07662 0.12733 -0.12554
 C519 C 1.05714 0.10812 -0.09942
 C520 C 1.07851 0.08797 -0.07574
 C521 C 1.11967 0.08661 -0.07919
 C522 C 1.13920 0.10588 -0.10532
 H523 H 1.28445 0.21473 -0.20382
 H524 H 1.25152 0.16661 -0.16830
 H525 H 1.14283 0.18638 -0.21793
 H526 H 1.17533 0.23350 -0.25364
 H527 H 1.19337 0.12549 -0.15409
 H528 H 1.11910 0.17238 -0.16663
 H529 H 1.05940 0.14322 -0.14309
 H530 H 1.02534 0.10959 -0.09747
 H531 H 1.13688 0.07131 -0.06128
 H532 H 1.17097 0.10526 -0.10619
 C533 C 1.19610 0.70249 0.25306
 C534 C 1.17073 0.67834 0.27184
 C535 C 1.16489 0.68501 0.30585
 C536 C 1.18288 0.71771 0.32033
 C537 C 1.20772 0.74215 0.30163
 C538 C 1.21710 0.73393 0.26779
 C539 C 1.13927 0.65837 0.32585
 C540 C 1.14789 0.64943 0.35708
 C541 C 1.12373 0.62341 0.37877
 C542 C 1.14253 0.60353 0.40401
 C543 C 1.12085 0.58163 0.42717
 C544 C 1.07960 0.57967 0.42610
 C545 C 1.06061 0.59888 0.40041
 C546 C 1.08251 0.62048 0.37680
 H547 H 1.19977 0.69630 0.22683
 H548 H 1.15611 0.65402 0.25984
 H549 H 1.17705 0.72501 0.34613
 H550 H 1.21881 0.76793 0.31404
 H551 H 1.11445 0.64444 0.31418
 H552 H 1.17507 0.66057 0.36710
 H553 H 1.17419 0.60544 0.40613
 H554 H 1.13643 0.56717 0.44659
 H555 H 1.02884 0.59795 0.39902
 H556 H 1.06707 0.63609 0.35797
 C557 C 0.68929 0.20285 0.25573
 C558 C 0.66319 0.17862 0.27371
 C559 C 0.66493 0.17678 0.30826
 C560 C 0.69143 0.20117 0.32469
 C561 C 0.71662 0.22620 0.30694
 C562 C 0.71756 0.22631 0.27186
 C563 C 0.63816 0.15069 0.32741
 C564 C 0.65170 0.12797 0.35139
 C565 C 0.62584 0.10506 0.37409
 C566 C 0.63878 0.06892 0.38567
 C567 C 0.61719 0.04891 0.41028
 C568 C 0.58298 0.06543 0.42454
 C569 C 0.56968 0.10132 0.41256
 C570 C 0.59065 0.12076 0.38727
 H571 H 0.68788 0.20294 0.22898
 H572 H 0.64224 0.16066 0.26060
 H573 H 0.69205 0.20147 0.35150
 H574 H 0.73483 0.24548 0.32133
 H575 H 0.60724 0.14999 0.32159
 H576 H 0.68317 0.12625 0.35475
 H577 H 0.66604 0.05652 0.37607
 H578 H 0.62822 0.02138 0.41918
 H579 H 0.54350 0.11476 0.42326
 H580 H 0.58045 0.14900 0.37928
 C581 C 0.69287 0.70514 -0.24749
 C582 C 0.66675 0.68122 -0.22924
 C583 C 0.66675 0.68190 -0.19459
 C584 C 0.69142 0.70842 -0.17846
 C585 C 0.71655 0.73319 -0.19657
 C586 C 0.71936 0.73085 -0.23158
 C587 C 0.64023 0.65601 -0.17506
 C588 C 0.65410 0.63384 -0.15088
 C589 C 0.62852 0.61107 -0.12788
 C590 C 0.64122 0.57463 -0.11679
 C591 C 0.61999 0.55473 -0.09190
 C592 C 0.58646 0.57170 -0.07683
 C593 C 0.57340 0.60791 -0.08832
 C594 C 0.59394 0.62721 -0.11393
 H595 H 0.69293 0.70320 -0.27427
 H596 H 0.64724 0.66150 -0.24216
 H597 H 0.69067 0.71051 -0.15167
 H598 H 0.73320 0.75413 -0.18250
 H599 H 0.60927 0.65504 -0.18071
 H600 H 0.68562 0.63246 -0.14762
 H601 H 0.66803 0.56190 -0.12699
 H602 H 0.63085 0.52698 -0.08336
 H603 H 0.54780 0.62172 -0.07696
 H604 H 0.58399 0.65567 -0.12158
 C605 C 0.77074 -0.17383 -0.23309
 C606 C 0.79247 -0.14973 -0.21218
 C607 C 0.81789 -0.16574 -0.18931
 C608 C 0.82163 -0.20656 -0.18799
 C609 C 0.79973 -0.23072 -0.20871
 C610 C 0.77252 -0.21506 -0.23083
 C611 C 0.83830 -0.13918 -0.16614
 C612 C 0.87230 -0.14814 -0.15209
 C613 C 0.89135 -0.12275 -0.12722
 C614 C 0.93202 -0.12592 -0.12304
 C615 C 0.95063 -0.10447 -0.09830
 C616 C 0.92878 -0.07984 -0.07686
 C617 C 0.88816 -0.07620 -0.08129
 C618 C 0.86957 -0.09746 -0.10618
 H619 H 0.75299 -0.15942 -0.25096
 H620 H 0.78954 -0.11829 -0.21402
 H621 H 0.84049 -0.22012 -0.17032
 H622 H 0.80304 -0.26210 -0.20677
 H623 H 0.82517 -0.11091 -0.16125
 H624 H 0.88746 -0.17465 -0.15952
 H625 H 0.94939 -0.14536 -0.13877
 H626 H 0.98198 -0.10789 -0.09548
 H627 H 0.87057 -0.05751 -0.06507
 H628 H 0.83801 -0.09503 -0.10803
 C629 C 0.80163 0.25609 0.29246
 C630 C 0.82757 0.27572 0.31306
 C631 C 0.82717 0.31653 0.31564
 C632 C 0.80133 0.33752 0.29592
 C633 C 0.77545 0.31785 0.27493
 C634 C 0.77407 0.27652 0.27362
 C635 C 0.85446 0.33578 0.33886
 C636 C 0.84710 0.37032 0.35363
 C637 C 0.87196 0.38694 0.38001
 C638 C 0.85442 0.41163 0.40395
 C639 C 0.87620 0.42653 0.43010
 C640 C 0.91624 0.41751 0.43266
 C641 C 0.93426 0.39385 0.40813
 C642 C 0.91235 0.37866 0.38205
 H643 H 0.80253 0.22444 0.29159
 H644 H 0.84761 0.25879 0.32753
 H645 H 0.80148 0.36916 0.29615
 H646 H 0.75719 0.33551 0.25965
 H647 H 0.87957 0.31904 0.34631
 H648 H 0.82001 0.38533 0.34859
 H649 H 0.82351 0.41880 0.40280
 H650 H 0.86161 0.44512 0.44838
 H651 H 0.96522 0.38687 0.40922
 H652 H 0.92721 0.36077 0.36346
 C653 C 0.27049 -0.17250 0.26160
 C654 C 0.29326 -0.14845 0.28182
 C655 C 0.31494 -0.16420 0.30743
 C656 C 0.31407 -0.20488 0.31202
 C657 C 0.29122 -0.22896 0.29197
 C658 C 0.26690 -0.21332 0.26739
 C659 C 0.33629 -0.13729 0.32989
 C660 C 0.36752 -0.14816 0.34718
 C661 C 0.38663 -0.12350 0.37275
 C662 C 0.41136 -0.14196 0.39499
 C663 C 0.42819 -0.12102 0.42089
 C664 C 0.42092 -0.08089 0.42512
 C665 C 0.39751 -0.06186 0.40215
 C666 C 0.38052 -0.08290 0.37620
 H667 H 0.25612 -0.15861 0.24130
 H668 H 0.29412 -0.11726 0.27727
 H669 H 0.32998 -0.21834 0.33169
 H670 H 0.29145 -0.26016 0.29641
 H671 H 0.32499 -0.10794 0.33243
 H672 H 0.37892 -0.17740 0.34363
 H673 H 0.41697 -0.17304 0.39283
 H674 H 0.44647 -0.13645 0.43793
 H675 H 0.39177 -0.03084 0.40458
 H676 H 0.36272 -0.06709 0.35914
 C677 C 0.30138 0.32095 -0.24315
 C678 C 0.32201 0.34770 -0.22359
 C679 C 0.31654 0.34792 -0.18909
 C680 C 0.28771 0.32327 -0.17479
 C681 C 0.26692 0.29685 -0.19427
 C682 C 0.27527 0.29319 -0.22863
 C683 C 0.34097 0.37374 -0.16823
 C684 C 0.35329 0.36177 -0.13876
 C685 C 0.37773 0.38548 -0.11629
 C686 C 0.39989 0.36581 -0.09294
 C687 C 0.42063 0.38655 -0.06913
 C688 C 0.41924 0.42757 -0.06776
 C689 C 0.39786 0.44751 -0.09163
 C690 C 0.37727 0.42664 -0.11575
 H691 H 0.30677 0.32095 -0.26970
 H692 H 0.34315 0.36741 -0.23532
 H693 H 0.28103 0.32450 -0.14844
 H694 H 0.24425 0.27952 -0.18200
 H695 H 0.35087 0.40156 -0.17817
 H696 H 0.34625 0.33220 -0.13096
 H697 H 0.40066 0.33413 -0.09279
 H698 H 0.43695 0.37031 -0.05121
 H699 H 0.39625 0.47914 -0.09114
 H700 H 0.35988 0.44272 -0.13300
 C701 C 1.18781 -0.19201 0.24072
 C702 C 1.16152 -0.17130 0.22150
 C703 C 1.16044 -0.17763 0.18727
 C704 C 1.18373 -0.20726 0.17301
 C705 C 1.20964 -0.22826 0.19214
 C706 C 1.21464 -0.21923 0.22617
 C707 C 1.13478 -0.15346 0.16672
 C708 C 1.14640 -0.14226 0.13623
 C709 C 1.12272 -0.11792 0.11425
 C710 C 1.14256 -0.09583 0.08984
 C711 C 1.12171 -0.07499 0.06662
 C712 C 1.08040 -0.07630 0.06690
 C713 C 1.06032 -0.09777 0.09174
 C714 C 1.08130 -0.11837 0.11531
 H715 H 1.18809 -0.18590 0.26706
 H716 H 1.14272 -0.14956 0.23329
 H717 H 1.18165 -0.21457 0.14698
 H718 H 1.22547 -0.25176 0.17982
 H719 H 1.10743 -0.14278 0.17761
 H720 H 1.17566 -0.15000 0.12722
 H721 H 1.17443 -0.09511 0.08844
 H722 H 1.13806 -0.05868 0.04785
 H723 H 1.02847 -0.09935 0.09250
 H724 H 1.06510 -0.13573 0.13343
 C725 C 1.19416 0.30690 0.74348
 C726 C 1.16816 0.32878 0.72490
 C727 C 1.17472 0.33353 0.69076
 C728 C 1.20804 0.31623 0.67564
 C729 C 1.23383 0.29426 0.69410
 C730 C 1.22640 0.28740 0.72816
 C731 C 1.14587 0.35524 0.67117
 C732 C 1.15648 0.37440 0.64346
 C733 C 1.12887 0.39314 0.62072
 C734 C 1.14479 0.41844 0.59662
 C735 C 1.12131 0.43360 0.57215
 C736 C 1.08119 0.42378 0.57107
 C737 C 1.06465 0.39959 0.59581
 C738 C 1.08832 0.38418 0.62038
 H739 H 1.18852 0.30424 0.76988
 H740 H 1.14294 0.34218 0.73725
 H741 H 1.21404 0.31889 0.64930
 H742 H 1.25966 0.28294 0.68127
 H743 H 1.11562 0.35567 0.68018
 H744 H 1.18747 0.37664 0.63674
 H745 H 1.17585 0.42584 0.59623
 H746 H 1.13484 0.45250 0.55364
 H747 H 1.03377 0.39157 0.59553
 H748 H 1.07498 0.36424 0.63811
 C749 C 0.72778 -0.22277 0.68793
 C750 C 0.70643 -0.19900 0.66719
 C751 C 0.67727 -0.17425 0.68014
 C752 C 0.66881 -0.17443 0.71432
 C753 C 0.69092 -0.19752 0.73532
 C754 C 0.72230 -0.22077 0.72277
 C755 C 0.65776 -0.14744 0.65742
 C756 C 0.61928 -0.13964 0.65936
 C757 C 0.60081 -0.11628 0.63351
 C758 C 0.56723 -0.13083 0.61809
 C759 C 0.55201 -0.11137 0.59101
 C760 C 0.56933 -0.07632 0.57966
 C761 C 0.60167 -0.06063 0.59630
 C762 C 0.61759 -0.08072 0.62277
 H763 H 0.74861 -0.24225 0.67602
 H764 H 0.71264 -0.20007 0.64073
 H765 H 0.64624 -0.15563 0.72495
 H766 H 0.68465 -0.19605 0.76174
 H767 H 0.67515 -0.13633 0.63659
 H768 H 0.60061 -0.15406 0.67777
 H769 H 0.55387 -0.15816 0.62606
 H770 H 0.52702 -0.12402 0.57863
 H771 H 0.61552 -0.03363 0.58808
 H772 H 0.64331 -0.06879 0.63461
 C773 C 0.69071 0.30268 0.24578
 C774 C 0.66499 0.32541 0.22750
 C775 C 0.66769 0.32552 0.19283
 C776 C 0.69525 0.30125 0.17673
 C777 C 0.72012 0.27779 0.19481
 C778 C 0.71961 0.27899 0.22990
 C779 C 0.64074 0.34953 0.17334
 C780 C 0.65393 0.36969 0.14691
 C781 C 0.62811 0.39169 0.12493
 C782 C 0.64194 0.42698 0.11134
 C783 C 0.62039 0.44635 0.08758
 C784 C 0.58517 0.43009 0.07604
 C785 C 0.57097 0.39497 0.08993
 C786 C 0.59205 0.37613 0.11449
 H787 H 0.68808 0.30348 0.27256
 H788 H 0.64331 0.34330 0.24046
 H789 H 0.69677 0.29951 0.14993
 H790 H 0.73887 0.25825 0.18064
 H791 H 0.61008 0.35128 0.18119
 H792 H 0.68529 0.37078 0.14134
 H793 H 0.66982 0.43929 0.11880
 H794 H 0.63215 0.47330 0.07724
 H795 H 0.54391 0.38184 0.08146
 H796 H 0.58112 0.34854 0.12415
 C797 C 0.80375 0.24765 0.20904
 C798 C 0.83025 0.22715 0.18860
 C799 C 0.82907 0.18625 0.18710
 C800 C 0.80199 0.16613 0.20777
 C801 C 0.77547 0.18661 0.22838
 C802 C 0.77473 0.22797 0.22851
 C803 C 0.85670 0.16586 0.16392
 C804 C 0.84921 0.13047 0.15086
 C805 C 0.87442 0.11233 0.12456
 C806 C 0.85704 0.08624 0.10221
 C807 C 0.87908 0.07025 0.07584
 C808 C 0.91917 0.07963 0.07151
 C809 C 0.93709 0.10441 0.09467
 C810 C 0.91494 0.12065 0.12097
 H811 H 0.80532 0.27930 0.20926
 H812 H 0.85136 0.24342 0.17346
 H813 H 0.80158 0.13451 0.20858
 H814 H 0.75628 0.16951 0.24442
 H815 H 0.88226 0.18220 0.15513
 H816 H 0.82176 0.11574 0.15720
 H817 H 0.82602 0.07898 0.10466
 H818 H 0.86459 0.05082 0.05863
 H819 H 0.96809 0.11173 0.09217
 H820 H 0.92965 0.13958 0.13838
 C821 C 0.80981 0.75044 0.70952
 C822 C 0.83732 0.72931 0.69055
 C823 C 0.83601 0.68839 0.68985
 C824 C 0.80837 0.66895 0.71047
 C825 C 0.78087 0.69007 0.72962
 C826 C 0.77962 0.73136 0.72818
 C827 C 0.86334 0.66720 0.66692
 C828 C 0.85439 0.63236 0.65347
 C829 C 0.87832 0.61364 0.62660
 C830 C 0.85948 0.58790 0.60482
 C831 C 0.88016 0.57109 0.57807
 C832 C 0.92036 0.57928 0.57271
 C833 C 0.93971 0.60387 0.59517
 C834 C 0.91891 0.62096 0.62188
 H835 H 0.81106 0.78208 0.70861
 H836 H 0.85892 0.74508 0.67550
 H837 H 0.80795 0.63737 0.71200
 H838 H 0.76092 0.67347 0.74536
 H839 H 0.88944 0.68277 0.65826
 H840 H 0.82641 0.61867 0.65986
 H841 H 0.82837 0.58143 0.60807
 H842 H 0.86455 0.55183 0.56143
 H843 H 0.97081 0.61024 0.59189
 H844 H 0.93474 0.63964 0.63876
 C845 C 0.32431 0.23819 0.73147
 C846 C 0.34890 0.21533 0.71098
 C847 C 0.33313 0.19056 0.68684
 C848 C 0.29213 0.18892 0.68360
 C849 C 0.26761 0.21190 0.70385
 C850 C 0.28315 0.23821 0.72735
 C851 C 0.36005 0.16823 0.66441
 C852 C 0.34967 0.13425 0.65018
 C853 C 0.37455 0.11322 0.62529
 C854 C 0.36759 0.07319 0.61996
 C855 C 0.38785 0.05297 0.59470
 C856 C 0.41516 0.07257 0.57389
 C857 C 0.42280 0.11246 0.57960
 C858 C 0.40268 0.13265 0.60501
 H859 H 0.33797 0.25523 0.75069
 H860 H 0.38040 0.21666 0.71426
 H861 H 0.27882 0.17068 0.66491
 H862 H 0.23613 0.20984 0.70067
 H863 H 0.38940 0.17996 0.66013
 H864 H 0.32177 0.12077 0.65720
 H865 H 0.34592 0.05761 0.63508
 H866 H 0.38134 0.02221 0.59093
 H867 H 0.44370 0.12831 0.56395
 H868 H 0.40818 0.16369 0.60774
 C869 C 0.29575 0.75860 0.20268
 C870 C 0.32382 0.73957 0.18268
 C871 C 0.33074 0.69957 0.18630
 C872 C 0.31068 0.67949 0.21197
 C873 C 0.28262 0.69855 0.23222
 C874 C 0.27258 0.73817 0.22679
 C875 C 0.35932 0.68031 0.16306
 C876 C 0.35786 0.64202 0.15540
 C877 C 0.38319 0.62257 0.12957
 C878 C 0.38170 0.58159 0.12719
 C879 C 0.40224 0.56177 0.10184
 C880 C 0.42481 0.58248 0.07806
 C881 C 0.42736 0.62338 0.08084
 C882 C 0.40672 0.64329 0.10620
 H883 H 0.29125 0.78952 0.19870
 H884 H 0.33970 0.75614 0.16379
 H885 H 0.31703 0.64919 0.21698
 H886 H 0.26943 0.68192 0.25233
 H887 H 0.38055 0.69915 0.15064
 H888 H 0.33589 0.62379 0.16772
 H889 H 0.36391 0.56476 0.14469
 H890 H 0.39971 0.53019 0.10048
 H891 H 0.44448 0.64014 0.06285
 H892 H 0.40855 0.67482 0.10649
   
