data_POSCAR
  _audit_creation_date              2014-09-24
  _audit_creation_method            'ToBaCCo'
  _symmetry_space_group_name_H-M    'P1'
  _symmetry_Int_Tables_number       1
  _symmetry_cell_setting            triclinic
  loop_
  _symmetry_equiv_pos_as_xyz
 x,y,z
_cell_length_a 26.7406
_cell_length_b 26.1737
_cell_length_c 25.1899
_cell_angle_alpha 93.992300
_cell_angle_beta 92.507100
_cell_angle_gamma 92.039100
loop_
  _atom_site_label
  _atom_site_type_symbol
  _atom_site_fract_x
  _atom_site_fract_y
  _atom_site_fract_z
N1 N 0.22756 1.30638 0.15339
 N2 N 0.18664 1.30502 0.18037
 C3 C 0.15655 1.34202 0.16562
 C4 C 0.18004 1.36834 0.12742
 C5 C 0.22538 1.34517 0.12091
 H6 H 0.11979 1.34830 0.18052
 H7 H 0.25345 1.35413 0.09296
 Cu8 Cu 0.17519 1.25322 0.22990
 Cu9 Cu 0.27730 1.25395 0.16037
 Cu10 Cu 0.22585 1.14016 0.20327
 N11 N 0.17052 1.19939 0.27826
 N12 N 0.18476 1.15273 0.26543
 C13 C 0.16980 1.12159 0.30290
 C14 C 0.14695 1.15148 0.34189
 C15 C 0.14859 1.20048 0.32506
 H16 H 0.17669 1.08110 0.30274
 H17 H 0.13285 1.23408 0.34432
 N18 N 0.28697 1.14348 0.16138
 N19 N 0.30843 1.18736 0.14975
 C20 C 0.35211 1.17815 0.12721
 C21 C 0.35811 1.12601 0.12351
 C22 C 0.31613 1.10488 0.14515
 H23 H 0.37721 1.20717 0.11339
 H24 H 0.30845 1.06479 0.15064
 H25 H 0.21696 1.20486 0.15935
 H26 H 0.25463 1.21166 0.22369
 N27 N 0.83337 0.72565 0.16038
 N28 N 0.85529 0.73277 0.20826
 C29 C 0.88738 0.69519 0.21542
 C30 C 0.88615 0.66331 0.16935
 C31 C 0.85153 0.68364 0.13505
 H32 H 0.91206 0.69273 0.25024
 H33 H 0.84145 0.66992 0.09436
 Cu34 Cu 0.84560 0.79515 0.25223
 Cu35 Cu 0.78604 0.77435 0.13359
 Cu36 Cu 0.74737 0.86591 0.22898
 N37 N 0.83590 0.85756 0.29619
 N38 N 0.79799 0.88644 0.28556
 C39 C 0.80213 0.92978 0.31784
 C40 C 0.84515 0.92788 0.35012
 C41 C 0.86546 0.88135 0.33566
 H42 H 0.77673 0.96099 0.31655
 H43 H 0.90053 0.86730 0.35060
 N44 N 0.71192 0.85053 0.15912
 N45 N 0.72695 0.81652 0.12252
 C46 C 0.69601 0.81653 0.07882
 C47 C 0.66023 0.85242 0.08841
 C48 C 0.67135 0.87324 0.13960
 H49 H 0.69958 0.79273 0.04243
 H50 H 0.65204 0.90350 0.16063
 H51 H 0.80313 0.84064 0.18334
 H52 H 0.76268 0.78893 0.20831
 N53 N 0.81861 1.25712 -0.09960
 N54 N 0.86455 1.24831 -0.11335
 C55 C 0.89480 1.28881 -0.09660
 C56 C 0.86633 1.32520 -0.07122
 C57 C 0.81801 1.30400 -0.07375
 H58 H 0.93456 1.29164 -0.10272
 H59 H 0.78525 1.32085 -0.05719
 Cu60 Cu 0.88147 1.18542 -0.15269
 Cu61 Cu 0.76504 1.20459 -0.11399
 Cu62 Cu 0.78600 1.12435 -0.22516
 N63 N 0.89265 1.13610 -0.21152
 N64 N 0.85552 1.11461 -0.24211
 C65 C 0.87433 1.08909 -0.28464
 C66 C 0.92604 1.09508 -0.27997
 C67 C 0.93633 1.12447 -0.23282
 H68 H 0.85205 1.06962 -0.31734
 H69 H 0.97264 1.13972 -0.21739
 N70 N 0.72139 1.12538 -0.19010
 N71 N 0.71354 1.15549 -0.14722
 C72 C 0.66978 1.14100 -0.12728
 C73 C 0.64940 1.09953 -0.15895
 C74 C 0.68283 1.09088 -0.19855
 H75 H 0.65594 1.15660 -0.09009
 H76 H 0.68143 1.05895 -0.22832
 H77 H 0.80238 1.13962 -0.14456
 H78 H 0.79619 1.19679 -0.18522
 N79 N 0.11817 0.73315 -0.15848
 N80 N 0.08555 0.72327 -0.19885
 C81 C 0.05167 0.68734 -0.18608
 C82 C 0.06422 0.67380 -0.13528
 C83 C 0.10659 0.70348 -0.11892
 H84 H 0.02034 0.67210 -0.21167
 H85 H 0.12692 0.70420 -0.08077
 Cu86 Cu 0.09020 0.76041 -0.26282
 Cu87 Cu 0.17115 0.78637 -0.15904
 Cu88 Cu 0.19992 0.81762 -0.28608
 N89 N 0.09914 0.79574 -0.32739
 N90 N 0.14148 0.82086 -0.33476
 C91 C 0.13561 0.84859 -0.37755
 C92 C 0.08692 0.84020 -0.39801
 C93 C 0.06506 0.80590 -0.36574
 H94 H 0.16393 0.87454 -0.39114
 H95 H 0.02613 0.79292 -0.36739
 N96 N 0.24664 0.83052 -0.22370
 N97 N 0.23435 0.82202 -0.17478
 C98 C 0.27241 0.83882 -0.14048
 C99 C 0.31050 0.85814 -0.16948
 C100 C 0.29314 0.85214 -0.22201
 H101 H 0.27280 0.83624 -0.09780
 H102 H 0.31237 0.86398 -0.25626
 H103 H 0.15209 0.82573 -0.22631
 H104 H 0.17869 0.76094 -0.23541
 C105 C 0.46758 1.01430 0.01322
 C106 C 0.50321 0.97671 0.03735
 C107 C 0.52343 0.94406 0.00031
 C108 C 0.50597 0.95194 -0.05739
 C109 C 0.49849 1.04131 -0.02738
 C110 C 0.51869 1.00857 -0.06407
 C111 C 0.42818 0.98064 -0.02076
 C112 C 0.44860 0.94833 -0.05792
 H113 H 0.51194 0.97683 0.07970
 H114 H 0.52238 0.92532 -0.08753
 H115 H 0.50383 1.08253 -0.02681
 H116 H 0.38826 0.98539 -0.01966
 C117 C 0.06192 0.48411 1.04920
 C118 C 0.06790 0.52363 1.00764
 C119 C 0.02407 0.54503 0.99325
 C120 C -0.02168 0.52540 1.02202
 C121 C 0.03757 0.51273 1.09573
 C122 C -0.00614 0.53452 1.08168
 C123 C 0.02162 0.44545 1.02503
 C124 C -0.02221 0.46688 1.01099
 H125 H 0.10301 0.53242 0.98989
 H126 H -0.05727 0.54275 1.00992
 H127 H 0.05428 0.51647 1.13581
 H128 H 0.02716 0.40464 1.02113
 C129 C 1.05066 0.06360 0.47296
 C130 C 1.04103 0.08213 0.53042
 C131 C 1.00654 0.05292 0.55353
 C132 C 0.98461 0.00732 0.51733
 C133 C 1.06621 0.00783 0.47684
 C134 C 1.03101 -0.02146 0.50007
 C135 C 0.99908 0.06007 0.44366
 C136 C 0.96483 0.03038 0.46673
 H137 H 1.06171 0.11397 0.55195
 H138 H 0.95629 -0.01650 0.53641
 H139 H 1.10199 -0.00618 0.46518
 H140 H 0.99214 0.07465 0.40493
 N141 N 0.15114 0.46280 1.04093
 N142 N 0.18368 0.43133 1.06096
 C143 C 0.16013 0.40717 1.09892
 C144 C 0.11239 0.42497 1.10176
 N145 N 0.10812 0.45948 1.06493
 H146 H 0.08270 0.41251 1.12632
 N147 N -0.02226 0.56825 1.17150
 N148 N -0.05038 0.60211 1.19624
 C149 C -0.08049 0.62082 1.15857
 C150 C -0.07003 0.59729 1.10973
 N151 N -0.03328 0.56484 1.11957
 H152 H -0.08566 0.60518 1.07095
 N153 N -0.11222 0.45110 0.99180
 N154 N -0.14351 0.41382 0.97077
 C155 C -0.11500 0.37480 0.95434
 C156 C -0.06556 0.38918 0.96588
 N157 N -0.06528 0.43688 0.98936
 H158 H -0.03301 0.36688 0.95820
 N159 N -0.01943 0.58550 0.92103
 N160 N -0.00992 0.61908 0.88533
 C161 C 0.03797 0.63621 0.89521
 C162 C 0.05759 0.61217 0.93784
 N163 N 0.02071 0.58071 0.95270
 H164 H 0.09515 0.61665 0.95582
 N165 N 1.08768 0.14819 0.46142
 N166 N 1.11158 0.17317 0.42588
 C167 C 1.12517 0.13792 0.38833
 C168 C 1.10903 0.08996 0.40227
 N169 N 1.08574 0.09821 0.44849
 H170 H 1.10991 0.05368 0.37896
 N171 N 1.00012 -0.10596 0.51810
 N172 N 1.01368 -0.14374 0.54720
 C173 C 1.06204 -0.13382 0.56298
 C174 C 1.07814 -0.08919 0.54153
 N175 N 1.03811 -0.07280 0.51419
 H176 H 1.11300 -0.06740 0.55069
 N177 N 0.88283 0.04166 0.42378
 N178 N 0.84954 0.01461 0.39168
 C179 C 0.86643 -0.03335 0.38561
 C180 C 0.91060 -0.03512 0.41568
 N181 N 0.91934 0.01226 0.43883
 H182 H 0.93561 -0.06662 0.41801
 N183 N 1.03111 0.08091 0.64487
 N184 N 1.01039 0.09294 0.69053
 C185 C 0.96099 0.08127 0.68286
 C186 C 0.95204 0.06069 0.63105
 N187 N 0.99684 0.06167 0.60874
 H188 H 0.91638 0.05032 0.61041
 N189 N 0.47593 1.08980 0.07669
 N190 N 0.44830 1.12060 0.10607
 C191 C 0.40128 1.10014 0.10186
 C192 C 0.40074 1.05585 0.06879
 N193 N 0.44816 1.05095 0.05334
 H194 H 0.36849 1.03151 0.05544
 N195 N 0.56086 0.99657 -0.14756
 N196 N 0.59537 1.01997 -0.17441
 C197 C 0.60762 1.06498 -0.14678
 C198 C 0.57945 1.06859 -0.10223
 N199 N 0.55081 1.02512 -0.10416
 H200 H 0.58186 1.09831 -0.07003
 N201 N 0.43581 0.90790 -0.14753
 N202 N 0.39978 0.88436 -0.17886
 C203 C 0.35918 0.88074 -0.14930
 C204 C 0.37121 0.90293 -0.09891
 N205 N 0.41937 0.91952 -0.09952
 H206 H 0.34715 0.90740 -0.06557
 N207 N 0.57635 0.87232 -0.02147
 N208 N 0.61298 0.84694 0.00049
 C209 C 0.62061 0.86735 0.05092
 C210 C 0.58742 0.90591 0.05932
 N211 N 0.56043 0.90784 0.01316
 H212 H 0.58464 0.93119 0.09483
   
