data_POSCAR
  _audit_creation_date              2014-09-24
  _audit_creation_method            'ToBaCCo'
  _symmetry_space_group_name_H-M    'P1'
  _symmetry_Int_Tables_number       1
  _symmetry_cell_setting            triclinic
  loop_
  _symmetry_equiv_pos_as_xyz
 x,y,z
_cell_length_a 34.3882
_cell_length_b 34.3691
_cell_length_c 34.2580
_cell_angle_alpha 92.336200
_cell_angle_beta 86.028500
_cell_angle_gamma 83.032900
loop_
  _atom_site_label
  _atom_site_type_symbol
  _atom_site_fract_x
  _atom_site_fract_y
  _atom_site_fract_z
Zn1 Zn 0.76767 0.69938 0.77579
 Zn2 Zn 0.77196 0.76420 0.72070
 Zn3 Zn 0.70958 0.71113 0.71523
 Zn4 Zn 0.70619 0.76931 0.78300
 O5 O 0.73885 0.73600 0.74869
 O6 O 0.81955 0.70107 0.76826
 O7 O 0.76747 0.75962 0.66896
 O8 O 0.71730 0.65874 0.71719
 O9 O 0.82257 0.74946 0.72786
 O10 O 0.76019 0.65013 0.76228
 O11 O 0.72028 0.72145 0.66506
 O12 O 0.65527 0.76847 0.77519
 O13 O 0.76348 0.81573 0.73361
 O14 O 0.65789 0.72483 0.72541
 O15 O 0.71480 0.81948 0.77989
 O16 O 0.71135 0.75773 0.83305
 O17 O 0.75612 0.70536 0.82768
 C18 C 0.83922 0.72306 0.74807
 C19 C 0.74493 0.74161 0.64896
 C20 C 0.73883 0.63640 0.73767
 C21 C 0.63840 0.74882 0.75077
 C22 C 0.73915 0.83564 0.75851
 C23 C 0.73264 0.73058 0.84842
 Zn24 Zn 0.20958 0.71113 0.71523
 Zn25 Zn 0.20619 0.76931 0.78300
 Zn26 Zn 0.26767 0.69938 0.77579
 Zn27 Zn 0.27196 0.76420 0.72070
 O28 O 0.23885 0.73600 0.74869
 O29 O 0.15789 0.72483 0.72541
 O30 O 0.21135 0.75773 0.83305
 O31 O 0.26019 0.65013 0.76228
 O32 O 0.15527 0.76847 0.77519
 O33 O 0.21730 0.65874 0.71719
 O34 O 0.25612 0.70536 0.82768
 O35 O 0.32257 0.74946 0.72786
 O36 O 0.21480 0.81948 0.77989
 O37 O 0.31955 0.70107 0.76826
 O38 O 0.26348 0.81572 0.73361
 O39 O 0.26747 0.75962 0.66896
 O40 O 0.22028 0.72145 0.66506
 C41 C 0.13840 0.74882 0.75077
 C42 C 0.23264 0.73058 0.84842
 C43 C 0.23883 0.63640 0.73767
 C44 C 0.33922 0.72306 0.74807
 C45 C 0.23915 0.83564 0.75851
 C46 C 0.24493 0.74161 0.64896
 Zn47 Zn 0.76002 0.20036 0.77555
 Zn48 Zn 0.82581 0.19689 0.71338
 Zn49 Zn 0.76260 0.26531 0.72044
 Zn50 Zn 0.82074 0.25533 0.78114
 O51 O 0.79230 0.22947 0.74763
 O52 O 0.76915 0.14908 0.76187
 O53 O 0.82127 0.20897 0.66336
 O54 O 0.71095 0.26313 0.72892
 O55 O 0.81777 0.14643 0.71563
 O56 O 0.70902 0.21461 0.76931
 O57 O 0.77349 0.25870 0.66853
 O58 O 0.81264 0.30754 0.77812
 O59 O 0.87638 0.19815 0.72221
 O60 O 0.76969 0.31495 0.73295
 O61 O 0.87270 0.24188 0.77203
 O62 O 0.80932 0.24586 0.83142
 O63 O 0.76512 0.20435 0.82722
 C64 C 0.79362 0.12971 0.73671
 C65 C 0.79847 0.23477 0.64788
 C66 C 0.69180 0.24103 0.74949
 C67 C 0.79102 0.32931 0.75722
 C68 C 0.89271 0.21782 0.74705
 C69 C 0.78606 0.22417 0.84738
 Zn70 Zn 0.32581 0.19689 0.71338
 Zn71 Zn 0.26002 0.20036 0.77555
 Zn72 Zn 0.32074 0.25533 0.78114
 Zn73 Zn 0.26260 0.26531 0.72044
 O74 O 0.29230 0.22947 0.74763
 O75 O 0.31777 0.14643 0.71563
 O76 O 0.26512 0.20435 0.82722
 O77 O 0.37270 0.24188 0.77203
 O78 O 0.26915 0.14908 0.76187
 O79 O 0.37638 0.19815 0.72221
 O80 O 0.30932 0.24586 0.83142
 O81 O 0.26969 0.31495 0.73295
 O82 O 0.20902 0.21461 0.76931
 O83 O 0.31264 0.30754 0.77812
 O84 O 0.21095 0.26313 0.72892
 O85 O 0.27349 0.25870 0.66853
 O86 O 0.32127 0.20897 0.66336
 C87 C 0.29362 0.12971 0.73671
 C88 C 0.28606 0.22417 0.84738
 C89 C 0.39271 0.21782 0.74705
 C90 C 0.29102 0.32931 0.75722
 C91 C 0.19180 0.24103 0.74949
 C92 C 0.29847 0.23477 0.64788
 Zn93 Zn 0.67906 0.74459 0.21875
 Zn94 Zn 0.73977 0.79960 0.22429
 Zn95 Zn 0.67398 0.80310 0.28645
 Zn96 Zn 0.73720 0.73469 0.27946
 O97 O 0.70750 0.77050 0.25224
 O98 O 0.69050 0.75401 0.16846
 O99 O 0.73059 0.85090 0.23788
 O100 O 0.62341 0.80179 0.27765
 O101 O 0.73470 0.79552 0.17262
 O102 O 0.62710 0.75804 0.22785
 O103 O 0.68195 0.85358 0.28409
 O104 O 0.72633 0.74138 0.33137
 O105 O 0.79077 0.78539 0.23056
 O106 O 0.67855 0.79111 0.33650
 O107 O 0.78884 0.73688 0.27097
 O108 O 0.73011 0.68502 0.26700
 O109 O 0.68718 0.69240 0.22183
 C110 C 0.71377 0.77568 0.15248
 C111 C 0.70610 0.87029 0.26300
 C112 C 0.60709 0.78209 0.25282
 C113 C 0.70136 0.76534 0.35200
 C114 C 0.80799 0.75897 0.25039
 C115 C 0.70880 0.67065 0.24275
 Zn116 Zn 0.23977 0.79960 0.22429
 Zn117 Zn 0.17906 0.74459 0.21875
 Zn118 Zn 0.23720 0.73469 0.27946
 Zn119 Zn 0.17398 0.80310 0.28645
 O120 O 0.20750 0.77050 0.25224
 O121 O 0.23470 0.79552 0.17262
 O122 O 0.18718 0.69239 0.22183
 O123 O 0.28884 0.73688 0.27097
 O124 O 0.19050 0.75401 0.16846
 O125 O 0.29077 0.78539 0.23056
 O126 O 0.23011 0.68502 0.26700
 O127 O 0.17855 0.79111 0.33650
 O128 O 0.12710 0.75804 0.22785
 O129 O 0.22633 0.74138 0.33137
 O130 O 0.12341 0.80179 0.27765
 O131 O 0.18195 0.85358 0.28409
 O132 O 0.23059 0.85090 0.23788
 C133 C 0.21377 0.77568 0.15248
 C134 C 0.20880 0.67065 0.24275
 C135 C 0.30799 0.75897 0.25039
 C136 C 0.20136 0.76534 0.35200
 C137 C 0.10709 0.78209 0.25282
 C138 C 0.20610 0.87029 0.26300
 Zn139 Zn 0.73248 0.30049 0.22407
 Zn140 Zn 0.79396 0.23055 0.21689
 Zn141 Zn 0.79061 0.28884 0.28460
 Zn142 Zn 0.72824 0.23574 0.27925
 O143 O 0.76133 0.26390 0.25119
 O144 O 0.74401 0.29445 0.17218
 O145 O 0.84489 0.23146 0.22465
 O146 O 0.78290 0.34122 0.28255
 O147 O 0.78874 0.24204 0.16683
 O148 O 0.73994 0.34977 0.23752
 O149 O 0.84230 0.27511 0.27441
 O150 O 0.73267 0.24050 0.33099
 O151 O 0.78544 0.18037 0.22017
 O152 O 0.77991 0.27862 0.33480
 O153 O 0.73686 0.18417 0.26656
 O154 O 0.67762 0.25036 0.27202
 O155 O 0.68062 0.29875 0.23161
 C156 C 0.76745 0.26918 0.15145
 C157 C 0.86178 0.25112 0.24904
 C158 C 0.76133 0.36353 0.26208
 C159 C 0.75521 0.25855 0.35095
 C160 C 0.76120 0.16422 0.24169
 C161 C 0.66097 0.27674 0.25179
 Zn162 Zn 0.23248 0.30049 0.22407
 Zn163 Zn 0.29396 0.23055 0.21689
 Zn164 Zn 0.29061 0.28884 0.28460
 Zn165 Zn 0.22824 0.23574 0.27925
 O166 O 0.26133 0.26390 0.25119
 O167 O 0.24401 0.29445 0.17219
 O168 O 0.34489 0.23146 0.22465
 O169 O 0.28290 0.34122 0.28255
 O170 O 0.28874 0.24204 0.16683
 O171 O 0.23994 0.34977 0.23752
 O172 O 0.34230 0.27511 0.27441
 O173 O 0.23267 0.24050 0.33099
 O174 O 0.28544 0.18037 0.22017
 O175 O 0.27991 0.27862 0.33480
 O176 O 0.23686 0.18417 0.26656
 O177 O 0.17762 0.25036 0.27202
 O178 O 0.18062 0.29875 0.23161
 C179 C 0.26745 0.26918 0.15145
 C180 C 0.36178 0.25112 0.24904
 C181 C 0.26133 0.36353 0.26208
 C182 C 0.25521 0.25855 0.35095
 C183 C 0.26120 0.16422 0.24169
 C184 C 0.16097 0.27674 0.25179
 C185 C -0.11773 0.71745 0.74821
 C186 C -0.09479 0.74523 0.73375
 C187 C -0.05152 0.74042 0.73388
 C188 C -0.03212 0.77393 0.73681
 C189 C 0.00881 0.77039 0.73676
 C190 C 0.03112 0.73317 0.73315
 C191 C 0.01178 0.69972 0.72914
 C192 C -0.02918 0.70322 0.72980
 C193 C 0.07447 0.72843 0.73205
 C194 C 0.09525 0.75433 0.75207
 H195 H -0.10921 0.77256 0.72403
 H196 H -0.04872 0.80291 0.73938
 H197 H 0.02291 0.79682 0.73872
 H198 H 0.02843 0.67078 0.72573
 H199 H -0.04319 0.67688 0.72630
 H200 H 0.09044 0.70245 0.71682
 H201 H -0.10405 0.69172 0.76150
 H202 H 0.07959 0.77835 0.77048
 C203 C 0.73887 -0.12159 0.76317
 C204 C 0.76456 -0.10148 0.74065
 C205 C 0.76529 -0.05847 0.74465
 C206 C 0.78306 -0.03967 0.71380
 C207 C 0.78456 0.00082 0.71636
 C208 C 0.76867 0.02336 0.75022
 C209 C 0.75098 0.00454 0.78108
 C210 C 0.74949 -0.03593 0.77854
 C211 C 0.76910 0.06640 0.75423
 C212 C 0.79429 0.08691 0.73155
 H213 H 0.78428 -0.11785 0.71805
 H214 H 0.79546 -0.05633 0.68738
 H215 H 0.79757 0.01419 0.69147
 H216 H 0.73857 0.02118 0.80751
 H217 H 0.73652 -0.04929 0.80346
 H218 H 0.74950 0.08252 0.77708
 H219 H 0.71732 -0.10582 0.78443
 H220 H 0.81571 0.07150 0.70994
 C221 C 0.73022 0.72783 -0.10879
 C222 C 0.71113 0.75822 -0.08363
 C223 C 0.70879 0.75616 -0.04054
 C224 C 0.70675 0.79094 -0.01719
 C225 C 0.70452 0.78999 0.02365
 C226 C 0.70368 0.75415 0.04189
 C227 C 0.70453 0.71951 0.01856
 C228 C 0.70736 0.72040 -0.02229
 C229 C 0.70068 0.75219 0.08500
 C230 C 0.71670 0.77829 0.10967
 H231 H 0.69950 0.78544 -0.09584
 H232 H 0.70720 0.81890 -0.03062
 H233 H 0.70269 0.81737 0.04082
 H234 H 0.70330 0.69165 0.03200
 H235 H 0.70766 0.69320 -0.03944
 H236 H 0.68747 0.72802 0.09754
 H237 H 0.74519 0.70192 -0.09687
 H238 H 0.73322 0.80033 0.09733
 C239 C 0.59525 0.75433 0.75207
 C240 C 0.57447 0.72843 0.73205
 C241 C 0.53112 0.73317 0.73315
 C242 C 0.51178 0.69972 0.72914
 C243 C 0.47082 0.70322 0.72980
 C244 C 0.44848 0.74042 0.73388
 C245 C 0.46788 0.77393 0.73681
 C246 C 0.50881 0.77039 0.73676
 C247 C 0.40521 0.74522 0.73375
 C248 C 0.38227 0.71745 0.74821
 H249 H 0.59044 0.70245 0.71682
 H250 H 0.52843 0.67078 0.72573
 H251 H 0.45681 0.67688 0.72630
 H252 H 0.45128 0.80291 0.73937
 H253 H 0.52291 0.79682 0.73871
 H254 H 0.39079 0.77256 0.72403
 H255 H 0.57959 0.77835 0.77048
 H256 H 0.39595 0.69172 0.76150
 C257 C 0.23887 -0.12159 0.76317
 C258 C 0.26456 -0.10148 0.74065
 C259 C 0.26529 -0.05847 0.74465
 C260 C 0.28306 -0.03967 0.71380
 C261 C 0.28456 0.00082 0.71636
 C262 C 0.26867 0.02336 0.75022
 C263 C 0.25098 0.00454 0.78108
 C264 C 0.24949 -0.03593 0.77854
 C265 C 0.26910 0.06640 0.75423
 C266 C 0.29429 0.08691 0.73155
 H267 H 0.28428 -0.11785 0.71805
 H268 H 0.29546 -0.05633 0.68738
 H269 H 0.29757 0.01419 0.69147
 H270 H 0.23857 0.02118 0.80751
 H271 H 0.23652 -0.04929 0.80346
 H272 H 0.24950 0.08252 0.77708
 H273 H 0.21732 -0.10582 0.78443
 H274 H 0.31571 0.07150 0.70994
 C275 C 0.23022 0.72783 -0.10879
 C276 C 0.21113 0.75822 -0.08363
 C277 C 0.20879 0.75616 -0.04054
 C278 C 0.20675 0.79094 -0.01719
 C279 C 0.20452 0.78999 0.02365
 C280 C 0.20368 0.75415 0.04189
 C281 C 0.20453 0.71951 0.01856
 C282 C 0.20736 0.72040 -0.02229
 C283 C 0.20068 0.75219 0.08500
 C284 C 0.21670 0.77829 0.10967
 H285 H 0.19950 0.78544 -0.09584
 H286 H 0.20720 0.81890 -0.03062
 H287 H 0.20269 0.81737 0.04082
 H288 H 0.20330 0.69165 0.03200
 H289 H 0.20766 0.69320 -0.03944
 H290 H 0.18747 0.72802 0.09754
 H291 H 0.24519 0.70192 -0.09687
 H292 H 0.23322 0.80033 0.09733
 C293 C -0.06419 0.21214 0.74664
 C294 C -0.04356 0.23757 0.76746
 C295 C -0.00022 0.23245 0.76683
 C296 C 0.01944 0.26566 0.77092
 C297 C 0.06044 0.26177 0.77021
 C298 C 0.08247 0.22440 0.76602
 C299 C 0.06273 0.19112 0.76321
 C300 C 0.02177 0.19505 0.76329
 C301 C 0.12580 0.21927 0.76559
 C302 C 0.14868 0.24668 0.75024
 H303 H -0.05955 0.26350 0.78277
 H304 H 0.00305 0.29472 0.77429
 H305 H 0.07472 0.28794 0.77364
 H306 H 0.07908 0.16202 0.76056
 H307 H 0.00740 0.16879 0.76129
 H308 H 0.14023 0.19199 0.77541
 H309 H -0.04834 0.18823 0.72822
 H310 H 0.13480 0.27230 0.73692
 C311 C 0.73865 0.59370 0.73255
 C312 C 0.76234 0.56726 0.75335
 C313 C 0.76326 0.52406 0.74920
 C314 C 0.79541 0.50027 0.76223
 C315 C 0.79742 0.45939 0.75936
 C316 C 0.76688 0.44135 0.74379
 C317 C 0.73478 0.46513 0.73065
 C318 C 0.73277 0.50603 0.73351
 C319 C 0.76772 0.39813 0.74009
 C320 C 0.79106 0.37206 0.76158
 H321 H 0.78226 0.57871 0.77278
 H322 H 0.81932 0.51338 0.77438
 H323 H 0.82323 0.44227 0.76881
 H324 H 0.71087 0.45200 0.71853
 H325 H 0.70699 0.52317 0.72403
 H326 H 0.74800 0.38642 0.72059
 H327 H 0.72004 0.58323 0.71129
 H328 H 0.80939 0.38291 0.78290
 C329 C 0.78315 0.22150 -0.10982
 C330 C 0.79922 0.24757 -0.08513
 C331 C 0.79623 0.24558 -0.04202
 C332 C 0.79547 0.28020 -0.01869
 C333 C 0.79267 0.27931 0.02216
 C334 C 0.79118 0.24355 0.04040
 C335 C 0.79313 0.20878 0.01705
 C336 C 0.79534 0.20975 -0.02379
 C337 C 0.78886 0.24149 0.08350
 C338 C 0.76983 0.27190 0.10865
 H339 H 0.81245 0.27173 -0.09767
 H340 H 0.79675 0.30806 -0.03213
 H341 H 0.79244 0.30649 0.03932
 H342 H 0.79264 0.18083 0.03047
 H343 H 0.79710 0.18238 -0.04097
 H344 H 0.80048 0.21425 0.09570
 H345 H 0.76662 0.19947 -0.09748
 H346 H 0.75487 0.29781 0.09674
 C347 C 0.64868 0.24668 0.75024
 C348 C 0.62580 0.21927 0.76559
 C349 C 0.58247 0.22440 0.76602
 C350 C 0.56273 0.19112 0.76321
 C351 C 0.52177 0.19505 0.76329
 C352 C 0.49978 0.23244 0.76683
 C353 C 0.51944 0.26566 0.77092
 C354 C 0.56043 0.26177 0.77021
 C355 C 0.45644 0.23757 0.76746
 C356 C 0.43581 0.21214 0.74664
 H357 H 0.64023 0.19199 0.77541
 H358 H 0.57908 0.16202 0.76056
 H359 H 0.50740 0.16879 0.76128
 H360 H 0.50305 0.29472 0.77429
 H361 H 0.57472 0.28794 0.77364
 H362 H 0.44045 0.26350 0.78277
 H363 H 0.63480 0.27230 0.73692
 H364 H 0.45166 0.18823 0.72822
 C365 C 0.23865 0.59370 0.73255
 C366 C 0.26234 0.56726 0.75335
 C367 C 0.26326 0.52406 0.74920
 C368 C 0.29541 0.50027 0.76223
 C369 C 0.29742 0.45939 0.75936
 C370 C 0.26688 0.44135 0.74379
 C371 C 0.23477 0.46513 0.73065
 C372 C 0.23277 0.50603 0.73351
 C373 C 0.26772 0.39813 0.74009
 C374 C 0.29106 0.37206 0.76158
 H375 H 0.28226 0.57871 0.77278
 H376 H 0.31932 0.51338 0.77438
 H377 H 0.32323 0.44227 0.76881
 H378 H 0.21087 0.45200 0.71853
 H379 H 0.20699 0.52317 0.72403
 H380 H 0.24800 0.38642 0.72059
 H381 H 0.22004 0.58323 0.71129
 H382 H 0.30939 0.38291 0.78290
 C383 C 0.28315 0.22150 -0.10982
 C384 C 0.29922 0.24757 -0.08513
 C385 C 0.29623 0.24558 -0.04202
 C386 C 0.29547 0.28020 -0.01869
 C387 C 0.29267 0.27931 0.02216
 C388 C 0.29118 0.24355 0.04040
 C389 C 0.29313 0.20878 0.01705
 C390 C 0.29534 0.20975 -0.02379
 C391 C 0.28886 0.24149 0.08350
 C392 C 0.26983 0.27190 0.10865
 H393 H 0.31245 0.27173 -0.09767
 H394 H 0.29675 0.30806 -0.03213
 H395 H 0.29244 0.30649 0.03932
 H396 H 0.29264 0.18083 0.03047
 H397 H 0.29710 0.18238 -0.04097
 H398 H 0.30048 0.21425 0.09570
 H399 H 0.26662 0.19947 -0.09748
 H400 H 0.25487 0.29781 0.09674
 C401 C -0.14889 0.75333 0.24964
 C402 C -0.12601 0.78072 0.23427
 C403 C -0.08267 0.77557 0.23383
 C404 C -0.06292 0.80884 0.23664
 C405 C -0.02196 0.80490 0.23655
 C406 C 0.00001 0.76749 0.23302
 C407 C -0.01966 0.73429 0.22893
 C408 C -0.06065 0.73820 0.22964
 C409 C 0.04336 0.76235 0.23240
 C410 C 0.06399 0.78777 0.25323
 H411 H -0.14042 0.80800 0.22444
 H412 H -0.07926 0.83795 0.23928
 H413 H -0.00758 0.83115 0.23856
 H414 H -0.00328 0.70522 0.22556
 H415 H -0.07495 0.71203 0.22622
 H416 H 0.05934 0.73643 0.21708
 H417 H -0.13501 0.72772 0.26298
 H418 H 0.04813 0.81167 0.27166
 C419 C 0.70530 -0.08689 0.26801
 C420 C 0.73168 -0.06661 0.24658
 C421 C 0.73212 -0.02357 0.25060
 C422 C 0.76600 -0.00788 0.23677
 C423 C 0.76769 0.03255 0.23953
 C424 C 0.73515 0.05833 0.25578
 C425 C 0.70130 0.04265 0.26971
 C426 C 0.69962 0.00219 0.26697
 C427 C 0.73558 0.10140 0.25942
 C428 C 0.76173 0.12139 0.23734
 H429 H 0.75411 -0.08328 0.22670
 H430 H 0.79147 -0.02706 0.22410
 H431 H 0.79476 0.04318 0.22944
 H432 H 0.67583 0.06184 0.28236
 H433 H 0.67257 -0.00847 0.27708
 H434 H 0.71337 0.11826 0.27938
 H435 H 0.68396 -0.07148 0.28970
 H436 H 0.78276 0.10570 0.21556
 C437 C 0.74791 0.74424 0.60615
 C438 C 0.71962 0.73179 0.58288
 C439 C 0.72193 0.73453 0.53985
 C440 C 0.68707 0.73945 0.52065
 C441 C 0.68826 0.74210 0.47998
 C442 C 0.72449 0.73929 0.45771
 C443 C 0.75936 0.73321 0.47679
 C444 C 0.75816 0.73114 0.51752
 C445 C 0.72681 0.74128 0.41460
 C446 C 0.69834 0.76341 0.39488
 H447 H 0.69365 0.72177 0.59689
 H448 H 0.65882 0.74152 0.53721
 H449 H 0.66084 0.74559 0.46603
 H450 H 0.78760 0.73035 0.46015
 H451 H 0.78558 0.72612 0.53131
 H452 H 0.75292 0.72672 0.39807
 H453 H 0.77212 0.75775 0.59295
 H454 H 0.67394 0.78107 0.41129
 C455 C 0.56399 0.78777 0.25323
 C456 C 0.54336 0.76235 0.23240
 C457 C 0.50001 0.76749 0.23302
 C458 C 0.48034 0.73429 0.22893
 C459 C 0.43935 0.73820 0.22964
 C460 C 0.41733 0.77557 0.23383
 C461 C 0.43708 0.80884 0.23664
 C462 C 0.47804 0.80490 0.23655
 C463 C 0.37399 0.78072 0.23427
 C464 C 0.35111 0.75333 0.24964
 H465 H 0.55934 0.73643 0.21708
 H466 H 0.49672 0.70522 0.22556
 H467 H 0.42505 0.71203 0.22622
 H468 H 0.42074 0.83795 0.23928
 H469 H 0.49242 0.83115 0.23856
 H470 H 0.35958 0.80800 0.22444
 H471 H 0.54813 0.81167 0.27166
 H472 H 0.36499 0.72772 0.26298
 C473 C 0.20530 -0.08689 0.26801
 C474 C 0.23168 -0.06661 0.24658
 C475 C 0.23212 -0.02357 0.25060
 C476 C 0.26600 -0.00788 0.23677
 C477 C 0.26769 0.03255 0.23952
 C478 C 0.23515 0.05833 0.25578
 C479 C 0.20130 0.04265 0.26971
 C480 C 0.19962 0.00219 0.26697
 C481 C 0.23558 0.10140 0.25942
 C482 C 0.26173 0.12139 0.23734
 H483 H 0.25411 -0.08328 0.22670
 H484 H 0.29147 -0.02706 0.22410
 H485 H 0.29476 0.04318 0.22944
 H486 H 0.17583 0.06183 0.28236
 H487 H 0.17257 -0.00847 0.27708
 H488 H 0.21337 0.11826 0.27938
 H489 H 0.18396 -0.07148 0.28970
 H490 H 0.28276 0.10570 0.21556
 C491 C 0.24791 0.74424 0.60615
 C492 C 0.21962 0.73179 0.58288
 C493 C 0.22193 0.73453 0.53985
 C494 C 0.18707 0.73945 0.52065
 C495 C 0.18826 0.74210 0.47998
 C496 C 0.22449 0.73929 0.45771
 C497 C 0.25936 0.73321 0.47679
 C498 C 0.25816 0.73114 0.51752
 C499 C 0.22681 0.74128 0.41460
 C500 C 0.19834 0.76341 0.39488
 H501 H 0.19365 0.72177 0.59689
 H502 H 0.15882 0.74152 0.53721
 H503 H 0.16084 0.74559 0.46603
 H504 H 0.28760 0.73035 0.46015
 H505 H 0.28558 0.72612 0.53131
 H506 H 0.25292 0.72672 0.39807
 H507 H 0.27212 0.75775 0.59295
 H508 H 0.17394 0.78107 0.41129
 C509 C -0.09508 0.24559 0.24773
 C510 C -0.07428 0.27145 0.26779
 C511 C -0.03093 0.26668 0.26670
 C512 C -0.01158 0.30011 0.27075
 C513 C 0.02939 0.29658 0.27009
 C514 C 0.05171 0.25937 0.26598
 C515 C 0.03229 0.22588 0.26301
 C516 C -0.00864 0.22945 0.26305
 C517 C 0.09498 0.25455 0.26610
 C518 C 0.11792 0.28232 0.25163
 H519 H -0.09024 0.29742 0.28305
 H520 H -0.02821 0.32906 0.27419
 H521 H 0.04341 0.32291 0.27363
 H522 H 0.04887 0.19689 0.26041
 H523 H -0.02276 0.20303 0.26106
 H524 H 0.10939 0.22721 0.27582
 H525 H -0.07942 0.22159 0.22929
 H526 H 0.10423 0.30805 0.23834
 C527 C 0.70877 0.62789 0.23840
 C528 C 0.73217 0.60182 0.25985
 C529 C 0.73306 0.55859 0.25610
 C530 C 0.76522 0.53483 0.26916
 C531 C 0.76727 0.49393 0.26626
 C532 C 0.73678 0.47588 0.25060
 C533 C 0.70457 0.49965 0.23765
 C534 C 0.70252 0.54053 0.24057
 C535 C 0.73774 0.43267 0.24643
 C536 C 0.76149 0.40623 0.26718
 H537 H 0.75191 0.61354 0.27931
 H538 H 0.78913 0.54798 0.28125
 H539 H 0.79310 0.47680 0.27568
 H540 H 0.68066 0.48652 0.22554
 H541 H 0.67666 0.55764 0.23118
 H542 H 0.71779 0.42121 0.22703
 H543 H 0.69043 0.61702 0.21710
 H544 H 0.78014 0.41671 0.28840
 C545 C 0.80153 0.23678 0.60501
 C546 C 0.77312 0.25900 0.58530
 C547 C 0.77548 0.26105 0.54220
 C548 C 0.74064 0.26720 0.52310
 C549 C 0.74187 0.26928 0.48237
 C550 C 0.77812 0.26582 0.46007
 C551 C 0.81296 0.26086 0.47929
 C552 C 0.81173 0.25819 0.51996
 C553 C 0.78047 0.26852 0.41703
 C554 C 0.75220 0.25603 0.39376
 H555 H 0.74702 0.27359 0.60183
 H556 H 0.71238 0.27009 0.53972
 H557 H 0.71446 0.27434 0.46856
 H558 H 0.84122 0.25874 0.46275
 H559 H 0.83913 0.25466 0.53393
 H560 H 0.80645 0.27850 0.40302
 H561 H 0.82592 0.21910 0.58860
 H562 H 0.72797 0.24256 0.40699
 C563 C 0.61792 0.28232 0.25163
 C564 C 0.59498 0.25455 0.26610
 C565 C 0.55171 0.25937 0.26598
 C566 C 0.53229 0.22588 0.26301
 C567 C 0.49136 0.22945 0.26305
 C568 C 0.46907 0.26668 0.26670
 C569 C 0.48842 0.30011 0.27075
 C570 C 0.52939 0.29658 0.27009
 C571 C 0.42572 0.27145 0.26779
 C572 C 0.40492 0.24559 0.24773
 H573 H 0.60939 0.22721 0.27582
 H574 H 0.54887 0.19689 0.26041
 H575 H 0.47724 0.20303 0.26106
 H576 H 0.47179 0.32906 0.27419
 H577 H 0.54341 0.32291 0.27363
 H578 H 0.40976 0.29742 0.28305
 H579 H 0.60423 0.30805 0.23834
 H580 H 0.42058 0.22159 0.22929
 C581 C 0.20877 0.62789 0.23840
 C582 C 0.23217 0.60182 0.25985
 C583 C 0.23306 0.55859 0.25610
 C584 C 0.26522 0.53483 0.26916
 C585 C 0.26727 0.49393 0.26626
 C586 C 0.23678 0.47588 0.25060
 C587 C 0.20457 0.49965 0.23765
 C588 C 0.20252 0.54053 0.24057
 C589 C 0.23774 0.43267 0.24643
 C590 C 0.26149 0.40623 0.26718
 H591 H 0.25191 0.61354 0.27931
 H592 H 0.28913 0.54798 0.28125
 H593 H 0.29310 0.47680 0.27568
 H594 H 0.18066 0.48652 0.22554
 H595 H 0.17666 0.55764 0.23118
 H596 H 0.21779 0.42121 0.22704
 H597 H 0.19043 0.61702 0.21710
 H598 H 0.28014 0.41671 0.28840
 C599 C 0.30153 0.23678 0.60501
 C600 C 0.27312 0.25900 0.58530
 C601 C 0.27548 0.26105 0.54220
 C602 C 0.24064 0.26720 0.52310
 C603 C 0.24187 0.26928 0.48237
 C604 C 0.27812 0.26582 0.46007
 C605 C 0.31296 0.26086 0.47929
 C606 C 0.31173 0.25819 0.51996
 C607 C 0.28047 0.26852 0.41703
 C608 C 0.25220 0.25603 0.39376
 H609 H 0.24702 0.27359 0.60183
 H610 H 0.21238 0.27009 0.53972
 H611 H 0.21446 0.27434 0.46856
 H612 H 0.34122 0.25874 0.46275
 H613 H 0.33913 0.25466 0.53393
 H614 H 0.30645 0.27850 0.40302
 H615 H 0.32592 0.21910 0.58860
 H616 H 0.22797 0.24256 0.40699
   
