data_POSCAR
  _audit_creation_date              2014-09-24
  _audit_creation_method            'ToBaCCo'
  _symmetry_space_group_name_H-M    'P1'
  _symmetry_Int_Tables_number       1
  _symmetry_cell_setting            triclinic
  loop_
  _symmetry_equiv_pos_as_xyz
 x,y,z
_cell_length_a 44.2313
_cell_length_b 44.0627
_cell_length_c 44.0878
_cell_angle_alpha 90.040100
_cell_angle_beta 90.205500
_cell_angle_gamma 89.431900
loop_
  _atom_site_label
  _atom_site_type_symbol
  _atom_site_fract_x
  _atom_site_fract_y
  _atom_site_fract_z
C1 C 0.20334 0.52604 1.03996
 H2 H 0.20233 0.54330 1.02254
 C3 C 0.18349 0.52742 1.06449
 H4 H 0.16710 0.54582 1.06593
 C5 C 0.22552 0.48064 1.05902
 H6 H 0.24156 0.46219 1.05659
 C7 C 0.20606 0.48114 1.08394
 H8 H 0.20737 0.46313 1.10063
 N9 N 0.22402 0.50307 1.03782
 C10 C 0.29638 0.53937 0.98198
 H11 H 0.29775 0.52212 0.96455
 C12 C 0.31619 0.56385 0.98155
 H13 H 0.33291 0.56549 0.96375
 C14 C 0.27338 0.55804 1.02689
 H15 H 0.25706 0.55546 1.04482
 C16 C 0.29278 0.58287 1.02731
 H17 H 0.29119 0.59941 1.04545
 Zn18 Zn 0.24973 0.50280 1.00351
 N19 N 0.27531 0.53705 1.00426
 C20 C 0.22694 0.52624 0.94758
 N21 N 0.22477 0.50360 0.96845
 C22 C 0.20379 0.48140 0.96552
 C23 C 0.18426 0.48111 0.94056
 C24 C 0.20782 0.52680 0.92227
 C25 C 0.29537 0.46472 1.02645
 C26 C 0.31494 0.43966 1.02746
 C27 C 0.29225 0.42123 0.98112
 C28 C 0.27307 0.44663 0.98098
 N29 N 0.27479 0.46763 1.00359
 H30 H 0.24320 0.54411 0.95063
 H31 H 0.20221 0.46397 0.98270
 H32 H 0.16756 0.46340 0.93847
 H33 H 0.20956 0.54497 0.90585
 H34 H 0.29660 0.48198 1.04386
 H35 H 0.33132 0.43759 1.04568
 H36 H 0.29087 0.40472 0.96296
 H37 H 0.25713 0.44967 0.96261
 C38 C 0.31433 0.58582 1.00440
 C39 C 0.18490 0.50479 1.08673
 C40 C 0.31334 0.41771 1.00459
 C41 C 0.18632 0.50401 0.91873
 C42 C 0.79631 0.51899 -0.03584
 H43 H 0.79760 0.53619 -0.01837
 C44 C 0.81596 0.51986 -0.06053
 H45 H 0.83251 0.53775 -0.06211
 C46 C 0.77356 0.47430 -0.05492
 H47 H 0.75736 0.45632 -0.05244
 C48 C 0.79282 0.47432 -0.07997
 H49 H 0.79126 0.45646 -0.09678
 N50 N 0.77542 0.49664 -0.03365
 C51 C 0.70365 0.53495 0.02256
 H52 H 0.70216 0.51772 0.03995
 C53 C 0.68411 0.56003 0.02314
 H54 H 0.66747 0.56217 0.04100
 C55 C 0.72669 0.55297 -0.02238
 H56 H 0.74293 0.54992 -0.04037
 C57 C 0.70758 0.57839 -0.02266
 H58 H 0.70929 0.59491 -0.04075
 Zn59 Zn 0.74989 0.49710 0.00076
 N60 N 0.72461 0.53204 0.00021
 C61 C 0.77304 0.51984 0.05660
 N62 N 0.77499 0.49719 0.03564
 C63 C 0.79583 0.47442 0.03840
 C64 C 0.81538 0.47350 0.06332
 C65 C 0.79220 0.51978 0.08187
 C66 C 0.70386 0.46035 -0.02198
 C67 C 0.68424 0.43574 -0.02304
 C68 C 0.70708 0.41661 0.02310
 C69 C 0.72631 0.44158 0.02330
 N70 N 0.72458 0.46267 0.00077
 H71 H 0.75691 0.53815 0.05366
 H72 H 0.79722 0.45699 0.02115
 H73 H 0.83193 0.45531 0.06532
 H74 H 0.79061 0.53793 0.09839
 H75 H 0.70264 0.47769 -0.03932
 H76 H 0.66782 0.43407 -0.04124
 H77 H 0.70853 0.39996 0.04113
 H78 H 0.74236 0.44417 0.04160
 C79 C 0.68616 0.58197 0.00034
 C80 C 0.81413 0.49736 -0.08282
 C81 C 0.68592 0.41366 -0.00032
 C82 C 0.81351 0.49637 0.08526
 C83 C -0.02427 0.29717 0.46290
 H84 H -0.04192 0.29866 0.47979
 C85 C -0.02473 0.31674 0.43801
 H86 H -0.04281 0.33338 0.43573
 C87 C 0.02111 0.27401 0.44554
 H88 H 0.03919 0.25768 0.44877
 C89 C 0.02154 0.29316 0.42030
 H90 H 0.03987 0.29132 0.40412
 N91 N -0.00178 0.27611 0.46603
 C92 C -0.04064 0.20452 0.52150
 H93 H -0.02406 0.20305 0.53955
 C94 C -0.06524 0.18489 0.52118
 H95 H -0.06767 0.16823 0.53904
 C96 C -0.05743 0.22749 0.47572
 H97 H -0.05405 0.24370 0.45773
 C98 C -0.08234 0.20828 0.47454
 H99 H -0.09815 0.20993 0.45577
 Zn100 Zn -0.00288 0.25067 0.50061
 N101 N -0.03733 0.22548 0.49913
 C102 C -0.02661 0.27409 0.55607
 N103 N -0.00401 0.27605 0.53528
 C104 C 0.01830 0.29690 0.53822
 C105 C 0.01887 0.31638 0.56319
 C106 C -0.02690 0.29318 0.58140
 C107 C 0.03520 0.20423 0.47939
 C108 C 0.06021 0.18464 0.47927
 C109 C 0.07741 0.20784 0.52584
 C110 C 0.05208 0.22701 0.52509
 N111 N 0.03177 0.22511 0.50190
 H112 H -0.04453 0.25790 0.55302
 H113 H 0.03573 0.29827 0.52112
 H114 H 0.03676 0.33287 0.56536
 H115 H -0.04494 0.29153 0.59784
 H116 H 0.01846 0.20287 0.46150
 H117 H 0.06279 0.16809 0.46125
 H118 H 0.09345 0.20945 0.54439
 H119 H 0.04863 0.24317 0.54319
 C120 C -0.08629 0.18683 0.49749
 C121 C -0.00166 0.31465 0.41645
 C122 C 0.08153 0.18654 0.50267
 C123 C -0.00388 0.31443 0.58501
 C124 C 0.98193 0.70409 0.53940
 H125 H 0.96439 0.70252 0.52233
 C126 C 0.98184 0.68455 0.56432
 H127 H 0.96417 0.66784 0.56649
 C128 C 1.02685 0.72725 0.55713
 H129 H 1.04466 0.74351 0.55400
 C130 C 1.02761 0.70811 0.58239
 H131 H 1.04588 0.70984 0.59871
 N132 N 1.00408 0.72509 0.53638
 C133 C 0.96493 0.79595 0.47882
 H134 H 0.98196 0.79711 0.46132
 C135 C 0.94001 0.81564 0.47800
 H136 H 0.93780 0.83205 0.45981
 C137 C 0.94729 0.77369 0.52433
 H138 H 0.95045 0.75770 0.54265
 C139 C 0.92203 0.79300 0.52437
 H140 H 0.90574 0.79168 0.54261
 Zn141 Zn 1.00296 0.75008 0.50140
 N142 N 0.96799 0.77532 0.50161
 C143 C 0.98041 0.72586 0.44581
 N144 N 1.00284 0.72423 0.46702
 C145 C 1.02567 0.70344 0.46471
 C146 C 1.02694 0.68366 0.43998
 C147 C 0.98083 0.70647 0.42071
 C148 C 1.03982 0.79684 0.52276
 C149 C 1.06424 0.81670 0.52295
 C150 C 1.08242 0.79311 0.47690
 C151 C 1.05766 0.77367 0.47757
 N152 N 1.03713 0.77567 0.50045
 H153 H 0.96208 0.74200 0.44836
 H154 H 1.04295 0.70234 0.48212
 H155 H 1.04522 0.66720 0.43833
 H156 H 0.96290 0.70784 0.40395
 H157 H 1.02290 0.79828 0.54038
 H158 H 1.06618 0.83352 0.54076
 H159 H 1.09859 0.79147 0.45856
 H160 H 1.05478 0.75728 0.45961
 C161 C 0.91835 0.81413 0.50097
 C162 C 1.00487 0.68660 0.58602
 C163 C 1.08574 0.81477 0.49983
 C164 C 1.00437 0.68526 0.41774
 C165 C 0.45942 -0.02362 0.29578
 H166 H 0.47730 -0.04054 0.29660
 C167 C 0.43523 -0.02526 0.31594
 H168 H 0.43445 -0.04345 0.33243
 C169 C 0.43880 0.02112 0.27368
 H170 H 0.44048 0.03940 0.25750
 C171 C 0.41421 0.02033 0.29346
 H172 H 0.39696 0.03793 0.29236
 N173 N 0.46062 -0.00088 0.27497
 C174 C 0.51584 -0.03741 0.20155
 H175 H 0.53288 -0.02005 0.19987
 C176 C 0.51635 -0.06209 0.18165
 H177 H 0.53387 -0.06373 0.16459
 C178 C 0.47178 -0.05612 0.22537
 H179 H 0.45413 -0.05347 0.24203
 C180 C 0.47144 -0.08116 0.20591
 H181 H 0.45362 -0.09775 0.20787
 Zn182 Zn 0.49437 -0.00046 0.24866
 N183 N 0.49395 -0.03502 0.22305
 C184 C 0.55116 -0.02271 0.27052
 N185 N 0.52971 -0.00049 0.27313
 C186 C 0.53235 0.02198 0.29414
 C187 C 0.55764 0.02307 0.31314
 C188 C 0.57682 -0.02248 0.28911
 C189 C 0.47001 0.03691 0.20317
 C190 C 0.46829 0.06172 0.18351
 C191 C 0.51444 0.08077 0.20561
 C192 C 0.51530 0.05561 0.22488
 N193 N 0.49313 0.03442 0.22350
 H194 H 0.54836 -0.04080 0.25425
 H195 H 0.51474 0.03908 0.29607
 H196 H 0.55956 0.04105 0.32978
 H197 H 0.59377 -0.04026 0.28695
 H198 H 0.45297 0.01948 0.20220
 H199 H 0.44988 0.06344 0.16731
 H200 H 0.53227 0.09742 0.20669
 H201 H 0.53390 0.05291 0.24060
 C202 C 0.49396 -0.08419 0.18389
 C203 C 0.41238 -0.00313 0.31470
 C204 C 0.49071 0.08385 0.18476
 C205 C 0.58011 0.00067 0.31055
 C206 C 0.54124 -0.02451 0.70126
 H207 H 0.52359 -0.04132 0.70041
 C208 C 0.56549 -0.02633 0.68114
 H209 H 0.56655 -0.04458 0.66468
 C210 C 0.56112 0.02023 0.72328
 H211 H 0.55911 0.03861 0.73937
 C212 C 0.58577 0.01926 0.70353
 H213 H 0.60272 0.03680 0.70458
 N214 N 0.53962 -0.00165 0.72198
 C215 C 0.48370 -0.03689 0.79495
 H216 H 0.46673 -0.01910 0.79644
 C217 C 0.48273 -0.06161 0.81471
 H218 H 0.46500 -0.06290 0.83153
 C219 C 0.52789 -0.05676 0.77159
 H220 H 0.54572 -0.05459 0.75511
 C221 C 0.52777 -0.08186 0.79093
 H222 H 0.54539 -0.09901 0.78915
 Zn223 Zn 0.50554 -0.00073 0.74789
 N224 N 0.50584 -0.03508 0.77370
 C225 C 0.44927 -0.02264 0.72563
 N226 N 0.47054 -0.00067 0.72302
 C227 C 0.46783 0.02169 0.70187
 C228 C 0.44260 0.02297 0.68279
 C229 C 0.42368 -0.02220 0.70697
 C230 C 0.52875 0.03704 0.79338
 C231 C 0.52965 0.06198 0.81293
 C232 C 0.48329 0.08069 0.79024
 C233 C 0.48324 0.05541 0.77111
 N234 N 0.50591 0.03433 0.77283
 H235 H 0.45214 -0.04065 0.74201
 H236 H 0.48530 0.03859 0.69996
 H237 H 0.44058 0.04089 0.66607
 H238 H 0.40684 -0.03975 0.70918
 H239 H 0.54618 0.01968 0.79465
 H240 H 0.54785 0.06390 0.82931
 H241 H 0.46508 0.09727 0.78886
 H242 H 0.46486 0.05253 0.75523
 C243 C 0.50492 -0.08433 0.81260
 C244 C 0.58797 -0.00428 0.68232
 C245 C 0.50671 0.08400 0.81133
 C246 C 0.42028 0.00088 0.68545
 C247 C 0.24985 0.00147 0.50355
 C248 C 0.75014 0.00064 0.49311
 C249 C 0.49990 0.24977 0.99799
 C250 C 0.50074 0.75002 -0.00112
 C251 C 0.99987 0.49883 0.25098
 C252 C -0.00003 0.49982 0.75204
 C253 C 0.21686 0.08179 0.48618
 C254 C 0.19316 0.08321 0.50706
 C255 C 0.18970 0.05994 0.52819
 C256 C 0.20877 0.03457 0.52740
 C257 C 0.10704 0.16604 0.50340
 C258 C 0.23608 0.05638 0.48538
 C259 C 0.17124 0.10752 0.50596
 C260 C 0.15177 0.12682 0.50507
 C261 C 0.12797 0.14835 0.50412
 C262 C 0.23112 0.03135 0.50475
 H263 H 0.22022 0.10012 0.47022
 H264 H 0.17175 0.06101 0.54482
 H265 H 0.20522 0.01662 0.54373
 H266 H 0.25456 0.05658 0.46945
 C267 C 0.58076 0.71726 0.01720
 C268 C 0.58224 0.69311 -0.00337
 C269 C 0.55900 0.68913 -0.02444
 C270 C 0.53367 0.70818 -0.02398
 C271 C 0.66559 0.60746 -0.00003
 C272 C 0.55537 0.73648 0.01767
 C273 C 0.60669 0.67137 -0.00214
 C274 C 0.62612 0.65203 -0.00130
 C275 C 0.64780 0.62834 -0.00052
 C276 C 0.53044 0.73109 -0.00172
 H277 H 0.59906 0.72102 0.03312
 H278 H 0.56012 0.67082 -0.04084
 H279 H 0.51578 0.70426 -0.04032
 H280 H 0.55553 0.75534 0.03332
 C281 C 0.77970 -0.08233 0.49293
 C282 C 0.81026 -0.07872 0.50018
 C283 C 0.82121 -0.04986 0.50673
 C284 C 0.80216 -0.02454 0.50490
 C285 C 0.89314 -0.16494 0.50106
 C286 C 0.76047 -0.05693 0.49115
 C287 C 0.83091 -0.10419 0.50066
 C288 C 0.84955 -0.12434 0.50091
 C289 C 0.87263 -0.14671 0.50105
 C290 C 0.77172 -0.02726 0.49530
 H291 H 0.77075 -0.10471 0.48851
 H292 H 0.84464 -0.04687 0.51328
 H293 H 0.81157 -0.00294 0.51138
 H294 H 0.73683 -0.06034 0.48584
 C295 C 0.44886 0.32047 1.01164
 C296 C 0.42033 0.30946 1.00415
 C297 C 0.41707 0.27892 0.99623
 C298 C 0.44253 0.25980 0.99473
 C299 C 0.33419 0.39240 1.00459
 C300 C 0.47422 0.30152 1.01010
 C301 C 0.39485 0.33005 1.00437
 C302 C 0.37471 0.34870 1.00449
 C303 C 0.35238 0.37183 1.00457
 C304 C 0.47191 0.27116 0.99986
 H305 H 0.45155 0.34385 1.01871
 H306 H 0.39494 0.26992 0.99106
 H307 H 0.43939 0.23617 0.98889
 H308 H 0.49555 0.31095 1.01727
 C309 C 0.78109 0.08102 0.51123
 C310 C 0.80487 0.08269 0.49050
 C311 C 0.80895 0.05961 0.46915
 C312 C 0.79045 0.03417 0.46960
 C313 C 0.88879 0.16611 0.49616
 C314 C 0.76246 0.05553 0.51170
 C315 C 0.82623 0.10708 0.49203
 C316 C 0.84519 0.12650 0.49336
 C317 C 0.86837 0.14823 0.49491
 C318 C 0.76810 0.03066 0.49214
 H319 H 0.77722 0.09919 0.52736
 H320 H 0.82696 0.06089 0.45262
 H321 H 0.79450 0.01635 0.45313
 H322 H 0.74391 0.05554 0.52755
 C323 C 0.44982 0.68038 0.01304
 C324 C 0.42126 0.69193 0.00566
 C325 C 0.41792 0.72255 -0.00214
 C326 C 0.44335 0.74118 -0.00372
 C327 C 0.33524 0.61063 0.00488
 C328 C 0.47516 0.69884 0.01140
 C329 C 0.39584 0.67179 0.00570
 C330 C 0.37574 0.65351 0.00555
 C331 C 0.35344 0.63082 0.00523
 C332 C 0.47276 0.72922 0.00116
 H333 H 0.45257 0.65693 0.02001
 H334 H 0.39576 0.73197 -0.00721
 H335 H 0.44017 0.76487 -0.00953
 H336 H 0.49654 0.68901 0.01842
 C337 C 0.17997 -0.04935 0.49031
 C338 C 0.19159 -0.07810 0.49715
 C339 C 0.22228 -0.08159 0.50419
 C340 C 0.24095 -0.05613 0.50561
 C341 C 0.11045 -0.16425 0.49906
 C342 C 0.19848 -0.02398 0.49180
 C343 C 0.17145 -0.10355 0.49736
 C344 C 0.15320 -0.12368 0.49777
 C345 C 0.13057 -0.14602 0.49842
 C346 C 0.22899 -0.02654 0.50134
 H347 H 0.15644 -0.04648 0.48391
 H348 H 0.23173 -0.10389 0.50882
 H349 H 0.26469 -0.05942 0.51086
 H350 H 0.18856 -0.00245 0.48522
 C351 C 0.57978 0.28100 1.01701
 C352 C 0.58154 0.30494 0.99629
 C353 C 0.55850 0.30928 0.97497
 C354 C 0.53311 0.29080 0.97531
 C355 C 0.66529 0.38860 0.99939
 C356 C 0.55432 0.26235 1.01736
 C357 C 0.60610 0.32608 0.99752
 C358 C 0.62563 0.34495 0.99831
 C359 C 0.64743 0.36812 0.99899
 C360 C 0.52962 0.26810 0.99765
 H361 H 0.59791 0.27695 1.03314
 H362 H 0.55983 0.32741 0.95846
 H363 H 0.51541 0.29498 0.95876
 H364 H 0.55428 0.24362 1.03314
 C365 C 0.48438 0.17968 1.04851
 C366 C 0.49068 0.19093 1.07741
 C367 C 0.49815 0.22149 1.08104
 C368 C 0.50049 0.24037 1.05561
 C369 C 0.49009 0.10884 1.16374
 C370 C 0.48678 0.19839 1.02317
 C371 C 0.49001 0.17052 1.10288
 C372 C 0.48977 0.15206 1.12305
 C373 C 0.48981 0.12918 1.14545
 C374 C 0.49672 0.22871 1.02595
 H375 H 0.47769 0.15627 1.04550
 H376 H 0.50240 0.23067 1.10343
 H377 H 0.50605 0.26400 1.05902
 H378 H 0.48061 0.18879 1.00149
 C379 C 0.01428 0.55092 0.68212
 C380 C 0.00720 0.57967 0.69348
 C381 C -0.00035 0.58307 0.72408
 C382 C -0.00202 0.55752 0.74289
 C383 C 0.00574 0.66582 0.61121
 C384 C 0.01253 0.52547 0.70076
 C385 C 0.00717 0.60520 0.67311
 C386 C 0.00690 0.62536 0.65463
 C387 C 0.00635 0.64767 0.63166
 C388 C 0.00249 0.52796 0.73112
 H389 H 0.02105 0.54811 0.65868
 H390 H -0.00519 0.60536 0.73335
 H391 H -0.00766 0.56074 0.76656
 H392 H 0.01926 0.50392 0.69106
 C393 C 0.52581 0.80964 -0.05918
 C394 C 0.50534 0.80572 -0.08298
 C395 C 0.48460 0.78198 -0.08190
 C396 C 0.48337 0.76313 -0.05638
 C397 C 0.50474 0.89041 -0.16674
 C398 C 0.52460 0.79096 -0.03373
 C399 C 0.50489 0.82715 -0.10758
 C400 C 0.50470 0.84627 -0.12711
 C401 C 0.50466 0.86972 -0.14888
 C402 C 0.50217 0.76850 -0.03096
 H403 H 0.54233 0.82763 -0.05996
 H404 H 0.46913 0.77826 -0.10061
 H405 H 0.46763 0.74457 -0.05685
 H406 H 0.54049 0.79485 -0.01541
 C407 C 0.97602 0.44076 0.31111
 C408 C 0.99691 0.41716 0.30712
 C409 C 1.01755 0.41835 0.28320
 C410 C 1.01826 0.44380 0.26421
 C411 C 0.99856 0.33399 0.39238
 C412 C 0.97673 0.46614 0.29230
 C413 C 0.99781 0.39266 0.32866
 C414 C 0.99830 0.37325 0.34790
 C415 C 0.99857 0.35166 0.37152
 C416 C 0.99903 0.46905 0.26962
 H417 H 0.95957 0.43988 0.32924
 H418 H 1.03333 0.39978 0.27944
 H419 H 1.03396 0.44341 0.24551
 H420 H 0.96053 0.48430 0.29623
 C421 C 0.50019 0.77875 0.08182
 C422 C 0.49281 0.80947 0.07816
 C423 C 0.48606 0.82070 0.04932
 C424 C 0.48800 0.80179 0.02403
 C425 C 0.49352 0.89212 0.16401
 C426 C 0.50206 0.75968 0.05645
 C427 C 0.49266 0.83005 0.10352
 C428 C 0.49279 0.84865 0.12358
 C429 C 0.49314 0.87168 0.14583
 C430 C 0.49791 0.77127 0.02680
 H431 H 0.50477 0.76961 0.10419
 H432 H 0.47941 0.84425 0.04630
 H433 H 0.48152 0.81141 0.00240
 H434 H 0.50760 0.73594 0.05987
 C435 C -0.02503 0.44224 0.69164
 C436 C -0.00454 0.41829 0.69565
 C437 C 0.01628 0.41915 0.71959
 C438 C 0.01754 0.44459 0.73860
 C439 C -0.00401 0.33485 0.61050
 C440 C -0.02379 0.46761 0.71048
 C441 C -0.00419 0.39373 0.67412
 C442 C -0.00407 0.37425 0.65491
 C443 C -0.00404 0.35258 0.63133
 C444 C -0.00133 0.47014 0.73323
 H445 H -0.04160 0.44163 0.67349
 H446 H 0.03178 0.40033 0.72336
 H447 H 0.03333 0.44395 0.75733
 H448 H -0.03973 0.48602 0.70656
 C449 C 0.52584 0.18945 0.94038
 C450 C 0.50573 0.19371 0.91625
 C451 C 0.48489 0.21778 0.91704
 C452 C 0.48322 0.23670 0.94255
 C453 C 0.50657 0.10923 0.83208
 C454 C 0.52418 0.20819 0.96581
 C455 C 0.50581 0.17232 0.89156
 C456 C 0.50602 0.15325 0.87194
 C457 C 0.50633 0.12987 0.85005
 C458 C 0.50169 0.23109 0.96823
 H459 H 0.54242 0.17119 0.93984
 H460 H 0.46970 0.22175 0.89810
 H461 H 0.46742 0.25552 0.94185
 H462 H 0.53982 0.20407 0.98436
 C463 C 1.01386 0.54979 0.32124
 C464 C 1.00647 0.57851 0.30999
 C465 C 0.99886 0.58195 0.27936
 C466 C 0.99742 0.55647 0.26041
 C467 C 1.00488 0.66444 0.39257
 C468 C 1.01234 0.52439 0.30247
 C469 C 1.00626 0.60396 0.33048
 C470 C 1.00590 0.62405 0.34905
 C471 C 1.00536 0.64631 0.37209
 C472 C 1.00222 0.52690 0.27206
 H473 H 1.02069 0.54695 0.34471
 H474 H 0.99380 0.60424 0.27019
 H475 H 0.99170 0.55972 0.23673
 H476 H 1.01930 0.50287 0.31209
 C477 C 1.08263 0.49852 0.22282
 C478 C 1.07910 0.50606 0.19219
 C479 C 1.05039 0.51310 0.18085
 C480 C 1.02513 0.51134 0.19954
 C481 C 1.16503 0.50525 0.11028
 C482 C 1.05728 0.49684 0.24168
 C483 C 1.10447 0.50613 0.17183
 C484 C 1.12454 0.50598 0.15341
 C485 C 1.14683 0.50563 0.13058
 C486 C 1.02776 0.50133 0.22995
 H487 H 1.10489 0.49372 0.23207
 H488 H 1.04748 0.51987 0.15738
 H489 H 1.00361 0.51808 0.18986
 H490 H 1.06060 0.49121 0.26536
 C491 C 0.68102 -0.01389 0.54482
 C492 C 0.69274 -0.00715 0.57344
 C493 C 0.72331 0.00008 0.57653
 C494 C 0.74172 0.00184 0.55082
 C495 C 0.61251 -0.00519 0.66097
 C496 C 0.69927 -0.01206 0.51919
 C497 C 0.67281 -0.00705 0.59918
 C498 C 0.65478 -0.00665 0.61962
 C499 C 0.63242 -0.00592 0.64237
 C500 C 0.72960 -0.00226 0.52138
 H501 H 0.65759 -0.02042 0.54225
 H502 H 0.73284 0.00466 0.59871
 H503 H 0.76535 0.00732 0.55381
 H504 H 0.68931 -0.01852 0.49775
 C505 C -0.05785 0.47553 0.81199
 C506 C -0.08145 0.49640 0.80789
 C507 C -0.08025 0.51727 0.78404
 C508 C -0.05484 0.51820 0.76521
 C509 C -0.16523 0.49742 0.89203
 C510 C -0.03251 0.47644 0.79333
 C511 C -0.10603 0.49701 0.82918
 C512 C -0.12556 0.49729 0.84816
 C513 C -0.14735 0.49742 0.87146
 C514 C -0.02964 0.49893 0.77069
 H515 H -0.05873 0.45890 0.83005
 H516 H -0.09881 0.53305 0.78019
 H517 H -0.05524 0.53404 0.74654
 H518 H -0.01439 0.46020 0.79730
 C519 C 0.27661 0.00136 0.42011
 C520 C 0.30730 -0.00597 0.42315
 C521 C 0.31915 -0.01291 0.45171
 C522 C 0.30088 -0.01117 0.47735
 C523 C 0.38778 -0.00397 0.33595
 C524 C 0.25818 0.00302 0.44583
 C525 C 0.32724 -0.00580 0.39743
 C526 C 0.34533 -0.00537 0.37706
 C527 C 0.36778 -0.00466 0.35443
 C528 C 0.27039 -0.00127 0.47523
 H529 H 0.26699 0.00607 0.39796
 H530 H 0.34269 -0.01953 0.45423
 H531 H 0.31095 -0.01778 0.49874
 H532 H 0.23444 0.00855 0.44290
 C533 C 0.05102 0.51356 0.82227
 C534 C 0.07959 0.50616 0.81101
 C535 C 0.08289 0.49849 0.78040
 C536 C 0.05742 0.49706 0.76148
 C537 C 0.16555 0.50471 0.89351
 C538 C 0.02564 0.51206 0.80352
 C539 C 0.10505 0.50602 0.83146
 C540 C 0.12515 0.50573 0.85000
 C541 C 0.14743 0.50523 0.87302
 C542 C 0.02801 0.50195 0.77312
 H543 H 0.04829 0.52044 0.84572
 H544 H 0.10505 0.49340 0.77121
 H545 H 0.06057 0.49135 0.73780
 H546 H 0.00425 0.51908 0.81314
 C547 C 0.71688 -0.01676 0.41317
 C548 C 0.69267 0.00389 0.41221
 C549 C 0.68888 0.02483 0.43569
 C550 C 0.70816 0.02411 0.46077
 C551 C 0.60594 0.00102 0.33051
 C552 C 0.73633 -0.01749 0.43831
 C553 C 0.67064 0.00284 0.38812
 C554 C 0.65105 0.00211 0.36905
 C555 C 0.62707 0.00144 0.34785
 C556 C 0.73114 0.00172 0.46351
 H557 H 0.72050 -0.03258 0.39469
 H558 H 0.67053 0.04129 0.43499
 H559 H 0.70433 0.04030 0.47889
 H560 H 0.75518 -0.03324 0.43775
 C561 C 0.94186 0.47429 0.19087
 C562 C 0.91815 0.49499 0.19504
 C563 C 0.91933 0.51576 0.21901
 C564 C 0.94483 0.51678 0.23788
 C565 C 0.83414 0.49632 0.11056
 C566 C 0.96730 0.47529 0.20958
 C567 C 0.89350 0.49560 0.17367
 C568 C 0.87390 0.49595 0.15461
 C569 C 0.85204 0.49621 0.13123
 C570 C 0.97014 0.49774 0.23232
 H571 H 0.94099 0.45774 0.17270
 H572 H 0.90069 0.53140 0.22292
 H573 H 0.94442 0.53254 0.25664
 H574 H 0.98551 0.45920 0.20554
 C575 C 0.31071 0.02578 0.56081
 C576 C 0.30736 0.00488 0.58431
 C577 C 0.28354 -0.01574 0.58343
 C578 C 0.26407 -0.01652 0.55833
 C579 C 0.39443 0.00151 0.66556
 C580 C 0.29141 0.02501 0.53577
 C581 C 0.32948 0.00379 0.60828
 C582 C 0.34916 0.00297 0.62725
 C583 C 0.37323 0.00213 0.64832
 C584 C 0.26888 0.00261 0.53309
 H585 H 0.32876 0.04222 0.56147
 H586 H 0.28026 -0.03153 0.60193
 H587 H 0.24551 -0.03224 0.55894
 H588 H 0.29489 0.04116 0.51764
   
