data_POSCAR
  _audit_creation_date              2014-09-24
  _audit_creation_method            'ToBaCCo'
  _symmetry_space_group_name_H-M    'P1'
  _symmetry_Int_Tables_number       1
  _symmetry_cell_setting            triclinic
  loop_
  _symmetry_equiv_pos_as_xyz
 x,y,z
_cell_length_a 39.7928
_cell_length_b 39.8113
_cell_length_c 39.7362
_cell_angle_alpha 85.437400
_cell_angle_beta 81.311900
_cell_angle_gamma 91.336000
loop_
  _atom_site_label
  _atom_site_type_symbol
  _atom_site_fract_x
  _atom_site_fract_y
  _atom_site_fract_z
O1 O 0.53963 0.49784 0.02987
 O2 O 0.44766 0.49866 0.02621
 O3 O 0.49241 0.45192 0.02737
 O4 O 0.49431 0.54428 0.02874
 O5 O 0.50519 0.54973 -0.02767
 O6 O 0.50413 0.45735 -0.02898
 O7 O 0.45836 0.50304 -0.03017
 O8 O 0.55038 0.50408 -0.02651
 Cu9 Cu 0.49247 0.49756 0.03371
 Cu10 Cu 0.50553 0.50407 -0.03400
 C11 C 0.56065 0.50109 0.00228
 C12 C 0.43730 0.50095 -0.00258
 C13 C 0.49804 0.43892 -0.00102
 C14 C 0.50001 0.56269 0.00076
 O15 O -0.02819 0.54465 0.50510
 O16 O -0.02713 0.45192 0.50874
 O17 O -0.02402 0.49631 0.55238
 O18 O -0.03134 0.49999 0.46085
 O19 O 0.02467 0.50007 0.44812
 O20 O 0.03192 0.50182 0.53928
 O21 O 0.02901 0.45471 0.49733
 O22 O 0.02752 0.54750 0.48942
 Cu23 Cu -0.03331 0.49801 0.50801
 Cu24 Cu 0.03392 0.50139 0.49229
 C25 C -0.00054 0.56192 0.49634
 C26 C 0.00115 0.43754 0.50395
 C27 C 0.00517 0.49875 0.56137
 C28 C -0.00454 0.49994 0.43898
 O29 O 0.49959 0.02988 0.54385
 O30 O 0.50401 0.02725 0.45094
 O31 O 0.45517 0.02967 0.50157
 O32 O 0.54852 0.02704 0.49258
 O33 O 0.54469 -0.02856 0.50073
 O34 O 0.45157 -0.02601 0.50774
 O35 O 0.50160 -0.02844 0.45724
 O36 O 0.49463 -0.02571 0.55054
 Cu37 Cu 0.50221 0.03406 0.49665
 Cu38 Cu 0.49778 -0.03279 0.50465
 C39 C 0.49615 0.00256 0.56309
 C40 C 0.50365 -0.00101 0.43826
 C41 C 0.43753 0.00225 0.50594
 C42 C 0.56245 -0.00122 0.49537
 C43 C 0.47542 0.08628 -0.05780
 C44 C 0.47416 0.06294 -0.08124
 C45 C 0.48881 0.03423 -0.06874
 N46 N 0.49890 0.03921 -0.03849
 C47 C 0.49080 0.07102 -0.03178
 C48 C 0.49454 0.00469 -0.08593
 C49 C 0.50364 -0.02581 -0.06934
 C50 C 0.51687 -0.05308 -0.08584
 C51 C 0.51890 -0.07865 -0.06099
 C52 C 0.50748 -0.06621 -0.02979
 N53 N 0.49822 -0.03394 -0.03518
 C54 C 0.50262 -0.08537 0.00228
 C55 C 0.49791 -0.07040 0.03366
 C56 C 0.48908 -0.08756 0.06567
 C57 C 0.48971 -0.06416 0.08913
 C58 C 0.49960 -0.03356 0.07077
 N59 N 0.50459 -0.03746 0.03690
 C60 C 0.50603 -0.00307 0.08502
 C61 C 0.51191 0.02801 0.06485
 C62 C 0.52748 0.05650 0.07446
 C63 C 0.52554 0.08194 0.04942
 C64 C 0.50882 0.06832 0.02520
 N65 N 0.50090 0.03533 0.03461
 C66 C 0.49903 0.08682 -0.00338
 H67 H 0.46587 0.11147 -0.05966
 H68 H 0.46342 0.06669 -0.10464
 H69 H 0.48514 0.01992 0.02326
 H70 H 0.52396 -0.05471 -0.11302
 H71 H 0.52737 -0.10364 -0.06584
 H72 H 0.48310 -0.11417 0.07181
 H73 H 0.48368 -0.06936 0.11653
 H74 H 0.53523 0.10759 0.04922
 H75 H 0.48494 -0.01979 -0.01699
 H76 H 0.53898 0.05880 0.09721
 C77 C -0.05313 0.48354 0.91869
 C78 C -0.08009 0.48393 0.94451
 C79 C -0.06717 0.49417 0.97267
 N80 N -0.03310 0.49974 0.96494
 C81 C -0.02436 0.49300 0.93197
 C82 C -0.08702 0.50015 1.00415
 C83 C -0.07269 0.50536 1.03393
 C84 C -0.09009 0.51728 1.06326
 C85 C -0.06829 0.51621 1.08701
 C86 C -0.03782 0.50427 1.07143
 N87 N -0.04085 0.49753 1.03913
 C88 C -0.00921 0.49723 1.08778
 C89 C 0.02345 0.49212 1.06956
 C90 C 0.05149 0.48214 1.08427
 C91 C 0.07846 0.48282 1.05833
 C92 C 0.06635 0.49385 1.02860
 N93 N 0.03271 0.49950 1.03553
 C94 C 0.08667 0.50054 0.99618
 C95 C 0.07263 0.50631 0.96561
 C96 C 0.09069 0.51904 0.93443
 C97 C 0.06884 0.51806 0.91082
 C98 C 0.03770 0.50542 0.92826
 N99 N 0.04032 0.49817 0.96163
 C100 C 0.00870 0.49825 0.91300
 H101 H -0.05498 0.47748 0.89298
 H102 H -0.10625 0.47753 0.94253
 H103 H 0.02234 0.48467 0.97966
 H104 H -0.11597 0.52558 1.06741
 H105 H -0.07464 0.52317 1.11288
 H106 H 0.05289 0.47545 1.11089
 H107 H 0.10408 0.47605 1.06128
 H108 H 0.07557 0.52562 0.88387
 H109 H -0.02361 0.48457 1.02307
 H110 H 0.11702 0.52786 0.92898
 C111 C 0.08628 -0.06252 0.50219
 C112 C 0.06213 -0.08713 0.50069
 C113 C 0.03178 -0.07110 0.49908
 N114 N 0.03660 -0.03752 0.50053
 C115 C 0.06987 -0.03217 0.50267
 C116 C 0.00073 -0.08750 0.49532
 C117 C -0.02964 -0.07050 0.49179
 C118 C -0.05734 -0.08512 0.48033
 C119 C -0.08140 -0.06114 0.47983
 C120 C -0.06800 -0.03229 0.49098
 N121 N -0.03639 -0.03822 0.49840
 C122 C -0.08546 -0.00172 0.49361
 C123 C -0.06977 0.02985 0.49720
 C124 C -0.08627 0.06015 0.49811
 C125 C -0.06213 0.08476 0.49965
 C126 C -0.03170 0.06877 0.50082
 N127 N -0.03645 0.03523 0.49911
 C128 C -0.00061 0.08520 0.50437
 C129 C 0.02983 0.06826 0.50769
 C130 C 0.05763 0.08297 0.51887
 C131 C 0.08170 0.05900 0.51938
 C132 C 0.06820 0.03005 0.50848
 N133 N 0.03652 0.03593 0.50122
 C134 C 0.08561 -0.00056 0.50600
 H135 H 0.11284 -0.06693 0.50303
 H136 H 0.06684 -0.11375 0.50061
 H137 H 0.02160 0.01980 0.48990
 H138 H -0.05977 -0.11027 0.47226
 H139 H -0.10576 -0.06447 0.47132
 H140 H -0.11289 0.06451 0.49755
 H141 H -0.06691 0.11134 0.50005
 H142 H 0.10610 0.06240 0.52776
 H143 H -0.02157 -0.02219 0.50996
 H144 H 0.06013 0.10818 0.52679
 C145 C -0.33475 0.50272 1.00550
 N146 N -0.34674 0.51095 0.97581
 N147 N -0.38006 0.51028 0.97482
 C148 C -0.40264 0.50157 1.00353
 N149 N -0.39069 0.49344 1.03328
 N150 N -0.35733 0.49388 1.03422
 C151 C -0.29794 0.50330 1.00633
 N152 N -0.28534 0.49004 1.03421
 N153 N -0.25189 0.49019 1.03458
 C154 C -0.22985 0.50383 1.00717
 N155 N -0.24249 0.51724 0.97940
 N156 N -0.27589 0.51689 0.97894
 C157 C -0.19292 0.50361 1.00715
 N158 N -0.17141 0.52109 0.98166
 N159 N -0.13788 0.52034 0.98100
 C160 C -0.12453 0.50185 1.00567
 N161 N -0.14609 0.48448 1.03128
 N162 N -0.17967 0.48542 1.03206
 C163 C 0.33461 0.50252 0.99427
 N164 N 0.34663 0.50266 1.02446
 N165 N 0.37991 0.50190 1.02545
 C166 C 0.40250 0.50132 0.99624
 N167 N 0.39046 0.50132 0.96600
 N168 N 0.35712 0.50173 0.96505
 C169 C 0.29786 0.50329 0.99343
 N170 N 0.28475 0.49493 0.96545
 N171 N 0.25130 0.49517 0.96510
 C172 C 0.22981 0.50416 0.99257
 N173 N 0.24297 0.51275 1.02041
 N174 N 0.27634 0.51217 1.02090
 C175 C 0.19289 0.50411 0.99259
 N176 N 0.17247 0.51986 1.01649
 N177 N 0.13889 0.51916 1.01723
 C178 C 0.12435 0.50235 0.99437
 N179 N 0.14485 0.48670 0.97035
 N180 N 0.17850 0.48768 0.96938
 C181 C -0.00174 -0.33467 0.49179
 N182 N 0.02754 -0.35047 0.48190
 N183 N 0.02793 -0.38402 0.48336
 C184 C -0.00100 -0.40302 0.49450
 N185 N -0.03034 -0.38716 0.50415
 N186 N -0.03066 -0.35363 0.50297
 C187 C -0.00202 -0.29773 0.49098
 N188 N -0.02899 -0.28226 0.50749
 N189 N -0.02893 -0.24879 0.50745
 C190 C -0.00204 -0.22953 0.49064
 N191 N 0.02482 -0.24498 0.47391
 N192 N 0.02490 -0.27847 0.47420
 C193 C -0.00170 -0.19268 0.49121
 N194 N 0.02183 -0.17293 0.46969
 N195 N 0.02249 -0.13954 0.47072
 C196 C -0.00004 -0.12471 0.49364
 N197 N -0.02373 -0.14449 0.51497
 N198 N -0.02459 -0.17784 0.51373
 C199 C 0.00231 0.33230 0.50833
 N200 N 0.03086 0.35130 0.49562
 N201 N 0.03057 0.38483 0.49453
 C202 C 0.00164 0.40059 0.50584
 N203 N -0.02693 0.38160 0.51850
 N204 N -0.02656 0.34806 0.51984
 C205 C 0.00252 0.29537 0.50902
 N206 N -0.02393 0.27608 0.52670
 N207 N -0.02394 0.24259 0.52687
 C208 C 0.00236 0.22719 0.50915
 N209 N 0.02879 0.24648 0.49145
 N210 N 0.02893 0.27995 0.49150
 C211 C 0.00194 0.19035 0.50850
 N212 N 0.02440 0.17554 0.48555
 N213 N 0.02348 0.14220 0.48429
 C214 C 0.00016 0.12239 0.50602
 N215 N -0.02196 0.13718 0.52936
 N216 N -0.02123 0.17056 0.53042
 C217 C 0.49086 0.00528 -0.33315
 N218 N 0.49618 0.03412 -0.35417
 N219 N 0.49766 0.03329 -0.38782
 C220 C 0.49414 0.00356 -0.40173
 N221 N 0.48887 -0.02528 -0.38067
 N222 N 0.48715 -0.02442 -0.34701
 C223 C 0.48967 0.00604 -0.29611
 N224 N 0.47958 -0.02189 -0.27476
 N225 N 0.47905 -0.02145 -0.24120
 C226 C 0.48880 0.00686 -0.22778
 N227 N 0.49888 0.03480 -0.24912
 N228 N 0.49919 0.03443 -0.28267
 C229 C 0.48925 0.00692 -0.19090
 N230 N 0.50462 0.03279 -0.17809
 N231 N 0.50606 0.03223 -0.14477
 C232 C 0.49198 0.00588 -0.12295
 N233 N 0.47630 -0.01981 -0.13580
 N234 N 0.47507 -0.01936 -0.16914
 C235 C 0.50750 -0.00256 0.33269
 N236 N 0.50264 0.02662 0.34794
 N237 N 0.50169 0.02706 0.38153
 C238 C 0.50532 -0.00170 0.40118
 N239 N 0.51013 -0.03095 0.38598
 N240 N 0.51133 -0.03135 0.35229
 C241 C 0.50811 -0.00286 0.29568
 N242 N 0.51820 -0.03034 0.27916
 N243 N 0.51852 -0.03043 0.24556
 C244 C 0.50852 -0.00313 0.22736
 N245 N 0.49837 0.02429 0.24391
 N246 N 0.49829 0.02447 0.27742
 C247 C 0.50823 -0.00321 0.19046
 N248 N 0.49256 0.02141 0.17376
 N249 N 0.49186 0.02131 0.14037
 C250 C 0.50697 -0.00329 0.12232
 N251 N 0.52292 -0.02778 0.13904
 N252 N 0.52340 -0.02784 0.17251
 C253 C 0.50170 -0.33252 0.00237
 N254 N 0.51666 -0.34705 -0.02560
 N255 N 0.51594 -0.38047 -0.02620
 C256 C 0.50061 -0.40054 0.00131
 N257 N 0.48584 -0.38601 0.02936
 N258 N 0.48620 -0.35258 0.02980
 C259 C 0.50219 -0.29572 0.00289
 N260 N 0.47951 -0.28073 0.02549
 N261 N 0.47969 -0.24728 0.02569
 C262 C 0.50285 -0.22766 0.00360
 N263 N 0.52568 -0.24267 -0.01884
 N264 N 0.52523 -0.27609 -0.01932
 C265 C 0.50298 -0.19084 0.00370
 N266 N 0.53093 -0.17178 -0.01078
 N267 N 0.53096 -0.13831 -0.01091
 C268 C 0.50288 -0.12265 0.00300
 N269 N 0.47491 -0.14174 0.01743
 N270 N 0.47502 -0.17524 0.01795
 C271 C 0.49693 0.33404 -0.00241
 N272 N 0.50587 0.35423 -0.03173
 N273 N 0.50612 0.38766 -0.03131
 C274 C 0.49755 0.40211 -0.00153
 N275 N 0.48865 0.38193 0.02781
 N276 N 0.48829 0.34849 0.02736
 C277 C 0.49676 0.29720 -0.00282
 N278 N 0.48549 0.27706 0.02606
 N279 N 0.48547 0.24363 0.02575
 C280 C 0.49683 0.22911 -0.00342
 N281 N 0.50813 0.24924 -0.03231
 N282 N 0.50804 0.28269 -0.03203
 C283 C 0.49710 0.19226 -0.00362
 N284 N 0.51105 0.17765 -0.03193
 N285 N 0.51161 0.14420 -0.03193
 C286 C 0.49810 0.12411 -0.00366
 N287 N 0.48407 0.13878 0.02462
 N288 N 0.48363 0.17222 0.02465
 C289 C -0.33192 -0.00412 0.48887
 N290 N -0.34677 0.02455 0.47878
 N291 N -0.38046 0.02548 0.48077
 C292 C -0.40046 -0.00232 0.49265
 N293 N -0.38558 -0.03105 0.50249
 N294 N -0.35193 -0.03189 0.50078
 C295 C -0.29493 -0.00485 0.48773
 N296 N -0.28084 -0.03053 0.50465
 N297 N -0.24735 -0.03072 0.50455
 C298 C -0.22673 -0.00541 0.48725
 N299 N -0.24078 0.02012 0.47007
 N300 N -0.27430 0.02046 0.47043
 C301 C -0.18999 -0.00512 0.48804
 N302 N -0.16853 0.01649 0.46625
 N303 N -0.13530 0.01736 0.46768
 C304 C -0.12237 -0.00299 0.49129
 N305 N -0.14383 -0.02481 0.51285
 N306 N -0.17701 -0.02590 0.51121
 C307 C 0.33189 0.00434 0.51208
 N308 N 0.35165 0.03243 0.50077
 N309 N 0.38531 0.03189 0.49923
 C310 C 0.40042 0.00315 0.50863
 N311 N 0.38067 -0.02494 0.51991
 N312 N 0.34699 -0.02432 0.52175
 C313 C 0.29492 0.00467 0.51296
 N314 N 0.27452 -0.02096 0.52998
 N315 N 0.24103 -0.02107 0.53004
 C316 C 0.22679 0.00430 0.51283
 N317 N 0.24719 0.02992 0.49581
 N318 N 0.28064 0.03019 0.49601
 C319 C 0.19010 0.00355 0.51176
 N320 N 0.17707 0.02402 0.48838
 N321 N 0.14393 0.02261 0.48660
 C322 C 0.12254 0.00078 0.50824
 N323 N 0.13552 -0.01930 0.53202
 N324 N 0.16873 -0.01812 0.53359
 C325 C -0.01184 0.49734 1.33544
 N326 N -0.03731 0.50993 1.35703
 N327 N -0.03514 0.51064 1.39013
 C328 C -0.00719 0.49928 1.40264
 N329 N 0.01836 0.48694 1.38099
 N330 N 0.01597 0.48577 1.34803
 C331 C -0.01406 0.49626 1.29903
 N332 N 0.00424 0.47394 1.28037
 N333 N 0.00286 0.47323 1.24715
 C334 C -0.01649 0.49513 1.23129
 N335 N -0.03473 0.51756 1.24991
 N336 N -0.03373 0.51794 1.28326
 C337 C -0.01662 0.49518 1.19439
 N338 N -0.02411 0.52342 1.17590
 N339 N -0.02219 0.52398 1.14208
 C340 C -0.01318 0.49618 1.12559
 N341 N -0.00625 0.46780 1.14421
 N342 N -0.00769 0.46738 1.17794
 C343 C 0.01232 0.49616 0.66535
 N344 N 0.03783 0.51060 0.64168
 N345 N 0.03574 0.51120 0.60846
 C346 C 0.00785 0.49783 0.59781
 N347 N -0.01771 0.48359 0.62151
 N348 N -0.01541 0.48257 0.65466
 C349 C 0.01435 0.49545 0.70195
 N350 N -0.00472 0.47252 0.72445
 N351 N -0.00355 0.47219 0.75779
 C352 C 0.01639 0.49506 0.76990
 N353 N 0.03542 0.51808 0.74742
 N354 N 0.03460 0.51812 0.71400
 C355 C 0.01633 0.49547 0.80679
 N356 N 0.02551 0.52394 0.82030
 N357 N 0.02353 0.52475 0.85401
 C358 C 0.01275 0.49700 0.87539
 N359 N 0.00408 0.46841 0.86178
 N360 N 0.00562 0.46772 0.82814
   
