data_POSCAR
  _audit_creation_date              2014-09-24
  _audit_creation_method            'ToBaCCo'
  _symmetry_space_group_name_H-M    'P1'
  _symmetry_Int_Tables_number       1
  _symmetry_cell_setting            triclinic
  loop_
  _symmetry_equiv_pos_as_xyz
 x,y,z
_cell_length_a 57.4121
_cell_length_b 57.1717
_cell_length_c 57.4007
_cell_angle_alpha 89.916100
_cell_angle_beta 90.010200
_cell_angle_gamma 90.070300
loop_
  _atom_site_label
  _atom_site_type_symbol
  _atom_site_fract_x
  _atom_site_fract_y
  _atom_site_fract_z
N1 N 0.59736 0.66207 0.61577
 N2 N 0.58821 0.65248 0.63451
 C3 C 0.56937 0.66493 0.64099
 C4 C 0.56675 0.68315 0.62546
 C5 C 0.58469 0.68092 0.60969
 H6 H 0.55837 0.66110 0.65580
 H7 H 0.58824 0.69216 0.59494
 Cu8 Cu 0.60189 0.62467 0.64850
 Cu9 Cu 0.62499 0.64945 0.60066
 Cu10 Cu 0.64961 0.59989 0.62536
 N11 N 0.61582 0.59686 0.66222
 N12 N 0.63452 0.58727 0.65305
 C13 C 0.64056 0.56838 0.66573
 C14 C 0.62480 0.56616 0.68368
 C15 C 0.60932 0.58439 0.68109
 H16 H 0.65528 0.55715 0.66216
 H17 H 0.59451 0.58821 0.69209
 N18 N 0.66234 0.61524 0.59733
 N19 N 0.65296 0.63412 0.58792
 C20 C 0.66554 0.64037 0.56909
 C21 C 0.68356 0.62469 0.56666
 C22 C 0.68114 0.60900 0.58473
 H23 H 0.66194 0.65519 0.55794
 H24 H 0.69225 0.59418 0.58835
 H25 H 0.62020 0.61526 0.61137
 H26 H 0.63902 0.63410 0.63011
 N27 N 0.90321 0.33728 0.11561
 N28 N 0.91235 0.34687 0.13433
 C29 C 0.93123 0.33447 0.14084
 C30 C 0.93384 0.31629 0.12532
 C31 C 0.91591 0.31846 0.10954
 H32 H 0.94222 0.33833 0.15566
 H33 H 0.91235 0.30725 0.09479
 Cu34 Cu 0.89865 0.37462 0.14829
 Cu35 Cu 0.87555 0.34986 0.10048
 Cu36 Cu 0.85088 0.39936 0.12512
 N37 N 0.88467 0.40237 0.16198
 N38 N 0.86597 0.41196 0.15280
 C39 C 0.85992 0.43080 0.16546
 C40 C 0.87567 0.43303 0.18343
 C41 C 0.89116 0.41481 0.18083
 H42 H 0.84521 0.44204 0.16188
 H43 H 0.90598 0.41099 0.19182
 N44 N 0.83817 0.38403 0.09714
 N45 N 0.84756 0.36517 0.08776
 C46 C 0.83497 0.35892 0.06895
 C47 C 0.81693 0.37458 0.06652
 C48 C 0.81936 0.39027 0.08454
 H49 H 0.83859 0.34411 0.05784
 H50 H 0.80824 0.40507 0.08816
 H51 H 0.88027 0.38402 0.11111
 H52 H 0.86150 0.36515 0.12986
 N53 N 0.40261 0.16233 -0.11543
 N54 N 0.41174 0.15277 -0.13415
 C55 C 0.43066 0.16516 -0.14059
 C56 C 0.43334 0.18333 -0.12506
 C57 C 0.41537 0.18112 -0.10932
 H58 H 0.44162 0.16137 -0.15542
 H59 H 0.41182 0.19238 -0.09462
 Cu60 Cu 0.39783 0.12518 -0.14829
 Cu61 Cu 0.37487 0.14979 -0.10039
 Cu62 Cu 0.35016 0.10024 -0.12503
 N63 N 0.38404 0.09722 -0.16178
 N64 N 0.36534 0.08759 -0.15260
 C65 C 0.35933 0.06868 -0.16522
 C66 C 0.37511 0.06647 -0.18315
 C67 C 0.39058 0.08473 -0.18057
 H68 H 0.34457 0.05744 -0.16169
 H69 H 0.40537 0.08861 -0.19158
 N70 N 0.33740 0.11563 -0.09711
 N71 N 0.34681 0.13450 -0.08773
 C72 C 0.33418 0.14078 -0.06897
 C73 C 0.31612 0.12511 -0.06657
 C74 C 0.31854 0.10941 -0.08456
 H75 H 0.33781 0.15560 -0.05786
 H76 H 0.30738 0.09460 -0.08817
 H77 H 0.37962 0.11562 -0.11110
 H78 H 0.36075 0.13447 -0.12978
 N79 N 0.09679 0.83730 0.38450
 N80 N 0.08762 0.84694 0.36579
 C81 C 0.06875 0.83450 0.35927
 C82 C 0.06615 0.81624 0.37476
 C83 C 0.08411 0.81841 0.39054
 H84 H 0.05777 0.83836 0.34445
 H85 H 0.08769 0.80713 0.40525
 Cu86 Cu 0.10132 0.87477 0.35184
 Cu87 Cu 0.12448 0.84992 0.39960
 Cu88 Cu 0.14911 0.89956 0.37495
 N89 N 0.11528 0.90260 0.33814
 N90 N 0.13400 0.91220 0.34730
 C91 C 0.14006 0.93108 0.33463
 C92 C 0.12429 0.93332 0.31668
 C93 C 0.10880 0.91508 0.31929
 H94 H 0.15479 0.94233 0.33818
 H95 H 0.09398 0.91126 0.30829
 N96 N 0.16185 0.88420 0.40292
 N97 N 0.15248 0.86529 0.41232
 C98 C 0.16510 0.85904 0.43112
 C99 C 0.18311 0.87478 0.43353
 C100 C 0.18066 0.89048 0.41550
 H101 H 0.16150 0.84420 0.44225
 H102 H 0.19176 0.90533 0.41187
 H103 H 0.11972 0.88413 0.38900
 H104 H 0.13847 0.86537 0.37021
 N105 N 0.09657 0.16271 0.11535
 N106 N 0.08720 0.15286 0.13384
 C107 C 0.06832 0.16524 0.14030
 C108 C 0.06591 0.18369 0.12503
 C109 C 0.08401 0.18168 0.10941
 H110 H 0.05720 0.16126 0.15500
 H111 H 0.08778 0.19317 0.09491
 Cu112 Cu 0.10100 0.12509 0.14769
 Cu113 Cu 0.12441 0.15033 0.10037
 Cu114 Cu 0.14906 0.10073 0.12510
 N115 N 0.11481 0.09732 0.16154
 N116 N 0.13374 0.08795 0.15262
 C117 C 0.13989 0.06921 0.16543
 C118 C 0.12396 0.06681 0.18322
 C119 C 0.10827 0.08481 0.18036
 H120 H 0.15482 0.05819 0.16211
 H121 H 0.09333 0.08850 0.19123
 N122 N 0.16191 0.11626 0.09723
 N123 N 0.15254 0.13514 0.08782
 C124 C 0.16517 0.14143 0.06903
 C125 C 0.18320 0.12576 0.06666
 C126 C 0.18074 0.11005 0.08468
 H127 H 0.16154 0.15622 0.05786
 H128 H 0.19182 0.09520 0.08827
 H129 H 0.11981 0.11605 0.11075
 H130 H 0.13827 0.13487 0.12982
 N131 N 0.40274 0.83756 0.61559
 N132 N 0.41193 0.84717 0.63427
 C133 C 0.43076 0.83470 0.64079
 C134 C 0.43333 0.81645 0.62534
 C135 C 0.41537 0.81868 0.60958
 H136 H 0.44178 0.83856 0.65557
 H137 H 0.41180 0.80744 0.59486
 Cu138 Cu 0.39841 0.87511 0.64804
 Cu139 Cu 0.37512 0.85021 0.60042
 Cu140 Cu 0.35048 0.89972 0.62507
 N141 N 0.38428 0.90269 0.66192
 N142 N 0.36554 0.91225 0.65278
 C143 C 0.35944 0.93104 0.66549
 C144 C 0.37520 0.93327 0.68345
 C145 C 0.39074 0.91511 0.68080
 H146 H 0.34470 0.94226 0.66194
 H147 H 0.40558 0.91132 0.69177
 N148 N 0.33779 0.88445 0.59704
 N149 N 0.34717 0.86559 0.58765
 C150 C 0.33459 0.85939 0.56880
 C151 C 0.31659 0.87509 0.56637
 C152 C 0.31901 0.89073 0.58442
 H153 H 0.33820 0.84459 0.55767
 H154 H 0.30789 0.90554 0.58804
 H155 H 0.37985 0.88445 0.61095
 H156 H 0.36121 0.86557 0.62987
 N157 N 0.90325 0.66226 0.38449
 N158 N 0.91265 0.65241 0.36604
 C159 C 0.93154 0.66484 0.35956
 C160 C 0.93394 0.68331 0.37477
 C161 C 0.91582 0.68125 0.39037
 H162 H 0.94267 0.66087 0.34489
 H163 H 0.91205 0.69273 0.40485
 Cu164 Cu 0.89885 0.62459 0.35227
 Cu165 Cu 0.87538 0.64980 0.39947
 Cu166 Cu 0.85075 0.60013 0.37487
 N167 N 0.88506 0.59676 0.33849
 N168 N 0.86611 0.58736 0.34741
 C169 C 0.85999 0.56859 0.33464
 C170 C 0.87596 0.56623 0.31689
 C171 C 0.89164 0.58427 0.31972
 H172 H 0.84505 0.55754 0.33796
 H173 H 0.90659 0.58800 0.30887
 N174 N 0.83783 0.61564 0.40269
 N175 N 0.84721 0.63455 0.41206
 C176 C 0.83455 0.64082 0.43081
 C177 C 0.81650 0.62512 0.43322
 C178 C 0.81898 0.60941 0.41525
 H179 H 0.83818 0.65562 0.44195
 H180 H 0.80789 0.59453 0.41168
 H181 H 0.87997 0.61551 0.38922
 H182 H 0.86155 0.63429 0.37007
 N183 N 0.59750 0.33779 -0.11566
 N184 N 0.58832 0.34743 -0.13436
 C185 C 0.56945 0.33499 -0.14084
 C186 C 0.56683 0.31674 -0.12535
 C187 C 0.58480 0.31893 -0.10960
 H188 H 0.55844 0.33884 -0.15566
 H189 H 0.58837 0.30765 -0.09489
 Cu190 Cu 0.60203 0.37523 -0.14835
 Cu191 Cu 0.62519 0.35036 -0.10060
 Cu192 Cu 0.64990 0.39995 -0.12529
 N193 N 0.61602 0.40304 -0.16205
 N194 N 0.63477 0.41262 -0.15293
 C195 C 0.64083 0.43148 -0.16565
 C196 C 0.62503 0.43372 -0.18359
 C197 C 0.60951 0.41550 -0.18092
 H198 H 0.65558 0.44269 -0.16214
 H199 H 0.59468 0.41167 -0.19190
 N200 N 0.66263 0.38454 -0.09731
 N201 N 0.65320 0.36566 -0.08791
 C202 C 0.66580 0.35936 -0.06912
 C203 C 0.68386 0.37502 -0.06670
 C204 C 0.68146 0.39075 -0.08473
 H205 H 0.66215 0.34451 -0.05800
 H206 H 0.69262 0.40556 -0.08835
 H207 H 0.62051 0.38458 -0.11120
 H208 H 0.63918 0.36578 -0.12999
 C209 C -0.01644 0.26658 0.12565
 C210 C -0.01156 0.25622 0.14985
 C211 C 0.00521 0.23937 0.14983
 C212 C 0.01544 0.23452 0.12561
 C213 C 0.02406 0.25838 0.11681
 C214 C 0.00729 0.27523 0.11683
 C215 C -0.02239 0.24547 0.11024
 C216 C -0.00563 0.22862 0.11022
 C217 C -0.03449 0.28471 0.12564
 C218 C -0.04935 0.29958 0.12554
 C219 C 0.03346 0.21637 0.12553
 C220 C 0.04827 0.20145 0.12535
 H221 H -0.02048 0.26166 0.16561
 H222 H 0.01068 0.23039 0.16558
 H223 H 0.04178 0.26175 0.11111
 H224 H 0.01064 0.29302 0.11110
 H225 H -0.03835 0.24390 0.10022
 H226 H -0.00724 0.21261 0.10019
 C227 C 0.51606 0.73385 0.62572
 C228 C 0.50666 0.73958 0.65008
 C229 C 0.48986 0.75640 0.65007
 C230 C 0.48411 0.76585 0.62570
 C231 C 0.47769 0.74419 0.61129
 C232 C 0.49449 0.72737 0.61129
 C233 C 0.52431 0.75738 0.61576
 C234 C 0.50751 0.77420 0.61575
 C235 C 0.53414 0.71572 0.62571
 C236 C 0.54900 0.70084 0.62564
 C237 C 0.46601 0.78395 0.62566
 C238 C 0.45111 0.79880 0.62555
 H239 H 0.51266 0.73117 0.66595
 H240 H 0.48147 0.76240 0.66592
 H241 H 0.46140 0.74224 0.60188
 H242 H 0.49257 0.71101 0.60190
 H243 H 0.54180 0.76054 0.60928
 H244 H 0.51062 0.79178 0.60924
 C245 C 1.01639 0.76640 0.37430
 C246 C 0.99237 0.77521 0.38208
 C247 C 0.97561 0.75832 0.38203
 C248 C 0.98449 0.73426 0.37422
 C249 C 1.00504 0.72883 0.39046
 C250 C 1.02180 0.74573 0.39050
 C251 C 1.01229 0.75540 0.35026
 C252 C 0.99552 0.73850 0.35022
 C253 C 1.03445 0.78458 0.37438
 C254 C 1.04934 0.79948 0.37452
 C255 C 0.96645 0.71606 0.37425
 C256 C 0.95163 0.70110 0.37443
 H257 H 0.98884 0.79315 0.38715
 H258 H 0.95771 0.76179 0.38703
 H259 H 1.00633 0.71309 0.40098
 H260 H 1.03744 0.74446 0.40107
 H261 H 1.02173 0.76045 0.33465
 H262 H 0.99058 0.72909 0.33456
 C263 C 0.48410 0.23401 -0.12548
 C264 C 0.47638 0.25700 -0.13693
 C265 C 0.49318 0.27385 -0.13696
 C266 C 0.51607 0.26605 -0.12553
 C267 C 0.52313 0.24373 -0.13856
 C268 C 0.50631 0.22688 -0.13855
 C269 C 0.49236 0.24094 -0.10100
 C270 C 0.50918 0.25778 -0.10103
 C271 C 0.46598 0.21591 -0.12544
 C272 C 0.45109 0.20103 -0.12532
 C273 C 0.53415 0.28419 -0.12556
 C274 C 0.54904 0.29907 -0.12552
 H275 H 0.45922 0.25979 -0.14438
 H276 H 0.49041 0.29108 -0.14442
 H277 H 0.53985 0.24137 -0.14707
 H278 H 0.50863 0.21010 -0.14705
 H279 H 0.48560 0.23329 -0.08505
 H280 H 0.51682 0.26456 -0.08511
 C281 C 0.12394 -0.01581 0.26608
 C282 C 0.14839 -0.00726 0.25935
 C283 C 0.14835 0.00961 0.24256
 C284 C 0.12385 0.01627 0.23413
 C285 C 0.11056 0.02323 0.25627
 C286 C 0.11061 0.00636 0.27307
 C287 C 0.11276 -0.02371 0.24310
 C288 C 0.11272 -0.00684 0.22631
 C289 C 0.12399 -0.03399 0.28413
 C290 C 0.12408 -0.04893 0.29896
 C291 C 0.12381 0.03439 0.21603
 C292 C 0.12383 0.04922 0.20108
 H293 H 0.16434 -0.01385 0.26712
 H294 H 0.16425 0.01746 0.23592
 H295 H 0.10189 0.03993 0.25855
 H296 H 0.10201 0.00862 0.28975
 H297 H 0.10554 -0.04102 0.24026
 H298 H 0.10544 -0.00970 0.20909
 C299 C 0.62455 0.51643 -0.26644
 C300 C 0.61382 0.52447 -0.24331
 C301 C 0.61386 0.50764 -0.22646
 C302 C 0.62463 0.48442 -0.23440
 C303 C 0.64906 0.49087 -0.24322
 C304 C 0.64901 0.50769 -0.26006
 C305 C 0.61089 0.49435 -0.27315
 C306 C 0.61093 0.47752 -0.25631
 C307 C 0.62454 0.53455 -0.28457
 C308 C 0.62462 0.54942 -0.29949
 C309 C 0.62469 0.46629 -0.21628
 C310 C 0.62481 0.45141 -0.20137
 H311 H 0.60677 0.54184 -0.24042
 H312 H 0.60688 0.51061 -0.20914
 H313 H 0.66498 0.48291 -0.23681
 H314 H 0.66490 0.51412 -0.26810
 H315 H 0.60197 0.49212 -0.28967
 H316 H 0.60204 0.46089 -0.25841
 C317 C 0.37547 1.01592 0.76608
 C318 C 0.38197 1.02516 0.74182
 C319 C 0.38200 1.00834 0.72502
 C320 C 0.37552 0.98392 0.73414
 C321 C 0.35180 0.98706 0.74607
 C322 C 0.35178 1.00388 0.76286
 C323 C 0.39271 0.99595 0.77084
 C324 C 0.39272 0.97913 0.75404
 C325 C 0.37540 1.03402 0.78416
 C326 C 0.37529 1.04885 0.79906
 C327 C 0.37550 0.96581 0.71606
 C328 C 0.37540 0.95094 0.70120
 H329 H 0.38617 1.04331 0.73816
 H330 H 0.38621 1.01210 0.70696
 H331 H 0.33637 0.97699 0.74168
 H332 H 0.33634 1.00820 0.77288
 H333 H 0.40391 0.99509 0.78606
 H334 H 0.40395 0.96388 0.75485
 C335 C 0.87603 0.48372 0.23408
 C336 C 0.89200 0.47809 0.25478
 C337 C 0.89205 0.49492 0.27157
 C338 C 0.87613 0.51574 0.26601
 C339 C 0.85202 0.50494 0.26167
 C340 C 0.85197 0.48812 0.24488
 C341 C 0.88417 0.50775 0.22529
 C342 C 0.88424 0.52458 0.24208
 C343 C 0.87598 0.46559 0.21602
 C344 C 0.87588 0.45071 0.20117
 C345 C 0.87616 0.53383 0.28412
 C346 C 0.87611 0.54864 0.29905
 H347 H 0.90236 0.46227 0.25613
 H348 H 0.90248 0.49353 0.28728
 H349 H 0.83637 0.51008 0.27095
 H350 H 0.83626 0.47885 0.23977
 H351 H 0.88942 0.51124 0.20745
 H352 H 0.88956 0.54248 0.23863
 C353 C 0.26555 0.12529 -0.01598
 C354 C 0.25755 0.10073 -0.00863
 C355 C 0.24078 0.10084 0.00818
 C356 C 0.23367 0.12550 0.01597
 C357 C 0.22643 0.13815 -0.00649
 C358 C 0.24320 0.13804 -0.02329
 C359 C 0.27323 0.13722 0.00669
 C360 C 0.25647 0.13734 0.02349
 C361 C 0.28360 0.12518 -0.03405
 C362 C 0.29843 0.12513 -0.04890
 C363 C 0.21564 0.12562 0.03406
 C364 C 0.20083 0.12570 0.04893
 H365 H 0.26444 0.08468 -0.01597
 H366 H 0.23331 0.08488 0.01522
 H367 H 0.20962 0.14647 -0.00898
 H368 H 0.24075 0.14626 -0.04018
 H369 H 0.29033 0.14491 0.00932
 H370 H 0.25921 0.14512 0.04052
 C371 C 0.73411 0.62478 0.51597
 C372 C 0.73157 0.60481 0.49829
 C373 C 0.74833 0.60488 0.48147
 C374 C 0.76599 0.62490 0.48397
 C375 C 0.77570 0.62245 0.50878
 C376 C 0.75895 0.62239 0.52560
 C377 C 0.73450 0.64722 0.50126
 C378 C 0.75125 0.64728 0.48444
 C379 C 0.71607 0.62472 0.53408
 C380 C 0.70124 0.62470 0.54895
 C381 C 0.78402 0.62497 0.46585
 C382 C 0.79884 0.62505 0.45096
 H383 H 0.71783 0.59177 0.49893
 H384 H 0.74893 0.59189 0.46771
 H385 H 0.79412 0.62091 0.51278
 H386 H 0.76302 0.62078 0.54400
 H387 H 0.72266 0.66178 0.50383
 H388 H 0.75376 0.66191 0.47261
 C389 C 0.76634 0.37465 0.01590
 C390 C 0.74169 0.37038 0.02537
 C391 C 0.72492 0.37044 0.00857
 C392 C 0.73444 0.37477 -0.01606
 C393 C 0.75311 0.35592 -0.01963
 C394 C 0.76988 0.35586 -0.00283
 C395 C 0.76475 0.39782 0.00243
 C396 C 0.74798 0.39788 -0.01437
 C397 C 0.78440 0.37460 0.03398
 C398 C 0.79925 0.37458 0.04883
 C399 C 0.71639 0.37485 -0.03415
 C400 C 0.70155 0.37494 -0.04901
 H401 H 0.73776 0.36754 0.04366
 H402 H 0.70662 0.36765 0.01246
 H403 H 0.75313 0.34367 -0.03407
 H404 H 0.78428 0.34356 -0.00288
 H405 H 0.77581 0.41285 0.00581
 H406 H 0.74467 0.41296 -0.02539
 C407 C 0.23385 0.87496 0.48402
 C408 C 0.22454 0.88004 0.50856
 C409 C 0.24137 0.88009 0.52530
 C410 C 0.26587 0.87506 0.51586
 C411 C 0.26980 0.89336 0.49666
 C412 C 0.25296 0.89331 0.47992
 C413 C 0.24683 0.85160 0.48623
 C414 C 0.26366 0.85166 0.50297
 C415 C 0.21572 0.87488 0.46600
 C416 C 0.20083 0.87482 0.45119
 C417 C 0.28399 0.87509 0.53388
 C418 C 0.29888 0.87510 0.54870
 H419 H 0.20633 0.88333 0.51245
 H420 H 0.23759 0.88343 0.54352
 H421 H 0.28449 0.90532 0.49626
 H422 H 0.25324 0.90522 0.46517
 H423 H 0.24313 0.83636 0.47558
 H424 H 0.27438 0.83647 0.50666
   
