data_POSCAR
  _audit_creation_date              2014-09-24
  _audit_creation_method            'ToBaCCo'
  _symmetry_space_group_name_H-M    'P1'
  _symmetry_Int_Tables_number       1
  _symmetry_cell_setting            triclinic
  loop_
  _symmetry_equiv_pos_as_xyz
 x,y,z
_cell_length_a 30.5072
_cell_length_b 30.0268
_cell_length_c 60.6262
_cell_angle_alpha 89.511700
_cell_angle_beta 90.246900
_cell_angle_gamma 88.021000
loop_
  _atom_site_label
  _atom_site_type_symbol
  _atom_site_fract_x
  _atom_site_fract_y
  _atom_site_fract_z
C1 C 0.01328 0.59259 1.02143
 C2 C 0.00712 0.61566 1.00133
 C3 C 0.00364 0.59411 0.98097
 C4 C 0.00355 0.54663 0.98086
 C5 C 0.01073 0.52224 1.00091
 C6 C 0.01722 0.54518 1.02103
 C7 C 0.03113 0.52001 1.03960
 C8 C 0.03278 0.47374 1.03939
 C9 C 0.02033 0.44993 1.02063
 C10 C 0.01206 0.47459 1.00077
 C11 C -0.00554 0.52265 0.96161
 C12 C -0.00276 0.47649 0.96134
 C13 C 0.00626 0.45176 0.98063
 C14 C 0.01071 0.40483 0.98024
 C15 C 0.01701 0.38112 0.99993
 C16 C 0.01905 0.40231 1.02054
 H17 H 0.04321 0.53544 1.05433
 H18 H 0.04649 0.45735 1.05386
 H19 H -0.01595 0.53874 0.94643
 H20 H -0.00823 0.46057 0.94571
 H21 H 0.00547 0.65177 1.00151
 H22 H 0.01840 0.34506 0.99895
 C23 C 0.40394 0.00038 0.52109
 C24 C 0.38105 -0.00114 0.50113
 C25 C 0.40262 -0.00033 0.48086
 C26 C 0.44898 0.00100 0.48040
 C27 C 0.47289 0.00293 0.50054
 C28 C 0.45019 0.00326 0.52093
 C29 C 0.47434 0.00642 0.54054
 C30 C 0.51964 0.00973 0.54027
 C31 C 0.54364 0.00705 0.52045
 C32 C 0.51955 0.00490 0.50027
 C33 C 0.47199 0.00147 0.46041
 C34 C 0.51744 0.00269 0.46010
 C35 C 0.54183 0.00506 0.47975
 C36 C 0.58795 0.00713 0.47942
 C37 C 0.61115 0.00976 0.49920
 C38 C 0.59047 0.00899 0.51989
 H39 H 0.45853 0.00709 0.55644
 H40 H 0.53471 0.01572 0.55598
 H41 H 0.45525 0.00097 0.44468
 H42 H 0.53312 0.00197 0.44416
 H43 H 0.34556 -0.00267 0.50136
 H44 H 0.64662 0.01060 0.49826
 C45 C 0.07565 -0.03113 0.27080
 H46 H 0.07625 -0.05742 0.25874
 C47 C 0.10938 -0.02946 0.28641
 H48 H 0.13587 -0.05437 0.28599
 C49 C 0.03954 0.03200 0.28655
 H50 H 0.01170 0.05531 0.28670
 C51 C 0.07254 0.03496 0.30242
 H52 H 0.06987 0.06099 0.31464
 N53 N 0.04165 -0.00062 0.27115
 C54 C -0.02712 -0.08950 0.23385
 H55 H -0.05333 -0.08992 0.24576
 C56 C -0.02279 -0.12387 0.21849
 H57 H -0.04568 -0.15062 0.21888
 C58 C 0.03315 -0.05313 0.21815
 H59 H 0.05436 -0.02499 0.21795
 C60 C 0.03844 -0.08648 0.20244
 H61 H 0.06417 -0.08383 0.19030
 Zn62 Zn -0.00674 -0.00480 0.25176
 N63 N 0.00063 -0.05500 0.23334
 C64 C -0.04084 0.04301 0.21589
 N65 N -0.01184 0.04561 0.23287
 C66 C 0.01471 0.08088 0.23479
 C67 C 0.01297 0.11516 0.21902
 C68 C -0.04310 0.07606 0.19958
 C69 C -0.05679 -0.04222 0.28496
 C70 C -0.09087 -0.04481 0.30013
 C71 C -0.12548 0.02053 0.28313
 C72 C -0.09071 0.02178 0.26821
 N73 N -0.05718 -0.00919 0.26949
 H74 H -0.06121 0.01434 0.21464
 H75 H 0.03814 0.08196 0.24816
 H76 H 0.03501 0.14249 0.22051
 H77 H -0.06567 0.07278 0.18590
 H78 H -0.02932 -0.06594 0.28582
 H79 H -0.08939 -0.07100 0.31252
 H80 H -0.15144 0.04598 0.28210
 H81 H -0.08996 0.04823 0.25603
 C82 C 0.00994 -0.12223 0.20229
 C83 C 0.10792 0.00372 0.30263
 C84 C -0.12555 -0.01277 0.29956
 C85 C -0.01558 0.11246 0.20089
 C86 C -0.03013 0.08557 0.76748
 H87 H -0.05709 0.08513 0.75587
 C88 C -0.02839 0.11977 0.78295
 H89 H -0.05393 0.14571 0.78290
 C90 C 0.03476 0.05126 0.78230
 H91 H 0.05872 0.02384 0.78219
 C92 C 0.03795 0.08483 0.79791
 H93 H 0.06476 0.08298 0.80967
 N94 N 0.00117 0.05218 0.76750
 C95 C 0.04849 -0.03671 0.71570
 H96 H 0.02267 -0.06052 0.71563
 C97 C 0.08225 -0.04015 0.70028
 H98 H 0.08222 -0.06705 0.68850
 C99 C 0.07851 0.02826 0.73066
 H100 H 0.07633 0.05555 0.74213
 C101 C 0.11284 0.02615 0.71548
 H102 H 0.13704 0.05168 0.71571
 Zn103 Zn -0.00249 0.00218 0.74897
 N104 N 0.04721 -0.00292 0.73048
 C105 C -0.05173 0.04054 0.71469
 N106 N -0.05204 0.00767 0.73022
 C107 C -0.08462 -0.02211 0.73087
 C108 C -0.11848 -0.01971 0.71525
 C109 C -0.08471 0.04399 0.69870
 C110 C 0.02367 -0.08258 0.76750
 C111 C 0.02201 -0.11673 0.78328
 C112 C -0.04113 -0.07889 0.79939
 C113 C -0.03845 -0.04574 0.78326
 N114 N -0.00627 -0.04795 0.76784
 H115 H -0.02509 0.06340 0.71440
 H116 H -0.08380 -0.04853 0.74309
 H117 H -0.14364 -0.04426 0.71577
 H118 H -0.08331 0.06999 0.68626
 H119 H 0.04960 -0.08322 0.75543
 H120 H 0.04661 -0.14358 0.78302
 H121 H -0.06665 -0.07597 0.81170
 H122 H -0.06141 -0.01747 0.78333
 C123 C 0.11479 -0.00816 0.69986
 C124 C 0.00582 0.11945 0.79857
 C125 C -0.01032 -0.11474 0.79972
 C126 C -0.11840 0.01325 0.69865
 C127 C 0.01566 -0.32964 0.07752
 N128 N 0.02781 -0.31321 0.05768
 N129 N 0.02710 -0.33849 0.03979
 C130 C 0.01488 -0.38160 0.04091
 N131 N 0.00219 -0.39774 0.06086
 N132 N 0.00259 -0.37234 0.07880
 C133 C 0.01650 -0.30104 0.09704
 N134 N -0.00227 -0.31341 0.11633
 N135 N -0.00217 -0.28640 0.13369
 C136 C 0.01697 -0.24626 0.13240
 N137 N 0.03595 -0.23416 0.11317
 N138 N 0.03561 -0.26097 0.09581
 C139 C 0.01640 -0.21553 0.15112
 N140 N 0.03952 -0.17779 0.15009
 N141 N 0.03799 -0.14871 0.16653
 C142 C 0.01311 -0.15602 0.18464
 N143 N -0.00991 -0.19397 0.18570
 N144 N -0.00821 -0.22324 0.16928
 C145 C 0.00864 0.32073 0.07577
 N146 N 0.01637 0.30327 0.05558
 N147 N 0.02060 0.32973 0.03806
 C148 C 0.01727 0.37491 0.03981
 N149 N 0.00884 0.39205 0.06012
 N150 N 0.00502 0.36566 0.07776
 C151 C 0.00344 0.29110 0.09490
 N152 N 0.00576 0.30671 0.11582
 N153 N 0.00153 0.27924 0.13303
 C154 C -0.00565 0.23534 0.12990
 N155 N -0.00825 0.21990 0.10899
 N156 N -0.00358 0.24721 0.09182
 C157 C -0.00986 0.20455 0.14866
 N158 N -0.02578 0.16346 0.14547
 N159 N -0.02838 0.13467 0.16219
 C160 C -0.01482 0.14566 0.18274
 N161 N 0.00107 0.18687 0.18594
 N162 N 0.00330 0.21587 0.16923
 C163 C 0.32599 -0.00566 0.57771
 N164 N 0.32457 -0.03775 0.56213
 N165 N 0.34990 -0.03598 0.54434
 C166 C 0.37786 -0.00222 0.54153
 N167 N 0.37902 0.03017 0.55701
 N168 N 0.35363 0.02840 0.57482
 C169 C 0.29701 -0.00732 0.59696
 N170 N 0.29694 0.02526 0.61236
 N171 N 0.26958 0.02416 0.62943
 C172 C 0.24135 -0.00957 0.63171
 N173 N 0.24162 -0.04222 0.61637
 N174 N 0.26894 -0.04112 0.59932
 C175 C 0.20992 -0.01009 0.64998
 N176 N 0.18067 -0.04299 0.65156
 N177 N 0.15094 -0.04269 0.66758
 C178 C 0.14926 -0.00952 0.68269
 N179 N 0.17883 0.02321 0.68117
 N180 N 0.20857 0.02295 0.66513
 C181 C -0.32660 0.00937 0.57422
 N182 N -0.36606 -0.00994 0.57561
 N183 N -0.39299 -0.01001 0.55823
 C184 C -0.38185 0.00940 0.53878
 N185 N -0.34172 0.02766 0.53744
 N186 N -0.31485 0.02795 0.55478
 C187 C -0.29690 0.01049 0.59332
 N188 N -0.25976 0.03399 0.59220
 N189 N -0.23254 0.03528 0.60939
 C190 C -0.24134 0.01299 0.62833
 N191 N -0.27849 -0.01058 0.62949
 N192 N -0.30586 -0.01171 0.61230
 C193 C -0.21058 0.01399 0.64701
 N194 N -0.21601 -0.01211 0.66513
 N195 N -0.18708 -0.01199 0.68167
 C196 C -0.15176 0.01436 0.68079
 N197 N -0.14669 0.04067 0.66271
 N198 N -0.17547 0.04044 0.64614
 C199 C -0.00156 -0.32404 0.92559
 N200 N -0.01693 -0.30943 0.94527
 N201 N -0.01529 -0.33598 0.96295
 C202 C 0.00115 -0.37859 0.96173
 N203 N 0.01726 -0.39274 0.94201
 N204 N 0.01585 -0.36612 0.92428
 C205 C -0.00377 -0.29444 0.90618
 N206 N 0.01641 -0.30601 0.88704
 N207 N 0.01460 -0.27853 0.86963
 C208 C -0.00771 -0.23867 0.87073
 N209 N -0.02803 -0.22729 0.88983
 N210 N -0.02602 -0.25461 0.90724
 C211 C -0.00935 -0.20771 0.85184
 N212 N -0.03511 -0.17003 0.85262
 N213 N -0.03587 -0.14100 0.83590
 C214 C -0.01079 -0.14835 0.81775
 N215 N 0.01490 -0.18622 0.81696
 N216 N 0.01552 -0.21542 0.83366
 C217 C 0.00965 0.32739 0.92306
 N218 N -0.02531 0.35473 0.92794
 N219 N -0.02502 0.37985 0.94597
 C220 C 0.01038 0.37873 0.95967
 N221 N 0.04505 0.35103 0.95489
 N222 N 0.04475 0.32595 0.93690
 C223 C 0.00948 0.29891 0.90349
 N224 N 0.04428 0.27092 0.89933
 N225 N 0.04411 0.24415 0.88195
 C226 C 0.00915 0.24438 0.86803
 N227 N -0.02564 0.27252 0.87209
 N228 N -0.02548 0.29933 0.88952
 C229 C 0.00874 0.21349 0.84938
 N230 N -0.02593 0.21296 0.83527
 N231 N -0.02662 0.18363 0.81890
 C232 C 0.00728 0.15367 0.81602
 N233 N 0.04201 0.15456 0.83009
 N234 N 0.04275 0.18388 0.84641
 C235 C -0.33507 -0.00175 0.42243
 N236 N -0.32960 -0.03178 0.43914
 N237 N -0.35448 -0.02901 0.45708
 C238 C -0.38601 0.00371 0.45895
 N239 N -0.39136 0.03403 0.44230
 N240 N -0.36637 0.03128 0.42433
 C241 C -0.30660 -0.00465 0.40297
 N242 N -0.30973 0.02639 0.38656
 N243 N -0.28275 0.02411 0.36932
 C244 C -0.25177 -0.00934 0.36788
 N245 N -0.24889 -0.04045 0.38423
 N246 N -0.27578 -0.03815 0.40144
 C247 C -0.22064 -0.01117 0.34947
 N248 N -0.18916 -0.04415 0.34869
 N249 N -0.15954 -0.04502 0.33263
 C250 C -0.16016 -0.01298 0.31667
 N251 N -0.19199 0.01982 0.31736
 N252 N -0.22166 0.02072 0.33345
 C253 C 0.32090 0.00278 0.42508
 N254 N 0.35351 -0.02898 0.42713
 N255 N 0.37997 -0.02989 0.44472
 C256 C 0.37489 0.00110 0.46079
 N257 N 0.34200 0.03249 0.45880
 N258 N 0.31562 0.03341 0.44125
 C259 C 0.29106 0.00375 0.40599
 N260 N 0.25865 0.03574 0.40434
 N261 N 0.23082 0.03644 0.38736
 C262 C 0.23432 0.00517 0.37138
 N263 N 0.26684 -0.02679 0.37297
 N264 N 0.29474 -0.02747 0.38997
 C265 C 0.20263 0.00546 0.35307
 N266 N 0.20489 -0.02629 0.33728
 N267 N 0.17517 -0.02656 0.32110
 C268 C 0.14204 0.00488 0.32009
 N269 N 0.14008 0.03673 0.33586
 N270 N 0.16976 0.03703 0.35202
   
