data_POSCAR
  _audit_creation_date              2014-09-24
  _audit_creation_method            'ToBaCCo'
  _symmetry_space_group_name_H-M    'P1'
  _symmetry_Int_Tables_number       1
  _symmetry_cell_setting            triclinic
  loop_
  _symmetry_equiv_pos_as_xyz
 x,y,z
_cell_length_a 61.5716
_cell_length_b 61.5038
_cell_length_c 36.0563
_cell_angle_alpha 89.998800
_cell_angle_beta 89.907100
_cell_angle_gamma 89.998800
loop_
  _atom_site_label
  _atom_site_type_symbol
  _atom_site_fract_x
  _atom_site_fract_y
  _atom_site_fract_z
C1 C -0.00074 0.26604 -0.01774
 C2 C -0.00035 0.26602 0.02009
 C3 C -0.02066 0.26693 0.04236
 C4 C 0.02036 0.26447 0.04102
 C5 C 0.01957 0.26696 -0.04000
 C6 C -0.02144 0.26451 -0.03868
 C7 C -0.03597 0.28358 0.03685
 C8 C -0.05551 0.28359 0.05665
 C9 C -0.05984 0.26710 0.08248
 C10 C -0.04434 0.25083 0.08884
 C11 C -0.02483 0.25081 0.06900
 C12 C 0.02548 0.28023 0.06778
 C13 C 0.04513 0.27915 0.08709
 C14 C 0.05974 0.26219 0.08005
 C15 C 0.05453 0.24618 0.05395
 C16 C 0.03488 0.24723 0.03466
 C17 C 0.02373 0.25087 -0.06670
 C18 C 0.04323 0.25092 -0.08656
 C19 C 0.05870 0.26716 -0.08015
 C20 C 0.05442 0.28361 -0.05430
 C21 C 0.03489 0.28359 -0.03445
 C22 C -0.03599 0.24728 -0.03236
 C23 C -0.05560 0.24623 -0.05174
 C24 C -0.06077 0.26223 -0.07789
 C25 C -0.04614 0.27918 -0.08488
 C26 C -0.02653 0.28027 -0.06548
 H27 H -0.03288 0.29637 0.01688
 H28 H -0.06729 0.29635 0.05147
 H29 H -0.04740 0.23796 0.10873
 H30 H -0.01319 0.23790 0.07375
 H31 H 0.01442 0.29354 0.07326
 H32 H 0.04898 0.29159 0.10731
 H33 H 0.03103 0.23467 0.01467
 H34 H 0.01209 0.23797 -0.07150
 H35 H 0.04638 0.23813 -0.10652
 H36 H 0.06626 0.29629 -0.04921
 H37 H 0.03183 0.29636 -0.01444
 H38 H -0.03217 0.23472 -0.01235
 H39 H -0.06675 0.23298 -0.04627
 H40 H -0.04995 0.29161 -0.10515
 H41 H -0.01545 0.29357 -0.07093
 H42 H 0.06567 0.23293 0.04843
 C43 C 0.49969 0.76795 0.48150
 C44 C 0.50022 0.76798 0.51933
 C45 C 0.47999 0.76894 0.54178
 C46 C 0.52099 0.76639 0.54006
 C47 C 0.51992 0.76888 0.45904
 C48 C 0.47892 0.76636 0.46077
 C49 C 0.46466 0.78558 0.53630
 C50 C 0.44518 0.78561 0.55627
 C51 C 0.44096 0.76917 0.58218
 C52 C 0.45644 0.75294 0.58853
 C53 C 0.47590 0.75287 0.56856
 C54 C 0.52620 0.78211 0.56685
 C55 C 0.54587 0.78095 0.58608
 C56 C 0.56043 0.76396 0.57893
 C57 C 0.55514 0.74800 0.55276
 C58 C 0.53548 0.74913 0.53356
 C59 C 0.52399 0.75278 0.43230
 C60 C 0.54344 0.75283 0.41229
 C61 C 0.55893 0.76907 0.41857
 C62 C 0.55473 0.78553 0.44445
 C63 C 0.53526 0.78552 0.46446
 C64 C 0.46442 0.74911 0.46733
 C65 C 0.44477 0.74797 0.44810
 C66 C 0.43950 0.76389 0.42186
 C67 C 0.45407 0.78086 0.41466
 C68 C 0.47373 0.78204 0.43391
 H69 H 0.46768 0.79833 0.51623
 H70 H 0.43332 0.79828 0.55122
 H71 H 0.45333 0.74016 0.60853
 H72 H 0.48754 0.73997 0.57329
 H73 H 0.51517 0.79544 0.57244
 H74 H 0.54977 0.79334 0.60635
 H75 H 0.53156 0.73660 0.51355
 H76 H 0.51234 0.73988 0.42761
 H77 H 0.54653 0.74004 0.39232
 H78 H 0.56659 0.79820 0.44944
 H79 H 0.53225 0.79829 0.48449
 H80 H 0.46833 0.73661 0.48739
 H81 H 0.43367 0.73470 0.45374
 H82 H 0.45018 0.79322 0.39432
 H83 H 0.48477 0.79535 0.42827
 H84 H 0.56624 0.73472 0.54717
 C85 C 1.00055 0.73306 -0.01957
 C86 C 1.00007 0.73302 0.01826
 C87 C 1.02032 0.73206 0.04056
 C88 C 0.97931 0.73458 0.03915
 C89 C 0.98030 0.73215 -0.04187
 C90 C 1.02131 0.73468 -0.04045
 C91 C 1.03567 0.71545 0.03493
 C92 C 1.05515 0.71541 0.05481
 C93 C 1.05934 0.73180 0.08078
 C94 C 1.04384 0.74802 0.08726
 C95 C 1.02439 0.74810 0.06737
 C96 C 0.97412 0.71883 0.06593
 C97 C 0.95446 0.71996 0.08529
 C98 C 0.93990 0.73695 0.07828
 C99 C 0.94517 0.75294 0.05214
 C100 C 0.96483 0.75185 0.03281
 C101 C 0.97620 0.74828 -0.06853
 C102 C 0.95673 0.74826 -0.08837
 C103 C 0.94124 0.73202 -0.08199
 C104 C 0.94546 0.71554 -0.05620
 C105 C 0.96496 0.71552 -0.03637
 C106 C 1.03578 0.75194 -0.03400
 C107 C 1.05545 0.75308 -0.05328
 C108 C 1.06076 0.73713 -0.07951
 C109 C 1.04618 0.72014 -0.08663
 C110 C 1.02651 0.71898 -0.06731
 H111 H 1.03266 0.70272 0.01484
 H112 H 1.06701 0.70275 0.04967
 H113 H 1.04693 0.76077 0.10731
 H114 H 1.01273 0.76098 0.07223
 H115 H 0.98516 0.70550 0.07141
 H116 H 0.95057 0.70754 0.10554
 H117 H 0.96873 0.76440 0.01282
 H118 H 0.98785 0.76118 -0.07329
 H119 H 0.95362 0.76108 -0.10828
 H120 H 0.93361 0.70287 -0.05114
 H121 H 0.96798 0.70273 -0.01640
 H122 H 1.03186 0.76445 -0.01394
 H123 H 1.06652 0.76639 -0.04763
 H124 H 1.05004 0.70773 -0.10693
 H125 H 1.01548 0.70566 -0.07285
 H126 H 0.93406 0.76622 0.04665
 C127 C 0.50032 0.23296 0.48038
 C128 C 0.49977 0.23291 0.51821
 C129 C 0.51999 0.23193 0.54058
 C130 C 0.47898 0.23442 0.53904
 C131 C 0.48010 0.23202 0.45800
 C132 C 0.52111 0.23455 0.45957
 C133 C 0.53532 0.21529 0.53505
 C134 C 0.55478 0.21524 0.55499
 C135 C 0.55898 0.23166 0.58091
 C136 C 0.54350 0.24790 0.58730
 C137 C 0.52407 0.24800 0.56736
 C138 C 0.47380 0.21866 0.56580
 C139 C 0.45412 0.21975 0.58512
 C140 C 0.43952 0.23671 0.57809
 C141 C 0.44478 0.25271 0.55195
 C142 C 0.46446 0.25165 0.53265
 C143 C 0.47600 0.24814 0.43134
 C144 C 0.45656 0.24808 0.41142
 C145 C 0.44110 0.23181 0.41771
 C146 C 0.44533 0.21533 0.44350
 C147 C 0.46479 0.21535 0.46342
 C148 C 0.53562 0.25177 0.46610
 C149 C 0.55532 0.25288 0.44687
 C150 C 0.56061 0.23694 0.42065
 C151 C 0.54602 0.21999 0.41346
 C152 C 0.52632 0.21885 0.43271
 H153 H 0.53231 0.20255 0.51499
 H154 H 0.56662 0.20255 0.54992
 H155 H 0.54659 0.26067 0.60731
 H156 H 0.51242 0.26090 0.57214
 H157 H 0.48486 0.20535 0.57130
 H158 H 0.45024 0.20732 0.60537
 H159 H 0.46835 0.26421 0.51267
 H160 H 0.48763 0.26107 0.42665
 H161 H 0.45345 0.26090 0.39151
 H162 H 0.43349 0.20262 0.44849
 H163 H 0.46782 0.20255 0.48339
 H164 H 0.53170 0.26428 0.48616
 H165 H 0.56643 0.26613 0.45250
 H166 H 0.54992 0.20761 0.39314
 H167 H 0.51528 0.20555 0.42710
 H168 H 0.43366 0.26597 0.54645
 C169 C 0.73354 -0.00046 -0.01977
 C170 C 0.73358 -0.00012 0.01806
 C171 C 0.73270 -0.02047 0.04023
 C172 C 0.73516 0.02059 0.03909
 C173 C 0.73259 0.01990 -0.04192
 C174 C 0.73510 -0.02116 -0.04082
 C175 C 0.71611 -0.03583 0.03470
 C176 C 0.71611 -0.05539 0.05449
 C177 C 0.73257 -0.05967 0.08028
 C178 C 0.74879 -0.04415 0.08664
 C179 C 0.74881 -0.02463 0.06683
 C180 C 0.71945 0.02569 0.06599
 C181 C 0.72057 0.04532 0.08544
 C182 C 0.73752 0.05994 0.07840
 C183 C 0.75348 0.05475 0.05215
 C184 C 0.75238 0.03512 0.03273
 C185 C 0.74864 0.02407 -0.06871
 C186 C 0.74857 0.04361 -0.08848
 C187 C 0.73235 0.05912 -0.08190
 C188 C 0.71595 0.05481 -0.05594
 C189 C 0.71599 0.03524 -0.03619
 C190 C 0.75236 -0.03567 -0.03465
 C191 C 0.75344 -0.05531 -0.05406
 C192 C 0.73743 -0.06054 -0.08015
 C193 C 0.72045 -0.04592 -0.08699
 C194 C 0.71935 -0.02628 -0.06754
 H195 H 0.70333 -0.03276 0.01477
 H196 H 0.70341 -0.06721 0.04937
 H197 H 0.76161 -0.04723 0.10653
 H198 H 0.76168 -0.01296 0.07160
 H199 H 0.70614 0.01461 0.07147
 H200 H 0.70818 0.04915 0.10577
 H201 H 0.76490 0.03128 0.01264
 H202 H 0.76151 0.01242 -0.07364
 H203 H 0.76135 0.04671 -0.10850
 H204 H 0.70325 0.06662 -0.05065
 H205 H 0.70326 0.03215 -0.01611
 H206 H 0.76491 -0.03181 -0.01470
 H207 H 0.76674 -0.06640 -0.04862
 H208 H 0.70798 -0.04971 -0.10718
 H209 H 0.70602 -0.01522 -0.07287
 H210 H 0.76672 0.06589 0.04664
 C211 C 0.23266 0.49965 0.48181
 C212 C 0.23264 0.50026 0.51963
 C213 C 0.23166 0.48007 0.54216
 C214 C 0.23421 0.52111 0.54029
 C215 C 0.23175 0.51985 0.45928
 C216 C 0.23420 0.47879 0.46114
 C217 C 0.21502 0.46474 0.53682
 C218 C 0.21499 0.44526 0.55681
 C219 C 0.23144 0.44105 0.58261
 C220 C 0.24768 0.45654 0.58884
 C221 C 0.24775 0.47599 0.56884
 C222 C 0.21851 0.52637 0.56712
 C223 C 0.21966 0.54609 0.58630
 C224 C 0.23662 0.56066 0.57908
 C225 C 0.25256 0.55534 0.55287
 C226 C 0.25144 0.53562 0.53371
 C227 C 0.24788 0.52388 0.43256
 C228 C 0.24786 0.54332 0.41253
 C229 C 0.23164 0.55884 0.41878
 C230 C 0.21516 0.55467 0.44462
 C231 C 0.21513 0.53521 0.46465
 C232 C 0.25139 0.46425 0.46768
 C233 C 0.25249 0.44453 0.44848
 C234 C 0.23657 0.43926 0.42230
 C235 C 0.21965 0.45387 0.41513
 C236 C 0.21852 0.47358 0.43433
 H237 H 0.20226 0.46775 0.51683
 H238 H 0.20232 0.43340 0.55186
 H239 H 0.26047 0.45344 0.60874
 H240 H 0.26066 0.48764 0.57346
 H241 H 0.20520 0.51533 0.57278
 H242 H 0.20728 0.55002 0.60661
 H243 H 0.26395 0.53167 0.51368
 H244 H 0.26077 0.51220 0.42792
 H245 H 0.26068 0.54639 0.39259
 H246 H 0.20250 0.56656 0.44959
 H247 H 0.20235 0.53223 0.48467
 H248 H 0.26389 0.46816 0.48768
 H249 H 0.26572 0.43340 0.45410
 H250 H 0.20729 0.44998 0.39483
 H251 H 0.20525 0.48466 0.42871
 H252 H 0.26582 0.56644 0.54722
 C253 C 0.26640 1.00048 -0.01939
 C254 C 0.26642 1.00015 0.01844
 C255 C 0.26733 1.02050 0.04059
 C256 C 0.26490 0.97945 0.03950
 C257 C 0.26728 0.98012 -0.04154
 C258 C 0.26485 1.02118 -0.04044
 C259 C 0.28392 1.03586 0.03489
 C260 C 0.28395 1.05542 0.05468
 C261 C 0.26754 1.05970 0.08065
 C262 C 0.25133 1.04418 0.08718
 C263 C 0.25128 1.02465 0.06737
 C264 C 0.28068 0.97434 0.06617
 C265 C 0.27962 0.95471 0.08563
 C266 C 0.26265 0.94009 0.07882
 C267 C 0.24662 0.94528 0.05280
 C268 C 0.24765 0.96491 0.03336
 C269 C 0.25116 0.97595 -0.06811
 C270 C 0.25116 0.95640 -0.08785
 C271 C 0.26738 0.94088 -0.08146
 C272 C 0.28385 0.94519 -0.05571
 C273 C 0.28388 0.96477 -0.03600
 C274 C 0.24763 1.03573 -0.03414
 C275 C 0.24657 1.05536 -0.05355
 C276 C 0.26258 1.06057 -0.07974
 C277 C 0.27953 1.04592 -0.08671
 C278 C 0.28061 1.02628 -0.06727
 H279 H 0.29667 1.03280 0.01483
 H280 H 0.29664 1.06724 0.04943
 H281 H 0.23854 1.04725 0.10721
 H282 H 0.23841 1.01299 0.07227
 H283 H 0.29400 0.98542 0.07147
 H284 H 0.29207 0.95087 0.10579
 H285 H 0.23508 0.96875 0.01344
 H286 H 0.23829 0.98761 -0.07289
 H287 H 0.23832 0.95330 -0.10770
 H288 H 0.29655 0.93336 -0.05057
 H289 H 0.29666 0.96785 -0.01609
 H290 H 0.23508 1.03188 -0.01410
 H291 H 0.23329 1.06648 -0.04801
 H292 H 0.29199 1.04969 -0.10698
 H293 H 0.29391 1.01519 -0.07269
 H294 H 0.23336 0.93413 0.04746
 C295 C 0.76733 0.50035 0.48128
 C296 C 0.76730 0.49974 0.51911
 C297 C 0.76822 0.51994 0.54162
 C298 C 0.76572 0.47889 0.53978
 C299 C 0.76834 0.48015 0.45876
 C300 C 0.76577 0.52120 0.46062
 C301 C 0.78486 0.53528 0.53625
 C302 C 0.78485 0.55475 0.55625
 C303 C 0.76837 0.55895 0.58207
 C304 C 0.75213 0.54345 0.58833
 C305 C 0.75210 0.52400 0.56833
 C306 C 0.78138 0.47366 0.56662
 C307 C 0.78022 0.45394 0.58581
 C308 C 0.76331 0.43934 0.57858
 C309 C 0.74741 0.44463 0.55236
 C310 C 0.74853 0.46435 0.53319
 C311 C 0.75230 0.47608 0.43202
 C312 C 0.75241 0.45665 0.41197
 C313 C 0.76866 0.44117 0.41823
 C314 C 0.78506 0.44537 0.44410
 C315 C 0.78499 0.46483 0.46414
 C316 C 0.74854 0.53570 0.46720
 C317 C 0.74741 0.55542 0.44801
 C318 C 0.76335 0.56073 0.42178
 C319 C 0.78031 0.54616 0.41456
 C320 C 0.78147 0.52645 0.43377
 H321 H 0.79765 0.53228 0.51624
 H322 H 0.79752 0.56662 0.55127
 H323 H 0.73931 0.54654 0.60826
 H324 H 0.73919 0.51234 0.57298
 H325 H 0.79465 0.48473 0.57228
 H326 H 0.79257 0.45004 0.60613
 H327 H 0.73605 0.46828 0.51315
 H328 H 0.73938 0.48772 0.42735
 H329 H 0.73965 0.45355 0.39200
 H330 H 0.79775 0.43352 0.44908
 H331 H 0.79772 0.46784 0.48419
 H332 H 0.73603 0.53176 0.48724
 H333 H 0.73415 0.56652 0.45365
 H334 H 0.79268 0.55008 0.39424
 H335 H 0.79477 0.51541 0.42812
 H336 H 0.73418 0.43351 0.54670
 O337 O 0.23150 0.26030 0.20362
 O338 O 0.28485 0.25380 0.24837
 O339 O 0.26155 0.23057 0.20308
 O340 O 0.25496 0.28370 0.24885
 O341 O 0.23921 0.26762 0.29670
 O342 O 0.24579 0.21446 0.25091
 O343 O 0.26908 0.23770 0.29620
 O344 O 0.21576 0.24421 0.25147
 Cu345 Cu 0.25978 0.25874 0.22115
 Cu346 Cu 0.24085 0.23940 0.27865
 C347 C 0.21464 0.25323 0.21990
 C348 C 0.28596 0.24465 0.27984
 C349 C 0.25478 0.21355 0.21926
 C350 C 0.24610 0.28462 0.28060
 O351 O 0.75420 0.78554 0.25048
 O352 O 0.76062 0.73236 0.29623
 O353 O 0.78411 0.75567 0.25077
 O354 O 0.73088 0.76241 0.29600
 O355 O 0.71498 0.74636 0.24833
 O356 O 0.76824 0.73963 0.20308
 O357 O 0.74474 0.71633 0.24854
 O358 O 0.73831 0.76949 0.20281
 Cu359 Cu 0.75908 0.76059 0.27818
 Cu360 Cu 0.73999 0.74131 0.22088
 C361 C 0.74517 0.78648 0.21891
 C362 C 0.75365 0.71539 0.28020
 C363 C 0.78515 0.74664 0.21920
 C364 C 0.71395 0.75553 0.27980
 O365 O 0.78568 0.24569 0.25080
 O366 O 0.73238 0.23932 0.29609
 O367 O 0.75581 0.21578 0.25092
 O368 O 0.76240 0.26908 0.29600
 O369 O 0.74658 0.28499 0.24812
 O370 O 0.73999 0.23167 0.20303
 O371 O 0.71657 0.25521 0.24820
 O372 O 0.76985 0.26159 0.20292
 Cu373 Cu 0.76064 0.24084 0.27829
 Cu374 Cu 0.74162 0.25995 0.22074
 C375 C 0.78675 0.25472 0.21921
 C376 C 0.71549 0.24631 0.27988
 C377 C 0.74691 0.21474 0.21927
 C378 C 0.75561 0.28602 0.27967
 O379 O 0.26075 0.76844 0.20381
 O380 O 0.25426 0.71511 0.24896
 O381 O 0.23106 0.73835 0.20360
 O382 O 0.28414 0.74502 0.24912
 O383 O 0.26808 0.76087 0.29691
 O384 O 0.21498 0.75420 0.25136
 O385 O 0.23819 0.73097 0.29673
 O386 O 0.24469 0.78428 0.25159
 Cu387 Cu 0.25921 0.74016 0.22155
 Cu388 Cu 0.23989 0.75921 0.27897
 C389 C 0.25369 0.78534 0.21998
 C390 C 0.24512 0.71405 0.28046
 C391 C 0.21407 0.74515 0.21979
 C392 C 0.28506 0.75395 0.28079
 O393 O 0.76057 0.26756 0.70350
 O394 O 0.75398 0.21429 0.74888
 O395 O 0.73077 0.23757 0.70352
 O396 O 0.78392 0.24413 0.74886
 O397 O 0.76796 0.26007 0.79664
 O398 O 0.71479 0.25352 0.75129
 O399 O 0.73801 0.23025 0.79665
 O400 O 0.74460 0.28350 0.75129
 Cu401 Cu 0.75895 0.23930 0.72137
 Cu402 Cu 0.73975 0.25847 0.77878
 C403 C 0.75358 0.28451 0.71964
 C404 C 0.74489 0.21328 0.78043
 C405 C 0.71382 0.24444 0.71975
 C406 C 0.78490 0.25308 0.78050
 O407 O 0.28473 0.74653 0.75200
 O408 O 0.23142 0.73985 0.79712
 O409 O 0.25497 0.71649 0.75183
 O410 O 0.26134 0.76972 0.79734
 O411 O 0.24550 0.78569 0.74954
 O412 O 0.23914 0.73244 0.70402
 O413 O 0.21559 0.75581 0.74930
 O414 O 0.26887 0.76249 0.70421
 Cu415 Cu 0.25969 0.74151 0.77939
 Cu416 Cu 0.24065 0.76069 0.72194
 C417 C 0.28579 0.75565 0.72049
 C418 C 0.21453 0.74683 0.78092
 C419 C 0.24610 0.71549 0.72015
 C420 C 0.25451 0.78669 0.78112
 O421 O 0.25394 0.28459 0.75182
 O422 O 0.26053 0.23121 0.79671
 O423 O 0.28391 0.25477 0.75147
 O424 O 0.23073 0.26119 0.79706
 O425 O 0.21478 0.24536 0.74922
 O426 O 0.26799 0.23895 0.70362
 O427 O 0.24460 0.21540 0.74886
 O428 O 0.23801 0.26876 0.70398
 Cu429 Cu 0.25892 0.25951 0.77909
 Cu430 Cu 0.23976 0.24049 0.72159
 C431 C 0.24485 0.28568 0.72033
 C432 C 0.25355 0.21431 0.78046
 C433 C 0.28491 0.24590 0.71975
 C434 C 0.21378 0.25436 0.78084
 O435 O 0.73197 0.76115 0.70329
 O436 O 0.78519 0.75457 0.74848
 O437 O 0.76188 0.73127 0.70338
 O438 O 0.75545 0.78462 0.74838
 O439 O 0.73951 0.76882 0.79633
 O440 O 0.74593 0.71545 0.75132
 O441 O 0.76923 0.73877 0.79642
 O442 O 0.71604 0.74535 0.75124
 Cu443 Cu 0.76020 0.75953 0.72104
 Cu444 Cu 0.74104 0.74053 0.77867
 C445 C 0.71504 0.75424 0.71955
 C446 C 0.78618 0.74555 0.78007
 C447 C 0.75500 0.71436 0.71976
 C448 C 0.74652 0.78572 0.78005
 C449 C 0.26431 0.11735 0.13369
 C450 C 0.28007 0.11996 0.16634
 C451 C 0.27834 0.13951 0.18393
 C452 C 0.26102 0.15451 0.16714
 C453 C 0.23997 0.14115 0.16773
 C454 C 0.24170 0.12162 0.15016
 C455 C 0.26883 0.13690 0.10838
 C456 C 0.26710 0.15644 0.12596
 C457 C 0.26598 0.09634 0.11467
 C458 C 0.26693 0.07910 0.09881
 C459 C 0.25904 0.17556 0.18598
 C460 C 0.25719 0.19289 0.20128
 H461 H 0.29157 0.10756 0.17487
 H462 H 0.28837 0.14385 0.20754
 H463 H 0.22502 0.14655 0.18082
 H464 H 0.22823 0.11029 0.14820
 H465 H 0.27303 0.13553 0.07922
 H466 H 0.26982 0.17180 0.11186
 C467 C 0.76480 0.61776 0.63573
 C468 C 0.78004 0.62032 0.66910
 C469 C 0.77823 0.63995 0.68641
 C470 C 0.76136 0.65507 0.66862
 C471 C 0.74017 0.64194 0.66833
 C472 C 0.74198 0.62233 0.65105
 C473 C 0.76995 0.63718 0.61045
 C474 C 0.76814 0.65679 0.62774
 C475 C 0.76658 0.59669 0.61699
 C476 C 0.76763 0.57943 0.60126
 C477 C 0.75930 0.67620 0.68712
 C478 C 0.75741 0.69361 0.70213
 H479 H 0.79126 0.60783 0.67832
 H480 H 0.78790 0.64428 0.71045
 H481 H 0.72506 0.64754 0.68064
 H482 H 0.72842 0.61113 0.64855
 H483 H 0.77462 0.63565 0.58152
 H484 H 0.77126 0.67207 0.61362
 C485 C 0.73581 0.88268 0.13333
 C486 C 0.74674 0.86500 0.10975
 C487 C 0.74844 0.84548 0.12733
 C488 C 0.73905 0.84552 0.16679
 C489 C 0.71554 0.85344 0.16244
 C490 C 0.71384 0.87298 0.14483
 C491 C 0.74916 0.88363 0.16922
 C492 C 0.75086 0.86410 0.18681
 C493 C 0.73415 0.90369 0.11430
 C494 C 0.73319 0.92092 0.09844
 C495 C 0.74101 0.82448 0.18564
 C496 C 0.74282 0.80714 0.20094
 H497 H 0.75261 0.86759 0.08168
 H498 H 0.75577 0.83134 0.11433
 H499 H 0.70148 0.84448 0.17231
 H500 H 0.69832 0.88078 0.13962
 H501 H 0.75660 0.89835 0.17989
 H502 H 0.75977 0.86209 0.21255
 C503 C 0.23497 0.38224 0.63628
 C504 C 0.24456 0.36434 0.61154
 C505 C 0.24637 0.34474 0.62884
 C506 C 0.23843 0.34495 0.66920
 C507 C 0.21501 0.35348 0.66735
 C508 C 0.21319 0.37310 0.65003
 C509 C 0.24960 0.38277 0.67070
 C510 C 0.25141 0.36316 0.68801
 C511 C 0.23319 0.40331 0.61752
 C512 C 0.23214 0.42057 0.60179
 C513 C 0.24050 0.32383 0.68771
 C514 C 0.24240 0.30642 0.70272
 H515 H 0.24947 0.36683 0.58292
 H516 H 0.25285 0.33044 0.61504
 H517 H 0.20110 0.34488 0.67864
 H518 H 0.19773 0.38131 0.64648
 H519 H 0.25779 0.39727 0.68063
 H520 H 0.26117 0.36086 0.71276
 C521 C 0.88321 0.26394 0.13451
 C522 C 0.87235 0.24165 0.12972
 C523 C 0.85277 0.23998 0.14713
 C524 C 0.84595 0.26076 0.16763
 C525 C 0.84675 0.27878 0.13819
 C526 C 0.86634 0.28045 0.12077
 C527 C 0.88443 0.26746 0.17660
 C528 C 0.86484 0.26579 0.19402
 C529 C 0.90426 0.26556 0.11564
 C530 C 0.92152 0.26649 0.09986
 C531 C 0.82485 0.25884 0.18629
 C532 C 0.80747 0.25705 0.20142
 H533 H 0.87942 0.22834 0.11403
 H534 H 0.84307 0.22524 0.14634
 H535 H 0.83313 0.28930 0.13162
 H536 H 0.86951 0.29240 0.09928
 H537 H 0.89937 0.27098 0.19141
 H538 H 0.86298 0.26787 0.22376
 C539 C 0.38220 0.76565 0.63601
 C540 C 0.36371 0.75856 0.61019
 C541 C 0.34414 0.75673 0.62757
 C542 C 0.34496 0.76216 0.66909
 C543 C 0.35472 0.78511 0.67109
 C544 C 0.37431 0.78695 0.65368
 C545 C 0.38209 0.74898 0.66769
 C546 C 0.36252 0.74715 0.68509
 C547 C 0.40324 0.76744 0.61716
 C548 C 0.42048 0.76848 0.60138
 C549 C 0.32388 0.76007 0.68771
 C550 C 0.30650 0.75813 0.70279
 H551 H 0.36581 0.75528 0.58081
 H552 H 0.32948 0.75188 0.61309
 H553 H 0.34693 0.79871 0.68495
 H554 H 0.38330 0.80212 0.65262
 H555 H 0.39617 0.73947 0.67578
 H556 H 0.35982 0.73606 0.70807
 C557 C 0.11798 0.73524 0.13471
 C558 C 0.13751 0.73456 0.10823
 C559 C 0.15702 0.73637 0.12572
 C560 C 0.15510 0.73869 0.16799
 C561 C 0.14175 0.71892 0.18055
 C562 C 0.12222 0.71711 0.16304
 C563 C 0.12060 0.75651 0.15654
 C564 C 0.14011 0.75832 0.17403
 C565 C 0.09699 0.73348 0.11578
 C566 C 0.07979 0.73246 0.09997
 C567 C 0.17612 0.74076 0.18672
 C568 C 0.19343 0.74268 0.20193
 H569 H 0.13613 0.73278 0.07836
 H570 H 0.17236 0.73615 0.11084
 H571 H 0.14716 0.70736 0.20134
 H572 H 0.11090 0.70400 0.16882
 H573 H 0.10822 0.76904 0.15814
 H574 H 0.14444 0.77240 0.19060
 C575 C 0.61762 0.23495 0.63486
 C576 C 0.61628 0.24622 0.67278
 C577 C 0.63581 0.24795 0.69024
 C578 C 0.65478 0.23823 0.66807
 C579 C 0.65406 0.24973 0.63032
 C580 C 0.63454 0.24800 0.61286
 C581 C 0.62847 0.21294 0.64257
 C582 C 0.64802 0.21466 0.66004
 C583 C 0.59662 0.23327 0.61595
 C584 C 0.57942 0.23229 0.60013
 C585 C 0.67582 0.24020 0.68677
 C586 C 0.69316 0.24204 0.70193
 H587 H 0.60130 0.25230 0.68486
 H588 H 0.63757 0.25550 0.71728
 H589 H 0.66770 0.25845 0.61833
 H590 H 0.63146 0.25525 0.58592
 H591 H 0.62143 0.19738 0.63498
 H592 H 0.65773 0.20058 0.66743
 C593 C 0.73552 0.11687 0.86535
 C594 C 0.75539 0.13017 0.87738
 C595 C 0.75708 0.14974 0.85993
 C596 C 0.73873 0.15411 0.83215
 C597 C 0.71768 0.15147 0.85458
 C598 C 0.71599 0.13188 0.87204
 C599 C 0.73746 0.11504 0.82301
 C600 C 0.73915 0.13462 0.80555
 C601 C 0.73388 0.09581 0.88424
 C602 C 0.73295 0.07855 0.90002
 C603 C 0.74068 0.17521 0.81345
 C604 C 0.74250 0.19258 0.79827
 H605 H 0.76711 0.12470 0.89782
 H606 H 0.77024 0.16103 0.86543
 H607 H 0.70519 0.16389 0.85655
 H608 H 0.70206 0.12751 0.88897
 H609 H 0.73749 0.09972 0.80806
 H610 H 0.74062 0.13608 0.77565
 C611 C 0.23525 0.61759 0.36491
 C612 C 0.25883 0.62472 0.35836
 C613 C 0.26066 0.64430 0.34099
 C614 C 0.23872 0.65484 0.33185
 C615 C 0.22658 0.65600 0.36902
 C616 C 0.22475 0.63641 0.38640
 C617 C 0.22461 0.61813 0.32644
 C618 C 0.22644 0.63773 0.30905
 C619 C 0.23345 0.59654 0.38374
 C620 C 0.23239 0.57930 0.39954
 C621 C 0.24080 0.67594 0.31325
 C622 C 0.24270 0.69332 0.29817
 H623 H 0.27288 0.61522 0.36664
 H624 H 0.27626 0.65157 0.33439
 H625 H 0.21999 0.67089 0.38065
 H626 H 0.21660 0.63451 0.41292
 H627 H 0.21637 0.60435 0.31397
 H628 H 0.21976 0.64074 0.28168
 C629 C 0.26402 0.88311 0.86592
 C630 C 0.26938 0.88403 0.82435
 C631 C 0.26764 0.86444 0.80693
 C632 C 0.26070 0.84585 0.83279
 C633 C 0.23943 0.85362 0.85065
 C634 C 0.24117 0.87319 0.86806
 C635 C 0.27915 0.86560 0.88178
 C636 C 0.27741 0.84601 0.86436
 C637 C 0.26572 0.90417 0.88477
 C638 C 0.26671 0.92144 0.90050
 C639 C 0.25870 0.82476 0.81413
 C640 C 0.25687 0.80739 0.79896
 H641 H 0.27414 0.89877 0.80989
 H642 H 0.27090 0.86239 0.77754
 H643 H 0.22432 0.84454 0.84972
 H644 H 0.22755 0.88088 0.88203
 H645 H 0.29026 0.86835 0.90465
 H646 H 0.28703 0.83197 0.87231
 C647 C 0.76530 0.38244 0.36426
 C648 C 0.75905 0.36373 0.39033
 C649 C 0.75728 0.34416 0.37291
 C650 C 0.76194 0.34521 0.33112
 C651 C 0.78462 0.35542 0.32792
 C652 C 0.78639 0.37501 0.34535
 C653 C 0.74809 0.38211 0.33351
 C654 C 0.74632 0.36254 0.31609
 C655 C 0.76703 0.40348 0.38314
 C656 C 0.76802 0.42071 0.39896
 C657 C 0.75991 0.32412 0.31248
 C658 C 0.75804 0.30674 0.29739
 H659 H 0.75627 0.36567 0.41989
 H660 H 0.75298 0.32934 0.38755
 H661 H 0.79810 0.34793 0.31326
 H662 H 0.80138 0.38431 0.34564
 H663 H 0.73817 0.39604 0.32606
 H664 H 0.73489 0.35969 0.29372
 C665 C 0.11747 0.26382 0.86593
 C666 C 0.11675 0.27024 0.82481
 C667 C 0.13632 0.26851 0.80731
 C668 C 0.15468 0.26053 0.83268
 C669 C 0.14643 0.23898 0.84889
 C670 C 0.12688 0.24071 0.86637
 C671 C 0.13524 0.27818 0.88296
 C672 C 0.15481 0.27645 0.86547
 C673 C 0.09643 0.26552 0.88486
 C674 C 0.07920 0.26651 0.90066
 C675 C 0.17575 0.25855 0.81395
 C676 C 0.19310 0.25672 0.79873
 H677 H 0.10217 0.27568 0.81068
 H678 H 0.13851 0.27246 0.77820
 H679 H 0.15517 0.22370 0.84683
 H680 H 0.11888 0.22691 0.87927
 H681 H 0.13268 0.28878 0.90664
 H682 H 0.16901 0.28557 0.87418
 C683 C 0.61763 0.76553 0.36457
 C684 C 0.61769 0.77471 0.32498
 C685 C 0.63726 0.77288 0.30751
 C686 C 0.65483 0.76205 0.33138
 C687 C 0.64507 0.74014 0.34314
 C688 C 0.62552 0.74197 0.36058
 C689 C 0.63613 0.77745 0.38454
 C690 C 0.65570 0.77561 0.36708
 C691 C 0.59660 0.76733 0.38348
 C692 C 0.57938 0.76837 0.39931
 C693 C 0.67590 0.75995 0.31270
 C694 C 0.69325 0.75802 0.29756
 H695 H 0.60361 0.78202 0.31183
 H696 H 0.63995 0.77861 0.27940
 H697 H 0.65283 0.72455 0.33819
 H698 H 0.61653 0.72796 0.37057
 H699 H 0.63405 0.78654 0.41011
 H700 H 0.67038 0.78313 0.37771
 C701 C 0.88250 0.73560 0.86441
 C702 C 0.88416 0.73548 0.82193
 C703 C 0.86459 0.73731 0.80458
 C704 C 0.84529 0.73909 0.83143
 C705 C 0.85071 0.75845 0.85662
 C706 C 0.87026 0.75661 0.87395
 C707 C 0.86662 0.71717 0.87389
 C708 C 0.84705 0.71900 0.85654
 C709 C 0.90353 0.73380 0.88320
 C710 C 0.92076 0.73275 0.89891
 C711 C 0.82422 0.74118 0.81286
 C712 C 0.80687 0.74309 0.79779
 H713 H 0.89936 0.73406 0.80681
 H714 H 0.86303 0.73747 0.77459
 H715 H 0.84011 0.77237 0.86051
 H716 H 0.87641 0.76898 0.89269
 H717 H 0.87041 0.70385 0.89256
 H718 H 0.83408 0.70725 0.86034
 C719 C 0.38239 0.23517 0.36398
 C720 C 0.38387 0.23336 0.32159
 C721 C 0.36429 0.23509 0.30424
 C722 C 0.34516 0.23846 0.33100
 C723 C 0.35124 0.25858 0.35391
 C724 C 0.37080 0.25685 0.37124
 C725 C 0.36602 0.21761 0.37565
 C726 C 0.34644 0.21934 0.35830
 C727 C 0.40342 0.23347 0.38278
 C728 C 0.42064 0.23248 0.39853
 C729 C 0.32407 0.24044 0.31245
 C730 C 0.30669 0.24227 0.29744
 H731 H 0.39896 0.23093 0.30653
 H732 H 0.36260 0.23414 0.27431
 H733 H 0.34106 0.27293 0.35631
 H734 H 0.37738 0.26973 0.38849
 H735 H 0.36950 0.20494 0.39574
 H736 H 0.33315 0.20815 0.36353
 C737 C 0.74014 0.88198 0.86618
 C738 C 0.74546 0.88389 0.82469
 C739 C 0.74649 0.86435 0.80694
 C740 C 0.74211 0.84483 0.83242
 C741 C 0.71990 0.84946 0.85015
 C742 C 0.71887 0.86900 0.86790
 C743 C 0.75749 0.86664 0.88192
 C744 C 0.75852 0.84711 0.86417
 C745 C 0.73908 0.90297 0.88540
 C746 C 0.73829 0.92015 0.90145
 C747 C 0.74333 0.82377 0.81342
 C748 C 0.74461 0.80642 0.79804
 H749 H 0.74816 0.89922 0.81051
 H750 H 0.75008 0.86295 0.77755
 H751 H 0.70620 0.83838 0.84886
 H752 H 0.70428 0.87466 0.88182
 H753 H 0.76804 0.87075 0.90498
 H754 H 0.76996 0.83450 0.87204
 C755 C 0.23950 0.38066 0.36759
 C756 C 0.23408 0.36115 0.39251
 C757 C 0.23516 0.34165 0.37464
 C758 C 0.24154 0.34356 0.33360
 C759 C 0.26309 0.35612 0.33357
 C760 C 0.26202 0.37561 0.35144
 C761 C 0.22384 0.37882 0.33464
 C762 C 0.22491 0.35931 0.31676
 C763 C 0.23839 0.40163 0.38691
 C764 C 0.23755 0.41881 0.40295
 C765 C 0.24281 0.32255 0.31444
 C766 C 0.24414 0.30524 0.29887
 H767 H 0.22977 0.36253 0.42163
 H768 H 0.23177 0.32633 0.38845
 H769 H 0.27790 0.35021 0.32065
 H770 H 0.27590 0.38640 0.35382
 H771 H 0.21287 0.39170 0.32611
 H772 H 0.21487 0.35549 0.29292
 C773 C 0.25994 0.11805 0.86659
 C774 C 0.27822 0.13377 0.87750
 C775 C 0.27720 0.15331 0.85974
 C776 C 0.25800 0.15520 0.83281
 C777 C 0.23781 0.15012 0.85629
 C778 C 0.23883 0.13059 0.87404
 C779 C 0.26141 0.11621 0.82419
 C780 C 0.26039 0.13575 0.80643
 C781 C 0.26098 0.09706 0.88581
 C782 C 0.26174 0.07988 0.90186
 C783 C 0.25679 0.17625 0.81381
 C784 C 0.25549 0.19361 0.79844
 H785 H 0.29085 0.12990 0.89741
 H786 H 0.28896 0.16616 0.86443
 H787 H 0.22393 0.16091 0.85876
 H788 H 0.22582 0.12466 0.89171
 H789 H 0.26311 0.10092 0.80944
 H790 H 0.26121 0.13720 0.77645
 C791 C 0.76032 0.61933 0.36709
 C792 C 0.78261 0.62970 0.35984
 C793 C 0.78151 0.64920 0.34198
 C794 C 0.75822 0.65642 0.33312
 C795 C 0.74629 0.65614 0.37055
 C796 C 0.74740 0.63665 0.38839
 C797 C 0.74946 0.61803 0.32886
 C798 C 0.74835 0.63753 0.31100
 C799 C 0.76146 0.59836 0.38639
 C800 C 0.76233 0.58117 0.40243
 C801 C 0.75692 0.67744 0.31398
 C802 C 0.75559 0.69475 0.29844
 H803 H 0.79792 0.62236 0.36800
 H804 H 0.79586 0.65858 0.33484
 H805 H 0.73773 0.67004 0.38203
 H806 H 0.73979 0.63385 0.41516
 H807 H 0.74320 0.60310 0.31686
 H808 H 0.74115 0.63930 0.28371
 C809 C 0.11829 0.74005 0.86700
 C810 C 0.11650 0.74648 0.82598
 C811 C 0.13604 0.74759 0.80825
 C812 C 0.15544 0.74216 0.83329
 C813 C 0.15038 0.71959 0.84929
 C814 C 0.13084 0.71848 0.86702
 C815 C 0.13394 0.75669 0.88402
 C816 C 0.15347 0.75780 0.86631
 C817 C 0.09729 0.73892 0.88618
 C818 C 0.08010 0.73806 0.90217
 C819 C 0.17650 0.74347 0.81432
 C820 C 0.19385 0.74483 0.79894
 H821 H 0.10124 0.74985 0.81207
 H822 H 0.13752 0.75191 0.77916
 H823 H 0.16117 0.70570 0.84689
 H824 H 0.12489 0.70364 0.87980
 H825 H 0.13004 0.76672 0.90790
 H826 H 0.16629 0.76878 0.87502
 C827 C 0.61926 0.23982 0.36616
 C828 C 0.61788 0.24956 0.32703
 C829 C 0.63742 0.25062 0.30929
 C830 C 0.65641 0.24185 0.33240
 C831 C 0.64971 0.21865 0.34319
 C832 C 0.63017 0.21758 0.36094
 C833 C 0.63614 0.25376 0.38649
 C834 C 0.65567 0.25482 0.36875
 C835 C 0.59825 0.23873 0.38536
 C836 C 0.58105 0.23790 0.40133
 C837 C 0.67747 0.24310 0.31339
 C838 C 0.69481 0.24440 0.29797
 H839 H 0.60289 0.25511 0.31437
 H840 H 0.63915 0.25709 0.28142
 H841 H 0.65944 0.20432 0.33739
 H842 H 0.62317 0.20234 0.37034
 H843 H 0.63304 0.26206 0.41254
 H844 H 0.66929 0.26404 0.37962
 C845 C 0.88081 0.25948 0.86724
 C846 C 0.88291 0.25794 0.82489
 C847 C 0.86344 0.25691 0.80703
 C848 C 0.84379 0.25753 0.83327
 C849 C 0.84676 0.27829 0.85633
 C850 C 0.86623 0.27932 0.87419
 C851 C 0.86697 0.23980 0.87847
 C852 C 0.84751 0.23877 0.86062
 C853 C 0.90174 0.26053 0.88656
 C854 C 0.91887 0.26132 0.90265
 C855 C 0.82281 0.25630 0.81414
 C856 C 0.80552 0.25501 0.79865
 H857 H 0.89832 0.25769 0.81022
 H858 H 0.86217 0.25578 0.77706
 H859 H 0.83465 0.29107 0.85843
 H860 H 0.87079 0.29298 0.89159
 H861 H 0.87200 0.22773 0.89868
 H862 H 0.83588 0.22581 0.86555
 C863 C 0.38100 0.76082 0.36730
 C864 C 0.38305 0.75915 0.32495
 C865 C 0.36356 0.75802 0.30717
 C866 C 0.34394 0.75867 0.33348
 C867 C 0.34689 0.77952 0.35633
 C868 C 0.36638 0.78065 0.37411
 C869 C 0.36722 0.74114 0.37877
 C870 C 0.34774 0.74001 0.36099
 C871 C 0.40195 0.76199 0.38652
 C872 C 0.41911 0.76287 0.40252
 C873 C 0.32295 0.75733 0.31443
 C874 C 0.30566 0.75596 0.29896
 H875 H 0.39844 0.75890 0.31023
 H876 H 0.36227 0.75679 0.27722
 H877 H 0.33475 0.79227 0.35835
 H878 H 0.37093 0.79437 0.39137
 H879 H 0.37231 0.72915 0.39907
 H880 H 0.33615 0.72704 0.36608
 C881 C 0.26000 0.88154 0.13360
 C882 C 0.26972 0.86267 0.11118
 C883 C 0.26872 0.84315 0.12898
 C884 C 0.25808 0.84441 0.16745
 C885 C 0.23576 0.85480 0.16075
 C886 C 0.23677 0.87431 0.14296
 C887 C 0.27214 0.88122 0.17075
 C888 C 0.27114 0.86169 0.18856
 C889 C 0.26102 0.90252 0.11434
 C890 C 0.26178 0.91969 0.09828
 C891 C 0.25688 0.82337 0.18650
 C892 C 0.25560 0.80602 0.20192
 H893 H 0.27679 0.86449 0.08375
 H894 H 0.27492 0.82825 0.11679
 H895 H 0.22050 0.84747 0.16924
 H896 H 0.22237 0.88370 0.13621
 H897 H 0.28078 0.89510 0.18206
 H898 H 0.27891 0.85884 0.21512
 C899 C 0.76031 0.38069 0.63312
 C900 C 0.77001 0.36179 0.61076
 C901 C 0.76890 0.34227 0.62855
 C902 C 0.75820 0.34355 0.66697
 C903 C 0.73593 0.35402 0.66015
 C904 C 0.73704 0.37354 0.64236
 C905 C 0.77239 0.38032 0.67034
 C906 C 0.77128 0.36079 0.68814
 C907 C 0.76144 0.40168 0.61388
 C908 C 0.76231 0.41888 0.59789
 C909 C 0.75690 0.32251 0.68605
 C910 C 0.75556 0.30518 0.70151
 H911 H 0.77713 0.36358 0.58336
 H912 H 0.77508 0.32734 0.61639
 H913 H 0.72063 0.34675 0.66855
 H914 H 0.72269 0.38297 0.63553
 H915 H 0.78105 0.39417 0.68170
 H916 H 0.77900 0.35792 0.71474
 C917 C 0.74035 0.11850 0.13310
 C918 C 0.75582 0.11856 0.16643
 C919 C 0.75689 0.13810 0.18418
 C920 C 0.74237 0.15566 0.16685
 C921 C 0.71949 0.14574 0.16640
 C922 C 0.71843 0.12620 0.14865
 C923 C 0.74823 0.13717 0.10823
 C924 C 0.74929 0.15670 0.12597
 C925 C 0.73927 0.09751 0.11389
 C926 C 0.73845 0.08034 0.09785
 C927 C 0.74363 0.17671 0.18585
 C928 C 0.74495 0.19405 0.20124
 H929 H 0.76512 0.10450 0.17533
 H930 H 0.76709 0.14077 0.20828
 H931 H 0.70538 0.15339 0.17892
 H932 H 0.70340 0.11710 0.14596
 H933 H 0.75259 0.13522 0.07923
 H934 H 0.75456 0.17148 0.11216
 C935 C 0.23957 0.61931 0.63361
 C936 C 0.25552 0.61953 0.66629
 C937 C 0.25660 0.63905 0.68407
 C938 C 0.24163 0.65645 0.66745
 C939 C 0.21887 0.64625 0.66791
 C940 C 0.21779 0.62672 0.65011
 C941 C 0.24686 0.63811 0.60851
 C942 C 0.24794 0.65763 0.62629
 C943 C 0.23846 0.59832 0.61437
 C944 C 0.23761 0.58112 0.59839
 C945 C 0.24289 0.67750 0.68652
 C946 C 0.24419 0.69483 0.70199
 H947 H 0.26511 0.60557 0.67473
 H948 H 0.26712 0.64181 0.70775
 H949 H 0.20485 0.65370 0.68105
 H950 H 0.20284 0.61744 0.64802
 H951 H 0.25082 0.63626 0.57933
 H952 H 0.25282 0.67249 0.61233
 C953 C 0.88132 0.73986 0.13290
 C954 C 0.86785 0.71893 0.12984
 C955 C 0.84832 0.72003 0.14760
 C956 C 0.84418 0.74196 0.16668
 C957 C 0.84692 0.75903 0.13596
 C958 C 0.86643 0.75793 0.11821
 C959 C 0.88324 0.74422 0.17469
 C960 C 0.86372 0.74532 0.19245
 C961 C 0.90230 0.73874 0.11369
 C962 C 0.91948 0.73790 0.09767
 C963 C 0.82314 0.74326 0.18569
 C964 C 0.80581 0.74462 0.20111
 H965 H 0.87319 0.70451 0.11504
 H966 H 0.83694 0.70656 0.14801
 H967 H 0.83460 0.77093 0.12877
 H968 H 0.87084 0.76889 0.09582
 H969 H 0.89859 0.74625 0.18907
 H970 H 0.86233 0.74829 0.22204
 C971 C 0.38097 0.23950 0.63289
 C972 C 0.36158 0.23343 0.60827
 C973 C 0.34208 0.23447 0.62613
 C974 C 0.34388 0.24147 0.66687
 C975 C 0.35610 0.26322 0.66591
 C976 C 0.37559 0.26219 0.64805
 C977 C 0.37936 0.22427 0.66653
 C978 C 0.35986 0.22531 0.68440
 C979 C 0.40193 0.23843 0.61357
 C980 C 0.41910 0.23763 0.59750
 C981 C 0.32287 0.24270 0.68602
 C982 C 0.30556 0.24399 0.70154
 H983 H 0.36303 0.22872 0.57935
 H984 H 0.32684 0.23065 0.61251
 H985 H 0.34998 0.27814 0.67820
 H986 H 0.38616 0.27621 0.64504
 H987 H 0.39239 0.21361 0.67551
 H988 H 0.35617 0.21554 0.70869
 C989 C 0.11835 0.25953 0.13434
 C990 C 0.13777 0.25747 0.10781
 C991 C 0.15730 0.25647 0.12543
 C992 C 0.15552 0.25762 0.16785
 C993 C 0.13996 0.23914 0.17852
 C994 C 0.12042 0.24014 0.16091
 C995 C 0.12330 0.27962 0.15814
 C996 C 0.14285 0.27862 0.17576
 C997 C 0.09735 0.26055 0.11526
 C998 C 0.08016 0.26131 0.09935
 C999 C 0.17658 0.25642 0.18672
 C1000 C 0.19394 0.25515 0.20200
 H1001 H 0.13630 0.25686 0.07783
 H1002 H 0.17257 0.25500 0.11053
 H1003 H 0.14393 0.22639 0.19821
 H1004 H 0.10766 0.22825 0.16550
 H1005 H 0.11242 0.29341 0.16091
 H1006 H 0.14871 0.29155 0.19363
 C1007 C 0.61897 0.76097 0.63338
 C1008 C 0.61855 0.77057 0.67267
 C1009 C 0.63806 0.76947 0.69041
 C1010 C 0.65606 0.75886 0.66711
 C1011 C 0.65678 0.77205 0.63098
 C1012 C 0.63728 0.77316 0.61325
 C1013 C 0.62746 0.73768 0.63821
 C1014 C 0.64696 0.73657 0.65593
 C1015 C 0.59801 0.76210 0.61420
 C1016 C 0.58084 0.76297 0.59823
 C1017 C 0.67708 0.75756 0.68610
 C1018 C 0.69439 0.75621 0.70150
 H1019 H 0.60421 0.77763 0.68544
 H1020 H 0.64043 0.77557 0.71837
 H1021 H 0.67132 0.77984 0.62028
 H1022 H 0.63512 0.78189 0.58735
 H1023 H 0.61892 0.72332 0.62855
 H1024 H 0.65510 0.72126 0.66146
   
