data_POSCAR
  _audit_creation_date              2014-09-24
  _audit_creation_method            'ToBaCCo'
  _symmetry_space_group_name_H-M    'P1'
  _symmetry_Int_Tables_number       1
  _symmetry_cell_setting            triclinic
  loop_
  _symmetry_equiv_pos_as_xyz
 x,y,z
_cell_length_a 28.9025
_cell_length_b 28.8240
_cell_length_c 35.9036
_cell_angle_alpha 89.950900
_cell_angle_beta 88.684300
_cell_angle_gamma 89.920700
loop_
  _atom_site_label
  _atom_site_type_symbol
  _atom_site_fract_x
  _atom_site_fract_y
  _atom_site_fract_z
C1 C 0.00051 0.54436 1.02061
 C2 C -0.00103 0.54430 0.98130
 C3 C -0.00201 0.50200 0.96209
 C4 C -0.00126 0.45984 0.98149
 C5 C 0.00073 0.45987 1.02069
 C6 C 0.00148 0.50212 1.03998
 H7 H 0.00284 0.50212 1.07019
 H8 H -0.00337 0.50181 0.93190
 C9 C 0.45826 -0.00501 0.51874
 C10 C 0.45916 -0.00472 0.47951
 C11 C 0.50167 -0.00481 0.45997
 C12 C 0.54336 -0.00492 0.47918
 C13 C 0.54243 -0.00478 0.51848
 C14 C 0.49987 -0.00497 0.53797
 H15 H 0.49914 -0.00496 0.56819
 H16 H 0.50223 -0.00469 0.42972
 C17 C 0.10122 0.00678 0.26259
 H18 H 0.10328 0.00874 0.23250
 C19 C 0.14165 0.00720 0.28313
 H20 H 0.17502 0.00939 0.26887
 C21 C 0.05525 0.00158 0.31802
 H22 H 0.02154 -0.00011 0.33154
 C23 C 0.09486 0.00192 0.33963
 H24 H 0.09155 0.00007 0.36971
 N25 N 0.05916 0.00326 0.28017
 C26 C -0.03000 -0.06024 0.19811
 H27 H -0.05780 -0.03512 0.19725
 C28 C -0.03195 -0.10047 0.17650
 H29 H -0.06123 -0.10636 0.15882
 C30 C 0.04176 -0.08390 0.22273
 H31 H 0.07001 -0.07784 0.24125
 C32 C 0.04115 -0.12454 0.20162
 H33 H 0.06917 -0.14935 0.20369
 Zn34 Zn 0.00645 0.00202 0.24981
 N35 N 0.00672 -0.05248 0.22034
 C36 C 0.00791 0.05291 0.18156
 N37 N 0.00867 0.05574 0.21940
 C38 C 0.01179 0.09740 0.23696
 C39 C 0.01270 0.13853 0.21641
 C40 C 0.00877 0.09326 0.15994
 C41 C -0.05724 -0.03576 0.30164
 C42 C -0.09801 -0.03816 0.32326
 C43 C -0.12107 0.03585 0.29796
 C44 C -0.07992 0.03689 0.27685
 N45 N -0.04875 0.00162 0.27932
 H46 H 0.00651 0.01951 0.16806
 H47 H 0.01299 0.09858 0.26704
 H48 H 0.01452 0.17158 0.23065
 H49 H 0.00760 0.09083 0.12987
 H50 H -0.03229 -0.06373 0.30256
 H51 H -0.10448 -0.06796 0.34102
 H52 H -0.14567 0.06406 0.29583
 H53 H -0.07327 0.06568 0.25825
 C54 C 0.00403 -0.13284 0.17827
 C55 C 0.13842 0.00444 0.32197
 C56 C -0.13014 -0.00196 0.32141
 C57 C 0.01085 0.13643 0.17758
 C58 C -0.01190 0.09635 0.76314
 H59 H -0.01299 0.09768 0.73306
 C60 C -0.01292 0.13739 0.78376
 H61 H -0.01469 0.17051 0.76957
 C62 C -0.00822 0.05160 0.81848
 H63 H -0.00686 0.01813 0.83194
 C64 C -0.00918 0.09185 0.84017
 H65 H -0.00813 0.08926 0.87024
 N66 N -0.00882 0.05460 0.78064
 C67 C 0.05740 -0.03673 0.69843
 H68 H 0.03251 -0.06468 0.69752
 C69 C 0.09812 -0.03906 0.67676
 H70 H 0.10464 -0.06880 0.65897
 C71 C 0.07990 0.03587 0.72322
 H72 H 0.07318 0.06461 0.74182
 C73 C 0.12101 0.03489 0.70205
 H74 H 0.14553 0.06311 0.70415
 Zn75 Zn -0.00644 0.00099 0.75019
 N76 N 0.04883 0.00060 0.72076
 C77 C -0.05496 0.00088 0.68188
 N78 N -0.05905 0.00238 0.71972
 C79 C -0.10120 0.00583 0.73719
 C80 C -0.14153 0.00635 0.71653
 C81 C -0.09446 0.00133 0.66015
 C82 C 0.02999 -0.06141 0.80194
 C83 C 0.03190 -0.10160 0.82365
 C84 C -0.04114 -0.12553 0.79849
 C85 C -0.04171 -0.08492 0.77727
 N86 N -0.00669 -0.05359 0.77965
 H87 H -0.02119 -0.00074 0.66845
 H88 H -0.10339 0.00765 0.76727
 H89 H -0.17497 0.00848 0.73069
 H90 H -0.09101 -0.00038 0.63007
 H91 H 0.05777 -0.03634 0.80279
 H92 H 0.06113 -0.10752 0.84141
 H93 H -0.06916 -0.15026 0.79646
 H94 H -0.06993 -0.07881 0.75871
 C95 C 0.13014 -0.00284 0.67857
 C96 C -0.01121 0.13510 0.82260
 C97 C -0.00408 -0.13387 0.82193
 C98 C -0.13811 0.00378 0.67768
 C99 C 0.00091 -0.41512 0.04039
 C100 C 0.00114 -0.37926 0.05764
 C101 C 0.00133 -0.33643 0.07817
 C102 C -0.01258 -0.29507 0.06118
 C103 C -0.01241 -0.25346 0.08120
 C104 C 0.00163 -0.25308 0.11830
 C105 C 0.01552 -0.29445 0.13527
 C106 C 0.01537 -0.33604 0.11525
 C107 C 0.00201 -0.21036 0.13900
 C108 C 0.00269 -0.17486 0.15671
 H109 H -0.02356 -0.29502 0.03252
 H110 H -0.02320 -0.22166 0.06781
 H111 H 0.02648 -0.29454 0.16393
 H112 H 0.02618 -0.36782 0.12865
 C113 C 0.00210 0.41932 0.04037
 C114 C 0.00342 0.38339 0.05753
 C115 C 0.00505 0.34048 0.07794
 C116 C 0.01678 0.29909 0.05955
 C117 C 0.01835 0.25739 0.07946
 C118 C 0.00824 0.25695 0.11781
 C119 C -0.00346 0.29836 0.13617
 C120 C -0.00505 0.34003 0.11628
 C121 C 0.00961 0.21414 0.13840
 C122 C 0.01041 0.17855 0.15604
 H123 H 0.02471 0.29908 0.02991
 H124 H 0.02741 0.22556 0.06498
 H125 H -0.01137 0.29841 0.16582
 H126 H -0.01414 0.37184 0.13076
 C127 C 0.41504 -0.00527 0.53969
 C128 C 0.37884 -0.00550 0.55704
 C129 C 0.33566 -0.00571 0.57776
 C130 C 0.29468 -0.01846 0.56034
 C131 C 0.25269 -0.01846 0.58054
 C132 C 0.25156 -0.00576 0.61821
 C133 C 0.29256 0.00691 0.63561
 C134 C 0.33451 0.00694 0.61543
 C135 C 0.20844 -0.00531 0.63905
 C136 C 0.17259 -0.00448 0.65687
 H137 H 0.29520 -0.02834 0.53123
 H138 H 0.22119 -0.02827 0.56680
 H139 H 0.29207 0.01685 0.66471
 H140 H 0.36599 0.01685 0.62916
 C141 C -0.41541 -0.00404 0.53933
 C142 C -0.38012 -0.00319 0.55655
 C143 C -0.33801 -0.00200 0.57711
 C144 C -0.33855 -0.01423 0.61488
 C145 C -0.29770 -0.01283 0.63497
 C146 C -0.25613 0.00081 0.61738
 C147 C -0.25556 0.01299 0.57958
 C148 C -0.29644 0.01161 0.55948
 C149 C -0.21421 0.00221 0.63820
 C150 C -0.17936 0.00312 0.65600
 H151 H -0.37051 -0.02477 0.62878
 H152 H -0.29853 -0.02234 0.66418
 H153 H -0.22360 0.02357 0.56570
 H154 H -0.29566 0.02121 0.53029
 C155 C -0.00141 -0.41526 0.96135
 C156 C -0.00161 -0.37950 0.94393
 C157 C -0.00176 -0.33681 0.92316
 C158 C 0.01234 -0.29542 0.93987
 C159 C 0.01224 -0.25394 0.91960
 C160 C -0.00193 -0.25375 0.88253
 C161 C -0.01602 -0.29516 0.86585
 C162 C -0.01594 -0.33660 0.88611
 C163 C -0.00222 -0.21118 0.86157
 C164 C -0.00283 -0.17578 0.84368
 H165 H 0.02342 -0.29523 0.96850
 H166 H 0.02318 -0.22212 0.93278
 H167 H -0.02708 -0.29539 0.83721
 H168 H -0.02690 -0.36841 0.87293
 C169 C -0.00270 0.41704 0.96063
 C170 C -0.00401 0.38121 0.94341
 C171 C -0.00562 0.33845 0.92286
 C172 C -0.01825 0.29711 0.94095
 C173 C -0.01980 0.25556 0.92090
 C174 C -0.00876 0.25523 0.88269
 C175 C 0.00384 0.29658 0.86463
 C176 C 0.00541 0.33810 0.88467
 C177 C -0.01009 0.21257 0.86196
 C178 C -0.01084 0.17710 0.84422
 H179 H -0.02690 0.29702 0.97047
 H180 H -0.02955 0.22377 0.93515
 H181 H 0.01248 0.29671 0.83510
 H182 H 0.01521 0.36987 0.87041
 C183 C -0.41572 -0.00508 0.45936
 C184 C -0.37947 -0.00524 0.44207
 C185 C -0.33619 -0.00538 0.42148
 C186 C -0.33491 0.00712 0.38377
 C187 C -0.29285 0.00721 0.36375
 C188 C -0.25187 -0.00521 0.38135
 C189 C -0.25313 -0.01777 0.41907
 C190 C -0.29523 -0.01787 0.43910
 C191 C -0.20862 -0.00464 0.36067
 C192 C -0.17268 -0.00371 0.34298
 H193 H -0.36638 0.01685 0.36988
 H194 H -0.29225 0.01703 0.33460
 H195 H -0.22164 -0.02738 0.43296
 H196 H -0.29585 -0.02763 0.46826
 C197 C 0.41688 -0.00391 0.45888
 C198 C 0.38144 -0.00300 0.44185
 C199 C 0.33914 -0.00174 0.42153
 C200 C 0.29754 0.01110 0.43955
 C201 C 0.25648 0.01255 0.41968
 C202 C 0.25689 0.00120 0.38173
 C203 C 0.29848 -0.01167 0.36375
 C204 C 0.33951 -0.01314 0.38360
 C205 C 0.21477 0.00269 0.36115
 C206 C 0.17979 0.00368 0.34351
 H207 H 0.29690 0.02006 0.46885
 H208 H 0.22451 0.02254 0.43386
 H209 H 0.29918 -0.02052 0.33442
 H210 H 0.37149 -0.02308 0.36940
   
