data_POSCAR
  _audit_creation_date              2014-09-24
  _audit_creation_method            'ToBaCCo'
  _symmetry_space_group_name_H-M    'P1'
  _symmetry_Int_Tables_number       1
  _symmetry_cell_setting            triclinic
  loop_
  _symmetry_equiv_pos_as_xyz
 x,y,z
_cell_length_a 38.1490
_cell_length_b 38.9550
_cell_length_c 40.5987
_cell_angle_alpha 88.640600
_cell_angle_beta 90.631700
_cell_angle_gamma 88.834000
loop_
  _atom_site_label
  _atom_site_type_symbol
  _atom_site_fract_x
  _atom_site_fract_y
  _atom_site_fract_z
C1 C 0.16317 0.16832 0.20524
 N2 N 0.18968 0.14767 0.19457
 C3 C 0.20591 0.15469 0.16565
 N4 N 0.19539 0.18275 0.14719
 C5 C 0.16891 0.20362 0.15750
 N6 N 0.15293 0.19628 0.18658
 C7 C -0.12743 0.87644 0.20567
 N8 N -0.15922 0.88809 0.19435
 C9 C -0.17643 0.87134 0.17038
 N10 N -0.16155 0.84262 0.15761
 C11 C -0.12956 0.83097 0.16858
 N12 N -0.11271 0.84789 0.19267
 C13 C -0.15898 0.15303 -0.19331
 N14 N -0.18637 0.13917 -0.17685
 C15 C -0.19879 0.15412 -0.14919
 N16 N -0.18382 0.18310 -0.13832
 C17 C -0.15651 0.19706 -0.15461
 N18 N -0.14420 0.18197 -0.18197
 C19 C 0.19535 0.78529 -0.25455
 N20 N 0.17846 0.76272 -0.23433
 C21 C 0.19529 0.74954 -0.20686
 N22 N 0.22823 0.75961 -0.19958
 C23 C 0.24485 0.78236 -0.21942
 N24 N 0.22839 0.79481 -0.24695
 C25 C 0.16660 1.17946 0.79412
 N26 N 0.19573 1.16278 0.80683
 C27 C 0.21074 1.17366 0.83524
 N28 N 0.19660 1.20096 0.85071
 C29 C 0.16768 1.21764 0.83849
 N30 N 0.15273 1.20684 0.81011
 C31 C 0.88879 0.89106 0.82321
 N32 N 0.85783 0.90278 0.83544
 C33 C 0.84282 0.88612 0.86122
 N34 N 0.85858 0.85734 0.87437
 C35 C 0.88943 0.84539 0.86228
 N36 N 0.90445 0.86243 0.83679
 C37 C 0.14436 0.83840 1.22246
 N38 N 0.12826 0.81014 1.21098
 C39 C 0.13989 0.79499 1.18308
 N40 N 0.16785 0.80824 1.16678
 C41 C 0.18379 0.83658 1.17828
 N42 N 0.17185 0.85134 1.20590
 C43 C 0.83202 1.15152 1.19796
 N44 N 0.80363 1.14049 1.18089
 C45 C 0.79267 1.15747 1.15273
 N46 N 0.80993 1.18580 1.14209
 C47 C 0.83825 1.19692 1.15911
 N48 N 0.84912 1.17956 1.18670
 N49 N 0.54014 1.01899 0.95867
 N50 N 0.56725 1.03914 0.95413
 N51 N 0.46768 0.99480 0.93175
 N52 N 0.44281 0.99783 0.90895
 N53 N 0.46634 1.02078 0.95180
 N54 N 0.44028 1.04212 0.94321
 N55 N 0.54098 0.99368 0.93790
 N56 N 0.56856 0.99576 0.91879
 C57 C 0.58471 1.02409 0.92916
 C58 C 0.42595 1.02745 0.91640
 N59 N 0.46680 0.89871 0.96334
 N60 N 0.44408 0.87456 0.95750
 N61 N 0.54135 0.92062 0.94492
 N62 N 0.57187 0.91845 0.93021
 N63 N 0.54028 0.89886 0.97008
 N64 N 0.57017 0.88120 0.97301
 N65 N 0.46804 0.92069 0.93841
 N66 N 0.44634 0.91182 0.91464
 Mn67 Mn 0.50434 0.95744 0.93791
 C68 C 0.43139 0.88318 0.92723
 C69 C 0.58942 0.89355 0.94771
 N70 N 0.45982 1.02645 1.02207
 N71 N 0.43438 1.04987 1.02219
 N72 N 0.52991 1.00268 1.05457
 N73 N 0.55437 1.00708 1.07716
 N74 N 0.53351 1.02448 1.02969
 N75 N 0.56064 1.04443 1.03487
 N76 N 0.45649 1.00430 1.04671
 N77 N 0.42873 1.01232 1.06444
 Mn78 Mn 0.50011 1.02316 0.99053
 C79 C 0.41516 1.04076 1.04863
 C80 C 0.57327 1.03317 1.06471
 N81 N 0.53256 0.90380 1.04030
 N82 N 0.56044 0.88426 1.04681
 N83 N 0.45626 0.92971 1.05315
 N84 N 0.42696 0.92695 1.07007
 N85 N 0.45961 0.90411 1.03287
 N86 N 0.43289 0.88334 1.03532
 N87 N 0.53029 0.92913 1.06097
 N88 N 0.55717 0.92776 1.08188
 Mn89 Mn 0.49990 0.90106 1.00171
 Mn90 Mn 0.49301 0.96647 1.05431
 Cl91 Cl 0.49928 0.96212 0.99615
 C92 C 0.57542 0.89932 1.07283
 C93 C 0.41279 0.89779 1.05860
 N94 N 0.01265 0.47047 0.05635
 N95 N 0.01712 0.44503 0.07804
 N96 N 0.03951 0.54001 0.02874
 N97 N 0.06284 0.56457 0.03012
 N98 N 0.01732 0.54245 0.05318
 N99 N 0.02503 0.56868 0.07181
 N100 N 0.03492 0.46756 0.03205
 N101 N 0.05524 0.43980 0.03673
 C102 C 0.04365 0.42609 0.06562
 C103 C 0.05352 0.58220 0.05713
 N104 N 0.00560 0.54056 -0.06295
 N105 N 0.00954 0.56452 -0.08592
 N106 N 0.02791 0.46678 -0.03940
 N107 N 0.04820 0.43988 -0.04588
 N108 N 0.00121 0.46891 -0.06014
 N109 N 0.00255 0.44367 -0.08117
 N110 N 0.03265 0.53907 -0.04263
 N111 N 0.05597 0.56221 -0.05152
 Mn112 Mn 0.03432 0.50328 -0.00531
 C113 C 0.04086 0.57791 -0.07854
 C114 C 0.03182 0.42571 -0.07194
 N115 N -0.05806 0.54872 0.05833
 N116 N -0.05839 0.57647 0.07651
 N117 N -0.08899 0.47852 0.04025
 N118 N -0.11079 0.45316 0.04461
 N119 N -0.06260 0.47593 0.06126
 N120 N -0.06562 0.44807 0.08031
 N121 N -0.08450 0.54981 0.03735
 N122 N -0.10367 0.57796 0.04076
 Mn123 Mn -0.02262 0.50943 0.05775
 C124 C -0.08718 0.59428 0.06522
 C125 C -0.09613 0.43450 0.06966
 N126 N -0.07352 0.47499 -0.05441
 N127 N -0.07926 0.44726 -0.07150
 N128 N -0.09131 0.54890 -0.03285
 N129 N -0.10855 0.57854 -0.03368
 N130 N -0.06890 0.54731 -0.05707
 N131 N -0.07001 0.57617 -0.07486
 N132 N -0.09560 0.47718 -0.02998
 N133 N -0.11711 0.45108 -0.02983
 Mn134 Mn -0.03398 0.50794 -0.05896
 Mn135 Mn -0.09038 0.51361 0.00372
 Cl136 Cl -0.02800 0.50854 -0.00066
 C137 C -0.10671 0.43283 -0.05601
 C138 C -0.09526 0.59509 -0.06011
 N139 N 0.92308 0.00647 0.47361
 N140 N 0.90454 0.01040 0.44607
 N141 N 0.94150 -0.02191 0.54407
 N142 N 0.93617 -0.03771 0.57260
 N143 N 0.92510 0.00805 0.54280
 N144 N 0.90790 0.01326 0.57034
 N145 N 0.93930 -0.02358 0.47472
 N146 N 0.93247 -0.04074 0.44791
 C147 C 0.91045 -0.01940 0.43051
 C148 C 0.91482 -0.01563 0.58850
 N149 N 1.04387 -0.03150 0.54222
 N150 N 1.06514 -0.04521 0.56508
 N151 N 1.01086 -0.04744 0.47453
 N152 N 1.00743 -0.06970 0.45078
 N153 N 1.04135 -0.03246 0.47285
 N154 N 1.05947 -0.04412 0.44775
 N155 N 1.01305 -0.04584 0.54356
 N156 N 1.01237 -0.06941 0.56739
 Mn157 Mn 0.97598 -0.03499 0.50927
 C158 C 1.04490 -0.06858 0.58073
 C159 C 1.03787 -0.06735 0.43428
 N160 N 0.94756 0.07775 0.53926
 N161 N 0.93044 0.08536 0.56619
 N162 N 0.97594 0.09145 0.46885
 N163 N 0.97883 0.10857 0.44051
 N164 N 0.94556 0.07625 0.47025
 N165 N 0.92705 0.08261 0.44312
 N166 N 0.97805 0.09279 0.53868
 N167 N 0.98240 0.11109 0.56542
 Mn168 Mn 0.93497 0.04228 0.50646
 C169 C 0.95226 0.10634 0.58215
 C170 C 0.94794 0.10300 0.42492
 N171 N 1.06417 0.03792 0.46966
 N172 N 1.08451 0.03446 0.44378
 N173 N 1.05039 0.06928 0.53831
 N174 N 1.06062 0.08777 0.56341
 N175 N 1.06644 0.03908 0.53916
 N176 N 1.08803 0.03629 0.56480
 N177 N 1.04821 0.06815 0.46876
 N178 N 1.05722 0.08599 0.44219
 Mn179 Mn 1.05443 0.00317 0.50596
 Mn180 Mn 1.01329 0.08093 0.50365
 Cl181 Cl 0.99479 0.02285 0.50635
 C182 C 1.07997 0.06465 0.42692
 C183 C 1.08422 0.06690 0.57962
 C184 C 1.14644 0.16127 0.23510
 C185 C 1.15537 0.13274 0.25531
 C186 C 1.13804 0.12522 0.28692
 N187 N 1.14720 0.09630 0.30453
 N188 N 1.13201 0.08900 0.33319
 C189 C 1.10706 0.11040 0.34541
 N190 N 1.09790 0.13937 0.32783
 N191 N 1.11307 0.14665 0.29912
 C192 C 1.09003 0.10270 0.37716
 C193 C 1.09727 0.07254 0.39545
 H194 H 1.17580 0.11494 0.24779
 H195 H 1.07104 0.12115 0.38620
 H196 H 1.12570 0.17868 0.24268
 H197 H 1.11580 0.05373 0.38627
 C198 C 0.88888 -0.10845 0.23229
 C199 C 0.87360 -0.08108 0.24884
 C200 C 0.88577 -0.07178 0.28175
 N201 N 0.86873 -0.04668 0.29820
 N202 N 0.87774 -0.03991 0.32912
 C203 C 0.90398 -0.05818 0.34469
 N204 N 0.92119 -0.08307 0.32817
 N205 N 0.91222 -0.08979 0.29726
 C206 C 0.91359 -0.05202 0.37901
 C207 C 0.89841 -0.02571 0.39691
 H208 H 0.85015 -0.06821 0.23904
 H209 H 0.93386 -0.06841 0.39032
 H210 H 0.91303 -0.12022 0.24180
 H211 H 0.87909 -0.00830 0.38557
 C212 C 0.85281 0.13837 0.77769
 C213 C 0.88055 0.15205 0.75972
 C214 C 0.89067 0.13941 0.72729
 N215 N 0.91798 0.15367 0.71119
 N216 N 0.92671 0.14345 0.68122
 C217 C 0.90829 0.11864 0.66626
 N218 N 0.88105 0.10432 0.68240
 N219 N 0.87238 0.11450 0.71237
 C220 C 0.91674 0.10742 0.63297
 C221 C 0.94527 0.11939 0.61514
 H222 H 0.89483 0.17358 0.76908
 H223 H 0.89984 0.08856 0.62223
 H224 H 0.83936 0.11621 0.76858
 H225 H 0.96312 0.13743 0.62579
 C226 C 1.17886 -0.19882 0.71590
 C227 C 1.14286 -0.19365 0.71165
 C228 C 1.12926 -0.16942 0.68583
 N229 N 1.09425 -0.16366 0.68177
 N230 N 1.08217 -0.14057 0.65941
 C231 C 1.10468 -0.12224 0.64048
 N232 N 1.13959 -0.12802 0.64457
 N233 N 1.15162 -0.15113 0.66678
 C234 C 1.09212 -0.09650 0.61576
 C235 C 1.05684 -0.09218 0.60747
 H236 H 1.12482 -0.20518 0.72888
 H237 H 1.11142 -0.08147 0.60277
 H238 H 1.19643 -0.18655 0.69869
 H239 H 1.03751 -0.10797 0.61950
 C240 C 0.23322 1.13300 1.15557
 C241 C 0.25150 1.13835 1.12632
 C242 C 0.28076 1.11568 1.11629
 N243 N 0.29779 1.12266 1.08783
 N244 N 0.32452 1.10277 1.07846
 C245 C 0.33530 1.07507 1.09717
 N246 N 0.31821 1.06801 1.12562
 N247 N 0.29144 1.08793 1.13501
 C248 C 0.36529 1.05324 1.08720
 C249 C 0.38406 1.06065 1.05872
 H250 H 0.24451 1.16003 1.11019
 H251 H 0.37313 1.03144 1.10282
 H252 H 0.24050 1.11118 1.17142
 H253 H 0.37628 1.08260 1.04328
 C254 C 0.27731 0.79519 0.78937
 C255 C 0.29420 0.78566 0.81887
 C256 C 0.32273 0.80575 0.83253
 N257 N 0.33529 0.79777 0.86315
 N258 N 0.35897 0.81741 0.87727
 C259 C 0.37091 0.84584 0.86135
 N260 N 0.35872 0.85361 0.83051
 N261 N 0.33495 0.83395 0.81638
 C262 C 0.39590 0.86834 0.87752
 C263 C 0.40613 0.86210 0.91010
 H264 H 0.28410 0.76503 0.83416
 H265 H 0.40600 0.89015 0.86386
 H266 H 0.28830 0.81514 0.77381
 H267 H 0.39591 0.84031 0.92369
 C268 C 0.79024 0.88307 1.16056
 C269 C 0.76947 0.86580 1.13816
 C270 C 0.73321 0.87689 1.13035
 N271 N 0.71328 0.85762 1.11042
 N272 N 0.68026 0.86698 1.10334
 C273 C 0.66585 0.89595 1.11596
 N274 N 0.68580 0.91529 1.13589
 N275 N 0.71886 0.90588 1.14303
 C276 C 0.62965 0.90685 1.10736
 C277 C 0.60925 0.88735 1.08657
 H278 H 0.77943 0.84270 1.12684
 H279 H 0.61959 0.93115 1.11610
 H280 H 0.77972 0.90592 1.17191
 H281 H 0.61964 0.86327 1.07764
 C282 C 0.77282 1.14093 0.86792
 C283 C 0.75513 1.11172 0.85846
 C284 C 0.72412 1.09956 0.87618
 N285 N 0.70774 1.07103 0.86611
 N286 N 0.67928 1.06004 0.88150
 C287 C 0.66608 1.07717 0.90753
 N288 N 0.68251 1.10568 0.91767
 N289 N 0.71101 1.11667 0.90228
 C290 C 0.63426 1.06546 0.92427
 C291 C 0.61706 1.03632 0.91415
 H292 H 0.76374 1.09759 0.83724
 H293 H 0.62406 1.08011 0.94452
 H294 H 0.76397 1.15451 0.88940
 H295 H 0.62749 1.02164 0.89403
 C296 C 0.15796 0.23393 0.13701
 C297 C 0.13072 0.25612 0.14608
 C298 C 0.11925 0.28659 0.12614
 N299 N 0.09239 0.30656 0.13687
 N300 N 0.08147 0.33425 0.11951
 C301 C 0.09694 0.34319 0.09065
 N302 N 0.12385 0.32319 0.07984
 N303 N 0.13481 0.29541 0.09725
 C304 C 0.08482 0.37411 0.07149
 C305 C 0.05724 0.39468 0.08262
 H306 H 0.11703 0.25105 0.16886
 H307 H 0.09770 0.38080 0.04866
 H308 H 0.17168 0.23882 0.11421
 H309 H 0.04459 0.38766 0.10549
 C310 C -0.14115 0.22923 -0.14400
 C311 C -0.15522 0.24815 -0.11848
 C312 C -0.14214 0.28214 -0.11050
 N313 N -0.15768 0.30052 -0.08654
 N314 N -0.14659 0.33177 -0.07963
 C315 C -0.11962 0.34574 -0.09650
 N316 N -0.10404 0.32732 -0.12040
 N317 N -0.11513 0.29610 -0.12731
 C318 C -0.10693 0.38001 -0.08915
 C319 C -0.12156 0.39982 -0.06458
 H320 H -0.17728 0.23847 -0.10477
 H321 H -0.08491 0.38955 -0.10302
 H322 H -0.11923 0.23906 -0.15781
 H323 H -0.14341 0.39044 -0.05040
 C324 C 0.17897 0.72489 -0.18403
 C325 C 0.14479 0.71350 -0.18711
 C326 C 0.13041 0.68880 -0.16291
 N327 N 0.09695 0.67818 -0.16615
 N328 N 0.08388 0.65569 -0.14456
 C329 C 0.10371 0.64293 -0.11885
 N330 N 0.13715 0.65361 -0.11556
 N331 N 0.15022 0.67612 -0.13716
 C332 C 0.08966 0.61737 -0.09531
 C333 C 0.05579 0.60540 -0.09901
 H334 H 0.12831 0.72281 -0.20744
 H335 H 0.10642 0.60714 -0.07556
 H336 H 0.19499 0.71549 -0.16340
 H337 H 0.03938 0.61563 -0.11900
 C338 C -0.11379 0.79908 0.15630
 C339 C -0.13115 0.77865 0.13398
 C340 C -0.11719 0.74492 0.12450
 N341 N -0.13582 0.72576 0.10339
 N342 N -0.12412 0.69477 0.09511
 C343 C -0.09337 0.68169 0.10768
 N344 N -0.07465 0.70088 0.12876
 N345 N -0.08637 0.73193 0.13706
 C346 C -0.08047 0.64736 0.09856
 C347 C -0.09927 0.62785 0.07651
 H348 H -0.15642 0.78700 0.12393
 H349 H -0.05581 0.63760 0.10886
 H350 H -0.08852 0.79073 0.16633
 H351 H -0.12365 0.63797 0.06595
 C352 C 1.15062 0.16935 0.76483
 C353 C 1.16219 0.14144 0.74650
 C354 C 1.14471 0.13214 0.71536
 N355 N 1.15515 0.10352 0.69936
 N356 N 1.13958 0.09494 0.67122
 C357 C 1.11303 0.11474 0.65793
 N358 N 1.10269 0.14338 0.67388
 N359 N 1.11817 0.15190 0.70203
 C360 C 1.09540 0.10586 0.62680
 C361 C 1.10279 0.07561 0.61026
 H362 H 1.18443 0.12584 0.75512
 H363 H 1.07546 0.12354 0.61690
 H364 H 1.12791 0.18419 0.75603
 H365 H 1.12211 0.05738 0.62033
 C366 C 0.90302 -0.09434 0.79493
 C367 C 0.88621 -0.06810 0.77645
 C368 C 0.89661 -0.06036 0.74239
 N369 N 0.87834 -0.03654 0.72386
 N370 N 0.88593 -0.03134 0.69219
 C371 C 0.91190 -0.04996 0.67793
 N372 N 0.93029 -0.07356 0.69651
 N373 N 0.92276 -0.07869 0.72813
 C374 C 0.92007 -0.04558 0.64293
 C375 C 0.90414 -0.02030 0.62282
 H376 H 0.86295 -0.05533 0.78570
 H377 H 0.94000 -0.06243 0.63288
 H378 H 0.92675 -0.10614 0.78553
 H379 H 0.88519 -0.00240 0.63280
 C380 C 1.13402 -0.14538 0.25110
 C381 C 1.10627 -0.15545 0.27098
 C382 C 1.09825 -0.13683 0.30134
 N383 N 1.06949 -0.14449 0.31926
 N384 N 1.06223 -0.12747 0.34658
 C385 C 1.08354 -0.10225 0.35703
 N386 N 1.11233 -0.09475 0.33921
 N387 N 1.11951 -0.11167 0.31192
 C388 C 1.07604 -0.08291 0.38695
 C389 C 1.04567 -0.08752 0.40502
 H390 H 1.09024 -0.17688 0.26426
 H391 H 1.09472 -0.06400 0.39458
 H392 H 1.14901 -0.12334 0.25822
 H393 H 1.02657 -0.10593 0.39723
 C394 C 0.84279 0.13518 0.22752
 C395 C 0.87211 0.14630 0.24507
 C396 C 0.88224 0.13355 0.27822
 N397 N 0.91109 0.14631 0.29302
 N398 N 0.92015 0.13650 0.32363
 C399 C 0.90057 0.11358 0.34063
 N400 N 0.87177 0.10067 0.32579
 N401 N 0.86271 0.11048 0.29512
 C402 C 0.90978 0.10302 0.37469
 C403 C 0.93939 0.11483 0.39109
 H404 H 0.88809 0.16644 0.23467
 H405 H 0.89273 0.08514 0.38716
 H406 H 0.82761 0.11413 0.23730
 H407 H 0.95711 0.13210 0.37871
 C408 C 0.15422 0.24552 -0.14441
 C409 C 0.12431 0.26448 -0.15416
 C410 C 0.11144 0.29372 -0.13492
 N411 N 0.08165 0.31103 -0.14435
 N412 N 0.06986 0.33753 -0.12717
 C413 C 0.08743 0.34775 -0.09990
 N414 N 0.11722 0.33045 -0.09048
 N415 N 0.12897 0.30394 -0.10763
 C416 C 0.07492 0.37726 -0.08088
 C417 C 0.04420 0.39531 -0.08948
 H418 H 0.10989 0.25781 -0.17616
 H419 H 0.09039 0.38512 -0.05994
 H420 H 0.16798 0.25253 -0.12213
 H421 H 0.02863 0.38731 -0.11030
 C422 C -0.14418 0.22653 0.14979
 C423 C -0.15508 0.24827 0.12378
 C424 C -0.13828 0.28141 0.11746
 N425 N -0.15298 0.30415 0.09538
 N426 N -0.13887 0.33474 0.09021
 C427 C -0.10951 0.34382 0.10687
 N428 N -0.09457 0.32095 0.12876
 N429 N -0.10878 0.29034 0.13404
 C430 C -0.09396 0.37772 0.10097
 C431 C -0.11128 0.40211 0.08086
 H432 H -0.17774 0.24201 0.10893
 H433 H -0.06859 0.38315 0.11165
 H434 H -0.12187 0.23367 0.16472
 H435 H -0.13674 0.39633 0.07056
 C436 C -0.09611 0.81404 -0.12671
 C437 C -0.11268 0.79341 -0.10335
 C438 C -0.10346 0.75694 -0.09840
 N439 N -0.12330 0.73729 -0.07827
 N440 N -0.11701 0.70367 -0.07511
 C441 C -0.09075 0.68838 -0.09209
 N442 N -0.07068 0.70806 -0.11207
 N443 N -0.07701 0.74175 -0.11527
 C444 C -0.08379 0.65126 -0.08859
 C445 C -0.10441 0.63088 -0.06836
 H446 H -0.13542 0.80316 -0.09051
 H447 H -0.06141 0.64011 -0.10095
 H448 H -0.07286 0.80433 -0.13876
 H449 H -0.12645 0.64220 -0.05565
 C450 C 0.12184 0.76443 0.17103
 C451 C 0.13201 0.74723 0.14275
 C452 C 0.11359 0.71681 0.13083
 N453 N 0.12488 0.70085 0.10341
 N454 N 0.10854 0.67339 0.09231
 C455 C 0.08022 0.66081 0.10823
 N456 N 0.06891 0.67679 0.13564
 N457 N 0.08526 0.70423 0.14674
 C458 C 0.06174 0.63041 0.09640
 C459 C 0.07219 0.61256 0.06863
 H460 H 0.15419 0.75627 0.12882
 H461 H 0.03919 0.62182 0.11008
 H462 H 0.09972 0.75526 0.18497
 H463 H 0.09468 0.62097 0.05480
 C464 C 0.24223 1.15706 0.85015
 C465 C 0.25920 1.12794 0.83827
 C466 C 0.29045 1.11314 0.85562
 N467 N 0.30632 1.08397 0.84501
 N468 N 0.33436 1.07057 0.86095
 C469 C 0.34756 1.08587 0.88805
 N470 N 0.33174 1.11501 0.89855
 N471 N 0.30377 1.12835 0.88267
 C472 C 0.37833 1.07162 0.90628
 C473 C 0.39555 1.04141 0.89753
 H474 H 0.24935 1.11575 0.81643
 H475 H 0.38753 1.08533 0.92750
 H476 H 0.25233 1.16860 0.87224
 H477 H 0.38649 1.02740 0.87645
 C478 C 0.21402 0.85218 1.16208
 C479 C 0.23286 0.83747 1.13666
 C480 C 0.26496 0.85369 1.12432
 N481 N 0.28474 0.83816 1.10119
 N482 N 0.31430 0.85233 1.09079
 C483 C 0.32518 0.88253 1.10313
 N484 N 0.30532 0.89811 1.12609
 N485 N 0.27582 0.88396 1.13648
 C486 C 0.35810 0.89824 1.09242
 C487 C 0.37960 0.88296 1.06930
 H488 H 0.22485 0.81328 1.12667
 H489 H 0.36567 0.92221 1.10318
 H490 H 0.22287 0.87608 1.17211
 H491 H 0.37196 0.85909 1.05839
 C492 C 0.76214 1.14598 1.13354
 C493 C 0.74239 1.11773 1.14299
 C494 C 0.71183 1.10643 1.12373
 N495 N 0.69308 1.07941 1.13487
 N496 N 0.66537 1.06880 1.11795
 C497 C 0.65528 1.08475 1.08915
 N498 N 0.67408 1.11176 1.07793
 N499 N 0.70181 1.12242 1.09490
 C500 C 0.62448 1.07309 1.07033
 C501 C 0.60411 1.04625 1.08213
 H502 H 0.74934 1.10342 1.16540
 H503 H 0.61769 1.08581 1.04705
 H504 H 0.75500 1.16041 1.11125
 H505 H 0.61096 1.03384 1.10554
 C506 C 0.80803 0.89732 0.87246
 C507 C 0.78969 0.87848 0.89603
 C508 C 0.75264 0.88576 0.90306
 N509 N 0.73544 0.86564 0.92506
 N510 N 0.70142 0.87101 0.93058
 C511 C 0.68340 0.89663 0.91417
 N512 N 0.70063 0.91681 0.89230
 N513 N 0.73461 0.91147 0.88680
 C514 C 0.64587 0.90293 0.91945
 C515 C 0.62635 0.88428 0.94223
 H516 H 0.80217 0.85645 0.90842
 H517 H 0.63332 0.92368 0.90518
 H518 H 0.79564 0.91948 0.86021
 H519 H 0.63855 0.86387 0.95716
   
