data_POSCAR
  _audit_creation_date              2014-09-24
  _audit_creation_method            'ToBaCCo'
  _symmetry_space_group_name_H-M    'P1'
  _symmetry_Int_Tables_number       1
  _symmetry_cell_setting            triclinic
  loop_
  _symmetry_equiv_pos_as_xyz
 x,y,z
_cell_length_a 28.0982
_cell_length_b 28.7583
_cell_length_c 31.1294
_cell_angle_alpha 90.096800
_cell_angle_beta 89.833300
_cell_angle_gamma 121.561700
loop_
  _atom_site_label
  _atom_site_type_symbol
  _atom_site_fract_x
  _atom_site_fract_y
  _atom_site_fract_z
O1 O 0.05303 0.55786 1.29643
 O2 O -0.05435 0.51566 1.21353
 O3 O -0.05529 0.50694 1.29697
 O4 O 0.05307 0.56499 1.21308
 O5 O 0.04708 0.48567 1.20599
 O6 O -0.06057 0.42782 1.29062
 O7 O -0.06081 0.43666 1.20745
 O8 O 0.04917 0.47948 1.28942
 Cu9 Cu -0.00039 0.54421 1.25585
 Cu10 Cu -0.00683 0.44938 1.24804
 C11 C 0.06990 0.52623 1.30666
 C12 C -0.07534 0.46971 1.19524
 C13 C -0.07667 0.45736 1.30777
 C14 C 0.06747 0.53488 1.19444
 O15 O 0.44530 0.50095 1.29731
 O16 O 0.48391 0.43868 1.21131
 O17 O 0.49142 0.44256 1.29493
 O18 O 0.43734 0.49580 1.21357
 O19 O 0.52080 0.57093 1.20900
 O20 O 0.57502 0.51737 1.28985
 O21 O 0.56730 0.51382 1.20691
 O22 O 0.52851 0.57528 1.29351
 Cu23 Cu 0.45610 0.46204 1.25495
 Cu24 Cu 0.55610 0.55217 1.24955
 C25 C 0.48079 0.54839 1.31118
 C26 C 0.53180 0.46607 1.19385
 C27 C 0.54245 0.47052 1.30585
 C28 C 0.47054 0.54174 1.19645
 O29 O 0.50857 0.95206 1.29581
 O30 O 0.55753 1.05662 1.21071
 O31 O 0.55354 1.05687 1.29500
 O32 O 0.51251 0.95090 1.21249
 O33 O 0.43050 0.94360 1.20627
 O34 O 0.46849 1.04172 1.29471
 O35 O 0.47478 1.04809 1.20998
 O36 O 0.42326 0.93582 1.28810
 Cu37 Cu 0.54166 1.00571 1.25374
 Cu38 Cu 0.44110 0.99196 1.24975
 C39 C 0.45682 0.92421 1.30510
 C40 C 0.52412 1.06950 1.19537
 C41 C 0.51716 1.06566 1.31071
 C42 C 0.46453 0.92927 1.19535
 O43 O 0.94540 0.50314 0.70929
 O44 O 1.05577 0.56228 0.79199
 O45 O 1.05522 0.55756 0.70809
 O46 O 0.94736 0.51018 0.79276
 O47 O 0.94362 0.43154 0.79468
 O48 O 1.05345 0.48062 0.71224
 O49 O 1.05308 0.48419 0.79527
 O50 O 0.94578 0.42695 0.71113
 Cu51 Cu 1.00125 0.54116 0.74999
 Cu52 Cu 0.99865 0.44804 0.75383
 C53 C 0.92613 0.45448 0.69634
 C54 C 1.07325 0.53310 0.80753
 C55 C 1.07404 0.52779 0.69618
 C56 C 0.92661 0.46231 0.80765
 O57 O 0.48250 0.43789 0.70783
 O58 O 0.43584 0.49157 0.79451
 O59 O 0.43347 0.49371 0.71099
 O60 O 0.48442 0.43677 0.79212
 O61 O 0.56624 0.51406 0.79181
 O62 O 0.51590 0.57023 0.71012
 O63 O 0.51754 0.56919 0.79337
 O64 O 0.56484 0.51449 0.70722
 Cu65 Cu 0.45090 0.45711 0.75111
 Cu66 Cu 0.54959 0.54953 0.75036
 C67 C 0.53111 0.46735 0.69209
 C68 C 0.46902 0.53907 0.80919
 C69 C 0.46578 0.54196 0.69718
 C70 C 0.53333 0.46682 0.80714
 O71 O 0.55327 0.05540 0.70879
 O72 O 0.51214 -0.05049 0.79147
 O73 O 0.50501 -0.05116 0.70801
 O74 O 0.56110 0.05507 0.79232
 O75 O 0.47928 0.04861 0.79606
 O76 O 0.42343 -0.05880 0.71359
 O77 O 0.42985 -0.05809 0.79639
 O78 O 0.47043 0.04598 0.71258
 Cu79 Cu 0.54121 0.00311 0.74946
 Cu80 Cu 0.44262 -0.00621 0.75536
 C81 C 0.51912 0.06909 0.69663
 C82 C 0.46358 -0.07260 0.80768
 C83 C 0.45392 -0.07447 0.69697
 C84 C 0.52960 0.07005 0.80825
 O85 O 0.41984 0.67091 0.95329
 O86 O 0.42384 0.76288 0.96510
 C87 C 0.38886 0.76815 0.94324
 O88 O 0.33744 0.74385 0.95236
 O89 O 0.24289 0.65419 0.96555
 C90 C 0.23568 0.61319 0.94437
 O91 O 0.25888 0.58693 0.95416
 O92 O 0.34986 0.58638 0.96769
 C93 C 0.39358 0.61983 0.94692
 O94 O 0.42225 0.65823 1.03864
 O95 O 0.42121 0.74706 1.05082
 C96 C 0.39408 0.76976 1.05964
 O97 O 0.35243 0.76225 1.03784
 O98 O 0.25945 0.67006 1.05095
 C99 C 0.23291 0.61948 1.05911
 O100 O 0.24150 0.58571 1.03959
 O101 O 0.33559 0.58989 1.05293
 C102 C 0.38783 0.61577 1.05952
 Cr103 Cr 0.41864 0.70830 1.00199
 Cr104 Cr 0.29969 0.70621 1.00175
 Cr105 Cr 0.29796 0.59026 1.00360
 O106 O 0.33871 0.66820 1.00257
 O107 O 0.57355 0.34118 0.96330
 O108 O 0.57803 0.25382 0.95124
 C109 C 0.60527 0.23086 0.94370
 O110 O 0.64622 0.23861 0.96654
 O111 O 0.73802 0.33222 0.95349
 C112 C 0.76160 0.38220 0.94346
 O113 O 0.75418 0.41613 0.96414
 O114 O 0.66007 0.41133 0.95186
 C115 C 0.60832 0.38476 0.94379
 O116 O 0.57413 0.32754 1.04877
 O117 O 0.57360 0.23717 1.03693
 C118 C 0.60745 0.22934 1.05810
 O119 O 0.65980 0.25681 1.05188
 O120 O 0.75500 0.34858 1.03856
 C121 C 0.76424 0.39146 1.05794
 O122 O 0.73721 0.41440 1.05000
 O123 O 0.64521 0.41287 1.03736
 C124 C 0.60106 0.37820 1.05712
 Cr125 Cr 0.57799 0.29143 1.00014
 Cr126 Cr 0.69815 0.29558 1.00267
 Cr127 Cr 0.69760 0.41056 1.00085
 O128 O 0.65792 0.33264 1.00136
 O129 O 0.65213 0.41557 0.53794
 O130 O 0.73772 0.40592 0.55301
 C131 C 0.75883 0.37733 0.56124
 O132 O 0.74932 0.33668 0.53839
 O133 O 0.65021 0.24986 0.55042
 C134 C 0.59887 0.22882 0.55924
 O135 O 0.56649 0.23836 0.53762
 O136 O 0.57634 0.33307 0.54771
 C137 C 0.60599 0.38335 0.55637
 O138 O 0.66888 0.41341 0.45292
 O139 O 0.75771 0.40887 0.46755
 C140 C 0.76019 0.37355 0.44465
 O141 O 0.73187 0.32289 0.45267
 O142 O 0.63628 0.23295 0.46571
 C143 C 0.59423 0.22584 0.44493
 O144 O 0.57228 0.25397 0.45145
 O145 O 0.57965 0.34702 0.46205
 C146 C 0.61786 0.38839 0.44206
 Cr147 Cr 0.70236 0.40787 0.50283
 Cr148 Cr 0.69069 0.28736 0.50179
 Cr149 Cr 0.57687 0.29453 0.49981
 O150 O 0.65643 0.32987 0.50154
 O151 O 0.33926 0.59230 0.54923
 O152 O 0.24154 0.57946 0.53330
 C153 C 0.23335 0.61051 0.55716
 O154 O 0.25519 0.66086 0.54910
 O155 O 0.34102 0.75882 0.53553
 C156 C 0.38230 0.76925 0.55890
 O157 O 0.41324 0.75055 0.55051
 O158 O 0.42405 0.66686 0.54032
 C159 C 0.38984 0.62308 0.56021
 O160 O 0.35936 0.59298 0.46504
 O161 O 0.26492 0.58603 0.44846
 C162 C 0.23606 0.60715 0.44062
 O163 O 0.23825 0.64479 0.46360
 O164 O 0.32847 0.74005 0.45055
 C165 C 0.38002 0.76670 0.44093
 O166 O 0.41696 0.76520 0.46361
 O167 O 0.42515 0.67990 0.45375
 C168 C 0.40288 0.62951 0.44579
 Cr169 Cr 0.30261 0.59071 0.49903
 Cr170 Cr 0.29237 0.69986 0.49969
 Cr171 Cr 0.41689 0.71408 0.50198
 O172 O 0.33758 0.66830 0.49999
 C173 C 0.38990 0.56871 0.38534
 C174 C 0.40866 0.54858 0.35327
 C175 C 0.46600 0.57053 0.34579
 C176 C 0.50523 0.61271 0.37402
 C177 C 0.48547 0.63303 0.40711
 C178 C 0.42725 0.61140 0.41206
 C179 C 0.52464 0.67224 0.43584
 N180 N 0.57959 0.69036 0.43170
 N181 N 0.59817 0.67115 0.40141
 C182 C 0.56319 0.63272 0.37300
 H183 H 0.34527 0.55080 0.38901
 H184 H 0.37733 0.51622 0.33321
 H185 H 0.51243 0.68767 0.46249
 H186 H 0.58174 0.61732 0.35151
 C187 C 0.45258 0.84969 0.40304
 C188 C 0.47182 0.88732 0.36960
 C189 C 0.43709 0.88122 0.33499
 C190 C 0.38373 0.83206 0.33184
 C191 C 0.36506 0.79234 0.36525
 C192 C 0.39871 0.80300 0.40248
 C193 C 0.31460 0.74207 0.35896
 N194 N 0.28450 0.73299 0.32267
 N195 N 0.30171 0.77009 0.29164
 C196 C 0.35030 0.81881 0.29469
 H197 H 0.47988 0.85811 0.43027
 H198 H 0.51319 0.92349 0.37243
 H199 H 0.29950 0.70872 0.38134
 H200 H 0.36300 0.84528 0.26706
 C201 C 0.14274 0.57766 0.41216
 C202 C 0.10250 0.55772 0.38008
 C203 C 0.11360 0.54435 0.33961
 C204 C 0.16691 0.55233 0.33093
 C205 C 0.20855 0.57381 0.36340
 C206 C 0.19573 0.58558 0.40470
 C207 C 0.26224 0.58496 0.35259
 N208 N 0.27260 0.57360 0.31258
 N209 N 0.23322 0.55247 0.28247
 C210 C 0.18088 0.54168 0.29019
 H211 H 0.13223 0.58682 0.44329
 H212 H 0.06212 0.55245 0.38695
 H213 H 0.29652 0.60372 0.37501
 H214 H 0.15095 0.52550 0.26428
 C215 C 0.55217 0.41063 0.40993
 C216 C 0.53371 0.42997 0.37707
 C217 C 0.56360 0.44878 0.33856
 C218 C 0.61226 0.44626 0.33244
 C219 C 0.63085 0.42590 0.36582
 C220 C 0.60096 0.40906 0.40531
 C221 C 0.67750 0.42117 0.35767
 N222 N 0.70407 0.43687 0.31922
 N223 N 0.68694 0.45642 0.28815
 C224 C 0.64190 0.46142 0.29334
 H225 H 0.52842 0.39746 0.43960
 H226 H 0.49627 0.43131 0.38213
 H227 H 0.69260 0.40414 0.38090
 H228 H 0.62924 0.47623 0.26653
 C229 C 0.60801 0.17949 0.38406
 C230 C 0.58931 0.14036 0.35194
 C231 C 0.53198 0.10254 0.34548
 C232 C 0.49283 0.10316 0.37484
 C233 C 0.51255 0.14378 0.40770
 C234 C 0.57055 0.18285 0.41149
 C235 C 0.47372 0.14198 0.43744
 N236 N 0.41901 0.10273 0.43451
 N237 N 0.40048 0.06429 0.40447
 C238 C 0.43522 0.06260 0.37512
 H239 H 0.65254 0.20802 0.38716
 H240 H 0.62063 0.14101 0.33111
 H241 H 0.48615 0.17012 0.46392
 H242 H 0.41685 0.02797 0.35396
 C243 C 0.85302 0.43898 0.41436
 C244 C 0.89233 0.45929 0.38138
 C245 C 0.87956 0.43412 0.34106
 C246 C 0.82532 0.38859 0.33326
 C247 C 0.78482 0.36835 0.36667
 C248 C 0.79950 0.39312 0.40794
 C249 C 0.73032 0.32541 0.35691
 N250 N 0.71809 0.30351 0.31691
 N251 N 0.75635 0.32193 0.28584
 C252 C 0.80940 0.36381 0.29254
 H253 H 0.86476 0.45893 0.44542
 H254 H 0.93348 0.49452 0.38760
 H255 H 0.69686 0.30982 0.38016
 H256 H 0.83821 0.37780 0.26577
 C257 C 0.61544 0.42559 1.12619
 C258 C 0.59885 0.44706 1.15899
 C259 C 0.54669 0.44245 1.15784
 C260 C 0.51118 0.41702 1.12194
 C261 C 0.52792 0.39458 1.08873
 C262 C 0.58028 0.39859 1.09131
 C263 C 0.49254 0.37082 1.05307
 N264 N 0.44393 0.36999 1.05085
 N265 N 0.42852 0.39162 1.08166
 C266 C 0.46047 0.41529 1.11693
 H267 H 0.65603 0.42979 1.12814
 H268 H 0.62693 0.46716 1.18571
 H269 H 0.50334 0.35363 1.02664
 H270 H 0.44629 0.43344 1.14007
 C271 C 0.81438 0.37939 1.11781
 C272 C 0.85289 0.39861 1.15109
 C273 C 0.88566 0.45462 1.16121
 C274 C 0.87963 0.49240 1.13493
 C275 C 0.84293 0.47228 1.09880
 C276 C 0.80811 0.41521 1.09167
 C277 C 0.84411 0.51023 1.06957
 N278 N 0.87580 0.56434 1.07755
 N279 N 0.90737 0.58335 1.11244
 C280 C 0.91065 0.54976 1.14110
 H281 H 0.78877 0.33572 1.11271
 H282 H 0.85562 0.36847 1.16999
 H283 H 0.82190 0.49787 1.03956
 H284 H 0.93823 0.56980 1.16754
 C285 C 0.61408 0.19657 1.13014
 C286 C 0.59376 0.15841 1.16334
 C287 C 0.54269 0.10895 1.15942
 C288 C 0.51239 0.09688 1.12036
 C289 C 0.53413 0.13490 1.08588
 C290 C 0.58459 0.18610 1.09150
 C291 C 0.50555 0.11913 1.04630
 N292 N 0.45742 0.07011 1.04243
 N293 N 0.43615 0.03534 1.07514
 C294 C 0.46200 0.04688 1.11377
 H295 H 0.65301 0.23499 1.13491
 H296 H 0.61777 0.16795 1.19270
 H297 H 0.52139 0.14422 1.01791
 H298 H 0.44300 0.01638 1.13856
 C299 C 0.38283 0.58040 1.13277
 C300 C 0.40296 0.56298 1.16598
 C301 C 0.45098 0.56045 1.16031
 C302 C 0.47810 0.57362 1.11975
 C303 C 0.45771 0.59142 1.08587
 C304 C 0.41007 0.59567 1.09288
 C305 C 0.48471 0.60234 1.04563
 N306 N 0.52882 0.59596 1.04007
 N307 N 0.54776 0.57914 1.07183
 C308 C 0.52390 0.56759 1.11132
 H309 H 0.34620 0.58294 1.13854
 H310 H 0.38133 0.55212 1.19659
 H311 H 0.47087 0.61478 1.01811
 H312 H 0.54050 0.55295 1.13536
 C313 C 0.19174 0.56744 1.12592
 C314 C 0.15180 0.54703 1.15851
 C315 C 0.10810 0.55710 1.15864
 C316 C 0.10339 0.58663 1.12406
 C317 C 0.14410 0.60739 1.09086
 C318 C 0.18911 0.59843 1.09243
 C319 C 0.13699 0.63453 1.05614
 N320 N 0.09243 0.64077 1.05515
 N321 N 0.05418 0.62123 1.08623
 C322 C 0.05792 0.59418 1.12039
 H323 H 0.22546 0.55956 1.12713
 H324 H 0.15547 0.52370 1.18415
 H325 H 0.16559 0.64986 1.02929
 H326 H 0.02465 0.57792 1.14370
 C327 C 0.41455 0.85760 1.08954
 C328 C 0.43164 0.89610 1.12213
 C329 C 0.44780 0.88703 1.16213
 C330 C 0.44521 0.83721 1.16994
 C331 C 0.42712 0.79744 1.13683
 C332 C 0.41265 0.80847 1.09597
 C333 C 0.42193 0.74714 1.14655
 N334 N 0.43521 0.73819 1.18627
 N335 N 0.45272 0.77573 1.21710
 C336 C 0.45792 0.82475 1.21040
 H337 H 0.40314 0.86654 1.05878
 H338 H 0.43275 0.93359 1.11582
 H339 H 0.40637 0.71429 1.12352
 H340 H 0.47113 0.85304 1.23698
 C341 C 0.62011 0.43373 0.62408
 C342 C 0.60192 0.45385 0.65684
 C343 C 0.54861 0.44667 0.65561
 C344 C 0.51375 0.42056 0.61949
 C345 C 0.53223 0.39978 0.58628
 C346 C 0.58546 0.40568 0.58920
 C347 C 0.49748 0.37553 0.55032
 N348 N 0.44765 0.37223 0.54804
 N349 N 0.43042 0.39198 0.57901
 C350 C 0.46176 0.41626 0.61442
 H351 H 0.66118 0.43910 0.62642
 H352 H 0.62934 0.47429 0.68385
 H353 H 0.50976 0.36015 0.52355
 H354 H 0.44600 0.43286 0.63758
 C355 C 0.59376 0.15250 0.59900
 C356 C 0.57465 0.11440 0.63193
 C357 C 0.53653 0.11132 0.66266
 C358 C 0.51790 0.14887 0.66013
 C359 C 0.53821 0.18841 0.62654
 C360 C 0.57581 0.18944 0.59535
 C361 C 0.52188 0.22709 0.62646
 N362 N 0.48657 0.22544 0.65694
 N363 N 0.46688 0.18813 0.68791
 C364 C 0.48137 0.15012 0.69070
 H365 H 0.62271 0.15275 0.57577
 H366 H 0.58953 0.08644 0.63300
 H367 H 0.53749 0.25941 0.60320
 H368 H 0.46467 0.12247 0.71744
 C369 C 0.83798 0.44924 0.60310
 C370 C 0.87824 0.46732 0.63515
 C371 C 0.88109 0.43067 0.66324
 C372 C 0.84045 0.37370 0.65917
 C373 C 0.79859 0.35559 0.62680
 C374 C 0.79845 0.39369 0.59780
 C375 C 0.75675 0.29985 0.62556
 N376 N 0.75768 0.26429 0.65341
 N377 N 0.79737 0.28069 0.68291
 C378 C 0.83842 0.33378 0.68688
 H379 H 0.83849 0.47908 0.58158
 H380 H 0.90831 0.51075 0.63742
 H381 H 0.72246 0.28412 0.60361
 H382 H 0.86778 0.34312 0.71229
 C383 C 0.39624 0.55092 0.59727
 C384 C 0.41366 0.53106 0.63050
 C385 C 0.44526 0.56479 0.66466
 C386 C 0.45719 0.61926 0.66627
 C387 C 0.43958 0.63962 0.63219
 C388 C 0.40979 0.60525 0.59695
 C389 C 0.45046 0.69312 0.63554
 N390 N 0.47733 0.72402 0.67040
 N391 N 0.49356 0.70490 0.70242
 C392 C 0.48417 0.65363 0.70171
 H393 H 0.37266 0.52373 0.57105
 H394 H 0.40337 0.48916 0.62897
 H395 H 0.43697 0.71040 0.61139
 H396 H 0.49672 0.64009 0.72938
 C397 C 0.45322 0.84121 0.60629
 C398 C 0.47045 0.87827 0.64000
 C399 C 0.43199 0.88321 0.66572
 C400 C 0.37345 0.84558 0.65839
 C401 C 0.35611 0.80756 0.62358
 C402 C 0.39664 0.80657 0.59655
 C403 C 0.29844 0.76995 0.61830
 N404 N 0.26079 0.77009 0.64532
 N405 N 0.27662 0.80470 0.67800
 C406 C 0.33109 0.84174 0.68575
 H407 H 0.48496 0.84059 0.58686
 H408 H 0.51504 0.90488 0.64475
 H409 H 0.28229 0.73928 0.59389
 H410 H 0.33930 0.86555 0.71436
 C411 C 0.16380 0.61111 0.60545
 C412 C 0.12626 0.59195 0.63947
 C413 C 0.11677 0.54714 0.66451
 C414 C 0.15030 0.52383 0.65601
 C415 C 0.18898 0.54388 0.62088
 C416 C 0.19461 0.58716 0.59470
 C417 C 0.22262 0.52139 0.61446
 N418 N 0.21816 0.48195 0.64076
 N419 N 0.18296 0.46373 0.67373
 C420 C 0.14957 0.48341 0.68253
 H421 H 0.16792 0.64474 0.58668
 H422 H 0.10285 0.61168 0.64502
 H423 H 0.25356 0.53510 0.58971
 H424 H 0.12501 0.46796 0.71123
 C425 C 0.43350 0.62666 0.87472
 C426 C 0.45178 0.60738 0.84142
 C427 C 0.45133 0.55879 0.84594
 C428 C 0.43442 0.53012 0.88546
 C429 C 0.41617 0.54986 0.91961
 C430 C 0.41459 0.59811 0.91366
 C431 C 0.40199 0.52136 0.95897
 N432 N 0.40535 0.47628 0.96331
 N433 N 0.42219 0.45772 0.93118
 C434 C 0.43694 0.48308 0.89254
 H435 H 0.43302 0.66369 0.86968
 H436 H 0.46522 0.62995 0.81151
 H437 H 0.38939 0.53468 0.98679
 H438 H 0.45134 0.46662 0.86809
 C439 C 0.14621 0.59227 0.91234
 C440 C 0.10713 0.57343 0.87927
 C441 C 0.11763 0.55617 0.84029
 C442 C 0.16966 0.56035 0.83371
 C443 C 0.20972 0.57981 0.86725
 C444 C 0.19704 0.59454 0.90736
 C445 C 0.26186 0.58559 0.85871
 N446 N 0.27233 0.57193 0.81962
 N447 N 0.23455 0.55339 0.78833
 C448 C 0.18377 0.54737 0.79398
 H449 H 0.13610 0.60407 0.94248
 H450 H 0.06773 0.57096 0.88456
 H451 H 0.29502 0.60198 0.88214
 H452 H 0.15538 0.53363 0.76714
 C453 C 0.45629 0.85803 0.91169
 C454 C 0.47433 0.89666 0.87895
 C455 C 0.44569 0.88390 0.83987
 C456 C 0.39993 0.83031 0.83264
 C457 C 0.38163 0.79087 0.86583
 C458 C 0.40916 0.80563 0.90616
 C459 C 0.33727 0.73746 0.85694
 N460 N 0.31278 0.72510 0.81771
 N461 N 0.32987 0.76228 0.78665
 C462 C 0.37268 0.81431 0.79272
 H463 H 0.47816 0.86974 0.94213
 H464 H 0.50985 0.93736 0.88462
 H465 H 0.32252 0.70508 0.88033
 H466 H 0.38582 0.84237 0.76609
 C467 C 0.55833 0.37372 0.87558
 C468 C 0.54092 0.39383 0.84238
 C469 C 0.55156 0.44718 0.84374
 C470 C 0.57758 0.47986 0.88066
 C471 C 0.59590 0.45953 0.91416
 C472 C 0.58742 0.40654 0.91087
 C473 C 0.62019 0.49226 0.95083
 N474 N 0.62558 0.54183 0.95361
 N475 N 0.60798 0.56074 0.92241
 C476 C 0.58399 0.53150 0.88624
 H477 H 0.54994 0.33256 0.87329
 H478 H 0.51977 0.36780 0.81501
 H479 H 0.63384 0.47856 0.97776
 H480 H 0.56906 0.54859 0.86291
 C481 C 0.85230 0.45136 0.91141
 C482 C 0.89218 0.47081 0.87868
 C483 C 0.88174 0.44182 0.84020
 C484 C 0.82895 0.39373 0.83371
 C485 C 0.78833 0.37374 0.86696
 C486 C 0.80082 0.40231 0.90661
 C487 C 0.73581 0.32674 0.85861
 N488 N 0.72528 0.30163 0.81987
 N489 N 0.76342 0.32057 0.78871
 C490 C 0.81465 0.36585 0.79426
 H491 H 0.86235 0.47409 0.94121
 H492 H 0.93209 0.50807 0.88387
 H493 H 0.70252 0.31021 0.88195
 H494 H 0.84328 0.38045 0.76753
 C495 C 0.58096 0.14083 0.91477
 C496 C 0.56300 0.10200 0.88208
 C497 C 0.55176 0.11350 0.84101
 C498 C 0.56078 0.16580 0.83221
 C499 C 0.57869 0.20527 0.86544
 C500 C 0.58787 0.19214 0.90734
 C501 C 0.58865 0.25726 0.85500
 N502 N 0.58072 0.26839 0.81425
 N503 N 0.56393 0.23127 0.78314
 C504 C 0.55396 0.18052 0.79071
 H505 H 0.58833 0.13029 0.94644
 H506 H 0.55675 0.06227 0.88911
 H507 H 0.60405 0.28967 0.87841
 H508 H 0.54199 0.15248 0.76413
   
