data_POSCAR
  _audit_creation_date              2014-09-24
  _audit_creation_method            'ToBaCCo'
  _symmetry_space_group_name_H-M    'P1'
  _symmetry_Int_Tables_number       1
  _symmetry_cell_setting            triclinic
  loop_
  _symmetry_equiv_pos_as_xyz
 x,y,z
_cell_length_a 56.1074
_cell_length_b 54.8894
_cell_length_c 54.8351
_cell_angle_alpha 89.837000
_cell_angle_beta 90.013900
_cell_angle_gamma 90.014700
loop_
  _atom_site_label
  _atom_site_type_symbol
  _atom_site_fract_x
  _atom_site_fract_y
  _atom_site_fract_z
O1 O 0.34792 0.31801 -0.02771
 O2 O 0.31670 0.34816 0.02261
 O3 O 0.34954 0.31484 0.01938
 O4 O 0.31404 0.35031 -0.02453
 O5 O 0.28668 0.32131 -0.02491
 O6 O 0.32219 0.28582 0.01923
 O7 O 0.28915 0.31934 0.02250
 O8 O 0.32078 0.28879 -0.02811
 Cu9 Cu 0.33478 0.33574 -0.00255
 Cu10 Cu 0.30191 0.30088 -0.00286
 C11 C 0.33988 0.29822 -0.03625
 C12 C 0.29762 0.33905 0.03097
 C13 C 0.34195 0.29427 0.02659
 C14 C 0.29428 0.34190 -0.03200
 O15 O 0.68608 0.65207 0.02465
 O16 O 0.65069 0.68232 -0.02302
 O17 O 0.68388 0.64957 -0.02246
 O18 O 0.65222 0.68493 0.02410
 O19 O 0.67929 0.71410 0.02147
 O20 O 0.71121 0.67848 -0.02536
 O21 O 0.67784 0.71141 -0.02589
 O22 O 0.71338 0.68101 0.02202
 Cu23 Cu 0.66549 0.66432 0.00123
 Cu24 Cu 0.69821 0.69920 -0.00208
 C25 C 0.70588 0.66115 0.03110
 C26 C 0.65827 0.70193 -0.03254
 C27 C 0.70283 0.65800 -0.03182
 C28 C 0.66009 0.70564 0.03035
 O29 O 0.65067 0.31773 1.02288
 O30 O 0.68608 0.34799 0.97524
 O31 O 0.65219 0.31515 0.97575
 O32 O 0.68388 0.35045 1.02235
 O33 O 0.71119 0.32153 1.02524
 O34 O 0.67924 0.28597 0.97838
 O35 O 0.71336 0.31903 0.97787
 O36 O 0.67780 0.28862 1.02574
 Cu37 Cu 0.66549 0.33574 0.99864
 Cu38 Cu 0.69817 0.30084 1.00195
 C39 C 0.65823 0.29811 1.03239
 C40 C 0.70588 0.33890 0.96880
 C41 C 0.66005 0.29444 0.96950
 C42 C 0.70282 0.34201 1.03171
 O43 O 0.31691 0.65153 0.97760
 O44 O 0.34822 0.68181 1.02782
 O45 O 0.31436 0.64945 1.02475
 O46 O 0.34972 0.68491 0.98073
 O47 O 0.32234 0.71389 0.98088
 O48 O 0.28697 0.67841 1.02514
 O49 O 0.32104 0.71099 1.02823
 O50 O 0.28933 0.68031 0.97772
 Cu51 Cu 0.33503 0.66402 1.00271
 Cu52 Cu 0.30214 0.69883 1.00304
 C53 C 0.29780 0.66060 0.96927
 C54 C 0.34017 0.70160 1.03635
 C55 C 0.29461 0.65783 1.03224
 C56 C 0.34210 0.70546 0.97350
 O57 O -0.02307 0.33415 0.30035
 O58 O 0.02255 0.30026 0.33435
 O59 O 0.02293 0.33378 0.30058
 O60 O -0.02345 0.30043 0.33391
 O61 O -0.02358 0.27183 0.30558
 O62 O 0.02310 0.30547 0.27197
 O63 O 0.02273 0.27165 0.30604
 O64 O -0.02321 0.30585 0.27173
 Cu65 Cu -0.00026 0.32000 0.32015
 Cu66 Cu -0.00023 0.28581 0.28593
 C67 C -0.03063 0.32598 0.28018
 C68 C 0.03012 0.28011 0.32620
 C69 C 0.03062 0.32551 0.28052
 C70 C -0.03112 0.28036 0.32564
 O71 O 0.02277 0.69955 0.66548
 O72 O -0.02291 0.66572 0.69948
 O73 O -0.02323 0.69940 0.66588
 O74 O 0.02310 0.66607 0.69929
 O75 O 0.02328 0.69441 0.72788
 O76 O -0.02335 0.72803 0.69417
 O77 O -0.02303 0.69405 0.72807
 O78 O 0.02296 0.72819 0.69377
 Cu79 Cu -0.00007 0.67984 0.67969
 Cu80 Cu -0.00003 0.71407 0.71387
 C81 C 0.03035 0.71971 0.67363
 C82 C -0.03046 0.67391 0.71963
 C83 C -0.03089 0.71948 0.67412
 C84 C 0.03078 0.67435 0.71936
 O85 O 0.97729 0.67253 0.36151
 O86 O 1.02322 0.63880 0.32765
 O87 O 1.02359 0.67225 0.36117
 O88 O 0.97691 0.63907 0.32800
 O89 O 0.97678 0.66754 0.29937
 O90 O 1.02364 0.70087 0.33271
 O91 O 1.02327 0.66727 0.29905
 O92 O 0.97716 0.70114 0.33303
 Cu93 Cu 1.00025 0.65280 0.34745
 Cu94 Cu 1.00021 0.68709 0.31315
 C95 C 0.96951 0.69255 0.35307
 C96 C 1.03096 0.64726 0.30762
 C97 C 1.03146 0.69219 0.35263
 C98 C 0.96901 0.64761 0.30807
 O99 O 0.97702 0.32753 0.63815
 O100 O 1.02298 0.36122 0.67208
 O101 O 1.02333 0.32777 0.63853
 O102 O 0.97667 0.36098 0.67169
 O103 O 0.97650 0.33250 0.70030
 O104 O 1.02333 0.29915 0.66699
 O105 O 1.02298 0.33273 0.70067
 O106 O 0.97686 0.29891 0.66662
 Cu107 Cu 1.00001 0.34724 0.65225
 Cu108 Cu 0.99991 0.31293 0.68653
 C109 C 0.96922 0.30751 0.64657
 C110 C 1.03070 0.35274 0.69212
 C111 C 1.03117 0.30783 0.64707
 C112 C 0.96876 0.35243 0.69161
 O113 O 0.34935 0.02264 0.31730
 O114 O 0.31399 -0.02507 0.34750
 O115 O 0.34795 -0.02445 0.31471
 O116 O 0.31609 0.02201 0.34999
 O117 O 0.28882 0.02482 0.32097
 O118 O 0.32095 -0.02189 0.28543
 O119 O 0.28676 -0.02251 0.31845
 O120 O 0.32227 0.02542 0.28811
 Cu121 Cu 0.33456 -0.00163 0.33529
 Cu122 Cu 0.30193 0.00159 0.30028
 C123 C 0.34180 0.03212 0.29765
 C124 C 0.29423 -0.03156 0.33835
 C125 C 0.34015 -0.03071 0.29395
 C126 C 0.29714 0.03131 0.34148
 O127 O 0.65207 0.02736 0.68237
 O128 O 0.68332 -0.02296 0.65230
 O129 O 0.65044 -0.01968 0.68561
 O130 O 0.68596 0.02413 0.65005
 O131 O 0.71330 0.02457 0.67910
 O132 O 0.67777 -0.01947 0.71468
 O133 O 0.71085 -0.02280 0.68117
 O134 O 0.67920 0.02782 0.71163
 Cu135 Cu 0.66522 0.00219 0.66466
 Cu136 Cu 0.69806 0.00258 0.69958
 C137 C 0.66011 0.03593 0.70217
 C138 C 0.70240 -0.03129 0.66145
 C139 C 0.65801 -0.02684 0.70622
 C140 C 0.70570 0.03161 0.65847
 O141 O 0.34913 0.97752 0.68292
 O142 O 0.31367 1.02509 0.65263
 O143 O 0.34762 1.02461 0.68544
 O144 O 0.31589 0.97802 0.65020
 O145 O 0.28861 0.97516 0.67919
 O146 O 0.32062 1.02201 0.71470
 O147 O 0.28644 1.02250 0.68166
 O148 O 0.32204 0.97470 0.71209
 Cu149 Cu 0.33429 1.00172 0.66488
 Cu150 Cu 0.30166 0.99846 0.69987
 C151 C 0.34159 0.96805 0.70258
 C152 C 0.29390 1.03154 0.66175
 C153 C 0.33980 1.03087 0.70618
 C154 C 0.29696 0.96868 0.65870
 O155 O 0.65223 0.97311 0.31787
 O156 O 0.68347 1.02327 0.34828
 O157 O 0.65061 1.02017 0.31490
 O158 O 0.68610 0.97617 0.35025
 O159 O 0.71346 0.97592 0.32123
 O160 O 0.67796 1.02014 0.28586
 O161 O 0.71101 1.02329 0.31944
 O162 O 0.67938 0.97283 0.28864
 Cu163 Cu 0.66538 0.99818 0.33574
 Cu164 Cu 0.69824 0.99802 0.30086
 C165 C 0.66028 0.96466 0.29804
 C166 C 0.70256 1.03166 0.33921
 C167 C 0.65819 1.02745 0.29434
 C168 C 0.70585 0.96875 0.34181
 C169 C 0.87499 0.78298 0.50767
 C170 C 0.86369 0.78765 0.48548
 C171 C 0.84469 0.80421 0.48438
 C172 C 0.83750 0.81722 0.50541
 C173 C 0.84977 0.81266 0.52750
 C174 C 0.86791 0.79525 0.52869
 C175 C 0.81761 0.83553 0.50443
 C176 C 0.80500 0.84206 0.52581
 C177 C 0.78745 0.86016 0.52519
 C178 C 0.78121 0.87101 0.50308
 C179 C 0.79283 0.86436 0.48162
 C180 C 0.81125 0.84714 0.48228
 H181 H 0.88942 0.76985 0.50858
 H182 H 0.83569 0.80668 0.46712
 H183 H 0.84562 0.82264 0.54392
 H184 H 0.80866 0.83336 0.54311
 H185 H 0.76743 0.88488 0.50261
 H186 H 0.82067 0.84331 0.46553
 C187 C 0.12472 0.21684 0.49383
 C188 C 0.13178 0.20393 0.47320
 C189 C 0.14969 0.18627 0.47504
 C190 C 0.16168 0.18212 0.49740
 C191 C 0.15451 0.19581 0.51795
 C192 C 0.13579 0.21260 0.51623
 C193 C 0.18136 0.16363 0.49922
 C194 C 0.18742 0.15266 0.52181
 C195 C 0.20587 0.13550 0.52326
 C196 C 0.21778 0.12826 0.50215
 C197 C 0.21180 0.13847 0.47966
 C198 C 0.19422 0.15648 0.47825
 H199 H 0.11047 0.23014 0.49249
 H200 H 0.15388 0.17580 0.45893
 H201 H 0.16334 0.19371 0.53536
 H202 H 0.17779 0.15698 0.53831
 H203 H 0.23160 0.11447 0.50320
 H204 H 0.19078 0.16467 0.46065
 C205 C 0.12506 0.78292 0.50603
 C206 C 0.13212 0.79582 0.52668
 C207 C 0.15003 0.81349 0.52486
 C208 C 0.16204 0.81764 0.50251
 C209 C 0.15488 0.80396 0.48195
 C210 C 0.13614 0.78717 0.48365
 C211 C 0.18173 0.83613 0.50071
 C212 C 0.18781 0.84710 0.47814
 C213 C 0.20627 0.86427 0.47672
 C214 C 0.21815 0.87151 0.49784
 C215 C 0.21215 0.86130 0.52032
 C216 C 0.19457 0.84328 0.52171
 H217 H 0.11080 0.76962 0.50736
 H218 H 0.15422 0.82395 0.54097
 H219 H 0.16371 0.80606 0.46455
 H220 H 0.17819 0.84278 0.46162
 H221 H 0.23197 0.88532 0.49681
 H222 H 0.19112 0.83509 0.53930
 C223 C 0.87470 0.21685 0.49196
 C224 C 0.86342 0.21219 0.51417
 C225 C 0.84445 0.19559 0.51528
 C226 C 0.83726 0.18254 0.49427
 C227 C 0.84952 0.18709 0.47218
 C228 C 0.86763 0.20455 0.47097
 C229 C 0.81741 0.16417 0.49529
 C230 C 0.80482 0.15754 0.47392
 C231 C 0.78730 0.13941 0.47458
 C232 C 0.78107 0.12861 0.49672
 C233 C 0.79267 0.13535 0.51816
 C234 C 0.81107 0.15261 0.51746
 H235 H 0.88911 0.23001 0.49104
 H236 H 0.83546 0.19313 0.53255
 H237 H 0.84538 0.17708 0.45577
 H238 H 0.80847 0.16620 0.45659
 H239 H 0.76731 0.11472 0.49722
 H240 H 0.82047 0.15651 0.53421
 C241 C 0.49978 0.87295 0.78090
 C242 C 0.47858 0.86114 0.78696
 C243 C 0.47864 0.84231 0.80423
 C244 C 0.49985 0.83586 0.81666
 C245 C 0.52102 0.84854 0.81061
 C246 C 0.52101 0.86653 0.79246
 C247 C 0.49981 0.81638 0.83596
 C248 C 0.52101 0.80388 0.84225
 C249 C 0.52109 0.78645 0.86094
 C250 C 0.49991 0.78031 0.87275
 C251 C 0.47868 0.79193 0.86646
 C252 C 0.47865 0.81023 0.84862
 H253 H 0.49972 0.88735 0.76729
 H254 H 0.46206 0.83291 0.80776
 H255 H 0.53758 0.84488 0.82001
 H256 H 0.53758 0.80747 0.83286
 H257 H 0.49999 0.76659 0.88704
 H258 H 0.46211 0.81968 0.84508
 C259 C 0.49991 0.12754 0.21959
 C260 C 0.47870 0.13928 0.21345
 C261 C 0.47874 0.15803 0.19610
 C262 C 0.49995 0.16447 0.18366
 C263 C 0.52114 0.15187 0.18980
 C264 C 0.52114 0.13396 0.20803
 C265 C 0.49990 0.18385 0.16426
 C266 C 0.52108 0.19635 0.15790
 C267 C 0.52114 0.21368 0.13913
 C268 C 0.49995 0.21974 0.12729
 C269 C 0.47873 0.20813 0.13364
 C270 C 0.47873 0.18991 0.15157
 H271 H 0.49986 0.11320 0.23326
 H272 H 0.46215 0.16737 0.19250
 H273 H 0.53769 0.15550 0.18039
 H274 H 0.53766 0.19282 0.16732
 H275 H 0.50001 0.23340 0.11294
 H276 H 0.46218 0.18047 0.15515
 C277 C 0.50020 0.12863 0.77950
 C278 C 0.52144 0.14030 0.78573
 C279 C 0.52133 0.15904 0.80300
 C280 C 0.50010 0.16552 0.81532
 C281 C 0.47891 0.15298 0.80911
 C282 C 0.47892 0.13512 0.79092
 C283 C 0.50010 0.18492 0.83463
 C284 C 0.47887 0.19727 0.84103
 C285 C 0.47875 0.21460 0.85972
 C286 C 0.49997 0.22086 0.87140
 C287 C 0.52126 0.20942 0.86498
 C288 C 0.52128 0.19118 0.84718
 H289 H 0.50027 0.11434 0.76587
 H290 H 0.53794 0.16836 0.80660
 H291 H 0.46232 0.15663 0.81840
 H292 H 0.46228 0.19364 0.83171
 H293 H 0.49989 0.23454 0.88565
 H294 H 0.53788 0.18187 0.84358
 C295 C 0.50053 0.87191 0.22021
 C296 C 0.52177 0.86028 0.21396
 C297 C 0.52166 0.84152 0.19671
 C298 C 0.50042 0.83498 0.18443
 C299 C 0.47922 0.84749 0.19066
 C300 C 0.47923 0.86537 0.20883
 C301 C 0.50040 0.81554 0.16514
 C302 C 0.47917 0.80317 0.15877
 C303 C 0.47904 0.78580 0.14012
 C304 C 0.50025 0.77952 0.12845
 C305 C 0.52154 0.79098 0.13484
 C306 C 0.52158 0.80927 0.15260
 H307 H 0.50060 0.88620 0.23384
 H308 H 0.53827 0.83223 0.19310
 H309 H 0.46261 0.84379 0.18140
 H310 H 0.46258 0.80680 0.16809
 H311 H 0.50016 0.76581 0.11424
 H312 H 0.53817 0.81859 0.15618
 C313 C 0.78170 0.49848 0.87193
 C314 C 0.79361 0.47740 0.86467
 C315 C 0.81203 0.47885 0.84746
 C316 C 0.81805 0.50141 0.83646
 C317 C 0.80520 0.52236 0.84364
 C318 C 0.78766 0.52095 0.86170
 C319 C 0.83770 0.50322 0.81791
 C320 C 0.84969 0.52555 0.81373
 C321 C 0.86758 0.52737 0.79602
 C322 C 0.87461 0.50674 0.78309
 C323 C 0.86352 0.48438 0.78736
 C324 C 0.84482 0.48268 0.80419
 H325 H 0.76791 0.49743 0.88576
 H326 H 0.82166 0.46237 0.84313
 H327 H 0.80863 0.53994 0.83542
 H328 H 0.84553 0.54164 0.82421
 H329 H 0.88884 0.50807 0.76976
 H330 H 0.83599 0.46530 0.80632
 C331 C 0.21948 0.49758 0.12894
 C332 C 0.21313 0.47548 0.13972
 C333 C 0.19553 0.47488 0.15779
 C334 C 0.18298 0.49626 0.16435
 C335 C 0.18944 0.51839 0.15281
 C336 C 0.20791 0.51904 0.13563
 C337 C 0.16303 0.49528 0.18262
 C338 C 0.15584 0.51628 0.19566
 C339 C 0.13679 0.51519 0.21219
 C340 C 0.12544 0.49302 0.21679
 C341 C 0.13252 0.47204 0.20449
 C342 C 0.15070 0.47323 0.18710
 H343 H 0.23328 0.49803 0.11509
 H344 H 0.19180 0.45758 0.16644
 H345 H 0.18007 0.53515 0.15667
 H346 H 0.16487 0.53352 0.19324
 H347 H 0.11099 0.49211 0.22990
 H348 H 0.15484 0.45684 0.17709
 C349 C 0.78163 0.50158 0.12800
 C350 C 0.79356 0.52265 0.13525
 C351 C 0.81201 0.52120 0.15244
 C352 C 0.81803 0.49864 0.16344
 C353 C 0.80515 0.47769 0.15628
 C354 C 0.78758 0.47911 0.13823
 C355 C 0.83770 0.49682 0.18196
 C356 C 0.84968 0.47448 0.18613
 C357 C 0.86759 0.47265 0.20383
 C358 C 0.87465 0.49327 0.21675
 C359 C 0.86358 0.51564 0.21249
 C360 C 0.84486 0.51735 0.19567
 H361 H 0.76782 0.50263 0.11418
 H362 H 0.82167 0.53768 0.15676
 H363 H 0.80857 0.46011 0.16449
 H364 H 0.84549 0.45839 0.17565
 H365 H 0.88890 0.49194 0.23007
 H366 H 0.83604 0.53474 0.19356
 C367 C 0.21916 0.50213 0.87138
 C368 C 0.21287 0.52423 0.86058
 C369 C 0.19530 0.52486 0.84248
 C370 C 0.18273 0.50349 0.83588
 C371 C 0.18914 0.48135 0.84743
 C372 C 0.20758 0.48068 0.86465
 C373 C 0.16281 0.50449 0.81755
 C374 C 0.15561 0.48350 0.80450
 C375 C 0.13660 0.48462 0.78792
 C376 C 0.12530 0.50681 0.78329
 C377 C 0.13239 0.52777 0.79561
 C378 C 0.15054 0.52656 0.81304
 H379 H 0.23295 0.50165 0.88525
 H380 H 0.19162 0.54216 0.83382
 H381 H 0.17975 0.46460 0.84354
 H382 H 0.16461 0.46626 0.80693
 H383 H 0.11087 0.50773 0.77014
 H384 H 0.15468 0.54294 0.82307
 C385 C 0.26383 0.38033 0.08183
 N386 N 0.27716 0.39411 0.09715
 N387 N 0.26697 0.41121 0.11085
 C388 C 0.24312 0.41504 0.10966
 N389 N 0.22977 0.40116 0.09445
 N390 N 0.23996 0.38407 0.08075
 C391 C 0.27521 0.36421 0.06488
 C392 C 0.28518 0.35196 0.04978
 C393 C 0.23260 0.43543 0.12195
 C394 C 0.22377 0.45334 0.13087
 C395 C 0.74595 0.61947 0.07694
 N396 N 0.73725 0.61203 0.09880
 N397 N 0.74852 0.59487 0.11162
 C398 C 0.76884 0.58464 0.10300
 N399 N 0.77761 0.59219 0.08121
 N400 N 0.76634 0.60934 0.06839
 C401 C 0.73230 0.63562 0.06174
 C402 C 0.72039 0.64797 0.04820
 C403 C 0.77908 0.56395 0.11520
 C404 C 0.78645 0.54561 0.12473
 C405 C 0.74596 0.38059 0.92298
 N406 N 0.73728 0.38802 0.90110
 N407 N 0.74855 0.40517 0.88828
 C408 C 0.76886 0.41542 0.89692
 N409 N 0.77762 0.40788 0.91872
 N410 N 0.76635 0.39073 0.93154
 C411 C 0.73230 0.36444 0.93817
 C412 C 0.72039 0.35208 0.95171
 C413 C 0.77911 0.43610 0.88473
 C414 C 0.78649 0.45444 0.87520
 C415 C 0.26387 0.61926 0.91851
 N416 N 0.23999 0.61557 0.91962
 N417 N 0.22974 0.59850 0.90592
 C418 C 0.24303 0.58460 0.89069
 N419 N 0.26689 0.58839 0.88948
 N420 N 0.27714 0.60546 0.90317
 C421 C 0.27531 0.63538 0.93543
 C422 C 0.28532 0.64765 0.95049
 C423 C 0.23244 0.56424 0.87839
 C424 C 0.22356 0.54636 0.86946
 C425 C 0.07412 0.24315 0.37223
 N426 N 0.06516 0.22415 0.38518
 N427 N 0.07748 0.21454 0.40363
 C428 C 0.09914 0.22366 0.40973
 N429 N 0.10815 0.24258 0.39670
 N430 N 0.09583 0.25219 0.37825
 C431 C 0.05957 0.25539 0.35448
 C432 C 0.04658 0.26637 0.34081
 C433 C 0.11112 0.21529 0.43132
 C434 C 0.12074 0.20943 0.45011
 C435 C 0.07439 0.75662 0.62760
 N436 N 0.09609 0.74756 0.62159
 N437 N 0.10842 0.75716 0.60314
 C438 C 0.09943 0.77609 0.59011
 N439 N 0.07779 0.78523 0.59620
 N440 N 0.06546 0.77564 0.61465
 C441 C 0.05983 0.74439 0.64535
 C442 C 0.04682 0.73343 0.65902
 C443 C 0.11143 0.78446 0.56853
 C444 C 0.12106 0.79032 0.54975
 C445 C 0.92164 0.72966 0.39474
 N446 N 0.92292 0.75424 0.39677
 N447 N 0.90934 0.76597 0.41286
 C448 C 0.89401 0.75348 0.42738
 N449 N 0.89265 0.72890 0.42527
 N450 N 0.90623 0.71718 0.40917
 C451 C 0.93787 0.71681 0.37912
 C452 C 0.95207 0.70585 0.36681
 C453 C 0.88162 0.76573 0.44670
 C454 C 0.87258 0.77584 0.46388
 C455 C 0.92137 0.27038 0.60484
 N456 N 0.90602 0.28284 0.59032
 N457 N 0.89244 0.27109 0.57424
 C458 C 0.89374 0.24650 0.57221
 N459 N 0.90902 0.23403 0.58681
 N460 N 0.92259 0.24578 0.60290
 C461 C 0.93759 0.28325 0.62048
 C462 C 0.95178 0.29422 0.63280
 C463 C 0.88135 0.23420 0.55291
 C464 C 0.87232 0.22405 0.53575
 C465 C 0.38509 0.08191 0.26495
 N466 N 0.38775 0.08227 0.24037
 N467 N 0.40456 0.09602 0.23007
 C468 C 0.41919 0.10986 0.24403
 N469 N 0.41644 0.10961 0.26860
 N470 N 0.39963 0.09587 0.27890
 C471 C 0.36881 0.06516 0.27619
 C472 C 0.35602 0.05037 0.28585
 C473 C 0.43919 0.12205 0.23322
 C474 C 0.45681 0.13080 0.22419
 C475 C 0.61725 0.08550 0.73543
 N476 N 0.61347 0.08457 0.75984
 N477 N 0.59605 0.09761 0.76993
 C478 C 0.58186 0.11195 0.75593
 N479 N 0.58572 0.11299 0.73154
 N480 N 0.60315 0.09996 0.72145
 C481 C 0.63388 0.06915 0.72417
 C482 C 0.64660 0.05445 0.71435
 C483 C 0.56134 0.12353 0.76638
 C484 C 0.54344 0.13193 0.77515
 C485 C 0.38495 0.91838 0.73536
 N486 N 0.38762 0.91807 0.75994
 N487 N 0.40444 0.90435 0.77026
 C488 C 0.41907 0.89049 0.75633
 N489 N 0.41630 0.89070 0.73176
 N490 N 0.39948 0.90441 0.72144
 C491 C 0.36865 0.93509 0.72409
 C492 C 0.35584 0.94984 0.71441
 C493 C 0.43907 0.87833 0.76716
 C494 C 0.45669 0.86960 0.77621
 C495 C 0.61748 0.91520 0.26447
 N496 N 0.60350 0.90053 0.27836
 N497 N 0.58611 0.88749 0.26819
 C498 C 0.58215 0.88873 0.24382
 N499 N 0.59622 0.90329 0.22991
 N500 N 0.61361 0.91633 0.24008
 C501 C 0.63408 0.93153 0.27582
 C502 C 0.64679 0.94619 0.28573
 C503 C 0.56166 0.87712 0.23333
 C504 C 0.54378 0.86868 0.22454
 C505 C 0.38279 0.26491 0.91425
 N506 N 0.39691 0.27886 0.89978
 N507 N 0.41438 0.26877 0.88680
 C508 C 0.41826 0.24441 0.88790
 N509 N 0.40405 0.23044 0.90225
 N510 N 0.38659 0.24053 0.91523
 C511 C 0.36613 0.27617 0.93057
 C512 C 0.35338 0.28600 0.94525
 C513 C 0.43882 0.23397 0.87638
 C514 C 0.45673 0.22519 0.86803
 C515 C 0.61488 0.73471 0.91780
 N516 N 0.60021 0.72082 0.90393
 N517 N 0.58335 0.73116 0.89027
 C518 C 0.58067 0.75571 0.89002
 N519 N 0.59543 0.76961 0.90378
 N520 N 0.61230 0.75928 0.91744
 C521 C 0.63120 0.72344 0.93449
 C522 C 0.64402 0.71376 0.94924
 C523 C 0.56064 0.76657 0.87794
 C524 C 0.54299 0.77564 0.86930
 C525 C 0.38313 0.73512 0.08572
 N526 N 0.39730 0.72124 0.10021
 N527 N 0.41475 0.73141 0.11316
 C528 C 0.41858 0.75579 0.11202
 N529 N 0.40432 0.76968 0.09764
 N530 N 0.38687 0.75951 0.08468
 C531 C 0.36646 0.72377 0.06945
 C532 C 0.35371 0.71388 0.05481
 C533 C 0.43911 0.76631 0.12351
 C534 C 0.45702 0.77515 0.13184
 C535 C 0.61486 0.26535 0.08208
 N536 N 0.61225 0.24079 0.08244
 N537 N 0.59540 0.23047 0.09614
 C538 C 0.58069 0.24438 0.10992
 N539 N 0.58339 0.26893 0.10966
 N540 N 0.60024 0.27925 0.09597
 C541 C 0.63117 0.27661 0.06537
 C542 C 0.64399 0.28628 0.05061
 C543 C 0.56066 0.23354 0.12204
 C544 C 0.54303 0.22448 0.13072
 C545 C 0.25373 0.07729 0.62007
 N546 N 0.23331 0.06874 0.60998
 N547 N 0.22199 0.08154 0.59284
 C548 C 0.23073 0.10332 0.58527
 N549 N 0.25108 0.11195 0.59546
 N550 N 0.26240 0.09914 0.61261
 C551 C 0.26742 0.06212 0.63621
 C552 C 0.27936 0.04860 0.64856
 C553 C 0.22044 0.11550 0.56458
 C554 C 0.21303 0.12501 0.54623
 C555 C 0.73598 0.08142 0.37971
 N556 N 0.75986 0.08025 0.38336
 N557 N 0.77019 0.09396 0.40037
 C558 C 0.75697 0.10927 0.41426
 N559 N 0.73311 0.11055 0.41051
 N560 N 0.72278 0.09684 0.39350
 C561 C 0.72445 0.06447 0.36368
 C562 C 0.71438 0.04939 0.35149
 C563 C 0.76764 0.12158 0.43459
 C564 C 0.77657 0.13053 0.45245
 C565 C 0.73633 0.91789 0.62026
 N566 N 0.72306 0.90261 0.60637
 N567 N 0.73334 0.88893 0.58930
 C568 C 0.75721 0.89010 0.58560
 N569 N 0.77050 0.90527 0.59959
 N570 N 0.76022 0.91895 0.61666
 C571 C 0.72488 0.93483 0.63634
 C572 C 0.71486 0.94991 0.64856
 C573 C 0.76783 0.87785 0.56523
 C574 C 0.77673 0.86896 0.54733
 C575 C 0.25412 0.92257 0.37996
 N576 N 0.23366 0.93106 0.39000
 N577 N 0.22236 0.91824 0.40713
 C578 C 0.23115 0.89649 0.41474
 N579 N 0.25153 0.88793 0.40459
 N580 N 0.26284 0.90075 0.38746
 C581 C 0.26780 0.93777 0.36384
 C582 C 0.27972 0.95133 0.35151
 C583 C 0.22085 0.88430 0.43541
 C584 C 0.21343 0.87478 0.45375
 C585 C 0.07859 0.39421 0.72949
 N586 N 0.07727 0.39617 0.75410
 N587 N 0.09087 0.41219 0.76591
 C588 C 0.10625 0.42671 0.75349
 N589 N 0.10764 0.42466 0.72889
 N590 N 0.09405 0.40864 0.71707
 C591 C 0.06236 0.37867 0.71654
 C592 C 0.04815 0.36642 0.70550
 C593 C 0.11865 0.44595 0.76585
 C594 C 0.12770 0.46308 0.77603
 C595 C 0.07885 0.60574 0.27038
 N596 N 0.07755 0.60374 0.24577
 N597 N 0.09114 0.58768 0.23401
 C598 C 0.10649 0.57318 0.24648
 N599 N 0.10786 0.57526 0.27108
 N600 N 0.09428 0.59131 0.28284
 C601 C 0.06261 0.62131 0.28327
 C602 C 0.04841 0.63357 0.29427
 C603 C 0.11888 0.55390 0.23418
 C604 C 0.12791 0.53675 0.22404
 C605 C 0.92533 0.37187 0.24313
 N606 N 0.93427 0.38481 0.22410
 N607 N 0.92193 0.40323 0.21447
 C608 C 0.90027 0.40929 0.22359
 N609 N 0.89127 0.39626 0.24253
 N610 N 0.90361 0.37785 0.25216
 C611 C 0.93990 0.35417 0.25539
 C612 C 0.95291 0.34054 0.26640
 C613 C 0.88827 0.43083 0.21520
 C614 C 0.87864 0.44960 0.20933
 C615 C 0.92542 0.62809 0.75669
 N616 N 0.90371 0.62211 0.74763
 N617 N 0.89134 0.60371 0.75727
 C618 C 0.90032 0.59071 0.77623
 N619 N 0.92198 0.59677 0.78537
 N620 N 0.93434 0.61517 0.77574
 C621 C 0.94002 0.64577 0.74441
 C622 C 0.95305 0.65938 0.73341
 C623 C 0.88829 0.56917 0.78463
 C624 C 0.87865 0.55041 0.79051
 C625 C 0.73573 0.61504 0.92022
 N626 N 0.72242 0.60068 0.90545
 N627 N 0.73274 0.58359 0.89183
 C628 C 0.75669 0.58039 0.89257
 N629 N 0.77001 0.59484 0.90725
 N630 N 0.75970 0.61192 0.92087
 C631 C 0.72436 0.63158 0.93673
 C632 C 0.71445 0.64449 0.95128
 C633 C 0.76747 0.56026 0.88016
 C634 C 0.77659 0.54266 0.87100
 C635 C 0.25562 0.38505 0.92458
 N636 N 0.23594 0.39614 0.93366
 N637 N 0.22468 0.41322 0.92074
 C638 C 0.23273 0.41969 0.89833
 N639 N 0.25234 0.40851 0.88920
 N640 N 0.26360 0.39144 0.90211
 C641 C 0.26910 0.36856 0.93951
 C642 C 0.28083 0.35560 0.95263
 C643 C 0.22244 0.44008 0.88574
 C644 C 0.21495 0.45813 0.87579
 C645 C 0.25603 0.61466 0.07572
 N646 N 0.26410 0.60818 0.09813
 N647 N 0.25284 0.59110 0.11104
 C648 C 0.23315 0.58000 0.10197
 N649 N 0.22501 0.58658 0.07961
 N650 N 0.23627 0.60366 0.06670
 C651 C 0.26949 0.63116 0.06077
 C652 C 0.28120 0.64412 0.04764
 C653 C 0.22285 0.55962 0.11455
 C654 C 0.21533 0.54158 0.12450
 C655 C 0.73570 0.38495 0.07973
 N656 N 0.72237 0.39932 0.09447
 N657 N 0.73267 0.41642 0.10809
 C658 C 0.75662 0.41964 0.10738
 N659 N 0.76997 0.40518 0.09274
 N660 N 0.75967 0.38808 0.07912
 C661 C 0.72435 0.36841 0.06321
 C662 C 0.71444 0.35550 0.04864
 C663 C 0.76739 0.43978 0.11979
 C664 C 0.77651 0.45740 0.12894
 C665 C 0.92552 0.75556 0.62943
 N666 N 0.93417 0.77502 0.61695
 N667 N 0.92190 0.78458 0.59846
 C668 C 0.90060 0.77496 0.59186
 N669 N 0.89187 0.75560 0.60444
 N670 N 0.90415 0.74603 0.62292
 C671 C 0.94017 0.74334 0.64704
 C672 C 0.95335 0.73237 0.66050
 C673 C 0.88871 0.78338 0.57029
 C674 C 0.87911 0.78938 0.55156
 C675 C 0.92523 0.24425 0.37025
 N676 N 0.93386 0.22477 0.38270
 N677 N 0.92158 0.21519 0.40118
 C678 C 0.90030 0.22483 0.40779
 N679 N 0.89160 0.24421 0.39524
 N680 N 0.90389 0.25380 0.37677
 C681 C 0.93990 0.25649 0.35267
 C682 C 0.95310 0.26747 0.33923
 C683 C 0.88841 0.21641 0.42936
 C684 C 0.87881 0.21041 0.44808
 C685 C 0.07851 0.27173 0.60656
 N686 N 0.09299 0.28426 0.59120
 N687 N 0.10646 0.27249 0.57506
 C688 C 0.10589 0.24782 0.57383
 N689 N 0.09151 0.23529 0.58928
 N690 N 0.07803 0.24706 0.60542
 C691 C 0.06222 0.28451 0.62210
 C692 C 0.04786 0.29539 0.63426
 C693 C 0.11806 0.23537 0.55454
 C694 C 0.12694 0.22496 0.53749
 C695 C 0.07885 0.72821 0.39318
 N696 N 0.09331 0.71564 0.40853
 N697 N 0.10679 0.72738 0.42470
 C698 C 0.10625 0.75204 0.42597
 N699 N 0.09189 0.76461 0.41053
 N700 N 0.07841 0.75287 0.39436
 C701 C 0.06254 0.71547 0.37762
 C702 C 0.04817 0.70461 0.36544
 C703 C 0.11842 0.76445 0.44530
 C704 C 0.12730 0.77483 0.46237
 C705 C 0.61414 0.92879 0.74536
 N706 N 0.60195 0.93807 0.76456
 N707 N 0.58513 0.92493 0.77562
 C708 C 0.58002 0.90209 0.76783
 N709 N 0.59229 0.89277 0.74870
 N710 N 0.60910 0.90591 0.73764
 C711 C 0.63056 0.94380 0.73203
 C712 C 0.64353 0.95692 0.72040
 C713 C 0.56017 0.88903 0.77790
 C714 C 0.54270 0.87852 0.78522
 C715 C 0.38383 0.92488 0.25494
 N716 N 0.39028 0.90270 0.26367
 N717 N 0.40772 0.89015 0.25302
 C718 C 0.41928 0.89939 0.23334
 N719 N 0.41276 0.92152 0.22454
 N720 N 0.39531 0.93407 0.23518
 C721 C 0.36702 0.93960 0.26803
 C722 C 0.35405 0.95272 0.27961
 C723 C 0.43966 0.88702 0.22352
 C724 C 0.45741 0.87700 0.21625
 C725 C 0.61430 0.07188 0.25530
 N726 N 0.60905 0.09465 0.26321
 N727 N 0.59223 0.10777 0.25214
 C728 C 0.58017 0.09855 0.23281
 N729 N 0.58550 0.07583 0.22484
 N730 N 0.60232 0.06270 0.23591
 C731 C 0.63073 0.05687 0.26861
 C732 C 0.64370 0.04373 0.28021
 C733 C 0.56031 0.11156 0.22270
 C734 C 0.54284 0.12202 0.21533
 C735 C 0.38344 0.07543 0.74510
 N736 N 0.39498 0.06627 0.76485
 N737 N 0.41245 0.07886 0.77544
 C738 C 0.41894 0.10098 0.76658
 N739 N 0.40732 0.11019 0.74691
 N740 N 0.38985 0.09760 0.73632
 C741 C 0.36663 0.06066 0.73206
 C742 C 0.35367 0.04750 0.72051
 C743 C 0.43933 0.11339 0.77634
 C744 C 0.45709 0.12344 0.78355
 C745 C 0.61667 0.74473 0.07496
 N746 N 0.61028 0.73603 0.09719
 N747 N 0.59291 0.74672 0.10983
 C748 C 0.58137 0.76641 0.10061
 N749 N 0.58783 0.77519 0.07843
 N750 N 0.60520 0.76450 0.06580
 C751 C 0.63339 0.73162 0.06016
 C752 C 0.64628 0.72001 0.04698
 C753 C 0.56105 0.77627 0.11307
 C754 C 0.54334 0.78355 0.12315
 C755 C 0.38575 0.25521 0.07111
 N756 N 0.39792 0.23598 0.06188
 N757 N 0.41470 0.22493 0.07508
 C758 C 0.41979 0.23274 0.09793
 N759 N 0.40754 0.25189 0.10721
 N760 N 0.39076 0.26295 0.09401
 C761 C 0.36937 0.26852 0.05605
 C762 C 0.35642 0.28013 0.04289
 C763 C 0.43961 0.22268 0.11105
 C764 C 0.45705 0.21535 0.12160
 C765 C 0.61655 0.25544 0.92486
 N766 N 0.60504 0.23569 0.93401
 N767 N 0.58762 0.22506 0.92138
 C768 C 0.58116 0.23387 0.89921
 N769 N 0.59274 0.25355 0.89001
 N770 N 0.61016 0.26418 0.90264
 C771 C 0.63330 0.26851 0.93967
 C772 C 0.64622 0.28009 0.95285
 C773 C 0.56080 0.22407 0.88676
 C774 C 0.54307 0.21682 0.87668
 C775 C 0.38580 0.74459 0.92893
 N776 N 0.39785 0.76392 0.93812
 N777 N 0.41461 0.77501 0.92492
 C778 C 0.41979 0.76714 0.90212
 N779 N 0.40765 0.74788 0.89288
 N780 N 0.39090 0.73678 0.90608
 C781 C 0.36945 0.73125 0.94400
 C782 C 0.35653 0.71962 0.95718
 C783 C 0.43959 0.77726 0.88901
 C784 C 0.45701 0.78464 0.87848
 C785 C 0.74515 0.92443 0.38581
 N786 N 0.73716 0.90195 0.39210
 N787 N 0.74835 0.88902 0.40923
 C788 C 0.76788 0.89816 0.42057
 N789 N 0.77593 0.92058 0.41419
 N790 N 0.76475 0.93351 0.39706
 C791 C 0.73173 0.93936 0.36926
 C792 C 0.72005 0.95247 0.35626
 C793 C 0.77809 0.88555 0.44099
 C794 C 0.78551 0.87555 0.45906
 C795 C 0.26361 0.91974 0.61483
 N796 N 0.23966 0.92030 0.61160
 N797 N 0.22945 0.90670 0.59443
 C798 C 0.24288 0.89214 0.57997
 N799 N 0.26682 0.89149 0.58327
 N800 N 0.27703 0.90508 0.60046
 C801 C 0.27487 0.93623 0.63146
 C802 C 0.28471 0.95077 0.64445
 C803 C 0.23220 0.87975 0.55975
 C804 C 0.22316 0.87060 0.54208
 C805 C 0.26360 0.08010 0.38533
 N806 N 0.23964 0.07945 0.38850
 N807 N 0.22935 0.09303 0.40563
 C808 C 0.24271 0.10766 0.42011
 N809 N 0.26665 0.10840 0.41686
 N810 N 0.27694 0.09483 0.39972
 C811 C 0.27494 0.06365 0.36872
 C812 C 0.28483 0.04916 0.35574
 C813 C 0.23195 0.12004 0.44028
 C814 C 0.22285 0.12918 0.45793
 C815 C 0.74500 0.07569 0.61423
 N816 N 0.73706 0.09816 0.60788
 N817 N 0.74825 0.11100 0.59068
 C818 C 0.76773 0.10179 0.57934
 N819 N 0.77574 0.07937 0.58579
 N820 N 0.76456 0.06653 0.60299
 C821 C 0.73159 0.06085 0.63087
 C822 C 0.71991 0.04781 0.64394
 C823 C 0.77793 0.11431 0.55886
 C824 C 0.78536 0.12423 0.54076
 C825 C 0.92075 0.60619 0.27142
 N826 N 0.90641 0.59076 0.28403
 N827 N 0.89297 0.57455 0.27232
 C828 C 0.89343 0.57330 0.24763
 N829 N 0.90768 0.58882 0.23501
 N830 N 0.92112 0.60503 0.24672
 C831 C 0.93701 0.62182 0.28412
 C832 C 0.95134 0.63407 0.29495
 C833 C 0.88129 0.55396 0.23523
 C834 C 0.87243 0.53689 0.22485
 C835 C 0.92057 0.39387 0.72830
 N836 N 0.90625 0.40934 0.71571
 N837 N 0.89283 0.42554 0.72745
 C838 C 0.89329 0.42674 0.75215
 N839 N 0.90752 0.41118 0.76474
 N840 N 0.92094 0.39498 0.75300
 C841 C 0.93680 0.37824 0.71557
 C842 C 0.95110 0.36599 0.70473
 C843 C 0.88118 0.44606 0.76458
 C844 C 0.87233 0.46313 0.77499
 C845 C 0.07508 0.62868 0.75611
 N846 N 0.06632 0.61612 0.77547
 N847 N 0.07851 0.59757 0.78500
 C848 C 0.09983 0.59099 0.77542
 N849 N 0.10866 0.60364 0.75615
 N850 N 0.09646 0.62219 0.74662
 C851 C 0.06053 0.64640 0.74393
 C852 C 0.04743 0.65997 0.73300
 C853 C 0.11165 0.56938 0.78380
 C854 C 0.12121 0.55064 0.78977
 C855 C 0.07499 0.37119 0.24386
 N856 N 0.06626 0.38378 0.22451
 N857 N 0.07849 0.40233 0.21501
 C858 C 0.09982 0.40887 0.22461
 N859 N 0.10862 0.39618 0.24387
 N860 N 0.09639 0.37764 0.25337
 C861 C 0.06041 0.35348 0.25601
 C862 C 0.04729 0.33991 0.26691
 C863 C 0.11169 0.43046 0.21626
 C864 C 0.12129 0.44919 0.21031
   
