data_POSCAR
  _audit_creation_date              2014-09-24
  _audit_creation_method            'ToBaCCo'
  _symmetry_space_group_name_H-M    'P1'
  _symmetry_Int_Tables_number       1
  _symmetry_cell_setting            triclinic
  loop_
  _symmetry_equiv_pos_as_xyz
 x,y,z
_cell_length_a 48.8960
_cell_length_b 40.5551
_cell_length_c 6.9985
_cell_angle_alpha 80.345000
_cell_angle_beta 94.994100
_cell_angle_gamma 89.630700
loop_
  _atom_site_label
  _atom_site_type_symbol
  _atom_site_fract_x
  _atom_site_fract_y
  _atom_site_fract_z
O1 O 0.27946 0.22970 0.07997
 O2 O 0.22389 0.28968 0.09828
 O3 O 0.27748 0.28899 0.16335
 O4 O 0.22529 0.23064 0.01555
 O5 O 0.22189 0.20963 0.32432
 O6 O 0.27414 0.26788 0.47207
 O7 O 0.21993 0.26892 0.40753
 O8 O 0.27546 0.20884 0.38896
 Cu9 Cu 0.25186 0.26188 0.05912
 Cu10 Cu 0.24751 0.23668 0.42837
 C11 C 0.28743 0.20986 0.23510
 C12 C 0.21195 0.28873 0.25224
 C13 C 0.28514 0.28774 0.34214
 C14 C 0.21427 0.21083 0.14555
 O15 O 0.71903 0.28804 0.13413
 O16 O 0.77640 0.23437 0.04587
 O17 O 0.72282 0.22842 0.04902
 O18 O 0.77206 0.29362 0.12937
 O19 O 0.77819 0.27290 0.44368
 O20 O 0.72882 0.20778 0.36360
 O21 O 0.78185 0.21323 0.35865
 O22 O 0.72459 0.26702 0.44706
 Cu23 Cu 0.74703 0.26325 0.05882
 Cu24 Cu 0.75391 0.23813 0.43388
 C25 C 0.71195 0.28641 0.30533
 C26 C 0.78897 0.21489 0.18756
 C27 C 0.71715 0.20740 0.19531
 C28 C 0.78382 0.29395 0.29745
 O29 O 0.77900 0.76779 0.96275
 O30 O 0.72449 0.70916 0.85608
 O31 O 0.77805 0.70904 0.86657
 O32 O 0.72497 0.76764 0.95198
 O33 O 0.72222 0.79026 0.64041
 O34 O 0.77538 0.73174 0.55520
 O35 O 0.72140 0.73155 0.54407
 O36 O 0.77582 0.79024 0.65075
 Cu37 Cu 0.75193 0.73607 0.94073
 Cu38 Cu 0.74841 0.76329 0.56636
 C39 C 0.78702 0.78851 0.82267
 C40 C 0.71336 0.71084 0.68400
 C41 C 0.78607 0.71093 0.69794
 C42 C 0.71423 0.78838 0.80914
 O43 O 0.23456 0.71556 0.99151
 O44 O 0.28153 0.78245 0.82793
 O45 O 0.23202 0.78027 0.94364
 O46 O 0.28427 0.71811 0.87362
 O47 O 0.26712 0.72023 0.56911
 O48 O 0.21481 0.78229 0.63954
 O49 O 0.26455 0.78489 0.52237
 O50 O 0.21766 0.71797 0.68590
 Cu51 Cu 0.25987 0.74893 0.93835
 Cu52 Cu 0.23923 0.75154 0.57449
 C53 C 0.21765 0.70606 0.86496
 C54 C 0.28149 0.79436 0.64882
 C55 C 0.21412 0.79115 0.80448
 C56 C 0.28497 0.70929 0.70850
 C57 C 1.00063 0.08957 0.01040
 C58 C 1.02493 0.07375 -0.02025
 C59 C 1.02504 0.03982 -0.03754
 C60 C 1.00116 0.02046 -0.01448
 C61 C 0.97691 0.03704 0.02096
 C62 C 0.97650 0.07146 0.02787
 C63 C 1.00162 -0.01647 -0.02771
 C64 C 0.97696 -0.03394 -0.05530
 C65 C 0.97736 -0.06822 -0.06451
 C66 C 1.00239 -0.08538 -0.05749
 C67 C 1.02708 -0.06870 -0.03525
 C68 C 1.02671 -0.03486 -0.01485
 H69 H 1.00052 0.11593 0.02166
 H70 H 1.04404 0.02912 -0.06932
 H71 H 0.95813 0.02373 0.04471
 H72 H 0.95715 -0.02139 -0.07125
 H73 H 1.00266 -0.11170 -0.06979
 H74 H 1.04627 -0.02348 0.01106
 C75 C 0.49789 0.58502 0.56395
 C76 C 0.52293 0.56797 0.56910
 C77 C 0.52336 0.53378 0.55773
 C78 C 0.49873 0.51632 0.52930
 C79 C 0.47361 0.53462 0.51806
 C80 C 0.47321 0.56836 0.54081
 C81 C 0.49926 0.47951 0.51316
 C82 C 0.47541 0.46005 0.53419
 C83 C 0.47561 0.42622 0.51472
 C84 C 0.49997 0.41060 0.48340
 C85 C 0.52406 0.42880 0.46748
 C86 C 0.52356 0.46312 0.47688
 H87 H 0.49760 0.61127 0.57754
 H88 H 0.54318 0.52132 0.57242
 H89 H 0.45406 0.52323 0.49201
 H90 H 0.45638 0.47056 0.56694
 H91 H 0.50014 0.38432 0.47031
 H92 H 0.54233 0.47651 0.45439
 C93 C -0.00789 0.41327 0.12176
 C94 C -0.03038 0.43396 0.13384
 C95 C -0.02803 0.46876 0.09689
 C96 C -0.00326 0.48333 0.03969
 C97 C 0.01899 0.46214 0.02390
 C98 C 0.01679 0.42744 0.06826
 C99 C -0.00066 0.52032 -0.00580
 C100 C 0.02479 0.53561 0.02557
 C101 C 0.02712 0.57031 -0.02313
 C102 C 0.00397 0.59034 -0.09625
 C103 C -0.02135 0.57544 -0.12570
 C104 C -0.02360 0.54073 -0.08439
 H105 H -0.00956 0.38628 0.15416
 H106 H -0.04551 0.48419 0.11401
 H107 H 0.03821 0.47237 -0.02217
 H108 H 0.04287 0.52078 0.08798
 H109 H 0.00565 0.61730 -0.13066
 H110 H -0.04337 0.52984 -0.11395
 C111 C 0.49483 0.91020 0.60224
 C112 C 0.47179 0.93039 0.52845
 C113 C 0.47438 0.96503 0.47726
 C114 C 0.50000 0.98008 0.50661
 C115 C 0.52280 0.95950 0.58598
 C116 C 0.52029 0.92485 0.62995
 C117 C 0.50294 1.01701 0.45858
 C118 C 0.52785 1.03110 0.40054
 C119 C 0.53053 1.06585 0.36112
 C120 C 0.50825 1.08695 0.37190
 C121 C 0.48345 1.07327 0.42616
 C122 C 0.48091 1.03863 0.47288
 H123 H 0.49296 0.88328 0.63841
 H124 H 0.45639 0.97997 0.41423
 H125 H 0.54268 0.97021 0.61388
 H126 H 0.54516 1.01534 0.38442
 H127 H 0.51018 1.11389 0.33785
 H128 H 0.46161 1.02879 0.51967
 C129 C 1.09729 0.12462 -0.02021
 C130 C 1.12238 0.10632 0.03253
 C131 C 1.14749 0.12353 0.05155
 C132 C 1.14742 0.15893 0.01787
 C133 C 1.12248 0.17722 -0.04211
 C134 C 1.09735 0.16004 -0.06019
 C135 C 1.07267 0.17892 -0.11681
 C136 C 1.07282 0.21377 -0.15656
 C137 C 1.09741 0.23054 -0.14162
 C138 C 1.12198 0.21262 -0.08389
 C139 C 1.17224 0.10470 0.10504
 C140 C 1.17223 0.06985 0.13961
 C141 C 1.14772 0.05302 0.12130
 C142 C 1.12302 0.07091 0.06847
 C143 C 1.17259 0.17662 0.05585
 C144 C 1.19274 0.19212 0.09470
 C145 C 1.07145 0.10700 -0.02654
 C146 C 1.05015 0.09205 -0.02678
 H147 H 1.05305 0.16699 -0.13180
 H148 H 1.05376 0.22783 -0.19965
 H149 H 1.09742 0.25760 -0.17343
 H150 H 1.14056 0.22682 -0.07346
 H151 H 1.19184 0.11670 0.11975
 H152 H 1.19137 0.05583 0.18030
 H153 H 1.14783 0.02595 0.14768
 H154 H 1.10450 0.05668 0.05537
 C155 C 0.59492 0.61934 0.59924
 C156 C 0.59396 0.65454 0.58836
 C157 C 0.61875 0.67265 0.59589
 C158 C 0.64446 0.65548 0.61601
 C159 C 0.64542 0.62034 0.62462
 C160 C 0.62061 0.60224 0.61587
 C161 C 0.62216 0.56715 0.62437
 C162 C 0.64745 0.55041 0.64082
 C163 C 0.67167 0.56808 0.64954
 C164 C 0.67078 0.60264 0.64175
 C165 C 0.61718 0.70785 0.58308
 C166 C 0.59189 0.72467 0.56335
 C167 C 0.56768 0.70695 0.55771
 C168 C 0.56858 0.67229 0.57012
 C169 C 0.66974 0.67401 0.63266
 C170 C 0.69013 0.69027 0.65151
 C171 C 0.56951 0.60083 0.59194
 C172 C 0.54833 0.58573 0.58358
 H173 H 0.60388 0.55230 0.61879
 H174 H 0.64826 0.52355 0.64735
 H175 H 0.69126 0.55493 0.66318
 H176 H 0.69016 0.61532 0.64873
 H177 H 0.63542 0.72277 0.58759
 H178 H 0.59108 0.75158 0.55365
 H179 H 0.54809 0.72012 0.54363
 H180 H 0.54919 0.65962 0.56532
 C181 C -0.10205 0.38769 0.25630
 C182 C -0.12748 0.40528 0.23784
 C183 C -0.15209 0.38732 0.26427
 C184 C -0.15096 0.35197 0.30956
 C185 C -0.12545 0.33442 0.33064
 C186 C -0.10090 0.35236 0.30365
 C187 C -0.07566 0.33431 0.32125
 C188 C -0.07471 0.29949 0.36478
 C189 C -0.09873 0.28189 0.39204
 C190 C -0.12386 0.29899 0.37515
 C191 C -0.17738 0.40531 0.24166
 C192 C -0.17830 0.44013 0.19417
 C193 C -0.15419 0.45770 0.16887
 C194 C -0.12901 0.44059 0.18997
 C195 C -0.17595 0.33315 0.31819
 C196 C -0.19559 0.31554 0.31505
 C197 C -0.07711 0.40556 0.21725
 C198 C -0.05597 0.41917 0.18107
 H199 H -0.05640 0.34684 0.30075
 H200 H -0.05525 0.28613 0.37618
 H201 H -0.09793 0.25483 0.42461
 H202 H -0.14196 0.28411 0.39678
 H203 H -0.19665 0.39269 0.25987
 H204 H -0.19782 0.45355 0.17602
 H205 H -0.15502 0.48471 0.13162
 H206 H -0.11082 0.45530 0.16763
 C207 C 0.39700 0.88636 0.49816
 C208 C 0.37344 0.90287 0.54420
 C209 C 0.34814 0.88594 0.55408
 C210 C 0.34668 0.85263 0.51956
 C211 C 0.37011 0.83626 0.47084
 C212 C 0.39539 0.85318 0.46027
 C213 C 0.41871 0.83610 0.41541
 C214 C 0.41707 0.80322 0.38181
 C215 C 0.39230 0.78670 0.39148
 C216 C 0.36902 0.80288 0.43549
 C217 C 0.32487 0.90263 0.60271
 C218 C 0.32663 0.93506 0.64283
 C219 C 0.35144 0.95151 0.63533
 C220 C 0.37461 0.93586 0.58517
 C221 C 0.32193 0.83405 0.55197
 C222 C 0.30251 0.81701 0.59003
 C223 C 0.42327 0.90266 0.50162
 C224 C 0.44533 0.91556 0.51078
 H225 H 0.43845 0.84791 0.40613
 H226 H 0.43510 0.79053 0.34774
 H227 H 0.39111 0.76115 0.36544
 H228 H 0.35023 0.78894 0.44151
 H229 H 0.30515 0.89075 0.61137
 H230 H 0.30868 0.94743 0.68073
 H231 H 0.35268 0.97647 0.66956
 H232 H 0.39342 0.94979 0.58017
 C233 C -0.09356 0.62698 -0.28396
 C234 C -0.11756 0.60785 -0.26224
 C235 C -0.14366 0.62419 -0.28862
 C236 C -0.14548 0.65946 -0.33626
 C237 C -0.12156 0.67847 -0.36617
 C238 C -0.09544 0.66214 -0.33869
 C239 C -0.07167 0.68159 -0.36282
 C240 C -0.07372 0.71628 -0.41514
 C241 C -0.09934 0.73229 -0.44449
 C242 C -0.12305 0.71376 -0.41965
 C243 C -0.16741 0.60473 -0.26281
 C244 C -0.16535 0.57001 -0.21185
 C245 C -0.13976 0.55397 -0.18574
 C246 C -0.11607 0.57254 -0.21028
 C247 C -0.17145 0.67655 -0.33609
 C248 C -0.19210 0.69201 -0.32549
 C249 C -0.06703 0.61047 -0.23690
 C250 C -0.04565 0.59539 -0.19008
 H251 H -0.05132 0.67021 -0.34144
 H252 H -0.05534 0.73081 -0.43278
 H253 H -0.10082 0.75926 -0.48414
 H254 H -0.14249 0.72736 -0.44262
 H255 H -0.18776 0.61613 -0.28173
 H256 H -0.18369 0.55547 -0.19175
 H257 H -0.13823 0.52701 -0.14617
 H258 H -0.09665 0.55891 -0.18802
 C259 C 0.41259 1.12762 0.39080
 C260 C 0.38862 1.10870 0.41865
 C261 C 0.36243 1.12477 0.37834
 C262 C 0.36049 1.15961 0.31016
 C263 C 0.38451 1.17878 0.28991
 C264 C 0.41070 1.16266 0.33058
 C265 C 0.43451 1.18213 0.31042
 C266 C 0.43245 1.21670 0.25164
 C267 C 0.40681 1.23253 0.21078
 C268 C 0.38302 1.21393 0.22993
 C269 C 0.33868 1.10540 0.40770
 C270 C 0.34086 1.07107 0.47525
 C271 C 0.36654 1.05535 0.51390
 C272 C 0.39020 1.07378 0.48625
 C273 C 0.33386 1.17601 0.26980
 C274 C 0.31209 1.19059 0.24585
 C275 C 0.43886 1.11040 0.41146
 C276 C 0.45979 1.09433 0.42184
 H277 H 0.45489 1.17088 0.34157
 H278 H 0.45087 1.23128 0.23857
 H279 H 0.40532 1.25941 0.16600
 H280 H 0.36355 1.22742 0.19848
 H281 H 0.31826 1.11655 0.37950
 H282 H 0.32254 1.05660 0.49783
 H283 H 0.36826 1.02877 0.56600
 H284 H 0.40968 1.06036 0.51988
 C285 C 1.09918 -0.11966 -0.06615
 C286 C 1.09763 -0.15165 -0.12219
 C287 C 1.12207 -0.16936 -0.14436
 C288 C 1.14807 -0.15507 -0.11027
 C289 C 1.14964 -0.12320 -0.05305
 C290 C 1.12517 -0.10548 -0.03090
 C291 C 1.12736 -0.07371 0.02663
 C292 C 1.15293 -0.05979 0.06110
 C293 C 1.17679 -0.07706 0.03898
 C294 C 1.17529 -0.10840 -0.01759
 C295 C 1.11984 -0.20118 -0.20170
 C296 C 1.09428 -0.21514 -0.23554
 C297 C 1.07044 -0.19794 -0.21269
 C298 C 1.07197 -0.16656 -0.15676
 C299 C 1.17298 -0.17304 -0.13829
 C300 C 1.19285 -0.18908 -0.16461
 C301 C 1.07402 -0.10120 -0.04925
 C302 C 1.05283 -0.08623 -0.03944
 H303 H 1.10938 -0.05935 0.04604
 H304 H 1.15423 -0.03547 0.10505
 H305 H 1.19660 -0.06613 0.06618
 H306 H 1.19441 -0.12090 -0.03256
 H307 H 1.13777 -0.21568 -0.22035
 H308 H 1.09298 -0.23956 -0.27849
 H309 H 1.05064 -0.20893 -0.23880
 H310 H 1.05283 -0.15420 -0.14058
 C311 C 0.59539 0.37797 0.41491
 C312 C 0.59438 0.34296 0.41771
 C313 C 0.61873 0.32449 0.40207
 C314 C 0.64402 0.34108 0.38313
 C315 C 0.64508 0.37601 0.38240
 C316 C 0.62074 0.39448 0.39826
 C317 C 0.62241 0.42933 0.39726
 C318 C 0.64739 0.44549 0.38215
 C319 C 0.67115 0.42746 0.36688
 C320 C 0.67013 0.39312 0.36676
 C321 C 0.61713 0.28952 0.40651
 C322 C 0.59228 0.27323 0.42615
 C323 C 0.56850 0.29128 0.44023
 C324 C 0.56940 0.32574 0.43584
 C325 C 0.66870 0.32224 0.36012
 C326 C 0.68872 0.30616 0.33735
 C327 C 0.57038 0.39682 0.43050
 C328 C 0.54942 0.41184 0.44542
 H329 H 0.60448 0.44443 0.40868
 H330 H 0.64830 0.47217 0.38174
 H331 H 0.69048 0.44016 0.35447
 H332 H 0.68916 0.38016 0.35505
 H333 H 0.63505 0.27437 0.39570
 H334 H 0.59147 0.24646 0.43009
 H335 H 0.54922 0.27852 0.45436
 H336 H 0.55034 0.33865 0.44753
 C337 C 0.90542 -0.11974 -0.09383
 C338 C 0.90643 -0.15499 -0.08075
 C339 C 0.88166 -0.17316 -0.08806
 C340 C 0.85592 -0.15602 -0.10992
 C341 C 0.85491 -0.12083 -0.12068
 C342 C 0.87969 -0.10267 -0.11224
 C343 C 0.87809 -0.06753 -0.12309
 C344 C 0.85276 -0.05079 -0.14161
 C345 C 0.82857 -0.06853 -0.15017
 C346 C 0.82952 -0.10314 -0.13995
 C347 C 0.88329 -0.20839 -0.07344
 C348 C 0.90861 -0.22518 -0.05201
 C349 C 0.93278 -0.20741 -0.04646
 C350 C 0.93184 -0.17272 -0.06064
 C351 C 0.83065 -0.17462 -0.12632
 C352 C 0.81028 -0.19091 -0.14510
 C353 C 0.93080 -0.10116 -0.08672
 C354 C 0.95195 -0.08599 -0.07863
 H355 H 0.89633 -0.05262 -0.11788
 H356 H 0.85190 -0.02390 -0.14996
 H357 H 0.80896 -0.05539 -0.16532
 H358 H 0.81016 -0.11586 -0.14693
 H359 H 0.86508 -0.22334 -0.07801
 H360 H 0.90946 -0.25212 -0.04086
 H361 H 0.95239 -0.22057 -0.03127
 H362 H 0.95121 -0.16001 -0.05582
 C363 C 0.40342 0.37506 0.51114
 C364 C 0.40359 0.33964 0.54262
 C365 C 0.37850 0.32237 0.52425
 C366 C 0.35336 0.34061 0.47284
 C367 C 0.35313 0.37600 0.44700
 C368 C 0.37820 0.39326 0.46633
 C369 C 0.37741 0.42865 0.43902
 C370 C 0.35258 0.44647 0.39403
 C371 C 0.32810 0.42961 0.37490
 C372 C 0.32824 0.39478 0.40110
 C373 C 0.37924 0.28694 0.55727
 C374 C 0.40400 0.26910 0.60716
 C375 C 0.42853 0.28598 0.62295
 C376 C 0.42844 0.32084 0.59132
 C377 C 0.32814 0.32297 0.43450
 C378 C 0.30792 0.30754 0.39588
 C379 C 0.42919 0.39280 0.51901
 C380 C 0.45044 0.40782 0.52023
 H381 H 0.39590 0.44289 0.45279
 H382 H 0.35236 0.47352 0.37391
 H383 H 0.30887 0.44359 0.34031
 H384 H 0.30866 0.38274 0.38656
 H385 H 0.36072 0.27266 0.54649
 H386 H 0.40418 0.24202 0.63275
 H387 H 0.44773 0.27200 0.65991
 H388 H 0.44803 0.33285 0.60627
 C389 C 0.10188 0.61430 0.01185
 C390 C 0.12537 0.59777 -0.03488
 C391 C 0.15075 0.61454 -0.04376
 C392 C 0.15236 0.64775 -0.00735
 C393 C 0.12899 0.66413 0.04227
 C394 C 0.10364 0.64732 0.05193
 C395 C 0.08036 0.66441 0.09740
 C396 C 0.08211 0.69715 0.13311
 C397 C 0.10696 0.71355 0.12475
 C398 C 0.13019 0.69736 0.07995
 C399 C 0.17395 0.59775 -0.09262
 C400 C 0.17198 0.56548 -0.13527
 C401 C 0.14706 0.54928 -0.12975
 C402 C 0.12399 0.56497 -0.07863
 C403 C 0.17717 0.66628 -0.03937
 C404 C 0.19662 0.68335 -0.07681
 C405 C 0.07554 0.59821 0.00654
 C406 C 0.05348 0.58532 -0.00366
 H407 H 0.06057 0.65271 0.10530
 H408 H 0.06408 0.70986 0.16711
 H409 H 0.10820 0.73902 0.15190
 H410 H 0.14903 0.71121 0.07491
 H411 H 0.19375 0.60946 -0.10008
 H412 H 0.18984 0.55308 -0.17430
 H413 H 0.14558 0.52454 -0.16716
 H414 H 0.10508 0.55124 -0.07535
 C415 C 0.60237 1.11152 0.23561
 C416 C 0.60095 1.14666 0.17670
 C417 C 0.62542 1.16477 0.14981
 C418 C 0.65114 1.14756 0.18210
 C419 C 0.65256 1.11237 0.23864
 C420 C 0.62803 1.09425 0.26507
 C421 C 0.62985 1.05913 0.32410
 C422 C 0.65523 1.04237 0.35587
 C423 C 0.67925 1.06011 0.33060
 C424 C 0.67806 1.09474 0.27250
 C425 C 0.62353 1.20003 0.09387
 C426 C 0.59818 1.21682 0.06579
 C427 C 0.57423 1.19907 0.09306
 C428 C 0.57547 1.16441 0.14765
 C429 C 0.67597 1.16670 0.17378
 C430 C 0.69554 1.18443 0.17636
 C431 C 0.57745 1.09365 0.27595
 C432 C 0.55626 1.08022 0.31317
 H433 H 0.61171 1.04430 0.34644
 H434 H 0.65629 1.01550 0.40068
 H435 H 0.69892 1.04696 0.35670
 H436 H 0.69728 1.10750 0.25470
 H437 H 0.64157 1.21502 0.07181
 H438 H 0.59713 1.24377 0.02411
 H439 H 0.55458 1.21220 0.07247
 H440 H 0.55624 1.15175 0.16715
 C441 C 0.08776 0.37331 0.10125
 C442 C 0.11203 0.39198 0.08441
 C443 C 0.13800 0.37533 0.12309
 C444 C 0.13942 0.34018 0.17928
 C445 C 0.11512 0.32137 0.18994
 C446 C 0.08916 0.33806 0.15033
 C447 C 0.06507 0.31892 0.16085
 C448 C 0.06663 0.28416 0.20898
 C449 C 0.09206 0.26778 0.24891
 C450 C 0.11611 0.28602 0.23904
 C451 C 0.16206 0.39443 0.10400
 C452 C 0.16041 0.42909 0.04927
 C453 C 0.13495 0.44540 0.01352
 C454 C 0.11098 0.42722 0.03002
 C455 C 0.16582 0.32321 0.21822
 C456 C 0.18742 0.30825 0.24172
 C457 C 0.06161 0.39080 0.08092
 C458 C 0.04064 0.40676 0.07116
 H459 H 0.04484 0.33061 0.12994
 H460 H 0.04801 0.26987 0.21463
 H461 H 0.09318 0.24076 0.28582
 H462 H 0.13541 0.27212 0.26899
 H463 H 0.18233 0.38283 0.13080
 H464 H 0.17897 0.44337 0.03471
 H465 H 0.13367 0.47225 -0.02767
 H466 H 0.09169 0.44110 -0.00159
 C467 C 0.59237 0.87307 0.78955
 C468 C 0.61634 0.89224 0.76700
 C469 C 0.64247 0.87595 0.79342
 C470 C 0.64435 0.84070 0.84224
 C471 C 0.62046 0.82166 0.87324
 C472 C 0.59431 0.83794 0.84528
 C473 C 0.57057 0.81846 0.87000
 C474 C 0.57269 0.78379 0.92395
 C475 C 0.59832 0.76785 0.95407
 C476 C 0.62201 0.78642 0.92844
 C477 C 0.66619 0.89545 0.76704
 C478 C 0.66407 0.93016 0.71539
 C479 C 0.63846 0.94613 0.68894
 C480 C 0.61479 0.92753 0.71389
 C481 C 0.67038 0.82366 0.84350
 C482 C 0.69115 0.80832 0.83386
 C483 C 0.56582 0.88955 0.74207
 C484 C 0.54448 0.90472 0.69482
 H485 H 0.55019 0.82980 0.84825
 H486 H 0.55434 0.76924 0.94242
 H487 H 0.59985 0.74090 0.99450
 H488 H 0.64147 0.77286 0.95210
 H489 H 0.68654 0.88409 0.78598
 H490 H 0.68238 0.94472 0.69466
 H491 H 0.63687 0.97308 0.64911
 H492 H 0.59536 0.94114 0.69169
 C493 C 0.90528 0.12274 0.07853
 C494 C 0.88029 0.10598 0.10872
 C495 C 0.85596 0.12451 0.12448
 C496 C 0.85670 0.15976 0.11030
 C497 C 0.88161 0.17658 0.07736
 C498 C 0.90593 0.15806 0.06175
 C499 C 0.93052 0.17554 0.02972
 C500 C 0.93108 0.21027 0.01187
 C501 C 0.90731 0.22836 0.02583
 C502 C 0.88283 0.21184 0.05884
 C503 C 0.83128 0.10712 0.15380
 C504 C 0.83059 0.07245 0.16734
 C505 C 0.85432 0.05437 0.15223
 C506 C 0.87895 0.07080 0.12360
 C507 C 0.83209 0.17874 0.13337
 C508 C 0.81212 0.19498 0.15571
 C509 C 0.93028 0.10380 0.06355
 C510 C 0.95120 0.08863 0.04926
 H511 H 0.94956 0.16259 0.01799
 H512 H 0.95008 0.22322 -0.01231
 H513 H 0.90785 0.25533 0.01195
 H514 H 0.86492 0.22703 0.06926
 H515 H 0.81227 0.12010 0.16607
 H516 H 0.81154 0.05953 0.19054
 H517 H 0.85368 0.02743 0.16358
 H518 H 0.89689 0.05564 0.11335
 C519 C 0.40112 0.61913 0.57524
 C520 C 0.37514 0.60494 0.54007
 C521 C 0.35067 0.62259 0.56320
 C522 C 0.35224 0.65435 0.62180
 C523 C 0.37823 0.66867 0.65554
 C524 C 0.40268 0.65104 0.63241
 C525 C 0.42833 0.66596 0.66716
 C526 C 0.42984 0.69729 0.72388
 C527 C 0.40600 0.71443 0.74722
 C528 C 0.38045 0.70044 0.71362
 C529 C 0.32503 0.60778 0.52768
 C530 C 0.32351 0.57654 0.46987
 C531 C 0.34737 0.55935 0.44693
 C532 C 0.37294 0.57325 0.48158
 C533 C 0.32734 0.67227 0.65045
 C534 C 0.30743 0.68830 0.67620
 C535 C 0.42628 0.60073 0.55736
 C536 C 0.44747 0.58579 0.54698
 H537 H 0.44748 0.65364 0.65086
 H538 H 0.44964 0.70827 0.75054
 H539 H 0.40729 0.73877 0.79120
 H540 H 0.36251 0.71488 0.73286
 H541 H 0.30591 0.62023 0.54329
 H542 H 0.30371 0.56558 0.44327
 H543 H 0.34606 0.53506 0.40252
 H544 H 0.39092 0.55891 0.46194
   
