data_POSCAR
  _audit_creation_date              2014-09-24
  _audit_creation_method            'ToBaCCo'
  _symmetry_space_group_name_H-M    'P1'
  _symmetry_Int_Tables_number       1
  _symmetry_cell_setting            triclinic
  loop_
  _symmetry_equiv_pos_as_xyz
 x,y,z
_cell_length_a 50.8573
_cell_length_b 50.9731
_cell_length_c 51.0893
_cell_angle_alpha 89.978300
_cell_angle_beta 90.004000
_cell_angle_gamma 90.047400
loop_
  _atom_site_label
  _atom_site_type_symbol
  _atom_site_fract_x
  _atom_site_fract_y
  _atom_site_fract_z
N1 N 0.29178 0.23910 0.21849
 N2 N 0.28091 0.26008 0.20812
 C3 C 0.29481 0.26730 0.18685
 C4 C 0.31542 0.24990 0.18380
 C5 C 0.31293 0.23228 0.20421
 H6 H 0.29039 0.28394 0.17448
 H7 H 0.32557 0.21573 0.20833
 Cu8 Cu 0.24962 0.27562 0.22363
 Cu9 Cu 0.27767 0.22207 0.24961
 Cu10 Cu 0.22196 0.24998 0.27744
 N11 N 0.21833 0.29116 0.23913
 N12 N 0.20771 0.28102 0.26032
 C13 C 0.18644 0.29520 0.26703
 C14 C 0.18356 0.31526 0.24906
 C15 C 0.20410 0.31214 0.23162
 H16 H 0.17388 0.29113 0.28363
 H17 H 0.20832 0.32432 0.21480
 N18 N 0.23929 0.21849 0.29179
 N19 N 0.26039 0.20781 0.28114
 C20 C 0.26740 0.18665 0.29533
 C21 C 0.24991 0.18395 0.31582
 C22 C 0.23237 0.20441 0.31303
 H23 H 0.28401 0.17411 0.29117
 H24 H 0.21581 0.20865 0.32561
 H25 H 0.23913 0.23377 0.24441
 H26 H 0.26039 0.25500 0.26532
 N27 N 0.70773 -0.23957 0.21842
 N28 N 0.71874 -0.26041 0.20795
 C29 C 0.70481 -0.26768 0.18670
 C30 C 0.68403 -0.25041 0.18374
 C31 C 0.68649 -0.23282 0.20421
 H32 H 0.70939 -0.28424 0.17430
 H33 H 0.67376 -0.21637 0.20845
 Cu34 Cu 0.75004 -0.27589 0.22350
 Cu35 Cu 0.72177 -0.22266 0.24968
 Cu36 Cu 0.77730 -0.25074 0.27775
 N37 N 0.78122 -0.29160 0.23909
 N38 N 0.79149 -0.28184 0.26062
 C39 C 0.81233 -0.29645 0.26774
 C40 C 0.81534 -0.31640 0.24965
 C41 C 0.79529 -0.31275 0.23170
 H42 H 0.82448 -0.29277 0.28473
 H43 H 0.79118 -0.32472 0.21473
 N44 N 0.75996 -0.21920 0.29206
 N45 N 0.73891 -0.20848 0.28134
 C46 C 0.73204 -0.18717 0.29537
 C47 C 0.74956 -0.18441 0.31583
 C48 C 0.76698 -0.20500 0.31318
 H49 H 0.71557 -0.17449 0.29106
 H50 H 0.78359 -0.20918 0.32571
 H51 H 0.76034 -0.23444 0.24494
 H52 H 0.73898 -0.25591 0.26549
 N53 N 0.70856 0.23956 0.78121
 N54 N 0.71965 0.26034 0.79179
 C55 C 0.70577 0.26751 0.81307
 C56 C 0.68491 0.25032 0.81591
 C57 C 0.68725 0.23286 0.79537
 H58 H 0.71038 0.28398 0.82560
 H59 H 0.67442 0.21649 0.79107
 Cu60 Cu 0.75100 0.27589 0.77628
 Cu61 Cu 0.72262 0.22262 0.75003
 Cu62 Cu 0.77854 0.25037 0.72235
 N63 N 0.78231 0.29151 0.76076
 N64 N 0.79292 0.28140 0.73955
 C65 C 0.81406 0.29578 0.73269
 C66 C 0.81683 0.31601 0.75054
 C67 C 0.79635 0.31271 0.76810
 H68 H 0.82645 0.29185 0.71594
 H69 H 0.79205 0.32489 0.78490
 N70 N 0.76104 0.21894 0.70790
 N71 N 0.73983 0.20836 0.71847
 C72 C 0.73275 0.18721 0.70430
 C73 C 0.75031 0.18438 0.68389
 C74 C 0.76796 0.20480 0.68671
 H75 H 0.71608 0.17471 0.70846
 H76 H 0.78461 0.20894 0.67421
 H77 H 0.76120 0.23420 0.75518
 H78 H 0.74013 0.25568 0.73437
 N79 N 0.29224 -0.23967 0.78152
 N80 N 0.28148 -0.26078 0.79176
 C81 C 0.29536 -0.26797 0.81307
 C82 C 0.31588 -0.25042 0.81624
 C83 C 0.31335 -0.23277 0.79587
 H84 H 0.29095 -0.28465 0.82539
 H85 H 0.32594 -0.21616 0.79179
 Cu86 Cu 0.25016 -0.27639 0.77622
 Cu87 Cu 0.27796 -0.22251 0.75053
 Cu88 Cu 0.22205 -0.25029 0.72287
 N89 N 0.21883 -0.29200 0.76070
 N90 N 0.20790 -0.28154 0.73983
 C91 C 0.18660 -0.29571 0.73311
 C92 C 0.18397 -0.31614 0.75076
 C93 C 0.20476 -0.31322 0.76803
 H94 H 0.17399 -0.29151 0.71658
 H95 H 0.20925 -0.32562 0.78462
 N96 N 0.23933 -0.21867 0.70860
 N97 N 0.26055 -0.20808 0.71915
 C98 C 0.26765 -0.18698 0.70490
 C99 C 0.25009 -0.18420 0.68447
 C100 C 0.23245 -0.20460 0.68734
 H101 H 0.28443 -0.17458 0.70891
 H102 H 0.21590 -0.20887 0.67475
 H103 H 0.23940 -0.23438 0.75592
 H104 H 0.26048 -0.25534 0.73462
 N105 N 0.70860 -0.23956 0.78142
 N106 N 0.71937 -0.26063 0.79166
 C107 C 0.70561 -0.26773 0.81308
 C108 C 0.68514 -0.25020 0.81628
 C109 C 0.68760 -0.23259 0.79586
 H110 H 0.71009 -0.28436 0.82544
 H111 H 0.67503 -0.21597 0.79186
 Cu112 Cu 0.75029 -0.27674 0.77600
 Cu113 Cu 0.72272 -0.22260 0.75033
 Cu114 Cu 0.77848 -0.25030 0.72260
 N115 N 0.78187 -0.29175 0.76054
 N116 N 0.79276 -0.28133 0.73965
 C117 C 0.81411 -0.29542 0.73299
 C118 C 0.81676 -0.31577 0.75069
 C119 C 0.79600 -0.31286 0.76797
 H120 H 0.82675 -0.29121 0.71648
 H121 H 0.79157 -0.32520 0.78462
 N122 N 0.76109 -0.21888 0.70823
 N123 N 0.73991 -0.20830 0.71882
 C124 C 0.73280 -0.18721 0.70459
 C125 C 0.75033 -0.18441 0.68414
 C126 C 0.76796 -0.20479 0.68697
 H127 H 0.71609 -0.17477 0.70869
 H128 H 0.78453 -0.20899 0.67441
 H129 H 0.74006 -0.25550 0.73433
 H130 H 0.76120 -0.23469 0.75576
 N131 N 0.29207 0.23934 0.78105
 N132 N 0.28130 0.26041 0.79130
 C133 C 0.29523 0.26766 0.81255
 C134 C 0.31573 0.25016 0.81569
 C135 C 0.31318 0.23247 0.79536
 H136 H 0.29087 0.28435 0.82485
 H137 H 0.32572 0.21583 0.79134
 Cu138 Cu 0.25006 0.27601 0.77577
 Cu139 Cu 0.27787 0.22222 0.75004
 Cu140 Cu 0.22202 0.25004 0.72234
 N141 N 0.21882 0.29161 0.76023
 N142 N 0.20787 0.28118 0.73937
 C143 C 0.18657 0.29534 0.73271
 C144 C 0.18407 0.31576 0.75032
 C145 C 0.20486 0.31286 0.76752
 H146 H 0.17384 0.29112 0.71628
 H147 H 0.20939 0.32532 0.78404
 N148 N 0.23930 0.21850 0.70805
 N149 N 0.26047 0.20789 0.71864
 C150 C 0.26749 0.18674 0.70447
 C151 C 0.24995 0.18397 0.68405
 C152 C 0.23236 0.20439 0.68685
 H153 H 0.28416 0.17425 0.70859
 H154 H 0.21578 0.20858 0.67430
 H155 H 0.26053 0.25507 0.73417
 H156 H 0.23939 0.23402 0.75535
 N157 N 0.29291 -0.23944 0.21931
 N158 N 0.28216 -0.26057 0.20909
 C159 C 0.29615 -0.26788 0.18792
 C160 C 0.31672 -0.25041 0.18481
 C161 C 0.31410 -0.23265 0.20506
 H162 H 0.29169 -0.28451 0.17553
 H163 H 0.32658 -0.21592 0.20900
 Cu164 Cu 0.25081 -0.27602 0.22454
 Cu165 Cu 0.27837 -0.22197 0.25000
 Cu166 Cu 0.22139 -0.24863 0.27649
 N167 N 0.21948 -0.29148 0.24000
 N168 N 0.20723 -0.27967 0.25937
 C169 C 0.18534 -0.29322 0.26540
 C170 C 0.18416 -0.31493 0.24933
 C171 C 0.20614 -0.31339 0.23354
 H172 H 0.17164 -0.28802 0.28072
 H173 H 0.21156 -0.32691 0.21814
 N174 N 0.23891 -0.21740 0.29104
 N175 N 0.26058 -0.20725 0.28099
 C176 C 0.26773 -0.18627 0.29536
 C177 C 0.24976 -0.18316 0.31537
 C178 C 0.23179 -0.20319 0.31211
 H179 H 0.28479 -0.17415 0.29167
 H180 H 0.21486 -0.20712 0.32430
 H181 H 0.26026 -0.25457 0.26608
 H182 H 0.24002 -0.23364 0.24388
 N183 N 0.70756 0.23890 0.21877
 N184 N 0.71839 0.25997 0.20848
 C185 C 0.70453 0.26722 0.18724
 C186 C 0.68397 0.24977 0.18408
 C187 C 0.68643 0.23208 0.20442
 H188 H 0.70896 0.28392 0.17494
 H189 H 0.67384 0.21546 0.20844
 Cu190 Cu 0.74957 0.27559 0.22405
 Cu191 Cu 0.72169 0.22185 0.24983
 Cu192 Cu 0.77744 0.24983 0.27766
 N193 N 0.78081 0.29118 0.23952
 N194 N 0.79157 0.28092 0.26059
 C195 C 0.81281 0.29520 0.26728
 C196 C 0.81547 0.31540 0.24946
 C197 C 0.79485 0.31231 0.23212
 H198 H 0.82543 0.29113 0.28382
 H199 H 0.79046 0.32463 0.21544
 N200 N 0.76014 0.21828 0.29194
 N201 N 0.73902 0.20758 0.28130
 C202 C 0.73203 0.18640 0.29547
 C203 C 0.74954 0.18371 0.31593
 C204 C 0.76708 0.20420 0.31315
 H205 H 0.71540 0.17384 0.29132
 H206 H 0.78363 0.20846 0.32573
 H207 H 0.73901 0.25477 0.26571
 H208 H 0.76024 0.23371 0.24467
 C209 C 0.25936 0.08117 0.51354
 C210 C 0.25933 0.08121 0.48672
 C211 C 0.25311 0.05591 0.47893
 N212 N 0.24921 0.04046 0.50011
 C213 C 0.25315 0.05585 0.52130
 C214 C 0.25018 0.04783 0.45263
 C215 C 0.24677 0.02138 0.44498
 C216 C 0.23858 0.01347 0.42032
 C217 C 0.23858 -0.01347 0.42035
 C218 C 0.24678 -0.02136 0.44502
 N219 N 0.25187 0.00002 0.45988
 C220 C 0.25024 -0.04779 0.45270
 C221 C 0.25317 -0.05593 0.47898
 C222 C 0.25938 -0.08124 0.48672
 C223 C 0.25943 -0.08128 0.51354
 C224 C 0.25325 -0.05600 0.52136
 N225 N 0.24930 -0.04055 0.50019
 C226 C 0.25040 -0.04793 0.54767
 C227 C 0.24699 -0.02148 0.55534
 C228 C 0.23882 -0.01359 0.58000
 C229 C 0.23876 0.01335 0.57997
 C230 C 0.24690 0.02127 0.55529
 N231 N 0.25203 -0.00010 0.54042
 C232 C 0.25026 0.04772 0.54759
 H233 H 0.26358 0.09790 0.52587
 H234 H 0.26353 0.09796 0.47440
 H235 H 0.26106 -0.00007 0.52221
 H236 H 0.23308 0.02581 0.40398
 H237 H 0.23308 -0.02584 0.40402
 H238 H 0.26355 -0.09796 0.47437
 H239 H 0.26366 -0.09804 0.52585
 H240 H 0.23324 0.02570 0.59630
 H241 H 0.26094 0.00002 0.47808
 H242 H 0.23334 -0.02595 0.59635
 C243 C 0.74040 0.08096 0.48662
 C244 C 0.74043 0.08100 0.51344
 C245 C 0.74664 0.05571 0.52126
 N246 N 0.75053 0.04026 0.50009
 C247 C 0.74660 0.05565 0.47888
 C248 C 0.74958 0.04764 0.54757
 C249 C 0.75294 0.02118 0.55524
 C250 C 0.76115 0.01326 0.57989
 C251 C 0.76116 -0.01369 0.57987
 C252 C 0.75293 -0.02158 0.55521
 N253 N 0.74780 -0.00020 0.54035
 C254 C 0.74952 -0.04804 0.54753
 C255 C 0.74654 -0.05615 0.52124
 C256 C 0.74029 -0.08146 0.51350
 C257 C 0.74023 -0.08148 0.48668
 C258 C 0.74645 -0.05619 0.47885
 N259 N 0.75042 -0.04075 0.50002
 C260 C 0.74931 -0.04812 0.45254
 C261 C 0.75273 -0.02166 0.44486
 C262 C 0.76089 -0.01375 0.42019
 C263 C 0.76097 0.01320 0.42021
 C264 C 0.75285 0.02109 0.44490
 N265 N 0.74771 -0.00029 0.45977
 C266 C 0.74949 0.04753 0.45259
 H267 H 0.73618 0.09769 0.47428
 H268 H 0.73623 0.09775 0.52575
 H269 H 0.73869 -0.00028 0.47799
 H270 H 0.76671 0.02560 0.59621
 H271 H 0.76671 -0.02605 0.59618
 H272 H 0.73609 -0.09819 0.52585
 H273 H 0.73597 -0.09823 0.47438
 H274 H 0.76649 0.02556 0.40388
 H275 H 0.73873 -0.00020 0.52215
 H276 H 0.76636 -0.02608 0.40383
 C277 C 0.51342 0.26031 0.08073
 C278 C 0.48649 0.26033 0.08075
 C279 C 0.47867 0.25404 0.05553
 N280 N 0.49993 0.25005 0.04015
 C281 C 0.52121 0.25400 0.05551
 C282 C 0.45228 0.25109 0.04746
 C283 C 0.44462 0.24764 0.02108
 C284 C 0.41987 0.23942 0.01317
 C285 C 0.41991 0.23940 -0.01371
 C286 C 0.44470 0.24760 -0.02155
 N287 N 0.45961 0.25273 -0.00022
 C288 C 0.45243 0.25106 -0.04792
 C289 C 0.47883 0.25401 -0.05599
 C290 C 0.48664 0.26034 -0.08121
 C291 C 0.51357 0.26034 -0.08121
 C292 C 0.52138 0.25400 -0.05601
 N293 N 0.50010 0.25000 -0.04063
 C294 C 0.54778 0.25106 -0.04793
 C295 C 0.55543 0.24758 -0.02155
 C296 C 0.58016 0.23935 -0.01362
 C297 C 0.58010 0.23931 0.01326
 C298 C 0.55533 0.24752 0.02109
 N299 N 0.54044 0.25266 -0.00025
 C300 C 0.54760 0.25098 0.04745
 H301 H 0.52582 0.26456 0.09742
 H302 H 0.47411 0.26458 0.09744
 H303 H 0.52218 0.26174 -0.00027
 H304 H 0.40344 0.23392 0.02548
 H305 H 0.40353 0.23389 -0.02605
 H306 H 0.47425 0.26464 -0.09788
 H307 H 0.52596 0.26465 -0.09789
 H308 H 0.59647 0.23379 0.02562
 H309 H 0.47789 0.26180 -0.00022
 H310 H 0.59658 0.23384 -0.02592
 C311 C 0.48728 0.73991 0.08135
 C312 C 0.51422 0.73994 0.08138
 C313 C 0.52204 0.74608 0.05612
 N314 N 0.50076 0.74994 0.04071
 C315 C 0.47947 0.74605 0.05609
 C316 C 0.54845 0.74891 0.04803
 C317 C 0.55614 0.75223 0.02162
 C318 C 0.58096 0.76023 0.01370
 C319 C 0.58090 0.76027 -0.01318
 C320 C 0.55605 0.75227 -0.02103
 N321 N 0.54111 0.74724 0.00032
 C322 C 0.54828 0.74896 -0.04741
 C323 C 0.52187 0.74605 -0.05548
 C324 C 0.51406 0.73984 -0.08072
 C325 C 0.48713 0.73985 -0.08074
 C326 C 0.47931 0.74605 -0.05550
 N327 N 0.50059 0.74996 -0.04011
 C328 C 0.45291 0.74892 -0.04742
 C329 C 0.44524 0.75232 -0.02103
 C330 C 0.42046 0.76042 -0.01312
 C331 C 0.42050 0.76042 0.01376
 C332 C 0.44531 0.75233 0.02162
 N333 N 0.46024 0.74729 0.00028
 C334 C 0.45305 0.74893 0.04800
 H335 H 0.47489 0.73573 0.09806
 H336 H 0.52659 0.73580 0.09810
 H337 H 0.47855 0.73832 0.00028
 H338 H 0.59743 0.76560 0.02599
 H339 H 0.59733 0.76565 -0.02553
 H340 H 0.52645 0.73563 -0.09742
 H341 H 0.47475 0.73567 -0.09745
 H342 H 0.40409 0.76586 0.02610
 H343 H 0.52276 0.73832 0.00033
 H344 H 0.40403 0.76587 -0.02543
 C345 C 0.08191 0.51365 0.24258
 C346 C 0.08192 0.48686 0.24389
 C347 C 0.05602 0.47914 0.24727
 N348 N 0.04030 0.50049 0.24865
 C349 C 0.05610 0.52169 0.24604
 C350 C 0.04753 0.45272 0.24865
 C351 C 0.02085 0.44468 0.24914
 C352 C 0.01273 0.41899 0.24527
 C353 C -0.01421 0.41908 0.24552
 C354 C -0.02205 0.44482 0.24964
 N355 N -0.00051 0.46028 0.25215
 C356 C -0.04868 0.45301 0.25033
 C357 C -0.05707 0.47948 0.25010
 C358 C -0.08314 0.48740 0.25075
 C359 C -0.08309 0.51422 0.24961
 C360 C -0.05698 0.52197 0.24853
 N361 N -0.04114 0.50069 0.24891
 C362 C -0.04844 0.54837 0.24905
 C363 C -0.02173 0.55618 0.25089
 C364 C -0.01358 0.58137 0.25717
 C365 C 0.01335 0.58118 0.25732
 C366 C 0.02121 0.55604 0.25051
 N367 N -0.00036 0.54089 0.24651
 C368 C 0.04785 0.54818 0.24785
 H369 H 0.09915 0.52564 0.23937
 H370 H 0.09917 0.47459 0.24222
 H371 H -0.00048 0.52202 0.23889
 H372 H 0.02491 0.40196 0.24172
 H373 H -0.02657 0.40211 0.24227
 H374 H -0.10049 0.47521 0.25219
 H375 H -0.10037 0.52656 0.25028
 H376 H 0.02564 0.59778 0.26226
 H377 H -0.00039 0.47995 0.25719
 H378 H -0.02561 0.59826 0.26160
 C379 C 0.08122 0.48708 0.74163
 C380 C 0.08126 0.51396 0.74168
 C381 C 0.05592 0.52176 0.74788
 N382 N 0.04043 0.50052 0.75175
 C383 C 0.05585 0.47928 0.74781
 C384 C 0.04786 0.54813 0.75078
 C385 C 0.02135 0.55583 0.75413
 C386 C 0.01343 0.58059 0.76212
 C387 C -0.01358 0.58057 0.76211
 C388 C -0.02150 0.55579 0.75410
 N389 N -0.00008 0.54087 0.74913
 C390 C -0.04800 0.54808 0.75069
 C391 C -0.05615 0.52171 0.74787
 C392 C -0.08153 0.51393 0.74173
 C393 C -0.08158 0.48706 0.74172
 C394 C -0.05623 0.47923 0.74787
 N395 N -0.04073 0.50046 0.75176
 C396 C -0.04816 0.45286 0.75066
 C397 C -0.02165 0.44515 0.75398
 C398 C -0.01374 0.42039 0.76198
 C399 C 0.01327 0.42040 0.76197
 C400 C 0.02120 0.44518 0.75398
 N401 N -0.00022 0.46011 0.74898
 C402 C 0.04772 0.45291 0.75065
 H403 H 0.09796 0.47472 0.73739
 H404 H 0.09804 0.52632 0.73749
 H405 H -0.00020 0.47841 0.74007
 H406 H 0.02581 0.59701 0.76749
 H407 H -0.02596 0.59696 0.76746
 H408 H -0.09829 0.52631 0.73755
 H409 H -0.09836 0.47471 0.73751
 H410 H 0.02564 0.40400 0.76735
 H411 H -0.00009 0.52258 0.74022
 H412 H -0.02613 0.40398 0.76737
 C413 C 0.37320 0.25023 0.12549
 N414 N 0.35383 0.26855 0.12552
 N415 N 0.33541 0.26845 0.14408
 C416 C 0.33569 0.25003 0.16327
 N417 N 0.35503 0.23169 0.16321
 N418 N 0.37345 0.23179 0.14467
 C419 C 0.39363 0.25040 0.10515
 N420 N 0.41342 0.23254 0.10566
 N421 N 0.43205 0.23275 0.08733
 C422 C 0.43154 0.25081 0.06780
 N423 N 0.41172 0.26862 0.06723
 N424 N 0.39312 0.26845 0.08560
 C425 C 0.62728 0.74920 0.12641
 N426 N 0.62723 0.76785 0.14537
 N427 N 0.64561 0.76794 0.16396
 C428 C 0.66475 0.74937 0.16431
 N429 N 0.66478 0.73069 0.14534
 N430 N 0.64639 0.73061 0.12674
 C431 C 0.60696 0.74918 0.10593
 N432 N 0.60722 0.73093 0.08657
 N433 N 0.58870 0.73092 0.06811
 C434 C 0.56921 0.74910 0.06839
 N435 N 0.56897 0.76738 0.08770
 N436 N 0.58753 0.76744 0.10611
 C437 C 0.62681 0.25078 -0.12606
 N438 N 0.62650 0.23246 -0.14534
 N439 N 0.64501 0.23233 -0.16379
 C440 C 0.66453 0.25051 -0.16366
 N441 N 0.66486 0.26884 -0.14439
 N442 N 0.64634 0.26897 -0.12591
 C443 C 0.60637 0.25084 -0.10572
 N444 N 0.60697 0.26870 -0.08601
 N445 N 0.58841 0.26871 -0.06759
 C446 C 0.56854 0.25091 -0.06827
 N447 N 0.56797 0.23303 -0.08795
 N448 N 0.58656 0.23298 -0.10632
 C449 C 0.37369 0.74944 -0.12541
 N450 N 0.37385 0.76792 -0.14456
 N451 N 0.35540 0.76797 -0.16308
 C452 C 0.33613 0.74954 -0.16318
 N453 N 0.33592 0.73108 -0.14401
 N454 N 0.35435 0.73104 -0.12545
 C455 C 0.39417 0.74934 -0.10510
 N456 N 0.39374 0.73129 -0.08554
 N457 N 0.41236 0.73120 -0.06718
 C458 C 0.43214 0.74910 -0.06777
 N459 N 0.43259 0.76714 -0.08732
 N460 N 0.41393 0.76727 -0.10563
 C461 C 0.12517 0.37307 0.24818
 N462 N 0.14287 0.37136 0.22836
 N463 N 0.16147 0.35295 0.22862
 C464 C 0.16299 0.33553 0.24867
 N465 N 0.14524 0.33718 0.26844
 N466 N 0.12670 0.35564 0.26823
 C467 C 0.10488 0.39359 0.24812
 N468 N 0.08884 0.39683 0.26912
 N469 N 0.07065 0.41562 0.26923
 C470 C 0.06783 0.43186 0.24836
 N471 N 0.08369 0.42848 0.22725
 N472 N 0.10194 0.40973 0.22717
 C473 C 0.12660 0.62691 0.75118
 N474 N 0.12672 0.64593 0.73258
 N475 N 0.14532 0.66437 0.73247
 C476 C 0.16451 0.66452 0.75097
 N477 N 0.16434 0.64552 0.76963
 N478 N 0.14574 0.62706 0.76973
 C479 C 0.10609 0.60653 0.75120
 N480 N 0.10635 0.58701 0.76929
 N481 N 0.08785 0.56847 0.76917
 C482 C 0.06837 0.56881 0.75100
 N483 N 0.06804 0.58838 0.73296
 N484 N 0.08658 0.60686 0.73303
 C485 C -0.12786 0.62625 0.24952
 N486 N -0.14559 0.62784 0.22970
 N487 N -0.16410 0.64633 0.22979
 C488 C -0.16548 0.66404 0.24961
 N489 N -0.14771 0.66244 0.26939
 N490 N -0.12930 0.64386 0.26938
 C491 C -0.10731 0.60599 0.24942
 N492 N -0.09196 0.60216 0.27083
 N493 N -0.07321 0.58391 0.27075
 C494 C -0.06896 0.56901 0.24914
 N495 N -0.08440 0.57274 0.22778
 N496 N -0.10323 0.59090 0.22791
 C497 C -0.12648 0.37365 0.75075
 N498 N -0.12664 0.35483 0.73196
 N499 N -0.14500 0.33616 0.73191
 C500 C -0.16392 0.33556 0.75067
 N501 N -0.16374 0.35439 0.76949
 N502 N -0.14538 0.37308 0.76952
 C503 C -0.10616 0.39423 0.75077
 N504 N -0.10648 0.41360 0.76900
 N505 N -0.08807 0.43224 0.76897
 C506 C -0.06864 0.43213 0.75075
 N507 N -0.06826 0.41271 0.73257
 N508 N -0.08671 0.39414 0.73255
 C509 C 0.24987 0.12599 0.37381
 N510 N 0.26836 0.12592 0.35464
 N511 N 0.26839 0.14440 0.33619
 C512 C 0.24993 0.16361 0.33622
 N513 N 0.23144 0.16369 0.35539
 N514 N 0.23142 0.14523 0.37386
 C515 C 0.24985 0.10563 0.39418
 N516 N 0.23182 0.10613 0.41377
 N517 N 0.23191 0.08777 0.43234
 C518 C 0.25001 0.06821 0.43196
 N519 N 0.26796 0.06762 0.41230
 N520 N 0.26791 0.08603 0.39378
 C521 C 0.75026 0.12610 0.62616
 N522 N 0.76874 0.14534 0.62602
 N523 N 0.76876 0.16390 0.64440
 C524 C 0.75028 0.16392 0.66357
 N525 N 0.73178 0.14470 0.66370
 N526 N 0.73178 0.12613 0.64534
 C527 C 0.75020 0.10565 0.60586
 N528 N 0.73215 0.08600 0.60642
 N529 N 0.73202 0.06753 0.58797
 C530 C 0.74988 0.06808 0.56822
 N531 N 0.76796 0.08769 0.56768
 N532 N 0.76813 0.10611 0.58617
 C533 C 0.25009 -0.12618 0.62648
 N534 N 0.23160 -0.14541 0.62645
 N535 N 0.23163 -0.16391 0.64490
 C536 C 0.25016 -0.16387 0.66403
 N537 N 0.26865 -0.14464 0.66405
 N538 N 0.26861 -0.12613 0.64562
 C539 C 0.25008 -0.10579 0.60611
 N540 N 0.26814 -0.08616 0.60652
 N541 N 0.26819 -0.06774 0.58800
 C542 C 0.25024 -0.06834 0.56834
 N543 N 0.23215 -0.08794 0.56794
 N544 N 0.23206 -0.10632 0.58650
 C545 C 0.74966 -0.12632 0.37372
 N546 N 0.73124 -0.12621 0.35449
 N547 N 0.73122 -0.14469 0.33604
 C548 C 0.74963 -0.16396 0.33614
 N549 N 0.76807 -0.16406 0.35536
 N550 N 0.76808 -0.14559 0.37381
 C551 C 0.74964 -0.10597 0.39411
 N552 N 0.76760 -0.10652 0.41378
 N553 N 0.76750 -0.08815 0.43233
 C554 C 0.74947 -0.06853 0.43187
 N555 N 0.73158 -0.06790 0.41215
 N556 N 0.73164 -0.08631 0.39364
 C557 C 0.62721 0.74950 -0.12555
 N558 N 0.64653 0.73112 -0.12556
 N559 N 0.66503 0.73123 -0.14404
 C560 C 0.66489 0.74973 -0.16317
 N561 N 0.64560 0.76813 -0.16312
 N562 N 0.62710 0.76801 -0.14466
 C563 C 0.60675 0.74937 -0.10525
 N564 N 0.58710 0.76739 -0.10567
 N565 N 0.56854 0.76729 -0.08728
 C566 C 0.56898 0.74920 -0.06777
 N567 N 0.58866 0.73122 -0.06730
 N568 N 0.60719 0.73129 -0.08574
 C569 C 0.37337 0.25037 -0.12590
 N570 N 0.35408 0.26877 -0.12601
 N571 N 0.33570 0.26871 -0.14461
 C572 C 0.33594 0.25024 -0.16375
 N573 N 0.35519 0.23182 -0.16360
 N574 N 0.37358 0.23189 -0.14502
 C575 C 0.39378 0.25050 -0.10556
 N576 N 0.41349 0.23256 -0.10603
 N577 N 0.43213 0.23274 -0.08772
 C578 C 0.43171 0.25085 -0.06825
 N579 N 0.41195 0.26874 -0.06771
 N580 N 0.39335 0.26860 -0.08607
 C581 C 0.37437 0.74936 0.12640
 N582 N 0.35510 0.73091 0.12658
 N583 N 0.33672 0.73097 0.14517
 C584 C 0.33693 0.74951 0.16424
 N585 N 0.35618 0.76797 0.16405
 N586 N 0.37457 0.76789 0.14548
 C587 C 0.39467 0.74931 0.10595
 N588 N 0.41429 0.76739 0.10624
 N589 N 0.43280 0.76730 0.08780
 C590 C 0.43234 0.74916 0.06837
 N591 N 0.41267 0.73114 0.06798
 N592 N 0.39419 0.73119 0.08647
 C593 C 0.62642 0.25016 0.12562
 N594 N 0.64576 0.26854 0.12577
 N595 N 0.66412 0.26842 0.14438
 C596 C 0.66380 0.24991 0.16350
 N597 N 0.64449 0.23152 0.16331
 N598 N 0.62613 0.23165 0.14473
 C599 C 0.60607 0.25032 0.10524
 N600 N 0.58634 0.23236 0.10563
 N601 N 0.56776 0.23255 0.08726
 C602 C 0.56828 0.25069 0.06781
 N603 N 0.58805 0.26860 0.06734
 N604 N 0.60659 0.26844 0.08576
 C605 C -0.12630 0.62702 0.75090
 N606 N -0.12640 0.64600 0.73225
 N607 N -0.14483 0.66455 0.73224
 C608 C -0.16387 0.66487 0.75088
 N609 N -0.16375 0.64588 0.76956
 N610 N -0.14531 0.62731 0.76956
 C611 C -0.10598 0.60654 0.75084
 N612 N -0.10626 0.58715 0.76907
 N613 N -0.08783 0.56859 0.76903
 C614 C -0.06842 0.56877 0.75079
 N615 N -0.06808 0.58819 0.73260
 N616 N -0.08655 0.60671 0.73260
 C617 C -0.12654 0.37360 0.24915
 N618 N -0.14479 0.37256 0.22977
 N619 N -0.16327 0.35400 0.22981
 C620 C -0.16410 0.33579 0.24920
 N621 N -0.14579 0.33678 0.26849
 N622 N -0.12737 0.35536 0.26849
 C623 C -0.10633 0.39417 0.24936
 N624 N -0.08899 0.39589 0.26950
 N625 N -0.07072 0.41463 0.26984
 C626 C -0.06916 0.43233 0.25005
 N627 N -0.08642 0.43055 0.22985
 N628 N -0.10471 0.41184 0.22954
 C629 C 0.12595 0.37385 0.75096
 N630 N 0.12582 0.35475 0.73245
 N631 N 0.14432 0.33626 0.73228
 C632 C 0.16363 0.33616 0.75062
 N633 N 0.16375 0.35522 0.76917
 N634 N 0.14525 0.37374 0.76934
 C635 C 0.10561 0.39433 0.75099
 N636 N 0.10608 0.41389 0.76902
 N637 N 0.08770 0.43251 0.76892
 C638 C 0.06816 0.43221 0.75081
 N639 N 0.06763 0.41262 0.73283
 N640 N 0.08605 0.39404 0.73289
 C641 C 0.12619 0.62711 0.24895
 N642 N 0.11977 0.65253 0.25346
 N643 N 0.13832 0.67100 0.25382
 C644 C 0.16382 0.66472 0.24916
 N645 N 0.17020 0.63932 0.24443
 N646 N 0.15172 0.62078 0.24458
 C647 C 0.10589 0.60683 0.24877
 N648 N 0.10815 0.58542 0.26436
 N649 N 0.08960 0.56698 0.26428
 C650 C 0.06839 0.56899 0.24823
 N651 N 0.06623 0.59046 0.23260
 N652 N 0.08455 0.60915 0.23302
 C653 C 0.75025 -0.12628 0.62630
 N654 N 0.73177 -0.12630 0.64548
 N655 N 0.73178 -0.14483 0.66388
 C656 C 0.75028 -0.16402 0.66379
 N657 N 0.76877 -0.16400 0.64462
 N658 N 0.76874 -0.14548 0.62621
 C659 C 0.75017 -0.10590 0.60595
 N660 N 0.76813 -0.10635 0.58629
 N661 N 0.76793 -0.08798 0.56773
 C662 C 0.74980 -0.06845 0.56819
 N663 N 0.73190 -0.06792 0.58790
 N664 N 0.73206 -0.08634 0.60642
 C665 C 0.24990 -0.12558 0.37365
 N666 N 0.23115 -0.14456 0.37336
 N667 N 0.23110 -0.16289 0.35479
 C668 C 0.24982 -0.16294 0.33584
 N669 N 0.26858 -0.14399 0.33614
 N670 N 0.26861 -0.12563 0.35470
 C671 C 0.24995 -0.10537 0.39412
 N672 N 0.26817 -0.08589 0.39392
 N673 N 0.26823 -0.06757 0.41251
 C674 C 0.25012 -0.06813 0.43202
 N675 N 0.23187 -0.08758 0.43222
 N676 N 0.23178 -0.10586 0.41359
 C677 C 0.74972 0.12570 0.37382
 N678 N 0.76816 0.14496 0.37385
 N679 N 0.76810 0.16345 0.35541
 C680 C 0.74956 0.16336 0.33629
 N681 N 0.73109 0.14412 0.33628
 N682 N 0.73117 0.12562 0.35470
 C683 C 0.74977 0.10533 0.39416
 N684 N 0.73167 0.08574 0.39380
 N685 N 0.73164 0.06733 0.41232
 C686 C 0.74966 0.06790 0.43191
 N687 N 0.76781 0.08745 0.43225
 N688 N 0.76787 0.10582 0.41369
 C689 C 0.24995 0.12596 0.62620
 N690 N 0.26849 0.12596 0.64532
 N691 N 0.26851 0.14447 0.66373
 C692 C 0.24999 0.16363 0.66369
 N693 N 0.23146 0.16364 0.64456
 N694 N 0.23145 0.14515 0.62614
 C695 C 0.24993 0.10557 0.60590
 N696 N 0.23183 0.10599 0.58637
 N697 N 0.23191 0.08759 0.56785
 C698 C 0.25006 0.06809 0.56824
 N699 N 0.26808 0.06758 0.58783
 N700 N 0.26804 0.08602 0.60631
   
