data_POSCAR
  _audit_creation_date              2014-09-24
  _audit_creation_method            'ToBaCCo'
  _symmetry_space_group_name_H-M    'P1'
  _symmetry_Int_Tables_number       1
  _symmetry_cell_setting            triclinic
  loop_
  _symmetry_equiv_pos_as_xyz
 x,y,z
_cell_length_a 35.6384
_cell_length_b 35.5643
_cell_length_c 33.2697
_cell_angle_alpha 90.029200
_cell_angle_beta 90.030900
_cell_angle_gamma 120.153400
loop_
  _atom_site_label
  _atom_site_type_symbol
  _atom_site_fract_x
  _atom_site_fract_y
  _atom_site_fract_z
O1 O 0.00376 0.53805 -0.05158
 O2 O 0.05390 0.49000 0.01134
 O3 O 0.00352 0.46505 -0.05204
 O4 O 0.05406 0.56297 0.01182
 O5 O -0.00374 0.53380 0.05117
 O6 O -0.05426 0.43588 -0.01267
 O7 O -0.00389 0.46083 0.05071
 O8 O -0.05405 0.50888 -0.01223
 Cu9 Cu 0.03464 0.51696 -0.02408
 Cu10 Cu -0.03481 0.48190 0.02321
 C11 C -0.03384 0.53110 -0.04282
 C12 C 0.03371 0.46780 0.04195
 C13 C -0.03415 0.43418 -0.04344
 C14 C 0.03391 0.56468 0.04256
 O15 O 0.56323 0.50864 -0.01224
 O16 O 0.46514 0.46085 0.05093
 O17 O 0.49038 0.43553 -0.01225
 O18 O 0.53798 0.53398 0.05086
 O19 O 0.50912 0.56266 0.01121
 O20 O 0.46151 0.46421 -0.05188
 O21 O 0.43627 0.48953 0.01129
 O22 O 0.53437 0.53731 -0.05189
 Cu23 Cu 0.51708 0.48185 0.02332
 Cu24 Cu 0.48240 0.51631 -0.02431
 C25 C 0.56512 0.53057 -0.04302
 C26 C 0.43440 0.46761 0.04208
 C27 C 0.46840 0.43350 -0.04303
 C28 C 0.53112 0.56470 0.04197
 O29 O 0.53397 0.99705 -0.05140
 O30 O 0.43599 0.94672 0.01192
 O31 O 0.46127 0.99713 -0.05145
 O32 O 0.50860 0.94648 0.01176
 O33 O 0.53775 1.00435 0.05128
 O34 O 0.49043 1.05503 -0.01198
 O35 O 0.46514 1.00462 0.05140
 O36 O 0.56312 1.05492 -0.01189
 Cu37 Cu 0.48200 0.96601 -0.02378
 Cu38 Cu 0.51703 1.03557 0.02368
 C39 C 0.56486 1.03471 -0.04260
 C40 C 0.43429 0.96692 0.04267
 C41 C 0.46836 1.03488 -0.04272
 C42 C 0.53071 0.96663 0.04247
 O43 O 0.94681 0.51043 0.51136
 O44 O 0.99700 0.46261 0.44816
 O45 O 0.94664 0.43746 0.51144
 O46 O 0.99726 0.53563 0.44811
 O47 O 1.05501 0.56463 0.48761
 O48 O 1.00441 0.46646 0.55093
 O49 O 1.05477 0.49161 0.48765
 O50 O 1.00457 0.53943 0.55087
 Cu51 Cu 0.96611 0.48362 0.47578
 Cu52 Cu 1.03551 0.51846 0.52325
 C53 C 0.96697 0.53251 0.54209
 C54 C 1.03458 0.46951 0.45695
 C55 C 0.96676 0.43564 0.54217
 C56 C 1.03492 0.56646 0.45686
 O57 O 0.53794 0.53407 0.44841
 O58 O 0.49038 0.43609 0.51203
 O59 O 0.46503 0.46102 0.44866
 O60 O 0.56335 0.50909 0.51166
 O61 O 0.53477 0.53818 0.55112
 O62 O 0.43644 0.49012 0.48811
 O63 O 0.46179 0.46519 0.55147
 O64 O 0.50936 0.56316 0.48788
 Cu65 Cu 0.51705 0.48212 0.47621
 Cu66 Cu 0.48270 0.51709 0.52363
 C67 C 0.53121 0.56491 0.45712
 C68 C 0.46854 0.43435 0.54279
 C69 C 0.43440 0.46796 0.45744
 C70 C 0.56542 0.53128 0.54231
 O71 O 0.50854 -0.05449 0.48796
 O72 O 0.46074 -0.00448 0.55139
 O73 O 0.43564 -0.05482 0.48789
 O74 O 0.53372 -0.00400 0.55128
 O75 O 0.56248 0.05392 0.51192
 O76 O 0.46441 0.00312 0.44857
 O77 O 0.48952 0.05346 0.51207
 O78 O 0.53731 0.00343 0.44861
 Cu79 Cu 0.48174 -0.03529 0.52359
 Cu80 Cu 0.51632 0.03432 0.47633
 C81 C 0.53053 -0.03420 0.45730
 C82 C 0.46757 0.03318 0.54276
 C83 C 0.43372 -0.03467 0.45721
 C84 C 0.56442 0.03376 0.54258
 C85 C 0.33290 0.43381 0.27036
 C86 C 0.33291 0.43377 0.22912
 C87 C 0.29124 0.42235 0.21713
 N88 N 0.26571 0.41486 0.24966
 C89 C 0.29122 0.42243 0.28226
 C90 C 0.27727 0.41792 0.17675
 C91 C 0.23595 0.41040 0.16497
 C92 C 0.21906 0.39917 0.12641
 C93 C 0.18044 0.39920 0.12638
 C94 C 0.17479 0.41045 0.16491
 N95 N 0.20876 0.41720 0.18816
 C96 C 0.14106 0.41807 0.17660
 C97 C 0.13159 0.42269 0.21693
 C98 C 0.10150 0.43435 0.22879
 C99 C 0.10158 0.43455 0.27002
 C100 C 0.13170 0.42300 0.28206
 N101 N 0.14952 0.41519 0.24955
 C102 C 0.14128 0.41873 0.32244
 C103 C 0.17495 0.41106 0.33424
 C104 C 0.18061 0.39998 0.37284
 C105 C 0.21915 0.39978 0.37288
 C106 C 0.23598 0.41076 0.33431
 N107 N 0.20883 0.41756 0.31104
 C108 C 0.27725 0.41811 0.32260
 H109 H 0.36049 0.44145 0.28938
 H110 H 0.36051 0.44136 0.21018
 H111 H 0.21602 0.43175 0.28282
 H112 H 0.23352 0.39258 0.10074
 H113 H 0.15940 0.39264 0.10066
 H114 H 0.08162 0.44201 0.20975
 H115 H 0.08175 0.44238 0.28895
 H116 H 0.23360 0.39326 0.39861
 H117 H 0.21595 0.43154 0.21634
 H118 H 0.15964 0.39363 0.39853
 C119 C 0.56512 0.66658 0.26996
 C120 C 0.56510 0.66662 0.22873
 C121 C 0.57650 0.70840 0.21685
 N122 N 0.58405 0.73395 0.24945
 C123 C 0.57653 0.70834 0.28197
 C124 C 0.58086 0.72243 0.17651
 C125 C 0.58827 0.76381 0.16481
 C126 C 0.59929 0.78071 0.12626
 C127 C 0.59920 0.81938 0.12631
 C128 C 0.58812 0.82505 0.16490
 N129 N 0.58153 0.79105 0.18808
 C130 C 0.58056 0.85885 0.17671
 C131 C 0.57619 0.86839 0.21709
 C132 C 0.56467 0.89858 0.22910
 C133 C 0.56473 0.89856 0.27034
 C134 C 0.57627 0.86835 0.28221
 N135 N 0.58384 0.85044 0.24961
 C136 C 0.58075 0.85878 0.32255
 C137 C 0.58834 0.82498 0.33424
 C138 C 0.59948 0.81927 0.37279
 C139 C 0.59953 0.78058 0.37274
 C140 C 0.58841 0.76370 0.33416
 N141 N 0.58166 0.79097 0.31097
 C142 C 0.58092 0.72231 0.32235
 H143 H 0.55751 0.63891 0.28889
 H144 H 0.55747 0.63898 0.20970
 H145 H 0.56740 0.78380 0.28276
 H146 H 0.60579 0.76622 0.10053
 H147 H 0.60561 0.84043 0.10063
 H148 H 0.55694 0.91851 0.21017
 H149 H 0.55705 0.91847 0.28936
 H150 H 0.60605 0.76605 0.39842
 H151 H 0.56734 0.78385 0.21629
 H152 H 0.60596 0.84031 0.39852
 C153 C 0.10152 0.66618 0.23008
 C154 C 0.10156 0.66619 0.27132
 C155 C 0.13185 0.70804 0.28329
 N156 N 0.14980 0.73365 0.25074
 C157 C 0.13178 0.70802 0.21816
 C158 C 0.14150 0.72207 0.32365
 C159 C 0.17543 0.76352 0.33543
 C160 C 0.18128 0.78037 0.37403
 C161 C 0.22004 0.81914 0.37406
 C162 C 0.23681 0.82493 0.33548
 N163 N 0.20941 0.79089 0.31221
 C164 C 0.27818 0.85887 0.32373
 C165 C 0.29205 0.86856 0.28336
 C166 C 0.33375 0.89897 0.27137
 C167 C 0.33361 0.89905 0.23013
 C168 C 0.29183 0.86868 0.21823
 N169 N 0.26639 0.85058 0.25082
 C170 C 0.27770 0.85912 0.17789
 C171 C 0.23631 0.82513 0.16616
 C172 C 0.21936 0.81937 0.12762
 C173 C 0.18071 0.78050 0.12760
 C174 C 0.17508 0.76358 0.16611
 N175 N 0.20911 0.79099 0.18934
 C176 C 0.14131 0.72205 0.17781
 H177 H 0.08152 0.63848 0.21108
 H178 H 0.08161 0.63850 0.29028
 H179 H 0.21632 0.78386 0.21750
 H180 H 0.16029 0.76578 0.39974
 H181 H 0.23467 0.84019 0.39979
 H182 H 0.36145 0.91897 0.29032
 H183 H 0.36118 0.91912 0.21112
 H184 H 0.15962 0.76590 0.10191
 H185 H 0.21645 0.78379 0.28397
 H186 H 0.23381 0.84050 0.10195
 C187 C 0.66716 0.56533 0.72897
 C188 C 0.66708 0.56519 0.77020
 C189 C 0.70879 0.57675 0.78222
 N190 N 0.73440 0.58452 0.74971
 C191 C 0.70892 0.57697 0.71709
 C192 C 0.72269 0.58105 0.82260
 C193 C 0.76403 0.58867 0.83440
 C194 C 0.78082 0.59970 0.87301
 C195 C 0.81951 0.59983 0.87303
 C196 C 0.82532 0.58887 0.83443
 N197 N 0.79137 0.58214 0.81117
 C198 C 0.85918 0.58148 0.82268
 C199 C 0.86884 0.57723 0.78231
 C200 C 0.89912 0.56588 0.77036
 C201 C 0.89919 0.56600 0.72913
 C202 C 0.86896 0.57743 0.71718
 N203 N 0.85094 0.58486 0.74975
 C204 C 0.85945 0.58192 0.67683
 C205 C 0.82563 0.58938 0.66509
 C206 C 0.81994 0.60058 0.62655
 C207 C 0.78125 0.60048 0.62653
 C208 C 0.76436 0.58923 0.66506
 N209 N 0.79161 0.58253 0.68828
 C210 C 0.72298 0.58155 0.67676
 H211 H 0.63957 0.55764 0.70994
 H212 H 0.63941 0.55737 0.78913
 H213 H 0.78445 0.56819 0.71644
 H214 H 0.76623 0.60606 0.89873
 H215 H 0.84050 0.60631 0.89876
 H216 H 0.91904 0.55820 0.78934
 H217 H 0.91918 0.55844 0.71014
 H218 H 0.76675 0.60700 0.60084
 H219 H 0.78430 0.56796 0.78291
 H220 H 0.84099 0.60719 0.60088
 C221 C 0.43507 0.33335 0.77153
 C222 C 0.43497 0.33327 0.73029
 C223 C 0.42341 0.29144 0.71837
 N224 N 0.41588 0.26591 0.75095
 C225 C 0.42358 0.29156 0.78350
 C226 C 0.41886 0.27734 0.67802
 C227 C 0.41115 0.23585 0.66632
 C228 C 0.39982 0.21884 0.62780
 C229 C 0.39968 0.18006 0.62782
 C230 C 0.41095 0.17444 0.66635
 N231 N 0.41787 0.20858 0.68954
 C232 C 0.41845 0.14058 0.67807
 C233 C 0.42306 0.13112 0.71841
 C234 C 0.43455 0.10088 0.73031
 C235 C 0.43479 0.10102 0.77155
 C236 C 0.42344 0.13134 0.78354
 N237 N 0.41570 0.14921 0.75101
 C238 C 0.41926 0.14105 0.82392
 C239 C 0.41180 0.17493 0.83567
 C240 C 0.40084 0.18075 0.87426
 C241 C 0.40082 0.21945 0.87423
 C242 C 0.41178 0.23624 0.83564
 N243 N 0.41840 0.20890 0.81241
 C244 C 0.41926 0.27762 0.82386
 H245 H 0.44283 0.36106 0.79050
 H246 H 0.44262 0.36091 0.71130
 H247 H 0.43253 0.21599 0.78417
 H248 H 0.39326 0.23333 0.60211
 H249 H 0.39301 0.15891 0.60215
 H250 H 0.44208 0.08084 0.71130
 H251 H 0.44253 0.08111 0.79050
 H252 H 0.39442 0.23405 0.89994
 H253 H 0.43226 0.21581 0.71769
 H254 H 0.39445 0.15976 0.89998
 C255 C 0.66653 0.10212 0.77065
 C256 C 0.66646 0.10205 0.72942
 C257 C 0.70823 0.13228 0.71745
 N258 N 0.73386 0.15031 0.75000
 C259 C 0.70833 0.13240 0.78257
 C260 C 0.72217 0.14179 0.67709
 C261 C 0.76359 0.17562 0.66533
 C262 C 0.78039 0.18127 0.62677
 C263 C 0.81920 0.21998 0.62676
 C264 C 0.82507 0.23693 0.66531
 N265 N 0.79104 0.20968 0.68854
 C266 C 0.85906 0.27836 0.67704
 C267 C 0.86875 0.29246 0.71738
 C268 C 0.89917 0.33428 0.72930
 C269 C 0.89922 0.33438 0.77053
 C270 C 0.86882 0.29260 0.78252
 N271 N 0.85073 0.26694 0.74997
 C272 C 0.85923 0.27868 0.82288
 C273 C 0.82527 0.23727 0.83465
 C274 C 0.81949 0.22045 0.87322
 C275 C 0.78070 0.18171 0.87323
 C276 C 0.76384 0.17592 0.83466
 N277 N 0.79121 0.20993 0.81143
 C278 C 0.72239 0.14204 0.82292
 H279 H 0.63889 0.08219 0.78965
 H280 H 0.63877 0.08206 0.71046
 H281 H 0.78412 0.21703 0.78321
 H282 H 0.76573 0.16017 0.60107
 H283 H 0.84023 0.23446 0.60105
 H284 H 0.91921 0.36191 0.71029
 H285 H 0.91929 0.36209 0.78949
 H286 H 0.76611 0.16069 0.89894
 H287 H 0.78402 0.21690 0.71674
 H288 H 0.84056 0.23503 0.89893
 C289 C 0.05473 0.45218 0.06832
 C290 C 0.07330 0.44115 0.09161
 C291 C 0.09597 0.43067 0.12006
 C292 C 0.11607 0.42379 0.14529
 C293 C 0.54666 0.60147 0.06833
 C294 C 0.55767 0.63119 0.09159
 C295 C 0.56817 0.66451 0.12000
 C296 C 0.57508 0.69160 0.14521
 C297 C 0.39779 0.94583 0.06922
 C298 C 0.36833 0.92721 0.09267
 C299 C 0.33531 0.90446 0.12128
 C300 C 0.30841 0.88428 0.14659
 C301 C 0.94593 0.54803 0.56854
 C302 C 0.92734 0.55898 0.59187
 C303 C 0.90462 0.56940 0.62034
 C304 C 0.88449 0.57623 0.64557
 C305 C 0.45306 0.39780 0.56938
 C306 C 0.44209 0.36828 0.59283
 C307 C 0.43161 0.33515 0.62142
 C308 C 0.42468 0.30816 0.64672
 C309 C 0.60110 0.05496 0.56900
 C310 C 0.63077 0.07367 0.59228
 C311 C 0.66410 0.09650 0.62067
 C312 C 0.69123 0.11670 0.64585
 C313 C 0.45384 0.05492 0.93221
 C314 C 0.44280 0.07349 0.90889
 C315 C 0.43223 0.09611 0.88042
 C316 C 0.42522 0.11613 0.85518
 C317 C 0.60178 0.54621 0.93061
 C318 C 0.63143 0.55731 0.90736
 C319 C 0.66470 0.56797 0.87898
 C320 C 0.69180 0.57505 0.85382
 C321 C 0.94584 0.39962 0.93132
 C322 C 0.92723 0.36999 0.90792
 C323 C 0.90450 0.33673 0.87939
 C324 C 0.88434 0.30962 0.85414
 C325 C 0.54619 0.94488 0.43084
 C326 C 0.55729 0.92638 0.40753
 C327 C 0.56789 0.90377 0.37908
 C328 C 0.57488 0.88373 0.35385
 C329 C 0.39774 0.45234 0.43102
 C330 C 0.36815 0.44131 0.40768
 C331 C 0.33499 0.43080 0.37917
 C332 C 0.30801 0.42389 0.35390
 C333 C 0.05496 0.60110 0.43179
 C334 C 0.07358 0.63079 0.40851
 C335 C 0.09632 0.66408 0.38009
 C336 C 0.11645 0.69118 0.35489
 C337 C 0.94519 0.54680 0.93084
 C338 C 0.92669 0.55792 0.90757
 C339 C 0.90411 0.56856 0.87915
 C340 C 0.88409 0.57558 0.85394
 C341 C 0.45378 0.39876 0.93196
 C342 C 0.44270 0.36901 0.90871
 C343 C 0.43212 0.33567 0.88030
 C344 C 0.42514 0.30855 0.85511
 C345 C 0.60151 0.05573 0.93101
 C346 C 0.63117 0.07430 0.90775
 C347 C 0.66445 0.09698 0.87937
 C348 C 0.69154 0.11707 0.85418
 C349 C 0.05554 0.45384 0.43055
 C350 C 0.07400 0.44269 0.40726
 C351 C 0.09652 0.43196 0.37885
 C352 C 0.11646 0.42482 0.35366
 C353 C 0.54673 0.60151 0.43059
 C354 C 0.55772 0.63112 0.40724
 C355 C 0.56821 0.66435 0.37878
 C356 C 0.57513 0.69143 0.35357
 C357 C 0.39911 0.94525 0.43209
 C358 C 0.36947 0.92664 0.40875
 C359 C 0.33622 0.90396 0.38025
 C360 C 0.30913 0.88387 0.35500
 C361 C 0.54620 0.94548 0.06883
 C362 C 0.55720 0.92681 0.09205
 C363 C 0.56772 0.90403 0.12038
 C364 C 0.57468 0.88388 0.14551
 C365 C 0.39780 0.45208 0.06851
 C366 C 0.36823 0.44108 0.09184
 C367 C 0.33506 0.43060 0.12030
 C368 C 0.30806 0.42370 0.14551
 C369 C 0.05499 0.60125 0.06919
 C370 C 0.07356 0.63083 0.09264
 C371 C 0.09622 0.66405 0.12122
 C372 C 0.11630 0.69112 0.14651
 C373 C 0.45209 0.05416 0.56935
 C374 C 0.44119 0.07269 0.59282
 C375 C 0.43084 0.09535 0.62145
 C376 C 0.42407 0.11547 0.64677
 C377 C 0.60215 0.54699 0.56864
 C378 C 0.63184 0.55811 0.59188
 C379 C 0.66513 0.56873 0.62028
 C380 C 0.69219 0.57571 0.64548
 C381 C 0.94562 0.39900 0.56864
 C382 C 0.92699 0.36939 0.59199
 C383 C 0.90426 0.33620 0.62050
 C384 C 0.88412 0.30918 0.64575
   
