data_POSCAR
  _audit_creation_date              2014-09-24
  _audit_creation_method            'ToBaCCo'
  _symmetry_space_group_name_H-M    'P1'
  _symmetry_Int_Tables_number       1
  _symmetry_cell_setting            triclinic
  loop_
  _symmetry_equiv_pos_as_xyz
 x,y,z
_cell_length_a 17.2407
_cell_length_b 17.2381
_cell_length_c 15.5265
_cell_angle_alpha 89.594000
_cell_angle_beta 90.345900
_cell_angle_gamma 89.956300
loop_
  _atom_site_label
  _atom_site_type_symbol
  _atom_site_fract_x
  _atom_site_fract_y
  _atom_site_fract_z
C1 C 0.41016 0.01453 0.33096
 C2 C 0.39019 0.08991 0.29213
 C3 C 0.33286 0.09053 0.23209
 C4 C 0.32479 0.00637 0.19519
 C5 C 0.33127 -0.03091 0.34110
 C6 C 0.29416 -0.04955 0.26789
 C7 C 0.45011 -0.02687 0.25274
 C8 C 0.40667 -0.03058 0.17850
 H9 H 0.42040 0.14014 0.31395
 H10 H 0.29713 0.02670 0.13695
 H11 H 0.31257 -0.05926 0.39992
 H12 H 0.51197 -0.03843 0.25044
 C13 C 0.08309 -0.01617 0.82572
 C14 C 0.10423 -0.09025 0.79036
 C15 C 0.16331 -0.08919 0.73510
 C16 C 0.17212 -0.00520 0.69398
 C17 C 0.16506 0.02931 0.83822
 C18 C 0.20214 0.05108 0.76621
 C19 C 0.04500 0.02295 0.75060
 C20 C 0.09070 0.03280 0.67292
 H21 H 0.07537 -0.14146 0.81265
 H22 H 0.19999 -0.02808 0.63743
 H23 H 0.18423 0.05681 0.89728
 H24 H -0.01688 0.03457 0.74881
 C25 C 0.58852 0.48354 0.33172
 C26 C 0.60749 0.40927 0.29649
 C27 C 0.66506 0.40952 0.23995
 C28 C 0.67473 0.49344 0.19793
 C29 C 0.67085 0.52907 0.34203
 C30 C 0.70594 0.55111 0.26866
 C31 C 0.54887 0.52441 0.25176
 C32 C 0.59370 0.53153 0.17873
 H33 H 0.57704 0.35837 0.31780
 H34 H 0.70123 0.47113 0.14014
 H35 H 0.69053 0.55745 0.40037
 H36 H 0.48758 0.53877 0.24987
 C37 C 0.91033 0.51369 0.83079
 C38 C 0.89097 0.58918 0.79227
 C39 C 0.83333 0.59026 0.73272
 C40 C 0.82355 0.50641 0.69610
 C41 C 0.83114 0.46917 0.84201
 C42 C 0.79348 0.45031 0.76952
 C43 C 0.94913 0.47184 0.75182
 C44 C 0.90495 0.46897 0.67764
 H45 H 0.92181 0.63919 0.81386
 H46 H 0.79387 0.52790 0.63903
 H47 H 0.81234 0.44145 0.90117
 H48 H 1.01080 0.45942 0.74911
 C49 C 0.32824 0.44668 0.99970
 C50 C 0.29698 0.42078 1.08316
 C51 C 0.23663 0.36553 1.08203
 C52 C 0.21011 0.35094 0.98813
 C53 C 0.34043 0.37060 0.94671
 C54 C 0.28258 0.32538 0.92964
 C55 C 0.24986 0.48464 0.96587
 C56 C 0.18548 0.43590 0.96299
 H57 H 0.31956 0.44903 1.14021
 H58 H 0.16557 0.30580 0.99179
 H59 H 0.39300 0.35303 0.91468
 H60 H 0.24013 0.54656 0.97128
 C61 C 0.81064 0.06152 0.99791
 C62 C 0.78575 0.09604 0.91684
 C63 C 0.72789 0.15345 0.91689
 C64 C 0.69142 0.15563 1.00772
 C65 C 0.82338 0.13321 1.04992
 C66 C 0.76521 0.17497 1.06797
 C67 C 0.73697 0.02114 1.02585
 C68 C 0.66463 0.06821 1.02538
 H69 H 0.82309 0.08148 0.86451
 H70 H 0.64548 0.20011 1.00862
 H71 H 0.87747 0.16347 1.06056
 H72 H 0.73434 -0.04175 1.02840
 C73 C 0.31798 0.56464 0.49726
 C74 C 0.29319 0.59841 0.41530
 C75 C 0.23384 0.65459 0.41528
 C76 C 0.19751 0.65682 0.50616
 C77 C 0.32983 0.63661 0.54890
 C78 C 0.27057 0.67706 0.56674
 C79 C 0.23908 0.52319 0.52557
 C80 C 0.17182 0.56970 0.52415
 H81 H 0.32976 0.58307 0.36224
 H82 H 0.15049 0.70025 0.50725
 H83 H 0.38382 0.66622 0.56197
 H84 H 0.23495 0.46041 0.52834
 C85 C 0.82834 0.94584 0.50056
 C86 C 0.79667 0.92098 0.58382
 C87 C 0.73666 0.86563 0.58273
 C88 C 0.71018 0.85094 0.48879
 C89 C 0.84067 0.86980 0.44835
 C90 C 0.78299 0.82530 0.43056
 C91 C 0.75026 0.98435 0.46633
 C92 C 0.68557 0.93607 0.46349
 H93 H 0.81914 0.94949 0.64070
 H94 H 0.66599 0.80554 0.49282
 H95 H 0.89328 0.85176 0.41679
 H96 H 0.74098 1.04637 0.47149
 C97 C -0.01289 0.32382 0.43254
 C98 C 0.05655 0.32273 0.37025
 C99 C 0.06505 0.26937 0.30534
 C100 C 0.00429 0.20249 0.32883
 C101 C -0.07321 0.31097 0.37058
 C102 C -0.07804 0.24494 0.31119
 C103 C 0.00024 0.24938 0.48300
 C104 C 0.01623 0.18504 0.43544
 H105 H 0.10680 0.35301 0.39045
 H106 H 0.01251 0.15130 0.28725
 H107 H -0.09128 0.36317 0.33899
 H108 H 0.00075 0.24831 0.55251
 C109 C 0.00337 0.81299 0.05579
 C110 C -0.06478 0.80374 0.11538
 C111 C -0.06644 0.75200 0.18249
 C112 C 0.00265 0.69317 0.16382
 C113 C 0.06866 0.80488 0.12122
 C114 C 0.07716 0.74488 0.18030
 C115 C 0.00404 0.73791 0.00773
 C116 C -0.00092 0.67318 0.05786
 H117 H -0.11644 0.82814 0.09013
 H118 H -0.00012 0.64320 0.20852
 H119 H 0.09721 0.85653 0.13208
 H120 H 0.00880 0.73524 -0.06091
 C121 C 0.50364 0.31358 0.56008
 C122 C 0.43633 0.30543 0.62186
 C123 C 0.43377 0.25109 0.68619
 C124 C 0.50233 0.19208 0.66544
 C125 C 0.56945 0.30383 0.62450
 C126 C 0.57796 0.24275 0.68129
 C127 C 0.50195 0.23909 0.51061
 C128 C 0.49726 0.17362 0.55948
 H129 H 0.38544 0.33513 0.60364
 H130 H 0.49956 0.14168 0.70951
 H131 H 0.59428 0.35610 0.64279
 H132 H 0.50588 0.23752 0.44175
 C133 C 0.49692 0.81874 0.94323
 C134 C 0.56034 0.82255 0.87315
 C135 C 0.56862 0.76998 0.80787
 C136 C 0.51240 0.70166 0.83368
 C137 C 0.42872 0.79631 0.88920
 C138 C 0.42922 0.74214 0.82247
 C139 C 0.51781 0.74963 0.99078
 C140 C 0.52968 0.68132 0.93995
 H141 H 0.61037 0.85452 0.88970
 H142 H 0.51954 0.65226 0.78929
 H143 H 0.38147 0.82761 0.90769
 H144 H 0.52248 0.74885 1.05995
 C145 C -0.23535 0.66061 0.91963
 C146 C -0.16031 0.64023 0.95834
 C147 C -0.16001 0.58269 1.01817
 C148 C -0.24447 0.57447 1.05482
 C149 C -0.28093 0.58193 0.90881
 C150 C -0.30050 0.54485 0.98146
 C151 C -0.27672 0.70032 0.99823
 C152 C -0.28071 0.65643 1.07237
 H153 H -0.11001 0.67042 0.93657
 H154 H -0.22452 0.54608 1.11267
 H155 H -0.30848 0.56303 0.84965
 H156 H -0.28791 0.76225 1.00077
 C157 C -0.26293 0.33187 0.42503
 C158 C -0.33708 0.35224 0.46223
 C159 C -0.33589 0.41103 0.51761
 C160 C -0.25105 0.41995 0.55699
 C161 C -0.21754 0.41362 0.41228
 C162 C -0.19751 0.45269 0.48368
 C163 C -0.22076 0.29598 0.49941
 C164 C -0.21373 0.34315 0.57673
 H165 H -0.38869 0.32332 0.44097
 H166 H -0.27409 0.44697 0.61350
 H167 H -0.19447 0.43536 0.35196
 H168 H -0.20614 0.23476 0.50199
 C169 C 0.23480 -0.16436 -0.07733
 C170 C 0.16043 -0.14298 -0.04335
 C171 C 0.16062 -0.08404 0.01180
 C172 C 0.24425 -0.07543 0.05473
 C173 C 0.28119 -0.08262 -0.08877
 C174 C 0.30258 -0.04603 -0.01637
 C175 C 0.27244 -0.20275 -0.00153
 C176 C 0.28148 -0.15696 0.07619
 H177 H 0.10964 -0.17345 -0.06428
 H178 H 0.22130 -0.04730 0.11130
 H179 H 0.30935 -0.06321 -0.14739
 H180 H 0.28407 -0.26464 0.00027
 C181 C 0.26316 1.16011 0.41908
 C182 C 0.33859 1.14007 0.45757
 C183 C 0.33935 1.08246 0.51731
 C184 C 0.25529 1.07387 0.55425
 C185 C 0.21776 1.08127 0.40856
 C186 C 0.19878 1.04417 0.48156
 C187 C 0.22184 1.19953 0.49773
 C188 C 0.21851 1.15543 0.57174
 H189 H 0.38874 1.17101 0.43652
 H190 H 0.27612 1.04545 0.61200
 H191 H 0.18957 1.06259 0.34970
 H192 H 0.21029 1.26139 0.50042
 C193 C 0.19626 0.57904 0.25023
 C194 C 0.17048 0.54718 0.16704
 C195 C 0.11500 0.48712 0.16842
 C196 C 0.10016 0.46132 0.26256
 C197 C 0.12078 0.59176 0.30346
 C198 C 0.07500 0.53462 0.32041
 C199 C 0.23394 0.50072 0.28520
 C200 C 0.18498 0.43615 0.28796
 H201 H 0.19889 0.56937 0.10989
 H202 H 0.05469 0.41718 0.25938
 H203 H 0.10445 0.64400 0.33681
 H204 H 0.29588 0.49096 0.28033
 C205 C -0.18816 1.06073 0.25264
 C206 C -0.15316 1.03630 0.33359
 C207 C -0.09594 0.97839 0.33366
 C208 C -0.09410 0.94153 0.24283
 C209 C -0.11713 1.07351 0.20000
 C210 C -0.07545 1.01524 0.18197
 C211 C -0.22864 0.98680 0.22544
 C212 C -0.18151 0.91441 0.22580
 H213 H -0.16826 1.07335 0.38592
 H214 H -0.04957 0.89561 0.24156
 H215 H -0.08829 1.12805 0.18741
 H216 H -0.29152 0.98411 0.22321
 C217 C 0.31475 0.56576 -0.24843
 C218 C 0.34625 0.53964 -0.16631
 C219 C 0.40329 0.48112 -0.16574
 C220 C 0.40701 0.44552 -0.25632
 C221 C 0.38772 0.57806 -0.29841
 C222 C 0.42821 0.51886 -0.31588
 C223 C 0.27367 0.48739 -0.27828
 C224 C 0.32016 0.42015 -0.27585
 H225 H 0.33042 0.57610 -0.11353
 H226 H 0.45063 0.39872 -0.25627
 H227 H 0.41736 0.63210 -0.31130
 H228 H 0.21093 0.48331 -0.28186
 C229 C 0.69663 0.07821 -0.25007
 C230 C 0.67102 0.04675 -0.33337
 C231 C 0.61576 -0.01361 -0.33197
 C232 C 0.60171 -0.04034 -0.23781
 C233 C 0.62044 0.09018 -0.19762
 C234 C 0.57615 0.03225 -0.17955
 C235 C 0.73511 0.00007 -0.21624
 C236 C 0.68686 -0.06455 -0.21287
 H237 H 0.69887 0.06980 -0.39045
 H238 H 0.55671 -0.08503 -0.24089
 H239 H 0.60171 0.14290 -0.16678
 H240 H 0.79714 -0.00914 -0.22148
 C241 C 0.06872 0.24553 0.80737
 C242 C 0.07298 0.30789 0.87866
 C243 C 0.01879 0.31696 0.94196
 C244 C -0.05017 0.26209 0.91288
 C245 C 0.04472 0.17719 0.85999
 C246 C -0.01108 0.17774 0.92518
 C247 C -0.00001 0.26791 0.76055
 C248 C -0.06792 0.27951 0.81246
 H249 H 0.10578 0.35766 0.86362
 H250 H -0.10004 0.26935 0.95665
 H251 H 0.07668 0.13034 0.84223
 H252 H -0.00101 0.27261 0.69119
 C253 C 0.56261 0.25395 0.19385
 C254 C 0.55360 0.18619 0.13367
 C255 C 0.50177 0.18425 0.06688
 C256 C 0.44283 0.25355 0.08625
 C257 C 0.55445 0.32036 0.12874
 C258 C 0.49405 0.32894 0.07039
 C259 C 0.48763 0.25402 0.24219
 C260 C 0.42283 0.24943 0.19226
 H261 H 0.57862 0.13470 0.15806
 H262 H 0.39280 0.25090 0.04170
 H263 H 0.60622 0.34916 0.11683
 H264 H 0.48517 0.25821 0.31099
 C265 C 0.06521 0.75283 0.69176
 C266 C 0.05646 0.68491 0.63137
 C267 C 0.00281 0.68327 0.56657
 C268 C -0.05601 0.75205 0.58592
 C269 C 0.05643 0.81816 0.62602
 C270 C -0.00472 0.82667 0.56887
 C271 C -0.00968 0.75260 0.74079
 C272 C -0.07498 0.74811 0.69172
 H273 H 0.08485 0.63343 0.65101
 H274 H -0.10621 0.74910 0.54162
 H275 H 0.10871 0.84384 0.60881
 H276 H -0.01173 0.75676 0.80950
 C277 C 0.57218 0.74517 0.31012
 C278 C 0.57466 0.80938 0.37922
 C279 C 0.52131 0.81746 0.44379
 C280 C 0.45380 0.76047 0.41739
 C281 C 0.55030 0.67735 0.36456
 C282 C 0.49502 0.67771 0.42999
 C283 C 0.49931 0.76630 0.26123
 C284 C 0.43520 0.77712 0.31101
 H285 H 0.60557 0.85987 0.36157
 H286 H 0.40322 0.76742 0.46021
 H287 H 0.58273 0.63048 0.34733
 H288 H 0.49758 0.77114 0.19209
 B289 B -0.04423 0.02955 1.08597
 B290 B -0.09744 0.02695 0.99304
 B291 B -0.01960 0.09281 0.99544
 B292 B 0.04929 0.04717 1.06463
 B293 B 0.01474 -0.04006 1.08985
 B294 B -0.07531 -0.05031 1.04421
 B295 B 0.03032 -0.03390 0.91677
 B296 B 0.07775 -0.03483 1.01286
 B297 B 0.00119 -0.09554 1.00408
 B298 B -0.06669 -0.05211 0.93786
 B299 B -0.03500 0.03590 0.91364
 B300 B 0.05583 0.04643 0.96236
 B301 B 0.46036 0.53095 0.58873
 B302 B 0.40864 0.52891 0.49485
 B303 B 0.48710 0.59310 0.49913
 B304 B 0.55465 0.54648 0.56916
 B305 B 0.51789 0.46016 0.59380
 B306 B 0.42832 0.45139 0.54654
 B307 B 0.53601 0.46579 0.42157
 B308 B 0.58239 0.46358 0.51794
 B309 B 0.50435 0.40475 0.50819
 B310 B 0.43852 0.44925 0.44059
 B311 B 0.47221 0.53650 0.41694
 B312 B 0.56263 0.54563 0.46716
 B313 B 0.56016 0.96573 0.58324
 B314 B 0.59534 0.96915 0.48232
 B315 B 0.52274 0.90285 0.50149
 B316 B 0.46070 0.94594 0.57623
 B317 B 0.49336 1.03479 0.59468
 B318 B 0.57513 1.05065 0.53378
 B319 B 0.45947 1.02621 0.42391
 B320 B 0.42062 1.02679 0.52364
 B321 B 0.49437 1.08816 0.50786
 B322 B 0.55501 1.04775 0.43192
 B323 B 0.52244 0.95864 0.41529
 B324 B 0.43980 0.94275 0.47249
 B325 B 0.06020 0.46513 1.08308
 B326 B 0.09527 0.46820 0.98193
 B327 B 0.02225 0.40202 1.00115
 B328 B -0.03930 0.44574 1.07617
 B329 B -0.00615 0.53452 1.09431
 B330 B 0.07562 0.54970 1.03317
 B331 B -0.04026 0.52560 0.92359
 B332 B -0.07897 0.52663 1.02359
 B333 B -0.00485 0.58749 1.00730
 B334 B 0.05533 0.54673 0.93134
 B335 B 0.02233 0.45782 0.91488
 B336 B -0.06031 0.44247 0.97254
 B337 B 0.02830 0.54506 0.41673
 B338 B 0.07645 0.53609 0.51390
 B339 B -0.00019 0.59952 0.50993
 B340 B -0.06880 0.56303 0.44030
 B341 B -0.03722 0.47680 0.40807
 B342 B 0.05309 0.46190 0.45507
 B343 B -0.05466 0.46599 0.58166
 B344 B -0.10295 0.47960 0.48848
 B345 B -0.02528 0.41318 0.48922
 B346 B 0.04242 0.45111 0.55979
 B347 B 0.00897 0.53567 0.59166
 B348 B -0.07901 0.55576 0.54719
 B349 B 0.53040 0.04203 -0.08278
 B350 B 0.57880 0.03694 0.01497
 B351 B 0.50085 0.09914 0.00907
 B352 B 0.43334 0.05874 -0.06051
 B353 B 0.46612 -0.02921 -0.08962
 B354 B 0.55715 -0.03955 -0.04128
 B355 B 0.44803 -0.03418 0.08373
 B356 B 0.39968 -0.02362 -0.00997
 B357 B 0.47975 -0.08942 -0.00538
 B358 B 0.54603 -0.04757 0.06361
 B359 B 0.51053 0.03671 0.09207
 B360 B 0.42264 0.05446 0.04631
 B361 B 0.46725 0.47578 -0.08386
 B362 B 0.42088 0.48746 0.00885
 B363 B 0.49189 0.41706 0.00921
 B364 B 0.56203 0.45029 -0.06202
 B365 B 0.53910 0.53977 -0.09599
 B366 B 0.45420 0.56514 -0.04798
 B367 B 0.55502 0.54582 0.08092
 B368 B 0.60325 0.53027 -0.01412
 B369 B 0.53354 0.60169 -0.01411
 B370 B 0.46074 0.56877 0.05675
 B371 B 0.48421 0.47870 0.08869
 B372 B 0.57306 0.45932 0.04343
 B373 B -0.03252 0.97455 0.41656
 B374 B -0.07901 0.98435 0.50981
 B375 B -0.00742 0.91437 0.50807
 B376 B 0.06227 0.95003 0.43750
 B377 B 0.03815 1.04023 0.40661
 B378 B -0.04699 1.06293 0.45549
 B379 B 0.05417 1.04084 0.58374
 B380 B 0.10251 1.02928 0.48762
 B381 B 0.03176 1.10014 0.49086
 B382 B -0.04009 1.06406 0.56055
 B383 B -0.01574 0.97349 0.58918
 B384 B 0.07334 0.95651 0.54289
 B385 B 0.77973 0.20640 0.16400
 B386 B 0.77773 0.15266 0.25720
 B387 B 0.84242 0.23221 0.25482
 B388 B 0.79525 0.30004 0.18596
 B389 B 0.70886 0.26423 0.16044
 B390 B 0.69991 0.17386 0.20589
 B391 B 0.71486 0.27873 0.33447
 B392 B 0.71297 0.32660 0.23788
 B393 B 0.65359 0.24997 0.24630
 B394 B 0.69808 0.18183 0.31238
 B395 B 0.78579 0.21462 0.33689
 B396 B 0.79234 0.30531 0.28845
 B397 B 0.71664 0.81042 0.66764
 B398 B 0.71996 0.84553 0.76846
 B399 B 0.65375 0.77279 0.74932
 B400 B 0.69718 0.71110 0.67441
 B401 B 0.78603 0.74408 0.65605
 B402 B 0.80159 0.82572 0.71706
 B403 B 0.77719 0.70992 0.82679
 B404 B 0.77800 0.67135 0.72696
 B405 B 0.83926 0.74509 0.74296
 B406 B 0.79862 0.80547 0.81888
 B407 B 0.70966 0.77266 0.83539
 B408 B 0.69395 0.69017 0.77796
 B409 B 0.29130 0.27794 0.83347
 B410 B 0.28615 0.32550 0.73538
 B411 B 0.34843 0.24812 0.74227
 B412 B 0.30791 0.18070 0.81171
 B413 B 0.21996 0.21372 0.84035
 B414 B 0.20986 0.30445 0.79145
 B415 B 0.21564 0.19554 0.66686
 B416 B 0.22564 0.14735 0.76070
 B417 B 0.16011 0.22743 0.75576
 B418 B 0.20230 0.29309 0.68657
 B419 B 0.28696 0.25728 0.65843
 B420 B 0.30416 0.16970 0.70475
 B421 B 0.22659 0.71807 0.33271
 B422 B 0.23557 0.67207 0.23952
 B423 B 0.16476 0.74301 0.24192
 B424 B 0.20011 0.81280 0.31268
 B425 B 0.29081 0.78989 0.34221
 B426 B 0.31465 0.70527 0.29279
 B427 B 0.28965 0.80679 0.16534
 B428 B 0.27823 0.85457 0.26166
 B429 B 0.34953 0.78549 0.25722
 B430 B 0.31456 0.71266 0.18798
 B431 B 0.22343 0.73583 0.16040
 B432 B 0.20541 0.82475 0.20739
 B433 B 0.28256 0.70886 0.66263
 B434 B 0.27995 0.65627 0.75574
 B435 B 0.34462 0.73455 0.75298
 B436 B 0.29838 0.80280 0.68364
 B437 B 0.21202 0.76655 0.65830
 B438 B 0.20276 0.67670 0.70427
 B439 B 0.21724 0.78292 0.83142
 B440 B 0.21553 0.82991 0.73509
 B441 B 0.15636 0.75236 0.74381
 B442 B 0.20040 0.68566 0.81059
 B443 B 0.28779 0.71872 0.83487
 B444 B 0.29736 0.80959 0.78595
 B445 B 0.21471 0.31068 0.16714
 B446 B 0.21718 0.34554 0.26844
 B447 B 0.15129 0.27225 0.24831
 B448 B 0.19560 0.21103 0.17354
 B449 B 0.28434 0.24453 0.15600
 B450 B 0.29903 0.32618 0.21747
 B451 B 0.27478 0.20971 0.32641
 B452 B 0.27637 0.17135 0.22647
 B453 B 0.33699 0.24557 0.24312
 B454 B 0.29562 0.30541 0.31914
 B455 B 0.20658 0.27208 0.33496
 B456 B 0.19175 0.18959 0.27713
 B457 B 0.79350 0.77964 0.33374
 B458 B 0.78750 0.82828 0.23610
 B459 B 0.84979 0.75058 0.24116
 B460 B 0.81067 0.68262 0.31100
 B461 B 0.72305 0.71485 0.34120
 B462 B 0.71179 0.80598 0.29308
 B463 B 0.71650 0.69716 0.16774
 B464 B 0.72816 0.64851 0.26147
 B465 B 0.66237 0.72840 0.25769
 B466 B 0.70288 0.79511 0.18831
 B467 B 0.78686 0.76010 0.15886
 B468 B 0.80544 0.67204 0.20414
 B469 B 0.72416 0.21748 0.83455
 B470 B 0.73635 0.17104 0.74163
 B471 B 0.66591 0.24169 0.74154
 B472 B 0.69837 0.31203 0.81265
 B473 B 0.78800 0.28960 0.84595
 B474 B 0.81367 0.20471 0.79822
 B475 B 0.79513 0.30520 0.67075
 B476 B 0.77806 0.35390 0.76490
 B477 B 0.84930 0.28475 0.76229
 B478 B 0.81723 0.21073 0.69350
 B479 B 0.72759 0.23449 0.66182
 B480 B 0.70808 0.32303 0.70727
   
