data_POSCAR
  _audit_creation_date              2014-09-24
  _audit_creation_method            'ToBaCCo'
  _symmetry_space_group_name_H-M    'P1'
  _symmetry_Int_Tables_number       1
  _symmetry_cell_setting            triclinic
  loop_
  _symmetry_equiv_pos_as_xyz
 x,y,z
_cell_length_a 29.5801
_cell_length_b 29.3492
_cell_length_c 29.7551
_cell_angle_alpha 90.993200
_cell_angle_beta 89.997600
_cell_angle_gamma 89.982500
loop_
  _atom_site_label
  _atom_site_type_symbol
  _atom_site_fract_x
  _atom_site_fract_y
  _atom_site_fract_z
C1 C 0.04207 0.43992 0.20096
 H2 H 0.07154 0.46152 0.20442
 C3 C 0.04547 0.39767 0.17822
 H4 H 0.07752 0.38842 0.16312
 C5 C -0.03491 0.42628 0.21704
 H6 H -0.06590 0.43621 0.23352
 C7 C -0.03331 0.38454 0.19432
 H8 H -0.06342 0.36370 0.19524
 N9 N 0.00225 0.45328 0.21996
 C10 C -0.02194 0.59741 0.24714
 H11 H -0.03573 0.59311 0.28045
 C12 C -0.02347 0.64009 0.22768
 H13 H -0.03868 0.66840 0.24599
 C14 C 0.01644 0.56614 0.18376
 H15 H 0.03210 0.53715 0.16711
 C16 C 0.01649 0.60880 0.16334
 H17 H 0.03210 0.61261 0.13070
 Zn18 Zn -0.00205 0.50649 0.25745
 N19 N -0.00254 0.56141 0.22505
 C20 C 0.07175 0.54730 0.30095
 N21 N 0.04759 0.50800 0.29732
 C22 C 0.06097 0.46958 0.31852
 C23 C 0.10131 0.46932 0.34309
 C24 C 0.11192 0.54860 0.32519
 C25 C -0.09452 0.51644 0.26445
 C26 C -0.13694 0.51817 0.28447
 C27 C -0.10257 0.49625 0.35462
 C28 C -0.06043 0.49564 0.33332
 N29 N -0.05739 0.50528 0.28889
 H30 H 0.06075 0.57750 0.28392
 H31 H 0.04132 0.43867 0.31473
 H32 H 0.11272 0.43798 0.35805
 H33 H 0.13108 0.58002 0.32691
 H34 H -0.09100 0.52401 0.22917
 H35 H -0.16621 0.52655 0.26436
 H36 H -0.10493 0.48812 0.38991
 H37 H -0.03036 0.48729 0.35209
 C38 C -0.00385 0.64623 0.18548
 C39 C 0.00723 0.36901 0.17422
 C40 C -0.14131 0.50780 0.32999
 C41 C 0.12785 0.50897 0.34552
 C42 C 0.03831 0.55769 0.80508
 H43 H 0.06416 0.53196 0.80885
 C44 C 0.04263 0.59994 0.82757
 H45 H 0.07127 0.60612 0.84949
 C46 C -0.02982 0.58166 0.77103
 H47 H -0.05725 0.57543 0.74785
 C48 C -0.02698 0.62390 0.79288
 H49 H -0.05278 0.64921 0.78661
 N50 N 0.00221 0.54922 0.77773
 C51 C -0.02054 0.40378 0.75262
 H52 H -0.02899 0.40726 0.71749
 C53 C -0.02376 0.36125 0.77236
 H54 H -0.03468 0.33208 0.75239
 C55 C 0.00558 0.43734 0.82090
 H56 H 0.01723 0.46707 0.83944
 C57 C 0.00404 0.39490 0.84173
 H58 H 0.01458 0.39199 0.87642
 Zn59 Zn -0.00139 0.49438 0.74259
 N60 N -0.00610 0.44075 0.77685
 C61 C 0.08415 0.46048 0.72214
 N62 N 0.05203 0.49023 0.70829
 C63 C 0.06030 0.51962 0.67451
 C64 C 0.10203 0.51907 0.65256
 C65 C 0.12684 0.46004 0.70244
 C66 C -0.09298 0.49236 0.73139
 C67 C -0.13488 0.49008 0.71041
 C68 C -0.09720 0.49399 0.63862
 C69 C -0.05571 0.49548 0.66129
 N70 N -0.05447 0.49517 0.70692
 H71 H 0.07751 0.43849 0.75011
 H72 H 0.03482 0.54412 0.66515
 H73 H 0.10712 0.54204 0.62500
 H74 H 0.15228 0.43783 0.71624
 H75 H -0.09098 0.49202 0.76770
 H76 H -0.16412 0.49040 0.73218
 H77 H -0.09616 0.49260 0.60232
 H78 H -0.02469 0.49584 0.64221
 C79 C -0.01077 0.35638 0.81717
 C80 C 0.00940 0.63353 0.82177
 C81 C -0.13828 0.49061 0.66294
 C82 C 0.13662 0.48976 0.66717
 C83 C 0.17246 0.02446 0.44077
 H84 H 0.16754 0.05295 0.46382
 C85 C 0.15022 0.02383 0.39933
 H86 H 0.12923 0.05269 0.39127
 C87 C 0.20927 -0.04489 0.42248
 H88 H 0.23331 -0.07112 0.43074
 C89 C 0.18616 -0.04803 0.38169
 H90 H 0.19176 -0.07778 0.36049
 N91 N 0.20348 -0.00814 0.45037
 C92 C 0.24040 0.00725 0.59288
 H93 H 0.27672 0.00652 0.58965
 C94 C 0.22103 0.00915 0.63559
 H95 H 0.24286 0.00995 0.66481
 C96 C 0.16809 0.00401 0.55881
 H97 H 0.14761 0.00129 0.52883
 C98 C 0.14723 0.00577 0.60103
 H99 H 0.11069 0.00513 0.60306
 Zn100 Zn 0.24443 -0.00025 0.49950
 N101 N 0.21396 0.00485 0.55552
 C102 C 0.26693 0.08550 0.46231
 N103 N 0.28042 0.05294 0.49141
 C104 C 0.31804 0.05912 0.51708
 C105 C 0.34243 0.09979 0.51535
 C106 C 0.28922 0.12721 0.46072
 C107 C 0.26129 -0.09041 0.51810
 C108 C 0.28416 -0.13184 0.51749
 C109 C 0.34869 -0.09435 0.48462
 C110 C 0.32428 -0.05353 0.48536
 N111 N 0.28132 -0.05250 0.50174
 H112 H 0.23797 0.08027 0.44111
 H113 H 0.32918 0.03253 0.53915
 H114 H 0.37249 0.10335 0.53581
 H115 H 0.27539 0.15324 0.43943
 H116 H 0.22695 -0.08861 0.53052
 H117 H 0.26748 -0.16192 0.53001
 H118 H 0.38247 -0.09520 0.47059
 H119 H 0.33912 -0.02316 0.47161
 C120 C 0.17385 0.00823 0.64016
 C121 C 0.15797 -0.01213 0.36821
 C122 C 0.32816 -0.13420 0.50008
 C123 C 0.32722 0.13534 0.48801
 C124 C 0.83523 0.00333 0.55536
 H125 H 0.85323 0.01109 0.52479
 C126 C 0.85866 0.00027 0.59608
 H127 H 0.89489 0.00548 0.59652
 C128 C 0.76622 -0.01385 0.59187
 H129 H 0.73009 -0.01924 0.58982
 C130 C 0.78810 -0.01697 0.63307
 H131 H 0.76827 -0.02397 0.66274
 N132 N 0.78977 -0.00335 0.55423
 C133 C 0.81575 -0.03204 0.43383
 H134 H 0.81505 -0.06339 0.45222
 C135 C 0.83880 -0.03062 0.39291
 H136 H 0.85413 -0.06193 0.38081
 C137 C 0.79322 0.04472 0.42677
 H138 H 0.77577 0.07427 0.44027
 C139 C 0.81577 0.04774 0.38567
 H140 H 0.81590 0.08038 0.36940
 Zn141 Zn 0.75515 -0.00056 0.50111
 N142 N 0.79257 0.00492 0.44943
 C143 C 0.68837 0.06110 0.46987
 N144 N 0.71547 0.05049 0.50516
 C145 C 0.71750 0.07797 0.54239
 C146 C 0.69260 0.11821 0.54477
 C147 C 0.66327 0.10155 0.47059
 C148 C 0.74681 -0.09383 0.50931
 C149 C 0.72611 -0.13638 0.51028
 C150 C 0.65620 -0.10113 0.48730
 C151 C 0.67824 -0.05896 0.48718
 N152 N 0.72293 -0.05621 0.49768
 H153 H 0.68788 0.03920 0.44025
 H154 H 0.73954 0.06970 0.56993
 H155 H 0.69508 0.13954 0.57473
 H156 H 0.64366 0.11044 0.44131
 H157 H 0.78202 -0.09068 0.51862
 H158 H 0.74590 -0.16592 0.51922
 H159 H 0.62061 -0.10294 0.47894
 H160 H 0.65956 -0.02862 0.47899
 C161 C 0.83837 0.00939 0.36710
 C162 C 0.83494 -0.00985 0.63569
 C163 C 0.68027 -0.14043 0.49914
 C164 C 0.66598 0.13119 0.50810
 C165 C 0.55423 0.17430 0.99793
 H166 H 0.52339 0.15481 1.00017
 C167 C 0.59613 0.15171 0.99795
 H168 H 0.59656 0.11494 0.99974
 C169 C 0.59091 0.24515 0.98956
 H170 H 0.58887 0.28130 0.98392
 C171 C 0.63309 0.22448 0.99121
 H172 H 0.66250 0.24624 0.98986
 N173 N 0.55251 0.22049 0.99474
 C174 C 0.41058 0.23685 0.96751
 H175 H 0.41637 0.26406 0.94422
 C176 C 0.36729 0.21827 0.97094
 H177 H 0.34163 0.23018 0.94807
 C178 C 0.43737 0.18969 1.02535
 H179 H 0.46411 0.18058 1.04828
 C180 C 0.39469 0.16974 1.02961
 H181 H 0.39015 0.14535 1.05605
 Zn182 Zn 0.49930 0.25713 0.99591
 N183 N 0.44459 0.22266 0.99466
 C184 C 0.50174 0.26811 0.90476
 N185 N 0.50181 0.29272 0.94380
 C186 C 0.50494 0.33896 0.94406
 C187 C 0.50832 0.36220 0.90342
 C188 C 0.50435 0.28979 0.86367
 C189 C 0.46098 0.29255 1.07535
 C190 C 0.46031 0.31272 1.11804
 C191 C 0.53731 0.33718 1.10704
 C192 C 0.53645 0.31669 1.06430
 N193 N 0.49907 0.29364 1.04972
 H194 H 0.49927 0.23136 0.90570
 H195 H 0.50534 0.35771 0.97566
 H196 H 0.51165 0.39892 0.90414
 H197 H 0.50284 0.26926 0.83314
 H198 H 0.43113 0.27514 1.06331
 H199 H 0.43010 0.30993 1.13838
 H200 H 0.56758 0.35463 1.11842
 H201 H 0.56616 0.31857 1.04362
 C202 C 0.35819 0.18432 1.00269
 C203 C 0.63661 0.17695 0.99520
 C204 C 0.49912 0.33461 1.13472
 C205 C 0.50822 0.33747 0.86242
 C206 C 0.43702 0.81021 0.96975
 H207 H 0.46381 0.81867 0.94659
 C208 C 0.39436 0.83034 0.96538
 H209 H 0.38953 0.85403 0.93837
 C210 C 0.41075 0.76559 1.02976
 H211 H 0.41673 0.73949 1.05419
 C212 C 0.36752 0.78414 1.02615
 H213 H 0.34214 0.77332 1.04985
 N214 N 0.44443 0.77851 1.00163
 C215 C 0.59091 0.75437 1.00632
 H216 H 0.58847 0.71758 1.00644
 C217 C 0.63325 0.77501 1.00548
 H218 H 0.66276 0.75328 1.00409
 C219 C 0.55446 0.82610 1.00481
 H220 H 0.52357 0.84577 1.00443
 C221 C 0.59650 0.84842 1.00519
 H222 H 0.59724 0.88528 1.00579
 Zn223 Zn 0.49875 0.74402 1.00168
 N224 N 0.55256 0.77976 1.00473
 C225 C 0.53303 0.71637 0.91719
 N226 N 0.49903 0.70939 0.94710
 C227 C 0.46321 0.68220 0.93623
 C228 C 0.46089 0.66065 0.89387
 C229 C 0.53246 0.69502 0.87511
 C230 C 0.50343 0.73165 1.09259
 C231 C 0.50155 0.70999 1.13379
 C232 C 0.49104 0.63818 1.09426
 C233 C 0.49332 0.66138 1.05347
 N234 N 0.49876 0.70743 1.05355
 H235 H 0.56012 0.73971 0.92505
 H236 H 0.43591 0.67820 0.96004
 H237 H 0.43213 0.63937 0.88537
 H238 H 0.55965 0.70151 0.85168
 H239 H 0.50801 0.76819 1.09161
 H240 H 0.50560 0.73017 1.16433
 H241 H 0.48554 0.60171 1.09381
 H242 H 0.48986 0.64278 1.02198
 C243 C 0.63688 0.82279 1.00505
 C244 C 0.35817 0.81691 0.99332
 C245 C 0.49452 0.66273 1.13519
 C246 C 0.49604 0.66696 0.86290
 B247 B 1.00113 1.04963 0.02981
 B248 B 1.00076 1.04802 -0.02880
 B249 B 1.04857 1.03122 0.00147
 B250 B 1.03069 1.00232 0.04785
 B251 B 0.97243 1.00205 0.04849
 B252 B 0.95336 1.03007 0.00114
 B253 B 1.00197 0.95220 -0.02798
 B254 B 1.00142 0.95387 0.03061
 B255 B 0.95373 0.97102 0.00057
 B256 B 0.97269 0.99932 -0.04671
 B257 B 1.03087 1.00005 -0.04590
 B258 B 1.04902 0.97136 0.00050
 B259 B 0.54344 0.49526 0.46692
 B260 B 0.54792 0.49914 0.52454
 B261 B 0.53023 0.54554 0.49460
 B262 B 0.49660 0.52559 0.45051
 B263 B 0.49386 0.46723 0.45401
 B264 B 0.52504 0.45059 0.49971
 B265 B 0.45381 0.50451 0.53141
 B266 B 0.44926 0.50049 0.47389
 B267 B 0.46719 0.45411 0.50363
 B268 B 0.50049 0.47411 0.54769
 B269 B 0.50353 0.53259 0.54429
 B270 B 0.47230 0.54911 0.49858
 C271 C 1.00780 1.23666 0.11437
 C272 C 1.04845 1.25449 0.13126
 C273 C 1.04902 1.29921 0.14955
 C274 C 1.00878 1.32562 0.15199
 C275 C 0.96884 1.30676 0.13319
 C276 C 0.96801 1.26256 0.11516
 C277 C 1.00649 1.18959 0.09616
 C278 C 0.96571 1.17170 0.08065
 C279 C 0.96449 1.12711 0.06388
 C280 C 1.00314 1.09972 0.05813
 C281 C 1.04308 1.11763 0.07884
 C282 C 1.04536 1.16261 0.09634
 C283 C 0.92765 1.24346 0.09871
 C284 C 0.92642 1.19860 0.08211
 C285 C 1.08725 1.22658 0.13062
 C286 C 1.08568 1.18140 0.11368
 H287 H 0.89664 1.26312 0.09921
 H288 H 0.89453 1.18497 0.06999
 H289 H 1.11899 1.23961 0.14365
 H290 H 1.11630 1.16114 0.11390
 H291 H 1.08017 1.31194 0.16413
 H292 H 0.93801 1.32656 0.13168
 H293 H 0.93221 1.11451 0.05770
 H294 H 1.07290 1.09697 0.08202
 C295 C 0.99873 0.78026 0.13202
 C296 C 0.95740 0.76202 0.14612
 C297 C 0.95662 0.71783 0.16333
 C298 C 0.99678 0.69213 0.16598
 C299 C 1.03805 0.71141 0.15262
 C300 C 1.03931 0.75582 0.13621
 C301 C 0.99957 0.82580 0.11221
 C302 C 1.04065 0.84483 0.09972
 C303 C 1.04056 0.88702 0.07870
 C304 C 1.00069 0.90804 0.06350
 C305 C 0.96086 0.89202 0.08485
 C306 C 0.95955 0.85034 0.10739
 C307 C 1.08029 0.77666 0.12449
 C308 C 1.08101 0.82093 0.10745
 C309 C 0.91794 0.78856 0.14294
 C310 C 0.91913 0.83232 0.12439
 H311 H 1.11198 0.75866 0.12853
 H312 H 1.11326 0.83597 0.09896
 H313 H 0.88589 0.77529 0.15448
 H314 H 0.88798 0.85156 0.12213
 H315 H 0.92491 0.70323 0.17432
 H316 H 1.06914 0.69217 0.15598
 H317 H 1.07228 0.90190 0.07357
 H318 H 0.93047 0.91226 0.08473
 C319 C 0.99417 1.22225 -0.12969
 C320 C 0.95260 1.23935 -0.14458
 C321 C 0.95090 1.28361 -0.16178
 C322 C 0.99034 1.31053 -0.16327
 C323 C 1.03183 1.29239 -0.14911
 C324 C 1.03408 1.24790 -0.13299
 C325 C 0.99602 1.17659 -0.11008
 C326 C 1.03743 1.15869 -0.09707
 C327 C 1.03832 1.11638 -0.07628
 C328 C 0.99897 1.09397 -0.06179
 C329 C 0.95890 1.10897 -0.08368
 C330 C 0.95670 1.15078 -0.10609
 C331 C 1.07546 1.22815 -0.12082
 C332 C 1.07720 1.18377 -0.10416
 C333 C 0.91392 1.21156 -0.14223
 C334 C 0.91607 1.16774 -0.12376
 H335 H 1.10668 1.24706 -0.12430
 H336 H 1.10976 1.16951 -0.09551
 H337 H 0.88171 1.22390 -0.15432
 H338 H 0.88546 1.14760 -0.12209
 H339 H 0.91912 1.29731 -0.17366
 H340 H 1.06238 1.31259 -0.15171
 H341 H 1.07037 1.10234 -0.07119
 H342 H 0.92895 1.08807 -0.08365
 C343 C 1.00995 0.76597 -0.11492
 C344 C 0.97032 0.73966 -0.11569
 C345 C 0.97129 0.69589 -0.13485
 C346 C 1.01123 0.67829 -0.15409
 C347 C 1.05113 0.70478 -0.15245
 C348 C 1.05051 0.74903 -0.13308
 C349 C 1.00850 0.81262 -0.09565
 C350 C 1.04709 0.84001 -0.09587
 C351 C 1.04461 0.88468 -0.07750
 C352 C 1.00463 0.90206 -0.05636
 C353 C 0.96639 0.87400 -0.06154
 C354 C 0.96782 0.82974 -0.07912
 C355 C 1.08902 0.77728 -0.13241
 C356 C 1.08730 0.82201 -0.11429
 C357 C 0.93005 0.75805 -0.09829
 C358 C 0.92874 0.80250 -0.08060
 H359 H 1.12064 0.76488 -0.14634
 H360 H 1.11770 0.84259 -0.11458
 H361 H 0.89921 0.73813 -0.09884
 H362 H 0.89691 0.81559 -0.06774
 H363 H 0.94063 0.67564 -0.13548
 H364 H 1.08193 0.69166 -0.16758
 H365 H 1.07429 0.90555 -0.08047
 H366 H 0.93412 0.88592 -0.05453
 C367 C 1.10858 0.99680 0.23230
 C368 C 1.08571 1.01992 0.26715
 C369 C 1.10050 1.01506 0.31156
 C370 C 1.13949 0.98923 0.32132
 C371 C 1.16216 0.96661 0.28538
 C372 C 1.14625 0.96948 0.24111
 C373 C 1.09261 1.00115 0.18566
 C374 C 1.11334 0.97593 0.15109
 C375 C 1.09565 0.97779 0.10733
 C376 C 1.05772 1.00519 0.09690
 C377 C 1.04074 1.03313 0.13257
 C378 C 1.05639 1.02994 0.17665
 C379 C 1.16737 0.94578 0.20536
 C380 C 1.15083 0.94847 0.16119
 C381 C 1.04873 1.04787 0.25683
 C382 C 1.03472 1.05333 0.21223
 H383 H 1.19651 0.92444 0.21166
 H384 H 1.16747 0.92888 0.13478
 H385 H 1.03073 1.06598 0.28335
 H386 H 1.00605 1.07522 0.20566
 H387 H 1.08157 1.03177 0.33823
 H388 H 1.19279 0.94749 0.29128
 H389 H 1.11224 0.95740 0.08203
 H390 H 1.01169 1.05444 0.12796
 C391 C 1.11638 1.00358 -0.22760
 C392 C 1.15240 1.03339 -0.23573
 C393 C 1.17058 1.03544 -0.27923
 C394 C 1.15294 1.00790 -0.31442
 C395 C 1.11640 0.97859 -0.30560
 C396 C 1.09808 0.97622 -0.26225
 C397 C 1.09743 1.00092 -0.18188
 C398 C 1.06186 0.97101 -0.17368
 C399 C 1.04334 0.96944 -0.13054
 C400 C 1.05849 0.99812 -0.09463
 C401 C 1.09573 1.02672 -0.10425
 C402 C 1.11496 1.02855 -0.14733
 C403 C 1.06209 0.94672 -0.25271
 C404 C 1.04430 0.94413 -0.20914
 C405 C 1.16955 1.06036 -0.20013
 C406 C 1.15113 1.05801 -0.15668
 H407 H 1.04759 0.92545 -0.27911
 H408 H 1.01637 0.92110 -0.20320
 H409 H 1.19737 1.08354 -0.20590
 H410 H 1.16513 1.07962 -0.13026
 H411 H 1.19834 1.05849 -0.28575
 H412 H 1.10301 0.95677 -0.33217
 H413 H 1.01443 0.94775 -0.12667
 H414 H 1.11111 1.04747 -0.07852
 C415 C 0.89482 1.00857 0.23579
 C416 C 0.86132 1.04050 0.24697
 C417 C 0.84331 1.04132 0.29065
 C418 C 0.85858 1.01043 0.32361
 C419 C 0.89368 0.97966 0.31145
 C420 C 0.91165 0.97856 0.26786
 C421 C 0.91301 1.00680 0.18962
 C422 C 0.94694 0.97573 0.17867
 C423 C 0.96467 0.97507 0.13513
 C424 C 0.94828 1.00317 0.10003
 C425 C 0.91639 1.03645 0.11443
 C426 C 0.89772 1.03763 0.15788
 C427 C 0.94631 0.94800 0.25569
 C428 C 0.96379 0.94672 0.21186
 C429 C 0.84626 1.07081 0.21404
 C430 C 0.86442 1.06966 0.17038
 H431 H 0.95999 0.92484 0.28018
 H432 H 0.99058 0.92272 0.20384
 H433 H 0.82041 1.09579 0.22214
 H434 H 0.85211 1.09386 0.14614
 H435 H 0.81584 1.06469 0.29771
 H436 H 0.90827 0.95716 0.33594
 H437 H 0.99458 0.95494 0.13086
 H438 H 0.90590 1.06281 0.09332
 C439 C 0.89578 0.99022 -0.23367
 C440 C 0.91105 1.02129 -0.26566
 C441 C 0.89201 1.02033 -0.30882
 C442 C 0.85812 0.98838 -0.32009
 C443 C 0.84461 0.95628 -0.28797
 C444 C 0.86315 0.95723 -0.24464
 C445 C 0.91428 0.99234 -0.18773
 C446 C 0.89989 0.96114 -0.15593
 C447 C 0.91819 0.96326 -0.11243
 C448 C 0.94915 0.99739 -0.09826
 C449 C 0.96513 1.02558 -0.13344
 C450 C 0.94729 1.02444 -0.17691
 C451 C 0.84948 0.92617 -0.21187
 C452 C 0.86770 0.92796 -0.16829
 C453 C 0.94464 1.05302 -0.25359
 C454 C 0.96277 1.05431 -0.21001
 H455 H 0.82442 0.90039 -0.21993
 H456 H 0.85625 0.90341 -0.14400
 H457 H 0.95699 1.07703 -0.27797
 H458 H 0.98873 1.07921 -0.20201
 H459 H 0.90250 1.04536 -0.33304
 H460 H 0.81937 0.93083 -0.29655
 H461 H 0.90803 0.93706 -0.09100
 H462 H 0.99446 1.04657 -0.12912
 C463 C 1.22681 1.12750 0.01454
 C464 C 1.23129 1.17233 -0.00006
 C465 C 1.27479 1.19124 -0.00380
 C466 C 1.31397 1.16580 0.00755
 C467 C 1.30787 1.12116 0.02381
 C468 C 1.26468 1.10200 0.02722
 C469 C 1.18158 1.10648 0.01591
 C470 C 1.17716 1.06198 0.03050
 C471 C 1.13468 1.04148 0.02909
 C472 C 1.09653 1.06155 0.00882
 C473 C 1.10104 1.10927 0.00193
 C474 C 1.14345 1.13128 0.00334
 C475 C 1.25868 1.05742 0.04258
 C476 C 1.21554 1.03789 0.04463
 C477 C 1.19204 1.19724 -0.01045
 C478 C 1.14880 1.17726 -0.00809
 H479 H 1.28756 1.03735 0.05273
 H480 H 1.21236 1.00319 0.05611
 H481 H 1.19476 1.23232 -0.02085
 H482 H 1.11954 1.19759 -0.01648
 H483 H 1.27760 1.22627 -0.01423
 H484 H 1.33663 1.09996 0.03173
 H485 H 1.13333 1.00789 0.04050
 H486 H 1.07158 1.13017 -0.00278
 C487 C 0.76945 1.11683 0.00201
 C488 C 0.76332 1.15817 -0.01997
 C489 C 0.71972 1.17603 -0.02405
 C490 C 0.68226 1.15473 -0.00364
 C491 C 0.68943 1.11350 0.01930
 C492 C 0.73292 1.09420 0.02177
 C493 C 0.81522 1.09719 0.00479
 C494 C 0.82191 1.05635 0.02704
 C495 C 0.86555 1.03754 0.02818
 C496 C 0.90291 1.05689 0.00490
 C497 C 0.89509 1.10160 -0.01049
 C498 C 0.85189 1.12088 -0.01273
 C499 C 0.74096 1.05327 0.04436
 C500 C 0.78474 1.03474 0.04708
 C501 C 0.80113 1.18152 -0.03647
 C502 C 0.84483 1.16378 -0.03169
 H503 H 0.71323 1.03538 0.05999
 H504 H 0.78943 1.00296 0.06448
 H505 H 0.79700 1.21414 -0.05250
 H506 H 0.87319 1.18344 -0.04363
 H507 H 0.71542 1.20674 -0.04316
 H508 H 0.66166 1.09687 0.03609
 H509 H 0.86978 1.00660 0.04680
 H510 H 0.92294 1.12421 -0.01558
 C511 C 1.22699 0.87451 -0.01602
 C512 C 1.23156 0.82973 -0.00135
 C513 C 1.27499 0.81051 0.00131
 C514 C 1.31400 0.83556 -0.01124
 C515 C 1.30779 0.88001 -0.02792
 C516 C 1.26466 0.89959 -0.03004
 C517 C 1.18190 0.89594 -0.01601
 C518 C 1.17738 0.94049 -0.03042
 C519 C 1.13509 0.96135 -0.02779
 C520 C 1.09717 0.94134 -0.00696
 C521 C 1.10173 0.89363 -0.00010
 C522 C 1.14399 0.87143 -0.00236
 C523 C 1.25852 0.94420 -0.04526
 C524 C 1.21550 0.96420 -0.04580
 C525 C 1.19249 0.80518 0.01037
 C526 C 1.14935 0.82548 0.00917
 H527 H 1.28721 0.96397 -0.05640
 H528 H 1.21224 0.99893 -0.05719
 H529 H 1.19529 0.77015 0.02089
 H530 H 1.12022 0.80544 0.01856
 H531 H 1.27789 0.77556 0.01199
 H532 H 1.33652 0.90077 -0.03694
 H533 H 1.13370 0.99499 -0.03912
 H534 H 1.07230 0.87279 0.00495
 C535 C 0.76971 0.88320 -0.00100
 C536 C 0.73311 0.90599 -0.02048
 C537 C 0.68960 0.88666 -0.01806
 C538 C 0.68256 0.84494 0.00405
 C539 C 0.72012 0.82313 0.02373
 C540 C 0.76368 0.84144 0.02031
 C541 C 0.81547 0.90309 -0.00347
 C542 C 0.85215 0.87956 0.01424
 C543 C 0.89531 0.89911 0.01243
 C544 C 0.90323 0.94376 -0.00329
 C545 C 0.86586 0.96279 -0.02691
 C546 C 0.82217 0.94396 -0.02568
 C547 C 0.80156 0.81820 0.03685
 C548 C 0.84517 0.83645 0.03284
 C549 C 0.74112 0.94711 -0.04276
 C550 C 0.78492 0.96560 -0.04559
 H551 H 0.79756 0.78536 0.05244
 H552 H 0.87355 0.81690 0.04496
 H553 H 0.71335 0.96512 -0.05821
 H554 H 0.78955 0.99745 -0.06288
 H555 H 0.66165 0.90357 -0.03431
 H556 H 0.71575 0.79172 0.04176
 H557 H 0.92313 0.87654 0.01783
 H558 H 0.87008 0.99367 -0.04565
 C559 C 0.72499 0.50154 0.38310
 C560 C 0.73870 0.54083 0.36063
 C561 C 0.78302 0.54329 0.34420
 C562 C 0.81339 0.50699 0.35064
 C563 C 0.79939 0.46835 0.37413
 C564 C 0.75503 0.46524 0.39005
 C565 C 0.67823 0.49824 0.39953
 C566 C 0.66437 0.45890 0.42116
 C567 C 0.62041 0.45652 0.43782
 C568 C 0.58978 0.49331 0.43581
 C569 C 0.60457 0.53171 0.41155
 C570 C 0.64832 0.53452 0.39363
 C571 C 0.73983 0.42621 0.41206
 C572 C 0.69512 0.42299 0.42717
 C573 C 0.70763 0.57650 0.35473
 C574 C 0.66321 0.57348 0.37114
 H575 H 0.76261 0.39793 0.41752
 H576 H 0.68470 0.39239 0.44422
 H577 H 0.71779 0.60705 0.33747
 H578 H 0.64043 0.60192 0.36640
 H579 H 0.79389 0.57316 0.32619
 H580 H 0.82254 0.44013 0.37852
 H581 H 0.61168 0.42570 0.45283
 H582 H 0.58289 0.56022 0.40700
 C583 C 0.26132 0.50699 0.40094
 C584 C 0.22604 0.48608 0.42453
 C585 C 0.18212 0.48683 0.40660
 C586 C 0.17368 0.50846 0.36553
 C587 C 0.20961 0.52916 0.34247
 C588 C 0.25343 0.52847 0.35993
 C589 C 0.30764 0.50554 0.41898
 C590 C 0.34291 0.52513 0.39482
 C591 C 0.38696 0.52248 0.41145
 C592 C 0.39741 0.50097 0.45247
 C593 C 0.36050 0.48065 0.47515
 C594 C 0.31606 0.48310 0.45911
 C595 C 0.28965 0.54825 0.33682
 C596 C 0.33372 0.54650 0.35393
 C597 C 0.23563 0.46449 0.46525
 C598 C 0.27993 0.46292 0.48219
 H599 H 0.28394 0.56489 0.30510
 H600 H 0.36085 0.56186 0.33495
 H601 H 0.20879 0.44835 0.48394
 H602 H 0.28597 0.44559 0.51349
 H603 H 0.15459 0.47091 0.42452
 H604 H 0.20359 0.54500 0.31037
 H605 H 0.41279 0.53460 0.39022
 H606 H 0.36575 0.46082 0.50451
 C607 C 0.73364 0.48846 0.60226
 C608 C 0.77040 0.50612 0.57853
 C609 C 0.81367 0.50534 0.59804
 C610 C 0.82045 0.48829 0.64202
 C611 C 0.78241 0.46949 0.66424
 C612 C 0.73941 0.46979 0.64483
 C613 C 0.68790 0.49072 0.58278
 C614 C 0.65123 0.47403 0.60699
 C615 C 0.60776 0.47788 0.58924
 C616 C 0.59920 0.49792 0.54705
 C617 C 0.63743 0.51564 0.52437
 C618 C 0.68141 0.51158 0.54144
 C619 C 0.70183 0.45239 0.66776
 C620 C 0.65841 0.45460 0.64920
 C621 C 0.76281 0.52571 0.53635
 C622 C 0.71903 0.52868 0.51827
 H623 H 0.70589 0.43764 0.70064
 H624 H 0.63019 0.44139 0.66821
 H625 H 0.79081 0.53957 0.51752
 H626 H 0.71459 0.54470 0.48603
 H627 H 0.84088 0.52130 0.57984
 H628 H 0.78583 0.45284 0.69620
 H629 H 0.58099 0.46868 0.61085
 H630 H 0.63357 0.53480 0.49430
 C631 C 0.27232 0.49810 0.61612
 C632 C 0.24382 0.53619 0.61389
 C633 C 0.19972 0.53324 0.63056
 C634 C 0.18318 0.49199 0.64790
 C635 C 0.21218 0.45366 0.64851
 C636 C 0.25703 0.45687 0.63365
 C637 C 0.31906 0.50145 0.59958
 C638 C 0.34817 0.46421 0.60298
 C639 C 0.39229 0.46768 0.58611
 C640 C 0.40734 0.50645 0.56262
 C641 C 0.37701 0.54361 0.56185
 C642 C 0.33365 0.54174 0.58019
 C643 C 0.28708 0.41985 0.63624
 C644 C 0.33209 0.42364 0.62164
 C645 C 0.26009 0.57663 0.59523
 C646 C 0.30416 0.57922 0.57822
 H647 H 0.27580 0.38782 0.64989
 H648 H 0.35417 0.39433 0.62415
 H649 H 0.23842 0.60630 0.59324
 H650 H 0.31520 0.61075 0.56326
 H651 H 0.17886 0.56354 0.63074
 H652 H 0.20015 0.42127 0.66060
 H653 H 0.41383 0.43919 0.59034
 H654 H 0.38564 0.57462 0.54710
 C655 C 0.48916 0.60158 0.26516
 C656 C 0.51096 0.57823 0.22969
 C657 C 0.51151 0.59750 0.18675
 C658 C 0.49071 0.63998 0.17939
 C659 C 0.46786 0.66209 0.21525
 C660 C 0.46737 0.64331 0.25821
 C661 C 0.49027 0.58265 0.31077
 C662 C 0.46993 0.60662 0.34637
 C663 C 0.47251 0.58925 0.38985
 C664 C 0.49487 0.54764 0.39927
 C665 C 0.51544 0.52501 0.36193
 C666 C 0.51309 0.54183 0.31819
 C667 C 0.44644 0.66598 0.29462
 C668 C 0.44781 0.64801 0.33800
 C669 C 0.53275 0.53670 0.23828
 C670 C 0.53385 0.51884 0.28179
 H671 H 0.42942 0.69821 0.28969
 H672 H 0.43173 0.66684 0.36528
 H673 H 0.54960 0.51815 0.21130
 H674 H 0.55144 0.48698 0.28704
 H675 H 0.52946 0.58033 0.15961
 H676 H 0.45093 0.69429 0.20986
 H677 H 0.45851 0.60976 0.41606
 H678 H 0.53524 0.49486 0.36630
 C679 C 0.49922 0.61407 0.72826
 C680 C 0.53641 0.60751 0.75674
 C681 C 0.53418 0.62328 0.80128
 C682 C 0.49523 0.64561 0.81749
 C683 C 0.45764 0.65092 0.78892
 C684 C 0.45966 0.63549 0.74394
 C685 C 0.50206 0.59868 0.68095
 C686 C 0.46561 0.60558 0.65202
 C687 C 0.46845 0.58933 0.60737
 C688 C 0.50623 0.56419 0.59119
 C689 C 0.54328 0.56165 0.62097
 C690 C 0.54140 0.57757 0.66539
 C691 C 0.42355 0.64191 0.71393
 C692 C 0.42652 0.62731 0.66871
 C693 C 0.57549 0.58618 0.73983
 C694 C 0.57797 0.57148 0.69486
 H695 H 0.39283 0.65849 0.72543
 H696 H 0.39784 0.63269 0.64677
 H697 H 0.60441 0.58094 0.76147
 H698 H 0.60863 0.55489 0.68314
 H699 H 0.56307 0.61901 0.82325
 H700 H 0.42779 0.66861 0.80117
 H701 H 0.44048 0.59577 0.58620
 H702 H 0.57419 0.54725 0.61109
 C703 C 0.49639 0.38496 0.27039
 C704 C 0.53500 0.36184 0.25488
 C705 C 0.53648 0.34639 0.20994
 C706 C 0.49948 0.35384 0.18104
 C707 C 0.46148 0.37782 0.19715
 C708 C 0.45965 0.39327 0.24177
 C709 C 0.49426 0.40082 0.31754
 C710 C 0.45591 0.42385 0.33278
 C711 C 0.45475 0.44033 0.37689
 C712 C 0.49132 0.43612 0.40696
 C713 C 0.52863 0.41018 0.39086
 C714 C 0.53061 0.39306 0.34644
 C715 C 0.42156 0.41647 0.25844
 C716 C 0.41967 0.43146 0.30330
 C717 C 0.57092 0.35424 0.28484
 C718 C 0.56877 0.36961 0.32987
 H719 H 0.39301 0.42307 0.23669
 H720 H 0.38981 0.44957 0.31488
 H721 H 0.60094 0.33637 0.27339
 H722 H 0.59733 0.36344 0.35174
 H723 H 0.56568 0.32754 0.19784
 H724 H 0.43319 0.38421 0.17495
 H725 H 0.42483 0.45679 0.38637
 H726 H 0.55698 0.40397 0.41182
 C727 C 0.51096 0.39869 0.73251
 C728 C 0.53368 0.35743 0.73923
 C729 C 0.53458 0.33900 0.78228
 C730 C 0.51155 0.36054 0.81835
 C731 C 0.48973 0.40256 0.81116
 C732 C 0.48943 0.42182 0.76825
 C733 C 0.50847 0.41726 0.68686
 C734 C 0.48518 0.45789 0.67975
 C735 C 0.48198 0.47460 0.63603
 C736 C 0.50174 0.45169 0.59847
 C737 C 0.52382 0.40988 0.60743
 C738 C 0.52792 0.39305 0.65093
 C739 C 0.46694 0.46304 0.75995
 C740 C 0.46493 0.48082 0.71645
 C741 C 0.55394 0.33469 0.70250
 C742 C 0.55081 0.35204 0.65899
 H743 H 0.45033 0.48144 0.78718
 H744 H 0.44693 0.51250 0.71144
 H745 H 0.57161 0.30280 0.70726
 H746 H 0.56629 0.33312 0.63142
 H747 H 0.55254 0.30734 0.78744
 H748 H 0.47157 0.41937 0.83837
 H749 H 0.46229 0.50487 0.63187
 H750 H 0.53627 0.38872 0.58101
 C751 C 0.62046 0.72688 0.49650
 C752 C 0.64715 0.74013 0.53341
 C753 C 0.66611 0.78393 0.53452
 C754 C 0.65824 0.81429 0.49913
 C755 C 0.63079 0.80060 0.46274
 C756 C 0.61203 0.75681 0.46112
 C757 C 0.60102 0.68070 0.49476
 C758 C 0.57489 0.66733 0.45790
 C759 C 0.55589 0.62382 0.45689
 C760 C 0.56098 0.59270 0.49221
 C761 C 0.58863 0.60748 0.52851
 C762 C 0.60865 0.65086 0.53004
 C763 C 0.58545 0.74211 0.42458
 C764 C 0.56726 0.69802 0.42293
 C765 C 0.65446 0.70919 0.56824
 C766 C 0.63541 0.66532 0.56664
 H767 H 0.57872 0.76480 0.39703
 H768 H 0.54679 0.68798 0.39422
 H769 H 0.67497 0.71899 0.59698
 H770 H 0.64159 0.64260 0.59430
 H771 H 0.68690 0.79447 0.56284
 H772 H 0.62509 0.82358 0.43517
 H773 H 0.53696 0.61552 0.42819
 H774 H 0.59464 0.58612 0.55626
 C775 C 0.60535 0.26401 0.50645
 C776 C 0.64806 0.25822 0.52602
 C777 C 0.66730 0.21471 0.52657
 C778 C 0.64415 0.17683 0.50801
 C779 C 0.60116 0.18325 0.48855
 C780 C 0.58169 0.22691 0.48751
 C781 C 0.58553 0.31003 0.50486
 C782 C 0.54386 0.31642 0.48382
 C783 C 0.52616 0.36060 0.48103
 C784 C 0.54839 0.39913 0.50026
 C785 C 0.59103 0.39073 0.52039
 C786 C 0.60951 0.34703 0.52288
 C787 C 0.53936 0.23446 0.46745
 C788 C 0.52088 0.27851 0.46541
 C789 C 0.67104 0.29619 0.54406
 C790 C 0.65207 0.33990 0.54252
 H791 H 0.52062 0.20621 0.45277
 H792 H 0.48840 0.28292 0.44922
 H793 H 0.70405 0.29214 0.55926
 H794 H 0.67098 0.36838 0.55661
 H795 H 0.70084 0.21057 0.54057
 H796 H 0.58294 0.15440 0.47434
 H797 H 0.49576 0.36436 0.46190
 H798 H 0.61207 0.41779 0.53161
 C799 C 0.39159 0.73517 0.49376
 C800 C 0.41562 0.77230 0.51221
 C801 C 0.39543 0.81561 0.51293
 C802 C 0.35125 0.82131 0.49634
 C803 C 0.32799 0.78382 0.47747
 C804 C 0.34796 0.74067 0.47610
 C805 C 0.41182 0.68934 0.49431
 C806 C 0.38744 0.65228 0.47700
 C807 C 0.40608 0.60868 0.47908
 C808 C 0.44918 0.60046 0.49812
 C809 C 0.47191 0.63898 0.51672
 C810 C 0.45412 0.68310 0.51418
 C811 C 0.32475 0.70271 0.45837
 C812 C 0.34418 0.65919 0.45883
 C813 C 0.45871 0.76499 0.53065
 C814 C 0.47753 0.72106 0.53189
 H815 H 0.29110 0.70658 0.44456
 H816 H 0.32501 0.63064 0.44526
 H817 H 0.47769 0.79329 0.54494
 H818 H 0.51055 0.71675 0.54702
 H819 H 0.41323 0.84445 0.52774
 H820 H 0.29414 0.78829 0.46425
 H821 H 0.38463 0.58146 0.46912
 H822 H 0.50277 0.63522 0.53524
 C823 C 0.38315 0.27034 0.49589
 C824 C 0.38725 0.24149 0.53275
 C825 C 0.36945 0.19737 0.52980
 C826 C 0.34888 0.18127 0.48976
 C827 C 0.34679 0.21043 0.45247
 C828 C 0.36288 0.25527 0.45575
 C829 C 0.40034 0.31730 0.49946
 C830 C 0.39503 0.34674 0.46349
 C831 C 0.41209 0.39117 0.46721
 C832 C 0.43705 0.40656 0.50518
 C833 C 0.44046 0.37561 0.54090
 C834 C 0.42210 0.33181 0.53872
 C835 C 0.35857 0.28561 0.41994
 C836 C 0.37395 0.33077 0.42392
 C837 C 0.40859 0.25756 0.57209
 C838 C 0.42616 0.30187 0.57487
 H839 H 0.34283 0.27449 0.38876
 H840 H 0.36993 0.35314 0.39560
 H841 H 0.41209 0.23562 0.60079
 H842 H 0.44302 0.31280 0.60555
 H843 H 0.37064 0.17626 0.55924
 H844 H 0.33234 0.19862 0.42095
 H845 H 0.40650 0.41282 0.43959
 H846 H 0.45731 0.38426 0.57094
   
