data_POSCAR
  _audit_creation_date              2014-09-24
  _audit_creation_method            'ToBaCCo'
  _symmetry_space_group_name_H-M    'P1'
  _symmetry_Int_Tables_number       1
  _symmetry_cell_setting            triclinic
  loop_
  _symmetry_equiv_pos_as_xyz
 x,y,z
_cell_length_a 39.9863
_cell_length_b 40.2933
_cell_length_c 32.3884
_cell_angle_alpha 90.057500
_cell_angle_beta 89.876400
_cell_angle_gamma 119.693200
loop_
  _atom_site_label
  _atom_site_type_symbol
  _atom_site_fract_x
  _atom_site_fract_y
  _atom_site_fract_z
C1 C 0.00019 0.54494 -0.00481
 C2 C 0.00299 0.51258 -0.00904
 C3 C 0.02719 0.50474 0.01996
 C4 C -0.01801 0.48408 -0.04239
 C5 C -0.03082 0.54888 -0.02550
 C6 C 0.02905 0.57796 0.01966
 C7 C 0.05325 0.49371 0.00504
 C8 C 0.07756 0.48875 0.03229
 C9 C 0.07628 0.49503 0.07485
 C10 C 0.04964 0.50513 0.08977
 C11 C 0.02476 0.50910 0.06275
 C12 C -0.02004 0.49619 -0.08250
 C13 C -0.04330 0.46997 -0.11231
 C14 C -0.06304 0.43052 -0.10397
 C15 C -0.05833 0.41813 -0.06468
 C16 C -0.03652 0.44472 -0.03414
 C17 C -0.06933 0.51948 -0.02291
 C18 C -0.09751 0.52042 -0.04746
 C19 C -0.08769 0.55106 -0.07475
 C20 C -0.04985 0.58192 -0.07463
 C21 C -0.02159 0.58084 -0.05026
 C22 C 0.01741 0.59329 0.05186
 C23 C 0.04485 0.62139 0.07774
 C24 C 0.08427 0.63458 0.07176
 C25 C 0.09587 0.62109 0.03759
 C26 C 0.06850 0.59304 0.01187
 H27 H 0.05551 0.49000 -0.02778
 H28 H 0.09824 0.48141 0.01995
 H29 H 0.04807 0.50991 0.12246
 H30 H 0.00412 0.51647 0.07518
 H31 H -0.00449 0.52620 -0.09052
 H32 H -0.04546 0.48076 -0.14226
 H33 H -0.03505 0.43452 -0.00365
 H34 H -0.07725 0.49507 -0.00305
 H35 H -0.12675 0.49694 -0.04535
 H36 H -0.04173 0.60613 -0.09488
 H37 H 0.00784 0.60403 -0.05237
 H38 H -0.01291 0.58233 0.05803
 H39 H 0.03521 0.63177 0.10342
 H40 H 0.12601 0.63182 0.03083
 H41 H 0.07806 0.58233 -0.01359
 H42 H -0.07315 0.38827 -0.05616
 C43 C 0.50291 0.51984 -0.01444
 C44 C 0.53558 0.55487 -0.01500
 C45 C 0.53944 0.58703 0.01083
 C46 C 0.56949 0.56166 -0.04009
 C47 C 0.49771 0.48922 -0.04389
 C48 C 0.47182 0.51031 0.01648
 C49 C 0.51164 0.59859 0.00933
 C50 C 0.51315 0.62585 0.03710
 C51 C 0.54271 0.64244 0.06653
 C52 C 0.57142 0.63184 0.06683
 C53 C 0.56990 0.60463 0.03898
 C54 C 0.58358 0.58957 -0.07118
 C55 C 0.61224 0.59247 -0.09829
 C56 C 0.62711 0.56752 -0.09459
 C57 C 0.61501 0.54167 -0.06130
 C58 C 0.58643 0.53876 -0.03437
 C59 C 0.48856 0.45292 -0.02914
 C60 C 0.48739 0.42524 -0.05615
 C61 C 0.49539 0.43349 -0.09841
 C62 C 0.50322 0.46932 -0.11327
 C63 C 0.50365 0.49666 -0.08644
 C64 C 0.48046 0.51736 0.05870
 C65 C 0.45168 0.51115 0.08716
 C66 C 0.41345 0.49632 0.07430
 C67 C 0.40437 0.48747 0.03233
 C68 C 0.43338 0.49443 0.00368
 H69 H 0.48812 0.58562 -0.01251
 H70 H 0.49065 0.63339 0.03616
 H71 H 0.59421 0.64309 0.08948
 H72 H 0.59153 0.59595 0.04072
 H73 H 0.57112 0.60782 -0.07565
 H74 H 0.62156 0.61304 -0.12324
 H75 H 0.57660 0.51778 -0.00979
 H76 H 0.48380 0.44653 0.00352
 H77 H 0.48190 0.39811 -0.04361
 H78 H 0.50937 0.47627 -0.14570
 H79 H 0.50980 0.52411 -0.09869
 H80 H 0.50969 0.52845 0.06953
 H81 H 0.45931 0.51805 0.11935
 H82 H 0.37523 0.47658 0.02138
 H83 H 0.42602 0.48850 -0.02868
 H84 H 0.62713 0.52321 -0.05635
 C85 C 0.54082 1.02339 0.02360
 C86 C 0.50637 1.02251 0.01937
 C87 C 0.47150 0.99635 0.04384
 C88 C 0.50158 1.04769 -0.01079
 C89 C 0.57544 1.05130 0.00018
 C90 C 0.54571 0.99621 0.05055
 C91 C 0.43571 0.97614 0.02385
 C92 C 0.40253 0.95177 0.04607
 C93 C 0.40468 0.94638 0.08844
 C94 C 0.44018 0.96694 0.10878
 C95 C 0.47318 0.99233 0.08680
 C96 C 0.51005 1.04728 -0.05284
 C97 C 0.50582 1.07139 -0.08068
 C98 C 0.49187 1.09540 -0.06728
 C99 C 0.48286 1.09541 -0.02528
 C100 C 0.48763 1.07169 0.00266
 C101 C 0.58913 1.09069 0.00304
 C102 C 0.61930 1.11622 -0.02227
 C103 C 0.63687 1.10309 -0.05070
 C104 C 0.62405 1.06346 -0.05181
 C105 C 0.59382 1.03806 -0.02655
 C106 C 0.57598 1.01032 0.07916
 C107 C 0.58091 0.98540 0.10508
 C108 C 0.55554 0.94589 0.10318
 C109 C 0.52584 0.93158 0.07364
 C110 C 0.52119 0.95654 0.04735
 H111 H 0.43346 0.97904 -0.00912
 H112 H 0.37530 0.93641 0.03000
 H113 H 0.44220 0.96385 0.14175
 H114 H 0.49997 1.00871 0.10333
 H115 H 0.52004 1.02836 -0.06404
 H116 H 0.51295 1.07092 -0.11288
 H117 H 0.48085 1.07235 0.03494
 H118 H 0.57573 1.10155 0.02408
 H119 H 0.62839 1.14636 -0.02009
 H120 H 0.63600 1.05118 -0.07269
 H121 H 0.58375 1.00773 -0.02900
 H122 H 0.59555 1.04076 0.08180
 H123 H 0.60429 0.99709 0.12717
 H124 H 0.50660 0.90119 0.07025
 H125 H 0.49841 0.94492 0.02457
 H126 H 0.47287 1.11422 -0.01380
 C127 C 0.98900 0.49836 0.47120
 C128 C 0.98772 0.46395 0.47517
 C129 C 1.01494 0.45571 0.45204
 C130 C 0.95988 0.43331 0.50293
 C131 C 0.96580 0.50959 0.49786
 C132 C 1.01538 0.52750 0.44095
 C133 C 1.00092 0.42515 0.42417
 C134 C 1.02628 0.42013 0.39858
 C135 C 1.06624 0.44562 0.40020
 C136 C 1.08023 0.47466 0.43058
 C137 C 1.05480 0.47948 0.45617
 C138 C 0.92025 0.42047 0.50078
 C139 C 0.89475 0.39279 0.52841
 C140 C 0.90821 0.37690 0.55819
 C141 C 0.94789 0.38934 0.55970
 C142 C 0.97333 0.41703 0.53214
 C143 C 0.96534 0.50583 0.54103
 C144 C 0.94410 0.51730 0.56561
 C145 C 0.92371 0.53367 0.54754
 C146 C 0.92534 0.53875 0.50463
 C147 C 0.94592 0.52654 0.47999
 C148 C 1.04107 0.56470 0.45435
 C149 C 1.06780 0.59170 0.42709
 C150 C 1.06965 0.58191 0.38557
 C151 C 1.04310 0.54478 0.37215
 C152 C 1.01579 0.51818 0.39925
 H153 H 0.97021 0.40617 0.42096
 H154 H 1.01434 0.39704 0.37630
 H155 H 1.11055 0.49413 0.43503
 H156 H 1.06616 0.50258 0.47843
 H157 H 0.90917 0.43223 0.47806
 H158 H 0.86440 0.38388 0.52666
 H159 H 1.00381 0.42662 0.53441
 H160 H 0.98174 0.49439 0.55579
 H161 H 0.94435 0.51416 0.59878
 H162 H 0.91019 0.55168 0.49013
 H163 H 0.94634 0.53035 0.44685
 H164 H 1.04119 0.57255 0.48638
 H165 H 1.08780 0.61941 0.43959
 H166 H 1.04336 0.53622 0.34047
 H167 H 0.99553 0.48996 0.38790
 H168 H 0.95970 0.37878 0.58287
 C169 C 0.45814 0.44854 0.48444
 C170 C 0.49183 0.48262 0.48568
 C171 C 0.49954 0.51413 0.45642
 C172 C 0.52191 0.48955 0.51683
 C173 C 0.45253 0.41550 0.50978
 C174 C 0.42536 0.44296 0.45824
 C175 C 0.49379 0.50712 0.41380
 C176 C 0.49587 0.53530 0.38715
 C177 C 0.50519 0.57150 0.40225
 C178 C 0.51338 0.57936 0.44452
 C179 C 0.51057 0.55086 0.47136
 C180 C 0.55938 0.49983 0.50417
 C181 C 0.58649 0.50205 0.53296
 C182 C 0.57648 0.49419 0.57497
 C183 C 0.53938 0.48524 0.58764
 C184 C 0.51255 0.48352 0.55899
 C185 C 0.42263 0.39948 0.53886
 C186 C 0.41983 0.37135 0.56615
 C187 C 0.44667 0.35835 0.56431
 C188 C 0.47546 0.37331 0.53380
 C189 C 0.47827 0.40145 0.50665
 C190 C 0.41027 0.46775 0.46141
 C191 C 0.38152 0.46422 0.43441
 C192 C 0.36730 0.43570 0.40372
 C193 C 0.38091 0.40961 0.40226
 C194 C 0.40971 0.41319 0.42929
 H195 H 0.48624 0.47932 0.40138
 H196 H 0.48957 0.52861 0.35470
 H197 H 0.52006 0.60682 0.45723
 H198 H 0.51530 0.55696 0.50407
 H199 H 0.56714 0.50456 0.47179
 H200 H 0.61460 0.50837 0.52198
 H201 H 0.48399 0.47624 0.56952
 H202 H 0.40255 0.41005 0.54169
 H203 H 0.39763 0.36128 0.58954
 H204 H 0.49652 0.36389 0.53164
 H205 H 0.50126 0.41319 0.48402
 H206 H 0.42126 0.49023 0.48439
 H207 H 0.37057 0.48382 0.43775
 H208 H 0.37002 0.38705 0.37937
 H209 H 0.42069 0.39351 0.42673
 H210 H 0.53102 0.47920 0.61979
 C211 C 0.47180 -0.02016 0.53887
 C212 C 0.50504 -0.02185 0.54030
 C213 C 0.53812 0.00528 0.56607
 C214 C 0.51104 -0.04908 0.51462
 C215 C 0.44049 -0.04241 0.50857
 C216 C 0.46529 0.00443 0.56808
 C217 C 0.55422 0.04487 0.56086
 C218 C 0.58611 0.07033 0.58409
 C219 C 0.60270 0.05660 0.61288
 C220 C 0.58708 0.01697 0.61727
 C221 C 0.55506 -0.00847 0.59411
 C222 C 0.54346 -0.03524 0.48895
 C223 C 0.54841 -0.05975 0.46236
 C224 C 0.52095 -0.09914 0.46094
 C225 C 0.48913 -0.11298 0.48793
 C226 C 0.48438 -0.08834 0.51467
 C227 C 0.40186 -0.06108 0.52146
 C228 C 0.37226 -0.08248 0.49355
 C229 C 0.38060 -0.08681 0.45238
 C230 C 0.41933 -0.06677 0.43913
 C231 C 0.44869 -0.04418 0.46670
 C232 C 0.46184 -0.00331 0.61057
 C233 C 0.45535 0.01977 0.63793
 C234 C 0.45317 0.05140 0.62329
 C235 C 0.45635 0.05892 0.58064
 C236 C 0.46194 0.03532 0.55322
 H237 H 0.54249 0.05607 0.53824
 H238 H 0.59817 0.10059 0.57856
 H239 H 0.59961 0.00567 0.63882
 H240 H 0.54344 -0.03892 0.59807
 H241 H 0.56445 -0.00503 0.48851
 H242 H 0.57337 -0.04688 0.44252
 H243 H 0.45944 -0.09974 0.53477
 H244 H 0.39455 -0.05956 0.55336
 H245 H 0.34281 -0.09685 0.50468
 H246 H 0.42722 -0.06717 0.40726
 H247 H 0.47793 -0.02820 0.45526
 H248 H 0.46392 -0.02735 0.62241
 H249 H 0.45263 0.01331 0.67063
 H250 H 0.45388 0.08263 0.56848
 H251 H 0.46419 0.04140 0.52044
 H252 H 0.46748 -0.14300 0.48809
 O253 O 0.16590 0.40303 0.18241
 O254 O 0.22874 0.39992 0.26370
 O255 O 0.16420 0.40127 0.26328
 O256 O 0.23065 0.40235 0.18305
 O257 O 0.26287 0.46539 0.18565
 O258 O 0.19708 0.46428 0.26555
 O259 O 0.26096 0.46298 0.26552
 O260 O 0.19773 0.46606 0.18530
 Cu261 Cu 0.19409 0.39528 0.22287
 Cu262 Cu 0.23283 0.47100 0.22550
 C263 C 0.17101 0.43513 0.17022
 C264 C 0.25552 0.43093 0.27849
 C265 C 0.16965 0.43268 0.27838
 C266 C 0.25829 0.43416 0.17100
 O267 O 0.56327 0.75755 0.22337
 O268 O 0.55737 0.81342 0.31016
 O269 O 0.56753 0.75457 0.30366
 O270 O 0.55285 0.81613 0.23014
 O271 O 0.48996 0.77767 0.23374
 O272 O 0.50469 0.71546 0.30576
 O273 O 0.49457 0.77467 0.31388
 O274 O 0.50032 0.71926 0.22622
 Cu275 Cu 0.56657 0.78928 0.26657
 Cu276 Cu 0.49108 0.74293 0.27040
 C277 C 0.53276 0.72897 0.20988
 C278 C 0.52498 0.80368 0.32675
 C279 C 0.53857 0.72425 0.31681
 C280 C 0.51888 0.80731 0.21938
 O281 O 0.27470 0.82052 0.21570
 O282 O 0.20002 0.76121 0.29147
 O283 O 0.27115 0.81582 0.29549
 O284 O 0.20298 0.76534 0.21075
 O285 O 0.22375 0.72381 0.20802
 O286 O 0.29063 0.77320 0.29327
 O287 O 0.21875 0.71809 0.28796
 O288 O 0.29503 0.77857 0.21441
 Cu289 Cu 0.23505 0.79487 0.25345
 Cu290 Cu 0.25876 0.74396 0.25074
 C291 C 0.29823 0.81014 0.20306
 C292 C 0.19653 0.72942 0.30237
 C293 C 0.29293 0.80336 0.30826
 C294 C 0.20184 0.73595 0.19490
 O295 O 0.81667 0.55941 0.68846
 O296 O 0.75813 0.58107 0.76108
 O297 O 0.81968 0.57486 0.76693
 O298 O 0.75782 0.57049 0.68108
 O299 O 0.71931 0.50894 0.69260
 O300 O 0.78186 0.51321 0.77863
 O301 O 0.72081 0.51922 0.77168
 O302 O 0.77854 0.49785 0.70036
 Cu303 Cu 0.79179 0.57762 0.72308
 Cu304 Cu 0.74634 0.50361 0.73666
 C305 C 0.80763 0.52470 0.68267
 C306 C 0.72962 0.55350 0.77915
 C307 C 0.81138 0.54499 0.78751
 C308 C 0.72787 0.53923 0.67246
 O309 O 0.43230 0.24661 0.72189
 O310 O 0.44526 0.19366 0.80729
 O311 O 0.43266 0.25101 0.80254
 O312 O 0.44460 0.18884 0.72745
 O313 O 0.50712 0.22949 0.72470
 O314 O 0.49535 0.29087 0.80076
 O315 O 0.50806 0.23294 0.80498
 O316 O 0.49498 0.28668 0.72095
 Cu317 Cu 0.43237 0.21609 0.76495
 Cu318 Cu 0.50769 0.26400 0.76293
 C319 C 0.46153 0.27568 0.70689
 C320 C 0.47898 0.20405 0.82030
 C321 C 0.46200 0.28164 0.81426
 C322 C 0.47789 0.19864 0.71327
 O323 O 0.82531 0.25326 0.79019
 O324 O 0.74652 0.19351 0.71865
 O325 O 0.81542 0.25320 0.70988
 O326 O 0.75714 0.19480 0.79749
 O327 O 0.73410 0.23407 0.80624
 O328 O 0.78987 0.29056 0.71645
 O329 O 0.72193 0.23153 0.72707
 O330 O 0.80294 0.29341 0.79475
 Cu331 Cu 0.78870 0.21997 0.75306
 Cu332 Cu 0.75977 0.26622 0.76203
 C333 C 0.82779 0.28380 0.80430
 C334 C 0.72041 0.20196 0.71133
 C335 C 0.81247 0.28176 0.69814
 C336 C 0.73565 0.20451 0.81680
 C337 C 0.10363 0.49338 0.10415
 C338 C 0.11528 0.46758 0.10149
 C339 C 0.14193 0.46713 0.13244
 C340 C 0.14544 0.43619 0.13830
 H341 H 0.10411 0.44600 0.07750
 H342 H 0.15789 0.49210 0.15179
 H343 H 0.11287 0.51286 0.13020
 H344 H 0.12794 0.41052 0.12050
 C345 C 0.54078 0.66820 0.09806
 C346 C 0.57044 0.69163 0.12221
 C347 C 0.56749 0.71495 0.15580
 C348 C 0.53444 0.70634 0.17507
 H349 H 0.59870 0.69511 0.11696
 H350 H 0.59422 0.73891 0.16652
 H351 H 0.51361 0.66778 0.10112
 H352 H 0.50774 0.68143 0.16612
 C353 C 0.36955 0.91966 0.11109
 C354 C 0.36911 0.89349 0.13664
 C355 C 0.33399 0.86693 0.15921
 C356 C 0.33080 0.83538 0.17641
 H357 H 0.39490 0.89131 0.14051
 H358 H 0.31090 0.87353 0.16227
 H359 H 0.34310 0.91996 0.10469
 H360 H 0.35346 0.82836 0.17184
 C361 C 0.90128 0.54637 0.57283
 C362 C 0.88107 0.52674 0.60581
 C363 C 0.85796 0.53900 0.63019
 C364 C 0.83114 0.51455 0.65621
 H365 H 0.88046 0.50041 0.61425
 H366 H 0.86259 0.56773 0.62658
 H367 H 0.89946 0.57105 0.56264
 H368 H 0.82583 0.48546 0.65809
 C369 C 0.44795 0.33197 0.59537
 C370 C 0.41956 0.31120 0.62225
 C371 C 0.42353 0.28833 0.65560
 C372 C 0.45748 0.29748 0.67280
 H373 H 0.39196 0.30981 0.61971
 H374 H 0.39732 0.26469 0.66786
 H375 H 0.47394 0.32991 0.59611
 H376 H 0.48354 0.32242 0.66237
 C377 C 0.63699 0.08259 0.63763
 C378 C 0.64635 0.11855 0.64687
 C379 C 0.68046 0.14288 0.67215
 C380 C 0.68755 0.17738 0.68470
 H381 H 0.62827 0.13001 0.63690
 H382 H 0.69947 0.13218 0.68120
 H383 H 0.65441 0.07118 0.65001
 H384 H 0.66789 0.18748 0.67632
 C385 C 0.48793 0.12068 0.90242
 C386 C 0.46081 0.13091 0.90551
 C387 C 0.45562 0.15448 0.87414
 C388 C 0.48495 0.18207 0.85282
 H389 H 0.43959 0.11923 0.92997
 H390 H 0.42669 0.14961 0.86964
 H391 H 0.50635 0.12903 0.87540
 H392 H 0.51424 0.18890 0.85931
 C393 C 0.65393 0.56787 0.87351
 C394 C 0.65376 0.53567 0.86260
 C395 C 0.67781 0.53220 0.83018
 C396 C 0.70672 0.56113 0.80959
 H397 H 0.63352 0.50901 0.87725
 H398 H 0.67130 0.50319 0.82386
 H399 H 0.67172 0.59424 0.85707
 H400 H 0.71451 0.59048 0.81563
 C401 C 0.91324 0.40652 0.86678
 C402 C 0.89687 0.36674 0.86703
 C403 C 0.86826 0.34460 0.83866
 C404 C 0.85805 0.30672 0.83067
 H405 H 0.90737 0.35287 0.88771
 H406 H 0.85468 0.35767 0.82119
 H407 H 0.90704 0.41890 0.84010
 H408 H 0.87543 0.29538 0.84333
 C409 C 0.52313 0.87503 0.43297
 C410 C 0.55248 0.88398 0.40661
 C411 C 0.55339 0.85762 0.37539
 C412 C 0.52224 0.82650 0.36083
 H413 H 0.57813 0.91162 0.40744
 H414 H 0.58129 0.86609 0.36188
 H415 H 0.49936 0.84597 0.43301
 H416 H 0.49382 0.81823 0.37256
 C417 C 0.33858 0.43243 0.37274
 C418 C 0.33511 0.46244 0.36067
 C419 C 0.30877 0.46132 0.32804
 C420 C 0.28038 0.42942 0.31105
 H421 H 0.35397 0.49037 0.37358
 H422 H 0.31309 0.48883 0.31806
 H423 H 0.32202 0.40508 0.35768
 H424 H 0.27458 0.40150 0.32111
 C425 C 0.09769 0.60702 0.35741
 C426 C 0.12092 0.64455 0.36362
 C427 C 0.15089 0.66779 0.33325
 C428 C 0.16635 0.70572 0.33221
 H429 H 0.11776 0.65892 0.39028
 H430 H 0.15995 0.65364 0.31104
 H431 H 0.10029 0.59525 0.32818
 H432 H 0.15554 0.71960 0.35264
 C433 C 0.88439 0.55134 0.89546
 C434 C 0.85555 0.51922 0.87917
 C435 C 0.82956 0.51818 0.84608
 C436 C 0.83689 0.54789 0.82168
 H437 H 0.85076 0.49170 0.88958
 H438 H 0.80415 0.49080 0.84039
 H439 H 0.88967 0.57897 0.88495
 H440 H 0.86271 0.57518 0.82574
 C441 C 0.49850 0.40659 0.87288
 C442 C 0.47751 0.36860 0.87652
 C443 C 0.48303 0.34362 0.84741
 C444 C 0.45693 0.30662 0.84376
 H445 H 0.45576 0.35586 0.90040
 H446 H 0.50848 0.35596 0.82795
 H447 H 0.51817 0.41863 0.84700
 H448 H 0.43051 0.29473 0.86158
 C449 C 0.66514 0.12989 0.92231
 C450 C 0.68464 0.12160 0.89404
 C451 C 0.71140 0.14904 0.86324
 C452 C 0.71142 0.18092 0.85124
 H453 H 0.68190 0.09364 0.89254
 H454 H 0.73005 0.14069 0.84756
 H455 H 0.67114 0.15914 0.92452
 H456 H 0.69198 0.18913 0.86514
 C457 C 0.09009 0.44152 0.37076
 C458 C 0.12763 0.46687 0.36497
 C459 C 0.15158 0.46435 0.33162
 C460 C 0.14389 0.43233 0.31125
 H461 H 0.14183 0.49280 0.38287
 H462 H 0.17777 0.49067 0.32449
 H463 H 0.07647 0.41742 0.34991
 H464 H 0.11912 0.40521 0.31929
 C465 C 0.50272 0.59897 0.37390
 C466 C 0.52419 0.63692 0.37763
 C467 C 0.51834 0.66219 0.34932
 C468 C 0.54457 0.69912 0.34516
 H469 H 0.54627 0.64937 0.40114
 H470 H 0.49227 0.65010 0.33095
 H471 H 0.48269 0.58730 0.34834
 H472 H 0.57160 0.71082 0.36172
 C473 C 0.35007 0.88967 0.42588
 C474 C 0.35462 0.87472 0.39077
 C475 C 0.32171 0.85089 0.36390
 C476 C 0.32272 0.82485 0.33922
 H477 H 0.38240 0.87831 0.38218
 H478 H 0.29686 0.85496 0.36402
 H479 H 0.32094 0.88128 0.43554
 H480 H 0.34674 0.81953 0.34119
 C481 C 0.56164 0.92064 0.13170
 C482 C 0.53328 0.88675 0.14462
 C483 C 0.54103 0.86359 0.17419
 C484 C 0.51233 0.83127 0.18981
 H485 H 0.50399 0.87639 0.13441
 H486 H 0.57048 0.87323 0.18346
 H487 H 0.59030 0.93129 0.14421
 H488 H 0.48292 0.82200 0.18070
 C489 C 0.38442 0.49295 0.10485
 C490 C 0.34730 0.46601 0.10323
 C491 C 0.32005 0.46533 0.13431
 C492 C 0.28530 0.43466 0.13969
 H493 H 0.33713 0.44415 0.07956
 H494 H 0.32896 0.49026 0.15373
 H495 H 0.39435 0.51288 0.13051
 H496 H 0.27702 0.40902 0.12177
 C497 C 0.11242 0.66139 0.10216
 C498 C 0.14566 0.66202 0.11018
 C499 C 0.17305 0.68506 0.14292
 C500 C 0.17434 0.71549 0.16136
 H501 H 0.15233 0.64239 0.09425
 H502 H 0.19370 0.67635 0.15167
 H503 H 0.10385 0.67830 0.12066
 H504 H 0.15513 0.72577 0.15201
 C505 C 0.44671 0.07559 0.65283
 C506 C 0.46439 0.11358 0.64908
 C507 C 0.45802 0.13710 0.67940
 C508 C 0.48311 0.17438 0.68301
 H509 H 0.48480 0.12763 0.62420
 H510 H 0.43318 0.12361 0.69967
 H511 H 0.42875 0.06205 0.67961
 H512 H 0.50905 0.18721 0.66434
 C513 C 0.60304 0.49298 0.60596
 C514 C 0.64137 0.51397 0.60327
 C515 C 0.66605 0.51195 0.63576
 C516 C 0.70303 0.53884 0.63879
 H517 H 0.65469 0.53389 0.57800
 H518 H 0.65348 0.48916 0.65840
 H519 H 0.59041 0.47521 0.63301
 H520 H 0.71491 0.56264 0.61736
 C521 C 0.88055 0.34943 0.58861
 C522 C 0.88712 0.32490 0.61041
 C523 C 0.86113 0.29937 0.64303
 C524 C 0.83565 0.30576 0.66342
 H525 H 0.91228 0.32234 0.60388
 H526 H 0.86520 0.27579 0.65229
 H527 H 0.85357 0.34925 0.59244
 H528 H 0.83253 0.33024 0.65596
   
