data_POSCAR
  _audit_creation_date              2014-09-24
  _audit_creation_method            'ToBaCCo'
  _symmetry_space_group_name_H-M    'P1'
  _symmetry_Int_Tables_number       1
  _symmetry_cell_setting            triclinic
  loop_
  _symmetry_equiv_pos_as_xyz
 x,y,z
_cell_length_a 19.9448
_cell_length_b 19.9448
_cell_length_c 19.9448
_cell_angle_alpha 90.000000
_cell_angle_beta 90.000000
_cell_angle_gamma 89.999900
loop_
  _atom_site_label
  _atom_site_type_symbol
  _atom_site_fract_x
  _atom_site_fract_y
  _atom_site_fract_z
N1 N 0.25000 0.25000 0.25000
 N2 N 0.75000 -0.25000 0.25000
 N3 N 0.75000 0.25000 0.75000
 N4 N 0.25000 -0.25000 0.75000
 N5 N 0.75000 -0.25000 0.75000
 N6 N 0.25000 0.25000 0.75000
 N7 N 0.24710 -0.25279 0.24985
 N8 N 0.75275 0.25292 0.24983
 O9 O 0.30559 0.06782 0.43218
 O10 O 0.30559 -0.06782 0.56782
 O11 O 0.30559 -0.06782 0.43217
 O12 O 0.30559 0.06782 0.56782
 O13 O 0.19441 0.06782 0.56782
 O14 O 0.19441 -0.06782 0.43219
 O15 O 0.19441 -0.06782 0.56782
 O16 O 0.19441 0.06782 0.43218
 Cu17 Cu 0.31663 -0.00000 0.50000
 Cu18 Cu 0.18337 0.00000 0.50000
 C19 C 0.25000 0.09208 0.40792
 C20 C 0.25000 -0.09208 0.59208
 C21 C 0.24996 -0.09198 0.40781
 C22 C 0.25000 0.09208 0.59208
 O23 O 0.69441 0.06782 0.56782
 O24 O 0.69441 -0.06782 0.43218
 O25 O 0.69441 -0.06782 0.56781
 O26 O 0.69440 0.06781 0.43216
 O27 O 0.80558 0.06783 0.43219
 O28 O 0.80559 -0.06782 0.56782
 O29 O 0.80559 -0.06782 0.43218
 O30 O 0.80559 0.06782 0.56782
 Cu31 Cu 0.68337 -0.00000 0.50000
 Cu32 Cu 0.81663 0.00000 0.50000
 C33 C 0.75000 0.09208 0.59208
 C34 C 0.75000 -0.09208 0.40792
 C35 C 0.75000 -0.09208 0.59208
 C36 C 0.74997 0.09194 0.40777
 O37 O 0.43218 0.30559 0.06782
 O38 O 0.56782 0.30559 -0.06782
 O39 O 0.43219 0.30559 -0.06782
 O40 O 0.56782 0.30560 0.06781
 O41 O 0.56782 0.19442 0.06784
 O42 O 0.43218 0.19441 -0.06782
 O43 O 0.56782 0.19441 -0.06782
 O44 O 0.43218 0.19441 0.06782
 Cu45 Cu 0.50000 0.31663 -0.00000
 Cu46 Cu 0.50000 0.18337 0.00000
 C47 C 0.40792 0.25000 0.09208
 C48 C 0.59208 0.25000 -0.09208
 C49 C 0.40792 0.25000 -0.09208
 C50 C 0.59196 0.24988 0.09221
 O51 O 0.56782 0.69441 0.06782
 O52 O 0.43218 0.69441 -0.06782
 O53 O 0.56781 0.69441 -0.06782
 O54 O 0.43218 0.69441 0.06782
 O55 O 0.43218 0.80559 0.06782
 O56 O 0.56782 0.80559 -0.06782
 O57 O 0.43218 0.80559 -0.06782
 O58 O 0.56782 0.80559 0.06782
 Cu59 Cu 0.50000 0.68337 0.00000
 Cu60 Cu 0.50000 0.81663 0.00000
 C61 C 0.59208 0.75000 0.09208
 C62 C 0.40792 0.75000 -0.09208
 C63 C 0.59208 0.75000 -0.09208
 C64 C 0.40793 0.74998 0.09209
 O65 O 0.06782 0.43218 0.30559
 O66 O -0.06782 0.56782 0.30559
 O67 O -0.06786 0.43215 0.30558
 O68 O 0.06785 0.56785 0.30558
 O69 O 0.06785 0.56785 0.19442
 O70 O -0.06785 0.43215 0.19442
 O71 O -0.06782 0.56782 0.19441
 O72 O 0.06782 0.43218 0.19441
 Cu73 Cu -0.00000 0.50000 0.31663
 Cu74 Cu 0.00000 0.50000 0.18337
 C75 C 0.09208 0.40792 0.25000
 C76 C -0.09208 0.59208 0.25000
 C77 C -0.09250 0.40753 0.25004
 C78 C 0.09250 0.59247 0.25010
 O79 O 0.06782 0.56782 0.69441
 O80 O -0.06782 0.43218 0.69441
 O81 O -0.06782 0.56781 0.69441
 O82 O 0.06782 0.43218 0.69441
 O83 O 0.06782 0.43218 0.80559
 O84 O -0.06782 0.56782 0.80559
 O85 O -0.06782 0.43218 0.80559
 O86 O 0.06782 0.56782 0.80559
 Cu87 Cu -0.00000 0.50000 0.68337
 Cu88 Cu 0.00000 0.50000 0.81663
 C89 C 0.09208 0.59208 0.75000
 C90 C -0.09208 0.40792 0.75000
 C91 C -0.09208 0.59208 0.75000
 C92 C 0.09208 0.40792 0.75000
 N93 N 0.30542 0.25000 0.19458
 N94 N 0.35322 0.25000 0.14678
 N95 N 0.69458 0.75000 0.19458
 N96 N 0.64678 0.75000 0.14678
 N97 N 0.69458 0.25000 -0.19458
 N98 N 0.64678 0.25000 -0.14678
 N99 N 0.30542 0.75000 -0.19458
 N100 N 0.35322 0.75000 -0.14678
 N101 N 0.19458 0.30542 0.25000
 N102 N 0.14678 0.35322 0.25000
 N103 N 0.19458 0.69458 0.75000
 N104 N 0.14678 0.64678 0.75000
 N105 N -0.19458 0.69458 0.25000
 N106 N -0.14678 0.64678 0.25000
 N107 N -0.19458 0.30542 0.75000
 N108 N -0.14678 0.35322 0.75000
 N109 N 0.25000 0.19458 0.30542
 N110 N 0.25000 0.14678 0.35322
 N111 N 0.75000 0.19458 0.69458
 N112 N 0.75000 0.14678 0.64678
 N113 N 0.25000 -0.19458 0.69458
 N114 N 0.25000 -0.14678 0.64678
 N115 N 0.75000 -0.19458 0.30542
 N116 N 0.75000 -0.14678 0.35322
 N117 N 0.69457 0.75000 -0.19457
 N118 N 0.64678 0.75000 -0.14678
 N119 N 0.30543 0.25000 -0.19457
 N120 N 0.35322 0.25000 -0.14678
 N121 N 0.30478 0.74980 0.19492
 N122 N 0.35308 0.74987 0.14678
 N123 N 0.69530 0.24987 0.19483
 N124 N 0.64705 0.25052 0.14665
 N125 N -0.19457 0.69457 0.75000
 N126 N -0.14678 0.64678 0.75000
 N127 N -0.19587 0.30367 0.25031
 N128 N -0.14890 0.35129 0.24978
 N129 N 0.19457 0.30543 0.75000
 N130 N 0.14678 0.35322 0.75000
 N131 N 0.19599 0.69619 0.25017
 N132 N 0.14883 0.64878 0.24975
 N133 N 0.75000 -0.19457 0.69457
 N134 N 0.75000 -0.14678 0.64678
 N135 N 0.25001 -0.19539 0.30525
 N136 N 0.24978 -0.14697 0.35327
 N137 N 0.74989 0.19538 0.30523
 N138 N 0.75039 0.14704 0.35335
 N139 N 0.25000 0.19457 0.69457
 N140 N 0.25000 0.14678 0.64678
   
