data_POSCAR
  _audit_creation_date              2014-09-24
  _audit_creation_method            'ToBaCCo'
  _symmetry_space_group_name_H-M    'P1'
  _symmetry_Int_Tables_number       1
  _symmetry_cell_setting            triclinic
  loop_
  _symmetry_equiv_pos_as_xyz
 x,y,z
_cell_length_a 21.5207
_cell_length_b 26.9288
_cell_length_c 18.7270
_cell_angle_alpha 90.304600
_cell_angle_beta 89.571600
_cell_angle_gamma 90.394800
loop_
  _atom_site_label
  _atom_site_type_symbol
  _atom_site_fract_x
  _atom_site_fract_y
  _atom_site_fract_z
O1 O 0.25447 0.30686 0.34324
 O2 O 0.16911 0.20527 0.25392
 O3 O 0.26017 0.21075 0.34345
 O4 O 0.16274 0.30214 0.25219
 O5 O 0.22964 0.30418 0.16230
 O6 O 0.32734 0.21283 0.25383
 O7 O 0.23635 0.20770 0.16431
 O8 O 0.32141 0.30913 0.25337
 Cu9 Cu 0.20473 0.25626 0.30709
 Cu10 Cu 0.28533 0.25894 0.19937
 C11 C 0.30301 0.32478 0.31401
 C12 C 0.18868 0.18885 0.19417
 C13 C 0.31032 0.19603 0.31418
 C14 C 0.17930 0.31848 0.19146
 O15 O 0.82711 0.29418 0.24685
 O16 O 0.73766 0.19667 0.33800
 O17 O 0.82659 0.19856 0.24052
 O18 O 0.73367 0.29374 0.33460
 O19 O 0.66694 0.29295 0.24558
 O20 O 0.75655 0.19539 0.15489
 O21 O 0.66878 0.19608 0.25128
 O22 O 0.76084 0.29243 0.15732
 Cu23 Cu 0.78777 0.24554 0.29906
 Cu24 Cu 0.70646 0.24401 0.19354
 C25 C 0.80963 0.30983 0.18663
 C26 C 0.68785 0.17992 0.31096
 C27 C 0.80741 0.18117 0.18128
 C28 C 0.68488 0.31014 0.30515
 O29 O 0.76413 0.80446 0.64063
 O30 O 0.83913 0.70643 0.74335
 O31 O 0.75295 0.70789 0.64756
 O32 O 0.84273 0.80345 0.74623
 O33 O 0.76754 0.80749 0.82679
 O34 O 0.67901 0.71234 0.72966
 O35 O 0.76516 0.71066 0.82546
 O36 O 0.68881 0.80906 0.72105
 Cu37 Cu 0.80714 0.75532 0.68634
 Cu38 Cu 0.71767 0.76051 0.78376
 C39 C 0.71380 0.82340 0.66276
 C40 C 0.81492 0.69138 0.80135
 C41 C 0.70095 0.69331 0.67282
 C42 C 0.82023 0.82163 0.80377
 O43 O 0.33183 0.79706 0.75049
 O44 O 0.24453 0.69776 0.84089
 O45 O 0.33214 0.70181 0.74192
 O46 O 0.24161 0.79493 0.84260
 O47 O 0.17446 0.79808 0.75416
 O48 O 0.25850 0.69871 0.66042
 O49 O 0.17094 0.70255 0.75964
 O50 O 0.26424 0.79590 0.66224
 Cu51 Cu 0.29436 0.74737 0.80285
 Cu52 Cu 0.21014 0.74839 0.70026
 C53 C 0.31340 0.81308 0.69082
 C54 C 0.19184 0.68461 0.81725
 C55 C 0.31075 0.68481 0.68359
 C56 C 0.19320 0.81321 0.81455
 C57 C 1.03987 0.03280 0.04722
 C58 C 0.97410 0.02946 0.05225
 C59 C 0.94351 -0.00951 0.01666
 C60 C 0.97615 -0.04423 -0.02492
 C61 C 1.04203 -0.04244 -0.02712
 C62 C 1.07250 -0.00248 0.00675
 H63 H 1.12245 0.00153 0.00241
 H64 H 0.89320 -0.01195 0.01940
 C65 C 0.54036 0.54105 0.53156
 C66 C 0.47513 0.53725 0.54322
 C67 C 0.44233 0.49797 0.51120
 C68 C 0.47203 0.46319 0.46715
 C69 C 0.53737 0.46533 0.45823
 C70 C 0.57015 0.50551 0.48855
 H71 H 0.61979 0.50902 0.47963
 H72 H 0.39242 0.49517 0.51906
 C73 C -0.04199 0.46562 0.03593
 C74 C 0.02367 0.46361 0.03182
 C75 C 0.05560 0.49861 -0.01050
 C76 C 0.02423 0.53591 -0.04750
 C77 C -0.04163 0.53799 -0.04267
 C78 C -0.07347 0.50322 -0.00046
 H79 H -0.12366 0.50538 0.00389
 H80 H 0.10593 0.49817 -0.01279
 C81 C 0.45289 0.97630 0.55045
 C82 C 0.51815 0.97814 0.55812
 C83 C 0.55255 1.01340 0.51889
 C84 C 0.52328 1.04693 0.47315
 C85 C 0.45758 1.04693 0.46864
 C86 C 0.42357 1.01038 0.50573
 H87 H 0.37348 1.00874 0.50080
 H88 H 0.60260 1.01532 0.52451
 C89 C 1.15644 0.14762 0.15794
 C90 C 1.10773 0.12366 0.18714
 C91 C 1.07303 0.08288 0.15160
 C92 C 1.07740 0.07222 0.08173
 H93 H 1.09215 0.13393 0.24029
 H94 H 1.04014 0.06229 0.18422
 H95 H 1.17467 0.13682 0.10631
 H96 H 1.11034 0.09139 0.04776
 C97 C 0.66626 0.65357 0.63580
 C98 C 0.61667 0.63135 0.66609
 C99 C 0.57969 0.59104 0.63280
 C100 C 0.58012 0.58047 0.56285
 H101 H 0.60254 0.64222 0.71954
 H102 H 0.54830 0.57072 0.66764
 H103 H 0.68358 0.64162 0.58423
 H104 H 0.61170 0.59947 0.52693
 C105 C -0.15246 0.34846 0.15169
 C106 C -0.16743 0.36856 0.08887
 C107 C -0.12984 0.40691 0.05144
 C108 C -0.07842 0.42871 0.07764
 H109 H -0.20914 0.35594 0.06209
 H110 H -0.14538 0.41695 -0.00141
 H111 H -0.11090 0.35979 0.17945
 H112 H -0.06150 0.41911 0.12968
 C113 C 0.35052 0.85189 0.65547
 C114 C 0.33331 0.87338 0.59441
 C115 C 0.37049 0.91216 0.55778
 C116 C 0.41469 0.93947 0.58980
 H117 H 0.29122 0.86100 0.56819
 H118 H 0.36060 0.91833 0.50191
 H119 H 0.39370 0.86213 0.68089
 H120 H 0.42400 0.93481 0.64588
 C121 C -0.15547 0.65112 -0.15855
 C122 C -0.10770 0.62523 -0.18599
 C123 C -0.07417 0.58534 -0.14859
 C124 C -0.07972 0.57577 -0.07872
 H125 H -0.09148 0.63338 -0.23959
 H126 H -0.04069 0.56457 -0.17999
 H127 H -0.17454 0.64259 -0.10648
 H128 H -0.11383 0.59472 -0.04616
 C129 C 0.34745 1.16097 0.34773
 C130 C 0.33269 1.14173 0.41179
 C131 C 0.36899 1.10364 0.44960
 C132 C 0.42399 1.08555 0.42774
 H133 H 0.29065 1.15368 0.43887
 H134 H 0.34893 1.09080 0.49942
 H135 H 0.38891 1.14933 0.31958
 H136 H 0.44596 1.10050 0.38076
 C137 C 1.15930 -0.14983 -0.15075
 C138 C 1.17422 -0.13161 -0.08621
 C139 C 1.13840 -0.09220 -0.04937
 C140 C 1.07857 -0.08233 -0.06342
 H141 H 1.21566 -0.14445 -0.05968
 H142 H 1.16224 -0.07273 -0.00695
 H143 H 1.11964 -0.13536 -0.17886
 H144 H 1.05461 -0.10657 -0.09999
 C145 C 0.64815 0.34981 0.33913
 C146 C 0.66389 0.37059 0.40171
 C147 C 0.62921 0.41137 0.43701
 C148 C 0.57142 0.42525 0.41955
 H149 H 0.70556 0.35831 0.42827
 H150 H 0.65211 0.42897 0.48183
 H151 H 0.60813 0.36256 0.31014
 H152 H 0.54689 0.40458 0.37916
 C153 C 0.85282 -0.14273 -0.15674
 C154 C 0.90782 -0.12381 -0.17751
 C155 C 0.94283 -0.08641 -0.13556
 C156 C 0.93918 -0.08191 -0.06422
 H157 H 0.92759 -0.13441 -0.22870
 H158 H 0.97568 -0.06336 -0.16468
 H159 H 0.83144 -0.12968 -0.10766
 H160 H 0.90658 -0.10418 -0.03372
 C161 C 0.33864 0.36334 0.35224
 C162 C 0.38958 0.38459 0.32392
 C163 C 0.42835 0.42169 0.36159
 C164 C 0.43273 0.42487 0.43281
 H165 H 0.40325 0.37558 0.26962
 H166 H 0.45695 0.44590 0.32878
 H167 H 0.32244 0.37398 0.40495
 H168 H 0.40462 0.40144 0.46711
 C169 C 0.15442 0.64881 -0.14178
 C170 C 0.09261 0.65302 -0.13684
 C171 C 0.05399 0.61981 -0.09236
 C172 C 0.06330 0.57075 -0.08994
 H173 H 0.06978 0.68407 -0.16193
 H174 H 0.01527 0.63628 -0.06400
 H175 H 0.17838 0.62129 -0.11042
 H176 H 0.10297 0.55522 -0.11797
 C177 C 0.65424 1.14387 0.34851
 C178 C 0.60197 1.12284 0.32354
 C179 C 0.56477 1.08587 0.36377
 C180 C 0.56294 1.08346 0.43525
 H181 H 0.58596 1.13170 0.27041
 H182 H 0.53497 1.06141 0.33296
 H183 H 0.67221 1.13261 0.39974
 H184 H 0.59235 1.10722 0.46745
 C185 C 0.13895 0.35431 0.15522
 C186 C 0.15069 0.37017 0.08858
 C187 C 0.11227 0.40609 0.04884
 C188 C 0.05927 0.42638 0.07317
 H189 H 0.19134 0.35640 0.06059
 H190 H 0.12894 0.41554 -0.00407
 H191 H 0.09881 0.36706 0.18477
 H192 H 0.04100 0.41572 0.12455
 C193 C 0.68502 0.86214 0.61900
 C194 C 0.63232 0.88490 0.63751
 C195 C 0.60452 0.92208 0.59005
 C196 C 0.55024 0.94321 0.60660
 H197 H 0.60900 0.87547 0.68719
 H198 H 0.62744 0.93069 0.53984
 H199 H 0.70790 0.87187 0.56917
 H200 H 0.52736 0.93255 0.65589
 C201 C 0.84445 0.14449 0.14175
 C202 C 0.90640 0.14788 0.13856
 C203 C 0.94445 0.11405 0.09463
 C204 C 0.93465 0.06486 0.09315
 H205 H 0.92983 0.17886 0.16419
 H206 H 0.98324 0.13030 0.06592
 H207 H 0.82025 0.11702 0.10966
 H208 H 0.89465 0.04966 0.12120
 C209 C 0.34722 0.64928 0.64124
 C210 C 0.40889 0.65429 0.63445
 C211 C 0.44639 0.62135 0.58850
 C212 C 0.43809 0.57205 0.58787
 H213 H 0.43221 0.68578 0.65892
 H214 H 0.48315 0.63831 0.55720
 H215 H 0.32263 0.62134 0.61039
 H216 H 0.40024 0.55625 0.61903
   
