data_POSCAR
  _audit_creation_date              2014-09-24
  _audit_creation_method            'ToBaCCo'
  _symmetry_space_group_name_H-M    'P1'
  _symmetry_Int_Tables_number       1
  _symmetry_cell_setting            triclinic
  loop_
  _symmetry_equiv_pos_as_xyz
 x,y,z
_cell_length_a 55.5556
_cell_length_b 54.9987
_cell_length_c 54.4827
_cell_angle_alpha 94.026300
_cell_angle_beta 94.417800
_cell_angle_gamma 93.582500
loop_
  _atom_site_label
  _atom_site_type_symbol
  _atom_site_fract_x
  _atom_site_fract_y
  _atom_site_fract_z
C1 C 0.21136 0.50405 1.04340
 H2 H 0.21136 0.51523 1.02782
 C3 C 0.19487 0.50766 1.06106
 H4 H 0.18337 0.52263 1.05899
 C5 C 0.22770 0.47200 1.06457
 H6 H 0.24023 0.45775 1.06547
 C7 C 0.21120 0.47468 1.08257
 H8 H 0.21139 0.46183 1.09668
 N9 N 0.22737 0.48654 1.04544
 C10 C 0.28424 0.50842 0.99931
 H11 H 0.28491 0.49156 0.98797
 C12 C 0.30113 0.52790 0.99727
 H13 H 0.31478 0.52605 0.98422
 C14 C 0.26615 0.53109 1.03075
 H15 H 0.25301 0.53206 1.04431
 C16 C 0.28240 0.55119 1.02897
 H17 H 0.28154 0.56754 1.04109
 Zn18 Zn 0.24684 0.48189 1.01885
 N19 N 0.26729 0.51026 1.01595
 C20 C 0.22465 0.49097 0.97202
 N21 N 0.22523 0.47536 0.99031
 C22 C 0.20849 0.45622 0.99009
 C23 C 0.19008 0.45228 0.97105
 C24 C 0.20635 0.48789 0.95276
 C25 C 0.28565 0.45997 1.04142
 C26 C 0.30331 0.44313 1.04390
 C27 C 0.28181 0.41758 1.01033
 C28 C 0.26480 0.43514 1.00817
 N29 N 0.26711 0.45591 1.02352
 H30 H 0.23773 0.50645 0.97289
 H31 H 0.20909 0.44438 1.00513
 H32 H 0.17696 0.43692 0.97132
 H33 H 0.20563 0.50117 0.93903
 H34 H 0.28721 0.47679 1.05316
 H35 H 0.31840 0.44695 1.05773
 H36 H 0.28018 0.40147 0.99754
 H37 H 0.25029 0.43247 0.99368
 C38 C 0.30033 0.54956 1.01229
 C39 C 0.19398 0.49255 1.08097
 C40 C 0.30163 0.42179 1.02801
 C41 C 0.18848 0.46854 0.95230
 C42 C 0.78430 0.53371 -0.04450
 H43 H 0.78214 0.54866 -0.03102
 C44 C 0.80272 0.53549 -0.06040
 H45 H 0.81435 0.55214 -0.05938
 C46 C 0.77203 0.49364 -0.06159
 H47 H 0.76056 0.47706 -0.06137
 C48 C 0.79036 0.49458 -0.07778
 H49 H 0.79270 0.47864 -0.08996
 N50 N 0.76951 0.51300 -0.04525
 C51 C 0.71312 0.53873 -0.00086
 H52 H 0.71451 0.52592 0.01330
 C53 C 0.69630 0.55643 0.00029
 H54 H 0.68523 0.55738 0.01579
 C55 C 0.72618 0.55285 -0.03805
 H56 H 0.73752 0.55097 -0.05323
 C57 C 0.70927 0.57069 -0.03783
 H58 H 0.70779 0.58238 -0.05297
 Zn59 Zn 0.74814 0.51112 -0.02002
 N60 N 0.72771 0.53732 -0.01971
 C61 C 0.76938 0.53192 0.02661
 N62 N 0.76786 0.51213 0.00997
 C63 C 0.78187 0.49305 0.01334
 C64 C 0.79785 0.49312 0.03439
 C65 C 0.78537 0.53289 0.04779
 C66 C 0.71345 0.47795 -0.04594
 C67 C 0.69574 0.45859 -0.04908
 C68 C 0.70719 0.44820 -0.00764
 C69 C 0.72482 0.46766 -0.00536
 N70 N 0.72750 0.48217 -0.02432
 H71 H 0.75869 0.54726 0.02321
 H72 H 0.78073 0.47784 -0.00050
 H73 H 0.80908 0.47789 0.03663
 H74 H 0.78652 0.54881 0.06081
 H75 H 0.71563 0.49006 -0.06054
 H76 H 0.68471 0.45564 -0.06643
 H77 H 0.70469 0.43757 0.00806
 H78 H 0.73553 0.47182 0.01200
 C79 C 0.69386 0.57250 -0.01857
 C80 C 0.80629 0.51557 -0.07701
 C81 C 0.69208 0.44367 -0.02960
 C82 C 0.79986 0.51330 0.05184
 C83 C 0.00036 0.28049 0.44528
 H84 H -0.01263 0.27619 0.45842
 C85 C -0.00404 0.29845 0.42910
 H86 H -0.02124 0.30654 0.42948
 C87 C 0.03785 0.27375 0.42907
 H88 H 0.05451 0.26457 0.42977
 C89 C 0.03439 0.29198 0.41269
 H90 H 0.04892 0.29640 0.40135
 N91 N 0.02102 0.26864 0.44512
 C92 C -0.00122 0.21136 0.49123
 H93 H 0.01321 0.21409 0.50586
 C94 C -0.02052 0.19431 0.49308
 H95 H -0.02091 0.18434 0.50949
 C96 C -0.01828 0.22171 0.45247
 H97 H -0.01710 0.23214 0.43647
 C98 C -0.03781 0.20460 0.45340
 H99 H -0.05145 0.20205 0.43798
 Zn100 Zn 0.02600 0.24808 0.47105
 N101 N -0.00068 0.22501 0.47142
 C102 C 0.01118 0.26989 0.51585
 N103 N 0.02912 0.26919 0.50023
 C104 C 0.04863 0.28562 0.50339
 C105 C 0.05067 0.30368 0.52288
 C106 C 0.01239 0.28778 0.53549
 C107 C 0.05519 0.21617 0.44683
 C108 C 0.07370 0.20029 0.44478
 C109 C 0.08917 0.21397 0.48645
 C110 C 0.07043 0.22969 0.48765
 N111 N 0.05380 0.23034 0.46807
 H112 H -0.00466 0.25733 0.51247
 H113 H 0.06237 0.28500 0.49037
 H114 H 0.06637 0.31657 0.52502
 H115 H -0.00255 0.28859 0.54708
 H116 H 0.04148 0.21674 0.43170
 H117 H 0.07435 0.18902 0.42776
 H118 H 0.10155 0.21297 0.50263
 H119 H 0.06856 0.24049 0.50465
 C120 C -0.03924 0.19072 0.47401
 C121 C 0.01340 0.30532 0.41286
 C122 C 0.09074 0.19865 0.46495
 C123 C 0.03218 0.30522 0.53902
 C124 C 0.96524 0.72887 0.56644
 H125 H 0.94868 0.73787 0.56320
 C126 C 0.96657 0.71153 0.58395
 H127 H 0.95118 0.70772 0.59445
 C128 C 1.00486 0.72164 0.55571
 H129 H 1.01938 0.72513 0.54402
 C130 C 1.00709 0.70440 0.57324
 H131 H 1.02344 0.69471 0.57503
 N132 N 0.98421 0.73350 0.55269
 C133 C 0.93657 0.77178 0.50776
 H134 H 0.93887 0.76096 0.49088
 C135 C 0.91777 0.78750 0.50847
 H136 H 0.90577 0.78852 0.49202
 C137 C 0.95084 0.78534 0.54885
 H138 H 0.96421 0.78480 0.56430
 C139 C 0.93218 0.80104 0.55048
 H140 H 0.93107 0.81213 0.56752
 Zn141 Zn 0.98093 0.75379 0.52621
 N142 N 0.95276 0.77119 0.52772
 C143 C 0.96048 0.71635 0.49210
 N144 N 0.97956 0.73317 0.49681
 C145 C 0.99801 0.73406 0.48180
 C146 C 0.99761 0.71767 0.46099
 C147 C 0.95927 0.69972 0.47140
 C148 C 1.02498 0.78149 0.54540
 C149 C 1.04283 0.80057 0.54495
 C150 C 1.02317 0.81139 0.50651
 C151 C 1.00571 0.79235 0.50779
 N152 N 1.00695 0.77775 0.52688
 H153 H 0.94625 0.71580 0.50457
 H154 H 1.01342 0.74700 0.48629
 H155 H 1.01282 0.71827 0.44971
 H156 H 0.94379 0.68664 0.46787
 H157 H 1.02527 0.77007 0.56076
 H158 H 1.05680 0.80362 0.56004
 H159 H 1.02197 0.82240 0.49081
 H160 H 0.99102 0.78912 0.49347
 C161 C 0.91565 0.80275 0.52991
 C162 C 0.98762 0.69891 0.58733
 C163 C 1.04196 0.81593 0.52536
 C164 C 0.97811 0.70010 0.45561
 C165 C 0.46763 -0.00675 0.28341
 H166 H 0.47998 -0.02056 0.27904
 C167 C 0.45112 -0.01061 0.30100
 H168 H 0.45055 -0.02778 0.30956
 C169 C 0.45377 0.03246 0.27756
 H170 H 0.45539 0.04951 0.26891
 C171 C 0.43715 0.02949 0.29533
 H172 H 0.42612 0.04439 0.30008
 N173 N 0.46862 0.01445 0.27203
 C174 C 0.51046 -0.00558 0.21023
 H175 H 0.52442 0.00919 0.21320
 C176 C 0.51117 -0.02322 0.19070
 H177 H 0.52649 -0.02185 0.17969
 C178 C 0.47469 -0.02509 0.22251
 H179 H 0.46016 -0.02538 0.23458
 C180 C 0.47461 -0.04319 0.20311
 H181 H 0.45954 -0.05678 0.20071
 Zn182 Zn 0.49372 0.01891 0.25086
 N183 N 0.49259 -0.00689 0.22579
 C184 C 0.53754 0.00060 0.26930
 N185 N 0.52311 0.01964 0.27103
 C186 C 0.52786 0.03811 0.28903
 C187 C 0.54765 0.03773 0.30643
 C188 C 0.55738 -0.00059 0.28641
 C189 C 0.46992 0.05001 0.22070
 C190 C 0.46764 0.06892 0.20511
 C191 C 0.50899 0.08325 0.21791
 C192 C 0.51039 0.06418 0.23355
 N193 N 0.49108 0.04786 0.23438
 H194 H 0.53311 -0.01426 0.25533
 H195 H 0.51577 0.05275 0.29032
 H196 H 0.55069 0.05217 0.32113
 H197 H 0.56836 -0.01615 0.28506
 H198 H 0.45501 0.03651 0.22137
 H199 H 0.45061 0.07015 0.19434
 H200 H 0.52493 0.09530 0.21661
 H201 H 0.52727 0.06171 0.24402
 C202 C 0.49302 -0.04257 0.18655
 C203 C 0.43583 0.00780 0.30754
 C204 C 0.48754 0.08551 0.20299
 C205 C 0.56239 0.01792 0.30553
 C206 C 0.54434 -0.03960 0.71814
 H207 H 0.53340 -0.05603 0.72079
 C208 C 0.56180 -0.04025 0.70109
 H209 H 0.56446 -0.05739 0.69097
 C210 C 0.55373 0.00276 0.72791
 H211 H 0.55036 0.01953 0.73819
 C212 C 0.57137 0.00296 0.71094
 H213 H 0.58117 0.02005 0.70814
 N214 N 0.54012 -0.01818 0.73058
 C215 C 0.49568 -0.06123 0.77244
 H216 H 0.47856 -0.05916 0.76228
 C217 C 0.49733 -0.07904 0.78949
 H218 H 0.48127 -0.09027 0.79245
 C219 C 0.53702 -0.04825 0.78194
 H220 H 0.55231 -0.03586 0.77916
 C221 C 0.53953 -0.06587 0.79898
 H222 H 0.55698 -0.06717 0.80893
 Zn223 Zn 0.51315 -0.01885 0.74989
 N224 N 0.51523 -0.04586 0.76952
 C225 C 0.46244 -0.01998 0.73805
 N226 N 0.48427 -0.02175 0.72854
 C227 C 0.48595 -0.02435 0.70373
 C228 C 0.46522 -0.02583 0.68748
 C229 C 0.44114 -0.02124 0.72236
 C230 C 0.51371 0.00809 0.79576
 C231 C 0.51191 0.02855 0.81192
 C232 C 0.50861 0.05318 0.77697
 C233 C 0.51021 0.03209 0.76137
 N234 N 0.51286 0.01012 0.77097
 H235 H 0.46160 -0.01741 0.75783
 H236 H 0.50338 -0.02499 0.69636
 H237 H 0.46708 -0.02755 0.66780
 H238 H 0.42390 -0.01995 0.73019
 H239 H 0.51530 -0.00948 0.80314
 H240 H 0.51257 0.02650 0.83158
 H241 H 0.50624 0.07050 0.76910
 H242 H 0.50897 0.03316 0.74156
 C243 C 0.51935 -0.08112 0.80348
 C244 C 0.57512 -0.01863 0.69677
 C245 C 0.50917 0.05142 0.80259
 C246 C 0.44242 -0.02433 0.69669
 C247 C 0.22279 -0.02452 0.50075
 C248 C 0.23769 -0.00481 0.49422
 C249 C 0.22725 0.01627 0.48648
 C250 C 0.20209 0.01782 0.48547
 C251 C 0.18748 -0.00195 0.49226
 C252 C 0.19753 -0.02339 0.49954
 C253 C 0.26417 -0.00654 0.49501
 C254 C 0.27647 -0.00311 0.47380
 C255 C 0.30149 -0.00576 0.47408
 C256 C 0.31410 -0.01133 0.49612
 C257 C 0.30207 -0.01477 0.51746
 C258 C 0.27705 -0.01238 0.51676
 H259 H 0.23091 -0.04101 0.50594
 H260 H 0.23872 0.03137 0.48120
 H261 H 0.26634 0.00076 0.45688
 H262 H 0.26754 -0.01520 0.53308
 H263 H 0.16813 -0.00040 0.49223
 H264 H 0.33353 -0.01258 0.49686
 C265 C 0.78012 -0.01296 0.51657
 C266 C 0.77044 0.00908 0.51065
 C267 C 0.78599 0.02941 0.50695
 C268 C 0.81121 0.02791 0.50965
 C269 C 0.82054 0.00559 0.51516
 C270 C 0.80522 -0.01483 0.51883
 C271 C 0.74405 0.01102 0.50959
 C272 C 0.73176 0.00757 0.53075
 C273 C 0.70648 0.00803 0.52988
 C274 C 0.69358 0.01154 0.50735
 C275 C 0.70564 0.01486 0.48598
 C276 C 0.73100 0.01508 0.48733
 H277 H 0.76810 -0.02853 0.51970
 H278 H 0.77846 0.04655 0.50299
 H279 H 0.74192 0.00423 0.54783
 H280 H 0.74048 0.01727 0.47088
 H281 H 0.83993 0.00400 0.51636
 H282 H 0.67406 0.01202 0.50647
 C283 C 0.51771 0.27610 0.99381
 C284 C 0.49550 0.26451 0.99853
 C285 C 0.47569 0.27845 1.00266
 C286 C 0.47788 0.30403 1.00228
 C287 C 0.50049 0.31538 0.99829
 C288 C 0.52037 0.30164 0.99368
 C289 C 0.49273 0.23771 0.99865
 C290 C 0.48870 0.22688 1.02068
 C291 C 0.48526 0.20138 1.02083
 C292 C 0.48563 0.18693 0.99859
 C293 C 0.48923 0.19752 0.97632
 C294 C 0.49320 0.22301 0.97658
 H295 H 0.53280 0.26519 0.99015
 H296 H 0.45844 0.26917 1.00539
 H297 H 0.48808 0.23834 1.03760
 H298 H 0.49578 0.23151 0.95954
 H299 H 0.50283 0.33512 0.99911
 H300 H 0.48350 0.16722 0.99866
 C301 C 0.51895 0.71884 0.00051
 C302 C 0.49734 0.73050 0.00265
 C303 C 0.47615 0.71694 0.00738
 C304 C 0.47633 0.69166 0.00957
 C305 C 0.49803 0.68027 0.00717
 C306 C 0.51954 0.69369 0.00326
 C307 C 0.49710 0.75705 0.00061
 C308 C 0.50080 0.76686 -0.02199
 C309 C 0.50108 0.79218 -0.02395
 C310 C 0.49780 0.80755 -0.00295
 C311 C 0.49456 0.79806 0.01994
 C312 C 0.49386 0.77263 0.02146
 H313 H 0.53539 0.72953 -0.00246
 H314 H 0.45964 0.72611 0.00942
 H315 H 0.50360 0.75477 -0.03794
 H316 H 0.49166 0.76493 0.03898
 H317 H 0.49815 0.66066 0.00805
 H318 H 0.49743 0.82705 -0.00454
 C319 C 0.99264 0.53123 0.27941
 C320 C 0.99815 0.51171 0.26329
 C321 C 1.00259 0.48905 0.27241
 C322 C 1.00118 0.48570 0.29758
 C323 C 0.99624 0.50559 0.31361
 C324 C 0.99180 0.52837 0.30473
 C325 C 0.99824 0.51483 0.23670
 C326 C 1.01992 0.51432 0.22512
 C327 C 1.02017 0.51820 0.19992
 C328 C 0.99831 0.52204 0.18642
 C329 C 0.97651 0.52229 0.19777
 C330 C 0.97661 0.51878 0.22301
 H331 H 0.98881 0.54854 0.27213
 H332 H 1.00614 0.47387 0.25973
 H333 H 1.03660 0.51160 0.23593
 H334 H 0.95990 0.51916 0.23203
 H335 H 0.99612 0.50335 0.33320
 H336 H 0.99808 0.52416 0.16678
 C337 C -0.00650 0.51269 0.72120
 C338 C -0.00132 0.49132 0.73258
 C339 C 0.00392 0.47046 0.71817
 C340 C 0.00354 0.47065 0.69236
 C341 C -0.00188 0.49216 0.68121
 C342 C -0.00664 0.51329 0.69551
 C343 C -0.00145 0.49076 0.75958
 C344 C -0.02256 0.49532 0.77115
 C345 C -0.02299 0.49457 0.79682
 C346 C -0.00173 0.48983 0.81087
 C347 C 0.01967 0.48543 0.79955
 C348 C 0.01950 0.48561 0.77376
 H349 H -0.01036 0.52886 0.73238
 H350 H 0.00824 0.45411 0.72711
 H351 H -0.03867 0.49934 0.76007
 H352 H 0.03567 0.48188 0.76464
 H353 H -0.00229 0.49256 0.66133
 H354 H -0.00185 0.48955 0.83071
 C355 C 0.13214 0.18445 0.47632
 C356 C 0.14818 0.16585 0.47762
 C357 C 0.14121 0.14232 0.46700
 C358 C 0.11816 0.13773 0.45438
 C359 C 0.10212 0.15624 0.45313
 C360 C 0.10876 0.17975 0.46438
 N361 N 0.15708 0.12305 0.47052
 N362 N 0.15129 0.10135 0.46138
 C363 C 0.16585 0.08127 0.46573
 C364 C 0.15730 0.05802 0.45552
 C365 C 0.16955 0.03752 0.46130
 C366 C 0.19069 0.03994 0.47744
 C367 C 0.19987 0.06343 0.48689
 C368 C 0.18748 0.08398 0.48116
 H369 H 0.13793 0.20243 0.48492
 H370 H 0.16589 0.16965 0.48739
 H371 H 0.11225 0.11967 0.44610
 H372 H 0.08415 0.15182 0.44416
 H373 H 0.14068 0.05572 0.44358
 H374 H 0.16227 0.01968 0.45347
 H375 H 0.21605 0.06577 0.49947
 H376 H 0.19441 0.10181 0.48929
 C377 C 0.67855 0.61369 -0.02702
 C378 C 0.66049 0.63037 -0.02622
 C379 C 0.63853 0.62411 -0.01649
 C380 C 0.63456 0.60068 -0.00821
 C381 C 0.65235 0.58396 -0.00932
 C382 C 0.67475 0.59032 -0.01837
 N383 N 0.62042 0.64151 -0.01508
 N384 N 0.60305 0.63821 -0.00148
 C385 C 0.58366 0.65398 0.00034
 C386 C 0.56738 0.64977 0.01810
 C387 C 0.54709 0.66328 0.01949
 C388 C 0.54244 0.68115 0.00282
 C389 C 0.55926 0.68597 -0.01457
 C390 C 0.57979 0.67245 -0.01582
 H391 H 0.69562 0.61927 -0.03396
 H392 H 0.66378 0.64832 -0.03275
 H393 H 0.61758 0.59519 -0.00103
 H394 H 0.64841 0.56594 -0.00323
 H395 H 0.57026 0.63565 0.03070
 H396 H 0.53482 0.65951 0.03348
 H397 H 0.55611 0.69955 -0.02770
 H398 H 0.59217 0.67591 -0.02977
 C399 C 0.87456 -0.18271 0.51751
 C400 C 0.85844 -0.16414 0.51661
 C401 C 0.86501 -0.14101 0.52847
 C402 C 0.88783 -0.13674 0.54162
 C403 C 0.90397 -0.15515 0.54238
 C404 C 0.89764 -0.17833 0.53022
 N405 N 0.84901 -0.12171 0.52587
 N406 N 0.85418 -0.10078 0.53719
 C407 C 0.83980 -0.08036 0.53412
 C408 C 0.84764 -0.05815 0.54717
 C409 C 0.83582 -0.03706 0.54283
 C410 C 0.81585 -0.03783 0.52526
 C411 C 0.80725 -0.06038 0.51292
 C412 C 0.81922 -0.08154 0.51724
 H413 H 0.86901 -0.20042 0.50816
 H414 H 0.84093 -0.16767 0.50638
 H415 H 0.89350 -0.11897 0.55077
 H416 H 0.92173 -0.15088 0.55186
 H417 H 0.86345 -0.05706 0.56024
 H418 H 0.84259 -0.01999 0.55286
 H419 H 0.79196 -0.06141 0.49922
 H420 H 0.81287 -0.09856 0.50690
 C421 C 0.31662 0.37971 1.02876
 C422 C 0.33546 0.36398 1.02774
 C423 C 0.35921 0.37331 1.02571
 C424 C 0.36409 0.39870 1.02568
 C425 C 0.34541 0.41443 1.02723
 C426 C 0.32147 0.40506 1.02843
 N427 N 0.37799 0.35684 1.02304
 N428 N 0.39756 0.36356 1.01399
 C429 C 0.41702 0.34800 1.01118
 C430 C 0.43484 0.35463 0.99571
 C431 C 0.45426 0.34016 0.99254
 C432 C 0.45666 0.31896 1.00536
 C433 C 0.43865 0.31236 1.02098
 C434 C 0.41888 0.32667 1.02373
 H435 H 0.29829 0.37212 1.02973
 H436 H 0.33147 0.34447 1.02784
 H437 H 0.38233 0.40635 1.02431
 H438 H 0.34954 0.43389 1.02674
 H439 H 0.43350 0.37098 0.98584
 H440 H 0.46729 0.34554 0.97982
 H441 H 0.44000 0.29640 1.03142
 H442 H 0.40536 0.32133 1.03596
 C443 C 0.91647 0.17692 0.46628
 C444 C 0.89699 0.16004 0.46858
 C445 C 0.90059 0.13877 0.48064
 C446 C 0.92408 0.13420 0.48981
 C447 C 0.94358 0.15082 0.48721
 C448 C 0.94002 0.17257 0.47571
 N449 N 0.88034 0.12202 0.48349
 N450 N 0.88216 0.10554 0.49865
 C451 C 0.86305 0.08770 0.50190
 C452 C 0.86639 0.07230 0.52100
 C453 C 0.84911 0.05350 0.52396
 C454 C 0.82819 0.04948 0.50757
 C455 C 0.82442 0.06548 0.48880
 C456 C 0.84176 0.08452 0.48597
 H457 H 0.91298 0.19358 0.45757
 H458 H 0.87898 0.16377 0.46139
 H459 H 0.92743 0.11769 0.49886
 H460 H 0.96148 0.14649 0.49411
 H461 H 0.88266 0.07469 0.53345
 H462 H 0.85230 0.04187 0.53895
 H463 H 0.80852 0.06277 0.47586
 H464 H 0.83887 0.09624 0.47102
 C465 C 0.31241 0.59387 0.00908
 C466 C 0.33026 0.61295 0.00870
 C467 C 0.35480 0.60837 0.01146
 C468 C 0.36132 0.58432 0.01402
 C469 C 0.34355 0.56522 0.01387
 C470 C 0.31895 0.56984 0.01156
 N471 N 0.37287 0.62810 0.01129
 N472 N 0.39451 0.62594 0.01991
 C473 C 0.41370 0.64437 0.01906
 C474 C 0.43581 0.64152 0.03219
 C475 C 0.45579 0.65762 0.03000
 C476 C 0.45414 0.67673 0.01423
 C477 C 0.43160 0.68021 0.00179
 C478 C 0.41147 0.66414 0.00422
 H479 H 0.29352 0.59779 0.00719
 H480 H 0.32499 0.63136 0.00659
 H481 H 0.38017 0.58027 0.01594
 H482 H 0.34899 0.54686 0.01598
 H483 H 0.43769 0.62642 0.04376
 H484 H 0.47273 0.65477 0.04028
 H485 H 0.42980 0.69466 -0.01060
 H486 H 0.39451 0.66660 -0.00618
 C487 C 0.05301 -0.14124 0.51527
 C488 C 0.07010 -0.12215 0.51259
 C489 C 0.09458 -0.12433 0.51936
 C490 C 0.10189 -0.14582 0.52936
 C491 C 0.08477 -0.16515 0.53185
 C492 C 0.06015 -0.16319 0.52446
 N493 N 0.11151 -0.10483 0.51475
 N494 N 0.13377 -0.10350 0.52256
 C495 C 0.14986 -0.08384 0.51642
 C496 C 0.17255 -0.07918 0.52955
 C497 C 0.18818 -0.05962 0.52414
 C498 C 0.18144 -0.04461 0.50521
 C499 C 0.15890 -0.04988 0.49166
 C500 C 0.14323 -0.06911 0.49731
 H501 H 0.03417 -0.13883 0.50997
 H502 H 0.06427 -0.10562 0.50497
 H503 H 0.12079 -0.14791 0.53461
 H504 H 0.09089 -0.18185 0.53882
 H505 H 0.17793 -0.09044 0.54427
 H506 H 0.20530 -0.05600 0.53508
 H507 H 0.15335 -0.03922 0.47650
 H508 H 0.12598 -0.07257 0.48658
 C509 C 0.64909 0.42929 0.95655
 C510 C 0.62920 0.41244 0.95631
 C511 C 0.63117 0.39083 0.96814
 C512 C 0.65361 0.38583 0.97973
 C513 C 0.67363 0.40264 0.97988
 C514 C 0.67152 0.42475 0.96857
 N515 N 0.60982 0.37506 0.96907
 N516 N 0.60946 0.35577 0.98069
 C517 C 0.58740 0.34111 0.98210
 C518 C 0.58746 0.32096 0.99645
 C519 C 0.56580 0.30758 0.99973
 C520 C 0.54370 0.31428 0.98870
 C521 C 0.54385 0.33400 0.97361
 C522 C 0.56544 0.34730 0.97036
 H523 H 0.64662 0.44627 0.94805
 H524 H 0.61195 0.41655 0.94744
 H525 H 0.65558 0.36918 0.98894
 H526 H 0.69070 0.39842 0.98901
 H527 H 0.60425 0.31601 1.00563
 H528 H 0.56622 0.29257 1.01155
 H529 H 0.52718 0.33930 0.96450
 H530 H 0.56487 0.36269 0.95904
 C531 C 0.49886 0.12695 1.18828
 C532 C 0.49877 0.14332 1.16970
 C533 C 0.48620 0.13690 1.14666
 C534 C 0.47347 0.11391 1.14247
 C535 C 0.47370 0.09750 1.16087
 C536 C 0.48645 0.10372 1.18401
 N537 N 0.48740 0.15336 1.12742
 N538 N 0.47502 0.14868 1.10679
 C539 C 0.47650 0.16374 1.08649
 C540 C 0.46175 0.15692 1.06484
 C541 C 0.46406 0.16968 1.04380
 C542 C 0.48130 0.18953 1.04400
 C543 C 0.49552 0.19696 1.06606
 C544 C 0.49319 0.18412 1.08717
 H545 H 0.50866 0.13245 1.20594
 H546 H 0.50868 0.16097 1.17319
 H547 H 0.46380 0.10834 1.12475
 H548 H 0.46443 0.07963 1.15664
 H549 H 0.44879 0.14129 1.06412
 H550 H 0.45256 0.16378 1.02722
 H551 H 0.50906 0.21209 1.06670
 H552 H 0.50482 0.18968 1.10373
 C553 C 0.00934 0.67710 0.62041
 C554 C 0.01074 0.65750 0.63537
 C555 C -0.00821 0.63932 0.63409
 C556 C -0.02902 0.64135 0.61819
 C557 C -0.03059 0.66111 0.60350
 C558 C -0.01130 0.67900 0.60424
 N559 N -0.00558 0.61865 0.64842
 N560 N -0.02013 0.59969 0.64483
 C561 C -0.01744 0.57871 0.65868
 C562 C -0.03100 0.55696 0.65053
 C563 C -0.02777 0.53572 0.66269
 C564 C -0.01115 0.53607 0.68351
 C565 C 0.00191 0.55810 0.69217
 C566 C -0.00107 0.57925 0.67975
 H567 H 0.02438 0.69074 0.62141
 H568 H 0.02686 0.65615 0.64757
 H569 H -0.04394 0.62757 0.61692
 H570 H -0.04659 0.66202 0.59102
 H571 H -0.04371 0.55635 0.63436
 H572 H -0.03816 0.51898 0.65580
 H573 H 0.01492 0.55875 0.70810
 H574 H 0.00955 0.59590 0.68644
 C575 C 0.53454 0.90988 -0.15382
 C576 C 0.53504 0.89508 -0.13405
 C577 C 0.52188 0.87244 -0.13604
 C578 C 0.50848 0.86441 -0.15838
 C579 C 0.50801 0.87920 -0.17830
 C580 C 0.52089 0.90223 -0.17616
 N581 N 0.52169 0.85871 -0.11468
 N582 N 0.50958 0.83834 -0.11425
 C583 C 0.50916 0.82586 -0.09203
 C584 C 0.49469 0.80409 -0.09190
 C585 C 0.49255 0.79263 -0.06994
 C586 C 0.50484 0.80290 -0.04773
 C587 C 0.51997 0.82429 -0.04811
 C588 C 0.52212 0.83567 -0.07001
 H589 H 0.54428 0.92767 -0.15130
 H590 H 0.54529 0.90152 -0.11686
 H591 H 0.49816 0.84692 -0.16033
 H592 H 0.49753 0.87267 -0.19532
 H593 H 0.48459 0.79634 -0.10872
 H594 H 0.48066 0.77623 -0.07015
 H595 H 0.52998 0.83239 -0.03137
 H596 H 0.53356 0.85239 -0.06958
 C597 C 0.99468 0.34386 0.40488
 C598 C 0.99188 0.36398 0.39105
 C599 C 1.00462 0.36681 0.37030
 C600 C 1.02017 0.34898 0.36313
 C601 C 1.02293 0.32855 0.37684
 C602 C 1.01026 0.32553 0.39816
 N603 N 1.00153 0.38830 0.35741
 N604 N 1.01353 0.39403 0.33945
 C605 C 1.00954 0.41626 0.32793
 C606 C 1.02466 0.42385 0.31009
 C607 C 1.02184 0.44626 0.29979
 C608 C 1.00380 0.46136 0.30727
 C609 C 0.98824 0.45329 0.32460
 C610 C 0.99109 0.43105 0.33486
 H611 H 0.98531 0.34368 0.42152
 H612 H 0.98004 0.37782 0.39689
 H613 H 1.03008 0.35077 0.34693
 H614 H 1.03453 0.31496 0.37010
 H615 H 1.03894 0.41264 0.30456
 H616 H 1.03412 0.45205 0.28651
 H617 H 0.97381 0.46423 0.33030
 H618 H 0.97896 0.42557 0.34840
 C619 C 0.50573 0.94449 0.14540
 C620 C 0.50657 0.92681 0.12590
 C621 C 0.49497 0.90367 0.12648
 C622 C 0.48221 0.89830 0.14688
 C623 C 0.48136 0.91595 0.16658
 C624 C 0.49331 0.93946 0.16640
 N625 N 0.49677 0.88611 0.10615
 N626 N 0.48589 0.86491 0.10419
 C627 C 0.48857 0.84803 0.08343
 C628 C 0.47447 0.82585 0.08038
 C629 C 0.47643 0.80941 0.05990
 C630 C 0.49268 0.81493 0.04216
 C631 C 0.50714 0.83700 0.04563
 C632 C 0.50506 0.85340 0.06594
 H633 H 0.51424 0.96234 0.14327
 H634 H 0.51623 0.93124 0.11010
 H635 H 0.47321 0.88039 0.14777
 H636 H 0.47213 0.91051 0.18227
 H637 H 0.46171 0.82145 0.09373
 H638 H 0.46493 0.79265 0.05769
 H639 H 0.52023 0.84158 0.03266
 H640 H 0.51639 0.87028 0.06796
 C641 C 0.04135 0.34942 0.55346
 C642 C 0.04053 0.36910 0.57094
 C643 C 0.03093 0.36567 0.59351
 C644 C 0.02265 0.34208 0.59876
 C645 C 0.02360 0.32230 0.58133
 C646 C 0.03271 0.32579 0.55834
 N647 N 0.02899 0.38658 0.61024
 N648 N 0.01869 0.38533 0.63023
 C649 C 0.01626 0.40664 0.64631
 C650 C 0.00304 0.40450 0.66698
 C651 C -0.00082 0.42521 0.68220
 C652 C 0.00860 0.44846 0.67698
 C653 C 0.02238 0.45043 0.65653
 C654 C 0.02614 0.42974 0.64130
 H655 H 0.04807 0.35289 0.53582
 H656 H 0.04686 0.38722 0.56666
 H657 H 0.01525 0.33897 0.61617
 H658 H 0.01712 0.30430 0.58582
 H659 H -0.00472 0.38681 0.67100
 H660 H -0.01171 0.42311 0.69766
 H661 H 0.03025 0.46799 0.65228
 H662 H 0.03656 0.43187 0.62551
 C663 C 0.51969 0.09525 0.81813
 C664 C 0.51807 0.11484 0.83570
 C665 C 0.50278 0.11256 0.85482
 C666 C 0.48872 0.09055 0.85589
 C667 C 0.49050 0.07098 0.83856
 C668 C 0.50623 0.07298 0.81972
 N669 N 0.50256 0.13217 0.87361
 N670 N 0.48799 0.13098 0.89047
 C671 C 0.48771 0.14921 0.91052
 C672 C 0.47038 0.14607 0.92750
 C673 C 0.47055 0.16215 0.94847
 C674 C 0.48823 0.18172 0.95296
 C675 C 0.50521 0.18536 0.93547
 C676 C 0.50500 0.16917 0.91438
 H677 H 0.53202 0.09720 0.80383
 H678 H 0.52904 0.13166 0.83466
 H679 H 0.47673 0.08826 0.87042
 H680 H 0.47969 0.05413 0.84000
 H681 H 0.45695 0.13078 0.92468
 H682 H 0.45694 0.15914 0.96135
 H683 H 0.51909 0.20022 0.93850
 H684 H 0.51864 0.17188 0.90149
 C685 C 0.98719 0.68796 0.41205
 C686 C 0.98830 0.67022 0.39256
 C687 C 0.98015 0.64597 0.39483
 C688 C 0.97052 0.63964 0.41681
 C689 C 0.96953 0.65730 0.43636
 C690 C 0.97802 0.68165 0.43430
 N691 N 0.98272 0.62794 0.37509
 N692 N 0.97452 0.60589 0.37573
 C693 C 0.97783 0.58732 0.35678
 C694 C 0.96738 0.56379 0.35855
 C695 C 0.97144 0.54479 0.34132
 C696 C 0.98625 0.54898 0.32203
 C697 C 0.99629 0.57279 0.31994
 C698 C 0.99213 0.59183 0.33717
 H699 H 0.99356 0.70660 0.40972
 H700 H 0.99574 0.67533 0.37571
 H701 H 0.96424 0.62097 0.41911
 H702 H 0.96274 0.65170 0.45333
 H703 H 0.95628 0.56012 0.37354
 H704 H 0.96308 0.52677 0.34318
 H705 H 1.00795 0.57655 0.30542
 H706 H 1.00048 0.60989 0.33549
 C707 C 1.17881 0.48577 0.12188
 C708 C 1.16082 0.48790 0.13843
 C709 C 1.13980 0.49945 0.13205
 C710 C 1.13677 0.50865 0.10876
 C711 C 1.15443 0.50630 0.09210
 C712 C 1.17604 0.49493 0.09823
 N713 N 1.12139 0.50116 0.14902
 N714 N 1.10406 0.51489 0.14535
 C715 C 1.08447 0.51648 0.16081
 C716 C 1.06772 0.53389 0.15631
 C717 C 1.04727 0.53491 0.16956
 C718 C 1.04302 0.51825 0.18743
 C719 C 1.06025 0.50118 0.19245
 C720 C 1.08088 0.50030 0.17923
 H721 H 1.19508 0.47756 0.12826
 H722 H 1.16342 0.48074 0.15639
 H723 H 1.12041 0.51722 0.10313
 H724 H 1.15024 0.51259 0.07403
 H725 H 1.07037 0.54648 0.14219
 H726 H 1.03464 0.54862 0.16562
 H727 H 1.05740 0.48799 0.20596
 H728 H 1.09358 0.48660 0.18290
 C729 C 0.58462 -0.03178 0.65383
 C730 C 0.59927 -0.03071 0.63419
 C731 C 0.62102 -0.01624 0.63670
 C732 C 0.62825 -0.00297 0.65934
 C733 C 0.61358 -0.00401 0.67907
 C734 C 0.59151 -0.01834 0.67648
 N735 N 0.63491 -0.01485 0.61571
 N736 N 0.65481 -0.00198 0.61621
 C737 C 0.66794 -0.00045 0.59466
 C738 C 0.68978 0.01391 0.59621
 C739 C 0.70252 0.01644 0.57526
 C740 C 0.69350 0.00468 0.55234
 C741 C 0.67172 -0.00999 0.55093
 C742 C 0.65906 -0.01256 0.57188
 H743 H 0.56755 -0.04262 0.65103
 H744 H 0.59346 -0.04090 0.61679
 H745 H 0.64504 0.00835 0.66170
 H746 H 0.61948 0.00638 0.69634
 H747 H 0.69679 0.02338 0.61364
 H748 H 0.71913 0.02804 0.57686
 H749 H 0.66451 -0.01957 0.53362
 H750 H 0.64225 -0.02384 0.57018
 C751 C -0.15009 0.52707 0.91778
 C752 C -0.12992 0.52684 0.90400
 C753 C -0.13176 0.51564 0.88004
 C754 C -0.15424 0.50491 0.86974
 C755 C -0.17450 0.50519 0.88350
 C756 C -0.17262 0.51616 0.90776
 N757 N -0.11038 0.51487 0.86699
 N758 N -0.11023 0.50415 0.84554
 C759 C -0.08846 0.50305 0.83311
 C760 C -0.08915 0.48991 0.81011
 C761 C -0.06797 0.48749 0.79809
 C762 C -0.04568 0.49825 0.80894
 C763 C -0.04515 0.51188 0.83182
 C764 C -0.06632 0.51424 0.84382
 H765 H -0.14784 0.53526 0.93654
 H766 H -0.11267 0.53505 0.91218
 H767 H -0.15610 0.49618 0.85119
 H768 H -0.19163 0.49686 0.87515
 H769 H -0.10607 0.48114 0.80169
 H770 H -0.06894 0.47664 0.78063
 H771 H -0.02835 0.52071 0.84046
 H772 H -0.06531 0.52461 0.86155
 C773 C 0.42696 -0.00777 0.34837
 C774 C 0.41189 -0.01063 0.36745
 C775 C 0.38929 -0.00081 0.36660
 C776 C 0.38167 0.01185 0.34619
 C777 C 0.39665 0.01453 0.32686
 C778 C 0.41953 0.00476 0.32773
 N779 N 0.37462 -0.00404 0.38676
 N780 N 0.35511 0.00651 0.38923
 C781 C 0.34113 0.00262 0.40984
 C782 C 0.32216 0.01749 0.41439
 C783 C 0.30902 0.01470 0.43508
 C784 C 0.31458 -0.00321 0.45146
 C785 C 0.33319 -0.01856 0.44635
 C786 C 0.34640 -0.01560 0.42588
 H787 H 0.44461 -0.01505 0.35004
 H788 H 0.41799 -0.02033 0.38316
 H789 H 0.36417 0.01949 0.34509
 H790 H 0.39021 0.02400 0.31115
 H791 H 0.31789 0.03160 0.40218
 H792 H 0.29494 0.02694 0.43856
 H793 H 0.33756 -0.03295 0.45819
 H794 H 0.36076 -0.02757 0.42263
 C795 C 0.14425 0.45883 0.93980
 C796 C 0.12424 0.45808 0.92256
 C797 C 0.12690 0.46506 0.89869
 C798 C 0.15006 0.47216 0.89193
 C799 C 0.17019 0.47268 0.90911
 C800 C 0.16749 0.46632 0.93338
 N801 N 0.10569 0.46562 0.88212
 N802 N 0.10619 0.47455 0.86122
 C803 C 0.08465 0.47567 0.84521
 C804 C 0.08575 0.48865 0.82411
 C805 C 0.06475 0.49149 0.80903
 C806 C 0.04221 0.48119 0.81474
 C807 C 0.04132 0.46752 0.83557
 C808 C 0.06230 0.46486 0.85072
 H809 H 0.14134 0.45426 0.95840
 H810 H 0.10646 0.45268 0.92800
 H811 H 0.15257 0.47749 0.87350
 H812 H 0.18783 0.47816 0.90340
 H813 H 0.10285 0.49712 0.81970
 H814 H 0.06606 0.50237 0.79332
 H815 H 0.02437 0.45893 0.84022
 H816 H 0.06100 0.45456 0.86684
 C817 C 0.58369 -0.00693 0.33607
 C818 C 0.60062 -0.00905 0.35596
 C819 C 0.61593 0.01106 0.36557
 C820 C 0.61432 0.03348 0.35485
 C821 C 0.59716 0.03572 0.33505
 C822 C 0.58160 0.01553 0.32554
 N823 N 0.63197 0.00837 0.38691
 N824 N 0.64822 0.02471 0.39563
 C825 C 0.66306 0.02157 0.41776
 C826 C 0.68304 0.03804 0.42492
 C827 C 0.69731 0.03568 0.44687
 C828 C 0.69144 0.01702 0.46217
 C829 C 0.67150 0.00045 0.45486
 C830 C 0.65751 0.00260 0.43283
 H831 H 0.57169 -0.02269 0.32941
 H832 H 0.60158 -0.02636 0.36419
 H833 H 0.62592 0.04932 0.36208
 H834 H 0.59598 0.05320 0.32721
 H835 H 0.68749 0.05278 0.41352
 H836 H 0.71255 0.04873 0.45219
 H837 H 0.66676 -0.01425 0.46621
 H838 H 0.64214 -0.01034 0.42780
 C839 C 0.82056 0.49382 0.08718
 C840 C 0.83869 0.49426 0.10650
 C841 C 0.85457 0.51500 0.11221
 C842 C 0.85155 0.53576 0.09892
 C843 C 0.83325 0.53544 0.07979
 C844 C 0.81785 0.51432 0.07346
 N845 N 0.87427 0.51407 0.13060
 N846 N 0.89133 0.53080 0.13395
 C847 C 0.91161 0.52953 0.15158
 C848 C 0.93159 0.54624 0.15116
 C849 C 0.95254 0.54423 0.16658
 C850 C 0.95366 0.52562 0.18294
 C851 C 0.93325 0.50944 0.18406
 C852 C 0.91240 0.51126 0.16837
 H853 H 0.80878 0.47740 0.08280
 H854 H 0.84082 0.47817 0.11662
 H855 H 0.86358 0.55203 0.10302
 H856 H 0.83167 0.55141 0.06938
 H857 H 0.93117 0.56040 0.13833
 H858 H 0.96799 0.55704 0.16555
 H859 H 0.93375 0.49487 0.19643
 H860 H 0.89713 0.49818 0.16907
 C861 C 0.40233 -0.00886 0.68272
 C862 C 0.38304 -0.00807 0.66472
 C863 C 0.38148 -0.02367 0.64312
 C864 C 0.39892 -0.04087 0.64019
 C865 C 0.41814 -0.04167 0.65810
 C866 C 0.42040 -0.02530 0.67928
 N867 N 0.36318 -0.02066 0.62373
 N868 N 0.36244 -0.03313 0.60307
 C869 C 0.34546 -0.02972 0.58268
 C870 C 0.34759 -0.04297 0.56018
 C871 C 0.33303 -0.03854 0.53915
 C872 C 0.31591 -0.02083 0.54032
 C873 C 0.31309 -0.00820 0.56315
 C874 C 0.32786 -0.01250 0.58420
 H875 H 0.40368 0.00408 0.69877
 H876 H 0.36975 0.00529 0.66721
 H877 H 0.39807 -0.05326 0.62377
 H878 H 0.43155 -0.05482 0.65516
 H879 H 0.36107 -0.05629 0.55880
 H880 H 0.33536 -0.04875 0.52185
 H881 H 0.30010 0.00563 0.56449
 H882 H 0.32592 -0.00203 0.60142
   
