data_POSCAR
  _audit_creation_date              2014-09-24
  _audit_creation_method            'ToBaCCo'
  _symmetry_space_group_name_H-M    'P1'
  _symmetry_Int_Tables_number       1
  _symmetry_cell_setting            triclinic
  loop_
  _symmetry_equiv_pos_as_xyz
 x,y,z
_cell_length_a 53.6935
_cell_length_b 53.3087
_cell_length_c 52.6825
_cell_angle_alpha 89.920800
_cell_angle_beta 90.350600
_cell_angle_gamma 90.156000
loop_
  _atom_site_label
  _atom_site_type_symbol
  _atom_site_fract_x
  _atom_site_fract_y
  _atom_site_fract_z
N1 N 0.19492 1.24616 0.17396
 N2 N 0.18016 1.24774 0.19366
 C3 C 0.16372 1.26638 0.18979
 C4 C 0.16835 1.27724 0.16626
 C5 C 0.18844 1.26378 0.15687
 H6 H 0.14931 1.27129 0.20311
 H7 H 0.19759 1.26622 0.13883
 Cu8 Cu 0.18330 1.22491 0.22225
 Cu9 Cu 0.22092 1.22087 0.17155
 Cu10 Cu 0.22156 1.17517 0.21824
 N11 N 0.18080 1.19679 0.24558
 N12 N 0.19583 1.17748 0.24402
 C13 C 0.18980 1.16066 0.26203
 C14 C 0.16973 1.16982 0.27575
 C15 C 0.16462 1.19293 0.26461
 H16 H 0.19924 1.14296 0.26456
 H17 H 0.15008 1.20596 0.26960
 N18 N 0.24596 1.17627 0.19046
 N19 N 0.24568 1.19366 0.17263
 C20 C 0.26404 1.18894 0.15602
 C21 C 0.27653 1.16750 0.16372
 C22 C 0.26452 1.16005 0.18569
 H23 H 0.26789 1.20023 0.13945
 H24 H 0.26858 1.14367 0.19706
 H25 H 0.20047 1.19516 0.19226
 H26 H 0.22530 1.21291 0.20976
 N27 N 0.81213 0.76207 0.17037
 N28 N 0.83233 0.76555 0.18412
 C29 C 0.84822 0.74653 0.18002
 C30 C 0.83748 0.73020 0.16262
 C31 C 0.81450 0.74074 0.15698
 H32 H 0.86648 0.74509 0.18861
 H33 H 0.80068 0.73374 0.14377
 Cu34 Cu 0.83649 0.79494 0.20542
 Cu35 Cu 0.78518 0.78646 0.16931
 Cu36 Cu 0.79231 0.83920 0.20718
 N37 N 0.83520 0.81938 0.23271
 N38 N 0.81789 0.83669 0.23333
 C39 C 0.82205 0.85185 0.25331
 C40 C 0.84327 0.84364 0.26610
 C41 C 0.85097 0.82280 0.25236
 H42 H 0.81062 0.86789 0.25770
 H43 H 0.86707 0.81119 0.25590
 N44 N 0.76328 0.83382 0.18485
 N45 N 0.76030 0.81357 0.17077
 C46 C 0.73905 0.81580 0.15725
 C47 C 0.72804 0.83855 0.16311
 C48 C 0.74396 0.84938 0.18079
 H49 H 0.73234 0.80206 0.14379
 H50 H 0.74203 0.86756 0.18959
 H51 H 0.80648 0.81702 0.17801
 H52 H 0.79163 0.80081 0.20544
 N53 N 0.80687 1.23805 -0.17145
 N54 N 0.82434 1.23797 -0.18880
 C55 C 0.84025 1.25703 -0.18423
 C56 C 0.83237 1.26979 -0.16283
 C57 C 0.81105 1.25715 -0.15529
 H58 H 0.85669 1.26094 -0.19530
 H59 H 0.79950 1.26131 -0.13912
 Cu60 Cu 0.82500 1.21225 -0.21495
 Cu61 Cu 0.78056 1.21279 -0.17043
 Cu62 Cu 0.78155 1.16696 -0.21716
 N63 N 0.82543 1.18661 -0.24118
 N64 N 0.80832 1.16897 -0.24193
 C65 C 0.81321 1.15326 -0.26122
 C66 C 0.83472 1.16135 -0.27335
 C67 C 0.84184 1.18271 -0.25999
 H68 H 0.80205 1.13695 -0.26564
 H69 H 0.85795 1.19438 -0.26333
 N70 N 0.75604 1.16817 -0.19041
 N71 N 0.75565 1.18560 -0.17266
 C72 C 0.73660 1.18085 -0.15682
 C73 C 0.72438 1.15935 -0.16491
 C74 C 0.73727 1.15188 -0.18631
 H75 H 0.73238 1.19187 -0.14021
 H76 H 0.73345 1.13563 -0.19792
 H77 H 0.80056 1.18454 -0.18783
 H78 H 0.78073 1.20468 -0.20868
 N79 N 0.18342 0.75836 -0.16954
 N80 N 0.16899 0.75570 -0.18959
 C81 C 0.15428 0.73548 -0.18631
 C82 C 0.15968 0.72491 -0.16283
 C83 C 0.17832 0.74004 -0.15276
 H84 H 0.14037 0.72928 -0.19983
 H85 H 0.18712 0.73840 -0.13433
 Cu86 Cu 0.16944 0.78025 -0.21692
 Cu87 Cu 0.20639 0.78649 -0.16600
 Cu88 Cu 0.22006 0.81655 -0.22275
 N89 N 0.17164 0.80567 -0.24333
 N90 N 0.19158 0.81977 -0.24565
 C91 C 0.18833 0.83572 -0.26520
 C92 C 0.16482 0.83164 -0.27571
 C93 C 0.15488 0.81226 -0.26120
 H94 H 0.20206 0.84944 -0.27088
 H95 H 0.13672 0.80369 -0.26313
 N96 N 0.24116 0.81931 -0.19217
 N97 N 0.23555 0.80851 -0.17040
 C98 C 0.25277 0.81491 -0.15291
 C99 C 0.27008 0.83070 -0.16414
 C100 C 0.26205 0.83302 -0.18910
 H101 H 0.25245 0.80876 -0.13337
 H102 H 0.27049 0.84413 -0.20392
 H103 H 0.19497 0.81129 -0.19475
 H104 H 0.21298 0.78271 -0.20344
 C105 C 0.51841 1.04110 -0.02038
 H106 H 0.50516 1.05089 -0.00869
 C107 C 0.53562 1.05482 -0.03460
 H108 H 0.53537 1.07510 -0.03369
 C109 C 0.53581 1.00286 -0.03463
 H110 H 0.53589 0.98257 -0.03427
 C111 C 0.55334 1.01581 -0.04910
 H112 H 0.56662 1.00530 -0.06019
 N113 N 0.51875 1.01559 -0.02074
 C114 C 0.47656 1.01700 0.04486
 H115 H 0.48942 1.00493 0.05487
 C116 C 0.45993 1.03175 0.05860
 H117 H 0.46020 1.03084 0.07913
 C118 C 0.45960 1.03181 0.00602
 H119 H 0.45947 1.03148 -0.01451
 C120 C 0.44266 1.04682 0.01898
 H121 H 0.42977 1.05833 0.00823
 Zn122 Zn 0.49707 0.99634 -0.00024
 N123 N 0.47616 1.01738 0.01904
 C124 C 0.53450 0.98857 0.03581
 N125 N 0.51739 0.97642 0.02117
 C126 C 0.51617 0.95093 0.02065
 C127 C 0.53258 0.93664 0.03537
 C128 C 0.55124 0.97503 0.05082
 C129 C 0.47731 0.97624 -0.04626
 C130 C 0.46068 0.96193 -0.06076
 C131 C 0.44159 0.94745 -0.02199
 C132 C 0.45854 0.96204 -0.00825
 N133 N 0.47603 0.97593 -0.02049
 H134 H 0.53537 1.00884 0.03547
 H135 H 0.50280 0.94160 0.00850
 H136 H 0.53131 0.91638 0.03476
 H137 H 0.56507 0.98507 0.06190
 H138 H 0.49099 0.98780 -0.05567
 H139 H 0.46208 0.96228 -0.08125
 H140 H 0.42755 0.93685 -0.01188
 H141 H 0.45764 0.96254 0.01225
 C142 C 0.44258 1.04682 0.04564
 C143 C 0.55349 1.04215 -0.04911
 C144 C 0.44246 0.94733 -0.04862
 C145 C 0.55053 0.94869 0.05060
 C146 C -0.01216 0.53614 1.03785
 H147 H 0.00797 0.53702 1.03776
 C148 C -0.02569 0.55310 1.05243
 H149 H -0.01578 0.56711 1.06343
 C150 C -0.04944 0.51753 1.02250
 H151 H -0.05864 0.50395 1.01046
 C152 C -0.06371 0.53416 1.03678
 H153 H -0.08382 0.53284 1.03595
 N154 N -0.02414 0.51875 1.02336
 C155 C 0.03083 0.46015 1.01054
 H156 H 0.03059 0.45957 0.99002
 C157 C 0.04569 0.44340 1.02420
 H158 H 0.05676 0.42984 1.01400
 C159 C 0.01574 0.47790 1.04867
 H160 H 0.00374 0.49110 1.05814
 C161 C 0.03030 0.46145 1.06309
 H162 H 0.02970 0.46253 1.08360
 Zn163 Zn -0.00424 0.49793 1.00273
 N164 N 0.01637 0.47706 1.02288
 C165 C 0.04051 0.51894 0.98300
 N166 N 0.01519 0.51943 0.98215
 C167 C 0.00281 0.53650 0.96767
 C168 C 0.01592 0.55390 0.95309
 C169 C 0.05438 0.53602 0.96870
 C170 C -0.03839 0.45915 0.99478
 C171 C -0.05276 0.44198 0.98104
 C172 C -0.03780 0.46077 0.94224
 C173 C -0.02373 0.47762 0.95673
 N174 N -0.02436 0.47658 0.98252
 H175 H 0.05003 0.50569 0.99513
 H176 H -0.01734 0.53669 0.96763
 H177 H 0.00569 0.56720 0.94153
 H178 H 0.07451 0.53568 0.97001
 H179 H -0.03818 0.45845 1.01530
 H180 H -0.06347 0.42799 0.99117
 H181 H -0.03719 0.46198 0.92173
 H182 H -0.01208 0.49125 0.94732
 C183 C 0.04551 0.44387 1.05086
 C184 C -0.05183 0.55234 1.05192
 C185 C -0.05252 0.44259 0.95439
 C186 C 0.04208 0.55391 0.95359
 C187 C 1.03786 -0.00383 0.53918
 H188 H 1.03743 0.01644 0.54012
 C189 C 1.05224 -0.01737 0.55655
 H190 H 1.06318 -0.00733 0.57059
 C191 C 1.02390 -0.04143 0.51975
 H192 H 1.01238 -0.05076 0.50578
 C193 C 1.03803 -0.05572 0.53676
 H194 H 1.03721 -0.07598 0.53564
 N195 N 1.02415 -0.01595 0.52119
 C196 C 1.01154 0.03980 0.46187
 H197 H 0.99141 0.03943 0.46085
 C198 C 1.02503 0.05476 0.44505
 H199 H 1.01510 0.06578 0.43101
 C200 C 1.04885 0.02480 0.48066
 H201 H 1.05809 0.01274 0.49422
 C202 C 1.06308 0.03945 0.46418
 H203 H 1.08319 0.03889 0.46564
 Zn204 Zn 1.00384 0.00396 0.49975
 N205 N 1.02356 0.02527 0.47926
 C206 C 0.98316 0.04836 0.52092
 N207 N 0.98286 0.02285 0.52113
 C208 C 0.96866 0.00987 0.53794
 C209 C 0.95385 0.02256 0.55537
 C210 C 0.96860 0.06182 0.53804
 C211 C 0.99753 -0.03010 0.46009
 C212 C 0.98472 -0.04450 0.44215
 C213 C 0.94595 -0.03030 0.46011
 C214 C 0.95952 -0.01616 0.47773
 N215 N 0.98485 -0.01640 0.47747
 H216 H 0.99507 0.05834 0.50788
 H217 H 0.96905 -0.01042 0.53791
 H218 H 0.94255 0.01185 0.56847
 H219 H 0.96947 0.08212 0.53794
 H220 H 1.01768 -0.02967 0.46010
 H221 H 0.99519 -0.05543 0.42861
 H222 H 0.92581 -0.02948 0.46029
 H223 H 0.94977 -0.00463 0.49125
 C224 C 1.05118 0.05458 0.44595
 C225 C 1.05237 -0.04370 0.55556
 C226 C 0.95856 -0.04462 0.44191
 C227 C 0.95380 0.04890 0.55568
 C228 C 0.12861 0.33595 1.12999
 C229 C 0.14896 0.32492 1.11801
 C230 C 0.16221 0.30569 1.13000
 C231 C 0.15529 0.29703 1.15432
 C232 C 0.13480 0.30856 1.16624
 C233 C 0.12162 0.32780 1.15415
 C234 C 0.11465 0.35530 1.11726
 C235 C 0.10292 0.37130 1.10633
 C236 C 0.08884 0.39013 1.09295
 C237 C 0.09882 0.40167 1.07141
 C238 C 0.08486 0.41935 1.05787
 C239 C 0.06068 0.42573 1.06572
 C240 C 0.05092 0.41421 1.08758
 C241 C 0.06492 0.39651 1.10107
 H242 H 0.15454 0.33110 1.09927
 H243 H 0.17775 0.29769 1.11994
 H244 H 0.12866 0.30282 1.18487
 H245 H 0.10585 0.33622 1.16361
 H246 H 0.11733 0.39689 1.06497
 H247 H 0.09302 0.42812 1.04133
 H248 H 0.03226 0.41845 1.09392
 H249 H 0.05697 0.38761 1.11767
 C250 C -0.12864 0.66543 1.12872
 C251 C -0.15085 0.67502 1.11873
 C252 C -0.16210 0.69583 1.12996
 C253 C -0.15122 0.70741 1.15134
 C254 C -0.12905 0.69734 1.16145
 C255 C -0.11786 0.67652 1.15018
 C256 C -0.11645 0.64477 1.11642
 C257 C -0.10597 0.62781 1.10584
 C258 C -0.09314 0.60797 1.09289
 C259 C -0.10107 0.60039 1.06873
 C260 C -0.08789 0.58199 1.05558
 C261 C -0.06654 0.57096 1.06641
 C262 C -0.05894 0.57846 1.09087
 C263 C -0.07215 0.59685 1.10400
 H264 H -0.15932 0.66662 1.10206
 H265 H -0.17904 0.70304 1.12152
 H266 H -0.12022 0.70551 1.17799
 H267 H -0.10065 0.66924 1.15807
 H268 H -0.11721 0.60898 1.05990
 H269 H -0.09403 0.57689 1.03666
 H270 H -0.04277 0.57009 1.09985
 H271 H -0.06585 0.60258 1.12269
 C272 C -0.13102 0.33157 0.87453
 C273 C -0.15062 0.31900 0.88646
 C274 C -0.16272 0.29911 0.87423
 C275 C -0.15531 0.29143 0.84986
 C276 C -0.13570 0.30439 0.83794
 C277 C -0.12364 0.32429 0.85021
 C278 C -0.11813 0.35155 0.88748
 C279 C -0.10717 0.36805 0.89854
 C280 C -0.09388 0.38743 0.91199
 C281 C -0.10435 0.39850 0.93349
 C282 C -0.09104 0.41665 0.94712
 C283 C -0.06704 0.42396 0.93942
 C284 C -0.05680 0.41292 0.91761
 C285 C -0.07014 0.39477 0.90401
 H286 H -0.15642 0.32443 0.90533
 H287 H -0.17759 0.28959 0.88412
 H288 H -0.12958 0.29925 0.81914
 H289 H -0.10847 0.33390 0.84079
 H290 H -0.12274 0.39298 0.93981
 H291 H -0.09956 0.42503 0.96363
 H292 H -0.03825 0.41789 0.91139
 H293 H -0.06181 0.38624 0.88746
 C294 C 0.12236 0.66346 0.87404
 C295 C 0.11285 0.67328 0.85136
 C296 C 0.12515 0.69300 0.83915
 C297 C 0.14716 0.70326 0.84952
 C298 C 0.15674 0.69296 0.87218
 C299 C 0.14440 0.67323 0.88434
 C300 C 0.10906 0.64393 0.88715
 C301 C 0.09764 0.62790 0.89834
 C302 C 0.08368 0.60918 0.91193
 C303 C 0.09203 0.58435 0.91298
 C304 C 0.07849 0.56630 0.92645
 C305 C 0.05639 0.57290 0.93901
 C306 C 0.04816 0.59791 0.93776
 C307 C 0.06172 0.61590 0.92431
 H308 H 0.09574 0.66591 0.84325
 H309 H 0.11708 0.70042 0.82186
 H310 H 0.17372 0.70011 0.88066
 H311 H 0.15193 0.66576 0.90191
 H312 H 0.10898 0.57894 0.90342
 H313 H 0.08516 0.54716 0.92682
 H314 H 0.03145 0.60368 0.94754
 H315 H 0.05514 0.63509 0.92370
 C316 C 1.13128 0.13397 0.33580
 C317 C 1.15167 0.12229 0.32454
 C318 C 1.16449 0.13415 0.30486
 C319 C 1.15710 0.15803 0.29599
 C320 C 1.13659 0.16967 0.30777
 C321 C 1.12382 0.15770 0.32746
 C322 C 1.11777 0.12132 0.35558
 C323 C 1.10647 0.11034 0.37190
 C324 C 1.09302 0.09678 0.39109
 C325 C 1.10084 0.07279 0.39834
 C326 C 1.08741 0.05919 0.41639
 C327 C 1.06591 0.06942 0.42744
 C328 C 1.05831 0.09366 0.42018
 C329 C 1.07180 0.10723 0.40211
 H330 H 1.15760 0.10389 0.33086
 H331 H 1.18007 0.12432 0.29669
 H332 H 1.13010 0.18795 0.30188
 H333 H 1.10803 0.16692 0.33607
 H334 H 1.11717 0.06447 0.38983
 H335 H 1.09353 0.04045 0.42127
 H336 H 1.04202 0.10216 0.42854
 H337 H 1.06559 0.12580 0.39665
 C338 C 1.12978 -0.12826 0.66448
 C339 C 1.15402 -0.12206 0.67202
 C340 C 1.16574 -0.13543 0.69156
 C341 C 1.15334 -0.15530 0.70402
 C342 C 1.12898 -0.16151 0.69589
 C343 C 1.11736 -0.14809 0.67635
 C344 C 1.11734 -0.11389 0.64507
 C345 C 1.10661 -0.10170 0.62914
 C346 C 1.09344 -0.08698 0.61050
 C347 C 1.08081 -0.06531 0.61796
 C348 C 1.06759 -0.05117 0.60007
 C349 C 1.06681 -0.05852 0.57443
 C350 C 1.07965 -0.08030 0.56710
 C351 C 1.09288 -0.09442 0.58504
 H352 H 1.16381 -0.10671 0.66295
 H353 H 1.18442 -0.12986 0.69686
 H354 H 1.11857 -0.17658 0.70458
 H355 H 1.09856 -0.15305 0.67066
 H356 H 1.08101 -0.05945 0.63764
 H357 H 1.05760 -0.03473 0.60641
 H358 H 1.07964 -0.08629 0.54747
 H359 H 1.10262 -0.11116 0.57906
 C360 C 0.87947 -0.12220 0.32889
 C361 C 0.88922 -0.14402 0.31821
 C362 C 0.87711 -0.15555 0.29774
 C363 C 0.85497 -0.14537 0.28746
 C364 C 0.84515 -0.12358 0.29883
 C365 C 0.85734 -0.11213 0.31930
 C366 C 0.89265 -0.10966 0.34910
 C367 C 0.90395 -0.09885 0.36565
 C368 C 0.91774 -0.08563 0.38496
 C369 C 0.90927 -0.08524 0.41003
 C370 C 0.92258 -0.07202 0.42862
 C371 C 0.94455 -0.05902 0.42235
 C372 C 0.95292 -0.05962 0.39709
 C373 C 0.93960 -0.07282 0.37856
 H374 H 0.90638 -0.15198 0.32550
 H375 H 0.88546 -0.17226 0.28997
 H376 H 0.82820 -0.11499 0.29193
 H377 H 0.84963 -0.09521 0.32744
 H378 H 0.89238 -0.09512 0.41519
 H379 H 0.91581 -0.07214 0.44794
 H380 H 0.96954 -0.04950 0.39156
 H381 H 0.94626 -0.07291 0.35919
 C382 C 0.87245 0.12622 0.66591
 C383 C 0.88183 0.14839 0.67641
 C384 C 0.86926 0.16019 0.69624
 C385 C 0.84701 0.14994 0.70604
 C386 C 0.83762 0.12772 0.69492
 C387 C 0.85027 0.11600 0.67511
 C388 C 0.88594 0.11354 0.64622
 C389 C 0.89741 0.10261 0.63007
 C390 C 0.91134 0.08916 0.61123
 C391 C 0.92388 0.06716 0.61802
 C392 C 0.93759 0.05405 0.59994
 C393 C 0.93896 0.06277 0.57476
 C394 C 0.92627 0.08491 0.56810
 C395 C 0.91253 0.09801 0.58624
 H396 H 0.89903 0.15646 0.66944
 H397 H 0.87731 0.17721 0.70385
 H398 H 0.82063 0.11904 0.70148
 H399 H 0.84285 0.09879 0.66712
 H400 H 0.92316 0.06020 0.63733
 H401 H 0.94746 0.03730 0.60577
 H402 H 0.92675 0.09195 0.54882
 H403 H 0.90285 0.11500 0.58078
 C404 C 0.33590 1.12929 0.12537
 C405 C 0.32965 1.12259 0.15021
 C406 C 0.31055 1.13518 0.16280
 C407 C 0.29738 1.15467 0.15068
 C408 C 0.30406 1.16143 0.12578
 C409 C 0.32315 1.14880 0.11324
 C410 C 0.35489 1.11570 0.11206
 C411 C 0.37050 1.10411 0.10068
 C412 C 0.38874 1.09002 0.08682
 C413 C 0.41335 1.08858 0.09561
 C414 C 0.43093 1.07462 0.08220
 C415 C 0.42409 1.06193 0.05980
 C416 C 0.39930 1.06356 0.05112
 C417 C 0.38178 1.07751 0.06455
 H418 H 0.33941 1.10750 0.15978
 H419 H 0.30617 1.12956 0.18200
 H420 H 0.29432 1.17617 0.11572
 H421 H 0.32778 1.15409 0.09396
 H422 H 0.41894 1.09823 0.11282
 H423 H 0.44991 1.07395 0.08921
 H424 H 0.39335 1.05370 0.03417
 H425 H 0.36276 1.07840 0.05763
 C426 C 0.66344 1.12153 -0.12831
 C427 C 0.66996 1.14593 -0.12111
 C428 C 0.68958 1.15836 -0.13318
 C429 C 0.70301 1.14650 -0.15264
 C430 C 0.69605 1.12205 -0.15993
 C431 C 0.67643 1.10968 -0.14783
 C432 C 0.64391 1.10835 -0.11523
 C433 C 0.62786 1.09704 -0.10408
 C434 C 0.60907 1.08325 -0.09054
 C435 C 0.58446 1.09181 -0.09010
 C436 C 0.56632 1.07845 -0.07670
 C437 C 0.57259 1.05629 -0.06360
 C438 C 0.59739 1.04784 -0.06422
 C439 C 0.61547 1.06123 -0.07760
 H440 H 0.66000 1.15530 -0.10603
 H441 H 0.69416 1.17721 -0.12718
 H442 H 0.70594 1.11220 -0.17468
 H443 H 0.67157 1.09076 -0.15352
 H444 H 0.57929 1.10881 -0.10009
 H445 H 0.54735 1.08528 -0.07681
 H446 H 0.60291 1.03110 -0.05401
 H447 H 0.63449 1.05448 -0.07774
 C448 C 0.33202 0.86771 -0.12780
 C449 C 0.31962 0.84813 -0.11545
 C450 C 0.29967 0.83591 -0.12735
 C451 C 0.29179 0.84314 -0.15182
 C452 C 0.30460 0.86269 -0.16418
 C453 C 0.32455 0.87489 -0.15222
 C454 C 0.35198 0.88082 -0.11512
 C455 C 0.36843 0.89194 -0.10422
 C456 C 0.38773 0.90540 -0.09088
 C457 C 0.39857 0.89507 -0.06904
 C458 C 0.41661 0.90854 -0.05547
 C459 C 0.42404 0.93257 -0.06359
 C460 C 0.41325 0.94266 -0.08576
 C461 C 0.39519 0.92915 -0.09928
 H462 H 0.32527 0.84241 -0.09653
 H463 H 0.29050 0.82084 -0.11729
 H464 H 0.29906 0.86892 -0.18292
 H465 H 0.33398 0.89008 -0.16193
 H466 H 0.39294 0.87668 -0.06238
 H467 H 0.42480 0.90014 -0.03867
 H468 H 0.41831 0.96124 -0.09230
 H469 H 0.38682 0.93738 -0.11610
 C470 C 0.66313 0.87198 0.12896
 C471 C 0.67330 0.85016 0.11864
 C472 C 0.69415 0.83903 0.12996
 C473 C 0.70519 0.84964 0.15177
 C474 C 0.69452 0.87138 0.16222
 C475 C 0.67367 0.88246 0.15087
 C476 C 0.64250 0.88414 0.11653
 C477 C 0.62558 0.89460 0.10577
 C478 C 0.60582 0.90739 0.09254
 C479 C 0.59836 0.89931 0.06840
 C480 C 0.58006 0.91247 0.05494
 C481 C 0.56901 0.93396 0.06545
 C482 C 0.57639 0.94172 0.08990
 C483 C 0.59469 0.92852 0.10333
 H484 H 0.66534 0.84194 0.10163
 H485 H 0.70182 0.82243 0.12124
 H486 H 0.70227 0.87998 0.17910
 H487 H 0.66594 0.89937 0.15902
 H488 H 0.60697 0.88307 0.05981
 H489 H 0.57506 0.90623 0.03603
 H490 H 0.56803 0.95801 0.09862
 H491 H 0.60034 0.93494 0.12200
   
