data_POSCAR
  _audit_creation_date              2014-09-24
  _audit_creation_method            'ToBaCCo'
  _symmetry_space_group_name_H-M    'P1'
  _symmetry_Int_Tables_number       1
  _symmetry_cell_setting            triclinic
  loop_
  _symmetry_equiv_pos_as_xyz
 x,y,z
_cell_length_a 43.3885
_cell_length_b 40.0954
_cell_length_c 38.9070
_cell_angle_alpha 90.104200
_cell_angle_beta 90.000000
_cell_angle_gamma 90.000000
loop_
  _atom_site_label
  _atom_site_type_symbol
  _atom_site_fract_x
  _atom_site_fract_y
  _atom_site_fract_z
C1 C 1.25154 0.25000 0.25000
 C2 C 0.74941 -0.25000 0.25000
 C3 C 0.74927 0.25000 -0.25000
 C4 C 1.25133 -0.25000 -0.25000
 C5 C 0.25073 0.25000 0.75000
 C6 C 0.74871 0.75000 0.75000
 C7 C 0.74855 0.25000 0.25000
 C8 C 0.25027 0.75000 0.25000
 N9 N 0.96769 0.03588 -0.06061
 N10 N 0.94727 0.04306 -0.08466
 N11 N 1.03249 0.05897 -0.03679
 N12 N 1.05292 0.08234 -0.04395
 N13 N 1.03244 0.03588 -0.06077
 N14 N 1.05284 0.04297 -0.08487
 N15 N 0.96775 0.05897 -0.03662
 N16 N 0.94738 0.08242 -0.04374
 C17 C 0.93450 0.07199 -0.07359
 C18 C 1.06571 0.07186 -0.07383
 N19 N 1.03275 0.03585 0.06126
 N20 N 1.05334 0.04289 0.08518
 N21 N 0.96795 0.05894 0.03755
 N22 N 0.94744 0.08225 0.04468
 N23 N 0.96801 0.03588 0.06148
 N24 N 0.94754 0.04297 0.08554
 N25 N 1.03267 0.05894 0.03736
 N26 N 1.05319 0.08226 0.04441
 Mn27 Mn 1.00022 0.05922 0.00038
 C28 C 1.06617 0.07175 0.07413
 C29 C 0.93462 0.07180 0.07451
 N30 N 1.03247 -0.03616 -0.06085
 N31 N 1.05296 -0.04316 -0.08488
 N32 N 0.96782 -0.05929 -0.03677
 N33 N 0.94735 -0.08267 -0.04388
 N34 N 0.96773 -0.03620 -0.06067
 N35 N 0.94721 -0.04331 -0.08466
 N36 N 1.03254 -0.05925 -0.03695
 N37 N 1.05309 -0.08252 -0.04410
 Mn38 Mn 1.00008 -0.00016 -0.06103
 C39 C 1.06591 -0.07198 -0.07390
 C40 C 0.93441 -0.07220 -0.07364
 N41 N 0.96805 -0.03618 0.06137
 N42 N 0.94758 -0.04322 0.08540
 N43 N 1.03274 -0.05934 0.03726
 N44 N 1.05294 -0.08292 0.04452
 N45 N 1.03280 -0.03625 0.06125
 N46 N 1.05304 -0.04359 0.08545
 N47 N 0.96800 -0.05928 0.03738
 N48 N 0.94751 -0.08258 0.04446
 Mn49 Mn 1.00040 -0.00017 0.06165
 Mn50 Mn 1.00028 -0.05956 0.00022
 Cl51 Cl 1.00025 -0.00017 0.00031
 C52 C 0.93468 -0.07207 0.07431
 C53 C 1.06573 -0.07260 0.07446
 N54 N 0.96769 0.46413 0.56061
 N55 N 0.94727 0.45695 0.58467
 N56 N 1.03249 0.44104 0.53680
 N57 N 1.05292 0.41767 0.54395
 N58 N 1.03244 0.46413 0.56078
 N59 N 1.05284 0.45703 0.58487
 N60 N 0.96775 0.44104 0.53663
 N61 N 0.94738 0.41759 0.54374
 C62 C 0.93450 0.42802 0.57360
 C63 C 1.06571 0.42815 0.57383
 N64 N 1.03275 0.46416 0.43874
 N65 N 1.05334 0.45712 0.41482
 N66 N 0.96795 0.44107 0.46246
 N67 N 0.94744 0.41776 0.45532
 N68 N 0.96801 0.46413 0.43852
 N69 N 0.94754 0.45704 0.41446
 N70 N 1.03267 0.44107 0.46264
 N71 N 1.05320 0.41775 0.45559
 Mn72 Mn 1.00022 0.44078 0.49962
 C73 C 1.06617 0.42826 0.42587
 C74 C 0.93462 0.42821 0.42549
 N75 N 1.03247 0.53617 0.56085
 N76 N 1.05296 0.54317 0.58489
 N77 N 0.96782 0.55930 0.53678
 N78 N 0.94736 0.58268 0.54388
 N79 N 0.96773 0.53621 0.56068
 N80 N 0.94721 0.54332 0.58466
 N81 N 1.03254 0.55926 0.53695
 N82 N 1.05309 0.58253 0.54410
 Mn83 Mn 1.00008 0.50017 0.56104
 C84 C 1.06591 0.57199 0.57390
 C85 C 0.93441 0.57221 0.57364
 N86 N 0.96805 0.53619 0.43864
 N87 N 0.94758 0.54323 0.41461
 N88 N 1.03274 0.55934 0.46275
 N89 N 1.05294 0.58293 0.45549
 N90 N 1.03280 0.53626 0.43875
 N91 N 1.05304 0.54360 0.41456
 N92 N 0.96800 0.55928 0.46262
 N93 N 0.94751 0.58259 0.45554
 Mn94 Mn 1.00040 0.50018 0.43836
 Mn95 Mn 1.00028 0.55957 0.49978
 Cl96 Cl 1.00025 0.50017 0.49970
 C97 C 0.93468 0.57208 0.42570
 C98 C 1.06573 0.57261 0.42554
 N99 N 0.55386 0.03479 0.53655
 N100 N 0.57549 0.05691 0.54342
 N101 N 0.53275 -0.03520 0.56075
 N102 N 0.53946 -0.05735 0.58469
 N103 N 0.55390 -0.03524 0.53662
 N104 N 0.57546 -0.05743 0.54343
 N105 N 0.53271 0.03485 0.56069
 N106 N 0.53950 0.05700 0.58470
 C107 C 0.56609 0.07088 0.57333
 C108 C 0.56601 -0.07132 0.57329
 N109 N 0.44506 -0.03541 0.53651
 N110 N 0.42382 -0.05804 0.54298
 N111 N 0.46609 0.03475 0.56060
 N112 N 0.45953 0.05732 0.58428
 N113 N 0.44495 0.03461 0.53646
 N114 N 0.42354 0.05707 0.54299
 N115 N 0.46619 -0.03530 0.56066
 N116 N 0.45978 -0.05786 0.58430
 Mn117 Mn 0.49942 -0.00022 0.56105
 C118 C 0.43343 -0.07211 0.57269
 C119 C 0.43307 0.07132 0.57270
 N120 N 0.55386 -0.03544 0.46270
 N121 N 0.57533 -0.05780 0.45606
 N122 N 0.53268 0.03447 0.43846
 N123 N 0.53932 0.05673 0.41458
 N124 N 0.55382 0.03457 0.46261
 N125 N 0.57528 0.05689 0.45589
 N126 N 0.53271 -0.03556 0.43855
 N127 N 0.53934 -0.05798 0.41477
 Mn128 Mn 0.55410 -0.00033 0.49961
 C129 C 0.56584 -0.07194 0.42629
 C130 C 0.56581 0.07081 0.42604
 N131 N 0.44497 0.03440 0.46261
 N132 N 0.42374 0.05708 0.45623
 N133 N 0.46610 -0.03567 0.43844
 N134 N 0.45934 -0.05790 0.41449
 N135 N 0.44497 -0.03563 0.46260
 N136 N 0.42338 -0.05783 0.45579
 N137 N 0.46611 0.03440 0.43848
 N138 N 0.45974 0.05707 0.41494
 Mn139 Mn 0.44474 -0.00051 0.49955
 Mn140 Mn 0.49940 -0.00059 0.43811
 Cl141 Cl 0.49942 -0.00042 0.49958
 C142 C 0.43338 0.07127 0.42660
 C143 C 0.43277 -0.07183 0.42590
 N144 N 0.55386 0.53545 0.03731
 N145 N 0.57533 0.55780 0.04394
 N146 N 0.53268 0.46553 0.06155
 N147 N 0.53932 0.44328 0.08543
 N148 N 0.55382 0.46544 0.03739
 N149 N 0.57528 0.44312 0.04412
 N150 N 0.53271 0.53556 0.06145
 N151 N 0.53934 0.55798 0.08524
 C152 C 0.56584 0.57195 0.07371
 C153 C 0.56581 0.42920 0.07396
 N154 N 0.44497 0.46560 0.03739
 N155 N 0.42374 0.44293 0.04377
 N156 N 0.46610 0.53568 0.06156
 N157 N 0.45934 0.55791 0.08552
 N158 N 0.44497 0.53563 0.03741
 N159 N 0.42338 0.55783 0.04422
 N160 N 0.46611 0.46561 0.06152
 N161 N 0.45974 0.44294 0.08507
 Mn162 Mn 0.49940 0.50060 0.06190
 C163 C 0.43338 0.42873 0.07340
 C164 C 0.43277 0.57184 0.07410
 N165 N 0.55386 0.46522 -0.03655
 N166 N 0.57549 0.44310 -0.04342
 N167 N 0.53275 0.53520 -0.06074
 N168 N 0.53946 0.55736 -0.08469
 N169 N 0.55390 0.53524 -0.03661
 N170 N 0.57546 0.55744 -0.04342
 N171 N 0.53271 0.46516 -0.06069
 N172 N 0.53950 0.44301 -0.08470
 Mn173 Mn 0.55410 0.50034 0.00039
 C174 C 0.56609 0.42912 -0.07332
 C175 C 0.56601 0.57133 -0.07329
 N176 N 0.44506 0.53541 -0.03651
 N177 N 0.42382 0.55805 -0.04298
 N178 N 0.46609 0.46525 -0.06060
 N179 N 0.45953 0.44269 -0.08427
 N180 N 0.44495 0.46540 -0.03646
 N181 N 0.42354 0.44293 -0.04298
 N182 N 0.46619 0.53531 -0.06066
 N183 N 0.45978 0.55787 -0.08430
 Mn184 Mn 0.44474 0.50052 0.00045
 Mn185 Mn 0.49942 0.50023 -0.06104
 Cl186 Cl 0.49942 0.50042 0.00042
 C187 C 0.43343 0.57212 -0.07268
 C188 C 0.43307 0.42869 -0.07269
 C189 C 1.18777 0.18782 0.19086
 C190 C 1.19164 0.22154 0.18291
 C191 C 1.21185 0.24121 0.20219
 C192 C 1.22950 0.22733 0.22916
 C193 C 1.22373 0.19372 0.23813
 C194 C 1.20348 0.17411 0.21881
 C195 C 1.16753 0.16735 0.17051
 C196 C 1.15063 0.15018 0.15337
 C197 C 1.13035 0.12985 0.13290
 C198 C 1.12025 0.14120 0.10083
 C199 C 1.09979 0.12196 0.08136
 C200 C 1.08917 0.09113 0.09380
 C201 C 1.09981 0.07965 0.12580
 C202 C 1.12027 0.09894 0.14523
 H203 H 1.17906 0.23263 0.16177
 H204 H 1.21422 0.26732 0.19566
 H205 H 1.23446 0.18238 0.26028
 H206 H 1.19998 0.14824 0.22581
 H207 H 1.12794 0.16507 0.09102
 H208 H 1.09199 0.13142 0.05680
 H209 H 1.09201 0.05601 0.13601
 H210 H 1.12798 0.08990 0.17002
 C211 C 1.18755 0.68777 0.69093
 C212 C 1.20328 0.67407 0.71887
 C213 C 1.22354 0.69369 0.73817
 C214 C 1.22929 0.72730 0.72919
 C215 C 1.21163 0.74116 0.70223
 C216 C 1.19140 0.72148 0.68297
 C217 C 1.16729 0.66729 0.67059
 C218 C 1.15038 0.65016 0.65344
 C219 C 1.13008 0.62989 0.63292
 C220 C 1.12011 0.64126 0.60079
 C221 C 1.09966 0.62209 0.58125
 C222 C 1.08889 0.59131 0.59367
 C223 C 1.09938 0.57981 0.62572
 C224 C 1.11985 0.59903 0.64523
 H225 H 1.19979 0.64820 0.72587
 H226 H 1.23429 0.68236 0.76031
 H227 H 1.21399 0.76728 0.69569
 H228 H 1.17881 0.73258 0.66183
 H229 H 1.12792 0.66509 0.59100
 H230 H 1.09197 0.63156 0.55666
 H231 H 1.09146 0.55620 0.63592
 H232 H 1.12745 0.58998 0.67005
 C233 C 0.68262 0.19260 0.68969
 C234 C 0.68744 0.22642 0.68308
 C235 C 0.70900 0.24437 0.70229
 C236 C 0.72701 0.22868 0.72790
 C237 C 0.72068 0.19481 0.73523
 C238 C 0.69907 0.17693 0.71597
 C239 C 0.66081 0.17389 0.66954
 C240 C 0.64300 0.15778 0.65249
 C241 C 0.62249 0.13787 0.63189
 C242 C 0.63132 0.12838 0.59870
 C243 C 0.61250 0.10727 0.57930
 C244 C 0.58459 0.09533 0.59290
 C245 C 0.57547 0.10563 0.62593
 C246 C 0.59438 0.12675 0.64534
 H247 H 0.67443 0.23898 0.66316
 H248 H 0.71180 0.27071 0.69707
 H249 H 0.73173 0.18203 0.75632
 H250 H 0.69499 0.15089 0.72183
 H251 H 0.65304 0.13681 0.58805
 H252 H 0.62010 0.09980 0.55392
 H253 H 0.55410 0.09679 0.63703
 H254 H 0.58735 0.13392 0.67104
 C255 C 0.68248 0.69340 0.18952
 C256 C 0.68761 0.72715 0.18291
 C257 C 0.70932 0.74484 0.20213
 C258 C 0.72715 0.72892 0.22775
 C259 C 0.72053 0.69512 0.23505
 C260 C 0.69878 0.67750 0.21576
 C261 C 0.66052 0.67499 0.16939
 C262 C 0.64259 0.65909 0.15235
 C263 C 0.62200 0.63934 0.13178
 C264 C 0.59398 0.62816 0.14538
 C265 C 0.57509 0.60695 0.12608
 C266 C 0.58417 0.59665 0.09304
 C267 C 0.61195 0.60873 0.07927
 C268 C 0.63075 0.62992 0.09856
 H269 H 0.67473 0.73987 0.16300
 H270 H 0.71234 0.77116 0.19696
 H271 H 0.73145 0.68221 0.25614
 H272 H 0.69444 0.65151 0.22159
 H273 H 0.58704 0.63528 0.17112
 H274 H 0.55380 0.59799 0.13730
 H275 H 0.61950 0.60124 0.05387
 H276 H 0.65241 0.63842 0.08783
 C277 C 0.81320 -0.18880 0.19005
 C278 C 0.80915 -0.18304 0.22519
 C279 C 0.78892 -0.20294 0.24414
 C280 C 0.77145 -0.22835 0.22812
 C281 C 0.77742 -0.23510 0.19304
 C282 C 0.79767 -0.21517 0.17417
 C283 C 0.83349 -0.16792 0.17027
 C284 C 0.85040 -0.15058 0.15341
 C285 C 0.87067 -0.13020 0.13306
 C286 C 0.88095 -0.09941 0.14562
 C287 C 0.90137 -0.08010 0.12620
 C288 C 0.91176 -0.09145 0.09401
 C289 C 0.90094 -0.12217 0.08136
 C290 C 0.88054 -0.14141 0.10080
 H291 H 0.82160 -0.16314 0.23797
 H292 H 0.78642 -0.19814 0.27140
 H293 H 0.76684 -0.25597 0.17997
 H294 H 0.80133 -0.22047 0.14716
 H295 H 0.87343 -0.09048 0.17055
 H296 H 0.90933 -0.05655 0.13657
 H297 H 0.90855 -0.13153 0.05665
 H298 H 0.87269 -0.16519 0.09082
 C299 C 0.81309 0.31092 0.68955
 C300 C 0.79730 0.28466 0.67377
 C301 C 0.77704 0.26481 0.69277
 C302 C 0.77133 0.27152 0.72792
 C303 C 0.78903 0.29682 0.74382
 C304 C 0.80925 0.31664 0.72474
 C305 C 0.83341 0.33173 0.66965
 C306 C 0.85035 0.34906 0.65276
 C307 C 0.87065 0.36951 0.63241
 C308 C 0.88064 0.35833 0.60018
 C309 C 0.90100 0.37767 0.58074
 C310 C 0.91166 0.40847 0.59334
 C311 C 0.90118 0.41977 0.62552
 C312 C 0.88080 0.40037 0.64494
 H313 H 0.80076 0.27937 0.64672
 H314 H 0.76628 0.24404 0.67974
 H315 H 0.78670 0.30162 0.77109
 H316 H 0.82188 0.33644 0.73745
 H317 H 0.87290 0.33451 0.59020
 H318 H 0.90867 0.36833 0.55605
 H319 H 0.90901 0.44338 0.63588
 H320 H 0.87320 0.40930 0.66983
 C321 C 0.31817 -0.19537 0.68767
 C322 C 0.30171 -0.22173 0.67299
 C323 C 0.28000 -0.23920 0.69242
 C324 C 0.27358 -0.22995 0.72680
 C325 C 0.29158 -0.20421 0.74152
 C326 C 0.31325 -0.18682 0.72203
 C327 C 0.33994 -0.17688 0.66744
 C328 C 0.35772 -0.16079 0.65044
 C329 C 0.37812 -0.14071 0.63003
 C330 C 0.36929 -0.13128 0.59687
 C331 C 0.38782 -0.10967 0.57782
 C332 C 0.41541 -0.09719 0.59177
 C333 C 0.42458 -0.10752 0.62473
 C334 C 0.40596 -0.12913 0.64379
 H335 H 0.30586 -0.22900 0.64655
 H336 H 0.26893 -0.26040 0.68048
 H337 H 0.28871 -0.19750 0.76830
 H338 H 0.32624 -0.16676 0.73383
 H339 H 0.34777 -0.14006 0.58602
 H340 H 0.38022 -0.10219 0.55247
 H341 H 0.44571 -0.09826 0.63607
 H342 H 0.41294 -0.13625 0.66949
 C343 C 0.31836 0.30476 0.18779
 C344 C 0.30192 0.27842 0.17306
 C345 C 0.28021 0.26089 0.19245
 C346 C 0.27379 0.27009 0.22685
 C347 C 0.29177 0.29580 0.24162
 C348 C 0.31343 0.31324 0.22217
 C349 C 0.34011 0.32332 0.16761
 C350 C 0.35786 0.33950 0.15067
 C351 C 0.37823 0.35970 0.13036
 C352 C 0.36937 0.36930 0.09726
 C353 C 0.38785 0.39105 0.07833
 C354 C 0.41541 0.40352 0.09235
 C355 C 0.42462 0.39303 0.12524
 C356 C 0.40604 0.37127 0.14418
 H357 H 0.30608 0.27119 0.14661
 H358 H 0.26916 0.23972 0.18046
 H359 H 0.28889 0.30248 0.26840
 H360 H 0.32640 0.33330 0.23401
 H361 H 0.34786 0.36053 0.08637
 H362 H 0.38023 0.39866 0.05303
 H363 H 0.44574 0.40227 0.13663
 H364 H 0.41305 0.36403 0.16984
 C365 C 0.81309 0.18909 -0.18955
 C366 C 0.79730 0.21535 -0.17376
 C367 C 0.77704 0.23520 -0.19277
 C368 C 0.77133 0.22849 -0.22791
 C369 C 0.78903 0.20318 -0.24381
 C370 C 0.80925 0.18337 -0.22473
 C371 C 0.83341 0.16828 -0.16964
 C372 C 0.85035 0.15094 -0.15275
 C373 C 0.87065 0.13050 -0.13241
 C374 C 0.88064 0.14168 -0.10017
 C375 C 0.90100 0.12234 -0.08074
 C376 C 0.91167 0.09154 -0.09334
 C377 C 0.90118 0.08024 -0.12552
 C378 C 0.88080 0.09964 -0.14493
 H379 H 0.80076 0.22064 -0.14671
 H380 H 0.76628 0.25597 -0.17974
 H381 H 0.78670 0.19838 -0.27109
 H382 H 0.82188 0.16356 -0.23745
 H383 H 0.87290 0.16550 -0.09019
 H384 H 0.90867 0.13168 -0.05605
 H385 H 0.90901 0.05663 -0.13588
 H386 H 0.87320 0.09071 -0.16983
 C387 C 0.81320 0.68881 0.30995
 C388 C 0.79767 0.71518 0.32583
 C389 C 0.77742 0.73511 0.30696
 C390 C 0.77145 0.72836 0.27188
 C391 C 0.78892 0.70295 0.25586
 C392 C 0.80915 0.68304 0.27481
 C393 C 0.83349 0.66793 0.32973
 C394 C 0.85040 0.65059 0.34659
 C395 C 0.87067 0.63021 0.36694
 C396 C 0.88054 0.64142 0.39920
 C397 C 0.90094 0.62217 0.41864
 C398 C 0.91176 0.59146 0.40600
 C399 C 0.90137 0.58011 0.37380
 C400 C 0.88095 0.59942 0.35438
 H401 H 0.80133 0.72048 0.35285
 H402 H 0.76684 0.75598 0.32003
 H403 H 0.78642 0.69815 0.22861
 H404 H 0.82160 0.66315 0.26204
 H405 H 0.87269 0.66520 0.40918
 H406 H 0.90855 0.63153 0.44335
 H407 H 0.90933 0.55655 0.36343
 H408 H 0.87343 0.59049 0.32946
 C409 C 0.31836 0.19525 0.31221
 C410 C 0.31343 0.18676 0.27783
 C411 C 0.29177 0.20420 0.25839
 C412 C 0.27379 0.22992 0.27316
 C413 C 0.28021 0.23911 0.30755
 C414 C 0.30192 0.22159 0.32695
 C415 C 0.34011 0.17669 0.33240
 C416 C 0.35786 0.16051 0.34933
 C417 C 0.37823 0.14031 0.36965
 C418 C 0.40604 0.12874 0.35582
 C419 C 0.42462 0.10697 0.37477
 C420 C 0.41541 0.09649 0.40766
 C421 C 0.38785 0.10896 0.42167
 C422 C 0.36937 0.13071 0.40274
 H423 H 0.32640 0.16671 0.26599
 H424 H 0.28889 0.19753 0.23160
 H425 H 0.26916 0.26029 0.31954
 H426 H 0.30608 0.22881 0.35340
 H427 H 0.41305 0.13598 0.33017
 H428 H 0.44574 0.09773 0.36337
 H429 H 0.38023 0.10135 0.44697
 H430 H 0.34786 0.13948 0.41363
 C431 C 0.31817 0.69538 -0.18766
 C432 C 0.30171 0.72174 -0.17298
 C433 C 0.28000 0.73921 -0.19242
 C434 C 0.27358 0.72995 -0.22680
 C435 C 0.29158 0.70422 -0.24151
 C436 C 0.31325 0.68683 -0.22203
 C437 C 0.33994 0.67689 -0.16743
 C438 C 0.35772 0.66079 -0.15043
 C439 C 0.37812 0.64072 -0.13002
 C440 C 0.36929 0.63128 -0.09687
 C441 C 0.38782 0.60968 -0.07782
 C442 C 0.41541 0.59720 -0.09176
 C443 C 0.42458 0.60752 -0.12472
 C444 C 0.40596 0.62914 -0.14379
 H445 H 0.30586 0.72901 -0.14655
 H446 H 0.26893 0.76040 -0.18047
 H447 H 0.28871 0.69750 -0.26829
 H448 H 0.32624 0.66677 -0.23383
 H449 H 0.34777 0.64007 -0.08601
 H450 H 0.38022 0.60219 -0.05246
 H451 H 0.44571 0.59827 -0.13607
 H452 H 0.41294 0.63626 -0.16948
 C453 C 1.18755 -0.18777 -0.19093
 C454 C 1.20328 -0.17407 -0.21887
 C455 C 1.22354 -0.19368 -0.23817
 C456 C 1.22929 -0.22729 -0.22918
 C457 C 1.21163 -0.24116 -0.20222
 C458 C 1.19140 -0.22148 -0.18297
 C459 C 1.16729 -0.16729 -0.17058
 C460 C 1.15038 -0.15015 -0.15343
 C461 C 1.13008 -0.12988 -0.13291
 C462 C 1.11985 -0.09902 -0.14523
 C463 C 1.09938 -0.07980 -0.12572
 C464 C 1.08889 -0.09130 -0.09366
 C465 C 1.09966 -0.12208 -0.08125
 C466 C 1.12011 -0.14125 -0.10079
 H467 H 1.19979 -0.14820 -0.22587
 H468 H 1.23429 -0.18235 -0.26031
 H469 H 1.21399 -0.26727 -0.19568
 H470 H 1.17881 -0.23257 -0.16183
 H471 H 1.12745 -0.08997 -0.17004
 H472 H 1.09146 -0.05620 -0.13591
 H473 H 1.09197 -0.13155 -0.05665
 H474 H 1.12792 -0.16508 -0.09100
 C475 C 1.18777 0.31218 0.30914
 C476 C 1.20348 0.32589 0.28119
 C477 C 1.22373 0.30629 0.26187
 C478 C 1.22950 0.27268 0.27085
 C479 C 1.21185 0.25880 0.29781
 C480 C 1.19164 0.27847 0.31709
 C481 C 1.16753 0.33266 0.32950
 C482 C 1.15063 0.34982 0.34663
 C483 C 1.13035 0.37016 0.36710
 C484 C 1.12027 0.40107 0.35477
 C485 C 1.09981 0.42036 0.37421
 C486 C 1.08917 0.40888 0.40621
 C487 C 1.09980 0.37805 0.41865
 C488 C 1.12025 0.35881 0.39918
 H489 H 1.19998 0.35177 0.27420
 H490 H 1.23446 0.31763 0.23972
 H491 H 1.21422 0.23269 0.30434
 H492 H 1.17906 0.26737 0.33824
 H493 H 1.12798 0.41011 0.32999
 H494 H 1.09201 0.44400 0.36400
 H495 H 1.09199 0.36859 0.44320
 H496 H 1.12794 0.33494 0.40898
 C497 C 0.68248 -0.19340 0.31049
 C498 C 0.69878 -0.17750 0.28424
 C499 C 0.72053 -0.19511 0.26495
 C500 C 0.72715 -0.22891 0.27226
 C501 C 0.70932 -0.24483 0.29787
 C502 C 0.68761 -0.22715 0.31710
 C503 C 0.66052 -0.17499 0.33061
 C504 C 0.64259 -0.15908 0.34765
 C505 C 0.62200 -0.13933 0.36822
 C506 C 0.63075 -0.12992 0.40144
 C507 C 0.61195 -0.10872 0.42073
 C508 C 0.58417 -0.09664 0.40696
 C509 C 0.57509 -0.10694 0.37393
 C510 C 0.59398 -0.12815 0.35462
 H511 H 0.69444 -0.15150 0.27841
 H512 H 0.73145 -0.18221 0.24386
 H513 H 0.71234 -0.27116 0.30304
 H514 H 0.67473 -0.23986 0.33701
 H515 H 0.65241 -0.13841 0.41218
 H516 H 0.61950 -0.10124 0.44614
 H517 H 0.55380 -0.09799 0.36271
 H518 H 0.58704 -0.13527 0.32888
 C519 C 0.68262 0.30741 -0.18969
 C520 C 0.69907 0.32308 -0.21596
 C521 C 0.72068 0.30520 -0.23523
 C522 C 0.72701 0.27133 -0.22790
 C523 C 0.70900 0.25564 -0.20229
 C524 C 0.68744 0.27359 -0.18307
 C525 C 0.66081 0.32612 -0.16954
 C526 C 0.64300 0.34223 -0.15249
 C527 C 0.62249 0.36214 -0.13188
 C528 C 0.63132 0.37163 -0.09870
 C529 C 0.61250 0.39274 -0.07930
 C530 C 0.58459 0.40468 -0.09289
 C531 C 0.57547 0.39438 -0.12592
 C532 C 0.59438 0.37326 -0.14534
 H533 H 0.69499 0.34911 -0.22182
 H534 H 0.73173 0.31798 -0.25632
 H535 H 0.71180 0.22930 -0.19707
 H536 H 0.67443 0.26103 -0.16316
 H537 H 0.65304 0.36320 -0.08805
 H538 H 0.62010 0.40021 -0.05391
 H539 H 0.55410 0.40322 -0.13703
 H540 H 0.58735 0.36609 -0.17103
 C541 C 1.18695 0.18795 -0.19085
 C542 C 1.19075 0.22172 -0.18296
 C543 C 1.21097 0.24134 -0.20224
 C544 C 1.22868 0.22737 -0.22915
 C545 C 1.22299 0.19370 -0.23806
 C546 C 1.20274 0.17414 -0.21875
 C547 C 1.16669 0.16751 -0.17049
 C548 C 1.14981 0.15038 -0.15335
 C549 C 1.12956 0.13005 -0.13286
 C550 C 1.11960 0.14139 -0.10068
 C551 C 1.09924 0.12214 -0.08115
 C552 C 1.08856 0.09130 -0.09362
 C553 C 1.09903 0.07985 -0.12575
 C554 C 1.11940 0.09914 -0.14524
 H555 H 1.17812 0.23290 -0.16186
 H556 H 1.21328 0.26749 -0.19575
 H557 H 1.23378 0.18226 -0.26017
 H558 H 1.19930 0.14823 -0.22570
 H559 H 1.12734 0.16525 -0.09082
 H560 H 1.09157 0.13159 -0.05650
 H561 H 1.09118 0.05620 -0.13600
 H562 H 1.12698 0.09011 -0.17010
 C563 C 1.18644 0.68974 0.30839
 C564 C 1.19342 0.72221 0.31886
 C565 C 1.21385 0.74173 0.29972
 C566 C 1.22906 0.72879 0.27024
 C567 C 1.21955 0.69673 0.25873
 C568 C 1.19911 0.67731 0.27796
 C569 C 1.16610 0.66925 0.32869
 C570 C 1.14921 0.65203 0.34579
 C571 C 1.12900 0.63155 0.36627
 C572 C 1.11902 0.64273 0.39851
 C573 C 1.09884 0.62327 0.41808
 C574 C 1.08834 0.59233 0.40562
 C575 C 1.09880 0.58106 0.37342
 C576 C 1.11899 0.60057 0.35388
 H577 H 1.18304 0.73251 0.34188
 H578 H 1.21819 0.76697 0.30837
 H579 H 1.22783 0.68639 0.23475
 H580 H 1.19308 0.65257 0.26895
 H581 H 1.12663 0.66663 0.40840
 H582 H 1.09118 0.63261 0.44278
 H583 H 1.09110 0.55736 0.36316
 H584 H 1.12659 0.59162 0.32899
 C585 C 0.68183 0.19301 0.31034
 C586 C 0.69824 0.17721 0.28406
 C587 C 0.71988 0.19497 0.26480
 C588 C 0.72630 0.22883 0.27216
 C589 C 0.70835 0.24466 0.29778
 C590 C 0.68674 0.22683 0.31699
 C591 C 0.66000 0.17442 0.33046
 C592 C 0.64220 0.15833 0.34746
 C593 C 0.62174 0.13836 0.36797
 C594 C 0.63056 0.12898 0.40115
 C595 C 0.61187 0.10770 0.42041
 C596 C 0.58410 0.09548 0.40666
 C597 C 0.57496 0.10570 0.37365
 C598 C 0.59375 0.12700 0.35438
 H599 H 0.69408 0.15117 0.27818
 H600 H 0.73088 0.18209 0.24370
 H601 H 0.71120 0.27101 0.30301
 H602 H 0.67377 0.23949 0.33692
 H603 H 0.65219 0.13760 0.41189
 H604 H 0.61947 0.10029 0.44578
 H605 H 0.55370 0.09664 0.36244
 H606 H 0.58674 0.13408 0.32868
 C607 C 0.68209 0.69291 -0.18965
 C608 C 0.69846 0.67713 -0.21598
 C609 C 0.72006 0.69492 -0.23527
 C610 C 0.72646 0.72879 -0.22790
 C611 C 0.70852 0.74459 -0.20224
 C612 C 0.68696 0.72673 -0.18301
 C613 C 0.66033 0.67430 -0.16946
 C614 C 0.64256 0.65825 -0.15238
 C615 C 0.62211 0.63840 -0.13175
 C616 C 0.63103 0.62900 -0.09860
 C617 C 0.61229 0.60787 -0.07921
 C618 C 0.58439 0.59583 -0.09280
 C619 C 0.57518 0.60606 -0.12578
 C620 C 0.59401 0.62720 -0.14518
 H621 H 0.69433 0.65109 -0.22185
 H622 H 0.73105 0.68207 -0.25639
 H623 H 0.71137 0.77094 -0.19700
 H624 H 0.67401 0.73936 -0.16305
 H625 H 0.65275 0.63749 -0.08799
 H626 H 0.61995 0.60044 -0.05386
 H627 H 0.55382 0.59714 -0.13686
 H628 H 0.58693 0.63431 -0.17085
 C629 C 0.81257 -0.18900 -0.18957
 C630 C 0.79686 -0.21526 -0.17382
 C631 C 0.77658 -0.23512 -0.19283
 C632 C 0.77077 -0.22842 -0.22793
 C633 C 0.78840 -0.20311 -0.24380
 C634 C 0.80865 -0.18327 -0.22472
 C635 C 0.83294 -0.16819 -0.16967
 C636 C 0.84991 -0.15088 -0.15277
 C637 C 0.87027 -0.13049 -0.13240
 C638 C 0.88031 -0.14171 -0.10025
 C639 C 0.90076 -0.12243 -0.08081
 C640 C 0.91146 -0.09166 -0.09334
 C641 C 0.90091 -0.08031 -0.12543
 C642 C 0.88044 -0.09965 -0.14485
 H643 H 0.80040 -0.22054 -0.14680
 H644 H 0.76587 -0.25591 -0.17984
 H645 H 0.78601 -0.19833 -0.27106
 H646 H 0.82123 -0.16346 -0.23740
 H647 H 0.87255 -0.16551 -0.09034
 H648 H 0.90849 -0.13180 -0.05619
 H649 H 0.90877 -0.05672 -0.13573
 H650 H 0.87279 -0.09070 -0.16968
 C651 C 0.81245 0.31129 0.31008
 C652 C 0.79670 0.28514 0.32600
 C653 C 0.77640 0.26518 0.30712
 C654 C 0.77061 0.27167 0.27197
 C655 C 0.78826 0.29688 0.25594
 C656 C 0.80854 0.31681 0.27490
 C657 C 0.83286 0.33218 0.32984
 C658 C 0.84989 0.34955 0.34662
 C659 C 0.87032 0.36997 0.36688
 C660 C 0.88022 0.35889 0.39914
 C661 C 0.90074 0.37817 0.41850
 C662 C 0.91163 0.40879 0.40580
 C663 C 0.90122 0.41999 0.37360
 C664 C 0.88069 0.40066 0.35426
 H665 H 0.80024 0.28002 0.35305
 H666 H 0.76566 0.24449 0.32023
 H667 H 0.78588 0.30151 0.22866
 H668 H 0.82114 0.33653 0.26209
 H669 H 0.87231 0.33521 0.40919
 H670 H 0.90834 0.36890 0.44321
 H671 H 0.90924 0.44347 0.36317
 H672 H 0.87315 0.40949 0.32934
 C673 C 0.31673 -0.19501 0.31029
 C674 C 0.30331 -0.22382 0.32372
 C675 C 0.28158 -0.24165 0.30456
 C676 C 0.27163 -0.23035 0.27176
 C677 C 0.28720 -0.20219 0.25801
 C678 C 0.30889 -0.18447 0.27727
 C679 C 0.33849 -0.17615 0.33041
 C680 C 0.35623 -0.15982 0.34736
 C681 C 0.37665 -0.13960 0.36781
 C682 C 0.36782 -0.12995 0.40095
 C683 C 0.38653 -0.10856 0.42017
 C684 C 0.41436 -0.09649 0.40646
 C685 C 0.42348 -0.10692 0.37347
 C686 C 0.40467 -0.12833 0.35423
 H687 H 0.30983 -0.23272 0.34897
 H688 H 0.27297 -0.26460 0.31551
 H689 H 0.28246 -0.19368 0.23215
 H690 H 0.31969 -0.16259 0.26626
 H691 H 0.34617 -0.13847 0.41170
 H692 H 0.37893 -0.10099 0.44552
 H693 H 0.44478 -0.09800 0.36227
 H694 H 0.41171 -0.13560 0.32857
 C695 C 0.31745 0.30512 -0.18767
 C696 C 0.30095 0.27887 -0.17293
 C697 C 0.27930 0.26122 -0.19236
 C698 C 0.27298 0.27018 -0.22682
 C699 C 0.29102 0.29580 -0.24159
 C700 C 0.31263 0.31337 -0.22210
 C701 C 0.33918 0.32379 -0.16744
 C702 C 0.35694 0.34001 -0.15046
 C703 C 0.37737 0.36019 -0.13009
 C704 C 0.36853 0.36992 -0.09698
 C705 C 0.38716 0.39151 -0.07793
 C706 C 0.41487 0.40369 -0.09182
 C707 C 0.42403 0.39311 -0.12473
 C708 C 0.40531 0.37151 -0.14380
 H709 H 0.30502 0.27181 -0.14645
 H710 H 0.26820 0.24013 -0.18035
 H711 H 0.28822 0.30231 -0.26840
 H712 H 0.32565 0.33334 -0.23396
 H713 H 0.34694 0.36134 -0.08616
 H714 H 0.37955 0.39919 -0.05262
 H715 H 0.44525 0.40213 -0.13604
 H716 H 0.41232 0.36417 -0.16945
 C717 C 1.18644 -0.18973 0.19161
 C718 C 1.19342 -0.22220 0.18114
 C719 C 1.21385 -0.24172 0.20029
 C720 C 1.22906 -0.22878 0.22976
 C721 C 1.21955 -0.19672 0.24127
 C722 C 1.19911 -0.17730 0.22204
 C723 C 1.16610 -0.16924 0.17131
 C724 C 1.14921 -0.15202 0.15421
 C725 C 1.12900 -0.13154 0.13374
 C726 C 1.11902 -0.14272 0.10149
 C727 C 1.09884 -0.12326 0.08192
 C728 C 1.08834 -0.09233 0.09438
 C729 C 1.09880 -0.08105 0.12658
 C730 C 1.11899 -0.10056 0.14613
 H731 H 1.18304 -0.23250 0.15812
 H732 H 1.21819 -0.26696 0.19163
 H733 H 1.22783 -0.18638 0.26525
 H734 H 1.19308 -0.15256 0.23105
 H735 H 1.12663 -0.16662 0.09160
 H736 H 1.09118 -0.13260 0.05722
 H737 H 1.09110 -0.05735 0.13684
 H738 H 1.12659 -0.09161 0.17102
 C739 C 1.18695 0.31206 0.69085
 C740 C 1.19075 0.27829 0.68296
 C741 C 1.21097 0.25867 0.70224
 C742 C 1.22868 0.27264 0.72915
 C743 C 1.22299 0.30631 0.73807
 C744 C 1.20274 0.32587 0.71875
 C745 C 1.16669 0.33250 0.67049
 C746 C 1.14981 0.34963 0.65336
 C747 C 1.12956 0.36995 0.63286
 C748 C 1.11960 0.35862 0.60068
 C749 C 1.09924 0.37787 0.58115
 C750 C 1.08856 0.40871 0.59363
 C751 C 1.09903 0.42016 0.62575
 C752 C 1.11940 0.40086 0.64525
 H753 H 1.17812 0.26711 0.66187
 H754 H 1.21328 0.23252 0.69575
 H755 H 1.23378 0.31775 0.76017
 H756 H 1.19930 0.35178 0.72571
 H757 H 1.12734 0.33476 0.59082
 H758 H 1.09157 0.36842 0.55650
 H759 H 1.09118 0.44381 0.63600
 H760 H 1.12698 0.40990 0.67011
 C761 C 0.68209 -0.19290 0.68965
 C762 C 0.68696 -0.22672 0.68301
 C763 C 0.70852 -0.24458 0.70225
 C764 C 0.72646 -0.22878 0.72790
 C765 C 0.72006 -0.19491 0.73527
 C766 C 0.69846 -0.17713 0.71598
 C767 C 0.66033 -0.17429 0.66947
 C768 C 0.64256 -0.15824 0.65238
 C769 C 0.62211 -0.13839 0.63175
 C770 C 0.63103 -0.12899 0.59861
 C771 C 0.61229 -0.10786 0.57922
 C772 C 0.58439 -0.09582 0.59280
 C773 C 0.57518 -0.10605 0.62578
 C774 C 0.59401 -0.12719 0.64518
 H775 H 0.67401 -0.23935 0.66305
 H776 H 0.71137 -0.27093 0.69701
 H777 H 0.73105 -0.18206 0.75640
 H778 H 0.69433 -0.15108 0.72185
 H779 H 0.65275 -0.13748 0.58799
 H780 H 0.61995 -0.10043 0.55387
 H781 H 0.55382 -0.09714 0.63686
 H782 H 0.58693 -0.13430 0.67085
 C783 C 0.68183 0.30699 0.18966
 C784 C 0.68674 0.27317 0.18302
 C785 C 0.70835 0.25535 0.20222
 C786 C 0.72630 0.27117 0.22785
 C787 C 0.71988 0.30504 0.23520
 C788 C 0.69824 0.32279 0.21595
 C789 C 0.66000 0.32559 0.16955
 C790 C 0.64220 0.34168 0.15255
 C791 C 0.62174 0.36164 0.13203
 C792 C 0.59375 0.37301 0.14563
 C793 C 0.57496 0.39431 0.12635
 C794 C 0.58410 0.40453 0.09334
 C795 C 0.61187 0.39231 0.07960
 C796 C 0.63056 0.37103 0.09886
 H797 H 0.67377 0.26052 0.16309
 H798 H 0.71120 0.22899 0.19700
 H799 H 0.73088 0.31792 0.25630
 H800 H 0.69408 0.34884 0.22182
 H801 H 0.58674 0.36593 0.17133
 H802 H 0.55370 0.40337 0.13756
 H803 H 0.61947 0.39972 0.05422
 H804 H 0.65219 0.36241 0.08812
 C805 C 0.81245 0.18872 0.18992
 C806 C 0.79670 0.21487 0.17400
 C807 C 0.77640 0.23482 0.19289
 C808 C 0.77061 0.22834 0.22803
 C809 C 0.78826 0.20312 0.24406
 C810 C 0.80854 0.18320 0.22510
 C811 C 0.83286 0.16783 0.17016
 C812 C 0.84989 0.15046 0.15338
 C813 C 0.87032 0.13004 0.13312
 C814 C 0.88022 0.14112 0.10087
 C815 C 0.90074 0.12184 0.08150
 C816 C 0.91163 0.09122 0.09421
 C817 C 0.90122 0.08001 0.12641
 C818 C 0.88069 0.09935 0.14575
 H819 H 0.80024 0.21999 0.14695
 H820 H 0.76566 0.25552 0.17977
 H821 H 0.78588 0.19850 0.27134
 H822 H 0.82114 0.16348 0.23791
 H823 H 0.87231 0.16480 0.09081
 H824 H 0.90835 0.13111 0.05679
 H825 H 0.90924 0.05654 0.13683
 H826 H 0.87315 0.09052 0.17067
 C827 C 0.81257 0.68901 0.68958
 C828 C 0.79686 0.71527 0.67382
 C829 C 0.77658 0.73513 0.69283
 C830 C 0.77077 0.72843 0.72793
 C831 C 0.78840 0.70312 0.74381
 C832 C 0.80865 0.68328 0.72473
 C833 C 0.83294 0.66820 0.66967
 C834 C 0.84991 0.65089 0.65277
 C835 C 0.87027 0.63050 0.63241
 C836 C 0.88031 0.64172 0.60026
 C837 C 0.90076 0.62243 0.58082
 C838 C 0.91146 0.59167 0.59335
 C839 C 0.90091 0.58032 0.62544
 C840 C 0.88044 0.59966 0.64485
 H841 H 0.80040 0.72055 0.64681
 H842 H 0.76587 0.75592 0.67984
 H843 H 0.78601 0.69834 0.77106
 H844 H 0.82123 0.66347 0.73741
 H845 H 0.87255 0.66552 0.59035
 H846 H 0.90849 0.63180 0.55620
 H847 H 0.90877 0.55673 0.63573
 H848 H 0.87279 0.59071 0.66969
 C849 C 0.31745 0.19488 0.68767
 C850 C 0.30095 0.22114 0.67293
 C851 C 0.27930 0.23879 0.69237
 C852 C 0.27298 0.22982 0.72682
 C853 C 0.29102 0.20421 0.74159
 C854 C 0.31263 0.18664 0.72211
 C855 C 0.33918 0.17621 0.66745
 C856 C 0.35694 0.16000 0.65047
 C857 C 0.37737 0.13981 0.63009
 C858 C 0.36853 0.13009 0.59699
 C859 C 0.38716 0.10850 0.57794
 C860 C 0.41487 0.09632 0.59182
 C861 C 0.42403 0.10689 0.62474
 C862 C 0.40531 0.12850 0.64380
 H863 H 0.30502 0.22819 0.64645
 H864 H 0.26820 0.25988 0.68035
 H865 H 0.28822 0.19770 0.76841
 H866 H 0.32565 0.16667 0.73396
 H867 H 0.34694 0.13866 0.58616
 H868 H 0.37955 0.10082 0.55262
 H869 H 0.44525 0.09788 0.63605
 H870 H 0.41232 0.13583 0.66945
 C871 C 0.31673 0.69502 0.18971
 C872 C 0.30889 0.68448 0.22274
 C873 C 0.28720 0.70219 0.24199
 C874 C 0.27163 0.73036 0.22824
 C875 C 0.28158 0.74166 0.19545
 C876 C 0.30331 0.72382 0.17629
 C877 C 0.33849 0.67615 0.16960
 C878 C 0.35623 0.65983 0.15264
 C879 C 0.37665 0.63961 0.13219
 C880 C 0.40467 0.62833 0.14577
 C881 C 0.42348 0.60693 0.12653
 C882 C 0.41436 0.59650 0.09354
 C883 C 0.38653 0.60857 0.07983
 C884 C 0.36782 0.62995 0.09906
 H885 H 0.31969 0.66259 0.23374
 H886 H 0.28246 0.69369 0.26785
 H887 H 0.27297 0.76461 0.18450
 H888 H 0.30983 0.73273 0.15104
 H889 H 0.41171 0.63561 0.17143
 H890 H 0.44478 0.59800 0.13773
 H891 H 0.37893 0.60100 0.05448
 H892 H 0.34617 0.63848 0.08830
   
