data_POSCAR
  _audit_creation_date              2014-09-24
  _audit_creation_method            'ToBaCCo'
  _symmetry_space_group_name_H-M    'P1'
  _symmetry_Int_Tables_number       1
  _symmetry_cell_setting            triclinic
  loop_
  _symmetry_equiv_pos_as_xyz
 x,y,z
_cell_length_a 35.4227
_cell_length_b 21.0111
_cell_length_c 11.9303
_cell_angle_alpha 90.682200
_cell_angle_beta 90.107600
_cell_angle_gamma 90.398800
loop_
  _atom_site_label
  _atom_site_type_symbol
  _atom_site_fract_x
  _atom_site_fract_y
  _atom_site_fract_z
C1 C 0.71607 0.27460 0.56483
 C2 C 0.71817 0.28061 0.44687
 C3 C 0.75106 0.26286 0.39035
 C4 C 0.78198 0.23710 0.44803
 C5 C 0.77866 0.22652 0.56587
 C6 C 0.74673 0.24901 0.62301
 H7 H 0.74459 0.24289 0.71299
 H8 H 0.75244 0.26938 0.30041
 C9 C 0.22519 0.79708 0.56802
 C10 C 0.22296 0.79530 0.45009
 C11 C 0.25266 0.76929 0.38757
 C12 C 0.28337 0.74062 0.44116
 C13 C 0.28491 0.74047 0.56046
 C14 C 0.25654 0.77137 0.62209
 H15 H 0.25735 0.77126 0.71299
 H16 H 0.25119 0.76933 0.29680
 C17 C 0.27652 0.27778 -0.55785
 C18 C 0.27684 0.27245 -0.44042
 C19 C 0.24455 0.25205 -0.38469
 C20 C 0.21072 0.23873 -0.44257
 C21 C 0.21015 0.24447 -0.56231
 C22 C 0.24361 0.26261 -0.61780
 H23 H 0.24375 0.26748 -0.70821
 H24 H 0.24627 0.24508 -0.29488
 C25 C -0.21819 0.76947 -0.55394
 C26 C -0.21874 0.76762 -0.43592
 C27 C -0.25018 0.74219 -0.38095
 C28 C -0.28167 0.71932 -0.44158
 C29 C -0.28308 0.72924 -0.56041
 C30 C -0.25033 0.75125 -0.61480
 H31 H -0.25017 0.75698 -0.70501
 H32 H -0.24912 0.73749 -0.29058
 N33 N -0.03981 0.93404 0.20321
 N34 N -0.06839 0.92459 0.27206
 N35 N 0.04092 0.89638 0.12859
 N36 N 0.06977 0.85861 0.14750
 N37 N 0.03966 0.94229 0.20415
 N38 N 0.06769 0.93693 0.27656
 N39 N -0.03831 0.88830 0.12730
 N40 N -0.06570 0.84643 0.14282
 C41 C -0.08402 0.86936 0.23411
 C42 C 0.08605 0.88418 0.24052
 N43 N 0.04037 0.93459 -0.19129
 N44 N 0.07091 0.93228 -0.25412
 N45 N -0.03792 0.88330 -0.11473
 N46 N -0.06717 0.84410 -0.12331
 N47 N -0.03910 0.92640 -0.19350
 N48 N -0.06929 0.91820 -0.25697
 N49 N 0.04165 0.89147 -0.11271
 N50 N 0.07310 0.85823 -0.12050
 Mn51 Mn 0.00158 0.88901 0.00708
 C52 C 0.09104 0.88455 -0.20900
 C53 C -0.08631 0.86656 -0.21267
 N54 N 0.03509 1.07963 0.19762
 N55 N 0.06351 1.09261 0.26612
 N56 N -0.04591 1.11285 0.11698
 N57 N -0.07445 1.15192 0.13245
 N58 N -0.04422 1.07108 0.19782
 N59 N -0.07150 1.08089 0.27120
 N60 N 0.03324 1.12216 0.11798
 N61 N 0.06031 1.16520 0.12992
 Mn62 Mn -0.00228 1.00676 0.20220
 C63 C 0.07886 1.14605 0.22253
 C64 C -0.09022 1.13103 0.22831
 N65 N -0.04316 1.06267 -0.20043
 N66 N -0.07246 1.06418 -0.26834
 N67 N 0.03353 1.11681 -0.12266
 N68 N 0.06246 1.15613 -0.13229
 N69 N 0.03595 1.07035 -0.19650
 N70 N 0.06679 1.07650 -0.25718
 N71 N -0.04583 1.10726 -0.12325
 N72 N -0.07741 1.13946 -0.13583
 Mn73 Mn -0.00146 0.99841 -0.19677
 Mn74 Mn -0.00634 1.11554 -0.00287
 Cl75 Cl -0.00214 1.00239 0.00265
 C76 C -0.09402 1.11177 -0.22691
 C77 C 0.08329 1.13026 -0.21599
 N78 N 0.45690 0.38304 -0.11068
 N79 N 0.42861 0.34227 -0.12315
 N80 N 0.53545 0.42394 -0.19522
 N81 N 0.56313 0.41337 -0.26653
 N82 N 0.53629 0.38273 -0.11368
 N83 N 0.56483 0.34331 -0.12676
 N84 N 0.45632 0.42573 -0.19007
 N85 N 0.42760 0.41553 -0.25848
 C86 C 0.41076 0.36318 -0.21599
 C87 C 0.58106 0.36244 -0.22355
 N88 N 0.53820 0.60735 -0.13191
 N89 N 0.56799 0.64389 -0.15206
 N90 N 0.45812 0.56248 -0.20095
 N91 N 0.42924 0.56815 -0.26951
 N92 N 0.45837 0.60866 -0.12610
 N93 N 0.42904 0.64624 -0.14084
 N94 N 0.53691 0.55976 -0.20385
 N95 N 0.56566 0.56221 -0.27297
 Mn96 Mn 0.49663 0.49302 -0.19854
 C97 C 0.58478 0.61521 -0.24185
 C98 C 0.41079 0.61991 -0.23051
 N99 N 0.53763 0.38951 0.12679
 N100 N 0.56586 0.34992 0.14208
 N101 N 0.45895 0.43628 0.20519
 N102 N 0.43088 0.42896 0.27699
 N103 N 0.45843 0.39025 0.12982
 N104 N 0.43015 0.35065 0.14787
 N105 N 0.53876 0.43610 0.20110
 N106 N 0.56806 0.42974 0.26861
 Mn107 Mn 0.49733 0.38570 0.00822
 C108 C 0.58447 0.37553 0.23097
 C109 C 0.41342 0.37478 0.24069
 N110 N 0.46030 0.61630 0.11547
 N111 N 0.43166 0.65574 0.12735
 N112 N 0.53953 0.57326 0.19206
 N113 N 0.56782 0.58443 0.26193
 N114 N 0.53978 0.61469 0.11037
 N115 N 0.56834 0.65497 0.12209
 N116 N 0.46006 0.57375 0.19536
 N117 N 0.43121 0.58287 0.26339
 Mn118 Mn 0.49921 0.61274 -0.00805
 Mn119 Mn 0.49930 0.50492 0.19999
 Cl120 Cl 0.49806 0.49917 0.00060
 C121 C 0.41394 0.63428 0.22008
 C122 C 0.58557 0.63521 0.21665
 C123 C 0.33780 0.25641 0.33993
 C124 C 0.31065 0.29963 0.38156
 C125 C 0.31762 0.36508 0.37592
 C126 C 0.35133 0.38832 0.33186
 C127 C 0.37925 0.34671 0.29268
 C128 C 0.37297 0.27983 0.29896
 C129 C 0.33094 0.19018 0.34026
 C130 C 0.35881 0.14760 0.30684
 C131 C 0.39395 0.17009 0.27304
 C132 C 0.40115 0.23538 0.26935
 H133 H 0.30413 0.17078 0.36735
 H134 H 0.35332 0.09689 0.30887
 H135 H 0.41582 0.13675 0.24973
 H136 H 0.42926 0.25003 0.24583
 H137 H 0.29680 0.39838 0.40696
 H138 H 0.35546 0.43939 0.32739
 C139 C -0.15489 0.74913 0.35438
 C140 C -0.18425 0.79131 0.38472
 C141 C -0.18078 0.85598 0.36090
 C142 C -0.14823 0.87979 0.31080
 C143 C -0.11803 0.83977 0.28382
 C144 C -0.12111 0.77358 0.30561
 C145 C -0.15820 0.68316 0.37345
 C146 C -0.12849 0.64233 0.34835
 C147 C -0.09498 0.66635 0.30459
 C148 C -0.09112 0.73125 0.28375
 H149 H -0.18361 0.66276 0.40880
 H150 H -0.13131 0.59189 0.36408
 H151 H -0.07179 0.63452 0.28697
 H152 H -0.06427 0.74753 0.25206
 H153 H -0.20332 0.88836 0.38283
 H154 H -0.14651 0.93023 0.29334
 C155 C 0.64717 0.73726 0.41115
 C156 C 0.68369 0.71778 0.37488
 C157 C 0.68636 0.68049 0.27632
 C158 C 0.65412 0.65565 0.22428
 C159 C 0.61831 0.66751 0.26836
 C160 C 0.61437 0.70972 0.36062
 C161 C 0.64251 0.78494 0.49438
 C162 C 0.60671 0.80061 0.53397
 C163 C 0.57484 0.77049 0.48954
 C164 C 0.57844 0.72593 0.40278
 H165 H 0.66653 0.81035 0.52946
 H166 H 0.60370 0.83633 0.59941
 H167 H 0.54712 0.78268 0.52086
 H168 H 0.55289 0.70506 0.36809
 H169 H 0.71358 0.66553 0.24469
 H170 H 0.65728 0.62431 0.15216
 C171 C 0.14106 1.25624 0.40105
 C172 C 0.17730 1.23193 0.37247
 C173 C 0.17996 1.18769 0.28338
 C174 C 0.14765 1.16162 0.23387
 C175 C 0.11179 1.17952 0.27053
 C176 C 0.10808 1.22835 0.35216
 C177 C 0.13695 1.30844 0.47562
 C178 C 0.10124 1.32937 0.50760
 C179 C 0.06901 1.29982 0.46413
 C180 C 0.07224 1.25008 0.38639
 H181 H 0.16132 1.33338 0.50956
 H182 H 0.09857 1.36876 0.56628
 H183 H 0.04136 1.31615 0.48949
 H184 H 0.04652 1.22924 0.35269
 H185 H 0.20709 1.16891 0.25805
 H186 H 0.15066 1.12519 0.16949
 C187 C 0.66062 0.24890 -0.31559
 C188 C 0.68341 0.29288 -0.37595
 C189 C 0.67185 0.35627 -0.38391
 C190 C 0.63891 0.37695 -0.33332
 C191 C 0.61571 0.33509 -0.27371
 C192 C 0.62605 0.26990 -0.26609
 C193 C 0.66986 0.18353 -0.31052
 C194 C 0.64617 0.14024 -0.25754
 C195 C 0.61237 0.16044 -0.21093
 C196 C 0.60209 0.22421 -0.21611
 H197 H 0.69487 0.16454 -0.34981
 H198 H 0.65369 0.09044 -0.25482
 H199 H 0.59364 0.12625 -0.17222
 H200 H 0.57466 0.23601 -0.18357
 H201 H 0.68886 0.39062 -0.42880
 H202 H 0.63163 0.42673 -0.34058
 C203 C 0.19076 0.88580 -0.33043
 C204 C 0.19337 0.82118 -0.36388
 C205 C 0.16437 0.77851 -0.33681
 C206 C 0.13210 0.79949 -0.28165
 C207 C 0.12791 0.86377 -0.25270
 C208 C 0.15783 0.90731 -0.27355
 C209 C 0.22017 0.92949 -0.35252
 C210 C 0.21763 0.99271 -0.31663
 C211 C 0.18598 1.01338 -0.25802
 C212 C 0.15618 0.97143 -0.23707
 H213 H 0.24543 0.91499 -0.39659
 H214 H 0.24051 1.02567 -0.33325
 H215 H 0.18460 1.06215 -0.22819
 H216 H 0.13236 0.98939 -0.19007
 H217 H 0.16630 0.72887 -0.36166
 H218 H 0.10954 0.76574 -0.26568
 C219 C 0.31818 0.64024 -0.39794
 C220 C 0.31282 0.70654 -0.38110
 C221 C 0.33633 0.73955 -0.30568
 C222 C 0.36712 0.70980 -0.25679
 C223 C 0.37550 0.64578 -0.28040
 C224 C 0.35013 0.60962 -0.34993
 C225 C 0.29100 0.60311 -0.45652
 C226 C 0.29693 0.53894 -0.47875
 C227 C 0.32893 0.50967 -0.43769
 C228 C 0.35448 0.54356 -0.37082
 H229 H 0.26481 0.62344 -0.48528
 H230 H 0.27637 0.51168 -0.52679
 H231 H 0.33351 0.45979 -0.45468
 H232 H 0.37653 0.51578 -0.33469
 H233 H 0.33207 0.78982 -0.28905
 H234 H 0.38539 0.73813 -0.20270
 C235 C -0.18354 1.12839 -0.41025
 C236 C -0.19488 1.18997 -0.37398
 C237 C -0.17772 1.21703 -0.27878
 C238 C -0.14598 1.18948 -0.23158
 C239 C -0.13082 1.13270 -0.27495
 C240 C -0.15105 1.09955 -0.36179
 C241 C -0.20525 1.09365 -0.48997
 C242 C -0.19441 1.03333 -0.52574
 C243 C -0.16244 1.00569 -0.48076
 C244 C -0.14116 1.03781 -0.39980
 H245 H -0.23121 1.11239 -0.52376
 H246 H -0.21132 1.00745 -0.58687
 H247 H -0.15467 0.95795 -0.50503
 H248 H -0.11863 1.01076 -0.36466
 H249 H -0.18668 1.26301 -0.24685
 H250 H -0.13222 1.21480 -0.16311
 C251 C 0.67376 0.62792 -0.42768
 C252 C 0.68967 0.68521 -0.38386
 C253 C 0.67358 0.71225 -0.28718
 C254 C 0.63997 0.68834 -0.24351
 C255 C 0.62062 0.63731 -0.29544
 C256 C 0.63741 0.60722 -0.39140
 C257 C 0.69366 0.59055 -0.50687
 C258 C 0.67637 0.53902 -0.56065
 C259 C 0.63900 0.52422 -0.53724
 C260 C 0.61959 0.55788 -0.45457
 H261 H 0.72256 0.60179 -0.52896
 H262 H 0.69162 0.51191 -0.62326
 H263 H 0.62484 0.48622 -0.58276
 H264 H 0.59040 0.54511 -0.44601
 H265 H 0.68545 0.75511 -0.24955
 H266 H 0.62840 0.71168 -0.16994
 C267 C 0.16715 1.24186 -0.27777
 C268 C 0.17993 1.21380 -0.38041
 C269 C 0.16261 1.15728 -0.41841
 C270 C 0.13195 1.13133 -0.36296
 C271 C 0.11881 1.15768 -0.26199
 C272 C 0.13846 1.21083 -0.21410
 C273 C 0.18093 1.30164 -0.23911
 C274 C 0.17096 1.32552 -0.13399
 C275 C 0.14694 1.29085 -0.06562
 C276 C 0.13076 1.23420 -0.10485
 H277 H 0.19936 1.33074 -0.28966
 H278 H 0.18246 1.37061 -0.10470
 H279 H 0.14044 1.30829 0.01786
 H280 H 0.11341 1.20860 -0.04648
 H281 H 0.17278 1.13257 -0.49247
 H282 H 0.11856 1.08960 -0.39999
 C283 C 0.34073 0.24773 -0.35552
 C284 C 0.31050 0.29014 -0.37333
 C285 C 0.31256 0.35219 -0.33041
 C286 C 0.34498 0.37396 -0.27619
 C287 C 0.37628 0.33446 -0.26399
 C288 C 0.37434 0.27040 -0.30232
 C289 C 0.33835 0.18347 -0.39019
 C290 C 0.36907 0.14305 -0.37745
 C291 C 0.40247 0.16575 -0.32937
 C292 C 0.40521 0.22877 -0.29187
 H293 H 0.31279 0.16411 -0.42728
 H294 H 0.36701 0.09396 -0.40548
 H295 H 0.42632 0.13427 -0.32061
 H296 H 0.43168 0.24438 -0.25524
 H297 H 0.28920 0.38453 -0.34169
 H298 H 0.34589 0.42252 -0.24484
 C299 C -0.18802 0.85343 -0.31516
 C300 C -0.18669 0.79282 -0.36837
 C301 C -0.15418 0.75572 -0.35863
 C302 C -0.12228 0.77930 -0.30331
 C303 C -0.12229 0.84022 -0.25490
 C304 C -0.15571 0.87683 -0.25622
 C305 C -0.22066 0.89150 -0.31979
 C306 C -0.22191 0.95008 -0.26371
 C307 C -0.19081 0.97183 -0.20244
 C308 C -0.15787 0.93589 -0.19900
 H309 H -0.24550 0.87624 -0.36602
 H310 H -0.24716 0.97870 -0.26757
 H311 H -0.19200 1.01724 -0.15881
 H312 H -0.13424 0.95465 -0.15104
 H313 H -0.15321 0.70866 -0.39635
 H314 H -0.09698 0.75065 -0.30163
 C315 C 0.31072 0.66045 0.30005
 C316 C 0.31491 0.71447 0.37216
 C317 C 0.35073 0.74239 0.38582
 C318 C 0.38230 0.71677 0.33320
 C319 C 0.37914 0.66194 0.26639
 C320 C 0.34329 0.63339 0.24851
 C321 C 0.27523 0.63116 0.28111
 C322 C 0.27199 0.57649 0.21425
 C323 C 0.30383 0.55000 0.16463
 C324 C 0.33920 0.57810 0.18105
 H325 H 0.24977 0.64934 0.31896
 H326 H 0.24461 0.55436 0.20135
 H327 H 0.30112 0.50745 0.11310
 H328 H 0.36323 0.55615 0.14062
 H329 H 0.35438 0.78380 0.43988
 H330 H 0.40965 0.73890 0.34731
 C331 C -0.14792 1.23567 0.42557
 C332 C -0.18506 1.22059 0.38692
 C333 C -0.18912 1.18285 0.28929
 C334 C -0.15796 1.15459 0.23880
 C335 C -0.12187 1.16300 0.28402
 C336 C -0.11631 1.20456 0.37667
 C337 C -0.14137 1.28311 0.50838
 C338 C -0.10508 1.29514 0.54925
 C339 C -0.07449 1.26165 0.50630
 C340 C -0.07984 1.21727 0.41984
 H341 H -0.16428 1.31124 0.54202
 H342 H -0.10067 1.33075 0.61436
 H343 H -0.04638 1.27110 0.53840
 H344 H -0.05515 1.19379 0.38623
 H345 H -0.21684 1.17105 0.25627
 H346 H -0.16223 1.12407 0.16594
 C347 C 0.65228 0.26016 0.37109
 C348 C 0.68474 0.29973 0.38021
 C349 C 0.68421 0.36076 0.33464
 C350 C 0.65150 0.38416 0.28553
 C351 C 0.61842 0.34736 0.28120
 C352 C 0.61856 0.28459 0.32349
 C353 C 0.65260 0.19688 0.40944
 C354 C 0.61994 0.15953 0.40605
 C355 C 0.58655 0.18421 0.36363
 C356 C 0.58572 0.24604 0.32246
 H357 H 0.67806 0.17582 0.44222
 H358 H 0.62051 0.11132 0.43696
 H359 H 0.56118 0.15520 0.36220
 H360 H 0.55909 0.26326 0.29101
 H361 H 0.70896 0.39121 0.34058
 H362 H 0.65187 0.43171 0.25137
 C363 C 0.15956 0.77061 0.36170
 C364 C 0.18806 0.81523 0.39198
 C365 C 0.18212 0.88015 0.37518
 C366 C 0.14861 0.90141 0.32773
 C367 C 0.12013 0.85835 0.29507
 C368 C 0.12512 0.79226 0.31388
 C369 C 0.16424 0.70491 0.38086
 C370 C 0.13557 0.66154 0.35452
 C371 C 0.10162 0.68267 0.31019
 C372 C 0.09620 0.74727 0.29068
 H373 H 0.18987 0.68654 0.41740
 H374 H 0.13954 0.61136 0.36993
 H375 H 0.07920 0.64885 0.29173
 H376 H 0.06886 0.76124 0.25982
 H377 H 0.20355 0.91465 0.39967
 H378 H 0.14510 0.95200 0.31492
   
