data_POSCAR
  _audit_creation_date              2014-09-24
  _audit_creation_method            'ToBaCCo'
  _symmetry_space_group_name_H-M    'P1'
  _symmetry_Int_Tables_number       1
  _symmetry_cell_setting            triclinic
  loop_
  _symmetry_equiv_pos_as_xyz
 x,y,z
_cell_length_a 64.4920
_cell_length_b 64.6907
_cell_length_c 19.7452
_cell_angle_alpha 90.140500
_cell_angle_beta 90.042500
_cell_angle_gamma 119.812100
loop_
  _atom_site_label
  _atom_site_type_symbol
  _atom_site_fract_x
  _atom_site_fract_y
  _atom_site_fract_z
C1 C 0.24271 0.47199 0.53154
 C2 C 0.24480 0.47358 0.46289
 C3 C 0.22826 0.47768 0.42050
 C4 C 0.26413 0.47209 0.42678
 C5 C 0.25922 0.46775 0.57430
 C6 C 0.22501 0.47647 0.56671
 C7 C 0.20383 0.46122 0.41960
 C8 C 0.18828 0.46522 0.37987
 C9 C 0.19668 0.48593 0.33911
 C10 C 0.22167 0.50212 0.33996
 C11 C 0.23711 0.49797 0.37989
 C12 C 0.25852 0.45259 0.38428
 C13 C 0.27666 0.45077 0.35100
 C14 C 0.30058 0.46878 0.35826
 C15 C 0.30613 0.48854 0.39973
 C16 C 0.28803 0.49009 0.43425
 C17 C 0.27159 0.48339 0.62779
 C18 C 0.28905 0.48120 0.66370
 C19 C 0.29473 0.46347 0.64641
 C20 C 0.28132 0.44698 0.59534
 C21 C 0.26350 0.44889 0.56040
 C22 C 0.22884 0.49969 0.57239
 C23 C 0.21202 0.50392 0.60471
 C24 C 0.19072 0.48491 0.63074
 C25 C 0.18705 0.46160 0.62461
 C26 C 0.20419 0.45749 0.59371
 H27 H 0.19680 0.44502 0.44903
 H28 H 0.16987 0.45109 0.37922
 H29 H 0.22965 0.51883 0.31307
 H30 H 0.25602 0.51094 0.38022
 H31 H 0.24013 0.43862 0.37787
 H32 H 0.27204 0.43548 0.31885
 H33 H 0.29258 0.50533 0.46657
 H34 H 0.26837 0.49785 0.64036
 H35 H 0.29841 0.49372 0.70425
 H36 H 0.28514 0.43309 0.58052
 H37 H 0.25359 0.43609 0.52095
 H38 H 0.24495 0.51455 0.55214
 H39 H 0.21587 0.52215 0.60969
 H40 H 0.17076 0.44641 0.64251
 H41 H 0.20097 0.43943 0.58931
 H42 H 0.32449 0.50260 0.40593
 C43 C 0.49798 -0.24713 0.53172
 C44 C 0.50167 -0.24553 0.46351
 C45 C 0.50854 -0.26142 0.42723
 C46 C 0.49815 -0.22838 0.42200
 C47 C 0.49525 -0.22885 0.57032
 C48 C 0.49591 -0.26763 0.57083
 C49 C 0.52730 -0.26461 0.45105
 C50 C 0.53294 -0.28035 0.41835
 C51 C 0.52028 -0.29284 0.36017
 C52 C 0.50226 -0.28873 0.33469
 C53 C 0.49641 -0.27326 0.36797
 C54 C 0.51671 -0.21177 0.38108
 C55 C 0.51359 -0.19534 0.34293
 C56 C 0.49167 -0.19559 0.34398
 C57 C 0.47292 -0.21260 0.38379
 C58 C 0.47616 -0.22881 0.42264
 C59 C 0.47686 -0.23588 0.61808
 C60 C 0.47451 -0.21887 0.65574
 C61 C 0.49043 -0.19442 0.64620
 C62 C 0.50889 -0.18744 0.59846
 C63 C 0.51146 -0.20447 0.56166
 C64 C 0.47756 -0.29080 0.55657
 C65 C 0.47505 -0.31000 0.59512
 C66 C 0.49112 -0.30654 0.64842
 C67 C 0.50961 -0.28304 0.66187
 C68 C 0.51172 -0.26384 0.62415
 H69 H 0.53743 -0.25509 0.49548
 H70 H 0.54685 -0.28312 0.43956
 H71 H 0.49258 -0.29754 0.28898
 H72 H 0.48213 -0.27081 0.34800
 H73 H 0.53373 -0.21130 0.37962
 H74 H 0.52822 -0.18255 0.31209
 H75 H 0.46153 -0.24171 0.45329
 H76 H 0.46429 -0.25458 0.62625
 H77 H 0.46039 -0.22492 0.69301
 H78 H 0.52131 -0.16879 0.58912
 H79 H 0.52620 -0.19859 0.52652
 H80 H 0.46509 -0.29399 0.51571
 H81 H 0.46099 -0.32762 0.58094
 H82 H 0.52194 -0.27911 0.70352
 H83 H 0.52579 -0.24597 0.63639
 H84 H 0.45590 -0.21309 0.38568
 C85 C 1.25281 0.74824 0.54350
 C86 C 1.25291 0.75135 0.47498
 C87 C 1.27087 0.77372 0.44142
 C88 C 1.23370 0.73298 0.43111
 C89 C 1.23150 0.72868 0.57755
 C90 C 1.27295 0.76480 0.58855
 C91 C 1.27564 0.79604 0.46581
 C92 C 1.29231 0.81695 0.43349
 C93 C 1.30448 0.81624 0.37467
 C94 C 1.29899 0.79350 0.34987
 C95 C 1.28246 0.77266 0.38274
 C96 C 1.22006 0.73925 0.38948
 C97 C 1.20025 0.72173 0.35427
 C98 C 1.19374 0.69757 0.35958
 C99 C 1.20815 0.69147 0.39866
 C100 C 1.22799 0.70901 0.43377
 C101 C 1.23399 0.71336 0.62253
 C102 C 1.21408 0.69551 0.65627
 C103 C 1.19098 0.69243 0.64581
 C104 C 1.18889 0.70808 0.59989
 C105 C 1.20885 0.72611 0.56747
 C106 C 1.29691 0.77289 0.57147
 C107 C 1.31544 0.78845 0.61448
 C108 C 1.31051 0.79568 0.67721
 C109 C 1.28633 0.78685 0.69462
 C110 C 1.26795 0.77190 0.65075
 H111 H 1.26651 0.79731 0.51028
 H112 H 1.29604 0.83358 0.45681
 H113 H 1.30658 0.79139 0.30340
 H114 H 1.27865 0.75559 0.36211
 H115 H 1.22420 0.75763 0.38631
 H116 H 1.18981 0.72707 0.32354
 H117 H 1.23846 0.70381 0.46490
 H118 H 1.25144 0.71537 0.63205
 H119 H 1.21734 0.68497 0.69251
 H120 H 1.17182 0.70628 0.58659
 H121 H 1.20656 0.73807 0.53398
 H122 H 1.30133 0.76706 0.52497
 H123 H 1.33358 0.79392 0.59946
 H124 H 1.28137 0.79236 0.74072
 H125 H 1.24967 0.76607 0.66531
 H126 H 1.20360 0.67304 0.40411
 C127 C 0.75465 0.49520 0.53069
 C128 C 0.75597 0.49985 0.46304
 C129 C 0.77312 0.49736 0.41819
 C130 C 0.73948 0.50669 0.43031
 C131 C 0.73410 0.49252 0.57128
 C132 C 0.77313 0.49209 0.56720
 C133 C 0.78764 0.51579 0.37362
 C134 C 0.80358 0.51346 0.33066
 C135 C 0.80513 0.49253 0.33095
 C136 C 0.79029 0.47395 0.37493
 C137 C 0.77438 0.47630 0.41792
 C138 C 0.73700 0.52566 0.45574
 C139 C 0.72077 0.53136 0.42625
 C140 C 0.70696 0.51840 0.37012
 C141 C 0.71017 0.50001 0.34331
 C142 C 0.72624 0.49422 0.37312
 C143 C 0.71090 0.47422 0.55662
 C144 C 0.69156 0.47155 0.59510
 C145 C 0.69489 0.48742 0.64877
 C146 C 0.71847 0.50569 0.66314
 C147 C 0.73781 0.50798 0.62538
 C148 C 0.76620 0.47355 0.61389
 C149 C 0.78326 0.47084 0.65026
 C150 C 0.80801 0.48658 0.64092
 C151 C 0.81471 0.50520 0.59342
 C152 C 0.79755 0.50806 0.55800
 H153 H 0.78674 0.53206 0.37249
 H154 H 0.81452 0.52793 0.29665
 H155 H 0.79120 0.45769 0.37671
 H156 H 0.76300 0.46166 0.45093
 H157 H 0.74747 0.53590 0.49890
 H158 H 0.71869 0.54556 0.44824
 H159 H 0.72808 0.47972 0.35217
 H160 H 0.70778 0.46202 0.51511
 H161 H 0.67392 0.45764 0.58027
 H162 H 0.72231 0.51781 0.70525
 H163 H 0.75570 0.52201 0.63792
 H164 H 0.74744 0.46115 0.62273
 H165 H 0.77661 0.45685 0.68765
 H166 H 0.83318 0.51740 0.58129
 H167 H 0.80342 0.52285 0.52327
 H168 H 0.70022 0.49005 0.29915
 C169 C 0.48700 0.24654 0.52533
 C170 C 0.48608 0.24668 0.45652
 C171 C 0.48362 0.26550 0.42107
 C172 C 0.48875 0.22925 0.41373
 C173 C 0.49193 0.22971 0.56307
 C174 C 0.48492 0.26479 0.56529
 C175 C 0.46166 0.26035 0.39244
 C176 C 0.45899 0.27844 0.36232
 C177 C 0.47840 0.30181 0.35942
 C178 C 0.50045 0.30680 0.38748
 C179 C 0.50300 0.28881 0.41837
 C180 C 0.47472 0.20463 0.42464
 C181 C 0.47780 0.18854 0.38445
 C182 C 0.49468 0.19675 0.33173
 C183 C 0.50824 0.22138 0.31989
 C184 C 0.50531 0.23743 0.36046
 C185 C 0.51408 0.23076 0.55771
 C186 C 0.51858 0.21481 0.59384
 C187 C 0.50080 0.19708 0.63534
 C188 C 0.47858 0.19639 0.64025
 C189 C 0.47438 0.21270 0.60528
 C190 C 0.50531 0.28348 0.59499
 C191 C 0.50452 0.30282 0.62361
 C192 C 0.48310 0.30390 0.62390
 C193 C 0.46239 0.28422 0.59637
 C194 C 0.46335 0.26500 0.56734
 H195 H 0.44654 0.24242 0.39452
 H196 H 0.44188 0.27417 0.34059
 H197 H 0.51561 0.32471 0.38626
 H198 H 0.52003 0.29302 0.44056
 H199 H 0.46138 0.19784 0.46426
 H200 H 0.46718 0.16970 0.39531
 H201 H 0.51620 0.25632 0.35060
 H202 H 0.52786 0.24391 0.52536
 H203 H 0.53570 0.21587 0.58649
 H204 H 0.46459 0.18390 0.67327
 H205 H 0.45727 0.21189 0.61059
 H206 H 0.52221 0.28371 0.59276
 H207 H 0.52127 0.31746 0.64126
 H208 H 0.44516 0.28320 0.59776
 H209 H 0.44738 0.25052 0.54489
 H210 H 0.52104 0.22829 0.27889
 C211 C 0.73505 0.26660 0.54220
 C212 C 0.73860 0.26289 0.47636
 C213 C 0.72083 0.24171 0.43749
 C214 C 0.76112 0.27973 0.44202
 C215 C 0.75388 0.28707 0.58037
 C216 C 0.71427 0.24881 0.58162
 C217 C 0.72750 0.22598 0.40897
 C218 C 0.71045 0.20483 0.37810
 C219 C 0.68640 0.19906 0.37444
 C220 C 0.67989 0.21527 0.40063
 C221 C 0.69696 0.23641 0.43184
 C222 C 0.78119 0.27680 0.44698
 C223 C 0.80304 0.29380 0.41963
 C224 C 0.80523 0.31412 0.38718
 C225 C 0.78494 0.31683 0.38185
 C226 C 0.76306 0.29975 0.40906
 C227 C 0.75342 0.30835 0.58699
 C228 C 0.77181 0.32779 0.62136
 C229 C 0.79150 0.32661 0.64906
 C230 C 0.79154 0.30484 0.64104
 C231 C 0.77288 0.28537 0.60814
 C232 C 0.69961 0.25550 0.61675
 C233 C 0.68017 0.23872 0.65450
 C234 C 0.67512 0.21495 0.65793
 C235 C 0.68995 0.20839 0.62274
 C236 C 0.70948 0.22519 0.58586
 H237 H 0.74574 0.22960 0.41253
 H238 H 0.71606 0.19288 0.35740
 H239 H 0.66148 0.21127 0.39876
 H240 H 0.69146 0.24838 0.45302
 H241 H 0.78004 0.26159 0.47324
 H242 H 0.81822 0.29103 0.42387
 H243 H 0.74778 0.30240 0.40587
 H244 H 0.73879 0.30991 0.56558
 H245 H 0.76991 0.34336 0.62724
 H246 H 0.80634 0.30268 0.65716
 H247 H 0.77359 0.26907 0.60260
 H248 H 0.70311 0.27368 0.61471
 H249 H 0.66932 0.24442 0.68172
 H250 H 0.68640 0.19018 0.62326
 H251 H 0.72086 0.21974 0.56041
 H252 H 0.78611 0.33244 0.35812
 O253 O 1.04312 0.54816 0.12274
 O254 O 1.06583 0.53525 0.06723
 C255 C 1.06339 0.54919 0.10973
 O256 O 0.96196 0.44500 0.12541
 O257 O 0.94110 0.45609 0.05438
 C258 C 0.94214 0.44294 0.10206
 O259 O 1.02831 0.47056 0.14274
 O260 O 1.05876 0.49803 0.07685
 C261 C 1.05075 0.48322 0.12715
 O262 O 0.97721 0.52654 0.10770
 O263 O 0.94823 0.49477 0.04821
 C264 C 0.95514 0.51263 0.08957
 Zr265 Zr 1.00840 0.52505 0.08289
 O266 O 1.00456 0.52618 0.18911
 O267 O 1.01731 0.56117 0.07475
 Zr268 Zr 0.99795 0.46853 0.09593
 O269 O 0.99365 0.46922 0.20202
 O270 O 0.99443 0.43426 0.10301
 O271 O 1.02399 0.50438 0.10572
 O272 O 0.98260 0.48989 0.09868
 O273 O 0.98009 0.52217 -0.12664
 O274 O 0.94968 0.49262 -0.06524
 C275 C 0.95764 0.50895 -0.11145
 O276 O 1.03203 0.46515 -0.10394
 O277 O 1.06081 0.49636 -0.04194
 C278 C 1.05402 0.47915 -0.08541
 O279 O 0.96520 0.43927 -0.10355
 O280 O 0.94257 0.45400 -0.05653
 C281 C 0.94496 0.43846 -0.09222
 O282 O 1.04579 0.54314 -0.12164
 O283 O 1.06745 0.53321 -0.04975
 C284 C 1.06576 0.54531 -0.09968
 Zr285 Zr 1.01034 0.52142 -0.08759
 O286 O 1.00901 0.51759 -0.19430
 O287 O 1.01924 0.55747 -0.09756
 Zr288 Zr 1.00036 0.46517 -0.07456
 O289 O 0.99892 0.46329 -0.18170
 O290 O 0.99688 0.43091 -0.07094
 Zr291 Zr 1.03932 0.50731 0.00936
 Zr292 Zr 0.96931 0.48280 -0.00111
 O293 O 0.98498 0.48579 -0.09658
 O294 O 1.02657 0.50045 -0.09122
 O295 O 0.98916 0.52028 -0.00638
 O296 O 1.01890 0.46993 0.01486
 O297 O 1.03054 0.53446 -0.00033
 O298 O 0.97747 0.45516 0.00856
 H299 H 0.97142 0.48682 0.13671
 H300 H 1.02725 0.46064 0.01965
 H301 H 0.97461 0.48108 -0.13730
 H302 H 1.04350 0.55131 -0.00161
 H303 H 0.97958 0.42292 0.07902
 H304 H 0.98550 0.42212 -0.03418
 H305 H 1.01483 0.47523 -0.19889
 H306 H 1.02158 0.51387 -0.20758
 H307 H 1.00787 0.55978 -0.06942
 H308 H 1.00520 0.56174 0.04528
 H309 H 1.01641 0.52281 0.21064
 H310 H 1.00738 0.48408 0.21938
 O311 O 0.55730 0.52342 0.13281
 O312 O 0.55511 0.49442 0.06098
 C313 C 0.56324 0.50774 0.11443
 O314 O 0.45115 0.48307 0.08769
 O315 O 0.45987 0.51776 0.03358
 C316 C 0.44635 0.49975 0.07161
 O317 O 0.48739 0.45170 0.09725
 O318 O 0.52234 0.46087 0.04320
 C319 C 0.50474 0.44764 0.08296
 O320 O 0.52472 0.55842 0.12254
 O321 O 0.49433 0.55294 0.05083
 C322 C 0.50848 0.56330 0.10166
 Zr323 Zr 0.53242 0.53182 0.08740
 O324 O 0.52642 0.52924 0.19318
 O325 O 0.56560 0.56346 0.10086
 Zr326 Zr 0.48117 0.47930 0.06229
 O327 O 0.47463 0.47596 0.16785
 O328 O 0.45061 0.44549 0.04563
 O329 O 0.51713 0.49481 0.08926
 O330 O 0.49549 0.51499 0.08566
 O331 O 0.53642 0.56814 -0.10762
 O332 O 0.49998 0.55799 -0.06109
 C333 C 0.51897 0.57218 -0.09540
 O334 O 0.49858 0.46092 -0.14514
 O335 O 0.52768 0.46516 -0.07057
 C336 C 0.51409 0.45528 -0.12269
 O337 O 0.46097 0.49066 -0.14345
 O338 O 0.46536 0.52221 -0.07930
 C339 C 0.45489 0.50633 -0.12635
 O340 O 0.56928 0.53394 -0.11231
 O341 O 0.56119 0.49953 -0.05713
 C342 C 0.57408 0.51726 -0.09701
 Zr343 Zr 0.54054 0.53873 -0.08128
 O344 O 0.54525 0.54513 -0.18672
 O345 O 0.57270 0.57040 -0.05865
 Zr346 Zr 0.48959 0.48634 -0.10757
 O347 O 0.49516 0.49397 -0.21240
 O348 O 0.45949 0.45293 -0.13056
 Zr349 Zr 0.52922 0.49199 -0.00767
 Zr350 Zr 0.49237 0.52596 -0.01235
 O351 O 0.50484 0.52302 -0.10824
 O352 O 0.52675 0.50284 -0.10637
 O353 O 0.52911 0.54942 0.00348
 O354 O 0.49236 0.46912 -0.02300
 O355 O 0.55098 0.52891 0.00617
 O356 O 0.47033 0.48891 -0.02596
 H357 H 0.48808 0.51858 0.12453
 H358 H 0.48597 0.45174 -0.02778
 H359 H 0.50103 0.52993 -0.14785
 H360 H 0.56838 0.53553 0.01291
 H361 H 0.43905 0.44799 0.01892
 H362 H 0.44792 0.44933 -0.09349
 H363 H 0.50917 0.49256 -0.22604
 H364 H 0.54246 0.53016 -0.20840
 H365 H 0.57998 0.57758 -0.10282
 H366 H 0.56568 0.57559 0.07024
 H367 H 0.52291 0.51315 0.20708
 H368 H 0.48902 0.47740 0.19021
 O369 O 0.52097 -0.02243 0.13595
 O370 O 0.49421 -0.05213 0.06609
 C371 C 0.50847 -0.04465 0.11802
 O372 O 0.46494 0.02897 0.09226
 O373 O 0.49812 0.05850 0.03933
 C374 C 0.47930 0.05115 0.07703
 O375 O 0.44339 -0.03644 0.10547
 O376 O 0.45698 -0.05862 0.05072
 C377 C 0.44256 -0.05651 0.09208
 O378 O 0.54634 0.04396 0.12526
 O379 O 0.53648 0.06550 0.05332
 C380 C 0.54863 0.06396 0.10334
 Zr381 Zr 0.52329 0.00838 0.09132
 O382 O 0.51955 0.01127 0.19692
 O383 O 0.55749 0.01205 0.10628
 Zr384 Zr 0.46697 -0.00187 0.06745
 O385 O 0.46276 0.00091 0.17278
 O386 O 0.43102 -0.01092 0.04988
 O387 O 0.48722 -0.01764 0.09430
 O388 O 0.50183 0.02366 0.09003
 O389 O 0.55689 0.04267 -0.10239
 O390 O 0.54154 0.06503 -0.05787
 C391 C 0.55777 0.06282 -0.09060
 O392 O 0.45546 -0.03646 -0.14514
 O393 O 0.46169 -0.05916 -0.06736
 C394 C 0.45239 -0.05665 -0.12283
 O395 O 0.47436 0.02853 -0.14015
 O396 O 0.50272 0.05843 -0.07392
 C397 C 0.48703 0.05076 -0.12235
 O398 O 0.53037 -0.02377 -0.10854
 O399 O 0.49802 -0.05301 -0.05186
 C400 C 0.51577 -0.04593 -0.09345
 Zr401 Zr 0.53024 0.00769 -0.07797
 O402 O 0.53478 0.01051 -0.18444
 O403 O 0.56430 0.01075 -0.06743
 Zr404 Zr 0.47422 -0.00206 -0.10149
 O405 O 0.47853 0.00071 -0.20787
 O406 O 0.43783 -0.01178 -0.11300
 Zr407 Zr 0.48629 -0.03202 -0.00236
 Zr408 Zr 0.51114 0.03807 -0.00807
 O409 O 0.51010 0.02330 -0.10386
 O410 O 0.49539 -0.01808 -0.10124
 O411 O 0.53854 0.02971 0.00683
 O412 O 0.45926 -0.02328 -0.01731
 O413 O 0.52360 -0.01170 0.01001
 O414 O 0.47371 0.01831 -0.02037
 H415 H 0.50402 0.03433 0.12876
 H416 H 0.44256 -0.03644 -0.02222
 H417 H 0.51566 0.03403 -0.14363
 H418 H 0.53286 -0.02004 0.01589
 H419 H 0.43120 0.00203 0.02291
 H420 H 0.43571 0.00101 -0.09249
 H421 H 0.48755 -0.00737 -0.22057
 H422 H 0.52358 -0.00522 -0.20440
 H423 H 0.57255 0.02207 -0.02993
 H424 H 0.56927 0.02664 0.08247
 H425 H 0.50561 -0.00380 0.21208
 H426 H 0.46834 -0.00899 0.19591
 C427 C 1.15651 0.47852 0.31524
 C428 C 1.14066 0.48225 0.27554
 C429 C 1.14926 0.49793 0.21999
 C430 C 1.17367 0.50973 0.20532
 C431 C 1.18944 0.50591 0.24481
 C432 C 1.18132 0.49003 0.30069
 C433 C 1.13331 0.50150 0.17996
 C434 C 1.10880 0.48945 0.19496
 C435 C 1.10027 0.47385 0.25100
 C436 C 1.11623 0.47043 0.29101
 C437 C 1.07586 0.46176 0.26603
 C438 C 1.05992 0.46493 0.22577
 C439 C 1.06805 0.48030 0.16962
 C440 C 1.09263 0.49263 0.15470
 H441 H 1.14921 0.46741 0.35946
 H442 H 1.18059 0.52171 0.16251
 H443 H 1.20779 0.51467 0.22809
 H444 H 1.13993 0.51353 0.13712
 H445 H 1.10960 0.45840 0.33385
 H446 H 1.06906 0.44975 0.30883
 H447 H 1.04113 0.45522 0.23877
 H448 H 1.09919 0.50456 0.11168
 C449 C 0.50643 0.66829 0.30017
 C450 C 0.51082 0.65147 0.26838
 C451 C 0.53439 0.65541 0.26443
 C452 C 0.55323 0.67635 0.29203
 C453 C 0.54874 0.69324 0.32285
 C454 C 0.52530 0.68941 0.32719
 C455 C 0.53869 0.63844 0.23261
 C456 C 0.51972 0.61783 0.20366
 C457 C 0.49621 0.61421 0.20710
 C458 C 0.49190 0.63087 0.24001
 C459 C 0.47732 0.59406 0.17689
 C460 C 0.48161 0.57772 0.14281
 C461 C 0.50479 0.58094 0.13914
 C462 C 0.52382 0.60091 0.17042
 H463 H 0.48821 0.66478 0.30434
 H464 H 0.57145 0.67977 0.28927
 H465 H 0.56369 0.70945 0.34250
 H466 H 0.55676 0.64140 0.22971
 H467 H 0.47383 0.62796 0.24270
 H468 H 0.45923 0.59104 0.17906
 H469 H 0.46666 0.56234 0.11970
 H470 H 0.54177 0.60356 0.16739
 C471 C 0.33959 -0.16207 0.29992
 C472 C 0.35627 -0.14120 0.26677
 C473 C 0.35542 -0.11998 0.27529
 C474 C 0.33775 -0.12006 0.31646
 C475 C 0.32104 -0.14092 0.34892
 C476 C 0.32153 -0.16245 0.34152
 C477 C 0.37222 -0.09904 0.24250
 C478 C 0.38982 -0.09914 0.20093
 C479 C 0.39053 -0.12049 0.19211
 C480 C 0.37386 -0.14131 0.22527
 C481 C 0.40789 -0.12071 0.15014
 C482 C 0.42450 -0.09998 0.11728
 C483 C 0.42427 -0.07849 0.12606
 C484 C 0.40676 -0.07825 0.16806
 H485 H 0.34153 -0.17767 0.29476
 H486 H 0.33666 -0.10399 0.32307
 H487 H 0.30722 -0.14006 0.37759
 H488 H 0.37158 -0.08273 0.24927
 H489 H 0.37452 -0.15763 0.21853
 H490 H 0.40865 -0.13692 0.14270
 H491 H 0.43767 -0.10083 0.08520
 H492 H 0.40627 -0.06188 0.17521
 C493 C 0.84563 0.50938 0.27761
 C494 C 0.86219 0.50696 0.23716
 C495 C 0.85534 0.48506 0.20415
 C496 C 0.83197 0.46604 0.21171
 C497 C 0.81563 0.46855 0.25240
 C498 C 0.82231 0.49016 0.28606
 C499 C 0.87204 0.48240 0.16509
 C500 C 0.89562 0.50125 0.15948
 C501 C 0.90242 0.52320 0.19216
 C502 C 0.88562 0.52597 0.23031
 C503 C 0.92609 0.54186 0.18745
 C504 C 0.94307 0.53861 0.15249
 C505 C 0.93665 0.51675 0.12075
 C506 C 0.91271 0.49828 0.12335
 H507 H 0.85109 0.52603 0.30396
 H508 H 0.82637 0.44915 0.18661
 H509 H 0.79769 0.45359 0.25729
 H510 H 0.86681 0.46553 0.14022
 H511 H 0.89091 0.54277 0.25573
 H512 H 0.93159 0.55880 0.21208
 H513 H 0.96135 0.55315 0.15104
 H514 H 0.90755 0.48125 0.09963
 C515 C 0.49305 0.33590 0.27912
 C516 C 0.49132 0.35450 0.24855
 C517 C 0.47233 0.35852 0.26588
 C518 C 0.45509 0.34341 0.31267
 C519 C 0.45681 0.32469 0.34239
 C520 C 0.47592 0.32097 0.32636
 C521 C 0.47099 0.37757 0.23634
 C522 C 0.48828 0.39248 0.18925
 C523 C 0.50691 0.38799 0.17112
 C524 C 0.50836 0.36915 0.20101
 C525 C 0.52393 0.40246 0.12337
 C526 C 0.52279 0.42144 0.09430
 C527 C 0.50479 0.42665 0.11291
 C528 C 0.48738 0.41186 0.16013
 H529 H 0.50766 0.33289 0.26589
 H530 H 0.44036 0.34613 0.32650
 H531 H 0.44348 0.31340 0.37896
 H532 H 0.45656 0.38081 0.25007
 H533 H 0.52281 0.36593 0.18739
 H534 H 0.53819 0.39914 0.10857
 H535 H 0.53629 0.43222 0.05746
 H536 H 0.47329 0.41549 0.17460
 C537 C 0.65051 0.17484 0.30062
 C538 C 0.63345 0.15300 0.27198
 C539 C 0.63386 0.13192 0.28815
 C540 C 0.65136 0.13306 0.33259
 C541 C 0.66837 0.15487 0.36043
 C542 C 0.66816 0.17596 0.34474
 C543 C 0.61689 0.11009 0.25935
 C544 C 0.59967 0.10910 0.21390
 C545 C 0.59939 0.13024 0.19757
 C546 C 0.61616 0.15200 0.22694
 C547 C 0.58246 0.12936 0.15150
 C548 C 0.56609 0.10782 0.12129
 C549 C 0.56603 0.08657 0.13706
 C550 C 0.58287 0.08736 0.18392
 H551 H 0.65032 0.19101 0.28763
 H552 H 0.65194 0.11710 0.34569
 H553 H 0.68159 0.15522 0.39498
 H554 H 0.61723 0.09394 0.27183
 H555 H 0.61587 0.16816 0.21428
 H556 H 0.58201 0.14538 0.13833
 H557 H 0.55346 0.10789 0.08529
 H558 H 0.58317 0.07120 0.19631
 C559 C 0.48606 0.15737 -0.31422
 C560 C 0.49007 0.14091 -0.27866
 C561 C 0.51328 0.14755 -0.25552
 C562 C 0.53223 0.17033 -0.27018
 C563 C 0.52823 0.18648 -0.30698
 C564 C 0.50503 0.18047 -0.32893
 C565 C 0.51719 0.13126 -0.21851
 C566 C 0.49822 0.10818 -0.20599
 C567 C 0.47515 0.10133 -0.23125
 C568 C 0.47117 0.11780 -0.26665
 C569 C 0.45642 0.07802 -0.22103
 C570 C 0.46045 0.06160 -0.18622
 C571 C 0.48315 0.06830 -0.15967
 C572 C 0.50197 0.09172 -0.16932
 H573 H 0.46820 0.15161 -0.33284
 H574 H 0.55018 0.17573 -0.25298
 H575 H 0.54334 0.20408 -0.31522
 H576 H 0.53497 0.13646 -0.20007
 H577 H 0.45339 0.11256 -0.28528
 H578 H 0.43866 0.07245 -0.24032
 H579 H 0.44569 0.04368 -0.17910
 H580 H 0.51957 0.09696 -0.14945
 C581 C 0.67571 0.50551 -0.28452
 C582 C 0.65596 0.50362 -0.24926
 C583 C 0.63537 0.48108 -0.24064
 C584 C 0.63480 0.46086 -0.26825
 C585 C 0.65429 0.46292 -0.30477
 C586 C 0.67516 0.48526 -0.31352
 C587 C 0.61557 0.47918 -0.20557
 C588 C 0.61586 0.49969 -0.18089
 C589 C 0.63632 0.52230 -0.19081
 C590 C 0.65634 0.52408 -0.22399
 C591 C 0.63627 0.54286 -0.16854
 C592 C 0.61599 0.54111 -0.13775
 C593 C 0.59566 0.51876 -0.12717
 C594 C 0.59579 0.49805 -0.14800
 H595 H 0.69093 0.52310 -0.29232
 H596 H 0.61919 0.44340 -0.26197
 H597 H 0.65315 0.44669 -0.32386
 H598 H 0.59979 0.46185 -0.19877
 H599 H 0.67204 0.54144 -0.23130
 H600 H 0.65176 0.56032 -0.17596
 H601 H 0.61621 0.55726 -0.12187
 H602 H 0.57999 0.48079 -0.14083
 C603 C 0.82631 0.34346 -0.27307
 C604 C 0.84605 0.36298 -0.24294
 C605 C 0.85009 0.38623 -0.25373
 C606 C 0.83440 0.38954 -0.29527
 C607 C 0.81516 0.37008 -0.32697
 C608 C 0.81069 0.34652 -0.31710
 C609 C 0.86992 0.40578 -0.22364
 C610 C 0.88614 0.40231 -0.18455
 C611 C 0.88227 0.37898 -0.17496
 C612 C 0.86204 0.35947 -0.20307
 C613 C 0.89896 0.37554 -0.13845
 C614 C 0.91947 0.39505 -0.11226
 C615 C 0.92329 0.41820 -0.12052
 C616 C 0.90647 0.42178 -0.15605
 H617 H 0.82317 0.32591 -0.26021
 H618 H 0.83733 0.40730 -0.30467
 H619 H 0.80460 0.37405 -0.36139
 H620 H 0.87299 0.42366 -0.23181
 H621 H 0.85908 0.34161 -0.19532
 H622 H 0.89631 0.35780 -0.13093
 H623 H 0.93227 0.39206 -0.08468
 H624 H 0.90960 0.43970 -0.16321
 C625 C 0.50829 -0.15526 -0.29200
 C626 C 0.50601 -0.13800 -0.25487
 C627 C 0.48302 -0.14199 -0.23783
 C628 C 0.46273 -0.16298 -0.25910
 C629 C 0.46516 -0.17989 -0.29704
 C630 C 0.48792 -0.17630 -0.31373
 C631 C 0.48066 -0.12487 -0.20030
 C632 C 0.50099 -0.10359 -0.18077
 C633 C 0.52399 -0.09935 -0.19889
 C634 C 0.52637 -0.11672 -0.23511
 C635 C 0.54420 -0.07764 -0.18127
 C636 C 0.54163 -0.06017 -0.14664
 C637 C 0.51887 -0.06443 -0.12769
 C638 C 0.49864 -0.08626 -0.14445
 H639 H 0.52598 -0.15234 -0.30342
 H640 H 0.44497 -0.16623 -0.24696
 H641 H 0.44914 -0.19567 -0.31408
 H642 H 0.46301 -0.12797 -0.18703
 H643 H 0.54400 -0.11355 -0.24874
 H644 H 0.56195 -0.07404 -0.19507
 H645 H 0.55741 -0.04339 -0.13430
 H646 H 0.48097 -0.08946 -0.13107
 C647 C 0.33597 0.48453 -0.30356
 C648 C 0.35567 0.48450 -0.27379
 C649 C 0.35515 0.46269 -0.26236
 C650 C 0.33464 0.44124 -0.27980
 C651 C 0.31486 0.44139 -0.30840
 C652 C 0.31532 0.46303 -0.32089
 C653 C 0.37507 0.46273 -0.23344
 C654 C 0.39525 0.48429 -0.21442
 C655 C 0.39544 0.50603 -0.22458
 C656 C 0.37582 0.50602 -0.25500
 C657 C 0.41514 0.52748 -0.20323
 C658 C 0.43440 0.52741 -0.17142
 C659 C 0.43466 0.50605 -0.16198
 C660 C 0.41509 0.48450 -0.18420
 H661 H 0.33692 0.50141 -0.31412
 H662 H 0.33382 0.42432 -0.27095
 H663 H 0.29915 0.42453 -0.32026
 H664 H 0.37475 0.44601 -0.22502
 H665 H 0.37610 0.52273 -0.26317
 H666 H 0.41551 0.54427 -0.21025
 H667 H 0.44921 0.54413 -0.15438
 H668 H 0.41501 0.46788 -0.17605
 C669 C 1.17018 0.65403 -0.29219
 C670 C 1.14989 0.63637 -0.25861
 C671 C 1.12937 0.63877 -0.25289
 C672 C 1.12960 0.65890 -0.27901
 C673 C 1.14988 0.67655 -0.31121
 C674 C 1.17057 0.67447 -0.31956
 C675 C 1.10889 0.62107 -0.22093
 C676 C 1.10871 0.60105 -0.19358
 C677 C 1.12931 0.59870 -0.19760
 C678 C 1.14975 0.61629 -0.23075
 C679 C 1.12904 0.57881 -0.16810
 C680 C 1.10850 0.56145 -0.13520
 C681 C 1.08783 0.56350 -0.13267
 C682 C 1.08815 0.58340 -0.16190
 H683 H 1.18515 0.65108 -0.29875
 H684 H 1.11413 0.66119 -0.27386
 H685 H 1.14924 0.69219 -0.32709
 H686 H 1.09310 0.62292 -0.21715
 H687 H 1.16553 0.61444 -0.23448
 H688 H 1.14469 0.57674 -0.17029
 H689 H 1.10864 0.54626 -0.11270
 H690 H 1.07241 0.58535 -0.15915
 C691 C 0.84887 0.50334 -0.31152
 C692 C 0.86587 0.50083 -0.27345
 C693 C 0.85956 0.47875 -0.24312
 C694 C 0.83661 0.45939 -0.25289
 C695 C 0.81987 0.46185 -0.29170
 C696 C 0.82544 0.48394 -0.32132
 C697 C 0.87630 0.47634 -0.20362
 C698 C 0.89948 0.49566 -0.19523
 C699 C 0.90605 0.51763 -0.22695
 C700 C 0.88912 0.52017 -0.26518
 C701 C 0.92952 0.53664 -0.22022
 C702 C 0.94637 0.53385 -0.18279
 C703 C 0.93989 0.51219 -0.15026
 C704 C 0.91630 0.49324 -0.15622
 H705 H 0.85397 0.52086 -0.33072
 H706 H 0.83162 0.44219 -0.23101
 H707 H 0.80283 0.44595 -0.29976
 H708 H 0.87134 0.45942 -0.17977
 H709 H 0.89409 0.53710 -0.28896
 H710 H 0.93489 0.55358 -0.24439
 H711 H 0.96443 0.54871 -0.17874
 H712 H 0.91113 0.47642 -0.13157
 C713 C 0.49990 0.33987 -0.30346
 C714 C 0.49994 0.36036 -0.27993
 C715 C 0.48226 0.36555 -0.30240
 C716 C 0.46494 0.35022 -0.34861
 C717 C 0.46511 0.32995 -0.37249
 C718 C 0.48261 0.32429 -0.35058
 C719 C 0.48210 0.38588 -0.27806
 C720 C 0.49942 0.40105 -0.23118
 C721 C 0.51726 0.39591 -0.20929
 C722 C 0.51742 0.37566 -0.23378
 C723 C 0.53448 0.41093 -0.16235
 C724 C 0.53371 0.43051 -0.13580
 C725 C 0.51583 0.43565 -0.15604
 C726 C 0.49891 0.42099 -0.20476
 H727 H 0.51301 0.33588 -0.28250
 H728 H 0.45136 0.35402 -0.36696
 H729 H 0.45195 0.31944 -0.41045
 H730 H 0.46840 0.38976 -0.29502
 H731 H 0.53106 0.37172 -0.21654
 H732 H 0.54831 0.40729 -0.14520
 H733 H 0.54697 0.44140 -0.09831
 H734 H 0.48496 0.42463 -0.22065
 C735 C 0.65685 0.17936 -0.26606
 C736 C 0.63724 0.16113 -0.23222
 C737 C 0.61513 0.16072 -0.23187
 C738 C 0.61315 0.17879 -0.26526
 C739 C 0.63270 0.19666 -0.30025
 C740 C 0.65466 0.19695 -0.30172
 C741 C 0.59530 0.14199 -0.19959
 C742 C 0.59722 0.12333 -0.16960
 C743 C 0.61943 0.12386 -0.17038
 C744 C 0.63935 0.14293 -0.20053
 C745 C 0.62125 0.10493 -0.14269
 C746 C 0.60112 0.08527 -0.11622
 C747 C 0.57895 0.08442 -0.11544
 C748 C 0.57716 0.10375 -0.14081
 H749 H 0.67379 0.17964 -0.26533
 H750 H 0.59634 0.17877 -0.26570
 H751 H 0.63043 0.20987 -0.32765
 H752 H 0.57828 0.14157 -0.19953
 H753 H 0.65631 0.14321 -0.20126
 H754 H 0.63813 0.10507 -0.14292
 H755 H 0.60287 0.07062 -0.09630
 H756 H 0.56005 0.10308 -0.14069
 C757 C 1.15799 0.47479 -0.28339
 C758 C 1.14053 0.47878 -0.25340
 C759 C 1.13779 0.49808 -0.27528
 C760 C 1.15217 0.51269 -0.32775
 C761 C 1.16908 0.50824 -0.35847
 C762 C 1.17241 0.48938 -0.33650
 C763 C 1.12058 0.50232 -0.24488
 C764 C 1.10560 0.48712 -0.19406
 C765 C 1.10796 0.46746 -0.17321
 C766 C 1.12561 0.46362 -0.20235
 C767 C 1.09243 0.45183 -0.12397
 C768 C 1.07467 0.45556 -0.09583
 C769 C 1.07252 0.47519 -0.11556
 C770 C 1.08806 0.49102 -0.16433
 H771 H 1.16041 0.46039 -0.26479
 H772 H 1.15014 0.52740 -0.34568
 H773 H 1.17932 0.51948 -0.40023
 H774 H 1.11864 0.51727 -0.26133
 H775 H 1.12752 0.44865 -0.18598
 H776 H 1.09390 0.43663 -0.10762
 H777 H 1.06273 0.44327 -0.05815
 H778 H 1.08617 0.50608 -0.17982
 C779 C 0.50903 0.67433 -0.28383
 C780 C 0.50687 0.65480 -0.24715
 C781 C 0.48410 0.63466 -0.23701
 C782 C 0.46391 0.63426 -0.26465
 C783 C 0.46623 0.65347 -0.30267
 C784 C 0.48879 0.67394 -0.31285
 C785 C 0.48190 0.61508 -0.20055
 C786 C 0.50234 0.61503 -0.17632
 C787 C 0.52519 0.63500 -0.18777
 C788 C 0.52728 0.65490 -0.22202
 C789 C 0.54564 0.63449 -0.16618
 C790 C 0.54352 0.61414 -0.13529
 C791 C 0.52092 0.59419 -0.12371
 C792 C 0.50037 0.59501 -0.14283
 H793 H 0.52677 0.68924 -0.29265
 H794 H 0.44628 0.61897 -0.25726
 H795 H 0.45003 0.65249 -0.32171
 H796 H 0.46439 0.59964 -0.19266
 H797 H 0.54482 0.67023 -0.23053
 H798 H 0.56329 0.64961 -0.17463
 H799 H 0.55962 0.61397 -0.12056
 H800 H 0.48291 0.57974 -0.13407
 C801 C 0.35132 -0.17062 -0.30510
 C802 C 0.36883 -0.15334 -0.26235
 C803 C 0.36476 -0.15419 -0.19185
 C804 C 0.34333 -0.17237 -0.16528
 C805 C 0.32567 -0.18900 -0.20820
 C806 C 0.32913 -0.18831 -0.27903
 C807 C 0.38178 -0.13642 -0.14930
 C808 C 0.40232 -0.11714 -0.17681
 C809 C 0.40633 -0.11620 -0.24750
 C810 C 0.38986 -0.13457 -0.28954
 C811 C 0.42626 -0.09640 -0.27542
 C812 C 0.44147 -0.07722 -0.23420
 C813 C 0.43750 -0.07789 -0.16421
 C814 C 0.41832 -0.09817 -0.13529
 H815 H 0.35447 -0.16902 -0.35920
 H816 H 0.33998 -0.17344 -0.11127
 H817 H 0.30947 -0.20278 -0.18511
 H818 H 0.37854 -0.13706 -0.09523
 H819 H 0.39292 -0.13372 -0.34374
 H820 H 0.42960 -0.09537 -0.32942
 H821 H 0.45629 -0.06169 -0.25703
 H822 H 0.41513 -0.09855 -0.08126
 C823 C 0.50578 -0.15373 0.30651
 C824 C 0.50276 -0.13697 0.26917
 C825 C 0.48228 -0.14462 0.22789
 C826 C 0.46499 -0.16887 0.22560
 C827 C 0.46798 -0.18540 0.26366
 C828 C 0.48844 -0.17802 0.30405
 C829 C 0.47941 -0.12791 0.18973
 C830 C 0.49664 -0.10362 0.19294
 C831 C 0.51687 -0.09598 0.23531
 C832 C 0.51987 -0.11269 0.27280
 C833 C 0.53381 -0.07169 0.23954
 C834 C 0.53086 -0.05508 0.20195
 C835 C 0.51105 -0.06243 0.15878
 C836 C 0.49397 -0.08682 0.15456
 H837 H 0.52144 -0.14787 0.33832
 H838 H 0.44915 -0.17506 0.19442
 H839 H 0.45446 -0.20406 0.26084
 H840 H 0.46377 -0.13380 0.15774
 H841 H 0.53548 -0.10680 0.30489
 H842 H 0.54937 -0.06552 0.27191
 H843 H 0.54434 -0.03644 0.20603
 H844 H 0.47854 -0.09272 0.12182
 C845 C 0.33493 0.48534 0.27798
 C846 C 0.35310 0.48383 0.24319
 C847 C 0.35645 0.46407 0.25382
 C848 C 0.34110 0.44582 0.29771
 C849 C 0.32272 0.44723 0.33107
 C850 C 0.31969 0.46709 0.32200
 C851 C 0.37511 0.46292 0.22062
 C852 C 0.39027 0.48115 0.17628
 C853 C 0.38636 0.50049 0.16419
 C854 C 0.36792 0.50178 0.19794
 C855 C 0.40112 0.51841 0.11892
 C856 C 0.42000 0.51759 0.08720
 C857 C 0.42474 0.49896 0.10058
 C858 C 0.40946 0.48053 0.14450
 H859 H 0.33241 0.50054 0.27034
 H860 H 0.34330 0.43048 0.30624
 H861 H 0.31107 0.43301 0.36488
 H862 H 0.37790 0.44794 0.22951
 H863 H 0.36518 0.51681 0.18922
 H864 H 0.39824 0.53324 0.10859
 H865 H 0.43121 0.53191 0.05309
 H866 H 0.41274 0.46596 0.15502
 C867 C 1.17082 0.65880 0.29587
 C868 C 1.14960 0.64082 0.26641
 C869 C 1.12870 0.64275 0.26790
 C870 C 1.12940 0.66263 0.29869
 C871 C 1.15056 0.68042 0.32784
 C872 C 1.17149 0.67875 0.32684
 C873 C 1.10746 0.62481 0.23858
 C874 C 1.10685 0.60500 0.20738
 C875 C 1.12778 0.60311 0.20579
 C876 C 1.14897 0.62097 0.23542
 C877 C 1.12721 0.58343 0.17414
 C878 C 1.10623 0.56590 0.14363
 C879 C 1.08528 0.56757 0.14448
 C880 C 1.08571 0.58714 0.17713
 H881 H 1.18686 0.65738 0.29411
 H882 H 1.11355 0.66437 0.30052
 H883 H 1.15042 0.69534 0.35235
 H884 H 1.09146 0.62634 0.23978
 H885 H 1.16499 0.61947 0.23412
 H886 H 1.14305 0.58166 0.17255
 H887 H 1.10644 0.55098 0.11930
 H888 H 1.06975 0.58874 0.17794
 C889 C 0.47880 0.15766 0.27028
 C890 C 0.48231 0.14147 0.23140
 C891 C 0.50563 0.14756 0.21054
 C892 C 0.52503 0.16966 0.22913
 C893 C 0.52142 0.18554 0.26850
 C894 C 0.49832 0.17977 0.28950
 C895 C 0.50926 0.13136 0.17230
 C896 C 0.48992 0.10892 0.15587
 C897 C 0.46660 0.10273 0.17700
 C898 C 0.46290 0.11917 0.21391
 C899 C 0.44745 0.07998 0.16218
 C900 C 0.45147 0.06329 0.12839
 C901 C 0.47460 0.06926 0.10753
 C902 C 0.49368 0.09229 0.12036
 H903 H 0.46086 0.15308 0.28527
 H904 H 0.54303 0.17455 0.21395
 H905 H 0.53683 0.20223 0.28344
 H906 H 0.52718 0.13603 0.15650
 H907 H 0.44501 0.11441 0.23020
 H908 H 0.42947 0.07491 0.17804
 H909 H 0.43650 0.04563 0.11895
 H910 H 0.51163 0.09695 0.10527
 C911 C 0.66681 0.50481 0.31813
 C912 C 0.64991 0.50936 0.28744
 C913 C 0.65482 0.53309 0.27958
 C914 C 0.67664 0.55186 0.30314
 C915 C 0.69356 0.54717 0.33301
 C916 C 0.68890 0.52361 0.34024
 C917 C 0.63802 0.53760 0.24738
 C918 C 0.61665 0.51866 0.22168
 C919 C 0.61191 0.49495 0.22984
 C920 C 0.62838 0.49047 0.26337
 C921 C 0.59100 0.47603 0.20288
 C922 C 0.57519 0.48050 0.16640
 C923 C 0.57970 0.50388 0.15724
 C924 C 0.60021 0.52296 0.18625
 H925 H 0.66275 0.48654 0.32468
 H926 H 0.68078 0.57018 0.29754
 H927 H 0.71049 0.56201 0.34919
 H928 H 0.64181 0.55580 0.24102
 H929 H 0.62469 0.47227 0.26924
 H930 H 0.58709 0.45778 0.20878
 H931 H 0.55934 0.46560 0.14505
 H932 H 0.60382 0.54105 0.17887
 C933 C 0.82980 0.34363 0.29754
 C934 C 0.85184 0.36102 0.27133
 C935 C 0.87316 0.36735 0.30730
 C936 C 0.87199 0.35628 0.36923
 C937 C 0.84995 0.33907 0.39517
 C938 C 0.82864 0.33250 0.35959
 C939 C 0.89524 0.38463 0.28085
 C940 C 0.89625 0.39576 0.21902
 C941 C 0.87485 0.38951 0.18348
 C942 C 0.85284 0.37215 0.20967
 C943 C 0.87578 0.40077 0.12221
 C944 C 0.89767 0.41810 0.09625
 C945 C 0.91914 0.42447 0.13078
 C946 C 0.91828 0.41311 0.19222
 H947 H 0.81356 0.33855 0.26913
 H948 H 0.88811 0.36100 0.39775
 H949 H 0.84956 0.33109 0.44364
 H950 H 0.91159 0.38944 0.30838
 H951 H 0.83648 0.36735 0.18217
 H952 H 0.85957 0.39619 0.09433
 H953 H 0.89775 0.42640 0.04860
 H954 H 0.93467 0.41792 0.21948
   
