data_POSCAR
  _audit_creation_date              2014-09-24
  _audit_creation_method            'ToBaCCo'
  _symmetry_space_group_name_H-M    'P1'
  _symmetry_Int_Tables_number       1
  _symmetry_cell_setting            triclinic
  loop_
  _symmetry_equiv_pos_as_xyz
 x,y,z
_cell_length_a 31.8581
_cell_length_b 31.8055
_cell_length_c 42.7029
_cell_angle_alpha 87.520200
_cell_angle_beta 92.611200
_cell_angle_gamma 99.014300
loop_
  _atom_site_label
  _atom_site_type_symbol
  _atom_site_fract_x
  _atom_site_fract_y
  _atom_site_fract_z
C1 C 0.00944 0.50461 0.98529
 C2 C 0.00336 0.50147 1.01677
 C3 C 0.00144 0.53997 1.03488
 C4 C -0.00159 0.46002 1.03481
 C5 C 0.01512 0.46747 0.96675
 C6 C 0.00962 0.54580 0.96752
 C7 C 0.03523 0.57401 1.03507
 C8 C 0.03293 0.61032 1.05179
 C9 C -0.00320 0.61337 1.06909
 C10 C -0.03668 0.57846 1.06915
 C11 C -0.03423 0.54227 1.05234
 C12 C 0.02259 0.45612 1.06278
 C13 C 0.01844 0.41762 1.08017
 C14 C -0.00989 0.38205 1.06989
 C15 C -0.03454 0.38607 1.04207
 C16 C -0.03083 0.42486 1.02491
 C17 C -0.00919 0.45934 0.93882
 C18 C -0.00471 0.42460 0.92110
 C19 C 0.02410 0.39701 0.93097
 C20 C 0.04895 0.40548 0.95872
 C21 C 0.04488 0.44070 0.97624
 C22 C -0.02640 0.56627 0.96615
 C23 C -0.02599 0.60503 0.94938
 C24 C 0.01052 0.62408 0.93377
 C25 C 0.04644 0.60328 0.93508
 C26 C 0.04583 0.56430 0.95159
 H27 H 0.06343 0.57244 1.02220
 H28 H 0.05970 0.63590 1.05103
 H29 H -0.06508 0.57887 1.08208
 H30 H -0.06050 0.51613 1.05263
 H31 H 0.04511 0.48287 1.07102
 H32 H 0.03791 0.41559 1.10147
 H33 H -0.05072 0.42742 1.00388
 H34 H -0.03216 0.47965 0.93091
 H35 H -0.02438 0.41899 0.89988
 H36 H 0.07177 0.38509 0.96676
 H37 H 0.06481 0.44697 0.99726
 H38 H -0.05480 0.55213 0.97803
 H39 H -0.05417 0.62020 0.94884
 H40 H 0.07494 0.61693 0.92315
 H41 H 0.07379 0.54875 0.95229
 H42 H -0.05702 0.35938 1.03373
 C43 C 0.49620 -0.00997 0.48408
 C44 C 0.49937 -0.00379 0.51557
 C45 C 0.46095 -0.00178 0.53361
 C46 C 0.54076 0.00120 0.53369
 C47 C 0.53325 -0.01574 0.46560
 C48 C 0.45506 -0.01012 0.46628
 C49 C 0.45869 0.03407 0.55107
 C50 C 0.42256 0.03651 0.56785
 C51 C 0.38805 0.00295 0.56766
 C52 C 0.39076 -0.03326 0.55051
 C53 C 0.42694 -0.03567 0.53378
 C54 C 0.57588 0.03044 0.52386
 C55 C 0.61458 0.03424 0.54113
 C56 C 0.61855 0.00970 0.56899
 C57 C 0.58302 -0.01864 0.57919
 C58 C 0.54461 -0.02289 0.56169
 C59 C 0.56003 -0.04547 0.47515
 C60 C 0.59521 -0.04957 0.45770
 C61 C 0.60362 -0.02478 0.42996
 C62 C 0.57601 0.00397 0.42001
 C63 C 0.54131 0.00849 0.43766
 C64 C 0.43642 -0.04644 0.45038
 C65 C 0.39744 -0.04704 0.43390
 C66 C 0.37677 -0.01099 0.43257
 C67 C 0.39598 0.02564 0.44811
 C68 C 0.43474 0.02603 0.46486
 H69 H 0.48475 0.06041 0.55138
 H70 H 0.42167 0.06479 0.58088
 H71 H 0.36495 -0.05981 0.54999
 H72 H 0.42845 -0.06398 0.52094
 H73 H 0.57335 0.05026 0.50281
 H74 H 0.64124 0.05672 0.53285
 H75 H 0.51790 -0.04540 0.56987
 H76 H 0.55382 -0.06535 0.49616
 H77 H 0.61561 -0.07235 0.46579
 H78 H 0.58157 0.02358 0.39879
 H79 H 0.52100 0.03143 0.42970
 H80 H 0.45185 -0.07451 0.45111
 H81 H 0.38366 -0.07564 0.42201
 H82 H 0.38092 0.05393 0.44755
 H83 H 0.44899 0.05453 0.47671
 H84 H 0.58501 -0.03803 0.60052
 C85 C 0.05930 0.02156 0.27620
 H86 H 0.05378 0.04953 0.26240
 C87 C 0.09685 0.02274 0.29453
 H88 H 0.11954 0.05190 0.29478
 C89 C 0.03744 -0.05067 0.29172
 H90 H 0.01415 -0.07927 0.29025
 C91 C 0.07481 -0.05105 0.31009
 H92 H 0.07988 -0.08008 0.32289
 N93 N 0.03028 -0.01467 0.27537
 C94 C -0.05466 -0.09716 0.22378
 H95 H -0.08128 -0.09615 0.23837
 C96 C -0.05415 -0.13255 0.20563
 H97 H -0.08074 -0.15829 0.20632
 C98 C 0.01278 -0.06548 0.20597
 H99 H 0.03895 -0.03932 0.20659
 C100 C 0.01464 -0.10024 0.18748
 H101 H 0.04239 -0.10038 0.17380
 Zn102 Zn -0.02010 -0.01769 0.24962
 N103 N -0.02154 -0.06450 0.22355
 C104 C -0.02200 0.03326 0.19324
 N105 N -0.02049 0.03338 0.22513
 C106 C -0.02098 0.06984 0.24051
 C107 C -0.02129 0.10848 0.22379
 C108 C -0.02289 0.07114 0.17557
 C109 C -0.06600 -0.03107 0.30597
 C110 C -0.10244 -0.03457 0.32353
 C111 C -0.14364 -0.02496 0.27556
 C112 C -0.10655 -0.02205 0.25893
 N113 N -0.06874 -0.02507 0.27425
 H114 H -0.02272 0.00380 0.18142
 H115 H -0.02079 0.06886 0.26587
 H116 H -0.02118 0.13720 0.23654
 H117 H -0.02372 0.07045 0.15022
 H118 H -0.03555 -0.03266 0.31777
 H119 H -0.09958 -0.03901 0.34877
 H120 H -0.17333 -0.02218 0.26285
 H121 H -0.10771 -0.01687 0.23372
 C122 C -0.01906 -0.13452 0.18725
 C123 C 0.10508 -0.01394 0.31170
 C124 C -0.14189 -0.03116 0.30833
 C125 C -0.02211 0.10949 0.19086
 C126 C 0.02167 0.10691 0.75930
 H127 H 0.01646 0.10806 0.73409
 C128 C 0.02455 0.14407 0.77599
 H129 H 0.02173 0.17380 0.76333
 C130 C 0.03075 0.06634 0.80629
 H131 H 0.03239 0.03586 0.81805
 C132 C 0.03424 0.10284 0.82391
 H133 H 0.03870 0.09999 0.84915
 N134 N 0.02473 0.06906 0.77457
 C135 C 0.06501 -0.01279 0.70633
 H136 H 0.03890 -0.03901 0.70694
 C137 C 0.09964 -0.01468 0.68784
 H138 H 0.09975 -0.04252 0.67415
 C139 C 0.09663 0.05485 0.72415
 H140 H 0.09565 0.08156 0.73873
 C141 C 0.13191 0.05430 0.70600
 H142 H 0.15759 0.08097 0.70667
 Zn143 Zn 0.01733 0.02029 0.74989
 N144 N 0.06405 0.02165 0.72391
 C145 C -0.03348 0.02210 0.69342
 N146 N -0.03365 0.02065 0.72530
 C147 C -0.07006 0.02123 0.74058
 C148 C -0.10863 0.02154 0.72376
 C149 C -0.07127 0.02299 0.67564
 C150 C 0.05030 -0.03724 0.79199
 C151 C 0.05067 -0.07455 0.81043
 C152 C -0.02310 -0.09658 0.79491
 C153 C -0.02191 -0.05908 0.77651
 N154 N 0.01431 -0.03008 0.77563
 H155 H -0.00406 0.02278 0.68167
 H156 H -0.06913 0.02110 0.76594
 H157 H -0.13731 0.02149 0.73643
 H158 H -0.07054 0.02377 0.65030
 H159 H 0.07888 -0.01398 0.79048
 H160 H 0.07968 -0.07961 0.82324
 H161 H -0.05225 -0.11923 0.79521
 H162 H -0.04987 -0.05357 0.76271
 C163 C 0.13383 0.01910 0.68760
 C164 C 0.03077 0.14233 0.80877
 C165 C 0.01356 -0.10478 0.81210
 C166 C -0.10958 0.02230 0.69083
 C167 C -0.01058 -0.28042 0.11752
 N168 N -0.04283 -0.31377 0.11772
 N169 N -0.04042 -0.34844 0.10189
 C170 C -0.00565 -0.35133 0.08517
 N171 N 0.02655 -0.31768 0.08508
 N172 N 0.02416 -0.28300 0.10091
 C173 C -0.01307 -0.24236 0.13520
 N174 N 0.01928 -0.20906 0.13510
 N175 N 0.01725 -0.17475 0.15145
 C176 C -0.01720 -0.17236 0.16855
 N177 N -0.04958 -0.20572 0.16853
 N178 N -0.04757 -0.24003 0.15217
 C179 C -0.01827 0.26585 0.12144
 N180 N -0.00082 0.30286 0.13473
 N181 N 0.00166 0.33970 0.11836
 C182 C -0.01342 0.34106 0.08812
 N183 N -0.03114 0.30398 0.07491
 N184 N -0.03340 0.26706 0.09123
 C185 C -0.02009 0.22524 0.13943
 N186 N -0.03146 0.18760 0.12517
 N187 N -0.03219 0.15082 0.14148
 C188 C -0.02183 0.15027 0.17271
 N189 N -0.01068 0.18802 0.18693
 N190 N -0.00970 0.22476 0.17060
 C191 C 0.27910 0.01061 0.61765
 N192 N 0.28152 -0.02415 0.60087
 N193 N 0.31606 -0.02656 0.58500
 C194 C 0.34956 0.00567 0.58528
 N195 N 0.34700 0.04044 0.60208
 N196 N 0.31247 0.04287 0.61796
 C197 C 0.24120 0.01310 0.63539
 N198 N 0.23900 0.04764 0.65248
 N199 N 0.20483 0.04965 0.66888
 C200 C 0.17151 0.01723 0.66886
 N201 N 0.17379 -0.01724 0.65165
 N202 N 0.20794 -0.01928 0.63524
 C203 C -0.26555 0.01835 0.62093
 N204 N -0.30255 0.00099 0.63412
 N205 N -0.33929 -0.00158 0.61763
 C206 C -0.34057 0.01334 0.58736
 N207 N -0.30351 0.03098 0.57425
 N208 N -0.26668 0.03332 0.59069
 C209 C -0.22504 0.02023 0.63905
 N210 N -0.18742 0.03149 0.62490
 N211 N -0.15074 0.03225 0.64133
 C212 C -0.15026 0.02201 0.67256
 N213 N -0.18798 0.01097 0.68667
 N214 N -0.22464 0.00997 0.67022
 C215 C 0.01202 -0.25944 0.88336
 N216 N -0.02520 -0.28225 0.89275
 N217 N -0.02565 -0.31911 0.90888
 C218 C 0.01107 -0.33473 0.91611
 N219 N 0.04828 -0.31183 0.90665
 N220 N 0.04877 -0.27486 0.89065
 C221 C 0.01245 -0.21904 0.86530
 N222 N 0.04978 -0.19401 0.85868
 N223 N 0.05013 -0.15758 0.84201
 C224 C 0.01319 -0.14485 0.83116
 N225 N -0.02412 -0.16998 0.83785
 N226 N -0.02450 -0.20630 0.85465
 C227 C 0.03195 0.28997 0.87865
 N228 N 0.04839 0.29260 0.90853
 N229 N 0.04640 0.32679 0.92507
 C230 C 0.02769 0.35954 0.91243
 N231 N 0.01139 0.35680 0.88250
 N232 N 0.01356 0.32277 0.86592
 C233 C 0.03300 0.25202 0.86048
 N234 N 0.02010 0.25151 0.82977
 N235 N 0.01989 0.21685 0.81333
 C236 C 0.03235 0.18120 0.82697
 N237 N 0.04535 0.18179 0.85774
 N238 N 0.04576 0.21657 0.87417
 C239 C -0.28940 -0.03255 0.37790
 N240 N -0.32222 -0.01430 0.36508
 N241 N -0.35623 -0.01216 0.38158
 C242 C -0.35893 -0.02837 0.41150
 N243 N -0.32617 -0.04695 0.42424
 N244 N -0.29199 -0.04890 0.40778
 C245 C -0.25147 -0.03355 0.35982
 N246 N -0.21602 -0.04619 0.37358
 N247 N -0.18128 -0.04572 0.35722
 C248 C -0.18071 -0.03278 0.32646
 N249 N -0.21635 -0.02044 0.31275
 N250 N -0.25098 -0.02071 0.32911
 C251 C 0.26013 -0.01247 0.38242
 N252 N 0.27547 -0.04930 0.38970
 N253 N 0.31250 -0.04882 0.40560
 C254 C 0.33554 -0.01153 0.41497
 N255 N 0.32000 0.02526 0.40775
 N256 N 0.28308 0.02482 0.39171
 C257 C 0.21963 -0.01289 0.36450
 N258 N 0.20693 0.02411 0.35388
 N259 N 0.17051 0.02376 0.33721
 C260 C 0.14525 -0.01360 0.33063
 N261 N 0.15795 -0.05060 0.34144
 N262 N 0.19448 -0.05027 0.35798
   
