data_POSCAR
  _audit_creation_date              2014-09-24
  _audit_creation_method            'ToBaCCo'
  _symmetry_space_group_name_H-M    'P1'
  _symmetry_Int_Tables_number       1
  _symmetry_cell_setting            triclinic
  loop_
  _symmetry_equiv_pos_as_xyz
 x,y,z
_cell_length_a 42.2168
_cell_length_b 34.2494
_cell_length_c 30.2484
_cell_angle_alpha 90.244100
_cell_angle_beta 90.404700
_cell_angle_gamma 86.078000
loop_
  _atom_site_label
  _atom_site_type_symbol
  _atom_site_fract_x
  _atom_site_fract_y
  _atom_site_fract_z
C1 C 1.23431 0.21344 0.19943
 C2 C 1.24951 0.24585 0.17353
 C3 C 1.26409 0.27219 0.19948
 C4 C 1.26155 0.26389 0.24937
 C5 C 1.26192 0.19538 0.22793
 C6 C 1.27599 0.22176 0.25418
 C7 C 1.21212 0.23527 0.23237
 C8 C 1.22604 0.26167 0.25832
 H9 H 1.25154 0.24515 0.13788
 H10 H 1.27272 0.28517 0.27122
 H11 H 1.27104 0.16519 0.22602
 H12 H 1.18694 0.23102 0.23368
 C13 C 0.73240 -0.27885 0.19760
 C14 C 0.74620 -0.24404 0.17464
 C15 C 0.75747 -0.21681 0.20280
 C16 C 0.75314 -0.22694 0.25226
 C17 C 0.75945 -0.29487 0.22806
 C18 C 0.76979 -0.26804 0.25699
 C19 C 0.70724 -0.26071 0.22888
 C20 C 0.71775 -0.23393 0.25750
 H21 H 0.75026 -0.24376 0.13934
 H22 H 0.76171 -0.20518 0.27604
 H23 H 0.77004 -0.32450 0.22714
 H24 H 0.68299 -0.26931 0.22908
 C25 C 0.72548 0.23244 -0.31893
 C26 C 0.74640 0.25903 -0.33903
 C27 C 0.76524 0.27981 -0.30811
 C28 C 0.75938 0.26879 -0.26180
 C29 C 0.74606 0.20628 -0.29168
 C30 C 0.76520 0.22578 -0.26007
 C31 C 0.70695 0.25564 -0.28688
 C32 C 0.72504 0.27686 -0.25616
 H33 H 0.74921 0.26016 -0.37453
 H34 H 0.77316 0.28468 -0.23746
 H35 H 0.74255 0.17550 -0.28834
 H36 H 0.68152 0.25385 -0.28353
 C37 C 1.23796 -0.28278 -0.29522
 C38 C 1.26229 -0.26155 -0.32148
 C39 C 1.27819 -0.23534 -0.29716
 C40 C 1.26801 -0.23291 -0.24790
 C41 C 1.25728 -0.30114 -0.25685
 C42 C 1.27221 -0.27537 -0.23114
 C43 C 1.21644 -0.25025 -0.27432
 C44 C 1.23173 -0.22461 -0.24892
 H45 H 1.26877 -0.26917 -0.35505
 H46 H 1.28036 -0.21150 -0.22758
 H47 H 1.25948 -0.33244 -0.25131
 H48 H 1.19075 -0.25010 -0.27567
 C49 C 0.23539 0.21247 0.79765
 C50 C 0.25225 0.23989 0.82449
 C51 C 0.26880 0.26785 0.79956
 C52 C 0.26460 0.26305 0.75170
 C53 C 0.21360 0.23822 0.76750
 C54 C 0.22857 0.26497 0.74398
 C55 C 0.26090 0.19387 0.76632
 C56 C 0.27639 0.22033 0.74244
 H57 H 0.25486 0.23621 0.85986
 H58 H 0.27560 0.28455 0.73060
 H59 H 0.18805 0.23660 0.76647
 H60 H 0.26799 0.16306 0.76497
 C61 C 0.72764 0.71929 0.80802
 C62 C 0.73942 0.75477 0.82671
 C63 C 0.75378 0.77955 0.79526
 C64 C 0.75171 0.76412 0.74959
 C65 C 0.70556 0.73223 0.77321
 C66 C 0.71806 0.75727 0.74107
 C67 C 0.75450 0.70043 0.78421
 C68 C 0.76794 0.72473 0.75164
 H69 H 0.74220 0.75803 0.86212
 H70 H 0.76146 0.78317 0.72439
 H71 H 0.68096 0.72499 0.77293
 H72 H 0.75932 0.66913 0.78253
 C73 C 0.72513 0.22747 0.31444
 C74 C 0.74421 0.25792 0.33770
 C75 C 0.76365 0.27692 0.31059
 C76 C 0.76233 0.26324 0.26197
 C77 C 0.70802 0.24936 0.27616
 C78 C 0.72734 0.26821 0.24928
 C79 C 0.75015 0.19993 0.29098
 C80 C 0.76926 0.21842 0.26269
 H81 H 0.74298 0.26285 0.37304
 H82 H 0.77709 0.27914 0.23892
 H83 H 0.68260 0.24978 0.27060
 H84 H 0.75111 0.16848 0.29336
 C85 C 0.23312 0.71971 0.29367
 C86 C 0.25912 0.73833 0.32087
 C87 C 0.27583 0.76436 0.29783
 C88 C 0.26473 0.76905 0.24902
 C89 C 0.21267 0.75440 0.27504
 C90 C 0.22878 0.78006 0.25129
 C91 C 0.25093 0.70165 0.25384
 C92 C 0.26721 0.72715 0.23040
 H93 H 0.26598 0.72891 0.35377
 H94 H 0.27759 0.79000 0.22923
 H95 H 0.18702 0.75673 0.27775
 H96 H 0.25257 0.67050 0.24688
 O97 O 1.03971 0.06351 0.07372
 O98 O 1.07467 0.02423 0.03278
 C99 C 1.06831 0.05151 0.06198
 O100 O 0.95043 -0.07001 0.07101
 O101 O 0.91475 -0.02893 0.03302
 C102 C 0.92162 -0.05725 0.06086
 O103 O 1.03882 -0.07340 0.07616
 O104 O 1.07421 -0.04192 0.03425
 C105 C 1.06756 -0.06596 0.06545
 O106 O 0.95178 0.07424 0.07018
 O107 O 0.91509 0.04081 0.03175
 C108 C 0.92280 0.06736 0.06015
 Zr109 Zr 0.99521 0.04640 0.05076
 O110 O 0.99506 0.03849 0.12000
 O111 O 0.99607 0.10768 0.05882
 Zr112 Zr 0.99455 -0.05101 0.05044
 O113 O 0.99325 -0.04622 0.12011
 O114 O 0.99691 -0.11289 0.05209
 O115 O 1.02359 -0.00484 0.05922
 O116 O 0.96667 0.00045 0.05849
 O117 O 0.95072 0.07255 -0.08292
 O118 O 0.91470 0.04048 -0.04255
 C119 C 0.92193 0.06607 -0.07193
 O120 O 1.03822 -0.07344 -0.08686
 O121 O 1.07383 -0.04183 -0.04446
 C122 C 1.06701 -0.06610 -0.07558
 O123 O 0.94954 -0.07017 -0.08218
 O124 O 0.91426 -0.03009 -0.04256
 C125 C 0.92080 -0.05804 -0.07116
 O126 O 1.03917 0.06286 -0.08401
 O127 O 1.07444 0.02397 -0.04271
 C128 C 1.06786 0.05099 -0.07198
 Zr129 Zr 0.99471 0.04661 -0.06091
 O130 O 0.99707 0.04469 -0.13090
 O131 O 0.99654 0.10824 -0.06159
 Zr132 Zr 0.99396 -0.05148 -0.06088
 O133 O 0.99095 -0.05275 -0.13071
 O134 O 0.99542 -0.11315 -0.05650
 Zr135 Zr 1.04226 -0.00652 -0.00521
 Zr136 Zr 0.94656 0.00232 -0.00538
 O137 O 0.96629 0.00014 -0.06906
 O138 O 1.02274 -0.00504 -0.06955
 O139 O 0.96672 0.05705 -0.00511
 O140 O 1.02214 -0.06101 -0.00525
 O141 O 1.02238 0.05147 -0.00505
 O142 O 0.96570 -0.05617 -0.00529
 H143 H 0.95234 0.00199 0.08435
 H144 H 1.03646 -0.08518 -0.00519
 H145 H 0.95160 0.00097 -0.09473
 H146 H 1.03624 0.07366 -0.00503
 H147 H 0.98403 -0.12155 0.02689
 H148 H 0.99551 -0.12303 -0.08734
 H149 H 1.00412 -0.03209 -0.14171
 H150 H 0.97681 0.03608 -0.14282
 H151 H 0.98021 0.11935 -0.04091
 H152 H 1.00035 0.11854 0.02943
 H153 H 0.99423 0.06510 0.13307
 H154 H 0.99311 -0.07332 0.13145
 O155 O 1.04740 0.56632 0.57950
 O156 O 1.08117 0.52721 0.53649
 C157 C 1.07557 0.55360 0.56683
 O158 O 0.95553 0.43759 0.57909
 O159 O 0.91991 0.47857 0.54086
 C160 C 0.92681 0.45041 0.56887
 O161 O 1.04350 0.43089 0.58143
 O162 O 1.07925 0.46066 0.53842
 C163 C 1.07227 0.43661 0.56945
 O164 O 0.95940 0.58165 0.57775
 O165 O 0.92177 0.54948 0.53975
 C166 C 0.93019 0.57621 0.56735
 Zr167 Zr 1.00221 0.55245 0.55688
 O168 O 1.00206 0.54715 0.62646
 O169 O 1.00682 0.61353 0.56068
 Zr170 Zr 0.99955 0.45548 0.55776
 O171 O 0.99967 0.46196 0.62727
 O172 O 1.00010 0.39380 0.56155
 O173 O 1.02975 0.50046 0.56516
 O174 O 0.97272 0.50763 0.56603
 O175 O 0.95691 0.58225 0.42886
 O176 O 0.92047 0.54894 0.46684
 C177 C 0.92807 0.57657 0.44031
 O178 O 1.04081 0.42963 0.42032
 O179 O 1.07790 0.45997 0.46134
 C180 C 1.06996 0.43538 0.43108
 O181 O 0.95277 0.43609 0.42815
 O182 O 0.91845 0.47784 0.46724
 C183 C 0.92447 0.44873 0.44007
 O184 O 1.04425 0.56531 0.41975
 O185 O 1.07959 0.52643 0.46082
 C186 C 1.07289 0.55272 0.43079
 Zr187 Zr 1.00007 0.55121 0.44495
 O188 O 0.99650 0.54360 0.37579
 O189 O 1.00386 0.61192 0.43632
 Zr190 Zr 0.99753 0.45416 0.44633
 O191 O 0.99304 0.45388 0.37657
 O192 O 0.99773 0.39249 0.44976
 Zr193 Zr 1.04750 0.49753 0.50022
 Zr194 Zr 0.95190 0.50958 0.50271
 O195 O 0.97034 0.50627 0.43829
 O196 O 1.02734 0.49909 0.43626
 O197 O 0.97340 0.56336 0.50164
 O198 O 1.02600 0.44401 0.50140
 O199 O 1.02872 0.55600 0.50010
 O200 O 0.97008 0.45073 0.50285
 H201 H 0.95858 0.50973 0.59208
 H202 H 1.03945 0.41914 0.50131
 H203 H 0.95509 0.50805 0.41319
 H204 H 1.04314 0.57762 0.49953
 H205 H 0.98975 0.38486 0.53422
 H206 H 0.99696 0.38291 0.41882
 H207 H 1.00979 0.46972 0.36474
 H208 H 0.99648 0.57015 0.36293
 H209 H 1.00358 0.62367 0.46618
 H210 H 0.99212 0.62601 0.53849
 H211 H 1.00290 0.57408 0.63830
 H212 H 0.99878 0.43525 0.63945
 O213 O 0.55746 -0.05681 0.57942
 O214 O 0.52918 -0.10077 0.54084
 C215 C 0.55075 -0.09208 0.56988
 O216 O 0.44221 0.05854 0.57791
 O217 O 0.47062 0.09974 0.53610
 C218 C 0.44932 0.09303 0.56542
 O219 O 0.44421 -0.04953 0.58225
 O220 O 0.47180 -0.09699 0.54089
 C221 C 0.45048 -0.08554 0.56998
 O222 O 0.55979 0.04884 0.57112
 O223 O 0.52891 0.09508 0.53287
 C224 C 0.55239 0.08458 0.55935
 Zr225 Zr 0.53943 -0.00323 0.55443
 O226 O 0.53473 0.00008 0.62390
 O227 O 0.58948 -0.00846 0.55997
 Zr228 Zr 0.46096 0.00260 0.55798
 O229 O 0.46795 0.00401 0.62718
 O230 O 0.41101 0.00509 0.56433
 O231 O 0.50069 -0.03605 0.56557
 O232 O 0.50029 0.03495 0.56343
 O233 O 0.55420 0.04646 0.42000
 O234 O 0.52620 0.09385 0.46030
 C235 C 0.54766 0.08255 0.43146
 O236 O 0.44226 -0.05251 0.42268
 O237 O 0.47113 -0.09846 0.46432
 C238 C 0.44994 -0.08832 0.43421
 O239 O 0.43691 0.05593 0.42760
 O240 O 0.46865 0.09849 0.46278
 C241 C 0.44492 0.09081 0.43732
 O242 O 0.55220 -0.06072 0.41846
 O243 O 0.52719 -0.10274 0.46347
 C244 C 0.54636 -0.09544 0.43137
 Zr245 Zr 0.53653 -0.00544 0.44273
 O246 O 0.53251 -0.00206 0.37295
 O247 O 0.58662 -0.01300 0.43848
 Zr248 Zr 0.45757 0.00079 0.44671
 O249 O 0.45530 0.00467 0.37688
 O250 O 0.40757 0.00199 0.45187
 Zr251 Zr 0.49935 -0.06084 0.50163
 Zr252 Zr 0.49853 0.05775 0.49900
 O253 O 0.49661 0.03220 0.43582
 O254 O 0.49707 -0.03801 0.43681
 O255 O 0.54447 0.02960 0.49747
 O256 O 0.45364 -0.03192 0.50303
 O257 O 0.54452 -0.03864 0.49908
 O258 O 0.45278 0.03693 0.50192
 H259 H 0.50110 0.05351 0.58859
 H260 H 0.43451 -0.04714 0.50334
 H261 H 0.49557 0.04962 0.40970
 H262 H 0.56375 -0.05690 0.49864
 H263 H 0.40207 0.01490 0.53584
 H264 H 0.39911 0.00196 0.42121
 H265 H 0.46818 -0.01802 0.36471
 H266 H 0.52214 -0.02543 0.36237
 H267 H 0.59558 0.00688 0.45786
 H268 H 0.59780 -0.01091 0.52959
 H269 H 0.55656 0.00064 0.63599
 H270 H 0.44646 0.00696 0.64024
 O271 O 0.54435 0.56292 0.08026
 O272 O 0.58000 0.52283 0.04142
 C273 C 0.57309 0.55104 0.06907
 O274 O 0.45710 0.42637 0.07994
 O275 O 0.42145 0.46524 0.03934
 C276 C 0.42837 0.43747 0.06769
 O277 O 0.54545 0.42527 0.08681
 O278 O 0.58058 0.45691 0.04454
 C279 C 0.57404 0.43255 0.07525
 O280 O 0.45612 0.57403 0.07147
 O281 O 0.42090 0.53608 0.03622
 C282 C 0.42757 0.56586 0.06044
 Zr283 Zr 0.50024 0.54417 0.05778
 O284 O 0.49820 0.53818 0.12716
 O285 O 0.50116 0.60547 0.06522
 Zr286 Zr 0.50101 0.44692 0.06121
 O287 O 0.49882 0.45479 0.13047
 O288 O 0.50384 0.38530 0.06743
 O289 O 0.52933 0.49387 0.06875
 O290 O 0.47212 0.49791 0.06680
 O291 O 0.45731 0.56720 -0.07498
 O292 O 0.42165 0.53403 -0.03543
 C293 C 0.42869 0.56092 -0.06310
 O294 O 0.54695 0.42004 -0.07274
 O295 O 0.58146 0.45432 -0.03137
 C296 C 0.57540 0.42821 -0.06080
 O297 O 0.45832 0.42220 -0.07086
 O298 O 0.42205 0.46307 -0.03405
 C299 C 0.42942 0.43403 -0.06072
 O300 O 0.54540 0.55729 -0.07728
 O301 O 0.58042 0.52077 -0.03341
 C302 C 0.57393 0.54690 -0.06357
 Zr303 Zr 0.50120 0.54039 -0.05447
 O304 O 0.50040 0.53178 -0.12365
 O305 O 0.50308 0.60157 -0.06208
 Zr306 Zr 0.50198 0.44281 -0.05036
 O307 O 0.49974 0.44056 -0.12026
 O308 O 0.50406 0.38115 -0.04518
 Zr309 Zr 0.54852 0.49055 0.00455
 Zr310 Zr 0.45330 0.49708 0.00229
 O311 O 0.47344 0.49344 -0.06112
 O312 O 0.53032 0.48939 -0.06040
 O313 O 0.47286 0.55211 0.00061
 O314 O 0.52914 0.43565 0.00635
 O315 O 0.52778 0.54806 0.00202
 O316 O 0.47337 0.43913 0.00495
 H317 H 0.45694 0.50001 0.09169
 H318 H 0.54340 0.41146 0.00755
 H319 H 0.45897 0.49379 -0.08709
 H320 H 0.54109 0.57076 0.00132
 H321 H 0.49559 0.37487 0.03939
 H322 H 0.50466 0.37085 -0.07586
 H323 H 0.51600 0.45739 -0.13156
 H324 H 0.49990 0.55825 -0.13682
 H325 H 0.49088 0.61411 -0.03744
 H326 H 0.50319 0.61623 0.03520
 H327 H 0.49658 0.56517 0.13919
 H328 H 0.49888 0.42818 0.14319
 C329 C 1.17130 0.13874 0.12949
 C330 C 1.19530 0.12175 0.15696
 C331 C 1.21703 0.14502 0.17786
 C332 C 1.21565 0.18587 0.17100
 C333 C 1.19252 0.20224 0.14145
 C334 C 1.17064 0.17906 0.12109
 C335 C 1.14533 0.11539 0.11281
 C336 C 1.11364 0.12979 0.11797
 C337 C 1.08880 0.10838 0.10266
 C338 C 1.09499 0.07214 0.08128
 C339 C 1.12675 0.05744 0.07646
 C340 C 1.15169 0.07873 0.09247
 H341 H 1.23352 0.13083 0.20105
 H342 H 1.19033 0.23353 0.13588
 H343 H 1.06470 0.12076 0.10678
 H344 H 1.13231 0.02965 0.06010
 H345 H 1.15249 0.19289 0.09976
 H346 H 1.10804 0.15765 0.13418
 H347 H 1.19611 0.09078 0.16434
 H348 H 1.17595 0.06697 0.08818
 C349 C 1.17713 0.63571 0.64308
 C350 C 1.18006 0.63836 0.68909
 C351 C 1.20007 0.66427 0.70801
 C352 C 1.21855 0.68751 0.68157
 C353 C 1.21645 0.68388 0.63526
 C354 C 1.19592 0.65804 0.61620
 C355 C 1.15205 0.61278 0.62396
 C356 C 1.15757 0.58883 0.58664
 C357 C 1.13300 0.56826 0.56864
 C358 C 1.10258 0.57182 0.58753
 C359 C 1.09741 0.59538 0.62520
 C360 C 1.12181 0.61566 0.64310
 H361 H 1.20061 0.66681 0.74372
 H362 H 1.22943 0.70183 0.61351
 H363 H 1.13758 0.55041 0.53946
 H364 H 1.07428 0.59876 0.64057
 H365 H 1.19362 0.65688 0.58054
 H366 H 1.18078 0.58608 0.57148
 H367 H 1.16607 0.62118 0.71058
 H368 H 1.11675 0.63445 0.67143
 C369 C 0.65525 0.17814 0.60606
 C370 C 0.65389 0.21894 0.61004
 C371 C 0.67888 0.23707 0.63027
 C372 C 0.70507 0.21456 0.64886
 C373 C 0.70853 0.17449 0.63755
 C374 C 0.68374 0.15652 0.61678
 C375 C 0.62633 0.15747 0.59615
 C376 C 0.62040 0.12439 0.62111
 C377 C 0.59465 0.10274 0.61122
 C378 C 0.57400 0.11355 0.57605
 C379 C 0.57802 0.14872 0.55378
 C380 C 0.60422 0.17047 0.56347
 H381 H 0.67627 0.26847 0.63533
 H382 H 0.72953 0.15628 0.64625
 H383 H 0.59176 0.07642 0.63009
 H384 H 0.56180 0.15841 0.52778
 H385 H 0.68614 0.12517 0.61138
 H386 H 0.63610 0.11471 0.64796
 H387 H 0.63261 0.23655 0.60080
 H388 H 0.60778 0.19649 0.54444
 C389 C 0.67560 0.64236 0.12569
 C390 C 0.67568 0.68175 0.11332
 C391 C 0.69643 0.70630 0.13377
 C392 C 0.71751 0.69201 0.16715
 C393 C 0.71845 0.65181 0.17751
 C394 C 0.69799 0.62721 0.15654
 C395 C 0.64970 0.61852 0.11096
 C396 C 0.65608 0.58039 0.09469
 C397 C 0.63114 0.55788 0.08202
 C398 C 0.59945 0.57294 0.08626
 C399 C 0.59322 0.61079 0.10353
 C400 C 0.61811 0.63341 0.11551
 H401 H 0.69434 0.73715 0.12576
 H402 H 0.73305 0.63942 0.20403
 H403 H 0.63665 0.52885 0.06863
 H404 H 0.56911 0.62336 0.10680
 H405 H 0.69799 0.59699 0.16698
 H406 H 0.68033 0.56832 0.09125
 H407 H 0.65855 0.69397 0.08944
 H408 H 0.61267 0.66249 0.12881
 C409 C 0.82146 -0.13611 0.14898
 C410 C 0.79382 -0.14477 0.12575
 C411 C 0.77214 -0.16915 0.14425
 C412 C 0.77753 -0.18572 0.18642
 C413 C 0.80419 -0.17531 0.21067
 C414 C 0.82582 -0.15079 0.19224
 C415 C 0.84669 -0.11446 0.12714
 C416 C 0.87887 -0.12595 0.13461
 C417 C 0.90280 -0.10726 0.11320
 C418 C 0.89545 -0.07645 0.08335
 C419 C 0.86328 -0.06473 0.07578
 C420 C 0.83918 -0.08353 0.09740
 H421 H 0.75158 -0.17602 0.12487
 H422 H 0.80930 -0.18762 0.24304
 H423 H 0.92721 -0.11738 0.11992
 H424 H 0.85670 -0.04109 0.05315
 H425 H 0.84647 -0.14412 0.21155
 H426 H 0.88569 -0.15015 0.15636
 H427 H 0.78963 -0.13424 0.09239
 H428 H 0.81467 -0.07369 0.09100
 C429 C 0.82873 0.36315 0.64760
 C430 C 0.80420 0.35141 0.62025
 C431 C 0.78317 0.32473 0.63519
 C432 C 0.78602 0.30838 0.67806
 C433 C 0.81015 0.32140 0.70592
 C434 C 0.83107 0.34838 0.69090
 C435 C 0.85311 0.38827 0.62984
 C436 C 0.88513 0.38053 0.64149
 C437 C 0.90862 0.40147 0.62242
 C438 C 0.90091 0.43070 0.59079
 C439 C 0.86881 0.43929 0.57976
 C440 C 0.84514 0.41830 0.59914
 H441 H 0.76442 0.31773 0.61266
 H442 H 0.81431 0.30983 0.73873
 H443 H 0.93305 0.39396 0.63195
 H444 H 0.86204 0.46168 0.55566
 H445 H 0.84949 0.35721 0.71315
 H446 H 0.89231 0.35723 0.66427
 H447 H 0.80169 0.36195 0.58663
 H448 H 0.82062 0.42536 0.58980
 C449 C 0.35566 -0.17900 0.64334
 C450 C 0.32856 -0.18686 0.61856
 C451 C 0.30327 -0.20414 0.63825
 C452 C 0.30441 -0.21434 0.68326
 C453 C 0.33141 -0.20613 0.70816
 C454 C 0.35691 -0.18891 0.68835
 C455 C 0.38108 -0.15751 0.62279
 C456 C 0.41358 -0.16844 0.62955
 C457 C 0.43699 -0.14642 0.61078
 C458 C 0.42794 -0.11303 0.58586
 C459 C 0.39560 -0.10279 0.57858
 C460 C 0.37249 -0.12474 0.59665
 H461 H 0.28266 -0.20929 0.61811
 H462 H 0.33316 -0.21340 0.74272
 H463 H 0.46187 -0.15455 0.61696
 H464 H 0.38816 -0.07704 0.55945
 H465 H 0.37729 -0.18252 0.70840
 H466 H 0.42077 -0.19377 0.64943
 H467 H 0.32687 -0.17949 0.58380
 H468 H 0.34776 -0.11528 0.59130
 C469 C 0.32893 0.35111 0.14481
 C470 C 0.30155 0.34234 0.12104
 C471 C 0.27989 0.31767 0.13914
 C472 C 0.28522 0.30118 0.18134
 C473 C 0.31209 0.31107 0.20548
 C474 C 0.33345 0.33592 0.18765
 C475 C 0.35385 0.37388 0.12451
 C476 C 0.38601 0.36263 0.13232
 C477 C 0.40984 0.38355 0.11415
 C478 C 0.40234 0.41626 0.08717
 C479 C 0.37018 0.42740 0.07868
 C480 C 0.34615 0.40640 0.09721
 H481 H 0.25924 0.31107 0.11982
 H482 H 0.31756 0.29853 0.23761
 H483 H 0.43429 0.37366 0.12103
 H484 H 0.36358 0.45235 0.05789
 H485 H 0.35395 0.34263 0.20726
 H486 H 0.39289 0.33713 0.15211
 H487 H 0.29742 0.35341 0.08788
 H488 H 0.32158 0.41589 0.09065
 C489 C 0.82724 0.15929 -0.17222
 C490 C 0.81663 0.19780 -0.16109
 C491 C 0.79659 0.22031 -0.19002
 C492 C 0.78605 0.20436 -0.23030
 C493 C 0.79687 0.16540 -0.24057
 C494 C 0.81716 0.14347 -0.21219
 C495 C 0.85104 0.13628 -0.14488
 C496 C 0.87989 0.12304 -0.16416
 C497 C 0.90239 0.10004 -0.14022
 C498 C 0.89652 0.08905 -0.09645
 C499 C 0.86743 0.10182 -0.07702
 C500 C 0.84494 0.12571 -0.10098
 H501 H 0.78888 0.24964 -0.17979
 H502 H 0.79093 0.15183 -0.27161
 H503 H 0.92450 0.09059 -0.15622
 H504 H 0.86242 0.09402 -0.04324
 H505 H 0.82543 0.11402 -0.22181
 H506 H 0.88508 0.13070 -0.19794
 H507 H 0.82445 0.21075 -0.13052
 H508 H 0.82266 0.13538 -0.08562
 C509 C 0.83577 0.68027 0.35013
 C510 C 0.80370 0.68752 0.36164
 C511 C 0.78247 0.70746 0.33247
 C512 C 0.79302 0.72023 0.29148
 C513 C 0.82512 0.71443 0.28059
 C514 C 0.84638 0.69481 0.30976
 C515 C 0.85796 0.65571 0.37841
 C516 C 0.88938 0.66573 0.38384
 C517 C 0.91162 0.64040 0.40520
 C518 C 0.90304 0.60434 0.42190
 C519 C 0.87120 0.59514 0.41883
 C520 C 0.84882 0.62061 0.39711
 H521 H 0.75752 0.71111 0.34081
 H522 H 0.83339 0.72338 0.24860
 H523 H 0.93582 0.64886 0.40790
 H524 H 0.86390 0.56767 0.43156
 H525 H 0.87083 0.68920 0.29964
 H526 H 0.89698 0.69290 0.37066
 H527 H 0.79494 0.67694 0.39262
 H528 H 0.82474 0.61203 0.39319
 C529 C 0.35559 0.18706 0.33780
 C530 C 0.33090 0.21290 0.35361
 C531 C 0.30549 0.22524 0.32591
 C532 C 0.30400 0.21116 0.28235
 C533 C 0.32910 0.18623 0.26619
 C534 C 0.35478 0.17453 0.29357
 C535 C 0.38019 0.16945 0.36823
 C536 C 0.37086 0.15116 0.40701
 C537 C 0.39283 0.12767 0.43146
 C538 C 0.42464 0.12300 0.41834
 C539 C 0.43458 0.14331 0.38136
 C540 C 0.41241 0.16622 0.35622
 H541 H 0.28639 0.24453 0.33901
 H542 H 0.32870 0.17549 0.23248
 H543 H 0.38461 0.11126 0.45916
 H544 H 0.45892 0.13925 0.37024
 H545 H 0.37332 0.15425 0.28074
 H546 H 0.34612 0.15264 0.41656
 H547 H 0.33100 0.22285 0.38764
 H548 H 0.42010 0.18002 0.32637
 C549 C 0.33196 0.67141 -0.13164
 C550 C 0.33990 0.70685 -0.15060
 C551 C 0.31908 0.72670 -0.18019
 C552 C 0.29023 0.71123 -0.19131
 C553 C 0.28055 0.67893 -0.16752
 C554 C 0.30133 0.65900 -0.13816
 C555 C 0.35683 0.64438 -0.11182
 C556 C 0.35052 0.62092 -0.07530
 C557 C 0.37351 0.59276 -0.05998
 C558 C 0.40308 0.58769 -0.08104
 C559 C 0.40919 0.61110 -0.11757
 C560 C 0.38635 0.63903 -0.13279
 H561 H 0.32671 0.75224 -0.19661
 H562 H 0.25771 0.66737 -0.17390
 H563 H 0.36840 0.57555 -0.03126
 H564 H 0.43171 0.60784 -0.13459
 H565 H 0.29436 0.63206 -0.12367
 H566 H 0.32789 0.62441 -0.05862
 H567 H 0.36308 0.71773 -0.14489
 H568 H 0.39156 0.65576 -0.16183
 C569 C 1.17018 -0.15304 -0.16542
 C570 C 1.17040 -0.19399 -0.16400
 C571 C 1.19191 -0.21703 -0.18920
 C572 C 1.21367 -0.19972 -0.21657
 C573 C 1.21517 -0.15894 -0.21582
 C574 C 1.19349 -0.13563 -0.19029
 C575 C 1.14407 -0.12925 -0.14352
 C576 C 1.15003 -0.09699 -0.11666
 C577 C 1.12504 -0.07626 -0.09458
 C578 C 1.09361 -0.08714 -0.09950
 C579 C 1.08774 -0.11881 -0.12733
 C580 C 1.11265 -0.13963 -0.14892
 H581 H 1.19073 -0.24854 -0.18874
 H582 H 1.23184 -0.14512 -0.23670
 H583 H 1.13034 -0.05183 -0.07358
 H584 H 1.06389 -0.12795 -0.13205
 H585 H 1.19383 -0.10408 -0.19179
 H586 H 1.17405 -0.08843 -0.11197
 H587 H 1.15319 -0.20818 -0.14436
 H588 H 1.10732 -0.16401 -0.17000
 C589 C 1.16694 0.33644 0.34267
 C590 C 1.16269 0.29619 0.33983
 C591 C 1.18280 0.27168 0.31400
 C592 C 1.20771 0.28680 0.29041
 C593 C 1.21328 0.32657 0.29534
 C594 C 1.19302 0.35125 0.32129
 C595 C 1.14268 0.36286 0.36503
 C596 C 1.15119 0.39300 0.39354
 C597 C 1.12769 0.41694 0.41497
 C598 C 1.09531 0.41139 0.40781
 C599 C 1.08704 0.38170 0.37853
 C600 C 1.11038 0.35779 0.35753
 H601 H 1.17843 0.24094 0.31171
 H602 H 1.23224 0.33901 0.27738
 H603 H 1.13486 0.43959 0.43726
 H604 H 1.06242 0.37653 0.37200
 H605 H 1.19680 0.38218 0.32284
 H606 H 1.17595 0.39751 0.39989
 H607 H 1.14324 0.28380 0.35681
 H608 H 1.10309 0.33533 0.33506
 C609 C 0.64576 -0.18406 0.34335
 C610 C 0.65402 -0.22438 0.34438
 C611 C 0.67899 -0.24035 0.31842
 C612 C 0.69646 -0.21619 0.29168
 C613 C 0.68976 -0.17563 0.29310
 C614 C 0.66441 -0.15970 0.31849
 C615 C 0.61650 -0.16751 0.36527
 C616 C 0.59490 -0.14279 0.34128
 C617 C 0.56931 -0.12299 0.36238
 C618 C 0.56485 -0.12716 0.40806
 C619 C 0.58480 -0.15439 0.43148
 C620 C 0.61044 -0.17468 0.41010
 H621 H 0.68385 -0.27182 0.31769
 H622 H 0.70278 -0.15660 0.27249
 H623 H 0.55435 -0.10197 0.34365
 H624 H 0.58229 -0.15741 0.46682
 H625 H 0.65869 -0.12839 0.31764
 H626 H 0.59861 -0.13752 0.30647
 H627 H 0.64006 -0.24371 0.36326
 H628 H 0.62668 -0.19392 0.42918
 C629 C 0.67315 0.34878 -0.16452
 C630 C 0.66158 0.34304 -0.20725
 C631 C 0.67952 0.32101 -0.23765
 C632 C 0.70982 0.30384 -0.22643
 C633 C 0.72287 0.31311 -0.18491
 C634 C 0.70442 0.33517 -0.15389
 C635 C 0.65085 0.36620 -0.13143
 C636 C 0.65698 0.40041 -0.10813
 C637 C 0.63277 0.42018 -0.08350
 C638 C 0.60228 0.40590 -0.08220
 C639 C 0.59706 0.37036 -0.10332
 C640 C 0.62109 0.35070 -0.12748
 H641 H 0.66925 0.31742 -0.27019
 H642 H 0.74612 0.30106 -0.17487
 H643 H 0.63746 0.44744 -0.06722
 H644 H 0.57407 0.35815 -0.10217
 H645 H 0.71387 0.33978 -0.12105
 H646 H 0.67978 0.41283 -0.11091
 H647 H 0.63797 0.35459 -0.21672
 H648 H 0.61602 0.32403 -0.14477
 C649 C 1.17080 0.13836 -0.13602
 C650 C 1.19554 0.12101 -0.16162
 C651 C 1.21764 0.14401 -0.18139
 C652 C 1.21574 0.18506 -0.17553
 C653 C 1.19202 0.20177 -0.14734
 C654 C 1.16977 0.17883 -0.12812
 C655 C 1.14478 0.11499 -0.12039
 C656 C 1.11308 0.12899 -0.12695
 C657 C 1.08824 0.10746 -0.11260
 C658 C 1.09445 0.07153 -0.09081
 C659 C 1.12623 0.05722 -0.08467
 C660 C 1.15116 0.07861 -0.09968
 H661 H 1.23503 0.12917 -0.20252
 H662 H 1.18977 0.23312 -0.14196
 H663 H 1.06411 0.11953 -0.11770
 H664 H 1.13183 0.02971 -0.06790
 H665 H 1.15117 0.19289 -0.10795
 H666 H 1.10748 0.15663 -0.14346
 H667 H 1.19681 0.08985 -0.16827
 H668 H 1.17543 0.06716 -0.09430
 C669 C 1.17123 0.63829 0.35260
 C670 C 1.19175 0.65841 0.37995
 C671 C 1.21230 0.68438 0.36176
 C672 C 1.21283 0.69046 0.31573
 C673 C 1.19241 0.66977 0.28871
 C674 C 1.17224 0.64378 0.30676
 C675 C 1.14697 0.61409 0.37156
 C676 C 1.11601 0.61702 0.35412
 C677 C 1.09244 0.59585 0.37240
 C678 C 1.09912 0.57129 0.40884
 C679 C 1.13028 0.56749 0.42578
 C680 C 1.15402 0.58888 0.40738
 H681 H 1.22678 0.70028 0.38412
 H682 H 1.19181 0.67413 0.25326
 H683 H 1.06872 0.59949 0.35848
 H684 H 1.13612 0.54888 0.45393
 H685 H 1.15698 0.62840 0.28477
 H686 H 1.10968 0.63667 0.32703
 H687 H 1.19102 0.65521 0.41552
 H688 H 1.17778 0.58585 0.42120
 C689 C 0.64887 0.17506 0.38097
 C690 C 0.67759 0.15273 0.37387
 C691 C 0.70360 0.16977 0.35589
 C692 C 0.70134 0.20960 0.34455
 C693 C 0.67421 0.23287 0.35804
 C694 C 0.64797 0.21569 0.37540
 C695 C 0.61961 0.15512 0.39000
 C696 C 0.59680 0.16996 0.42051
 C697 C 0.57091 0.14824 0.43097
 C698 C 0.56811 0.11116 0.41197
 C699 C 0.58913 0.09858 0.37817
 C700 C 0.61449 0.12031 0.36732
 H701 H 0.72472 0.15110 0.34965
 H702 H 0.67230 0.26404 0.35164
 H703 H 0.55405 0.15947 0.45532
 H704 H 0.58709 0.07077 0.36158
 H705 H 0.62640 0.23379 0.38149
 H706 H 0.59968 0.19734 0.43760
 H707 H 0.67945 0.12156 0.38027
 H708 H 0.63073 0.10914 0.34197
 C709 C 0.67168 0.64650 -0.11564
 C710 C 0.70229 0.63226 -0.12774
 C711 C 0.72260 0.65671 -0.14881
 C712 C 0.71223 0.69581 -0.15940
 C713 C 0.68346 0.71111 -0.14043
 C714 C 0.66323 0.68662 -0.11958
 C715 C 0.64750 0.61931 -0.10334
 C716 C 0.61725 0.62354 -0.12301
 C717 C 0.59392 0.59857 -0.11186
 C718 C 0.60022 0.56884 -0.08055
 C719 C 0.63090 0.56369 -0.06195
 C720 C 0.65439 0.58863 -0.07343
 H721 H 0.74564 0.64382 -0.15804
 H722 H 0.67527 0.74147 -0.14537
 H723 H 0.57064 0.60335 -0.12694
 H724 H 0.63648 0.54124 -0.03745
 H725 H 0.64018 0.69866 -0.10870
 H726 H 0.61160 0.64633 -0.14710
 H727 H 0.70980 0.60161 -0.12356
 H728 H 0.67762 0.58467 -0.05804
 C729 C 0.81885 -0.13962 -0.15548
 C730 C 0.79261 -0.14924 -0.13046
 C731 C 0.77043 -0.17402 -0.14761
 C732 C 0.77367 -0.19059 -0.19043
 C733 C 0.79889 -0.17866 -0.21653
 C734 C 0.82112 -0.15382 -0.19922
 C735 C 0.84457 -0.11699 -0.13514
 C736 C 0.87660 -0.12670 -0.14535
 C737 C 0.90096 -0.10738 -0.12484
 C738 C 0.89425 -0.07765 -0.09325
 C739 C 0.86221 -0.06752 -0.08323
 C740 C 0.83772 -0.08693 -0.10387
 H741 H 0.75076 -0.18021 -0.12664
 H742 H 0.80307 -0.19019 -0.24942
 H743 H 0.92524 -0.11622 -0.13356
 H744 H 0.85603 -0.04475 -0.05925
 H745 H 0.84060 -0.14641 -0.21998
 H746 H 0.88302 -0.15008 -0.16846
 H747 H 0.78977 -0.13887 -0.09678
 H748 H 0.81338 -0.07826 -0.09538
 C749 C 0.82607 0.36114 0.36119
 C750 C 0.79671 0.35689 0.38143
 C751 C 0.77592 0.33045 0.36428
 C752 C 0.78420 0.30753 0.32675
 C753 C 0.81289 0.31334 0.30543
 C754 C 0.83342 0.34001 0.32222
 C755 C 0.85037 0.38446 0.38239
 C756 C 0.88204 0.36929 0.38302
 C757 C 0.90557 0.39032 0.40204
 C758 C 0.89824 0.42719 0.42142
 C759 C 0.86641 0.44220 0.42214
 C760 C 0.84260 0.42095 0.40267
 H761 H 0.75359 0.32760 0.38091
 H762 H 0.82027 0.29630 0.27674
 H763 H 0.92969 0.37731 0.40166
 H764 H 0.86006 0.47043 0.43704
 H765 H 0.85561 0.34325 0.30533
 H766 H 0.88871 0.34073 0.36911
 H767 H 0.79038 0.37276 0.41148
 H768 H 0.81829 0.43328 0.40280
 C769 C 0.35815 -0.18403 0.35410
 C770 C 0.33358 -0.19530 0.38138
 C771 C 0.30684 -0.21159 0.36321
 C772 C 0.30386 -0.21704 0.31717
 C773 C 0.32832 -0.20529 0.28999
 C774 C 0.35522 -0.18958 0.30818
 C775 C 0.38541 -0.16369 0.37291
 C776 C 0.39741 -0.13256 0.34966
 C777 C 0.42031 -0.11026 0.36866
 C778 C 0.43183 -0.11813 0.41162
 C779 C 0.42143 -0.15057 0.43419
 C780 C 0.39835 -0.17315 0.41499
 H781 H 0.28823 -0.21909 0.38538
 H782 H 0.32718 -0.20844 0.25453
 H783 H 0.42791 -0.08541 0.35045
 H784 H 0.42970 -0.15703 0.46752
 H785 H 0.37375 -0.18168 0.28605
 H786 H 0.38789 -0.12388 0.31759
 H787 H 0.33452 -0.19050 0.41675
 H788 H 0.39000 -0.19733 0.43357
 C789 C 0.33179 0.34522 -0.14079
 C790 C 0.30818 0.32908 -0.11563
 C791 C 0.28717 0.30408 -0.13526
 C792 C 0.28911 0.29458 -0.18077
 C793 C 0.31251 0.31193 -0.20580
 C794 C 0.33328 0.33688 -0.18616
 C795 C 0.35619 0.36866 -0.11983
 C796 C 0.38805 0.36219 -0.13243
 C797 C 0.41144 0.38374 -0.11347
 C798 C 0.40375 0.41241 -0.08116
 C799 C 0.37185 0.41898 -0.06829
 C800 C 0.34828 0.39717 -0.08737
 H801 H 0.26926 0.29276 -0.11443
 H802 H 0.31647 0.30517 -0.24026
 H803 H 0.43571 0.37764 -0.12417
 H804 H 0.36516 0.44069 -0.04332
 H805 H 0.35105 0.34916 -0.20658
 H806 H 0.39505 0.33994 -0.15665
 H807 H 0.30649 0.33492 -0.08048
 H808 H 0.32387 0.40286 -0.07713
 C809 C 1.16905 -0.14136 0.17210
 C810 C 1.19648 -0.16046 0.15367
 C811 C 1.21758 -0.18385 0.18015
 C812 C 1.21148 -0.18851 0.22536
 C813 C 1.18544 -0.16702 0.24424
 C814 C 1.16456 -0.14366 0.21800
 C815 C 1.14363 -0.12211 0.14369
 C816 C 1.11170 -0.12829 0.15234
 C817 C 1.08733 -0.11054 0.12653
 C818 C 1.09407 -0.08591 0.09124
 C819 C 1.12606 -0.08000 0.08207
 C820 C 1.15062 -0.09814 0.10789
 H821 H 1.23735 -0.20038 0.16473
 H822 H 1.18044 -0.16972 0.27913
 H823 H 1.06308 -0.11602 0.13459
 H824 H 1.13213 -0.06117 0.05519
 H825 H 1.14413 -0.12851 0.23341
 H826 H 1.10550 -0.14727 0.17901
 H827 H 1.20058 -0.15928 0.11842
 H828 H 1.17500 -0.09286 0.10039
 C829 C 1.17049 0.34807 0.66841
 C830 C 1.19808 0.32982 0.64950
 C831 C 1.21813 0.30396 0.67459
 C832 C 1.21061 0.29594 0.71861
 C833 C 1.18424 0.31612 0.73812
 C834 C 1.16454 0.34203 0.71341
 C835 C 1.14619 0.37040 0.64120
 C836 C 1.11407 0.36388 0.64729
 C837 C 1.09047 0.38517 0.62365
 C838 C 1.09821 0.41363 0.59294
 C839 C 1.13044 0.41965 0.58582
 C840 C 1.15429 0.39808 0.60972
 H841 H 1.23848 0.28875 0.65907
 H842 H 1.17844 0.31106 0.77237
 H843 H 1.06602 0.37923 0.62972
 H844 H 1.13719 0.44128 0.56229
 H845 H 1.14396 0.35649 0.72919
 H846 H 1.10711 0.34206 0.67046
 H847 H 1.20321 0.33398 0.61488
 H848 H 1.17891 0.40360 0.60435
 C849 C 0.65121 -0.18990 0.65061
 C850 C 0.67851 -0.17068 0.66251
 C851 C 0.70229 -0.18918 0.68937
 C852 C 0.69850 -0.22674 0.70639
 C853 C 0.67230 -0.24684 0.69108
 C854 C 0.64913 -0.22876 0.66342
 C855 C 0.62316 -0.16787 0.63065
 C856 C 0.60773 -0.18081 0.59231
 C857 C 0.58193 -0.15808 0.57364
 C858 C 0.57110 -0.12250 0.59351
 C859 C 0.58505 -0.11177 0.63386
 C860 C 0.61086 -0.13382 0.65181
 H861 H 0.72188 -0.17253 0.69995
 H862 H 0.66922 -0.27666 0.70100
 H863 H 0.57162 -0.16721 0.54277
 H864 H 0.57702 -0.08490 0.65059
 H865 H 0.62855 -0.24434 0.65439
 H866 H 0.61642 -0.20758 0.57597
 H867 H 0.68069 -0.14061 0.65269
 H868 H 0.62154 -0.12393 0.68217
 C869 C 0.67694 0.33845 0.15457
 C870 C 0.69993 0.35503 0.18117
 C871 C 0.71893 0.33130 0.20963
 C872 C 0.71477 0.29112 0.21165
 C873 C 0.69419 0.27414 0.18186
 C874 C 0.67552 0.29765 0.15325
 C875 C 0.65119 0.36335 0.13406
 C876 C 0.61967 0.35463 0.14138
 C877 C 0.59470 0.37781 0.12320
 C878 C 0.60069 0.41019 0.09708
 C879 C 0.63228 0.41941 0.09027
 C880 C 0.65740 0.39625 0.10896
 H881 H 0.73477 0.34467 0.23265
 H882 H 0.69109 0.24301 0.18284
 H883 H 0.57070 0.36986 0.12904
 H884 H 0.63757 0.44429 0.07029
 H885 H 0.65833 0.28428 0.13231
 H886 H 0.61432 0.32990 0.16157
 H887 H 0.70133 0.38647 0.18267
 H888 H 0.68159 0.40358 0.10329
 C889 C 0.82996 0.15734 0.16661
 C890 C 0.83594 0.19524 0.18120
 C891 C 0.81660 0.21463 0.21273
 C892 C 0.79032 0.19705 0.23001
 C893 C 0.78363 0.15967 0.21421
 C894 C 0.80332 0.13998 0.18314
 C895 C 0.85283 0.13519 0.13694
 C896 C 0.84293 0.10887 0.10444
 C897 C 0.86532 0.08704 0.07846
 C898 C 0.89795 0.09131 0.08454
 C899 C 0.90749 0.11813 0.11659
 C900 C 0.88540 0.13941 0.14246
 H901 H 0.82267 0.24319 0.22389
 H902 H 0.76304 0.14550 0.22543
 H903 H 0.85718 0.06666 0.05413
 H904 H 0.93234 0.12230 0.12273
 H905 H 0.79806 0.11078 0.17291
 H906 H 0.81793 0.10512 0.09911
 H907 H 0.85586 0.20995 0.16854
 H908 H 0.89409 0.15844 0.16781
 C909 C 0.83626 0.67149 0.66421
 C910 C 0.83432 0.65906 0.70799
 C911 C 0.81240 0.67740 0.73666
 C912 C 0.79179 0.70918 0.72264
 C913 C 0.79475 0.72281 0.67896
 C914 C 0.81648 0.70360 0.64975
 C915 C 0.86004 0.65106 0.63517
 C916 C 0.85094 0.62908 0.59843
 C917 C 0.87359 0.60471 0.57575
 C918 C 0.90561 0.60239 0.58941
 C919 C 0.91451 0.62568 0.62529
 C920 C 0.89201 0.64949 0.64794
 H921 H 0.81214 0.66683 0.77033
 H922 H 0.77926 0.74672 0.66636
 H923 H 0.86604 0.58743 0.54803
 H924 H 0.93889 0.62485 0.63683
 H925 H 0.81794 0.71381 0.61604
 H926 H 0.82623 0.62959 0.58848
 H927 H 0.84971 0.63470 0.71996
 H928 H 0.89943 0.66601 0.67637
 C929 C 0.35897 0.18584 0.66478
 C930 C 0.35306 0.16707 0.70482
 C931 C 0.32652 0.17860 0.73000
 C932 C 0.30495 0.20908 0.71576
 C933 C 0.31115 0.22869 0.67637
 C934 C 0.33783 0.21702 0.65094
 C935 C 0.38583 0.17053 0.63664
 C936 C 0.41456 0.15595 0.65622
 C937 C 0.43698 0.13347 0.63159
 C938 C 0.43144 0.12599 0.58677
 C939 C 0.40425 0.14336 0.56608
 C940 C 0.38155 0.16553 0.59082
 H941 H 0.32295 0.16353 0.76077
 H942 H 0.29500 0.25236 0.66465
 H943 H 0.45770 0.11982 0.64814
 H944 H 0.39937 0.13715 0.53169
 H945 H 0.34182 0.23217 0.62035
 H946 H 0.41887 0.15997 0.69123
 H947 H 0.36848 0.14254 0.71619
 H948 H 0.35962 0.17606 0.57479
 C949 C 0.33166 0.67141 0.13833
 C950 C 0.29876 0.67137 0.13089
 C951 C 0.27756 0.69189 0.15934
 C952 C 0.28896 0.71298 0.19529
 C953 C 0.32168 0.71436 0.20168
 C954 C 0.34286 0.69388 0.17345
 C955 C 0.35440 0.64571 0.11243
 C956 C 0.38443 0.65834 0.10235
 C957 C 0.40778 0.63242 0.08451
 C958 C 0.40156 0.59338 0.07569
 C959 C 0.37096 0.58123 0.08286
 C960 C 0.34758 0.60715 0.10141
 H961 H 0.25227 0.69005 0.15443
 H962 H 0.33092 0.72866 0.23041
 H963 H 0.43097 0.64285 0.07820
 H964 H 0.36556 0.55132 0.07604
 H965 H 0.36799 0.69373 0.18088
 H966 H 0.39016 0.68809 0.10938
 H967 H 0.28944 0.65461 0.10393
 H968 H 0.32473 0.59643 0.10910
   
