data_POSCAR
  _audit_creation_date              2014-09-24
  _audit_creation_method            'ToBaCCo'
  _symmetry_space_group_name_H-M    'P1'
  _symmetry_Int_Tables_number       1
  _symmetry_cell_setting            triclinic
  loop_
  _symmetry_equiv_pos_as_xyz
 x,y,z
_cell_length_a 25.3403
_cell_length_b 25.3780
_cell_length_c 25.8565
_cell_angle_alpha 91.307600
_cell_angle_beta 91.449300
_cell_angle_gamma 90.417400
loop_
  _atom_site_label
  _atom_site_type_symbol
  _atom_site_fract_x
  _atom_site_fract_y
  _atom_site_fract_z
C1 C -0.00956 0.49748 0.24492
 C2 C 0.01057 0.49654 0.75278
 C3 C 0.24040 0.00183 0.51491
 C4 C 0.76303 0.00492 0.50624
 C5 C 0.50368 0.25741 0.98550
 C6 C 0.49586 0.73902 0.99801
 B7 B 1.00606 1.05236 0.04439
 B8 B 1.03688 0.99458 0.06036
 B9 B 0.96949 0.99903 0.06379
 B10 B 0.94716 1.03656 0.01248
 B11 B 1.00121 1.05541 -0.02199
 B12 B 1.05715 1.02879 0.00712
 B13 B 0.99293 0.94547 -0.02858
 B14 B 0.96146 1.00316 -0.04411
 B15 B 1.02900 0.99885 -0.04799
 B16 B 1.05158 0.96160 0.00352
 B17 B 0.99733 0.94249 0.03772
 B18 B 0.94156 0.96889 0.00876
 B19 B 0.55507 0.50575 0.45957
 B20 B 0.55672 0.50140 0.52548
 B21 B 0.53147 0.55866 0.49641
 B22 B 0.49813 0.53771 0.44019
 B23 B 0.50094 0.47022 0.43491
 B24 B 0.53606 0.44754 0.48768
 B25 B 0.44598 0.49699 0.52465
 B26 B 0.44479 0.50010 0.45759
 B27 B 0.46854 0.44451 0.48702
 B28 B 0.50276 0.46420 0.54306
 B29 B 0.50040 0.53188 0.54873
 B30 B 0.46352 0.55477 0.49445
 C31 C 0.93283 1.42455 0.19956
 C32 C 0.92862 1.37707 0.17167
 C33 C 0.97291 1.35591 0.14814
 C34 C 1.01906 1.38679 0.14592
 C35 C 1.02296 1.43469 0.17343
 C36 C 0.98217 1.45071 0.20616
 C37 C 0.97091 1.30062 0.12959
 C38 C 1.01285 1.26939 0.13463
 C39 C 1.01181 1.21360 0.11839
 C40 C 1.05614 1.19303 0.09521
 C41 C 1.05552 1.14174 0.07546
 C42 C 1.01146 1.10782 0.07901
 C43 C 0.96884 1.12830 0.10724
 C44 C 0.96845 1.18047 0.12591
 H45 H 0.89776 1.43917 0.21783
 H46 H 0.89161 1.35538 0.17118
 H47 H 1.05271 1.37312 0.12454
 H48 H 1.05946 1.45708 0.17250
 H49 H 0.93345 1.28434 0.11550
 H50 H 1.05020 1.28555 0.14915
 H51 H 1.09082 1.21749 0.09024
 H52 H 1.09038 1.13058 0.05726
 H53 H 0.93466 1.10527 0.11398
 H54 H 0.93420 1.19484 0.14592
 C55 C 0.93684 0.56159 0.18953
 C56 C 0.93028 0.61077 0.16721
 C57 C 0.97353 0.64475 0.16263
 C58 C 1.02402 0.62732 0.17774
 C59 C 1.03045 0.57841 0.20026
 C60 C 0.98625 0.54679 0.21101
 C61 C 0.96511 0.69866 0.14382
 C62 C 1.00220 0.72380 0.11798
 C63 C 0.99641 0.77763 0.09892
 C64 C 1.02225 0.78981 0.05406
 C65 C 1.02189 0.84068 0.03602
 C66 C 0.99642 0.88268 0.06195
 C67 C 0.97038 0.86941 0.10782
 C68 C 0.97008 0.81768 0.12592
 H69 H 0.90238 0.53673 0.19368
 H70 H 0.89121 0.62271 0.15443
 H71 H 1.05858 0.65214 0.17428
 H72 H 1.07012 0.56667 0.21086
 H73 H 0.92729 0.71715 0.14991
 H74 H 1.03760 0.70297 0.10727
 H75 H 1.04363 0.75978 0.03288
 H76 H 1.04456 0.84619 0.00235
 H77 H 0.95135 0.89860 0.13093
 H78 H 0.95088 0.80956 0.16184
 C79 C 1.01527 1.39702 -0.24855
 C80 C 1.01520 1.34771 -0.22631
 C81 C 1.01012 1.34267 -0.17291
 C82 C 1.00424 1.38888 -0.14213
 C83 C 1.00433 1.43882 -0.16465
 C84 C 1.01128 1.44376 -0.21826
 C85 C 1.00998 1.28823 -0.15262
 C86 C 1.00863 1.27595 -0.10255
 C87 C 1.00684 1.22064 -0.08499
 C88 C 0.98215 1.21005 -0.03883
 C89 C 0.97901 1.15873 -0.02105
 C90 C 1.00196 1.11525 -0.04720
 C91 C 1.02591 1.12696 -0.09448
 C92 C 1.02873 1.17839 -0.11288
 H93 H 1.01887 1.39890 -0.29013
 H94 H 1.01903 1.31315 -0.25128
 H95 H 0.99872 1.38707 -0.10094
 H96 H 0.99776 1.47301 -0.14007
 H97 H 1.01010 1.25638 -0.18120
 H98 H 1.00622 1.30672 -0.07316
 H99 H 0.96404 1.24157 -0.01673
 H100 H 0.95658 1.15412 0.01299
 H101 H 1.04192 1.09686 -0.11854
 H102 H 1.04880 1.18474 -0.14866
 C103 C 1.05088 0.55572 -0.17297
 C104 C 1.05705 0.60516 -0.14770
 C105 C 1.02645 0.64823 -0.16323
 C106 C 0.99137 0.64157 -0.20557
 C107 C 0.98525 0.59289 -0.23049
 C108 C 1.01317 0.54800 -0.21370
 C109 C 1.03210 0.70058 -0.13688
 C110 C 0.99043 0.73257 -0.13269
 C111 C 0.99238 0.78598 -0.10899
 C112 C 1.03531 0.82032 -0.11365
 C113 C 1.03359 0.87152 -0.09218
 C114 C 0.98982 0.89005 -0.06407
 C115 C 0.94691 0.85461 -0.06203
 C116 C 0.94772 0.80427 -0.08433
 H117 H 1.07633 0.52381 -0.16135
 H118 H 1.08576 0.60980 -0.11616
 H119 H 0.96955 0.67455 -0.22081
 H120 H 0.95953 0.59150 -0.26451
 H121 H 1.07001 0.71219 -0.11981
 H122 H 0.95170 0.71798 -0.14500
 H123 H 1.06985 0.80804 -0.13444
 H124 H 1.06736 0.89575 -0.09750
 H125 H 0.91180 0.86404 -0.04338
 H126 H 0.91331 0.77899 -0.08129
 C127 C 1.16120 0.96801 0.45730
 C128 C 1.13502 0.96224 0.40880
 C129 C 1.15440 0.98712 0.36496
 C130 C 1.20118 1.01668 0.37063
 C131 C 1.22662 1.02295 0.41857
 C132 C 1.20654 1.00042 0.46381
 C133 C 1.12792 0.97859 0.31321
 C134 C 1.13620 1.01040 0.27307
 C135 C 1.11454 1.00229 0.21941
 C136 C 1.12410 1.04112 0.18318
 C137 C 1.10338 1.03652 0.13268
 C138 C 1.07180 0.99321 0.11556
 C139 C 1.06534 0.95325 0.15213
 C140 C 1.08608 0.95733 0.20273
 H141 H 1.14671 0.94603 0.48947
 H142 H 1.10012 0.93739 0.40533
 H143 H 1.22024 1.03338 0.33780
 H144 H 1.26397 1.04380 0.41886
 H145 H 1.10116 0.94538 0.30876
 H146 H 1.15981 1.04568 0.27951
 H147 H 1.14711 1.07596 0.19410
 H148 H 1.11206 1.06808 0.10794
 H149 H 1.04379 0.91844 0.14313
 H150 H 1.07897 0.92516 0.22836
 C151 C 1.24243 1.01298 -0.38766
 C152 C 1.22042 1.02177 -0.33964
 C153 C 1.16617 1.02875 -0.33553
 C154 C 1.13423 1.02923 -0.38084
 C155 C 1.15671 1.02224 -0.42975
 C156 C 1.21121 1.01213 -0.43384
 C157 C 1.14515 1.03577 -0.28311
 C158 C 1.10406 1.00767 -0.26691
 C159 C 1.08806 1.00559 -0.21189
 C160 C 1.04179 0.97851 -0.20068
 C161 C 1.02557 0.97421 -0.14976
 C162 C 1.05353 0.99823 -0.10720
 C163 C 1.10212 1.02215 -0.11923
 C164 C 1.11896 1.02618 -0.17016
 H165 H 1.28453 1.00621 -0.38891
 H166 H 1.24584 1.02172 -0.30529
 H167 H 1.09222 1.03606 -0.37842
 H168 H 1.13131 1.02528 -0.46365
 H169 H 1.16847 1.05996 -0.25617
 H170 H 1.08243 0.98296 -0.29502
 H171 H 1.01794 0.96004 -0.23151
 H172 H 0.99081 0.95078 -0.14480
 H173 H 1.12906 1.03610 -0.08984
 H174 H 1.15687 1.04453 -0.17583
 C175 C 0.83492 1.04951 0.45247
 C176 C 0.86449 1.05383 0.40745
 C177 C 0.85467 1.01978 0.36466
 C178 C 0.81492 0.98134 0.36800
 C179 C 0.78532 0.97744 0.41223
 C180 C 0.79622 1.00954 0.45674
 C181 C 0.88629 1.02382 0.31715
 C182 C 0.86604 1.00903 0.27046
 C183 C 0.89511 1.00557 0.22142
 C184 C 0.87016 0.97944 0.17941
 C185 C 0.89347 0.97664 0.13132
 C186 C 0.94311 0.99974 0.12209
 C187 C 0.96806 1.02550 0.16559
 C188 C 0.94484 1.02831 0.21425
 H189 H 0.84266 1.07710 0.48436
 H190 H 0.89461 1.08419 0.40583
 H191 H 0.80652 0.95339 0.33662
 H192 H 0.75350 0.94887 0.41051
 H193 H 0.92643 1.03832 0.32127
 H194 H 0.82487 0.99743 0.26753
 H195 H 0.83136 0.96191 0.18330
 H196 H 0.86939 0.95963 0.10143
 H197 H 1.00455 1.04665 0.16238
 H198 H 0.96534 1.04986 0.24530
 C199 C 0.85138 0.99759 -0.43912
 C200 C 0.87732 0.99754 -0.39057
 C201 C 0.84839 0.99745 -0.34498
 C202 C 0.79313 0.99625 -0.34865
 C203 C 0.76745 0.99637 -0.39657
 C204 C 0.79576 0.99966 -0.44278
 C205 C 0.87589 1.00179 -0.29397
 C206 C 0.85447 0.98324 -0.25109
 C207 C 0.87824 0.99145 -0.19901
 C208 C 0.86925 0.95404 -0.16167
 C209 C 0.89234 0.95980 -0.11245
 C210 C 0.92457 1.00352 -0.09770
 C211 C 0.92973 1.04255 -0.13534
 C212 C 0.90741 1.03673 -0.18506
 H213 H 0.87525 0.99624 -0.47308
 H214 H 0.92007 0.99772 -0.38856
 H215 H 0.76921 0.99748 -0.31459
 H216 H 0.72468 0.99679 -0.39763
 H217 H 0.91441 1.02062 -0.29179
 H218 H 0.81888 0.95939 -0.25410
 H219 H 0.84560 0.91920 -0.17102
 H220 H 0.88508 0.92852 -0.08711
 H221 H 0.95178 1.07746 -0.12801
 H222 H 0.91315 1.06777 -0.21245
 C223 C 1.40460 1.25367 -0.03223
 C224 C 1.35491 1.23067 -0.02972
 C225 C 1.34870 1.18003 -0.01064
 C226 C 1.39391 1.15271 0.00644
 C227 C 1.44426 1.17605 0.00404
 C228 C 1.45073 1.22652 -0.01690
 C229 C 1.29394 1.15968 -0.00694
 C230 C 1.28064 1.10893 -0.00190
 C231 C 1.22483 1.09111 0.00049
 C232 C 1.21320 1.04560 0.02724
 C233 C 1.16119 1.02790 0.03073
 C234 C 1.11814 1.05344 0.00611
 C235 C 1.13100 1.10029 -0.01956
 C236 C 1.18299 1.11842 -0.02297
 H237 H 1.40668 1.29382 -0.04533
 H238 H 1.32086 1.25319 -0.04208
 H239 H 1.39059 1.11435 0.02346
 H240 H 1.47771 1.15522 0.02010
 H241 H 1.26291 1.18869 -0.00914
 H242 H 1.31105 1.07946 0.00173
 H243 H 1.24444 1.02409 0.04663
 H244 H 1.15563 0.99463 0.05473
 H245 H 1.10140 1.12461 -0.03587
 H246 H 1.18997 1.15366 -0.04459
 C247 C 0.60287 1.24993 -0.00086
 C248 C 0.65108 1.22450 -0.00450
 C249 C 0.65391 1.17392 -0.02701
 C250 C 0.60752 1.15022 -0.04774
 C251 C 0.55863 1.17563 -0.04351
 C252 C 0.55520 1.22523 -0.01800
 C253 C 0.70532 1.14654 -0.02974
 C254 C 0.74121 1.15079 0.00918
 C255 C 0.79259 1.12381 0.00908
 C256 C 0.81054 1.10012 0.05416
 C257 C 0.85911 1.07473 0.05590
 C258 C 0.89328 1.07343 0.01363
 C259 C 0.87504 1.10019 -0.03088
 C260 C 0.82542 1.12419 -0.03353
 H261 H 0.60282 1.28952 0.01568
 H262 H 0.68642 1.24499 0.00959
 H263 H 0.60904 1.11183 -0.06678
 H264 H 0.52398 1.15672 -0.06094
 H265 H 0.71267 1.12073 -0.06269
 H266 H 0.73119 1.17194 0.04444
 H267 H 0.78626 1.10015 0.08807
 H268 H 0.86846 1.05676 0.09128
 H269 H 0.89851 1.10280 -0.06437
 H270 H 0.81320 1.14383 -0.06855
 C271 C 1.44588 0.82637 -0.02179
 C272 C 1.39858 0.85470 -0.02470
 C273 C 1.35040 0.83087 -0.01244
 C274 C 1.35001 0.77743 0.00018
 C275 C 1.39682 0.74938 0.00320
 C276 C 1.44601 0.77365 -0.00560
 C277 C 1.30074 0.86131 -0.01548
 C278 C 1.25852 0.84924 0.01251
 C279 C 1.20719 0.87652 0.00847
 C280 C 1.17246 0.87367 0.04941
 C281 C 1.12346 0.89840 0.04675
 C282 C 1.10617 0.92614 0.00267
 C283 C 1.14177 0.92736 -0.03839
 C284 C 1.19094 0.90300 -0.03594
 H285 H 1.48180 0.84569 -0.03308
 H286 H 1.39961 0.89537 -0.03650
 H287 H 1.31349 0.75662 0.00685
 H288 H 1.39475 0.70813 0.01285
 H289 H 1.29975 0.89515 -0.04020
 H290 H 1.26180 0.81881 0.04106
 H291 H 1.18352 0.85284 0.08411
 H292 H 1.09959 0.89535 0.07996
 H293 H 1.13297 0.94689 -0.07312
 H294 H 1.21573 0.90466 -0.06932
 C295 C 0.59378 0.74410 -0.02447
 C296 C 0.64407 0.76623 -0.01945
 C297 C 0.65268 0.81312 0.00892
 C298 C 0.60980 0.83714 0.03338
 C299 C 0.55917 0.81443 0.02896
 C300 C 0.54964 0.76847 -0.00183
 C301 C 0.70742 0.83366 0.01388
 C302 C 0.71961 0.88493 0.01930
 C303 C 0.77482 0.90435 0.01752
 C304 C 0.78498 0.95230 -0.00556
 C305 C 0.83670 0.97043 -0.01034
 C306 C 0.88094 0.94301 0.00975
 C307 C 0.86930 0.89386 0.03198
 C308 C 0.81761 0.87507 0.03617
 H309 H 0.59017 0.70662 -0.04505
 H310 H 0.67666 0.74616 -0.03753
 H311 H 0.61563 0.87226 0.05745
 H312 H 0.52764 0.83225 0.05055
 H313 H 0.73885 0.80561 0.00800
 H314 H 0.68831 0.91377 0.01983
 H315 H 0.75286 0.97506 -0.02186
 H316 H 0.84106 1.00487 -0.03290
 H317 H 0.89951 0.86770 0.04389
 H318 H 0.81142 0.83744 0.05403
 C319 C 0.93678 0.44966 0.31242
 C320 C 0.89071 0.44499 0.34049
 C321 C 0.85734 0.48831 0.34661
 C322 C 0.87392 0.53770 0.32905
 C323 C 0.91978 0.54216 0.30115
 C324 C 0.94834 0.49690 0.28706
 C325 C 0.80398 0.47999 0.36692
 C326 C 0.77498 0.51969 0.38502
 C327 C 0.72021 0.51376 0.40134
 C328 C 0.70290 0.54864 0.43916
 C329 C 0.65172 0.54550 0.45607
 C330 C 0.61373 0.50999 0.43389
 C331 C 0.63271 0.47363 0.39672
 C332 C 0.68489 0.47583 0.38005
 H333 H 0.96060 0.41494 0.30611
 H334 H 0.87986 0.40690 0.35525
 H335 H 0.85039 0.57273 0.33358
 H336 H 0.93074 0.58083 0.28817
 H337 H 0.78806 0.44024 0.36619
 H338 H 0.79252 0.55840 0.39083
 H339 H 0.72984 0.57706 0.45767
 H340 H 0.64391 0.56881 0.49019
 H341 H 0.60865 0.44220 0.38111
 H342 H 0.69730 0.44794 0.35059
 C343 C 0.05805 0.54069 0.30733
 C344 C 0.10707 0.54357 0.33286
 C345 C 0.14244 0.50167 0.32928
 C346 C 0.12615 0.45498 0.30322
 C347 C 0.07660 0.45181 0.27818
 C348 C 0.04330 0.49621 0.27629
 C349 C 0.19458 0.50730 0.35565
 C350 C 0.23798 0.48182 0.34051
 C351 C 0.28931 0.48831 0.36874
 C352 C 0.33671 0.48201 0.34288
 C353 C 0.38527 0.48781 0.36971
 C354 C 0.38846 0.49880 0.42378
 C355 C 0.33979 0.50641 0.44787
 C356 C 0.29158 0.50043 0.42166
 H357 H 0.03225 0.57441 0.31001
 H358 H 0.11783 0.57924 0.35457
 H359 H 0.15117 0.42059 0.30293
 H360 H 0.06490 0.41435 0.26073
 H361 H 0.19767 0.53616 0.38709
 H362 H 0.23651 0.45720 0.30573
 H363 H 0.33629 0.47363 0.30160
 H364 H 0.41957 0.48634 0.34653
 H365 H 0.33676 0.51641 0.48736
 H366 H 0.25603 0.50447 0.44370
 C367 C 0.91089 0.49636 0.75428
 C368 C 0.86051 0.49702 0.73196
 C369 C 0.85302 0.49385 0.67824
 C370 C 0.89778 0.48816 0.64715
 C371 C 0.94886 0.48729 0.66977
 C372 C 0.95630 0.49356 0.72380
 C373 C 0.79781 0.49770 0.65778
 C374 C 0.78238 0.48973 0.60830
 C375 C 0.72619 0.49250 0.59077
 C376 C 0.70961 0.46264 0.54765
 C377 C 0.65733 0.46416 0.52972
 C378 C 0.61811 0.49658 0.55272
 C379 C 0.63632 0.52508 0.59736
 C380 C 0.68881 0.52381 0.61571
 H381 H 0.91468 0.49971 0.79605
 H382 H 0.82710 0.50068 0.75712
 H383 H 0.89399 0.48493 0.60549
 H384 H 0.98199 0.48173 0.64481
 H385 H 0.76793 0.50595 0.68597
 H386 H 0.81076 0.47776 0.57990
 H387 H 0.73740 0.43811 0.52713
 H388 H 0.65015 0.44179 0.49471
 H389 H 0.61034 0.54376 0.62269
 H390 H 0.69955 0.54729 0.64985
 C391 C 0.06446 0.53760 0.67975
 C392 C 0.11243 0.54579 0.65489
 C393 C 0.15781 0.51790 0.66968
 C394 C 0.15480 0.48324 0.71089
 C395 C 0.10746 0.47513 0.73550
 C396 C 0.06041 0.50045 0.71941
 C397 C 0.20851 0.52597 0.64335
 C398 C 0.24297 0.48649 0.63800
 C399 C 0.29343 0.49092 0.61120
 C400 C 0.30982 0.44788 0.58168
 C401 C 0.35717 0.44961 0.55576
 C402 C 0.39184 0.49341 0.55934
 C403 C 0.37506 0.53598 0.59123
 C404 C 0.32656 0.53518 0.61625
 H405 H 0.03083 0.56124 0.66874
 H406 H 0.11415 0.57407 0.62423
 H407 H 0.18960 0.46343 0.72553
 H408 H 0.10883 0.45012 0.76879
 H409 H 0.21639 0.56367 0.62615
 H410 H 0.23207 0.44743 0.65027
 H411 H 0.28511 0.41292 0.57746
 H412 H 0.36475 0.41597 0.53260
 H413 H 0.39832 0.57173 0.59518
 H414 H 0.31528 0.56894 0.63971
 C415 C 0.47545 0.73410 0.09449
 C416 C 0.48032 0.71145 0.14282
 C417 C 0.50834 0.66450 0.14905
 C418 C 0.53327 0.64203 0.10609
 C419 C 0.52857 0.66497 0.05743
 C420 C 0.49739 0.71018 0.05009
 C421 C 0.51459 0.64014 0.20037
 C422 C 0.48012 0.64773 0.23840
 C423 C 0.48614 0.62409 0.28991
 C424 C 0.44123 0.61453 0.31851
 C425 C 0.44534 0.58976 0.36604
 C426 C 0.49439 0.57277 0.38689
 C427 C 0.53942 0.58777 0.35946
 C428 C 0.53555 0.61222 0.31174
 H429 H 0.45543 0.77152 0.09256
 H430 H 0.46349 0.73207 0.17546
 H431 H 0.55680 0.60685 0.11026
 H432 H 0.54981 0.64760 0.02560
 H433 H 0.54747 0.61370 0.20611
 H434 H 0.44434 0.66961 0.23094
 H435 H 0.40259 0.62568 0.30380
 H436 H 0.40941 0.58600 0.38687
 H437 H 0.57818 0.57543 0.37076
 H438 H 0.57148 0.62088 0.29173
 C439 C 0.47264 0.65036 0.94857
 C440 C 0.46827 0.62093 0.90199
 C441 C 0.47989 0.64408 0.85476
 C442 C 0.49266 0.69796 0.85458
 C443 C 0.49732 0.72702 0.90065
 C444 C 0.48977 0.70346 0.94882
 C445 C 0.47710 0.61248 0.80577
 C446 C 0.50842 0.62368 0.76627
 C447 C 0.50578 0.59837 0.71399
 C448 C 0.53774 0.61899 0.67616
 C449 C 0.53660 0.59786 0.62599
 C450 C 0.50208 0.55665 0.60951
 C451 C 0.47332 0.53376 0.64996
 C452 C 0.47410 0.55454 0.70061
 H453 H 0.46201 0.63147 0.98390
 H454 H 0.45624 0.57992 0.90288
 H455 H 0.49859 0.71817 0.81876
 H456 H 0.50749 0.76844 0.89879
 H457 H 0.44926 0.58003 0.80293
 H458 H 0.53779 0.65463 0.77202
 H459 H 0.56512 0.65099 0.68566
 H460 H 0.56755 0.61133 0.60203
 H461 H 0.44944 0.49910 0.64369
 H462 H 0.45029 0.53541 0.72886
 C463 C 0.51712 0.25519 0.08328
 C464 C 0.51021 0.27401 0.13355
 C465 C 0.48747 0.32313 0.14287
 C466 C 0.47068 0.35293 0.10020
 C467 C 0.47695 0.33355 0.04923
 C468 C 0.50209 0.28491 0.03969
 C469 C 0.48123 0.34035 0.19770
 C470 C 0.48267 0.39085 0.21375
 C471 C 0.48720 0.40704 0.26933
 C472 C 0.51696 0.45179 0.28256
 C473 C 0.52425 0.46774 0.33413
 C474 C 0.49968 0.44280 0.37541
 C475 C 0.47267 0.39524 0.36136
 C476 C 0.46587 0.37798 0.30950
 H477 H 0.53333 0.21609 0.07863
 H478 H 0.52261 0.24970 0.16550
 H479 H 0.45102 0.39022 0.10608
 H480 H 0.46054 0.35588 0.01764
 H481 H 0.48167 0.30992 0.22641
 H482 H 0.48730 0.42125 0.18545
 H483 H 0.53663 0.47358 0.25295
 H484 H 0.55239 0.49795 0.34087
 H485 H 0.46018 0.36848 0.38959
 H486 H 0.44419 0.34175 0.30118
 C487 C 0.52623 0.34396 0.93679
 C488 C 0.52938 0.37131 0.89012
 C489 C 0.51394 0.34698 0.84252
 C490 C 0.49744 0.29415 0.84245
 C491 C 0.49396 0.26732 0.88846
 C492 C 0.50636 0.29191 0.93690
 C493 C 0.51833 0.37573 0.79314
 C494 C 0.48989 0.36202 0.75006
 C495 C 0.49550 0.38615 0.69857
 C496 C 0.45605 0.37707 0.66053
 C497 C 0.45978 0.39867 0.61145
 C498 C 0.50310 0.43013 0.59743
 C499 C 0.54326 0.43676 0.63609
 C500 C 0.53990 0.41541 0.68531
 H501 H 0.54033 0.36328 0.97223
 H502 H 0.54426 0.41144 0.89114
 H503 H 0.48842 0.27250 0.80678
 H504 H 0.48163 0.22639 0.88606
 H505 H 0.54506 0.40913 0.79288
 H506 H 0.45967 0.33188 0.75237
 H507 H 0.42156 0.35357 0.66892
 H508 H 0.42780 0.39017 0.58520
 H509 H 0.57764 0.45899 0.62987
 H510 H 0.57249 0.42196 0.71255
 C511 C 0.75929 0.90522 0.50102
 C512 C 0.73404 0.85652 0.49916
 C513 C 0.67911 0.85281 0.50145
 C514 C 0.64970 0.89953 0.50631
 C515 C 0.67524 0.94899 0.50803
 C516 C 0.73063 0.95271 0.50394
 C517 C 0.65545 0.79926 0.49666
 C518 C 0.60639 0.78594 0.50988
 C519 C 0.58725 0.73051 0.50497
 C520 C 0.54828 0.71232 0.53729
 C521 C 0.53147 0.65965 0.53393
 C522 C 0.55476 0.62124 0.50061
 C523 C 0.58894 0.64332 0.46434
 C524 C 0.60584 0.69577 0.46697
 H525 H 0.80195 0.90609 0.49922
 H526 H 0.75786 0.82136 0.49580
 H527 H 0.60713 0.89820 0.50814
 H528 H 0.65138 0.98371 0.51312
 H529 H 0.68151 0.76834 0.48359
 H530 H 0.58098 0.81497 0.52746
 H531 H 0.53011 0.73897 0.56477
 H532 H 0.49765 0.64996 0.55640
 H533 H 0.60311 0.62177 0.43233
 H534 H 0.63246 0.70922 0.43788
 C535 C 0.74175 0.09659 0.54672
 C536 C 0.71288 0.14282 0.54909
 C537 C 0.67358 0.15274 0.51208
 C538 C 0.66323 0.11513 0.47222
 C539 C 0.69126 0.06749 0.47072
 C540 C 0.72994 0.05628 0.50915
 C541 C 0.64515 0.20314 0.51670
 C542 C 0.63544 0.23377 0.47621
 C543 C 0.61335 0.28778 0.48066
 C544 C 0.59450 0.31129 0.43576
 C545 C 0.57304 0.36168 0.43743
 C546 C 0.56858 0.39119 0.48404
 C547 C 0.59079 0.36789 0.52873
 C548 C 0.61263 0.31735 0.52728
 H549 H 0.77407 0.09373 0.57450
 H550 H 0.72259 0.17194 0.57922
 H551 H 0.63317 0.12224 0.44276
 H552 H 0.68279 0.03928 0.43952
 H553 H 0.63672 0.21700 0.55542
 H554 H 0.64498 0.21901 0.43792
 H555 H 0.59601 0.29039 0.39880
 H556 H 0.56081 0.37594 0.40105
 H557 H 0.59170 0.38842 0.56535
 H558 H 0.62926 0.30234 0.56283
 C559 C 0.24762 0.90706 0.54926
 C560 C 0.26720 0.85593 0.54725
 C561 C 0.30491 0.84132 0.51125
 C562 C 0.32310 0.87968 0.47717
 C563 C 0.30343 0.93118 0.47920
 C564 C 0.26641 0.94662 0.51637
 C565 C 0.32439 0.78616 0.51185
 C566 C 0.35148 0.76354 0.47367
 C567 C 0.37532 0.71073 0.47798
 C568 C 0.42341 0.70213 0.45516
 C569 C 0.44878 0.65411 0.46006
 C570 C 0.42845 0.61119 0.48840
 C571 C 0.37666 0.61972 0.50610
 C572 C 0.35129 0.66868 0.50268
 H573 H 0.21643 0.91452 0.57614
 H574 H 0.25187 0.82724 0.57352
 H575 H 0.35262 0.87065 0.44898
 H576 H 0.31701 0.95905 0.45129
 H577 H 0.31665 0.76349 0.54590
 H578 H 0.36038 0.78544 0.43956
 H579 H 0.44240 0.73322 0.43418
 H580 H 0.48566 0.65261 0.44099
 H581 H 0.35312 0.58965 0.52114
 H582 H 0.31211 0.67296 0.51795
 C583 C 0.33436 0.04643 0.51928
 C584 C 0.36597 0.09178 0.51540
 C585 C 0.34311 0.14123 0.50675
 C586 C 0.28790 0.14495 0.50501
 C587 C 0.25656 0.10008 0.50867
 C588 C 0.27894 0.04958 0.51387
 C589 C 0.37719 0.18875 0.50273
 C590 C 0.36136 0.23217 0.47782
 C591 C 0.39089 0.28307 0.47756
 C592 C 0.36867 0.32534 0.45100
 C593 C 0.39254 0.37528 0.45307
 C594 C 0.43995 0.38549 0.48202
 C595 C 0.46212 0.34163 0.50707
 C596 C 0.43846 0.29184 0.50519
 H597 H 0.35361 0.00949 0.52690
 H598 H 0.40847 0.08819 0.51892
 H599 H 0.26845 0.18254 0.50157
 H600 H 0.21407 0.10452 0.50646
 H601 H 0.41599 0.18705 0.52079
 H602 H 0.32376 0.23113 0.45699
 H603 H 0.33193 0.32008 0.42908
 H604 H 0.37271 0.40505 0.43188
 H605 H 0.49614 0.34549 0.53198
 H606 H 0.45730 0.26122 0.52711
   
