data_POSCAR
  _audit_creation_date              2014-09-24
  _audit_creation_method            'ToBaCCo'
  _symmetry_space_group_name_H-M    'P1'
  _symmetry_Int_Tables_number       1
  _symmetry_cell_setting            triclinic
  loop_
  _symmetry_equiv_pos_as_xyz
 x,y,z
_cell_length_a 14.9332
_cell_length_b 14.9476
_cell_length_c 16.0284
_cell_angle_alpha 90.207400
_cell_angle_beta 90.022500
_cell_angle_gamma 120.136900
loop_
  _atom_site_label
  _atom_site_type_symbol
  _atom_site_fract_x
  _atom_site_fract_y
  _atom_site_fract_z
O1 O 0.32092 0.51669 0.35650
 O2 O 0.14255 0.50309 0.32830
 C3 C 0.12676 0.56657 0.36989
 O4 O 0.16799 0.66164 0.35255
 O5 O 0.33190 0.84036 0.32544
 C6 C 0.41050 0.85861 0.36906
 O7 O 0.46317 0.81484 0.35696
 O8 O 0.47944 0.65084 0.33356
 C9 C 0.41683 0.56898 0.37259
 O10 O 0.35480 0.51451 0.19211
 O11 O 0.18226 0.51005 0.16190
 C12 C 0.13338 0.55510 0.14104
 O13 O 0.13544 0.62595 0.18687
 O14 O 0.30558 0.79966 0.15955
 C15 C 0.40188 0.85118 0.14546
 O16 O 0.46915 0.84672 0.19110
 O17 O 0.47628 0.67809 0.16681
 C18 C 0.43213 0.58216 0.15143
 Cr19 Cr 0.25210 0.51645 0.25978
 Cr20 Cr 0.23823 0.72955 0.25628
 Cr21 Cr 0.46657 0.74458 0.26215
 O22 O 0.31920 0.66350 0.26036
 O23 O 0.50463 0.32870 0.66759
 O24 O 0.49270 0.15210 0.69367
 C25 C 0.55597 0.14304 0.64612
 O26 O 0.65194 0.18592 0.66162
 O27 O 0.83099 0.34963 0.69068
 C28 C 0.84552 0.42761 0.64839
 O29 O 0.79857 0.47667 0.66293
 O30 O 0.63376 0.48864 0.69296
 C31 C 0.55695 0.42366 0.64934
 O32 O 0.50427 0.36256 0.83311
 O33 O 0.50312 0.19000 0.86001
 C34 C 0.54684 0.13724 0.87145
 O35 O 0.62095 0.14587 0.82655
 O36 O 0.79552 0.31736 0.85569
 C37 C 0.84909 0.41387 0.86944
 O38 O 0.83787 0.48057 0.82845
 O39 O 0.66828 0.48340 0.85892
 C40 C 0.57274 0.43749 0.87596
 Cr41 Cr 0.50635 0.26089 0.76367
 Cr42 Cr 0.72217 0.25219 0.75882
 Cr43 Cr 0.73177 0.47719 0.76094
 O44 O 0.65356 0.33027 0.76164
 C45 C 0.42653 -0.02046 0.57810
 C46 C 0.39139 -0.08950 0.51106
 C47 C 0.44485 -0.06282 0.43527
 C48 C 0.53235 0.03679 0.42514
 C49 C 0.56735 0.10771 0.49277
 C50 C 0.51602 0.07696 0.57093
 C51 C 0.65122 0.20809 0.47890
 N52 N 0.69819 0.23359 0.40336
 N53 N 0.66678 0.16594 0.34055
 C54 C 0.58552 0.06853 0.34880
 H55 H 0.38549 -0.04469 0.63685
 H56 H 0.32386 -0.16549 0.51914
 H57 H 0.67848 0.26740 0.52644
 H58 H 0.56256 0.01728 0.29542
 C59 C 0.88748 0.47260 0.50004
 C60 C 0.95469 0.50422 0.43222
 C61 C 1.05748 0.52839 0.44234
 C62 C 1.09402 0.52221 0.52241
 C63 C 1.02563 0.48978 0.59145
 C64 C 0.92106 0.46339 0.57957
 C65 C 1.06567 0.48895 0.67073
 N66 N 1.16666 0.51646 0.67940
 N67 N 1.23054 0.54571 0.61436
 C68 C 1.19786 0.54995 0.53631
 H69 H 0.80826 0.45439 0.49025
 H70 H 0.92651 0.51049 0.37145
 H71 H 1.01841 0.46880 0.72607
 H72 H 1.25352 0.57607 0.48613
 C73 C 0.53974 0.56009 0.57469
 C74 C 0.50645 0.59516 0.50764
 C75 C 0.45765 0.53102 0.43880
 C76 C 0.44636 0.43106 0.43533
 C77 C 0.48078 0.39545 0.50344
 C78 C 0.52536 0.45986 0.57467
 C79 C 0.47321 0.29768 0.50010
 N80 N 0.43013 0.23903 0.42819
 N81 N 0.39664 0.27317 0.36242
 C82 C 0.40404 0.36692 0.36489
 H83 H 0.57458 0.61080 0.62797
 H84 H 0.51614 0.67198 0.51055
 H85 H 0.44847 0.22975 0.46325
 H86 H 0.37814 0.39089 0.31098
 C87 C 0.53164 0.09652 1.02121
 C88 C 0.49763 0.02731 1.08756
 C89 C 0.43771 -0.07934 1.07316
 C90 C 0.41299 -0.11739 0.99029
 C91 C 0.44900 -0.04699 0.92275
 C92 C 0.50840 0.06061 0.93885
 C93 C 0.42331 -0.08689 0.84115
 N94 N 0.36618 -0.19057 0.82857
 N95 N 0.33309 -0.25683 0.89197
 C96 C 0.35458 -0.22395 0.97232
 H97 H 0.57710 0.17874 1.03414
 H98 H 0.51689 0.05725 1.15067
 H99 H 0.44806 -0.03671 0.78737
 H100 H 0.32622 -0.28139 1.02118
 C101 C 0.93043 0.52162 0.99387
 C102 C 1.00100 0.55761 1.05942
 C103 C 1.07393 0.52464 1.07034
 C104 C 1.08013 0.46019 1.00602
 C105 C 1.00526 0.42155 0.94035
 C106 C 0.92895 0.45125 0.93572
 C107 C 1.01241 0.35830 0.87836
 N108 N 1.09068 0.33755 0.87994
 N109 N 1.16348 0.37701 0.93851
 C110 C 1.16196 0.43821 1.00034
 H111 H 0.87404 0.54691 0.98996
 H112 H 0.99459 0.60886 1.10394
 H113 H 0.95872 0.32741 0.82695
 H114 H 1.22814 0.47195 1.04092
 C115 C 0.48012 0.52078 0.93468
 C116 C 0.44833 0.55809 1.00133
 C117 C 0.47294 0.54685 1.08345
 C118 C 0.53320 0.49980 1.09887
 C119 C 0.56678 0.46305 1.03104
 C120 C 0.53946 0.47365 0.94851
 C121 C 0.62539 0.41532 1.04842
 N122 N 0.64960 0.40680 1.12847
 N123 N 0.61921 0.44266 1.19210
 C124 C 0.56202 0.48896 1.18008
 H125 H 0.45921 0.52969 0.87177
 H126 H 0.40307 0.59486 0.98879
 H127 H 0.65183 0.38439 0.99931
 H128 H 0.54023 0.51748 1.23391
   
