data_POSCAR
  _audit_creation_date              2014-09-24
  _audit_creation_method            'ToBaCCo'
  _symmetry_space_group_name_H-M    'P1'
  _symmetry_Int_Tables_number       1
  _symmetry_cell_setting            triclinic
  loop_
  _symmetry_equiv_pos_as_xyz
 x,y,z
_cell_length_a 75.1056
_cell_length_b 75.1358
_cell_length_c 22.3204
_cell_angle_alpha 90.005800
_cell_angle_beta 90.035700
_cell_angle_gamma 120.023000
loop_
  _atom_site_label
  _atom_site_type_symbol
  _atom_site_fract_x
  _atom_site_fract_y
  _atom_site_fract_z
C1 C 0.24569 0.49191 0.52583
 C2 C 0.24554 0.49184 0.46471
 C3 C 0.22794 0.49039 0.43018
 C4 C 0.26287 0.49298 0.42950
 C5 C 0.26184 0.49048 0.56037
 C6 C 0.22957 0.49319 0.56103
 C7 C 0.20785 0.47428 0.44035
 C8 C 0.19131 0.47337 0.40901
 C9 C 0.19446 0.48852 0.36611
 C10 C 0.21486 0.50434 0.35510
 C11 C 0.23134 0.50518 0.38663
 C12 C 0.25906 0.47798 0.38614
 C13 C 0.27530 0.47843 0.35439
 C14 C 0.29571 0.49400 0.36510
 C15 C 0.29941 0.50936 0.40745
 C16 C 0.28314 0.50890 0.43911
 C17 C 0.27335 0.50537 0.60371
 C18 C 0.28899 0.50451 0.63519
 C19 C 0.29332 0.48862 0.62424
 C20 C 0.28138 0.47342 0.58180
 C21 C 0.26574 0.47429 0.55041
 C22 C 0.22527 0.50911 0.55113
 C23 C 0.20953 0.50969 0.58281
 C24 C 0.19790 0.49447 0.62547
 C25 C 0.20268 0.47889 0.63646
 C26 C 0.21840 0.47831 0.60469
 H27 H 0.20497 0.46246 0.47293
 H28 H 0.17605 0.46078 0.41898
 H29 H 0.21825 0.51629 0.32246
 H30 H 0.24678 0.51764 0.37781
 H31 H 0.24351 0.46565 0.37779
 H32 H 0.27186 0.46642 0.32194
 H33 H 0.28636 0.52087 0.47155
 H34 H 0.27047 0.51789 0.61234
 H35 H 0.29779 0.51642 0.66773
 H36 H 0.28417 0.46088 0.57251
 H37 H 0.25673 0.46240 0.51801
 H38 H 0.23400 0.52098 0.51845
 H39 H 0.20638 0.52200 0.57349
 H40 H 0.19413 0.46697 0.66916
 H41 H 0.22158 0.46598 0.61326
 H42 H 0.31489 0.52166 0.41656
 C43 C 0.50765 -0.24652 0.53167
 C44 C 0.50767 -0.24661 0.47054
 C45 C 0.50909 -0.26276 0.43598
 C46 C 0.50649 -0.23045 0.43533
 C47 C 0.50907 -0.22894 0.56619
 C48 C 0.50645 -0.26388 0.56685
 C49 C 0.52523 -0.26672 0.44606
 C50 C 0.52611 -0.28233 0.41452
 C51 C 0.51097 -0.29415 0.37180
 C52 C 0.49511 -0.28976 0.36078
 C53 C 0.49424 -0.27417 0.39242
 C54 C 0.52147 -0.21925 0.39194
 C55 C 0.52099 -0.20349 0.36014
 C56 C 0.50540 -0.19869 0.37082
 C57 C 0.49007 -0.21035 0.41321
 C58 C 0.49056 -0.22613 0.44492
 C59 C 0.49417 -0.23236 0.60948
 C60 C 0.49499 -0.21587 0.64084
 C61 C 0.51084 -0.19563 0.62982
 C62 C 0.52606 -0.19233 0.58746
 C63 C 0.52523 -0.20884 0.55619
 C64 C 0.49054 -0.28411 0.55706
 C65 C 0.49005 -0.30043 0.58852
 C66 C 0.50541 -0.29685 0.63101
 C67 C 0.52096 -0.27639 0.64190
 C68 C 0.52141 -0.26013 0.61029
 H69 H 0.53709 -0.25780 0.47865
 H70 H 0.53862 -0.28517 0.42388
 H71 H 0.48324 -0.29848 0.32804
 H72 H 0.48175 -0.27123 0.38369
 H73 H 0.53381 -0.22244 0.38361
 H74 H 0.53298 -0.19492 0.32766
 H75 H 0.47861 -0.23488 0.47738
 H76 H 0.48167 -0.24778 0.61814
 H77 H 0.48307 -0.21899 0.67333
 H78 H 0.53857 -0.17699 0.57812
 H79 H 0.53712 -0.20593 0.52382
 H80 H 0.47859 -0.28728 0.52456
 H81 H 0.47769 -0.31584 0.57897
 H82 H 0.53301 -0.27285 0.67436
 H83 H 0.53373 -0.24459 0.61880
 H84 H 0.47776 -0.20719 0.42230
 C85 C 1.24598 0.75444 0.53303
 C86 C 1.24612 0.75448 0.47191
 C87 C 1.26229 0.77204 0.43736
 C88 C 1.22998 0.73708 0.43670
 C89 C 1.22837 0.73832 0.56753
 C90 C 1.26333 0.77064 0.56826
 C91 C 1.26622 0.79213 0.44717
 C92 C 1.28187 0.80862 0.41576
 C93 C 1.29385 0.80536 0.37326
 C94 C 1.28940 0.78504 0.36255
 C95 C 1.27375 0.76859 0.39412
 C96 C 1.21882 0.74080 0.39296
 C97 C 1.20308 0.72449 0.36115
 C98 C 1.19828 0.70413 0.37218
 C99 C 1.20989 0.70052 0.41493
 C100 C 1.22565 0.71685 0.44665
 C101 C 1.23175 0.72692 0.61114
 C102 C 1.21525 0.71129 0.64258
 C103 C 1.19492 0.70679 0.63134
 C104 C 1.19173 0.71872 0.58851
 C105 C 1.20828 0.73435 0.55723
 C106 C 1.28357 0.77495 0.55878
 C107 C 1.29987 0.79078 0.59039
 C108 C 1.29627 0.80256 0.63273
 C109 C 1.27580 0.79768 0.64326
 C110 C 1.25955 0.78187 0.61150
 H111 H 1.25724 0.79505 0.47950
 H112 H 1.28458 0.82391 0.42521
 H113 H 1.29808 0.78174 0.33012
 H114 H 1.27082 0.75316 0.38559
 H115 H 1.22202 0.75631 0.38435
 H116 H 1.19454 0.72786 0.32839
 H117 H 1.23436 0.71370 0.47939
 H118 H 1.24718 0.72988 0.62005
 H119 H 1.21850 0.70265 0.67529
 H120 H 1.17644 0.71597 0.57866
 H121 H 1.20540 0.74328 0.52460
 H122 H 1.28676 0.76616 0.52643
 H123 H 1.31529 0.79381 0.58111
 H124 H 1.27223 0.80619 0.67558
 H125 H 1.24401 0.77866 0.61976
 H126 H 1.20672 0.68507 0.42429
 C127 C 0.75425 0.50830 0.53184
 C128 C 0.75417 0.50821 0.47071
 C129 C 0.77036 0.50698 0.43576
 C130 C 0.73803 0.50957 0.43592
 C131 C 0.73685 0.50710 0.56680
 C132 C 0.77184 0.50982 0.56661
 C133 C 0.78154 0.52186 0.39211
 C134 C 0.79733 0.52133 0.36054
 C135 C 0.80215 0.50579 0.37173
 C136 C 0.79052 0.49057 0.41440
 C137 C 0.77472 0.49110 0.44587
 C138 C 0.73406 0.52572 0.44565
 C139 C 0.71843 0.52654 0.41399
 C140 C 0.70658 0.51132 0.37149
 C141 C 0.71098 0.49546 0.36078
 C142 C 0.72661 0.49466 0.39254
 C143 C 0.71663 0.49115 0.55706
 C144 C 0.70028 0.49064 0.58840
 C145 C 0.70381 0.50602 0.63071
 C146 C 0.72426 0.52163 0.64152
 C147 C 0.74056 0.52210 0.61003
 C148 C 0.76844 0.49505 0.61026
 C149 C 0.78492 0.49596 0.64197
 C150 C 0.80525 0.51182 0.63098
 C151 C 0.80845 0.52693 0.58810
 C152 C 0.79193 0.52597 0.55654
 H153 H 0.77832 0.53415 0.38338
 H154 H 0.80588 0.53324 0.32784
 H155 H 0.79370 0.47830 0.42387
 H156 H 0.76598 0.47923 0.47854
 H157 H 0.74299 0.53763 0.47808
 H158 H 0.71558 0.53905 0.42311
 H159 H 0.72955 0.48216 0.38408
 H160 H 0.71349 0.47918 0.52472
 H161 H 0.68488 0.47824 0.57892
 H162 H 0.72777 0.53370 0.67384
 H163 H 0.75608 0.53445 0.61849
 H164 H 0.75301 0.48255 0.61900
 H165 H 0.78166 0.48408 0.67471
 H166 H 0.82375 0.53950 0.57842
 H167 H 0.79482 0.53778 0.52388
 H168 H 0.70225 0.48354 0.32821
 C169 C 0.49230 0.24584 0.53305
 C170 C 0.49226 0.24615 0.47193
 C171 C 0.49099 0.26250 0.43806
 C172 C 0.49330 0.23005 0.43600
 C173 C 0.49098 0.22819 0.56689
 C174 C 0.49348 0.26305 0.56894
 C175 C 0.47493 0.26656 0.44841
 C176 C 0.47420 0.28236 0.41749
 C177 C 0.48943 0.29428 0.37513
 C178 C 0.50520 0.28980 0.36385
 C179 C 0.50592 0.27402 0.39487
 C180 C 0.47821 0.21900 0.39267
 C181 C 0.47855 0.20328 0.36021
 C182 C 0.49410 0.19838 0.37016
 C183 C 0.50954 0.20989 0.41248
 C184 C 0.50920 0.22563 0.44486
 C185 C 0.50596 0.23153 0.60983
 C186 C 0.50527 0.21500 0.64059
 C187 C 0.48944 0.19469 0.62934
 C188 C 0.47412 0.19153 0.58719
 C189 C 0.47486 0.20810 0.55659
 C190 C 0.50941 0.28332 0.55991
 C191 C 0.50983 0.29951 0.59193
 C192 C 0.49439 0.29577 0.63421
 C193 C 0.47882 0.27526 0.64439
 C194 C 0.47844 0.25912 0.61222
 H195 H 0.46302 0.25756 0.48072
 H196 H 0.46175 0.28526 0.42702
 H197 H 0.51712 0.29858 0.33138
 H198 H 0.51835 0.27101 0.38596
 H199 H 0.46589 0.22228 0.38490
 H200 H 0.46647 0.19482 0.32780
 H201 H 0.52123 0.23426 0.47727
 H202 H 0.51844 0.24695 0.61873
 H203 H 0.51731 0.21823 0.67279
 H204 H 0.46156 0.17624 0.57736
 H205 H 0.46290 0.20525 0.52447
 H206 H 0.52141 0.28662 0.52753
 H207 H 0.52221 0.31496 0.58294
 H208 H 0.46671 0.27159 0.67668
 H209 H 0.46610 0.24356 0.62014
 H210 H 0.52183 0.20665 0.42102
 C211 C 0.75427 0.24627 0.53244
 C212 C 0.75433 0.24621 0.47131
 C213 C 0.73694 0.22995 0.43635
 C214 C 0.77189 0.26227 0.43652
 C215 C 0.77044 0.26374 0.56735
 C216 C 0.73816 0.22874 0.56723
 C217 C 0.74069 0.21868 0.39313
 C218 C 0.72441 0.20285 0.36151
 C219 C 0.70402 0.19807 0.37223
 C220 C 0.70038 0.20979 0.41447
 C221 C 0.71670 0.22564 0.44599
 C222 C 0.79201 0.26628 0.44668
 C223 C 0.80849 0.28180 0.41490
 C224 C 0.80514 0.29350 0.37185
 C225 C 0.78489 0.28906 0.36074
 C226 C 0.76843 0.27355 0.39262
 C227 C 0.77474 0.28393 0.55708
 C228 C 0.79057 0.30035 0.58833
 C229 C 0.80237 0.29692 0.63108
 C230 C 0.79749 0.27650 0.64242
 C231 C 0.78167 0.26014 0.61102
 C232 C 0.72668 0.23220 0.61043
 C233 C 0.71105 0.21574 0.64203
 C234 C 0.70670 0.19550 0.63133
 C235 C 0.71862 0.19217 0.58905
 C236 C 0.73426 0.20864 0.55756
 H237 H 0.75622 0.22187 0.38476
 H238 H 0.72780 0.19423 0.32915
 H239 H 0.68492 0.20664 0.42357
 H240 H 0.71352 0.23444 0.47831
 H241 H 0.79495 0.25745 0.47952
 H242 H 0.82385 0.28468 0.42434
 H243 H 0.75299 0.27058 0.38382
 H244 H 0.76594 0.28699 0.52439
 H245 H 0.79360 0.31573 0.57843
 H246 H 0.80601 0.27307 0.67509
 H247 H 0.77848 0.24464 0.61990
 H248 H 0.72957 0.24762 0.61884
 H249 H 0.70226 0.21890 0.67443
 H250 H 0.71582 0.17683 0.57995
 H251 H 0.74324 0.20570 0.52526
 H252 H 0.78172 0.29769 0.32775
 N253 N 0.97861 0.52056 0.06638
 N254 N 0.96305 0.52375 0.07509
 N255 N 1.02194 0.52958 0.10668
 N256 N 1.03752 0.53940 0.14401
 N257 N 1.02190 0.54222 0.06612
 N258 N 1.03746 0.56100 0.07473
 N259 N 0.97866 0.50793 0.10694
 N260 N 0.96313 0.50217 0.14439
 C261 C 0.95356 0.51217 0.12389
 C262 C 1.04703 0.55897 0.12346
 N263 N 1.02190 0.47917 0.06105
 N264 N 1.03716 0.47543 0.06869
 N265 N 0.97868 0.46962 0.10388
 N266 N 0.96348 0.45920 0.14186
 N267 N 0.97863 0.45752 0.06132
 N268 N 0.96339 0.43853 0.06917
 N269 N 1.02193 0.49125 0.10361
 N270 N 1.03721 0.49608 0.14139
 Mn271 Mn 1.00030 0.49960 0.10597
 C272 C 1.04657 0.48613 0.11890
 C273 C 0.95408 0.43986 0.11950
 N274 N 1.02176 0.54309 -0.06291
 N275 N 1.03703 0.56208 -0.07065
 N276 N 0.97847 0.50936 -0.10522
 N277 N 0.96318 0.50452 -0.14299
 N278 N 0.97850 0.52145 -0.06266
 N279 N 0.96323 0.52517 -0.07028
 N280 N 1.02172 0.53100 -0.10548
 N281 N 1.03695 0.54142 -0.14338
 Mn282 Mn 1.00019 0.53204 0.00177
 C283 C 1.04636 0.56075 -0.12094
 C284 C 0.95381 0.51447 -0.12049
 N285 N 0.97849 0.45839 -0.06771
 N286 N 0.96291 0.43962 -0.07620
 N287 N 1.02173 0.49268 -0.10856
 N288 N 1.03725 0.49842 -0.14604
 N289 N 1.02178 0.48005 -0.06799
 N290 N 1.03733 0.47684 -0.07674
 N291 N 0.97845 0.47103 -0.10829
 N292 N 0.96284 0.46121 -0.14552
 Mn293 Mn 1.00020 0.46857 -0.00338
 Mn294 Mn 1.00009 0.50102 -0.10759
 Cl295 Cl 1.00020 0.50031 -0.00081
 C296 C 0.95331 0.44165 -0.12487
 C297 C 1.04682 0.48841 -0.12557
 N298 N 0.47945 0.45755 0.06243
 N299 N 0.47573 0.43863 0.07154
 N300 N 0.47030 0.49165 0.10350
 N301 N 0.46036 0.49728 0.14068
 N302 N 0.45780 0.47915 0.06232
 N303 N 0.43900 0.47593 0.07034
 N304 N 0.49195 0.47005 0.10362
 N305 N 0.49708 0.45998 0.14192
 C306 C 0.48688 0.44043 0.12118
 C307 C 0.44087 0.48734 0.11938
 N308 N 0.52088 0.54227 0.06039
 N309 N 0.52460 0.56123 0.06870
 N310 N 0.53031 0.50844 0.10236
 N311 N 0.54061 0.50350 0.14035
 N312 N 0.54255 0.52071 0.06041
 N313 N 0.56153 0.52445 0.06868
 N314 N 0.50865 0.53001 0.10236
 N315 N 0.50370 0.54028 0.14041
 Mn316 Mn 0.50030 0.50003 0.10366
 C317 C 0.51373 0.55970 0.11870
 C318 C 0.56004 0.51358 0.11863
 N319 N 0.45740 0.47870 -0.06675
 N320 N 0.43843 0.47498 -0.07496
 N321 N 0.49135 0.46944 -0.10860
 N322 N 0.49686 0.45935 -0.14556
 N323 N 0.47912 0.45717 -0.06664
 N324 N 0.47598 0.43836 -0.07389
 N325 N 0.46964 0.49096 -0.10870
 N326 N 0.45933 0.49592 -0.14665
 Mn327 Mn 0.46823 0.46793 -0.00215
 C328 C 0.43992 0.48586 -0.12489
 C329 C 0.48714 0.44000 -0.12331
 N330 N 0.54215 0.52030 -0.06866
 N331 N 0.56095 0.52354 -0.07671
 N332 N 0.50795 0.52936 -0.10985
 N333 N 0.50226 0.53927 -0.14702
 N334 N 0.52044 0.54187 -0.06869
 N335 N 0.52361 0.56065 -0.07669
 N336 N 0.52965 0.50781 -0.10985
 N337 N 0.53960 0.50220 -0.14708
 Mn338 Mn 0.53172 0.53150 -0.00417
 Mn339 Mn 0.49965 0.49940 -0.10996
 Cl340 Cl 0.49998 0.49971 -0.00314
 C341 C 0.55909 0.51215 -0.12579
 C342 C 0.51216 0.55875 -0.12572
 N343 N 0.45710 -0.02181 0.06520
 N344 N 0.43811 -0.03705 0.07329
 N345 N 0.49102 0.02136 0.10760
 N346 N 0.49649 0.03691 0.14479
 N347 N 0.47882 0.02146 0.06559
 N348 N 0.47564 0.03709 0.07304
 N349 N 0.46931 -0.02187 0.10722
 N350 N 0.45899 -0.03714 0.14507
 C351 C 0.43957 -0.04647 0.12319
 C352 C 0.48677 0.04655 0.12263
 N353 N 0.54184 0.02137 0.06796
 N354 N 0.56064 0.03694 0.07624
 N355 N 0.50762 -0.02194 0.10859
 N356 N 0.50196 -0.03753 0.14570
 N357 N 0.52015 -0.02191 0.06752
 N358 N 0.52335 -0.03749 0.07553
 N359 N 0.52932 0.02132 0.10907
 N360 N 0.53924 0.03684 0.14648
 Mn361 Mn 0.49932 -0.00029 0.10881
 C362 C 0.55874 0.04642 0.12539
 C363 C 0.51190 -0.04707 0.12446
 N364 N 0.47923 0.02153 -0.06349
 N365 N 0.47555 0.03677 -0.07237
 N366 N 0.47011 -0.02167 -0.10499
 N367 N 0.46019 -0.03720 -0.14238
 N368 N 0.45758 -0.02172 -0.06388
 N369 N 0.43878 -0.03729 -0.07215
 N370 N 0.49175 0.02159 -0.10462
 N371 N 0.49694 0.03687 -0.14266
 Mn372 Mn 0.46797 -0.00014 0.00084
 C373 C 0.48674 0.04620 -0.12181
 C374 C 0.44068 -0.04677 -0.12128
 N375 N 0.52067 -0.02174 -0.06154
 N376 N 0.52434 -0.03700 -0.06980
 N377 N 0.53012 0.02157 -0.10314
 N378 N 0.54044 0.03688 -0.14088
 N379 N 0.54233 0.02150 -0.06110
 N380 N 0.56130 0.03677 -0.06906
 N381 N 0.50846 -0.02168 -0.10361
 N382 N 0.50349 -0.03691 -0.14168
 Mn383 Mn 0.53146 -0.00019 0.00323
 Mn384 Mn 0.50011 -0.00004 -0.10480
 Cl385 Cl 0.49971 -0.00016 0.00201
 C386 C 0.51348 -0.04633 -0.11987
 C387 C 0.55985 0.04622 -0.11891
 N388 N 1.16558 0.50237 0.26782
 C389 C 1.14609 0.48729 0.27941
 N390 N 1.14289 0.47253 0.31981
 N391 N 1.15872 0.47287 0.34789
 C392 C 1.17839 0.48799 0.33679
 N393 N 1.18140 0.50270 0.29591
 C394 C 1.12901 0.48716 0.25013
 C395 C 1.11460 0.48709 0.22609
 C396 C 1.09737 0.48704 0.19813
 N397 N 1.08905 0.49771 0.22276
 N398 N 1.07289 0.49749 0.19730
 C399 C 1.06452 0.48658 0.14638
 N400 N 1.07289 0.47592 0.12173
 N401 N 1.08906 0.47615 0.14720
 N402 N 0.49714 0.66183 0.27044
 C403 C 0.51224 0.65743 0.28194
 N404 N 0.52701 0.66896 0.32246
 N405 N 0.52668 0.68441 0.35071
 C406 C 0.51156 0.68890 0.33950
 N407 N 0.49681 0.67729 0.29870
 C408 C 0.51240 0.64056 0.25234
 C409 C 0.51251 0.62630 0.22795
 C410 C 0.51263 0.60924 0.19949
 N411 N 0.50186 0.59013 0.22338
 N412 N 0.50214 0.57430 0.19742
 C413 C 0.51321 0.57707 0.14673
 N414 N 0.52396 0.59621 0.12283
 N415 N 0.52367 0.61204 0.14880
 N416 N 0.33720 -0.16528 0.27401
 C417 C 0.34155 -0.14579 0.28523
 N418 N 0.32994 -0.14255 0.32536
 N419 N 0.31446 -0.15834 0.35353
 C420 C 0.30999 -0.17798 0.34271
 N421 N 0.32172 -0.18106 0.30219
 C422 C 0.35847 -0.12875 0.25577
 C423 C 0.37277 -0.11438 0.23153
 C424 C 0.38989 -0.09718 0.20328
 N425 N 0.38714 -0.08885 0.15267
 N426 N 0.40302 -0.07272 0.12692
 C427 C 0.42215 -0.06439 0.15097
 N428 N 0.42486 -0.07277 0.20159
 N429 N 0.40898 -0.08891 0.22732
 N430 N 0.84033 0.49124 0.32393
 C431 C 0.85166 0.50613 0.28353
 N432 N 0.84666 0.52077 0.27152
 N433 N 0.83084 0.52055 0.29917
 C434 C 0.81944 0.50570 0.33987
 N435 N 0.82451 0.49103 0.35158
 C436 C 0.86900 0.50666 0.25478
 C437 C 0.88372 0.50731 0.23096
 C438 C 0.90138 0.50829 0.20299
 N439 N 0.90989 0.52015 0.15380
 N440 N 0.92650 0.52133 0.12841
 C441 C 0.93516 0.51071 0.15144
 N442 N 0.92660 0.49883 0.20063
 N443 N 0.90999 0.49764 0.22602
 N444 N 0.50353 0.33859 0.27486
 C445 C 0.48849 0.34307 0.28649
 N446 N 0.47368 0.33150 0.32681
 N447 N 0.47392 0.31595 0.35473
 C448 C 0.48898 0.31139 0.34336
 N449 N 0.50377 0.32304 0.30279
 C450 C 0.48837 0.35996 0.25695
 C451 C 0.48827 0.37420 0.23241
 C452 C 0.48811 0.39118 0.20352
 N453 N 0.47683 0.38818 0.15317
 N454 N 0.47651 0.40391 0.12673
 C455 C 0.48746 0.42317 0.14979
 N456 N 0.49876 0.42615 0.20015
 N457 N 0.49908 0.41041 0.22658
 N458 N 0.65132 0.15988 0.32388
 C459 C 0.65492 0.14846 0.28392
 N460 N 0.67457 0.15340 0.27237
 N461 N 0.69016 0.16925 0.30006
 C462 C 0.68668 0.18075 0.34032
 N463 N 0.66692 0.17573 0.35156
 C464 C 0.63812 0.13108 0.25519
 C465 C 0.62403 0.11634 0.23147
 C466 C 0.60728 0.09864 0.20374
 N467 N 0.61049 0.09016 0.15426
 N468 N 0.59498 0.07352 0.12910
 C469 C 0.57577 0.06482 0.15267
 N470 N 0.57259 0.07337 0.20216
 N471 N 0.58810 0.09000 0.22731
 N472 N 0.50370 0.16512 -0.27316
 C473 C 0.48859 0.14564 -0.28481
 N474 N 0.47368 0.14248 -0.32469
 N475 N 0.47390 0.15833 -0.35220
 C476 C 0.48904 0.17795 -0.34092
 N477 N 0.50392 0.18096 -0.30068
 C478 C 0.48847 0.12855 -0.25571
 C479 C 0.48836 0.11414 -0.23154
 C480 C 0.48815 0.09692 -0.20304
 N481 N 0.47683 0.08854 -0.15289
 N482 N 0.47645 0.07240 -0.12682
 C483 C 0.48739 0.06412 -0.15007
 N484 N 0.49874 0.07255 -0.20024
 N485 N 0.49911 0.08870 -0.22630
 N486 N 0.67508 0.52119 -0.27146
 C487 C 0.65545 0.50640 -0.28297
 N488 N 0.65190 0.49134 -0.32271
 N489 N 0.66753 0.49113 -0.35025
 C490 C 0.68731 0.50597 -0.33917
 N491 N 0.69070 0.52097 -0.29900
 C492 C 0.63861 0.50694 -0.25444
 C493 C 0.62449 0.50757 -0.23091
 C494 C 0.60771 0.50849 -0.20342
 N495 N 0.58854 0.49793 -0.22718
 N496 N 0.57301 0.49904 -0.20227
 C497 C 0.57615 0.51078 -0.15281
 N498 N 0.59534 0.52132 -0.12905
 N499 N 0.61087 0.52020 -0.15397
 N500 N 0.83966 0.34892 -0.32308
 C501 C 0.85112 0.34547 -0.28292
 N502 N 0.84624 0.32587 -0.27089
 N503 N 0.83039 0.31019 -0.29833
 C504 C 0.81882 0.31349 -0.33892
 N505 N 0.82381 0.33324 -0.35052
 C506 C 0.86851 0.36235 -0.25444
 C507 C 0.88326 0.37647 -0.23086
 C508 C 0.90098 0.39322 -0.20316
 N509 N 0.90960 0.38994 -0.15408
 N510 N 0.92626 0.40542 -0.12895
 C511 C 0.93486 0.42467 -0.15214
 N512 N 0.92618 0.42792 -0.20124
 N513 N 0.90952 0.41244 -0.22636
 N514 N 0.49679 -0.16532 -0.27010
 C515 C 0.51189 -0.14582 -0.28166
 N516 N 0.52674 -0.14262 -0.32177
 N517 N 0.52647 -0.15845 -0.34959
 C518 C 0.51135 -0.17805 -0.33832
 N519 N 0.49653 -0.18114 -0.29793
 C520 C 0.51200 -0.12875 -0.25245
 C521 C 0.51210 -0.11435 -0.22834
 C522 C 0.51225 -0.09711 -0.20012
 N523 N 0.52328 -0.08885 -0.14938
 N524 N 0.52361 -0.07269 -0.12361
 C525 C 0.51291 -0.06427 -0.14776
 N526 N 0.50186 -0.07259 -0.19851
 N527 N 0.50153 -0.08875 -0.22427
 N528 N 0.33760 0.50255 -0.27524
 C529 C 0.34194 0.48741 -0.28671
 N530 N 0.33028 0.47258 -0.32692
 N531 N 0.31477 0.47290 -0.35490
 C532 C 0.31034 0.48805 -0.34372
 N533 N 0.32208 0.50285 -0.30323
 C534 C 0.35887 0.48726 -0.25740
 C535 C 0.37318 0.48716 -0.23324
 C536 C 0.39028 0.48702 -0.20502
 N537 N 0.38753 0.47594 -0.15443
 N538 N 0.40339 0.47564 -0.12869
 C539 C 0.42251 0.48640 -0.15272
 N540 N 0.42523 0.49750 -0.20332
 N541 N 0.40937 0.49780 -0.22905
 N542 N 1.14273 0.67060 -0.32175
 C543 C 1.14591 0.65903 -0.28132
 N544 N 1.16540 0.66344 -0.26956
 N545 N 1.18124 0.67895 -0.29750
 C546 C 1.17821 0.69063 -0.33831
 N547 N 1.15857 0.68610 -0.34967
 C548 C 1.12882 0.64207 -0.25216
 C549 C 1.11440 0.62774 -0.22818
 C550 C 1.09716 0.61058 -0.20025
 N551 N 1.08877 0.59157 -0.22492
 N552 N 1.07261 0.57565 -0.19945
 C553 C 1.06430 0.57823 -0.14848
 N554 N 1.07274 0.59727 -0.12380
 N555 N 1.08890 0.61319 -0.14929
 N556 N 0.85741 0.52793 -0.32140
 C557 C 0.85422 0.51318 -0.28096
 N558 N 0.83473 0.49808 -0.26941
 N559 N 0.81891 0.49772 -0.29757
 C560 C 0.82195 0.51242 -0.33841
 N561 N 0.84158 0.52756 -0.34955
 C562 C 0.87131 0.51334 -0.25164
 C563 C 0.88573 0.51343 -0.22759
 C564 C 0.90297 0.51350 -0.19964
 N565 N 0.91130 0.50283 -0.22428
 N566 N 0.92748 0.50308 -0.19884
 C567 C 0.93585 0.51400 -0.14794
 N568 N 0.92747 0.52465 -0.12328
 N569 N 0.91129 0.52440 -0.14874
 N570 N 0.47882 0.32404 -0.26734
 C571 C 0.49354 0.34372 -0.27838
 N572 N 0.50870 0.34745 -0.31794
 N573 N 0.50907 0.33195 -0.34577
 C574 C 0.49430 0.31213 -0.33519
 N575 N 0.47920 0.30855 -0.29517
 C576 C 0.49279 0.36043 -0.24976
 C577 C 0.49203 0.37450 -0.22639
 C578 C 0.49101 0.39130 -0.19934
 N579 N 0.50131 0.41033 -0.22392
 N580 N 0.50011 0.42588 -0.19950
 C581 C 0.48856 0.42290 -0.14974
 N582 N 0.47829 0.40383 -0.12515
 N583 N 0.47948 0.38828 -0.14959
 N584 N 0.66967 0.14255 -0.31967
 C585 C 0.65800 0.14577 -0.27970
 N586 N 0.66236 0.16527 -0.26842
 N587 N 0.67791 0.18107 -0.29636
 C588 C 0.68966 0.17795 -0.33662
 N589 N 0.68521 0.15835 -0.34761
 C590 C 0.64103 0.12872 -0.25048
 C591 C 0.62669 0.11432 -0.22644
 C592 C 0.60956 0.09708 -0.19839
 N593 N 0.59048 0.08880 -0.22260
 N594 N 0.57460 0.07262 -0.19707
 C595 C 0.57727 0.06419 -0.14650
 N596 N 0.59638 0.07253 -0.12228
 N597 N 0.61227 0.08871 -0.14783
 N598 N 1.15986 0.50914 -0.32619
 C599 C 1.14854 0.49425 -0.28581
 N600 N 1.15349 0.47957 -0.27397
 N601 N 1.16927 0.47974 -0.30178
 C602 C 1.18067 0.49460 -0.34247
 N603 N 1.17564 0.50931 -0.35400
 C604 C 1.13123 0.49375 -0.25690
 C605 C 1.11655 0.49314 -0.23298
 C606 C 1.09891 0.49220 -0.20490
 N607 N 1.09043 0.48035 -0.15568
 N608 N 1.07384 0.47920 -0.13021
 C609 C 1.06519 0.48984 -0.15319
 N610 N 1.07373 0.50171 -0.20242
 N611 N 1.09032 0.50286 -0.22788
 N612 N 0.52067 0.67452 -0.27097
 C613 C 0.50594 0.65488 -0.28260
 N614 N 0.49090 0.65129 -0.32248
 N615 N 0.49063 0.66689 -0.35001
 C616 C 0.50540 0.68667 -0.33882
 N617 N 0.52039 0.69011 -0.29852
 C618 C 0.50656 0.63808 -0.25410
 C619 C 0.50725 0.62399 -0.23061
 C620 C 0.50825 0.60724 -0.20317
 N621 N 0.49774 0.58809 -0.22695
 N622 N 0.49893 0.57259 -0.20209
 C623 C 0.51071 0.57576 -0.15268
 N624 N 0.52120 0.59494 -0.12890
 N625 N 0.52000 0.61044 -0.15377
 N626 N 0.32485 -0.15362 -0.26884
 C627 C 0.34450 -0.14875 -0.28007
 N628 N 0.34810 -0.16020 -0.31984
 N629 N 0.33252 -0.17603 -0.34766
 C630 C 0.31272 -0.18100 -0.33686
 N631 N 0.30927 -0.16944 -0.29667
 C632 C 0.36129 -0.13139 -0.25123
 C633 C 0.37538 -0.11666 -0.22745
 C634 C 0.39213 -0.09898 -0.19968
 N635 N 0.41132 -0.09034 -0.22324
 N636 N 0.42682 -0.07372 -0.19807
 C637 C 0.42365 -0.06518 -0.14857
 N638 N 0.40443 -0.07387 -0.12501
 N639 N 0.38893 -0.09049 -0.15019
 N640 N 0.49090 -0.16056 0.32225
 C641 C 0.50590 -0.14919 0.28220
 N642 N 0.52060 -0.15414 0.27065
 N643 N 0.52033 -0.16997 0.29841
 C644 C 0.50536 -0.18142 0.33877
 N645 N 0.49063 -0.17639 0.35001
 C646 C 0.50650 -0.13182 0.25345
 C647 C 0.50717 -0.11707 0.22978
 C648 C 0.50812 -0.09937 0.20219
 N649 N 0.51988 -0.09081 0.15285
 N650 N 0.52103 -0.07416 0.12787
 C651 C 0.51048 -0.06551 0.15148
 N652 N 0.49870 -0.07412 0.20083
 N653 N 0.49755 -0.09078 0.22579
 N654 N 0.32504 0.47871 0.26517
 C655 C 0.34471 0.49340 0.27676
 N656 N 0.34836 0.50842 0.31675
 N657 N 0.33279 0.50872 0.34441
 C658 C 0.31301 0.49400 0.33314
 N659 N 0.30948 0.47901 0.29284
 C660 C 0.36148 0.49276 0.24811
 C661 C 0.37556 0.49207 0.22452
 C662 C 0.39232 0.49111 0.19701
 N663 N 0.41149 0.50166 0.22073
 N664 N 0.42700 0.50050 0.19581
 C665 C 0.42384 0.48875 0.14639
 N666 N 0.40463 0.47822 0.12267
 N667 N 0.38912 0.47937 0.14760
 N668 N 1.15386 0.67462 0.27145
 C669 C 1.14888 0.65498 0.28332
 N670 N 1.16019 0.65141 0.32378
 N671 N 1.17599 0.66702 0.35163
 C672 C 1.18104 0.68677 0.34007
 N673 N 1.16965 0.69022 0.29930
 C674 C 1.13156 0.63817 0.25439
 C675 C 1.11686 0.62409 0.23048
 C676 C 1.09921 0.60737 0.20248
 N677 N 1.09067 0.58812 0.22547
 N678 N 1.07406 0.57265 0.20010
 C679 C 1.06543 0.57594 0.15094
 N680 N 1.07403 0.59522 0.12795
 N681 N 1.09064 0.61069 0.15333
 N682 N 0.47843 0.15393 0.26908
 C683 C 0.49310 0.14888 0.27995
 N684 N 0.50824 0.16016 0.31979
 N685 N 0.50867 0.17600 0.34802
 C686 C 0.49397 0.18112 0.33748
 N687 N 0.47886 0.16977 0.29732
 C688 C 0.49231 0.13147 0.25085
 C689 C 0.49153 0.11669 0.22710
 C690 C 0.49054 0.09894 0.19968
 N691 N 0.50083 0.09017 0.22407
 N692 N 0.49967 0.07348 0.19931
 C693 C 0.48815 0.06501 0.14939
 N694 N 0.47788 0.07383 0.12498
 N695 N 0.47904 0.09053 0.14976
 N696 N 0.66959 0.52721 0.32183
 C697 C 0.65802 0.51236 0.28157
 N698 N 0.66243 0.49726 0.27033
 N699 N 0.67793 0.49701 0.29860
 C700 C 0.68959 0.51183 0.33914
 N701 N 0.68509 0.52695 0.35008
 C702 C 0.64110 0.51245 0.25198
 C703 C 0.62680 0.51250 0.22762
 C704 C 0.60969 0.51257 0.19920
 N705 N 0.59058 0.50176 0.22313
 N706 N 0.57472 0.50201 0.19724
 C707 C 0.57745 0.51309 0.14659
 N708 N 0.59658 0.52388 0.12265
 N709 N 0.61245 0.52362 0.14856
 N710 N 0.83532 0.33731 0.26990
 C711 C 0.85484 0.34177 0.28153
 N712 N 0.85809 0.33034 0.32230
 N713 N 0.84231 0.31493 0.35067
 C714 C 0.82268 0.31038 0.33934
 N715 N 0.81954 0.32189 0.29828
 C716 C 0.87187 0.35865 0.25195
 C717 C 0.88625 0.37294 0.22767
 C718 C 0.90343 0.39008 0.19946
 N719 N 0.91163 0.38742 0.14845
 N720 N 0.92775 0.40333 0.12273
 C721 C 0.93619 0.42240 0.14723
 N722 N 0.92793 0.42501 0.19824
 N723 N 0.91181 0.40911 0.22394
   
