data_POSCAR
  _audit_creation_date              2014-09-24
  _audit_creation_method            'ToBaCCo'
  _symmetry_space_group_name_H-M    'P1'
  _symmetry_Int_Tables_number       1
  _symmetry_cell_setting            triclinic
  loop_
  _symmetry_equiv_pos_as_xyz
 x,y,z
_cell_length_a 33.9264
_cell_length_b 33.9813
_cell_length_c 33.8767
_cell_angle_alpha 89.946200
_cell_angle_beta 89.983800
_cell_angle_gamma 90.021100
loop_
  _atom_site_label
  _atom_site_type_symbol
  _atom_site_fract_x
  _atom_site_fract_y
  _atom_site_fract_z
N1 N 0.54177 0.07912 0.01850
 N2 N 0.57078 0.10123 0.03197
 N3 N 0.45888 0.07881 -0.02008
 N4 N 0.42980 0.10062 -0.03393
 N5 N 0.45886 0.07904 0.01867
 N6 N 0.42980 0.10102 0.03223
 N7 N 0.54180 0.07872 -0.02025
 N8 N 0.57082 0.10057 -0.03419
 C9 C 0.58875 0.11434 -0.00125
 C10 C 0.41182 0.11421 -0.00093
 N11 N 0.45854 -0.02031 -0.07902
 N12 N 0.42937 -0.03411 -0.10076
 N13 N 0.54165 0.01812 -0.07981
 N14 N 0.57051 0.03141 -0.10238
 N15 N 0.54144 -0.02046 -0.07914
 N16 N 0.57193 -0.03484 -0.10253
 N17 N 0.45871 0.01831 -0.07951
 N18 N 0.42965 0.03185 -0.10154
 Mn19 Mn 0.50028 0.04882 -0.05024
 C20 C 0.41149 -0.00119 -0.11454
 C21 C 0.58897 -0.00134 -0.11614
 N22 N 0.45896 0.01965 0.07948
 N23 N 0.42985 0.03341 0.10133
 N24 N 0.54204 -0.01876 0.07978
 N25 N 0.57084 -0.03207 0.10237
 N26 N 0.54188 0.01982 0.07913
 N27 N 0.57237 0.03417 0.10256
 N28 N 0.45912 -0.01898 0.07994
 N29 N 0.43013 -0.03255 0.10206
 Mn30 Mn 0.50034 0.04974 0.04928
 C31 C 0.41202 0.00047 0.11516
 C32 C 0.58934 0.00064 0.11616
 N33 N 0.54162 -0.07972 -0.01855
 N34 N 0.57066 -0.10165 -0.03222
 N35 N 0.45895 -0.07948 0.02051
 N36 N 0.42997 -0.10137 0.03450
 N37 N 0.45873 -0.07968 -0.01824
 N38 N 0.42965 -0.10169 -0.03166
 N39 N 0.54189 -0.07933 0.02019
 N40 N 0.57109 -0.10103 0.03394
 Mn41 Mn 0.50006 -0.05036 -0.04906
 Mn42 Mn 0.50052 -0.04947 0.05044
 Cl43 Cl 0.50029 -0.00031 0.00010
 C44 C 0.58889 -0.11469 0.00087
 C45 C 0.41185 -0.11496 0.00158
 N46 N 0.07931 0.45769 0.01895
 N47 N 0.10110 0.42852 0.03258
 N48 N 0.08006 0.54071 -0.01927
 N49 N 0.10211 0.56980 -0.03271
 N50 N 0.07986 0.54047 0.01948
 N51 N 0.10178 0.56937 0.03346
 N52 N 0.07945 0.45793 -0.01979
 N53 N 0.10135 0.42895 -0.03359
 C54 C 0.11458 0.41074 -0.00056
 C55 C 0.11540 0.58751 0.00054
 N56 N -0.01827 0.54193 -0.07997
 N57 N -0.03156 0.57083 -0.10243
 N58 N 0.01969 0.45879 -0.08019
 N59 N 0.03324 0.42968 -0.10209
 N60 N -0.01899 0.45914 -0.08042
 N61 N -0.03283 0.43028 -0.10247
 N62 N 0.02038 0.54157 -0.07955
 N63 N 0.03480 0.57199 -0.10303
 Mn64 Mn 0.05022 0.49974 -0.05003
 C65 C 0.00124 0.58917 -0.11639
 C66 C 0.00012 0.41206 -0.11574
 N67 N 0.01952 0.54046 0.07930
 N68 N 0.03324 0.56933 0.10144
 N69 N -0.01971 0.45789 0.07858
 N70 N -0.03365 0.42883 0.10038
 N71 N 0.01898 0.45769 0.07876
 N72 N 0.03241 0.42849 0.10065
 N73 N -0.01917 0.54067 0.07910
 N74 N -0.03283 0.56967 0.10106
 Mn75 Mn 0.04974 0.49908 0.04945
 C76 C 0.00022 0.58740 0.11475
 C77 C -0.00077 0.41064 0.11387
 N78 N -0.07933 0.45912 -0.02061
 N79 N -0.10133 0.43028 -0.03458
 N80 N -0.07886 0.54155 0.01871
 N81 N -0.10072 0.57054 0.03255
 N82 N -0.07864 0.54192 -0.02004
 N83 N -0.10036 0.57116 -0.03361
 N84 N -0.07943 0.45878 0.01814
 N85 N -0.10149 0.42972 0.03159
 Mn86 Mn -0.04914 0.50055 -0.05059
 Mn87 Mn -0.04962 0.49971 0.04896
 Cl88 Cl 0.00030 0.49976 -0.00055
 C89 C -0.11490 0.41209 -0.00165
 C90 C -0.11386 0.58887 -0.00044
 N91 N 0.01803 0.07821 0.45843
 N92 N 0.03174 0.10010 0.42930
 N93 N -0.02075 0.07839 0.54142
 N94 N -0.03444 0.10045 0.57039
 N95 N 0.01794 0.07835 0.54147
 N96 N 0.03163 0.10037 0.57046
 N97 N -0.02066 0.07816 0.45838
 N98 N -0.03433 0.10003 0.42923
 C99 C -0.00128 0.11345 0.41123
 C100 C -0.00141 0.11389 0.58836
 N101 N -0.08078 -0.02018 0.54173
 N102 N -0.10277 -0.03372 0.57089
 N103 N -0.08069 0.01819 0.45852
 N104 N -0.10266 0.03176 0.42939
 N105 N -0.08071 -0.02044 0.45869
 N106 N -0.10270 -0.03421 0.42969
 N107 N -0.08077 0.01845 0.54155
 N108 N -0.10274 0.03225 0.57055
 Mn109 Mn -0.05104 0.04862 0.49996
 C110 C -0.11620 -0.00064 0.58871
 C111 C -0.11612 -0.00129 0.41155
 N112 N 0.07798 0.01844 0.54172
 N113 N 0.09998 0.03213 0.57076
 N114 N 0.07808 -0.02030 0.45875
 N115 N 0.10017 -0.03395 0.42975
 N116 N 0.07805 0.01833 0.45869
 N117 N 0.10009 0.03201 0.42966
 N118 N 0.07797 -0.02019 0.54180
 N119 N 0.09994 -0.03383 0.57088
 Mn120 Mn 0.04833 0.04866 0.50008
 C121 C 0.11341 -0.00084 0.58881
 C122 C 0.11362 -0.00095 0.41175
 N123 N -0.02067 -0.08034 0.45891
 N124 N -0.03430 -0.10233 0.42986
 N125 N 0.01794 -0.08013 0.54195
 N126 N 0.03161 -0.10214 0.57100
 N127 N -0.02075 -0.08014 0.54195
 N128 N -0.03446 -0.10217 0.57099
 N129 N 0.01803 -0.08027 0.45892
 N130 N 0.03177 -0.10220 0.42990
 Mn131 Mn -0.05106 -0.05060 0.50033
 Mn132 Mn 0.04833 -0.05055 0.50035
 Cl133 Cl -0.00136 -0.00097 0.50019
 C134 C -0.00122 -0.11570 0.41192
 C135 C -0.00143 -0.11561 0.58898
 C136 C -0.31442 0.19614 -0.00186
 C137 C -0.32997 0.18204 0.03396
 C138 C -0.36107 0.15506 0.03413
 C139 C -0.37730 0.14158 -0.00149
 C140 C -0.36138 0.15503 -0.03731
 C141 C -0.33028 0.18203 -0.03750
 C142 C -0.28261 0.22611 -0.00199
 N143 N -0.26837 0.24080 -0.03647
 N144 N -0.24071 0.26864 -0.03653
 C145 C -0.22609 0.28300 -0.00210
 N146 N -0.24016 0.26813 0.03237
 N147 N -0.26781 0.24030 0.03243
 C148 C -0.19632 0.31499 -0.00208
 C149 C -0.18208 0.33043 0.03369
 C150 C -0.15525 0.36164 0.03378
 C151 C -0.14207 0.37811 -0.00187
 C152 C -0.15568 0.36235 -0.03765
 C153 C -0.18254 0.33112 -0.03777
 H154 H -0.31845 0.19216 0.06197
 H155 H -0.37269 0.14509 0.06219
 H156 H -0.37325 0.14503 -0.06523
 H157 H -0.31899 0.19216 -0.06563
 H158 H -0.19195 0.31870 0.06173
 H159 H -0.14515 0.37312 0.06182
 H160 H -0.14591 0.37441 -0.06559
 H161 H -0.19278 0.31993 -0.06587
 C162 C 0.31487 0.80344 0.00190
 C163 C 0.33089 0.81720 0.03762
 C164 C 0.36205 0.84414 0.03755
 C165 C 0.37785 0.85787 0.00179
 C166 C 0.36145 0.84474 -0.03389
 C167 C 0.33031 0.81783 -0.03385
 C168 C 0.28303 0.77352 0.00185
 N169 N 0.26824 0.75953 -0.03266
 N170 N 0.24058 0.73172 -0.03279
 C171 C 0.22648 0.71667 0.00158
 N172 N 0.24107 0.73083 0.03611
 N173 N 0.26874 0.75866 0.03624
 C174 C 0.19671 0.68468 0.00137
 C175 C 0.18276 0.66853 0.03697
 C176 C 0.15594 0.63729 0.03670
 C177 C 0.14252 0.62152 0.00085
 C178 C 0.15586 0.63802 -0.03474
 C179 C 0.18266 0.66926 -0.03449
 H180 H 0.31969 0.80684 0.06569
 H181 H 0.37406 0.85388 0.06550
 H182 H 0.37296 0.85494 -0.06191
 H183 H 0.31866 0.80799 -0.06191
 H184 H 0.19286 0.67970 0.06513
 H185 H 0.14605 0.62521 0.06459
 H186 H 0.14590 0.62653 -0.06282
 H187 H 0.19267 0.68101 -0.06247
 C188 C 0.31458 0.19544 -0.00110
 C189 C 0.33028 0.18135 0.03464
 C190 C 0.36152 0.15457 0.03466
 C191 C 0.37775 0.14127 -0.00104
 C192 C 0.36170 0.15472 -0.03678
 C193 C 0.33045 0.18152 -0.03682
 C194 C 0.28261 0.22522 -0.00108
 N195 N 0.26815 0.23978 -0.03551
 N196 N 0.24036 0.26747 -0.03545
 C197 C 0.22583 0.28180 -0.00097
 N198 N 0.24011 0.26704 0.03345
 N199 N 0.26789 0.23936 0.03340
 C200 C 0.19596 0.31367 -0.00088
 C201 C 0.18180 0.32917 0.03490
 C202 C 0.15494 0.36035 0.03499
 C203 C 0.14166 0.37671 -0.00067
 C204 C 0.15518 0.36084 -0.03644
 C205 C 0.18204 0.32966 -0.03656
 H206 H 0.31875 0.19133 0.06271
 H207 H 0.37323 0.14459 0.06267
 H208 H 0.37357 0.14486 -0.06475
 H209 H 0.31905 0.19165 -0.06490
 H210 H 0.19178 0.31755 0.06294
 H211 H 0.14490 0.37194 0.06302
 H212 H 0.14534 0.37280 -0.06440
 H213 H 0.19221 0.31841 -0.06467
 C214 C -0.31373 0.80426 0.00068
 C215 C -0.32943 0.81823 0.03646
 C216 C -0.36072 0.84499 0.03653
 C217 C -0.37699 0.85833 0.00084
 C218 C -0.36092 0.84499 -0.03491
 C219 C -0.32963 0.81826 -0.03501
 C220 C -0.28174 0.77451 0.00055
 N221 N -0.26714 0.76035 -0.03397
 N222 N -0.23935 0.73267 -0.03411
 C223 C -0.22495 0.71793 0.00027
 N224 N -0.23936 0.73228 0.03479
 N225 N -0.26715 0.75996 0.03493
 C226 C -0.19510 0.68605 0.00009
 C227 C -0.18115 0.67000 0.03574
 C228 C -0.15434 0.63879 0.03555
 C229 C -0.14088 0.62295 -0.00026
 C230 C -0.15417 0.63937 -0.03589
 C231 C -0.18099 0.67059 -0.03573
 H232 H -0.31787 0.80818 0.06449
 H233 H -0.37246 0.85488 0.06454
 H234 H -0.37280 0.85489 -0.06288
 H235 H -0.31824 0.80823 -0.06312
 H236 H -0.19129 0.68122 0.06387
 H237 H -0.14448 0.62678 0.06347
 H238 H -0.14418 0.62782 -0.06395
 H239 H -0.19099 0.68226 -0.06373
 C240 C -0.00005 -0.31567 0.19633
 C241 C 0.03570 -0.33155 0.18260
 C242 C 0.03579 -0.36272 0.15570
 C243 C 0.00018 -0.37866 0.14195
 C244 C -0.03554 -0.36242 0.15507
 C245 C -0.03567 -0.33127 0.18196
 C246 C -0.00022 -0.28377 0.22619
 N247 N -0.03471 -0.26918 0.24036
 N248 N -0.03488 -0.24144 0.26811
 C249 C -0.00057 -0.22707 0.28290
 N250 N 0.03393 -0.24146 0.26855
 N251 N 0.03410 -0.26921 0.24080
 C252 C -0.00076 -0.19721 0.31482
 C253 C 0.03484 -0.18306 0.33067
 C254 C 0.03466 -0.15617 0.36187
 C255 C -0.00109 -0.14286 0.37790
 C256 C -0.03668 -0.15639 0.36170
 C257 C -0.03653 -0.18328 0.33049
 H258 H 0.06368 -0.32023 0.19295
 H259 H 0.06378 -0.37460 0.14598
 H260 H -0.06345 -0.37406 0.14486
 H261 H -0.06374 -0.31972 0.19179
 H262 H 0.06293 -0.19305 0.31930
 H263 H 0.06255 -0.14613 0.37371
 H264 H -0.06468 -0.14652 0.37341
 H265 H -0.06449 -0.19345 0.31897
 C266 C -0.00047 0.31480 0.80305
 C267 C -0.03605 0.33092 0.81691
 C268 C -0.03584 0.36219 0.84368
 C269 C -0.00008 0.37803 0.85716
 C270 C 0.03549 0.36157 0.84392
 C271 C 0.03531 0.33030 0.81714
 C272 C -0.00066 0.28276 0.77334
 N273 N 0.03365 0.26783 0.75912
 N274 N 0.03349 0.23995 0.73151
 C275 C -0.00099 0.22579 0.71690
 N276 N -0.03531 0.24054 0.73130
 N277 N -0.03515 0.26842 0.75892
 C278 C -0.00114 0.19578 0.68513
 C279 C -0.03689 0.18190 0.66934
 C280 C -0.03698 0.15488 0.63826
 C281 C -0.00136 0.14116 0.62228
 C282 C 0.03436 0.15442 0.63844
 C283 C 0.03448 0.18143 0.66952
 H284 H -0.06415 0.31969 0.80678
 H285 H -0.06372 0.37423 0.85350
 H286 H 0.06351 0.37313 0.85392
 H287 H 0.06327 0.31858 0.80719
 H288 H -0.06487 0.19222 0.68068
 H289 H -0.06496 0.14506 0.62645
 H290 H 0.06227 0.14424 0.62678
 H291 H 0.06255 0.19137 0.68098
 C292 C -0.00122 0.31334 0.19521
 C293 C 0.03451 0.32891 0.18106
 C294 C 0.03461 0.36016 0.15422
 C295 C -0.00099 0.37653 0.14094
 C296 C -0.03672 0.36060 0.15444
 C297 C -0.03685 0.32933 0.18129
 C298 C -0.00129 0.28138 0.22508
 N299 N -0.03570 0.26694 0.23962
 N300 N -0.03572 0.23918 0.26740
 C301 C -0.00132 0.22465 0.28187
 N302 N 0.03308 0.23890 0.26714
 N303 N 0.03310 0.26666 0.23935
 C304 C -0.00132 0.19480 0.31385
 C305 C 0.03437 0.18075 0.32960
 C306 C 0.03437 0.15391 0.36089
 C307 C -0.00129 0.14053 0.37710
 C308 C -0.03696 0.15394 0.36098
 C309 C -0.03699 0.18078 0.32970
 H310 H 0.06250 0.31729 0.19104
 H311 H 0.06262 0.37179 0.14421
 H312 H -0.06462 0.37257 0.14459
 H313 H -0.06492 0.31803 0.19146
 H314 H 0.06240 0.19082 0.31810
 H315 H 0.06233 0.14397 0.37267
 H316 H -0.06491 0.14401 0.37282
 H317 H -0.06503 0.19087 0.31826
 C318 C -0.00037 -0.31643 0.80422
 C319 C -0.03578 -0.33272 0.81832
 C320 C -0.03533 -0.36396 0.84522
 C321 C 0.00062 -0.37983 0.85869
 C322 C 0.03604 -0.36289 0.84505
 C323 C 0.03550 -0.33167 0.81820
 C324 C -0.00074 -0.28443 0.77439
 N325 N 0.03353 -0.26928 0.76025
 N326 N 0.03331 -0.24144 0.73256
 C327 C -0.00119 -0.22751 0.71778
 N328 N -0.03548 -0.24248 0.73209
 N329 N -0.03527 -0.27033 0.75980
 C330 C -0.00133 -0.19752 0.68592
 C331 C -0.03704 -0.18373 0.67000
 C332 C -0.03708 -0.15669 0.63887
 C333 C -0.00143 -0.14289 0.62296
 C334 C 0.03425 -0.15607 0.63924
 C335 C 0.03432 -0.18308 0.67037
 H336 H -0.06396 -0.32161 0.80829
 H337 H -0.06332 -0.37584 0.85504
 H338 H 0.06442 -0.37390 0.85471
 H339 H 0.06335 -0.31978 0.80810
 H340 H -0.06504 -0.19411 0.68129
 H341 H -0.06504 -0.14693 0.62696
 H342 H 0.06218 -0.14583 0.62764
 H343 H 0.06237 -0.19295 0.68193
 C344 C 0.31408 -0.00125 0.80418
 C345 C 0.32998 0.03437 0.81808
 C346 C 0.36128 0.03434 0.84488
 C347 C 0.37737 -0.00126 0.85839
 C348 C 0.36111 -0.03687 0.84514
 C349 C 0.32980 -0.03688 0.81831
 C350 C 0.28204 -0.00120 0.77438
 N351 N 0.26732 -0.03552 0.76005
 N352 N 0.23947 -0.03545 0.73235
 C353 C 0.22512 -0.00107 0.71776
 N354 N 0.23965 0.03324 0.73228
 N355 N 0.26750 0.03317 0.75998
 C356 C 0.19515 -0.00099 0.68588
 C357 C 0.18117 0.03467 0.67008
 C358 C 0.15420 0.03471 0.63889
 C359 C 0.14063 -0.00087 0.62283
 C360 C 0.15398 -0.03650 0.63900
 C361 C 0.18095 -0.03658 0.67018
 H362 H 0.31857 0.06236 0.80793
 H363 H 0.37316 0.06225 0.85471
 H364 H 0.37286 -0.06477 0.85516
 H365 H 0.31824 -0.06486 0.80834
 H366 H 0.19138 0.06263 0.68147
 H367 H 0.14430 0.06264 0.62708
 H368 H 0.14391 -0.06439 0.62728
 H369 H 0.19097 -0.06459 0.68166
 C370 C -0.31637 -0.00093 0.19574
 C371 C -0.33279 -0.03629 0.18187
 C372 C -0.36400 -0.03587 0.15490
 C373 C -0.37968 0.00001 0.14114
 C374 C -0.36260 0.03538 0.15455
 C375 C -0.33142 0.03487 0.18146
 C376 C -0.28443 -0.00123 0.22565
 N377 N -0.26920 0.03302 0.23958
 N378 N -0.24144 0.03289 0.26736
 C379 C -0.22766 -0.00150 0.28243
 N380 N -0.24270 -0.03578 0.26832
 N381 N -0.27048 -0.03565 0.24053
 C382 C -0.19776 -0.00153 0.31438
 C383 C -0.18405 -0.03713 0.33054
 C384 C -0.15711 -0.03705 0.36176
 C385 C -0.14332 -0.00141 0.37750
 C386 C -0.15642 0.03416 0.36099
 C387 C -0.18334 0.03411 0.32977
 H388 H -0.32183 -0.06441 0.19214
 H389 H -0.37600 -0.06382 0.14526
 H390 H -0.37345 0.06371 0.14466
 H391 H -0.31942 0.06268 0.19137
 H392 H -0.19443 -0.06512 0.31938
 H393 H -0.14741 -0.06493 0.37385
 H394 H -0.14619 0.06209 0.37247
 H395 H -0.19315 0.06208 0.31803
 C396 C 0.31468 0.00025 0.19660
 C397 C 0.33059 -0.03531 0.18260
 C398 C 0.36188 -0.03519 0.15576
 C399 C 0.37794 0.00047 0.14231
 C400 C 0.36169 0.03603 0.15568
 C401 C 0.33039 0.03593 0.18255
 C402 C 0.28263 0.00008 0.22640
 N403 N 0.26784 0.03433 0.24079
 N404 N 0.23995 0.03414 0.26847
 C405 C 0.22563 -0.00030 0.28298
 N406 N 0.24024 -0.03455 0.26841
 N407 N 0.26812 -0.03436 0.24073
 C408 C 0.19561 -0.00050 0.31483
 C409 C 0.18167 -0.03622 0.33058
 C410 C 0.15462 -0.03637 0.36172
 C411 C 0.14093 -0.00085 0.37777
 C412 C 0.15424 0.03484 0.36165
 C413 C 0.18128 0.03503 0.33052
 H414 H 0.31920 -0.06334 0.19268
 H415 H 0.37374 -0.06306 0.14584
 H416 H 0.37343 0.06396 0.14571
 H417 H 0.31882 0.06387 0.19260
 H418 H 0.19197 -0.06414 0.31918
 H419 H 0.14477 -0.06433 0.37350
 H420 H 0.14408 0.06269 0.37338
 H421 H 0.19127 0.06308 0.31909
 C422 C -0.31657 -0.00009 0.80445
 C423 C -0.33174 -0.03582 0.81879
 C424 C -0.36297 -0.03621 0.84563
 C425 C -0.38000 -0.00079 0.85894
 C426 C -0.36420 0.03504 0.84513
 C427 C -0.33293 0.03534 0.81821
 C428 C -0.28458 0.00007 0.77459
 N429 N -0.27049 0.03442 0.75964
 N430 N -0.24267 0.03441 0.73187
 C431 C -0.22775 0.00005 0.71784
 N432 N -0.24166 -0.03427 0.73298
 N433 N -0.26946 -0.03426 0.76074
 C434 C -0.19783 -0.00007 0.68590
 C435 C -0.18356 -0.03578 0.67054
 C436 C -0.15665 -0.03595 0.63930
 C437 C -0.14340 -0.00044 0.62276
 C438 C -0.15702 0.03526 0.63849
 C439 C -0.18396 0.03546 0.66972
 H440 H -0.31978 -0.06368 0.80896
 H441 H -0.37391 -0.06451 0.85557
 H442 H -0.37616 0.06302 0.85469
 H443 H -0.32187 0.06342 0.80789
 H444 H -0.19351 -0.06371 0.68231
 H445 H -0.14653 -0.06392 0.62783
 H446 H -0.14720 0.06310 0.62638
 H447 H -0.19422 0.06350 0.68086
   
