data_POSCAR
  _audit_creation_date              2014-09-24
  _audit_creation_method            'ToBaCCo'
  _symmetry_space_group_name_H-M    'P1'
  _symmetry_Int_Tables_number       1
  _symmetry_cell_setting            triclinic
  loop_
  _symmetry_equiv_pos_as_xyz
 x,y,z
_cell_length_a 38.5839
_cell_length_b 38.4676
_cell_length_c 40.3059
_cell_angle_alpha 89.887600
_cell_angle_beta 89.986400
_cell_angle_gamma 79.471200
loop_
  _atom_site_label
  _atom_site_type_symbol
  _atom_site_fract_x
  _atom_site_fract_y
  _atom_site_fract_z
O1 O -0.03431 0.28937 0.03093
 O2 O 0.03010 0.29230 -0.03613
 O3 O -0.03533 0.28682 -0.03300
 O4 O 0.03229 0.29573 0.02915
 O5 O 0.04386 0.23767 0.03553
 O6 O -0.01651 0.22913 -0.03365
 O7 O 0.05082 0.23563 -0.02809
 O8 O -0.02066 0.23112 0.03112
 Cu9 Cu -0.00316 0.29697 -0.00237
 Cu10 Cu 0.01589 0.22744 0.00097
 C11 C -0.03903 0.25960 0.04199
 C12 C 0.05230 0.26454 -0.04287
 C13 C -0.03717 0.25646 -0.04435
 C14 C 0.04873 0.26826 0.04367
 O15 O 0.45304 0.79255 0.53426
 O16 O 0.52088 0.78928 0.46951
 O17 O 0.45278 0.79248 0.46987
 O18 O 0.52136 0.78920 0.53393
 O19 O 0.52865 0.73089 0.53453
 O20 O 0.46082 0.73418 0.47000
 O21 O 0.52818 0.73096 0.46916
 O22 O 0.46104 0.73425 0.53442
 Cu23 Cu 0.48627 0.79674 0.50193
 Cu24 Cu 0.49563 0.72669 0.50209
 C25 C 0.44540 0.76394 0.54537
 C26 C 0.53570 0.75957 0.45799
 C27 C 0.44518 0.76384 0.45890
 C28 C 0.53643 0.75947 0.54536
 O29 O 1.03346 0.71887 0.03394
 O30 O 0.96485 0.71835 -0.02953
 O31 O 1.03237 0.71889 -0.02999
 O32 O 0.96599 0.71807 0.03557
 O33 O 0.95487 0.77637 0.03560
 O34 O 1.02079 0.77715 -0.03030
 O35 O 0.95382 0.77667 -0.02949
 O36 O 1.02188 0.77713 0.03425
 Cu37 Cu 1.00006 0.71269 0.00251
 Cu38 Cu 0.98657 0.78265 0.00254
 C39 C 1.03962 0.74813 0.04489
 C40 C 0.94800 0.74747 -0.04079
 C41 C 1.03813 0.74817 -0.04134
 C42 C 0.94942 0.74709 0.04716
 O43 O 0.47883 0.21182 0.46616
 O44 O 0.54608 0.20535 0.53209
 O45 O 0.47727 0.21088 0.53110
 O46 O 0.54729 0.20585 0.46778
 O47 O 0.54084 0.26405 0.46808
 O48 O 0.47211 0.26895 0.53183
 O49 O 0.54008 0.26350 0.53247
 O50 O 0.47303 0.26993 0.46689
 Cu51 Cu 0.51281 0.20263 0.49929
 Cu52 Cu 0.50579 0.27241 0.49992
 C53 C 0.46475 0.24203 0.45497
 C54 C 0.55479 0.23340 0.54333
 C55 C 0.46300 0.24087 0.54252
 C56 C 0.55595 0.23418 0.45710
 O57 O 0.72296 0.03467 -0.02958
 O58 O 0.71332 -0.02909 0.03701
 O59 O 0.72158 0.03641 0.03418
 O60 O 0.71018 -0.02963 -0.02869
 O61 O 0.76775 -0.04921 -0.03020
 O62 O 0.77856 0.01462 0.03563
 O63 O 0.76923 -0.05350 0.03055
 O64 O 0.77995 0.01275 -0.03186
 Cu65 Cu 0.71114 0.00492 0.00333
 Cu66 Cu 0.77971 -0.01943 0.00221
 C67 C 0.75325 0.03442 -0.04211
 C68 C 0.73957 -0.05310 0.04429
 C69 C 0.75205 0.03677 0.04567
 C70 C 0.73681 -0.05039 -0.04031
 O71 O 0.21095 0.48449 0.53137
 O72 O 0.21666 0.55208 0.46770
 O73 O 0.21329 0.48548 0.46630
 O74 O 0.21368 0.55201 0.53147
 O75 O 0.27189 0.53968 0.53280
 O76 O 0.27105 0.46923 0.47110
 O77 O 0.27468 0.53628 0.46777
 O78 O 0.26904 0.47361 0.53561
 Cu79 Cu 0.20774 0.51965 0.49907
 Cu80 Cu 0.27755 0.50337 0.50189
 C81 C 0.23906 0.46828 0.54494
 C82 C 0.24670 0.55528 0.45657
 C83 C 0.24203 0.46597 0.45770
 C84 C 0.24283 0.55746 0.54297
 O85 O 0.28179 1.03851 0.02914
 O86 O 0.27492 0.97006 -0.03322
 O87 O 0.27845 1.03694 -0.03563
 O88 O 0.27834 0.97098 0.03061
 O89 O 0.22025 0.98471 0.03336
 O90 O 0.22052 1.05065 -0.03292
 O91 O 0.21682 0.98456 -0.03128
 O92 O 0.22385 1.05112 0.03235
 Cu93 Cu 0.28423 1.00295 -0.00243
 Cu94 Cu 0.21456 1.01931 0.00072
 C95 C 0.25391 1.05617 0.04192
 C96 C 0.24465 0.96592 -0.04302
 C97 C 0.24945 1.05463 -0.04619
 C98 C 0.24926 0.96639 0.04304
 O99 O 0.78777 0.52004 0.53336
 O100 O 0.78649 0.45278 0.46848
 O101 O 0.78482 0.52110 0.46861
 O102 O 0.78948 0.45155 0.53247
 O103 O 0.73131 0.46130 0.53526
 O104 O 0.72671 0.52981 0.47091
 O105 O 0.72828 0.46255 0.47048
 O106 O 0.72968 0.52882 0.53583
 Cu107 Cu 0.79300 0.48558 0.50054
 Cu108 Cu 0.72318 0.49663 0.50342
 C109 C 0.75888 0.53567 0.54588
 C110 C 0.75712 0.44634 0.45840
 C111 C 0.75486 0.53692 0.45851
 C112 C 0.76116 0.44456 0.54464
 C113 C 0.25700 0.23393 0.22399
 C114 C 0.22810 0.26243 0.22554
 C115 C 0.22584 0.28684 0.25147
 C116 C 0.25256 0.28459 0.27545
 C117 C 0.28251 0.25704 0.27300
 C118 C 0.28399 0.23177 0.24766
 H119 H 0.30649 0.21033 0.24626
 H120 H 0.20308 0.30800 0.25276
 C121 C 0.73437 0.76527 0.22030
 C122 C 0.76668 0.74116 0.22524
 C123 C 0.76944 0.71639 0.25119
 C124 C 0.74155 0.71627 0.27342
 C125 C 0.71071 0.74220 0.27028
 C126 C 0.70704 0.76576 0.24347
 H127 H 0.68266 0.78465 0.24085
 H128 H 0.79357 0.69719 0.25425
 C129 C 0.78703 0.24034 0.22592
 C130 C 0.76780 0.21245 0.22801
 C131 C 0.74616 0.21013 0.25559
 C132 C 0.74247 0.23570 0.28080
 C133 C 0.76183 0.26350 0.27870
 C134 C 0.78388 0.26544 0.25144
 H135 H 0.79888 0.28667 0.25021
 H136 H 0.73069 0.18929 0.25658
 C137 C 0.22228 0.75790 0.22048
 C138 C 0.24242 0.78507 0.22275
 C139 C 0.26409 0.78662 0.25040
 C140 C 0.26685 0.76108 0.27560
 C141 C 0.24699 0.73375 0.27320
 C142 C 0.22500 0.73245 0.24580
 H143 H 0.20932 0.71178 0.24455
 H144 H 0.27989 0.80717 0.25171
 C145 C 0.74314 0.23026 0.71865
 C146 C 0.76374 0.25707 0.72038
 C147 C 0.78604 0.25834 0.74758
 C148 C 0.78860 0.23322 0.77315
 C149 C 0.76853 0.20604 0.77115
 C150 C 0.74620 0.20473 0.74392
 H151 H 0.73007 0.18442 0.74306
 H152 H 0.80179 0.27895 0.74869
 C153 C 0.26295 0.76161 0.72512
 C154 C 0.24230 0.73488 0.72673
 C155 C 0.21991 0.73345 0.75385
 C156 C 0.21714 0.75859 0.77938
 C157 C 0.23749 0.78563 0.77747
 C158 C 0.26003 0.78688 0.75042
 H159 H 0.27602 0.80731 0.74946
 H160 H 0.20379 0.71313 0.75460
 C161 C 0.25262 0.28635 0.72648
 C162 C 0.27791 0.25514 0.72240
 C163 C 0.27766 0.22673 0.74417
 C164 C 0.25362 0.22942 0.77066
 C165 C 0.23046 0.26215 0.77663
 C166 C 0.23001 0.28997 0.75388
 H167 H 0.21187 0.31475 0.75731
 H168 H 0.29639 0.20235 0.74054
 C169 C 0.74531 0.71689 0.72905
 C170 C 0.71459 0.74325 0.73045
 C171 C 0.71035 0.76803 0.75619
 C172 C 0.73665 0.76788 0.78030
 C173 C 0.76836 0.74253 0.77788
 C174 C 0.77196 0.71698 0.75267
 H175 H 0.79592 0.69731 0.75112
 H176 H 0.68643 0.78780 0.75723
 C177 C 0.26046 0.13000 0.11881
 C178 C 0.22816 0.11916 0.11162
 C179 C 0.22600 0.09577 0.08536
 C180 C 0.25615 0.08097 0.06707
 C181 C 0.28853 0.09065 0.07527
 C182 C 0.29061 0.11513 0.10047
 C183 C 0.26119 0.15611 0.14630
 C184 C 0.29058 0.17208 0.15294
 C185 C 0.28939 0.19700 0.17838
 C186 C 0.25916 0.20609 0.19810
 C187 C 0.23042 0.18925 0.19245
 C188 C 0.23055 0.16577 0.16593
 C189 C 0.19838 0.13086 0.13125
 C190 C 0.19981 0.15292 0.15837
 H191 H 0.17373 0.12223 0.12600
 H192 H 0.17619 0.16080 0.17311
 H193 H 0.20088 0.08811 0.08007
 H194 H 0.31239 0.07959 0.06195
 H195 H 0.31190 0.20970 0.18228
 H196 H 0.20750 0.19502 0.20837
 H197 H 0.31614 0.12156 0.10566
 H198 H 0.31427 0.16644 0.13819
 C199 C 0.75872 0.61208 0.62398
 C200 C 0.73079 0.59297 0.62097
 C201 C 0.73088 0.56857 0.59514
 C202 C 0.75905 0.56181 0.57267
 C203 C 0.78732 0.57979 0.57631
 C204 C 0.78711 0.60481 0.60148
 C205 C 0.75689 0.63883 0.65131
 C206 C 0.78163 0.66143 0.65495
 C207 C 0.77811 0.68647 0.68043
 C208 C 0.75010 0.68933 0.70296
 C209 C 0.72610 0.66624 0.70022
 C210 C 0.72857 0.64193 0.67411
 C211 C 0.70316 0.59789 0.64400
 C212 C 0.70239 0.62140 0.67032
 H213 H 0.68196 0.58303 0.64185
 H214 H 0.68055 0.62408 0.68762
 H215 H 0.70925 0.55425 0.59291
 H216 H 0.80947 0.57481 0.55937
 H217 H 0.79696 0.70407 0.68229
 H218 H 0.70515 0.66755 0.71830
 H219 H 0.80950 0.61791 0.60306
 H220 H 0.80340 0.66070 0.63801
 C221 C 0.73056 0.86629 0.11341
 C222 C 0.70926 0.90011 0.11680
 C223 C 0.71042 0.92611 0.09243
 C224 C 0.73605 0.92033 0.06719
 C225 C 0.75921 0.88756 0.06583
 C226 C 0.75585 0.86054 0.08800
 C227 C 0.72772 0.83887 0.13892
 C228 C 0.74122 0.80282 0.13395
 C229 C 0.74061 0.77862 0.15962
 C230 C 0.72878 0.79013 0.19143
 C231 C 0.71209 0.82562 0.19548
 C232 C 0.71024 0.84965 0.16894
 C233 C 0.68903 0.90830 0.14562
 C234 C 0.69096 0.88415 0.17189
 H235 H 0.67318 0.93441 0.14874
 H236 H 0.67658 0.89233 0.19449
 H237 H 0.69339 0.95175 0.09470
 H238 H 0.77943 0.88232 0.04689
 H239 H 0.75081 0.75096 0.15491
 H240 H 0.70121 0.83479 0.21936
 H241 H 0.77414 0.83578 0.08583
 H242 H 0.75205 0.79302 0.11031
 C243 C 0.23725 0.39261 0.62292
 C244 C 0.25752 0.41957 0.62621
 C245 C 0.25805 0.44404 0.60046
 C246 C 0.23721 0.44320 0.57212
 C247 C 0.21528 0.41809 0.56980
 C248 C 0.21549 0.39278 0.59476
 C249 C 0.23970 0.36528 0.64975
 C250 C 0.22510 0.33444 0.64653
 C251 C 0.22926 0.30909 0.67172
 C252 C 0.24738 0.31422 0.70082
 C253 C 0.26151 0.34497 0.70468
 C254 C 0.25893 0.36987 0.67887
 C255 C 0.27677 0.42219 0.65527
 C256 C 0.27669 0.39841 0.68141
 H257 H 0.29182 0.44320 0.65801
 H258 H 0.29173 0.40174 0.70352
 H259 H 0.27432 0.46414 0.60261
 H260 H 0.19871 0.41744 0.54819
 H261 H 0.21849 0.28521 0.66844
 H262 H 0.27587 0.34860 0.72715
 H263 H 0.19836 0.37377 0.59169
 H264 H 0.21131 0.32896 0.62442
 C265 C 0.88340 0.25473 0.11806
 C266 C 0.90851 0.22434 0.10976
 C267 C 0.93332 0.22608 0.08464
 C268 C 0.93413 0.25793 0.06787
 C269 C 0.90951 0.28811 0.07635
 C270 C 0.88438 0.28658 0.10101
 C271 C 0.85742 0.25171 0.14513
 C272 C 0.83064 0.28000 0.15461
 C273 C 0.80765 0.27602 0.18052
 C274 C 0.81072 0.24384 0.19759
 C275 C 0.83710 0.21548 0.18827
 C276 C 0.86007 0.21899 0.16200
 C277 C 0.90913 0.19252 0.12689
 C278 C 0.88564 0.19000 0.15265
 H279 H 0.92840 0.16928 0.12056
 H280 H 0.88747 0.16489 0.16540
 H281 H 0.95244 0.20263 0.07855
 H282 H 0.90958 0.31304 0.06383
 H283 H 0.78732 0.29819 0.18729
 H284 H 0.84009 0.19077 0.20185
 H285 H 0.86626 0.31070 0.10651
 H286 H 0.82692 0.30535 0.14238
 C287 C 0.36556 0.76695 0.62063
 C288 C 0.39001 0.73542 0.61445
 C289 C 0.41568 0.73461 0.58967
 C290 C 0.41811 0.76507 0.57128
 C291 C 0.39440 0.79649 0.57790
 C292 C 0.36835 0.79746 0.60213
 C293 C 0.33825 0.76649 0.64703
 C294 C 0.31154 0.79582 0.65404
 C295 C 0.28699 0.79405 0.67917
 C296 C 0.28846 0.76311 0.69790
 C297 C 0.31500 0.73392 0.69130
 C298 C 0.33934 0.73509 0.66570
 C299 C 0.38908 0.70500 0.63331
 C300 C 0.36456 0.70497 0.65866
 H301 H 0.40789 0.68092 0.62866
 H302 H 0.36517 0.68086 0.67280
 H303 H 0.43418 0.71029 0.58506
 H304 H 0.39578 0.82039 0.56409
 H305 H 0.26667 0.81690 0.68400
 H306 H 0.31694 0.71033 0.70641
 H307 H 0.35092 0.82238 0.60613
 H308 H 0.30900 0.82025 0.64031
 C309 C 0.11982 0.74898 0.11672
 C310 C 0.09695 0.78070 0.10778
 C311 C 0.07093 0.78033 0.08352
 C312 C 0.06610 0.74843 0.06876
 C313 C 0.08819 0.71686 0.07857
 C314 C 0.11479 0.71711 0.10198
 C315 C 0.14762 0.75064 0.14234
 C316 C 0.17350 0.72121 0.15107
 C317 C 0.19812 0.72392 0.17587
 C318 C 0.19750 0.75590 0.19266
 C319 C 0.17209 0.78540 0.18391
 C320 C 0.14785 0.78327 0.15841
 C321 C 0.09956 0.81247 0.12367
 C322 C 0.12400 0.81359 0.14891
 H323 H 0.08190 0.83674 0.11700
 H324 H 0.12449 0.83868 0.16094
 H325 H 0.05387 0.80498 0.07678
 H326 H 0.08520 0.69172 0.06793
 H327 H 0.21767 0.70087 0.18212
 H328 H 0.17071 0.80994 0.19737
 H329 H 0.13074 0.69201 0.10854
 H330 H 0.17531 0.69597 0.13897
 C331 C 0.63657 0.22769 0.61714
 C332 C 0.61236 0.25959 0.61173
 C333 C 0.58591 0.26118 0.58760
 C334 C 0.58243 0.23117 0.56909
 C335 C 0.60578 0.19931 0.57509
 C336 C 0.63262 0.19756 0.59867
 C337 C 0.66494 0.22741 0.64267
 C338 C 0.69159 0.19773 0.64877
 C339 C 0.71718 0.19886 0.67312
 C340 C 0.71682 0.22951 0.69193
 C341 C 0.69032 0.25903 0.68622
 C342 C 0.66497 0.25850 0.66141
 C343 C 0.61440 0.28964 0.63064
 C344 C 0.63984 0.28897 0.65525
 H345 H 0.59575 0.31399 0.62662
 H346 H 0.64007 0.31283 0.66945
 H347 H 0.56771 0.28584 0.58349
 H348 H 0.60361 0.17574 0.56117
 H349 H 0.73737 0.17573 0.67730
 H350 H 0.68913 0.28235 0.70148
 H351 H 0.64981 0.17237 0.60215
 H352 H 0.69328 0.17351 0.63494
 C353 C 0.76433 0.10588 0.87795
 C354 C 0.73856 0.11577 0.90287
 C355 C 0.73478 0.09214 0.92866
 C356 C 0.75736 0.05923 0.93085
 C357 C 0.78395 0.05016 0.90706
 C358 C 0.78730 0.07302 0.88078
 C359 C 0.76631 0.13112 0.84993
 C360 C 0.78811 0.12223 0.82197
 C361 C 0.78864 0.14658 0.79632
 C362 C 0.76812 0.18045 0.79835
 C363 C 0.74604 0.18957 0.82571
 C364 C 0.74445 0.16496 0.85116
 C365 C 0.71710 0.14933 0.90219
 C366 C 0.72050 0.17366 0.87726
 H367 H 0.69767 0.15708 0.92148
 H368 H 0.70356 0.19944 0.87806
 H369 H 0.71468 0.09963 0.94744
 H370 H 0.80184 0.02497 0.90844
 H371 H 0.80529 0.13910 0.77491
 H372 H 0.72958 0.21561 0.82672
 H373 H 0.80820 0.06463 0.86318
 H374 H 0.80439 0.09646 0.81914
 C375 C 0.25112 0.62963 0.37779
 C376 C 0.22828 0.63891 0.40512
 C377 C 0.22668 0.61431 0.43058
 C378 C 0.24896 0.58117 0.43012
 C379 C 0.27312 0.57280 0.40415
 C380 C 0.27403 0.59657 0.37807
 C381 C 0.25035 0.65575 0.35008
 C382 C 0.26807 0.64727 0.31976
 C383 C 0.26636 0.67252 0.29462
 C384 C 0.24777 0.70690 0.29950
 C385 C 0.22946 0.71556 0.32919
 C386 C 0.22987 0.69000 0.35415
 C387 C 0.20769 0.67284 0.40715
 C388 C 0.20920 0.69814 0.38263
 H389 H 0.19060 0.68014 0.42832
 H390 H 0.19323 0.72422 0.38560
 H391 H 0.20861 0.62116 0.45115
 H392 H 0.29076 0.54742 0.40363
 H393 H 0.28010 0.66546 0.27147
 H394 H 0.21437 0.74202 0.33247
 H395 H 0.29302 0.58877 0.35859
 H396 H 0.28282 0.62117 0.31479
 C397 C 0.23712 0.89039 0.88037
 C398 C 0.26106 0.88141 0.90697
 C399 C 0.26389 0.90642 0.93168
 C400 C 0.24172 0.93962 0.93123
 C401 C 0.21654 0.94768 0.90605
 C402 C 0.21441 0.92353 0.88070
 C403 C 0.23654 0.86389 0.85334
 C404 C 0.21779 0.87218 0.82350
 C405 C 0.21845 0.84670 0.79883
 C406 C 0.23688 0.81226 0.80379
 C407 C 0.25614 0.80374 0.83302
 C408 C 0.25686 0.82958 0.85744
 C409 C 0.28143 0.84737 0.90904
 C410 C 0.27865 0.82170 0.88527
 H411 H 0.29936 0.84026 0.92967
 H412 H 0.29453 0.79557 0.88825
 H413 H 0.28274 0.89984 0.95170
 H414 H 0.19895 0.97309 0.90561
 H415 H 0.20417 0.85370 0.77592
 H416 H 0.27129 0.77729 0.83623
 H417 H 0.19460 0.93111 0.86186
 H418 H 0.20318 0.89833 0.81843
 C419 C 0.75548 0.37011 0.38097
 C420 C 0.77903 0.36227 0.40803
 C421 C 0.78003 0.38763 0.43288
 C422 C 0.75642 0.41997 0.43215
 C423 C 0.73175 0.42689 0.40642
 C424 C 0.73144 0.40246 0.38090
 C425 C 0.75662 0.34321 0.35399
 C426 C 0.73818 0.35045 0.32385
 C427 C 0.74032 0.32458 0.29935
 C428 C 0.75996 0.29071 0.30473
 C429 C 0.77897 0.28328 0.33426
 C430 C 0.77820 0.30958 0.35853
 C431 C 0.80074 0.32893 0.41048
 C432 C 0.79963 0.30283 0.38672
 H433 H 0.81839 0.32269 0.43144
 H434 H 0.81648 0.27725 0.39004
 H435 H 0.79849 0.38188 0.45331
 H436 H 0.71305 0.45160 0.40575
 H437 H 0.72620 0.33079 0.27623
 H438 H 0.79503 0.25731 0.33786
 H439 H 0.71192 0.40913 0.36166
 H440 H 0.72263 0.37611 0.31846
 C441 C 0.13169 0.26801 0.88551
 C442 C 0.09879 0.29100 0.88288
 C443 C 0.07342 0.29134 0.90793
 C444 C 0.07855 0.26575 0.93334
 C445 C 0.11008 0.24075 0.93394
 C446 C 0.13677 0.24251 0.91094
 C447 C 0.15870 0.26970 0.85939
 C448 C 0.19445 0.25474 0.86360
 C449 C 0.21822 0.25502 0.83756
 C450 C 0.20641 0.26778 0.80603
 C451 C 0.17131 0.28561 0.80272
 C452 C 0.14792 0.28798 0.82967
 C453 C 0.09073 0.31167 0.85423
 C454 C 0.11413 0.30877 0.82745
 H455 H 0.06524 0.32880 0.85173
 H456 H 0.10602 0.32370 0.80506
 H457 H 0.04860 0.30979 0.90621
 H458 H 0.11469 0.22045 0.95293
 H459 H 0.24570 0.24384 0.84174
 H460 H 0.16195 0.29715 0.77910
 H461 H 0.16074 0.22300 0.91255
 H462 H 0.20435 0.24314 0.88697
 C463 C 0.61024 0.75678 0.37840
 C464 C 0.58525 0.73403 0.37815
 C465 C 0.56176 0.73431 0.40480
 C466 C 0.56151 0.75833 0.43094
 C467 C 0.58506 0.78202 0.43042
 C468 C 0.60944 0.78107 0.40467
 C469 C 0.63594 0.75449 0.35027
 C470 C 0.66464 0.77250 0.35031
 C471 C 0.68843 0.76871 0.32393
 C472 C 0.68383 0.74750 0.29674
 C473 C 0.65503 0.73006 0.29595
 C474 C 0.63183 0.73236 0.32305
 C475 C 0.58328 0.71184 0.35095
 C476 C 0.60549 0.71168 0.32363
 H477 H 0.56383 0.69477 0.35053
 H478 H 0.60261 0.69439 0.30301
 H479 H 0.54284 0.71664 0.40471
 H480 H 0.58488 0.80106 0.45022
 H481 H 0.71083 0.78206 0.32487
 H482 H 0.65160 0.71359 0.27485
 H483 H 0.62696 0.79993 0.40550
 H484 H 0.66975 0.78876 0.37085
 C485 C 0.87413 0.74767 0.87890
 C486 C 0.88616 0.71631 0.89716
 C487 C 0.91025 0.71634 0.92331
 C488 C 0.92193 0.74753 0.93225
 C489 C 0.90904 0.77880 0.91479
 C490 C 0.88555 0.77894 0.88845
 C491 C 0.84901 0.74637 0.85074
 C492 C 0.83745 0.77542 0.82961
 C493 C 0.81260 0.77347 0.80488
 C494 C 0.79835 0.74274 0.80087
 C495 C 0.81120 0.71296 0.82035
 C496 C 0.83648 0.71450 0.84512
 C497 C 0.87370 0.68527 0.88955
 C498 C 0.84898 0.68453 0.86443
 H499 H 0.88273 0.66129 0.90362
 H500 H 0.83963 0.66005 0.85997
 H501 H 0.91965 0.69211 0.93691
 H502 H 0.91747 0.80329 0.92123
 H503 H 0.80351 0.79646 0.78950
 H504 H 0.80055 0.68899 0.81696
 H505 H 0.87650 0.80384 0.87612
 H506 H 0.84703 0.79994 0.83189
 C507 C 0.39050 0.25046 0.37403
 C508 C 0.39974 0.21832 0.39182
 C509 C 0.42411 0.21561 0.41804
 C510 C 0.43887 0.24485 0.42752
 C511 C 0.42896 0.27690 0.41038
 C512 C 0.40521 0.27972 0.38397
 C513 C 0.36469 0.25215 0.34600
 C514 C 0.35536 0.28217 0.32552
 C515 C 0.32983 0.28307 0.30086
 C516 C 0.31270 0.25432 0.29625
 C517 C 0.32314 0.22357 0.31516
 C518 C 0.34902 0.22224 0.33987
 C519 C 0.38419 0.18927 0.38372
 C520 C 0.35902 0.19134 0.35862
 H521 H 0.39112 0.16469 0.39740
 H522 H 0.34725 0.16835 0.35376
 H523 H 0.43123 0.19082 0.43135
 H524 H 0.43984 0.29993 0.41721
 H525 H 0.32263 0.30674 0.28593
 H526 H 0.31022 0.20112 0.31135
 H527 H 0.39853 0.30511 0.37193
 H528 H 0.36725 0.30528 0.32824
 C529 C 0.72662 0.87435 0.88365
 C530 C 0.74268 0.86300 0.91435
 C531 C 0.74610 0.88785 0.93901
 C532 C 0.73200 0.92370 0.93422
 C533 C 0.71395 0.93469 0.90484
 C534 C 0.71153 0.91037 0.87961
 C535 C 0.72636 0.84742 0.85689
 C536 C 0.71657 0.85662 0.82390
 C537 C 0.71915 0.83070 0.79935
 C538 C 0.73073 0.79490 0.80717
 C539 C 0.73862 0.78538 0.84034
 C540 C 0.73834 0.81135 0.86475
 C541 C 0.75487 0.82696 0.92032
 C542 C 0.75180 0.80159 0.89637
 H543 H 0.76664 0.81819 0.94401
 H544 H 0.76146 0.77401 0.90224
 H545 H 0.75931 0.87932 0.96218
 H546 H 0.70258 0.96231 0.90105
 H547 H 0.71312 0.83879 0.77393
 H548 H 0.74688 0.75775 0.84680
 H549 H 0.69766 0.92018 0.85728
 H550 H 0.70834 0.88378 0.81631
 C551 C 0.24195 0.39093 0.37920
 C552 C 0.25573 0.37952 0.41076
 C553 C 0.25650 0.40429 0.43622
 C554 C 0.24171 0.43995 0.43119
 C555 C 0.22617 0.45087 0.40066
 C556 C 0.22657 0.42678 0.37478
 C557 C 0.24360 0.36413 0.35209
 C558 C 0.23581 0.37352 0.31877
 C559 C 0.23865 0.34765 0.29421
 C560 C 0.24859 0.31171 0.30225
 C561 C 0.25552 0.30209 0.33558
 C562 C 0.25474 0.32802 0.36016
 C563 C 0.26780 0.34347 0.41685
 C564 C 0.26633 0.31817 0.39236
 H565 H 0.27789 0.33460 0.44111
 H566 H 0.27546 0.29055 0.39843
 H567 H 0.26769 0.39576 0.46021
 H568 H 0.21426 0.47832 0.39665
 H569 H 0.23363 0.35585 0.26867
 H570 H 0.26265 0.27440 0.34224
 H571 H 0.21428 0.43658 0.35172
 H572 H 0.22860 0.40075 0.31102
 C573 C 0.24891 0.12328 0.87117
 C574 C 0.28109 0.10780 0.88639
 C575 C 0.28115 0.08483 0.91353
 C576 C 0.24933 0.07810 0.92699
 C577 C 0.21739 0.09489 0.91263
 C578 C 0.21715 0.11693 0.88504
 C579 C 0.25003 0.14722 0.84197
 C580 C 0.21994 0.16117 0.82310
 C581 C 0.22175 0.18598 0.79815
 C582 C 0.25339 0.19788 0.79189
 C583 C 0.28416 0.18175 0.80838
 C584 C 0.28274 0.15634 0.83315
 C585 C 0.31293 0.11614 0.87506
 C586 C 0.31364 0.14053 0.84953
 H587 H 0.33760 0.10448 0.88681
 H588 H 0.33879 0.14707 0.84247
 H589 H 0.30611 0.07275 0.92453
 H590 H 0.19232 0.09067 0.92239
 H591 H 0.19795 0.19741 0.78490
 H592 H 0.30885 0.19031 0.80308
 H593 H 0.19181 0.12920 0.87527
 H594 H 0.19472 0.15369 0.82757
 C595 C 0.74775 0.61185 0.37825
 C596 C 0.77691 0.60746 0.40014
 C597 C 0.77947 0.58261 0.42611
 C598 C 0.75246 0.56325 0.43150
 C599 C 0.72284 0.56897 0.41073
 C600 C 0.72053 0.59276 0.38434
 C601 C 0.74659 0.63745 0.35008
 C602 C 0.72110 0.64037 0.32475
 C603 C 0.72043 0.66526 0.29952
 C604 C 0.74452 0.68841 0.29925
 C605 C 0.77123 0.68458 0.32328
 C606 C 0.77273 0.65888 0.34841
 C607 C 0.80280 0.62842 0.39637
 C608 C 0.80032 0.65415 0.37154
 H609 H 0.82496 0.62541 0.41332
 H610 H 0.82061 0.67021 0.37010
 H611 H 0.80210 0.57888 0.44255
 H612 H 0.70156 0.55451 0.41455
 H613 H 0.70092 0.66650 0.28007
 H614 H 0.79060 0.70174 0.32249
 H615 H 0.69702 0.59614 0.36931
 H616 H 0.70177 0.62338 0.32369
 C617 C 0.11592 0.74908 0.88435
 C618 C 0.09316 0.78075 0.89352
 C619 C 0.06793 0.78038 0.91856
 C620 C 0.06375 0.74851 0.93390
 C621 C 0.08561 0.71695 0.92380
 C622 C 0.11147 0.71723 0.89961
 C623 C 0.14307 0.75078 0.85806
 C624 C 0.16896 0.72147 0.84915
 C625 C 0.19322 0.72434 0.82403
 C626 C 0.19221 0.75634 0.80706
 C627 C 0.16657 0.78564 0.81578
 C628 C 0.14276 0.78339 0.84164
 C629 C 0.09513 0.81247 0.87713
 C630 C 0.11891 0.81362 0.85129
 H631 H 0.07753 0.83670 0.88394
 H632 H 0.11895 0.83868 0.83897
 H633 H 0.05098 0.80499 0.92549
 H634 H 0.08309 0.69183 0.93483
 H635 H 0.21290 0.70142 0.81776
 H636 H 0.16481 0.81016 0.80213
 H637 H 0.12733 0.69215 0.89290
 H638 H 0.17115 0.69624 0.86145
 C639 C 0.63742 0.23044 0.38325
 C640 C 0.61251 0.26184 0.38856
 C641 C 0.58634 0.26283 0.41287
 C642 C 0.58377 0.23264 0.43161
 C643 C 0.60784 0.20126 0.42577
 C644 C 0.63447 0.20015 0.40204
 C645 C 0.66538 0.23081 0.35741
 C646 C 0.69269 0.20173 0.35135
 C647 C 0.71788 0.20349 0.32673
 C648 C 0.71643 0.23417 0.30761
 C649 C 0.68922 0.26304 0.31323
 C650 C 0.66430 0.26193 0.33832
 C651 C 0.61348 0.29198 0.36931
 C652 C 0.63851 0.29186 0.34442
 H653 H 0.59428 0.31594 0.37327
 H654 H 0.63790 0.31575 0.32995
 H655 H 0.56752 0.28708 0.41684
 H656 H 0.60633 0.17757 0.43985
 H657 H 0.73863 0.18084 0.32262
 H658 H 0.68720 0.28637 0.29775
 H659 H 0.65224 0.17531 0.39864
 H660 H 0.69522 0.17754 0.36544
 C661 C 0.88502 0.24847 0.88054
 C662 C 0.91182 0.21905 0.88779
 C663 C 0.93692 0.22153 0.91257
 C664 C 0.93621 0.25328 0.92990
 C665 C 0.90979 0.28243 0.92241
 C666 C 0.88451 0.28011 0.89820
 C667 C 0.85885 0.24487 0.85383
 C668 C 0.83072 0.27231 0.84535
 C669 C 0.80777 0.26807 0.81955
 C670 C 0.81210 0.23643 0.80164
 C671 C 0.83969 0.20876 0.81007
 C672 C 0.86281 0.21260 0.83618
 C673 C 0.91371 0.18754 0.86995
 C674 C 0.88993 0.18448 0.84452
 H675 H 0.93421 0.16500 0.87542
 H676 H 0.89282 0.15969 0.83117
 H677 H 0.95735 0.19890 0.91797
 H678 H 0.90851 0.30725 0.93540
 H679 H 0.78653 0.28968 0.81341
 H680 H 0.84364 0.18453 0.79580
 H681 H 0.86507 0.30353 0.89358
 H682 H 0.82596 0.29728 0.85818
 C683 C 0.36674 0.76661 0.38241
 C684 C 0.39127 0.73521 0.38892
 C685 C 0.41634 0.73445 0.41422
 C686 C 0.41814 0.76486 0.43279
 C687 C 0.39432 0.79616 0.42592
 C688 C 0.36881 0.79706 0.40119
 C689 C 0.34016 0.76612 0.35535
 C690 C 0.31346 0.79534 0.34788
 C691 C 0.28960 0.79354 0.32215
 C692 C 0.29178 0.76268 0.30329
 C693 C 0.31835 0.73361 0.31033
 C694 C 0.34199 0.73482 0.33650
 C695 C 0.39107 0.70487 0.36985
 C696 C 0.36724 0.70481 0.34393
 H697 H 0.40995 0.68089 0.37475
 H698 H 0.36841 0.68078 0.32964
 H699 H 0.43497 0.71024 0.41901
 H700 H 0.39524 0.82001 0.43987
 H701 H 0.26923 0.81627 0.31700
 H702 H 0.32082 0.71006 0.29518
 H703 H 0.35126 0.82189 0.39699
 H704 H 0.31038 0.81969 0.36169
 C705 C 0.24857 0.88670 0.11771
 C706 C 0.22620 0.92010 0.12068
 C707 C 0.22595 0.94573 0.09579
 C708 C 0.24919 0.93930 0.06885
 C709 C 0.27258 0.90695 0.06677
 C710 C 0.27210 0.88076 0.09069
 C711 C 0.24700 0.85955 0.14408
 C712 C 0.26463 0.82418 0.14131
 C713 C 0.26261 0.79998 0.16677
 C714 C 0.24347 0.81062 0.19560
 C715 C 0.22558 0.84556 0.19862
 C716 C 0.22625 0.86975 0.17263
 C717 C 0.20499 0.92801 0.14886
 C718 C 0.20573 0.90370 0.17468
 H719 H 0.18818 0.95372 0.15136
 H720 H 0.18944 0.91135 0.19631
 H721 H 0.20843 0.97112 0.09783
 H722 H 0.29091 0.90170 0.04623
 H723 H 0.27629 0.77291 0.16414
 H724 H 0.21033 0.85349 0.22084
 H725 H 0.29068 0.85634 0.08791
 H726 H 0.27963 0.81461 0.11954
 C727 C 0.76499 0.36233 0.61758
 C728 C 0.74124 0.39481 0.62126
 C729 C 0.73966 0.42125 0.59696
 C730 C 0.76284 0.41662 0.56990
 C731 C 0.78761 0.38526 0.56714
 C732 C 0.78850 0.35821 0.59048
 C733 C 0.76476 0.33420 0.64331
 C734 C 0.78389 0.29947 0.63983
 C735 C 0.78299 0.27432 0.66472
 C736 C 0.76351 0.28340 0.69368
 C737 C 0.74423 0.31770 0.69741
 C738 C 0.74375 0.34276 0.67199
 C739 C 0.71992 0.40104 0.64954
 C740 C 0.72184 0.37592 0.67477
 H741 H 0.70205 0.42606 0.65256
 H742 H 0.70537 0.38229 0.69650
 H743 H 0.72104 0.44589 0.59953
 H744 H 0.80590 0.38141 0.54650
 H745 H 0.79783 0.24777 0.66156
 H746 H 0.72888 0.32448 0.71979
 H747 H 0.80806 0.33457 0.58718
 H748 H 0.79923 0.29112 0.61793
 C749 C 0.76050 0.11502 0.11982
 C750 C 0.78111 0.08064 0.12246
 C751 C 0.77956 0.05550 0.09743
 C752 C 0.75623 0.06361 0.07068
 C753 C 0.73521 0.09733 0.06861
 C754 C 0.73749 0.12284 0.09261
 C755 C 0.76291 0.14113 0.14688
 C756 C 0.74605 0.17684 0.14501
 C757 C 0.74813 0.19986 0.17133
 C758 C 0.76674 0.18781 0.20013
 C759 C 0.78423 0.15260 0.20216
 C760 C 0.78315 0.12941 0.17542
 C761 C 0.80205 0.07123 0.15063
 C762 C 0.80245 0.09484 0.17684
 H763 H 0.81763 0.04487 0.15286
 H764 H 0.81838 0.08599 0.19844
 H765 H 0.79529 0.02917 0.09948
 H766 H 0.71689 0.10401 0.04822
 H767 H 0.73488 0.22716 0.16938
 H768 H 0.79917 0.14357 0.22431
 H769 H 0.72036 0.14816 0.08981
 H770 H 0.73141 0.18759 0.12340
 C771 C 0.24097 0.63594 0.61888
 C772 C 0.26478 0.60331 0.62102
 C773 C 0.26619 0.57833 0.59547
 C774 C 0.24276 0.58456 0.56866
 C775 C 0.21821 0.61620 0.56720
 C776 C 0.21751 0.64181 0.59179
 C777 C 0.24093 0.66228 0.64619
 C778 C 0.22138 0.69699 0.64453
 C779 C 0.22206 0.72047 0.67076
 C780 C 0.24175 0.70972 0.69928
 C781 C 0.26136 0.67538 0.70131
 C782 C 0.26199 0.65199 0.67455
 C783 C 0.28616 0.59536 0.64911
 C784 C 0.28416 0.61883 0.67566
 H785 H 0.30411 0.57023 0.65094
 H786 H 0.30069 0.61116 0.69715
 H787 H 0.28456 0.55341 0.59705
 H788 H 0.19968 0.62123 0.54680
 H789 H 0.20712 0.74714 0.66888
 H790 H 0.27698 0.66739 0.72332
 H791 H 0.19795 0.66561 0.58951
 H792 H 0.20595 0.70669 0.62301
 C793 C 0.87611 0.74669 0.12802
 C794 C 0.88951 0.71507 0.11074
 C795 C 0.91355 0.71531 0.08458
 C796 C 0.92393 0.74688 0.07464
 C797 C 0.91005 0.77829 0.09138
 C798 C 0.88655 0.77826 0.11773
 C799 C 0.85044 0.74532 0.15575
 C800 C 0.83684 0.77490 0.17549
 C801 C 0.81104 0.77290 0.19935
 C802 C 0.79797 0.74155 0.20390
 C803 C 0.81305 0.71127 0.18610
 C804 C 0.83912 0.71293 0.16211
 C805 C 0.87834 0.68354 0.11924
 C806 C 0.85336 0.68260 0.14406
 H807 H 0.88853 0.65934 0.10599
 H808 H 0.84495 0.65773 0.14912
 H809 H 0.92380 0.69091 0.07164
 H810 H 0.91752 0.80305 0.08423
 H811 H 0.80018 0.79633 0.21342
 H812 H 0.80328 0.68686 0.18988
 H813 H 0.87662 0.80329 0.12941
 H814 H 0.84533 0.79992 0.17260
 C815 C 0.38515 0.24891 0.62022
 C816 C 0.39102 0.21898 0.59919
 C817 C 0.41678 0.21612 0.57410
 C818 C 0.43592 0.24340 0.56885
 C819 C 0.42902 0.27357 0.58897
 C820 C 0.40414 0.27630 0.61436
 C821 C 0.35835 0.25051 0.64737
 C822 C 0.35328 0.27734 0.67153
 C823 C 0.32765 0.27811 0.69599
 C824 C 0.30588 0.25271 0.69673
 C825 C 0.31158 0.22497 0.67366
 C826 C 0.33793 0.22349 0.64924
 C827 C 0.37070 0.19250 0.60297
 C828 C 0.34430 0.19504 0.62705
 H829 H 0.37490 0.16972 0.58671
 H830 H 0.32896 0.17413 0.62860
 H831 H 0.42145 0.19299 0.55827
 H832 H 0.44325 0.29508 0.58533
 H833 H 0.32495 0.29863 0.71464
 H834 H 0.29541 0.20472 0.67468
 H835 H 0.39993 0.30025 0.62882
 H836 H 0.36916 0.29766 0.67236
 C837 C 0.12392 0.27434 0.12074
 C838 C 0.09419 0.25850 0.12691
 C839 C 0.06987 0.25641 0.10144
 C840 C 0.07369 0.27165 0.07040
 C841 C 0.10173 0.28943 0.06490
 C842 C 0.12686 0.29051 0.08968
 C843 C 0.15077 0.27341 0.14773
 C844 C 0.18390 0.28302 0.14247
 C845 C 0.20870 0.28001 0.16802
 C846 C 0.20073 0.26819 0.19947
 C847 C 0.16760 0.25947 0.20534
 C848 C 0.14319 0.26057 0.17938
 C849 C 0.08868 0.24530 0.15851
 C850 C 0.11217 0.24723 0.18443
 H851 H 0.06561 0.23370 0.16339
 H852 H 0.10657 0.23696 0.20852
 H853 H 0.04761 0.24339 0.10584
 H854 H 0.10470 0.30165 0.04108
 H855 H 0.23442 0.28645 0.16317
 H856 H 0.16185 0.24964 0.22959
 H857 H 0.14817 0.30426 0.08416
 H858 H 0.19156 0.29171 0.11854
 C859 C 0.61320 0.75620 0.62306
 C860 C 0.58822 0.73345 0.62399
 C861 C 0.56398 0.73391 0.59795
 C862 C 0.56292 0.75816 0.57181
 C863 C 0.58650 0.78184 0.57168
 C864 C 0.61164 0.78068 0.59677
 C865 C 0.63956 0.75385 0.65063
 C866 C 0.66826 0.77187 0.64992
 C867 C 0.69239 0.76839 0.67605
 C868 C 0.68813 0.74744 0.70361
 C869 C 0.65945 0.72985 0.70495
 C870 C 0.63597 0.73180 0.67813
 C871 C 0.58695 0.71113 0.65131
 C872 C 0.60973 0.71100 0.67818
 H873 H 0.56755 0.69402 0.65223
 H874 H 0.60731 0.69371 0.69899
 H875 H 0.54508 0.71622 0.59856
 H876 H 0.58574 0.80102 0.55185
 H877 H 0.71463 0.78194 0.67473
 H878 H 0.65620 0.71370 0.72640
 H879 H 0.62914 0.79954 0.59548
 H880 H 0.67299 0.78804 0.62911
   
