data_POSCAR
  _audit_creation_date              2014-09-24
  _audit_creation_method            'ToBaCCo'
  _symmetry_space_group_name_H-M    'P1'
  _symmetry_Int_Tables_number       1
  _symmetry_cell_setting            triclinic
  loop_
  _symmetry_equiv_pos_as_xyz
 x,y,z
_cell_length_a 24.4853
_cell_length_b 25.2927
_cell_length_c 23.7611
_cell_angle_alpha 89.883100
_cell_angle_beta 91.292000
_cell_angle_gamma 90.238200
loop_
  _atom_site_label
  _atom_site_type_symbol
  _atom_site_fract_x
  _atom_site_fract_y
  _atom_site_fract_z
O1 O 0.55384 0.10248 -0.00213
 O2 O 0.44822 -0.05924 -0.11194
 O3 O 0.58088 0.03234 -0.07509
 O4 O 0.38721 0.07563 -0.02089
 O5 O 0.54561 -0.03610 -0.11519
 O6 O 0.46197 0.11941 -0.00953
 O7 O 0.40282 0.01309 -0.09952
 O8 O 0.61548 0.05119 0.02406
 C9 C 0.60154 0.09715 0.01445
 C10 C 0.41672 -0.02372 -0.13048
 C11 C 0.57328 0.00558 -0.11829
 C12 C 0.41281 0.11803 -0.02182
 O13 O 0.43933 0.06278 0.08373
 O14 O 0.56279 -0.09094 -0.01731
 O15 O 0.56944 -0.03089 0.06145
 O16 O 0.39101 -0.06582 -0.02848
 O17 O 0.46678 -0.10484 -0.00931
 O18 O 0.53900 0.04293 0.09524
 O19 O 0.38545 -0.00070 0.05067
 O20 O 0.63267 -0.03848 -0.02030
 Co21 Co 0.49837 0.07543 0.03780
 Co22 Co 0.50452 -0.06553 -0.05925
 Co23 Co 0.57208 -0.00027 -0.00805
 Co24 Co 0.40104 0.00539 -0.02377
 O25 O 0.49004 0.00685 -0.01290
 C26 C 0.39944 0.03111 0.08892
 C27 C 0.61352 -0.08584 -0.02527
 C28 C 0.56160 -0.00154 0.10273
 C29 C 0.41622 -0.10434 -0.00838
 O30 O -0.10975 0.46226 -0.00682
 O31 O 0.04947 0.54244 0.11489
 O32 O -0.00323 0.40631 0.08479
 O33 O -0.03989 0.61515 -0.02063
 O34 O 0.07123 0.44907 0.10640
 O35 O -0.09459 0.55322 -0.00574
 O36 O -0.02114 0.57701 0.07512
 O37 O -0.06156 0.39185 0.00014
 C38 C -0.10636 0.41418 0.00136
 C39 C 0.00632 0.56833 0.11853
 C40 C 0.03210 0.41951 0.12018
 C41 C -0.08765 0.60080 -0.01550
 O42 O -0.02982 0.54646 -0.09938
 O43 O 0.12116 0.47246 0.00574
 O44 O 0.02062 0.39694 -0.06378
 O45 O 0.05328 0.63101 0.02818
 O46 O 0.10676 0.56361 0.02052
 O47 O -0.04674 0.44705 -0.09747
 O48 O 0.04548 0.57599 -0.05988
 O49 O 0.08286 0.39866 0.02146
 Co50 Co -0.06337 0.50203 -0.04794
 Co51 Co 0.08006 0.50553 0.05732
 Co52 Co 0.00981 0.40751 0.01065
 Co53 Co 0.01368 0.57307 0.00909
 O54 O 0.00651 0.49354 0.00639
 C55 C 0.01479 0.57173 -0.10257
 C56 C 0.12177 0.42386 0.00229
 C57 C -0.01244 0.40965 -0.10269
 C58 C 0.10208 0.61202 0.03283
 O59 O -0.01289 -0.11808 0.46866
 O60 O 0.09281 0.03133 0.54441
 O61 O 0.05502 -0.01591 0.38920
 O62 O -0.01759 -0.05355 0.64041
 O63 O 0.08279 0.05038 0.44270
 O64 O -0.01675 -0.10437 0.56690
 O65 O 0.06126 -0.04345 0.57556
 O66 O -0.02619 -0.07816 0.38993
 C67 C -0.01441 -0.11907 0.41672
 C68 C 0.10090 -0.01344 0.56687
 C69 C 0.09082 0.01722 0.40381
 C70 C -0.02129 -0.10073 0.61976
 O71 O -0.11142 -0.04773 0.55160
 O72 O -0.01051 0.10462 0.46440
 O73 O -0.09107 0.00253 0.39857
 O74 O 0.02484 0.03898 0.62273
 O75 O -0.00260 0.08923 0.55892
 O76 O -0.10953 -0.06667 0.45050
 O77 O -0.07102 0.01923 0.58826
 O78 O -0.01035 0.06325 0.38628
 Co79 Co -0.05838 -0.07710 0.50827
 Co80 Co 0.03690 0.06279 0.50241
 Co81 Co -0.01772 -0.00708 0.40107
 Co82 Co -0.00619 -0.01339 0.57866
 O83 O -0.01105 -0.00589 0.49382
 C84 C -0.11358 -0.00638 0.58010
 C85 C -0.01437 0.10524 0.41275
 C86 C -0.12390 -0.03183 0.41491
 C87 C 0.01339 0.08460 0.60825
 C88 C -0.23438 0.26909 0.06706
 C89 C -0.29748 0.27150 0.06044
 C90 C -0.29546 0.22493 0.01910
 C91 C -0.23309 0.22186 0.02577
 C92 C -0.22969 0.30719 0.01695
 C93 C -0.22786 0.26052 -0.02430
 C94 C -0.29207 0.31040 0.01023
 C95 C -0.29076 0.26303 -0.03099
 C96 C -0.33138 0.17867 0.01883
 C97 C -0.36134 0.14088 0.01736
 C98 C -0.19010 0.35039 0.01380
 C99 C -0.15382 0.38217 0.00917
 H100 H -0.21084 0.27224 0.10740
 H101 H -0.32656 0.27529 0.09537
 H102 H -0.20924 0.18501 0.03209
 H103 H -0.19886 0.25655 -0.05928
 H104 H -0.31581 0.34731 0.00389
 H105 H -0.31424 0.25987 -0.07137
 C106 C 0.23966 0.75228 -0.01178
 C107 C 0.25613 0.79396 0.03291
 C108 C 0.31625 0.77821 0.02655
 C109 C 0.30021 0.73694 -0.01824
 C110 C 0.23476 0.71094 0.03524
 C111 C 0.29479 0.69497 0.02892
 C112 C 0.25067 0.75217 0.08012
 C113 C 0.31160 0.73698 0.07375
 C114 C 0.35830 0.81839 0.01799
 C115 C 0.38850 0.85439 0.00697
 C116 C 0.18799 0.67496 0.03711
 C117 C 0.14879 0.64613 0.03619
 H118 H 0.20961 0.75830 -0.04688
 H119 H 0.24067 0.83513 0.03452
 H120 H 0.32112 0.73103 -0.05871
 H121 H 0.31004 0.65374 0.02730
 H122 H 0.22964 0.75804 0.12053
 H123 H 0.34178 0.73116 0.10875
 C124 C 0.25452 0.29136 -0.08488
 C125 C 0.31764 0.29793 -0.08086
 C126 C 0.32024 0.25085 -0.03991
 C127 C 0.25798 0.24368 -0.04407
 C128 C 0.24934 0.32832 -0.03407
 C129 C 0.25232 0.28106 0.00663
 C130 C 0.31158 0.33576 -0.02986
 C131 C 0.31492 0.28787 0.01082
 C132 C 0.35675 0.20531 -0.03859
 C133 C 0.38385 0.16602 -0.03307
 C134 C 0.20683 0.36777 -0.02610
 C135 C 0.16910 0.39595 -0.01517
 H136 H 0.22921 0.29337 -0.12418
 H137 H 0.34504 0.30421 -0.11687
 H138 H 0.23626 0.20539 -0.04986
 H139 H 0.22511 0.27441 0.04275
 H140 H 0.33308 0.37414 -0.02400
 H141 H 0.34008 0.28592 0.05022
 C142 C -0.24016 0.73162 0.03196
 C143 C -0.22810 0.78950 0.01468
 C144 C -0.28036 0.78927 -0.02233
 C145 C -0.29310 0.73204 -0.00508
 C146 C -0.20828 0.71254 -0.01904
 C147 C -0.26050 0.71224 -0.05609
 C148 C -0.19564 0.76980 -0.03626
 C149 C -0.24846 0.77019 -0.07331
 C150 C -0.31942 0.83290 -0.02391
 C151 C -0.35055 0.86962 -0.02481
 C152 C -0.16687 0.67100 -0.01734
 C153 C -0.13143 0.63815 -0.01625
 H154 H -0.23627 0.71526 0.07525
 H155 H -0.21520 0.82175 0.04375
 H156 H -0.33366 0.71706 0.00769
 H157 H -0.27333 0.67995 -0.08513
 H158 H -0.15510 0.78485 -0.04906
 H159 H -0.25230 0.78655 -0.11660
 C160 C 0.03920 -0.29158 0.31331
 C161 C 0.00029 -0.34006 0.31633
 C162 C -0.01176 -0.33469 0.25284
 C163 C 0.02718 -0.28696 0.24933
 C164 C -0.00936 -0.25499 0.32385
 C165 C -0.02132 -0.24990 0.26033
 C166 C -0.04841 -0.30258 0.32762
 C167 C -0.06027 -0.29803 0.26338
 C168 C -0.01039 -0.37543 0.20924
 C169 C -0.00535 -0.40425 0.16946
 C170 C -0.00851 -0.20830 0.36018
 C171 C -0.00962 -0.16815 0.38729
 H172 H 0.08013 -0.28836 0.33410
 H173 H 0.00895 -0.37769 0.33887
 H174 H 0.05829 -0.28085 0.21663
 H175 H -0.02998 -0.21238 0.23755
 H176 H -0.07945 -0.30842 0.36042
 H177 H -0.10119 -0.30117 0.24255
 C178 C 0.03824 0.26511 0.70380
 C179 C -0.01449 0.29845 0.70879
 C180 C -0.00565 0.29959 0.77294
 C181 C 0.04696 0.26700 0.76855
 C182 C 0.00418 0.21440 0.71064
 C183 C 0.01298 0.21568 0.77476
 C184 C -0.04847 0.24693 0.71495
 C185 C -0.03966 0.24882 0.77965
 C186 C -0.01024 0.34453 0.81133
 C187 C -0.01241 0.37741 0.84781
 C188 C 0.00911 0.16676 0.67615
 C189 C 0.01198 0.12833 0.64649
 H190 H 0.07051 0.27117 0.67232
 H191 H -0.02585 0.33292 0.68209
 H192 H 0.08626 0.27586 0.79087
 H193 H 0.02434 0.18127 0.80157
 H194 H -0.08774 0.23799 0.69265
 H195 H -0.07193 0.24265 0.81111
 C196 C -0.04696 0.27732 0.29533
 C197 C -0.01295 0.32720 0.31147
 C198 C 0.01709 0.32294 0.25559
 C199 C -0.01685 0.27382 0.23897
 C200 C -0.00253 0.24249 0.32266
 C201 C 0.02742 0.23852 0.26671
 C202 C 0.03144 0.29145 0.33958
 C203 C 0.06147 0.28802 0.28291
 C204 C 0.02656 0.36388 0.21326
 C205 C 0.03139 0.39260 0.17320
 C206 C -0.01142 0.19527 0.35703
 C207 C -0.01529 0.15466 0.38321
 H208 H -0.09161 0.27236 0.30066
 H209 H -0.02919 0.36424 0.32950
 H210 H -0.03659 0.26687 0.19709
 H211 H 0.04373 0.20160 0.24843
 H212 H 0.05109 0.29813 0.38154
 H213 H 0.10613 0.29288 0.27753
 C214 C 0.00970 -0.23291 0.78165
 C215 C -0.03002 -0.28042 0.78461
 C216 C 0.01871 -0.31832 0.77987
 C217 C 0.05853 -0.27130 0.77740
 C218 C 0.00311 -0.23339 0.71724
 C219 C 0.05190 -0.27112 0.71228
 C220 C -0.03673 -0.28039 0.71976
 C221 C 0.01206 -0.31895 0.71544
 C222 C 0.02347 -0.36356 0.81842
 C223 C 0.02213 -0.39713 0.85450
 C224 C -0.00645 -0.18565 0.68323
 C225 C -0.01398 -0.14655 0.65497
 H226 H 0.00845 -0.19718 0.80865
 H227 H -0.06378 -0.28466 0.81474
 H228 H 0.09790 -0.26810 0.80128
 H229 H 0.08556 -0.26666 0.68209
 H230 H -0.07613 -0.28359 0.69594
 H231 H 0.01329 -0.35474 0.68856
 C232 C 0.23813 -0.01632 0.71677
 C233 C 0.26937 -0.06590 0.73712
 C234 C 0.32332 -0.03512 0.73206
 C235 C 0.29237 0.01444 0.71207
 C236 C 0.24366 -0.03496 0.65561
 C237 C 0.29754 -0.00411 0.65037
 C238 C 0.27444 -0.08469 0.67545
 C239 C 0.32933 -0.05388 0.67101
 C240 C 0.36342 -0.03289 0.77879
 C241 C 0.39146 -0.02913 0.82100
 C242 C 0.19572 -0.03163 0.61767
 C243 C 0.15348 -0.02534 0.59150
 H244 H 0.20025 -0.00086 0.73547
 H245 H 0.25805 -0.09127 0.77325
 H246 H 0.30000 0.05527 0.72750
 H247 H 0.30867 0.02128 0.61420
 H248 H 0.26659 -0.12544 0.65995
 H249 H 0.36740 -0.06929 0.65271
 C250 C -0.31413 0.00589 0.32338
 C251 C -0.30604 0.01797 0.26024
 C252 C -0.34549 -0.02743 0.24473
 C253 C -0.35441 -0.03959 0.30729
 C254 C -0.26650 -0.03342 0.32166
 C255 C -0.30580 -0.07900 0.30637
 C256 C -0.25802 -0.02128 0.25903
 C257 C -0.29779 -0.06666 0.24315
 C258 C -0.38520 -0.02154 0.19797
 C259 C -0.41271 -0.01395 0.15601
 C260 C -0.21894 -0.03480 0.36035
 C261 C -0.17686 -0.03423 0.38778
 H262 H -0.32039 0.03573 0.35678
 H263 H -0.30638 0.05796 0.24087
 H264 H -0.39455 -0.04711 0.32662
 H265 H -0.30522 -0.11893 0.32583
 H266 H -0.21804 -0.01369 0.23935
 H267 H -0.29138 -0.09649 0.20975
 C268 C 0.21232 0.02786 0.23889
 C269 C 0.25622 0.07168 0.23433
 C270 C 0.29955 0.02893 0.22527
 C271 C 0.25608 -0.01485 0.22933
 C272 C 0.22420 0.02448 0.30260
 C273 C 0.26749 -0.01833 0.29361
 C274 C 0.26760 0.06835 0.29867
 C275 C 0.31171 0.02556 0.28893
 C276 C 0.33884 0.03078 0.17951
 C277 C 0.36820 0.03147 0.13940
 C278 C 0.17955 0.02182 0.34275
 C279 C 0.14032 0.01963 0.37254
 H280 H 0.17105 0.02876 0.21858
 H281 H 0.25191 0.10874 0.20954
 H282 H 0.25164 -0.04908 0.20038
 H283 H 0.27169 -0.05539 0.31841
 H284 H 0.27189 0.10255 0.32767
 H285 H 0.35306 0.02466 0.30902
 C286 C -0.30949 0.03286 0.65822
 C287 C -0.32618 -0.01330 0.69750
 C288 C -0.32772 0.02553 0.74711
 C289 C -0.31178 0.07184 0.70872
 C290 C -0.24914 0.02194 0.67314
 C291 C -0.25064 0.06076 0.72276
 C292 C -0.26534 -0.02414 0.71171
 C293 C -0.26728 0.01464 0.76164
 C294 C -0.36825 0.02354 0.79173
 C295 C -0.39757 0.01768 0.83145
 C296 C -0.20292 0.01614 0.63530
 C297 C -0.16294 0.00776 0.60791
 H298 H -0.32636 0.04035 0.61521
 H299 H -0.35763 -0.04379 0.68745
 H300 H -0.33139 0.11133 0.70791
 H301 H -0.21913 0.09119 0.73284
 H302 H -0.24589 -0.06372 0.71278
 H303 H -0.25011 0.00707 0.80454
   
