data_POSCAR
  _audit_creation_date              2014-09-24
  _audit_creation_method            'ToBaCCo'
  _symmetry_space_group_name_H-M    'P1'
  _symmetry_Int_Tables_number       1
  _symmetry_cell_setting            triclinic
  loop_
  _symmetry_equiv_pos_as_xyz
 x,y,z
_cell_length_a 37.1764
_cell_length_b 36.9039
_cell_length_c 11.5319
_cell_angle_alpha 90.267500
_cell_angle_beta 89.916200
_cell_angle_gamma 120.960100
loop_
  _atom_site_label
  _atom_site_type_symbol
  _atom_site_fract_x
  _atom_site_fract_y
  _atom_site_fract_z
C1 C 0.18019 0.50841 0.61756
 C2 C 0.16402 0.51401 0.51410
 C3 C 0.18026 0.51308 0.40415
 C4 C 0.21672 0.50967 0.39907
 C5 C 0.23471 0.50573 0.50365
 C6 C 0.21549 0.50361 0.61231
 C7 C 0.23396 0.50001 0.71421
 C8 C 0.27046 0.49869 0.71074
 C9 C 0.29049 0.50101 0.60504
 C10 C 0.27259 0.50481 0.50010
 C11 C 0.23704 0.51222 0.29324
 C12 C 0.27422 0.51157 0.29000
 C13 C 0.29287 0.50851 0.39213
 C14 C 0.33109 0.50875 0.38962
 C15 C 0.34903 0.50708 0.49460
 C16 C 0.32934 0.50252 0.60240
 H17 H 0.22141 0.49992 0.79894
 H18 H 0.28343 0.49760 0.79346
 H19 H 0.22542 0.51623 0.21143
 H20 H 0.28868 0.51424 0.20648
 H21 H 0.13475 0.51356 0.52010
 H22 H 0.37801 0.50684 0.49038
 C23 C 0.49014 -0.17778 0.41452
 C24 C 0.49627 -0.15684 0.52102
 C25 C 0.49666 -0.17510 0.62619
 C26 C 0.48771 -0.21713 0.62765
 C27 C 0.48355 -0.23851 0.52087
 C28 C 0.48557 -0.21843 0.41399
 C29 C 0.48459 -0.23880 0.31009
 C30 C 0.48298 -0.27748 0.31030
 C31 C 0.48119 -0.29824 0.41481
 C32 C 0.47925 -0.27920 0.52132
 C33 C 0.48390 -0.23788 0.73236
 C34 C 0.47622 -0.27887 0.73302
 C35 C 0.47494 -0.29965 0.62917
 C36 C 0.47358 -0.33845 0.63134
 C37 C 0.47730 -0.35582 0.52667
 C38 C 0.48157 -0.33697 0.41701
 H39 H 0.48658 -0.22419 0.22726
 H40 H 0.48280 -0.29063 0.22649
 H41 H 0.48661 -0.22276 0.81506
 H42 H 0.47314 -0.29345 0.81651
 H43 H 0.50107 -0.12525 0.52293
 H44 H 0.47825 -0.38428 0.53563
 C45 C 1.18553 0.66933 0.62803
 C46 C 1.16408 0.65133 0.52322
 C47 C 1.18152 0.66827 0.41517
 C48 C 1.22168 0.70524 0.41088
 C49 C 1.24340 0.72475 0.51581
 C50 C 1.22622 0.70553 0.62418
 C51 C 1.24907 0.72452 0.72602
 C52 C 1.28677 0.76284 0.72315
 C53 C 1.30295 0.78443 0.61840
 C54 C 1.28181 0.76421 0.51265
 C55 C 1.23995 0.72410 0.30461
 C56 C 1.27766 0.76249 0.30097
 C57 C 1.29881 0.78336 0.40375
 C58 C 1.33536 0.82381 0.40170
 C59 C 1.35654 0.84210 0.50579
 C60 C 1.34139 0.82379 0.61391
 H61 H 1.23807 0.70991 0.80963
 H62 H 1.30306 0.77472 0.80455
 H63 H 1.22470 0.70989 0.22304
 H64 H 1.28961 0.77579 0.21630
 H65 H 1.13354 0.62250 0.52555
 H66 H 1.38609 0.87206 0.50209
 C67 C 0.67624 0.50178 0.60062
 C68 C 0.66353 0.51247 0.49766
 C69 C 0.68553 0.52009 0.39439
 C70 C 0.72212 0.51737 0.39115
 C71 C 0.73611 0.50735 0.49409
 C72 C 0.71298 0.49924 0.59893
 C73 C 0.72929 0.49262 0.70112
 C74 C 0.76721 0.49373 0.70100
 C75 C 0.79037 0.50092 0.59824
 C76 C 0.77421 0.50708 0.49320
 C77 C 0.74580 0.52582 0.28892
 C78 C 0.78228 0.52401 0.28718
 C79 C 0.79674 0.51433 0.38792
 C80 C 0.83367 0.51253 0.38683
 C81 C 0.84860 0.50530 0.48972
 C82 C 0.82848 0.50074 0.59690
 H83 H 0.71355 0.48770 0.78349
 H84 H 0.77771 0.48834 0.78292
 H85 H 0.73647 0.53414 0.20926
 H86 H 0.79950 0.53096 0.20650
 H87 H 0.63515 0.51403 0.49671
 H88 H 0.87855 0.50692 0.48624
 C89 C 0.47187 0.31302 0.39224
 C90 C 0.46860 0.32845 0.49923
 C91 C 0.47353 0.31189 0.60277
 C92 C 0.48165 0.27841 0.60046
 C93 C 0.48284 0.26093 0.49210
 C94 C 0.47703 0.27780 0.38782
 C95 C 0.47494 0.25821 0.28188
 C96 C 0.47889 0.22303 0.27756
 C97 C 0.48601 0.20663 0.37885
 C98 C 0.48883 0.22596 0.48746
 C99 C 0.48823 0.26175 0.70230
 C100 C 0.49535 0.22801 0.69775
 C101 C 0.49561 0.20924 0.59108
 C102 C 0.49937 0.17260 0.58404
 C103 C 0.49715 0.15498 0.47327
 C104 C 0.48947 0.17068 0.37339
 H105 H 0.46894 0.26906 0.20135
 H106 H 0.47629 0.20885 0.19334
 H107 H 0.48743 0.27443 0.78653
 H108 H 0.49940 0.21623 0.77927
 H109 H 0.46348 0.35488 0.50226
 H110 H 0.50159 0.12832 0.46282
 C111 C 0.66784 0.17701 0.58524
 C112 C 0.65316 0.15796 0.47672
 C113 C 0.67760 0.17314 0.37712
 C114 C 0.71733 0.21043 0.38272
 C115 C 0.73193 0.23207 0.49039
 C116 C 0.70685 0.21562 0.59199
 C117 C 0.72229 0.23724 0.69758
 C118 C 0.76199 0.27356 0.70457
 C119 C 0.78819 0.28941 0.60650
 C120 C 0.77281 0.26858 0.49781
 C121 C 0.74318 0.22588 0.28449
 C122 C 0.78329 0.26151 0.29174
 C123 C 0.79894 0.28286 0.39757
 C124 C 0.84060 0.31718 0.40731
 C125 C 0.85543 0.33630 0.51456
 C126 C 0.83048 0.32314 0.61530
 H127 H 0.70406 0.22594 0.77639
 H128 H 0.77241 0.28809 0.78903
 H129 H 0.73271 0.21005 0.20143
 H130 H 0.80234 0.27171 0.21413
 H131 H 0.62272 0.12909 0.47058
 H132 H 0.88710 0.36351 0.51791
 O133 O 1.04792 0.59285 0.22710
 O134 O 1.10105 0.59259 0.12623
 C135 C 1.08729 0.60603 0.20973
 O136 O 0.94385 0.40730 0.20754
 O137 O 0.89718 0.41179 0.08710
 C138 C 0.90583 0.39466 0.17147
 O139 O 1.06135 0.48356 0.24107
 O140 O 1.10770 0.53882 0.12598
 C141 C 1.09867 0.51458 0.21543
 O142 O 0.93218 0.53042 0.18489
 O143 O 0.89177 0.46978 0.07927
 C144 C 0.89628 0.49841 0.15369
 Zr145 Zr 0.99338 0.54610 0.13971
 O146 O 0.98450 0.54889 0.31996
 O147 O 0.99129 0.60155 0.11223
 Zr148 Zr 1.00338 0.45938 0.15242
 O149 O 0.99700 0.44914 0.33324
 O150 O 1.01498 0.40902 0.14112
 O151 O 1.03406 0.52466 0.17532
 O152 O 0.96217 0.48135 0.16225
 O153 O 0.94151 0.52734 -0.22619
 O154 O 0.89672 0.46721 -0.12526
 C155 C 0.90501 0.49432 -0.20714
 O156 O 1.07151 0.48210 -0.20217
 O157 O 1.11190 0.54044 -0.08821
 C158 C 1.10695 0.51512 -0.17330
 O159 O 0.95678 0.40657 -0.19952
 O160 O 0.90310 0.41023 -0.11238
 C161 C 0.91744 0.39295 -0.18262
 O162 O 1.05591 0.59608 -0.20777
 O163 O 1.10505 0.59434 -0.09115
 C164 C 1.09406 0.60935 -0.17719
 Zr165 Zr 0.99956 0.54567 -0.14707
 O166 O 1.00093 0.54716 -0.33063
 O167 O 0.99573 0.60097 -0.14087
 Zr168 Zr 1.01101 0.45982 -0.13407
 O169 O 1.01164 0.45097 -0.31519
 O170 O 1.02345 0.41048 -0.10856
 Zr171 Zr 1.06460 0.54107 0.01267
 Zr172 Zr 0.93926 0.46484 -0.00873
 O173 O 0.97047 0.48100 -0.16963
 O174 O 1.04207 0.52501 -0.15852
 O175 O 0.95755 0.52919 -0.01119
 O176 O 1.04552 0.47654 0.01663
 O177 O 1.03323 0.57475 0.00222
 O178 O 0.96987 0.42998 0.00312
 H179 H 0.94267 0.47122 0.22904
 H180 H 1.06804 0.46976 0.02219
 H181 H 0.95492 0.46992 -0.24345
 H182 H 1.05072 0.60601 0.00475
 H183 H 0.98780 0.38296 0.12492
 H184 H 0.99681 0.38496 -0.08569
 H185 H 1.01653 0.47724 -0.35212
 H186 H 1.02292 0.54134 -0.35606
 H187 H 0.96731 0.59273 -0.11324
 H188 H 0.98865 0.61131 0.19018
 H189 H 0.99627 0.53332 0.35811
 H190 H 0.99960 0.47483 0.36841
 O191 O 0.40879 0.45624 0.20547
 O192 O 0.41681 0.51501 0.11317
 C193 C 0.39866 0.48459 0.18854
 O194 O 0.59888 0.53527 0.19450
 O195 O 0.58882 0.48093 0.07387
 C196 C 0.61032 0.50980 0.15119
 O197 O 0.52752 0.58016 0.24141
 O198 O 0.47508 0.57596 0.12616
 C199 C 0.49853 0.58888 0.21814
 O200 O 0.46554 0.39852 0.17300
 O201 O 0.52518 0.41548 0.06936
 C202 C 0.49451 0.39094 0.13925
 Zr203 Zr 0.45621 0.44848 0.13020
 O204 O 0.45468 0.43854 0.31126
 O205 O 0.39905 0.39129 0.10120
 Zr206 Zr 0.54710 0.54290 0.15075
 O207 O 0.55284 0.53799 0.33170
 O208 O 0.59971 0.60512 0.15697
 O209 O 0.48206 0.51207 0.16960
 O210 O 0.52062 0.47804 0.15550
 O211 O 0.47056 0.41014 -0.22466
 O212 O 0.52937 0.42292 -0.12467
 C213 C 0.50053 0.40283 -0.20114
 O214 O 0.53632 0.59709 -0.19529
 O215 O 0.47808 0.58293 -0.09011
 C216 C 0.50635 0.60353 -0.16971
 O217 O 0.59781 0.54663 -0.20650
 O218 O 0.58844 0.48609 -0.12308
 C219 C 0.60756 0.51812 -0.19318
 O220 O 0.41901 0.47548 -0.23406
 O221 O 0.42108 0.52341 -0.10207
 C222 C 0.40870 0.50232 -0.19868
 Zr223 Zr 0.45802 0.45646 -0.15662
 O224 O 0.45287 0.45014 -0.33914
 O225 O 0.39800 0.40078 -0.14996
 Zr226 Zr 0.54892 0.55163 -0.13662
 O227 O 0.55541 0.55987 -0.31853
 O228 O 0.60305 0.61183 -0.10814
 Zr229 Zr 0.46959 0.52961 0.00695
 Zr230 Zr 0.53563 0.47091 -0.01564
 O231 O 0.52228 0.48806 -0.17655
 O232 O 0.48493 0.52187 -0.16387
 O233 O 0.47030 0.42778 -0.02118
 O234 O 0.53482 0.57151 0.01527
 O235 O 0.43104 0.46353 -0.00847
 O236 O 0.57482 0.53696 0.00075
 H237 H 0.53039 0.46734 0.21938
 H238 H 0.54470 0.60197 0.02382
 H239 H 0.53167 0.48140 -0.24982
 H240 H 0.40035 0.45187 -0.01085
 H241 H 0.62302 0.60473 0.11669
 H242 H 0.62629 0.60755 -0.08575
 H243 H 0.52679 0.54577 -0.35174
 H244 H 0.47662 0.47626 -0.37168
 H245 H 0.40204 0.37751 -0.12472
 H246 H 0.38909 0.37832 0.17846
 H247 H 0.46035 0.46493 0.35007
 H248 H 0.52421 0.52398 0.36440
 O249 O 0.47359 0.07316 0.17768
 O250 O 0.52692 0.11174 0.04767
 C251 C 0.50115 0.10859 0.12911
 O252 O 0.54010 -0.04600 0.22532
 O253 O 0.47859 -0.09915 0.14676
 C254 C 0.51078 -0.08536 0.21580
 O255 O 0.59613 0.07070 0.18396
 O256 O 0.58428 0.11036 0.05413
 C257 C 0.60469 0.10659 0.13974
 O258 O 0.40960 -0.04323 0.22850
 O259 O 0.41580 -0.09690 0.14826
 C260 C 0.39875 -0.08250 0.21840
 Zr261 Zr 0.45755 0.01022 0.14378
 O262 O 0.46326 0.02444 0.32355
 O263 O 0.40259 0.01399 0.13943
 Zr264 Zr 0.54739 0.00855 0.14453
 O265 O 0.55036 0.01617 0.32715
 O266 O 0.60632 0.01269 0.14484
 O267 O 0.52249 0.04779 0.14828
 O268 O 0.48422 -0.02574 0.18298
 O269 O 0.39580 -0.07054 -0.17175
 O270 O 0.40916 -0.11082 -0.04797
 C271 C 0.38751 -0.10649 -0.12914
 O272 O 0.58371 0.04278 -0.23391
 O273 O 0.57880 0.09673 -0.15095
 C274 C 0.59488 0.08224 -0.22441
 O275 O 0.52296 -0.07351 -0.17246
 O276 O 0.46858 -0.11263 -0.04705
 C277 C 0.49405 -0.10925 -0.12892
 O278 O 0.45939 0.04340 -0.23919
 O279 O 0.51857 0.09764 -0.15355
 C280 C 0.48848 0.08275 -0.22988
 Zr281 Zr 0.44751 -0.00917 -0.14096
 O282 O 0.43609 -0.02335 -0.31957
 O283 O 0.39396 -0.00358 -0.12232
 Zr284 Zr 0.53810 -0.01054 -0.14163
 O285 O 0.53281 -0.02619 -0.32033
 O286 O 0.59637 -0.00770 -0.13211
 Zr287 Zr 0.53022 0.06208 -0.03025
 Zr288 Zr 0.46513 -0.06281 0.03085
 O289 O 0.47340 -0.04689 -0.14600
 O290 O 0.51124 0.02538 -0.18312
 O291 O 0.42597 -0.03710 0.01956
 O292 O 0.56832 0.03552 -0.01619
 O293 O 0.46524 0.03734 -0.01721
 O294 O 0.53019 -0.03862 0.01948
 H295 H 0.47697 -0.04059 0.25835
 H296 H 0.59912 0.05419 -0.02366
 H297 H 0.46147 -0.06916 -0.20656
 H298 H 0.45442 0.05670 -0.02716
 H299 H 0.60285 -0.01220 0.10208
 H300 H 0.59172 -0.03313 -0.09033
 H301 H 0.52908 -0.00516 -0.36316
 H302 H 0.46077 -0.02366 -0.35005
 H303 H 0.37852 -0.01292 -0.19672
 H304 H 0.38095 -0.01082 0.09569
 H305 H 0.46942 0.00478 0.36448
 H306 H 0.54462 0.03895 0.34548
 C307 C 1.15744 0.51146 0.30360
 C308 C 1.13119 0.52627 0.30264
 H309 H 1.15936 0.49604 0.22578
 H310 H 1.13085 0.54572 0.37254
 C311 C 0.48911 0.64492 0.31555
 C312 C 0.48668 0.60705 0.31415
 H313 H 0.49915 0.66250 0.23568
 H314 H 0.47541 0.58594 0.38676
 C315 C 0.35222 -0.15290 0.29973
 C316 C 0.36800 -0.11113 0.30115
 H317 H 0.35418 -0.16816 0.22148
 H318 H 0.36197 -0.09646 0.37447
 C319 C 0.86103 0.52290 0.28434
 C320 C 0.85881 0.49249 0.21535
 H321 H 0.88881 0.55424 0.28304
 H322 H 0.83135 0.46100 0.21855
 C323 C 0.46847 0.33430 0.28849
 C324 C 0.49433 0.35332 0.19568
 H325 H 0.49944 0.34418 0.25435
 H326 H 0.47885 0.34772 0.10703
 C327 C 0.66264 0.14412 0.27685
 C328 C 0.63741 0.14558 0.19701
 H329 H 0.66315 0.11523 0.28769
 H330 H 0.63624 0.17413 0.18706
 C331 C 0.50347 0.15184 -0.31752
 C332 C 0.48613 0.10963 -0.31902
 H333 H 0.51839 0.16902 -0.23869
 H334 H 0.46537 0.09165 -0.38989
 C335 C 0.65275 0.49608 -0.29744
 C336 C 0.64010 0.52329 -0.27448
 H337 H 0.64601 0.47092 -0.23726
 H338 H 0.65212 0.55119 -0.32862
 C339 C 0.84910 0.34460 -0.27977
 C340 C 0.88946 0.35782 -0.25856
 H341 H 0.83144 0.35152 -0.21811
 H342 H 0.90518 0.34616 -0.31320
 C343 C 0.51184 -0.14609 -0.27289
 C344 C 0.48686 -0.14836 -0.18582
 H345 H 0.54083 -0.11641 -0.28791
 H346 H 0.45739 -0.17735 -0.16982
 C347 C 0.34763 0.49711 -0.29661
 C348 C 0.38905 0.51515 -0.28502
 H349 H 0.32805 0.47755 -0.22631
 H350 H 0.41031 0.53790 -0.34769
 C351 C 1.16451 0.65149 -0.26694
 C352 C 1.12461 0.64106 -0.25602
 H353 H 1.18029 0.64647 -0.19553
 H354 H 1.11121 0.65138 -0.32254
 C355 C 0.84883 0.50020 -0.30009
 C356 C 0.87359 0.48385 -0.29691
 H357 H 0.84564 0.51454 -0.22165
 H358 H 0.87477 0.46574 -0.36943
 C359 C 0.47267 0.33340 -0.29099
 C360 C 0.50454 0.37240 -0.27198
 H361 H 0.44346 0.32121 -0.24395
 H362 H 0.53367 0.38393 -0.31922
 C363 C 0.64268 0.15309 -0.31167
 C364 C 0.62731 0.11125 -0.30596
 H365 H 0.63530 0.16898 -0.24489
 H366 H 0.63735 0.09663 -0.37003
 C367 C 1.15813 0.50388 -0.27826
 C368 C 1.14162 0.52789 -0.25464
 H369 H 1.15370 0.47994 -0.21634
 H370 H 1.14937 0.55499 -0.30833
 C371 C 0.47419 0.64182 -0.26418
 C372 C 0.50535 0.63428 -0.24806
 H373 H 0.45025 0.63336 -0.19880
 H374 H 0.53095 0.64795 -0.31032
 C375 C 0.36767 -0.15343 -0.29155
 C376 C 0.35546 -0.14432 -0.19147
 H377 H 0.40102 -0.13405 -0.31112
 H378 H 0.32267 -0.15651 -0.17282
 C379 C 0.48853 -0.15574 0.30763
 C380 C 0.51510 -0.11400 0.29612
 H381 H 0.46389 -0.17299 0.24452
 H382 H 0.54086 -0.09844 0.35727
 C383 C 0.35367 0.50973 0.28086
 C384 C 0.36557 0.48122 0.26707
 H385 H 0.36380 0.53561 0.22062
 H386 H 0.35349 0.45528 0.32819
 C387 C 1.15685 0.64603 0.30919
 C388 C 1.11668 0.63560 0.29807
 H389 H 1.17132 0.63634 0.24422
 H390 H 1.10315 0.64572 0.36492
 C391 C 0.48001 0.14568 0.26673
 C392 C 0.50399 0.14863 0.17425
 H393 H 0.51082 0.16649 0.22881
 H394 H 0.48662 0.13817 0.08781
 C395 C 0.66993 0.53297 0.29454
 C396 C 0.64991 0.51157 0.19608
 H397 H 0.66155 0.50473 0.24439
 H398 H 0.65439 0.53185 0.11629
 C399 C 0.87102 0.33530 0.31033
 C400 C 0.86924 0.36210 0.23678
 H401 H 0.89976 0.33467 0.31696
 H402 H 0.84101 0.36388 0.23437
   
