data_POSCAR
  _audit_creation_date              2014-09-24
  _audit_creation_method            'ToBaCCo'
  _symmetry_space_group_name_H-M    'P1'
  _symmetry_Int_Tables_number       1
  _symmetry_cell_setting            triclinic
  loop_
  _symmetry_equiv_pos_as_xyz
 x,y,z
_cell_length_a 54.0720
_cell_length_b 54.0255
_cell_length_c 54.0493
_cell_angle_alpha 89.974200
_cell_angle_beta 89.988600
_cell_angle_gamma 89.959700
loop_
  _atom_site_label
  _atom_site_type_symbol
  _atom_site_fract_x
  _atom_site_fract_y
  _atom_site_fract_z
C1 C 0.26776 0.25016 0.23205
 N2 N 0.24992 0.26788 0.23218
 C3 C 0.23203 0.26799 0.24984
 N4 N 0.23214 0.25009 0.26752
 C5 C 0.24984 0.23223 0.26767
 N6 N 0.26758 0.23241 0.24986
 C7 C 0.73169 -0.25037 0.23154
 N8 N 0.74966 -0.26801 0.23169
 C9 C 0.76759 -0.26815 0.24933
 N10 N 0.76736 -0.25027 0.26703
 C11 C 0.74959 -0.23249 0.26723
 N12 N 0.73185 -0.23268 0.24943
 C13 C 0.73279 0.25054 0.76746
 N14 N 0.75061 0.26825 0.76731
 C15 C 0.76852 0.26844 0.74965
 N16 N 0.76838 0.25053 0.73198
 C17 C 0.75071 0.23266 0.73183
 N18 N 0.73298 0.23281 0.74964
 C19 C 0.26849 -0.25036 0.76884
 N20 N 0.26834 -0.23270 0.75090
 C21 C 0.25061 -0.23250 0.73309
 N22 N 0.23283 -0.25024 0.73333
 C23 C 0.23263 -0.26805 0.75108
 N24 N 0.25051 -0.26796 0.76874
 C25 C 0.73165 -0.25027 0.76870
 N26 N 0.74959 -0.26793 0.76856
 C27 C 0.76750 -0.26812 0.75088
 N28 N 0.76727 -0.25026 0.73315
 C29 C 0.74953 -0.23244 0.73295
 N30 N 0.73181 -0.23259 0.75077
 C31 C 0.26782 0.25008 0.76761
 N32 N 0.26768 0.23236 0.74977
 C33 C 0.24994 0.23219 0.73196
 N34 N 0.23220 0.25002 0.73214
 C35 C 0.23206 0.26788 0.74984
 N36 N 0.24994 0.26776 0.76750
 C37 C 0.26796 -0.25083 0.23138
 N38 N 0.24999 -0.26844 0.23151
 C39 C 0.23206 -0.26858 0.24917
 N40 N 0.23230 -0.25073 0.26690
 C41 C 0.25008 -0.23297 0.26711
 N42 N 0.26781 -0.23318 0.24931
 C43 C 0.73298 0.25075 0.23215
 N44 N 0.75079 0.26848 0.23231
 C45 C 0.76869 0.26867 0.25000
 N46 N 0.76853 0.25073 0.26767
 C47 C 0.75087 0.23285 0.26780
 N48 N 0.73316 0.23301 0.24997
 O49 O 0.22969 0.02335 0.47575
 O50 O 0.22989 -0.02479 0.52399
 O51 O 0.22975 0.02340 0.52391
 O52 O 0.22982 -0.02484 0.47581
 O53 O 0.27061 -0.02476 0.47574
 O54 O 0.27054 0.02349 0.52385
 O55 O 0.27068 -0.02470 0.52392
 O56 O 0.27048 0.02343 0.47569
 Cu57 Cu 0.22570 -0.00073 0.49987
 Cu58 Cu 0.27466 -0.00063 0.49979
 C59 C 0.25005 0.03165 0.46746
 C60 C 0.25032 -0.03299 0.53223
 C61 C 0.25013 0.03172 0.53213
 C62 C 0.25022 -0.03307 0.46752
 O63 O 0.77074 0.02370 0.52396
 O64 O 0.77047 -0.02449 0.47582
 O65 O 0.77075 0.02371 0.47580
 O66 O 0.77047 -0.02449 0.52400
 O67 O 0.72968 -0.02424 0.52400
 O68 O 0.72996 0.02396 0.47580
 O69 O 0.72969 -0.02423 0.47582
 O70 O 0.72995 0.02395 0.52396
 Cu71 Cu 0.77469 -0.00042 0.49989
 Cu72 Cu 0.72573 -0.00012 0.49989
 C73 C 0.75039 0.03209 0.53220
 C74 C 0.75004 -0.03261 0.46756
 C75 C 0.75040 0.03210 0.46754
 C76 C 0.75003 -0.03262 0.53227
 O77 O 0.47639 0.23006 0.02398
 O78 O 0.52452 0.23013 -0.02419
 O79 O 0.52454 0.23015 0.02397
 O80 O 0.47637 0.23004 -0.02418
 O81 O 0.47627 0.27086 -0.02422
 O82 O 0.52444 0.27097 0.02394
 O83 O 0.52442 0.27095 -0.02423
 O84 O 0.47628 0.27089 0.02395
 Cu85 Cu 0.50046 0.22601 -0.00010
 Cu86 Cu 0.50034 0.27501 -0.00015
 C87 C 0.46808 0.25046 0.03222
 C88 C 0.53272 0.25055 -0.03247
 C89 C 0.53275 0.25058 0.03221
 C90 C 0.46807 0.25043 -0.03246
 O91 O 0.52403 0.76967 0.02437
 O92 O 0.47593 0.76968 -0.02382
 O93 O 0.47588 0.76960 0.02435
 O94 O 0.52408 0.76973 -0.02380
 O95 O 0.52416 0.72891 -0.02384
 O96 O 0.47596 0.72878 0.02431
 O97 O 0.47601 0.72885 -0.02386
 O98 O 0.52412 0.72885 0.02434
 Cu99 Cu 0.49997 0.77376 0.00028
 Cu100 Cu 0.50007 0.72476 0.00024
 C101 C 0.53232 0.74926 0.03262
 C102 C 0.46772 0.74927 -0.03210
 C103 C 0.46765 0.74917 0.03258
 C104 C 0.53238 0.74934 -0.03208
 O105 O 0.02377 0.47655 0.22905
 O106 O -0.02439 0.52475 0.22895
 O107 O 0.02377 0.52474 0.22890
 O108 O -0.02438 0.47656 0.22910
 O109 O -0.02434 0.47667 0.26991
 O110 O 0.02381 0.52484 0.26971
 O111 O -0.02436 0.52486 0.26975
 O112 O 0.02380 0.47665 0.26985
 Cu113 Cu -0.00031 0.50064 0.22491
 Cu114 Cu -0.00027 0.50077 0.27389
 C115 C 0.03204 0.46833 0.24947
 C116 C -0.03263 0.53307 0.24933
 C117 C 0.03205 0.53304 0.24927
 C118 C -0.03260 0.46835 0.24954
 O119 O 0.02349 0.52440 0.77120
 O120 O -0.02464 0.47623 0.77088
 O121 O 0.02351 0.47621 0.77094
 O122 O -0.02467 0.52442 0.77114
 O123 O -0.02462 0.52466 0.73034
 O124 O 0.02356 0.47645 0.73014
 O125 O -0.02458 0.47646 0.73008
 O126 O 0.02354 0.52463 0.73040
 Cu127 Cu -0.00059 0.50029 0.77513
 Cu128 Cu -0.00052 0.50058 0.72615
 C129 C 0.03177 0.53276 0.75085
 C130 C -0.03285 0.46808 0.75043
 C131 C 0.03179 0.46806 0.75051
 C132 C -0.03291 0.53280 0.75077
 C133 C 0.30579 0.26853 0.17593
 C134 C 0.32412 0.25024 0.17592
 C135 C 0.32405 0.23192 0.19422
 C136 C 0.30574 0.23187 0.21248
 C137 C 0.28720 0.25019 0.21268
 C138 C 0.28746 0.26853 0.19417
 C139 C 0.34298 0.25026 0.15713
 C140 C 0.35877 0.25027 0.14139
 C141 C 0.37726 0.25030 0.12296
 C142 C 0.39304 0.25034 0.10721
 C143 C 0.41188 0.25037 0.08840
 C144 C 0.42112 0.22798 0.07925
 C145 C 0.43942 0.22798 0.06097
 C146 C 0.44871 0.25043 0.05159
 C147 C 0.43929 0.27286 0.06093
 C148 C 0.42100 0.27280 0.07921
 H149 H 0.30567 0.28280 0.16184
 H150 H 0.33816 0.21767 0.19438
 H151 H 0.30614 0.21747 0.22642
 H152 H 0.27350 0.28291 0.19373
 H153 H 0.41419 0.21051 0.08624
 H154 H 0.44627 0.21041 0.05418
 H155 H 0.44604 0.29045 0.05412
 H156 H 0.41396 0.29024 0.08617
 C157 C 0.69462 0.73123 0.17632
 C158 C 0.67623 0.74944 0.17633
 C159 C 0.67623 0.76771 0.19464
 C160 C 0.69453 0.76782 0.21290
 C161 C 0.71323 0.74957 0.21316
 C162 C 0.71296 0.73125 0.19454
 C163 C 0.65737 0.74938 0.15754
 C164 C 0.64159 0.74934 0.14180
 C165 C 0.62311 0.74931 0.12337
 C166 C 0.60733 0.74929 0.10762
 C167 C 0.58850 0.74928 0.08881
 C168 C 0.57927 0.77168 0.07965
 C169 C 0.56098 0.77171 0.06137
 C170 C 0.55168 0.74926 0.05200
 C171 C 0.56108 0.72683 0.06133
 C172 C 0.57937 0.72686 0.07962
 H173 H 0.69479 0.71699 0.16220
 H174 H 0.66206 0.78191 0.19481
 H175 H 0.69393 0.78226 0.22678
 H176 H 0.72690 0.71686 0.19393
 H177 H 0.58621 0.78914 0.08664
 H178 H 0.55415 0.78929 0.05459
 H179 H 0.55433 0.70924 0.05452
 H180 H 0.58639 0.70941 0.08658
 C181 C 0.69480 0.26886 -0.17638
 C182 C 0.67649 0.25057 -0.17635
 C183 C 0.67656 0.23227 -0.19466
 C184 C 0.69485 0.23224 -0.21295
 C185 C 0.71337 0.25055 -0.21316
 C186 C 0.71311 0.26887 -0.19464
 C187 C 0.65766 0.25057 -0.15754
 C188 C 0.64189 0.25058 -0.14178
 C189 C 0.62344 0.25060 -0.12331
 C190 C 0.60769 0.25061 -0.10754
 C191 C 0.58888 0.25060 -0.08870
 C192 C 0.57976 0.22818 -0.07949
 C193 C 0.56148 0.22814 -0.06119
 C194 C 0.55208 0.25057 -0.05185
 C195 C 0.56138 0.27301 -0.06124
 C196 C 0.57966 0.27300 -0.07954
 H197 H 0.69492 0.28311 -0.16229
 H198 H 0.66246 0.21802 -0.19481
 H199 H 0.69445 0.21786 -0.22689
 H200 H 0.72705 0.28324 -0.19422
 H201 H 0.58677 0.21073 -0.08645
 H202 H 0.55472 0.21055 -0.05437
 H203 H 0.55455 0.29059 -0.05446
 H204 H 0.58659 0.29046 -0.08655
 C205 C 0.32395 0.76769 -0.19429
 C206 C 0.32393 0.74946 -0.17592
 C207 C 0.30553 0.73128 -0.17586
 C208 C 0.28719 0.73130 -0.19409
 C209 C 0.28695 0.74958 -0.21277
 C210 C 0.30566 0.76779 -0.21256
 C211 C 0.34277 0.74940 -0.15712
 C212 C 0.35855 0.74936 -0.14137
 C213 C 0.37701 0.74932 -0.12292
 C214 C 0.39277 0.74930 -0.10716
 C215 C 0.41159 0.74929 -0.08833
 C216 C 0.42079 0.72687 -0.07917
 C217 C 0.43907 0.72684 -0.06087
 C218 C 0.44837 0.74927 -0.05149
 C219 C 0.43899 0.77171 -0.06083
 C220 C 0.42072 0.77169 -0.07913
 H221 H 0.33813 0.78185 -0.19449
 H222 H 0.30535 0.71707 -0.16171
 H223 H 0.27325 0.71693 -0.19345
 H224 H 0.30627 0.78220 -0.22648
 H225 H 0.41385 0.70942 -0.08617
 H226 H 0.44589 0.70925 -0.05409
 H227 H 0.44575 0.78929 -0.05401
 H228 H 0.41371 0.78915 -0.08609
 C229 C 0.19413 0.32425 0.23152
 C230 C 0.17578 0.32428 0.24978
 C231 C 0.17580 0.30594 0.26806
 C232 C 0.19407 0.28762 0.26811
 C233 C 0.21263 0.28741 0.24983
 C234 C 0.21243 0.30597 0.23152
 C235 C 0.15695 0.34312 0.24974
 C236 C 0.14119 0.35890 0.24970
 C237 C 0.12274 0.37738 0.24965
 C238 C 0.10699 0.39318 0.24961
 C239 C 0.08818 0.41204 0.24958
 C240 C 0.07903 0.42129 0.27196
 C241 C 0.06076 0.43962 0.27195
 C242 C 0.05140 0.44893 0.24951
 C243 C 0.06072 0.43950 0.22710
 C244 C 0.07900 0.42118 0.22716
 H245 H 0.19429 0.33837 0.21728
 H246 H 0.16167 0.30579 0.28228
 H247 H 0.19364 0.27366 0.28247
 H248 H 0.22640 0.30639 0.21717
 H249 H 0.08602 0.41434 0.28942
 H250 H 0.05398 0.44647 0.28952
 H251 H 0.05392 0.44627 0.20951
 H252 H 0.08595 0.41414 0.20972
 C253 C 0.17621 0.69430 0.73301
 C254 C 0.17613 0.67600 0.75133
 C255 C 0.19447 0.67596 0.76958
 C256 C 0.21286 0.69415 0.76953
 C257 C 0.21314 0.71265 0.75118
 C258 C 0.19457 0.71251 0.73291
 C259 C 0.15722 0.65726 0.75138
 C260 C 0.14139 0.64157 0.75138
 C261 C 0.12285 0.62321 0.75135
 C262 C 0.10701 0.60752 0.75130
 C263 C 0.08810 0.58879 0.75119
 C264 C 0.07887 0.57952 0.77354
 C265 C 0.06053 0.56130 0.77346
 C266 C 0.05117 0.55210 0.75097
 C267 C 0.06057 0.56155 0.72860
 C268 C 0.07891 0.57978 0.72874
 H269 H 0.16209 0.69450 0.71879
 H270 H 0.19457 0.66187 0.78385
 H271 H 0.22683 0.69367 0.78387
 H272 H 0.19419 0.72644 0.71851
 H273 H 0.08586 0.58637 0.79103
 H274 H 0.05370 0.55442 0.79099
 H275 H 0.05377 0.55488 0.71098
 H276 H 0.08593 0.58683 0.71133
 C277 C -0.19519 0.67664 0.23096
 C278 C -0.17685 0.67666 0.24919
 C279 C -0.17692 0.69497 0.26746
 C280 C -0.19525 0.71323 0.26755
 C281 C -0.21391 0.71347 0.24928
 C282 C -0.21357 0.69485 0.23096
 C283 C -0.15796 0.65788 0.24916
 C284 C -0.14214 0.64215 0.24915
 C285 C -0.12362 0.62374 0.24916
 C286 C -0.10780 0.60801 0.24918
 C287 C -0.08892 0.58922 0.24921
 C288 C -0.07970 0.58012 0.27163
 C289 C -0.06137 0.56185 0.27170
 C290 C -0.05202 0.55244 0.24929
 C291 C -0.06141 0.56173 0.22684
 C292 C -0.07974 0.58000 0.22683
 H293 H -0.19530 0.66253 0.21672
 H294 H -0.16278 0.69515 0.28167
 H295 H -0.19470 0.72711 0.28199
 H296 H -0.22747 0.69425 0.21655
 H297 H -0.08668 0.58713 0.28907
 H298 H -0.05455 0.55510 0.28929
 H299 H -0.05462 0.55488 0.20928
 H300 H -0.08675 0.58692 0.20937
 C301 C -0.17620 0.30555 0.73143
 C302 C -0.17624 0.32387 0.74968
 C303 C -0.19457 0.32383 0.76792
 C304 C -0.21284 0.30554 0.76796
 C305 C -0.21308 0.28690 0.74966
 C306 C -0.19443 0.28721 0.73137
 C307 C -0.15745 0.34273 0.74971
 C308 C -0.14173 0.35854 0.74976
 C309 C -0.12334 0.37705 0.74984
 C310 C -0.10763 0.39286 0.74993
 C311 C -0.08888 0.41175 0.75005
 C312 C -0.07977 0.42082 0.77251
 C313 C -0.06154 0.43917 0.77266
 C314 C -0.05218 0.44868 0.75030
 C315 C -0.06147 0.43943 0.72781
 C316 C -0.07970 0.42109 0.72771
 H317 H -0.16207 0.30542 0.71721
 H318 H -0.19476 0.33795 0.78215
 H319 H -0.22674 0.30610 0.78238
 H320 H -0.19382 0.27332 0.71694
 H321 H -0.08674 0.41372 0.78991
 H322 H -0.05478 0.44588 0.79028
 H323 H -0.05467 0.44635 0.71028
 H324 H -0.08663 0.41419 0.71022
 C325 C 0.23145 0.19415 0.32377
 C326 C 0.24974 0.17581 0.32380
 C327 C 0.26805 0.17589 0.30551
 C328 C 0.26811 0.19422 0.28725
 C329 C 0.24980 0.21277 0.28703
 C330 C 0.23146 0.21251 0.30553
 C331 C 0.24972 0.15694 0.34259
 C332 C 0.24972 0.14112 0.35833
 C333 C 0.24974 0.12261 0.37675
 C334 C 0.24978 0.10680 0.39249
 C335 C 0.24984 0.08792 0.41129
 C336 C 0.22748 0.07868 0.42048
 C337 C 0.22752 0.06036 0.43876
 C338 C 0.24998 0.05103 0.44808
 C339 C 0.27236 0.06045 0.43870
 C340 C 0.27227 0.07877 0.42042
 H341 H 0.21719 0.19427 0.33786
 H342 H 0.28229 0.16177 0.30537
 H343 H 0.28250 0.19382 0.27332
 H344 H 0.21709 0.22647 0.30596
 H345 H 0.21002 0.08565 0.41353
 H346 H 0.20998 0.05352 0.44558
 H347 H 0.28996 0.05367 0.44547
 H348 H 0.28968 0.08580 0.41343
 C349 C 0.73253 0.17639 0.69396
 C350 C 0.75084 0.17632 0.67567
 C351 C 0.76912 0.19463 0.67571
 C352 C 0.76910 0.21297 0.69396
 C353 C 0.75076 0.21322 0.71245
 C354 C 0.73246 0.19469 0.71223
 C355 C 0.75087 0.15746 0.65688
 C356 C 0.75086 0.14165 0.64115
 C357 C 0.75083 0.12314 0.62274
 C358 C 0.75077 0.10732 0.60703
 C359 C 0.75068 0.08843 0.58826
 C360 C 0.77302 0.07909 0.57911
 C361 C 0.77296 0.06075 0.56087
 C362 C 0.75049 0.05150 0.55154
 C363 C 0.72812 0.06102 0.56087
 C364 C 0.72824 0.07936 0.57911
 H365 H 0.71829 0.16229 0.69410
 H366 H 0.78339 0.19475 0.66163
 H367 H 0.78347 0.22692 0.69354
 H368 H 0.71806 0.19430 0.72615
 H369 H 0.79050 0.08598 0.58607
 H370 H 0.79049 0.05382 0.55409
 H371 H 0.71051 0.05431 0.55409
 H372 H 0.71084 0.08647 0.58607
 C373 C 0.23238 -0.19462 0.67680
 C374 C 0.25073 -0.17638 0.67666
 C375 C 0.26904 -0.17645 0.69494
 C376 C 0.26904 -0.19468 0.71331
 C377 C 0.25066 -0.21314 0.71363
 C378 C 0.23232 -0.21288 0.69513
 C379 C 0.25075 -0.15759 0.65777
 C380 C 0.25074 -0.14187 0.64195
 C381 C 0.25069 -0.12348 0.62340
 C382 C 0.25064 -0.10777 0.60756
 C383 C 0.25056 -0.08902 0.58865
 C384 C 0.27291 -0.07982 0.57939
 C385 C 0.27286 -0.06160 0.56102
 C386 C 0.25041 -0.05232 0.55166
 C387 C 0.22803 -0.06170 0.56109
 C388 C 0.22813 -0.07993 0.57946
 H389 H 0.21811 -0.19474 0.66272
 H390 H 0.28334 -0.16240 0.69501
 H391 H 0.28343 -0.19429 0.72722
 H392 H 0.21790 -0.22677 0.69478
 H393 H 0.29039 -0.08674 0.58638
 H394 H 0.29040 -0.05478 0.55417
 H395 H 0.21043 -0.05496 0.55429
 H396 H 0.21072 -0.08692 0.58650
 C397 C 0.73120 -0.17633 0.30524
 C398 C 0.74952 -0.17627 0.32351
 C399 C 0.76786 -0.19455 0.32342
 C400 C 0.76791 -0.21284 0.30513
 C401 C 0.74956 -0.21309 0.28664
 C402 C 0.73120 -0.19460 0.28692
 C403 C 0.74952 -0.15746 0.34235
 C404 C 0.74954 -0.14171 0.35814
 C405 C 0.74959 -0.12328 0.37663
 C406 C 0.74965 -0.10754 0.39243
 C407 C 0.74974 -0.08875 0.41129
 C408 C 0.77218 -0.07973 0.42049
 C409 C 0.77230 -0.06146 0.43881
 C410 C 0.74993 -0.05198 0.44817
 C411 C 0.72747 -0.06118 0.43880
 C412 C 0.72740 -0.07944 0.42048
 H413 H 0.71692 -0.16226 0.30514
 H414 H 0.78213 -0.19467 0.33749
 H415 H 0.78232 -0.22676 0.30551
 H416 H 0.71680 -0.19421 0.27301
 H417 H 0.78958 -0.08681 0.41350
 H418 H 0.78991 -0.05478 0.44562
 H419 H 0.70993 -0.05428 0.44561
 H420 H 0.70992 -0.08630 0.41349
 C421 C 0.69460 0.73144 -0.17597
 C422 C 0.67624 0.74968 -0.17598
 C423 C 0.67624 0.76793 -0.19433
 C424 C 0.69452 0.76799 -0.21262
 C425 C 0.71320 0.74972 -0.21288
 C426 C 0.71293 0.73142 -0.19422
 C427 C 0.65739 0.74965 -0.15716
 C428 C 0.64161 0.74961 -0.14140
 C429 C 0.62314 0.74956 -0.12294
 C430 C 0.60738 0.74951 -0.10716
 C431 C 0.58856 0.74947 -0.08831
 C432 C 0.57943 0.72704 -0.07914
 C433 C 0.56115 0.72697 -0.06083
 C434 C 0.55175 0.74939 -0.05146
 C435 C 0.56106 0.77185 -0.06081
 C436 C 0.57934 0.77186 -0.07911
 H437 H 0.69477 0.71721 -0.16184
 H438 H 0.66209 0.78214 -0.19450
 H439 H 0.69392 0.78242 -0.22653
 H440 H 0.72684 0.71700 -0.19362
 H441 H 0.58644 0.70960 -0.08613
 H442 H 0.55439 0.70937 -0.05404
 H443 H 0.55423 0.78941 -0.05399
 H444 H 0.58628 0.78933 -0.08608
 C445 C 0.30583 0.26842 -0.17627
 C446 C 0.32418 0.25015 -0.17626
 C447 C 0.32415 0.23186 -0.19458
 C448 C 0.30584 0.23181 -0.21284
 C449 C 0.28727 0.25011 -0.21303
 C450 C 0.28750 0.26842 -0.19450
 C451 C 0.34304 0.25016 -0.15746
 C452 C 0.35882 0.25018 -0.14171
 C453 C 0.37729 0.25021 -0.12326
 C454 C 0.39306 0.25024 -0.10750
 C455 C 0.41188 0.25029 -0.08867
 C456 C 0.42112 0.22791 -0.07947
 C457 C 0.43941 0.22793 -0.06118
 C458 C 0.44870 0.25039 -0.05184
 C459 C 0.43928 0.27280 -0.06121
 C460 C 0.42100 0.27273 -0.07951
 H461 H 0.30569 0.28267 -0.16217
 H462 H 0.33827 0.21763 -0.19475
 H463 H 0.30626 0.21744 -0.22679
 H464 H 0.27352 0.28278 -0.19406
 H465 H 0.41420 0.21044 -0.08643
 H466 H 0.44625 0.21036 -0.05436
 H467 H 0.44603 0.29040 -0.05443
 H468 H 0.41397 0.29017 -0.08650
 C469 C 0.32344 0.76723 0.19448
 C470 C 0.32344 0.74900 0.17613
 C471 C 0.30505 0.73082 0.17609
 C472 C 0.28670 0.73083 0.19432
 C473 C 0.28644 0.74911 0.21298
 C474 C 0.30514 0.76733 0.21276
 C475 C 0.34231 0.74897 0.15733
 C476 C 0.35811 0.74895 0.14160
 C477 C 0.37663 0.74896 0.12318
 C478 C 0.39244 0.74899 0.10745
 C479 C 0.41132 0.74903 0.08867
 C480 C 0.42057 0.72664 0.07949
 C481 C 0.43891 0.72666 0.06125
 C482 C 0.44824 0.74912 0.05192
 C483 C 0.43882 0.77153 0.06128
 C484 C 0.42048 0.77146 0.07953
 H485 H 0.33761 0.78141 0.19468
 H486 H 0.30488 0.71661 0.16195
 H487 H 0.27276 0.71646 0.19370
 H488 H 0.30574 0.78174 0.22667
 H489 H 0.41361 0.70917 0.08644
 H490 H 0.44575 0.70909 0.05445
 H491 H 0.44560 0.78914 0.05451
 H492 H 0.41346 0.78890 0.08651
 C493 C 0.67678 0.23248 0.19424
 C494 C 0.67671 0.25079 0.17592
 C495 C 0.69501 0.26909 0.17596
 C496 C 0.71331 0.26911 0.19423
 C497 C 0.71357 0.25077 0.21276
 C498 C 0.69506 0.23244 0.21253
 C499 C 0.65788 0.25080 0.15710
 C500 C 0.64211 0.25078 0.14134
 C501 C 0.62364 0.25075 0.12289
 C502 C 0.60785 0.25074 0.10715
 C503 C 0.58900 0.25070 0.08835
 C504 C 0.57975 0.27309 0.07916
 C505 C 0.56144 0.27308 0.06089
 C506 C 0.55213 0.25062 0.05156
 C507 C 0.56156 0.22821 0.06093
 C508 C 0.57986 0.22827 0.07920
 H509 H 0.66270 0.21822 0.19438
 H510 H 0.69513 0.28336 0.16187
 H511 H 0.72724 0.28349 0.19382
 H512 H 0.69466 0.21805 0.22647
 H513 H 0.58670 0.29056 0.08612
 H514 H 0.55460 0.29065 0.05409
 H515 H 0.55480 0.21061 0.05415
 H516 H 0.58689 0.21083 0.08618
 C517 C -0.17708 0.69488 0.73274
 C518 C -0.17701 0.67659 0.75104
 C519 C -0.19534 0.67662 0.76930
 C520 C -0.21369 0.69487 0.76930
 C521 C -0.21402 0.71347 0.75094
 C522 C -0.19539 0.71317 0.73264
 C523 C -0.15815 0.65777 0.75108
 C524 C -0.14235 0.64201 0.75109
 C525 C -0.12385 0.62357 0.75107
 C526 C -0.10805 0.60781 0.75104
 C527 C -0.08918 0.58900 0.75098
 C528 C -0.08003 0.57969 0.77335
 C529 C -0.06171 0.56141 0.77331
 C530 C -0.05230 0.55218 0.75085
 C531 C -0.06163 0.56167 0.72846
 C532 C -0.07995 0.57995 0.72855
 H533 H -0.16297 0.69502 0.71850
 H534 H -0.19545 0.66253 0.78357
 H535 H -0.22757 0.69430 0.78373
 H536 H -0.19484 0.72703 0.71817
 H537 H -0.08705 0.58657 0.79082
 H538 H -0.05494 0.55451 0.79086
 H539 H -0.05479 0.55497 0.71086
 H540 H -0.08690 0.58702 0.71113
 C541 C -0.17607 0.30579 0.26825
 C542 C -0.17608 0.32414 0.25001
 C543 C -0.19441 0.32410 0.23176
 C544 C -0.21267 0.30580 0.23171
 C545 C -0.21292 0.28714 0.25000
 C546 C -0.19429 0.28744 0.26830
 C547 C -0.15729 0.34301 0.24999
 C548 C -0.14157 0.35881 0.24997
 C549 C -0.12316 0.37733 0.24991
 C550 C -0.10745 0.39314 0.24986
 C551 C -0.08868 0.41203 0.24978
 C552 C -0.07950 0.42129 0.27214
 C553 C -0.06126 0.43963 0.27209
 C554 C -0.05195 0.44894 0.24962
 C555 C -0.06130 0.43950 0.22724
 C556 C -0.07954 0.42117 0.22734
 H557 H -0.16195 0.30565 0.28248
 H558 H -0.19458 0.33824 0.21753
 H559 H -0.22656 0.30638 0.21729
 H560 H -0.19368 0.27353 0.28272
 H561 H -0.08645 0.41434 0.28962
 H562 H -0.05447 0.44649 0.28964
 H563 H -0.05453 0.44627 0.20963
 H564 H -0.08651 0.41413 0.20992
 C565 C 0.17573 0.30576 0.73169
 C566 C 0.17571 0.32410 0.74996
 C567 C 0.19407 0.32409 0.76819
 C568 C 0.21240 0.30582 0.76818
 C569 C 0.21262 0.28727 0.74988
 C570 C 0.19404 0.28747 0.73162
 C571 C 0.15685 0.34292 0.75000
 C572 C 0.14107 0.35869 0.75004
 C573 C 0.12259 0.37716 0.75010
 C574 C 0.10682 0.39294 0.75017
 C575 C 0.08799 0.41179 0.75026
 C576 C 0.07878 0.42085 0.77270
 C577 C 0.06049 0.43916 0.77281
 C578 C 0.05116 0.44867 0.75042
 C579 C 0.06055 0.43943 0.72795
 C580 C 0.07884 0.42112 0.72790
 H581 H 0.16160 0.30560 0.71748
 H582 H 0.19423 0.33820 0.78242
 H583 H 0.22639 0.30626 0.78250
 H584 H 0.19361 0.27351 0.71727
 H585 H 0.08574 0.41376 0.79011
 H586 H 0.05367 0.44586 0.79041
 H587 H 0.05377 0.44634 0.71041
 H588 H 0.08584 0.41424 0.71042
 C589 C 0.19478 0.67631 0.23073
 C590 C 0.17644 0.67634 0.24897
 C591 C 0.17653 0.69462 0.26727
 C592 C 0.19488 0.71284 0.26738
 C593 C 0.21354 0.71308 0.24910
 C594 C 0.21318 0.69449 0.23075
 C595 C 0.15753 0.65759 0.24893
 C596 C 0.14169 0.64190 0.24892
 C597 C 0.12314 0.62353 0.24894
 C598 C 0.10730 0.60783 0.24898
 C599 C 0.08839 0.58909 0.24905
 C600 C 0.07919 0.58000 0.27148
 C601 C 0.06085 0.56178 0.27158
 C602 C 0.05145 0.55238 0.24919
 C603 C 0.06082 0.56165 0.22673
 C604 C 0.07917 0.57988 0.22668
 H605 H 0.19488 0.66222 0.21647
 H606 H 0.16240 0.69481 0.28149
 H607 H 0.19435 0.72670 0.28184
 H608 H 0.22708 0.69387 0.21633
 H609 H 0.08620 0.58700 0.28890
 H610 H 0.05404 0.55504 0.28918
 H611 H 0.05400 0.55483 0.20918
 H612 H 0.08616 0.58679 0.20921
 C613 C 0.73117 -0.17630 0.69484
 C614 C 0.74949 -0.17626 0.67655
 C615 C 0.76781 -0.19456 0.67666
 C616 C 0.76785 -0.21283 0.69499
 C617 C 0.74951 -0.21306 0.71349
 C618 C 0.73116 -0.19455 0.71319
 C619 C 0.74949 -0.15745 0.65767
 C620 C 0.74951 -0.14171 0.64185
 C621 C 0.74956 -0.12328 0.62333
 C622 C 0.74963 -0.10755 0.60751
 C623 C 0.74972 -0.08875 0.58862
 C624 C 0.77216 -0.07974 0.57939
 C625 C 0.77229 -0.06147 0.56105
 C626 C 0.74992 -0.05198 0.55168
 C627 C 0.72746 -0.06118 0.56108
 C628 C 0.72738 -0.07945 0.57942
 H629 H 0.71690 -0.16221 0.69493
 H630 H 0.78208 -0.19470 0.66259
 H631 H 0.78225 -0.22676 0.69462
 H632 H 0.71677 -0.19413 0.72712
 H633 H 0.78957 -0.08681 0.58638
 H634 H 0.78989 -0.05480 0.55423
 H635 H 0.70992 -0.05428 0.55427
 H636 H 0.70991 -0.08630 0.58643
 C637 C 0.23186 -0.19507 0.32339
 C638 C 0.25021 -0.17682 0.32349
 C639 C 0.26852 -0.17690 0.30520
 C640 C 0.26851 -0.19515 0.28685
 C641 C 0.25013 -0.21360 0.28656
 C642 C 0.23180 -0.21334 0.30507
 C643 C 0.25025 -0.15802 0.34236
 C644 C 0.25027 -0.14228 0.35816
 C645 C 0.25028 -0.12385 0.37666
 C646 C 0.25029 -0.10810 0.39245
 C647 C 0.25028 -0.08928 0.41131
 C648 C 0.27266 -0.08007 0.42045
 C649 C 0.27267 -0.06178 0.43875
 C650 C 0.25024 -0.05246 0.44816
 C651 C 0.22784 -0.06186 0.43884
 C652 C 0.22788 -0.08015 0.42054
 H653 H 0.21760 -0.19518 0.33747
 H654 H 0.28282 -0.16286 0.30510
 H655 H 0.28290 -0.19476 0.27293
 H656 H 0.21737 -0.22722 0.30544
 H657 H 0.29010 -0.08701 0.41344
 H658 H 0.29023 -0.05495 0.44552
 H659 H 0.21026 -0.05509 0.44567
 H660 H 0.21044 -0.08715 0.41359
 C661 C 0.76921 0.19478 0.32396
 C662 C 0.75096 0.17644 0.32397
 C663 C 0.73269 0.17650 0.30565
 C664 C 0.73264 0.19483 0.28737
 C665 C 0.75091 0.21339 0.28718
 C666 C 0.76921 0.21314 0.30571
 C667 C 0.75097 0.15756 0.34277
 C668 C 0.75095 0.14173 0.35850
 C669 C 0.75089 0.12320 0.37692
 C670 C 0.75082 0.10737 0.39265
 C671 C 0.75072 0.08847 0.41143
 C672 C 0.72828 0.07940 0.42059
 C673 C 0.72815 0.06105 0.43884
 C674 C 0.75051 0.05152 0.44818
 C675 C 0.77298 0.06076 0.43883
 C676 C 0.77306 0.07911 0.42058
 H677 H 0.78345 0.19491 0.33806
 H678 H 0.71847 0.16238 0.30548
 H679 H 0.71827 0.19443 0.27342
 H680 H 0.78355 0.22711 0.30615
 H681 H 0.71088 0.08651 0.41364
 H682 H 0.71054 0.05434 0.44564
 H683 H 0.79051 0.05383 0.44561
 H684 H 0.79054 0.08600 0.41361
 C685 C 0.26826 0.17596 0.69401
 C686 C 0.24993 0.17588 0.67574
 C687 C 0.23161 0.19417 0.67582
 C688 C 0.23158 0.21250 0.69408
 C689 C 0.24993 0.21276 0.71256
 C690 C 0.26829 0.19426 0.71230
 C691 C 0.24993 0.15703 0.65693
 C692 C 0.24993 0.14123 0.64118
 C693 C 0.24995 0.12273 0.62275
 C694 C 0.24998 0.10693 0.60701
 C695 C 0.25002 0.08805 0.58822
 C696 C 0.27243 0.07889 0.57904
 C697 C 0.27250 0.06056 0.56078
 C698 C 0.25010 0.05113 0.55147
 C699 C 0.22766 0.06046 0.56084
 C700 C 0.22765 0.07879 0.57909
 H701 H 0.28254 0.16188 0.69412
 H702 H 0.21732 0.19428 0.66176
 H703 H 0.21718 0.22642 0.69370
 H704 H 0.28269 0.19387 0.72621
 H705 H 0.28986 0.08593 0.58598
 H706 H 0.29008 0.05378 0.55398
 H707 H 0.21011 0.05361 0.55407
 H708 H 0.21020 0.08575 0.58607
   
