data_POSCAR
  _audit_creation_date              2014-09-24
  _audit_creation_method            'ToBaCCo'
  _symmetry_space_group_name_H-M    'P1'
  _symmetry_Int_Tables_number       1
  _symmetry_cell_setting            triclinic
  loop_
  _symmetry_equiv_pos_as_xyz
 x,y,z
_cell_length_a 27.6183
_cell_length_b 29.3340
_cell_length_c 27.5150
_cell_angle_alpha 91.131400
_cell_angle_beta 91.423100
_cell_angle_gamma 92.606700
loop_
  _atom_site_label
  _atom_site_type_symbol
  _atom_site_fract_x
  _atom_site_fract_y
  _atom_site_fract_z
N1 N 0.15047 0.16397 0.26517
 N2 N 0.18344 0.13379 0.25789
 C3 C 0.17382 0.09708 0.28521
 C4 C 0.13364 0.10531 0.31231
 C5 C 0.11979 0.14834 0.29899
 H6 H 0.19475 0.06680 0.28588
 H7 H 0.08861 0.16607 0.31105
 Cu8 Cu 0.23629 0.14677 0.21449
 Cu9 Cu 0.14840 0.21961 0.22724
 Cu10 Cu 0.22500 0.22324 0.12801
 N11 N 0.28938 0.16075 0.17164
 N12 N 0.28388 0.18898 0.13560
 C13 C 0.32133 0.18552 0.10542
 C14 C 0.35217 0.15383 0.12401
 C15 C 0.33099 0.13935 0.16654
 H16 H 0.32436 0.20264 0.07107
 H17 H 0.34220 0.11194 0.18929
 N18 N 0.17150 0.26506 0.13650
 N19 N 0.14164 0.26261 0.17329
 C20 C 0.10602 0.29180 0.16598
 C21 C 0.11472 0.31460 0.12348
 C22 C 0.15652 0.29702 0.10572
 H23 H 0.07532 0.29538 0.18919
 H24 H 0.17306 0.30509 0.07154
 H25 H 0.17460 0.18566 0.16888
 H26 H 0.21907 0.22624 0.20087
 N27 N -0.13617 0.80249 0.25843
 N28 N -0.17092 0.83166 0.25823
 C29 C -0.15850 0.86661 0.28891
 C30 C -0.11356 0.85907 0.30933
 C31 C -0.10009 0.81817 0.28914
 H32 H -0.17974 0.89617 0.29494
 H33 H -0.06703 0.80088 0.29664
 Cu34 Cu -0.22639 0.82465 0.21394
 Cu35 Cu -0.14268 0.74590 0.22008
 Cu36 Cu -0.22291 0.75072 0.12078
 N37 N -0.28083 0.81582 0.16840
 N38 N -0.27762 0.78979 0.12929
 C39 C -0.31294 0.79980 0.09703
 C40 C -0.33970 0.83388 0.11722
 C41 C -0.31878 0.84249 0.16297
 H42 H -0.31651 0.78593 0.06032
 H43 H -0.32660 0.86993 0.18788
 N44 N -0.17614 0.70221 0.12899
 N45 N -0.14597 0.70014 0.16681
 C46 C -0.11792 0.66415 0.16080
 C47 C -0.13148 0.64243 0.11719
 C48 C -0.16842 0.66732 0.09815
 H49 H -0.08873 0.65562 0.18538
 H50 H -0.18710 0.66127 0.06345
 H51 H -0.16895 0.78341 0.16565
 H52 H -0.21522 0.74485 0.19424
 N53 N -0.16586 0.18135 -0.27618
 N54 N -0.20185 0.15042 -0.27678
 C55 C -0.18975 0.11439 -0.30421
 C56 C -0.14339 0.12332 -0.32074
 C57 C -0.12933 0.16597 -0.30240
 H58 H -0.21198 0.08331 -0.30976
 H59 H -0.09483 0.18414 -0.30701
 Cu60 Cu -0.25848 0.15826 -0.23709
 Cu61 Cu -0.16809 0.23733 -0.23797
 Cu62 Cu -0.22906 0.21553 -0.13245
 N63 N -0.30230 0.15891 -0.18302
 N64 N -0.28960 0.17940 -0.14139
 C65 C -0.32223 0.16781 -0.10779
 C66 C -0.35746 0.13860 -0.12983
 C67 C -0.34409 0.13438 -0.17774
 H68 H -0.31904 0.17825 -0.06990
 H69 H -0.36095 0.11173 -0.20538
 N70 N -0.17863 0.26498 -0.13795
 N71 N -0.15879 0.27533 -0.17969
 C72 C -0.12712 0.31098 -0.17303
 C73 C -0.12638 0.32334 -0.12444
 C74 C -0.15927 0.29357 -0.10304
 H75 H -0.10394 0.32464 -0.20086
 H76 H -0.16796 0.29253 -0.06496
 H77 H -0.18998 0.19095 -0.18862
 H78 H -0.23622 0.23369 -0.20245
 N79 N 0.16229 0.82316 -0.29467
 N80 N 0.19441 0.85770 -0.29370
 C81 C 0.18087 0.88852 -0.32658
 C82 C 0.13796 0.87206 -0.34931
 C83 C 0.12762 0.83049 -0.32839
 H84 H 0.19939 0.92131 -0.33157
 H85 H 0.09539 0.80862 -0.33485
 Cu86 Cu 0.24859 0.85994 -0.24653
 Cu87 Cu 0.16357 0.77490 -0.24687
 Cu88 Cu 0.22154 0.81291 -0.14009
 N89 N 0.29562 0.86141 -0.19228
 N90 N 0.28425 0.84329 -0.15051
 C91 C 0.32042 0.85243 -0.11774
 C92 C 0.35669 0.87786 -0.14014
 C93 C 0.33987 0.88258 -0.18759
 H94 H 0.31895 0.84290 -0.08004
 H95 H 0.35718 0.90241 -0.21558
 N96 N 0.17099 0.76356 -0.14259
 N97 N 0.15223 0.74638 -0.18395
 C98 C 0.12265 0.71018 -0.17450
 C99 C 0.12255 0.70468 -0.12467
 C100 C 0.15322 0.73923 -0.10548
 H101 H 0.10180 0.69012 -0.20175
 H102 H 0.16320 0.74520 -0.06755
 H103 H 0.18015 0.82841 -0.20139
 H104 H 0.22945 0.78742 -0.20757
 N105 N 0.17443 1.15040 0.73662
 N106 N 0.14413 1.18375 0.73706
 C107 C 0.10578 1.17210 0.70710
 C108 C 0.11268 1.12896 0.68760
 C109 C 0.15635 1.11638 0.70724
 H110 H 0.07415 1.19213 0.70220
 H111 H 0.17307 1.08408 0.70173
 Cu112 Cu 0.15672 1.23680 0.78081
 Cu113 Cu 0.23391 1.15197 0.77636
 Cu114 Cu 0.22144 1.21480 0.88214
 N115 N 0.16543 1.28153 0.83448
 N116 N 0.18957 1.27181 0.87449
 C117 C 0.18542 1.30545 0.90783
 C118 C 0.15806 1.33863 0.88752
 C119 C 0.14572 1.32235 0.84086
 H120 H 0.19971 1.30495 0.94478
 H121 H 0.12146 1.33743 0.81493
 N122 N 0.26962 1.16792 0.87499
 N123 N 0.27608 1.14536 0.83389
 C124 C 0.31311 1.11751 0.83999
 C125 C 0.33071 1.12311 0.88740
 C126 C 0.30236 1.15520 0.90843
 H127 H 0.32556 1.09454 0.81224
 H128 H 0.30568 1.16860 0.94533
 H129 H 0.18883 1.17398 0.82689
 H130 H 0.23707 1.21735 0.81071
 N131 N 0.79767 0.82383 0.71539
 N132 N 0.82791 0.79059 0.71846
 C133 C 0.86523 0.79885 0.68882
 C134 C 0.85735 0.83887 0.66501
 C135 C 0.81407 0.85385 0.68260
 H136 H 0.89603 0.77763 0.68532
 H137 H 0.79724 0.88546 0.67430
 Cu138 Cu 0.81577 0.73985 0.76108
 Cu139 Cu 0.74240 0.82763 0.75832
 Cu140 Cu 0.75857 0.76499 0.86289
 N141 N 0.81484 0.69867 0.81508
 N142 N 0.79305 0.70893 0.85548
 C143 C 0.80438 0.67863 0.88955
 C144 C 0.83496 0.64783 0.86936
 C145 C 0.84064 0.66146 0.82184
 H146 H 0.79429 0.68091 0.92723
 H147 H 0.86506 0.64815 0.79555
 N148 N 0.71280 0.81443 0.85785
 N149 N 0.70579 0.83799 0.81806
 C150 C 0.67307 0.86975 0.82704
 C151 C 0.65887 0.86551 0.87478
 C152 C 0.68455 0.83014 0.89292
 H153 H 0.66143 0.89456 0.80119
 H154 H 0.68319 0.81730 0.92946
 H155 H 0.78881 0.80445 0.80836
 H156 H 0.73762 0.76321 0.79133
 N157 N 0.15893 0.85271 1.29682
 N158 N 0.13074 0.81537 1.29495
 C159 C 0.09740 0.81803 1.32982
 C160 C 0.10613 0.85871 1.35564
 C161 C 0.14539 0.87983 1.33356
 H162 H 0.06796 0.79313 1.33494
 H163 H 0.16075 0.91381 1.34152
 Cu164 Cu 0.13950 0.76850 1.24517
 Cu165 Cu 0.20726 0.86594 1.24803
 Cu166 Cu 0.23128 0.77743 1.16733
 N167 N 0.14140 0.72953 1.18713
 N168 N 0.17844 0.73106 1.15797
 C169 C 0.17026 0.69980 1.12158
 C170 C 0.12521 0.67839 1.12810
 C171 C 0.10794 0.69831 1.16973
 H172 H 0.19378 0.69514 1.09119
 H173 H 0.07302 0.69118 1.18560
 N174 N 0.26723 0.83745 1.16848
 N175 N 0.25529 0.87196 1.19664
 C176 C 0.28169 0.90963 1.18482
 C177 C 0.31236 0.89821 1.14830
 C178 C 0.30252 0.85216 1.13872
 H179 H 0.27915 0.94302 1.20167
 H180 H 0.31823 0.83155 1.11070
 H181 H 0.18121 0.82118 1.19235
 H182 H 0.22360 0.79942 1.23941
 N183 N 0.84121 1.17947 1.28923
 N184 N 0.88005 1.20670 1.28602
 C185 C 0.91400 1.19411 1.31857
 C186 C 0.89491 1.15747 1.34392
 C187 C 0.84852 1.14932 1.32444
 H188 H 0.95029 1.20944 1.32248
 H189 H 0.82313 1.12153 1.33258
 Cu190 Cu 0.88181 1.25492 1.23846
 Cu191 Cu 0.78688 1.18087 1.24295
 Cu192 Cu 0.81506 1.23546 1.13610
 N193 N 0.87836 1.30087 1.18871
 N194 N 0.85260 1.29326 1.14825
 C195 C 0.86063 1.32852 1.11834
 C196 C 0.89297 1.35997 1.14163
 C197 C 0.90329 1.34118 1.18611
 H198 H 0.84614 1.32975 1.08155
 H199 H 0.92939 1.35466 1.21326
 N200 N 0.76309 1.18678 1.13979
 N201 N 0.75039 1.16885 1.18149
 C202 C 0.71447 1.13695 1.17324
 C203 C 0.70419 1.13411 1.12381
 C204 C 0.73574 1.16616 1.10361
 H205 H 0.69919 1.11535 1.20090
 H206 H 0.73893 1.17343 1.06541
 H207 H 0.83815 1.19376 1.19206
 H208 H 0.79893 1.24225 1.20582
 O209 O 0.55299 0.99027 0.90907
 O210 O 0.46922 0.94925 1.10446
 O211 O 0.58004 0.93206 1.04470
 O212 O 0.41543 0.96650 0.97901
 O213 O 0.55981 0.95975 1.11305
 O214 O 0.47854 0.94797 0.94056
 O215 O 0.41188 0.98347 1.06573
 O216 O 0.56849 0.94499 0.96356
 C217 C 0.57459 0.95611 0.92099
 C218 C 0.42567 0.95129 1.09187
 C219 C 0.57889 0.92935 1.08929
 C220 C 0.43574 0.93946 0.95138
 O221 O 0.46639 1.02194 0.89711
 O222 O 0.55486 1.04665 1.11253
 O223 O 0.59812 1.03662 0.97691
 O224 O 0.44533 1.07047 1.04826
 O225 O 0.46377 1.03823 1.11481
 O226 O 0.53035 1.06375 0.95063
 O227 O 0.44377 1.05493 0.96304
 O228 O 0.61020 1.02150 1.06356
 Co229 Co 0.50332 1.00593 0.94875
 Co230 Co 0.51149 0.99857 1.10264
 Co231 Co 0.58320 0.98528 1.01261
 Co232 Co 0.43586 1.01715 1.01457
 O233 O 0.51069 1.00027 1.02264
 C234 C 0.43503 1.04654 0.91822
 C235 C 0.59742 1.04825 1.09737
 C236 C 0.57520 1.06853 0.95816
 C237 C 0.44568 1.07065 1.09321
 O238 O 0.07580 0.45372 0.04399
 O239 O 0.06040 0.55190 -0.11030
 O240 O 0.07744 0.44043 -0.04128
 O241 O 0.04089 0.59452 0.02623
 O242 O 0.05751 0.46436 -0.11230
 O243 O 0.08695 0.53865 0.04356
 O244 O 0.02763 0.60215 -0.06131
 O245 O 0.03416 0.39200 0.01732
 C246 C 0.06680 0.41081 0.04805
 C247 C 0.05720 0.59211 -0.09433
 C248 C 0.08433 0.44164 -0.08582
 C249 C 0.08070 0.58059 0.04226
 O250 O 0.00153 0.54636 0.08360
 O251 O -0.03804 0.46542 -0.11262
 O252 O -0.04455 0.43337 0.00647
 O253 O -0.06527 0.56886 -0.05157
 O254 O -0.03189 0.55011 -0.11788
 O255 O -0.01632 0.46297 0.07305
 O256 O -0.05223 0.55477 0.03045
 O257 O -0.00854 0.41117 -0.07010
 Co258 Co 0.03431 0.50090 0.05293
 Co259 Co 0.01234 0.50746 -0.10469
 Co260 Co 0.01630 0.44108 -0.01602
 Co261 Co -0.01024 0.57460 -0.01416
 O262 O 0.01152 0.50845 -0.02448
 C263 C -0.03951 0.55920 0.07320
 C264 C -0.03851 0.42454 -0.10095
 C265 C -0.04884 0.43923 0.05055
 C266 C -0.06578 0.56759 -0.09644
 O267 O 1.04761 0.06271 0.45178
 O268 O 0.88315 0.03495 0.53978
 O269 O 0.96403 0.05803 0.43349
 O270 O 1.01979 0.03591 0.60256
 O271 O 0.89297 0.03070 0.44885
 O272 O 1.03921 0.07622 0.53997
 O273 O 0.93099 0.01748 0.60237
 O274 O 1.02744 0.02024 0.38717
 C275 C 1.05444 0.05390 0.40694
 C276 C 0.89515 0.03801 0.58430
 C277 C 0.91945 0.06150 0.43149
 C278 C 1.03506 0.07317 0.58492
 O279 O 1.08259 -0.00021 0.55821
 O280 O 0.90374 -0.05931 0.45713
 O281 O 1.01695 -0.05356 0.43488
 O282 O 0.94891 -0.07058 0.58212
 O283 O 0.88510 -0.05078 0.54374
 O284 O 1.07939 -0.02153 0.47056
 O285 O 1.03261 -0.05362 0.57446
 O286 O 0.94183 -0.02474 0.40065
 Co287 Co 1.05414 0.02592 0.50517
 Co288 Co 0.89971 -0.01013 0.49749
 Co289 Co 0.99133 0.00200 0.43772
 Co290 Co 0.98334 -0.01603 0.58360
 O291 O 0.97835 -0.00176 0.50872
 C292 C 1.07487 -0.03871 0.57493
 C293 C 0.91377 -0.05656 0.41357
 C294 C 1.06076 -0.05415 0.44536
 C295 C 0.90489 -0.07587 0.57313
 C296 C 1.11163 0.07491 0.34432
 C297 C 1.07875 0.08748 0.37612
 H298 H 1.12292 0.03997 0.34418
 H299 H 1.07027 0.12295 0.38084
 C300 C 0.91348 -0.11096 0.34481
 C301 C 0.88954 -0.08814 0.37828
 H302 H 0.95273 -0.10848 0.34431
 H303 H 0.85079 -0.09442 0.38158
 C304 C 0.88630 0.09330 0.65050
 C305 C 0.86616 0.06630 0.61549
 H306 H 0.92537 0.09582 0.65579
 H307 H 0.82769 0.06746 0.60703
 C308 C 1.10435 -0.10468 0.61804
 C309 C 1.11341 -0.06307 0.60022
 H310 H 1.06934 -0.12195 0.61060
 H311 H 1.14844 -0.04559 0.60657
 C312 C 0.39042 1.13424 1.09994
 C313 C 0.41761 1.10305 1.12102
 H314 H 0.39549 1.14224 1.06205
 H315 H 0.41489 1.09679 1.15952
 C316 C 0.39764 0.90062 0.88126
 C317 C 0.40688 0.90120 0.92933
 H318 H 0.41933 0.92292 0.85852
 H319 H 0.38410 0.88149 0.95335
 C320 C 0.62673 0.86013 1.09277
 C321 C 0.60422 0.89386 1.11531
 H322 H 0.62123 0.85456 1.05392
 H323 H 0.60710 0.89814 1.15444
 C324 C 0.60596 1.11220 0.89160
 C325 C 0.60270 1.10789 0.93975
 H326 H 0.58289 1.09010 0.86783
 H327 H 0.62804 1.12613 0.96460
 C328 C 0.08228 0.34559 0.09880
 C329 C 0.09940 0.38228 0.07571
 H330 H 0.04348 0.33855 0.10046
 H331 H 0.13777 0.39184 0.07768
 C332 C -0.09328 0.35727 -0.10000
 C333 C -0.07371 0.39215 -0.12431
 H334 H -0.08504 0.35365 -0.06158
 H335 H -0.08512 0.39816 -0.16151
 C336 C 0.09567 0.66942 -0.09771
 C337 C 0.08656 0.62797 -0.11755
 H338 H 0.08445 0.67720 -0.06113
 H339 H 0.10129 0.61970 -0.15264
 C340 C -0.10822 0.60538 0.09123
 C341 C -0.06751 0.58656 0.10697
 H342 H -0.12311 0.59637 0.05531
 H343 H -0.05188 0.59528 0.14259
 C344 C 1.07910 0.09805 0.65894
 C345 C 1.05648 0.10965 0.61765
 H346 H 1.07913 0.06236 0.66847
 H347 H 1.06061 0.14423 0.60473
 C348 C 0.89083 -0.13678 0.63259
 C349 C 0.87399 -0.10869 0.59928
 H350 H 0.92944 -0.14075 0.63744
 H351 H 0.83514 -0.10687 0.59355
 C352 C 1.07446 -0.12014 0.39125
 C353 C 1.09187 -0.08763 0.42273
 H354 H 1.03583 -0.12825 0.38816
 H355 H 1.13072 -0.08108 0.42666
 C356 C 0.92084 0.12863 0.37835
 C357 C 0.89649 0.09799 0.40489
 H358 H 0.96012 0.13074 0.37958
 H359 H 0.85723 0.09703 0.40425
 C360 C 0.13824 0.37742 -0.08598
 C361 C 0.11862 0.41185 -0.10927
 H362 H 0.13605 0.37537 -0.04680
 H363 H 0.12158 0.41386 -0.14838
 C364 C -0.08027 0.39966 0.12132
 C365 C -0.08691 0.41267 0.07544
 H366 H -0.05017 0.41477 0.14301
 H367 H -0.11591 0.39665 0.05305
 C368 C -0.13605 0.61559 -0.10332
 C369 C -0.10316 0.59031 -0.12467
 H370 H -0.13887 0.61591 -0.06410
 H371 H -0.10027 0.58972 -0.16383
 C372 C 0.09655 0.64665 0.09546
 C373 C 0.11482 0.61345 0.06816
 H374 H 0.05750 0.64856 0.09735
 H375 H 0.15328 0.60766 0.06953
 C376 C 0.37002 1.10003 0.91246
 C377 C 0.39769 1.06995 0.89055
 H378 H 0.37603 1.10823 0.95078
 H379 H 0.39268 1.06185 0.85216
 C380 C 0.34629 0.92993 1.12413
 C381 C 0.39019 0.91781 1.11105
 H382 H 0.33665 0.96521 1.12123
 H383 H 0.40181 0.88381 1.11861
 C384 C 0.66988 1.10123 1.09804
 C385 C 0.63259 1.08130 1.12102
 H386 H 0.67461 1.09424 1.05967
 H387 H 0.62577 1.09134 1.15824
 C388 C 0.62607 0.89281 0.90359
 C389 C 0.60389 0.92951 0.88753
 H390 H 0.62125 0.88247 0.94084
 H391 H 0.60831 0.94077 0.85061
   
