data_POSCAR
  _audit_creation_date              2014-09-24
  _audit_creation_method            'ToBaCCo'
  _symmetry_space_group_name_H-M    'P1'
  _symmetry_Int_Tables_number       1
  _symmetry_cell_setting            triclinic
  loop_
  _symmetry_equiv_pos_as_xyz
 x,y,z
_cell_length_a 40.8876
_cell_length_b 40.7486
_cell_length_c 40.6995
_cell_angle_alpha 90.065900
_cell_angle_beta 90.002600
_cell_angle_gamma 89.930700
loop_
  _atom_site_label
  _atom_site_type_symbol
  _atom_site_fract_x
  _atom_site_fract_y
  _atom_site_fract_z
C1 C 0.19034 1.23194 0.19103
 N2 N 0.17643 1.21851 0.21813
 C3 C 0.18982 1.19142 0.23211
 N4 N 0.21697 1.17758 0.21879
 C5 C 0.23089 1.19100 0.19169
 N6 N 0.21749 1.21808 0.17773
 C7 C 0.81060 0.76754 0.19120
 N8 N 0.82417 0.78138 0.21830
 C9 C 0.81041 0.80848 0.23195
 N10 N 0.78323 0.82191 0.21831
 C11 C 0.76964 0.80808 0.19122
 N12 N 0.78342 0.78098 0.17758
 C13 C 0.80915 1.23193 -0.19048
 N14 N 0.78210 1.21838 -0.17676
 C15 C 0.76838 1.19129 -0.19042
 N16 N 0.78190 1.17757 -0.21762
 C17 C 0.80895 1.19110 -0.23135
 N18 N 0.82266 1.21820 -0.21768
 C19 C 0.19065 0.76893 -0.19247
 N20 N 0.17700 0.78280 -0.21950
 C21 C 0.19063 0.80997 -0.23302
 N22 N 0.21774 0.82344 -0.21932
 C23 C 0.23139 0.80958 -0.19229
 N24 N 0.21776 0.78241 -0.17878
 C25 C 0.55006 1.04490 -0.00921
 H26 H 0.55079 1.04474 0.01737
 C27 C 0.57232 1.06395 -0.02683
 H28 H 0.59022 1.07864 -0.01384
 C29 C 0.52652 1.02517 -0.05870
 H30 H 0.50911 1.00950 -0.07103
 C31 C 0.54837 1.04386 -0.07728
 H32 H 0.54754 1.04277 -0.10386
 N33 N 0.52766 1.02614 -0.02528
 C34 C 0.45017 1.00931 0.04633
 H35 H 0.44948 0.98277 0.04617
 C36 C 0.42785 1.02695 0.06540
 H37 H 0.40995 1.01400 0.08010
 C38 C 0.47365 1.05872 0.02658
 H39 H 0.49105 1.07101 0.01089
 C40 C 0.45173 1.07730 0.04529
 H41 H 0.45251 1.10385 0.04418
 Zn42 Zn 0.50013 0.99936 0.00069
 N43 N 0.47256 1.02534 0.02755
 C44 C 0.52663 0.97355 0.06006
 N45 N 0.52772 0.97256 0.02663
 C46 C 0.55014 0.95379 0.01053
 C47 C 0.57248 0.93475 0.02813
 C48 C 0.54857 0.95487 0.07860
 C49 C 0.45015 0.98951 -0.04490
 C50 C 0.42786 0.97192 -0.06401
 C51 C 0.45183 0.92151 -0.04399
 C52 C 0.47371 0.94005 -0.02525
 N53 N 0.47257 0.97343 -0.02615
 H54 H 0.50921 0.98922 0.07240
 H55 H 0.55082 0.95393 -0.01604
 H56 H 0.59039 0.92005 0.01511
 H57 H 0.54778 0.95599 0.10519
 H58 H 0.44942 1.01605 -0.04470
 H59 H 0.40995 0.98492 -0.07870
 H60 H 0.45266 0.89496 -0.04295
 H61 H 0.49114 0.92772 -0.00959
 C62 C 0.42859 1.06124 0.06479
 C63 C 0.57152 1.06334 -0.06117
 C64 C 0.42866 0.93763 -0.06347
 C65 C 0.57174 0.93538 0.06247
 C66 C -0.00939 0.54984 1.04505
 H67 H 0.01706 0.55056 1.04489
 C68 C -0.02697 0.57223 1.06413
 H69 H -0.01406 0.59020 1.07885
 C70 C -0.05862 0.52621 1.02529
 H71 H -0.07087 0.50872 1.00961
 C72 C -0.07714 0.54819 1.04402
 H73 H -0.10360 0.54736 1.04293
 N74 N -0.02535 0.52733 1.02626
 C75 C 0.04597 0.44946 1.00948
 H76 H 0.04585 0.44869 0.98290
 C77 C 0.06495 0.42711 1.02715
 H78 H 0.07962 0.40911 1.01420
 C79 C 0.02623 0.47318 1.05892
 H80 H 0.01059 0.49069 1.07120
 C81 C 0.04484 0.45124 1.07754
 H82 H 0.04371 0.45212 1.10412
 Zn83 Zn 0.00054 0.49962 0.99947
 N84 N 0.02724 0.47199 1.02550
 C85 C 0.05968 0.52606 0.97364
 N86 N 0.02641 0.52721 0.97265
 C87 C 0.01041 0.54968 0.95385
 C88 C 0.02796 0.57201 0.93477
 C89 C 0.07817 0.54799 0.95492
 C90 C -0.04483 0.44949 0.98956
 C91 C -0.06383 0.42713 0.97193
 C92 C -0.04382 0.45107 0.92148
 C93 C -0.02518 0.47302 0.94006
 N94 N -0.02613 0.47194 0.97349
 H95 H 0.07194 0.50860 0.98933
 H96 H -0.01604 0.55042 0.95399
 H97 H 0.01503 0.58996 0.92005
 H98 H 0.10463 0.54715 0.95603
 H99 H -0.04466 0.44881 1.01613
 H100 H -0.07848 0.40921 0.98492
 H101 H -0.04275 0.45187 0.89490
 H102 H -0.00957 0.49047 0.92774
 C103 C 0.06430 0.42796 1.06149
 C104 C -0.06114 0.57144 1.06353
 C105 C -0.06325 0.42789 0.93759
 C106 C 0.06214 0.57121 0.93540
 C107 C 1.04471 -0.00901 0.55003
 H108 H 1.04454 0.01753 0.55082
 C109 C 1.06374 -0.02667 0.57236
 H110 H 1.07840 -0.01374 0.59036
 C111 C 1.02506 -0.05839 0.52627
 H112 H 1.00945 -0.07065 0.50875
 C113 C 1.04373 -0.07699 0.54818
 H114 H 1.04266 -0.10354 0.54728
 N115 N 1.02601 -0.02500 0.52748
 C116 C 1.00921 0.04659 0.44973
 H117 H 0.98276 0.04648 0.44899
 C118 C 1.02678 0.06564 0.42738
 H119 H 1.01387 0.08036 0.40941
 C120 C 1.05845 0.02676 0.47335
 H121 H 1.07070 0.01106 0.49082
 C122 C 1.07696 0.04544 0.45141
 H123 H 1.10342 0.04430 0.45224
 Zn124 Zn 0.99931 0.00100 0.49984
 N125 N 1.02518 0.02778 0.47221
 C126 C 0.97356 0.06035 0.52651
 N127 N 0.97260 0.02697 0.52758
 C128 C 0.95391 0.01093 0.55007
 C129 C 0.93492 0.02854 0.57250
 C130 C 0.95493 0.07891 0.54854
 C131 C 0.98946 -0.04450 0.44956
 C132 C 0.97192 -0.06359 0.42717
 C133 C 0.92170 -0.04352 0.45127
 C134 C 0.94018 -0.02479 0.47326
 N135 N 0.97345 -0.02575 0.47211
 H136 H 0.98917 0.07265 0.50904
 H137 H 0.95407 -0.01562 0.55074
 H138 H 0.92028 0.01558 0.59046
 H139 H 0.95602 0.10547 0.54777
 H140 H 1.01591 -0.04434 0.44882
 H141 H 0.98486 -0.07829 0.40917
 H142 H 0.89524 -0.04245 0.45213
 H143 H 0.92791 -0.00914 0.49078
 C144 C 1.06096 0.06497 0.42818
 C145 C 1.06317 -0.06096 0.57147
 C146 C 0.93774 -0.06301 0.42799
 C147 C 0.93552 0.06284 0.57178
 C148 C 0.17625 0.25831 1.17635
 C149 C 0.16341 0.28136 1.16299
 C150 C 0.14766 0.30837 1.14661
 C151 C 0.15936 0.31928 1.11617
 C152 C 0.14316 0.34453 1.09951
 C153 C 0.11519 0.35897 1.11323
 C154 C 0.10370 0.34831 1.14384
 C155 C 0.11990 0.32306 1.16050
 C156 C 0.09765 0.38384 1.09537
 C157 C 0.08262 0.40422 1.08009
 H158 H 0.18073 0.30801 1.10515
 H159 H 0.15218 0.35249 1.07580
 H160 H 0.08203 0.35922 1.15461
 H161 H 0.11057 0.31474 1.18396
 C162 C -0.17493 0.74115 1.17686
 C163 C -0.16174 0.71810 1.16380
 C164 C -0.14556 0.69108 1.14780
 C165 C -0.11559 0.67951 1.15984
 C166 C -0.09910 0.65426 1.14343
 C167 C -0.11251 0.64047 1.11491
 C168 C -0.14266 0.65178 1.10307
 C169 C -0.15915 0.67704 1.11948
 C170 C -0.09480 0.61558 1.09717
 C171 C -0.07963 0.59520 1.08200
 H172 H -0.10480 0.69027 1.18164
 H173 H -0.07574 0.64578 1.15272
 H174 H -0.15319 0.64138 1.08097
 H175 H -0.18225 0.68588 1.10989
 C176 C -0.17645 0.25830 0.82389
 C177 C -0.16336 0.28134 0.83701
 C178 C -0.14734 0.30835 0.85313
 C179 C -0.11875 0.32174 0.83975
 C180 C -0.10234 0.34698 0.85622
 C181 C -0.11447 0.35893 0.88613
 C182 C -0.14326 0.34579 0.89933
 C183 C -0.15966 0.32056 0.88286
 C184 C -0.09677 0.38379 0.90386
 C185 C -0.08165 0.40416 0.91905
 H186 H -0.10894 0.31241 0.81684
 H187 H -0.08004 0.35689 0.84585
 H188 H -0.15278 0.35476 0.92251
 H189 H -0.18168 0.31030 0.89349
 C190 C 0.17549 0.74098 0.82255
 C191 C 0.16238 0.71790 0.83553
 C192 C 0.14629 0.69085 0.85144
 C193 C 0.11639 0.67922 0.83932
 C194 C 0.09997 0.65395 0.85566
 C195 C 0.11338 0.64020 0.88418
 C196 C 0.14347 0.65156 0.89609
 C197 C 0.15989 0.67684 0.87975
 C198 C 0.09573 0.61531 0.90185
 C199 C 0.08059 0.59494 0.91698
 H200 H 0.10559 0.68996 0.81752
 H201 H 0.07666 0.64544 0.84630
 H202 H 0.15400 0.64119 0.91819
 H203 H 0.18293 0.68572 0.88941
 C204 C 1.17520 0.17730 0.25849
 C205 C 1.16190 0.16443 0.28155
 C206 C 1.14560 0.14862 0.30857
 C207 C 1.15947 0.12079 0.32322
 C208 C 1.14290 0.10453 0.34847
 C209 C 1.11240 0.11605 0.35917
 C210 C 1.09870 0.14409 0.34477
 C211 C 1.11527 0.16035 0.31952
 C212 C 1.09464 0.09844 0.38405
 C213 C 1.07945 0.08336 0.40443
 H214 H 1.18285 0.11144 0.31486
 H215 H 1.15366 0.08280 0.35935
 H216 H 1.07508 0.15314 0.35277
 H217 H 1.10427 0.18178 0.30828
 C218 C 1.17629 -0.17546 0.74067
 C219 C 1.16324 -0.16217 0.71768
 C220 C 1.14725 -0.14588 0.69074
 C221 C 1.15922 -0.11581 0.67922
 C222 C 1.14284 -0.09921 0.65405
 C223 C 1.11441 -0.11261 0.64029
 C224 C 1.10264 -0.14286 0.65156
 C225 C 1.11903 -0.15945 0.67673
 C226 C 1.09672 -0.09479 0.61548
 C227 C 1.08159 -0.07954 0.59516
 H228 H 1.18095 -0.10503 0.68996
 H229 H 1.15208 -0.07578 0.64561
 H230 H 1.08062 -0.15338 0.64117
 H231 H 1.10950 -0.18263 0.68553
 C232 C 0.82469 -0.17699 0.25833
 C233 C 0.83773 -0.16379 0.28139
 C234 C 0.85375 -0.14764 0.30841
 C235 C 0.84048 -0.11883 0.32171
 C236 C 0.85685 -0.10230 0.34696
 C237 C 0.88656 -0.11453 0.35900
 C238 C 0.89965 -0.14355 0.34595
 C239 C 0.88328 -0.16007 0.32071
 C240 C 0.90419 -0.09672 0.38388
 C241 C 0.91930 -0.08151 0.40425
 H242 H 0.81772 -0.10894 0.31230
 H243 H 0.84657 -0.07983 0.35679
 H244 H 0.92266 -0.15315 0.35500
 H245 H 0.89382 -0.18226 0.31052
 C246 C 0.82315 0.17667 0.74216
 C247 C 0.83609 0.16351 0.71901
 C248 C 0.85193 0.14735 0.69187
 C249 C 0.83980 0.11743 0.68007
 C250 C 0.85606 0.10094 0.65471
 C251 C 0.88453 0.11430 0.64105
 C252 C 0.89647 0.14440 0.65259
 C253 C 0.88020 0.16089 0.67795
 C254 C 0.90212 0.09656 0.61606
 C255 C 0.91718 0.08137 0.59561
 H256 H 0.81803 0.10667 0.69074
 H257 H 0.84669 0.07762 0.64606
 H258 H 0.91853 0.15489 0.64228
 H259 H 0.88986 0.18395 0.68697
 C260 C 0.25883 1.17561 0.17688
 C261 C 0.28190 1.16233 0.16406
 C262 C 0.30894 1.14604 0.14832
 C263 C 0.31988 1.11562 0.16003
 C264 C 0.34514 1.09904 0.14381
 C265 C 0.35958 1.11281 0.11583
 C266 C 0.34890 1.14340 0.10434
 C267 C 0.32363 1.15998 0.12055
 C268 C 0.38447 1.09502 0.09824
 C269 C 0.40485 1.07979 0.08317
 H270 H 0.30861 1.10455 0.18140
 H271 H 0.35312 1.07534 0.15283
 H272 H 0.35982 1.15422 0.08265
 H273 H 0.31529 1.18343 0.11122
 C274 C 0.74055 1.17624 -0.17517
 C275 C 0.71758 1.16324 -0.16197
 C276 C 0.69065 1.14732 -0.14578
 C277 C 0.67680 1.11896 -0.15939
 C278 C 0.65164 1.10261 -0.14287
 C279 C 0.64023 1.11455 -0.11267
 C280 C 0.65384 1.14312 -0.09924
 C281 C 0.67899 1.15947 -0.11576
 C282 C 0.61545 1.09688 -0.09492
 C283 C 0.59516 1.08176 -0.07971
 H284 H 0.68571 1.10928 -0.18253
 H285 H 0.64138 1.08047 -0.15342
 H286 H 0.64528 1.15250 -0.07584
 H287 H 0.68961 1.18130 -0.10495
 C288 C 0.25929 0.82458 -0.17707
 C289 C 0.28232 0.83758 -0.16394
 C290 C 0.30931 0.85356 -0.14788
 C291 C 0.32249 0.84033 -0.11900
 C292 C 0.34770 0.85669 -0.10254
 C293 C 0.35984 0.88635 -0.11490
 C294 C 0.34692 0.89940 -0.14398
 C295 C 0.32171 0.88304 -0.16044
 C296 C 0.38467 0.90400 -0.09714
 C297 C 0.40499 0.91914 -0.08195
 H298 H 0.31300 0.81762 -0.10901
 H299 H 0.35743 0.84645 -0.08001
 H300 H 0.35604 0.92238 -0.15368
 H301 H 0.31162 0.89355 -0.18268
 C302 C 0.74167 0.82302 0.17606
 C303 C 0.71857 0.83593 0.16293
 C304 C 0.69150 0.85175 0.14682
 C305 C 0.67747 0.88003 0.16050
 C306 C 0.65217 0.89629 0.14405
 C307 C 0.64080 0.88434 0.11385
 C308 C 0.65457 0.85585 0.10035
 C309 C 0.67987 0.83959 0.11680
 C310 C 0.61588 0.90194 0.09615
 C311 C 0.59549 0.91701 0.08097
 H312 H 0.68636 0.88971 0.18364
 H313 H 0.64178 0.91836 0.15465
 H314 H 0.64605 0.84647 0.07695
 H315 H 0.69062 0.81782 0.10593
   
