data_POSCAR
  _audit_creation_date              2014-09-24
  _audit_creation_method            'ToBaCCo'
  _symmetry_space_group_name_H-M    'P1'
  _symmetry_Int_Tables_number       1
  _symmetry_cell_setting            triclinic
  loop_
  _symmetry_equiv_pos_as_xyz
 x,y,z
_cell_length_a 19.2470
_cell_length_b 19.4842
_cell_length_c 19.3526
_cell_angle_alpha 90.381200
_cell_angle_beta 88.854000
_cell_angle_gamma 90.561000
loop_
  _atom_site_label
  _atom_site_type_symbol
  _atom_site_fract_x
  _atom_site_fract_y
  _atom_site_fract_z
C1 C 0.29391 0.90417 -0.46093
 C2 C 0.28327 0.92365 -0.52756
 C3 C 0.34096 0.96247 -0.54797
 N4 N 0.38695 0.96593 -0.49610
 C5 C 0.35777 0.93121 -0.44248
 C6 C 0.34921 0.99598 -0.61245
 C7 C 0.41291 1.02850 -0.63283
 C8 C 0.41944 1.08019 -0.68173
 C9 C 0.48902 1.09387 -0.69058
 C10 C 0.52344 1.05202 -0.64520
 N11 N 0.47672 1.01296 -0.60931
 C12 C 0.59647 1.04977 -0.63917
 C13 C 0.62683 1.04179 -0.57357
 C14 C 0.68986 1.07058 -0.55430
 C15 C 0.69976 1.05244 -0.48718
 C16 C 0.64161 1.01478 -0.46674
 N17 N 0.59650 1.00932 -0.51920
 C18 C 0.63279 0.98434 -0.40124
 C19 C 0.56953 0.95446 -0.37710
 C20 C 0.56232 0.91563 -0.31755
 C21 C 0.49298 0.90024 -0.30941
 C22 C 0.45951 0.92857 -0.36514
 N23 N 0.50661 0.96180 -0.40602
 C24 C 0.38730 0.92305 -0.37660
 H25 H 0.25911 0.87230 -0.43007
 H26 H 0.23832 0.90968 -0.55744
 H27 H 0.49561 0.99331 -0.44734
 H28 H 0.37834 1.10621 -0.70809
 H29 H 0.51131 1.13227 -0.72478
 H30 H 0.72423 1.10341 -0.58457
 H31 H 0.74407 1.06676 -0.45647
 H32 H 0.47085 0.86982 -0.26785
 H33 H 0.48838 0.97271 -0.57643
 H34 H 0.60268 0.89969 -0.28319
 C35 C -0.68411 1.56174 -0.06783
 C36 C -0.69258 1.49193 -0.07186
 C37 C -0.64698 1.46393 -0.02545
 N38 N -0.61133 1.51433 0.00722
 C39 C -0.63507 1.57439 -0.01760
 C40 C -0.64120 1.39314 -0.01119
 C41 C -0.57974 1.36712 0.01839
 C42 C -0.57404 1.30581 0.05395
 C43 C -0.50478 1.29735 0.06745
 C44 C -0.47018 1.35503 0.04246
 N45 N -0.51625 1.39762 0.01329
 C46 C -0.39735 1.36517 0.04238
 C47 C -0.36694 1.43161 0.04350
 C48 C -0.29622 1.44608 0.04605
 C49 C -0.28945 1.51572 0.05246
 C50 C -0.35615 1.54174 0.05560
 N51 N -0.40343 1.49030 0.05038
 C52 C -0.37252 1.61116 0.06814
 C53 C -0.44156 1.63528 0.06809
 C54 C -0.46379 1.69527 0.10002
 C55 C -0.53189 1.70384 0.08245
 C56 C -0.54960 1.64861 0.04036
 N57 N -0.49445 1.60649 0.03269
 C58 C -0.61394 1.64001 0.00700
 H59 H -0.71049 1.59869 -0.09921
 H60 H -0.72717 1.46479 -0.10623
 H61 H -0.49083 1.56502 -0.00142
 H62 H -0.61522 1.27063 0.06936
 H63 H -0.48296 1.25407 0.09382
 H64 H -0.25324 1.41088 0.04613
 H65 H -0.24067 1.54338 0.05620
 H66 H -0.56453 1.74600 0.09902
 H67 H -0.50392 1.44142 -0.01528
 H68 H -0.43388 1.72961 0.13233
 C69 C -0.03119 0.50736 0.29203
 C70 C -0.02996 0.43769 0.30161
 C71 C 0.00664 0.42662 0.36155
 N72 N 0.02564 0.48737 0.39008
 C73 C 0.00294 0.53662 0.34738
 C74 C 0.02491 0.36190 0.38852
 C75 C 0.04301 0.35526 0.45877
 C76 C 0.08046 0.30112 0.48487
 C77 C 0.08465 0.31178 0.55467
 C78 C 0.04879 0.37164 0.57003
 N79 N 0.02479 0.39886 0.51093
 C80 C 0.03902 0.39871 0.63789
 C81 C 0.03162 0.47022 0.65074
 C82 C 0.02661 0.50029 0.71582
 C83 C 0.02458 0.56939 0.70624
 C84 C 0.02438 0.58059 0.63544
 N85 N 0.03104 0.51960 0.60169
 C86 C 0.02595 0.64631 0.60314
 C87 C 0.04168 0.65255 0.53140
 C88 C 0.07231 0.70937 0.49958
 C89 C 0.07027 0.69796 0.42944
 C90 C 0.03740 0.63516 0.41989
 N91 N 0.02149 0.60717 0.48221
 C92 C 0.01742 0.60723 0.35539
 H93 H -0.05519 0.53351 0.24964
 H94 H -0.05396 0.39981 0.26839
 H95 H -0.00970 0.56383 0.49036
 H96 H 0.10361 0.25881 0.45648
 H97 H 0.11195 0.27937 0.59007
 H98 H 0.02663 0.47641 0.76602
 H99 H 0.02736 0.60629 0.74799
 H100 H 0.09014 0.73257 0.39011
 H101 H -0.00807 0.44082 0.50734
 H102 H 0.09445 0.75452 0.52371
 O103 O -0.19414 1.02211 -0.07493
 O104 O 0.15520 0.96270 -0.12432
 O105 O -0.01995 1.07360 -0.19401
 O106 O -0.03892 0.89142 -0.17200
 O107 O -0.04190 0.81799 -0.07884
 O108 O 0.00631 1.16524 -0.12275
 O109 O 0.06066 0.96901 -0.19538
 O110 O -0.12304 0.99881 -0.16934
 Zr111 Zr -0.02327 0.98883 -0.12701
 O112 O 0.03697 0.92416 -0.07003
 O113 O -0.06788 1.06583 -0.06870
 C114 C -0.18282 1.01272 -0.14046
 C115 C 0.12615 0.96056 -0.18432
 C116 C -0.00716 1.13802 -0.18258
 C117 C -0.04339 0.83095 -0.14464
 H118 H 0.08529 1.06815 -0.12158
 O119 O 0.05553 1.04671 -0.08535
 H120 H -0.12287 0.91585 -0.07498
 O121 O -0.08595 0.94344 -0.05293
 O122 O 0.18167 0.98722 0.05836
 O123 O -0.16971 1.03437 0.10907
 O124 O 0.11266 1.16165 -0.03813
 O125 O 0.05772 0.81360 0.00080
 O126 O -0.12589 0.84298 0.02862
 O127 O -0.07470 1.18865 -0.02257
 O128 O 0.03064 1.11438 0.15487
 O129 O 0.00079 0.93192 0.17927
 O130 O 0.03215 1.18658 0.06072
 O131 O -0.02273 0.83949 0.10780
 O132 O 0.18273 1.06608 -0.04020
 O133 O -0.16906 1.11870 0.00295
 O134 O -0.19608 0.93828 0.02763
 O135 O 0.15373 0.88249 -0.02149
 O136 O 0.11064 1.01048 0.15296
 O137 O -0.07489 1.03129 0.17999
 Zr138 Zr 0.11286 0.98309 -0.02468
 Zr139 Zr -0.12628 1.02017 0.00893
 Zr140 Zr 0.01100 1.12099 -0.02344
 Zr141 Zr -0.02515 0.88312 0.00770
 Zr142 Zr 0.00997 1.01611 0.11150
 O143 O -0.06905 0.95735 0.07039
 O144 O 0.07272 1.06070 0.03685
 C145 C 0.17080 0.99898 0.12360
 C146 C -0.14091 1.03543 0.16916
 C147 C 0.17280 1.13182 -0.04206
 C148 C 0.12359 0.82333 -0.01080
 C149 C -0.18581 0.87302 0.03339
 C150 C -0.14069 1.17762 -0.01141
 C151 C 0.03704 1.17442 0.12621
 C152 C -0.01243 0.86742 0.16806
 H153 H -0.07246 1.11559 0.08332
 O154 O -0.05081 1.07955 0.05409
 H155 H 0.08225 0.90894 0.08178
 O156 O 0.05363 0.93872 0.05283
 C157 C 0.29008 0.99982 0.34529
 C158 C 0.29306 0.99960 0.27612
 C159 C 0.22933 1.00258 0.23561
 C160 C 0.23267 0.99788 0.16683
 H161 H 0.34241 0.99416 0.24878
 H162 H 0.17956 1.00802 0.26221
 H163 H 0.23885 0.99792 0.36951
 H164 H 0.28278 0.99166 0.14103
 C165 C -0.36181 1.06051 0.30031
 C166 C -0.29567 1.03988 0.29400
 C167 C -0.25443 1.04778 0.22978
 C168 C -0.18574 1.03882 0.23127
 H169 H -0.27133 1.01267 0.33547
 H170 H -0.28000 1.05875 0.18175
 H171 H -0.38544 1.07957 0.25398
 H172 H -0.16129 1.03025 0.28047
 C173 C -0.30481 0.98101 -0.35765
 C174 C -0.30469 1.00482 -0.29291
 C175 C -0.24172 1.00129 -0.25154
 C176 C -0.24380 1.01771 -0.18453
 H177 H -0.35171 1.02628 -0.27018
 H178 H -0.19381 0.98356 -0.27575
 H179 H -0.25699 0.96203 -0.38104
 H180 H -0.29245 1.03387 -0.16062
 C181 C 0.34034 0.90711 -0.31636
 C182 C 0.28066 0.94074 -0.30702
 C183 C 0.23668 0.93309 -0.24467
 C184 C 0.17065 0.95315 -0.24624
 H185 H 0.26452 0.97725 -0.34545
 H186 H 0.25884 0.91447 -0.19736
 H187 H 0.35658 0.87234 -0.27660
 H188 H 0.14894 0.96840 -0.29506
 C189 C 0.29950 1.35113 -0.02340
 C190 C 0.30050 1.28344 -0.03643
 C191 C 0.23511 1.24343 -0.04068
 C192 C 0.23602 1.17509 -0.04770
 H193 H 0.34925 1.25686 -0.04374
 H194 H 0.18603 1.26967 -0.03368
 H195 H 0.24928 1.37588 -0.02464
 H196 H 0.28553 1.14933 -0.05318
 C197 C 0.34466 0.69918 -0.00122
 C198 C 0.27515 0.69852 -0.00423
 C199 C 0.23587 0.76269 -0.01068
 C200 C 0.16646 0.76121 -0.00956
 H201 H 0.24608 0.65108 0.00230
 H202 H 0.26369 0.81120 -0.01469
 H203 H 0.37010 0.74908 -0.00015
 H204 H 0.13954 0.71227 -0.00458
 C205 C -0.31433 0.65964 0.08305
 C206 C -0.31007 0.72163 0.05425
 C207 C -0.24706 0.76437 0.05943
 C208 C -0.24862 0.83022 0.04131
 H209 H -0.35207 0.73973 0.02283
 H210 H -0.19886 0.74124 0.07500
 H211 H -0.27116 0.64193 0.11306
 H212 H -0.29788 0.85317 0.02873
 C213 C -0.35228 1.30375 0.04656
 C214 C -0.29880 1.29370 0.00254
 C215 C -0.25239 1.23491 0.00976
 C216 C -0.18731 1.23678 -0.01604
 H217 H -0.28766 1.33057 -0.03801
 H218 H -0.27120 1.19039 0.03807
 H219 H -0.36376 1.26573 0.08584
 H220 H -0.16766 1.28302 -0.04076
 C221 C 0.02561 1.30153 0.34693
 C222 C 0.04009 1.30004 0.27884
 C223 C 0.03728 1.23518 0.23896
 C224 C 0.04808 1.23528 0.17049
 H225 H 0.05540 1.34651 0.25194
 H226 H 0.02275 1.18797 0.26509
 H227 H 0.01835 1.25246 0.37236
 H228 H 0.06051 1.28336 0.14493
 C229 C 0.04099 1.35407 -0.30446
 C230 C 0.01666 1.28937 -0.30526
 C231 C 0.01647 1.24729 -0.24233
 C232 C -0.00709 1.18264 -0.24359
 H233 H -0.00630 1.26801 -0.35144
 H234 H 0.03628 1.26917 -0.19489
 H235 H 0.05788 1.37362 -0.25514
 H236 H -0.02531 1.16083 -0.29173
 C237 C 0.01613 0.70765 -0.35755
 C238 C -0.02658 0.71273 -0.30194
 C239 C -0.02759 0.77483 -0.25811
 C240 C -0.04971 0.77180 -0.19203
 H241 H -0.06036 0.67038 -0.28699
 H242 H -0.00497 0.82197 -0.27830
 H243 H 0.04044 0.75486 -0.37504
 H244 H -0.06768 0.72324 -0.17085
 C245 C 0.01581 0.65065 0.29208
 C246 C -0.00822 0.71487 0.29162
 C247 C -0.00792 0.75539 0.22737
 C248 C -0.01548 0.82351 0.22988
 H249 H -0.02755 0.73824 0.33910
 H250 H 0.00126 0.72979 0.17816
 H251 H 0.03277 0.62764 0.24351
 H252 H -0.02090 0.84876 0.27978
   
