data_POSCAR
  _audit_creation_date              2014-09-24
  _audit_creation_method            'ToBaCCo'
  _symmetry_space_group_name_H-M    'P1'
  _symmetry_Int_Tables_number       1
  _symmetry_cell_setting            triclinic
  loop_
  _symmetry_equiv_pos_as_xyz
 x,y,z
_cell_length_a 21.6281
_cell_length_b 21.7548
_cell_length_c 39.6266
_cell_angle_alpha 89.939100
_cell_angle_beta 90.104500
_cell_angle_gamma 121.688100
loop_
  _atom_site_label
  _atom_site_type_symbol
  _atom_site_fract_x
  _atom_site_fract_y
  _atom_site_fract_z
Zn1 Zn 0.96761 0.06102 1.00847
 Zn2 Zn 1.08654 0.03768 1.01739
 Zn3 Zn 0.93645 -0.08826 1.01757
 Zn4 Zn 1.00009 -0.01360 0.95563
 O5 O 0.99742 -0.00060 1.00003
 O6 O 1.04041 0.14703 1.02452
 O7 O 1.09967 -0.02765 1.03818
 O8 O 0.87349 -0.08760 1.04705
 O9 O 1.10599 0.10642 1.04711
 O10 O 0.89817 0.02439 1.04015
 O11 O 0.98609 -0.12138 1.03905
 O12 O 0.97027 -0.10570 0.94590
 O13 O 1.15443 0.08156 0.98550
 O14 O 0.88588 -0.15435 0.98532
 O15 O 1.08941 0.04252 0.93840
 O16 O 0.94109 0.00789 0.93387
 O17 O 0.92781 0.07564 0.97167
 C18 C 1.09190 0.15577 1.04359
 C19 C 1.05328 -0.09292 1.04565
 C20 C 0.86282 -0.03700 1.05458
 C21 C 0.91391 -0.16029 0.95824
 C22 C 1.14971 0.08126 0.95355
 C23 C 0.91618 0.04715 0.94248
 Zn24 Zn 0.06047 0.97080 0.50437
 Zn25 Zn -0.08971 0.93442 0.51731
 Zn26 Zn 0.03420 1.08391 0.52113
 Zn27 Zn -0.01810 1.00769 0.45620
 O28 O -0.00342 0.99904 0.49985
 O29 O 0.02960 0.90039 0.53562
 O30 O -0.12477 0.97779 0.54234
 O31 O 0.10645 1.09929 0.54894
 O32 O -0.08454 0.87036 0.54377
 O33 O 0.14824 1.04503 0.51742
 O34 O -0.03173 1.09082 0.54545
 O35 O 0.03586 1.09943 0.44216
 O36 O -0.15666 0.88703 0.48495
 O37 O 0.07255 1.15679 0.49125
 O38 O -0.11193 0.97635 0.44803
 O39 O 0.00452 0.95423 0.43058
 O40 O 0.07144 0.93384 0.46601
 C41 C -0.03177 0.86180 0.55005
 C42 C -0.09723 1.04273 0.55210
 C43 C 0.15733 1.08961 0.54050
 C44 C 0.07139 1.15751 0.45913
 C45 C -0.16506 0.91753 0.45943
 C46 C 0.04281 0.92697 0.43712
 O47 O 0.42307 0.78916 0.21831
 O48 O 0.28932 0.75921 0.21918
 C49 C 0.24494 0.70833 0.19940
 O50 O 0.22247 0.64229 0.20472
 O51 O 0.23866 0.53491 0.22027
 C52 C 0.29280 0.54190 0.20420
 O53 O 0.35752 0.58825 0.21243
 O54 O 0.46396 0.71633 0.22976
 C55 C 0.46872 0.77013 0.21441
 O56 O 0.42813 0.78618 0.28648
 O57 O 0.29318 0.75323 0.28801
 C58 C 0.22496 0.71135 0.28745
 O59 O 0.19376 0.65602 0.26861
 O60 O 0.22202 0.55726 0.28591
 C61 C 0.26420 0.53614 0.29470
 O62 O 0.32123 0.55151 0.27827
 O63 O 0.42290 0.68170 0.29487
 C64 C 0.44223 0.74527 0.30363
 Cr65 Cr 0.35724 0.76840 0.25290
 Cr66 Cr 0.22277 0.59979 0.24512
 Cr67 Cr 0.38914 0.63557 0.25367
 O68 O 0.32356 0.66848 0.25045
 O69 O 0.79025 0.43649 0.78446
 O70 O 0.75112 0.30091 0.79017
 C71 C 0.70499 0.23386 0.79196
 O72 O 0.64832 0.20316 0.77371
 O73 O 0.55209 0.23935 0.78521
 C74 C 0.53388 0.28505 0.79084
 O75 O 0.55660 0.34203 0.77328
 O76 O 0.68846 0.43930 0.78935
 C77 C 0.75047 0.45492 0.79972
 O78 O 0.79525 0.42403 0.71632
 O79 O 0.75781 0.28883 0.72202
 C80 C 0.70550 0.24199 0.70355
 O81 O 0.63981 0.22345 0.70803
 O82 O 0.53626 0.24954 0.71868
 C83 C 0.54703 0.30214 0.70034
 O84 O 0.59566 0.36685 0.70694
 O85 O 0.72572 0.47011 0.72399
 C86 C 0.77840 0.47036 0.70975
 Cr87 Cr 0.76996 0.36161 0.75307
 Cr88 Cr 0.59680 0.23261 0.74655
 Cr89 Cr 0.64258 0.40209 0.74837
 O90 O 0.67027 0.33239 0.74941
 C91 C 0.15497 0.31557 0.10129
 C92 C 0.22891 0.34474 0.10007
 C93 C 0.26083 0.31676 0.07993
 C94 C 0.21459 0.25543 0.06064
 C95 C 0.13824 0.22420 0.06147
 C96 C 0.10794 0.25540 0.08162
 O97 O 0.13578 0.34759 0.12387
 C98 C 0.19891 0.39790 0.13711
 C99 C 0.25749 0.39857 0.12328
 C100 C 0.32842 0.44501 0.13417
 C101 C 0.33955 0.49274 0.16052
 C102 C 0.28003 0.49270 0.17567
 C103 C 0.20865 0.44466 0.16350
 H104 H 0.31902 0.33999 0.07982
 H105 H 0.23803 0.23145 0.04539
 H106 H 0.04969 0.23130 0.08329
 H107 H 0.37354 0.44402 0.12301
 H108 H 0.39450 0.52891 0.16942
 H109 H 0.16197 0.44295 0.17449
 C110 C 0.71289 0.87359 0.11996
 C111 C 0.69990 0.92815 0.12560
 C112 C 0.73839 0.99479 0.10961
 C113 C 0.79247 1.00577 0.08665
 C114 C 0.80693 0.95034 0.07992
 C115 C 0.76647 0.88324 0.09707
 O116 O 0.66919 0.81412 0.13759
 C117 C 0.62767 0.83166 0.15462
 C118 C 0.64437 0.90082 0.14801
 C119 C 0.60689 0.93012 0.16220
 C120 C 0.54950 0.88632 0.18406
 C121 C 0.53073 0.81459 0.19156
 C122 C 0.57101 0.78710 0.17673
 H123 H 0.72689 1.03675 0.11448
 H124 H 0.82251 1.05738 0.07389
 H125 H 0.77582 0.83971 0.09252
 H126 H 0.62094 0.98462 0.15643
 H127 H 0.51980 0.90860 0.19525
 H128 H 0.55774 0.73253 0.18168
 C129 C 0.15246 0.84948 0.10336
 C130 C 0.11748 0.77717 0.09561
 C131 C 0.06211 0.74451 0.07180
 C132 C 0.04163 0.78818 0.05536
 C133 C 0.07731 0.86304 0.06261
 C134 C 0.13413 0.89431 0.08670
 O135 O 0.20000 0.86844 0.12844
 C136 C 0.19492 0.80671 0.13662
 C137 C 0.14559 0.74953 0.11704
 C138 C 0.12950 0.67950 0.12184
 C139 C 0.16481 0.66744 0.14827
 C140 C 0.21464 0.72493 0.16966
 C141 C 0.23066 0.79595 0.16328
 H142 H 0.03465 0.68721 0.06659
 H143 H -0.00192 0.76381 0.03696
 H144 H 0.16121 0.95106 0.09313
 H145 H 0.09015 0.63541 0.10616
 H146 H 0.15168 0.61267 0.15249
 H147 H 0.26772 0.84089 0.17920
 C148 C 0.88283 0.71132 0.61457
 C149 C 0.93462 0.69296 0.61669
 C150 C 0.99903 0.72847 0.59838
 C151 C 1.01026 0.78486 0.57687
 C152 C 0.95717 0.80427 0.57387
 C153 C 0.89264 0.76681 0.59324
 O154 O 0.82551 0.67102 0.63406
 C155 C 0.84132 0.62607 0.64875
 C156 C 0.90731 0.63697 0.63891
 C157 C 0.93385 0.59505 0.65087
 C158 C 0.89074 0.53984 0.67398
 C159 C 0.82265 0.52788 0.68484
 C160 C 0.79787 0.57196 0.67187
 H161 H 1.03908 0.71315 0.60047
 H162 H 1.05987 0.81264 0.56225
 H163 H 0.85099 0.78010 0.59168
 H164 H 0.98583 0.60440 0.64268
 H165 H 0.91081 0.50692 0.68362
 H166 H 0.74612 0.56421 0.67938
 C167 C 0.30060 0.16329 0.60783
 C168 C 0.35868 0.21793 0.59047
 C169 C 0.35493 0.23123 0.55638
 C170 C 0.28845 0.18681 0.53968
 C171 C 0.22773 0.13165 0.55745
 C172 C 0.23382 0.11970 0.59194
 O173 O 0.31572 0.15830 0.63978
 C174 C 0.38466 0.21114 0.64277
 C175 C 0.41345 0.24989 0.61350
 C176 C 0.48459 0.30854 0.61143
 C177 C 0.52792 0.32728 0.64063
 C178 C 0.49985 0.28646 0.67071
 C179 C 0.42705 0.22784 0.67173
 H180 H 0.40137 0.27414 0.54314
 H181 H 0.28360 0.19628 0.51324
 H182 H 0.18793 0.07778 0.60591
 H183 H 0.50600 0.33857 0.58820
 H184 H 0.58375 0.37205 0.63955
 H185 H 0.40411 0.19600 0.69441
 C186 C 0.84340 0.13863 0.61109
 C187 C 0.76929 0.09628 0.60723
 C188 C 0.73575 0.03620 0.58625
 C189 C 0.78048 0.01893 0.56839
 C190 C 0.85724 0.06208 0.57151
 C191 C 0.88911 0.12312 0.59310
 O192 O 0.86374 0.19170 0.63331
 C193 C 0.80098 0.18261 0.64359
 C194 C 0.74178 0.12520 0.62817
 C195 C 0.67081 0.10513 0.63520
 C196 C 0.66010 0.14538 0.65942
 C197 C 0.71993 0.20427 0.67641
 C198 C 0.79163 0.22337 0.66807
 H199 H 0.67720 0.00343 0.58391
 H200 H 0.75529 -0.02770 0.55188
 H201 H 0.94745 0.15663 0.59625
 H202 H 0.62518 0.05963 0.62271
 H203 H 0.60475 0.12942 0.66532
 H204 H 0.83846 0.26764 0.68055
 C205 C 0.29169 0.14739 0.88543
 C206 C 0.33949 0.21666 0.89650
 C207 C 0.32912 0.24401 0.92622
 C208 C 0.26678 0.19813 0.94522
 C209 C 0.21580 0.12725 0.93380
 C210 C 0.22837 0.10162 0.90342
 O211 O 0.31287 0.13118 0.85717
 C212 C 0.37508 0.19166 0.85011
 C213 C 0.39339 0.24594 0.87315
 C214 C 0.45548 0.31442 0.87010
 C215 C 0.50068 0.32730 0.84222
 C216 C 0.48386 0.27149 0.81875
 C217 C 0.42026 0.20270 0.82277
 H218 H 0.36783 0.29844 0.93458
 H219 H 0.25739 0.21813 0.96847
 H220 H 0.19058 0.04745 0.89438
 H221 H 0.46851 0.35640 0.88843
 H222 H 0.54957 0.38004 0.83928
 H223 H 0.40622 0.15947 0.80500
 C224 C 0.87583 0.69450 0.89442
 C225 C 0.82055 0.63459 0.91033
 C226 C 0.79303 0.63796 0.94150
 C227 C 0.82404 0.70583 0.95705
 C228 C 0.88140 0.76867 0.94129
 C229 C 0.90767 0.76252 0.90949
 O230 O 0.89110 0.68019 0.86403
 C231 C 0.84432 0.60965 0.86066
 C232 C 0.80007 0.57925 0.88838
 C233 C 0.74380 0.50731 0.88944
 C234 C 0.73133 0.46551 0.86044
 C235 C 0.77529 0.49582 0.83137
 C236 C 0.83360 0.56853 0.83165
 H237 H 0.74873 0.59014 0.95328
 H238 H 0.80326 0.70929 0.98135
 H239 H 0.95081 0.80935 0.89657
 H240 H 0.70887 0.48498 0.91128
 H241 H 0.68560 0.41026 0.86004
 H242 H 0.86595 0.59348 0.80927
 C243 C 0.83493 0.13402 0.89105
 C244 C 0.78572 0.07602 0.87183
 C245 C 0.77729 0.00825 0.87424
 C246 C 0.82132 -0.00019 0.89746
 C247 C 0.87140 0.05825 0.91810
 C248 C 0.87793 0.12627 0.91500
 O249 O 0.83720 0.19467 0.88335
 C250 C 0.78810 0.17434 0.85888
 C251 C 0.75458 0.10209 0.85121
 C252 C 0.70207 0.06932 0.82618
 C253 C 0.68403 0.11295 0.80790
 C254 C 0.71935 0.18827 0.81443
 C255 C 0.77177 0.21914 0.84063
 H256 H 0.73896 -0.03624 0.85846
 H257 H 0.81590 -0.05244 0.89966
 H258 H 0.91655 0.17201 0.93011
 H259 H 0.67659 0.01234 0.82059
 H260 H 0.64433 0.08834 0.78782
 H261 H 0.80001 0.27638 0.84615
 C262 C 0.68507 0.87782 0.39737
 C263 C 0.62628 0.82150 0.41349
 C264 C 0.63186 0.79415 0.44429
 C265 C 0.70087 0.82632 0.45923
 C266 C 0.76263 0.88467 0.44324
 C267 C 0.75421 0.91095 0.41188
 O268 O 0.66877 0.89229 0.36720
 C269 C 0.59814 0.84391 0.36418
 C270 C 0.56962 0.79948 0.39192
 C271 C 0.49831 0.74142 0.39321
 C272 C 0.45523 0.72723 0.36439
 C273 C 0.48362 0.77125 0.33525
 C274 C 0.55559 0.83156 0.33538
 H275 H 0.58493 0.74897 0.45620
 H276 H 0.70608 0.80554 0.48321
 H277 H 0.80025 0.95471 0.39878
 H278 H 0.47756 0.70640 0.41505
 H279 H 0.40063 0.68016 0.36417
 H280 H 0.57926 0.86413 0.31296
 C281 C 0.15739 0.29704 0.38989
 C282 C 0.17739 0.35902 0.40768
 C283 C 0.16631 0.35918 0.44222
 C284 C 0.13282 0.29260 0.45911
 C285 C 0.11023 0.22754 0.44125
 C286 C 0.12329 0.23017 0.40610
 O287 O 0.17133 0.30852 0.35709
 C288 C 0.20035 0.37927 0.35409
 C289 C 0.20486 0.41259 0.38431
 C290 C 0.22947 0.48570 0.38677
 C291 C 0.24973 0.52595 0.35680
 C292 C 0.24632 0.49296 0.32550
 C293 C 0.22193 0.41877 0.32405
 H294 H 0.18223 0.40868 0.45562
 H295 H 0.12307 0.29165 0.48595
 H296 H 0.10668 0.18160 0.39170
 H297 H 0.23134 0.51043 0.41074
 H298 H 0.26748 0.58266 0.35783
 H299 H 0.21742 0.39234 0.30023
 C300 C 0.12624 0.84449 0.38449
 C301 C 0.07107 0.80513 0.36177
 C302 C 0.00656 0.80474 0.36181
 C303 C -0.00161 0.84631 0.38643
 C304 C 0.05378 0.88601 0.41066
 C305 C 0.11859 0.88487 0.40965
 O306 O 0.18428 0.83984 0.37919
 C307 C 0.16516 0.79627 0.35266
 C308 C 0.09612 0.77294 0.34128
 C309 C 0.06506 0.72686 0.31383
 C310 C 0.10723 0.70468 0.29713
 C311 C 0.17950 0.72969 0.30768
 C312 C 0.20856 0.77583 0.33608
 H313 H -0.03575 0.77395 0.34343
 H314 H -0.05153 0.84658 0.38701
 H315 H 0.16206 0.91527 0.42760
 H316 H 0.01058 0.70918 0.30537
 H317 H 0.08433 0.66989 0.27529
 H318 H 0.26348 0.79593 0.34471
   
