data_POSCAR
  _audit_creation_date              2014-09-24
  _audit_creation_method            'ToBaCCo'
  _symmetry_space_group_name_H-M    'P1'
  _symmetry_Int_Tables_number       1
  _symmetry_cell_setting            triclinic
  loop_
  _symmetry_equiv_pos_as_xyz
 x,y,z
_cell_length_a 44.5633
_cell_length_b 41.7479
_cell_length_c 43.5174
_cell_angle_alpha 84.346000
_cell_angle_beta 94.861200
_cell_angle_gamma 94.426600
loop_
  _atom_site_label
  _atom_site_type_symbol
  _atom_site_fract_x
  _atom_site_fract_y
  _atom_site_fract_z
C1 C 0.29370 0.30716 0.24556
 H2 H 0.29626 0.30700 0.27052
 C3 C 0.31324 0.32712 0.22740
 H4 H 0.33055 0.34263 0.23856
 C5 C 0.26813 0.28682 0.20080
 H6 H 0.25108 0.27051 0.19050
 C7 C 0.28713 0.30640 0.18178
 H8 H 0.28437 0.30489 0.15700
 N9 N 0.27157 0.28770 0.23207
 C10 C 0.20444 0.26691 0.30012
 H11 H 0.20277 0.24081 0.30179
 C12 C 0.18643 0.28316 0.31729
 H13 H 0.17121 0.26934 0.33251
 C14 C 0.22651 0.31650 0.27826
 H15 H 0.24174 0.32943 0.26259
 C16 C 0.20894 0.33373 0.29502
 H17 H 0.21087 0.35984 0.29203
 Zn18 Zn 0.24723 0.25981 0.25833
 N19 N 0.22421 0.28368 0.28134
 C20 C 0.27384 0.23284 0.31629
 N21 N 0.27363 0.23421 0.28490
 C22 C 0.29296 0.21758 0.27109
 C23 C 0.31282 0.19768 0.28891
 C24 C 0.29340 0.21322 0.33504
 C25 C 0.19876 0.24733 0.21452
 C26 C 0.17891 0.22873 0.19569
 C27 C 0.20192 0.18101 0.21971
 C28 C 0.22132 0.20051 0.23801
 N29 N 0.21989 0.23310 0.23463
 H30 H 0.25877 0.24676 0.32687
 H31 H 0.29270 0.21960 0.24609
 H32 H 0.32800 0.18464 0.27742
 H33 H 0.29277 0.21182 0.35996
 H34 H 0.19779 0.27327 0.21264
 H35 H 0.16297 0.24062 0.17906
 H36 H 0.20353 0.15513 0.22266
 H37 H 0.23756 0.18949 0.25480
 C38 C 0.18859 0.31704 0.31491
 C39 C 0.31011 0.32685 0.19504
 C40 C 0.18066 0.19512 0.19784
 C41 C 0.31301 0.19506 0.32135
 C42 C 0.79146 0.80821 0.23812
 H43 H 0.79429 0.80822 0.26306
 C44 C 0.81122 0.82753 0.21969
 H45 H 0.82934 0.84152 0.23137
 C46 C 0.76560 0.78738 0.19389
 H47 H 0.74808 0.77138 0.18388
 C48 C 0.78482 0.80621 0.17455
 H49 H 0.78036 0.80503 0.14988
 N50 N 0.76918 0.78870 0.22505
 C51 C 0.70249 0.76772 0.29357
 H52 H 0.70086 0.74164 0.29500
 C53 C 0.68463 0.78371 0.31113
 H54 H 0.66957 0.76968 0.32638
 C55 C 0.72447 0.81755 0.27212
 H56 H 0.73968 0.83065 0.25654
 C57 C 0.70703 0.83452 0.28930
 H58 H 0.70902 0.86064 0.28668
 Zn59 Zn 0.74522 0.76092 0.25178
 N60 N 0.72216 0.78473 0.27484
 C61 C 0.77247 0.73536 0.30985
 N62 N 0.77206 0.73598 0.27850
 C63 C 0.79170 0.71946 0.26498
 C64 C 0.81231 0.70069 0.28311
 C65 C 0.79271 0.71684 0.32889
 C66 C 0.69624 0.74757 0.20897
 C67 C 0.67603 0.72866 0.19081
 C68 C 0.70004 0.68133 0.21429
 C69 C 0.71980 0.70115 0.23195
 N70 N 0.71794 0.73369 0.22860
 H71 H 0.75725 0.74931 0.32019
 H72 H 0.79114 0.72072 0.23998
 H73 H 0.82728 0.68718 0.27185
 H74 H 0.79282 0.71675 0.35379
 H75 H 0.69489 0.77346 0.20719
 H76 H 0.65902 0.74017 0.17520
 H77 H 0.70247 0.65558 0.21670
 H78 H 0.73671 0.69043 0.24816
 C79 C 0.68684 0.81758 0.30921
 C80 C 0.80850 0.82666 0.18717
 C81 C 0.67797 0.69506 0.19315
 C82 C 0.81292 0.69910 0.31554
 C83 C 0.78693 0.30118 0.73970
 H84 H 0.79026 0.30180 0.76456
 C85 C 0.80599 0.32041 0.72044
 H86 H 0.82407 0.33571 0.73069
 C87 C 0.76018 0.27920 0.69635
 H88 H 0.74277 0.26265 0.68700
 C89 C 0.77870 0.29797 0.67627
 H90 H 0.77478 0.29614 0.65159
 N91 N 0.76448 0.28120 0.72744
 C92 C 0.69968 0.26210 0.79808
 H93 H 0.69807 0.23600 0.80042
 C94 C 0.68244 0.27887 0.81560
 H95 H 0.66788 0.26544 0.83175
 C96 C 0.72090 0.31119 0.77430
 H97 H 0.73551 0.32372 0.75780
 C98 C 0.70409 0.32892 0.79137
 H99 H 0.70597 0.35501 0.78776
 Zn100 Zn 0.74110 0.25392 0.75511
 N101 N 0.71870 0.27839 0.77821
 C102 C 0.76972 0.22889 0.81282
 N103 N 0.76845 0.22931 0.78152
 C104 C 0.78758 0.21266 0.76761
 C105 C 0.80839 0.19376 0.78523
 C106 C 0.79023 0.21034 0.83148
 C107 C 0.69168 0.23979 0.71294
 C108 C 0.67203 0.22057 0.69452
 C109 C 0.69636 0.17368 0.71857
 C110 C 0.71555 0.19378 0.73647
 N111 N 0.71343 0.22628 0.73279
 H112 H 0.75465 0.24271 0.82350
 H113 H 0.78668 0.21417 0.74259
 H114 H 0.82369 0.18231 0.77253
 H115 H 0.78888 0.20976 0.85617
 H116 H 0.69021 0.26567 0.71079
 H117 H 0.65568 0.23193 0.67797
 H118 H 0.69861 0.14790 0.72164
 H119 H 0.73231 0.18333 0.75304
 C120 C 0.68461 0.31276 0.81246
 C121 C 0.80211 0.31879 0.68825
 C122 C 0.67461 0.18708 0.69681
 C123 C 0.81016 0.19173 0.81807
 C124 C 0.28519 0.79899 0.74034
 H125 H 0.28859 0.79939 0.76521
 C126 C 0.30478 0.81761 0.72119
 H127 H 0.32331 0.83224 0.73156
 C128 C 0.25776 0.77805 0.69682
 H129 H 0.23986 0.76212 0.68737
 C130 C 0.27680 0.79625 0.67684
 H131 H 0.27281 0.79461 0.65214
 N132 N 0.26218 0.77978 0.72794
 C133 C 0.19714 0.76182 0.79844
 H134 H 0.19496 0.73572 0.80046
 C135 C 0.18018 0.77881 0.81604
 H136 H 0.16527 0.76555 0.83194
 C137 C 0.21951 0.81067 0.77534
 H138 H 0.23446 0.82301 0.75907
 C139 C 0.20299 0.82862 0.79251
 H140 H 0.20544 0.85471 0.78921
 Zn141 Zn 0.23829 0.75297 0.75549
 N142 N 0.21658 0.77787 0.77885
 C143 C 0.26640 0.72710 0.81310
 N144 N 0.26504 0.72747 0.78172
 C145 C 0.28369 0.71021 0.76768
 C146 C 0.30415 0.69087 0.78532
 C147 C 0.28660 0.70809 0.83167
 C148 C 0.18824 0.74065 0.71370
 C149 C 0.16757 0.72218 0.69560
 C150 C 0.19078 0.67425 0.71877
 C151 C 0.21103 0.69363 0.73637
 N152 N 0.20985 0.72626 0.73306
 H153 H 0.25187 0.74151 0.82384
 H154 H 0.28254 0.71145 0.74266
 H155 H 0.31887 0.67743 0.77364
 H156 H 0.28699 0.70762 0.85662
 H157 H 0.18747 0.76661 0.71194
 H158 H 0.15073 0.73410 0.68008
 H159 H 0.19275 0.64842 0.72102
 H160 H 0.22786 0.68252 0.75238
 C161 C 0.18306 0.81269 0.81328
 C162 C 0.30083 0.81620 0.68898
 C163 C 0.16892 0.68852 0.69773
 C164 C 0.30568 0.68947 0.81778
 C165 C 0.03517 -0.02594 -0.02540
 C166 C 0.05360 -0.00185 -0.00541
 C167 C 0.03655 0.01610 0.00990
 C168 C 0.00243 0.00809 0.00418
 C169 C 0.01539 -0.04613 -0.00233
 C170 C -0.00200 -0.02846 0.01293
 C171 C 0.01318 -0.00557 -0.04645
 C172 C -0.00396 0.01228 -0.03117
 H173 H 0.07789 -0.00107 -0.00120
 H174 H -0.01146 0.02257 0.01676
 H175 H 0.01487 -0.07219 0.00118
 H176 H 0.01197 -0.00485 -0.07147
 C177 C 0.02661 0.46678 0.47253
 C178 C 0.04524 0.48677 0.49616
 C179 C 0.02860 0.50498 0.51167
 C180 C -0.00546 0.50117 0.50248
 C181 C 0.00323 0.44676 0.49193
 C182 C -0.01363 0.46471 0.50746
 C183 C 0.00833 0.49125 0.45173
 C184 C -0.00852 0.50920 0.46720
 H185 H 0.06956 0.48671 0.49993
 H186 H -0.01908 0.51580 0.51519
 H187 H 0.00187 0.42075 0.49569
 H188 H 0.00795 0.49311 0.42670
 C189 C 0.52887 -0.03716 0.47492
 C190 C 0.54766 -0.01506 0.49651
 C191 C 0.53114 0.00308 0.51224
 C192 C 0.49680 -0.00332 0.50548
 C193 C 0.50774 -0.05759 0.49650
 C194 C 0.49058 -0.04007 0.51217
 C195 C 0.50824 -0.01480 0.45435
 C196 C 0.49145 0.00291 0.47013
 H197 H 0.57205 -0.01464 0.49964
 H198 H 0.48287 0.01109 0.51806
 H199 H 0.50746 -0.08354 0.50063
 H200 H 0.50753 -0.01289 0.42930
 C201 C 0.53149 0.46877 -0.02645
 C202 C 0.55062 0.49079 -0.00500
 C203 C 0.53434 0.50935 0.01056
 C204 C 0.49999 0.50408 0.00319
 C205 C 0.50979 0.44921 -0.00481
 C206 C 0.49317 0.46760 0.01052
 C207 C 0.51154 0.49135 -0.04752
 C208 C 0.49480 0.50968 -0.03229
 H209 H 0.57499 0.49111 -0.00205
 H210 H 0.48632 0.51879 0.01575
 H211 H 0.50928 0.42331 0.00016
 H212 H 0.51069 0.49232 -0.07253
 C213 C 0.13205 -0.13351 -0.13260
 C214 C 0.16213 -0.12354 -0.13740
 C215 C 0.17871 -0.14098 -0.15504
 C216 C 0.16540 -0.16870 -0.16810
 C217 C 0.13512 -0.17852 -0.16314
 C218 C 0.11858 -0.16101 -0.14551
 C219 C 0.11510 -0.11551 -0.11437
 C220 C 0.10113 -0.10025 -0.09904
 C221 C 0.08478 -0.08178 -0.08066
 C222 C 0.09828 -0.05322 -0.06994
 C223 C 0.08256 -0.03514 -0.05209
 C224 C 0.05316 -0.04573 -0.04405
 C225 C 0.03948 -0.07398 -0.05600
 C226 C 0.05527 -0.09201 -0.07385
 H227 H 0.17281 -0.10233 -0.12744
 H228 H 0.20207 -0.13305 -0.15808
 H229 H 0.12411 -0.19949 -0.17321
 H230 H 0.09528 -0.16889 -0.14200
 H231 H 0.12092 -0.04472 -0.07563
 H232 H 0.09344 -0.01263 -0.04531
 H233 H 0.01642 -0.08208 -0.05170
 H234 H 0.04438 -0.11382 -0.08250
 C235 C 0.13377 0.36855 0.36720
 C236 C 0.12151 0.34097 0.35358
 C237 C 0.13930 0.32422 0.33655
 C238 C 0.16964 0.33487 0.33292
 C239 C 0.18174 0.36268 0.34666
 C240 C 0.16390 0.37938 0.36369
 C241 C 0.11547 0.38559 0.38491
 C242 C 0.10008 0.39969 0.39984
 C243 C 0.08161 0.41628 0.41778
 C244 C 0.05578 0.40028 0.42968
 C245 C 0.03783 0.41619 0.44729
 C246 C 0.04576 0.44836 0.45378
 C247 C 0.07135 0.46444 0.44075
 C248 C 0.08925 0.44846 0.42316
 H249 H 0.09818 0.33243 0.35609
 H250 H 0.12921 0.30318 0.32591
 H251 H 0.20511 0.37124 0.34461
 H252 H 0.17365 0.40064 0.37423
 H253 H 0.04936 0.37552 0.42517
 H254 H 0.01759 0.40318 0.45508
 H255 H 0.07752 0.48951 0.44419
 H256 H 0.10898 0.46124 0.41369
 C257 C 0.63324 -0.13239 0.36413
 C258 C 0.62065 -0.15954 0.35000
 C259 C 0.63801 -0.17573 0.33202
 C260 C 0.66824 -0.16494 0.32791
 C261 C 0.68064 -0.13750 0.34208
 C262 C 0.66324 -0.12137 0.36008
 C263 C 0.61544 -0.11604 0.38297
 C264 C 0.60050 -0.10249 0.39884
 C265 C 0.58262 -0.08645 0.41786
 C266 C 0.55799 -0.10321 0.43145
 C267 C 0.54054 -0.08773 0.44994
 C268 C 0.54781 -0.05522 0.45562
 C269 C 0.57218 -0.03842 0.44094
 C270 C 0.58957 -0.05398 0.42249
 H271 H 0.59743 -0.16823 0.35292
 H272 H 0.62768 -0.19649 0.32108
 H273 H 0.70393 -0.12884 0.33969
 H274 H 0.67323 -0.10043 0.37098
 H275 H 0.55208 -0.12823 0.42754
 H276 H 0.52112 -0.10131 0.45900
 H277 H 0.57772 -0.01310 0.44367
 H278 H 0.60833 -0.04061 0.41170
 C279 C 0.63280 0.36592 -0.13364
 C280 C 0.66266 0.37654 -0.13878
 C281 C 0.67951 0.35930 -0.15634
 C282 C 0.66668 0.33115 -0.16899
 C283 C 0.63661 0.32070 -0.16371
 C284 C 0.61980 0.33800 -0.14616
 C285 C 0.61552 0.38359 -0.11544
 C286 C 0.60102 0.39830 -0.10013
 C287 C 0.58366 0.41570 -0.08177
 C288 C 0.59226 0.44785 -0.07698
 C289 C 0.57538 0.46470 -0.05912
 C290 C 0.54991 0.44950 -0.04516
 C291 C 0.54095 0.41739 -0.05113
 C292 C 0.55788 0.40061 -0.06901
 H293 H 0.67297 0.39807 -0.12911
 H294 H 0.70271 0.36772 -0.15964
 H295 H 0.62596 0.29939 -0.17347
 H296 H 0.59667 0.32961 -0.14239
 H297 H 0.61192 0.45996 -0.08719
 H298 H 0.58220 0.48977 -0.05633
 H299 H 0.52060 0.40516 -0.04270
 H300 H 0.55067 0.37590 -0.07310
 C301 C -0.12856 0.13322 -0.12759
 C302 C -0.13630 0.12811 -0.15851
 C303 C -0.15656 0.14742 -0.17655
 C304 C -0.16987 0.17272 -0.16415
 C305 C -0.16159 0.17722 -0.13249
 C306 C -0.14123 0.15776 -0.11462
 C307 C -0.10759 0.11311 -0.10937
 C308 C -0.08994 0.09582 -0.09482
 C309 C -0.06880 0.07468 -0.07832
 C310 C -0.06423 0.04548 -0.08986
 C311 C -0.04326 0.02510 -0.07446
 C312 C -0.02653 0.03368 -0.04725
 C313 C -0.03144 0.06295 -0.03565
 C314 C -0.05244 0.08335 -0.05114
 H315 H -0.12686 0.10884 -0.16871
 H316 H -0.16259 0.14086 -0.19976
 H317 H -0.16934 0.19667 -0.12131
 H318 H -0.13515 0.16213 -0.09067
 H319 H -0.07682 0.03849 -0.11085
 H320 H -0.04035 0.00249 -0.08371
 H321 H -0.01862 0.07045 -0.01501
 H322 H -0.05572 0.10598 -0.04207
 C323 C -0.12541 0.63905 0.37145
 C324 C -0.15481 0.64053 0.37999
 C325 C -0.17479 0.66035 0.36204
 C326 C -0.16560 0.67889 0.33523
 C327 C -0.13588 0.67747 0.32706
 C328 C -0.11595 0.65768 0.34506
 C329 C -0.10516 0.61779 0.38923
 C330 C -0.08813 0.59970 0.40363
 C331 C -0.06775 0.57780 0.42023
 C332 C -0.07586 0.55971 0.44746
 C333 C -0.05643 0.53762 0.46294
 C334 C -0.02868 0.53331 0.45131
 C335 C -0.02059 0.55184 0.42409
 C336 C -0.04002 0.57392 0.40868
 H337 H -0.16241 0.62610 0.40031
 H338 H -0.19762 0.66062 0.36873
 H339 H -0.12800 0.69179 0.30682
 H340 H -0.09322 0.65674 0.33826
 H341 H -0.09735 0.56240 0.45651
 H342 H -0.06352 0.52336 0.48355
 H343 H 0.00081 0.54939 0.41480
 H344 H -0.03350 0.58783 0.38764
 C345 C 0.37236 0.13175 0.37649
 C346 C 0.35719 0.12219 0.34906
 C347 C 0.33782 0.14272 0.33125
 C348 C 0.33335 0.17320 0.34062
 C349 C 0.34853 0.18254 0.36837
 C350 C 0.36796 0.16193 0.38616
 C351 C 0.39267 0.11057 0.39429
 C352 C 0.40965 0.09227 0.40844
 C353 C 0.42988 0.06978 0.42437
 C354 C 0.43357 0.04096 0.41170
 C355 C 0.45350 0.01915 0.42663
 C356 C 0.47006 0.02591 0.45450
 C357 C 0.46607 0.05484 0.46722
 C358 C 0.44611 0.07668 0.45219
 H359 H 0.36037 0.09885 0.34140
 H360 H 0.32611 0.13461 0.31028
 H361 H 0.34579 0.20597 0.37602
 H362 H 0.37967 0.16960 0.40732
 H363 H 0.42106 0.03534 0.39022
 H364 H 0.45571 -0.00314 0.41650
 H365 H 0.47881 0.06092 0.48840
 H366 H 0.44350 0.09899 0.46215
 C367 C 0.36838 0.62953 -0.12765
 C368 C 0.35218 0.61846 -0.15394
 C369 C 0.33167 0.63786 -0.17155
 C370 C 0.32708 0.66869 -0.16309
 C371 C 0.34330 0.67952 -0.13645
 C372 C 0.36385 0.66006 -0.11888
 C373 C 0.38992 0.60962 -0.11006
 C374 C 0.40799 0.59257 -0.09590
 C375 C 0.42957 0.57177 -0.07967
 C376 C 0.43533 0.54333 -0.09191
 C377 C 0.45649 0.52316 -0.07652
 C378 C 0.47230 0.53119 -0.04860
 C379 C 0.46613 0.55971 -0.03635
 C380 C 0.44496 0.57991 -0.05183
 H381 H 0.35546 0.59483 -0.16090
 H382 H 0.31922 0.62863 -0.19165
 H383 H 0.34051 0.70327 -0.12955
 H384 H 0.37635 0.66890 -0.09861
 H385 H 0.42343 0.53670 -0.11337
 H386 H 0.46009 0.50104 -0.08630
 H387 H 0.47793 0.56679 -0.01513
 H388 H 0.44070 0.60191 -0.04215
 C389 C -0.12855 -0.11955 0.13032
 C390 C -0.13346 -0.10944 0.15902
 C391 C -0.15429 -0.12688 0.17766
 C392 C -0.17080 -0.15498 0.16797
 C393 C -0.16559 -0.16451 0.13863
 C394 C -0.14472 -0.14701 0.12016
 C395 C -0.10656 -0.10220 0.11140
 C396 C -0.08807 -0.08830 0.09524
 C397 C -0.06597 -0.07244 0.07556
 C398 C -0.03828 -0.08581 0.07447
 C399 C -0.01726 -0.07132 0.05439
 C400 C -0.02370 -0.04323 0.03511
 C401 C -0.05141 -0.02970 0.03667
 C402 C -0.07243 -0.04427 0.05675
 H403 H -0.12119 -0.08801 0.16702
 H404 H -0.15793 -0.11741 0.19918
 H405 H -0.17639 -0.18636 0.13017
 H406 H -0.14089 -0.15523 0.09806
 H407 H -0.03303 -0.10760 0.08894
 H408 H 0.00405 -0.08205 0.05405
 H409 H -0.05724 -0.00840 0.02178
 H410 H -0.09387 -0.03382 0.05728
 C411 C -0.13733 0.37349 0.62781
 C412 C -0.14725 0.38755 0.65270
 C413 C -0.16702 0.36984 0.67238
 C414 C -0.17712 0.33786 0.66734
 C415 C -0.16699 0.32402 0.64223
 C416 C -0.14725 0.34173 0.62263
 C417 C -0.11675 0.39131 0.60760
 C418 C -0.09941 0.40537 0.59027
 C419 C -0.07857 0.42108 0.56914
 C420 C -0.06142 0.44930 0.57622
 C421 C -0.04047 0.46377 0.55599
 C422 C -0.03642 0.45007 0.52850
 C423 C -0.05401 0.42191 0.52146
 C424 C -0.07492 0.40754 0.54166
 H425 H -0.13972 0.41215 0.65689
 H426 H -0.17465 0.38126 0.69132
 H427 H -0.17393 0.29931 0.63802
 H428 H -0.13960 0.33057 0.60352
 H429 H -0.06397 0.45989 0.59752
 H430 H -0.02696 0.48515 0.56227
 H431 H -0.05170 0.41106 0.50026
 H432 H -0.08812 0.38573 0.53593
 C433 C 0.36340 -0.13132 0.62923
 C434 C 0.35390 -0.11692 0.65412
 C435 C 0.33344 -0.13387 0.67353
 C436 C 0.32220 -0.16546 0.66821
 C437 C 0.33186 -0.17964 0.64306
 C438 C 0.35230 -0.16267 0.62374
 C439 C 0.38477 -0.11424 0.60943
 C440 C 0.40278 -0.10056 0.59259
 C441 C 0.42440 -0.08497 0.57224
 C442 C 0.43942 -0.05537 0.57850
 C443 C 0.46082 -0.04064 0.55893
 C444 C 0.46763 -0.05539 0.53291
 C445 C 0.45209 -0.08501 0.52667
 C446 C 0.43070 -0.09967 0.54622
 H447 H 0.36233 -0.09263 0.65856
 H448 H 0.32620 -0.12218 0.69250
 H449 H 0.32404 -0.20408 0.63864
 H450 H 0.35961 -0.17410 0.60462
 H451 H 0.43473 -0.04377 0.59861
 H452 H 0.47230 -0.01805 0.56460
 H453 H 0.45617 -0.09675 0.50648
 H454 H 0.41909 -0.12252 0.54105
 C455 C 0.37155 0.38239 0.13614
 C456 C 0.38230 0.36769 0.16484
 C457 C 0.36226 0.35013 0.18429
 C458 C 0.33118 0.34697 0.17520
 C459 C 0.32056 0.36230 0.14652
 C460 C 0.34063 0.37987 0.12714
 C461 C 0.39236 0.39872 0.11530
 C462 C 0.40975 0.41166 0.09741
 C463 C 0.43043 0.42616 0.07554
 C464 C 0.44733 0.45504 0.08087
 C465 C 0.46769 0.46868 0.05966
 C466 C 0.47141 0.45350 0.03291
 C467 C 0.45421 0.42457 0.02772
 C468 C 0.43387 0.41103 0.04890
 H469 H 0.40622 0.36932 0.17195
 H470 H 0.37119 0.33827 0.20602
 H471 H 0.29673 0.36066 0.13906
 H472 H 0.33207 0.39112 0.10496
 H473 H 0.44492 0.46689 0.10150
 H474 H 0.48093 0.49070 0.06453
 H475 H 0.45625 0.41256 0.00713
 H476 H 0.42085 0.38871 0.04450
 C477 C 0.12490 0.13720 0.13594
 C478 C 0.11272 0.16243 0.14858
 C479 C 0.13072 0.18121 0.16890
 C480 C 0.16114 0.17493 0.17682
 C481 C 0.17306 0.14943 0.16404
 C482 C 0.15507 0.13073 0.14378
 C483 C 0.10692 0.11816 0.11444
 C484 C 0.09293 0.10176 0.09608
 C485 C 0.07757 0.08169 0.07378
 C486 C 0.05043 0.06400 0.08006
 C487 C 0.03668 0.04307 0.05899
 C488 C 0.05006 0.03950 0.03150
 C489 C 0.07702 0.05784 0.02517
 C490 C 0.09066 0.07876 0.04618
 H491 H 0.08938 0.16763 0.14266
 H492 H 0.12080 0.20047 0.17859
 H493 H 0.19649 0.14430 0.16923
 H494 H 0.16478 0.11138 0.13399
 H495 H 0.04020 0.06595 0.10145
 H496 H 0.01615 0.02896 0.06469
 H497 H 0.08762 0.05596 0.00399
 H498 H 0.11166 0.09233 0.04109
 C499 C 0.11283 0.62883 0.63780
 C500 C 0.11865 0.61822 0.66910
 C501 C 0.13632 0.63790 0.68881
 C502 C 0.14846 0.66847 0.67741
 C503 C 0.14194 0.67917 0.64604
 C504 C 0.12428 0.65944 0.62638
 C505 C 0.09646 0.60770 0.61706
 C506 C 0.08349 0.58975 0.59947
 C507 C 0.06892 0.56805 0.57822
 C508 C 0.08086 0.53841 0.57601
 C509 C 0.06760 0.51772 0.55458
 C510 C 0.04218 0.52645 0.53502
 C511 C 0.03009 0.55610 0.53766
 C512 C 0.04343 0.57680 0.55911
 H513 H 0.10992 0.59455 0.67818
 H514 H 0.14062 0.62915 0.71292
 H515 H 0.15127 0.70236 0.63646
 H516 H 0.12007 0.66780 0.60214
 H517 H 0.10056 0.53138 0.59071
 H518 H 0.07715 0.49484 0.55344
 H519 H 0.01081 0.56369 0.52264
 H520 H 0.03410 0.59977 0.56052
 C521 C 0.62037 0.12771 0.63505
 C522 C 0.60747 0.15244 0.64774
 C523 C 0.62497 0.17169 0.66804
 C524 C 0.65559 0.16635 0.67590
 C525 C 0.66825 0.14133 0.66306
 C526 C 0.65075 0.12218 0.64282
 C527 C 0.60280 0.10807 0.61377
 C528 C 0.58900 0.09115 0.59574
 C529 C 0.57359 0.07039 0.57407
 C530 C 0.54524 0.05516 0.57965
 C531 C 0.53115 0.03368 0.55930
 C532 C 0.54534 0.02695 0.53322
 C533 C 0.57356 0.04304 0.52749
 C534 C 0.58757 0.06450 0.54780
 H535 H 0.58394 0.15690 0.64191
 H536 H 0.61451 0.19056 0.67776
 H537 H 0.69186 0.13694 0.66820
 H538 H 0.66100 0.10319 0.63302
 H539 H 0.53423 0.05951 0.59996
 H540 H 0.50958 0.02186 0.56454
 H541 H 0.58485 0.03916 0.50724
 H542 H 0.60947 0.07628 0.54317
 C543 C 0.62177 0.63417 0.13437
 C544 C 0.62811 0.62390 0.16568
 C545 C 0.64591 0.64391 0.18497
 C546 C 0.65766 0.67450 0.17316
 C547 C 0.65069 0.68482 0.14177
 C548 C 0.63291 0.66476 0.12252
 C549 C 0.60501 0.61281 0.11411
 C550 C 0.59165 0.59469 0.09691
 C551 C 0.57652 0.57282 0.07612
 C552 C 0.58906 0.54382 0.07262
 C553 C 0.57518 0.52303 0.05159
 C554 C 0.54855 0.53099 0.03361
 C555 C 0.53583 0.55991 0.03774
 C556 C 0.54978 0.58074 0.05879
 H557 H 0.61962 0.60026 0.17509
 H558 H 0.65054 0.63545 0.20911
 H559 H 0.65971 0.70803 0.13188
 H560 H 0.62828 0.67288 0.09828
 H561 H 0.60968 0.53737 0.08603
 H562 H 0.58525 0.50062 0.04961
 H563 H 0.51554 0.56691 0.02427
 H564 H 0.53990 0.60316 0.06127
   
