data_POSCAR
  _audit_creation_date              2014-09-24
  _audit_creation_method            'ToBaCCo'
  _symmetry_space_group_name_H-M    'P1'
  _symmetry_Int_Tables_number       1
  _symmetry_cell_setting            triclinic
  loop_
  _symmetry_equiv_pos_as_xyz
 x,y,z
_cell_length_a 17.8577
_cell_length_b 17.7860
_cell_length_c 21.4615
_cell_angle_alpha 90.006300
_cell_angle_beta 90.222000
_cell_angle_gamma 90.774600
loop_
  _atom_site_label
  _atom_site_type_symbol
  _atom_site_fract_x
  _atom_site_fract_y
  _atom_site_fract_z
C1 C 1.25646 0.25350 0.25060
 C2 C 0.75839 -0.23776 0.26363
 C3 C 0.75192 0.25118 -0.24759
 C4 C 1.25467 -0.24354 -0.24356
 C5 C 0.25306 0.24820 0.76076
 C6 C 0.75720 0.73265 0.73925
 C7 C 0.74187 0.23963 0.25431
 C8 C 0.24001 0.73593 0.24799
 O9 O 1.11411 0.04624 0.08592
 O10 O 0.87566 -0.07548 0.07241
 O11 O 0.92851 0.10237 0.08710
 O12 O 1.05905 -0.13308 0.06812
 O13 O 0.83645 0.04726 0.04376
 O14 O 1.15218 -0.06810 0.03747
 O15 O 0.93746 -0.16563 0.03433
 O16 O 1.05234 0.14382 0.06177
 C17 C 1.09116 0.10885 0.10048
 C18 C 0.89993 -0.13958 0.07803
 C19 C 0.86244 0.08164 0.08957
 C20 C 1.12556 -0.11564 0.07378
 O21 O 1.13103 -0.00720 -0.07523
 O22 O 0.86430 0.01460 -0.07604
 O23 O 1.01378 0.13846 -0.06239
 O24 O 0.97964 -0.12686 -0.08650
 O25 O 0.87177 -0.11601 -0.04942
 O26 O 1.12138 0.11431 -0.02733
 O27 O 1.10380 -0.12139 -0.05310
 O28 O 0.88705 0.12232 -0.03563
 Co29 Co 1.11621 0.01884 0.00497
 Co30 Co 0.87518 -0.02987 -0.00195
 Co31 Co 0.97275 0.11425 0.01189
 Co32 Co 1.01724 -0.12431 -0.00829
 O33 O 0.99538 -0.00518 0.00177
 C34 C 1.13450 -0.07460 -0.08825
 C35 C 0.86015 0.08357 -0.07910
 C36 C 1.08214 0.14262 -0.06895
 C37 C 0.91183 -0.13078 -0.09493
 O38 O 1.11023 0.59666 0.57014
 O39 O 0.88159 0.39202 0.54585
 O40 O 0.96666 0.58579 0.59653
 O41 O 1.12545 0.36553 0.53920
 O42 O 0.86708 0.52757 0.56133
 O43 O 1.13419 0.47244 0.58118
 O44 O 0.99076 0.34287 0.57193
 O45 O 1.03553 0.68839 0.54269
 C46 C 1.09300 0.66528 0.57504
 C47 C 0.92177 0.35023 0.58106
 C48 C 0.90101 0.56139 0.60517
 C49 C 1.14471 0.40487 0.58449
 O50 O 1.16244 0.45395 0.45428
 O51 O 0.88475 0.55003 0.43308
 O52 O 1.01982 0.62479 0.43519
 O53 O 0.95213 0.32888 0.45888
 O54 O 0.89750 0.42207 0.41883
 O55 O 1.13058 0.58388 0.44257
 O56 O 1.07768 0.37203 0.42378
 O57 O 0.90470 0.63653 0.49749
 Co58 Co 1.12354 0.52330 0.51045
 Co59 Co 0.89234 0.47450 0.49079
 Co60 Co 0.99755 0.59990 0.51544
 Co61 Co 1.03453 0.36558 0.49843
 O62 O 1.00861 0.48721 0.50071
 C63 C 1.13700 0.40745 0.41426
 C64 C 0.87438 0.61634 0.44804
 C65 C 1.08392 0.62154 0.41366
 C66 C 0.91254 0.35494 0.41708
 O67 O 0.61597 0.05381 0.57973
 O68 O 0.37602 -0.07381 0.57601
 O69 O 0.43463 0.10238 0.59372
 O70 O 0.56070 -0.13135 0.56443
 O71 O 0.33702 0.04707 0.55747
 O72 O 0.65098 -0.06433 0.53074
 O73 O 0.43595 -0.16413 0.53527
 O74 O 0.55310 0.14852 0.55311
 C75 C 0.59296 0.11750 0.59212
 C76 C 0.40032 -0.13815 0.57990
 C77 C 0.36871 0.08082 0.60128
 C78 C 0.62709 -0.11177 0.56876
 O79 O 0.61986 -0.00478 0.41801
 O80 O 0.35389 0.02506 0.42879
 O81 O 0.50169 0.14025 0.43655
 O82 O 0.46649 -0.12922 0.41287
 O83 O 0.36340 -0.10915 0.45700
 O84 O 0.61324 0.11559 0.46272
 O85 O 0.59630 -0.11892 0.44090
 O86 O 0.37776 0.12188 0.48023
 Co87 Co 0.61184 0.02243 0.49864
 Co88 Co 0.37047 -0.02459 0.50354
 Co89 Co 0.46924 0.11631 0.51457
 Co90 Co 0.51247 -0.12312 0.48957
 O91 O 0.49118 -0.00241 0.50171
 C92 C 0.61872 -0.07138 0.40232
 C93 C 0.35738 0.09462 0.43032
 C94 C 0.56929 0.14329 0.42424
 C95 C 0.39737 -0.12839 0.40969
 O96 O 0.63574 0.56064 0.08157
 O97 O 0.39749 0.43628 0.08039
 O98 O 0.45379 0.62120 0.08948
 O99 O 0.57860 0.38361 0.07433
 O100 O 0.36103 0.56087 0.05246
 O101 O 0.67238 0.44507 0.04019
 O102 O 0.45754 0.34584 0.04063
 O103 O 0.57614 0.65856 0.05671
 C104 C 0.61254 0.62261 0.09676
 C105 C 0.41668 0.37017 0.08266
 C106 C 0.39049 0.59466 0.09748
 C107 C 0.64444 0.40345 0.08092
 O108 O 0.64443 0.49770 -0.07765
 O109 O 0.37758 0.52417 -0.06907
 O110 O 0.52702 0.64577 -0.06623
 O111 O 0.49687 0.37924 -0.07873
 O112 O 0.38843 0.39502 -0.04119
 O113 O 0.63626 0.62230 -0.03539
 O114 O 0.62334 0.38627 -0.04692
 O115 O 0.40190 0.63355 -0.03278
 Co116 Co 0.63470 0.52925 0.00212
 Co117 Co 0.39400 0.48172 0.00566
 Co118 Co 0.49219 0.62742 0.01120
 Co119 Co 0.53668 0.38682 -0.00196
 O120 O 0.51433 0.50634 0.00429
 C121 C 0.64718 0.42960 -0.08798
 C122 C 0.37241 0.59287 -0.07446
 C123 C 0.59430 0.64485 -0.07785
 C124 C 0.42862 0.37321 -0.08472
 N125 N 1.10093 0.12447 0.21546
 N126 N 1.14488 0.16132 0.25511
 C127 C 1.19394 0.20448 0.22268
 C128 C 1.17811 0.19597 0.15949
 C129 C 1.11945 0.14502 0.15718
 H130 H 1.20729 0.22063 0.12022
 H131 H 1.06006 0.08488 0.22822
 H132 H 1.14188 0.15528 0.30340
 N133 N 1.09329 0.77101 0.65158
 N134 N 1.13170 0.79161 0.70168
 C135 C 1.18719 0.74176 0.71270
 C136 C 1.18322 0.68747 0.66595
 C137 C 1.12346 0.70839 0.62828
 H138 H 1.22098 0.64124 0.65856
 H139 H 1.04752 0.80000 0.63362
 H140 H 1.12158 0.84155 0.72552
 N141 N 0.57661 0.21785 0.66982
 N142 N 0.61828 0.25646 0.70972
 C143 C 0.68729 0.22661 0.71072
 C144 C 0.68922 0.16656 0.66909
 C145 C 0.61774 0.16223 0.64536
 H146 H 0.73652 0.13193 0.65735
 H147 H 0.52135 0.23077 0.65841
 H148 H 0.59916 0.30260 0.73480
 N149 N 0.63455 0.60939 0.21058
 N150 N 0.67421 0.64382 0.25460
 C151 C 0.70248 0.70861 0.23134
 C152 C 0.67535 0.71675 0.17034
 C153 C 0.63397 0.65216 0.15871
 H154 H 0.68926 0.76008 0.13689
 H155 H 0.61064 0.55577 0.21532
 H156 H 0.68175 0.62206 0.29923
 N157 N 0.91584 -0.24290 0.15627
 N158 N 0.88055 -0.26603 0.20713
 C159 C 0.82060 -0.22190 0.21684
 C160 C 0.81725 -0.17014 0.16866
 C161 C 0.87842 -0.18441 0.13233
 H162 H 0.77407 -0.12952 0.15913
 H163 H 0.96439 -0.26688 0.13856
 H164 H 0.89642 -0.31247 0.23358
 N165 N 0.92910 0.26000 0.66868
 N166 N 0.88627 0.23400 0.71397
 C167 C 0.81840 0.26615 0.70953
 C168 C 0.81816 0.31341 0.65760
 C169 C 0.88956 0.30839 0.63372
 H170 H 0.77272 0.34758 0.64062
 H171 H 0.98482 0.24472 0.66217
 H172 H 0.90426 0.19461 0.74651
 N173 N 0.41343 -0.24748 0.65179
 N174 N 0.37677 -0.27405 0.70068
 C175 C 0.31985 -0.22719 0.71370
 C176 C 0.32043 -0.16929 0.67100
 C177 C 0.37997 -0.18397 0.63323
 H178 H 0.27978 -0.12506 0.66571
 H179 H 0.45926 -0.27327 0.63105
 H180 H 0.38874 -0.32506 0.72238
 N181 N 0.41035 0.25015 0.14071
 N182 N 0.36769 0.21950 0.18408
 C183 C 0.31442 0.26899 0.20048
 C184 C 0.32220 0.33279 0.16406
 C185 C 0.38458 0.31920 0.12848
 H186 H 0.28719 0.38191 0.16287
 H187 H 0.45628 0.22417 0.12028
 H188 H 0.37546 0.16571 0.20232
 N189 N 0.75809 0.07855 -0.15566
 N190 N 0.72848 0.12155 -0.19878
 C191 C 0.76718 0.18760 -0.20125
 C192 C 0.82164 0.18719 -0.15460
 C193 C 0.81459 0.11642 -0.12818
 H194 H 0.86217 0.23094 -0.14329
 H195 H 0.73898 0.02432 -0.14488
 H196 H 0.68174 0.10473 -0.22472
 N197 N 0.84115 0.74597 0.41949
 N198 N 0.81397 0.78343 0.37178
 C199 C 0.79351 0.73510 0.32571
 C200 C 0.81251 0.66260 0.34546
 C201 C 0.84103 0.67243 0.40576
 H202 H 0.80833 0.61059 0.31948
 H203 H 0.86140 0.77118 0.46028
 H204 H 0.81089 0.84195 0.37124
 N205 N 0.37589 0.21643 0.38152
 N206 N 0.35144 0.25674 0.33507
 C207 C 0.29947 0.21677 0.30332
 C208 C 0.29445 0.14432 0.32920
 C209 C 0.34399 0.14761 0.37933
 H210 H 0.25863 0.09758 0.31574
 H211 H 0.41194 0.23804 0.41549
 H212 H 0.36964 0.31173 0.32675
 N213 N 0.27348 0.58103 -0.15642
 N214 N 0.24190 0.62233 -0.20027
 C215 C 0.27356 0.69157 -0.19954
 C216 C 0.32729 0.69408 -0.15180
 C217 C 0.32533 0.62280 -0.12567
 H218 H 0.36340 0.74093 -0.13886
 H219 H 0.25928 0.52488 -0.14760
 H220 H 0.19951 0.60262 -0.22985
 N221 N 1.23921 -0.06318 -0.16368
 N222 N 1.27412 -0.10852 -0.20237
 C223 C 1.23814 -0.17607 -0.20263
 C224 C 1.17965 -0.17376 -0.16092
 C225 C 1.18164 -0.10147 -0.13823
 H226 H 1.14049 -0.21857 -0.14933
 H227 H 1.25613 -0.00802 -0.15365
 H228 H 1.32224 -0.09278 -0.22675
 N229 N 1.23596 0.42896 0.33422
 N230 N 1.26433 0.39059 0.28735
 C231 C 1.22440 0.32567 0.27878
 C232 C 1.16716 0.32506 0.32237
 C233 C 1.17770 0.38982 0.35709
 H234 H 1.12928 0.27919 0.33349
 H235 H 1.25931 0.47847 0.35245
 H236 H 1.31526 0.40562 0.26694
 N237 N 0.70503 -0.05210 0.31423
 N238 N 0.74332 -0.09573 0.27667
 C239 C 0.71528 -0.16683 0.27995
 C240 C 0.65630 -0.16719 0.32202
 C241 C 0.65360 -0.09434 0.34399
 H242 H 0.62880 -0.21615 0.34196
 H243 H 0.72048 0.00322 0.32486
 H244 H 0.79368 -0.07803 0.25670
 N245 N 0.73235 0.43858 -0.17933
 N246 N 0.76172 0.39199 -0.22023
 C247 C 0.73284 0.32206 -0.21094
 C248 C 0.68360 0.32500 -0.16121
 C249 C 0.68510 0.39943 -0.14269
 H250 H 0.65215 0.27889 -0.14066
 H251 H 0.74641 0.49562 -0.17556
 H252 H 0.80187 0.40875 -0.25268
 N253 N 1.07392 0.23004 -0.15828
 N254 N 1.11763 0.25821 -0.20205
 C255 C 1.18781 0.23156 -0.19465
 C256 C 1.18764 0.18326 -0.14340
 C257 C 1.11446 0.18480 -0.12155
 H258 H 1.23373 0.15075 -0.12544
 H259 H 1.01688 0.24135 -0.15420
 H260 H 1.09819 0.29389 -0.23699
 N261 N 1.06233 0.71175 0.33069
 N262 N 1.10604 0.74566 0.28436
 C263 C 1.17340 0.71125 0.28286
 C264 C 1.17446 0.65855 0.33138
 C265 C 1.10455 0.66012 0.35944
 H266 H 1.22199 0.62584 0.34632
 H267 H 1.00897 0.72914 0.34368
 H268 H 1.09079 0.79531 0.26218
 N269 N 0.56548 0.24114 0.34079
 N270 N 0.61036 0.26724 0.29674
 C271 C 0.67264 0.22476 0.29463
 C272 C 0.66702 0.17045 0.34100
 C273 C 0.59840 0.18262 0.36886
 H274 H 0.70884 0.13017 0.35455
 H275 H 0.51534 0.26614 0.35341
 H276 H 0.59913 0.31584 0.27142
 N277 N 0.57624 0.69019 -0.18634
 N278 N 0.61718 0.71240 -0.23424
 C279 C 0.69043 0.71255 -0.21781
 C280 C 0.69514 0.68245 -0.15760
 C281 C 0.62173 0.67251 -0.13861
 H282 H 0.74512 0.66949 -0.13124
 H283 H 0.51789 0.68503 -0.18725
 H284 H 0.59427 0.72217 -0.27816
 N285 N 0.91922 -0.15584 -0.20861
 N286 N 0.87838 -0.18982 -0.25194
 C287 C 0.81438 -0.21681 -0.22624
 C288 C 0.81322 -0.19310 -0.16409
 C289 C 0.88134 -0.15749 -0.15467
 H290 H 0.77076 -0.20129 -0.12905
 H291 H 0.97226 -0.13211 -0.21611
 H292 H 0.89456 -0.19333 -0.29845
 N293 N 0.90087 0.23403 0.36049
 N294 N 0.85674 0.20353 0.31774
 C295 C 0.80644 0.25510 0.29904
 C296 C 0.81838 0.32070 0.33283
 C297 C 0.87928 0.30516 0.37024
 H298 H 0.78604 0.37172 0.33145
 H299 H 0.94402 0.20589 0.38330
 H300 H 0.86000 0.14754 0.30350
 N301 N 0.29269 -0.10642 0.34021
 N302 N 0.24873 -0.14425 0.30224
 C303 C 0.27861 -0.21213 0.28994
 C304 C 0.34617 -0.21735 0.32325
 C305 C 0.35234 -0.14819 0.35456
 H306 H 0.38202 -0.26562 0.32764
 H307 H 0.27899 -0.05419 0.35866
 H308 H 0.19806 -0.12350 0.28543
 N309 N 0.42790 0.34124 -0.19611
 N310 N 0.38206 0.30873 -0.23638
 C311 C 0.32223 0.27944 -0.20578
 C312 C 0.32954 0.29764 -0.14303
 C313 C 0.39706 0.33632 -0.13941
 H314 H 0.28989 0.28860 -0.10574
 H315 H 0.47685 0.37057 -0.20809
 H316 H 0.38891 0.31283 -0.28454
 N317 N 1.24777 -0.13317 0.12258
 N318 N 1.27781 -0.17319 0.16726
 C319 C 1.22524 -0.22033 0.19183
 C320 C 1.15907 -0.21160 0.15782
 C321 C 1.17570 -0.15382 0.11654
 H322 H 1.10595 -0.24079 0.16291
 H323 H 1.27601 -0.09062 0.09825
 H324 H 1.33271 -0.16454 0.18289
 N325 N 1.19685 0.42241 0.68928
 N326 N 1.22480 0.38230 0.73495
 C327 C 1.22915 0.31002 0.71648
 C328 C 1.20124 0.30385 0.65577
 C329 C 1.18144 0.37678 0.64074
 H330 H 1.19370 0.25372 0.62778
 H331 H 1.18663 0.48000 0.69231
 H332 H 1.23878 0.40416 0.77872
 N333 N 0.74240 -0.18435 0.58309
 N334 N 0.77477 -0.22629 0.62578
 C335 C 0.73414 -0.22538 0.67903
 C336 C 0.67353 -0.17742 0.66878
 C337 C 0.68013 -0.15483 0.60698
 H338 H 0.63100 -0.16010 0.70130
 H339 H 0.76190 -0.17783 0.53755
 H340 H 0.82430 -0.25462 0.61729
 N341 N 0.75745 0.40010 0.14908
 N342 N 0.78260 0.35866 0.19558
 C343 C 0.73075 0.30508 0.20944
 C344 C 0.67129 0.31190 0.16807
 C345 C 0.68979 0.37330 0.13177
 H346 H 0.62234 0.27564 0.16377
 H347 H 0.78688 0.44506 0.12904
 H348 H 0.83582 0.36558 0.21518
 N349 N 0.74535 0.07567 0.15290
 N350 N 0.71333 0.11628 0.19684
 C351 C 0.76060 0.17282 0.21325
 C352 C 0.82545 0.16735 0.17802
 C353 C 0.81353 0.10537 0.14060
 H354 H 0.87253 0.20631 0.17693
 H355 H 0.71979 0.02992 0.13045
 H356 H 0.65885 0.10710 0.21290
 N357 N 0.78941 0.54935 0.67194
 N358 N 0.75040 0.59572 0.70670
 C359 C 0.79248 0.65738 0.72031
 C360 C 0.86352 0.64647 0.69430
 C361 C 0.85771 0.57952 0.66156
 H362 H 0.90881 0.68659 0.68935
 H363 H 0.76632 0.50205 0.64983
 H364 H 0.69324 0.58826 0.71512
 N365 N 0.25170 0.08205 0.66310
 N366 N 0.22093 0.12641 0.70488
 C367 C 0.27259 0.17714 0.72481
 C368 C 0.33981 0.16254 0.69433
 C369 C 0.32366 0.10339 0.65504
 H370 H 0.39178 0.19382 0.69493
 H371 H 0.22214 0.04155 0.63730
 H372 H 0.16401 0.12517 0.71590
 N373 N 0.28603 0.56798 0.16949
 N374 N 0.24721 0.60433 0.21174
 C375 C 0.28201 0.67055 0.22635
 C376 C 0.34888 0.67316 0.19170
 C377 C 0.34708 0.60873 0.15476
 H378 H 0.38677 0.72051 0.18602
 H379 H 0.26694 0.51933 0.14688
 H380 H 0.19312 0.58721 0.22409
   
