data_POSCAR
  _audit_creation_date              2014-09-24
  _audit_creation_method            'ToBaCCo'
  _symmetry_space_group_name_H-M    'P1'
  _symmetry_Int_Tables_number       1
  _symmetry_cell_setting            triclinic
  loop_
  _symmetry_equiv_pos_as_xyz
 x,y,z
_cell_length_a 68.3118
_cell_length_b 68.3236
_cell_length_c 20.1211
_cell_angle_alpha 89.949500
_cell_angle_beta 90.042100
_cell_angle_gamma 120.001000
loop_
  _atom_site_label
  _atom_site_type_symbol
  _atom_site_fract_x
  _atom_site_fract_y
  _atom_site_fract_z
C1 C 0.24863 0.49681 0.53206
 C2 C 0.24844 0.49650 0.46425
 C3 C 0.23042 0.49747 0.42547
 C4 C 0.26632 0.49522 0.42571
 C5 C 0.26802 0.49855 0.57050
 C6 C 0.22944 0.49528 0.57098
 C7 C 0.21825 0.48101 0.37753
 C8 C 0.20079 0.48128 0.34212
 C9 C 0.19488 0.49821 0.35328
 C10 C 0.20795 0.51509 0.40096
 C11 C 0.22543 0.51474 0.43598
 C12 C 0.27118 0.47782 0.43731
 C13 C 0.28878 0.47742 0.40320
 C14 C 0.30166 0.49425 0.35623
 C15 C 0.29628 0.51124 0.34326
 C16 C 0.27872 0.51167 0.37756
 C17 C 0.29012 0.51626 0.55883
 C18 C 0.30835 0.51711 0.59291
 C19 C 0.30479 0.50040 0.63992
 C20 C 0.28256 0.48308 0.65293
 C21 C 0.26435 0.48222 0.61867
 C22 C 0.23339 0.51173 0.61897
 C23 C 0.21541 0.51084 0.65456
 C24 C 0.19313 0.49337 0.64311
 C25 C 0.18929 0.47661 0.59607
 C26 C 0.20729 0.47748 0.56063
 H27 H 0.22184 0.46747 0.36877
 H28 H 0.19131 0.46719 0.30910
 H29 H 0.20572 0.52943 0.40999
 H30 H 0.23517 0.52807 0.47136
 H31 H 0.26147 0.46469 0.47326
 H32 H 0.29224 0.46387 0.41332
 H33 H 0.27516 0.52517 0.36776
 H34 H 0.29325 0.52931 0.52285
 H35 H 0.32523 0.53088 0.58273
 H36 H 0.27929 0.46987 0.68840
 H37 H 0.24742 0.46847 0.62851
 H38 H 0.25037 0.52554 0.62786
 H39 H 0.21889 0.52411 0.68999
 H40 H 0.17237 0.46272 0.58705
 H41 H 0.20395 0.46433 0.52488
 H42 H 0.30601 0.52454 0.30779
 C43 C 0.50121 -0.24955 0.53346
 C44 C 0.50108 -0.24971 0.46564
 C45 C 0.50250 -0.26753 0.42733
 C46 C 0.49966 -0.23196 0.42675
 C47 C 0.50264 -0.23029 0.57170
 C48 C 0.50006 -0.26858 0.57249
 C49 C 0.52020 -0.27198 0.43836
 C50 C 0.52076 -0.28954 0.40452
 C51 C 0.50377 -0.30280 0.35840
 C52 C 0.48646 -0.29782 0.34595
 C53 C 0.48589 -0.28029 0.37997
 C54 C 0.51620 -0.21941 0.37900
 C55 C 0.51577 -0.20181 0.34483
 C56 C 0.49869 -0.19654 0.35750
 C57 C 0.48174 -0.20962 0.40393
 C58 C 0.48214 -0.22725 0.43792
 C59 C 0.48616 -0.23415 0.61950
 C60 C 0.48674 -0.21606 0.65355
 C61 C 0.50393 -0.19376 0.64068
 C62 C 0.52078 -0.19001 0.59407
 C63 C 0.52022 -0.20812 0.56021
 C64 C 0.48267 -0.29083 0.56193
 C65 C 0.48236 -0.30872 0.59647
 C66 C 0.49936 -0.30486 0.64342
 C67 C 0.51635 -0.28220 0.65508
 C68 C 0.51662 -0.26438 0.62018
 H69 H 0.53346 -0.26199 0.47367
 H70 H 0.53454 -0.29268 0.41420
 H71 H 0.47305 -0.30784 0.31113
 H72 H 0.47215 -0.27705 0.37061
 H73 H 0.52981 -0.22283 0.36955
 H74 H 0.52917 -0.19194 0.30978
 H75 H 0.46894 -0.23707 0.47357
 H76 H 0.47251 -0.25116 0.62922
 H77 H 0.47343 -0.21947 0.68876
 H78 H 0.53447 -0.17306 0.58404
 H79 H 0.53338 -0.20484 0.52454
 H80 H 0.46932 -0.29436 0.52663
 H81 H 0.46824 -0.32546 0.58740
 H82 H 0.53028 -0.27798 0.68856
 H83 H 0.53022 -0.24728 0.62901
 H84 H 0.46812 -0.20625 0.41381
 C85 C 1.24844 0.75242 0.53359
 C86 C 1.24868 0.75238 0.46579
 C87 C 1.26802 0.77014 0.42751
 C88 C 1.22958 0.73469 0.42663
 C89 C 1.23035 0.73343 0.57212
 C90 C 1.26631 0.77149 0.57241
 C91 C 1.26427 0.78272 0.37947
 C92 C 1.28237 0.80010 0.34506
 C93 C 1.30489 0.80539 0.35754
 C94 C 1.30830 0.79206 0.40493
 C95 C 1.29012 0.77463 0.43900
 C96 C 1.20738 0.73024 0.43658
 C97 C 1.18948 0.71308 0.40089
 C98 C 1.19347 0.70023 0.35398
 C99 C 1.21580 0.70514 0.34294
 C100 C 1.23368 0.72226 0.37878
 C101 C 1.22534 0.71113 0.56157
 C102 C 1.20775 0.69331 0.59630
 C103 C 1.19475 0.69728 0.64342
 C104 C 1.20052 0.71998 0.65484
 C105 C 1.21807 0.73773 0.61979
 C106 C 1.27863 0.76735 0.62042
 C107 C 1.29619 0.78522 0.65509
 C108 C 1.30192 0.80787 0.64287
 C109 C 1.28882 0.81167 0.59562
 C110 C 1.27122 0.79374 0.56130
 H111 H 1.24730 0.77950 0.36995
 H112 H 1.27850 0.80999 0.31123
 H113 H 1.32490 0.79439 0.41468
 H114 H 1.29330 0.76465 0.47463
 H115 H 1.20393 0.74000 0.47223
 H116 H 1.17252 0.70998 0.40961
 H117 H 1.25070 0.72550 0.37020
 H118 H 1.23508 0.70751 0.52631
 H119 H 1.20505 0.67654 0.58733
 H120 H 1.19091 0.72429 0.68840
 H121 H 1.22169 0.75486 0.62862
 H122 H 1.27508 0.75026 0.62967
 H123 H 1.30587 0.78104 0.68885
 H124 H 1.29147 0.82840 0.58613
 H125 H 1.26145 0.79722 0.52572
 H126 H 1.21940 0.69540 0.30762
 C127 C 0.75218 0.50362 0.53461
 C128 C 0.75232 0.50381 0.46680
 C129 C 0.77149 0.50505 0.42840
 C130 C 0.73332 0.50272 0.42784
 C131 C 0.73444 0.50510 0.57333
 C132 C 0.76987 0.50204 0.57328
 C133 C 0.79375 0.52249 0.43972
 C134 C 0.81175 0.52289 0.40562
 C135 C 0.80781 0.50599 0.35893
 C136 C 0.78543 0.48894 0.34630
 C137 C 0.76745 0.48852 0.38058
 C138 C 0.73761 0.51926 0.37974
 C139 C 0.71980 0.51885 0.34437
 C140 C 0.69737 0.50179 0.35616
 C141 C 0.69319 0.48491 0.40324
 C142 C 0.71101 0.48530 0.43846
 C143 C 0.72211 0.48883 0.62176
 C144 C 0.70501 0.48967 0.65742
 C145 C 0.69976 0.50697 0.64586
 C146 C 0.71276 0.52359 0.59783
 C147 C 0.72991 0.52271 0.56250
 C148 C 0.77434 0.48441 0.56218
 C149 C 0.79177 0.48369 0.59635
 C150 C 0.80514 0.50050 0.64346
 C151 C 0.79985 0.51773 0.65567
 C152 C 0.78246 0.51841 0.62114
 H153 H 0.79717 0.53568 0.47542
 H154 H 0.82875 0.53648 0.41550
 H155 H 0.78187 0.47559 0.31107
 H156 H 0.75039 0.47498 0.37099
 H157 H 0.75472 0.53278 0.37067
 H158 H 0.72355 0.53219 0.30888
 H159 H 0.70740 0.47208 0.47432
 H160 H 0.72536 0.47507 0.63084
 H161 H 0.69533 0.47597 0.69163
 H162 H 0.71045 0.53789 0.58863
 H163 H 0.73971 0.53585 0.52666
 H164 H 0.76435 0.47121 0.52671
 H165 H 0.79410 0.46942 0.58687
 H166 H 0.80975 0.53153 0.68931
 H167 H 0.77925 0.53218 0.63037
 H168 H 0.67613 0.47131 0.41250
 C169 C 0.49389 0.24693 0.53408
 C170 C 0.49391 0.24681 0.46628
 C171 C 0.49272 0.26462 0.42698
 C172 C 0.49517 0.22889 0.42803
 C173 C 0.49274 0.22794 0.57334
 C174 C 0.49509 0.26609 0.57232
 C175 C 0.47521 0.26941 0.43712
 C176 C 0.47468 0.28666 0.40122
 C177 C 0.49151 0.29927 0.35394
 C178 C 0.50869 0.29402 0.34275
 C179 C 0.50923 0.27681 0.37879
 C180 C 0.47865 0.21642 0.38012
 C181 C 0.47926 0.19909 0.34513
 C182 C 0.49650 0.19399 0.35711
 C183 C 0.51333 0.20687 0.40410
 C184 C 0.51274 0.22424 0.43895
 C185 C 0.50916 0.23224 0.62161
 C186 C 0.50871 0.21452 0.65755
 C187 C 0.49167 0.19184 0.64645
 C188 C 0.47486 0.18786 0.59864
 C189 C 0.47535 0.20567 0.56302
 C190 C 0.51255 0.28829 0.56141
 C191 C 0.51310 0.30626 0.59607
 C192 C 0.49628 0.30254 0.64348
 C193 C 0.47915 0.27993 0.65519
 C194 C 0.47864 0.26204 0.62020
 H195 H 0.46202 0.25985 0.47304
 H196 H 0.46101 0.29003 0.41008
 H197 H 0.52200 0.30356 0.30717
 H198 H 0.52283 0.27331 0.37007
 H199 H 0.46501 0.21982 0.37083
 H200 H 0.46594 0.18934 0.30973
 H201 H 0.52593 0.23402 0.47467
 H202 H 0.52275 0.24935 0.63028
 H203 H 0.52252 0.21882 0.69159
 H204 H 0.46073 0.17112 0.58980
 H205 H 0.46210 0.20205 0.52728
 H206 H 0.52581 0.29171 0.52596
 H207 H 0.52729 0.32294 0.58686
 H208 H 0.46532 0.27583 0.68896
 H209 H 0.46500 0.24498 0.62930
 H210 H 0.52706 0.20361 0.41352
 C211 C 0.75244 0.24852 0.53413
 C212 C 0.75252 0.24844 0.46633
 C213 C 0.73355 0.23046 0.42744
 C214 C 0.77164 0.26639 0.42790
 C215 C 0.77018 0.26777 0.57277
 C216 C 0.73473 0.22932 0.57292
 C217 C 0.73792 0.21827 0.37941
 C218 C 0.72016 0.20079 0.34416
 C219 C 0.69768 0.19526 0.35600
 C220 C 0.69341 0.20789 0.40302
 C221 C 0.71119 0.22541 0.43810
 C222 C 0.79390 0.27119 0.43906
 C223 C 0.81189 0.28895 0.40537
 C224 C 0.80793 0.30207 0.35929
 C225 C 0.78555 0.29673 0.34665
 C226 C 0.76757 0.27900 0.38052
 C227 C 0.77472 0.28990 0.56169
 C228 C 0.79216 0.30800 0.59599
 C229 C 0.80546 0.30447 0.64321
 C230 C 0.80011 0.28192 0.65533
 C231 C 0.78272 0.26390 0.62068
 C232 C 0.72223 0.23328 0.62092
 C233 C 0.70506 0.21529 0.65628
 C234 C 0.70015 0.19300 0.64458
 C235 C 0.71307 0.18915 0.59757
 C236 C 0.73029 0.20716 0.56236
 H237 H 0.75506 0.22196 0.37028
 H238 H 0.72398 0.19125 0.30872
 H239 H 0.67633 0.20432 0.41232
 H240 H 0.70751 0.23496 0.47390
 H241 H 0.79734 0.26133 0.47444
 H242 H 0.82891 0.29238 0.41520
 H243 H 0.75050 0.27549 0.37108
 H244 H 0.76477 0.29317 0.52620
 H245 H 0.79453 0.32462 0.58652
 H246 H 0.80997 0.27796 0.68902
 H247 H 0.77947 0.24691 0.62990
 H248 H 0.72547 0.25027 0.62995
 H249 H 0.69527 0.21878 0.69171
 H250 H 0.70997 0.17222 0.58836
 H251 H 0.74009 0.20381 0.52658
 H252 H 0.78197 0.30663 0.31184
 O253 O 0.96953 0.45144 0.12439
 O254 O 0.94430 0.45588 0.05967
 C255 C 0.94919 0.44609 0.10673
 O256 O 1.03271 0.55234 0.11336
 O257 O 1.05758 0.54595 0.05322
 C258 C 1.05295 0.55727 0.09582
 O259 O 0.96937 0.51913 0.12086
 O260 O 0.94423 0.48873 0.05844
 C261 C 0.94906 0.50384 0.10403
 O262 O 1.03259 0.48107 0.11672
 O263 O 1.05734 0.51189 0.05492
 C264 C 1.05280 0.49629 0.09874
 Zr265 Zr 1.00091 0.47587 0.08339
 O266 O 1.00173 0.47370 0.18811
 O267 O 1.00014 0.44472 0.07301
 Zr268 Zr 1.00087 0.52536 0.08255
 O269 O 1.00335 0.52681 0.18753
 O270 O 0.99840 0.55504 0.08097
 O271 O 0.98082 0.49060 0.09666
 O272 O 1.02055 0.51051 0.09495
 O273 O 1.03194 0.47978 -0.11573
 O274 O 1.05701 0.51134 -0.05723
 C275 C 1.05223 0.49521 -0.09926
 O276 O 0.96868 0.51814 -0.12289
 O277 O 0.94394 0.48830 -0.05793
 C278 C 0.94848 0.50298 -0.10473
 O279 O 1.03193 0.55160 -0.11828
 O280 O 1.05703 0.54558 -0.05815
 C281 C 1.05223 0.55662 -0.10133
 O282 O 0.96876 0.45009 -0.12108
 O283 O 0.94397 0.45546 -0.05727
 C284 C 0.94854 0.44515 -0.10340
 Zr285 Zr 1.00045 0.47535 -0.08369
 O286 O 1.00275 0.47632 -0.18870
 O287 O 0.99822 0.44332 -0.08147
 Zr288 Zr 1.00040 0.52477 -0.08510
 O289 O 1.00268 0.52564 -0.19011
 O290 O 0.99780 0.55438 -0.08497
 Zr291 Zr 0.96679 0.48341 0.00021
 Zr292 Zr 1.03445 0.51734 -0.00126
 O293 O 1.02007 0.50988 -0.09697
 O294 O 0.98019 0.48991 -0.09697
 O295 O 1.02099 0.48204 -0.00037
 O296 O 0.98091 0.51876 -0.00092
 O297 O 0.98081 0.46212 0.00053
 O298 O 1.02084 0.53906 -0.00181
 H299 H 1.03085 0.51581 0.13378
 H300 H 0.97072 0.52516 -0.00107
 H301 H 1.03015 0.51482 -0.13628
 H302 H 0.97052 0.44553 0.00118
 H303 H 1.01121 0.56649 0.05445
 H304 H 1.01069 0.56601 -0.05911
 H305 H 0.99006 0.51126 -0.20708
 H306 H 0.99016 0.47805 -0.20613
 H307 H 1.00996 0.44441 -0.05042
 H308 H 0.99983 0.43919 0.11874
 H309 H 1.00531 0.48858 0.20598
 H310 H 0.99086 0.51241 0.20506
 O311 O 0.45012 0.48098 0.11964
 O312 O 0.45552 0.51138 0.05696
 C313 C 0.44514 0.49627 0.10254
 O314 O 0.55151 0.51904 0.11622
 O315 O 0.54545 0.48820 0.05453
 C316 C 0.55648 0.50379 0.09835
 O317 O 0.51838 0.54923 0.12314
 O318 O 0.48857 0.54442 0.05860
 C319 C 0.50328 0.55440 0.10541
 O320 O 0.48002 0.44763 0.11135
 O321 O 0.51168 0.45441 0.05260
 C322 C 0.49550 0.44287 0.09443
 Zr323 Zr 0.47530 0.47471 0.08095
 O324 O 0.47497 0.47191 0.18576
 O325 O 0.44394 0.44447 0.07177
 Zr326 Zr 0.52482 0.52421 0.08420
 O327 O 0.52557 0.52226 0.18912
 O328 O 0.55452 0.55635 0.08521
 O329 O 0.48993 0.50947 0.09590
 O330 O 0.50979 0.48957 0.09461
 O331 O 0.48053 0.44886 -0.11908
 O332 O 0.51170 0.45502 -0.05892
 C333 C 0.49587 0.44392 -0.10206
 O334 O 0.51885 0.55052 -0.12036
 O335 O 0.48850 0.54496 -0.05695
 C336 C 0.50351 0.55541 -0.10272
 O337 O 0.55264 0.52088 -0.11544
 O338 O 0.54604 0.48929 -0.05691
 C339 C 0.55749 0.50547 -0.09878
 O340 O 0.45104 0.48272 -0.12404
 O341 O 0.45608 0.51254 -0.05893
 C342 C 0.44602 0.49792 -0.10590
 Zr343 Zr 0.47605 0.47583 -0.08657
 O344 O 0.47799 0.47545 -0.19155
 O345 O 0.44404 0.44601 -0.08802
 Zr346 Zr 0.52552 0.52526 -0.08368
 O347 O 0.52715 0.52452 -0.18866
 O348 O 0.55511 0.55746 -0.08143
 Zr349 Zr 0.48359 0.51689 -0.00079
 Zr350 Zr 0.51731 0.48317 -0.00157
 O351 O 0.51067 0.49076 -0.09746
 O352 O 0.49076 0.51071 -0.09794
 O353 O 0.48202 0.46140 -0.00323
 O354 O 0.51892 0.53815 0.00072
 O355 O 0.46224 0.48160 -0.00268
 O356 O 0.53911 0.51848 0.00024
 H357 H 0.51465 0.48421 0.13363
 H358 H 0.52530 0.55474 0.00142
 H359 H 0.51591 0.48587 -0.13663
 H360 H 0.44565 0.47526 -0.00320
 H361 H 0.56620 0.55512 0.05955
 H362 H 0.56641 0.55614 -0.05393
 H363 H 0.51292 0.52295 -0.20636
 H364 H 0.47932 0.48968 -0.20826
 H365 H 0.44436 0.43574 -0.05387
 H366 H 0.43886 0.43907 0.11769
 H367 H 0.47874 0.48680 0.20419
 H368 H 0.51126 0.52063 0.20626
 O369 O 0.51846 -0.03133 0.12219
 O370 O 0.48864 -0.05631 0.05750
 C371 C 0.50334 -0.05161 0.10437
 O372 O 0.48070 0.03167 0.11688
 O373 O 0.51169 0.05664 0.05617
 C374 C 0.49595 0.05193 0.09954
 O375 O 0.45080 -0.03150 0.12204
 O376 O 0.45582 -0.05637 0.05763
 C377 C 0.44575 -0.05173 0.10429
 O378 O 0.55206 0.03197 0.11510
 O379 O 0.54576 0.05691 0.05491
 C380 C 0.55695 0.05224 0.09793
 Zr381 Zr 0.52551 0.00022 0.08202
 O382 O 0.52902 0.00091 0.18655
 O383 O 0.55580 -0.00062 0.07004
 Zr384 Zr 0.47592 0.00012 0.08390
 O385 O 0.47730 0.00223 0.18895
 O386 O 0.44375 -0.00236 0.08368
 O387 O 0.49070 -0.01992 0.09604
 O388 O 0.51052 0.01978 0.09542
 O389 O 0.55198 0.03177 -0.11684
 O390 O 0.54571 0.05669 -0.05674
 C391 C 0.55693 0.05202 -0.09956
 O392 O 0.45026 -0.03125 -0.12169
 O393 O 0.45556 -0.05628 -0.05869
 C394 C 0.44523 -0.05153 -0.10441
 O395 O 0.48027 0.03206 -0.11491
 O396 O 0.51167 0.05698 -0.05536
 C397 C 0.49563 0.05232 -0.09772
 O398 O 0.51855 -0.03132 -0.12336
 O399 O 0.48852 -0.05630 -0.05945
 C400 C 0.50337 -0.05158 -0.10583
 Zr401 Zr 0.52494 0.00022 -0.08510
 O402 O 0.52573 0.00282 -0.19006
 O403 O 0.55475 -0.00200 -0.08530
 Zr404 Zr 0.47554 0.00031 -0.08381
 O405 O 0.47669 0.00297 -0.18875
 O406 O 0.44336 -0.00222 -0.08238
 Zr407 Zr 0.48351 -0.03364 -0.00079
 Zr408 Zr 0.51729 0.03397 -0.00046
 O409 O 0.51006 0.01995 -0.09656
 O410 O 0.49009 -0.01993 -0.09761
 O411 O 0.53912 0.02050 -0.00150
 O412 O 0.46231 -0.01949 0.00005
 O413 O 0.51883 -0.01964 -0.00150
 O414 O 0.48196 0.02042 0.00030
 H415 H 0.51564 0.02992 0.13456
 H416 H 0.44571 -0.02967 0.00034
 H417 H 0.51511 0.03020 -0.13553
 H418 H 0.52512 -0.02994 -0.00157
 H419 H 0.44505 0.01056 0.05787
 H420 H 0.44469 0.01052 -0.05560
 H421 H 0.47830 -0.00965 -0.20646
 H422 H 0.51150 -0.00997 -0.20725
 H423 H 0.56540 0.00936 -0.05340
 H424 H 0.56121 -0.00095 0.11550
 H425 H 0.51734 0.00378 0.20530
 H426 H 0.47920 -0.01034 0.20571
 C427 C 1.15041 0.48566 0.22664
 C428 C 1.14042 0.49754 0.25209
 C429 C 1.14866 0.50983 0.31075
 C430 C 1.16679 0.51022 0.34421
 C431 C 1.17728 0.49817 0.31990
 C432 C 1.16853 0.48592 0.25978
 C433 C 1.12160 0.49703 0.21824
 C434 C 1.10580 0.49665 0.19025
 C435 C 1.08730 0.49631 0.15791
 C436 C 1.07151 0.49618 0.13068
 H437 H 1.14431 0.47627 0.18065
 H438 H 1.14087 0.51895 0.33131
 H439 H 1.17143 0.51910 0.39105
 H440 H 1.17608 0.47723 0.23540
 C441 C 0.50929 0.64539 0.32735
 C442 C 0.50357 0.64127 0.26000
 C443 C 0.49806 0.65550 0.22461
 C444 C 0.49820 0.67375 0.25645
 C445 C 0.50390 0.67802 0.32418
 C446 C 0.50946 0.66364 0.35927
 C447 C 0.50335 0.62244 0.22723
 C448 C 0.50320 0.60670 0.19971
 C449 C 0.50309 0.58835 0.16727
 C450 C 0.50311 0.57277 0.13926
 H451 H 0.51353 0.63444 0.35525
 H452 H 0.49368 0.65250 0.17240
 H453 H 0.49409 0.68467 0.22795
 H454 H 0.51360 0.66628 0.41167
 C455 C 0.36337 -0.14697 0.32063
 C456 C 0.36013 -0.13952 0.25915
 C457 C 0.33877 -0.15042 0.22965
 C458 C 0.32063 -0.16861 0.26159
 C459 C 0.32343 -0.17639 0.32418
 C460 C 0.34531 -0.16518 0.35281
 C461 C 0.37867 -0.12060 0.22646
 C462 C 0.39413 -0.10473 0.19891
 C463 C 0.41215 -0.08617 0.16637
 C464 C 0.42751 -0.07039 0.13825
 H465 H 0.37984 -0.13852 0.34418
 H466 H 0.33612 -0.14492 0.18164
 H467 H 0.30467 -0.17692 0.23543
 H468 H 0.34855 -0.16961 0.40155
 C469 C 0.86481 0.51082 0.32674
 C470 C 0.86310 0.50526 0.25925
 C471 C 0.84341 0.50012 0.22413
 C472 C 0.82545 0.50045 0.25638
 C473 C 0.82698 0.50596 0.32428
 C474 C 0.84689 0.51118 0.35908
 C475 C 0.88154 0.50480 0.22608
 C476 C 0.89698 0.50444 0.19830
 C477 C 0.91509 0.50410 0.16567
 C478 C 0.93059 0.50391 0.13766
 H479 H 0.87995 0.51477 0.35445
 H480 H 0.84194 0.49586 0.17181
 H481 H 0.81047 0.49662 0.22808
 H482 H 0.84845 0.51517 0.41158
 C483 C 0.48640 0.35094 0.31565
 C484 C 0.49205 0.35425 0.24813
 C485 C 0.49724 0.33943 0.21489
 C486 C 0.49691 0.32144 0.24910
 C487 C 0.49136 0.31804 0.31709
 C488 C 0.48604 0.33295 0.34993
 C489 C 0.49276 0.37301 0.21330
 C490 C 0.49341 0.38885 0.18477
 C491 C 0.49419 0.40753 0.15223
 C492 C 0.49482 0.42361 0.12531
 H493 H 0.48243 0.36235 0.34192
 H494 H 0.50159 0.34181 0.16259
 H495 H 0.50082 0.31009 0.22227
 H496 H 0.48201 0.33097 0.40243
 C497 C 0.64101 0.14308 0.32027
 C498 C 0.64311 0.13961 0.25272
 C499 C 0.66295 0.15442 0.21871
 C500 C 0.68067 0.17259 0.25212
 C501 C 0.67875 0.17619 0.32009
 C502 C 0.65869 0.16124 0.35376
 C503 C 0.62490 0.12082 0.21847
 C504 C 0.60956 0.10506 0.19016
 C505 C 0.59145 0.08660 0.15749
 C506 C 0.57581 0.07087 0.13003
 H507 H 0.62574 0.13169 0.34713
 H508 H 0.66473 0.15193 0.16637
 H509 H 0.69579 0.18395 0.22466
 H510 H 0.65682 0.16337 0.40627
 C511 C 0.48144 0.13391 -0.31142
 C512 C 0.49219 0.13775 -0.24985
 C513 C 0.50250 0.15934 -0.22198
 C514 C 0.50222 0.17711 -0.25566
 C515 C 0.49157 0.17369 -0.31840
 C516 C 0.48107 0.15158 -0.34532
 C517 C 0.49289 0.11957 -0.21572
 C518 C 0.49353 0.10431 -0.18766
 C519 C 0.49431 0.08634 -0.15550
 C520 C 0.49495 0.07088 -0.12871
 H521 H 0.47356 0.11725 -0.33376
 H522 H 0.51072 0.16247 -0.17395
 H523 H 0.50976 0.19327 -0.23074
 H524 H 0.47337 0.14786 -0.39404
 C525 C 0.65677 0.49721 -0.22267
 C526 C 0.64579 0.50780 -0.25084
 C527 C 0.65279 0.51839 -0.31260
 C528 C 0.67063 0.51830 -0.34639
 C529 C 0.68190 0.50750 -0.31915
 C530 C 0.67459 0.49703 -0.25623
 C531 C 0.62712 0.50753 -0.21685
 C532 C 0.61135 0.50719 -0.18887
 C533 C 0.59273 0.50667 -0.15673
 C534 C 0.57671 0.50616 -0.12989
 H535 H 0.65160 0.48911 -0.17451
 H536 H 0.64426 0.52649 -0.33518
 H537 H 0.67468 0.52590 -0.39525
 H538 H 0.68299 0.48928 -0.23108
 C539 C 0.84968 0.33808 -0.22864
 C540 C 0.86061 0.35949 -0.25781
 C541 C 0.85317 0.36285 -0.31917
 C542 C 0.83495 0.34486 -0.35154
 C543 C 0.82371 0.32294 -0.32323
 C544 C 0.83147 0.32001 -0.26077
 C545 C 0.87954 0.37797 -0.22494
 C546 C 0.89543 0.39340 -0.19734
 C547 C 0.91401 0.41143 -0.16487
 C548 C 0.92983 0.42682 -0.13694
 H549 H 0.85517 0.33533 -0.18073
 H550 H 0.86164 0.37936 -0.34249
 H551 H 0.83054 0.34820 -0.40017
 H552 H 0.82314 0.30401 -0.23485
 C553 C 0.50923 -0.13653 -0.32805
 C554 C 0.50377 -0.13808 -0.26051
 C555 C 0.49851 -0.15774 -0.22507
 C556 C 0.49864 -0.17583 -0.25706
 C557 C 0.50408 -0.17446 -0.32498
 C558 C 0.50940 -0.15459 -0.36012
 C559 C 0.50354 -0.11950 -0.22760
 C560 C 0.50338 -0.10394 -0.19998
 C561 C 0.50325 -0.08571 -0.16748
 C562 C 0.50324 -0.07013 -0.13950
 H563 H 0.51327 -0.12141 -0.35599
 H564 H 0.49432 -0.15909 -0.17272
 H565 H 0.49473 -0.19080 -0.22852
 H566 H 0.51333 -0.15315 -0.41265
 C567 C 0.34098 0.49530 -0.22557
 C568 C 0.36063 0.50054 -0.26099
 C569 C 0.36217 0.50603 -0.32853
 C570 C 0.34409 0.50617 -0.36065
 C571 C 0.32420 0.50079 -0.32557
 C572 C 0.32287 0.49541 -0.25759
 C573 C 0.37912 0.50008 -0.22816
 C574 C 0.39453 0.49960 -0.20054
 C575 C 0.41252 0.49898 -0.16797
 C576 C 0.42783 0.49846 -0.13984
 H577 H 0.33964 0.49108 -0.17322
 H578 H 0.37728 0.51005 -0.35647
 H579 H 0.34549 0.51008 -0.41321
 H580 H 0.30789 0.49146 -0.22910
 C581 C 1.14664 0.63936 -0.31667
 C582 C 1.13954 0.64307 -0.25528
 C583 C 1.15077 0.66459 -0.22693
 C584 C 1.16896 0.68241 -0.25990
 C585 C 1.17643 0.67911 -0.32234
 C586 C 1.16485 0.65709 -0.34985
 C587 C 1.12070 0.62477 -0.22148
 C588 C 1.10492 0.60936 -0.19347
 C589 C 1.08647 0.59119 -0.16101
 C590 C 1.07078 0.57551 -0.13359
 H591 H 1.13794 0.62276 -0.33934
 H592 H 1.14553 0.66760 -0.17901
 H593 H 1.17755 0.69851 -0.23458
 H594 H 1.16900 0.65348 -0.39844
 C595 C 0.84950 0.51103 -0.22900
 C596 C 0.86039 0.50057 -0.25846
 C597 C 0.85288 0.48981 -0.31977
 C598 C 0.83462 0.48959 -0.35184
 C599 C 0.82341 0.50025 -0.32326
 C600 C 0.83125 0.51091 -0.26084
 C601 C 0.87937 0.50102 -0.22592
 C602 C 0.89529 0.50147 -0.19855
 C603 C 0.91391 0.50205 -0.16628
 C604 C 0.92976 0.50252 -0.13840
 H605 H 0.85506 0.51924 -0.18112
 H606 H 0.86133 0.48179 -0.34329
 H607 H 0.83014 0.48187 -0.40048
 H608 H 0.82295 0.51856 -0.23473
 C609 C 0.48576 0.33567 -0.22669
 C610 C 0.49622 0.35718 -0.25525
 C611 C 0.50690 0.36074 -0.31681
 C612 C 0.50708 0.34286 -0.34998
 C613 C 0.49646 0.32086 -0.32228
 C614 C 0.48584 0.31771 -0.25963
 C615 C 0.49590 0.37559 -0.22157
 C616 C 0.49568 0.39108 -0.19366
 C617 C 0.49552 0.40932 -0.16135
 C618 C 0.49555 0.42503 -0.13409
 H619 H 0.47761 0.33278 -0.17864
 H620 H 0.51491 0.37732 -0.33965
 H621 H 0.51476 0.34636 -0.39871
 H622 H 0.47822 0.30163 -0.23417
 C623 C 0.64880 0.13578 -0.31956
 C624 C 0.64523 0.13779 -0.25204
 C625 C 0.65977 0.15773 -0.21802
 C626 C 0.67773 0.17565 -0.25144
 C627 C 0.68140 0.17383 -0.31942
 C628 C 0.66676 0.15366 -0.35307
 C629 C 0.62650 0.11949 -0.21799
 C630 C 0.61070 0.10412 -0.18995
 C631 C 0.59208 0.08607 -0.15775
 C632 C 0.57608 0.07057 -0.13084
 H633 H 0.63760 0.12044 -0.34643
 H634 H 0.65718 0.15945 -0.16571
 H635 H 0.68887 0.19085 -0.22403
 H636 H 0.66895 0.15187 -0.40559
 C637 C 1.13578 0.48710 -0.32014
 C638 C 1.13790 0.49275 -0.25266
 C639 C 1.15795 0.49833 -0.21894
 C640 C 1.17587 0.49839 -0.25264
 C641 C 1.17396 0.49285 -0.32059
 C642 C 1.15367 0.48713 -0.35392
 C643 C 1.11959 0.49309 -0.21835
 C644 C 1.10423 0.49348 -0.19012
 C645 C 1.08619 0.49402 -0.15772
 C646 C 1.07072 0.49454 -0.13067
 H647 H 1.12037 0.48284 -0.34678
 H648 H 1.15975 0.50269 -0.16667
 H649 H 1.19117 0.50260 -0.22545
 H650 H 1.15179 0.48310 -0.40641
 C651 C 0.51085 0.66217 -0.22831
 C652 C 0.50057 0.64073 -0.25719
 C653 C 0.48966 0.63714 -0.31839
 C654 C 0.48907 0.65493 -0.35090
 C655 C 0.49952 0.67688 -0.32289
 C656 C 0.51037 0.68004 -0.26060
 C657 C 0.50132 0.62242 -0.22414
 C658 C 0.50196 0.60709 -0.19647
 C659 C 0.50266 0.58914 -0.16400
 C660 C 0.50315 0.57377 -0.13613
 H661 H 0.51918 0.66508 -0.18052
 H662 H 0.48177 0.62060 -0.34147
 H663 H 0.48124 0.65143 -0.39942
 H664 H 0.51788 0.69607 -0.23491
 C665 C 0.34633 -0.15892 -0.22904
 C666 C 0.35750 -0.13753 -0.25830
 C667 C 0.35021 -0.13407 -0.31976
 C668 C 0.33188 -0.15192 -0.35212
 C669 C 0.32035 -0.17382 -0.32367
 C670 C 0.32800 -0.17687 -0.26117
 C671 C 0.37647 -0.11912 -0.22532
 C672 C 0.39234 -0.10368 -0.19775
 C673 C 0.41088 -0.08556 -0.16542
 C674 C 0.42663 -0.07004 -0.13769
 H675 H 0.35171 -0.16174 -0.18105
 H676 H 0.35887 -0.11757 -0.34314
 H677 H 0.32757 -0.14852 -0.40082
 H678 H 0.31948 -0.19285 -0.23519
 C679 C 0.50502 -0.15448 0.22393
 C680 C 0.49998 -0.13996 0.25952
 C681 C 0.49425 -0.14407 0.32686
 C682 C 0.49366 -0.16257 0.35862
 C683 C 0.49882 -0.17721 0.32336
 C684 C 0.50446 -0.17298 0.25560
 C685 C 0.50079 -0.12080 0.22698
 C686 C 0.50149 -0.10477 0.19952
 C687 C 0.50228 -0.08608 0.16698
 C688 C 0.50286 -0.07024 0.13872
 H689 H 0.50941 -0.15149 0.17173
 H690 H 0.49038 -0.13290 0.35493
 H691 H 0.48957 -0.16519 0.41104
 H692 H 0.50826 -0.18408 0.22696
 C693 C 0.35394 0.48960 0.32445
 C694 C 0.35772 0.49500 0.25683
 C695 C 0.34310 0.49999 0.22150
 C696 C 0.32480 0.49966 0.25367
 C697 C 0.32088 0.49429 0.32167
 C698 C 0.33565 0.48924 0.35671
 C699 C 0.37661 0.49543 0.22377
 C700 C 0.39242 0.49577 0.19612
 C701 C 0.41089 0.49608 0.16370
 C702 C 0.42659 0.49624 0.13589
 H703 H 0.36519 0.48577 0.35232
 H704 H 0.34584 0.50412 0.16909
 H705 H 0.31359 0.50337 0.22521
 H706 H 0.33326 0.48537 0.40929
 C707 C 1.13632 0.64900 0.31641
 C708 C 1.13857 0.64552 0.24899
 C709 C 1.15865 0.66007 0.21557
 C710 C 1.17647 0.67797 0.24952
 C711 C 1.17441 0.68155 0.31741
 C712 C 1.15410 0.66690 0.35044
 C713 C 1.12037 0.62684 0.21444
 C714 C 1.10506 0.61107 0.18610
 C715 C 1.08705 0.59246 0.15372
 C716 C 1.07155 0.57645 0.12682
 H717 H 1.12088 0.63778 0.34282
 H718 H 1.16056 0.65755 0.16334
 H719 H 1.19179 0.68912 0.22256
 H720 H 1.15212 0.66901 0.40287
 C721 C 0.49115 0.15347 0.21998
 C722 C 0.49646 0.13888 0.25413
 C723 C 0.50201 0.14241 0.32169
 C724 C 0.50217 0.16042 0.35511
 C725 C 0.49676 0.17513 0.32131
 C726 C 0.49128 0.17148 0.25331
 C727 C 0.49613 0.12022 0.22000
 C728 C 0.49588 0.10455 0.19175
 C729 C 0.49569 0.08619 0.15912
 C730 C 0.49568 0.07052 0.13166
 H731 H 0.48690 0.15093 0.16762
 H732 H 0.50609 0.13118 0.34864
 H733 H 0.50614 0.16260 0.40764
 H734 H 0.48731 0.18268 0.22577
 C735 C 0.64058 0.49698 0.32031
 C736 C 0.64266 0.50253 0.25274
 C737 C 0.66251 0.50763 0.21871
 C738 C 0.68029 0.50729 0.25218
 C739 C 0.67839 0.50179 0.32018
 C740 C 0.65832 0.49660 0.35386
 C741 C 0.62442 0.50305 0.21850
 C742 C 0.60906 0.50344 0.19025
 C743 C 0.59093 0.50378 0.15769
 C744 C 0.57530 0.50391 0.13033
 H745 H 0.62530 0.49305 0.34717
 H746 H 0.66427 0.51189 0.16635
 H747 H 0.69542 0.51110 0.22474
 H748 H 0.65647 0.49262 0.40639
 C749 C 0.86481 0.35459 0.32910
 C750 C 0.86322 0.35873 0.26175
 C751 C 0.84363 0.34428 0.22608
 C752 C 0.82567 0.32579 0.25764
 C753 C 0.82710 0.32150 0.32536
 C754 C 0.84688 0.33610 0.36074
 C755 C 0.88168 0.37776 0.22921
 C756 C 0.89715 0.39364 0.20177
 C757 C 0.91528 0.41212 0.16927
 C758 C 0.93076 0.42774 0.14105
 H759 H 0.87988 0.36570 0.35721
 H760 H 0.84226 0.34729 0.17386
 H761 H 0.81077 0.31471 0.22893
 H762 H 0.84835 0.33343 0.41314
   
