data_POSCAR
  _audit_creation_date              2014-09-24
  _audit_creation_method            'ToBaCCo'
  _symmetry_space_group_name_H-M    'P1'
  _symmetry_Int_Tables_number       1
  _symmetry_cell_setting            triclinic
  loop_
  _symmetry_equiv_pos_as_xyz
 x,y,z
_cell_length_a 39.3897
_cell_length_b 39.4353
_cell_length_c 39.0900
_cell_angle_alpha 90.225800
_cell_angle_beta 89.840900
_cell_angle_gamma 87.016400
loop_
  _atom_site_label
  _atom_site_type_symbol
  _atom_site_fract_x
  _atom_site_fract_y
  _atom_site_fract_z
C1 C 0.29105 0.25304 0.23415
 C2 C 0.26467 0.27822 0.23197
 C3 C 0.23816 0.27997 0.25613
 C4 C 0.23847 0.25635 0.28298
 C5 C 0.26478 0.23103 0.28561
 C6 C 0.29094 0.22961 0.26108
 H7 H 0.26452 0.29625 0.21113
 H8 H 0.21804 0.25748 0.30163
 H9 H 0.31113 0.20995 0.26271
 C10 C 0.70574 -0.25252 0.22960
 C11 C 0.70655 -0.22867 0.25655
 C12 C 0.73307 -0.22961 0.28042
 C13 C 0.75934 -0.25485 0.27764
 C14 C 0.75966 -0.27936 0.25122
 C15 C 0.73245 -0.27782 0.22763
 H16 H 0.68622 -0.20943 0.25976
 H17 H 0.78003 -0.25438 0.29572
 H18 H 0.73219 -0.29638 0.20738
 C19 C 0.73544 0.25087 0.77567
 C20 C 0.73762 0.22599 0.74995
 C21 C 0.76185 0.22729 0.72373
 C22 C 0.78416 0.25394 0.72349
 C23 C 0.78285 0.27931 0.74921
 C24 C 0.75799 0.27729 0.77518
 H25 H 0.72039 0.20547 0.75042
 H26 H 0.80323 0.25397 0.70357
 H27 H 0.75532 0.29661 0.79485
 C28 C 0.26328 -0.25507 0.77289
 C29 C 0.24124 -0.28186 0.77028
 C30 C 0.21721 -0.28304 0.74351
 C31 C 0.21627 -0.25646 0.71928
 C32 C 0.23816 -0.22958 0.72156
 C33 C 0.26155 -0.22912 0.74844
 H34 H 0.24362 -0.30199 0.78894
 H35 H 0.19777 -0.25570 0.69891
 H36 H 0.27844 -0.20839 0.75047
 C37 C 0.71580 -0.24840 0.77799
 C38 C 0.71450 -0.22130 0.75485
 C39 C 0.73946 -0.21896 0.72950
 C40 C 0.76600 -0.24407 0.72745
 C41 C 0.76803 -0.27188 0.75020
 C42 C 0.74250 -0.27341 0.77558
 H43 H 0.69386 -0.20210 0.75642
 H44 H 0.78538 -0.24117 0.70823
 H45 H 0.74236 -0.29458 0.79304
 C46 C 0.28141 0.24639 0.78459
 C47 C 0.25503 0.27168 0.78205
 C48 C 0.23063 0.27037 0.75603
 C49 C 0.23260 0.24323 0.73266
 C50 C 0.25864 0.21765 0.73489
 C51 C 0.28295 0.21941 0.76095
 H52 H 0.25374 0.29265 0.80007
 H53 H 0.21395 0.24221 0.71241
 H54 H 0.30332 0.19995 0.76261
 C55 C 0.25781 -0.24662 0.22172
 C56 C 0.23214 -0.27039 0.22253
 C57 C 0.20629 -0.26861 0.24739
 C58 C 0.20576 -0.24252 0.27184
 C59 C 0.23075 -0.21848 0.27175
 C60 C 0.25653 -0.22065 0.24680
 H61 H 0.23142 -0.29017 0.20339
 H62 H 0.18591 -0.24098 0.29110
 H63 H 0.27604 -0.20239 0.24793
 C64 C 0.74362 0.24549 0.22220
 C65 C 0.74512 0.22047 0.24763
 C66 C 0.77140 0.21923 0.27193
 C67 C 0.79651 0.24328 0.27036
 C68 C 0.79551 0.26824 0.24481
 C69 C 0.76896 0.26916 0.22092
 H70 H 0.72566 0.20206 0.24863
 H71 H 0.81681 0.24260 0.28903
 H72 H 0.76792 0.28852 0.20130
 O73 O 0.22417 0.03944 0.47144
 O74 O 0.21609 -0.02841 0.53504
 O75 O 0.22457 0.03634 0.53784
 O76 O 0.21533 -0.02569 0.46847
 O77 O 0.27095 -0.03562 0.46711
 O78 O 0.28014 0.02590 0.53726
 O79 O 0.27163 -0.03894 0.53366
 O80 O 0.27978 0.02935 0.47075
 Cu81 Cu 0.21446 0.00642 0.50321
 Cu82 Cu 0.28120 -0.00586 0.50203
 C83 C 0.25343 0.04616 0.46037
 C84 C 0.24250 -0.04521 0.54532
 C85 C 0.25387 0.04164 0.54957
 C86 C 0.24152 -0.04132 0.45591
 O87 O 0.78492 0.02805 0.53321
 O88 O 0.77629 -0.03928 0.46850
 O89 O 0.78605 0.02574 0.46666
 O90 O 0.77592 -0.03669 0.53508
 O91 O 0.72043 -0.02575 0.53474
 O92 O 0.73052 0.03624 0.46560
 O93 O 0.72078 -0.02860 0.46814
 O94 O 0.72945 0.03903 0.53209
 Cu95 Cu 0.78636 -0.00664 0.50085
 Cu96 Cu 0.71974 0.00629 0.50001
 C97 C 0.75861 0.04505 0.54373
 C98 C 0.74697 -0.04557 0.45738
 C99 C 0.76006 0.04178 0.45447
 C100 C 0.74652 -0.04180 0.54679
 O101 O 0.48201 0.22020 0.03809
 O102 O 0.54517 0.22013 -0.03087
 O103 O 0.54781 0.22124 0.03573
 O104 O 0.47897 0.22172 -0.02850
 O105 O 0.47661 0.27773 -0.02780
 O106 O 0.54485 0.27726 0.03565
 O107 O 0.54292 0.27614 -0.03074
 O108 O 0.47886 0.27622 0.03865
 Cu109 Cu 0.51375 0.21522 0.00352
 Cu110 Cu 0.51052 0.28244 0.00393
 C111 C 0.46963 0.24804 0.05029
 C112 C 0.55506 0.24793 -0.04255
 C113 C 0.55804 0.24937 0.04664
 C114 C 0.46596 0.24999 -0.03900
 O115 O 0.51720 0.77732 0.03326
 O116 O 0.45251 0.77612 -0.03384
 O117 O 0.45121 0.77587 0.03276
 O118 O 0.51868 0.77506 -0.03333
 O119 O 0.52148 0.71907 -0.03239
 O120 O 0.45475 0.71986 0.03319
 O121 O 0.45503 0.72012 -0.03342
 O122 O 0.52047 0.72133 0.03429
 Cu123 Cu 0.48460 0.78168 -0.00039
 Cu124 Cu 0.48826 0.71449 0.00038
 C125 C 0.52987 0.74970 0.04542
 C126 C 0.44251 0.74812 -0.04509
 C127 C 0.44159 0.74782 0.04435
 C128 C 0.53167 0.74677 -0.04405
 O129 O 0.03586 0.46972 0.21585
 O130 O -0.03582 0.53317 0.21499
 O131 O 0.02975 0.53565 0.21630
 O132 O -0.02994 0.46713 0.21426
 O133 O -0.03123 0.46636 0.27067
 O134 O 0.02851 0.53543 0.27271
 O135 O -0.03752 0.53270 0.27140
 O136 O 0.03457 0.46916 0.27227
 Cu137 Cu 0.00007 0.50142 0.20972
 Cu138 Cu -0.00157 0.50090 0.27744
 C139 C 0.04748 0.45851 0.24414
 C140 C -0.04888 0.54393 0.24299
 C141 C 0.03930 0.54738 0.24479
 C142 C -0.04071 0.45487 0.24201
 O143 O 0.03196 0.53190 0.76999
 O144 O -0.03363 0.46843 0.77248
 O145 O 0.03278 0.46587 0.77203
 O146 O -0.03443 0.53460 0.77090
 O147 O -0.03464 0.53278 0.71450
 O148 O 0.03190 0.46388 0.71563
 O149 O -0.03402 0.46694 0.71607
 O150 O 0.03169 0.52960 0.71360
 Cu151 Cu -0.00082 0.50039 0.77703
 Cu152 Cu -0.00133 0.49820 0.70932
 C153 C 0.04324 0.54138 0.74127
 C154 C -0.04504 0.45684 0.74463
 C155 C 0.04384 0.45313 0.74397
 C156 C -0.04610 0.54538 0.74245
 C157 C 0.36864 0.24629 0.15712
 C158 C 0.35360 0.21668 0.16829
 C159 C 0.32860 0.21891 0.19362
 C160 C 0.31811 0.25050 0.20768
 C161 C 0.33335 0.27953 0.19558
 N162 N 0.35786 0.27672 0.17101
 C163 C 0.39522 0.24569 0.13010
 N164 N 0.40214 0.27529 0.11427
 C165 C 0.42589 0.27686 0.08906
 C166 C 0.44427 0.24730 0.07822
 C167 C 0.43794 0.21662 0.09450
 C168 C 0.41375 0.21571 0.12050
 H169 H 0.31690 0.19600 0.20169
 H170 H 0.32603 0.30438 0.20584
 H171 H 0.43008 0.30109 0.07730
 H172 H 0.45188 0.19326 0.08732
 H173 H 0.36023 0.19204 0.15731
 H174 H 0.41021 0.19176 0.13298
 C175 C 0.62897 0.75282 0.15350
 C176 C 0.63639 0.78210 0.17195
 C177 C 0.66135 0.78029 0.19719
 C178 C 0.67924 0.74928 0.20478
 C179 C 0.66999 0.72035 0.18620
 N180 N 0.64566 0.72291 0.16163
 C181 C 0.60340 0.75320 0.12566
 N182 N 0.59104 0.72323 0.11520
 C183 C 0.56782 0.72135 0.08964
 C184 C 0.55560 0.75091 0.07287
 C185 C 0.56827 0.78201 0.08294
 C186 C 0.59220 0.78327 0.10905
 H187 H 0.66738 0.80385 0.20943
 H188 H 0.68105 0.69533 0.19166
 H189 H 0.55883 0.69681 0.08264
 H190 H 0.55988 0.80543 0.07047
 H191 H 0.62322 0.80635 0.16726
 H192 H 0.60202 0.80756 0.11545
 C193 C 0.65925 0.24569 -0.14645
 C194 C 0.67909 0.21633 -0.15552
 C195 C 0.70394 0.21811 -0.18081
 C196 C 0.70953 0.24905 -0.19688
 C197 C 0.68982 0.27798 -0.18654
 N198 N 0.66550 0.27559 -0.16202
 C199 C 0.63206 0.24529 -0.12012
 N200 N 0.62088 0.27510 -0.10517
 C201 C 0.59615 0.27676 -0.08074
 C202 C 0.58115 0.24710 -0.06990
 C203 C 0.59187 0.21620 -0.08538
 C204 C 0.61704 0.21519 -0.11053
 H205 H 0.71913 0.19536 -0.18752
 H206 H 0.69327 0.30233 -0.19839
 H207 H 0.58854 0.30116 -0.06960
 H208 H 0.58071 0.19274 -0.07817
 H209 H 0.67608 0.19227 -0.14306
 H210 H 0.62405 0.19106 -0.12246
 C211 C 0.33744 0.74915 -0.14754
 C212 C 0.31671 0.77818 -0.15533
 C213 C 0.29237 0.77662 -0.18101
 C214 C 0.28815 0.74618 -0.19876
 C215 C 0.30847 0.71740 -0.18945
 N216 N 0.33235 0.71962 -0.16455
 C217 C 0.36461 0.74974 -0.12134
 N218 N 0.37650 0.71999 -0.10702
 C219 C 0.40143 0.71865 -0.08292
 C220 C 0.41596 0.74855 -0.07186
 C221 C 0.40445 0.77937 -0.08669
 C222 C 0.37907 0.78008 -0.11144
 H223 H 0.27664 0.79918 -0.18686
 H224 H 0.30599 0.69343 -0.20253
 H225 H 0.40966 0.69430 -0.07230
 H226 H 0.41520 0.80304 -0.07931
 H227 H 0.31877 0.80186 -0.14167
 H228 H 0.37150 0.80417 -0.12294
 C229 C 0.15707 0.35590 0.24633
 C230 C 0.16879 0.33755 0.21733
 C231 C 0.19519 0.31286 0.22061
 C232 C 0.20982 0.30597 0.25266
 C233 C 0.19695 0.32425 0.28114
 N234 N 0.17135 0.34842 0.27729
 C235 C 0.12921 0.38264 0.24455
 N236 N 0.11294 0.39262 0.27399
 C237 C 0.08710 0.41687 0.27459
 C238 C 0.07610 0.43268 0.24417
 C239 C 0.09279 0.42318 0.21360
 C240 C 0.11939 0.39843 0.21367
 H241 H 0.20384 0.29874 0.19812
 H242 H 0.20758 0.31975 0.30631
 H243 H 0.07505 0.42351 0.29878
 H244 H 0.08542 0.43500 0.18960
 H245 H 0.15754 0.34153 0.19240
 H246 H 0.13219 0.39236 0.18978
 C247 C 0.14661 0.63950 0.73751
 C248 C 0.15597 0.65648 0.70776
 C249 C 0.17966 0.68143 0.70963
 C250 C 0.19424 0.69032 0.74117
 C251 C 0.18427 0.67218 0.77032
 N252 N 0.16098 0.64801 0.76775
 C253 C 0.12060 0.61358 0.73737
 N254 N 0.10540 0.60570 0.76745
 C255 C 0.08089 0.58272 0.76943
 C256 C 0.07013 0.56617 0.73982
 C257 C 0.08577 0.57351 0.70863
 C258 C 0.11107 0.59691 0.70730
 H259 H 0.18697 0.69291 0.68584
 H260 H 0.19338 0.67813 0.79556
 H261 H 0.06968 0.57766 0.79408
 H262 H 0.07865 0.56096 0.68522
 H263 H 0.14488 0.65126 0.68317
 H264 H 0.12309 0.60130 0.68295
 C265 C -0.15944 0.64561 0.24271
 C266 C -0.17803 0.65552 0.21356
 C267 C -0.20447 0.68027 0.21629
 C268 C -0.21323 0.69540 0.24814
 C269 C -0.19389 0.68428 0.27676
 N270 N -0.16821 0.66011 0.27332
 C271 C -0.13099 0.61942 0.24151
 N272 N -0.12032 0.60455 0.27128
 C273 C -0.09435 0.58046 0.27245
 C274 C -0.07734 0.56994 0.24232
 C275 C -0.08768 0.58511 0.21140
 C276 C -0.11423 0.60989 0.21088
 H277 H -0.21690 0.68820 0.19282
 H278 H -0.19979 0.69355 0.30224
 H279 H -0.08711 0.56957 0.29689
 H280 H -0.07500 0.57810 0.18759
 H281 H -0.17270 0.64431 0.18873
 H282 H -0.12084 0.62165 0.18672
 C283 C -0.14638 0.35669 0.74817
 C284 C -0.16089 0.34727 0.77923
 C285 C -0.18454 0.32210 0.77964
 C286 C -0.19390 0.30576 0.74911
 C287 C -0.17877 0.31653 0.71848
 N288 N -0.15597 0.34118 0.71887
 C289 C -0.12065 0.38281 0.74674
 N290 N -0.10902 0.39671 0.77617
 C291 C -0.08508 0.42036 0.77619
 C292 C -0.07132 0.43136 0.74523
 C293 C -0.08306 0.41746 0.71462
 C294 C -0.10760 0.39325 0.71527
 H295 H -0.19403 0.31458 0.80430
 H296 H -0.18571 0.30644 0.69388
 H297 H -0.07682 0.43044 0.80039
 H298 H -0.07320 0.42517 0.69012
 H299 H -0.15380 0.35891 0.80312
 H300 H -0.11618 0.38282 0.69133
 C301 C 0.26450 0.15436 0.36290
 C302 C 0.29482 0.17010 0.35525
 C303 C 0.29479 0.19538 0.33039
 C304 C 0.26466 0.20540 0.31331
 C305 C 0.23471 0.18984 0.32241
 N306 N 0.23542 0.16503 0.34650
 C307 C 0.26298 0.12658 0.38826
 N308 N 0.23220 0.11921 0.40145
 C309 C 0.22850 0.09380 0.42437
 C310 C 0.25694 0.07382 0.43530
 C311 C 0.28888 0.08073 0.42183
 C312 C 0.29202 0.10689 0.39828
 H313 H 0.31830 0.20727 0.32465
 H314 H 0.21095 0.19671 0.30978
 H315 H 0.20335 0.08931 0.43400
 H316 H 0.31147 0.06577 0.42927
 H317 H 0.31832 0.16344 0.36839
 H318 H 0.31686 0.11092 0.38773
 C319 C 0.76712 0.14963 0.64643
 C320 C 0.79732 0.16186 0.65973
 C321 C 0.79563 0.18711 0.68490
 C322 C 0.76404 0.20054 0.69678
 C323 C 0.73452 0.18795 0.68257
 N324 N 0.73680 0.16328 0.65819
 C325 C 0.76669 0.12269 0.61977
 N326 N 0.73660 0.11700 0.60424
 C327 C 0.73348 0.09264 0.57995
 C328 C 0.76184 0.07197 0.56985
 C329 C 0.79317 0.07723 0.58548
 C330 C 0.79571 0.10236 0.61047
 H331 H 0.81908 0.19584 0.69535
 H332 H 0.70961 0.19793 0.69052
 H333 H 0.70879 0.08948 0.56864
 H334 H 0.81566 0.06167 0.57866
 H335 H 0.82209 0.15256 0.65090
 H336 H 0.82007 0.10510 0.62249
 C337 C 0.23386 -0.14994 0.64701
 C338 C 0.20352 -0.16272 0.65942
 C339 C 0.20491 -0.18842 0.68388
 C340 C 0.23635 -0.20180 0.69592
 C341 C 0.26604 -0.18849 0.68279
 N342 N 0.26405 -0.16340 0.65903
 C343 C 0.23448 -0.12283 0.62079
 N344 N 0.26459 -0.11718 0.60513
 C345 C 0.26772 -0.09280 0.58103
 C346 C 0.23935 -0.07214 0.57124
 C347 C 0.20805 -0.07732 0.58706
 C348 C 0.20550 -0.10243 0.61189
 H349 H 0.18134 -0.19767 0.69354
 H350 H 0.29084 -0.19836 0.69096
 H351 H 0.29240 -0.08964 0.56958
 H352 H 0.18556 -0.06173 0.58055
 H353 H 0.17888 -0.15362 0.65027
 H354 H 0.18116 -0.10509 0.62409
 C355 C 0.73452 -0.15260 0.35800
 C356 C 0.70427 -0.16886 0.35143
 C357 C 0.70388 -0.19413 0.32636
 C358 C 0.73353 -0.20358 0.30798
 C359 C 0.76342 -0.18735 0.31588
 N360 N 0.76314 -0.16263 0.34025
 C361 C 0.73647 -0.12507 0.38379
 N362 N 0.76746 -0.11772 0.39639
 C363 C 0.77147 -0.09261 0.41976
 C364 C 0.74317 -0.07291 0.43178
 C365 C 0.71102 -0.07978 0.41889
 C366 C 0.70756 -0.10564 0.39489
 H367 H 0.68046 -0.20654 0.32158
 H368 H 0.78682 -0.19375 0.30219
 H369 H 0.79677 -0.08812 0.42888
 H370 H 0.68850 -0.06504 0.42718
 H371 H 0.68118 -0.16268 0.36564
 H372 H 0.68255 -0.10969 0.38484
 C373 C 0.63746 0.74472 -0.14644
 C374 C 0.64848 0.71565 -0.16517
 C375 C 0.67415 0.71786 -0.18960
 C376 C 0.68872 0.74895 -0.19581
 C377 C 0.67666 0.77751 -0.17700
 N378 N 0.65177 0.77470 -0.15316
 C379 C 0.61032 0.74407 -0.12004
 N380 N 0.59433 0.77394 -0.10995
 C381 C 0.56930 0.77554 -0.08585
 C382 C 0.55894 0.74578 -0.07025
 C383 C 0.57531 0.71476 -0.07997
 C384 C 0.60102 0.71378 -0.10459
 H385 H 0.68214 0.69540 -0.20413
 H386 H 0.68729 0.80196 -0.18095
 H387 H 0.55750 0.80004 -0.07902
 H388 H 0.56847 0.69118 -0.06834
 H389 H 0.63717 0.69151 -0.16176
 H390 H 0.61364 0.68954 -0.11076
 C391 C 0.35893 0.25251 -0.13934
 C392 C 0.34781 0.28182 -0.15734
 C393 C 0.32230 0.27984 -0.18181
 C394 C 0.30799 0.24876 -0.18882
 C395 C 0.32006 0.21997 -0.17066
 N396 N 0.34482 0.22254 -0.14676
 C397 C 0.38612 0.25291 -0.11316
 N398 N 0.40256 0.22303 -0.10411
 C399 C 0.42789 0.22131 -0.08047
 C400 C 0.43814 0.25097 -0.06441
 C401 C 0.42123 0.28195 -0.07298
 C402 C 0.39519 0.28304 -0.09706
 H403 H 0.31431 0.30249 -0.19584
 H404 H 0.30961 0.19552 -0.17522
 H405 H 0.44010 0.19685 -0.07449
 H406 H 0.42795 0.30543 -0.06089
 H407 H 0.35900 0.30596 -0.15339
 H408 H 0.38220 0.30724 -0.10236
 C409 C 0.33634 0.74690 0.14702
 C410 C 0.31943 0.71776 0.15591
 C411 C 0.29379 0.71985 0.18056
 C412 C 0.28415 0.75103 0.19660
 C413 C 0.30174 0.77971 0.18644
 N414 N 0.32670 0.77690 0.16233
 C415 C 0.36385 0.74618 0.12096
 N416 N 0.37198 0.77579 0.10585
 C417 C 0.39672 0.77712 0.08158
 C418 C 0.41494 0.74733 0.07109
 C419 C 0.40734 0.71665 0.08669
 C420 C 0.38211 0.71597 0.11168
 H421 H 0.28266 0.69640 0.18763
 H422 H 0.29501 0.80476 0.19639
 H423 H 0.40189 0.80136 0.07037
 H424 H 0.42109 0.69310 0.07979
 H425 H 0.32545 0.69344 0.14392
 H426 H 0.37760 0.69201 0.12374
 C427 C 0.66344 0.25107 0.14847
 C428 C 0.67281 0.28070 0.16538
 C429 C 0.69886 0.27877 0.18944
 C430 C 0.71538 0.24743 0.19721
 C431 C 0.70468 0.21826 0.18060
 N432 N 0.67945 0.22080 0.15690
 C433 C 0.63649 0.25163 0.12199
 N434 N 0.62230 0.22201 0.11329
 C435 C 0.59751 0.22047 0.08923
 C436 C 0.58548 0.25005 0.07235
 C437 C 0.60007 0.28072 0.08056
 C438 C 0.62561 0.28162 0.10505
 H439 H 0.70585 0.30175 0.20231
 H440 H 0.71681 0.19359 0.18590
 H441 H 0.58706 0.19624 0.08357
 H442 H 0.59193 0.30410 0.06784
 H443 H 0.66008 0.30516 0.16072
 H444 H 0.63685 0.30556 0.10997
 C445 C -0.15280 0.65118 0.74209
 C446 C -0.16214 0.67064 0.71336
 C447 C -0.18820 0.69581 0.71598
 C448 C -0.20530 0.70239 0.74732
 C449 C -0.19466 0.68229 0.77557
 N450 N -0.16915 0.65789 0.77225
 C451 C -0.12528 0.62401 0.74093
 N452 N -0.11074 0.61325 0.77082
 C453 C -0.08549 0.58840 0.77198
 C454 C -0.07340 0.57265 0.74173
 C455 C -0.08821 0.58310 0.71066
 C456 C -0.11416 0.60853 0.71013
 H457 H -0.19549 0.70903 0.69276
 H458 H -0.20542 0.68657 0.80076
 H459 H -0.07494 0.58103 0.79655
 H460 H -0.07999 0.57138 0.68672
 H461 H -0.14946 0.66694 0.68898
 H462 H -0.12560 0.61528 0.68584
 C463 C -0.13177 0.34502 0.23923
 C464 C -0.14040 0.32726 0.20947
 C465 C -0.16373 0.30194 0.21146
 C466 C -0.17819 0.29374 0.24297
 C467 C -0.16801 0.31108 0.27230
 N468 N -0.14557 0.33603 0.26969
 C469 C -0.10822 0.37324 0.23867
 N470 N -0.09498 0.38392 0.26878
 C471 C -0.07362 0.40989 0.27057
 C472 C -0.06432 0.42689 0.24076
 C473 C -0.07788 0.41656 0.20950
 C474 C -0.09991 0.39003 0.20833
 H475 H -0.17040 0.28862 0.18834
 H476 H -0.17862 0.30551 0.29709
 H477 H -0.06382 0.41705 0.29526
 H478 H -0.07172 0.42919 0.18590
 H479 H -0.12931 0.33240 0.18485
 H480 H -0.11055 0.38347 0.18390
 C481 C 0.15138 0.34827 0.74627
 C482 C 0.16944 0.33654 0.71710
 C483 C 0.19524 0.31120 0.72037
 C484 C 0.20353 0.29768 0.75258
 C485 C 0.18551 0.31058 0.78121
 N486 N 0.16023 0.33510 0.77737
 C487 C 0.12339 0.37491 0.74449
 N488 N 0.11319 0.39129 0.77381
 C489 C 0.08780 0.41602 0.77439
 C490 C 0.07098 0.42572 0.74408
 C491 C 0.08072 0.40891 0.71365
 C492 C 0.10664 0.38344 0.71374
 H493 H 0.20909 0.30252 0.69773
 H494 H 0.19109 0.30079 0.80651
 H495 H 0.08102 0.42823 0.79848
 H496 H 0.06817 0.41526 0.68973
 H497 H 0.16439 0.34696 0.69200
 H498 H 0.11285 0.37049 0.68996
 C499 C 0.13266 0.65514 0.24764
 C500 C 0.14610 0.66608 0.27879
 C501 C 0.16975 0.69127 0.27881
 C502 C 0.18007 0.70564 0.24791
 C503 C 0.16559 0.69437 0.21741
 N504 N 0.14272 0.66977 0.21804
 C505 C 0.10827 0.62772 0.24643
 N506 N 0.09741 0.61347 0.27595
 C507 C 0.07543 0.58799 0.27613
 C508 C 0.06311 0.57522 0.24523
 C509 C 0.07393 0.58959 0.21453
 C510 C 0.09639 0.61577 0.21503
 H511 H 0.18054 0.69896 0.30290
 H512 H 0.17236 0.70514 0.19306
 H513 H 0.06774 0.57769 0.30041
 H514 H 0.06506 0.58061 0.19008
 H515 H 0.13879 0.65503 0.30285
 H516 H 0.10444 0.62637 0.19101
 C517 C 0.73562 -0.13986 0.65462
 C518 C 0.70560 -0.15542 0.66378
 C519 C 0.70670 -0.18068 0.68875
 C520 C 0.73756 -0.19070 0.70449
 C521 C 0.76686 -0.17428 0.69491
 N522 N 0.76518 -0.14982 0.67052
 C523 C 0.73683 -0.11410 0.62717
 N524 N 0.76759 -0.10791 0.61320
 C525 C 0.77124 -0.08505 0.58773
 C526 C 0.74276 -0.06662 0.57467
 C527 C 0.71078 -0.07223 0.58889
 C528 C 0.70770 -0.09580 0.61516
 H529 H 0.68362 -0.19313 0.69498
 H530 H 0.79111 -0.18094 0.70669
 H531 H 0.79643 -0.08145 0.57770
 H532 H 0.68816 -0.05831 0.57983
 H533 H 0.68168 -0.14917 0.65126
 H534 H 0.68283 -0.09906 0.62602
 C535 C 0.22952 -0.14088 0.34880
 C536 C 0.19925 -0.14789 0.33172
 C537 C 0.19968 -0.17320 0.30664
 C538 C 0.23012 -0.19131 0.29811
 C539 C 0.25987 -0.18321 0.31528
 N540 N 0.25879 -0.15867 0.33982
 C541 C 0.23107 -0.11469 0.37610
 N542 N 0.26218 -0.10531 0.38661
 C543 C 0.26615 -0.08199 0.41178
 C544 C 0.23764 -0.06646 0.42817
 C545 C 0.20530 -0.07572 0.41790
 C546 C 0.20187 -0.09985 0.39209
 H547 H 0.17629 -0.17830 0.29354
 H548 H 0.28385 -0.19674 0.30964
 H549 H 0.29160 -0.07567 0.41891
 H550 H 0.18260 -0.06462 0.43007
 H551 H 0.17548 -0.13398 0.33701
 H552 H 0.17658 -0.10692 0.38553
 C553 C 0.77314 0.14279 0.34962
 C554 C 0.80352 0.15024 0.33284
 C555 C 0.80302 0.17538 0.30776
 C556 C 0.77242 0.19292 0.29898
 C557 C 0.74266 0.18464 0.31614
 N558 N 0.74379 0.16023 0.34059
 C559 C 0.77141 0.11632 0.37644
 N560 N 0.74018 0.10717 0.38694
 C561 C 0.73593 0.08349 0.41153
 C562 C 0.76428 0.06728 0.42731
 C563 C 0.79675 0.07628 0.41703
 C564 C 0.80046 0.10080 0.39182
 H565 H 0.82645 0.18062 0.29471
 H566 H 0.71856 0.19777 0.31039
 H567 H 0.71040 0.07741 0.41868
 H568 H 0.81933 0.06464 0.42874
 H569 H 0.82742 0.13673 0.33827
 H570 H 0.82585 0.10754 0.38518
 C571 C 0.26342 0.13925 0.65868
 C572 C 0.29350 0.15394 0.66914
 C573 C 0.29206 0.17902 0.69449
 C574 C 0.26083 0.18973 0.70932
 C575 C 0.23146 0.17426 0.69837
 N576 N 0.23348 0.14993 0.67367
 C577 C 0.26260 0.11361 0.63088
 N578 N 0.23206 0.10775 0.61636
 C579 C 0.22871 0.08499 0.59059
 C580 C 0.25730 0.06634 0.57777
 C581 C 0.28905 0.07162 0.59251
 C582 C 0.29182 0.09507 0.61910
 H583 H 0.31524 0.19076 0.70177
 H584 H 0.20689 0.18151 0.70938
 H585 H 0.20369 0.08166 0.58013
 H586 H 0.31173 0.05752 0.58363
 H587 H 0.31778 0.14713 0.65741
 H588 H 0.31651 0.09805 0.63035
   
