data_POSCAR
  _audit_creation_date              2014-09-24
  _audit_creation_method            'ToBaCCo'
  _symmetry_space_group_name_H-M    'P1'
  _symmetry_Int_Tables_number       1
  _symmetry_cell_setting            triclinic
  loop_
  _symmetry_equiv_pos_as_xyz
 x,y,z
_cell_length_a 51.0048
_cell_length_b 56.1407
_cell_length_c 17.4133
_cell_angle_alpha 89.911200
_cell_angle_beta 89.778100
_cell_angle_gamma 90.021300
loop_
  _atom_site_label
  _atom_site_type_symbol
  _atom_site_fract_x
  _atom_site_fract_y
  _atom_site_fract_z
C1 C 0.19345 0.22552 0.24406
 C2 C 0.18137 0.24743 0.22779
 C3 C 0.19463 0.26904 0.23562
 C4 C 0.22095 0.26918 0.26048
 C5 C 0.23346 0.24741 0.27953
 C6 C 0.21958 0.22557 0.27283
 C7 C 0.23137 0.20476 0.30159
 C8 C 0.25686 0.20496 0.32957
 C9 C 0.27201 0.22591 0.32946
 C10 C 0.25970 0.24757 0.30735
 C11 C 0.23501 0.29059 0.26719
 C12 C 0.26053 0.29077 0.29472
 C13 C 0.27324 0.26950 0.31527
 C14 C 0.29884 0.26971 0.34584
 C15 C 0.31075 0.24832 0.36720
 C16 C 0.29828 0.22620 0.35732
 H17 H 0.22071 0.18816 0.30568
 H18 H 0.26416 0.18853 0.35383
 H19 H 0.22635 0.30752 0.25184
 H20 H 0.27002 0.30789 0.30067
 H21 H 0.16149 0.24779 0.20585
 H22 H 0.33080 0.24900 0.38769
 C23 C 0.69212 0.22844 0.25743
 C24 C 0.67866 0.25021 0.26144
 C25 C 0.69079 0.27194 0.24443
 C26 C 0.71702 0.27202 0.21761
 C27 C 0.73120 0.25029 0.21307
 C28 C 0.71889 0.22844 0.23357
 C29 C 0.73322 0.20717 0.22466
 C30 C 0.75923 0.20738 0.20064
 C31 C 0.77172 0.22869 0.17931
 C32 C 0.75762 0.25039 0.18609
 C33 C 0.72914 0.29316 0.19248
 C34 C 0.75506 0.29329 0.16774
 C35 C 0.76984 0.27221 0.16557
 C36 C 0.79633 0.27232 0.14122
 C37 C 0.80978 0.25078 0.13365
 C38 C 0.79792 0.22896 0.15154
 H39 H 0.72454 0.18991 0.23476
 H40 H 0.76929 0.19046 0.19862
 H41 H 0.71859 0.30984 0.19026
 H42 H 0.76323 0.31010 0.14880
 H43 H 0.65861 0.25039 0.28255
 H44 H 0.82997 0.25103 0.11379
 C45 C 0.70613 0.72562 0.64330
 C46 C 0.69311 0.74699 0.62804
 C47 C 0.70316 0.76897 0.65193
 C48 C 0.72733 0.76963 0.69197
 C49 C 0.74152 0.74821 0.70416
 C50 C 0.73082 0.72612 0.68005
 C51 C 0.74500 0.70510 0.69352
 C52 C 0.76876 0.70559 0.73226
 C53 C 0.77969 0.72721 0.75728
 C54 C 0.76611 0.74878 0.74260
 C55 C 0.73712 0.79087 0.72335
 C56 C 0.76115 0.79144 0.76073
 C57 C 0.77667 0.77083 0.76807
 C58 C 0.80139 0.77130 0.80595
 C59 C 0.81373 0.74953 0.82280
 C60 C 0.80347 0.72774 0.79858
 H61 H 0.73782 0.68797 0.67451
 H62 H 0.77835 0.68873 0.74292
 H63 H 0.72605 0.80727 0.72110
 H64 H 0.76699 0.80819 0.78603
 H65 H 0.67438 0.74642 0.59877
 H66 H 0.83263 0.74943 0.85120
 C67 C 0.20205 0.72913 0.85651
 C68 C 0.19232 0.75119 0.88226
 C69 C 0.20507 0.77286 0.86716
 C70 C 0.22992 0.77237 0.82995
 C71 C 0.24020 0.75042 0.80267
 C72 C 0.22590 0.72890 0.81348
 C73 C 0.23503 0.70821 0.77622
 C74 C 0.25905 0.70784 0.73822
 C75 C 0.27460 0.72839 0.73309
 C76 C 0.26472 0.75007 0.76317
 C77 C 0.24538 0.79305 0.82256
 C78 C 0.26918 0.79270 0.78352
 C79 C 0.27920 0.77145 0.75305
 C80 C 0.30321 0.77100 0.71205
 C81 C 0.31292 0.74937 0.68439
 C82 C 0.29932 0.72802 0.69579
 H83 H 0.22351 0.69209 0.77413
 H84 H 0.26502 0.69135 0.71124
 H85 H 0.23946 0.80979 0.84780
 H86 H 0.27966 0.80937 0.77788
 H87 H 0.17396 0.75157 0.91370
 H88 H 0.33173 0.74910 0.65510
 O89 O 1.02276 -0.02912 0.06722
 O90 O 0.97074 0.01615 0.08749
 O91 O 0.97207 -0.02889 0.05309
 O92 O 1.02128 0.01596 0.10436
 O93 O 1.02707 0.02481 -0.01806
 O94 O 0.97587 -0.01896 -0.06903
 O95 O 0.97669 0.02653 -0.03372
 O96 O 1.02676 -0.01996 -0.05549
 Cu97 Cu 0.99627 -0.00746 0.09029
 Cu98 Cu 1.00197 0.00399 -0.05644
 C99 C 1.03352 -0.03239 0.00208
 C100 C 0.96530 0.02940 0.03054
 C101 C 0.96546 -0.03164 -0.01653
 C102 C 1.03256 0.02811 0.05226
 O103 O 0.52326 0.47360 0.51050
 O104 O 0.47492 0.52029 0.55520
 O105 O 0.47290 0.47543 0.51958
 O106 O 0.52599 0.51874 0.54824
 O107 O 0.52384 0.52920 0.42632
 O108 O 0.47195 0.48443 0.39627
 O109 O 0.47280 0.52965 0.43234
 O110 O 0.52291 0.48438 0.38846
 Cu111 Cu 0.49952 0.49614 0.54576
 Cu112 Cu 0.49769 0.50795 0.39856
 C113 C 0.53118 0.47092 0.44179
 C114 C 0.46540 0.53284 0.50131
 C115 C 0.46365 0.47218 0.45284
 C116 C 0.53386 0.53156 0.49257
 O117 O -0.02455 0.52762 0.05471
 O118 O 0.02483 0.48218 0.10322
 O119 O 0.02589 0.52773 0.07079
 O120 O -0.02588 0.48243 0.08824
 O121 O -0.02164 0.47400 -0.03485
 O122 O 0.03122 0.51854 -0.05149
 O123 O 0.02896 0.47327 -0.01954
 O124 O -0.01952 0.51935 -0.06825
 Cu125 Cu -0.00034 0.50583 0.09159
 Cu126 Cu 0.00520 0.49544 -0.05586
 C127 C -0.03030 0.53142 -0.01517
 C128 C 0.03514 0.46976 0.05014
 C129 C 0.03731 0.53097 0.00669
 C130 C -0.03264 0.47043 0.02979
 O131 O 0.47913 1.02552 0.54266
 O132 O 0.53083 0.98001 0.56121
 O133 O 0.52980 1.02503 0.52617
 O134 O 0.48006 0.98025 0.57937
 O135 O 0.47483 0.97125 0.45713
 O136 O 0.52492 1.01553 0.40416
 O137 O 0.52519 0.97009 0.43973
 O138 O 0.47437 1.01612 0.42056
 Cu139 Cu 0.50541 1.00363 0.56466
 Cu140 Cu 0.49942 0.99232 0.41814
 C141 C 0.46808 1.02876 0.47816
 C142 C 0.53656 0.96708 0.50376
 C143 C 0.53571 1.02806 0.45591
 C144 C 0.46901 0.96801 0.52736
 C145 C 1.14939 0.16332 0.19372
 C146 C 1.13811 0.18216 0.23515
 C147 C 1.15263 0.20258 0.25163
 C148 C 1.17913 0.20441 0.22930
 C149 C 1.19039 0.18544 0.18776
 C150 C 1.17564 0.16520 0.16982
 C151 C 1.13357 0.14207 0.17459
 N152 N 1.13988 0.12813 0.11354
 N153 N 1.12501 0.10948 0.09499
 C154 C 1.10339 0.10392 0.13718
 N155 N 1.09727 0.11773 0.19863
 N156 N 1.11199 0.13647 0.21678
 C157 C 1.08636 0.08365 0.11586
 C158 C 1.06916 0.07368 0.17029
 C159 C 1.05220 0.05525 0.14986
 C160 C 1.05174 0.04662 0.07421
 C161 C 1.06911 0.05640 0.01979
 C162 C 1.08643 0.07461 0.04061
 H163 H 1.11785 0.18130 0.25385
 H164 H 1.14325 0.21675 0.28376
 H165 H 1.21038 0.18658 0.16688
 H166 H 1.18479 0.15101 0.13730
 H167 H 1.06874 0.08018 0.22880
 H168 H 1.03899 0.04814 0.19300
 H169 H 1.06922 0.05005 -0.03890
 H170 H 1.09940 0.08200 -0.00265
 C171 C 0.66192 0.66241 0.59169
 C172 C 0.66976 0.66734 0.66741
 C173 C 0.68467 0.68757 0.68372
 C174 C 0.69230 0.70314 0.62466
 C175 C 0.68481 0.69819 0.54895
 C176 C 0.66984 0.67797 0.53252
 C177 C 0.64478 0.64170 0.57519
 N178 N 0.63569 0.63769 0.50312
 N179 N 0.61942 0.61965 0.48909
 C180 C 0.61154 0.60484 0.54651
 N181 N 0.62081 0.60874 0.61841
 N182 N 0.63706 0.62678 0.63245
 C183 C 0.59256 0.58536 0.53171
 C184 C 0.58429 0.57030 0.59167
 C185 C 0.56552 0.55263 0.57866
 C186 C 0.55458 0.54960 0.50539
 C187 C 0.56316 0.56437 0.44509
 C188 C 0.58194 0.58204 0.45809
 H189 H 0.66394 0.65585 0.71446
 H190 H 0.68986 0.69136 0.74272
 H191 H 0.69029 0.71017 0.50277
 H192 H 0.66413 0.67475 0.47362
 H193 H 0.59206 0.57229 0.64906
 H194 H 0.55938 0.54153 0.62635
 H195 H 0.55514 0.56247 0.38793
 H196 H 0.58787 0.59330 0.41055
 C197 C -0.15837 0.33575 0.09981
 C198 C -0.16988 0.33153 0.17214
 C199 C -0.18492 0.31111 0.18511
 C200 C -0.18896 0.29461 0.12594
 C201 C -0.17768 0.29878 0.05358
 C202 C -0.16261 0.31921 0.04049
 C203 C -0.14144 0.35690 0.08715
 N204 N -0.12982 0.36086 0.01796
 N205 N -0.11392 0.37942 0.00747
 C206 C -0.10894 0.39482 0.06572
 N207 N -0.12070 0.39094 0.13475
 N208 N -0.13660 0.37239 0.14522
 C209 C -0.09042 0.41495 0.05513
 C210 C -0.08433 0.43003 0.11694
 C211 C -0.06589 0.44825 0.10829
 C212 C -0.05314 0.45189 0.03756
 C213 C -0.05963 0.43718 -0.02479
 C214 C -0.07805 0.41891 -0.01610
 H215 H -0.16700 0.34384 0.21917
 H216 H -0.19317 0.30799 0.24165
 H217 H -0.18045 0.28613 0.00742
 H218 H -0.15404 0.32186 -0.01586
 H219 H -0.09352 0.42757 0.17253
 H220 H -0.06142 0.45931 0.15741
 H221 H -0.05019 0.43955 -0.08009
 H222 H -0.08234 0.40770 -0.06503
 C223 C 0.34921 0.83332 0.66137
 C224 C 0.33604 0.82099 0.60271
 C225 C 0.32097 0.80088 0.61964
 C226 C 0.31862 0.79277 0.69546
 C227 C 0.33174 0.80488 0.75428
 C228 C 0.34683 0.82506 0.73747
 C229 C 0.36568 0.85435 0.64273
 N230 N 0.37839 0.86654 0.69874
 N231 N 0.39362 0.88510 0.68144
 C232 C 0.39677 0.89227 0.60739
 N233 N 0.38395 0.88014 0.55152
 N234 N 0.36874 0.86161 0.56881
 C235 C 0.41436 0.91242 0.58750
 C236 C 0.41882 0.91858 0.51025
 C237 C 0.43624 0.93685 0.49097
 C238 C 0.44957 0.94949 0.54843
 C239 C 0.44475 0.94370 0.62576
 C240 C 0.42737 0.92534 0.64509
 H241 H 0.33747 0.82677 0.54351
 H242 H 0.31111 0.79159 0.57353
 H243 H 0.33034 0.79864 0.81304
 H244 H 0.35677 0.83404 0.78398
 H245 H 0.40913 0.90908 0.46434
 H246 H 0.43944 0.94090 0.43083
 H247 H 0.45473 0.95309 0.67139
 H248 H 0.42435 0.92112 0.70517
 C249 C -0.15046 0.66585 -0.14701
 C250 C -0.15399 0.67289 -0.22391
 C251 C -0.16921 0.69284 -0.24174
 C252 C -0.18137 0.70597 -0.18317
 C253 C -0.17793 0.69905 -0.10650
 C254 C -0.16270 0.67914 -0.08854
 C255 C -0.13372 0.64510 -0.12773
 N256 N -0.12945 0.63889 -0.05340
 N257 N -0.11399 0.62057 -0.03592
 C258 C -0.10214 0.60763 -0.09202
 N259 N -0.10650 0.61377 -0.16638
 N260 N -0.12195 0.63210 -0.18386
 C261 C -0.08442 0.58759 -0.07240
 C262 C -0.07232 0.57408 -0.13051
 C263 C -0.05503 0.55565 -0.11195
 C264 C -0.04941 0.55031 -0.03487
 C265 C -0.06173 0.56362 0.02324
 C266 C -0.07905 0.58202 0.00471
 H267 H -0.14478 0.66316 -0.27036
 H268 H -0.17137 0.69818 -0.30118
 H269 H -0.18699 0.70915 -0.06055
 H270 H -0.16038 0.67429 -0.02875
 H271 H -0.07602 0.57784 -0.19050
 H272 H -0.04585 0.54575 -0.15811
 H273 H -0.05784 0.55996 0.08320
 H274 H -0.08801 0.59202 0.05098
 C275 C 0.34456 1.16459 0.40004
 C276 C 0.32863 1.16594 0.33450
 C277 C 0.31312 1.18602 0.32088
 C278 C 0.31292 1.20527 0.37276
 C279 C 0.32921 1.20392 0.43787
 C280 C 0.34460 1.18380 0.45161
 C281 C 0.36152 1.14355 0.41373
 N282 N 0.37556 1.14153 0.47956
 N283 N 0.39126 1.12293 0.49119
 C284 C 0.39363 1.10554 0.43745
 N285 N 0.37950 1.10751 0.37175
 N286 N 0.36376 1.12609 0.36018
 C287 C 0.41178 1.08524 0.44929
 C288 C 0.41644 1.06878 0.39005
 C289 C 0.43442 1.05026 0.39991
 C290 C 0.44809 1.04769 0.46937
 C291 C 0.44305 1.06383 0.52922
 C292 C 0.42515 1.08243 0.51923
 H293 H 0.32834 1.15158 0.29309
 H294 H 0.30195 1.18680 0.26816
 H295 H 0.32962 1.21825 0.47946
 H296 H 0.35671 1.18343 0.50252
 H297 H 0.40650 1.07037 0.33546
 H298 H 0.43779 1.03809 0.35272
 H299 H 0.45326 1.06234 0.58343
 H300 H 0.42199 1.09474 0.56618
 C301 C 1.16093 -0.16489 -0.08167
 C302 C 1.17435 -0.16701 -0.15198
 C303 C 1.18944 -0.18718 -0.16800
 C304 C 1.19173 -0.20576 -0.11392
 C305 C 1.17832 -0.20347 -0.04335
 C306 C 1.16334 -0.18324 -0.02723
 C307 C 1.14372 -0.14412 -0.06649
 N308 N 1.13088 -0.14188 0.00164
 N309 N 1.11461 -0.12372 0.01411
 C310 C 1.11045 -0.10704 -0.04108
 N311 N 1.12343 -0.10919 -0.10899
 N312 N 1.13971 -0.12733 -0.12142
 C313 C 1.09154 -0.08734 -0.02857
 C314 C 1.08577 -0.07133 -0.08828
 C315 C 1.06715 -0.05339 -0.07792
 C316 C 1.05389 -0.05094 -0.00748
 C317 C 1.05996 -0.06665 0.05278
 C318 C 1.07855 -0.08469 0.04231
 H319 H 1.17276 -0.15332 -0.19558
 H320 H 1.19839 -0.18868 -0.22430
 H321 H 1.17968 -0.21723 0.00013
 H322 H 1.15332 -0.18220 0.02760
 H323 H 1.09540 -0.07280 -0.14359
 H324 H 1.06301 -0.04153 -0.12545
 H325 H 1.05009 -0.06522 0.10775
 H326 H 1.08255 -0.09667 0.08963
 C327 C 0.64512 0.33450 0.29576
 C328 C 0.67088 0.33244 0.32298
 C329 C 0.68576 0.31219 0.30612
 C330 C 0.67556 0.29412 0.25905
 C331 C 0.64988 0.29642 0.23099
 C332 C 0.63471 0.31630 0.24988
 C333 C 0.62883 0.35512 0.31730
 N334 N 0.60296 0.35220 0.33335
 N335 N 0.58827 0.37068 0.35452
 C336 C 0.59879 0.39283 0.35947
 N337 N 0.62462 0.39582 0.34274
 N338 N 0.63942 0.37726 0.32263
 C339 C 0.58237 0.41320 0.38262
 C340 C 0.58549 0.43552 0.34729
 C341 C 0.56886 0.45443 0.36657
 C342 C 0.54950 0.45148 0.42335
 C343 C 0.54695 0.42937 0.46032
 C344 C 0.56297 0.41027 0.43924
 H345 H 0.67915 0.34610 0.35948
 H346 H 0.70518 0.31050 0.33050
 H347 H 0.64147 0.28266 0.19517
 H348 H 0.61486 0.31753 0.22833
 H349 H 0.60027 0.43813 0.30324
 H350 H 0.57113 0.47136 0.33740
 H351 H 0.53200 0.42666 0.50385
 H352 H 0.56030 0.39322 0.46741
 C353 C 0.84483 -0.16623 -0.14077
 C354 C 0.83202 -0.16832 -0.21175
 C355 C 0.81720 -0.18861 -0.22877
 C356 C 0.81480 -0.20737 -0.17523
 C357 C 0.82791 -0.20521 -0.10450
 C358 C 0.84245 -0.18487 -0.08727
 C359 C 0.86113 -0.14509 -0.12280
 N360 N 0.87061 -0.14183 -0.05083
 N361 N 0.88587 -0.12329 -0.03469
 C362 C 0.89240 -0.10719 -0.08981
 N363 N 0.88283 -0.11035 -0.16181
 N364 N 0.86748 -0.12889 -0.17793
 C365 C 0.91015 -0.08704 -0.07164
 C366 C 0.92015 -0.07213 -0.12984
 C367 C 0.93786 -0.05388 -0.11217
 C368 C 0.94583 -0.05012 -0.03593
 C369 C 0.93540 -0.06473 0.02222
 C370 C 0.91784 -0.08295 0.00460
 H371 H 0.83367 -0.15440 -0.25463
 H372 H 0.80847 -0.19000 -0.28519
 H373 H 0.82651 -0.21913 -0.06150
 H374 H 0.85214 -0.18393 -0.03215
 H375 H 0.91464 -0.07480 -0.18920
 H376 H 0.94553 -0.04291 -0.15827
 H377 H 0.94106 -0.06233 0.08157
 H378 H 0.91047 -0.09398 0.05097
 C379 C 0.34400 0.33367 0.37629
 C380 C 0.33766 0.32565 0.30211
 C381 C 0.32288 0.30491 0.29210
 C382 C 0.31405 0.29194 0.35602
 C383 C 0.32042 0.29975 0.42999
 C384 C 0.33519 0.32045 0.44012
 C385 C 0.36006 0.35542 0.38719
 N386 N 0.36663 0.36282 0.45879
 N387 N 0.38154 0.38202 0.46875
 C388 C 0.39052 0.39470 0.40757
 N389 N 0.38383 0.38740 0.33593
 N390 N 0.36891 0.36817 0.32596
 C391 C 0.40797 0.41553 0.41895
 C392 C 0.41755 0.42865 0.35590
 C393 C 0.43513 0.44746 0.36686
 C394 C 0.44356 0.45351 0.44106
 C395 C 0.43351 0.44076 0.50412
 C396 C 0.41591 0.42204 0.49322
 H397 H 0.34421 0.33531 0.25171
 H398 H 0.31836 0.29892 0.23455
 H399 H 0.31390 0.28979 0.47987
 H400 H 0.33977 0.32603 0.49803
 H401 H 0.41178 0.42418 0.29791
 H402 H 0.44253 0.45694 0.31709
 H403 H 0.43953 0.44500 0.56208
 H404 H 0.40889 0.41241 0.54314
 C405 C 0.15732 0.66766 -0.08465
 C406 C 0.18477 0.66699 -0.08097
 C407 C 0.19961 0.68720 -0.09952
 C408 C 0.18737 0.70830 -0.12527
 C409 C 0.15971 0.70868 -0.12837
 C410 C 0.14496 0.68874 -0.10785
 C411 C 0.14136 0.64662 -0.06456
 N412 N 0.11717 0.64940 -0.03304
 N413 N 0.10217 0.63058 -0.01759
 C414 C 0.11062 0.60823 -0.03386
 N415 N 0.13485 0.60540 -0.06529
 N416 N 0.15001 0.62424 -0.07993
 C417 C 0.09325 0.58760 -0.02018
 C418 C 0.09454 0.56745 -0.06776
 C419 C 0.07651 0.54885 -0.05866
 C420 C 0.05733 0.54985 -0.00064
 C421 C 0.05670 0.56961 0.04870
 C422 C 0.07428 0.58843 0.03840
 H423 H 0.19472 0.65103 -0.06175
 H424 H 0.22065 0.68646 -0.09177
 H425 H 0.14931 0.72425 -0.14886
 H426 H 0.12379 0.68966 -0.11173
 H427 H 0.10890 0.56643 -0.11360
 H428 H 0.07748 0.53375 -0.09718
 H429 H 0.04208 0.57086 0.09381
 H430 H 0.07294 0.60372 0.07607
 C431 C 0.64895 1.16643 0.31718
 C432 C 0.67329 1.17098 0.35178
 C433 C 0.68771 1.19132 0.33206
 C434 C 0.67810 1.20757 0.27727
 C435 C 0.65324 1.20337 0.24514
 C436 C 0.63907 1.18290 0.26390
 C437 C 0.63373 1.14477 0.33657
 N438 N 0.61429 1.13713 0.28958
 N439 N 0.60023 1.11789 0.30721
 C440 C 0.60492 1.10553 0.37280
 N441 N 0.62440 1.11312 0.41982
 N442 N 0.63860 1.13230 0.40191
 C443 C 0.58853 1.08469 0.39343
 C444 C 0.58741 1.07637 0.46953
 C445 C 0.57056 1.05771 0.48972
 C446 C 0.55477 1.04676 0.43400
 C447 C 0.55650 1.05459 0.35749
 C448 C 0.57306 1.07345 0.33753
 H449 H 0.68128 1.15876 0.39377
 H450 H 0.70617 1.19459 0.36079
 H451 H 0.64507 1.21561 0.20342
 H452 H 0.62022 1.18008 0.23697
 H453 H 0.59905 1.08469 0.51394
 H454 H 0.56971 1.05200 0.54912
 H455 H 0.54455 1.04655 0.31327
 H456 H 0.57359 1.07934 0.27829
 C457 C 0.15119 0.33234 0.18006
 C458 C 0.15875 0.32771 0.25630
 C459 C 0.17310 0.30725 0.27431
 C460 C 0.18021 0.29113 0.21646
 C461 C 0.17274 0.29563 0.14049
 C462 C 0.15846 0.31608 0.12233
 C463 C 0.13542 0.35372 0.16087
 N464 N 0.12882 0.35851 0.08696
 N465 N 0.11415 0.37737 0.06971
 C466 C 0.10541 0.39227 0.12559
 N467 N 0.11211 0.38756 0.19951
 N468 N 0.12682 0.36869 0.21677
 C469 C 0.08837 0.41282 0.10633
 C470 C 0.07797 0.42746 0.16441
 C471 C 0.06101 0.44619 0.14618
 C472 C 0.05411 0.45072 0.06948
 C473 C 0.06489 0.43637 0.01134
 C474 C 0.08180 0.41765 0.02954
 H475 H 0.15346 0.33980 0.30218
 H476 H 0.17854 0.30387 0.33340
 H477 H 0.17797 0.28325 0.09529
 H478 H 0.15293 0.31902 0.06311
 H479 H 0.08264 0.42428 0.22416
 H480 H 0.05306 0.45694 0.19231
 H481 H 0.06001 0.43939 -0.04835
 H482 H 0.08948 0.40681 -0.01672
 C483 C 0.65608 0.83053 0.59974
 C484 C 0.68277 0.83016 0.57965
 C485 C 0.69812 0.81014 0.59597
 C486 C 0.68728 0.79059 0.63545
 C487 C 0.66062 0.79113 0.65595
 C488 C 0.64512 0.81080 0.63762
 C489 C 0.63953 0.85123 0.58085
 N490 N 0.61397 0.84811 0.56188
 N491 N 0.59877 0.86674 0.54599
 C492 C 0.60845 0.88924 0.54936
 N493 N 0.63401 0.89239 0.56856
 N494 N 0.64932 0.87372 0.58349
 C495 C 0.59120 0.90979 0.53430
 C496 C 0.59434 0.93114 0.57517
 C497 C 0.57666 0.94992 0.56498
 C498 C 0.55607 0.94788 0.51208
 C499 C 0.55352 0.92684 0.46927
 C500 C 0.57071 0.90784 0.48108
 H501 H 0.69156 0.84509 0.54969
 H502 H 0.71845 0.80987 0.57779
 H503 H 0.65177 0.77625 0.68604
 H504 H 0.62461 0.81073 0.65402
 H505 H 0.60993 0.93301 0.61678
 H506 H 0.57903 0.96601 0.59850
 H507 H 0.53771 0.92480 0.42846
 H508 H 0.56797 0.89158 0.44868
 C509 C 0.84561 0.16670 0.11519
 C510 C 0.85457 0.18547 0.16129
 C511 C 0.83874 0.20533 0.17456
 C512 C 0.81386 0.20703 0.14070
 C513 C 0.80516 0.18848 0.09301
 C514 C 0.82068 0.16823 0.08173
 C515 C 0.86257 0.14594 0.10079
 N516 N 0.85236 0.12363 0.09647
 N517 N 0.86789 0.10490 0.08438
 C518 C 0.89414 0.10785 0.07503
 N519 N 0.90429 0.13017 0.07876
 N520 N 0.88883 0.14884 0.09192
 C521 C 0.91148 0.08730 0.06130
 C522 C 0.93302 0.08955 0.01145
 C523 C 0.95000 0.07039 -0.00026
 C524 C 0.94620 0.04889 0.03952
 C525 C 0.92468 0.04660 0.08952
 C526 C 0.90717 0.06557 0.09937
 H527 H 0.87374 0.18465 0.18771
 H528 H 0.84597 0.21950 0.21093
 H529 H 0.78639 0.18972 0.06441
 H530 H 0.81353 0.15408 0.04513
 H531 H 0.93665 0.10612 -0.01870
 H532 H 0.96656 0.07260 -0.03875
 H533 H 0.92138 0.03015 0.12066
 H534 H 0.89073 0.06350 0.13836
 C535 C 0.34163 0.66490 0.63025
 C536 C 0.33279 0.66797 0.70623
 C537 C 0.31841 0.68816 0.72688
 C538 C 0.31241 0.70561 0.67196
 C539 C 0.32080 0.70246 0.59584
 C540 C 0.33517 0.68225 0.57505
 C541 C 0.35835 0.64424 0.60959
 N542 N 0.36716 0.64123 0.53652
 N543 N 0.38303 0.62320 0.51876
 C544 C 0.39080 0.60741 0.57332
 N545 N 0.38185 0.61033 0.64626
 N546 N 0.36597 0.62835 0.66400
 C547 C 0.40922 0.58782 0.55426
 C548 C 0.41856 0.57253 0.61206
 C549 C 0.43661 0.55459 0.59474
 C550 C 0.44573 0.55145 0.51917
 C551 C 0.43614 0.56651 0.46114
 C552 C 0.41812 0.58450 0.47849
 H553 H 0.33739 0.65501 0.75024
 H554 H 0.31246 0.69046 0.78618
 H555 H 0.31650 0.71583 0.55277
 H556 H 0.34165 0.68049 0.51605
 H557 H 0.41213 0.57454 0.67103
 H558 H 0.44355 0.54327 0.64078
 H559 H 0.44275 0.56455 0.40232
 H560 H 0.41132 0.59590 0.43250
   
