data_POSCAR
  _audit_creation_date              2014-09-24
  _audit_creation_method            'ToBaCCo'
  _symmetry_space_group_name_H-M    'P1'
  _symmetry_Int_Tables_number       1
  _symmetry_cell_setting            triclinic
  loop_
  _symmetry_equiv_pos_as_xyz
 x,y,z
_cell_length_a 36.2399
_cell_length_b 36.1612
_cell_length_c 36.3766
_cell_angle_alpha 90.129300
_cell_angle_beta 90.026700
_cell_angle_gamma 89.891100
loop_
  _atom_site_label
  _atom_site_type_symbol
  _atom_site_fract_x
  _atom_site_fract_y
  _atom_site_fract_z
C1 C 0.31813 0.37047 1.36801
 C2 C 0.33694 0.33973 1.38314
 C3 C 0.36778 0.32373 1.36541
 C4 C 0.38066 0.34016 1.33282
 C5 C 0.36325 0.37118 1.31765
 C6 C 0.33241 0.38625 1.33546
 H7 H 0.32531 0.32567 1.40661
 H8 H 0.40537 0.32971 1.31966
 H9 H 0.31983 0.41061 1.32365
 C10 C 1.17427 0.62537 0.87444
 C11 C 1.15835 0.60956 0.84256
 C12 C 1.12679 0.62483 0.82606
 C13 C 1.11024 0.65607 0.84205
 C14 C 1.12514 0.67241 0.87371
 C15 C 1.15657 0.65651 0.89006
 H16 H 1.17034 0.58515 0.83016
 H17 H 1.08630 0.66843 0.82912
 H18 H 1.16827 0.67012 0.91382
 C19 C 0.68173 -0.13599 0.13020
 C20 C 0.66366 -0.16692 0.11473
 C21 C 0.63169 -0.18252 0.13091
 C22 C 0.61695 -0.16506 0.16243
 C23 C 0.63428 -0.13425 0.17815
 C24 C 0.66616 -0.11990 0.16193
 H25 H 0.67495 -0.17942 0.09027
 H26 H 0.59354 -0.17671 0.17673
 H27 H 0.67780 -0.09505 0.17378
 C28 C -0.17744 1.13416 -0.36480
 C29 C -0.16075 1.16588 -0.37918
 C30 C -0.12887 1.18140 -0.36303
 C31 C -0.11350 1.16309 -0.33232
 C32 C -0.13019 1.13135 -0.31728
 C33 C -0.16194 1.11686 -0.33405
 H34 H -0.17242 1.17752 -0.40398
 H35 H -0.08957 1.17439 -0.31860
 H36 H -0.17570 1.09314 -0.32218
 C37 C 0.68082 0.64008 0.63491
 C38 C 0.66410 0.67228 0.62143
 C39 C 0.63271 0.68734 0.63859
 C40 C 0.61771 0.66920 0.66928
 C41 C 0.63433 0.63697 0.68314
 C42 C 0.66575 0.62250 0.66571
 H43 H 0.67552 0.68545 0.59727
 H44 H 0.59412 0.68098 0.68339
 H45 H 0.67883 0.59783 0.67650
 C46 C 0.81444 0.35993 0.13733
 C47 C 0.82786 0.37692 0.16929
 C48 C 0.85899 0.36276 0.18729
 C49 C 0.87662 0.33114 0.17325
 C50 C 0.86388 0.31370 0.14091
 C51 C 0.83263 0.32873 0.12315
 H52 H 0.81396 0.40111 0.18025
 H53 H 0.90102 0.32100 0.18719
 H54 H 0.82129 0.31552 0.09893
 C55 C 0.31597 0.13341 0.86345
 C56 C 0.33354 0.16536 0.87726
 C57 C 0.36463 0.18018 0.85984
 C58 C 0.37837 0.16319 0.82811
 C59 C 0.36137 0.13161 0.81341
 C60 C 0.33072 0.11646 0.83160
 H61 H 0.32365 0.17862 0.90209
 H62 H 0.40263 0.17458 0.81496
 H63 H 0.31683 0.09307 0.81920
 C64 C 0.18845 0.86212 0.36565
 C65 C 0.16995 0.83150 0.38121
 C66 C 0.13791 0.81699 0.36486
 C67 C 0.12347 0.83367 0.33324
 C68 C 0.14086 0.86429 0.31761
 C69 C 0.17291 0.87839 0.33389
 H70 H 0.18150 0.81703 0.40455
 H71 H 0.09889 0.82243 0.32044
 H72 H 0.18461 0.90321 0.32216
 Zn73 Zn -0.01886 1.00535 0.04778
 Zn74 Zn -0.02830 0.97000 -0.02676
 Zn75 Zn 0.00782 1.04455 -0.01820
 Zn76 Zn 0.04673 0.97759 0.00786
 O77 O 0.00168 0.99923 0.00252
 O78 O -0.06161 0.98198 0.05139
 O79 O -0.04301 0.99378 -0.06822
 O80 O -0.00952 1.08162 0.00934
 O81 O -0.06995 0.95581 -0.00304
 O82 O -0.02850 1.05264 0.05926
 O83 O -0.01626 1.04824 -0.06034
 O84 O 0.08360 1.00449 -0.01041
 O85 O -0.00544 0.92775 -0.04150
 O86 O 0.05496 1.05526 -0.02865
 O87 O 0.04941 0.93484 -0.01569
 O88 O 0.05835 0.96749 0.05467
 O89 O 0.00887 0.98739 0.08416
 C90 C -0.08074 0.96236 0.02965
 C91 C -0.03640 1.02658 -0.07903
 C92 C -0.02421 1.08213 0.04095
 C93 C 0.08419 1.03625 -0.02505
 C94 C 0.02717 0.91624 -0.03523
 C95 C 0.04038 0.97210 0.08426
 Zn96 Zn 0.54901 -0.01626 0.48960
 Zn97 Zn 0.47430 -0.02459 0.52447
 Zn98 Zn 0.50999 0.05010 0.51769
 Zn99 Zn 0.48301 0.01203 0.45077
 O100 O 0.50395 0.00521 0.49575
 O101 O 0.55256 -0.05859 0.51384
 O102 O 0.45823 -0.00126 0.56549
 O103 O 0.55717 0.06046 0.52864
 O104 O 0.49791 -0.06579 0.53995
 O105 O 0.58603 0.01105 0.50719
 O106 O 0.48524 0.05325 0.55958
 O107 O 0.47308 0.05957 0.44051
 O108 O 0.43348 -0.03995 0.50031
 O109 O 0.49274 0.08766 0.49086
 O110 O 0.44050 -0.01184 0.44681
 O111 O 0.51032 -0.00564 0.41383
 O112 O 0.55967 -0.02693 0.44255
 C113 C 0.53072 -0.07683 0.53406
 C114 C 0.46444 0.03134 0.57710
 C115 C 0.58662 0.04210 0.52345
 C116 C 0.47762 0.08874 0.45945
 C117 C 0.42228 -0.03285 0.46794
 C118 C 0.54138 -0.02184 0.41321
 Zn119 Zn 0.95290 0.48072 0.49539
 Zn120 Zn 1.02793 0.47186 0.52992
 Zn121 Zn 1.01856 0.50773 0.45582
 Zn122 Zn 0.99250 0.54699 0.52228
 O123 O 0.99813 0.50168 0.50102
 O124 O 0.94971 0.43811 0.51898
 O125 O 1.06959 0.45725 0.50602
 O126 O 0.99070 0.49029 0.41912
 O127 O 1.00454 0.43004 0.54454
 O128 O 0.94132 0.47052 0.44858
 O129 O 1.06099 0.48391 0.45199
 O130 O 1.01032 0.58403 0.49514
 O131 O 1.04266 0.49514 0.57165
 O132 O 1.02889 0.55487 0.44505
 O133 O 1.01632 0.54999 0.56470
 O134 O 0.94543 0.55836 0.53249
 O135 O 0.91621 0.50843 0.51314
 C136 C 0.97172 0.41912 0.53841
 C137 C 1.08020 0.46399 0.47334
 C138 C 0.95919 0.47511 0.41897
 C139 C 1.02506 0.58441 0.46354
 C140 C 1.03614 0.52780 0.58310
 C141 C 0.91586 0.54013 0.52809
 Zn142 Zn 0.50515 0.45226 1.01877
 Zn143 Zn 0.47028 0.52760 1.02691
 Zn144 Zn 0.54483 0.51806 0.99154
 Zn145 Zn 0.47840 0.49146 0.95265
 O146 O 0.49951 0.49750 0.99764
 O147 O 0.48075 0.44912 1.06082
 O148 O 0.49411 0.56942 1.04133
 O149 O 0.58163 0.49038 1.00928
 O150 O 0.45540 0.50436 1.06848
 O151 O 0.55213 0.44106 1.02948
 O152 O 0.54846 0.56078 1.01495
 O153 O 0.50552 0.50941 0.91583
 O154 O 0.42838 0.54214 1.00355
 O155 O 0.55580 0.52814 0.94460
 O156 O 0.43557 0.51477 0.94956
 O157 O 0.46872 0.44424 0.94143
 O158 O 0.48799 0.41517 0.99119
 C159 C 0.46110 0.47141 1.07937
 C160 C 0.52690 0.58008 1.03465
 C161 C 0.58180 0.45902 1.02482
 C162 C 0.53719 0.52420 0.91530
 C163 C 0.41686 0.53486 0.97126
 C164 C 0.47325 0.41467 0.95958
 C165 C 1.21746 0.40940 0.41400
 C166 C 1.24339 0.39224 0.43694
 C167 C 1.27687 0.37958 0.42185
 C168 C 1.28471 0.38393 0.38385
 C169 C 1.25773 0.40133 0.36157
 C170 C 1.22443 0.41406 0.37640
 C171 C 1.18223 0.42269 0.42956
 C172 C 1.15645 0.43978 0.40637
 C173 C 1.12326 0.45269 0.42111
 C174 C 1.11539 0.44877 0.45888
 C175 C 1.14139 0.43118 0.48185
 C176 C 1.17502 0.41816 0.46724
 C177 C 1.19777 0.43112 0.35407
 C178 C 1.16437 0.44381 0.36882
 C179 C 1.23530 0.38819 0.47455
 C180 C 1.20173 0.40089 0.48943
 H181 H 1.20280 0.43478 0.32495
 H182 H 1.14459 0.45694 0.35068
 H183 H 1.25507 0.37504 0.49267
 H184 H 1.19667 0.39719 0.51854
 H185 H 1.29708 0.36754 0.44020
 H186 H 1.26141 0.40359 0.33215
 H187 H 1.10352 0.46593 0.40298
 H188 H 1.13569 0.42803 0.51091
 C189 C 0.27668 0.58690 0.91675
 C190 C 0.25168 0.60435 0.94051
 C191 C 0.21755 0.61658 0.92668
 C192 C 0.20814 0.61168 0.88908
 C193 C 0.23410 0.59374 0.86596
 C194 C 0.26808 0.58140 0.87956
 C195 C 0.31269 0.57423 0.93099
 C196 C 0.33759 0.55688 0.90701
 C197 C 0.37157 0.54463 0.92053
 C198 C 0.38103 0.54949 0.95786
 C199 C 0.35585 0.56731 0.98160
 C200 C 0.32150 0.57966 0.96824
 C201 C 0.29387 0.56404 0.85641
 C202 C 0.32803 0.55194 0.86992
 C203 C 0.26135 0.60923 0.97768
 C204 C 0.29564 0.59714 0.99129
 H205 H 0.28760 0.55972 0.82759
 H206 H 0.34710 0.53859 0.85115
 H207 H 0.24228 0.62262 0.99641
 H208 H 0.30195 0.60150 1.02009
 H209 H 0.19812 0.62884 0.94574
 H210 H 0.22914 0.59088 0.83676
 H211 H 0.39064 0.53115 0.90184
 H212 H 0.36275 0.57114 1.01035
 C213 C -0.21773 0.90518 0.08639
 C214 C -0.22554 0.90965 0.12387
 C215 C -0.25873 0.89602 0.13801
 C216 C -0.28477 0.87797 0.11512
 C217 C -0.27606 0.87385 0.07726
 C218 C -0.24269 0.88734 0.06290
 C219 C -0.18266 0.91946 0.07152
 C220 C -0.17464 0.91505 0.03398
 C221 C -0.14113 0.92882 0.02005
 C222 C -0.11602 0.94703 0.04352
 C223 C -0.12473 0.95099 0.08111
 C224 C -0.15784 0.93727 0.09522
 C225 C -0.23381 0.88351 0.02542
 C226 C -0.20037 0.89707 0.01123
 C227 C -0.19984 0.92746 0.14673
 C228 C -0.16659 0.94111 0.13263
 H229 H -0.25284 0.86985 0.00689
 H230 H -0.19466 0.89348 -0.01779
 H231 H -0.20552 0.93100 0.17577
 H232 H -0.14757 0.95478 0.15118
 H233 H -0.26314 0.89823 0.16735
 H234 H -0.29558 0.86152 0.05838
 H235 H -0.13478 0.92563 -0.00890
 H236 H -0.10568 0.96473 0.09960
 C237 C 0.72248 0.09506 0.58626
 C238 C 0.75149 0.07003 0.59265
 C239 C 0.78408 0.08275 0.60923
 C240 C 0.78786 0.12029 0.61874
 C241 C 0.75853 0.14500 0.61207
 C242 C 0.72567 0.13249 0.59604
 C243 C 0.68804 0.08182 0.56912
 C244 C 0.65874 0.10667 0.56353
 C245 C 0.62571 0.09372 0.54805
 C246 C 0.62209 0.05632 0.53780
 C247 C 0.65207 0.03195 0.54300
 C248 C 0.68498 0.04448 0.55898
 C249 C 0.69592 0.15662 0.58966
 C250 C 0.66296 0.14389 0.57382
 C251 C 0.74733 0.03285 0.58216
 C252 C 0.71469 0.02032 0.56550
 H253 H 0.69807 0.18555 0.59714
 H254 H 0.64060 0.16336 0.56960
 H255 H 0.76951 0.01328 0.58684
 H256 H 0.71261 -0.00858 0.55786
 H257 H 0.80671 0.06374 0.61413
 H258 H 0.76125 0.17387 0.61971
 H259 H 0.60284 0.11267 0.54411
 H260 H 0.64946 0.00303 0.53554
 C261 C 0.41706 0.22537 0.40547
 C262 C 0.41581 0.23182 0.36752
 C263 C 0.40008 0.26471 0.35451
 C264 C 0.38456 0.29099 0.37902
 C265 C 0.38578 0.28350 0.41718
 C266 C 0.40242 0.25108 0.43049
 C267 C 0.43368 0.19079 0.41925
 C268 C 0.43562 0.18465 0.45729
 C269 C 0.45124 0.15165 0.47024
 C270 C 0.46381 0.12445 0.44540
 C271 C 0.46153 0.13096 0.40734
 C272 C 0.44688 0.16434 0.39411
 C273 C 0.40480 0.24390 0.46838
 C274 C 0.42132 0.21136 0.48156
 C275 C 0.42984 0.20498 0.34322
 C276 C 0.44489 0.17171 0.35627
 H277 H 0.39380 0.26359 0.48803
 H278 H 0.42257 0.20690 0.51097
 H279 H 0.42889 0.20959 0.31381
 H280 H 0.45506 0.15161 0.33659
 H281 H 0.39833 0.26872 0.32506
 H282 H 0.37516 0.30346 0.43678
 H283 H 0.45252 0.14658 0.49958
 H284 H 0.47126 0.11016 0.38813
 C285 C 0.91499 0.28224 0.59632
 C286 C 0.87746 0.27425 0.59161
 C287 C 0.86330 0.24104 0.60520
 C288 C 0.88622 0.21508 0.62340
 C289 C 0.92408 0.22404 0.62801
 C290 C 0.93849 0.25746 0.61450
 C291 C 0.92989 0.31730 0.58194
 C292 C 0.96750 0.32551 0.58651
 C293 C 0.98146 0.35898 0.57254
 C294 C 0.95794 0.38386 0.55399
 C295 C 0.92027 0.37497 0.54993
 C296 C 0.90615 0.34191 0.56381
 C297 C 0.97602 0.26655 0.61857
 C298 C 0.99025 0.29997 0.60485
 C299 C 0.85455 0.29977 0.57352
 C300 C 0.86868 0.33301 0.55979
 H301 H 0.99457 0.24768 0.63249
 H302 H 1.01932 0.30583 0.60861
 H303 H 0.82547 0.29394 0.56981
 H304 H 0.85010 0.35188 0.54588
 H305 H 0.83389 0.23653 0.60275
 H306 H 0.94291 0.20467 0.64074
 H307 H 1.01045 0.36548 0.57584
 H308 H 0.90173 0.39383 0.53594
 C309 C 0.08210 0.77643 -0.08833
 C310 C 0.05741 0.74862 -0.09921
 C311 C 0.07144 0.71433 -0.11105
 C312 C 0.10988 0.70797 -0.11223
 C313 C 0.13409 0.73640 -0.10132
 C314 C 0.12039 0.77052 -0.08920
 C315 C 0.06764 0.81249 -0.07580
 C316 C 0.09247 0.84001 -0.06463
 C317 C 0.07875 0.87390 -0.05205
 C318 C 0.04045 0.88068 -0.05065
 C319 C 0.01581 0.85305 -0.06265
 C320 C 0.02934 0.81868 -0.07504
 C321 C 0.14433 0.79893 -0.07811
 C322 C 0.13059 0.83307 -0.06593
 C323 C 0.01926 0.75577 -0.09809
 C324 C 0.00548 0.79020 -0.08628
 H325 H 0.17393 0.79469 -0.07872
 H326 H 0.14998 0.85419 -0.05741
 H327 H -0.00012 0.73458 -0.10645
 H328 H -0.02411 0.79449 -0.08582
 H329 H 0.05254 0.69262 -0.11921
 H330 H 0.16367 0.73228 -0.10296
 H331 H 0.09803 0.89503 -0.04322
 H332 H -0.01368 0.85796 -0.06155
 C333 C 0.58593 0.71725 1.09030
 C334 C 0.56301 0.74245 1.10869
 C335 C 0.57804 0.77577 1.12190
 C336 C 0.61597 0.78419 1.11690
 C337 C 0.63826 0.75792 1.09828
 C338 C 0.62347 0.72478 1.08496
 C339 C 0.57042 0.68215 1.07647
 C340 C 0.59360 0.65705 1.05821
 C341 C 0.57893 0.62391 1.04496
 C342 C 0.54125 0.61541 1.04975
 C343 C 0.51829 0.64080 1.06839
 C344 C 0.53282 0.67436 1.08176
 C345 C 0.64578 0.69881 1.06668
 C346 C 0.63108 0.66554 1.05348
 C347 C 0.52546 0.73382 1.11341
 C348 C 0.51064 0.70038 1.10022
 H349 H 0.67486 0.70427 1.06248
 H350 H 0.64922 0.64629 1.03945
 H351 H 0.50735 0.75305 1.12752
 H352 H 0.48159 0.69486 1.10452
 H353 H 0.55966 0.79545 1.13492
 H354 H 0.66770 0.76196 1.09550
 H355 H 0.59706 0.60468 1.03087
 H356 H 0.48930 0.63462 1.07223
 C357 C 0.40237 0.41521 1.21529
 C358 C 0.39108 0.43973 1.24307
 C359 C 0.37828 0.42539 1.27661
 C360 C 0.37661 0.38682 1.28226
 C361 C 0.38766 0.36278 1.25377
 C362 C 0.40076 0.37677 1.22041
 C363 C 0.41643 0.43000 1.18023
 C364 C 0.42827 0.40533 1.15284
 C365 C 0.44239 0.41935 1.11996
 C366 C 0.44464 0.45779 1.11404
 C367 C 0.43199 0.48228 1.14151
 C368 C 0.41810 0.46844 1.17489
 C369 C 0.41242 0.35301 1.19212
 C370 C 0.42605 0.36705 1.15892
 C371 C 0.39306 0.47804 1.23676
 C372 C 0.40624 0.49214 1.20324
 H373 H 0.41126 0.32330 1.19576
 H374 H 0.43504 0.34779 1.13789
 H375 H 0.38439 0.49730 1.25793
 H376 H 0.40738 0.52184 1.19958
 H377 H 0.37017 0.44418 1.29842
 H378 H 0.38581 0.33310 1.25746
 H379 H 0.45168 0.40020 1.09892
 H380 H 0.43370 0.51188 1.13725
 C381 C 0.59482 -0.08500 0.27786
 C382 C 0.57003 -0.09116 0.24876
 C383 C 0.58286 -0.10786 0.21630
 C384 C 0.62027 -0.11773 0.21274
 C385 C 0.64472 -0.11131 0.24218
 C386 C 0.63210 -0.09515 0.27489
 C387 C 0.58146 -0.06773 0.31215
 C388 C 0.60607 -0.06236 0.34153
 C389 C 0.59302 -0.04677 0.37441
 C390 C 0.55574 -0.03620 0.37784
 C391 C 0.53163 -0.04117 0.34780
 C392 C 0.54427 -0.05725 0.31501
 C393 C 0.65599 -0.08899 0.30471
 C394 C 0.64316 -0.07301 0.33752
 C395 C 0.53299 -0.08032 0.25271
 C396 C 0.52036 -0.06354 0.28522
 H397 H 0.68481 -0.09675 0.30274
 H398 H 0.66244 -0.06897 0.35994
 H399 H 0.51360 -0.08480 0.23046
 H400 H 0.49157 -0.05564 0.28713
 H401 H 0.56404 -0.11256 0.19359
 H402 H 0.67349 -0.11922 0.23964
 H403 H 0.61179 -0.04302 0.39733
 H404 H 0.50281 -0.03346 0.35024
 C405 C -0.09150 1.08542 -0.21549
 C406 C -0.10305 1.06146 -0.24362
 C407 C -0.11528 1.07645 -0.27712
 C408 C -0.11615 1.11511 -0.28239
 C409 C -0.10466 1.13858 -0.25363
 C410 C -0.09214 1.12393 -0.22029
 C411 C -0.07844 1.06995 -0.18030
 C412 C -0.06654 1.09406 -0.15249
 C413 C -0.05345 1.07939 -0.11944
 C414 C -0.05223 1.04085 -0.11378
 C415 C -0.06495 1.01693 -0.14168
 C416 C -0.07786 1.03143 -0.17522
 C417 C -0.08037 1.14712 -0.19161
 C418 C -0.06768 1.13243 -0.15830
 C419 C -0.10212 1.02306 -0.23758
 C420 C -0.08982 1.00831 -0.20397
 H421 H -0.08080 1.17688 -0.19500
 H422 H -0.05862 1.15127 -0.13693
 H423 H -0.11099 1.00423 -0.25903
 H424 H -0.08951 0.97856 -0.20053
 H425 H -0.12389 1.05810 -0.29909
 H426 H -0.10606 1.16833 -0.25691
 H427 H -0.04408 1.09812 -0.09808
 H428 H -0.06401 0.98726 -0.13762
 C429 C 1.08895 0.58233 0.72235
 C430 C 1.09983 0.55744 0.74987
 C431 C 1.11158 0.57130 0.78404
 C432 C 1.11277 0.60978 0.79059
 C433 C 1.10179 0.63421 0.76249
 C434 C 1.08972 0.62067 0.72847
 C435 C 1.07651 0.56802 0.68642
 C436 C 1.06527 0.59303 0.65919
 C437 C 1.05276 0.57944 0.62541
 C438 C 1.05152 0.54108 0.61847
 C439 C 1.06359 0.51628 0.64581
 C440 C 1.07587 0.52968 0.68005
 C441 C 1.07858 0.64480 0.70037
 C442 C 1.06645 0.63120 0.66633
 C443 C 1.09881 0.51924 0.74255
 C444 C 1.08712 0.50561 0.70823
 H445 H 1.07910 0.67444 0.70476
 H446 H 1.05788 0.65074 0.64545
 H447 H 1.10717 0.49971 0.76352
 H448 H 1.08673 0.47598 0.70379
 H449 H 1.11963 0.55220 0.80552
 H450 H 1.10333 0.66383 0.76681
 H451 H 1.04384 0.59883 0.60451
 H452 H 1.06258 0.48674 0.64079
 C453 C 0.77989 0.59816 0.58619
 C454 C 0.77731 0.63590 0.59502
 C455 C 0.74457 0.64954 0.61046
 C456 C 0.71482 0.62560 0.61757
 C457 C 0.71786 0.58784 0.60863
 C458 C 0.75030 0.57399 0.59269
 C459 C 0.81437 0.58360 0.57023
 C460 C 0.81689 0.54590 0.56128
 C461 C 0.84990 0.53208 0.54658
 C462 C 0.88049 0.55554 0.54146
 C463 C 0.87741 0.59333 0.55046
 C464 C 0.84432 0.60755 0.56469
 C465 C 0.75385 0.53646 0.58327
 C466 C 0.78654 0.52267 0.56771
 C467 C 0.80767 0.65912 0.58861
 C468 C 0.84066 0.64515 0.57381
 H469 H 0.73119 0.51756 0.58806
 H470 H 0.78819 0.49352 0.56095
 H471 H 0.80601 0.68827 0.59534
 H472 H 0.86352 0.66393 0.56959
 H473 H 0.74243 0.67857 0.61769
 H474 H 0.69489 0.56942 0.61385
 H475 H 0.85206 0.50290 0.54001
 H476 H 0.90075 0.61160 0.54650
 C477 C 0.71657 0.40143 1.08598
 C478 C 0.71908 0.36369 1.09465
 C479 C 0.75145 0.35017 1.11098
 C480 C 0.78082 0.37425 1.11917
 C481 C 0.77783 0.41202 1.11042
 C482 C 0.74582 0.42574 1.09355
 C483 C 0.68249 0.41587 1.06907
 C484 C 0.68004 0.45357 1.06026
 C485 C 0.64737 0.46728 1.04472
 C486 C 0.61702 0.44371 1.03869
 C487 C 0.62004 0.40591 1.04754
 C488 C 0.65282 0.39180 1.06254
 C489 C 0.74237 0.46327 1.08424
 C490 C 0.71009 0.47693 1.06775
 C491 C 0.68903 0.34034 1.08719
 C492 C 0.65640 0.35419 1.07154
 H493 H 0.76477 0.48227 1.08983
 H494 H 0.70850 0.50608 1.06112
 H495 H 0.69063 0.31118 1.09379
 H496 H 0.63375 0.33532 1.06656
 H497 H 0.75357 0.32112 1.11803
 H498 H 0.80054 0.43054 1.11650
 H499 H 0.64523 0.49646 1.03829
 H500 H 0.59687 0.38756 1.04289
 C501 C 0.21901 1.09204 -0.08661
 C502 C 0.22576 1.13019 -0.08636
 C503 C 0.25826 1.14366 -0.10227
 C504 C 0.28371 1.11944 -0.11953
 C505 C 0.27594 1.08110 -0.11975
 C506 C 0.24400 1.06730 -0.10292
 C507 C 0.18487 1.07776 -0.06981
 C508 C 0.17851 1.03949 -0.06935
 C509 C 0.14595 1.02606 -0.05350
 C510 C 0.11940 1.05071 -0.03927
 C511 C 0.12608 1.08901 -0.04011
 C512 C 0.15906 1.10268 -0.05494
 C513 C 0.23661 1.02917 -0.10199
 C514 C 0.20453 1.01548 -0.08527
 C515 C 0.19959 1.15425 -0.07067
 C516 C 0.16669 1.14074 -0.05546
 H517 H 0.25578 1.00974 -0.11429
 H518 H 0.19988 0.98589 -0.08517
 H519 H 0.20443 1.18381 -0.07044
 H520 H 0.14708 1.16026 -0.04398
 H521 H 0.26254 1.17329 -0.10280
 H522 H 0.29535 1.06167 -0.13167
 H523 H 0.14071 0.99655 -0.05329
 H524 H 0.10574 1.10804 -0.02906
 C525 C 0.28819 -0.09534 0.40988
 C526 C 0.28049 -0.09113 0.37237
 C527 C 0.24780 -0.10567 0.35800
 C528 C 0.22202 -0.12417 0.38072
 C529 C 0.23081 -0.12850 0.41849
 C530 C 0.26373 -0.11408 0.43311
 C531 C 0.32256 -0.07972 0.42507
 C532 C 0.33047 -0.08381 0.46265
 C533 C 0.36324 -0.06866 0.47690
 C534 C 0.38770 -0.04936 0.45372
 C535 C 0.37916 -0.04573 0.41609
 C536 C 0.34679 -0.06087 0.40165
 C537 C 0.27253 -0.11767 0.47061
 C538 C 0.30533 -0.10285 0.48511
 C539 C 0.30565 -0.07240 0.34976
 C540 C 0.33823 -0.05744 0.36417
 H541 H 0.25390 -0.13203 0.48894
 H542 H 0.31100 -0.10624 0.51415
 H543 H 0.30002 -0.06907 0.32069
 H544 H 0.35682 -0.04302 0.34584
 H545 H 0.24346 -0.10353 0.32865
 H546 H 0.21158 -0.14156 0.43712
 H547 H 0.36953 -0.07163 0.50587
 H548 H 0.39779 -0.03122 0.39785
 C549 C 0.58797 -0.21093 0.59738
 C550 C 0.56373 -0.23851 0.60965
 C551 C 0.57832 -0.27173 0.62351
 C552 C 0.61684 -0.27725 0.62515
 C553 C 0.64058 -0.24882 0.61340
 C554 C 0.62635 -0.21584 0.59922
 C555 C 0.57293 -0.17638 0.58193
 C556 C 0.59732 -0.14927 0.56903
 C557 C 0.58305 -0.11689 0.55361
 C558 C 0.54465 -0.11118 0.55122
 C559 C 0.52045 -0.13835 0.56487
 C560 C 0.53453 -0.17125 0.58002
 C561 C 0.64984 -0.18780 0.58654
 C562 C 0.63555 -0.15510 0.57158
 C563 C 0.52546 -0.23240 0.60742
 C564 C 0.51111 -0.19931 0.59296
 H565 H 0.67951 -0.19130 0.58788
 H566 H 0.65460 -0.13426 0.56180
 H567 H 0.50642 -0.25341 0.61683
 H568 H 0.48145 -0.19579 0.59166
 H569 H 0.55978 -0.29347 0.63227
 H570 H 0.67023 -0.25234 0.61532
 H571 H 0.60196 -0.09602 0.54357
 H572 H 0.49088 -0.13420 0.56309
 C573 C 1.08734 0.71888 0.40671
 C574 C 1.09575 0.72132 0.36912
 C575 C 1.11213 0.75361 0.35565
 C576 C 1.12050 0.78312 0.37955
 C577 C 1.11220 0.78016 0.41721
 C578 C 1.09532 0.74812 0.43092
 C579 C 1.07014 0.68491 0.42102
 C580 C 1.06154 0.68250 0.45856
 C581 C 1.04567 0.64993 0.47211
 C582 C 1.03908 0.61966 0.44852
 C583 C 1.04769 0.62269 0.41089
 C584 C 1.06306 0.65533 0.39696
 C585 C 1.08625 0.74470 0.46831
 C586 C 1.06953 0.71249 0.48187
 C587 C 1.08784 0.69133 0.34582
 C588 C 1.07189 0.65883 0.35953
 H589 H 1.09216 0.76708 0.48725
 H590 H 1.06308 0.71094 0.51090
 H591 H 1.09424 0.69290 0.31677
 H592 H 1.06650 0.63623 0.34068
 H593 H 1.11889 0.75566 0.32670
 H594 H 1.11843 0.80294 0.43561
 H595 H 1.03943 0.64777 0.50117
 H596 H 1.04264 0.59960 0.39251
 C597 C -0.08470 1.21734 0.09866
 C598 C -0.10017 1.24310 0.07434
 C599 C -0.11727 1.27488 0.08846
 C600 C -0.11831 1.28174 0.12678
 C601 C -0.10160 1.25571 0.15063
 C602 C -0.08541 1.22328 0.13676
 C603 C -0.06788 1.18321 0.08395
 C604 C -0.05396 1.15655 0.10836
 C605 C -0.03934 1.12347 0.09423
 C606 C -0.03780 1.11753 0.05599
 C607 C -0.05097 1.14499 0.03192
 C608 C -0.06659 1.17763 0.04576
 C609 C -0.07052 1.19632 0.16031
 C610 C -0.05531 1.16340 0.14637
 C611 C -0.09830 1.23657 0.03628
 C612 C -0.08158 1.20449 0.02223
 H613 H -0.07101 1.20049 0.18981
 H614 H -0.04455 1.14315 0.16550
 H615 H -0.10995 1.25637 0.01720
 H616 H -0.08081 1.20047 -0.00729
 H617 H -0.12849 1.29487 0.06932
 H618 H -0.10289 1.25944 0.18015
 H619 H -0.02911 1.10244 0.11284
 H620 H -0.05024 1.14035 0.00246
 C621 C 0.41451 0.27883 0.90163
 C622 C 0.40545 0.27648 0.86416
 C623 C 0.38959 0.24388 0.85057
 C624 C 0.38229 0.21407 0.87429
 C625 C 0.39148 0.21688 0.91179
 C626 C 0.40782 0.24918 0.92558
 C627 C 0.43086 0.31319 0.91615
 C628 C 0.43996 0.31553 0.95360
 C629 C 0.45489 0.34848 0.96741
 C630 C 0.46008 0.37918 0.94418
 C631 C 0.45103 0.37624 0.90662
 C632 C 0.43656 0.34322 0.89242
 C633 C 0.41745 0.25251 0.96286
 C634 C 0.43336 0.28509 0.97661
 C635 C 0.41207 0.30691 0.84115
 C636 C 0.42725 0.33977 0.85507
 H637 H 0.41253 0.22979 0.98158
 H638 H 0.44023 0.28658 1.00556
 H639 H 0.40518 0.30542 0.81220
 H640 H 0.43158 0.36271 0.83647
 H641 H 0.38221 0.24190 0.82174
 H642 H 0.38615 0.19383 0.93003
 H643 H 0.46151 0.35054 0.99640
 H644 H 0.45502 0.39967 0.88852
 C645 C 0.59333 0.58610 0.78099
 C646 C 0.56875 0.59424 0.75222
 C647 C 0.58223 0.61114 0.72025
 C648 C 0.62002 0.61929 0.71686
 C649 C 0.64431 0.61067 0.74583
 C650 C 0.63106 0.59431 0.77810
 C651 C 0.57923 0.56899 0.81493
 C652 C 0.60363 0.56182 0.84409
 C653 C 0.58987 0.54658 0.87673
 C654 C 0.55210 0.53816 0.88014
 C655 C 0.52818 0.54484 0.85030
 C656 C 0.54154 0.56060 0.81776
 C657 C 0.65472 0.58627 0.80764
 C658 C 0.64121 0.57043 0.84014
 C659 C 0.53123 0.58537 0.75606
 C660 C 0.51787 0.56871 0.78823
 H661 H 0.68388 0.59251 0.80573
 H662 H 0.66032 0.56496 0.86240
 H663 H 0.51201 0.59140 0.73404
 H664 H 0.48872 0.56241 0.79011
 H665 H 0.56353 0.61755 0.69787
 H666 H 0.67338 0.61731 0.74343
 H667 H 0.60849 0.54146 0.89950
 H668 H 0.49900 0.53875 0.85276
 C669 C 0.40169 0.08750 0.71142
 C670 C 0.39009 0.06298 0.73895
 C671 C 0.37659 0.07734 0.77230
 C672 C 0.37466 0.11591 0.77799
 C673 C 0.38574 0.13992 0.74963
 C674 C 0.39955 0.12593 0.71652
 C675 C 0.41676 0.07271 0.67671
 C676 C 0.42905 0.09739 0.64966
 C677 C 0.44425 0.08338 0.61720
 C678 C 0.44706 0.04496 0.61134
 C679 C 0.43391 0.02045 0.63839
 C680 C 0.41900 0.03427 0.67139
 C681 C 0.41157 0.14970 0.68853
 C682 C 0.42620 0.13566 0.65569
 C683 C 0.39259 0.02467 0.73263
 C684 C 0.40670 0.01057 0.69940
 H685 H 0.40999 0.17940 0.69218
 H686 H 0.43550 0.15492 0.63490
 H687 H 0.38369 0.00542 0.75359
 H688 H 0.40825 -0.01913 0.69574
 H689 H 0.36831 0.05860 0.79398
 H690 H 0.38355 0.16960 0.75329
 H691 H 0.45390 0.10250 0.59640
 H692 H 0.43604 -0.00915 0.63411
 C693 C 0.09855 0.91280 0.21902
 C694 C 0.07457 0.90644 0.24867
 C695 C 0.08848 0.89037 0.28089
 C696 C 0.12614 0.88121 0.28363
 C697 C 0.14986 0.88808 0.25378
 C698 C 0.13615 0.90364 0.22128
 C699 C 0.08395 0.92907 0.18485
 C700 C 0.10773 0.93454 0.15487
 C701 C 0.09348 0.94910 0.12209
 C702 C 0.05584 0.95851 0.11935
 C703 C 0.03256 0.95345 0.14996
 C704 C 0.04641 0.93842 0.18267
 C705 C 0.15919 0.90995 0.19088
 C706 C 0.14518 0.92502 0.15819
 C707 C 0.03718 0.91622 0.24546
 C708 C 0.02335 0.93206 0.21305
 H709 H 0.18824 0.90296 0.19230
 H710 H 0.16382 0.92918 0.13529
 H711 H 0.01843 0.91155 0.26816
 H712 H -0.00568 0.93912 0.21166
 H713 H 0.07024 0.88536 0.30395
 H714 H 0.17881 0.88071 0.25573
 H715 H 0.11161 0.95299 0.09872
 H716 H 0.00350 0.96033 0.14806
 C717 C 0.90071 0.41442 0.28472
 C718 C 0.86308 0.40541 0.28254
 C719 C 0.84941 0.38901 0.25032
 C720 C 0.87327 0.38104 0.22081
 C721 C 0.91090 0.39023 0.22344
 C722 C 0.92474 0.40715 0.25528
 C723 C 0.91533 0.43132 0.31865
 C724 C 0.95292 0.44039 0.32076
 C725 C 0.96684 0.45583 0.35331
 C726 C 0.94360 0.46151 0.38387
 C727 C 0.90588 0.45246 0.38117
 C728 C 0.89156 0.43753 0.34852
 C729 C 0.96216 0.41677 0.25838
 C730 C 0.97598 0.43323 0.29052
 C731 C 0.84003 0.41260 0.31278
 C732 C 0.85405 0.42825 0.34527
 H733 H 0.98094 0.41141 0.23581
 H734 H 1.00505 0.44007 0.29184
 H735 H 0.81096 0.40576 0.31146
 H736 H 0.83541 0.43299 0.36808
 H737 H 0.82047 0.38171 0.24843
 H738 H 0.92923 0.38443 0.20059
 H739 H 0.99595 0.46241 0.35519
 H740 H 0.88777 0.45683 0.40449
   
