data_POSCAR
  _audit_creation_date              2014-09-24
  _audit_creation_method            'ToBaCCo'
  _symmetry_space_group_name_H-M    'P1'
  _symmetry_Int_Tables_number       1
  _symmetry_cell_setting            triclinic
  loop_
  _symmetry_equiv_pos_as_xyz
 x,y,z
_cell_length_a 26.1786
_cell_length_b 25.8512
_cell_length_c 26.5110
_cell_angle_alpha 92.580600
_cell_angle_beta 89.264900
_cell_angle_gamma 88.526300
loop_
  _atom_site_label
  _atom_site_type_symbol
  _atom_site_fract_x
  _atom_site_fract_y
  _atom_site_fract_z
C1 C -0.08209 0.52799 0.27709
 C2 C -0.04031 0.53430 0.24429
 C3 C -0.03723 0.57942 0.21708
 C4 C -0.07613 0.61794 0.22097
 C5 C -0.11643 0.61220 0.25565
 C6 C -0.11940 0.56811 0.28469
 C7 C 0.00473 0.49870 0.24374
 C8 C 0.00836 0.45413 0.21133
 C9 C 0.05498 0.42579 0.20578
 C10 C 0.09770 0.44311 0.23296
 C11 C 0.09398 0.48660 0.26738
 C12 C 0.04692 0.51372 0.27227
 H13 H -0.08307 0.49407 0.29963
 H14 H -0.00493 0.58345 0.19170
 H15 H -0.02434 0.44267 0.18923
 H16 H 0.04252 0.54716 0.29817
 H17 H -0.14565 0.64257 0.26050
 H18 H 0.13371 0.42211 0.22722
 C19 C -0.09019 0.49405 0.75518
 C20 C -0.04258 0.46905 0.75932
 C21 C -0.03960 0.41738 0.77265
 C22 C -0.08444 0.39018 0.78392
 C23 C -0.13191 0.41673 0.77981
 C24 C -0.13473 0.46786 0.76488
 C25 C 0.00335 0.50015 0.75690
 C26 C 0.00930 0.53776 0.79556
 C27 C 0.04497 0.57670 0.79107
 C28 C 0.07711 0.57538 0.74809
 C29 C 0.07398 0.53559 0.71067
 C30 C 0.03669 0.49777 0.71489
 H31 H -0.09253 0.53357 0.74312
 H32 H -0.00198 0.39929 0.77357
 H33 H -0.01798 0.53947 0.82677
 H34 H 0.03269 0.46800 0.68523
 H35 H -0.16760 0.39849 0.78789
 H36 H 0.10608 0.60426 0.74442
 C37 C 0.24554 -0.07703 0.49514
 C38 C 0.23179 -0.02418 0.49723
 C39 C 0.20451 -0.00200 0.53831
 C40 C 0.19050 -0.03208 0.57795
 C41 C 0.20331 -0.08552 0.57571
 C42 C 0.23272 -0.10899 0.53531
 C43 C 0.24670 0.00967 0.45738
 C44 C 0.21180 0.02032 0.41958
 C45 C 0.22293 0.05703 0.38406
 C46 C 0.26846 0.08422 0.38788
 C47 C 0.30088 0.07728 0.42873
 C48 C 0.29091 0.03873 0.46258
 H49 H 0.26546 -0.09231 0.46156
 H50 H 0.19599 0.03933 0.54008
 H51 H 0.17656 -0.00080 0.41733
 H52 H 0.31499 0.03434 0.49517
 H53 H 0.19273 -0.10739 0.60771
 H54 H 0.27615 0.11449 0.36197
 C55 C 0.72916 -0.08407 0.47462
 C56 C 0.75688 -0.03781 0.47312
 C57 C 0.77668 -0.02278 0.42663
 C58 C 0.76827 -0.05181 0.38219
 C59 C 0.74200 -0.09792 0.38391
 C60 C 0.72062 -0.11492 0.42953
 C61 C 0.75702 0.00181 0.51585
 C62 C 0.78722 -0.00296 0.55965
 C63 C 0.79665 0.04150 0.59166
 C64 C 0.77268 0.08913 0.58014
 C65 C 0.74169 0.09333 0.53804
 C66 C 0.73366 0.04987 0.50661
 H67 H 0.71145 -0.09324 0.51007
 H68 H 0.79673 0.01330 0.42469
 H69 H 0.80692 -0.03942 0.56585
 H70 H 0.71106 0.05412 0.47295
 H71 H 0.73986 -0.12071 0.34886
 H72 H 0.77787 0.12365 0.60409
 C73 C 0.48538 0.30133 1.04708
 C74 C 0.47657 0.26280 1.00964
 C75 C 0.43286 0.23244 1.01277
 C76 C 0.39699 0.24086 1.05324
 C77 C 0.40661 0.28101 1.08935
 C78 C 0.45069 0.31000 1.08698
 C79 C 0.51777 0.24990 0.97238
 C80 C 0.55827 0.21791 0.98670
 C81 C 0.60409 0.21447 0.95858
 C82 C 0.60806 0.24336 0.91481
 C83 C 0.56582 0.27196 0.89661
 C84 C 0.52069 0.27525 0.92680
 H85 H 0.52035 0.32290 1.04636
 H86 H 0.42925 0.20064 0.98526
 H87 H 0.55535 0.19912 1.02234
 H88 H 0.48755 0.29764 0.91600
 H89 H 0.37992 0.29098 1.11993
 H90 H 0.64384 0.24173 0.89408
 C91 C 0.54044 0.70473 1.07908
 C92 C 0.54509 0.74429 1.04487
 C93 C 0.58650 0.77784 1.04850
 C94 C 0.62484 0.77156 1.08536
 C95 C 0.61921 0.73056 1.11842
 C96 C 0.57747 0.69766 1.11602
 C97 C 0.50795 0.74831 1.00343
 C98 C 0.46716 0.78476 1.00670
 C99 C 0.42832 0.78389 0.97013
 C100 C 0.43283 0.74762 0.92885
 C101 C 0.47551 0.71372 0.92311
 C102 C 0.51228 0.71356 0.96134
 H103 H 0.50852 0.67892 1.07631
 H104 H 0.58758 0.80884 1.02256
 H105 H 0.46407 0.81136 1.03945
 H106 H 0.54485 0.68683 0.95821
 H107 H 0.64797 0.72231 1.14590
 H108 H 0.40394 0.74700 0.89992
 B109 B 1.01594 1.05344 0.02825
 B110 B 1.04822 0.99777 0.04381
 B111 B 0.98258 1.00100 0.04984
 B112 B 0.95990 1.03673 -0.00018
 B113 B 1.01208 1.05244 -0.03700
 B114 B 1.06651 1.02851 -0.00889
 B115 B 1.00672 0.94491 -0.04042
 B116 B 0.97531 1.00048 -0.05675
 B117 B 1.04132 0.99582 -0.06061
 B118 B 1.06345 0.96166 -0.01081
 B119 B 1.01167 0.94509 0.02452
 B120 B 0.95598 0.97029 -0.00231
 B121 B 0.54380 0.48785 0.47534
 B122 B 0.49118 0.52032 0.45241
 B123 B 0.49115 0.45387 0.45678
 B124 B 0.52171 0.43795 0.51201
 B125 B 0.54249 0.49540 0.54025
 B126 B 0.52299 0.54606 0.50434
 B127 B 0.43468 0.49780 0.53892
 B128 B 0.48846 0.46732 0.56309
 B129 B 0.48817 0.53329 0.55781
 B130 B 0.45658 0.54796 0.50330
 B131 B 0.43713 0.49043 0.47367
 B132 B 0.45614 0.44018 0.51010
 C133 C 1.02529 1.33752 0.17650
 C134 C 1.03141 1.29115 0.14662
 C135 C 1.07147 1.28547 0.11035
 C136 C 1.10531 1.32628 0.10529
 C137 C 1.09970 1.37183 0.13597
 C138 C 1.05959 1.37809 0.17177
 C139 C 1.07712 1.23909 0.08015
 C140 C 1.04364 1.19788 0.08645
 C141 C 1.00456 1.20379 0.12350
 C142 C 0.99836 1.25012 0.15295
 C143 C 0.97126 1.16358 0.12993
 C144 C 0.97645 1.11797 0.10030
 C145 C 1.01545 1.10887 0.06341
 C146 C 1.04811 1.15114 0.05623
 H147 H 0.99468 1.34155 0.20444
 H148 H 1.13644 1.32281 0.07792
 H149 H 1.12665 1.40245 0.13157
 H150 H 1.10764 1.23499 0.05208
 H151 H 0.96775 1.25419 0.18094
 H152 H 0.94010 1.16772 0.15726
 H153 H 0.94715 1.09123 0.10496
 H154 H 1.07645 1.14922 0.02693
 C155 C 0.97112 0.68625 0.18072
 C156 C 0.97161 0.72995 0.15115
 C157 C 0.92611 0.74678 0.12807
 C158 C 0.88029 0.72213 0.13775
 C159 C 0.87946 0.68081 0.16975
 C160 C 0.92493 0.66142 0.19074
 C161 C 0.92696 0.78847 0.09625
 C162 C 0.97179 0.81611 0.09026
 C163 C 1.01630 0.80170 0.11578
 C164 C 1.01654 0.75776 0.14505
 C165 C 1.05981 0.83129 0.11089
 C166 C 1.05840 0.87535 0.08214
 C167 C 1.01426 0.89091 0.05583
 C168 C 0.97238 0.85821 0.05906
 H169 H 1.00623 0.67330 0.19801
 H170 H 0.84496 0.73510 0.12091
 H171 H 0.84337 0.66234 0.17592
 H172 H 0.89238 0.80032 0.07731
 H173 H 1.05127 0.74579 0.16366
 H174 H 1.09473 0.82098 0.12997
 H175 H 1.09249 0.89679 0.08074
 H176 H 0.94156 0.86158 0.03341
 C177 C 0.96246 1.31882 -0.17754
 C178 C 0.96429 1.26925 -0.15880
 C179 C 0.92091 1.23801 -0.16119
 C180 C 0.87698 1.25619 -0.18476
 C181 C 0.87560 1.30547 -0.20435
 C182 C 0.91793 1.33845 -0.20003
 C183 C 0.92211 1.18957 -0.13934
 C184 C 0.96654 1.17223 -0.11557
 C185 C 1.01022 1.20286 -0.11526
 C186 C 1.00893 1.25116 -0.13655
 C187 C 1.05439 1.18529 -0.09258
 C188 C 1.05521 1.13827 -0.06943
 C189 C 1.01215 1.10666 -0.06734
 C190 C 0.96774 1.12524 -0.09124
 H191 H 0.99532 1.34265 -0.17138
 H192 H 0.84362 1.23236 -0.18804
 H193 H 0.84130 1.31659 -0.22380
 H194 H 0.88851 1.16586 -0.14021
 H195 H 1.04249 1.27496 -0.13520
 H196 H 1.08843 1.20835 -0.09198
 H197 H 1.09016 1.12961 -0.05226
 H198 H 0.93294 1.10368 -0.08993
 C199 C 1.04763 0.66942 -0.19132
 C200 C 1.03537 0.71239 -0.15940
 C201 C 1.02236 0.70574 -0.10822
 C202 C 1.02164 0.65589 -0.08990
 C203 C 1.03124 0.61295 -0.12265
 C204 C 1.04350 0.61916 -0.17399
 C205 C 1.00936 0.74897 -0.07659
 C206 C 1.00862 0.79858 -0.09589
 C207 C 1.02026 0.80465 -0.14717
 C208 C 1.03379 0.76176 -0.17869
 C209 C 1.01847 0.85376 -0.16602
 C210 C 1.01011 0.89664 -0.13333
 C211 C 1.00443 0.89287 -0.08009
 C212 C 0.99845 0.84232 -0.06400
 H213 H 1.05547 0.67532 -0.23088
 H214 H 1.01207 0.65003 -0.05071
 H215 H 1.02905 0.57474 -0.10771
 H216 H 1.00010 0.74406 -0.03711
 H217 H 1.04298 0.76679 -0.21817
 H218 H 1.02509 0.85936 -0.20583
 H219 H 1.00968 0.93291 -0.15140
 H220 H 0.99142 0.83515 -0.02604
 C221 C 1.20867 1.06005 0.29502
 C222 C 1.17494 1.05784 0.25482
 C223 C 1.12227 1.06922 0.26319
 C224 C 1.10387 1.07913 0.31266
 C225 C 1.13702 1.07465 0.35326
 C226 C 1.18970 1.06555 0.34453
 C227 C 1.08861 1.06617 0.22248
 C228 C 1.10593 1.04428 0.17577
 C229 C 1.15742 1.02785 0.16973
 C230 C 1.19242 1.03852 0.20764
 C231 C 1.17222 0.99684 0.12785
 C232 C 1.13635 0.98244 0.09228
 C233 C 1.08613 1.00350 0.09291
 C234 C 1.07198 1.03526 0.13611
 H235 H 1.24899 1.05110 0.28821
 H236 H 1.06354 1.08689 0.32007
 H237 H 1.12176 1.07920 0.39143
 H238 H 1.04841 1.07622 0.22831
 H239 H 1.23231 1.02690 0.20209
 H240 H 1.21089 0.98094 0.12406
 H241 H 1.14941 0.95385 0.06569
 H242 H 1.03387 1.05109 0.14079
 C243 C 1.18484 0.97659 -0.32931
 C244 C 1.16015 0.99365 -0.28488
 C245 C 1.12118 1.03251 -0.28500
 C246 C 1.10751 1.05327 -0.33114
 C247 C 1.12997 1.03285 -0.37641
 C248 C 1.16786 0.99315 -0.37558
 C249 C 1.09480 1.04692 -0.23961
 C250 C 1.10268 1.01769 -0.19669
 C251 C 1.13953 0.97674 -0.19923
 C252 C 1.17068 0.96788 -0.24143
 C253 C 1.14143 0.94141 -0.16190
 C254 C 1.10633 0.94559 -0.12298
 C255 C 1.07325 0.98931 -0.11426
 C256 C 1.07279 1.02620 -0.15232
 H257 H 1.21564 0.94782 -0.32798
 H258 H 1.07765 1.08295 -0.33250
 H259 H 1.11677 1.04699 -0.41192
 H260 H 1.06527 1.07715 -0.23900
 H261 H 1.19936 0.93670 -0.24228
 H262 H 1.16668 0.90745 -0.16529
 H263 H 1.10321 0.91120 -0.10292
 H264 H 1.05167 1.06207 -0.14758
 C265 C 0.83595 0.95252 0.31627
 C266 C 0.85336 0.96761 0.26905
 C267 C 0.82129 0.99719 0.23814
 C268 C 0.77168 1.01107 0.25559
 C269 C 0.75441 0.99550 0.30278
 C270 C 0.78656 0.96620 0.33325
 C271 C 0.83943 1.01189 0.19053
 C272 C 0.88913 0.99681 0.17357
 C273 C 0.92004 0.96704 0.20510
 C274 C 0.90241 0.95292 0.25231
 C275 C 0.96854 0.95123 0.18912
 C276 C 0.98647 0.96376 0.14219
 C277 C 0.95811 0.99348 0.10804
 C278 C 0.90846 1.01020 0.12571
 H279 H 0.86058 0.92961 0.33972
 H280 H 0.74623 1.03359 0.23270
 H281 H 0.71592 1.00610 0.31551
 H282 H 0.81491 1.03449 0.16673
 H283 H 0.92689 0.93004 0.27598
 H284 H 0.99296 0.92841 0.21286
 H285 H 1.02417 0.94947 0.13423
 H286 H 0.88453 1.03351 0.10314
 C287 C 0.83367 1.00059 -0.33305
 C288 C 0.86322 1.00563 -0.28858
 C289 C 0.89378 1.04952 -0.28045
 C290 C 0.89418 1.08766 -0.31609
 C291 C 0.86304 1.08390 -0.35827
 C292 C 0.83146 1.04099 -0.36739
 C293 C 0.92260 1.05549 -0.23622
 C294 C 0.91968 1.01935 -0.19836
 C295 C 0.88888 0.97604 -0.20587
 C296 C 0.86147 0.96874 -0.25111
 C297 C 0.88692 0.94029 -0.16820
 C298 C 0.91360 0.94846 -0.12324
 C299 C 0.94232 0.99369 -0.11176
 C300 C 0.94723 1.02624 -0.15314
 H301 H 0.80960 0.96740 -0.33871
 H302 H 0.91765 1.12135 -0.31069
 H303 H 0.86446 1.11478 -0.38451
 H304 H 0.94606 1.08921 -0.23056
 H305 H 0.83803 0.93503 -0.25661
 H306 H 0.86515 0.90543 -0.17355
 H307 H 0.91226 0.91730 -0.09765
 H308 H 0.97350 1.05644 -0.15261
 C309 C 1.33164 1.18380 0.01629
 C310 C 1.28635 1.15646 0.02096
 C311 C 1.26098 1.15497 0.06819
 C312 C 1.28269 1.17916 0.11056
 C313 C 1.32808 1.20586 0.10593
 C314 C 1.35290 1.21015 0.05842
 C315 C 1.21426 1.12965 0.07209
 C316 C 1.19290 1.10544 0.02913
 C317 C 1.21939 1.10590 -0.01740
 C318 C 1.26561 1.13134 -0.02142
 C319 C 1.19902 1.08143 -0.05972
 C320 C 1.15250 1.05735 -0.05655
 C321 C 1.12304 1.05667 -0.01115
 C322 C 1.14527 1.08144 0.03177
 H323 H 1.34828 1.18646 -0.02103
 H324 H 1.26460 1.17742 0.14744
 H325 H 1.34395 1.22183 0.14050
 H326 H 1.19449 1.12913 0.10828
 H327 H 1.28520 1.13200 -0.05771
 H328 H 1.21911 1.08086 -0.09579
 H329 H 1.14187 1.03974 -0.09097
 H330 H 1.12513 1.08478 0.06729
 C331 C 0.69619 1.19880 -0.03020
 C332 C 0.73688 1.16722 -0.01454
 C333 C 0.72711 1.11778 0.00356
 C334 C 0.67660 1.10222 0.00894
 C335 C 0.63613 1.13484 -0.00443
 C336 C 0.64526 1.18299 -0.02551
 C337 C 0.76800 1.08452 0.01541
 C338 C 0.81852 1.10059 0.01011
 C339 C 0.82784 1.15144 -0.00360
 C340 C 0.78720 1.18439 -0.01651
 C341 C 0.87783 1.16840 -0.00364
 C342 C 0.91823 1.13346 0.00373
 C343 C 0.91087 1.07947 0.00698
 C344 C 0.85987 1.06612 0.01717
 H345 H 0.70425 1.23657 -0.04414
 H346 H 0.66836 1.06466 0.02322
 H347 H 0.59766 1.12091 -0.00072
 H348 H 0.76057 1.04583 0.02745
 H349 H 0.79479 1.22303 -0.02859
 H350 H 0.88599 1.20833 -0.01077
 H351 H 0.95559 1.14959 0.00279
 H352 H 0.85073 1.02961 0.03134
 C353 C 1.33603 0.80124 -0.03684
 C354 C 1.29343 0.83546 -0.03249
 C355 C 1.30066 0.88864 -0.02110
 C356 C 1.34981 0.90592 -0.01011
 C357 C 1.39151 0.87091 -0.01066
 C358 C 1.38558 0.81845 -0.02562
 C359 C 1.25845 0.92337 -0.01955
 C360 C 1.20862 0.90492 -0.02478
 C361 C 1.20126 0.85141 -0.03130
 C362 C 1.24360 0.81709 -0.03746
 C363 C 1.15172 0.83306 -0.02891
 C364 C 1.11022 0.86735 -0.01940
 C365 C 1.11516 0.92179 -0.01579
 C366 C 1.16604 0.93916 -0.02055
 H367 H 1.33021 0.76060 -0.04633
 H368 H 1.35590 0.94643 -0.00035
 H369 H 1.42894 0.88561 -0.00210
 H370 H 1.26421 0.96443 -0.01221
 H371 H 1.23774 0.77595 -0.04389
 H372 H 1.14508 0.79184 -0.03216
 H373 H 1.07447 0.84997 -0.01408
 H374 H 1.17462 0.97859 -0.01391
 C375 C 0.68542 0.83178 0.04699
 C376 C 0.73158 0.85848 0.04853
 C377 C 0.76268 0.85679 0.09156
 C378 C 0.74544 0.83154 0.13370
 C379 C 0.69903 0.80614 0.13253
 C380 C 0.66886 0.80339 0.08838
 C381 C 0.81066 0.87999 0.09159
 C382 C 0.82776 0.90518 0.04896
 C383 C 0.79513 0.90978 0.00754
 C384 C 0.74752 0.88620 0.00718
 C385 C 0.81000 0.93979 -0.03195
 C386 C 0.85830 0.96107 -0.03207
 C387 C 0.89650 0.94829 0.00302
 C388 C 0.87708 0.92561 0.04692
 H389 H 0.66460 0.83125 0.01207
 H390 H 0.76792 0.83132 0.16775
 H391 H 0.68710 0.78953 0.16727
 H392 H 0.83498 0.87756 0.12428
 H393 H 0.72312 0.88912 -0.02539
 H394 H 0.78354 0.94894 -0.06156
 H395 H 0.86331 0.99200 -0.05722
 H396 H 0.90032 0.92148 0.07958
 C397 C 0.81270 0.52060 0.32499
 C398 C 0.76960 0.52064 0.35718
 C399 C 0.75815 0.56388 0.39040
 C400 C 0.78828 0.60772 0.38855
 C401 C 0.82828 0.60919 0.35327
 C402 C 0.84140 0.56553 0.32139
 C403 C 0.71561 0.56330 0.42334
 C404 C 0.68165 0.52213 0.41998
 C405 C 0.69128 0.48118 0.38403
 C406 C 0.73611 0.47936 0.35450
 C407 C 0.65537 0.44303 0.37740
 C408 C 0.60979 0.44606 0.40495
 C409 C 0.59863 0.48520 0.44268
 C410 C 0.63744 0.52196 0.45089
 H411 H 0.82119 0.48725 0.29970
 H412 H 0.77980 0.64157 0.41314
 H413 H 0.85005 0.64420 0.35193
 H414 H 0.70749 0.59600 0.44958
 H415 H 0.74369 0.44696 0.32778
 H416 H 0.66175 0.41132 0.34966
 H417 H 0.58484 0.41606 0.39606
 H418 H 0.63525 0.54950 0.48230
 C419 C 0.17529 0.46618 0.31282
 C420 C 0.21707 0.48049 0.34227
 C421 C 0.22183 0.53205 0.36120
 C422 C 0.18493 0.56916 0.34797
 C423 C 0.14425 0.55504 0.31656
 C424 C 0.13848 0.50306 0.29895
 C425 C 0.26363 0.54523 0.39225
 C426 C 0.30179 0.50761 0.40224
 C427 C 0.29716 0.45718 0.38034
 C428 C 0.25466 0.44355 0.35211
 C429 C 0.33543 0.42047 0.38614
 C430 C 0.37807 0.43276 0.41351
 C431 C 0.38497 0.48171 0.43865
 C432 C 0.34484 0.51910 0.43263
 H433 H 0.17154 0.42578 0.30123
 H434 H 0.18791 0.60921 0.36122
 H435 H 0.11769 0.58521 0.30589
 H436 H 0.26691 0.58457 0.40763
 H437 H 0.25150 0.40420 0.33656
 H438 H 0.33256 0.38158 0.36943
 H439 H 0.40390 0.40049 0.41669
 H440 H 0.34733 0.55758 0.44974
 C441 C 0.80345 0.46858 0.69804
 C442 C 0.75674 0.48227 0.67788
 C443 C 0.72230 0.51641 0.70510
 C444 C 0.73645 0.53664 0.75296
 C445 C 0.78373 0.52205 0.77337
 C446 C 0.81684 0.48756 0.74570
 C447 C 0.67456 0.52864 0.68399
 C448 C 0.66132 0.50604 0.63665
 C449 C 0.69671 0.47210 0.61088
 C450 C 0.74402 0.46087 0.63105
 C451 C 0.68450 0.44912 0.56501
 C452 C 0.63726 0.45853 0.54496
 C453 C 0.59923 0.49160 0.56807
 C454 C 0.61340 0.51611 0.61471
 H455 H 0.82943 0.44191 0.67699
 H456 H 0.71085 0.56289 0.77470
 H457 H 0.79410 0.53689 0.81058
 H458 H 0.64771 0.55467 0.70453
 H459 H 0.77076 0.43456 0.61055
 H460 H 0.71140 0.42310 0.54446
 H461 H 0.63252 0.43911 0.50996
 H462 H 0.58942 0.54361 0.63466
 C463 C 0.15276 0.49680 0.67125
 C464 C 0.19638 0.50145 0.64078
 C465 C 0.19891 0.54152 0.60626
 C466 C 0.15699 0.57607 0.60261
 C467 C 0.11440 0.57241 0.63469
 C468 C 0.11239 0.53307 0.66949
 C469 C 0.24400 0.54750 0.57772
 C470 C 0.28713 0.51520 0.58508
 C471 C 0.28376 0.47542 0.61951
 C472 C 0.23848 0.46814 0.64643
 C473 C 0.32542 0.44234 0.62561
 C474 C 0.37074 0.45008 0.59980
 C475 C 0.37871 0.49307 0.56924
 C476 C 0.33358 0.52190 0.55872
 H477 H 0.15173 0.46729 0.69906
 H478 H 0.15813 0.60726 0.57668
 H479 H 0.08379 0.60133 0.63371
 H480 H 0.24613 0.57831 0.55138
 H481 H 0.23651 0.43736 0.67285
 H482 H 0.32277 0.40943 0.64936
 H483 H 0.39900 0.41924 0.60184
 H484 H 0.33276 0.54807 0.52886
 C485 C 0.52811 0.65257 0.18221
 C486 C 0.52749 0.62143 0.22440
 C487 C 0.57221 0.59345 0.23741
 C488 C 0.61596 0.59498 0.20661
 C489 C 0.61647 0.62645 0.16516
 C490 C 0.57321 0.65686 0.15353
 C491 C 0.57314 0.56614 0.28203
 C492 C 0.53014 0.56714 0.31433
 C493 C 0.48504 0.59317 0.30017
 C494 C 0.48369 0.61986 0.25523
 C495 C 0.44241 0.59339 0.33204
 C496 C 0.44518 0.57022 0.37840
 C497 C 0.49055 0.54673 0.39611
 C498 C 0.53226 0.54386 0.36127
 H499 H 0.49465 0.67601 0.17369
 H500 H 0.65040 0.57335 0.21562
 H501 H 0.65140 0.62846 0.14308
 H502 H 0.60789 0.54574 0.29250
 H503 H 0.44917 0.64089 0.24522
 H504 H 0.40705 0.61271 0.32183
 H505 H 0.41188 0.57418 0.40151
 H506 H 0.56771 0.52606 0.37003
 C507 C 0.47118 0.69654 0.82876
 C508 C 0.47824 0.66355 0.78537
 C509 C 0.49611 0.61202 0.79062
 C510 C 0.50633 0.59425 0.83872
 C511 C 0.49922 0.62721 0.88151
 C512 C 0.48178 0.67865 0.87718
 C513 C 0.50356 0.57894 0.74774
 C514 C 0.49273 0.59633 0.69955
 C515 C 0.47537 0.64748 0.69388
 C516 C 0.46824 0.68114 0.73681
 C517 C 0.46794 0.66429 0.64505
 C518 C 0.47482 0.62967 0.60303
 C519 C 0.48577 0.57605 0.60771
 C520 C 0.49971 0.56287 0.65691
 H521 H 0.45831 0.73631 0.82480
 H522 H 0.51981 0.55477 0.84326
 H523 H 0.50697 0.61223 0.91821
 H524 H 0.51735 0.53944 0.75195
 H525 H 0.45515 0.72080 0.73244
 H526 H 0.45821 0.70453 0.63912
 H527 H 0.47511 0.64685 0.56703
 H528 H 0.51892 0.52720 0.66356
 C529 C 0.48187 0.32288 0.17374
 C530 C 0.48303 0.35228 0.21926
 C531 C 0.46494 0.40439 0.22100
 C532 C 0.44784 0.42667 0.17673
 C533 C 0.44618 0.39672 0.13161
 C534 C 0.46231 0.34462 0.13032
 C535 C 0.46266 0.43271 0.26722
 C536 C 0.47843 0.40963 0.31153
 C537 C 0.49752 0.35831 0.30961
 C538 C 0.49987 0.32974 0.26345
 C539 C 0.51302 0.33626 0.35415
 C540 C 0.51068 0.36532 0.39988
 C541 C 0.49242 0.41735 0.40344
 C542 C 0.47435 0.43725 0.35789
 H543 H 0.49354 0.28227 0.17254
 H544 H 0.43402 0.46657 0.17745
 H545 H 0.43029 0.41344 0.09832
 H546 H 0.44818 0.47248 0.26881
 H547 H 0.51379 0.28980 0.26207
 H548 H 0.52837 0.29690 0.35353
 H549 H 0.52795 0.34741 0.43059
 H550 H 0.45257 0.47260 0.35785
 C551 C 0.53446 0.33793 0.83432
 C552 C 0.53547 0.35927 0.78643
 C553 C 0.57391 0.34334 0.75082
 C554 C 0.60916 0.30441 0.76290
 C555 C 0.60597 0.28098 0.80936
 C556 C 0.56907 0.29764 0.84651
 C557 C 0.57543 0.36544 0.70324
 C558 C 0.53655 0.40039 0.68950
 C559 C 0.49688 0.41401 0.72431
 C560 C 0.49752 0.39515 0.77309
 C561 C 0.45740 0.44692 0.70996
 C562 C 0.45553 0.46343 0.66074
 C563 C 0.49199 0.44724 0.62265
 C564 C 0.53579 0.42063 0.64097
 H565 H 0.50612 0.35296 0.86148
 H566 H 0.63827 0.29076 0.73568
 H567 H 0.63218 0.24892 0.81501
 H568 H 0.60542 0.35368 0.67619
 H569 H 0.46736 0.40688 0.79998
 H570 H 0.42819 0.46073 0.73699
 H571 H 0.42815 0.49421 0.65469
 H572 H 0.56903 0.41318 0.61713
 C573 C 0.68240 0.81045 0.47207
 C574 C 0.65469 0.76415 0.46940
 C575 C 0.63500 0.74565 0.42280
 C576 C 0.64168 0.77443 0.38010
 C577 C 0.66818 0.82056 0.38301
 C578 C 0.69067 0.83924 0.42856
 C579 C 0.60820 0.69911 0.41965
 C580 C 0.59926 0.67135 0.46305
 C581 C 0.61810 0.69030 0.50966
 C582 C 0.64624 0.73596 0.51262
 C583 C 0.60832 0.66325 0.55274
 C584 C 0.57894 0.61906 0.54999
 C585 C 0.55757 0.59932 0.50467
 C586 C 0.57112 0.62540 0.46069
 H587 H 0.69881 0.82250 0.50782
 H588 H 0.62566 0.76167 0.34429
 H589 H 0.66903 0.84207 0.34904
 H590 H 0.59345 0.68508 0.38364
 H591 H 0.66091 0.74990 0.54868
 H592 H 0.62283 0.67660 0.58902
 H593 H 0.57294 0.60137 0.58465
 H594 H 0.55993 0.61091 0.42429
 C595 C 0.67872 0.16659 0.55186
 C596 C 0.65724 0.21411 0.53803
 C597 C 0.67848 0.24013 0.49719
 C598 C 0.72060 0.21759 0.47041
 C599 C 0.74111 0.16969 0.48381
 C600 C 0.72041 0.14415 0.52464
 C601 C 0.65696 0.28788 0.48361
 C602 C 0.61392 0.30943 0.50987
 C603 C 0.59239 0.28248 0.54964
 C604 C 0.61430 0.23548 0.56390
 C605 C 0.54820 0.30213 0.57366
 C606 C 0.52647 0.34882 0.55970
 C607 C 0.54881 0.38008 0.52299
 C608 C 0.59178 0.35716 0.49664
 H609 H 0.66254 0.14652 0.58312
 H610 H 0.73734 0.23672 0.43889
 H611 H 0.77329 0.15252 0.46244
 H612 H 0.67346 0.30802 0.45256
 H613 H 0.59749 0.21519 0.59473
 H614 H 0.52967 0.28101 0.60287
 H615 H 0.49032 0.35948 0.57764
 H616 H 0.60801 0.37507 0.46491
 C617 C 0.29468 0.82072 0.50794
 C618 C 0.31631 0.77099 0.51297
 C619 C 0.29579 0.73758 0.54819
 C620 C 0.25198 0.75371 0.57589
 C621 C 0.22981 0.80293 0.57002
 C622 C 0.25152 0.83850 0.53708
 C623 C 0.31954 0.68885 0.55504
 C624 C 0.36261 0.67263 0.52561
 C625 C 0.38166 0.70578 0.48946
 C626 C 0.35902 0.75471 0.48368
 C627 C 0.42442 0.69032 0.46067
 C628 C 0.44689 0.64174 0.46602
 C629 C 0.42740 0.60528 0.49888
 C630 C 0.38752 0.62427 0.53195
 H631 H 0.31404 0.84594 0.48300
 H632 H 0.23465 0.72817 0.60214
 H633 H 0.19499 0.81197 0.59119
 H634 H 0.30423 0.66347 0.58266
 H635 H 0.37479 0.78022 0.45640
 H636 H 0.44076 0.71583 0.43376
 H637 H 0.47966 0.63358 0.44295
 H638 H 0.37896 0.60431 0.56562
 C639 C 0.31460 0.16696 0.45845
 C640 C 0.34589 0.20855 0.46992
 C641 C 0.39955 0.20184 0.46563
 C642 C 0.42087 0.15283 0.45125
 C643 C 0.38908 0.11123 0.43998
 C644 C 0.33592 0.11863 0.44273
 C645 C 0.43064 0.24448 0.47481
 C646 C 0.40851 0.29351 0.48787
 C647 C 0.35524 0.29945 0.49307
 C648 C 0.32408 0.25701 0.48436
 C649 C 0.33384 0.34841 0.50402
 C650 C 0.36500 0.39104 0.50938
 C651 C 0.41942 0.38722 0.50748
 C652 C 0.43908 0.33691 0.49399
 H653 H 0.27337 0.17218 0.46101
 H654 H 0.46193 0.14691 0.44806
 H655 H 0.40575 0.07379 0.42816
 H656 H 0.47182 0.23975 0.47089
 H657 H 0.28285 0.26199 0.48749
 H658 H 0.29270 0.35438 0.50576
 H659 H 0.34465 0.42757 0.51041
 H660 H 0.47807 0.32976 0.48591
   
