data_POSCAR
  _audit_creation_date              2014-09-24
  _audit_creation_method            'ToBaCCo'
  _symmetry_space_group_name_H-M    'P1'
  _symmetry_Int_Tables_number       1
  _symmetry_cell_setting            triclinic
  loop_
  _symmetry_equiv_pos_as_xyz
 x,y,z
_cell_length_a 16.2685
_cell_length_b 16.5567
_cell_length_c 23.6102
_cell_angle_alpha 89.997400
_cell_angle_beta 89.703000
_cell_angle_gamma 90.060600
loop_
  _atom_site_label
  _atom_site_type_symbol
  _atom_site_fract_x
  _atom_site_fract_y
  _atom_site_fract_z
O1 O 0.15927 0.09496 0.03431
 O2 O -0.15812 -0.09012 0.04402
 O3 O -0.09102 0.15635 0.03988
 O4 O 0.09273 -0.15109 0.04577
 O5 O -0.13977 0.04637 0.07188
 O6 O 0.14120 -0.03798 0.07145
 O7 O -0.04451 -0.13216 0.07570
 O8 O 0.04755 0.14168 0.06643
 C9 C 0.12187 0.13210 0.07247
 C10 C -0.11878 -0.12306 0.08293
 C11 C -0.12780 0.11930 0.07882
 C12 C 0.12936 -0.10992 0.08217
 O13 O 0.15530 -0.09868 -0.03566
 O14 O -0.15702 0.09437 -0.03719
 O15 O 0.09480 0.14901 -0.04560
 O16 O -0.09702 -0.15369 -0.03351
 O17 O -0.14267 -0.04318 -0.06632
 O18 O 0.14010 0.03466 -0.07173
 O19 O 0.04036 -0.14180 -0.06427
 O20 O -0.04386 0.13481 -0.07123
 Co21 Co 0.13439 -0.00163 -0.00015
 Co22 Co -0.13477 0.00166 0.00283
 Co23 Co 0.00166 0.13163 -0.00223
 Co24 Co -0.00191 -0.13085 0.00552
 O25 O -0.00015 0.00024 0.00148
 C26 C 0.11474 -0.13537 -0.07229
 C27 C -0.11837 0.12659 -0.07695
 C28 C 0.12951 0.10682 -0.08276
 C29 C -0.13296 -0.11651 -0.07226
 O30 O 0.40617 0.34341 0.45890
 O31 O 0.59293 0.65476 0.46870
 O32 O 0.34203 0.58916 0.46210
 O33 O 0.65705 0.40921 0.45968
 O34 O 0.45638 0.63851 0.43513
 O35 O 0.54446 0.36273 0.42806
 O36 O 0.63994 0.54607 0.43430
 O37 O 0.36018 0.45528 0.42968
 C38 C 0.37180 0.38295 0.42088
 C39 C 0.62961 0.61931 0.42949
 C40 C 0.38253 0.62826 0.42624
 C41 C 0.61861 0.37443 0.42102
 O42 O 0.59600 0.34199 0.53648
 O43 O 0.39968 0.64749 0.54327
 O44 O 0.34303 0.39996 0.53890
 O45 O 0.65221 0.58933 0.54599
 O46 O 0.53697 0.63187 0.57633
 O47 O 0.45722 0.35367 0.56792
 O48 O 0.63834 0.45216 0.57121
 O49 O 0.35555 0.53408 0.57135
 Co50 Co 0.50076 0.36474 0.49820
 Co51 Co 0.49671 0.62881 0.50549
 Co52 Co 0.36451 0.49483 0.50061
 Co53 Co 0.63258 0.49895 0.50269
 O54 O 0.49863 0.49682 0.50176
 C55 C 0.62965 0.37872 0.57618
 C56 C 0.36421 0.60672 0.58040
 C57 C 0.38277 0.36233 0.57561
 C58 C 0.61113 0.62242 0.58434
 C59 C 0.24025 0.23599 0.21773
 C60 C 0.16452 0.26694 0.19804
 C61 C 0.12668 0.23248 0.15070
 C62 C 0.16451 0.16931 0.12086
 C63 C 0.24159 0.14148 0.13837
 C64 C 0.27888 0.17385 0.18657
 C65 C 0.27618 0.27181 0.27043
 C66 C 0.34606 0.23974 0.29748
 C67 C 0.37646 0.27516 0.34690
 C68 C 0.33885 0.34398 0.36976
 C69 C 0.26907 0.37593 0.34350
 C70 C 0.23649 0.33947 0.29500
 C71 C 0.12728 0.33264 0.22523
 C72 C 0.16344 0.36923 0.27196
 H73 H 0.06973 0.35680 0.20971
 H74 H 0.13271 0.42053 0.29114
 H75 H 0.06779 0.25552 0.13668
 H76 H 0.27235 0.09359 0.11536
 H77 H 0.43020 0.24941 0.36687
 H78 H 0.23867 0.42806 0.36182
 H79 H 0.33797 0.14992 0.19850
 H80 H 0.37727 0.18686 0.28162
 C81 C 0.76750 0.77735 0.23209
 C82 C 0.84387 0.74765 0.21213
 C83 C 0.88052 0.78152 0.16397
 C84 C 0.84078 0.84247 0.13338
 C85 C 0.76344 0.86953 0.15148
 C86 C 0.72740 0.83803 0.20066
 C87 C 0.73173 0.74070 0.28475
 C88 C 0.66075 0.77110 0.31185
 C89 C 0.62891 0.73310 0.36009
 C90 C 0.66613 0.66337 0.38151
 C91 C 0.73821 0.63440 0.35612
 C92 C 0.77204 0.67323 0.30879
 C93 C 0.88246 0.68304 0.23942
 C94 C 0.84635 0.64541 0.28598
 H95 H 0.94061 0.65998 0.22375
 H96 H 0.87762 0.59435 0.30486
 H97 H 0.93952 0.75894 0.14947
 H98 H 0.73124 0.91572 0.12791
 H99 H 0.57413 0.75717 0.37998
 H100 H 0.76880 0.58216 0.37388
 H101 H 0.66783 0.86093 0.21287
 H102 H 0.62945 0.82423 0.29668
 C103 C 0.76630 0.22517 0.77493
 C104 C 0.84233 0.25591 0.79438
 C105 C 0.87938 0.22258 0.84233
 C106 C 0.84042 0.16102 0.87317
 C107 C 0.76352 0.13273 0.85552
 C108 C 0.72703 0.16384 0.80662
 C109 C 0.73029 0.26108 0.72231
 C110 C 0.65950 0.22991 0.69575
 C111 C 0.62787 0.26682 0.64723
 C112 C 0.66523 0.33617 0.62491
 C113 C 0.73659 0.36643 0.65013
 C114 C 0.77023 0.32865 0.69770
 C115 C 0.88035 0.32079 0.76666
 C116 C 0.84411 0.35755 0.72009
 H117 H 0.93828 0.34458 0.78190
 H118 H 0.87505 0.40872 0.70079
 H119 H 0.93824 0.24581 0.85636
 H120 H 0.73219 0.08568 0.87910
 H121 H 0.57306 0.24227 0.62787
 H122 H 0.76686 0.41885 0.63201
 H123 H 0.66788 0.13990 0.79472
 H124 H 0.62819 0.17697 0.71156
 C125 C 0.21913 0.74818 0.78152
 C126 C 0.26176 0.81265 0.80774
 C127 C 0.22955 0.84865 0.85710
 C128 C 0.15332 0.82366 0.87896
 C129 C 0.11092 0.76073 0.85223
 C130 C 0.14329 0.72316 0.80448
 C131 C 0.25541 0.71056 0.72953
 C132 C 0.22058 0.64233 0.70325
 C133 C 0.25600 0.60969 0.65466
 C134 C 0.32668 0.64411 0.63078
 C135 C 0.36218 0.71206 0.65638
 C136 C 0.32798 0.74453 0.70624
 C137 C 0.33483 0.84199 0.78361
 C138 C 0.36650 0.80951 0.73344
 H139 H 0.36723 0.89182 0.80324
 H140 H 0.42247 0.83511 0.71599
 H141 H 0.26237 0.89766 0.87739
 H142 H 0.05211 0.74025 0.86837
 H143 H 0.22724 0.55774 0.63521
 H144 H 0.41745 0.73825 0.63831
 H145 H 0.10695 0.67581 0.78575
 H146 H 0.16659 0.61251 0.71967
 C147 C 0.22992 0.20551 0.76872
 C148 C 0.17695 0.25254 0.80304
 C149 C 0.14406 0.21994 0.85344
 C150 C 0.15955 0.13894 0.86866
 C151 C 0.20713 0.09121 0.83150
 C152 C 0.24239 0.12400 0.78281
 C153 C 0.26930 0.24401 0.71802
 C154 C 0.33291 0.20652 0.68703
 C155 C 0.36913 0.24536 0.64082
 C156 C 0.34184 0.32163 0.62358
 C157 C 0.27857 0.35969 0.65402
 C158 C 0.24410 0.32261 0.70227
 C159 C 0.15622 0.33115 0.78620
 C160 C 0.18729 0.36458 0.73606
 H161 H 0.11435 0.36694 0.81171
 H162 H 0.16857 0.42518 0.72453
 H163 H 0.10520 0.25742 0.88008
 H164 H 0.21906 0.02819 0.84044
 H165 H 0.41844 0.21534 0.61815
 H166 H 0.25876 0.41942 0.64152
 H167 H 0.27846 0.08420 0.75642
 H168 H 0.35707 0.14822 0.69867
 C169 C 0.76258 0.76244 0.78350
 C170 C 0.73213 0.83839 0.80141
 C171 C 0.76727 0.87758 0.84802
 C172 C 0.83040 0.84094 0.87900
 C173 C 0.85784 0.76399 0.86304
 C174 C 0.82501 0.72537 0.81555
 C175 C 0.72558 0.72438 0.73189
 C176 C 0.75729 0.65374 0.70652
 C177 C 0.72068 0.62120 0.65814
 C178 C 0.65079 0.65723 0.63475
 C179 C 0.61927 0.72785 0.65926
 C180 C 0.65712 0.76261 0.70660
 C181 C 0.66591 0.87425 0.77335
 C182 C 0.62810 0.83633 0.72772
 H183 H 0.64213 0.93205 0.78742
 H184 H 0.57640 0.86610 0.70789
 H185 H 0.74428 0.93624 0.86088
 H186 H 0.90543 0.73398 0.88699
 H187 H 0.74645 0.56718 0.63932
 H188 H 0.56665 0.75726 0.64031
 H189 H 0.84852 0.66630 0.80504
 H190 H 0.81093 0.62358 0.72285
 C191 C 0.23612 0.78591 0.23198
 C192 C 0.17357 0.74388 0.20267
 C193 C 0.13935 0.77731 0.15324
 C194 C 0.16489 0.85350 0.13369
 C195 C 0.22455 0.89605 0.16424
 C196 C 0.25991 0.86288 0.21249
 C197 C 0.27389 0.74700 0.28287
 C198 C 0.34173 0.78063 0.31126
 C199 C 0.37581 0.74183 0.35785
 C200 C 0.34307 0.66894 0.37789
 C201 C 0.27512 0.63482 0.35035
 C202 C 0.24149 0.67245 0.30222
 C203 C 0.14516 0.66942 0.22329
 C204 C 0.17740 0.63517 0.27251
 H205 H 0.09675 0.63741 0.20128
 H206 H 0.15285 0.57783 0.28692
 H207 H 0.09226 0.74454 0.13042
 H208 H 0.24482 0.95518 0.15048
 H209 H 0.42781 0.76950 0.37869
 H210 H 0.25025 0.57789 0.36528
 H211 H 0.30522 0.89897 0.23402
 H212 H 0.37043 0.83614 0.29776
 C213 C 0.77532 0.23491 0.22263
 C214 C 0.75520 0.15374 0.21030
 C215 C 0.79032 0.11516 0.16331
 C216 C 0.84158 0.15729 0.12506
 C217 C 0.85872 0.23917 0.13618
 C218 C 0.82701 0.27714 0.18466
 C219 C 0.73808 0.27271 0.27457
 C220 C 0.76166 0.34924 0.29523
 C221 C 0.72420 0.38164 0.34370
 C222 C 0.66113 0.33953 0.37154
 C223 C 0.63822 0.26300 0.35194
 C224 C 0.67772 0.22844 0.30495
 C225 C 0.69803 0.11192 0.24383
 C226 C 0.65840 0.14924 0.28915
 H227 H 0.68199 0.04994 0.23395
 H228 H 0.61306 0.11497 0.31291
 H229 H 0.77474 0.05246 0.15559
 H230 H 0.89768 0.27398 0.10790
 H231 H 0.74332 0.44037 0.35881
 H232 H 0.59094 0.22936 0.37435
 H233 H 0.84219 0.33992 0.19114
 H234 H 0.80950 0.38423 0.27499
   
