data_POSCAR
  _audit_creation_date              2014-09-24
  _audit_creation_method            'ToBaCCo'
  _symmetry_space_group_name_H-M    'P1'
  _symmetry_Int_Tables_number       1
  _symmetry_cell_setting            triclinic
  loop_
  _symmetry_equiv_pos_as_xyz
 x,y,z
_cell_length_a 40.1589
_cell_length_b 31.1648
_cell_length_c 18.2982
_cell_angle_alpha 89.940700
_cell_angle_beta 89.955500
_cell_angle_gamma 90.048900
loop_
  _atom_site_label
  _atom_site_type_symbol
  _atom_site_fract_x
  _atom_site_fract_y
  _atom_site_fract_z
O1 O 0.74103 0.30354 0.56853
 O2 O 0.79344 0.25306 0.42748
 O3 O 0.74133 0.30341 0.42683
 O4 O 0.79311 0.25321 0.56920
 O5 O 0.76003 0.19643 0.56916
 O6 O 0.70826 0.24663 0.42680
 O7 O 0.76037 0.19629 0.42745
 O8 O 0.70796 0.24676 0.56849
 Cu9 Cu 0.77056 0.28403 0.49800
 Cu10 Cu 0.73083 0.21580 0.49795
 C11 C 0.71543 0.28389 0.59168
 C12 C 0.78598 0.21592 0.40431
 C13 C 0.71582 0.28372 0.40347
 C14 C 0.78553 0.21613 0.59258
 O15 O 0.20782 0.74676 0.43150
 O16 O 0.26012 0.69606 0.57250
 O17 O 0.20816 0.74665 0.57318
 O18 O 0.25974 0.69617 0.43080
 O19 O 0.29298 0.75280 0.43037
 O20 O 0.24138 0.80328 0.57276
 O21 O 0.29334 0.75268 0.57208
 O22 O 0.24104 0.80339 0.43107
 Cu23 Cu 0.23061 0.71570 0.50205
 Cu24 Cu 0.27054 0.78375 0.50154
 C25 C 0.21538 0.78385 0.40813
 C26 C 0.28579 0.71558 0.59543
 C27 C 0.21582 0.78372 0.59632
 C28 C 0.28529 0.71575 0.40718
 O29 O 0.29146 0.24652 -0.42934
 O30 O 0.23950 0.19592 -0.57089
 O31 O 0.29159 0.24633 -0.57102
 O32 O 0.23939 0.19603 -0.42917
 O33 O 0.20631 0.25272 -0.42949
 O34 O 0.25853 0.30304 -0.57136
 O35 O 0.20643 0.25262 -0.57123
 O36 O 0.25839 0.30322 -0.42966
 Cu37 Cu 0.26882 0.21548 -0.50006
 Cu38 Cu 0.22908 0.28362 -0.50046
 C39 C 0.28393 0.28364 -0.40629
 C40 C 0.21397 0.21552 -0.59434
 C41 C 0.28410 0.28340 -0.59449
 C42 C 0.21381 0.21565 -0.40601
 O43 O -0.24117 0.80363 -0.56888
 O44 O -0.29318 0.75276 -0.42733
 O45 O -0.24115 0.80339 -0.42719
 O46 O -0.29316 0.75306 -0.56905
 O47 O -0.26000 0.69644 -0.56930
 O48 O -0.20800 0.74676 -0.42745
 O49 O -0.26003 0.69614 -0.42759
 O50 O -0.20801 0.74701 -0.56913
 Cu51 Cu -0.27051 0.78392 -0.49806
 Cu52 Cu -0.23067 0.71588 -0.49836
 C53 C -0.21560 0.78411 -0.59227
 C54 C -0.28563 0.71562 -0.40425
 C55 C -0.21556 0.78381 -0.40407
 C56 C -0.28557 0.71604 -0.59251
 N57 N 0.03518 1.04650 0.13003
 N58 N 0.05902 1.05328 0.17815
 N59 N -0.03477 1.07660 0.07960
 N60 N -0.05863 1.10481 0.09225
 N61 N -0.03482 1.04657 0.12995
 N62 N -0.05868 1.05344 0.17805
 N63 N 0.03528 1.07653 0.07968
 N64 N 0.05921 1.10466 0.09234
 C65 C 0.07396 1.08954 0.15380
 C66 C -0.07349 1.08975 0.15370
 N67 N -0.03465 1.04632 -0.12821
 N68 N -0.05850 1.05304 -0.17633
 N69 N 0.03538 1.07641 -0.07807
 N70 N 0.05921 1.10465 -0.09117
 N71 N 0.03534 1.04628 -0.12816
 N72 N 0.05913 1.05312 -0.17651
 N73 N -0.03467 1.07644 -0.07812
 N74 N -0.05855 1.10457 -0.09097
 Mn75 Mn 0.00031 1.07702 0.00077
 C76 C -0.07336 1.08936 -0.15226
 C77 C 0.07398 1.08950 -0.15259
 N78 N -0.03492 0.95425 0.13033
 N79 N -0.05888 0.94757 0.17833
 N80 N 0.03511 0.92409 0.08034
 N81 N 0.05897 0.89593 0.09321
 N82 N 0.03508 0.95419 0.13047
 N83 N 0.05891 0.94741 0.17865
 N84 N -0.03494 0.92415 0.08022
 N85 N -0.05893 0.89608 0.09289
 Mn86 Mn 0.00013 1.00038 0.13093
 C87 C -0.07380 0.91129 0.15413
 C88 C 0.07376 0.91108 0.15457
 N89 N 0.03525 0.95397 -0.12770
 N90 N 0.05923 0.94721 -0.17556
 N91 N -0.03485 0.92399 -0.07743
 N92 N -0.05880 0.89587 -0.08998
 N93 N -0.03476 0.95400 -0.12781
 N94 N -0.05864 0.94720 -0.17586
 N95 N 0.03521 0.92396 -0.07731
 N96 N 0.05917 0.89587 -0.08967
 Mn97 Mn 0.00030 1.00014 -0.12870
 Mn98 Mn 0.00013 0.92352 0.00146
 Cl99 Cl 0.00022 1.00027 0.00111
 C100 C 0.07409 0.91098 -0.15100
 C101 C -0.07358 0.91096 -0.15142
 N102 N 0.53492 0.57601 -0.08007
 N103 N 0.55888 0.60413 -0.09264
 N104 N 0.46487 0.54599 -0.13026
 N105 N 0.44102 0.55287 -0.17835
 N106 N 0.46487 0.57599 -0.07995
 N107 N 0.44100 0.60418 -0.09262
 N108 N 0.53487 0.54603 -0.13041
 N109 N 0.55880 0.55285 -0.17843
 C110 C 0.57372 0.58908 -0.15403
 C111 C 0.42618 0.58915 -0.15403
 N112 N 0.46481 0.42355 -0.08021
 N113 N 0.44083 0.39548 -0.09273
 N114 N 0.53484 0.45370 -0.13063
 N115 N 0.55870 0.44698 -0.17883
 N116 N 0.53486 0.42357 -0.08045
 N117 N 0.55875 0.39545 -0.09329
 N118 N 0.46483 0.45366 -0.13042
 N119 N 0.44087 0.44698 -0.17832
 Mn120 Mn 0.49985 0.49985 -0.13117
 C121 C 0.42596 0.41070 -0.15397
 C122 C 0.57356 0.41066 -0.15469
 N123 N 0.46490 0.57577 0.07775
 N124 N 0.44101 0.60389 0.09058
 N125 N 0.53491 0.54567 0.12777
 N126 N 0.55870 0.55248 0.17601
 N127 N 0.53494 0.57582 0.07762
 N128 N 0.55877 0.60406 0.09056
 N129 N 0.46492 0.54564 0.12792
 N130 N 0.44106 0.55234 0.17609
 Mn131 Mn 0.49991 0.57642 -0.00117
 C132 C 0.42619 0.58866 0.15195
 C133 C 0.57355 0.58888 0.15195
 N134 N 0.53489 0.42338 0.07722
 N135 N 0.55890 0.39534 0.08960
 N136 N 0.46489 0.45334 0.12774
 N137 N 0.44099 0.44652 0.17585
 N138 N 0.46484 0.42332 0.07746
 N139 N 0.44089 0.39518 0.09016
 N140 N 0.53489 0.45337 0.12753
 N141 N 0.55887 0.44665 0.17535
 Mn142 Mn 0.49985 0.42293 -0.00150
 Mn143 Mn 0.49990 0.49950 0.12847
 Cl144 Cl 0.49988 0.49968 -0.00134
 C145 C 0.57379 0.41046 0.15086
 C146 C 0.42608 0.41027 0.15158
 C147 C 0.34865 0.34567 0.27002
 C148 C 0.36156 0.32730 0.20619
 C149 C 0.38633 0.34871 0.16640
 C150 C 0.30581 0.30433 0.35440
 C151 C 0.38487 0.40716 0.25366
 C152 C 0.36014 0.38580 0.29318
 C153 C 0.32492 0.32276 0.31432
 C154 C 0.39849 0.38862 0.19036
 H155 H 0.35292 0.29617 0.18792
 H156 H 0.39638 0.33371 0.11781
 H157 H 0.39369 0.43790 0.27334
 H158 H 0.35040 0.40025 0.34260
 C159 C -0.15127 0.84675 0.27235
 C160 C -0.13834 0.82839 0.20855
 C161 C -0.11358 0.84981 0.16881
 C162 C -0.19398 0.80523 0.35669
 C163 C -0.11507 0.90826 0.25608
 C164 C -0.13981 0.88688 0.29555
 C165 C -0.17494 0.82377 0.31665
 C166 C -0.10142 0.88971 0.19282
 H167 H -0.14696 0.79725 0.19026
 H168 H -0.10350 0.83480 0.12025
 H169 H -0.10626 0.93900 0.27578
 H170 H -0.14956 0.90132 0.34497
 C171 C 0.65038 0.65373 0.27136
 C172 C 0.63753 0.67219 0.20752
 C173 C 0.61297 0.65069 0.16740
 C174 C 0.69285 0.69513 0.35623
 C175 C 0.61451 0.59199 0.25436
 C176 C 0.63903 0.61344 0.29421
 C177 C 0.67390 0.67669 0.31596
 C178 C 0.60095 0.61061 0.19105
 H179 H 0.64606 0.70345 0.18949
 H180 H 0.60296 0.66576 0.11882
 H181 H 0.60580 0.56112 0.27380
 H182 H 0.64873 0.59891 0.34363
 C183 C 0.15106 1.15422 0.27255
 C184 C 0.13820 1.17265 0.20870
 C185 C 0.11357 1.15119 0.16877
 C186 C 0.19353 1.19563 0.35735
 C187 C 0.11505 1.09258 0.25594
 C188 C 0.13965 1.11399 0.29559
 C189 C 0.17460 1.17718 0.31707
 C190 C 0.10147 1.11119 0.19263
 H191 H 0.14678 1.20385 0.19053
 H192 H 0.10354 1.16624 0.12017
 H193 H 0.10628 1.06178 0.27553
 H194 H 0.14935 1.09949 0.34504
 C195 C 0.65084 0.34615 -0.27330
 C196 C 0.63934 0.38626 -0.29658
 C197 C 0.61465 0.40760 -0.25702
 C198 C 0.69367 0.30485 -0.35746
 C199 C 0.61325 0.34915 -0.16954
 C200 C 0.63797 0.32777 -0.20936
 C201 C 0.67456 0.32328 -0.31754
 C202 C 0.60109 0.38905 -0.19359
 H203 H 0.64905 0.40073 -0.34608
 H204 H 0.60583 0.43833 -0.27676
 H205 H 0.60324 0.33414 -0.12085
 H206 H 0.64661 0.29666 -0.19099
 C207 C 0.15162 0.84633 -0.26843
 C208 C 0.13859 0.82802 -0.20459
 C209 C 0.11381 0.84948 -0.16510
 C210 C 0.19428 0.80477 -0.35255
 C211 C 0.11548 0.90786 -0.25270
 C212 C 0.14023 0.88645 -0.29191
 C213 C 0.17527 0.82331 -0.31255
 C214 C 0.10174 0.88936 -0.18941
 H215 H 0.14714 0.79690 -0.18609
 H216 H 0.10366 0.83451 -0.11650
 H217 H 0.10673 0.93858 -0.27262
 H218 H 0.15006 0.90085 -0.34137
 C219 C 0.34905 0.65408 -0.27237
 C220 C 0.36046 0.61396 -0.29568
 C221 C 0.38509 0.59248 -0.25620
 C222 C 0.30637 0.69561 -0.35658
 C223 C 0.38661 0.65081 -0.16870
 C224 C 0.36195 0.67233 -0.20845
 C225 C 0.32541 0.67710 -0.31659
 C226 C 0.39869 0.61090 -0.19280
 H227 H 0.35073 0.59959 -0.34517
 H228 H 0.39385 0.56175 -0.27598
 H229 H 0.39665 0.66572 -0.12004
 H230 H 0.35337 0.70345 -0.19006
 C231 C -0.15044 1.15391 -0.27120
 C232 C -0.13909 1.11368 -0.29405
 C233 C -0.11448 1.09231 -0.25434
 C234 C -0.19294 1.19524 -0.35605
 C235 C -0.11290 1.15098 -0.16751
 C236 C -0.13753 1.17239 -0.20749
 C237 C -0.17399 1.17683 -0.31576
 C238 C -0.10086 1.11097 -0.19117
 H239 H -0.14883 1.09914 -0.34339
 H240 H -0.10576 1.06149 -0.27378
 H241 H -0.10283 1.16607 -0.11902
 H242 H -0.14607 1.20361 -0.18947
 C243 C 0.65115 0.65392 -0.27196
 C244 C 0.63824 0.67213 -0.20802
 C245 C 0.61348 0.65061 -0.16839
 C246 C 0.69385 0.69557 -0.35617
 C247 C 0.61495 0.59236 -0.25605
 C248 C 0.63968 0.61383 -0.29541
 C249 C 0.67482 0.67699 -0.31615
 C250 C 0.60132 0.61077 -0.19265
 H251 H 0.64686 0.70322 -0.18954
 H252 H 0.60342 0.66551 -0.11971
 H253 H 0.60614 0.56167 -0.27594
 H254 H 0.64942 0.59951 -0.34494
 C255 C 0.15079 1.15444 -0.27247
 C256 C 0.13794 1.17286 -0.20862
 C257 C 0.11339 1.15134 -0.16835
 C258 C 0.19329 1.19582 -0.35760
 C259 C 0.11492 1.09268 -0.25519
 C260 C 0.13944 1.11415 -0.29518
 C261 C 0.17433 1.17740 -0.31720
 C262 C 0.10137 1.11127 -0.19185
 H263 H 0.14648 1.20411 -0.19068
 H264 H 0.10339 1.16639 -0.11975
 H265 H 0.10621 1.06182 -0.27452
 H266 H 0.14913 1.09964 -0.34460
 C267 C 0.34839 0.34619 -0.27152
 C268 C 0.36132 0.32786 -0.20767
 C269 C 0.38613 0.34926 -0.16818
 C270 C 0.30559 0.30471 -0.35541
 C271 C 0.38468 0.40765 -0.25577
 C272 C 0.35990 0.38629 -0.29500
 C273 C 0.32467 0.32323 -0.31556
 C274 C 0.39832 0.38912 -0.19246
 H275 H 0.35267 0.29675 -0.18917
 H276 H 0.39619 0.33427 -0.11957
 H277 H 0.39352 0.43836 -0.27567
 H278 H 0.35015 0.40071 -0.34445
 C279 C -0.15103 0.84628 -0.26923
 C280 C -0.13947 0.88633 -0.29279
 C281 C -0.11473 0.90774 -0.25350
 C282 C -0.19386 0.80481 -0.35315
 C283 C -0.11340 0.84946 -0.16569
 C284 C -0.13817 0.82802 -0.20525
 C285 C -0.17476 0.82331 -0.31328
 C286 C -0.10117 0.88930 -0.19003
 H287 H -0.14917 0.90071 -0.34234
 H288 H -0.10586 0.93842 -0.27347
 H289 H -0.10339 0.83454 -0.11696
 H290 H -0.14685 0.79694 -0.18666
 C291 C 0.34916 0.65329 0.27095
 C292 C 0.36205 0.67173 0.20708
 C293 C 0.38667 0.65029 0.16708
 C294 C 0.30675 0.69475 0.35582
 C295 C 0.38509 0.59166 0.25421
 C296 C 0.36051 0.61306 0.29394
 C297 C 0.32566 0.67627 0.31552
 C298 C 0.39871 0.61028 0.19089
 H299 H 0.35352 0.70294 0.18895
 H300 H 0.39672 0.66535 0.11847
 H301 H 0.39382 0.56085 0.27376
 H302 H 0.35078 0.59856 0.34341
 C303 C -0.15066 1.15462 0.27206
 C304 C -0.13770 1.17294 0.20815
 C305 C -0.11302 1.15144 0.16839
 C306 C -0.19340 1.19604 0.35630
 C307 C -0.11464 1.09300 0.25586
 C308 C -0.13929 1.11445 0.29535
 C309 C -0.17433 1.17759 0.31629
 C310 C -0.10099 1.11149 0.19247
 H311 H -0.14625 1.20410 0.18977
 H312 H -0.10294 1.16641 0.11973
 H313 H -0.10593 1.06223 0.27563
 H314 H -0.14907 1.10002 0.34483
 C315 C 0.65143 0.34605 0.26824
 C316 C 0.63998 0.38614 0.29160
 C317 C 0.61519 0.40747 0.25240
 C318 C 0.69421 0.30467 0.35234
 C319 C 0.61360 0.34906 0.16506
 C320 C 0.63842 0.32768 0.20453
 C321 C 0.67515 0.32312 0.31234
 C322 C 0.60146 0.38891 0.18925
 H323 H 0.64979 0.40058 0.34095
 H324 H 0.60639 0.43817 0.27223
 H325 H 0.60347 0.33405 0.11657
 H326 H 0.64703 0.29657 0.18613
 C327 C 0.15092 0.84637 0.27316
 C328 C 0.13943 0.88646 0.29643
 C329 C 0.11478 0.90788 0.25689
 C330 C 0.19367 0.80491 0.35729
 C331 C 0.11340 0.84952 0.16942
 C332 C 0.13807 0.82807 0.20923
 C333 C 0.17459 0.82341 0.31738
 C334 C 0.10125 0.88940 0.19346
 H335 H 0.14912 0.90086 0.34593
 H336 H 0.10597 0.93859 0.27662
 H337 H 0.10341 0.83458 0.12074
 H338 H 0.14671 0.79697 0.19086
   
