data_POSCAR
  _audit_creation_date              2014-09-24
  _audit_creation_method            'ToBaCCo'
  _symmetry_space_group_name_H-M    'P1'
  _symmetry_Int_Tables_number       1
  _symmetry_cell_setting            triclinic
  loop_
  _symmetry_equiv_pos_as_xyz
 x,y,z
_cell_length_a 23.6961
_cell_length_b 27.3370
_cell_length_c 26.6407
_cell_angle_alpha 89.793800
_cell_angle_beta 87.054200
_cell_angle_gamma 87.915800
loop_
  _atom_site_label
  _atom_site_type_symbol
  _atom_site_fract_x
  _atom_site_fract_y
  _atom_site_fract_z
C1 C 0.12212 1.22312 0.17378
 C2 C 0.08743 1.20345 0.21261
 C3 C 0.10765 1.16740 0.24567
 C4 C 0.16376 1.14941 0.23774
 C5 C 0.19927 1.16827 0.19897
 C6 C 0.17864 1.20584 0.16789
 H7 H 0.04438 1.21710 0.21747
 H8 H 0.18019 1.12074 0.26159
 H9 H 0.20617 1.22029 0.13814
 C10 C 0.80548 0.73621 0.20718
 C11 C 0.76818 0.75235 0.17052
 C12 C 0.72796 0.79063 0.18038
 C13 C 0.72475 0.81320 0.22778
 C14 C 0.76085 0.79751 0.26522
 C15 C 0.79994 0.75851 0.25488
 H16 H 0.77151 0.73666 0.13335
 H17 H 0.69487 0.84350 0.23509
 H18 H 0.82622 0.74619 0.28455
 C19 C 0.87121 1.27692 -0.18640
 C20 C 0.89557 1.24145 -0.21971
 C21 C 0.87120 1.19585 -0.22609
 C22 C 0.81985 1.18656 -0.19952
 C23 C 0.79518 1.22098 -0.16498
 C24 C 0.82168 1.26558 -0.15807
 H25 H 0.93404 1.24945 -0.24095
 H26 H 0.79979 1.15212 -0.20461
 H27 H 0.80290 1.29192 -0.13142
 C28 C 0.24214 0.75927 -0.19515
 C29 C 0.21001 0.76089 -0.23791
 C30 C 0.20832 0.80260 -0.26906
 C31 C 0.24025 0.84294 -0.25651
 C32 C 0.27425 0.84131 -0.21468
 C33 C 0.27494 0.79912 -0.18433
 H34 H 0.18463 0.72994 -0.24536
 H35 H 0.23922 0.87551 -0.27955
 H36 H 0.30000 0.79755 -0.15154
 C37 C 0.55476 1.11785 -0.01482
 H38 H 0.52423 1.12873 0.01488
 C39 C 0.59183 1.15216 -0.03499
 H40 H 0.58903 1.18898 -0.02016
 C41 C 0.59692 1.05615 -0.06808
 H42 H 0.59869 1.01848 -0.08057
 C43 C 0.63482 1.08933 -0.08941
 H44 H 0.66519 1.07682 -0.11870
 N45 N 0.55721 1.07107 -0.03215
 C46 C 0.45511 1.03686 0.09325
 H47 H 0.48315 1.00686 0.10341
 C48 C 0.41650 1.05691 0.12952
 H49 H 0.41576 1.04174 0.16707
 C50 C 0.41989 1.09053 0.03130
 H51 H 0.42115 1.10298 -0.00732
 C52 C 0.38056 1.11167 0.06640
 H53 H 0.35217 1.14079 0.05439
 Zn54 Zn 0.50607 1.02484 -0.00505
 N55 N 0.45639 1.05403 0.04525
 C56 C 0.58524 0.98190 0.05879
 N57 N 0.54879 0.97218 0.02262
 C58 C 0.54267 0.92569 0.00634
 C59 C 0.57223 0.88657 0.02789
 C60 C 0.61573 0.94380 0.08141
 C61 C 0.46867 1.01299 -0.10468
 C62 C 0.43568 0.99267 -0.14074
 C63 C 0.38471 0.94975 -0.07435
 C64 C 0.41859 0.97087 -0.03966
 N65 N 0.46043 1.00096 -0.05532
 H66 H 0.58998 1.01930 0.07058
 H67 H 0.51459 0.91861 -0.02321
 H68 H 0.56527 0.84999 0.01486
 H69 H 0.64422 0.95252 0.11025
 H70 H 0.50125 1.03780 -0.11638
 H71 H 0.44424 1.00167 -0.17988
 H72 H 0.35210 0.92558 -0.06084
 H73 H 0.41229 0.96257 -0.00007
 C74 C 0.37836 1.09477 0.11632
 C75 C 0.63222 1.13827 -0.07323
 C76 C 0.39354 0.95999 -0.12581
 C77 C 0.60912 0.89522 0.06625
 C78 C 0.02745 0.58382 1.07814
 H79 H 0.07305 0.57946 1.07759
 C80 C -0.00115 0.61267 1.11495
 H81 H 0.02285 0.63089 1.14238
 C82 C -0.05890 0.56547 1.04247
 H83 H -0.08108 0.54685 1.01413
 C84 C -0.08923 0.59479 1.07820
 H85 H -0.13483 0.59829 1.07737
 N86 N -0.00168 0.56003 1.04363
 C87 C 0.10279 0.43010 1.00451
 H88 H 0.11107 0.43505 0.96453
 C89 C 0.11324 0.38421 1.02638
 H90 H 0.12972 0.35394 1.00323
 C91 C 0.06344 0.46125 1.08211
 H92 H 0.04089 0.49001 1.10323
 C93 C 0.07316 0.41624 1.10528
 H94 H 0.05846 0.41111 1.14407
 Zn95 Zn 0.04168 0.51969 0.99761
 N96 N 0.07631 0.46685 1.03213
 C97 C 0.15171 0.55015 0.96385
 N98 N 0.09493 0.55948 0.96377
 C99 C 0.07315 0.59971 0.94055
 C100 C 0.10868 0.63198 0.91506
 C101 C 0.18903 0.58188 0.93906
 C102 C -0.03926 0.45502 0.96947
 C103 C -0.06504 0.42414 0.93656
 C104 C -0.02234 0.46873 0.86694
 C105 C 0.00313 0.49835 0.90113
 N106 N -0.00456 0.49024 0.95133
 H107 H 0.16807 0.51830 0.98326
 H108 H 0.02785 0.60663 0.94188
 H109 H 0.09012 0.66385 0.89717
 H110 H 0.23406 0.57375 0.93911
 H111 H -0.04394 0.44886 1.00958
 H112 H -0.08957 0.39454 0.95201
 H113 H -0.01431 0.47527 0.82721
 H114 H 0.03141 0.52597 0.88727
 C115 C 0.09619 0.37678 1.07683
 C116 C -0.06024 0.61811 1.11549
 C117 C -0.05493 0.42962 0.88445
 C118 C 0.16749 0.62330 0.91402
 C119 C 1.05473 -0.05919 0.56299
 H120 H 1.05988 -0.02008 0.56062
 C121 C 1.09215 -0.08836 0.59019
 H122 H 1.12656 -0.07123 0.60767
 C123 C 1.00208 -0.12828 0.54462
 H124 H 0.96581 -0.14360 0.52842
 C125 C 1.03822 -0.15867 0.57148
 H126 H 1.02881 -0.19694 0.57489
 N127 N 1.01070 -0.07949 0.54092
 C128 C 0.94649 0.02183 0.43004
 H129 H 0.90237 0.01553 0.43926
 C130 C 0.96104 0.05505 0.39252
 H131 H 0.92771 0.07325 0.37241
 C132 C 1.04295 0.00589 0.44600
 H133 H 1.07453 -0.01303 0.46743
 C134 C 1.05956 0.03913 0.40824
 H135 H 1.10397 0.04589 0.40101
 Zn136 Zn 0.95593 -0.03832 0.51081
 N137 N 0.98700 -0.00091 0.45694
 C138 C 0.93426 0.05400 0.55351
 N139 N 0.92538 0.00559 0.56108
 C140 C 0.90492 -0.01120 0.60644
 C141 C 0.89624 0.02099 0.64731
 C142 C 0.92639 0.08699 0.59296
 C143 C 0.92284 -0.10456 0.44322
 C144 C 0.88738 -0.12773 0.41167
 C145 C 0.80691 -0.09265 0.46000
 C146 C 0.84432 -0.07014 0.49111
 N147 N 0.90110 -0.07596 0.48154
 H148 H 0.95162 0.06694 0.51794
 H149 H 0.89929 -0.05000 0.61184
 H150 H 0.88383 0.00697 0.68415
 H151 H 0.93723 0.12481 0.58694
 H152 H 0.96815 -0.10748 0.43579
 H153 H 0.90658 -0.14862 0.38054
 H154 H 0.76188 -0.08673 0.46737
 H155 H 0.82808 -0.04628 0.52120
 C156 C 1.01798 0.06514 0.38215
 C157 C 1.08372 -0.13884 0.59533
 C158 C 0.82846 -0.12108 0.41888
 C159 C 0.90923 0.07031 0.64078
 N160 N 0.03719 0.31020 1.10804
 N161 N 0.04391 0.26792 1.13648
 C162 C 0.09981 0.25982 1.14233
 C163 C 0.12973 0.29614 1.11660
 C164 C 0.08876 0.32722 1.09676
 H165 H 0.17458 0.30225 1.11679
 H166 H -0.00165 0.32728 1.10057
 H167 H 0.01031 0.24698 1.14972
 N168 N -0.07285 0.65348 1.20161
 N169 N -0.11051 0.68600 1.22732
 C170 C -0.15109 0.70024 1.19582
 C171 C -0.14013 0.67610 1.14994
 C172 C -0.09090 0.64788 1.15504
 H173 H -0.16313 0.67961 1.11605
 H174 H -0.03706 0.63699 1.21671
 H175 H -0.10487 0.69761 1.26388
 N176 N -0.04608 0.38405 0.80332
 N177 N -0.06518 0.34064 0.78436
 C178 C -0.10315 0.32244 0.81840
 C179 C -0.10949 0.35441 0.85918
 C180 C -0.07219 0.39189 0.84885
 H181 H -0.13474 0.34919 0.89361
 H182 H -0.01339 0.40369 0.78618
 H183 H -0.05199 0.32656 0.74917
 N184 N 0.25958 0.66508 0.89827
 N185 N 0.27916 0.70110 0.86981
 C186 C 0.23823 0.71716 0.83983
 C187 C 0.19059 0.69025 0.84984
 C188 C 0.20555 0.65780 0.88737
 H189 H 0.15002 0.69491 0.83323
 H190 H 0.28253 0.64711 0.92570
 H191 H 0.31976 0.71446 0.87138
 N192 N 0.99683 0.14324 0.33817
 N193 N 1.02140 0.17155 0.30018
 C194 C 1.07166 0.14985 0.28525
 C195 C 1.08022 0.10777 0.31438
 C196 C 1.03206 0.10467 0.34619
 H197 H 1.11524 0.08128 0.31136
 H198 H 0.95803 0.15182 0.35702
 H199 H 1.00332 0.20469 0.28838
 N200 N 1.11846 -0.21941 0.62971
 N201 N 1.15217 -0.23547 0.66823
 C202 C 1.17409 -0.19586 0.68902
 C203 C 1.15510 -0.15409 0.66377
 C204 C 1.11965 -0.17017 0.62762
 H205 H 1.16270 -0.11648 0.67288
 H206 H 1.09629 -0.24265 0.60752
 H207 H 1.15935 -0.27229 0.67717
 N208 N 0.73703 -0.12577 0.37486
 N209 N 0.71932 -0.14675 0.33409
 C210 C 0.76134 -0.17625 0.31396
 C211 C 0.80745 -0.17398 0.34358
 C212 C 0.79088 -0.14124 0.38159
 H213 H 0.84860 -0.19166 0.33651
 H214 H 0.71311 -0.09973 0.39613
 H215 H 0.67945 -0.13995 0.32006
 N216 N 0.96425 0.12584 0.68965
 N217 N 0.95354 0.16209 0.72560
 C218 C 0.89836 0.16100 0.74102
 C219 C 0.87339 0.12300 0.71613
 C220 C 0.91587 0.10293 0.68366
 H221 H 0.82911 0.11445 0.71733
 H222 H 1.00246 0.12037 0.66873
 H223 H 0.98445 0.18482 0.73788
 N224 N 0.33626 1.10819 0.20396
 N225 N 0.28923 1.12744 0.22562
 C226 C 0.25726 1.14724 0.18987
 C227 C 0.28539 1.14046 0.14340
 C228 C 0.33522 1.11500 0.15380
 H229 H 0.26990 1.15002 0.10702
 H230 H 0.36802 1.09048 0.22369
 H231 H 0.27938 1.12662 0.26426
 N232 N 0.66263 1.22364 -0.09239
 N233 N 0.70512 1.24521 -0.11639
 C234 C 0.74177 1.21061 -0.13596
 C235 C 0.72129 1.16487 -0.12389
 C236 C 0.67105 1.17468 -0.09593
 H237 H 0.74098 1.12949 -0.13307
 H238 H 0.62817 1.24268 -0.07477
 H239 H 0.70793 1.28310 -0.11983
 N240 N 0.35508 0.95055 -0.21141
 N241 N 0.32392 0.91944 -0.23466
 C242 C 0.30836 0.88380 -0.20219
 C243 C 0.33061 0.89305 -0.15616
 C244 C 0.36007 0.93562 -0.16348
 H245 H 0.32661 0.87148 -0.12217
 H246 H 0.37231 0.98140 -0.22853
 H247 H 0.31480 0.92248 -0.27248
 N248 N 0.64663 0.80824 0.07090
 N249 N 0.67730 0.78087 0.10092
 C250 C 0.69132 0.80822 0.14007
 C251 C 0.66826 0.85520 0.13462
 C252 C 0.64032 0.85386 0.09007
 H253 H 0.67221 0.88613 0.15922
 H254 H 0.63146 0.79551 0.03745
 H255 H 0.68800 0.74398 0.09439
   
