data_POSCAR
  _audit_creation_date              2014-09-24
  _audit_creation_method            'ToBaCCo'
  _symmetry_space_group_name_H-M    'P1'
  _symmetry_Int_Tables_number       1
  _symmetry_cell_setting            triclinic
  loop_
  _symmetry_equiv_pos_as_xyz
 x,y,z
_cell_length_a 33.0154
_cell_length_b 32.9995
_cell_length_c 32.9853
_cell_angle_alpha 89.994800
_cell_angle_beta 89.952400
_cell_angle_gamma 90.014500
loop_
  _atom_site_label
  _atom_site_type_symbol
  _atom_site_fract_x
  _atom_site_fract_y
  _atom_site_fract_z
C1 C 0.18754 0.53126 1.04972
 H2 H 0.18695 0.55452 1.02661
 C3 C 0.15953 0.53221 1.08142
 H4 H 0.13736 0.55639 1.08278
 C5 C 0.21621 0.47051 1.07529
 H6 H 0.23771 0.44603 1.07226
 C7 C 0.18868 0.47027 1.10751
 H8 H 0.18936 0.44574 1.12936
 N9 N 0.21518 0.50079 1.04726
 C10 C 0.31118 0.54861 0.97003
 H11 H 0.31181 0.52543 0.94684
 C12 C 0.33915 0.58031 0.96895
 H13 H 0.36136 0.58167 0.94479
 C14 C 0.28245 0.57438 1.03072
 H15 H 0.26093 0.57145 1.05523
 C16 C 0.30995 0.60661 1.03080
 H17 H 0.30933 0.62858 1.05519
 Zn18 Zn 0.24936 0.50021 1.00119
 N19 N 0.28352 0.54626 1.00054
 C20 C 0.21639 0.52972 0.92695
 N21 N 0.21525 0.49957 0.95512
 C22 C 0.18763 0.46906 0.95273
 C23 C 0.15979 0.46792 0.92093
 C24 C 0.18904 0.52973 0.89463
 C25 C 0.31113 0.45175 1.03225
 C26 C 0.33909 0.42005 1.03322
 C27 C 0.30994 0.39393 0.97132
 C28 C 0.28245 0.42614 0.97150
 N29 N 0.28351 0.45419 1.00177
 H30 H 0.23787 0.55422 0.92991
 H31 H 0.18694 0.44590 0.97594
 H32 H 0.13762 0.44375 0.91952
 H33 H 0.18973 0.55408 0.87261
 H34 H 0.31176 0.47487 1.05550
 H35 H 0.36129 0.41862 1.05735
 H36 H 0.30933 0.37203 0.94686
 H37 H 0.26098 0.42915 0.94701
 C38 C 0.33865 0.60945 0.99971
 C39 C 0.15996 0.50132 1.11048
 C40 C 0.33861 0.39099 1.00237
 C41 C 0.16040 0.49862 0.89172
 C42 C 0.81171 0.53149 -0.04795
 H43 H 0.81243 0.55463 -0.02473
 C44 C 0.83963 0.53254 -0.07973
 H45 H 0.86190 0.55662 -0.08111
 C46 C 0.78282 0.47092 -0.07374
 H47 H 0.76129 0.44646 -0.07078
 C48 C 0.81027 0.47081 -0.10604
 H49 H 0.80957 0.44645 -0.12804
 N50 N 0.78400 0.50105 -0.04557
 C51 C 0.68833 0.54876 0.03208
 H52 H 0.68773 0.52554 0.05524
 C53 C 0.66038 0.58046 0.03325
 H54 H 0.63820 0.58178 0.05745
 C55 C 0.71693 0.57459 -0.02866
 H56 H 0.73837 0.57168 -0.05323
 C57 C 0.68945 0.60681 -0.02864
 H58 H 0.69002 0.62880 -0.05302
 Zn59 Zn 0.74995 0.50032 0.00058
 N60 N 0.71591 0.54643 0.00150
 C61 C 0.78327 0.52942 0.07481
 N62 N 0.78419 0.49937 0.04653
 C63 C 0.81175 0.46880 0.04866
 C64 C 0.83978 0.46751 0.08028
 C65 C 0.81083 0.52928 0.10696
 C66 C 0.68800 0.45220 -0.03063
 C67 C 0.66001 0.42052 -0.03180
 C68 C 0.68925 0.39389 0.02985
 C69 C 0.71676 0.42609 0.02987
 N70 N 0.71569 0.45437 -0.00018
 H71 H 0.76183 0.55397 0.07205
 H72 H 0.81226 0.44573 0.02536
 H73 H 0.86193 0.44332 0.08147
 H74 H 0.81033 0.55356 0.12906
 H75 H 0.68737 0.47549 -0.05370
 H76 H 0.63777 0.41929 -0.05591
 H77 H 0.68988 0.37178 0.05412
 H78 H 0.73830 0.42888 0.05433
 C79 C 0.66081 0.60962 0.00251
 C80 C 0.83903 0.50182 -0.10891
 C81 C 0.66053 0.39122 -0.00119
 C82 C 0.83944 0.49813 0.10958
 C83 C -0.03107 0.31240 0.45057
 H84 H -0.05423 0.31303 0.47379
 C85 C -0.03216 0.34038 0.41885
 H86 H -0.05634 0.36256 0.41759
 C87 C 0.02955 0.28370 0.42473
 H88 H 0.05403 0.26220 0.42765
 C89 C 0.02965 0.31119 0.39248
 H90 H 0.05407 0.31048 0.37052
 N91 N -0.00060 0.28476 0.45290
 C92 C -0.04797 0.18868 0.53032
 H93 H -0.02465 0.18803 0.55334
 C94 C -0.07965 0.16071 0.53160
 H95 H -0.08087 0.13847 0.55573
 C96 C -0.07410 0.21747 0.46985
 H97 H -0.07132 0.23901 0.44535
 C98 C -0.10632 0.18997 0.46997
 H99 H -0.12844 0.19061 0.44574
 Zn100 Zn 0.00019 0.25059 0.49897
 N101 N -0.04580 0.21637 0.49983
 C102 C -0.02913 0.28350 0.57331
 N103 N 0.00095 0.28471 0.54506
 C104 C 0.03140 0.31240 0.54741
 C105 C 0.03254 0.34023 0.57925
 C106 C -0.02914 0.31085 0.60567
 C107 C 0.04851 0.18879 0.46764
 C108 C 0.08021 0.16084 0.46649
 C109 C 0.10663 0.19009 0.52822
 C110 C 0.07441 0.21757 0.52822
 N111 N 0.04622 0.21646 0.49814
 H112 H -0.05360 0.26198 0.57039
 H113 H 0.05450 0.31314 0.52414
 H114 H 0.05666 0.36246 0.58062
 H115 H -0.05344 0.31010 0.62775
 H116 H 0.02528 0.18813 0.44454
 H117 H 0.08152 0.13860 0.44236
 H118 H 0.12865 0.19074 0.55254
 H119 H 0.07153 0.23908 0.55272
 C120 C -0.10898 0.16124 0.50105
 C121 C -0.00141 0.33991 0.38964
 C122 C 0.10941 0.16138 0.49715
 C123 C 0.00191 0.33956 0.60853
 C124 C 0.96877 0.68810 0.54818
 H125 H 0.94571 0.68736 0.52491
 C126 C 0.96762 0.66020 0.57996
 H127 H 0.94354 0.63793 0.58130
 C128 C 1.02925 0.71700 0.57409
 H129 H 1.05371 0.73854 0.57118
 C130 C 1.02925 0.68959 0.60640
 H131 H 1.05354 0.69030 0.62845
 N132 N 0.99921 0.71581 0.54585
 C133 C 0.95188 0.81156 0.46816
 H134 H 0.97520 0.81218 0.44511
 C135 C 0.92020 0.83952 0.46688
 H136 H 0.91899 0.86172 0.44271
 C137 C 0.92575 0.78290 0.52875
 H138 H 0.92854 0.76144 0.55330
 C139 C 0.89354 0.81039 0.52862
 H140 H 0.87144 0.80980 0.55291
 Zn141 Zn 1.00010 0.74986 0.49972
 N142 N 0.95406 0.78395 0.49872
 C143 C 0.97109 0.71659 0.42546
 N144 N 1.00110 0.71561 0.45374
 C145 C 1.03161 0.68798 0.45158
 C146 C 1.03287 0.65994 0.41993
 C147 C 0.97120 0.68902 0.39329
 C148 C 1.04811 0.81183 0.53107
 C149 C 1.07978 0.83982 0.53234
 C150 C 1.10663 0.81049 0.47079
 C151 C 1.07443 0.78297 0.47067
 N152 N 1.04605 0.78409 0.50062
 H153 H 0.94658 0.73807 0.42825
 H154 H 1.05465 0.68742 0.47488
 H155 H 1.05701 0.63774 0.41872
 H156 H 0.94694 0.68957 0.37120
 H157 H 1.02473 0.81249 0.55406
 H158 H 1.08091 0.86209 0.55644
 H159 H 1.12882 0.80982 0.44658
 H160 H 1.07174 0.76140 0.44620
 C161 C 0.89089 0.83905 0.49749
 C162 C 0.99824 0.66083 0.60921
 C163 C 1.10919 0.83925 0.50183
 C164 C 1.00228 0.66035 0.39064
 C165 C 0.45184 -0.03214 0.31129
 H166 H 0.47509 -0.05523 0.31197
 C167 C 0.42013 -0.03328 0.33926
 H168 H 0.41882 -0.05737 0.36154
 C169 C 0.42592 0.02838 0.28243
 H170 H 0.42880 0.05285 0.26088
 C171 C 0.39368 0.02840 0.30993
 H172 H 0.37165 0.05271 0.30926
 N173 N 0.45413 -0.00169 0.28357
 C174 C 0.53150 -0.04924 0.18757
 H175 H 0.55463 -0.02601 0.18692
 C176 C 0.53262 -0.08094 0.15958
 H177 H 0.55680 -0.08218 0.13736
 C178 C 0.47091 -0.07511 0.21636
 H179 H 0.44642 -0.07220 0.23789
 C180 C 0.47084 -0.10733 0.18886
 H181 H 0.44644 -0.12930 0.18960
 Zn182 Zn 0.50017 -0.00087 0.24940
 N183 N 0.50102 -0.04693 0.21526
 C184 C 0.57450 -0.02985 0.28248
 N185 N 0.54614 0.00008 0.28358
 C186 C 0.54824 0.03058 0.31125
 C187 C 0.57994 0.03193 0.33919
 C188 C 0.60673 -0.02965 0.30994
 C189 C 0.46890 0.04744 0.18754
 C190 C 0.46769 0.07925 0.15967
 C191 C 0.52930 0.10578 0.18900
 C192 C 0.52936 0.07345 0.21639
 N193 N 0.49935 0.04517 0.21522
 H194 H 0.57177 -0.05436 0.26095
 H195 H 0.52488 0.05356 0.31190
 H196 H 0.58111 0.05608 0.36141
 H197 H 0.62890 -0.05384 0.30929
 H198 H 0.44585 0.02414 0.18683
 H199 H 0.44358 0.08057 0.13745
 H200 H 0.55355 0.12789 0.18972
 H201 H 0.55383 0.07058 0.23791
 C202 C 0.50190 -0.11015 0.16008
 C203 C 0.39090 -0.00263 0.33870
 C204 C 0.49826 0.10857 0.16031
 C205 C 0.60933 0.00145 0.33864
 C206 C 0.54844 -0.03155 0.68818
 H207 H 0.52517 -0.05463 0.68755
 C208 C 0.58017 -0.03275 0.66022
 H209 H 0.58146 -0.05690 0.63801
 C210 C 0.57439 0.02904 0.71689
 H211 H 0.57152 0.05356 0.73838
 C212 C 0.60664 0.02898 0.68941
 H213 H 0.62869 0.05329 0.69002
 N214 N 0.54615 -0.00103 0.71582
 C215 C 0.46862 -0.04831 0.81187
 H216 H 0.44555 -0.02505 0.81246
 C217 C 0.46741 -0.07997 0.83991
 H218 H 0.44327 -0.08121 0.86214
 C219 C 0.52919 -0.07434 0.78319
 H220 H 0.55371 -0.07152 0.76168
 C221 C 0.52913 -0.10651 0.81076
 H222 H 0.55343 -0.12856 0.81019
 Zn223 Zn 0.50008 -0.00011 0.74995
 N224 N 0.49914 -0.04610 0.78420
 C225 C 0.42576 -0.02918 0.71689
 N226 N 0.45413 0.00075 0.71573
 C227 C 0.45203 0.03121 0.68800
 C228 C 0.42033 0.03250 0.66007
 C229 C 0.39353 -0.02904 0.68944
 C230 C 0.53128 0.04834 0.81175
 C231 C 0.53237 0.08012 0.83964
 C232 C 0.47074 0.10650 0.81025
 C233 C 0.47079 0.07420 0.78284
 N234 N 0.50087 0.04599 0.78404
 H235 H 0.42849 -0.05365 0.73847
 H236 H 0.47539 0.05419 0.68731
 H237 H 0.41916 0.05661 0.63780
 H238 H 0.37135 -0.05323 0.69014
 H239 H 0.55437 0.02509 0.81248
 H240 H 0.55644 0.08148 0.86190
 H241 H 0.44643 0.12853 0.80953
 H242 H 0.44635 0.07126 0.76131
 C243 C 0.49805 -0.10921 0.83947
 C244 C 0.60941 -0.00211 0.66072
 C245 C 0.50173 0.10935 0.83900
 C246 C 0.39092 0.00201 0.66068
 Si247 Si 0.25003 0.00025 0.49981
 Si248 Si 0.75023 0.00016 0.49952
 Si249 Si 0.49963 0.25027 0.99998
 Si250 Si 0.49970 0.75029 0.00092
 Si251 Si 1.00072 0.49906 0.25002
 Si252 Si 0.00009 0.49990 0.75021
 C253 C 0.14079 0.13112 0.49775
 C254 C 0.16610 0.10481 0.49823
 C255 C 0.19453 0.07289 0.49877
 C256 C 0.21764 0.04465 0.49920
 C257 C 0.63053 0.64097 0.00194
 C258 C 0.60420 0.66627 0.00153
 C259 C 0.57227 0.69469 0.00116
 C260 C 0.54404 0.71782 0.00096
 C261 C 0.85954 -0.13066 0.49797
 C262 C 0.83424 -0.10434 0.49834
 C263 C 0.80582 -0.07241 0.49875
 C264 C 0.78270 -0.04418 0.49907
 C265 C 0.36885 0.35961 1.00162
 C266 C 0.39514 0.33428 1.00106
 C267 C 0.42704 0.30583 1.00052
 C268 C 0.45526 0.28270 1.00019
 C269 C 0.85961 0.13099 0.50063
 C270 C 0.83427 0.10469 0.50035
 C271 C 0.80581 0.07278 0.50007
 C272 C 0.78267 0.04454 0.49985
 C273 C 0.36890 0.64086 0.00030
 C274 C 0.39520 0.66620 0.00068
 C275 C 0.42712 0.69466 0.00096
 C276 C 0.45534 0.71781 0.00105
 C277 C 0.14057 -0.13048 0.50138
 C278 C 0.16590 -0.10418 0.50104
 C279 C 0.19435 -0.07227 0.50067
 C280 C 0.21752 -0.04406 0.50034
 C281 C 0.63029 0.35981 0.99932
 C282 C 0.60401 0.33445 0.99964
 C283 C 0.57213 0.30597 0.99991
 C284 C 0.54393 0.28279 1.00002
 C285 C 0.49873 0.14014 1.13022
 C286 C 0.49907 0.16564 1.10406
 C287 C 0.49938 0.19430 1.07232
 C288 C 0.49956 0.21761 1.04421
 C289 C -0.00115 0.63063 0.64068
 C290 C -0.00070 0.60437 0.66607
 C291 C -0.00026 0.57249 0.69458
 C292 C -0.00001 0.54428 0.71775
 C293 C 0.49857 0.85946 -0.13018
 C294 C 0.49895 0.83417 -0.10381
 C295 C 0.49932 0.80577 -0.07183
 C296 C 0.49955 0.78266 -0.04354
 C297 C 0.99923 0.36855 0.35989
 C298 C 0.99975 0.39477 0.33443
 C299 C 1.00025 0.42658 0.30584
 C300 C 1.00055 0.45474 0.28259
 C301 C 0.50127 0.86014 0.13142
 C302 C 0.50076 0.83470 0.10519
 C303 C 0.50025 0.80614 0.07336
 C304 C 0.49992 0.78289 0.04520
 C305 C 0.00136 0.36963 0.64012
 C306 C 0.00095 0.39577 0.66564
 C307 C 0.00054 0.42751 0.69430
 C308 C 0.00029 0.45562 0.71760
 C309 C 0.50108 0.14083 0.86918
 C310 C 0.50059 0.16623 0.89543
 C311 C 0.50010 0.19474 0.92730
 C312 C 0.49981 0.21790 0.95553
 C313 C 1.00180 0.63001 0.35931
 C314 C 1.00144 0.60366 0.33401
 C315 C 1.00109 0.57169 0.30560
 C316 C 1.00087 0.54344 0.28248
 C317 C 1.13128 0.50056 0.14020
 C318 C 1.10504 0.49997 0.16563
 C319 C 1.07319 0.49944 0.19419
 C320 C 1.04502 0.49914 0.21743
 C321 C 0.64082 -0.00157 0.63044
 C322 C 0.66617 -0.00114 0.60412
 C323 C 0.69463 -0.00067 0.57219
 C324 C 0.71778 -0.00031 0.54394
 C325 C -0.13074 0.50112 0.85965
 C326 C -0.10446 0.50062 0.83427
 C327 C -0.07255 0.50017 0.80579
 C328 C -0.04431 0.49993 0.78264
 C329 C 0.35951 -0.00200 0.36898
 C330 C 0.33416 -0.00148 0.39529
 C331 C 0.30570 -0.00089 0.42721
 C332 C 0.28253 -0.00041 0.45544
 C333 C 0.13033 0.49914 0.86016
 C334 C 0.10418 0.49948 0.83468
 C335 C 0.07244 0.49976 0.80607
 C336 C 0.04433 0.49989 0.78279
 C337 C 0.64075 0.00111 0.36885
 C338 C 0.66610 0.00088 0.39512
 C339 C 0.69458 0.00066 0.42700
 C340 C 0.71774 0.00048 0.45520
 C341 C 0.86976 0.49854 0.14090
 C342 C 0.89611 0.49880 0.16616
 C343 C 0.92808 0.49900 0.19454
 C344 C 0.95634 0.49908 0.21763
 C345 C 0.35949 0.00161 0.63049
 C346 C 0.33412 0.00132 0.60424
 C347 C 0.30564 0.00100 0.57237
 C348 C 0.28248 0.00072 0.54416
   
