data_POSCAR
  _audit_creation_date              2014-09-24
  _audit_creation_method            'ToBaCCo'
  _symmetry_space_group_name_H-M    'P1'
  _symmetry_Int_Tables_number       1
  _symmetry_cell_setting            triclinic
  loop_
  _symmetry_equiv_pos_as_xyz
 x,y,z
_cell_length_a 28.5969
_cell_length_b 28.6348
_cell_length_c 28.6408
_cell_angle_alpha 89.894800
_cell_angle_beta 89.754700
_cell_angle_gamma 89.998100
loop_
  _atom_site_label
  _atom_site_type_symbol
  _atom_site_fract_x
  _atom_site_fract_y
  _atom_site_fract_z
C1 C 0.16601 0.15473 0.22191
 C2 C 0.20714 0.13968 0.19913
 C3 C 0.22461 0.16251 0.15897
 C4 C 0.20089 0.20263 0.14307
 C5 C 0.16014 0.21901 0.16524
 C6 C 0.14363 0.19515 0.20493
 H7 H 0.22740 0.11119 0.21323
 H8 H 0.21446 0.22311 0.11446
 H9 H 0.11422 0.20857 0.22436
 C10 C -0.16762 0.84318 0.22527
 C11 C -0.14494 0.80275 0.20848
 C12 C -0.16105 0.77882 0.16884
 C13 C -0.20137 0.79541 0.14634
 C14 C -0.22549 0.83503 0.16251
 C15 C -0.20856 0.85810 0.20235
 H16 H -0.11544 0.78969 0.22777
 H17 H -0.21422 0.77567 0.11711
 H18 H -0.22905 0.88672 0.21586
 C19 C -0.15680 0.16702 -0.22362
 C20 C -0.19726 0.14445 -0.20643
 C21 C -0.22089 0.16026 -0.16613
 C22 C -0.20444 0.20119 -0.14440
 C23 C -0.16480 0.22517 -0.16102
 C24 C -0.14176 0.20797 -0.20092
 H25 H -0.21073 0.11548 -0.22623
 H26 H -0.22427 0.21474 -0.11537
 H27 H -0.11315 0.22835 -0.21476
 C28 C 0.15902 0.83370 -0.22283
 C29 C 0.14381 0.79306 -0.19977
 C30 C 0.16700 0.77582 -0.16017
 C31 C 0.20658 0.79991 -0.14398
 C32 C 0.22313 0.84070 -0.16630
 C33 C 0.19930 0.85648 -0.20637
 H34 H 0.11489 0.77307 -0.21321
 H35 H 0.22619 0.78669 -0.11476
 H36 H 0.21220 0.88561 -0.22648
 C37 C 0.16774 1.15689 0.77613
 C38 C 0.14482 1.19706 0.79273
 C39 C 0.16093 1.22114 0.83225
 C40 C 0.20133 1.20472 0.85476
 C41 C 0.22545 1.16503 0.83869
 C42 C 0.20836 1.14170 0.79911
 H43 H 0.11520 1.20968 0.77335
 H44 H 0.21417 1.22456 0.88392
 H45 H 0.22835 1.11269 0.78573
 C46 C 0.83598 0.84380 0.77864
 C47 C 0.85848 0.80334 0.79557
 C48 C 0.84247 0.77973 0.83584
 C49 C 0.80150 0.79624 0.85781
 C50 C 0.77752 0.83573 0.84126
 C51 C 0.79487 0.85873 0.80142
 H52 H 0.88744 0.78977 0.77557
 H53 H 0.78782 0.77649 0.88687
 H54 H 0.77440 0.88717 0.78755
 C55 C 0.15383 0.83406 1.22240
 C56 C 0.19425 0.85675 1.20542
 C57 C 0.21828 0.84062 1.16570
 C58 C 0.20193 0.80018 1.14338
 C59 C 0.16226 0.77610 1.15972
 C60 C 0.13899 0.79310 1.19958
 H61 H 0.20743 0.88610 1.22482
 H62 H 0.22197 0.78706 1.11429
 H63 H 0.11043 0.77259 1.21332
 C64 C 0.84372 1.16558 1.22383
 C65 C 0.80331 1.14301 1.20704
 C66 C 0.77952 1.15928 1.16735
 C67 C 0.79615 1.19966 1.14484
 C68 C 0.83573 1.22369 1.16102
 C69 C 0.85873 1.20659 1.20088
 H70 H 0.79005 1.11356 1.22645
 H71 H 0.77640 1.21272 1.11566
 H72 H 0.88727 1.22702 1.21447
 N73 N 0.44673 0.92042 0.94948
 N74 N 0.40908 0.89434 0.94392
 N75 N 0.54711 0.94739 0.91757
 N76 N 0.58487 0.94200 0.89147
 N77 N 0.54513 0.91511 0.95013
 N78 N 0.58161 0.88705 0.94720
 N79 N 0.44880 0.95300 0.91722
 N80 N 0.41255 0.95015 0.88901
 C81 C 0.38808 0.91338 0.90607
 C82 C 0.60593 0.90409 0.91028
 N83 N 0.55438 1.08016 0.94978
 N84 N 0.59204 1.10634 0.94437
 N85 N 0.45454 1.05319 0.91712
 N86 N 0.41725 1.05866 0.89067
 N87 N 0.45598 1.08542 0.94962
 N88 N 0.41961 1.11355 0.94627
 N89 N 0.55286 1.04761 0.91759
 N90 N 0.58953 1.05056 0.88962
 Mn91 Mn 0.50084 1.00030 0.91678
 C92 C 0.61367 1.08736 0.90673
 C93 C 0.39592 1.09659 0.90917
 N94 N 0.54442 0.91502 1.05041
 N95 N 0.58079 0.88687 1.05385
 N96 N 0.44760 0.95284 1.08247
 N97 N 0.41091 0.95006 1.11038
 N98 N 0.44596 0.92036 1.05023
 N99 N 0.40813 0.89441 1.05548
 N100 N 0.54583 0.94726 1.08291
 N101 N 0.58304 0.94175 1.10946
 Mn102 Mn 0.49548 0.91709 1.00006
 C103 C 0.60442 0.90382 1.09102
 C104 C 0.38662 0.91344 1.09316
 N105 N 0.45496 1.08522 1.04995
 N106 N 0.41827 1.11307 1.05291
 N107 N 0.55137 1.04738 1.08280
 N108 N 0.58760 1.05009 1.11099
 N109 N 0.55350 1.07996 1.05056
 N110 N 0.59127 1.10587 1.05606
 N111 N 0.45318 1.05296 1.08254
 N112 N 0.41545 1.05819 1.10871
 Mn113 Mn 0.50478 1.08334 0.99998
 Mn114 Mn 0.49949 1.00011 1.08324
 Cl115 Cl 0.50015 1.00021 1.00000
 C116 C 0.39409 1.09592 1.08992
 C117 C 0.61217 1.08675 1.09392
 N118 N -0.05274 0.45441 -0.08289
 N119 N -0.05812 0.41711 -0.10937
 N120 N -0.07981 0.55419 -0.05002
 N121 N -0.10571 0.59203 -0.05511
 N122 N -0.04709 0.55260 -0.08227
 N123 N -0.04963 0.58935 -0.10998
 N124 N -0.08510 0.45584 -0.05026
 N125 N -0.11319 0.41943 -0.05355
 C126 C -0.09609 0.39573 -0.09075
 C127 C -0.08637 0.61364 -0.09266
 N128 N -0.04753 0.55141 0.08298
 N129 N -0.05054 0.58751 0.11138
 N130 N -0.08529 0.45513 0.05011
 N131 N -0.11335 0.41865 0.05326
 N132 N -0.05306 0.45334 0.08257
 N133 N -0.05848 0.41579 0.10882
 N134 N -0.08001 0.55352 0.05079
 N135 N -0.10614 0.59112 0.05654
 Mn136 Mn -0.08321 0.50475 0.00015
 C137 C -0.08727 0.61198 0.09450
 C138 C -0.09633 0.39459 0.09023
 N139 N 0.05323 0.54697 -0.08250
 N140 N 0.05896 0.58452 -0.10871
 N141 N 0.08004 0.44671 -0.05077
 N142 N 0.10608 0.40905 -0.05640
 N143 N 0.04759 0.44883 -0.08299
 N144 N 0.05052 0.41266 -0.11129
 N145 N 0.08545 0.54495 -0.05005
 N146 N 0.11385 0.58114 -0.05320
 Mn147 Mn 0.00024 0.50071 -0.08325
 C148 C 0.09704 0.60538 -0.09011
 C149 C 0.08719 0.38817 -0.09430
 N150 N 0.04720 0.44760 0.08224
 N151 N 0.05003 0.41101 0.11014
 N152 N 0.08514 0.54430 0.05019
 N153 N 0.11295 0.58093 0.05321
 N154 N 0.05276 0.54574 0.08279
 N155 N 0.05784 0.58323 0.10901
 N156 N 0.07985 0.44601 0.04993
 N157 N 0.10598 0.40835 0.05513
 Mn158 Mn -0.00016 0.49952 0.08321
 Mn159 Mn 0.08325 0.49541 -0.00017
 Cl160 Cl 0.00002 0.50010 -0.00002
 C161 C 0.08688 0.38684 0.09282
 C162 C 0.09566 0.60472 0.09025
 N163 N 0.94320 -0.07893 0.54967
 N164 N 0.93759 -0.10553 0.58691
 N165 N 0.91288 -0.04409 0.45148
 N166 N 0.88586 -0.04593 0.41425
 N167 N 0.94259 -0.07904 0.45156
 N168 N 0.93642 -0.10573 0.41460
 N169 N 0.91347 -0.04400 0.55018
 N170 N 0.88702 -0.04572 0.58806
 C171 C 0.90239 -0.08444 0.61050
 C172 C 0.90086 -0.08471 0.39170
 N173 N 0.95543 0.08577 0.45078
 N174 N 0.95363 0.11250 0.41324
 N175 N 0.92091 0.05618 0.54955
 N176 N 0.89423 0.06241 0.58672
 N177 N 0.95591 0.08585 0.54940
 N178 N 0.95412 0.11290 0.58666
 N179 N 0.92042 0.05610 0.45134
 N180 N 0.89371 0.06204 0.41434
 Mn181 Mn 0.91628 0.00608 0.50064
 C182 C 0.91482 0.09740 0.39096
 C183 C 0.91533 0.09794 0.60951
 N184 N 1.04279 -0.08652 0.45039
 N185 N 1.04428 -0.11333 0.41297
 N186 N 1.07842 -0.05666 0.54825
 N187 N 1.10543 -0.06256 0.58501
 N188 N 1.04346 -0.08636 0.54900
 N189 N 1.04560 -0.11312 0.58653
 N190 N 1.07777 -0.05684 0.45016
 N191 N 1.10416 -0.06282 0.41277
 Mn192 Mn 0.99298 -0.08333 0.50017
 C193 C 1.08288 -0.09822 0.38996
 C194 C 1.08458 -0.09794 0.60853
 N195 N 1.05617 0.07827 0.54811
 N196 N 1.06238 0.10491 0.58509
 N197 N 1.08533 0.04320 0.44954
 N198 N 1.11211 0.04492 0.41192
 N199 N 1.05567 0.07819 0.44992
 N200 N 1.06165 0.10482 0.41271
 N201 N 1.08594 0.04337 0.54807
 N202 N 1.11307 0.04519 0.58519
 Mn203 Mn 1.00582 0.08265 0.49956
 Mn204 Mn 1.08247 -0.00676 0.49899
 Cl205 Cl 0.99937 -0.00034 0.49984
 C206 C 1.09805 0.08389 0.60782
 C207 C 1.09702 0.08366 0.38938
 C208 C 1.14889 0.13337 0.26461
 C209 C 1.16810 0.08460 0.27817
 C210 C 1.15127 0.06804 0.31960
 C211 C 1.11624 0.10095 0.34365
 C212 C 1.14204 0.14753 0.34827
 C213 C 1.15913 0.16437 0.30725
 C214 C 1.09533 0.12615 0.26548
 C215 C 1.07838 0.10953 0.30678
 H216 H 1.18917 0.06239 0.25588
 H217 H 1.15960 0.03324 0.33217
 H218 H 1.14686 0.16563 0.38118
 H219 H 1.17859 0.19689 0.30533
 H220 H 1.07275 0.13226 0.23570
 H221 H 1.04155 0.10192 0.31220
 C222 C 0.84922 -0.13515 0.26772
 C223 C 0.82933 -0.08663 0.28133
 C224 C 0.84605 -0.06980 0.32250
 C225 C 0.88161 -0.10219 0.34627
 C226 C 0.85647 -0.14913 0.35137
 C227 C 0.83953 -0.16624 0.31061
 C228 C 0.90266 -0.12718 0.26796
 C229 C 0.91947 -0.11028 0.30899
 H230 H 0.80779 -0.06476 0.25928
 H231 H 0.83722 -0.03515 0.33508
 H232 H 0.85197 -0.16726 0.38442
 H233 H 0.82050 -0.19903 0.30906
 H234 H 0.92524 -0.13306 0.23797
 H235 H 0.95621 -0.10217 0.31396
 C236 C 0.86483 0.15001 0.73377
 C237 C 0.83379 0.15972 0.69104
 C238 C 0.85091 0.14263 0.65019
 C239 C 0.89781 0.11733 0.65504
 C240 C 0.93036 0.15275 0.67867
 C241 C 0.91352 0.16961 0.71993
 C242 C 0.87259 0.09660 0.73347
 C243 C 0.88950 0.07965 0.69236
 H244 H 0.80103 0.17885 0.69275
 H245 H 0.83282 0.14713 0.61723
 H246 H 0.96513 0.16136 0.66596
 H247 H 0.93551 0.19105 0.74190
 H248 H 0.86656 0.07414 0.76349
 H249 H 0.89749 0.04291 0.68735
 C250 C 1.13607 -0.14872 0.73243
 C251 C 1.12800 -0.09547 0.73183
 C252 C 1.11066 -0.07887 0.69083
 C253 C 1.10249 -0.11686 0.65395
 C254 C 1.14964 -0.14172 0.64871
 C255 C 1.16709 -0.15836 0.68952
 C256 C 1.08766 -0.16897 0.71943
 C257 C 1.07042 -0.15249 0.67831
 H258 H 1.13438 -0.07287 0.76152
 H259 H 1.10257 -0.04220 0.68551
 H260 H 1.16768 -0.14618 0.61558
 H261 H 1.20007 -0.17707 0.69116
 H262 H 1.06641 -0.19107 0.74172
 H263 H 1.03584 -0.16185 0.66593
 C264 C 0.26806 1.14631 1.13829
 C265 C 0.28346 1.16742 1.09073
 C266 C 0.32531 1.15110 1.07482
 C267 C 0.34800 1.11464 1.10693
 C268 C 0.35137 1.13842 1.15462
 C269 C 0.30988 1.15505 1.17089
 C270 C 0.26875 1.09318 1.12909
 C271 C 0.31045 1.07673 1.11296
 H272 H 0.26236 1.18963 1.06862
 H273 H 0.33926 1.16101 1.04095
 H274 H 0.38378 1.14230 1.17382
 H275 H 0.30710 1.17319 1.20406
 H276 H 0.23863 1.07053 1.13381
 H277 H 0.31585 1.04021 1.10429
 C278 C 0.26546 0.86248 0.85100
 C279 C 0.26334 0.87290 0.90384
 C280 C 0.30389 0.88992 0.92180
 C281 C 0.34320 0.89553 0.88563
 C282 C 0.34852 0.84739 0.86308
 C283 C 0.30822 0.83025 0.84490
 C284 C 0.28120 0.90971 0.82944
 C285 C 0.32187 0.92657 0.84742
 H286 H 0.23214 0.86847 0.92514
 H287 H 0.30721 0.89981 0.95814
 H288 H 0.38141 0.82855 0.86105
 H289 H 0.30695 0.79673 0.82726
 H290 H 0.26120 0.93083 0.80536
 H291 H 0.33580 0.96041 0.83734
 C292 C 0.72902 0.85218 1.14052
 C293 C 0.72985 0.90475 1.12888
 C294 C 0.68860 0.92166 1.11232
 C295 C 0.64997 0.88462 1.10855
 C296 C 0.67148 0.84600 1.07812
 C297 C 0.71281 0.82916 1.09448
 C298 C 0.68720 0.84617 1.17405
 C299 C 0.64610 0.86318 1.15744
 H300 H 0.76056 0.92669 1.13267
 H301 H 0.68413 0.95796 1.10223
 H302 H 0.65666 0.83417 1.04541
 H303 H 0.73250 0.80408 1.07417
 H304 H 0.68973 0.82951 1.20803
 H305 H 0.61368 0.86113 1.17719
 C306 C 0.73677 1.13849 0.85162
 C307 C 0.69370 1.16987 0.84386
 C308 C 0.65325 1.15268 0.86210
 C309 C 0.65877 1.10535 0.88639
 C310 C 0.68144 1.07344 0.84960
 C311 C 0.72227 1.09034 0.83162
 C312 C 0.73789 1.12976 0.90484
 C313 C 0.69718 1.11271 0.92287
 H314 H 0.69490 1.20288 0.82516
 H315 H 0.62015 1.17097 0.85903
 H316 H 0.66843 1.03897 0.84079
 H317 H 0.74344 1.06860 0.80901
 H318 H 0.76854 1.13532 0.92638
 H319 H 0.69316 1.10404 0.95952
 C320 C 0.13755 0.26382 0.14709
 C321 C 0.16994 0.30625 0.15344
 C322 C 0.15290 0.34678 0.13551
 C323 C 0.10472 0.34178 0.11289
 C324 C 0.11049 0.30294 0.07649
 C325 C 0.12750 0.26225 0.09428
 C326 C 0.09034 0.27928 0.16874
 C327 C 0.07350 0.32007 0.15097
 H328 H 0.20348 0.30455 0.17098
 H329 H 0.17185 0.37955 0.13767
 H330 H 0.10100 0.30677 0.04009
 H331 H 0.13239 0.23137 0.07287
 H332 H 0.06952 0.25916 0.19315
 H333 H 0.03973 0.33403 0.16135
 C334 C -0.14758 0.27079 -0.13940
 C335 C -0.15411 0.31240 -0.17289
 C336 C -0.13713 0.35361 -0.15659
 C337 C -0.11518 0.35005 -0.10803
 C338 C -0.15346 0.32847 -0.07699
 C339 C -0.17025 0.28704 -0.09301
 C340 C -0.09482 0.27029 -0.12856
 C341 C -0.07794 0.31164 -0.11232
 H342 H -0.17106 0.30964 -0.20662
 H343 H -0.13950 0.38590 -0.17637
 H344 H -0.16497 0.34324 -0.04403
 H345 H -0.19487 0.26719 -0.07217
 H346 H -0.07274 0.23971 -0.13261
 H347 H -0.04153 0.31632 -0.10278
 C348 C 0.14973 0.73015 -0.13848
 C349 C 0.17328 0.71266 -0.09314
 C350 C 0.15606 0.67127 -0.07713
 C351 C 0.11664 0.65097 -0.10722
 C352 C 0.08002 0.69009 -0.10976
 C353 C 0.09728 0.73140 -0.12594
 C354 C 0.15475 0.68903 -0.17274
 C355 C 0.13738 0.64787 -0.15650
 H356 H 0.19931 0.73131 -0.07323
 H357 H 0.16840 0.65543 -0.04502
 H358 H 0.04377 0.68588 -0.09914
 H359 H 0.07568 0.76244 -0.12888
 H360 H 0.17106 0.69205 -0.20692
 H361 H 0.13876 0.61589 -0.17676
 C362 C -0.13828 0.73412 0.15053
 C363 C -0.09259 0.71691 0.17370
 C364 C -0.07560 0.67645 0.15532
 C365 C -0.10523 0.65669 0.11528
 C366 C -0.15457 0.65189 0.13575
 C367 C -0.17173 0.69211 0.15424
 C368 C -0.12555 0.73724 0.09827
 C369 C -0.10840 0.69686 0.07995
 H370 H -0.07313 0.73523 0.20028
 H371 H -0.04295 0.66115 0.16704
 H372 H -0.17419 0.61944 0.13618
 H373 H -0.20603 0.69384 0.17054
 H374 H -0.12872 0.76895 0.07768
 H375 H -0.09693 0.69414 0.04393
 C376 C 1.15005 0.13416 0.73144
 C377 C 1.17102 0.08643 0.71712
 C378 C 1.15409 0.06955 0.67607
 C379 C 1.11744 0.10133 0.65311
 C380 C 1.07989 0.10823 0.69094
 C381 C 1.09688 0.12516 0.73188
 C382 C 1.15848 0.16596 0.68888
 C383 C 1.14144 0.14890 0.64814
 H384 H 1.19417 0.06543 0.73835
 H385 H 1.16398 0.03546 0.66277
 H386 H 1.04322 0.09961 0.68629
 H387 H 1.07464 0.13069 0.76217
 H388 H 1.17674 0.19915 0.69067
 H389 H 1.14508 0.16747 0.61524
 C390 C 0.85260 -0.13475 0.73580
 C391 C 0.84117 -0.16524 0.69313
 C392 C 0.85753 -0.14816 0.65192
 C393 C 0.88387 -0.10186 0.65643
 C394 C 0.84970 -0.06884 0.68146
 C395 C 0.83363 -0.08562 0.72309
 C396 C 0.90618 -0.12805 0.73392
 C397 C 0.92241 -0.11116 0.69245
 H398 H 0.82149 -0.19763 0.69517
 H399 H 0.85186 -0.16591 0.61896
 H400 H 0.84151 -0.03384 0.66939
 H401 H 0.81337 -0.06337 0.74609
 H402 H 0.92931 -0.13465 0.76317
 H403 H 0.95919 -0.10380 0.68636
 C404 C 1.13238 -0.14930 0.26514
 C405 C 1.08388 -0.16919 0.27920
 C406 C 1.06733 -0.15265 0.32069
 C407 C 1.09997 -0.11726 0.34424
 C408 C 1.14697 -0.14241 0.34861
 C409 C 1.16380 -0.15919 0.30755
 C410 C 1.12444 -0.09593 0.26579
 C411 C 1.10783 -0.07929 0.30712
 H412 H 1.06184 -0.19061 0.25727
 H413 H 1.03271 -0.16149 0.33366
 H414 H 1.16533 -0.14707 0.38140
 H415 H 1.19659 -0.17824 0.30547
 H416 H 1.13011 -0.07328 0.23585
 H417 H 1.09975 -0.04262 0.31243
 C418 C 0.86509 0.14871 0.26644
 C419 C 0.91373 0.16829 0.27990
 C420 C 0.93029 0.15165 0.32125
 C421 C 0.89752 0.11644 0.34534
 C422 C 0.85067 0.14186 0.35013
 C423 C 0.83382 0.15875 0.30917
 C424 C 0.87272 0.09528 0.26721
 C425 C 0.88934 0.07853 0.30844
 H426 H 0.93586 0.18955 0.25762
 H427 H 0.96500 0.16028 0.33377
 H428 H 0.83240 0.14658 0.38309
 H429 H 0.80112 0.17795 0.30737
 H430 H 0.86684 0.07266 0.23742
 H431 H 0.89719 0.04181 0.31380
 C432 C 0.13815 0.26586 -0.14969
 C433 C 0.12541 0.26298 -0.09743
 C434 C 0.10824 0.30344 -0.07932
 C435 C 0.10509 0.34342 -0.11488
 C436 C 0.15443 0.34814 -0.13534
 C437 C 0.17160 0.30784 -0.15361
 C438 C 0.09247 0.28293 -0.17299
 C439 C 0.07546 0.32348 -0.15482
 H440 H 0.12859 0.23137 -0.07668
 H441 H 0.09678 0.30634 -0.04332
 H442 H 0.17404 0.38060 -0.13593
 H443 H 0.20591 0.30605 -0.16990
 H444 H 0.07307 0.26450 -0.19953
 H445 H 0.04284 0.33874 -0.16665
 C446 C -0.14730 0.26937 0.13916
 C447 C -0.09458 0.26907 0.12778
 C448 C -0.07790 0.31053 0.11136
 C449 C -0.11532 0.34882 0.10748
 C450 C -0.15355 0.32726 0.07681
 C451 C -0.17015 0.28570 0.09301
 C452 C -0.15395 0.31080 0.17273
 C453 C -0.13718 0.35212 0.15626
 H454 H -0.07238 0.23856 0.13160
 H455 H -0.04154 0.31538 0.10141
 H456 H -0.16521 0.34217 0.04401
 H457 H -0.19480 0.26588 0.07247
 H458 H -0.17085 0.30787 0.20663
 H459 H -0.13967 0.38433 0.17605
 C460 C -0.13614 0.73722 -0.14679
 C461 C -0.16800 0.69456 -0.15465
 C462 C -0.15125 0.65395 -0.13672
 C463 C -0.10385 0.65890 -0.11263
 C464 C -0.07160 0.68132 -0.14944
 C465 C -0.08807 0.72233 -0.16712
 C466 C -0.12746 0.73808 -0.09360
 C467 C -0.11086 0.69720 -0.07589
 H468 H -0.20100 0.69616 -0.17322
 H469 H -0.16990 0.62109 -0.13990
 H470 H -0.03721 0.66799 -0.15851
 H471 H -0.06609 0.74331 -0.18976
 H472 H -0.13270 0.76869 -0.07187
 H473 H -0.10223 0.69297 -0.03931
 C474 C 0.14560 0.73033 0.13821
 C475 C 0.09285 0.73018 0.12739
 C476 C 0.07649 0.68858 0.11133
 C477 C 0.11423 0.65063 0.10718
 C478 C 0.15220 0.67255 0.07600
 C479 C 0.16847 0.71424 0.09187
 C480 C 0.15269 0.68895 0.17185
 C481 C 0.13623 0.64750 0.15573
 H482 H 0.07040 0.76052 0.13131
 H483 H 0.04014 0.68341 0.10179
 H484 H 0.16381 0.65781 0.04306
 H485 H 0.19278 0.73438 0.07094
 H486 H 0.16964 0.69204 0.20556
 H487 H 0.13903 0.61531 0.17561
 C488 C 0.27107 1.14805 0.86042
 C489 C 0.27010 1.09569 0.87291
 C490 C 0.31146 1.07883 0.88921
 C491 C 0.35031 1.11572 0.89189
 C492 C 0.35371 1.13636 0.84262
 C493 C 0.31250 1.15332 0.82627
 C494 C 0.28799 1.17177 0.90584
 C495 C 0.32942 1.15497 0.92193
 H496 H 0.23923 1.07386 0.86984
 H497 H 0.31589 1.04267 0.89980
 H498 H 0.38590 1.13793 0.82245
 H499 H 0.30963 1.16948 0.79207
 H500 H 0.26887 1.19755 0.92580
 H501 H 0.34488 1.16749 0.95409
 C502 C 0.26324 0.86317 1.14764
 C503 C 0.27948 0.90953 1.17006
 C504 C 0.32040 0.92627 1.15220
 C505 C 0.34145 0.89576 1.11332
 C506 C 0.34601 0.84706 1.13499
 C507 C 0.30536 0.83013 1.15299
 C508 C 0.26142 0.87453 1.09506
 C509 C 0.30224 0.89145 1.07721
 H510 H 0.25995 0.92983 1.19529
 H511 H 0.33499 0.95945 1.16321
 H512 H 0.37860 0.82768 1.13652
 H513 H 0.30338 0.79626 1.16998
 H514 H 0.23025 0.87067 1.07390
 H515 H 0.30588 0.90200 1.04102
 C516 C 0.73474 1.13680 1.14922
 C517 C 0.69274 1.17019 1.15352
 C518 C 0.65236 1.15334 1.13525
 C519 C 0.65703 1.10434 1.11441
 C520 C 0.69703 1.10792 1.07875
 C521 C 0.73758 1.12477 1.09686
 C522 C 0.71765 1.09087 1.17221
 C523 C 0.67701 1.07419 1.15406
 H524 H 0.69459 1.20424 1.17004
 H525 H 0.61988 1.17296 1.13607
 H526 H 0.69410 1.09691 1.04269
 H527 H 0.76923 1.12814 1.07605
 H528 H 0.73628 1.07095 1.19831
 H529 H 0.66183 1.04136 1.16557
 C530 C 0.73161 0.85275 0.86267
 C531 C 0.73199 0.90540 0.87379
 C532 C 0.69037 0.92222 0.88973
 C533 C 0.65186 0.88502 0.89346
 C534 C 0.64899 0.86324 0.84477
 C535 C 0.69046 0.84630 0.82877
 C536 C 0.71467 0.82995 0.90878
 C537 C 0.67296 0.84670 0.92452
 H538 H 0.76269 0.92744 0.87016
 H539 H 0.68555 0.95855 0.89945
 H540 H 0.61695 0.86090 0.82471
 H541 H 0.69371 0.82941 0.79501
 H542 H 0.73418 0.80520 0.92959
 H543 H 0.65762 0.83508 0.95725
   
