data_POSCAR
  _audit_creation_date              2014-09-24
  _audit_creation_method            'ToBaCCo'
  _symmetry_space_group_name_H-M    'P1'
  _symmetry_Int_Tables_number       1
  _symmetry_cell_setting            triclinic
  loop_
  _symmetry_equiv_pos_as_xyz
 x,y,z
_cell_length_a 59.1800
_cell_length_b 59.3305
_cell_length_c 26.3176
_cell_angle_alpha 89.939400
_cell_angle_beta 90.102700
_cell_angle_gamma 119.915300
loop_
  _atom_site_label
  _atom_site_type_symbol
  _atom_site_fract_x
  _atom_site_fract_y
  _atom_site_fract_z
C1 C 0.16201 0.44741 0.49541
 C2 C 0.17593 0.45083 0.45014
 C3 C 0.19950 0.45049 0.45235
 C4 C 0.20844 0.44516 0.49815
 C5 C 0.19368 0.44143 0.54278
 C6 C 0.17106 0.44361 0.54228
 C7 C 0.23324 0.44390 0.49940
 C8 C 0.24743 0.44819 0.54508
 C9 C 0.27020 0.44640 0.54683
 C10 C 0.27979 0.44181 0.50168
 C11 C 0.26694 0.43876 0.45528
 C12 C 0.24326 0.43884 0.45475
 H13 H 0.14423 0.44837 0.49435
 H14 H 0.21098 0.45477 0.41816
 H15 H 0.19957 0.43671 0.57823
 H16 H 0.24116 0.45328 0.57954
 H17 H 0.29792 0.44148 0.50237
 H18 H 0.23284 0.43485 0.41917
 C19 C 0.54666 -0.28855 0.49822
 C20 C 0.54345 -0.27829 0.45237
 C21 C 0.54415 -0.25425 0.45350
 C22 C 0.54960 -0.23969 0.49882
 C23 C 0.55310 -0.25049 0.54407
 C24 C 0.55064 -0.27534 0.54460
 C25 C 0.55126 -0.21353 0.49888
 C26 C 0.54671 -0.20335 0.54379
 C27 C 0.54878 -0.17872 0.54441
 C28 C 0.55403 -0.16470 0.49888
 C29 C 0.55743 -0.17475 0.45320
 C30 C 0.55695 -0.19864 0.45383
 H31 H 0.54545 -0.30737 0.49795
 H32 H 0.54009 -0.24715 0.41886
 H33 H 0.55789 -0.23962 0.57915
 H34 H 0.54116 -0.21459 0.57845
 H35 H 0.55464 -0.14616 0.49864
 H36 H 0.56115 -0.20532 0.41885
 C37 C 1.28467 0.83750 0.50227
 C38 C 1.27569 0.82383 0.45625
 C39 C 1.25232 0.79975 0.45651
 C40 C 1.23724 0.78995 0.50112
 C41 C 1.24676 0.80449 0.54644
 C42 C 1.27078 0.82773 0.54761
 C43 C 1.21196 0.76452 0.50051
 C44 C 1.20209 0.74969 0.54538
 C45 C 1.17811 0.72622 0.54572
 C46 C 1.16462 0.71689 0.49956
 C47 C 1.17448 0.73053 0.45399
 C48 C 1.19762 0.75464 0.45501
 H49 H 1.30307 0.85559 0.50330
 H50 H 1.24619 0.78851 0.42187
 H51 H 1.23561 0.79805 0.58118
 H52 H 1.21321 0.75609 0.58021
 H53 H 1.14660 0.69843 0.49863
 H54 H 1.20412 0.76557 0.42005
 C55 C 0.83809 0.55773 0.49931
 C56 C 0.82426 0.55358 0.45374
 C57 C 0.79990 0.55231 0.45488
 C58 C 0.78994 0.55668 0.50041
 C59 C 0.80469 0.56125 0.54538
 C60 C 0.82818 0.56084 0.54541
 C61 C 0.76430 0.55630 0.50111
 C62 C 0.74980 0.55139 0.54656
 C63 C 0.72625 0.55190 0.54784
 C64 C 0.71646 0.55587 0.50204
 C65 C 0.72973 0.55953 0.45605
 C66 C 0.75395 0.56066 0.45618
 H67 H 0.85636 0.55768 0.49919
 H68 H 0.78877 0.54760 0.42008
 H69 H 0.79823 0.56530 0.58080
 H70 H 0.75649 0.54676 0.58112
 H71 H 0.69791 0.55536 0.50171
 H72 H 0.76458 0.56510 0.42086
 C73 C 0.44886 0.28337 0.50277
 C74 C 0.44506 0.26986 0.45704
 C75 C 0.44429 0.24584 0.45771
 C76 C 0.44906 0.23597 0.50293
 C77 C 0.45403 0.25069 0.54794
 C78 C 0.45324 0.27401 0.54869
 C79 C 0.44931 0.21072 0.50299
 C80 C 0.44492 0.19614 0.54818
 C81 C 0.44613 0.17302 0.54876
 C82 C 0.44971 0.16344 0.50243
 C83 C 0.45382 0.17726 0.45695
 C84 C 0.45436 0.20115 0.45785
 H85 H 0.44912 0.30174 0.50216
 H86 H 0.43981 0.23499 0.42264
 H87 H 0.45898 0.24433 0.58256
 H88 H 0.44042 0.20256 0.58316
 H89 H 0.45007 0.14538 0.50182
 H90 H 0.45906 0.21230 0.42313
 C91 C 0.71858 0.16346 0.49899
 C92 C 0.73204 0.17352 0.45334
 C93 C 0.75553 0.19736 0.45405
 C94 C 0.76479 0.21216 0.49920
 C95 C 0.75005 0.20197 0.54407
 C96 C 0.72740 0.17741 0.54459
 C97 C 0.78935 0.23828 0.49928
 C98 C 0.80361 0.24910 0.54462
 C99 C 0.82605 0.27395 0.54516
 C100 C 0.83530 0.28712 0.49874
 C101 C 0.82183 0.27681 0.45312
 C102 C 0.79856 0.25284 0.45398
 H103 H 0.70059 0.14497 0.49871
 H104 H 0.76641 0.20406 0.41907
 H105 H 0.75578 0.21315 0.57879
 H106 H 0.79748 0.23826 0.57974
 H107 H 0.85288 0.30595 0.49811
 H108 H 0.78761 0.24589 0.41910
 N109 N 0.97399 0.52886 0.05430
 N110 N 0.95625 0.53547 0.06540
 N111 N 1.02904 0.54007 0.08715
 N112 N 1.04600 0.55339 0.12321
 N113 N 1.02877 0.55579 0.05229
 N114 N 1.04544 0.58027 0.06403
 N115 N 0.97422 0.51305 0.08897
 N116 N 0.95661 0.50827 0.12420
 C117 C 0.94540 0.52216 0.10887
 C118 C 1.05634 0.57837 0.10795
 N119 N 1.02802 0.47493 0.05379
 N120 N 1.04617 0.46874 0.06373
 N121 N 0.97378 0.46453 0.08978
 N122 N 0.95553 0.45232 0.12424
 N123 N 0.97321 0.44811 0.05569
 N124 N 0.95463 0.42417 0.06633
 N125 N 1.02861 0.49144 0.08770
 N126 N 1.04724 0.49713 0.12124
 Mn127 Mn 1.00143 0.50225 0.08877
 C128 C 1.05816 0.48304 0.10563
 C129 C 0.94365 0.42725 0.10897
 N130 N 1.02770 0.55461 -0.05768
 N131 N 1.04599 0.57861 -0.06892
 N132 N 0.97234 0.51156 -0.08994
 N133 N 0.95529 0.50795 -0.12586
 N134 N 0.97299 0.52795 -0.05562
 N135 N 0.95647 0.53600 -0.06752
 N136 N 1.02714 0.53817 -0.09174
 N137 N 1.04508 0.55041 -0.12671
 Mn138 Mn 1.00087 0.54205 -0.00172
 C139 C 1.05680 0.57553 -0.11182
 C140 C 0.94529 0.52299 -0.11098
 N141 N 0.97207 0.44691 -0.05419
 N142 N 0.95523 0.42244 -0.06572
 N143 N 1.02656 0.48941 -0.09107
 N144 N 1.04300 0.49265 -0.12788
 N145 N 1.02675 0.47368 -0.05612
 N146 N 1.04324 0.46566 -0.06852
 N147 N 0.97172 0.46264 -0.08895
 N148 N 0.95455 0.44935 -0.12470
 Mn149 Mn 1.00001 0.46066 -0.00013
 Mn150 Mn 0.99942 0.50045 -0.09078
 Cl151 Cl 1.00043 0.50136 -0.00101
 C152 C 0.94416 0.42437 -0.10940
 C153 C 1.05350 0.47803 -0.11301
 N154 N 0.47253 0.44394 0.05409
 N155 N 0.46482 0.41952 0.06624
 N156 N 0.46006 0.48624 0.09004
 N157 N 0.44668 0.48920 0.12685
 N158 N 0.44429 0.47037 0.05508
 N159 N 0.41971 0.46199 0.06749
 N160 N 0.48845 0.45982 0.08890
 N161 N 0.49210 0.44666 0.12529
 C162 C 0.47758 0.42162 0.11032
 C163 C 0.42160 0.47428 0.11198
 N164 N 0.52394 0.55162 0.05646
 N165 N 0.52928 0.57557 0.06705
 N166 N 0.53656 0.50893 0.08976
 N167 N 0.55000 0.50548 0.12593
 N168 N 0.55231 0.52529 0.05540
 N169 N 0.57688 0.53349 0.06754
 N170 N 0.50803 0.53521 0.09054
 N171 N 0.50194 0.54743 0.12488
 Mn172 Mn 0.49831 0.49756 0.09016
 C173 C 0.51514 0.57250 0.10958
 C174 C 0.57505 0.52061 0.11119
 N175 N 0.44450 0.47138 -0.05491
 N176 N 0.42012 0.46483 -0.06542
 N177 N 0.48869 0.46131 -0.08999
 N178 N 0.49468 0.44911 -0.12453
 N179 N 0.47283 0.44489 -0.05591
 N180 N 0.46740 0.42093 -0.06668
 N181 N 0.46043 0.48787 -0.08884
 N182 N 0.44745 0.49318 -0.12297
 Mn183 Mn 0.45829 0.45740 -0.00049
 C184 C 0.42241 0.47889 -0.10770
 C185 C 0.48146 0.42403 -0.10934
 N186 N 0.55248 0.52597 -0.05454
 N187 N 0.57689 0.53273 -0.06542
 N188 N 0.50841 0.53670 -0.08822
 N189 N 0.50446 0.54982 -0.12422
 N190 N 0.52430 0.55256 -0.05342
 N191 N 0.53173 0.57696 -0.06515
 N192 N 0.53656 0.51000 -0.08916
 N193 N 0.54954 0.50526 -0.12413
 Mn194 Mn 0.53850 0.53911 0.00102
 Mn195 Mn 0.49849 0.49896 -0.08941
 Cl196 Cl 0.49840 0.49825 0.00037
 C197 C 0.57460 0.51934 -0.10869
 C198 C 0.51881 0.57484 -0.10902
 N199 N 0.44837 -0.02753 0.05919
 N200 N 0.42428 -0.04545 0.07104
 N201 N 0.49246 0.02714 0.09202
 N202 N 0.49858 0.04543 0.12638
 N203 N 0.47582 0.02712 0.05892
 N204 N 0.47001 0.04535 0.07017
 N205 N 0.46500 -0.02756 0.09226
 N206 N 0.45279 -0.04554 0.12716
 C207 C 0.42748 -0.05668 0.11323
 C208 C 0.48463 0.05676 0.11206
 N209 N 0.55635 0.02687 0.05278
 N210 N 0.58103 0.04330 0.06413
 N211 N 0.51348 -0.02769 0.08863
 N212 N 0.51048 -0.04430 0.12487
 N213 N 0.52895 -0.02770 0.05290
 N214 N 0.53705 -0.04424 0.06426
 N215 N 0.54092 0.02700 0.08846
 N216 N 0.55461 0.04361 0.12464
 Mn217 Mn 0.50294 -0.00028 0.09069
 C218 C 0.57952 0.05390 0.10870
 C219 C 0.52496 -0.05474 0.10889
 N220 N 0.47364 0.02701 -0.05092
 N221 N 0.46573 0.04372 -0.06206
 N222 N 0.46167 -0.02768 -0.08647
 N223 N 0.44798 -0.04430 -0.12264
 N224 N 0.44625 -0.02756 -0.05075
 N225 N 0.42158 -0.04400 -0.06205
 N226 N 0.48915 0.02702 -0.08659
 N227 N 0.49239 0.04385 -0.12255
 Mn228 Mn 0.46077 -0.00025 0.00421
 C229 C 0.47798 0.05436 -0.10649
 C230 C 0.42308 -0.05459 -0.10662
 N231 N 0.52679 -0.02782 -0.05705
 N232 N 0.53285 -0.04583 -0.06879
 N233 N 0.53760 0.02688 -0.09025
 N234 N 0.54982 0.04494 -0.12501
 N235 N 0.55423 0.02684 -0.05716
 N236 N 0.57831 0.04483 -0.06885
 N237 N 0.51015 -0.02781 -0.09012
 N238 N 0.50428 -0.04586 -0.12491
 Mn239 Mn 0.54183 -0.00046 -0.00224
 Mn240 Mn 0.49967 -0.00040 -0.08871
 Cl241 Cl 0.50130 -0.00035 0.00099
 C242 C 0.51836 -0.05708 -0.11091
 C243 C 0.57512 0.05611 -0.11096
 N244 N 1.17003 0.46209 0.31584
 C245 C 1.14718 0.46222 0.31542
 N246 N 1.13410 0.45864 0.35950
 N247 N 1.14347 0.45500 0.40275
 C248 C 1.16635 0.45483 0.40386
 N249 N 1.17941 0.45841 0.35929
 C250 C 1.13678 0.46669 0.26972
 C251 C 1.12624 0.47067 0.23445
 C252 C 1.11178 0.47575 0.19687
 N253 N 1.10584 0.49467 0.20568
 N254 N 1.08945 0.49748 0.17524
 C255 C 1.07837 0.48144 0.13492
 N256 N 1.08459 0.46267 0.12559
 N257 N 1.10097 0.45979 0.15625
 N258 N 0.53527 0.67140 0.36376
 C259 C 0.53217 0.68080 0.31905
 N260 N 0.53268 0.70391 0.31840
 N261 N 0.53626 0.71719 0.36141
 C262 C 0.53940 0.70783 0.40659
 N263 N 0.53882 0.68464 0.40657
 C264 C 0.52810 0.66586 0.27374
 C265 C 0.52457 0.65137 0.23877
 C266 C 0.52020 0.63201 0.20147
 N267 N 0.53576 0.63784 0.16003
 N268 N 0.53360 0.61898 0.12930
 C269 C 0.51595 0.59372 0.13939
 N270 N 0.50029 0.58805 0.18057
 N271 N 0.50239 0.60686 0.21108
 N272 N 0.32650 -0.13264 0.36977
 C273 C 0.31837 -0.14550 0.32509
 N274 N 0.29595 -0.16875 0.32378
 N275 N 0.28209 -0.17875 0.36609
 C276 C 0.29018 -0.16591 0.41123
 N277 N 0.31269 -0.14262 0.41190
 C278 C 0.33395 -0.13446 0.28049
 C279 C 0.34865 -0.12364 0.24571
 C280 C 0.36800 -0.10907 0.20805
 N281 N 0.39315 -0.10226 0.21706
 N282 N 0.41193 -0.08620 0.18569
 C283 C 0.40623 -0.07635 0.14424
 N284 N 0.38097 -0.08341 0.13482
 N285 N 0.36215 -0.09947 0.16636
 N286 N 0.87005 0.55033 0.36281
 C287 C 0.85634 0.54383 0.31885
 N288 N 0.83194 0.54056 0.31866
 N289 N 0.82167 0.54375 0.36132
 C290 C 0.83538 0.55019 0.40565
 N291 N 0.85980 0.55348 0.40528
 C292 C 0.86753 0.53946 0.27419
 C293 C 0.87851 0.53558 0.23962
 C294 C 0.89322 0.53056 0.20249
 N295 N 0.90274 0.54549 0.16017
 N296 N 0.91876 0.54235 0.12903
 C297 C 0.92587 0.52432 0.13951
 N298 N 0.91613 0.50933 0.18163
 N299 N 0.90011 0.51241 0.21255
 N300 N 0.45059 0.28758 0.32080
 C301 C 0.44671 0.30827 0.32201
 N302 N 0.44089 0.31534 0.36683
 N303 N 0.43935 0.30244 0.40926
 C304 C 0.44357 0.28193 0.40861
 N305 N 0.44897 0.27459 0.36335
 C306 C 0.45140 0.32442 0.27810
 C307 C 0.45625 0.33980 0.24404
 C308 C 0.46293 0.36002 0.20714
 N309 N 0.48153 0.38468 0.21853
 N310 N 0.48663 0.40412 0.18680
 C311 C 0.47332 0.39961 0.14246
 N312 N 0.45482 0.37484 0.13076
 N313 N 0.44968 0.35534 0.16265
 N314 N 0.71456 0.16107 0.31704
 C315 C 0.69439 0.13625 0.31816
 N316 N 0.68766 0.12329 0.36295
 N317 N 0.70040 0.13483 0.40543
 C318 C 0.72036 0.15981 0.40487
 N319 N 0.72737 0.17262 0.35964
 C320 C 0.67816 0.12463 0.27434
 C321 C 0.66264 0.11405 0.24046
 C322 C 0.64212 0.10052 0.20400
 N323 N 0.61755 0.09473 0.21593
 N324 N 0.59781 0.08047 0.18465
 C325 C 0.60192 0.07150 0.14024
 N326 N 0.62660 0.07750 0.12798
 N327 N 0.64641 0.09176 0.15943
 N328 N 0.44750 0.12657 -0.36343
 C329 C 0.44764 0.13712 -0.31782
 N330 N 0.44612 0.15919 -0.31629
 N331 N 0.44476 0.17044 -0.35930
 C332 C 0.44508 0.16014 -0.40538
 N333 N 0.44623 0.13782 -0.40623
 C334 C 0.45174 0.12596 -0.27273
 C335 C 0.45639 0.11551 -0.23815
 C336 C 0.46314 0.10194 -0.20136
 N337 N 0.44967 0.09286 -0.15730
 N338 N 0.45487 0.07832 -0.12591
 C339 C 0.47361 0.07234 -0.13775
 N340 N 0.48713 0.08164 -0.18163
 N341 N 0.48199 0.09617 -0.21283
 N342 N 0.70763 0.54063 -0.31856
 C343 C 0.68510 0.54140 -0.31923
 N344 N 0.67640 0.54559 -0.36383
 N345 N 0.68974 0.54895 -0.40647
 C346 C 0.71234 0.54821 -0.40646
 N347 N 0.72103 0.54403 -0.36139
 C348 C 0.66980 0.53709 -0.27418
 C349 C 0.65506 0.53318 -0.23936
 C350 C 0.63537 0.52806 -0.20208
 N351 N 0.61041 0.50956 -0.21174
 N352 N 0.59128 0.50639 -0.18084
 C353 C 0.59638 0.52160 -0.13913
 N354 N 0.62146 0.53998 -0.12902
 N355 N 0.64066 0.54322 -0.16014
 N356 N 0.83977 0.28813 -0.31993
 C357 C 0.86120 0.31219 -0.32161
 N358 N 0.87134 0.32288 -0.36729
 N359 N 0.86032 0.31016 -0.41000
 C360 C 0.83864 0.28619 -0.40902
 N361 N 0.82874 0.27533 -0.36287
 C362 C 0.87226 0.32743 -0.27652
 C363 C 0.88266 0.34244 -0.24188
 C364 C 0.89624 0.36256 -0.20484
 N365 N 0.90187 0.38714 -0.21576
 N366 N 0.91650 0.40663 -0.18437
 C367 C 0.92603 0.40226 -0.14087
 N368 N 0.92018 0.37756 -0.12959
 N369 N 0.90555 0.35801 -0.16116
 N370 N 0.54483 -0.13301 -0.36578
 C371 C 0.53796 -0.14671 -0.32188
 N372 N 0.53464 -0.17105 -0.32139
 N373 N 0.53814 -0.18129 -0.36373
 C374 C 0.54497 -0.16760 -0.40800
 N375 N 0.54829 -0.14323 -0.40796
 C376 C 0.53350 -0.13551 -0.27745
 C377 C 0.52971 -0.12455 -0.24282
 C378 C 0.52505 -0.10983 -0.20530
 N379 N 0.54054 -0.10024 -0.16365
 N380 N 0.53789 -0.08405 -0.13224
 C381 C 0.51981 -0.07686 -0.14177
 N382 N 0.50423 -0.08670 -0.18320
 N383 N 0.50683 -0.10288 -0.21442
 N384 N 0.31854 0.44929 -0.36057
 C385 C 0.31152 0.45652 -0.31734
 N386 N 0.29077 0.46037 -0.31819
 N387 N 0.27745 0.45702 -0.36117
 C388 C 0.28453 0.44986 -0.40479
 N389 N 0.30528 0.44598 -0.40339
 C390 C 0.32700 0.46119 -0.27243
 C391 C 0.34179 0.46531 -0.23759
 C392 C 0.36146 0.47054 -0.20019
 N393 N 0.35633 0.45499 -0.15891
 N394 N 0.37560 0.45817 -0.12796
 C395 C 0.40058 0.47687 -0.13762
 N396 N 0.40553 0.49250 -0.17864
 N397 N 0.38632 0.48938 -0.20938
 N398 N 1.17025 0.70684 -0.32119
 C399 C 1.14706 0.68434 -0.32245
 N400 N 1.13440 0.67587 -0.36730
 N401 N 1.14450 0.68942 -0.40965
 C402 C 1.16773 0.71201 -0.40903
 N403 N 1.18037 0.72045 -0.36372
 C404 C 1.13589 0.66900 -0.27766
 C405 C 1.12489 0.65437 -0.24288
 C406 C 1.11006 0.63499 -0.20549
 N407 N 1.10273 0.60984 -0.21513
 N408 N 1.08639 0.59106 -0.18412
 C409 C 1.07676 0.59675 -0.14239
 N410 N 1.08435 0.62201 -0.13232
 N411 N 1.10069 0.64084 -0.16353
 N412 N 0.87750 0.56367 -0.36493
 C413 C 0.86445 0.55748 -0.32026
 N414 N 0.83995 0.55385 -0.31892
 N415 N 0.82876 0.55605 -0.36125
 C416 C 0.84164 0.56181 -0.40638
 N417 N 0.86632 0.56580 -0.40716
 C418 C 0.87559 0.55202 -0.27683
 C419 C 0.88576 0.54650 -0.24311
 C420 C 0.89889 0.53912 -0.20656
 N421 N 0.90782 0.55221 -0.16212
 N422 N 0.92196 0.54653 -0.13060
 C423 C 0.92765 0.52765 -0.14266
 N424 N 0.91849 0.51448 -0.18694
 N425 N 0.90435 0.52012 -0.21832
 N426 N 0.46496 0.29312 -0.31812
 C427 C 0.46401 0.31548 -0.31900
 N428 N 0.45959 0.32396 -0.36363
 N429 N 0.45616 0.31054 -0.40614
 C430 C 0.45706 0.28808 -0.40590
 N431 N 0.46150 0.27964 -0.36081
 C432 C 0.46813 0.33069 -0.27406
 C433 C 0.47169 0.34525 -0.23924
 C434 C 0.47609 0.36461 -0.20191
 N435 N 0.49388 0.38977 -0.21152
 N436 N 0.49607 0.40854 -0.18080
 C437 C 0.48053 0.40283 -0.13941
 N438 N 0.46290 0.37757 -0.12935
 N439 N 0.46065 0.35873 -0.16027
 N440 N 0.67757 0.13184 -0.36569
 C441 C 0.68451 0.14551 -0.32176
 N442 N 0.70563 0.16977 -0.32123
 N443 N 0.71940 0.17997 -0.36355
 C444 C 0.71244 0.16631 -0.40785
 N445 N 0.69129 0.14202 -0.40786
 C446 C 0.66883 0.13437 -0.27734
 C447 C 0.65406 0.12347 -0.24271
 C448 C 0.63466 0.10881 -0.20520
 N449 N 0.64049 0.09917 -0.16354
 N450 N 0.62163 0.08301 -0.13218
 C451 C 0.59637 0.07588 -0.14176
 N452 N 0.59069 0.08577 -0.18319
 N453 N 0.60951 0.10193 -0.21438
 N454 N 1.15670 0.44437 -0.32334
 C455 C 1.13517 0.44691 -0.32579
 N456 N 1.12511 0.44722 -0.37180
 N457 N 1.13635 0.44542 -0.41411
 C458 C 1.15814 0.44323 -0.41235
 N459 N 1.16793 0.44249 -0.36586
 C460 C 1.12399 0.45133 -0.28116
 C461 C 1.11360 0.45613 -0.24677
 C462 C 1.10016 0.46292 -0.20983
 N463 N 1.09401 0.48148 -0.22137
 N464 N 1.07973 0.48670 -0.18966
 C465 C 1.07109 0.47355 -0.14523
 N466 N 1.07745 0.45509 -0.13339
 N467 N 1.09173 0.44982 -0.16525
 N468 N 0.55031 0.71065 -0.32043
 C469 C 0.54763 0.68657 -0.32199
 N470 N 0.54701 0.67581 -0.36760
 N471 N 0.54868 0.68847 -0.41039
 C472 C 0.55103 0.71247 -0.40953
 N473 N 0.55206 0.72340 -0.36344
 C474 C 0.54347 0.67140 -0.27683
 C475 C 0.53890 0.65645 -0.24210
 C476 C 0.53241 0.63639 -0.20495
 N477 N 0.54613 0.64110 -0.16106
 N478 N 0.54129 0.62162 -0.12935
 C479 C 0.52267 0.59685 -0.14068
 N480 N 0.50888 0.59231 -0.18439
 N481 N 0.51367 0.61173 -0.21593
 N482 N 0.31549 -0.12279 -0.36123
 C483 C 0.30831 -0.13585 -0.31657
 N484 N 0.28775 -0.16046 -0.31581
 N485 N 0.27500 -0.17173 -0.35863
 C486 C 0.28247 -0.15883 -0.40372
 N487 N 0.30282 -0.13405 -0.40393
 C488 C 0.32442 -0.12459 -0.27251
 C489 C 0.33990 -0.11425 -0.23848
 C490 C 0.36040 -0.10095 -0.20192
 N491 N 0.38493 -0.09529 -0.21387
 N492 N 0.40470 -0.08114 -0.18257
 C493 C 0.40065 -0.07215 -0.13813
 N494 N 0.37600 -0.07803 -0.12584
 N495 N 0.35618 -0.09218 -0.15731
 N496 N 0.55255 -0.16216 0.31696
 C497 C 0.55728 -0.13731 0.31811
 N498 N 0.56354 -0.12437 0.36291
 N499 N 0.56467 -0.13596 0.40538
 C500 C 0.55957 -0.16097 0.40478
 N501 N 0.55375 -0.17376 0.35954
 C502 C 0.55269 -0.12566 0.27435
 C503 C 0.54776 -0.11505 0.24051
 C504 C 0.54080 -0.10148 0.20412
 N505 N 0.52215 -0.09553 0.21622
 N506 N 0.51670 -0.08123 0.18497
 C507 C 0.52968 -0.07239 0.14042
 N508 N 0.54823 -0.07856 0.12799
 N509 N 0.55374 -0.09286 0.15941
 N510 N 0.31327 0.43480 0.36707
 C511 C 0.30665 0.44089 0.32194
 N512 N 0.28598 0.44485 0.31984
 N513 N 0.27257 0.44305 0.36183
 C514 C 0.27944 0.43738 0.40741
 N515 N 0.29993 0.43307 0.40895
 C516 C 0.32328 0.44585 0.27871
 C517 C 0.33895 0.45098 0.24513
 C518 C 0.35943 0.45801 0.20864
 N519 N 0.38405 0.47661 0.22065
 N520 N 0.40369 0.48218 0.18904
 C521 C 0.39941 0.46938 0.14425
 N522 N 0.37468 0.45087 0.13197
 N523 N 0.35499 0.44525 0.16371
 N524 N 1.12526 0.68518 0.36308
 C525 C 1.13839 0.69225 0.31851
 N526 N 1.16299 0.71291 0.31767
 N527 N 1.17415 0.72587 0.36036
 C528 C 1.16117 0.71852 0.40537
 N529 N 1.13642 0.69806 0.40563
 C530 C 1.12715 0.67609 0.27457
 C531 C 1.11677 0.66067 0.24055
 C532 C 1.10335 0.64036 0.20380
 N533 N 1.09448 0.64481 0.15945
 N534 N 1.08013 0.62519 0.12783
 C535 C 1.07415 0.60052 0.13969
 N536 N 1.08324 0.59623 0.18387
 N537 N 1.09758 0.61580 0.21534
 N538 N 0.46710 0.17024 0.32182
 C539 C 0.46549 0.14662 0.32222
 N540 N 0.46009 0.13320 0.36635
 N541 N 0.45638 0.14300 0.40885
 C542 C 0.45797 0.16665 0.40900
 N543 N 0.46335 0.18006 0.36450
 C544 C 0.47004 0.13579 0.27738
 C545 C 0.47389 0.12498 0.24257
 C546 C 0.47855 0.11027 0.20510
 N547 N 0.49678 0.10332 0.21432
 N548 N 0.49921 0.08692 0.18346
 C549 C 0.48345 0.07683 0.14235
 N550 N 0.46538 0.08403 0.13269
 N551 N 0.46290 0.10043 0.16373
 N552 N 0.68295 0.56170 0.36619
 C553 C 0.69011 0.55586 0.32149
 N554 N 0.71126 0.55267 0.32022
 N555 N 0.72462 0.55497 0.36264
 C556 C 0.71721 0.56038 0.40779
 N557 N 0.69623 0.56392 0.40850
 C558 C 0.67359 0.55030 0.27792
 C559 C 0.65794 0.54469 0.24408
 C560 C 0.63749 0.53719 0.20737
 N561 N 0.61304 0.51813 0.21908
 N562 N 0.59330 0.51236 0.18752
 C563 C 0.59733 0.52543 0.14311
 N564 N 0.62189 0.54436 0.13111
 N565 N 0.64167 0.55018 0.16280
 N566 N 0.86456 0.32800 0.36267
 C567 C 0.85213 0.31870 0.31785
 N568 N 0.82953 0.29559 0.31696
 N569 N 0.81976 0.28220 0.35985
 C570 C 0.83221 0.29150 0.40502
 N571 N 0.85481 0.31466 0.40536
 C572 C 0.86306 0.33375 0.27269
 C573 C 0.87407 0.34829 0.23783
 C574 C 0.88909 0.36770 0.20066
 N575 N 0.89876 0.36188 0.15910
 N576 N 0.91551 0.38077 0.12846
 C577 C 0.92323 0.40603 0.13876
 N578 N 0.91331 0.41169 0.18006
 N579 N 0.89656 0.39286 0.21049
   
