data_POSCAR
  _audit_creation_date              2014-09-24
  _audit_creation_method            'ToBaCCo'
  _symmetry_space_group_name_H-M    'P1'
  _symmetry_Int_Tables_number       1
  _symmetry_cell_setting            triclinic
  loop_
  _symmetry_equiv_pos_as_xyz
 x,y,z
_cell_length_a 54.7280
_cell_length_b 54.7261
_cell_length_c 54.7562
_cell_angle_alpha 90.012600
_cell_angle_beta 90.013600
_cell_angle_gamma 90.014100
loop_
  _atom_site_label
  _atom_site_type_symbol
  _atom_site_fract_x
  _atom_site_fract_y
  _atom_site_fract_z
O1 O 0.35783 0.32489 -0.02416
 O2 O 0.32432 0.35832 0.02347
 O3 O 0.35803 0.32476 0.02325
 O4 O 0.32418 0.35855 -0.02392
 O5 O 0.29567 0.33012 -0.02401
 O6 O 0.32962 0.29617 0.02327
 O7 O 0.29579 0.32985 0.02349
 O8 O 0.32940 0.29632 -0.02423
 Cu9 Cu 0.34393 0.34448 -0.00034
 Cu10 Cu 0.30976 0.31025 -0.00038
 C11 C 0.34947 0.30480 -0.03225
 C12 C 0.30424 0.34993 0.03155
 C13 C 0.34973 0.30461 0.03125
 C14 C 0.30402 0.35030 -0.03198
 O15 O 0.67572 0.64171 0.02341
 O16 O 0.64222 0.67519 -0.02421
 O17 O 0.67580 0.64146 -0.02399
 O18 O 0.64207 0.67535 0.02319
 O19 O 0.67054 0.70388 0.02320
 O20 O 0.70437 0.66983 -0.02410
 O21 O 0.67070 0.70370 -0.02430
 O22 O 0.70430 0.67013 0.02340
 Cu23 Cu 0.65611 0.65559 -0.00040
 Cu24 Cu 0.69034 0.68974 -0.00046
 C25 C 0.69581 0.65008 0.03146
 C26 C 0.65061 0.69526 -0.03231
 C27 C 0.69597 0.64967 -0.03206
 C28 C 0.65041 0.69548 0.03119
 O29 O 0.67569 0.35836 0.97660
 O30 O 0.64215 0.32486 1.02417
 O31 O 0.67575 0.35856 1.02400
 O32 O 0.64200 0.32477 0.97676
 O33 O 0.67042 0.29621 0.97674
 O34 O 0.70429 0.33017 1.02409
 O35 O 0.67059 0.29632 1.02424
 O36 O 0.70423 0.32992 0.97659
 Cu37 Cu 0.65605 0.34448 1.00038
 Cu38 Cu 0.69025 0.31029 1.00042
 C39 C 0.69578 0.34998 0.96854
 C40 C 0.65051 0.30478 1.03225
 C41 C 0.69591 0.35032 1.03207
 C42 C 0.65032 0.30464 0.96874
 O43 O 0.35803 0.67505 1.02428
 O44 O 0.32443 0.64150 0.97674
 O45 O 0.35813 0.67511 0.97687
 O46 O 0.32442 0.64134 1.02415
 O47 O 0.29588 0.66973 1.02424
 O48 O 0.32970 0.70366 0.97686
 O49 O 0.29589 0.66994 0.97674
 O50 O 0.32958 0.70358 1.02437
 Cu51 Cu 0.34409 0.65541 1.00051
 Cu52 Cu 0.30990 0.68959 1.00056
 C53 C 0.34968 0.69514 1.03235
 C54 C 0.30433 0.64987 0.96870
 C55 C 0.34981 0.69524 0.96886
 C56 C 0.30426 0.64957 1.03222
 O57 O -0.02408 0.35784 0.32462
 O58 O 0.02360 0.32447 0.35815
 O59 O 0.02335 0.35815 0.32454
 O60 O -0.02383 0.32423 0.35829
 O61 O -0.02381 0.29568 0.32990
 O62 O 0.02348 0.32970 0.29601
 O63 O 0.02372 0.29591 0.32972
 O64 O -0.02405 0.32938 0.29609
 Cu65 Cu -0.00025 0.34401 0.34424
 Cu66 Cu -0.00016 0.30981 0.31007
 C67 C -0.03213 0.34944 0.30455
 C68 C 0.03172 0.30440 0.34979
 C69 C 0.03140 0.34985 0.30443
 C70 C -0.03184 0.30404 0.35004
 O71 O 0.02369 0.67529 0.64176
 O72 O -0.02403 0.64198 0.67529
 O73 O -0.02373 0.67552 0.64156
 O74 O 0.02340 0.64166 0.67542
 O75 O 0.02353 0.67016 0.70390
 O76 O -0.02371 0.70412 0.66989
 O77 O -0.02400 0.67049 0.70377
 O78 O 0.02381 0.70390 0.67013
 Cu79 Cu -0.00018 0.65576 0.65567
 Cu80 Cu -0.00009 0.69003 0.68978
 C81 C 0.03181 0.69537 0.65008
 C82 C -0.03209 0.65042 0.69534
 C83 C -0.03174 0.69572 0.64976
 C84 C 0.03144 0.65000 0.69553
 O85 O 1.02399 0.64207 0.32462
 O86 O 0.97639 0.67548 0.35820
 O87 O 0.97656 0.64183 0.32456
 O88 O 1.02381 0.67562 0.35834
 O89 O 1.02381 0.70420 0.33000
 O90 O 0.97646 0.67030 0.29606
 O91 O 0.97629 0.70407 0.32981
 O92 O 1.02399 0.67056 0.29614
 Cu93 Cu 1.00019 0.65590 0.34427
 Cu94 Cu 1.00013 0.69014 0.31015
 C95 C 1.03205 0.65048 0.30456
 C96 C 0.96829 0.69557 0.34987
 C97 C 0.96851 0.65015 0.30446
 C98 C 1.03184 0.69581 0.35012
 O99 O 0.97615 0.32456 0.64150
 O100 O 1.02377 0.35795 0.67516
 O101 O 1.02357 0.32440 0.64142
 O102 O 0.97633 0.35821 0.67517
 O103 O 0.97619 0.32973 0.70365
 O104 O 1.02353 0.29581 0.66975
 O105 O 1.02372 0.32945 0.70363
 O106 O 0.97601 0.29597 0.66988
 Cu107 Cu 0.99996 0.34413 0.65548
 Cu108 Cu 0.99985 0.30988 0.68958
 C109 C 0.96803 0.30447 0.64981
 C110 C 1.03180 0.34953 0.69523
 C111 C 1.03158 0.30421 0.64964
 C112 C 0.96827 0.34988 0.69526
 O113 O 0.35796 0.02401 0.32461
 O114 O 0.32446 -0.02366 0.35804
 O115 O 0.35817 -0.02342 0.32449
 O116 O 0.32437 0.02377 0.35830
 O117 O 0.29581 0.02383 0.32989
 O118 O 0.32975 -0.02346 0.29593
 O119 O 0.29592 -0.02370 0.32959
 O120 O 0.32951 0.02407 0.29608
 Cu121 Cu 0.34409 0.00017 0.34421
 Cu122 Cu 0.30988 0.00019 0.31001
 C123 C 0.34958 0.03210 0.30454
 C124 C 0.30438 -0.03175 0.34965
 C125 C 0.34987 -0.03143 0.30435
 C126 C 0.30423 0.03178 0.35001
 O127 O 0.64202 0.02396 0.67539
 O128 O 0.67558 -0.02370 0.64199
 O129 O 0.64185 -0.02347 0.67553
 O130 O 0.67560 0.02373 0.64169
 O131 O 0.70417 0.02387 0.67010
 O132 O 0.67027 -0.02343 0.70410
 O133 O 0.70411 -0.02365 0.67044
 O134 O 0.67047 0.02410 0.70392
 Cu135 Cu 0.65592 0.00012 0.65580
 Cu136 Cu 0.69012 0.00023 0.69000
 C137 C 0.65039 0.03209 0.69545
 C138 C 0.69566 -0.03174 0.65039
 C139 C 0.65016 -0.03144 0.69568
 C140 C 0.69573 0.03179 0.64997
 O141 O 0.35779 0.97606 0.67563
 O142 O 0.32419 1.02359 0.64211
 O143 O 0.35791 1.02349 0.67565
 O144 O 0.32422 0.97616 0.64192
 O145 O 0.29564 0.97608 0.67032
 O146 O 0.32950 1.02351 0.70421
 O147 O 0.29566 1.02361 0.67055
 O148 O 0.32934 0.97598 0.70415
 Cu149 Cu 0.34387 0.99983 0.65598
 Cu150 Cu 0.30967 0.99978 0.69017
 C151 C 0.34943 0.96798 0.69570
 C152 C 0.30410 1.03165 0.65048
 C153 C 0.34960 1.03152 0.69577
 C154 C 0.30409 0.96811 0.65021
 O155 O 0.64223 0.97644 0.32475
 O156 O 0.67584 1.02394 0.35836
 O157 O 0.64211 1.02387 0.32479
 O158 O 0.67580 0.97651 0.35848
 O159 O 0.70438 0.97648 0.33009
 O160 O 0.67053 1.02393 0.29625
 O161 O 0.70435 1.02400 0.32996
 O162 O 0.67069 0.97640 0.29624
 Cu163 Cu 0.65615 1.00019 0.34443
 Cu164 Cu 0.69035 1.00021 0.31028
 C165 C 0.65060 0.96838 0.30466
 C166 C 0.69597 1.03205 0.35007
 C167 C 0.65042 1.03191 0.30468
 C168 C 0.69593 0.96848 0.35018
 O169 O 0.85590 0.82184 0.47674
 O170 O 0.82232 0.85542 0.52433
 O171 O 0.85608 0.82174 0.52416
 O172 O 0.82226 0.85561 0.47691
 O173 O 0.79364 0.82706 0.47686
 O174 O 0.82753 0.79314 0.52417
 O175 O 0.79372 0.82686 0.52433
 O176 O 0.82733 0.79325 0.47669
 Cu177 Cu 0.84202 0.84153 0.50054
 Cu178 Cu 0.80767 0.80719 0.50051
 C179 C 0.84737 0.80180 0.46880
 C180 C 0.80227 0.84691 0.53223
 C181 C 0.84762 0.80165 0.53202
 C182 C 0.80217 0.84715 0.46902
 O183 O 0.14406 0.17814 0.47666
 O184 O 0.17758 0.14451 0.52426
 O185 O 0.14383 0.17821 0.52408
 O186 O 0.17770 0.14437 0.47684
 O187 O 0.20632 0.17290 0.47687
 O188 O 0.17240 0.20680 0.52417
 O189 O 0.20619 0.17306 0.52434
 O190 O 0.17264 0.20672 0.47669
 Cu191 Cu 0.15791 0.15843 0.50046
 Cu192 Cu 0.19228 0.19276 0.50053
 C193 C 0.15261 0.19818 0.46875
 C194 C 0.19763 0.15301 0.53221
 C195 C 0.15229 0.19829 0.53198
 C196 C 0.19780 0.15283 0.46899
 O197 O 0.17789 0.85528 0.47578
 O198 O 0.14427 0.82159 0.52326
 O199 O 0.17791 0.85537 0.52320
 O200 O 0.14413 0.82159 0.47584
 O201 O 0.17269 0.79301 0.47579
 O202 O 0.20653 0.82684 0.52321
 O203 O 0.17285 0.79302 0.52326
 O204 O 0.20649 0.82674 0.47573
 Cu205 Cu 0.15817 0.84134 0.49952
 Cu206 Cu 0.19253 0.80702 0.49949
 C207 C 0.19795 0.84680 0.46787
 C208 C 0.15280 0.80154 0.53117
 C209 C 0.19799 0.84690 0.53109
 C210 C 0.15260 0.80152 0.46794
 O211 O 0.82209 0.14426 0.47540
 O212 O 0.85572 0.17799 0.52288
 O213 O 0.82207 0.14421 0.52282
 O214 O 0.85587 0.17796 0.47546
 O215 O 0.82731 0.20654 0.47539
 O216 O 0.79346 0.17274 0.52280
 O217 O 0.82715 0.20657 0.52286
 O218 O 0.79350 0.17280 0.47532
 Cu219 Cu 0.84182 0.15823 0.49914
 Cu220 Cu 0.80747 0.19255 0.49908
 C221 C 0.80203 0.15273 0.46748
 C222 C 0.84720 0.19805 0.53077
 C223 C 0.80199 0.15268 0.53069
 C224 C 0.84741 0.19803 0.46756
 O225 O 0.47607 0.85546 0.82217
 O226 O 0.52371 0.82183 0.85566
 O227 O 0.52351 0.85564 0.82207
 O228 O 0.47626 0.82176 0.85589
 O229 O 0.47620 0.79318 0.82733
 O230 O 0.52350 0.82713 0.79345
 O231 O 0.52370 0.79328 0.82707
 O232 O 0.47601 0.82692 0.79356
 Cu233 Cu 0.49989 0.84155 0.84183
 Cu234 Cu 0.49984 0.80724 0.80747
 C235 C 0.46812 0.84696 0.80213
 C236 C 0.53163 0.80180 0.84711
 C237 C 0.53137 0.84720 0.80198
 C238 C 0.46837 0.80168 0.84743
 O239 O 0.52378 0.17827 0.14459
 O240 O 0.47617 0.14467 0.17815
 O241 O 0.47633 0.17829 0.14435
 O242 O 0.52362 0.14455 0.17827
 O243 O 0.52360 0.17314 0.20682
 O244 O 0.47625 0.20694 0.17284
 O245 O 0.47610 0.17328 0.20669
 O246 O 0.52375 0.20690 0.17310
 Cu247 Cu 0.49998 0.15856 0.15846
 Cu248 Cu 0.49992 0.19295 0.19275
 C249 C 0.53168 0.19834 0.15309
 C250 C 0.46822 0.15321 0.19816
 C251 C 0.46843 0.19839 0.15277
 C252 C 0.53148 0.15305 0.19834
 O253 O 0.52383 0.14467 0.82189
 O254 O 0.47630 0.17832 0.85551
 O255 O 0.47639 0.14454 0.82188
 O256 O 0.52374 0.17833 0.85566
 O257 O 0.52378 0.20693 0.82713
 O258 O 0.47636 0.17307 0.79329
 O259 O 0.47628 0.20690 0.82696
 O260 O 0.52386 0.17323 0.79332
 Cu261 Cu 0.50007 0.15859 0.84161
 Cu262 Cu 0.50007 0.19292 0.80729
 C263 C 0.53175 0.15317 0.80185
 C264 C 0.46838 0.19836 0.84699
 C265 C 0.46849 0.15300 0.80182
 C266 C 0.53164 0.19841 0.84720
 O267 O 0.47655 0.82202 0.14435
 O268 O 0.52411 0.85576 0.17790
 O269 O 0.52400 0.82206 0.14416
 O270 O 0.47666 0.85583 0.17796
 O271 O 0.47670 0.82732 0.20657
 O272 O 0.52409 0.79348 0.17271
 O273 O 0.52419 0.82723 0.20649
 O274 O 0.47659 0.79347 0.17292
 Cu275 Cu 0.50033 0.84180 0.15821
 Cu276 Cu 0.50040 0.80749 0.19256
 C277 C 0.46866 0.80197 0.15288
 C278 C 0.53205 0.84729 0.19795
 C279 C 0.53192 0.80199 0.15262
 C280 C 0.46880 0.84738 0.19804
 O281 O 0.85542 0.52409 0.82194
 O282 O 0.82200 0.47643 0.85560
 O283 O 0.85567 0.47664 0.82187
 O284 O 0.82184 0.52388 0.85576
 O285 O 0.79316 0.52384 0.82730
 O286 O 0.82705 0.47654 0.79335
 O287 O 0.79334 0.47634 0.82712
 O288 O 0.82679 0.52405 0.79343
 Cu289 Cu 0.84162 0.50026 0.84166
 Cu290 Cu 0.80719 0.50019 0.80742
 C291 C 0.84685 0.53199 0.80193
 C292 C 0.80194 0.46847 0.84714
 C293 C 0.84717 0.46873 0.80181
 C294 C 0.80171 0.53171 0.84735
 O295 O 0.14454 0.52408 0.17798
 O296 O 0.17800 0.47641 0.14437
 O297 O 0.14425 0.47663 0.17803
 O298 O 0.17820 0.52386 0.14423
 O299 O 0.20682 0.52381 0.17276
 O300 O 0.17281 0.47653 0.20661
 O301 O 0.20660 0.47631 0.17291
 O302 O 0.17312 0.52403 0.20655
 Cu303 Cu 0.15837 0.50025 0.15828
 Cu304 Cu 0.19272 0.50016 0.19259
 C305 C 0.15309 0.53198 0.19802
 C306 C 0.19803 0.46844 0.15287
 C307 C 0.15270 0.46872 0.19810
 C308 C 0.19832 0.53169 0.15268
 O309 O 0.82198 0.52354 0.14434
 O310 O 0.85545 0.47593 0.17801
 O311 O 0.82183 0.47609 0.14422
 O312 O 0.85570 0.52338 0.17804
 O313 O 0.82712 0.52348 0.20658
 O314 O 0.79319 0.47614 0.17271
 O315 O 0.82686 0.47598 0.20654
 O316 O 0.79336 0.52364 0.17284
 Cu317 Cu 0.84162 0.49973 0.15828
 Cu318 Cu 0.80724 0.49982 0.19255
 C319 C 0.80194 0.53150 0.15281
 C320 C 0.84690 0.46804 0.19804
 C321 C 0.80172 0.46825 0.15266
 C322 C 0.84722 0.53130 0.19809
 O323 O 0.17779 0.52340 0.85589
 O324 O 0.14426 0.47581 0.82218
 O325 O 0.17790 0.47595 0.85597
 O326 O 0.14407 0.52326 0.82218
 O327 O 0.17265 0.52336 0.79363
 O328 O 0.20654 0.47599 0.82749
 O329 O 0.17286 0.47586 0.79364
 O330 O 0.20641 0.52349 0.82739
 Cu331 Cu 0.15812 0.49960 0.84193
 Cu332 Cu 0.19250 0.49968 0.80766
 C333 C 0.19784 0.53135 0.84742
 C334 C 0.15281 0.46793 0.80214
 C335 C 0.19801 0.46811 0.84754
 C336 C 0.15254 0.53118 0.80212
 C337 C 0.28614 0.40000 0.07576
 C338 C 0.26322 0.39185 0.08362
 C339 C 0.25402 0.36956 0.07507
 C340 C 0.26755 0.35564 0.05845
 C341 C 0.29044 0.36391 0.05013
 C342 C 0.29968 0.38615 0.05915
 C343 C 0.24883 0.40692 0.09962
 C344 C 0.23691 0.42015 0.11257
 C345 C 0.22314 0.43631 0.12717
 C346 C 0.21156 0.45067 0.13918
 H347 H 0.29340 0.41726 0.08221
 H348 H 0.23626 0.36312 0.08099
 H349 H 0.25992 0.33862 0.05184
 H350 H 0.31722 0.39303 0.05313
 C351 C 0.74603 0.63037 0.07497
 C352 C 0.73680 0.60811 0.08353
 C353 C 0.71386 0.59999 0.07568
 C354 C 0.70034 0.61386 0.05907
 C355 C 0.70961 0.63608 0.05004
 C356 C 0.73252 0.64431 0.05835
 C357 C 0.75118 0.59302 0.09953
 C358 C 0.76309 0.57978 0.11248
 C359 C 0.77685 0.56362 0.12709
 C360 C 0.78842 0.54926 0.13910
 H361 H 0.76381 0.63678 0.08088
 H362 H 0.70658 0.58275 0.08214
 H363 H 0.68277 0.60701 0.05306
 H364 H 0.74018 0.66131 0.05174
 C365 C 0.71388 0.40007 0.92435
 C366 C 0.73679 0.39192 0.91649
 C367 C 0.74599 0.36965 0.92502
 C368 C 0.73247 0.35572 0.94165
 C369 C 0.70959 0.36398 0.94998
 C370 C 0.70035 0.38621 0.94096
 C371 C 0.75118 0.40699 0.90046
 C372 C 0.76309 0.42021 0.88750
 C373 C 0.77685 0.43636 0.87288
 C374 C 0.78842 0.45071 0.86086
 H375 H 0.70662 0.41732 0.91790
 H376 H 0.76375 0.36321 0.91910
 H377 H 0.74010 0.33870 0.94825
 H378 H 0.68280 0.39309 0.94699
 C379 C 0.28611 0.59970 0.92460
 C380 C 0.26319 0.60785 0.91674
 C381 C 0.25402 0.63015 0.92526
 C382 C 0.26758 0.64410 0.94185
 C383 C 0.29048 0.63585 0.95016
 C384 C 0.29968 0.61359 0.94117
 C385 C 0.24877 0.59277 0.90075
 C386 C 0.23682 0.57955 0.88781
 C387 C 0.22301 0.56342 0.87318
 C388 C 0.21140 0.54908 0.86116
 H389 H 0.29335 0.58243 0.91817
 H390 H 0.23626 0.63660 0.91935
 H391 H 0.25998 0.66114 0.94843
 H392 H 0.31723 0.60671 0.94719
 C393 C 0.07522 0.25421 0.36963
 C394 C 0.08369 0.26344 0.39192
 C395 C 0.07581 0.28638 0.40000
 C396 C 0.05924 0.29990 0.38608
 C397 C 0.05028 0.29062 0.36384
 C398 C 0.05864 0.26772 0.35564
 C399 C 0.09962 0.24905 0.40708
 C400 C 0.11250 0.23713 0.42036
 C401 C 0.12703 0.22335 0.43658
 C402 C 0.13898 0.21175 0.45098
 H403 H 0.08115 0.23644 0.36324
 H404 H 0.08220 0.29366 0.41726
 H405 H 0.05320 0.31745 0.39291
 H406 H 0.05208 0.26007 0.33861
 C407 C 0.07592 0.71333 0.59987
 C408 C 0.08381 0.73627 0.60793
 C409 C 0.07534 0.74553 0.63021
 C410 C 0.05876 0.73204 0.64421
 C411 C 0.05039 0.70912 0.63603
 C412 C 0.05935 0.69983 0.61381
 C413 C 0.09975 0.75065 0.59277
 C414 C 0.11264 0.76257 0.57949
 C415 C 0.12719 0.77635 0.56329
 C416 C 0.13914 0.78796 0.54891
 H417 H 0.08231 0.70603 0.58262
 H418 H 0.08128 0.76331 0.63658
 H419 H 0.05220 0.73971 0.66122
 H420 H 0.05329 0.68226 0.60699
 C421 C 0.92423 0.71362 0.40009
 C422 C 0.91636 0.73655 0.39202
 C423 C 0.92483 0.74578 0.36974
 C424 C 0.94140 0.73226 0.35574
 C425 C 0.94974 0.70936 0.36393
 C426 C 0.94079 0.70009 0.38616
 C427 C 0.90042 0.75094 0.40717
 C428 C 0.88753 0.76287 0.42044
 C429 C 0.87299 0.77665 0.43665
 C430 C 0.86103 0.78824 0.45103
 H431 H 0.91784 0.70633 0.41735
 H432 H 0.91891 0.76355 0.36335
 H433 H 0.94795 0.73992 0.33872
 H434 H 0.94683 0.68253 0.39299
 C435 C 0.92460 0.25424 0.62985
 C436 C 0.91617 0.26346 0.60754
 C437 C 0.92407 0.28639 0.59948
 C438 C 0.94060 0.29993 0.61345
 C439 C 0.94951 0.29068 0.63571
 C440 C 0.94114 0.26777 0.64389
 C441 C 0.90025 0.24905 0.59236
 C442 C 0.88738 0.23711 0.57908
 C443 C 0.87283 0.22329 0.56288
 C444 C 0.86087 0.21166 0.54851
 H445 H 0.91865 0.23647 0.63623
 H446 H 0.91771 0.29367 0.58220
 H447 H 0.94666 0.31749 0.60663
 H448 H 0.94765 0.26013 0.66092
 C449 C 0.36930 0.07560 0.25434
 C450 C 0.39161 0.08410 0.26352
 C451 C 0.39975 0.07623 0.28642
 C452 C 0.38586 0.05965 0.29997
 C453 C 0.36360 0.05067 0.29075
 C454 C 0.35534 0.05901 0.26787
 C455 C 0.40672 0.10007 0.24911
 C456 C 0.41996 0.11298 0.23716
 C457 C 0.43612 0.12755 0.22335
 C458 C 0.45048 0.13953 0.21174
 H459 H 0.36287 0.08152 0.23659
 H460 H 0.41703 0.08265 0.29367
 H461 H 0.39274 0.05362 0.31750
 H462 H 0.33830 0.05244 0.26025
 C463 C 0.60016 0.07614 0.71357
 C464 C 0.60831 0.08405 0.73646
 C465 C 0.63064 0.07562 0.74563
 C466 C 0.64461 0.05904 0.73210
 C467 C 0.63635 0.05065 0.70924
 C468 C 0.61407 0.05957 0.70003
 C469 C 0.59319 0.10001 0.75087
 C470 C 0.57996 0.11292 0.76282
 C471 C 0.56381 0.12750 0.77664
 C472 C 0.54947 0.13948 0.78827
 H473 H 0.58287 0.08251 0.70633
 H474 H 0.63708 0.08158 0.76337
 H475 H 0.66167 0.05251 0.73971
 H476 H 0.60719 0.05349 0.68250
 C477 C 0.36919 0.92454 0.74595
 C478 C 0.39151 0.91608 0.73680
 C479 C 0.39966 0.92396 0.71390
 C480 C 0.38575 0.94051 0.70034
 C481 C 0.36347 0.94946 0.70953
 C482 C 0.35522 0.94111 0.73240
 C483 C 0.40662 0.90012 0.75122
 C484 C 0.41985 0.88722 0.76317
 C485 C 0.43601 0.87264 0.77697
 C486 C 0.45037 0.86065 0.78858
 H487 H 0.36275 0.91861 0.76369
 H488 H 0.41694 0.91757 0.70667
 H489 H 0.39263 0.94656 0.68280
 H490 H 0.33816 0.94765 0.74000
 C491 C 0.60036 0.92438 0.28634
 C492 C 0.60852 0.91653 0.26344
 C493 C 0.63086 0.92500 0.25432
 C494 C 0.64483 0.94155 0.26791
 C495 C 0.63655 0.94987 0.29079
 C496 C 0.61426 0.94092 0.29994
 C497 C 0.59343 0.90057 0.24898
 C498 C 0.58021 0.88765 0.23700
 C499 C 0.56409 0.87304 0.22316
 C500 C 0.54976 0.86102 0.21153
 H501 H 0.58306 0.91799 0.29354
 H502 H 0.63732 0.91908 0.23658
 H503 H 0.66189 0.94810 0.26034
 H504 H 0.60737 0.94695 0.31748
 C505 C 0.36930 0.25453 0.92436
 C506 C 0.39160 0.26374 0.91588
 C507 C 0.39969 0.28669 0.92371
 C508 C 0.38576 0.30025 0.94024
 C509 C 0.36351 0.29099 0.94921
 C510 C 0.35531 0.26807 0.94090
 C511 C 0.40676 0.24932 0.89997
 C512 C 0.42004 0.23737 0.88711
 C513 C 0.43624 0.22356 0.87259
 C514 C 0.45062 0.21194 0.86065
 H515 H 0.36291 0.23674 0.91846
 H516 H 0.41695 0.29397 0.91731
 H517 H 0.39259 0.31782 0.94625
 H518 H 0.33828 0.26043 0.94747
 C519 C 0.63081 0.74555 0.92433
 C520 C 0.60849 0.73637 0.91586
 C521 C 0.60038 0.71343 0.92368
 C522 C 0.61431 0.69985 0.94020
 C523 C 0.63658 0.70908 0.94916
 C524 C 0.64480 0.73199 0.94086
 C525 C 0.59333 0.75082 0.89997
 C526 C 0.58004 0.76278 0.88713
 C527 C 0.56382 0.77660 0.87264
 C528 C 0.54942 0.78823 0.86072
 H529 H 0.63722 0.76333 0.91844
 H530 H 0.58310 0.70618 0.91729
 H531 H 0.60745 0.68229 0.94621
 H532 H 0.66185 0.73961 0.94742
 C533 C 0.40001 0.71342 0.07625
 C534 C 0.39190 0.73636 0.08408
 C535 C 0.36956 0.74551 0.07565
 C536 C 0.35554 0.73191 0.05915
 C537 C 0.36376 0.70900 0.05084
 C538 C 0.38605 0.69981 0.05976
 C539 C 0.40707 0.75083 0.09996
 C540 C 0.42035 0.76282 0.11280
 C541 C 0.43654 0.77669 0.12730
 C542 C 0.45092 0.78835 0.13923
 H543 H 0.41730 0.70619 0.08262
 H544 H 0.36315 0.76328 0.08154
 H545 H 0.33848 0.73951 0.05262
 H546 H 0.39290 0.68225 0.05375
 C547 C 0.63072 0.25451 0.07566
 C548 C 0.60842 0.26370 0.08413
 C549 C 0.60030 0.28663 0.07629
 C550 C 0.61422 0.30019 0.05974
 C551 C 0.63647 0.29096 0.05078
 C552 C 0.64470 0.26806 0.05910
 C553 C 0.59328 0.24928 0.10006
 C554 C 0.58002 0.23733 0.11294
 C555 C 0.56383 0.22352 0.12748
 C556 C 0.54945 0.21191 0.13944
 H557 H 0.63713 0.23674 0.08156
 H558 H 0.58303 0.29388 0.08269
 H559 H 0.60736 0.31774 0.05372
 H560 H 0.66174 0.26043 0.05254
 C561 C 0.25384 0.07516 0.63087
 C562 C 0.26300 0.08368 0.60858
 C563 C 0.28589 0.07581 0.60041
 C564 C 0.29946 0.05920 0.61425
 C565 C 0.29026 0.05020 0.63649
 C566 C 0.26739 0.05854 0.64478
 C567 C 0.24858 0.09970 0.59354
 C568 C 0.23663 0.11266 0.58035
 C569 C 0.22281 0.12728 0.56424
 C570 C 0.21120 0.13930 0.54992
 H571 H 0.23609 0.08108 0.63733
 H572 H 0.29312 0.08225 0.58314
 H573 H 0.31699 0.05317 0.60735
 H574 H 0.25979 0.05196 0.66181
 C575 C 0.71379 0.07503 0.39973
 C576 C 0.73646 0.08325 0.39131
 C577 C 0.74538 0.07507 0.36881
 C578 C 0.73183 0.05844 0.35491
 C579 C 0.70913 0.04964 0.36339
 C580 C 0.70019 0.05841 0.38592
 C581 C 0.75092 0.09929 0.40632
 C582 C 0.76290 0.11227 0.41947
 C583 C 0.77676 0.12693 0.43553
 C584 C 0.78842 0.13898 0.44981
 H585 H 0.70674 0.08122 0.41715
 H586 H 0.76295 0.08129 0.36216
 H587 H 0.73936 0.05224 0.33770
 H588 H 0.68283 0.05221 0.39312
 C589 C 0.71388 0.92401 0.60038
 C590 C 0.73679 0.91617 0.60857
 C591 C 0.74594 0.92474 0.63085
 C592 C 0.73238 0.94136 0.64474
 C593 C 0.70950 0.94967 0.63644
 C594 C 0.70030 0.94063 0.61420
 C595 C 0.75123 0.90016 0.59354
 C596 C 0.76320 0.88722 0.58036
 C597 C 0.77703 0.87261 0.56426
 C598 C 0.78867 0.86060 0.54994
 H599 H 0.70665 0.91754 0.58313
 H600 H 0.76370 0.91884 0.63732
 H601 H 0.73998 0.94798 0.66176
 H602 H 0.68276 0.94663 0.60730
 C603 C 0.28624 0.92403 0.39970
 C604 C 0.26334 0.91615 0.39153
 C605 C 0.25416 0.92467 0.36924
 C606 C 0.26770 0.94131 0.35534
 C607 C 0.29057 0.94966 0.36362
 C608 C 0.29979 0.94065 0.38586
 C609 C 0.24892 0.90013 0.40658
 C610 C 0.23698 0.88717 0.41976
 C611 C 0.22316 0.87254 0.43587
 C612 C 0.21154 0.86052 0.45018
 H613 H 0.29348 0.91760 0.41696
 H614 H 0.23641 0.91874 0.36278
 H615 H 0.26008 0.94789 0.33831
 H616 H 0.31732 0.94670 0.39276
 C617 C 0.07520 0.36913 0.74561
 C618 C 0.08376 0.39144 0.73649
 C619 C 0.07596 0.39962 0.71358
 C620 C 0.05939 0.38577 0.69996
 C621 C 0.05035 0.36350 0.70912
 C622 C 0.05863 0.35521 0.73200
 C623 C 0.09971 0.40651 0.75097
 C624 C 0.11261 0.41972 0.76297
 C625 C 0.12718 0.43586 0.77684
 C626 C 0.13915 0.45020 0.78851
 H627 H 0.08107 0.36266 0.76337
 H628 H 0.08242 0.41689 0.70638
 H629 H 0.05341 0.39267 0.68242
 H630 H 0.05201 0.33817 0.73957
 C631 C 0.07624 0.60041 0.28635
 C632 C 0.08407 0.60858 0.26344
 C633 C 0.07552 0.63087 0.25428
 C634 C 0.05892 0.64479 0.26784
 C635 C 0.05062 0.63651 0.29072
 C636 C 0.05965 0.61427 0.29992
 C637 C 0.10004 0.59350 0.24901
 C638 C 0.11294 0.58027 0.23705
 C639 C 0.12750 0.56411 0.22323
 C640 C 0.13946 0.54974 0.21160
 H641 H 0.08270 0.58315 0.29358
 H642 H 0.08141 0.63732 0.23653
 H643 H 0.05231 0.66181 0.26024
 H644 H 0.05365 0.60737 0.31746
 C645 C 0.92442 0.36910 0.25427
 C646 C 0.91584 0.39137 0.26346
 C647 C 0.92364 0.39949 0.28640
 C648 C 0.94022 0.38563 0.29996
 C649 C 0.94928 0.36341 0.29073
 C650 C 0.94101 0.35517 0.26782
 C651 C 0.89989 0.40647 0.24903
 C652 C 0.88700 0.41971 0.23708
 C653 C 0.87246 0.43589 0.22326
 C654 C 0.86052 0.45027 0.21163
 H655 H 0.91855 0.36268 0.23649
 H656 H 0.91717 0.41674 0.29366
 H657 H 0.94620 0.39249 0.31753
 H658 H 0.94765 0.33816 0.26019
 C659 C 0.92363 0.60041 0.71353
 C660 C 0.91583 0.60858 0.73645
 C661 C 0.92441 0.63087 0.74561
 C662 C 0.94102 0.64477 0.73205
 C663 C 0.94931 0.63648 0.70917
 C664 C 0.94024 0.61424 0.69996
 C665 C 0.89986 0.59351 0.75089
 C666 C 0.88696 0.58029 0.76286
 C667 C 0.87241 0.56412 0.77669
 C668 C 0.86046 0.54975 0.78833
 H669 H 0.91716 0.58315 0.70630
 H670 H 0.91853 0.63732 0.76337
 H671 H 0.94766 0.66179 0.73965
 H672 H 0.94622 0.60734 0.68242
 C673 C 0.71371 0.59974 0.92523
 C674 C 0.73642 0.60805 0.91700
 C675 C 0.74541 0.63057 0.92511
 C676 C 0.73189 0.64459 0.94167
 C677 C 0.70914 0.63621 0.95046
 C678 C 0.70015 0.61366 0.94178
 C679 C 0.75079 0.59295 0.90096
 C680 C 0.76269 0.57973 0.88796
 C681 C 0.77647 0.56363 0.87325
 C682 C 0.78808 0.54934 0.86116
 H683 H 0.70659 0.58230 0.91909
 H684 H 0.76300 0.63715 0.91888
 H685 H 0.73948 0.66181 0.94781
 H686 H 0.68276 0.60653 0.94797
 C687 C 0.25450 0.36929 0.92522
 C688 C 0.26344 0.39183 0.91710
 C689 C 0.28615 0.40018 0.92532
 C690 C 0.29975 0.38629 0.94186
 C691 C 0.29080 0.36373 0.95055
 C692 C 0.26806 0.35530 0.94177
 C693 C 0.24902 0.40689 0.90107
 C694 C 0.23709 0.42009 0.88808
 C695 C 0.22328 0.43619 0.87340
 C696 C 0.21165 0.45047 0.86132
 H697 H 0.23691 0.36267 0.91900
 H698 H 0.29322 0.41762 0.91918
 H699 H 0.31713 0.39346 0.94804
 H700 H 0.26051 0.33807 0.94792
 C701 C 0.28648 0.59968 0.07496
 C702 C 0.26377 0.60801 0.08318
 C703 C 0.25481 0.63053 0.07506
 C704 C 0.26834 0.64454 0.05850
 C705 C 0.29108 0.63614 0.04972
 C706 C 0.30005 0.61359 0.05841
 C707 C 0.24937 0.59292 0.09920
 C708 C 0.23744 0.57971 0.11218
 C709 C 0.22364 0.56360 0.12685
 C710 C 0.21199 0.54932 0.13892
 H711 H 0.29357 0.58225 0.08109
 H712 H 0.23722 0.63713 0.08129
 H713 H 0.26078 0.66176 0.05236
 H714 H 0.31744 0.60644 0.05222
 C715 C 0.74535 0.36936 0.07495
 C716 C 0.73638 0.39187 0.08309
 C717 C 0.71368 0.40019 0.07485
 C718 C 0.70011 0.38630 0.05828
 C719 C 0.70909 0.36375 0.04958
 C720 C 0.73183 0.35536 0.05837
 C721 C 0.75077 0.40695 0.09913
 C722 C 0.76268 0.42017 0.11213
 C723 C 0.77646 0.43629 0.12681
 C724 C 0.78807 0.45060 0.13889
 H725 H 0.76295 0.36276 0.08119
 H726 H 0.70658 0.41762 0.08100
 H727 H 0.68273 0.39344 0.05209
 H728 H 0.73940 0.33814 0.05222
 C729 C 0.92549 0.74524 0.63071
 C730 C 0.91730 0.73625 0.60823
 C731 C 0.92548 0.71352 0.59992
 C732 C 0.94203 0.69994 0.61381
 C733 C 0.95078 0.70893 0.63633
 C734 C 0.94206 0.73170 0.64470
 C735 C 0.90124 0.75065 0.59316
 C736 C 0.88823 0.76257 0.57998
 C737 C 0.87352 0.77636 0.56390
 C738 C 0.86142 0.78799 0.54964
 H739 H 0.91930 0.76286 0.63729
 H740 H 0.91928 0.70641 0.58252
 H741 H 0.94818 0.68253 0.60668
 H742 H 0.94825 0.73929 0.66189
 C743 C 0.92534 0.25449 0.36895
 C744 C 0.91714 0.26344 0.39143
 C745 C 0.92533 0.28616 0.39979
 C746 C 0.94190 0.29976 0.38595
 C747 C 0.95067 0.29081 0.36343
 C748 C 0.94193 0.26805 0.35500
 C749 C 0.90107 0.24902 0.40645
 C750 C 0.88804 0.23709 0.41961
 C751 C 0.87331 0.22329 0.43567
 C752 C 0.86121 0.21166 0.44993
 H753 H 0.91915 0.23689 0.36232
 H754 H 0.91913 0.29324 0.41720
 H755 H 0.94805 0.31716 0.39312
 H756 H 0.94814 0.26050 0.33780
 C757 C 0.07443 0.28642 0.59986
 C758 C 0.08260 0.26368 0.60817
 C759 C 0.07439 0.25470 0.63063
 C760 C 0.05781 0.26824 0.64461
 C761 C 0.04909 0.29101 0.63623
 C762 C 0.05786 0.30000 0.61373
 C763 C 0.09866 0.24928 0.59311
 C764 C 0.11167 0.23736 0.57993
 C765 C 0.12639 0.22357 0.56386
 C766 C 0.13849 0.21194 0.54959
 H767 H 0.08063 0.29353 0.58246
 H768 H 0.08057 0.23708 0.63722
 H769 H 0.05160 0.26065 0.66179
 H770 H 0.05172 0.31741 0.60660
 C771 C 0.07472 0.71354 0.39991
 C772 C 0.08293 0.73626 0.39160
 C773 C 0.07474 0.74526 0.36913
 C774 C 0.05813 0.73174 0.35516
 C775 C 0.04937 0.70899 0.36353
 C776 C 0.05813 0.69998 0.38603
 C777 C 0.09901 0.75064 0.40666
 C778 C 0.11203 0.76254 0.41986
 C779 C 0.12674 0.77630 0.43598
 C780 C 0.13883 0.78790 0.45028
 H781 H 0.08092 0.70642 0.41731
 H782 H 0.08095 0.76287 0.36255
 H783 H 0.05193 0.73933 0.33797
 H784 H 0.05196 0.68258 0.39317
 C785 C 0.63014 0.92533 0.74606
 C786 C 0.60787 0.91679 0.73682
 C787 C 0.59983 0.92459 0.71386
 C788 C 0.61378 0.94112 0.70031
 C789 C 0.63603 0.95012 0.70957
 C790 C 0.64417 0.94187 0.73252
 C791 C 0.59273 0.90076 0.75118
 C792 C 0.57949 0.88778 0.76305
 C793 C 0.56334 0.87308 0.77678
 C794 C 0.54903 0.86100 0.78837
 H795 H 0.63651 0.91946 0.76385
 H796 H 0.58259 0.91815 0.70655
 H797 H 0.60699 0.94708 0.68272
 H798 H 0.66119 0.94846 0.74017
 C799 C 0.36993 0.92533 0.25399
 C800 C 0.39222 0.91684 0.26322
 C801 C 0.40026 0.92468 0.28617
 C802 C 0.38629 0.94120 0.29972
 C803 C 0.36403 0.95015 0.29047
 C804 C 0.35588 0.94186 0.26752
 C805 C 0.40737 0.90083 0.24886
 C806 C 0.42063 0.88786 0.23698
 C807 C 0.43679 0.87320 0.22324
 C808 C 0.45112 0.86114 0.21165
 H809 H 0.36355 0.91942 0.23620
 H810 H 0.41752 0.91828 0.29347
 H811 H 0.39309 0.94719 0.31730
 H812 H 0.33885 0.94840 0.25988
 C813 C 0.60007 0.07586 0.28655
 C814 C 0.60810 0.08370 0.26360
 C815 C 0.63039 0.07521 0.25437
 C816 C 0.64443 0.05867 0.26790
 C817 C 0.63629 0.05038 0.29083
 C818 C 0.61404 0.05933 0.30009
 C819 C 0.59293 0.09969 0.24924
 C820 C 0.57966 0.11264 0.23735
 C821 C 0.56349 0.12728 0.22360
 C822 C 0.54916 0.13932 0.21199
 H823 H 0.58282 0.08226 0.29386
 H824 H 0.63675 0.08111 0.23659
 H825 H 0.66146 0.05212 0.26024
 H826 H 0.60725 0.05334 0.31767
 C827 C 0.36960 0.07489 0.74606
 C828 C 0.39185 0.08344 0.73679
 C829 C 0.39988 0.07559 0.71383
 C830 C 0.38593 0.05901 0.70032
 C831 C 0.36371 0.05001 0.70962
 C832 C 0.35558 0.05829 0.73256
 C833 C 0.40699 0.09948 0.75111
 C834 C 0.42026 0.11248 0.76296
 C835 C 0.43644 0.12717 0.77666
 C836 C 0.45079 0.13924 0.78823
 H837 H 0.36324 0.08079 0.76384
 H838 H 0.41710 0.08204 0.70651
 H839 H 0.39272 0.05303 0.68274
 H840 H 0.33858 0.05170 0.74023
 C841 C 0.60013 0.71376 0.07513
 C842 C 0.60824 0.73670 0.08299
 C843 C 0.63055 0.74589 0.07448
 C844 C 0.64453 0.73232 0.05793
 C845 C 0.63631 0.70940 0.04963
 C846 C 0.61404 0.70019 0.05859
 C847 C 0.59316 0.75108 0.09903
 C848 C 0.57995 0.76299 0.11204
 C849 C 0.56385 0.77676 0.12674
 C850 C 0.54956 0.78837 0.13883
 H851 H 0.58286 0.70650 0.08155
 H852 H 0.63697 0.76366 0.08039
 H853 H 0.66157 0.73993 0.05137
 H854 H 0.60719 0.68262 0.05260
 C855 C 0.36974 0.25428 0.07455
 C856 C 0.39203 0.26351 0.08304
 C857 C 0.40010 0.28645 0.07517
 C858 C 0.38615 0.29999 0.05863
 C859 C 0.36388 0.29073 0.04968
 C860 C 0.35571 0.26780 0.05799
 C861 C 0.40715 0.24917 0.09909
 C862 C 0.42038 0.23730 0.11211
 C863 C 0.43650 0.22357 0.12683
 C864 C 0.45079 0.21199 0.13894
 H865 H 0.36334 0.23650 0.08047
 H866 H 0.41736 0.29375 0.08157
 H867 H 0.39297 0.31756 0.05262
 H868 H 0.33868 0.26016 0.05145
 C869 C 0.60003 0.28650 0.92471
 C870 C 0.60811 0.26356 0.91684
 C871 C 0.63038 0.25432 0.92537
 C872 C 0.64438 0.26784 0.94196
 C873 C 0.63621 0.29077 0.95027
 C874 C 0.61396 0.30003 0.94129
 C875 C 0.59300 0.24922 0.90078
 C876 C 0.57977 0.23735 0.88776
 C877 C 0.56363 0.22361 0.87306
 C878 C 0.54931 0.21202 0.86097
 H879 H 0.58279 0.29380 0.91828
 H880 H 0.63677 0.23655 0.91944
 H881 H 0.66140 0.26019 0.94853
 H882 H 0.60714 0.31760 0.94729
 C883 C 0.36973 0.74559 0.92554
 C884 C 0.39201 0.73637 0.91703
 C885 C 0.40010 0.71343 0.92488
 C886 C 0.38617 0.69988 0.94143
 C887 C 0.36391 0.70912 0.95040
 C888 C 0.35573 0.73205 0.94210
 C889 C 0.40712 0.75074 0.90099
 C890 C 0.42034 0.76264 0.88799
 C891 C 0.43645 0.77641 0.87329
 C892 C 0.45074 0.78802 0.86121
 H893 H 0.36333 0.76336 0.91963
 H894 H 0.41735 0.70614 0.91846
 H895 H 0.39300 0.68231 0.94743
 H896 H 0.33870 0.73968 0.94866
 C897 C 0.71405 0.92453 0.40051
 C898 C 0.73701 0.91667 0.39248
 C899 C 0.74626 0.92517 0.37021
 C900 C 0.73273 0.94172 0.35617
 C901 C 0.70979 0.95002 0.36430
 C902 C 0.70052 0.94106 0.38654
 C903 C 0.75136 0.90066 0.40763
 C904 C 0.76323 0.88768 0.42088
 C905 C 0.77697 0.87300 0.43704
 C906 C 0.78856 0.86093 0.45136
 H907 H 0.70674 0.91812 0.41774
 H908 H 0.76404 0.91926 0.36385
 H909 H 0.74039 0.94827 0.33916
 H910 H 0.68293 0.94706 0.39333
 C911 C 0.28602 0.92416 0.59985
 C912 C 0.26306 0.91630 0.60786
 C913 C 0.25378 0.92478 0.63012
 C914 C 0.26730 0.94133 0.64418
 C915 C 0.29025 0.94965 0.63607
 C916 C 0.29954 0.94069 0.61384
 C917 C 0.24872 0.90030 0.59267
 C918 C 0.23686 0.88734 0.57938
 C919 C 0.22315 0.87269 0.56317
 C920 C 0.21158 0.86064 0.54881
 H921 H 0.29335 0.91775 0.58262
 H922 H 0.23599 0.91887 0.63646
 H923 H 0.25962 0.94788 0.66118
 H924 H 0.31714 0.94670 0.60707
 C925 C 0.28602 0.07559 0.40045
 C926 C 0.26306 0.08344 0.39241
 C927 C 0.25384 0.07498 0.37011
 C928 C 0.26739 0.05848 0.35604
 C929 C 0.29034 0.05019 0.36418
 C930 C 0.29958 0.05910 0.38645
 C931 C 0.24868 0.09941 0.40758
 C932 C 0.23679 0.11236 0.42085
 C933 C 0.22303 0.12701 0.43701
 C934 C 0.21143 0.13906 0.45133
 H935 H 0.29331 0.08197 0.41771
 H936 H 0.23605 0.08088 0.36374
 H937 H 0.25975 0.05196 0.33900
 H938 H 0.31717 0.05311 0.39325
 C939 C 0.71388 0.07555 0.59948
 C940 C 0.73685 0.08342 0.60749
 C941 C 0.74610 0.07500 0.62979
 C942 C 0.73256 0.05851 0.64388
 C943 C 0.70961 0.05019 0.63578
 C944 C 0.70034 0.05907 0.61350
 C945 C 0.75121 0.09938 0.59228
 C946 C 0.76308 0.11230 0.57898
 C947 C 0.77682 0.12693 0.56277
 C948 C 0.78840 0.13895 0.54841
 H949 H 0.70657 0.08189 0.58222
 H950 H 0.76389 0.08093 0.63613
 H951 H 0.74022 0.05202 0.66092
 H952 H 0.68274 0.05305 0.60673
 C953 C 0.92520 0.63015 0.25412
 C954 C 0.91674 0.60784 0.26332
 C955 C 0.92463 0.59976 0.28624
 C956 C 0.94116 0.61372 0.29979
 C957 C 0.95007 0.63601 0.29058
 C958 C 0.94174 0.64419 0.26767
 C959 C 0.90073 0.59269 0.24895
 C960 C 0.88776 0.57944 0.23706
 C961 C 0.87308 0.56328 0.22331
 C962 C 0.86101 0.54896 0.21171
 H963 H 0.91927 0.63655 0.23636
 H964 H 0.91825 0.58248 0.29351
 H965 H 0.94718 0.60690 0.31735
 H966 H 0.94826 0.66125 0.26005
 C967 C 0.92449 0.40034 0.71353
 C968 C 0.91659 0.39224 0.73644
 C969 C 0.92500 0.36990 0.74561
 C970 C 0.94150 0.35585 0.73205
 C971 C 0.94985 0.36404 0.70915
 C972 C 0.94098 0.38635 0.69996
 C973 C 0.90061 0.40740 0.75083
 C974 C 0.88766 0.42065 0.76274
 C975 C 0.87300 0.43679 0.77653
 C976 C 0.86095 0.45109 0.78816
 H977 H 0.91815 0.41763 0.70628
 H978 H 0.91905 0.36349 0.76336
 H979 H 0.94799 0.33877 0.73965
 H980 H 0.94702 0.39319 0.68241
 C981 C 0.07467 0.63000 0.74593
 C982 C 0.08308 0.60764 0.73678
 C983 C 0.07518 0.59953 0.71387
 C984 C 0.05870 0.61351 0.70028
 C985 C 0.04983 0.63583 0.70945
 C986 C 0.05817 0.64404 0.73235
 C987 C 0.09906 0.59250 0.75118
 C988 C 0.11202 0.57926 0.76310
 C989 C 0.12669 0.56313 0.77688
 C990 C 0.13876 0.54883 0.78849
 H991 H 0.08061 0.63642 0.76368
 H992 H 0.08153 0.58223 0.70663
 H993 H 0.05267 0.60666 0.68273
 H994 H 0.05169 0.66112 0.73994
 C995 C 0.07469 0.36992 0.25412
 C996 C 0.08310 0.39226 0.26331
 C997 C 0.07518 0.40034 0.28623
 C998 C 0.05867 0.38635 0.29977
 C999 C 0.04981 0.36403 0.29055
 C1000 C 0.05817 0.35586 0.26765
 C1001 C 0.09911 0.40742 0.24896
 C1002 C 0.11209 0.42066 0.23707
 C1003 C 0.12679 0.43680 0.22332
 C1004 C 0.13888 0.45109 0.21172
 H1005 H 0.08064 0.36352 0.23637
 H1006 H 0.08152 0.41764 0.29350
 H1007 H 0.05263 0.39317 0.31732
 H1008 H 0.05169 0.33879 0.26003
   
