data_POSCAR
  _audit_creation_date              2014-09-24
  _audit_creation_method            'ToBaCCo'
  _symmetry_space_group_name_H-M    'P1'
  _symmetry_Int_Tables_number       1
  _symmetry_cell_setting            triclinic
  loop_
  _symmetry_equiv_pos_as_xyz
 x,y,z
_cell_length_a 41.8792
_cell_length_b 42.1704
_cell_length_c 15.1707
_cell_angle_alpha 90.056700
_cell_angle_beta 91.193600
_cell_angle_gamma 119.670600
loop_
  _atom_site_label
  _atom_site_type_symbol
  _atom_site_fract_x
  _atom_site_fract_y
  _atom_site_fract_z
C1 C 0.16694 0.50852 0.57239
 C2 C 0.16971 0.49938 0.48527
 C3 C 0.19812 0.49192 0.46451
 C4 C 0.22259 0.49256 0.53136
 C5 C 0.21867 0.50177 0.61825
 C6 C 0.19107 0.50962 0.63938
 C7 C 0.25117 0.48210 0.51312
 C8 C 0.26290 0.46677 0.58064
 C9 C 0.29104 0.45876 0.56676
 C10 C 0.30585 0.46342 0.48336
 C11 C 0.29411 0.47752 0.41407
 C12 C 0.26756 0.48785 0.42985
 H13 H 0.14419 0.51268 0.58887
 H14 H 0.19965 0.48319 0.39848
 H15 H 0.23757 0.50367 0.67044
 H16 H 0.25018 0.46059 0.64431
 H17 H 0.32801 0.45758 0.47369
 H18 H 0.25998 0.50040 0.37737
 C19 C 0.45641 -0.35585 0.53468
 C20 C 0.45044 -0.34589 0.44946
 C21 C 0.45440 -0.31092 0.43896
 C22 C 0.47055 -0.28384 0.50622
 C23 C 0.48095 -0.29353 0.58627
 C24 C 0.47185 -0.32965 0.60346
 C25 C 0.47875 -0.24513 0.49191
 C26 C 0.48540 -0.22103 0.56440
 C27 C 0.49725 -0.18392 0.55085
 C28 C 0.50015 -0.17121 0.46491
 C29 C 0.49200 -0.19457 0.39217
 C30 C 0.48173 -0.23119 0.40568
 H31 H 0.45111 -0.38323 0.54685
 H32 H 0.44644 -0.30461 0.37611
 H33 H 0.49574 -0.27319 0.63715
 H34 H 0.48236 -0.23045 0.63143
 H35 H 0.50811 -0.14282 0.45466
 H36 H 0.47750 -0.24793 0.34797
 C37 C 1.33957 0.84817 0.51749
 C38 C 1.32573 0.82675 0.43993
 C39 C 1.29239 0.79347 0.44484
 C40 C 1.27512 0.77981 0.52661
 C41 C 1.29219 0.80075 0.60361
 C42 C 1.32303 0.83548 0.59857
 C43 C 1.23907 0.74465 0.53207
 C44 C 1.21607 0.73741 0.60550
 C45 C 1.18341 0.70393 0.61393
 C46 C 1.17141 0.67917 0.54234
 C47 C 1.19185 0.68719 0.46548
 C48 C 1.22654 0.71841 0.46307
 H49 H 1.36261 0.87562 0.51622
 H50 H 1.28011 0.77871 0.38401
 H51 H 1.28101 0.79112 0.66776
 H52 H 1.22327 0.75750 0.65748
 H53 H 1.14499 0.65446 0.54301
 H54 H 1.24264 0.72240 0.40524
 C55 C 0.81743 0.47690 0.48820
 C56 C 0.80714 0.49020 0.41537
 C57 C 0.77439 0.49153 0.41622
 C58 C 0.75074 0.47824 0.48899
 C59 C 0.76057 0.46210 0.55880
 C60 C 0.79464 0.46337 0.56066
 C61 C 0.71937 0.48599 0.49763
 C62 C 0.70536 0.48650 0.58164
 C63 C 0.68040 0.49915 0.59325
 C64 C 0.66923 0.51152 0.51926
 C65 C 0.68127 0.51007 0.43516
 C66 C 0.70549 0.49646 0.42390
 H67 H 0.84412 0.47852 0.49022
 H68 H 0.76936 0.50540 0.36256
 H69 H 0.74340 0.45064 0.61516
 H70 H 0.71512 0.47918 0.64026
 H71 H 0.64906 0.52030 0.52482
 H72 H 0.71395 0.49512 0.35793
 C73 C 0.52665 0.34709 0.46964
 C74 C 0.51672 0.32420 0.39587
 C75 C 0.52197 0.29398 0.39708
 C76 C 0.53849 0.28694 0.47133
 C77 C 0.55051 0.31212 0.54323
 C78 C 0.54192 0.34041 0.54610
 C79 C 0.53760 0.25086 0.47892
 C80 C 0.53756 0.23603 0.56291
 C81 C 0.52853 0.19941 0.57207
 C82 C 0.52032 0.17764 0.49574
 C83 C 0.52154 0.19178 0.41229
 C84 C 0.53151 0.22856 0.40337
 H85 H 0.52224 0.37027 0.46607
 H86 H 0.51062 0.27504 0.34212
 H87 H 0.56411 0.30841 0.60033
 H88 H 0.54148 0.25158 0.62268
 H89 H 0.51409 0.14952 0.49966
 H90 H 0.53250 0.23875 0.33760
 C91 C 0.68366 0.16480 0.46377
 C92 C 0.70116 0.17912 0.38454
 C93 C 0.72931 0.21563 0.38148
 C94 C 0.74242 0.23721 0.45965
 C95 C 0.72366 0.22181 0.53881
 C96 C 0.69342 0.18638 0.54056
 C97 C 0.77732 0.27380 0.46101
 C98 C 0.78688 0.29794 0.53454
 C99 C 0.82273 0.32739 0.54692
 C100 C 0.84759 0.33606 0.47808
 C101 C 0.83788 0.31496 0.40117
 C102 C 0.80332 0.28348 0.39334
 H103 H 0.66279 0.13628 0.46508
 H104 H 0.74171 0.22604 0.31873
 H105 H 0.73274 0.23640 0.60090
 H106 H 0.76740 0.29300 0.58551
 H107 H 0.87445 0.36033 0.48177
 H108 H 0.79809 0.26628 0.33603
 O109 O 1.02924 0.58091 0.20291
 O110 O 1.08009 0.58615 0.13526
 C111 C 1.06443 0.59470 0.19660
 O112 O 0.95129 0.42044 0.12820
 O113 O 0.91149 0.42743 0.03460
 C114 C 0.91881 0.40946 0.09330
 O115 O 1.05191 0.48391 0.17774
 O116 O 1.09139 0.53967 0.11902
 C117 C 1.08432 0.51251 0.17014
 O118 O 0.92999 0.52281 0.14349
 O119 O 0.90098 0.47618 0.04169
 C120 C 0.90066 0.49638 0.10599
 Zr121 Zr 0.98621 0.54146 0.12252
 O122 O 0.97305 0.53413 0.25744
 O123 O 0.97978 0.58806 0.11758
 Zr124 Zr 1.00139 0.46973 0.11045
 O125 O 0.98940 0.45902 0.24568
 O126 O 1.01396 0.42698 0.10176
 O127 O 1.02439 0.52423 0.14937
 O128 O 0.96175 0.48524 0.11751
 O129 O 0.95069 0.54260 -0.15735
 O130 O 0.91122 0.48537 -0.10588
 C131 C 0.91874 0.51338 -0.15474
 O132 O 1.07305 0.50677 -0.13259
 O133 O 1.10146 0.55239 -0.02795
 C134 C 1.10194 0.53397 -0.09541
 O135 O 0.97306 0.43974 -0.17436
 O136 O 0.92179 0.43666 -0.11402
 C137 C 0.93784 0.42581 -0.16919
 O138 O 1.05220 0.60063 -0.12626
 O139 O 1.09117 0.59631 -0.02474
 C140 C 1.08469 0.61154 -0.09183
 Zr141 Zr 1.00094 0.55582 -0.09258
 O142 O 1.00573 0.56735 -0.22871
 O143 O 0.99555 0.60254 -0.07038
 Zr144 Zr 1.01628 0.48416 -0.10625
 O145 O 1.02202 0.49035 -0.24451
 O146 O 1.03017 0.44228 -0.11193
 Zr147 Zr 1.05469 0.54617 0.03438
 Zr148 Zr 0.94750 0.47902 -0.01796
 O149 O 0.97883 0.50168 -0.13101
 O150 O 1.04107 0.54059 -0.10155
 O151 O 0.95993 0.53363 0.00019
 O152 O 1.04115 0.49136 0.01588
 O153 O 1.02453 0.57380 0.03136
 O154 O 0.97775 0.45119 -0.01457
 H155 H 0.94254 0.47230 0.16162
 H156 H 1.06085 0.48482 0.01908
 H157 H 0.96661 0.49507 -0.19006
 H158 H 1.03835 0.60055 0.04195
 H159 H 0.99599 0.40841 0.05988
 H160 H 1.00975 0.42021 -0.08609
 H161 H 1.04089 0.51595 -0.25559
 H162 H 1.01439 0.55172 -0.25568
 H163 H 0.96982 0.59393 -0.05379
 H164 H 0.97375 0.59178 0.17815
 H165 H 0.98386 0.51977 0.28206
 H166 H 1.00715 0.48101 0.27970
 O167 O 0.40867 0.43604 0.16085
 O168 O 0.40757 0.48684 0.11030
 C169 C 0.39508 0.45780 0.15814
 O170 O 0.57390 0.51894 0.15119
 O171 O 0.57128 0.48002 0.04177
 C172 C 0.58644 0.50009 0.11148
 O173 O 0.50543 0.54734 0.21172
 O174 O 0.45515 0.54218 0.13515
 C175 C 0.47768 0.55283 0.20330
 O176 O 0.47090 0.39923 0.10777
 O177 O 0.52239 0.42318 0.02343
 C178 C 0.49949 0.39899 0.07691
 Zr179 Zr 0.45347 0.43821 0.09362
 O180 O 0.45525 0.42426 0.22692
 O181 O 0.40749 0.38661 0.06361
 Zr182 Zr 0.52624 0.52346 0.12453
 O183 O 0.53627 0.51848 0.25947
 O184 O 0.56793 0.57895 0.13291
 O185 O 0.46982 0.49044 0.14140
 O186 O 0.50985 0.46870 0.11060
 O187 O 0.46500 0.42260 -0.19289
 O188 O 0.51930 0.43417 -0.12510
 C189 C 0.49366 0.41861 -0.18572
 O190 O 0.50028 0.57413 -0.12097
 O191 O 0.45142 0.55331 -0.02851
 C192 C 0.47155 0.57427 -0.09109
 O193 O 0.56930 0.54423 -0.14943
 O194 O 0.56902 0.49217 -0.10382
 C195 C 0.58262 0.52226 -0.14801
 O196 O 0.40372 0.46089 -0.15120
 O197 O 0.40512 0.49900 -0.04114
 C198 C 0.39084 0.47950 -0.11242
 Zr199 Zr 0.45000 0.45538 -0.11989
 O200 O 0.44918 0.46433 -0.25703
 O201 O 0.40257 0.40324 -0.13425
 Zr202 Zr 0.52277 0.54060 -0.08817
 O203 O 0.52816 0.55651 -0.22151
 O204 O 0.56462 0.59413 -0.05339
 Zr205 Zr 0.45345 0.50836 0.02824
 Zr206 Zr 0.52246 0.47038 -0.02361
 O207 O 0.50588 0.48843 -0.13555
 O208 O 0.46584 0.51019 -0.10633
 O209 O 0.46698 0.42885 -0.03099
 O210 O 0.50896 0.54948 0.03583
 O211 O 0.42632 0.45196 -0.00011
 O212 O 0.55095 0.52700 0.00489
 H213 H 0.52049 0.45911 0.15491
 H214 H 0.51373 0.57437 0.05070
 H215 H 0.51500 0.48685 -0.19420
 H216 H 0.39910 0.43792 0.00019
 H217 H 0.59080 0.58059 0.11105
 H218 H 0.58770 0.59344 -0.04354
 H219 H 0.50772 0.53616 -0.25462
 H220 H 0.44955 0.48782 -0.26463
 H221 H 0.40845 0.38527 -0.10766
 H222 H 0.40084 0.37310 0.11978
 H223 H 0.45911 0.44536 0.26354
 H224 H 0.51725 0.49379 0.27683
 O225 O 0.50476 0.07181 0.14322
 O226 O 0.54152 0.10178 0.02710
 C227 C 0.52618 0.10131 0.10076
 O228 O 0.56135 -0.03487 0.13233
 O229 O 0.50285 -0.08003 0.09447
 C230 C 0.53454 -0.06831 0.13424
 O231 O 0.60745 0.06539 0.09359
 O232 O 0.59090 0.09870 0.00323
 C233 C 0.61273 0.09605 0.06091
 O234 O 0.45299 -0.02726 0.19513
 O235 O 0.45054 -0.07688 0.12516
 C236 C 0.44214 -0.06180 0.18888
 Zr237 Zr 0.48754 0.01649 0.11428
 O238 O 0.50131 0.02749 0.25020
 O239 O 0.43894 0.01937 0.12808
 Zr240 Zr 0.56407 0.01144 0.07135
 O241 O 0.58521 0.02154 0.20236
 O242 O 0.61064 0.00928 0.02850
 O243 O 0.54363 0.04687 0.09258
 O244 O 0.51256 -0.01509 0.12581
 O245 O 0.41331 -0.05701 -0.10373
 O246 O 0.43176 -0.09121 -0.02258
 C247 C 0.40834 -0.08787 -0.07342
 O248 O 0.56421 0.03318 -0.22833
 O249 O 0.57181 0.08343 -0.15114
 C250 C 0.57666 0.06797 -0.21974
 O251 O 0.52136 -0.06437 -0.16366
 O252 O 0.48283 -0.09484 -0.05058
 C253 C 0.49957 -0.09407 -0.12238
 O254 O 0.46427 0.04063 -0.16625
 O255 O 0.52165 0.08659 -0.12349
 C256 C 0.49102 0.07401 -0.16863
 Zr257 Zr 0.45978 -0.00437 -0.09567
 O258 O 0.43833 -0.02057 -0.22568
 O259 O 0.41477 0.00284 -0.06367
 Zr260 Zr 0.53651 -0.00936 -0.13813
 O261 O 0.52365 -0.02573 -0.27183
 O262 O 0.58782 -0.00688 -0.15433
 Zr263 Zr 0.53879 0.05695 -0.04184
 Zr264 Zr 0.48495 -0.04988 0.01740
 O265 O 0.48073 -0.03891 -0.11646
 O266 O 0.51148 0.02260 -0.15152
 O267 O 0.45154 -0.02584 0.03056
 O268 O 0.57180 0.03254 -0.05400
 O269 O 0.48412 0.03793 -0.00524
 O270 O 0.53972 -0.03172 -0.01868
 H271 H 0.51169 -0.02543 0.18489
 H272 H 0.59746 0.04839 -0.07259
 H273 H 0.46646 -0.05908 -0.15921
 H274 H 0.47465 0.05531 -0.00480
 H275 H 0.62728 0.01554 0.08087
 H276 H 0.58677 -0.02815 -0.12402
 H277 H 0.50043 -0.02593 -0.28616
 H278 H 0.45894 -0.00746 -0.26619
 H279 H 0.40095 -0.01480 -0.01707
 H280 H 0.43879 0.02620 0.19051
 H281 H 0.52764 0.04619 0.25503
 H282 H 0.56940 0.02810 0.23631
 C283 C 1.14193 0.49566 0.42530
 C284 C 1.14332 0.49523 0.33747
 C285 C 1.11154 0.49157 0.28544
 C286 C 1.11580 0.51406 0.21936
 H287 H 1.16801 0.50027 0.30431
 H288 H 1.08417 0.47226 0.30699
 H289 H 1.11771 0.49481 0.45255
 H290 H 1.14325 0.53501 0.20243
 C291 C 0.44356 0.63186 0.37305
 C292 C 0.45008 0.60369 0.36890
 C293 C 0.45102 0.58638 0.28425
 C294 C 0.47178 0.57039 0.28092
 H295 H 0.45942 0.59557 0.42707
 H296 H 0.43690 0.58833 0.22565
 H297 H 0.43703 0.64066 0.31144
 H298 H 0.48704 0.57099 0.34022
 C299 C 0.34324 -0.16155 0.35768
 C300 C 0.37757 -0.13337 0.34965
 C301 C 0.39469 -0.11780 0.26447
 C302 C 0.42208 -0.08317 0.26539
 H303 H 0.39430 -0.11991 0.40760
 H304 H 0.38438 -0.13319 0.20330
 H305 H 0.32842 -0.17612 0.29816
 H306 H 0.42947 -0.06803 0.32736
 C307 C 0.83414 0.50808 0.34618
 C308 C 0.83051 0.49278 0.26678
 C309 C 0.86290 0.50672 0.21068
 C310 C 0.86485 0.48723 0.14338
 H311 H 0.80547 0.46792 0.24837
 H312 H 0.88728 0.53177 0.23159
 H313 H 0.86027 0.53135 0.36634
 H314 H 0.84068 0.46209 0.12226
 C315 C 0.49607 0.32996 0.32397
 C316 C 0.50677 0.33528 0.24035
 C317 C 0.49022 0.35065 0.17955
 C318 C 0.50878 0.37186 0.11232
 H319 H 0.53042 0.33312 0.22109
 H320 H 0.46495 0.34955 0.19928
 H321 H 0.47451 0.33553 0.34338
 H322 H 0.53457 0.37385 0.09382
 C323 C 0.69108 0.15361 0.30903
 C324 C 0.68372 0.16059 0.22750
 C325 C 0.66420 0.12959 0.16525
 C326 C 0.64331 0.13030 0.09823
 H327 H 0.68736 0.18720 0.21152
 H328 H 0.66228 0.10382 0.18316
 H329 H 0.68437 0.12590 0.32460
 H330 H 0.64462 0.15582 0.08066
 C331 C 0.52774 0.18508 -0.34352
 C332 C 0.50739 0.14936 -0.32710
 C333 C 0.51088 0.13245 -0.24550
 C334 C 0.48595 0.09762 -0.23149
 H335 H 0.48755 0.13122 -0.37614
 H336 H 0.53511 0.14678 -0.20305
 H337 H 0.54322 0.20358 -0.28952
 H338 H 0.46174 0.08438 -0.27457
 C339 C 0.66594 0.49772 -0.32275
 C340 C 0.65058 0.51783 -0.30054
 C341 C 0.62769 0.51032 -0.22264
 C342 C 0.61369 0.53203 -0.20584
 H343 H 0.65335 0.53970 -0.34274
 H344 H 0.61911 0.48540 -0.18619
 H345 H 0.66713 0.47948 -0.27410
 H346 H 0.62278 0.55671 -0.24380
 C347 C 0.83341 0.34683 -0.37196
 C348 C 0.86860 0.36447 -0.34348
 C349 C 0.88185 0.38608 -0.26094
 C350 C 0.91641 0.39689 -0.23436
 H351 H 0.88911 0.36223 -0.38102
 H352 H 0.86531 0.39545 -0.22778
 H353 H 0.81249 0.34509 -0.32811
 H354 H 0.93192 0.38693 -0.27025
 C355 C 0.50967 -0.15629 -0.37721
 C356 C 0.49630 -0.16168 -0.29576
 C357 C 0.50870 -0.12936 -0.23751
 C358 C 0.49154 -0.12915 -0.16407
 H359 H 0.47488 -0.18828 -0.27558
 H360 H 0.53105 -0.10376 -0.26043
 H361 H 0.52957 -0.12864 -0.39542
 H362 H 0.46923 -0.15438 -0.13964
 C363 C 0.30684 0.44678 -0.36166
 C364 C 0.31573 0.46289 -0.28195
 C365 C 0.34102 0.45733 -0.22363
 C366 C 0.35873 0.47941 -0.15465
 H367 H 0.30833 0.48333 -0.26479
 H368 H 0.34817 0.43694 -0.24337
 H369 H 0.31694 0.42846 -0.37961
 H370 H 0.35166 0.49974 -0.13403
 C371 C 1.16269 0.69692 -0.30889
 C372 C 1.13732 0.66326 -0.28501
 C373 C 1.11303 0.65601 -0.21025
 C374 C 1.11679 0.63935 -0.13907
 H375 H 1.13350 0.63936 -0.32062
 H376 H 1.08707 0.65495 -0.22451
 H377 H 1.16839 0.71951 -0.26493
 H378 H 1.14282 0.64025 -0.12646
 C379 C 0.80980 0.45730 -0.35635
 C380 C 0.83950 0.48558 -0.31922
 C381 C 0.86040 0.48259 -0.24338
 C382 C 0.89059 0.51284 -0.21506
 H383 H 0.85010 0.51213 -0.34953
 H384 H 0.85325 0.45612 -0.21669
 H385 H 0.79712 0.43053 -0.32698
 H386 H 0.89732 0.53868 -0.24518
 C387 C 0.54587 0.35926 -0.37349
 C388 C 0.52556 0.37509 -0.35665
 C389 C 0.52563 0.39223 -0.27171
 C390 C 0.49644 0.39613 -0.25575
 H391 H 0.50529 0.37313 -0.40497
 H392 H 0.54917 0.40291 -0.22667
 H393 H 0.56255 0.35748 -0.32020
 H394 H 0.47334 0.38424 -0.30244
 C395 C 0.67410 0.17146 -0.37534
 C396 C 0.63973 0.14326 -0.37361
 C397 C 0.62196 0.12507 -0.29151
 C398 C 0.59569 0.09006 -0.29609
 H399 H 0.62439 0.13175 -0.43463
 H400 H 0.63137 0.13919 -0.22850
 H401 H 0.68863 0.18356 -0.31363
 H402 H 0.58887 0.07596 -0.35942
 C403 C 1.18498 0.51395 -0.27210
 C404 C 1.16831 0.53245 -0.24826
 C405 C 1.14704 0.52367 -0.16807
 C406 C 1.13697 0.54691 -0.13817
 H407 H 1.16570 0.55080 -0.29417
 H408 H 1.13380 0.49580 -0.14485
 H409 H 1.19259 0.50046 -0.22180
 H410 H 1.15116 0.57511 -0.15895
 C411 C 0.48145 0.66229 -0.31337
 C412 C 0.46395 0.62933 -0.27650
 C413 C 0.47956 0.62101 -0.19791
 C414 C 0.45812 0.59554 -0.14075
 H415 H 0.43871 0.60766 -0.30588
 H416 H 0.50912 0.63234 -0.19408
 H417 H 0.50335 0.68439 -0.27500
 H418 H 0.42878 0.58559 -0.14223
 C419 C 0.33684 -0.13903 -0.32528
 C420 C 0.33742 -0.14866 -0.24146
 C421 C 0.35605 -0.11932 -0.17515
 C422 C 0.37635 -0.12149 -0.10868
 H423 H 0.32810 -0.17678 -0.22425
 H424 H 0.35885 -0.09302 -0.19141
 H425 H 0.34951 -0.11020 -0.34028
 H426 H 0.37446 -0.14747 -0.09358
 C427 C 0.49278 -0.18065 0.30233
 C428 C 0.51906 -0.14729 0.28017
 C429 C 0.51477 -0.12790 0.20430
 C430 C 0.54054 -0.09331 0.19057
 H431 H 0.54256 -0.13235 0.32458
 H432 H 0.48906 -0.14023 0.16669
 H433 H 0.47000 -0.19674 0.25699
 H434 H 0.56602 -0.08158 0.22918
 C435 C 0.31187 0.48367 0.32763
 C436 C 0.32200 0.46028 0.29707
 C437 C 0.34894 0.46970 0.22725
 C438 C 0.36363 0.44825 0.21456
 H439 H 0.31295 0.43464 0.33074
 H440 H 0.35903 0.49526 0.19270
 H441 H 0.31907 0.50867 0.29281
 H442 H 0.35365 0.42331 0.25188
 C443 C 1.17557 0.66458 0.38489
 C444 C 1.14074 0.65389 0.36110
 C445 C 1.12234 0.63114 0.28256
 C446 C 1.08709 0.62102 0.26584
 H447 H 1.12498 0.66216 0.40150
 H448 H 1.13671 0.62138 0.24174
 H449 H 1.19263 0.65879 0.34255
 H450 H 1.07318 0.63045 0.30931
 C451 C 0.50789 0.16557 0.33794
 C452 C 0.52574 0.17000 0.26309
 C453 C 0.51399 0.13769 0.20572
 C454 C 0.53441 0.13657 0.14064
 H455 H 0.55063 0.19536 0.25008
 H456 H 0.48930 0.11277 0.22294
 H457 H 0.48446 0.13900 0.35126
 H458 H 0.55875 0.16123 0.12089
 C459 C 0.66790 0.52402 0.36225
 C460 C 0.65825 0.50885 0.28184
 C461 C 0.63521 0.51813 0.22465
 C462 C 0.61804 0.49870 0.15209
 H463 H 0.66302 0.48675 0.26328
 H464 H 0.62874 0.53856 0.24815
 H465 H 0.66077 0.54468 0.37976
 H466 H 0.62442 0.47831 0.12801
 C467 C 0.86572 0.32630 0.33240
 C468 C 0.85958 0.33400 0.25050
 C469 C 0.89122 0.35830 0.19644
 C470 C 0.88735 0.37610 0.12775
 H471 H 0.83204 0.32733 0.22931
 H472 H 0.91857 0.36565 0.22083
 H473 H 0.89383 0.33579 0.35467
 H474 H 0.86000 0.36919 0.10437
   
