data_POSCAR
  _audit_creation_date              2014-09-24
  _audit_creation_method            'ToBaCCo'
  _symmetry_space_group_name_H-M    'P1'
  _symmetry_Int_Tables_number       1
  _symmetry_cell_setting            triclinic
  loop_
  _symmetry_equiv_pos_as_xyz
 x,y,z
_cell_length_a 26.5841
_cell_length_b 29.7564
_cell_length_c 26.5841
_cell_angle_alpha 90.000000
_cell_angle_beta 90.000000
_cell_angle_gamma 90.000000
loop_
  _atom_site_label
  _atom_site_type_symbol
  _atom_site_fract_x
  _atom_site_fract_y
  _atom_site_fract_z
Si1 Si 1.25004 0.25000 0.24999
 Si2 Si 0.75004 -0.25000 0.24999
 Si3 Si 0.75004 0.25000 -0.25001
 Si4 Si 1.25004 -0.25000 -0.25001
 Si5 Si 0.25004 0.25000 0.74999
 Si6 Si 0.75004 0.75000 0.74999
 Si7 Si 0.75004 0.25000 0.24999
 Si8 Si 0.25004 0.75000 0.24999
 N9 N 1.09024 0.04601 0.05525
 N10 N 1.12413 0.07737 0.06438
 N11 N 1.05508 -0.04855 0.08997
 N12 N 1.06477 -0.07943 0.12436
 N13 N 1.09002 -0.04855 0.05502
 N14 N 1.12441 -0.07943 0.06472
 N15 N 1.05530 0.04601 0.09019
 N16 N 1.06444 0.07737 0.12408
 C17 C 1.10707 0.09685 0.10702
 C18 C 1.10772 -0.09873 0.10766
 N19 N 0.91159 -0.04763 0.05470
 N20 N 0.87740 -0.07875 0.06380
 N21 N 0.94686 0.04650 0.09017
 N22 N 0.93754 0.07757 0.12440
 N23 N 0.91199 0.04679 0.05515
 N24 N 0.87802 0.07803 0.06457
 N25 N 0.94654 -0.04795 0.08963
 N26 N 0.93711 -0.07928 0.12347
 Mn27 Mn 1.00093 -0.00100 0.09050
 C28 C 0.89432 -0.09844 0.10637
 C29 C 0.89490 0.09720 0.10745
 N30 N 1.08969 -0.04795 -0.05351
 N31 N 1.12353 -0.07928 -0.06294
 N32 N 1.05520 0.04679 -0.08806
 N33 N 1.06462 0.07803 -0.12203
 N34 N 1.09022 0.04650 -0.05319
 N35 N 1.12445 0.07757 -0.06251
 N36 N 1.05475 -0.04763 -0.08846
 N37 N 1.06385 -0.07875 -0.12265
 Mn38 Mn 1.09055 -0.00100 0.00088
 C39 C 1.10642 -0.09844 -0.10573
 C40 C 1.10750 0.09720 -0.10515
 N41 N 0.91181 0.04727 -0.05331
 N42 N 0.87753 0.07825 -0.06285
 N43 N 0.94636 -0.04726 -0.08862
 N44 N 0.93687 -0.07826 -0.12287
 N45 N 0.91143 -0.04726 -0.05369
 N46 N 0.87718 -0.07826 -0.06319
 N47 N 0.94675 0.04727 -0.08824
 N48 N 0.93720 0.07825 -0.12252
 Mn49 Mn 0.91121 -0.00021 0.00073
 Mn50 Mn 1.00078 -0.00021 -0.08884
 Cl51 Cl 1.00088 -0.00061 0.00082
 C52 C 0.89435 0.09758 -0.10571
 C53 C 0.89402 -0.09756 -0.10604
 N54 N 1.08969 0.54795 0.55350
 N55 N 1.12353 0.57928 0.56292
 N56 N 1.05520 0.45321 0.58805
 N57 N 1.06462 0.42196 0.62201
 N58 N 1.09022 0.45350 0.55317
 N59 N 1.12445 0.42243 0.56250
 N60 N 1.05475 0.54763 0.58845
 N61 N 1.06385 0.57875 0.62263
 C62 C 1.10642 0.59844 0.60571
 C63 C 1.10750 0.40280 0.60513
 N64 N 0.91181 0.45273 0.55329
 N65 N 0.87753 0.42175 0.56283
 N66 N 0.94636 0.54726 0.58860
 N67 N 0.93686 0.57826 0.62285
 N68 N 0.91143 0.54726 0.55367
 N69 N 0.87718 0.57826 0.56317
 N70 N 0.94675 0.45273 0.58823
 N71 N 0.93720 0.42175 0.62250
 Mn72 Mn 1.00078 0.50020 0.58882
 C73 C 0.89434 0.40242 0.60569
 C74 C 0.89402 0.59756 0.60602
 N75 N 1.09024 0.45399 0.44473
 N76 N 1.12413 0.42263 0.43560
 N77 N 1.05508 0.54855 0.41001
 N78 N 1.06477 0.57943 0.37562
 N79 N 1.09002 0.54855 0.44496
 N80 N 1.12441 0.57943 0.43527
 N81 N 1.05530 0.45399 0.40979
 N82 N 1.06443 0.42263 0.37590
 Mn83 Mn 1.09055 0.50100 0.49910
 C84 C 1.10707 0.40315 0.39296
 C85 C 1.10772 0.59873 0.39232
 N86 N 0.91159 0.54763 0.44529
 N87 N 0.87740 0.57875 0.43618
 N88 N 0.94686 0.45350 0.40982
 N89 N 0.93754 0.42243 0.37558
 N90 N 0.91199 0.45321 0.44484
 N91 N 0.87802 0.42196 0.43541
 N92 N 0.94654 0.54795 0.41035
 N93 N 0.93711 0.57928 0.37651
 Mn94 Mn 0.91121 0.50020 0.49925
 Mn95 Mn 1.00093 0.50100 0.40948
 Cl96 Cl 1.00087 0.50061 0.49916
 C97 C 0.89432 0.59844 0.39361
 C98 C 0.89490 0.40280 0.39253
 N99 N 0.58827 0.04727 0.55329
 N100 N 0.62255 0.07825 0.56284
 N101 N 0.55372 -0.04726 0.58860
 N102 N 0.56322 -0.07826 0.62285
 N103 N 0.58865 -0.04726 0.55367
 N104 N 0.62290 -0.07826 0.56317
 N105 N 0.55334 0.04727 0.58823
 N106 N 0.56288 0.07825 0.62250
 C107 C 0.60574 0.09758 0.60569
 C108 C 0.60607 -0.09756 0.60602
 N109 N 0.41040 -0.04795 0.55350
 N110 N 0.37656 -0.07928 0.56292
 N111 N 0.44488 0.04679 0.58805
 N112 N 0.43546 0.07803 0.62201
 N113 N 0.40986 0.04650 0.55317
 N114 N 0.37563 0.07757 0.56250
 N115 N 0.44533 -0.04763 0.58845
 N116 N 0.43623 -0.07875 0.62263
 Mn117 Mn 0.49930 -0.00021 0.58882
 C118 C 0.39366 -0.09844 0.60571
 C119 C 0.39258 0.09720 0.60513
 N120 N 0.58850 -0.04763 0.44529
 N121 N 0.62268 -0.07875 0.43618
 N122 N 0.55322 0.04650 0.40982
 N123 N 0.56255 0.07757 0.37558
 N124 N 0.58809 0.04679 0.44484
 N125 N 0.62206 0.07803 0.43541
 N126 N 0.55354 -0.04795 0.41035
 N127 N 0.56297 -0.07928 0.37651
 Mn128 Mn 0.58887 -0.00021 0.49925
 C129 C 0.60576 -0.09844 0.39361
 C130 C 0.60518 0.09720 0.39253
 N131 N 0.40984 0.04601 0.44473
 N132 N 0.37595 0.07737 0.43560
 N133 N 0.44501 -0.04855 0.41001
 N134 N 0.43532 -0.07943 0.37562
 N135 N 0.41006 -0.04855 0.44496
 N136 N 0.37567 -0.07943 0.43527
 N137 N 0.44478 0.04601 0.40979
 N138 N 0.43565 0.07737 0.37590
 Mn139 Mn 0.40953 -0.00100 0.49910
 Mn140 Mn 0.49915 -0.00100 0.40948
 Cl141 Cl 0.49921 -0.00061 0.49916
 C142 C 0.39301 0.09685 0.39296
 C143 C 0.39237 -0.09873 0.39232
 N144 N 0.58850 0.54763 0.05470
 N145 N 0.62268 0.57875 0.06380
 N146 N 0.55322 0.45350 0.09017
 N147 N 0.56255 0.42243 0.12440
 N148 N 0.58810 0.45321 0.05515
 N149 N 0.62206 0.42197 0.06457
 N150 N 0.55354 0.54795 0.08963
 N151 N 0.56297 0.57928 0.12347
 C152 C 0.60576 0.59843 0.10637
 C153 C 0.60518 0.40280 0.10745
 N154 N 0.40984 0.45399 0.05525
 N155 N 0.37595 0.42263 0.06438
 N156 N 0.44501 0.54855 0.08997
 N157 N 0.43532 0.57943 0.12436
 N158 N 0.41006 0.54855 0.05502
 N159 N 0.37567 0.57943 0.06471
 N160 N 0.44478 0.45399 0.09019
 N161 N 0.43565 0.42263 0.12408
 Mn162 Mn 0.49915 0.50100 0.09050
 C163 C 0.39301 0.40315 0.10702
 C164 C 0.39237 0.59873 0.10766
 N165 N 0.58828 0.45273 -0.05331
 N166 N 0.62255 0.42175 -0.06285
 N167 N 0.55372 0.54726 -0.08862
 N168 N 0.56322 0.57826 -0.12287
 N169 N 0.58865 0.54726 -0.05369
 N170 N 0.62290 0.57826 -0.06319
 N171 N 0.55334 0.45273 -0.08824
 N172 N 0.56288 0.42175 -0.12252
 Mn173 Mn 0.58887 0.50020 0.00073
 C174 C 0.60574 0.40242 -0.10571
 C175 C 0.60607 0.59756 -0.10604
 N176 N 0.41040 0.54795 -0.05351
 N177 N 0.37656 0.57928 -0.06294
 N178 N 0.44489 0.45321 -0.08806
 N179 N 0.43546 0.42196 -0.12203
 N180 N 0.40987 0.45350 -0.05319
 N181 N 0.37563 0.42243 -0.06251
 N182 N 0.44533 0.54763 -0.08846
 N183 N 0.43623 0.57875 -0.12265
 Mn184 Mn 0.40953 0.50100 0.00088
 Mn185 Mn 0.49930 0.50020 -0.08884
 Cl186 Cl 0.49921 0.50061 0.00082
 C187 C 0.39366 0.59844 -0.10573
 C188 C 0.39258 0.40280 -0.10515
 C189 C 1.21107 0.21429 0.21102
 C190 C 1.18605 0.18907 0.18600
 C191 C 1.15763 0.15822 0.15758
 C192 C 1.13411 0.13077 0.13406
 C193 C 1.21102 0.71444 0.71097
 C194 C 1.18586 0.68950 0.68577
 C195 C 1.15724 0.65906 0.65704
 C196 C 1.13357 0.63197 0.63319
 C197 C 0.71092 0.21411 0.71087
 C198 C 0.68578 0.18894 0.68573
 C199 C 0.65708 0.15826 0.65704
 C200 C 0.63326 0.13109 0.63321
 C201 C 0.71102 0.71444 0.21097
 C202 C 0.68582 0.68950 0.18581
 C203 C 0.65709 0.65906 0.15719
 C204 C 0.63324 0.63197 0.13352
 C205 C 0.78906 -0.21444 0.21097
 C206 C 0.81426 -0.18950 0.18581
 C207 C 0.84300 -0.15906 0.15719
 C208 C 0.86684 -0.13197 0.13352
 C209 C 0.78916 0.28589 0.71087
 C210 C 0.81431 0.31106 0.68573
 C211 C 0.84300 0.34174 0.65703
 C212 C 0.86682 0.36891 0.63321
 C213 C 0.28906 -0.21444 0.71097
 C214 C 0.31422 -0.18950 0.68577
 C215 C 0.34284 -0.15906 0.65704
 C216 C 0.36652 -0.13197 0.63319
 C217 C 0.28901 0.28571 0.21102
 C218 C 0.31403 0.31093 0.18600
 C219 C 0.34246 0.34178 0.15758
 C220 C 0.36597 0.36922 0.13406
 C221 C 0.78916 0.21411 -0.21089
 C222 C 0.81431 0.18894 -0.18574
 C223 C 0.84300 0.15826 -0.15705
 C224 C 0.86682 0.13109 -0.13323
 C225 C 0.78906 0.71444 0.28901
 C226 C 0.81426 0.68950 0.31417
 C227 C 0.84300 0.65906 0.34279
 C228 C 0.86684 0.63197 0.36647
 C229 C 0.28901 0.21429 0.28896
 C230 C 0.31403 0.18907 0.31398
 C231 C 0.34246 0.15822 0.34241
 C232 C 0.36597 0.13077 0.36592
 C233 C 0.28906 0.71444 -0.21099
 C234 C 0.31422 0.68950 -0.18579
 C235 C 0.34284 0.65906 -0.15705
 C236 C 0.36652 0.63197 -0.13321
 C237 C 1.21102 -0.21444 -0.21099
 C238 C 1.18586 -0.18950 -0.18579
 C239 C 1.15724 -0.15906 -0.15705
 C240 C 1.13357 -0.13197 -0.13321
 C241 C 1.21107 0.28571 0.28896
 C242 C 1.18605 0.31093 0.31398
 C243 C 1.15763 0.34178 0.34241
 C244 C 1.13411 0.36922 0.36592
 C245 C 0.71102 -0.21444 0.28901
 C246 C 0.68582 -0.18950 0.31417
 C247 C 0.65709 -0.15906 0.34279
 C248 C 0.63324 -0.13197 0.36647
 C249 C 0.71092 0.28589 -0.21089
 C250 C 0.68578 0.31106 -0.18574
 C251 C 0.65708 0.34174 -0.15705
 C252 C 0.63326 0.36891 -0.13323
 C253 C 1.21117 0.21417 -0.21077
 C254 C 1.18640 0.18897 -0.18537
 C255 C 1.15824 0.15820 -0.15640
 C256 C 1.13480 0.13090 -0.13248
 C257 C 1.21294 0.71587 0.28709
 C258 C 1.18780 0.69057 0.31224
 C259 C 1.15912 0.65966 0.34092
 C260 C 1.13531 0.63236 0.36472
 C261 C 0.71080 0.21417 0.28886
 C262 C 0.68541 0.18897 0.31363
 C263 C 0.65643 0.15820 0.34179
 C264 C 0.63251 0.13090 0.36523
 C265 C 0.71097 0.71418 -0.21094
 C266 C 0.68586 0.68903 -0.18583
 C267 C 0.65724 0.65833 -0.15720
 C268 C 0.63348 0.63113 -0.13345
 C269 C 0.78911 -0.21419 -0.21094
 C270 C 0.81422 -0.18903 -0.18583
 C271 C 0.84285 -0.15834 -0.15720
 C272 C 0.86660 -0.13113 -0.13345
 C273 C 0.78928 0.28583 0.28886
 C274 C 0.81468 0.31103 0.31363
 C275 C 0.84365 0.34180 0.34179
 C276 C 0.86757 0.36910 0.36523
 C277 C 0.28714 -0.21588 0.28709
 C278 C 0.31229 -0.19057 0.31224
 C279 C 0.34096 -0.15966 0.34092
 C280 C 0.36477 -0.13236 0.36473
 C281 C 0.28891 0.28583 -0.21077
 C282 C 0.31368 0.31103 -0.18537
 C283 C 0.34184 0.34180 -0.15640
 C284 C 0.36528 0.36910 -0.13248
 C285 C 1.21294 -0.21588 0.21289
 C286 C 1.18780 -0.19057 0.18775
 C287 C 1.15912 -0.15966 0.15907
 C288 C 1.13531 -0.13236 0.13526
 C289 C 1.21117 0.28583 0.71075
 C290 C 1.18640 0.31103 0.68536
 C291 C 1.15824 0.34180 0.65638
 C292 C 1.13480 0.36910 0.63246
 C293 C 0.71097 -0.21419 0.71092
 C294 C 0.68586 -0.18903 0.68581
 C295 C 0.65723 -0.15834 0.65719
 C296 C 0.63348 -0.13113 0.63344
 C297 C 0.71080 0.28583 0.21112
 C298 C 0.68541 0.31103 0.18635
 C299 C 0.65643 0.34180 0.15819
 C300 C 0.63251 0.36910 0.13475
 C301 C 0.78928 0.21417 0.21112
 C302 C 0.81468 0.18897 0.18635
 C303 C 0.84365 0.15820 0.15819
 C304 C 0.86757 0.13090 0.13475
 C305 C 0.78911 0.71418 0.71092
 C306 C 0.81422 0.68903 0.68581
 C307 C 0.84285 0.65833 0.65719
 C308 C 0.86660 0.63113 0.63343
 C309 C 0.28891 0.21417 0.71075
 C310 C 0.31368 0.18897 0.68536
 C311 C 0.34184 0.15820 0.65638
 C312 C 0.36528 0.13090 0.63246
 C313 C 0.28714 0.71587 0.21289
 C314 C 0.31229 0.69057 0.18775
 C315 C 0.34096 0.65966 0.15907
 C316 C 0.36477 0.63236 0.13526
   
