data_POSCAR
  _audit_creation_date              2014-09-24
  _audit_creation_method            'ToBaCCo'
  _symmetry_space_group_name_H-M    'P1'
  _symmetry_Int_Tables_number       1
  _symmetry_cell_setting            triclinic
  loop_
  _symmetry_equiv_pos_as_xyz
 x,y,z
_cell_length_a 45.4484
_cell_length_b 47.1605
_cell_length_c 34.7496
_cell_angle_alpha 90.384500
_cell_angle_beta 89.761600
_cell_angle_gamma 118.153900
loop_
  _atom_site_label
  _atom_site_type_symbol
  _atom_site_fract_x
  _atom_site_fract_y
  _atom_site_fract_z
O1 O 0.02846 0.50075 0.00938
 O2 O -0.02515 0.53479 -0.02395
 O3 O 0.02626 0.55680 0.01818
 O4 O -0.02674 0.48191 -0.03442
 O5 O -0.05000 0.45829 0.02018
 O6 O -0.00395 0.53599 0.07049
 O7 O -0.05895 0.51058 0.02472
 O8 O -0.00033 0.48493 0.06353
 Cu9 Cu 0.00483 0.52018 -0.01227
 Cu10 Cu -0.03237 0.49598 0.04943
 C11 C 0.02362 0.48773 0.04233
 C12 C -0.05233 0.52680 -0.00613
 C13 C 0.01979 0.55925 0.05324
 C14 C -0.04711 0.45704 -0.01614
 O15 O 0.47207 0.53027 -0.01668
 O16 O 0.46198 0.45490 -0.06108
 O17 O 0.42735 0.46766 -0.01414
 O18 O 0.50686 0.51187 -0.06633
 O19 O 0.53461 0.51492 -0.01325
 O20 O 0.45557 0.46686 0.03709
 O21 O 0.49156 0.45078 -0.01337
 O22 O 0.49851 0.52386 0.03291
 Cu23 Cu 0.46458 0.49299 -0.04386
 Cu24 Cu 0.49760 0.48692 0.01479
 C25 C 0.48634 0.53963 0.01584
 C26 C 0.47588 0.44030 -0.04488
 C27 C 0.42808 0.46009 0.02071
 C28 C 0.53439 0.52134 -0.04864
 O29 O 0.52543 0.98482 0.04509
 O30 O 0.49687 1.03852 0.00291
 O31 O 0.46906 0.98486 0.04396
 O32 O 0.55344 1.03662 0.00479
 O33 O 0.53681 1.01175 -0.05108
 O34 O 0.45744 0.95412 -0.00781
 O35 O 0.47861 1.00731 -0.04847
 O36 O 0.51696 0.95915 -0.01051
 Cu37 Cu 0.51228 1.01430 0.02947
 Cu38 Cu 0.49586 0.98002 -0.03477
 C39 C 0.52662 0.96315 0.02436
 C40 C 0.48329 1.03248 -0.03009
 C41 C 0.44972 0.95944 0.02561
 C42 C 0.55900 1.03380 -0.03058
 O43 O 1.05738 0.55217 0.52138
 O44 O 0.99242 0.47697 0.56297
 O45 O 1.03865 0.48873 0.51683
 O46 O 1.00456 0.53419 0.57066
 O47 O 0.97631 0.53468 0.51928
 O48 O 1.01415 0.49325 0.46434
 O49 O 0.96061 0.47223 0.51298
 O50 O 1.02411 0.54940 0.47378
 Cu51 Cu 1.02765 0.51492 0.54723
 Cu52 Cu 0.98948 0.51054 0.48834
 C53 C 1.05214 0.56353 0.49059
 C54 C 0.96524 0.46163 0.54473
 C55 C 1.03284 0.48381 0.48099
 C56 C 0.98401 0.54145 0.55444
 O57 O 0.51411 0.52509 0.44037
 O58 O 0.50122 0.44847 0.48255
 O59 O 0.46539 0.46714 0.44084
 O60 O 0.54962 0.50605 0.48150
 O61 O 0.53042 0.51844 0.53394
 O62 O 0.44490 0.47604 0.49466
 O63 O 0.48202 0.45969 0.53581
 O64 O 0.49251 0.53499 0.49249
 Cu65 Cu 0.50950 0.48561 0.45595
 Cu66 Cu 0.48562 0.49857 0.51957
 C67 C 0.50460 0.54269 0.45882
 C68 C 0.49013 0.44137 0.51671
 C69 C 0.44089 0.46509 0.46053
 C70 C 0.55433 0.51830 0.51496
 O71 O 0.57257 0.04073 0.49558
 O72 O 0.49151 -0.00924 0.44825
 O73 O 0.51106 0.03686 0.49453
 O74 O 0.54522 -0.01006 0.44548
 O75 O 0.54007 -0.03753 0.49840
 O76 O 0.50175 0.00686 0.54637
 O77 O 0.47774 -0.04289 0.49718
 O78 O 0.55724 0.00860 0.54603
 Cu79 Cu 0.53321 0.01886 0.46695
 Cu80 Cu 0.51669 -0.02052 0.52608
 C81 C 0.57831 0.03376 0.52906
 C82 C 0.47087 -0.03480 0.46496
 C83 C 0.50022 0.02961 0.52871
 C84 C 0.54822 -0.03205 0.46312
 C85 C 0.14055 0.42174 0.21618
 C86 C 0.12565 0.42135 0.25161
 C87 C 0.14118 0.42232 0.28671
 C88 C 0.17238 0.42207 0.28613
 C89 C 0.18618 0.41915 0.25042
 C90 C 0.17093 0.42026 0.21532
 C91 C 0.18738 0.42151 0.18052
 C92 C 0.21659 0.41891 0.17987
 C93 C 0.23075 0.41511 0.21401
 C94 C 0.21625 0.41671 0.24975
 C95 C 0.19116 0.42641 0.31977
 C96 C 0.22045 0.42391 0.31916
 C97 C 0.23259 0.41747 0.28477
 C98 C 0.26172 0.41369 0.28399
 C99 C 0.27416 0.40978 0.24859
 C100 C 0.26001 0.41150 0.21363
 H101 H 0.17820 0.42489 0.15325
 H102 H 0.22813 0.42050 0.15219
 H103 H 0.18401 0.43255 0.34696
 H104 H 0.23372 0.42774 0.34602
 H105 H 0.10169 0.42115 0.25167
 H106 H 0.29622 0.40646 0.24818
 C107 C 0.51999 0.70015 0.20468
 C108 C 0.51584 0.68447 0.23985
 C109 C 0.52369 0.70125 0.27483
 C110 C 0.53651 0.73513 0.27471
 C111 C 0.54181 0.75159 0.23918
 C112 C 0.53330 0.73398 0.20408
 C113 C 0.53863 0.75069 0.16928
 C114 C 0.55110 0.78382 0.16886
 C115 C 0.56037 0.80196 0.20308
 C116 C 0.55567 0.78573 0.23872
 C117 C 0.54423 0.75304 0.30902
 C118 C 0.55598 0.78610 0.30867
 C119 C 0.56325 0.80332 0.27394
 C120 C 0.57673 0.83737 0.27318
 C121 C 0.58232 0.85282 0.23754
 C122 C 0.57322 0.83576 0.20280
 H123 H 0.53317 0.73839 0.14181
 H124 H 0.55340 0.79485 0.14114
 H125 H 0.54101 0.74176 0.33678
 H126 H 0.55898 0.79760 0.33630
 H127 H 0.50566 0.65852 0.24001
 H128 H 0.59233 0.87873 0.23682
 C129 C 0.17773 0.71879 0.30071
 C130 C 0.15861 0.70464 0.26780
 C131 C 0.16801 0.71880 0.23144
 C132 C 0.19823 0.74806 0.22768
 C133 C 0.21741 0.76330 0.26098
 C134 C 0.20669 0.74900 0.29766
 C135 C 0.22520 0.76529 0.33034
 C136 C 0.25464 0.79401 0.32703
 C137 C 0.26635 0.80834 0.29099
 C138 C 0.24779 0.79261 0.25755
 C139 C 0.21021 0.76219 0.19160
 C140 C 0.23998 0.79070 0.18826
 C141 C 0.25985 0.80573 0.22064
 C142 C 0.29147 0.83346 0.21716
 C143 C 0.30876 0.84919 0.25063
 C144 C 0.29649 0.83756 0.28739
 H145 H 0.21714 0.75608 0.35901
 H146 H 0.26836 0.80441 0.35321
 H147 H 0.19709 0.75117 0.16530
 H148 H 0.24718 0.80083 0.15981
 H149 H 0.13613 0.68177 0.27044
 H150 H 0.33266 0.87065 0.24809
 C151 C 0.84766 0.58605 0.73053
 C152 C 0.85535 0.58063 0.76783
 C153 C 0.83465 0.57736 0.79926
 C154 C 0.80574 0.58097 0.79361
 C155 C 0.79686 0.58552 0.75595
 C156 C 0.81780 0.58800 0.72424
 C157 C 0.80776 0.59145 0.68712
 C158 C 0.77785 0.59212 0.68122
 C159 C 0.75594 0.58799 0.71188
 C160 C 0.76631 0.58645 0.74986
 C161 C 0.78520 0.57965 0.82458
 C162 C 0.75536 0.58032 0.81861
 C163 C 0.74557 0.58438 0.78160
 C164 C 0.71517 0.58537 0.77521
 C165 C 0.70466 0.58501 0.73727
 C166 C 0.72367 0.58474 0.70549
 H167 H 0.82241 0.59293 0.66195
 H168 H 0.77189 0.59561 0.65211
 H169 H 0.79174 0.57779 0.85397
 H170 H 0.73981 0.57665 0.84356
 H171 H 0.87750 0.57792 0.77226
 H172 H 0.68045 0.58350 0.73251
 C173 C 0.45546 0.28001 0.77081
 C174 C 0.46068 0.29531 0.73519
 C175 C 0.46033 0.27962 0.70063
 C176 C 0.45500 0.24741 0.70184
 C177 C 0.44974 0.23162 0.73782
 C178 C 0.44851 0.24748 0.77209
 C179 C 0.44001 0.23027 0.80677
 C180 C 0.43705 0.19963 0.80867
 C181 C 0.44277 0.18516 0.77605
 C182 C 0.44651 0.20013 0.73977
 C183 C 0.45473 0.23046 0.66830
 C184 C 0.45232 0.19994 0.67026
 C185 C 0.44827 0.18427 0.70573
 C186 C 0.44683 0.15361 0.70838
 C187 C 0.44588 0.14052 0.74478
 C188 C 0.44486 0.15618 0.77877
 H189 H 0.43582 0.24045 0.83292
 H190 H 0.43057 0.18749 0.83612
 H191 H 0.45678 0.24067 0.64006
 H192 H 0.45436 0.18920 0.64353
 H193 H 0.46669 0.32046 0.73450
 H194 H 0.44711 0.11817 0.74658
 C195 C 0.83104 0.29746 0.79309
 C196 C 0.84568 0.31180 0.75790
 C197 C 0.83341 0.29632 0.72257
 C198 C 0.80820 0.26388 0.72220
 C199 C 0.79285 0.24883 0.75718
 C200 C 0.80261 0.26643 0.79227
 C201 C 0.78267 0.25298 0.82497
 C202 C 0.75695 0.22145 0.82463
 C203 C 0.75038 0.20182 0.79175
 C204 C 0.76717 0.21628 0.75699
 C205 C 0.79794 0.24616 0.68774
 C206 C 0.77273 0.21448 0.68746
 C207 C 0.75753 0.19873 0.72181
 C208 C 0.73233 0.16623 0.72198
 C209 C 0.71843 0.15156 0.75704
 C210 C 0.72638 0.16871 0.79192
 H211 H 0.78623 0.26692 0.85099
 H212 H 0.74206 0.21296 0.85042
 H213 H 0.80958 0.25649 0.66053
 H214 H 0.76549 0.20266 0.65981
 H215 H 0.86670 0.33577 0.75767
 H216 H 0.70027 0.12626 0.75682
 C217 C 0.07828 0.47190 0.10904
 C218 C 0.07845 0.44571 0.09149
 C219 C 0.06350 0.43396 0.05588
 C220 C 0.04715 0.44943 0.03822
 C221 C 0.04565 0.47553 0.05682
 C222 C 0.06177 0.48714 0.09240
 O223 O 0.09300 0.47889 0.14313
 C224 C 0.10244 0.45650 0.14750
 C225 C 0.09389 0.43532 0.11702
 C226 C 0.09936 0.40863 0.11729
 C227 C 0.11449 0.40388 0.15014
 C228 C 0.12458 0.42620 0.18119
 C229 C 0.11816 0.45270 0.17974
 H230 H 0.06373 0.41323 0.04264
 H231 H 0.03429 0.44015 0.01119
 H232 H 0.06040 0.50672 0.10735
 H233 H 0.09164 0.39175 0.09349
 H234 H 0.11839 0.38295 0.15149
 H235 H 0.12491 0.46971 0.20338
 C236 C 0.50949 0.60722 0.08686
 C237 C 0.48734 0.61822 0.07728
 C238 C 0.46550 0.60582 0.04626
 C239 C 0.46621 0.58073 0.02478
 C240 C 0.48823 0.56846 0.03501
 C241 C 0.51050 0.58240 0.06615
 O242 O 0.52738 0.62124 0.11793
 C243 C 0.51622 0.64147 0.12847
 C244 C 0.49160 0.64058 0.10474
 C245 C 0.47529 0.65871 0.11200
 C246 C 0.48485 0.67854 0.14492
 C247 C 0.51060 0.68015 0.16927
 C248 C 0.52633 0.66121 0.16090
 H249 H 0.44811 0.61467 0.03935
 H250 H 0.44884 0.57014 0.00120
 H251 H 0.52751 0.57354 0.07488
 H252 H 0.45555 0.65722 0.09341
 H253 H 0.47218 0.69248 0.15168
 H254 H 0.54557 0.66154 0.17947
 C255 C 0.37937 0.91702 0.09653
 C256 C 0.36813 0.88563 0.08501
 C257 C 0.38054 0.87721 0.05279
 C258 C 0.40606 0.90211 0.03199
 C259 C 0.41920 0.93463 0.04420
 C260 C 0.40521 0.94217 0.07666
 O261 O 0.36522 0.91966 0.12892
 C262 C 0.34494 0.88929 0.13824
 C263 C 0.34609 0.86754 0.11254
 C264 C 0.32973 0.83457 0.11886
 C265 C 0.31148 0.82356 0.15311
 C266 C 0.30872 0.84534 0.17952
 C267 C 0.32580 0.87877 0.17169
 H268 H 0.37149 0.85231 0.04450
 H269 H 0.41671 0.89584 0.00752
 H270 H 0.41499 0.96666 0.08701
 H271 H 0.33212 0.81801 0.09897
 H272 H 0.30014 0.79814 0.15950
 H273 H 0.32519 0.89615 0.19175
 C274 C 0.93221 0.55540 0.62921
 C275 C 0.93445 0.58406 0.61695
 C276 C 0.95292 0.60018 0.58468
 C277 C 0.96948 0.58605 0.56419
 C278 C 0.96798 0.55690 0.57689
 C279 C 0.94930 0.54152 0.61000
 O280 O 0.91217 0.54311 0.65926
 C281 C 0.90164 0.56452 0.66635
 C282 C 0.91475 0.59023 0.64161
 C283 C 0.90734 0.61565 0.64457
 C284 C 0.88549 0.61440 0.67411
 C285 C 0.87065 0.58749 0.69900
 C286 C 0.87926 0.56240 0.69511
 H287 H 0.95397 0.62246 0.57519
 H288 H 0.98349 0.59773 0.53856
 H289 H 0.94720 0.51885 0.61968
 H290 H 0.91828 0.63588 0.62514
 H291 H 0.87998 0.63425 0.67757
 H292 H 0.86872 0.54176 0.71398
 C293 C 0.46684 0.37230 0.58533
 C294 C 0.48969 0.36223 0.57501
 C295 C 0.51182 0.37567 0.54449
 C296 C 0.51063 0.40078 0.52416
 C297 C 0.48808 0.41235 0.53516
 C298 C 0.46565 0.39758 0.56599
 O299 O 0.44866 0.35701 0.61576
 C300 C 0.46047 0.33705 0.62509
 C301 C 0.48582 0.33947 0.60133
 C302 C 0.50354 0.32265 0.60797
 C303 C 0.49477 0.30261 0.64039
 C304 C 0.46794 0.29887 0.66464
 C305 C 0.45068 0.31652 0.65669
 H306 H 0.52972 0.36750 0.53700
 H307 H 0.52819 0.41207 0.50091
 H308 H 0.44833 0.40602 0.57524
 H309 H 0.52412 0.32571 0.58963
 H310 H 0.50929 0.29051 0.64708
 H311 H 0.43085 0.31504 0.67533
 C312 C 0.63479 0.08816 0.60564
 C313 C 0.66553 0.09313 0.59269
 C314 C 0.66955 0.08044 0.55789
 C315 C 0.64071 0.06166 0.53595
 C316 C 0.60887 0.05558 0.54965
 C317 C 0.60596 0.06911 0.58483
 O318 O 0.63605 0.10236 0.63905
 C319 C 0.66822 0.11648 0.64768
 C320 C 0.68744 0.11139 0.62060
 C321 C 0.72168 0.12301 0.62524
 C322 C 0.73657 0.14075 0.65891
 C323 C 0.71729 0.14731 0.68634
 C324 C 0.68257 0.13459 0.68062
 H325 H 0.69393 0.08470 0.54809
 H326 H 0.64298 0.05113 0.50904
 H327 H 0.58183 0.06473 0.59579
 H328 H 0.73629 0.11821 0.60402
 H329 H 0.76300 0.14951 0.66359
 H330 H 0.66713 0.13868 0.70141
 C331 C 0.45243 0.07303 0.89913
 C332 C 0.47093 0.10450 0.91081
 C333 C 0.49118 0.11343 0.94322
 C334 C 0.49310 0.08900 0.96401
 C335 C 0.47561 0.05644 0.95162
 C336 C 0.45446 0.04832 0.91902
 O337 O 0.43595 0.07000 0.86655
 C338 C 0.44462 0.10024 0.85729
 C339 C 0.46631 0.12222 0.88322
 C340 C 0.48163 0.15516 0.87705
 C341 C 0.47424 0.16593 0.84277
 C342 C 0.45062 0.14401 0.81615
 C343 C 0.43569 0.11053 0.82377
 H344 H 0.50570 0.13840 0.95161
 H345 H 0.50970 0.09576 0.98855
 H346 H 0.44120 0.02381 0.90849
 H347 H 0.49979 0.17190 0.89707
 H348 H 0.48758 0.19140 0.83658
 H349 H 0.41847 0.09297 0.80366
 C350 C 0.59793 0.54880 0.87400
 C351 C 0.62554 0.57071 0.89386
 C352 C 0.62457 0.57703 0.93285
 C353 C 0.59396 0.55996 0.95212
 C354 C 0.56467 0.53848 0.93178
 C355 C 0.56676 0.53341 0.89184
 O356 O 0.60495 0.54317 0.83857
 C357 C 0.63760 0.56229 0.83582
 C358 C 0.65127 0.58033 0.86844
 C359 C 0.68495 0.60246 0.87128
 C360 C 0.70546 0.60549 0.83952
 C361 C 0.69262 0.58479 0.80704
 C362 C 0.65785 0.56354 0.80494
 H363 H 0.64684 0.59353 0.94823
 H364 H 0.59297 0.56404 0.98271
 H365 H 0.54529 0.51628 0.87572
 H366 H 0.69504 0.61700 0.89689
 H367 H 0.73160 0.62312 0.84080
 H368 H 0.64695 0.54762 0.78055
 C369 C 0.90600 0.40013 0.90543
 C370 C 0.89590 0.37122 0.92366
 C371 C 0.90280 0.36918 0.96222
 C372 C 0.92092 0.39813 0.98270
 C373 C 0.93349 0.42830 0.96382
 C374 C 0.92593 0.42907 0.92441
 O375 O 0.89506 0.39694 0.86950
 C376 C 0.87819 0.36530 0.86468
 C377 C 0.87863 0.34843 0.89656
 C378 C 0.86488 0.31512 0.89648
 C379 C 0.85001 0.29863 0.86222
 C380 C 0.84691 0.31521 0.82965
 C381 C 0.86152 0.34928 0.83133
 H382 H 0.89403 0.34617 0.97622
 H383 H 0.92625 0.39694 1.01283
 H384 H 0.93424 0.45157 0.90926
 H385 H 0.86665 0.30237 0.92140
 H386 H 0.84115 0.27294 0.86108
 H387 H 0.86026 0.36317 0.80734
 C388 C 0.56453 0.92548 0.38310
 C389 C 0.58003 0.91064 0.40197
 C390 C 0.58534 0.91354 0.44158
 C391 C 0.57412 0.93238 0.46234
 C392 C 0.55963 0.94923 0.44295
 C393 C 0.55535 0.94591 0.40256
 O394 O 0.55818 0.91692 0.34648
 C395 C 0.57036 0.89657 0.34184
 C396 C 0.58486 0.89245 0.37450
 C397 C 0.59998 0.87274 0.37514
 C398 C 0.59931 0.85613 0.34103
 C399 C 0.58146 0.85757 0.30825
 C400 C 0.56767 0.87893 0.30867
 H401 H 0.59661 0.90086 0.45615
 H402 H 0.57738 0.93436 0.49328
 H403 H 0.54323 0.95730 0.38687
 H404 H 0.61210 0.87046 0.40080
 H405 H 0.61172 0.84138 0.34052
 H406 H 0.55426 0.88111 0.28414
 C407 C 0.37411 0.44871 0.38801
 C408 C 0.34609 0.42652 0.40696
 C409 C 0.34737 0.41614 0.44409
 C410 C 0.37878 0.42921 0.46219
 C411 C 0.40788 0.45138 0.44246
 C412 C 0.40542 0.46116 0.40491
 O413 O 0.36781 0.45620 0.35349
 C414 C 0.33511 0.43820 0.35026
 C415 C 0.32050 0.41927 0.38188
 C416 C 0.28651 0.39769 0.38345
 C417 C 0.26699 0.39566 0.35113
 C418 C 0.28156 0.41582 0.31881
 C419 C 0.31616 0.43727 0.31861
 H420 H 0.32504 0.39889 0.45868
 H421 H 0.38056 0.42178 0.49113
 H422 H 0.42725 0.47847 0.38952
 H423 H 0.27555 0.38258 0.40829
 H424 H 0.24069 0.37844 0.35114
 H425 H 0.32809 0.45266 0.29419
 C426 C 0.09734 0.63361 0.42417
 C427 C 0.12980 0.63984 0.42967
 C428 C 0.13873 0.62392 0.45710
 C429 C 0.11304 0.60008 0.47906
 C430 C 0.07924 0.59229 0.47264
 C431 C 0.07148 0.60987 0.44533
 O432 O 0.09383 0.65011 0.39540
 C433 C 0.12468 0.66690 0.38215
 C434 C 0.14763 0.66134 0.40188
 C435 C 0.18079 0.67410 0.39042
 C436 C 0.19061 0.69333 0.35733
 C437 C 0.16759 0.70017 0.33713
 C438 C 0.13412 0.68665 0.34989
 H439 H 0.16440 0.62897 0.46066
 H440 H 0.11931 0.58657 0.49954
 H441 H 0.04591 0.60423 0.43942
 H442 H 0.19817 0.66854 0.40559
 H443 H 0.21596 0.70246 0.34700
 H444 H 0.11575 0.69060 0.33442
 C445 C 0.90797 0.56170 0.92796
 C446 C 0.87488 0.53957 0.93234
 C447 C 0.86391 0.51511 0.95945
 C448 C 0.88814 0.51276 0.98214
 C449 C 0.92255 0.53420 0.97661
 C450 C 0.93246 0.55953 0.94981
 O451 O 0.91341 0.58178 0.89901
 C452 C 0.88318 0.57187 0.88445
 C453 C 0.85877 0.54589 0.90351
 C454 C 0.82612 0.52925 0.89024
 C455 C 0.81835 0.53991 0.85606
 C456 C 0.84274 0.56751 0.83670
 C457 C 0.87568 0.58360 0.85126
 H458 H 0.83778 0.49773 0.96204
 H459 H 0.88024 0.49297 1.00214
 H460 H 0.95856 0.57586 0.94446
 H461 H 0.80767 0.50801 0.90477
 H462 H 0.79348 0.52635 0.84425
 H463 H 0.89517 0.60395 0.83639
 C464 C 0.45700 0.37326 0.88382
 C465 C 0.47777 0.36167 0.89688
 C466 C 0.49721 0.37355 0.92979
 C467 C 0.49550 0.39872 0.94975
 C468 C 0.47485 0.41165 0.93630
 C469 C 0.45501 0.39831 0.90307
 O470 O 0.44150 0.35947 0.85130
 C471 C 0.45287 0.33881 0.84351
 C472 C 0.47523 0.33929 0.87043
 C473 C 0.49167 0.32095 0.86671
 C474 C 0.48473 0.30129 0.83395
 C475 C 0.46119 0.29981 0.80617
 C476 C 0.44519 0.31904 0.81106
 H477 H 0.51355 0.36417 0.93937
 H478 H 0.51100 0.40873 0.97496
 H479 H 0.43920 0.40772 0.89182
 H480 H 0.50975 0.32228 0.88779
 H481 H 0.49797 0.28749 0.82989
 H482 H 0.42774 0.31898 0.78989
 C483 C 0.62041 0.08250 0.89553
 C484 C 0.64881 0.09842 0.91734
 C485 C 0.64889 0.09452 0.95703
 C486 C 0.61847 0.07338 0.97476
 C487 C 0.58928 0.05539 0.95235
 C488 C 0.59066 0.06004 0.91203
 O489 O 0.62468 0.09117 0.85893
 C490 C 0.65664 0.11271 0.85732
 C491 C 0.67286 0.11757 0.89196
 C492 C 0.70699 0.13785 0.89576
 C493 C 0.72484 0.15387 0.86260
 C494 C 0.70807 0.15105 0.82716
 C495 C 0.67339 0.12976 0.82480
 H496 H 0.67132 0.10782 0.97385
 H497 H 0.61794 0.07039 1.00567
 H498 H 0.56878 0.04760 0.89402
 H499 H 0.71955 0.14061 0.92300
 H500 H 0.75163 0.16862 0.86460
 H501 H 0.65965 0.12653 0.79834
 C502 C 0.06923 0.45988 0.39943
 C503 C 0.07828 0.43932 0.41749
 C504 C 0.07337 0.43288 0.45669
 C505 C 0.05865 0.44836 0.47803
 C506 C 0.04755 0.46847 0.45962
 C507 C 0.05263 0.47382 0.41948
 O508 O 0.07882 0.46519 0.36292
 C509 C 0.09383 0.44722 0.35764
 C510 C 0.09351 0.43027 0.38978
 C511 C 0.10664 0.40892 0.38978
 C512 C 0.12105 0.40531 0.35542
 C513 C 0.12419 0.42456 0.32276
 C514 C 0.10970 0.44541 0.32405
 H515 H 0.08145 0.41726 0.47055
 H516 H 0.05522 0.44403 0.50870
 H517 H 0.04554 0.48978 0.40458
 H518 H 0.10527 0.39508 0.41508
 H519 H 0.13018 0.38786 0.35443
 H520 H 0.11107 0.46020 0.29971
 C521 C 0.52259 0.60872 0.38696
 C522 C 0.50305 0.62141 0.40139
 C523 C 0.48505 0.61074 0.43545
 C524 C 0.48689 0.58567 0.45510
 C525 C 0.50612 0.57151 0.44021
 C526 C 0.52452 0.58360 0.40579
 O527 O 0.53705 0.62167 0.35375
 C528 C 0.52626 0.64285 0.34693
 C529 C 0.50519 0.64353 0.37503
 C530 C 0.48945 0.66260 0.37232
 C531 C 0.49577 0.68178 0.33937
 C532 C 0.51818 0.68216 0.31054
 C533 C 0.53341 0.66219 0.31443
 H534 H 0.46970 0.62096 0.44619
 H535 H 0.47241 0.57660 0.48118
 H536 H 0.53923 0.57324 0.39346
 H537 H 0.47232 0.66217 0.39432
 H538 H 0.48307 0.69610 0.33605
 H539 H 0.54990 0.66135 0.29237
 C540 C 0.40684 0.91173 0.39325
 C541 C 0.37831 0.91033 0.40890
 C542 C 0.37828 0.92522 0.44366
 C543 C 0.40896 0.94244 0.46280
 C544 C 0.43867 0.94487 0.44653
 C545 C 0.43761 0.92928 0.41136
 O546 O 0.40154 0.89584 0.36018
 C547 C 0.36901 0.88433 0.35464
 C548 C 0.35365 0.89276 0.38336
 C549 C 0.31994 0.88448 0.38222
 C550 C 0.30134 0.86659 0.35035
 C551 C 0.31634 0.85648 0.32113
 C552 C 0.35082 0.86587 0.32329
 H553 H 0.35555 0.92376 0.45548
 H554 H 0.40980 0.95461 0.48965
 H555 H 0.46012 0.93098 0.39843
 H556 H 0.30851 0.89196 0.40471
 H557 H 0.27524 0.86050 0.34839
 H558 H 0.36313 0.85906 0.30111
 C559 C 0.54158 0.91352 0.09783
 C560 C 0.56216 0.90450 0.07807
 C561 C 0.57123 0.91303 0.03980
 C562 C 0.55877 0.93179 0.02151
 C563 C 0.53839 0.94204 0.04202
 C564 C 0.52967 0.93260 0.08062
 O565 O 0.53511 0.90253 0.13348
 C566 C 0.55212 0.88633 0.13659
 C567 C 0.56946 0.88694 0.10377
 C568 C 0.58966 0.87208 0.10170
 C569 C 0.59164 0.85573 0.13460
 C570 C 0.57276 0.85379 0.16807
 C571 C 0.55315 0.86974 0.16900
 H572 H 0.58722 0.90551 0.02459
 H573 H 0.56557 0.93894 -0.00811
 H574 H 0.51384 0.93979 0.09681
 H575 H 0.60354 0.87322 0.07586
 H576 H 0.60741 0.84426 0.13395
 H577 H 0.53882 0.86902 0.19432
 C578 C 0.36680 0.44276 0.10123
 C579 C 0.33802 0.41889 0.08523
 C580 C 0.33712 0.40715 0.04809
 C581 C 0.36700 0.42073 0.02671
 C582 C 0.39697 0.44485 0.04316
 C583 C 0.39679 0.45579 0.08103
 O584 O 0.36233 0.45172 0.13602
 C585 C 0.33008 0.43300 0.14237
 C586 C 0.31399 0.41218 0.11249
 C587 C 0.28015 0.39005 0.11389
 C588 C 0.26233 0.38951 0.14737
 C589 C 0.27827 0.41167 0.17788
 C590 C 0.31274 0.43347 0.17521
 H591 H 0.31416 0.38867 0.03580
 H592 H 0.36691 0.41243 -0.00245
 H593 H 0.41917 0.47471 0.09392
 H594 H 0.26803 0.37355 0.09031
 H595 H 0.23619 0.37203 0.14956
 H596 H 0.32572 0.45042 0.19816
 C597 C 0.07942 0.61737 0.12553
 C598 C 0.08004 0.64560 0.11434
 C599 C 0.06174 0.64718 0.08311
 C600 C 0.04209 0.61853 0.06268
 C601 C 0.04054 0.58914 0.07443
 C602 C 0.05938 0.58856 0.10633
 O603 O 0.09912 0.62105 0.15528
 C604 C 0.11233 0.65221 0.16328
 C605 C 0.10127 0.66833 0.13940
 C606 C 0.11101 0.70093 0.14392
 C607 C 0.13300 0.71749 0.17423
 C608 C 0.14568 0.70161 0.19841
 C609 C 0.13489 0.66838 0.19276
 H610 H 0.06277 0.66966 0.07459
 H611 H 0.02778 0.61906 0.03812
 H612 H 0.05883 0.56640 0.11548
 H613 H 0.10149 0.71302 0.12529
 H614 H 0.14003 0.74259 0.17907
 H615 H 0.14359 0.65541 0.21112
 C616 C 0.48438 0.07886 0.60304
 C617 C 0.45874 0.08201 0.58613
 C618 C 0.44600 0.06906 0.55007
 C619 C 0.46027 0.05218 0.53083
 C620 C 0.48603 0.04798 0.54836
 C621 C 0.49818 0.06143 0.58497
 O622 O 0.49354 0.09362 0.63683
 C623 C 0.47311 0.10618 0.64157
 C624 C 0.45104 0.09952 0.61165
 C625 C 0.42664 0.10944 0.61168
 C626 C 0.42509 0.12701 0.64378
 C627 C 0.44850 0.13524 0.67423
 C628 C 0.47264 0.12436 0.67304
 H629 H 0.42602 0.07205 0.53714
 H630 H 0.45093 0.04189 0.50271
 H631 H 0.51810 0.05878 0.59867
 H632 H 0.40911 0.10343 0.58818
 H633 H 0.40580 0.13431 0.64495
 H634 H 0.49052 0.12982 0.69609
 C635 C 0.62785 0.56072 0.58170
 C636 C 0.64515 0.54413 0.57315
 C637 C 0.63560 0.52113 0.54411
 C638 C 0.60665 0.51447 0.52343
 C639 C 0.58739 0.53005 0.53286
 C640 C 0.59845 0.55389 0.56208
 O641 O 0.64023 0.58028 0.61180
 C642 C 0.66550 0.57550 0.62281
 C643 C 0.66923 0.55329 0.60038
 C644 C 0.69082 0.54122 0.60982
 C645 C 0.70911 0.55228 0.64396
 C646 C 0.70697 0.57628 0.66703
 C647 C 0.68492 0.58824 0.65573
 H648 H 0.64942 0.50814 0.53827
 H649 H 0.59825 0.49586 0.50151
 H650 H 0.58394 0.56574 0.57028
 H651 H 0.69204 0.52252 0.59276
 H652 H 0.72395 0.54113 0.65313
 H653 H 0.68164 0.60569 0.67308
 C654 C 0.92018 0.39073 0.61032
 C655 C 0.88777 0.37956 0.59833
 C656 C 0.87923 0.39298 0.56758
 C657 C 0.90513 0.41928 0.54882
 C658 C 0.93864 0.43180 0.56146
 C659 C 0.94617 0.41687 0.59231
 O660 O 0.92296 0.37573 0.64113
 C661 C 0.89158 0.35474 0.64903
 C662 C 0.86903 0.35616 0.62384
 C663 C 0.83472 0.33802 0.62863
 C664 C 0.82325 0.31780 0.66079
 C665 C 0.84605 0.31557 0.68688
 C666 C 0.88075 0.33432 0.68067
 H667 H 0.85350 0.38398 0.55888
 H668 H 0.89892 0.43057 0.52544
 H669 H 0.97142 0.42594 0.60289
 H670 H 0.81741 0.34015 0.60906
 H671 H 0.79664 0.30441 0.66594
 H672 H 0.89874 0.33376 0.70058
   
