data_POSCAR
  _audit_creation_date              2014-09-24
  _audit_creation_method            'ToBaCCo'
  _symmetry_space_group_name_H-M    'P1'
  _symmetry_Int_Tables_number       1
  _symmetry_cell_setting            triclinic
  loop_
  _symmetry_equiv_pos_as_xyz
 x,y,z
_cell_length_a 34.1999
_cell_length_b 34.6783
_cell_length_c 31.9348
_cell_angle_alpha 88.220700
_cell_angle_beta 87.904600
_cell_angle_gamma 89.680100
loop_
  _atom_site_label
  _atom_site_type_symbol
  _atom_site_fract_x
  _atom_site_fract_y
  _atom_site_fract_z
C1 C 0.14278 0.18943 0.15924
 C2 C 0.14289 0.20967 0.12045
 C3 C 0.16814 0.19877 0.08804
 C4 C 0.19403 0.16796 0.09419
 C5 C 0.19454 0.14846 0.13261
 C6 C 0.16852 0.15906 0.16530
 C7 C 0.12331 0.19518 0.19709
 N8 N 0.13646 0.16905 0.22598
 C9 C 0.16440 0.14691 0.20671
 C10 C 0.22634 0.12401 0.13148
 N11 N 0.24524 0.12854 0.09333
 C12 C 0.22523 0.15495 0.07024
 C13 C 0.16556 0.22611 0.05608
 N14 N 0.13995 0.25371 0.06861
 C15 C 0.12552 0.24368 0.10770
 H16 H 0.10155 0.21728 0.20333
 H17 H 0.18107 0.12394 0.22131
 H18 H 0.23577 0.10605 0.15752
 H19 H 0.23432 0.16590 0.03927
 H20 H 0.18309 0.22736 0.02713
 H21 H 0.10529 0.26074 0.12637
 C22 C -0.12592 0.81690 0.22547
 C23 C -0.12608 0.78430 0.20067
 C24 C -0.15702 0.77821 0.17535
 C25 C -0.18818 0.80433 0.17431
 C26 C -0.18845 0.83669 0.19863
 C27 C -0.15667 0.84317 0.22464
 C28 C -0.09960 0.82944 0.25333
 N29 N -0.11302 0.86279 0.26978
 C30 C -0.14802 0.87160 0.25238
 C31 C -0.22312 0.85614 0.19087
 N32 N -0.24331 0.83600 0.16255
 C33 C -0.22190 0.80444 0.15249
 C34 C -0.14973 0.74466 0.15475
 N35 N -0.11485 0.73001 0.16701
 C36 C -0.10016 0.75416 0.19511
 H37 H -0.07251 0.81511 0.26127
 H38 H -0.16622 0.89633 0.25945
 H39 H -0.23263 0.88269 0.20503
 H40 H -0.23041 0.78282 0.13083
 H41 H -0.16857 0.73240 0.13227
 H42 H -0.07257 0.75010 0.21026
 C43 C -0.16986 0.17712 -0.19320
 C44 C -0.16799 0.20104 -0.15866
 C45 C -0.19420 0.19601 -0.12503
 C46 C -0.22271 0.16744 -0.12551
 C47 C -0.22483 0.14389 -0.15945
 C48 C -0.19808 0.14870 -0.19356
 C49 C -0.14927 0.17643 -0.23101
 N50 N -0.16424 0.14810 -0.25434
 C51 C -0.19414 0.13116 -0.23155
 C52 C -0.25718 0.12081 -0.15235
 N53 N -0.27465 0.13023 -0.11496
 C54 C -0.25355 0.15859 -0.09844
 C55 C -0.18766 0.22451 -0.09732
 N56 N -0.15832 0.24712 -0.11336
 C57 C -0.14582 0.23285 -0.15084
 H58 H -0.12546 0.19554 -0.24044
 H59 H -0.21202 0.10791 -0.24205
 H60 H -0.26762 0.09989 -0.17369
 H61 H -0.26084 0.17262 -0.06930
 H62 H -0.20413 0.22948 -0.06836
 H63 H -0.12305 0.24498 -0.17154
 C64 C 0.15454 0.84673 -0.19488
 C65 C 0.15350 0.81264 -0.16934
 C66 C 0.18013 0.80791 -0.13781
 C67 C 0.20791 0.83626 -0.13118
 C68 C 0.20896 0.86938 -0.15609
 C69 C 0.18222 0.87469 -0.18799
 C70 C 0.13370 0.85987 -0.22901
 N71 N 0.14839 0.89487 -0.24259
 C72 C 0.17799 0.90380 -0.21755
 C73 C 0.24015 0.89078 -0.14412
 N74 N 0.25822 0.87130 -0.11265
 C75 C 0.23847 0.83782 -0.10433
 C76 C 0.17402 0.77247 -0.11885
 N77 N 0.14436 0.75494 -0.13755
 C78 C 0.13139 0.77915 -0.16864
 H79 H 0.11020 0.84463 -0.24297
 H80 H 0.19559 0.92968 -0.22086
 H81 H 0.24976 0.91809 -0.15820
 H82 H 0.24613 0.81556 -0.08157
 H83 H 0.19042 0.75997 -0.09336
 H84 H 0.10821 0.77285 -0.18951
 C85 C 0.18329 1.14220 0.83660
 C86 C 0.20786 1.14096 0.87062
 C87 C 0.20866 1.17144 0.89749
 C88 C 0.18433 1.20378 0.89058
 C89 C 0.16000 1.20491 0.85682
 C90 C 0.15961 1.17391 0.82955
 C91 C 0.17897 1.11770 0.80412
 N92 N 0.15335 1.13372 0.77713
 C93 C 0.14117 1.16821 0.79260
 C94 C 0.14126 1.24016 0.85641
 N95 N 0.15347 1.26070 0.88919
 C96 C 0.17983 1.23856 0.91014
 C97 C 0.23773 1.16317 0.92537
 N98 N 0.25443 1.12869 0.91575
 C99 C 0.23607 1.11492 0.88232
 H100 H 0.19432 1.09062 0.79975
 H101 H 0.12125 1.18839 0.77801
 H102 H 0.12076 1.24986 0.83331
 H103 H 0.19507 1.24733 0.93741
 H104 H 0.24714 1.18161 0.94979
 H105 H 0.24344 1.08873 0.86627
 C106 C 0.79902 0.84090 0.74753
 C107 C 0.77124 0.83759 0.78079
 C108 C 0.77100 0.80538 0.80776
 C109 C 0.79889 0.77574 0.80134
 C110 C 0.82573 0.77918 0.76801
 C111 C 0.82576 0.81163 0.74124
 C112 C 0.80787 0.86981 0.71808
 N113 N 0.83955 0.85831 0.69443
 C114 C 0.85028 0.82265 0.70830
 C115 C 0.85022 0.74793 0.76936
 N116 N 0.83955 0.72509 0.80288
 C117 C 0.80791 0.74168 0.82278
 C118 C 0.74082 0.81077 0.83710
 N119 N 0.72302 0.84518 0.82813
 C120 C 0.74157 0.86159 0.79391
 H121 H 0.79292 0.89727 0.71512
 H122 H 0.87512 0.80638 0.69615
 H123 H 0.87483 0.74263 0.74793
 H124 H 0.79297 0.73062 0.85104
 H125 H 0.73221 0.79081 0.86242
 H126 H 0.73374 0.88905 0.77938
 C127 C 0.17129 0.82620 1.23257
 C128 C 0.20358 0.81993 1.20518
 C129 C 0.20268 0.79064 1.17670
 C130 C 0.16931 0.76715 1.17529
 C131 C 0.13769 0.77342 1.20252
 C132 C 0.13867 0.80306 1.23114
 C133 C 0.16378 0.85249 1.26336
 N134 N 0.12724 0.84572 1.28049
 C135 C 0.11185 0.81551 1.26085
 C136 C 0.10970 0.74654 1.19499
 N137 N 0.12316 0.72405 1.16363
 C138 C 0.15972 0.73633 1.15131
 C139 C 0.23801 0.79146 1.15443
 N140 N 0.26020 0.82038 1.16861
 C141 C 0.23926 0.83796 1.19973
 H142 H 0.18365 0.87474 1.27215
 H143 H 0.08308 0.80344 1.26768
 H144 H 0.08146 0.74348 1.21119
 H145 H 0.17832 0.72361 1.12729
 H146 H 0.24696 0.77238 1.12960
 H147 H 0.24891 0.86205 1.21734
 C148 C 0.85124 1.12655 1.16765
 C149 C 0.81615 1.12415 1.14694
 C150 C 0.80398 1.15428 1.12104
 C151 C 0.82771 1.18731 1.11510
 C152 C 0.86243 1.18948 1.13596
 C153 C 0.87403 1.15916 1.16273
 C154 C 0.86642 1.10408 1.19922
 N155 N 0.89725 1.12272 1.21462
 C156 C 0.90262 1.15631 1.19197
 C157 C 0.87829 1.22515 1.12704
 N158 N 0.85437 1.24506 1.10096
 C159 C 0.82332 1.22217 1.09356
 C160 C 0.76654 1.14532 1.10955
 N161 N 0.75621 1.11072 1.12820
 C162 C 0.78650 1.09775 1.15085
 H163 H 0.85368 1.07774 1.21263
 H164 H 0.92370 1.17843 1.19790
 H165 H 0.90545 1.23542 1.13881
 H166 H 0.79909 1.23049 1.07428
 H167 H 0.74792 1.16349 1.09060
 H168 H 0.78627 1.07162 1.17035
 N169 N 0.45127 0.99256 0.95534
 N170 N 0.41895 0.99035 0.93395
 N171 N 0.53255 1.02942 0.96598
 N172 N 0.56110 1.05248 0.95244
 N173 N 0.53333 0.99743 0.94506
 N174 N 0.56225 0.99788 0.91655
 N175 N 0.45096 1.02422 0.97678
 N176 N 0.41879 1.04433 0.97075
 C177 C 0.39904 1.02296 0.94403
 C178 C 0.57916 1.03247 0.92148
 N179 N 0.54260 1.02856 1.08723
 N180 N 0.57455 1.04041 1.10515
 N181 N 0.45597 1.04246 1.06303
 N182 N 0.42191 1.06044 1.06335
 N183 N 0.46032 1.02281 1.09836
 N184 N 0.42938 1.02706 1.12375
 N185 N 0.53735 1.04847 1.05224
 N186 N 0.56488 1.07453 1.04558
 Mn187 Mn 0.49418 1.03648 1.01443
 C188 C 0.58786 1.06929 1.07865
 C189 C 0.40587 1.05080 1.10157
 N190 N 0.54086 0.91662 0.96727
 N191 N 0.56864 0.90740 0.93950
 N192 N 0.46215 0.89155 1.01224
 N193 N 0.43104 0.86910 1.01839
 N194 N 0.45927 0.91201 0.97716
 N195 N 0.42668 0.90425 0.95873
 N196 N 0.54463 0.89637 1.00237
 N197 N 0.57505 0.87283 0.99939
 Mn198 Mn 0.49623 0.95451 0.96075
 C199 C 0.58979 0.88011 0.96004
 C200 C 0.40934 0.87737 0.98441
 N201 N 0.46713 0.94204 1.12055
 N202 N 0.43608 0.94280 1.14644
 N203 N 0.55021 0.91541 1.08977
 N204 N 0.58276 0.89609 1.09781
 N205 N 0.54907 0.94773 1.11021
 N206 N 0.58034 0.95127 1.13261
 N207 N 0.46768 0.91007 1.09945
 N208 N 0.43706 0.88848 1.11032
 Mn209 Mn 0.50489 0.98538 1.10464
 Mn210 Mn 0.50626 0.90274 1.05117
 Cl211 Cl 0.50048 0.96969 1.03277
 C212 C 0.41782 0.90906 1.13997
 C213 C 0.60111 0.91898 1.12473
 N214 N 0.04491 0.46764 0.04216
 N215 N 0.05397 0.43934 0.06842
 N216 N 0.06131 0.54910 0.00649
 N217 N 0.08597 0.57795 0.00873
 N218 N 0.03684 0.54790 0.03919
 N219 N 0.04459 0.57589 0.06485
 N220 N 0.06836 0.46795 0.00866
 N221 N 0.09385 0.43916 0.01105
 C222 C 0.08438 0.42188 0.04876
 C223 C 0.07514 0.59455 0.04503
 N224 N 0.02254 0.54851 -0.10656
 N225 N 0.02085 0.57984 -0.13108
 N226 N 0.06011 0.46840 -0.08110
 N227 N 0.08260 0.43747 -0.08447
 N228 N 0.03113 0.46724 -0.10693
 N229 N 0.03333 0.43536 -0.12857
 N230 N 0.05274 0.54977 -0.08241
 N231 N 0.07223 0.58219 -0.08964
 Mn232 Mn 0.06113 0.50866 -0.03725
 C233 C 0.05217 0.60053 -0.12029
 C234 C 0.06579 0.41731 -0.11458
 N235 N -0.04729 0.53878 0.05164
 N236 N -0.05306 0.56832 0.07623
 N237 N -0.06667 0.45391 0.02848
 N238 N -0.08536 0.42118 0.03651
 N239 N -0.03791 0.45788 0.05412
 N240 N -0.03613 0.42763 0.08020
 N241 N -0.07724 0.53431 0.02771
 N242 N -0.10418 0.56081 0.03522
 Mn243 Mn -0.00090 0.50332 0.04727
 C244 C -0.08876 0.58165 0.06560
 C245 C -0.06604 0.40513 0.06896
 N246 N -0.05173 0.45945 -0.09477
 N247 N -0.05445 0.43045 -0.12011
 N248 N -0.08573 0.53467 -0.06086
 N249 N -0.11431 0.56024 -0.06128
 N250 N -0.06164 0.53986 -0.09350
 N251 N -0.07352 0.56928 -0.11730
 N252 N -0.07486 0.45434 -0.06136
 N253 N -0.09399 0.42144 -0.06308
 Mn254 Mn -0.01494 0.50408 -0.10102
 Mn255 Mn -0.07652 0.49402 -0.01644
 Cl256 Cl -0.00779 0.50260 -0.02685
 C257 C -0.08082 0.40706 -0.10005
 C258 C -0.10649 0.58156 -0.09653
 N259 N 0.94473 0.10580 0.52950
 N260 N 0.91922 0.11189 0.56069
 N261 N 0.99044 0.12583 0.44485
 N262 N 0.99836 0.14472 0.40896
 N263 N 0.95937 0.10415 0.44199
 N264 N 0.94571 0.10724 0.40405
 N265 N 0.97531 0.12823 0.53203
 N266 N 0.97135 0.15024 0.56490
 C267 C 0.93614 0.14002 0.58221
 C268 C 0.97001 0.13287 0.38396
 N269 N 1.09410 0.08067 0.46568
 N270 N 1.12002 0.07693 0.43434
 N271 N 1.05629 0.11405 0.54604
 N272 N 1.05788 0.13752 0.57756
 N273 N 1.07719 0.08280 0.55312
 N274 N 1.09366 0.08425 0.58989
 N275 N 1.07202 0.11125 0.45910
 N276 N 1.08242 0.12898 0.42324
 Mn277 Mn 1.02364 0.12029 0.49534
 C278 C 1.11273 0.10750 0.40841
 C279 C 1.08128 0.11873 0.60456
 N280 N 0.94447 0.02307 0.44368
 N281 N 0.92073 0.01975 0.41233
 N282 N 0.95163 -0.00735 0.53439
 N283 N 0.93563 -0.03179 0.56221
 N284 N 0.93002 0.02390 0.53071
 N285 N 0.89854 0.02146 0.55591
 N286 N 0.96681 -0.00769 0.44745
 N287 N 0.95860 -0.03287 0.41879
 Mn288 Mn 0.94424 0.06447 0.48660
 C289 C 0.93013 -0.01503 0.39676
 C290 C 0.90267 -0.01342 0.57551
 N291 N 1.06320 -0.00013 0.55493
 N292 N 1.08173 -0.01228 0.58859
 N293 N 1.04914 -0.02199 0.46231
 N294 N 1.05620 -0.04646 0.43206
 N295 N 1.08013 -0.00086 0.46806
 N296 N 1.10904 -0.01022 0.44178
 N297 N 1.03270 -0.02201 0.54924
 N298 N 1.02953 -0.04930 0.57888
 Mn299 Mn 1.07915 0.04063 0.51082
 Mn300 Mn 1.00008 -0.01514 0.49816
 Cl301 Cl 1.01179 0.05244 0.49777
 C302 C 1.06004 -0.04280 0.60339
 C303 C 1.09372 -0.03865 0.41959
 C304 C 1.12293 0.16685 0.26675
 C305 C 1.13654 0.14145 0.29536
 C306 C 1.11938 0.13926 0.33847
 C307 C 1.13189 0.11302 0.36660
 H308 H 1.15981 0.12151 0.28726
 H309 H 1.09533 0.15838 0.34681
 H310 H 1.09975 0.18649 0.27649
 H311 H 1.15555 0.09356 0.35802
 C312 C 0.90667 -0.11817 0.29920
 C313 C 0.89507 -0.08453 0.31518
 C314 C 0.91800 -0.06694 0.34796
 C315 C 0.90896 -0.03221 0.36254
 H316 H 0.86901 -0.06996 0.30457
 H317 H 0.94245 -0.08290 0.36070
 H318 H 0.93355 -0.13104 0.31032
 H319 H 0.88481 -0.01601 0.34958
 C320 C 0.84742 0.13731 0.70642
 C321 C 0.87698 0.15414 0.68415
 C322 C 0.88941 0.14017 0.64260
 C323 C 0.92068 0.15523 0.62197
 H324 H 0.89295 0.17780 0.69651
 H325 H 0.87375 0.11654 0.62949
 H326 H 0.83226 0.11364 0.69269
 H327 H 0.93671 0.17833 0.63558
 C328 C 1.13773 -0.08175 0.72450
 C329 C 1.10825 -0.08920 0.69946
 C330 C 1.09951 -0.06231 0.66399
 C331 C 1.06907 -0.06806 0.63991
 H332 H 1.09057 -0.11479 0.70469
 H333 H 1.11837 -0.03768 0.65735
 H334 H 1.15413 -0.05535 0.71821
 H335 H 1.05010 -0.09254 0.64679
 C336 C 0.28016 1.11332 1.08024
 C337 C 0.30272 1.09178 1.10519
 C338 C 0.34199 1.08009 1.09038
 C339 C 0.36637 1.06186 1.11602
 H340 H 0.29345 1.08415 1.13709
 H341 H 0.35135 1.08714 1.05825
 H342 H 0.29118 1.12070 1.04870
 H343 H 0.35705 1.05440 1.14804
 C344 C 0.29163 0.88370 0.90442
 C345 C 0.31074 0.86412 0.93443
 C346 C 0.34873 0.87874 0.94711
 C347 C 0.37029 0.86177 0.97675
 H348 H 0.29966 0.83735 0.94838
 H349 H 0.35994 0.90434 0.93046
 H350 H 0.30409 0.91067 0.89212
 H351 H 0.35950 0.83683 0.99479
 C352 C 0.72126 0.84372 1.14581
 C353 C 0.69918 0.87448 1.15497
 C354 C 0.66106 0.88032 1.13524
 C355 C 0.63914 0.91124 1.14355
 H356 H 0.70885 0.89542 1.17673
 H357 H 0.65094 0.85933 1.11367
 H358 H 0.71023 0.82364 1.12367
 H359 H 0.64953 0.93222 1.16496
 C360 C 0.69172 1.11631 0.90358
 C361 C 0.67049 1.08846 0.88761
 C362 C 0.63411 1.07606 0.90961
 C363 C 0.61447 1.04540 0.89790
 H364 H 0.67963 1.07457 0.85899
 H365 H 0.62366 1.09188 0.93661
 H366 H 0.68152 1.12861 0.93291
 H367 H 0.62522 1.02871 0.87171
 C368 C 0.13305 0.28922 0.04576
 C369 C 0.12551 0.32165 0.06596
 C370 C 0.11594 0.35823 0.04412
 C371 C 0.10259 0.38735 0.06689
 H372 H 0.12521 0.32097 0.09991
 H373 H 0.11649 0.36031 0.01015
 H374 H 0.13540 0.28977 0.01180
 H375 H 0.09997 0.38371 0.10073
 C376 C -0.14583 0.28154 -0.09401
 C377 C -0.12404 0.30810 -0.11473
 C378 C -0.11403 0.34443 -0.09536
 C379 C -0.09226 0.37029 -0.11706
 H380 H -0.11427 0.30373 -0.14683
 H381 H -0.12439 0.35005 -0.06362
 H382 H -0.15621 0.28687 -0.06220
 H383 H -0.08154 0.36406 -0.14852
 C384 C 0.13173 0.71673 -0.12483
 C385 C 0.10203 0.69824 -0.14133
 C386 C 0.09197 0.65911 -0.12483
 C387 C 0.06197 0.63908 -0.13845
 H388 H 0.08534 0.71160 -0.16605
 H389 H 0.10953 0.64647 -0.10029
 H390 H 0.14739 0.70221 -0.09988
 H391 H 0.04394 0.65132 -0.16274
 C392 C -0.09553 0.69561 0.15279
 C393 C -0.11217 0.67176 0.12664
 C394 C -0.09162 0.63742 0.11115
 C395 C -0.10838 0.61538 0.08341
 H396 H -0.14126 0.67753 0.11586
 H397 H -0.06257 0.63057 0.12179
 H398 H -0.06645 0.68908 0.16354
 H399 H -0.13725 0.62269 0.07260
 C400 C 1.14402 0.11734 0.74056
 C401 C 1.12042 0.13422 0.71290
 C402 C 1.11251 0.11611 0.67298
 C403 C 1.09049 0.13453 0.64511
 H404 H 1.10713 0.16195 0.71894
 H405 H 1.12486 0.08801 0.66623
 H406 H 1.15695 0.08962 0.73310
 H407 H 1.07836 0.16264 0.65222
 C408 C 0.85995 -0.12202 0.66345
 C409 C 0.85223 -0.08559 0.65128
 C410 C 0.87859 -0.06687 0.61963
 C411 C 0.87420 -0.03035 0.60625
 H412 H 0.82806 -0.06947 0.66496
 H413 H 0.90299 -0.08366 0.60721
 H414 H 0.88484 -0.13647 0.64863
 H415 H 0.84981 -0.01307 0.61769
 C416 C 1.10777 -0.13526 0.31164
 C417 C 1.12302 -0.10574 0.33148
 C418 C 1.10024 -0.08666 0.36497
 C419 C 1.11566 -0.05813 0.38594
 H420 H 1.15224 -0.09548 0.32355
 H421 H 1.07060 -0.09615 0.37267
 H422 H 1.07841 -0.14463 0.32097
 H423 H 1.14534 -0.04877 0.37839
 C424 C 0.91433 0.11090 0.25059
 C425 C 0.93887 0.13272 0.27129
 C426 C 0.94780 0.12112 0.31448
 C427 C 0.96754 0.14362 0.33935
 H428 H 0.94911 0.16031 0.25870
 H429 H 0.93556 0.09424 0.32723
 H430 H 0.90475 0.08370 0.26523
 H431 H 0.98117 0.16999 0.32722
 C432 C 0.14270 0.29720 -0.09994
 C433 C 0.11674 0.31882 -0.12105
 C434 C 0.10600 0.35816 -0.10801
 C435 C 0.07853 0.37868 -0.12780
 H436 H 0.10281 0.30782 -0.14804
 H437 H 0.12018 0.37014 -0.08155
 H438 H 0.15572 0.30936 -0.07285
 H439 H 0.06381 0.36628 -0.15365
 C440 C -0.13959 0.28341 0.08326
 C441 C -0.11108 0.30645 0.09561
 C442 C -0.10408 0.34498 0.07606
 C443 C -0.07509 0.36716 0.08869
 H444 H -0.09222 0.29699 0.12037
 H445 H -0.12227 0.35498 0.05079
 H446 H -0.15878 0.29381 0.05905
 H447 H -0.05693 0.35697 0.11389
 C448 C -0.14023 0.69245 -0.18671
 C449 C -0.14872 0.67005 -0.15290
 C450 C -0.12375 0.63640 -0.14310
 C451 C -0.13117 0.61448 -0.10886
 H452 H -0.17328 0.67664 -0.13196
 H453 H -0.09875 0.62990 -0.16360
 H454 H -0.11523 0.68455 -0.20665
 H455 H -0.15615 0.62113 -0.08842
 C456 C 0.10133 0.69241 0.14833
 C457 C 0.11094 0.67527 0.11250
 C458 C 0.08743 0.64315 0.09780
 C459 C 0.09632 0.62748 0.06103
 H460 H 0.13598 0.68516 0.09351
 H461 H 0.06305 0.63212 0.11718
 H462 H 0.07537 0.68290 0.16619
 H463 H 0.12071 0.63878 0.04186
 C464 C 0.28815 1.11238 0.93557
 C465 C 0.30523 1.07942 0.92336
 C466 C 0.34205 1.06592 0.94142
 C467 C 0.36071 1.03429 0.92792
 H468 H 0.29311 1.06280 0.89893
 H469 H 0.35475 1.08296 0.96534
 H470 H 0.30101 1.12829 0.96029
 H471 H 0.34810 1.01695 0.90425
 C472 C 0.29900 0.82970 1.15229
 C473 C 0.32010 0.85888 1.16618
 C474 C 0.35936 0.86785 1.14771
 C475 C 0.37963 0.89826 1.15978
 H476 H 0.30844 0.87677 1.19085
 H477 H 0.37142 0.84985 1.12320
 H478 H 0.31141 0.81242 1.12734
 H479 H 0.36730 0.91665 1.18375
 C480 C 0.71954 1.09063 1.12796
 C481 C 0.68874 1.10383 1.10737
 C482 C 0.65213 1.08147 1.10799
 C483 C 0.62351 1.09203 1.08286
 H484 H 0.69055 1.13070 1.08928
 H485 H 0.64924 1.05548 1.12761
 H486 H 0.71695 1.06341 1.14549
 H487 H 0.62733 1.11724 1.06220
 C488 C 0.68930 0.86239 0.84845
 C489 C 0.67376 0.84980 0.88538
 C490 C 0.63915 0.86960 0.90374
 C491 C 0.62435 0.86016 0.94196
 H492 H 0.68654 0.82554 0.90217
 H493 H 0.62563 0.89267 0.88558
 H494 H 0.67633 0.88745 0.83310
 H495 H 0.63795 0.83750 0.96056
   
