data_POSCAR
  _audit_creation_date              2014-09-24
  _audit_creation_method            'ToBaCCo'
  _symmetry_space_group_name_H-M    'P1'
  _symmetry_Int_Tables_number       1
  _symmetry_cell_setting            triclinic
  loop_
  _symmetry_equiv_pos_as_xyz
 x,y,z
_cell_length_a 16.7117
_cell_length_b 16.8179
_cell_length_c 30.0605
_cell_angle_alpha 90.064300
_cell_angle_beta 89.904600
_cell_angle_gamma 119.803800
loop_
  _atom_site_label
  _atom_site_type_symbol
  _atom_site_fract_x
  _atom_site_fract_y
  _atom_site_fract_z
Zn1 Zn 0.93728 0.05536 1.02040
 Zn2 Zn 1.11925 0.05942 1.02058
 Zn3 Zn 0.94328 -0.12007 1.01803
 Zn4 Zn 1.00293 0.00440 0.93936
 O5 O 1.00064 -0.00026 0.99974
 O6 O 1.00752 0.15256 1.05495
 O7 O 1.14625 -0.01238 1.05384
 O8 O 0.84282 -0.15033 1.05151
 O9 O 1.14117 0.15496 1.05508
 O10 O 0.84022 -0.02012 1.05370
 O11 O 1.01630 -0.14519 1.05180
 O12 O 0.94793 -0.10645 0.91441
 O13 O 1.20454 0.10421 0.97713
 O14 O 0.90596 -0.19984 0.97241
 O15 O 1.11658 0.06501 0.91706
 O16 O 0.94667 0.06139 0.91734
 O17 O 0.89313 0.09687 0.97689
 C18 C 1.09096 0.18808 1.06740
 C19 C 1.09889 -0.09602 1.06501
 C20 C 0.80662 -0.10357 1.06479
 C21 C 0.91035 -0.18660 0.93067
 C22 C 1.19532 0.10364 0.93524
 C23 C 0.90309 0.09696 0.93502
 Zn24 Zn 0.05702 0.93739 0.51952
 Zn25 Zn -0.12033 0.94232 0.51975
 Zn26 Zn 0.06121 1.11793 0.52007
 Zn27 Zn -0.00027 1.00003 0.43969
 O28 O -0.00061 0.99942 0.49996
 O29 O -0.01720 0.84066 0.55289
 O30 O -0.14354 1.01553 0.55410
 O31 O 0.15784 1.13982 0.55397
 O32 O -0.14836 0.84314 0.55305
 O33 O 0.15574 1.00722 0.55368
 O34 O -0.01026 1.14547 0.55411
 O35 O 0.05417 1.11214 0.41682
 O36 O -0.20402 0.90339 0.47543
 O37 O 0.10564 1.20190 0.47601
 O38 O -0.11273 0.94253 0.41652
 O39 O 0.05789 0.94572 0.41631
 O40 O 0.09696 0.89373 0.47512
 C41 C -0.10061 0.80712 0.56502
 C42 C -0.09380 1.09816 0.56653
 C43 C 0.19132 1.09012 0.56622
 C44 C 0.09683 1.19122 0.43413
 C45 C -0.19259 0.90568 0.43359
 C46 C 0.09467 0.90273 0.43330
 O47 O 0.19347 0.50479 0.28714
 O48 O 0.19885 0.66091 0.30229
 C49 C 0.24041 0.74686 0.30848
 O50 O 0.31016 0.80241 0.28579
 O51 O 0.46118 0.79665 0.30205
 C52 C 0.50616 0.75539 0.30889
 O53 O 0.49294 0.68550 0.28673
 O54 O 0.33635 0.53564 0.30304
 C55 C 0.24995 0.49135 0.30963
 O56 O 0.19724 0.53449 0.19936
 O57 O 0.19439 0.68672 0.21374
 C58 C 0.25157 0.75567 0.19108
 O59 O 0.33777 0.79668 0.19825
 O60 O 0.49311 0.79930 0.21377
 C61 C 0.50583 0.74216 0.19148
 O62 O 0.46145 0.65663 0.19906
 O63 O 0.30883 0.50270 0.21479
 C64 C 0.23874 0.48969 0.19242
 Cr65 Cr 0.20090 0.59924 0.25066
 Cr66 Cr 0.39819 0.79387 0.25002
 Cr67 Cr 0.39736 0.59750 0.25093
 O68 O 0.33214 0.66351 0.25035
 O69 O 0.80097 0.46675 0.80106
 O70 O 0.80760 0.31617 0.78752
 C71 C 0.75215 0.24773 0.81074
 O72 O 0.66584 0.20603 0.80468
 O73 O 0.50980 0.20078 0.79119
 C74 C 0.49534 0.25934 0.81094
 O75 O 0.53626 0.34370 0.80087
 O76 O 0.68908 0.49765 0.78443
 C77 C 0.75943 0.51179 0.80689
 O78 O 0.80431 0.49369 0.71250
 O79 O 0.80071 0.33785 0.69963
 C80 C 0.75846 0.25192 0.69305
 O81 O 0.68840 0.19618 0.71582
 O82 O 0.53376 0.19657 0.70248
 C83 C 0.49102 0.23916 0.69326
 O84 O 0.50609 0.31185 0.71333
 O85 O 0.66113 0.46130 0.69689
 C86 C 0.74717 0.50578 0.68976
 Cr87 Cr 0.79828 0.40114 0.75022
 Cr88 Cr 0.60196 0.20490 0.75340
 Cr89 Cr 0.60071 0.40102 0.74901
 O90 O 0.66671 0.33546 0.75081
 C91 C 0.21878 0.30219 0.11551
 C92 C 0.13028 0.26866 0.09741
 C93 C 0.07925 0.31144 0.10919
 C94 C 0.11529 0.38494 0.13912
 C95 C 0.20282 0.41672 0.15813
 C96 C 0.25446 0.37508 0.14558
 H97 H 0.26004 0.27103 0.10708
 H98 H 0.01099 0.28749 0.09569
 H99 H 0.07370 0.41543 0.14814
 H100 H 0.32232 0.39813 0.15939
 C101 C 0.68421 0.76140 0.10710
 C102 C 0.72520 0.85414 0.09467
 C103 C 0.68990 0.90773 0.11251
 C104 C 0.61744 0.87051 0.14307
 C105 C 0.57792 0.77853 0.15647
 C106 C 0.61106 0.72387 0.13759
 H107 H 0.70962 0.71819 0.09386
 H108 H 0.71953 0.97928 0.10360
 H109 H 0.59320 0.91443 0.15667
 H110 H 0.58212 0.65278 0.14724
 C111 C 0.08499 0.77573 0.11278
 C112 C 0.13996 0.86367 0.09476
 C113 C 0.23354 0.91389 0.10683
 C114 C 0.27069 0.87784 0.13709
 C115 C 0.21487 0.79109 0.15620
 C116 C 0.12190 0.74002 0.14324
 H117 H 0.01273 0.73516 0.10415
 H118 H 0.27785 0.98171 0.09340
 H119 H 0.34253 0.91896 0.14637
 H120 H 0.07709 0.67274 0.15712
 C121 C 0.91341 0.69215 0.61216
 C122 C 0.85816 0.72569 0.59441
 C123 C 0.76441 0.68259 0.60626
 C124 C 0.72739 0.60906 0.63612
 C125 C 0.78355 0.57762 0.65498
 C126 C 0.87664 0.61923 0.64219
 H127 H 0.98582 0.72355 0.60365
 H128 H 0.71994 0.70655 0.59301
 H129 H 0.65542 0.57855 0.64535
 H130 H 0.92169 0.59640 0.65591
 C131 C 0.31253 0.07767 0.61032
 C132 C 0.27197 0.12946 0.59648
 C133 C 0.30713 0.21876 0.61315
 C134 C 0.37927 0.25458 0.64380
 C135 C 0.41855 0.20225 0.65851
 C136 C 0.38529 0.11381 0.64094
 H137 H 0.28718 0.00870 0.59802
 H138 H 0.27780 0.26069 0.60315
 H139 H 0.40354 0.32318 0.65638
 H140 H 0.41405 0.07174 0.65157
 C141 C 0.91657 0.23245 0.60829
 C142 C 0.86637 0.13915 0.59680
 C143 C 0.77865 0.08439 0.61573
 C144 C 0.74301 0.12141 0.64630
 C145 C 0.79391 0.21427 0.65849
 C146 C 0.88060 0.26968 0.63865
 H147 H 0.98421 0.27658 0.59421
 H148 H 0.73808 0.01227 0.60760
 H149 H 0.67586 0.07687 0.66077
 H150 H 0.92168 0.34147 0.64732
 C151 C 0.34595 0.12510 0.90825
 C152 C 0.27708 0.14952 0.90662
 C153 C 0.28357 0.21432 0.87536
 C154 C 0.35762 0.25369 0.84568
 C155 C 0.42434 0.22628 0.84585
 C156 C 0.41838 0.16207 0.87745
 H157 H 0.34149 0.07472 0.93204
 H158 H 0.23076 0.23370 0.87369
 H159 H 0.36062 0.30247 0.82127
 H160 H 0.46927 0.14004 0.87797
 C161 C 0.82964 0.74017 0.86018
 C162 C 0.87007 0.73454 0.90005
 C163 C 0.87266 0.65415 0.90973
 C164 C 0.83732 0.58136 0.87932
 C165 C 0.79627 0.58702 0.83960
 C166 C 0.79195 0.66665 0.83055
 H167 H 0.82650 0.80133 0.85210
 H168 H 0.90386 0.64856 0.94025
 H169 H 0.84122 0.52045 0.88697
 H170 H 0.76119 0.67284 0.79999
 C171 C 0.91508 0.18644 0.86742
 C172 C 0.86537 0.14020 0.90559
 C173 C 0.77895 0.13239 0.91366
 C174 C 0.74142 0.16751 0.88293
 C175 C 0.79125 0.21325 0.84455
 C176 C 0.87898 0.22360 0.83754
 H177 H 0.98203 0.19357 0.86062
 H178 H 0.73936 0.09656 0.94284
 H179 H 0.67369 0.15894 0.88906
 H180 H 0.91863 0.25806 0.80813
 C181 C 0.73238 0.82094 0.36450
 C182 C 0.72736 0.86404 0.40352
 C183 C 0.64771 0.86976 0.41211
 C184 C 0.57522 0.83507 0.38126
 C185 C 0.58058 0.79179 0.34225
 C186 C 0.65932 0.78414 0.33449
 H187 H 0.79303 0.81553 0.35724
 H188 H 0.64276 0.90323 0.44195
 H189 H 0.51495 0.84145 0.38794
 H190 H 0.66539 0.75157 0.30456
 C191 C 0.08794 0.26724 0.36522
 C192 C 0.13558 0.27124 0.40427
 C193 C 0.22107 0.34960 0.41295
 C194 C 0.25949 0.42176 0.38213
 C195 C 0.21137 0.41737 0.34305
 C196 C 0.12483 0.33995 0.33525
 H197 H 0.02185 0.20760 0.35787
 H198 H 0.25917 0.35372 0.44280
 H199 H 0.32624 0.48097 0.38887
 H200 H 0.08654 0.33458 0.30527
 C201 C 0.17736 0.90943 0.36360
 C202 C 0.13542 0.86332 0.40316
 C203 C 0.12933 0.77850 0.41218
 C204 C 0.16260 0.73932 0.38127
 C205 C 0.20479 0.78598 0.34174
 C206 C 0.21274 0.87176 0.33351
 H207 H 0.18294 0.97495 0.35598
 H208 H 0.09661 0.74156 0.44241
 H209 H 0.15607 0.67322 0.38834
 H210 H 0.24454 0.90890 0.30317
   
