data_POSCAR
  _audit_creation_date              2014-09-24
  _audit_creation_method            'ToBaCCo'
  _symmetry_space_group_name_H-M    'P1'
  _symmetry_Int_Tables_number       1
  _symmetry_cell_setting            triclinic
  loop_
  _symmetry_equiv_pos_as_xyz
 x,y,z
_cell_length_a 24.6457
_cell_length_b 19.8039
_cell_length_c 19.8144
_cell_angle_alpha 89.874400
_cell_angle_beta 90.113800
_cell_angle_gamma 89.880800
loop_
  _atom_site_label
  _atom_site_type_symbol
  _atom_site_fract_x
  _atom_site_fract_y
  _atom_site_fract_z
O1 O 0.07629 0.11552 0.12529
 O2 O 0.13600 0.05562 0.06004
 C3 C 0.12514 0.09839 0.10760
 O4 O -0.07504 -0.12565 0.11651
 O5 O -0.13463 -0.05949 0.05687
 C6 C -0.12387 -0.10742 0.09952
 O7 O 0.07680 -0.11903 0.12334
 O8 O 0.13614 -0.05769 0.05936
 C9 C 0.12581 -0.10172 0.10624
 O10 O -0.07588 0.12263 0.11751
 O11 O -0.13558 0.05805 0.05664
 C12 C -0.12478 0.10505 0.10014
 Zr13 Zr 0.00039 0.08446 0.08576
 O14 O -0.00513 0.08722 0.19229
 O15 O 0.00315 0.19093 0.07930
 Zr16 Zr 0.00066 -0.08610 0.08532
 O17 O -0.00540 -0.08551 0.19192
 O18 O 0.00585 -0.19277 0.08490
 O19 O 0.04900 -0.00098 0.09890
 O20 O -0.04667 -0.00083 0.09799
 O21 O -0.07607 0.12441 -0.11492
 O22 O -0.13571 0.05860 -0.05526
 C23 C -0.12494 0.10638 -0.09802
 O24 O 0.07626 -0.11643 -0.12412
 O25 O 0.13598 -0.05673 -0.05873
 C26 C 0.12510 -0.09942 -0.10634
 O27 O -0.07537 -0.12368 -0.11728
 O28 O -0.13486 -0.05878 -0.05673
 C29 C -0.12417 -0.10589 -0.10011
 O30 O 0.07614 0.11809 -0.12241
 O31 O 0.13594 0.05659 -0.05821
 C32 C 0.12503 0.10043 -0.10506
 Zr33 Zr 0.00032 0.08536 -0.08422
 O34 O -0.00608 0.08537 -0.19081
 O35 O 0.00531 0.19202 -0.08381
 Zr36 Zr 0.00035 -0.08520 -0.08476
 O37 O -0.00534 -0.08768 -0.19133
 O38 O 0.00330 -0.19167 -0.07807
 Zr39 Zr 0.08163 -0.00048 0.00058
 Zr40 Zr -0.08042 -0.00014 0.00044
 O41 O -0.04686 0.00028 -0.09705
 O42 O 0.04876 0.00010 -0.09778
 O43 O -0.04809 0.09817 0.00083
 O44 O 0.04800 -0.09804 0.00017
 O45 O 0.04785 0.09715 0.00095
 O46 O -0.04801 -0.09858 0.00014
 H47 H -0.07117 -0.00099 0.13759
 H48 H 0.07259 -0.13769 -0.00005
 H49 H -0.07142 0.00057 -0.13670
 H50 H 0.07236 0.13675 0.00121
 H51 H -0.01891 -0.20908 0.04913
 H52 H 0.00341 -0.20847 -0.12514
 H53 H 0.02171 -0.05547 -0.20914
 H54 H 0.02498 0.05931 -0.20869
 H55 H -0.01966 0.20842 -0.04837
 H56 H 0.00276 0.20761 0.12641
 H57 H 0.02169 0.05457 0.21020
 H58 H 0.02612 -0.06032 0.20974
 O59 O 0.57574 0.61845 0.62243
 O60 O 0.63539 0.55735 0.55825
 C61 C 0.62460 0.60095 0.60509
 O62 O 0.42393 0.37761 0.61753
 O63 O 0.36417 0.44215 0.55640
 C64 C 0.37505 0.39516 0.60008
 O65 O 0.57574 0.38379 0.62401
 O66 O 0.63538 0.44390 0.55892
 C67 C 0.62457 0.40087 0.60637
 O68 O 0.42389 0.62514 0.61557
 O69 O 0.36416 0.56014 0.55546
 C70 C 0.37503 0.60752 0.59840
 Zr71 Zr 0.49980 0.58625 0.58385
 O72 O 0.49362 0.58664 0.69041
 O73 O 0.50603 0.69286 0.58251
 Zr74 Zr 0.49981 0.41586 0.58505
 O75 O 0.49366 0.41647 0.69161
 O76 O 0.50611 0.30920 0.58511
 O77 O 0.54830 0.50100 0.59792
 O78 O 0.45254 0.50122 0.59680
 O79 O 0.42359 0.62375 0.38073
 O80 O 0.36404 0.55969 0.44212
 C81 C 0.37476 0.60651 0.39831
 O82 O 0.57558 0.38282 0.37625
 O83 O 0.63530 0.44328 0.44101
 C84 C 0.62446 0.39990 0.39393
 O85 O 0.42386 0.37596 0.38352
 O86 O 0.36414 0.44144 0.44316
 C87 C 0.37501 0.39377 0.40052
 O88 O 0.57547 0.61624 0.37412
 O89 O 0.63519 0.55659 0.44020
 C90 C 0.62434 0.59921 0.39226
 Zr91 Zr 0.49961 0.58531 0.41363
 O92 O 0.49436 0.58452 0.30701
 O93 O 0.50582 0.69194 0.41372
 Zr94 Zr 0.49978 0.41533 0.41471
 O95 O 0.49682 0.42195 0.30829
 O96 O 0.50544 0.30870 0.41216
 Zr97 Zr 0.58090 0.50044 0.49961
 Zr98 Zr 0.41854 0.50079 0.49929
 O99 O 0.45215 0.50025 0.40179
 O100 O 0.54826 0.50009 0.40127
 O101 O 0.45116 0.59918 0.49859
 O102 O 0.54705 0.40303 0.50003
 O103 O 0.54704 0.59808 0.49869
 O104 O 0.45134 0.40235 0.49991
 H105 H 0.42810 0.50146 0.63645
 H106 H 0.57147 0.36322 0.50021
 H107 H 0.42756 0.50003 0.36216
 H108 H 0.57160 0.63763 0.49834
 H109 H 0.47514 0.29134 0.55889
 H110 H 0.47835 0.29087 0.44429
 H111 H 0.49676 0.37483 0.29154
 H112 H 0.51946 0.54906 0.29076
 H113 H 0.47490 0.70986 0.43996
 H114 H 0.47551 0.71052 0.55517
 H115 H 0.52393 0.55917 0.70845
 H116 H 0.52390 0.44408 0.70925
 C117 C 0.16222 0.17928 0.19320
 C118 C 0.20595 0.21066 0.22586
 C119 C 0.25970 0.19263 0.20865
 C120 C 0.26877 0.14321 0.15943
 C121 C 0.22505 0.11232 0.12702
 C122 C 0.17135 0.13019 0.14325
 C123 C 0.30349 0.22457 0.24054
 C124 C 0.29422 0.27454 0.28926
 C125 C 0.24046 0.29228 0.30676
 C126 C 0.19668 0.26014 0.27507
 C127 C 0.23138 0.34223 0.35544
 C128 C 0.27510 0.37483 0.38612
 C129 C 0.32880 0.35806 0.36879
 C130 C 0.33794 0.30741 0.32042
 H131 H 0.12113 0.19363 0.20638
 H132 H 0.30970 0.12868 0.14571
 H133 H 0.23343 0.07456 0.08895
 H134 H 0.34472 0.21088 0.22713
 H135 H 0.15544 0.27397 0.28835
 H136 H 0.19045 0.35637 0.36955
 H137 H 0.26672 0.41344 0.42332
 H138 H 0.37904 0.29380 0.30651
 C139 C 0.83854 0.80648 0.17983
 C140 C 0.79457 0.77400 0.21084
 C141 C 0.74093 0.79215 0.19286
 C142 C 0.73220 0.84213 0.14387
 C143 C 0.77613 0.87434 0.11334
 C144 C 0.82974 0.85717 0.13114
 C145 C 0.69691 0.76042 0.22440
 C146 C 0.70583 0.71091 0.27395
 C147 C 0.75947 0.69248 0.29164
 C148 C 0.80349 0.72401 0.25990
 C149 C 0.76822 0.64305 0.34118
 C150 C 0.72430 0.61254 0.37343
 C151 C 0.67069 0.63078 0.35673
 C152 C 0.66188 0.67989 0.30646
 H153 H 0.87955 0.79257 0.19410
 H154 H 0.69137 0.85659 0.12938
 H155 H 0.76798 0.91299 0.07589
 H156 H 0.65578 0.77456 0.21074
 H157 H 0.84462 0.71000 0.27370
 H158 H 0.80905 0.62821 0.35528
 H159 H 0.73247 0.57475 0.41174
 H160 H 0.62086 0.69452 0.29292
 C161 C 0.83777 0.19223 0.82094
 C162 C 0.79398 0.22499 0.78946
 C163 C 0.74027 0.20766 0.80734
 C164 C 0.73130 0.15818 0.85670
 C165 C 0.77510 0.12566 0.88770
 C166 C 0.82876 0.14205 0.87000
 C167 C 0.69641 0.23971 0.77533
 C168 C 0.70559 0.28872 0.72544
 C169 C 0.75931 0.30631 0.70783
 C170 C 0.80315 0.27444 0.74002
 C171 C 0.76829 0.35525 0.65795
 C172 C 0.72451 0.38616 0.62534
 C173 C 0.67084 0.36878 0.64201
 C174 C 0.66180 0.32010 0.69255
 H175 H 0.87884 0.20553 0.80671
 H176 H 0.69041 0.14435 0.87111
 H177 H 0.76681 0.08741 0.92542
 H178 H 0.65521 0.22622 0.78892
 H179 H 0.84436 0.28781 0.72631
 H180 H 0.80919 0.36942 0.64390
 H181 H 0.73283 0.42359 0.58681
 H182 H 0.62073 0.30615 0.70610
 C183 C 0.16219 0.82026 0.80752
 C184 C 0.20592 0.78907 0.77468
 C185 C 0.25967 0.80671 0.79228
 C186 C 0.26874 0.85552 0.84210
 C187 C 0.22501 0.88623 0.87467
 C188 C 0.17132 0.86879 0.85801
 C189 C 0.30346 0.77502 0.76015
 C190 C 0.29420 0.72568 0.71079
 C191 C 0.24044 0.70831 0.69291
 C192 C 0.19665 0.74020 0.72486
 C193 C 0.23138 0.65897 0.64362
 C194 C 0.27511 0.62662 0.61268
 C195 C 0.32881 0.64303 0.63036
 C196 C 0.33793 0.69307 0.67936
 H197 H 0.12109 0.80625 0.79399
 H198 H 0.30966 0.86973 0.85614
 H199 H 0.23339 0.92355 0.91317
 H200 H 0.34469 0.78841 0.77386
 H201 H 0.15542 0.72667 0.71128
 H202 H 0.19046 0.64512 0.62922
 H203 H 0.26674 0.58847 0.57501
 H204 H 0.37903 0.70640 0.69356
 C205 C 0.16213 0.18209 0.80955
 C206 C 0.20587 0.21357 0.77694
 C207 C 0.25964 0.19560 0.79448
 C208 C 0.26871 0.14624 0.84404
 C209 C 0.22500 0.11521 0.87633
 C210 C 0.17126 0.13287 0.85971
 C211 C 0.30344 0.22742 0.76247
 C212 C 0.29420 0.27716 0.71319
 C213 C 0.24043 0.29490 0.69541
 C214 C 0.19663 0.26296 0.72731
 C215 C 0.23137 0.34458 0.64617
 C216 C 0.27508 0.37680 0.61507
 C217 C 0.32882 0.35999 0.63255
 C218 C 0.33794 0.30971 0.68165
 H219 H 0.12102 0.19629 0.79601
 H220 H 0.30964 0.13176 0.85805
 H221 H 0.23342 0.07742 0.91455
 H222 H 0.34467 0.21371 0.77612
 H223 H 0.15540 0.27676 0.71375
 H224 H 0.19043 0.35874 0.63185
 H225 H 0.26666 0.41513 0.57739
 H226 H 0.37905 0.29602 0.69571
 C227 C 0.83835 0.80897 0.81844
 C228 C 0.79447 0.77664 0.78690
 C229 C 0.74078 0.79445 0.80462
 C230 C 0.73193 0.84399 0.85381
 C231 C 0.77578 0.87600 0.88489
 C232 C 0.82945 0.85912 0.86747
 C233 C 0.69684 0.76273 0.77272
 C234 C 0.70587 0.71349 0.72313
 C235 C 0.75957 0.69547 0.70565
 C236 C 0.80350 0.72706 0.73768
 C237 C 0.76844 0.64628 0.65613
 C238 C 0.72461 0.61547 0.62382
 C239 C 0.67093 0.63318 0.64037
 C240 C 0.66200 0.68223 0.69049
 H241 H 0.87940 0.79525 0.80441
 H242 H 0.69106 0.85819 0.86810
 H243 H 0.76753 0.91423 0.92253
 H244 H 0.65566 0.77658 0.78623
 H245 H 0.84468 0.71331 0.72407
 H246 H 0.80932 0.63177 0.64218
 H247 H 0.73289 0.57781 0.58563
 H248 H 0.62094 0.69647 0.70397
 C249 C 0.15992 0.81955 0.18935
 C250 C 0.20401 0.78803 0.22171
 C251 C 0.25758 0.80541 0.20348
 C252 C 0.26622 0.85424 0.15350
 C253 C 0.22232 0.88538 0.12134
 C254 C 0.16829 0.86852 0.13833
 C255 C 0.30170 0.77354 0.23525
 C256 C 0.29294 0.72425 0.28501
 C257 C 0.23934 0.70705 0.30350
 C258 C 0.19524 0.73907 0.27184
 C259 C 0.23071 0.65781 0.35320
 C260 C 0.27470 0.62552 0.38406
 C261 C 0.32830 0.64180 0.36592
 C262 C 0.33699 0.69163 0.31634
 H263 H 0.11914 0.80528 0.20401
 H264 H 0.30705 0.86827 0.13900
 H265 H 0.23118 0.92269 0.08283
 H266 H 0.34280 0.78685 0.22103
 H267 H 0.15415 0.72566 0.28599
 H268 H 0.18991 0.64406 0.36808
 H269 H 0.26658 0.58756 0.42214
 H270 H 0.37798 0.70490 0.30175
 C271 C 0.83789 0.19045 0.18144
 C272 C 0.79406 0.22308 0.21281
 C273 C 0.74034 0.20559 0.19493
 C274 C 0.73140 0.15606 0.14576
 C275 C 0.77520 0.12375 0.11484
 C276 C 0.82890 0.14032 0.13242
 C277 C 0.69645 0.23761 0.22666
 C278 C 0.70556 0.28684 0.27622
 C279 C 0.75929 0.30456 0.29387
 C280 C 0.80317 0.27266 0.26202
 C281 C 0.76824 0.35374 0.34338
 C282 C 0.72445 0.38483 0.37552
 C283 C 0.67075 0.36742 0.35880
 C284 C 0.66174 0.31839 0.30869
 H285 H 0.87896 0.20394 0.19559
 H286 H 0.69051 0.14210 0.13135
 H287 H 0.76688 0.08555 0.07721
 H288 H 0.65525 0.22400 0.21301
 H289 H 0.84437 0.28618 0.27576
 H290 H 0.80914 0.36801 0.35746
 H291 H 0.73279 0.42246 0.41371
 H292 H 0.62066 0.30438 0.29509
   
