data_POSCAR
  _audit_creation_date              2014-09-24
  _audit_creation_method            'ToBaCCo'
  _symmetry_space_group_name_H-M    'P1'
  _symmetry_Int_Tables_number       1
  _symmetry_cell_setting            triclinic
  loop_
  _symmetry_equiv_pos_as_xyz
 x,y,z
_cell_length_a 45.1044
_cell_length_b 44.9246
_cell_length_c 44.9253
_cell_angle_alpha 90.002800
_cell_angle_beta 90.002100
_cell_angle_gamma 90.001200
loop_
  _atom_site_label
  _atom_site_type_symbol
  _atom_site_fract_x
  _atom_site_fract_y
  _atom_site_fract_z
C1 C 0.20871 1.23161 0.18776
 C2 C 0.23066 1.20951 0.18795
 C3 C 0.23053 1.18777 0.20983
 C4 C 0.20843 1.18786 0.23178
 C5 C 0.18672 1.20970 0.23160
 C6 C 0.18686 1.23170 0.20946
 C7 C 0.20231 1.25430 0.16816
 N8 N 0.17727 1.26798 0.17763
 C9 C 0.16751 1.25445 0.20273
 C10 C 0.16719 1.20324 0.25427
 N11 N 0.17670 1.17817 0.26802
 C12 C 0.20177 1.16846 0.25456
 C13 C 0.25320 1.16825 0.20345
 N14 N 0.26692 1.17778 0.17839
 C15 C 0.25342 1.20287 0.16862
 H16 H 0.21442 1.25989 0.14811
 H17 H 0.14743 1.26017 0.21465
 H18 H 0.14714 1.21533 0.25978
 H19 H 0.21372 1.14836 0.26035
 H20 H 0.25878 1.14819 0.21558
 H21 H 0.25920 1.21482 0.14851
 C22 C 0.79175 0.76790 0.18780
 C23 C 0.76966 0.78987 0.18784
 C24 C 0.76960 0.81169 0.20964
 C25 C 0.79163 0.81181 0.23167
 C26 C 0.81347 0.79009 0.23164
 C27 C 0.81353 0.76801 0.20958
 C28 C 0.79834 0.74517 0.16831
 N29 N 0.82343 0.73167 0.17792
 C30 C 0.83303 0.74535 0.20300
 C31 C 0.83289 0.79675 0.25435
 N32 N 0.82319 0.82182 0.26798
 C33 C 0.79811 0.83134 0.25440
 C34 C 0.74684 0.83105 0.20311
 N35 N 0.73326 0.82135 0.17804
 C36 C 0.74694 0.79631 0.16841
 H37 H 0.78633 0.73944 0.14823
 H38 H 0.85310 0.73979 0.21501
 H39 H 0.85298 0.78480 0.25998
 H40 H 0.78603 0.85139 0.26007
 H41 H 0.74111 0.85113 0.21514
 H42 H 0.74129 0.78424 0.14832
 C43 C 0.79114 1.23161 -0.18739
 C44 C 0.76910 1.20959 -0.18738
 C45 C 0.76903 1.18777 -0.20918
 C46 C 0.79100 1.18771 -0.23127
 C47 C 0.81280 1.20947 -0.23128
 C48 C 0.81287 1.23154 -0.20921
 C49 C 0.79773 1.25435 -0.16791
 N50 N 0.82277 1.26790 -0.17757
 C51 C 0.83234 1.25425 -0.20267
 C52 C 0.83217 1.20285 -0.25404
 N53 N 0.82248 1.17777 -0.26765
 C54 C 0.79746 1.16820 -0.25402
 C55 C 0.74632 1.16837 -0.20261
 N56 N 0.73278 1.17803 -0.17750
 C57 C 0.74643 1.20310 -0.16789
 H58 H 0.78575 1.26005 -0.14780
 H59 H 0.85237 1.25985 -0.21473
 H60 H 0.85223 1.21485 -0.25972
 H61 H 0.78540 1.14813 -0.25967
 H62 H 0.74059 1.14828 -0.21463
 H63 H 0.74081 1.21515 -0.14780
 C64 C 0.20852 0.76860 -0.18822
 C65 C 0.23055 0.79063 -0.18821
 C66 C 0.23056 0.81249 -0.20997
 C67 C 0.20853 0.81260 -0.23200
 C68 C 0.18675 0.79083 -0.23201
 C69 C 0.18674 0.76870 -0.21000
 C70 C 0.20198 0.74582 -0.16878
 N71 N 0.17692 0.73227 -0.17841
 C72 C 0.16730 0.74598 -0.20346
 C73 C 0.16732 0.79748 -0.25471
 N74 N 0.17696 0.82260 -0.26829
 C75 C 0.20201 0.83215 -0.25469
 C76 C 0.25327 0.83190 -0.20340
 N77 N 0.26687 0.82219 -0.17835
 C78 C 0.25326 0.79709 -0.16876
 H79 H 0.21400 0.74008 -0.14871
 H80 H 0.14724 0.74039 -0.21549
 H81 H 0.14725 0.78549 -0.26037
 H82 H 0.21405 0.85224 -0.26032
 H83 H 0.25896 0.85201 -0.21539
 H84 H 0.25893 0.78500 -0.14870
 C85 C 0.54530 1.04077 -0.00888
 H86 H 0.54607 1.04071 0.01519
 C87 C 0.56536 1.05807 -0.02502
 H88 H 0.58161 1.07149 -0.01339
 C89 C 0.52374 1.02271 -0.05354
 H90 H 0.50790 1.00845 -0.06458
 C91 C 0.54343 1.03968 -0.07054
 H92 H 0.54252 1.03865 -0.09461
 N93 N 0.52492 1.02369 -0.02327
 C94 C 0.45463 1.00889 0.04172
 H95 H 0.45386 0.98482 0.04168
 C96 C 0.43456 1.02504 0.05901
 H97 H 0.41832 1.01341 0.07244
 C98 C 0.47617 1.05355 0.02362
 H99 H 0.49199 1.06457 0.00935
 C100 C 0.45647 1.07055 0.04058
 H101 H 0.45737 1.09462 0.03953
 Zn102 Zn 0.49995 0.99954 0.00046
 N103 N 0.47500 1.02328 0.02462
 C104 C 0.52378 0.97637 0.05443
 N105 N 0.52492 0.97538 0.02416
 C106 C 0.54527 0.95829 0.00975
 C107 C 0.56536 0.94099 0.02586
 C108 C 0.54349 0.95940 0.07140
 C109 C 0.45459 0.99026 -0.04076
 C110 C 0.43450 0.97415 -0.05807
 C111 C 0.45639 0.92860 -0.03971
 C112 C 0.47610 0.94557 -0.02273
 N113 N 0.47495 0.97585 -0.02369
 H114 H 0.50797 0.99063 0.06548
 H115 H 0.54601 0.95834 -0.01432
 H116 H 0.58159 0.92756 0.01421
 H117 H 0.54262 0.96044 0.09548
 H118 H 0.45384 1.01433 -0.04069
 H119 H 0.41827 0.98581 -0.07149
 H120 H 0.45727 0.90453 -0.03869
 H121 H 0.49192 0.93452 -0.00848
 C122 C 0.43546 1.05614 0.05837
 C123 C 0.56445 1.05746 -0.05612
 C124 C 0.43539 0.94305 -0.05748
 C125 C 0.56449 0.94161 0.05696
 C126 C -0.00894 0.54551 1.04081
 H127 H 0.01504 0.54632 1.04076
 C128 C -0.02504 0.56562 1.05813
 H129 H -0.01348 0.58193 1.07157
 C130 C -0.05338 0.52382 1.02272
 H131 H -0.06435 0.50792 1.00845
 C132 C -0.07034 0.54355 1.03970
 H133 H -0.09432 0.54260 1.03868
 N134 N -0.02324 0.52504 1.02371
 C135 C 0.04154 0.45450 1.00900
 H136 H 0.04153 0.45371 0.98493
 C137 C 0.05877 0.43438 1.02518
 H138 H 0.07218 0.41808 1.01358
 C139 C 0.02345 0.47614 1.05362
 H140 H 0.00922 0.49202 1.06463
 C141 C 0.04035 0.45640 1.07066
 H142 H 0.03929 0.45732 1.09473
 Zn143 Zn 0.00043 0.49998 0.99959
 N144 N 0.02448 0.47494 1.02335
 C145 C 0.05422 0.52390 0.97646
 N146 N 0.02407 0.52506 0.97546
 C147 C 0.00973 0.54549 0.95835
 C148 C 0.02580 0.56564 0.94104
 C149 C 0.07114 0.54367 0.95948
 C150 C -0.04060 0.45443 0.99024
 C151 C -0.05784 0.43429 0.97409
 C152 C -0.03950 0.45630 0.92858
 C153 C -0.02260 0.47606 0.94559
 N154 N -0.02358 0.47489 0.97586
 H155 H 0.06521 0.50802 0.99073
 H156 H -0.01424 0.54625 0.95839
 H157 H 0.01422 0.58192 0.92759
 H158 H 0.09512 0.54277 0.96052
 H159 H -0.04055 0.45366 1.01431
 H160 H -0.07123 0.41799 0.98572
 H161 H -0.03848 0.45722 0.90451
 H162 H -0.00839 0.49196 0.93456
 C163 C 0.05812 0.43532 1.05628
 C164 C -0.05602 0.56465 1.05752
 C165 C -0.05723 0.43522 0.94299
 C166 C 0.05678 0.56474 0.94166
 C167 C 1.04059 -0.00900 0.54550
 H168 H 1.04055 0.01507 0.54630
 C169 C 1.05783 -0.02518 0.56561
 H170 H 1.07123 -0.01358 0.58192
 C171 C 1.02255 -0.05362 0.52382
 H172 H 1.00833 -0.06463 0.50792
 C173 C 1.03946 -0.07065 0.54355
 H174 H 1.03842 -0.09473 0.54260
 N175 N 1.02355 -0.02335 0.52503
 C176 C 1.00888 0.04169 0.45449
 H177 H 0.98491 0.04166 0.45370
 C178 C 1.02499 0.05899 0.43438
 H179 H 1.01342 0.07245 0.41808
 C180 C 1.05333 0.02354 0.47613
 H181 H 1.06430 0.00926 0.49201
 C182 C 1.07029 0.04052 0.45639
 H183 H 1.09427 0.03947 0.45731
 Zn184 Zn 0.99952 0.00042 0.49998
 N185 N 1.02319 0.02456 0.47494
 C186 C 0.97650 0.05442 0.52390
 N187 N 0.97549 0.02415 0.52506
 C188 C 0.95844 0.00976 0.54549
 C189 C 0.94122 0.02591 0.56564
 C190 C 0.95960 0.07142 0.54367
 C191 C 0.99021 -0.04078 0.45442
 C192 C 0.97414 -0.05810 0.43429
 C193 C 0.92881 -0.03971 0.45631
 C194 C 0.94573 -0.02272 0.47607
 N195 N 0.97588 -0.02370 0.47488
 H196 H 0.99072 0.06545 0.50802
 H197 H 0.95847 -0.01431 0.54625
 H198 H 0.92782 0.01428 0.58193
 H199 H 0.96065 0.09549 0.54278
 H200 H 1.01419 -0.04072 0.45365
 H201 H 0.98572 -0.07154 0.41799
 H202 H 0.90482 -0.03870 0.45724
 H203 H 0.93474 -0.00847 0.49197
 C204 C 1.05596 0.05835 0.43531
 C205 C 1.05721 -0.05628 0.56464
 C206 C 0.94316 -0.05751 0.43522
 C207 C 0.94186 0.05701 0.56475
 C208 C 0.12101 0.34673 1.08980
 C209 C 0.14822 0.35255 1.11003
 C210 C 0.13440 0.33235 1.13388
 C211 C 0.10745 0.32620 1.11389
 C212 C 0.10523 0.37342 1.10416
 C213 C 0.09143 0.35321 1.12801
 C214 C 0.13219 0.37961 1.12414
 C215 C 0.11863 0.35903 1.14826
 C216 C 0.15038 0.30911 1.15018
 C217 C 0.16327 0.28964 1.16334
 C218 C 0.08874 0.39593 1.08737
 C219 C 0.07491 0.41408 1.07332
 H220 H 0.12181 0.34192 1.06557
 H221 H 0.17175 0.35201 1.10282
 H222 H 0.09744 0.30398 1.10985
 H223 H 0.06789 0.35374 1.13523
 H224 H 0.14217 0.40184 1.12816
 H225 H 0.11783 0.36382 1.17249
 C226 C -0.09621 0.63659 1.13683
 C227 C -0.10002 0.66936 1.12683
 C228 C -0.13315 0.66743 1.13452
 C229 C -0.12961 0.63500 1.14479
 C230 C -0.10364 0.62644 1.10504
 C231 C -0.13677 0.62447 1.11272
 C232 C -0.10720 0.65887 1.09480
 C233 C -0.14058 0.65727 1.10273
 C234 C -0.14934 0.69061 1.15069
 C235 C -0.16239 0.71005 1.16374
 C236 C -0.08695 0.60397 1.08838
 C237 C -0.07298 0.58585 1.07443
 H238 H -0.07777 0.62784 1.15067
 H239 H -0.08508 0.68807 1.13280
 H240 H -0.13901 0.62545 1.16554
 H241 H -0.15169 0.60575 1.10674
 H242 H -0.09781 0.66844 1.07406
 H243 H -0.15901 0.66602 1.08889
 C244 C -0.12834 0.37987 0.87171
 C245 C -0.11415 0.35600 0.85126
 C246 C -0.13394 0.33226 0.86579
 C247 C -0.14839 0.35574 0.88597
 C248 C -0.10456 0.37333 0.89530
 C249 C -0.12434 0.34957 0.90981
 C250 C -0.09012 0.34983 0.87512
 C251 C -0.11015 0.32575 0.88939
 C252 C -0.15006 0.30903 0.84961
 C253 C -0.16308 0.28956 0.83658
 C254 C -0.08796 0.39583 0.91200
 C255 C -0.07407 0.41398 0.92600
 H256 H -0.13562 0.40239 0.86463
 H257 H -0.11014 0.35838 0.82699
 H258 H -0.17253 0.35791 0.89025
 H259 H -0.12836 0.34718 0.93407
 H260 H -0.06598 0.34765 0.87083
 H261 H -0.10284 0.30325 0.89648
 C262 C 0.09352 0.64124 0.86523
 C263 C 0.10245 0.67206 0.87783
 C264 C 0.13368 0.66782 0.86484
 C265 C 0.12501 0.63735 0.85198
 C266 C 0.10427 0.62670 0.89424
 C267 C 0.13550 0.62243 0.88126
 C268 C 0.11295 0.65717 0.90707
 C269 C 0.14442 0.65328 0.89385
 C270 C 0.14980 0.69109 0.84872
 C271 C 0.16280 0.71058 0.83571
 C272 C 0.08764 0.60416 0.91086
 C273 C 0.07370 0.58599 0.92477
 H274 H 0.07241 0.63604 0.85365
 H275 H 0.08904 0.69271 0.87624
 H276 H 0.13016 0.62947 0.82914
 H277 H 0.14889 0.60176 0.88286
 H278 H 0.10781 0.66508 0.92991
 H279 H 0.16554 0.65848 0.90543
 C280 C 1.10767 0.09510 0.34118
 C281 C 1.10017 0.12688 0.33018
 C282 C 1.13317 0.13506 0.33237
 C283 C 1.14091 0.10351 0.34304
 C284 C 1.10361 0.10573 0.37343
 C285 C 1.13661 0.11389 0.37565
 C286 C 1.09586 0.13727 0.36277
 C287 C 1.12913 0.14572 0.36462
 C288 C 1.14939 0.15114 0.30915
 C289 C 1.16248 0.16410 0.28968
 C290 C 1.08690 0.08913 0.39594
 C291 C 1.07292 0.07523 0.41408
 H292 H 1.09866 0.07411 0.33179
 H293 H 1.08536 0.13240 0.31123
 H294 H 1.15962 0.08981 0.33467
 H295 H 1.15140 0.10836 0.39461
 H296 H 1.07714 0.15097 0.37114
 H297 H 1.13814 0.16672 0.37398
 C298 C 1.13127 -0.12428 0.62016
 C299 C 1.14759 -0.11011 0.64702
 C300 C 1.13380 -0.13378 0.66745
 C301 C 1.11774 -0.14822 0.64097
 C302 C 1.10448 -0.10412 0.62645
 C303 C 1.09070 -0.12779 0.64689
 C304 C 1.12054 -0.08970 0.65294
 C305 C 1.10700 -0.11361 0.67370
 C306 C 1.14988 -0.15004 0.69065
 C307 C 1.16286 -0.16316 0.71009
 C308 C 1.08791 -0.08735 0.60397
 C309 C 1.07404 -0.07331 0.58585
 H310 H 1.14106 -0.12847 0.59788
 H311 H 1.17117 -0.10303 0.64734
 H312 H 1.11678 -0.17247 0.63631
 H313 H 1.06712 -0.13487 0.64658
 H314 H 1.12151 -0.06546 0.65761
 H315 H 1.09719 -0.10940 0.69597
 C316 C 0.90698 -0.13351 0.35809
 C317 C 0.87598 -0.14776 0.36237
 C318 C 0.86632 -0.13464 0.33231
 C319 C 0.89706 -0.12065 0.32769
 C320 C 0.89569 -0.10509 0.37336
 C321 C 0.88602 -0.09200 0.34330
 C322 C 0.86495 -0.11906 0.37802
 C323 C 0.85503 -0.10622 0.34758
 C324 C 0.85023 -0.15086 0.30909
 C325 C 0.83726 -0.16395 0.28963
 C326 C 0.91231 -0.08840 0.39586
 C327 C 0.92624 -0.07444 0.41400
 H328 H 0.92853 -0.14455 0.36266
 H329 H 0.87167 -0.17088 0.36994
 H330 H 0.91010 -0.12148 0.30675
 H331 H 0.89033 -0.06888 0.33570
 H332 H 0.85194 -0.11822 0.39897
 H333 H 0.83349 -0.09518 0.34301
 C334 C 0.86952 0.09161 0.64567
 C335 C 0.88358 0.10591 0.67368
 C336 C 0.86548 0.13429 0.66788
 C337 C 0.85116 0.12025 0.64020
 C338 C 0.89470 0.10473 0.62673
 C339 C 0.87661 0.13311 0.62089
 C340 C 0.90899 0.11878 0.65441
 C341 C 0.89065 0.14742 0.64895
 C342 C 0.84945 0.15050 0.69115
 C343 C 0.83653 0.16358 0.71065
 C344 C 0.91122 0.08801 0.60419
 C345 C 0.92506 0.07400 0.58601
 H346 H 0.86102 0.06848 0.64407
 H347 H 0.88628 0.09490 0.69563
 H348 H 0.82720 0.12104 0.63463
 H349 H 0.87393 0.14410 0.59893
 H350 H 0.93295 0.11800 0.66001
 H351 H 0.89916 0.17055 0.65056
 C352 C 0.36218 1.09547 0.13666
 C353 C 0.36436 1.12862 0.14601
 C354 C 0.33255 1.13347 0.13476
 C355 C 0.33004 1.10059 0.12568
 C356 C 0.37362 1.10388 0.10557
 C357 C 0.34181 1.10875 0.09435
 C358 C 0.37617 1.13676 0.11463
 C359 C 0.34399 1.14187 0.10366
 C360 C 0.30932 1.14969 0.15075
 C361 C 0.28984 1.16278 0.16363
 C362 C 0.39612 1.08715 0.08905
 C363 C 0.41426 1.07314 0.07520
 H364 H 0.36992 1.07621 0.15005
 H365 H 0.37336 1.13698 0.16743
 H366 H 0.31082 1.08589 0.13039
 H367 H 0.33278 1.10040 0.07293
 H368 H 0.39540 1.15143 0.10990
 H369 H 0.33626 1.16112 0.09027
 C370 C 0.62308 1.11515 -0.13625
 C371 C 0.63584 1.14591 -0.12726
 C372 C 0.66723 1.13413 -0.13333
 C373 C 0.65486 1.10364 -0.14258
 C374 C 0.62622 1.10480 -0.10380
 C375 C 0.65762 1.09304 -0.10990
 C376 C 0.63860 1.13529 -0.09455
 C377 C 0.67034 1.12376 -0.10089
 C378 C 0.69044 1.15020 -0.14951
 C379 C 0.70989 1.16317 -0.16256
 C380 C 0.60375 1.08821 -0.08710
 C381 C 0.58563 1.07432 -0.07311
 H382 H 0.60339 1.11141 -0.15059
 H383 H 0.62714 1.16784 -0.13458
 H384 H 0.66180 1.09080 -0.16251
 H385 H 0.66634 1.07112 -0.10258
 H386 H 0.63166 1.14811 -0.07461
 H387 H 0.69002 1.12748 -0.08652
 C388 C 0.36072 0.90520 -0.13504
 C389 C 0.36369 0.87273 -0.14633
 C390 C 0.33249 0.86610 -0.13429
 C391 C 0.32919 0.89831 -0.12327
 C392 C 0.37356 0.89550 -0.10489
 C393 C 0.34236 0.88886 -0.09288
 C394 C 0.37690 0.86329 -0.11589
 C395 C 0.34533 0.85641 -0.10413
 C396 C 0.30926 0.85001 -0.15041
 C397 C 0.28979 0.83704 -0.16342
 C398 C 0.39605 0.91214 -0.08827
 C399 C 0.41418 0.92609 -0.07436
 H400 H 0.36730 0.92545 -0.14757
 H401 H 0.37219 0.86592 -0.16849
 H402 H 0.30932 0.91254 -0.12647
 H403 H 0.33383 0.89566 -0.07072
 H404 H 0.39678 0.84909 -0.11267
 H405 H 0.33875 0.83616 -0.09160
 C406 C 0.65755 0.88762 0.09249
 C407 C 0.67083 0.89725 0.12277
 C408 C 0.66753 0.86512 0.13401
 C409 C 0.65459 0.85524 0.10395
 C410 C 0.62640 0.89436 0.10456
 C411 C 0.62306 0.86223 0.11578
 C412 C 0.63934 0.90424 0.13461
 C413 C 0.63638 0.87185 0.14610
 C414 C 0.69080 0.84909 0.15014
 C415 C 0.71030 0.83617 0.16314
 C416 C 0.60386 0.91090 0.08790
 C417 C 0.58571 0.92477 0.07393
 H418 H 0.66601 0.89428 0.07026
 H419 H 0.69072 0.91148 0.12583
 H420 H 0.66111 0.83491 0.09153
 H421 H 0.60316 0.84802 0.11271
 H422 H 0.63282 0.92457 0.14703
 H423 H 0.62795 0.86518 0.16834
   
