data_POSCAR
  _audit_creation_date              2014-09-24
  _audit_creation_method            'ToBaCCo'
  _symmetry_space_group_name_H-M    'P1'
  _symmetry_Int_Tables_number       1
  _symmetry_cell_setting            triclinic
  loop_
  _symmetry_equiv_pos_as_xyz
 x,y,z
_cell_length_a 37.0745
_cell_length_b 37.3384
_cell_length_c 36.7424
_cell_angle_alpha 92.040300
_cell_angle_beta 90.228000
_cell_angle_gamma 84.660300
loop_
  _atom_site_label
  _atom_site_type_symbol
  _atom_site_fract_x
  _atom_site_fract_y
  _atom_site_fract_z
C1 C 0.19708 0.56616 1.05718
 H2 H 0.20359 0.59108 1.04583
 C3 C 0.16825 0.56668 1.08160
 H4 H 0.15457 0.59238 1.09048
 C5 C 0.20667 0.50275 1.05904
 H6 H 0.22093 0.47772 1.04944
 C7 C 0.17758 0.50197 1.08290
 H8 H 0.17010 0.47605 1.09095
 N9 N 0.21523 0.53441 1.04580
 C10 C 0.29082 0.57656 0.97069
 H11 H 0.28506 0.55991 0.94707
 C12 C 0.32010 0.59747 0.97004
 H13 H 0.33639 0.59733 0.94562
 C14 C 0.27959 0.59334 1.03276
 H15 H 0.26581 0.58952 1.05797
 C16 C 0.30794 0.61549 1.03293
 H17 H 0.31460 0.62977 1.05787
 Zn18 Zn 0.24591 0.53274 1.00426
 N19 N 0.27223 0.57371 1.00215
 C20 C 0.18362 0.55193 0.96412
 N21 N 0.21511 0.53006 0.96303
 C22 C 0.22162 0.50444 0.93597
 C23 C 0.19461 0.49808 0.91050
 C24 C 0.15582 0.54626 0.93950
 C25 C 0.31597 0.49876 1.01239
 C26 C 0.34387 0.47112 1.01085
 C27 C 0.29988 0.42905 0.99618
 C28 C 0.27264 0.45771 0.99772
 N29 N 0.28116 0.49196 1.00511
 H30 H 0.17920 0.57255 0.98538
 H31 H 0.24716 0.48797 0.93490
 H32 H 0.19940 0.47663 0.88998
 H33 H 0.13013 0.56251 0.94201
 H34 H 0.32245 0.52576 1.01920
 H35 H 0.37146 0.47722 1.01604
 H36 H 0.29295 0.40197 0.98992
 H37 H 0.24484 0.45268 0.99223
 C38 C 0.33000 0.61573 1.00200
 C39 C 0.15649 0.53412 1.09306
 C40 C 0.33606 0.43593 1.00200
 C41 C 0.16069 0.51806 0.91335
 C42 C 0.80331 0.50283 -0.04107
 H43 H 0.79875 0.52504 -0.02142
 C44 C 0.83226 0.50183 -0.06520
 H45 H 0.84980 0.52349 -0.06435
 C46 C 0.78730 0.44644 -0.06455
 H47 H 0.77043 0.42441 -0.06319
 C48 C 0.81614 0.44436 -0.08930
 H49 H 0.82109 0.42097 -0.10749
 N50 N 0.78187 0.47521 -0.04076
 C51 C 0.69504 0.52375 0.02897
 H52 H 0.69775 0.50513 0.05092
 C53 C 0.66711 0.55147 0.02964
 H54 H 0.64831 0.55429 0.05227
 C55 C 0.71477 0.54119 -0.02857
 H56 H 0.73261 0.53623 -0.05175
 C57 C 0.68719 0.56940 -0.02896
 H58 H 0.68426 0.58647 -0.05220
 Zn59 Zn 0.75011 0.47673 -0.00065
 N60 N 0.71800 0.51901 0.00008
 C61 C 0.78810 0.50825 0.05634
 N62 N 0.78084 0.47625 0.04044
 C63 C 0.80116 0.44514 0.04793
 C64 C 0.83031 0.44552 0.07204
 C65 C 0.81790 0.51002 0.07948
 C66 C 0.69698 0.43734 -0.03076
 C67 C 0.66783 0.41626 -0.03008
 C68 C 0.68767 0.39615 0.02913
 C69 C 0.71619 0.41803 0.02757
 N70 N 0.71993 0.43853 -0.00185
 H71 H 0.77241 0.53280 0.04896
 H72 H 0.79592 0.42028 0.03374
 H73 H 0.84641 0.42058 0.07752
 H74 H 0.82457 0.53594 0.09031
 H75 H 0.70002 0.45461 -0.05337
 H76 H 0.64869 0.41697 -0.05245
 H77 H 0.68411 0.38095 0.05321
 H78 H 0.73366 0.42038 0.05093
 C79 C 0.66294 0.57460 0.00037
 C80 C 0.83947 0.47194 -0.08895
 C81 C 0.66224 0.39644 0.00074
 C82 C 0.84019 0.47852 0.08646
 C83 C -0.05823 0.29993 0.43861
 H84 H -0.08176 0.29771 0.45540
 C85 C -0.05846 0.32754 0.41389
 H86 H -0.08231 0.34651 0.41249
 C87 C 0.00307 0.28114 0.42479
 H88 H 0.02768 0.26456 0.43067
 C89 C 0.00402 0.30820 0.39972
 H90 H 0.02910 0.31064 0.38538
 N91 N -0.02771 0.27755 0.44373
 C92 C -0.06705 0.20145 0.51816
 H93 H -0.04845 0.20580 0.54028
 C94 C -0.09048 0.17458 0.52029
 H95 H -0.09001 0.15844 0.54424
 C96 C -0.08782 0.21499 0.45863
 H97 H -0.08538 0.22968 0.43407
 C98 C -0.11180 0.18819 0.45962
 H99 H -0.12834 0.18282 0.43605
 Zn100 Zn -0.02609 0.24856 0.48495
 N101 N -0.06584 0.22075 0.48758
 C102 C -0.05293 0.28834 0.54856
 N103 N -0.02455 0.28100 0.52526
 C104 C 0.00496 0.30004 0.52712
 C105 C 0.00638 0.32845 0.55258
 C106 C -0.05254 0.31651 0.57463
 C107 C 0.02425 0.19599 0.45308
 C108 C 0.04923 0.16568 0.45335
 C109 C 0.05312 0.17296 0.51880
 C110 C 0.02917 0.20403 0.51714
 N111 N 0.01485 0.21456 0.48466
 H112 H -0.07647 0.27340 0.54600
 H113 H 0.02685 0.29389 0.50787
 H114 H 0.02958 0.34407 0.55315
 H115 H -0.07550 0.32277 0.59263
 H116 H 0.01123 0.20381 0.42783
 H117 H 0.05659 0.15130 0.42795
 H118 H 0.06301 0.16395 0.54502
 H119 H 0.02029 0.21848 0.54202
 C120 C -0.11293 0.16745 0.49066
 C121 C -0.02684 0.33243 0.39420
 C122 C 0.06252 0.15279 0.48670
 C123 C -0.02300 0.33743 0.57604
 C124 C 0.98613 0.69433 0.55723
 H125 H 0.96390 0.69999 0.53853
 C126 C 0.98585 0.66545 0.58020
 H127 H 0.96316 0.64914 0.57949
 C128 C 1.04423 0.70677 0.57877
 H129 H 1.06758 0.72191 0.57684
 C130 C 1.04505 0.67802 0.60226
 H131 H 1.06876 0.67151 0.61892
 N132 N 1.01530 0.71383 0.55638
 C133 C 0.97618 0.80053 0.48606
 H134 H 0.99622 0.79541 0.46473
 C135 C 0.95106 0.83067 0.48491
 H136 H 0.95153 0.84861 0.46243
 C137 C 0.95253 0.78445 0.54248
 H138 H 0.95408 0.76703 0.56542
 C139 C 0.92670 0.81425 0.54228
 H140 H 0.90787 0.81931 0.56473
 Zn141 Zn 1.01736 0.74408 0.51655
 N142 N 0.97687 0.77853 0.51480
 C143 C 0.98631 0.70527 0.45989
 N144 N 1.01843 0.71258 0.47512
 C145 C 1.04973 0.69216 0.46645
 C146 C 1.04953 0.66325 0.44135
 C147 C 0.98467 0.67562 0.43586
 C148 C 1.05946 0.79343 0.54948
 C149 C 1.08324 0.82031 0.55082
 C150 C 1.10423 0.80064 0.49057
 C151 C 1.07974 0.77439 0.49019
 N152 N 1.05778 0.77145 0.51932
 H153 H 0.96159 0.72102 0.46825
 H154 H 1.07465 0.69727 0.48025
 H155 H 1.07470 0.64734 0.43464
 H156 H 0.95864 0.66908 0.42539
 H157 H 1.04071 0.79146 0.57165
 H158 H 1.08272 0.83895 0.57412
 H159 H 1.12051 0.80369 0.46666
 H160 H 1.07665 0.75818 0.46566
 C161 C 0.92662 0.83828 0.51373
 C162 C 1.01606 0.65639 0.60210
 C163 C 1.10562 0.82445 0.52087
 C164 C 1.01643 0.65351 0.42726
 C165 C 0.43207 -0.02230 0.28081
 H166 H 0.44297 -0.04764 0.26836
 C167 C 0.40474 -0.02200 0.30684
 H168 H 0.39408 -0.04702 0.31342
 C169 C 0.43524 0.04046 0.29047
 H170 H 0.44846 0.06434 0.28503
 C171 C 0.40852 0.04180 0.31728
 H172 H 0.40124 0.06685 0.33237
 N173 N 0.44693 0.00860 0.27338
 C174 C 0.52832 -0.05053 0.20517
 H175 H 0.55231 -0.04203 0.21830
 C176 C 0.53189 -0.07702 0.17723
 H177 H 0.55889 -0.08751 0.16881
 C178 C 0.46477 -0.04361 0.19707
 H179 H 0.43868 -0.02983 0.20412
 C180 C 0.46699 -0.07036 0.16956
 H181 H 0.44214 -0.07743 0.15674
 Zn182 Zn 0.49067 0.00688 0.24669
 N183 N 0.49515 -0.03414 0.21432
 C184 C 0.56448 0.00830 0.27218
 N185 N 0.52934 0.00521 0.28139
 C186 C 0.52001 0.00035 0.31658
 C187 C 0.54604 -0.00127 0.34396
 C188 C 0.59156 0.00687 0.29897
 C189 C 0.46195 0.05076 0.19262
 C190 C 0.46097 0.07683 0.16636
 C191 C 0.51538 0.09787 0.19251
 C192 C 0.51524 0.07136 0.21851
 N193 N 0.48929 0.04782 0.21742
 H194 H 0.57155 0.01208 0.24415
 H195 H 0.49231 -0.00262 0.32375
 H196 H 0.53806 -0.00520 0.37176
 H197 H 0.61939 0.00957 0.29154
 H198 H 0.44141 0.03206 0.19251
 H199 H 0.43982 0.07787 0.14589
 H200 H 0.53681 0.11570 0.19271
 H201 H 0.53642 0.06908 0.23875
 C202 C 0.50094 -0.08749 0.15878
 C203 C 0.39329 0.01017 0.32605
 C204 C 0.48819 0.10042 0.16583
 C205 C 0.58221 0.00189 0.33527
 C206 C 0.54104 -0.03367 0.69139
 H207 H 0.52250 -0.05429 0.69297
 C208 C 0.56727 -0.03609 0.66415
 H209 H 0.56894 -0.05868 0.64471
 C210 C 0.55952 0.02234 0.71320
 H211 H 0.55547 0.04556 0.73164
 C212 C 0.58625 0.02098 0.68628
 H213 H 0.60308 0.04303 0.68430
 N214 N 0.53738 -0.00464 0.71490
 C215 C 0.46676 -0.05048 0.79069
 H216 H 0.44124 -0.03542 0.78463
 C217 C 0.46806 -0.07688 0.81671
 H218 H 0.44320 -0.08274 0.82969
 C219 C 0.53045 -0.05922 0.78315
 H220 H 0.55479 -0.05117 0.77095
 C221 C 0.53314 -0.08466 0.81020
 H222 H 0.55969 -0.09589 0.81872
 Zn223 Zn 0.49627 -0.00169 0.74515
 N224 N 0.49762 -0.04254 0.77413
 C225 C 0.43638 -0.02718 0.70627
 N226 N 0.45621 0.00127 0.71293
 C227 C 0.45155 0.03118 0.69273
 C228 C 0.42581 0.03356 0.66491
 C229 C 0.41028 -0.02590 0.67871
 C230 C 0.52267 0.03789 0.80285
 C231 C 0.52118 0.06246 0.83242
 C232 C 0.46356 0.08871 0.81028
 C233 C 0.46591 0.06329 0.78129
 N234 N 0.49498 0.03825 0.77843
 H235 H 0.44188 -0.05159 0.72100
 H236 H 0.46875 0.05275 0.69751
 H237 H 0.42300 0.05714 0.64843
 H238 H 0.39516 -0.04894 0.67312
 H239 H 0.54523 0.01743 0.80019
 H240 H 0.54278 0.06101 0.85239
 H241 H 0.43998 0.10805 0.81285
 H242 H 0.44377 0.06263 0.76215
 C243 C 0.50164 -0.09398 0.82724
 C244 C 0.59005 -0.00841 0.66122
 C245 C 0.49085 0.08753 0.83692
 C246 C 0.40488 0.00474 0.65770
 C247 C 0.20810 -0.03927 0.50603
 C248 C 0.22125 -0.00663 0.49749
 C249 C 0.19705 0.02368 0.49158
 C250 C 0.15963 0.02210 0.49564
 C251 C 0.14684 -0.01032 0.50597
 C252 C 0.17074 -0.04136 0.51001
 C253 C 0.26035 -0.00347 0.49588
 C254 C 0.27720 0.00059 0.46243
 C255 C 0.31396 0.00665 0.46117
 C256 C 0.33377 0.00821 0.49378
 C257 C 0.31701 0.00414 0.52735
 C258 C 0.28038 -0.00224 0.52819
 H259 H 0.22685 -0.06304 0.50910
 H260 H 0.20747 0.04865 0.48432
 H261 H 0.26169 -0.00099 0.43744
 H262 H 0.26728 -0.00541 0.55406
 H263 H 0.11808 -0.01171 0.51010
 H264 H 0.36220 0.01281 0.49306
 C265 C 0.79265 -0.03298 0.50249
 C266 C 0.76940 -0.00197 0.49666
 C267 C 0.78356 0.03116 0.49314
 C268 C 0.82093 0.03366 0.49633
 C269 C 0.84427 0.00233 0.50109
 C270 C 0.83020 -0.03107 0.50463
 C271 C 0.73008 -0.00385 0.49613
 C272 C 0.71154 -0.00656 0.52889
 C273 C 0.67395 -0.00829 0.52888
 C274 C 0.65498 -0.00702 0.49574
 C275 C 0.67348 -0.00457 0.46277
 C276 C 0.71104 -0.00250 0.46315
 H277 H 0.78150 -0.05854 0.50549
 H278 H 0.76541 0.05519 0.48912
 H279 H 0.72632 -0.00695 0.55442
 H280 H 0.72542 -0.00014 0.43784
 H281 H 0.87325 0.00404 0.50278
 H282 H 0.62588 -0.00823 0.49557
 C283 C 0.52820 0.28962 1.00268
 C284 C 0.49515 0.27428 0.99970
 C285 C 0.46265 0.29643 0.99727
 C286 C 0.46308 0.33389 0.99761
 C287 C 0.49620 0.34911 1.00012
 C288 C 0.52890 0.32716 1.00316
 C289 C 0.49430 0.23511 1.00046
 C290 C 0.49504 0.21819 1.03389
 C291 C 0.49244 0.18105 1.03501
 C292 C 0.49039 0.16071 1.00236
 C293 C 0.48908 0.17754 0.96870
 C294 C 0.49121 0.21483 0.96794
 H295 H 0.55325 0.27241 1.00496
 H296 H 0.43706 0.28458 0.99569
 H297 H 0.49680 0.23402 1.05905
 H298 H 0.49017 0.22811 0.94215
 H299 H 0.49648 0.37812 1.00009
 H300 H 0.48897 0.13188 1.00318
 C301 C 0.53312 0.70903 -0.00823
 C302 C 0.50096 0.73178 -0.00730
 C303 C 0.46765 0.71744 -0.00354
 C304 C 0.46636 0.68011 -0.00115
 C305 C 0.49886 0.65739 -0.00297
 C306 C 0.53232 0.67188 -0.00504
 C307 C 0.50297 0.77077 -0.00746
 C308 C 0.50458 0.78820 -0.04042
 C309 C 0.51091 0.82472 -0.04064
 C310 C 0.51455 0.84368 -0.00724
 C311 C 0.51166 0.82661 0.02593
 C312 C 0.50568 0.79010 0.02556
 H313 H 0.55891 0.72037 -0.01016
 H314 H 0.44290 0.73532 -0.00189
 H315 H 0.50102 0.77325 -0.06580
 H316 H 0.50320 0.77664 0.05097
 H317 H 0.49821 0.62852 -0.00143
 H318 H 0.51900 0.87197 -0.00700
 C319 C 1.00624 0.52888 0.29471
 C320 C 0.99825 0.49969 0.27186
 C321 C 0.98898 0.46798 0.28730
 C322 C 0.98630 0.46577 0.32513
 C323 C 0.99251 0.49570 0.34759
 C324 C 1.00358 0.52711 0.33276
 C325 C 0.99893 0.50243 0.23184
 C326 C 1.02868 0.51514 0.21453
 C327 C 1.02903 0.51810 0.17657
 C328 C 0.99903 0.50873 0.15611
 C329 C 0.96931 0.49539 0.17291
 C330 C 0.96954 0.49231 0.21086
 H331 H 1.01392 0.55321 0.28284
 H332 H 0.98445 0.44476 0.26990
 H333 H 1.05182 0.52213 0.23048
 H334 H 0.94655 0.48248 0.22417
 H335 H 0.98933 0.49418 0.37679
 H336 H 0.99906 0.51135 0.12684
 C337 C 0.00933 0.52112 0.71435
 C338 C 0.00092 0.48955 0.73074
 C339 C -0.00827 0.46019 0.70894
 C340 C -0.00914 0.46216 0.67093
 C341 C -0.00095 0.49394 0.65480
 C342 C 0.00836 0.52353 0.67633
 C343 C 0.00148 0.48725 0.77069
 C344 C -0.02968 0.47943 0.78925
 C345 C -0.02962 0.47768 0.82733
 C346 C 0.00217 0.48358 0.84671
 C347 C 0.03392 0.49006 0.82825
 C348 C 0.03316 0.49267 0.79029
 H349 H 0.01616 0.54396 0.73119
 H350 H -0.01440 0.43564 0.72153
 H351 H -0.05419 0.47530 0.77410
 H352 H 0.05743 0.49813 0.77593
 H353 H -0.00180 0.49561 0.62541
 H354 H 0.00228 0.48304 0.87618
 C355 C 0.07655 0.08583 0.47037
 C356 C 0.08579 0.11819 0.48819
 C357 C 0.11852 0.11800 0.50738
 C358 C 0.14195 0.08681 0.50918
 C359 C 0.13420 0.05486 0.49080
 C360 C 0.10186 0.05462 0.46992
 C361 C 0.04246 0.08345 0.45353
 C362 C 0.03492 0.05246 0.43378
 C363 C 0.06100 0.02327 0.43046
 C364 C 0.09418 0.02422 0.44823
 H365 H 0.02114 0.10520 0.45574
 H366 H 0.00883 0.05123 0.42069
 H367 H 0.05534 -0.00041 0.41436
 H368 H 0.11375 0.00107 0.44450
 H369 H 0.12605 0.14230 0.52125
 H370 H 0.16636 0.08762 0.52538
 C371 C 0.62464 0.62932 0.02689
 C372 C 0.63144 0.60207 -0.00077
 C373 C 0.60628 0.59899 -0.02901
 C374 C 0.57439 0.62177 -0.02987
 C375 C 0.56660 0.64834 -0.00248
 C376 C 0.59162 0.65216 0.02647
 C377 C 0.65006 0.63454 0.05485
 C378 C 0.64251 0.66060 0.08258
 C379 C 0.60962 0.68184 0.08307
 C380 C 0.58431 0.67771 0.05543
 H381 H 0.67605 0.61879 0.05541
 H382 H 0.66220 0.66419 0.10391
 H383 H 0.60371 0.70170 0.10493
 H384 H 0.55898 0.69455 0.05724
 H385 H 0.61102 0.57818 -0.05022
 H386 H 0.55551 0.61859 -0.05207
 C387 C 0.90338 -0.10032 0.54115
 C388 C 0.90181 -0.12818 0.51400
 C389 C 0.87686 -0.12367 0.48546
 C390 C 0.85369 -0.09229 0.48330
 C391 C 0.85463 -0.06433 0.50965
 C392 C 0.87902 -0.06849 0.53939
 C393 C 0.92907 -0.10299 0.56965
 C394 C 0.92954 -0.07590 0.59671
 C395 C 0.90463 -0.04568 0.59594
 C396 C 0.87955 -0.04190 0.56765
 H397 H 0.94913 -0.12581 0.57127
 H398 H 0.94925 -0.07845 0.61851
 H399 H 0.90485 -0.02496 0.61729
 H400 H 0.86052 -0.01811 0.56835
 H401 H 0.87549 -0.14461 0.46445
 H402 H 0.83516 -0.08956 0.46048
 C403 C 0.37592 0.38752 0.96650
 C404 C 0.36618 0.40690 0.99953
 C405 C 0.38760 0.40092 1.03062
 C406 C 0.41847 0.37675 1.02946
 C407 C 0.42882 0.35752 0.99726
 C408 C 0.40738 0.36238 0.96549
 C409 C 0.35600 0.39350 0.93409
 C410 C 0.36622 0.37449 0.90183
 C411 C 0.39662 0.34962 0.90103
 C412 C 0.41723 0.34370 0.93243
 H413 H 0.33264 0.41304 0.93316
 H414 H 0.35059 0.37927 0.87725
 H415 H 0.40448 0.33511 0.87585
 H416 H 0.44102 0.32461 0.93046
 H417 H 0.38070 0.41572 1.05593
 H418 H 0.43475 0.37329 1.05387
 C419 C 0.84079 0.13090 0.51921
 C420 C 0.86578 0.13576 0.49107
 C421 C 0.87413 0.10793 0.46503
 C422 C 0.85921 0.07521 0.46713
 C423 C 0.83552 0.06922 0.49538
 C424 C 0.82615 0.09713 0.52188
 C425 C 0.83006 0.15895 0.54480
 C426 C 0.80668 0.15339 0.57325
 C427 C 0.79364 0.11994 0.57682
 C428 C 0.80326 0.09199 0.55154
 H429 H 0.83942 0.18541 0.54290
 H430 H 0.79882 0.17510 0.59276
 H431 H 0.77589 0.11565 0.59926
 H432 H 0.79279 0.06638 0.55571
 H433 H 0.89341 0.11111 0.44356
 H434 H 0.86654 0.05415 0.44672
 C435 C 0.39231 0.62250 0.02959
 C436 C 0.36488 0.63238 0.00368
 C437 C 0.37106 0.65805 -0.02190
 C438 C 0.40369 0.67370 -0.02249
 C439 C 0.43103 0.66480 0.00298
 C440 C 0.42481 0.64017 0.03034
 C441 C 0.38872 0.59483 0.05427
 C442 C 0.41484 0.58706 0.08094
 C443 C 0.44503 0.60646 0.08357
 C444 C 0.45009 0.63277 0.05860
 H445 H 0.36608 0.57860 0.05309
 H446 H 0.41147 0.56606 0.09987
 H447 H 0.46486 0.60083 0.10480
 H448 H 0.47381 0.64737 0.06191
 H449 H 0.35056 0.66569 -0.04199
 H450 H 0.40790 0.69249 -0.04352
 C451 C 0.15061 -0.13297 0.54595
 C452 C 0.12576 -0.14313 0.51883
 C453 C 0.11727 -0.12031 0.48996
 C454 C 0.13220 -0.08773 0.48788
 C455 C 0.15604 -0.07651 0.51470
 C456 C 0.16538 -0.09907 0.54423
 C457 C 0.16138 -0.15585 0.57456
 C458 C 0.18486 -0.14501 0.60168
 C459 C 0.19803 -0.11134 0.60085
 C460 C 0.18842 -0.08846 0.57250
 H461 H 0.15201 -0.18234 0.57607
 H462 H 0.19276 -0.16278 0.62355
 H463 H 0.21591 -0.10293 0.62223
 H464 H 0.19900 -0.06242 0.57316
 H465 H 0.09813 -0.12741 0.46916
 H466 H 0.12492 -0.07093 0.46504
 C467 C 0.60247 0.38824 1.03181
 C468 C 0.62854 0.37827 1.00413
 C469 C 0.62193 0.35118 0.97828
 C470 C 0.59006 0.33420 0.97913
 C471 C 0.56381 0.34361 1.00599
 C472 C 0.57042 0.37000 1.03337
 C473 C 0.60704 0.41656 1.05750
 C474 C 0.58186 0.42514 1.08527
 C475 C 0.55167 0.40592 1.08799
 C476 C 0.54589 0.37860 1.06239
 H477 H 0.62981 0.43256 1.05634
 H478 H 0.58591 0.44672 1.10489
 H479 H 0.53249 0.41237 1.10992
 H480 H 0.52220 0.36419 1.06576
 H481 H 0.64146 0.34345 0.95691
 H482 H 0.58542 0.31412 0.95804
 C483 C 0.46064 0.15128 1.12740
 C484 C 0.48965 0.12524 1.13538
 C485 C 0.51925 0.11980 1.11159
 C486 C 0.51986 0.13853 1.07955
 C487 C 0.49096 0.16339 1.07034
 C488 C 0.46103 0.17016 1.09437
 C489 C 0.43120 0.15895 1.15156
 C490 C 0.40227 0.18375 1.14286
 C491 C 0.40205 0.20129 1.11006
 C492 C 0.43103 0.19461 1.08592
 H493 H 0.43042 0.14609 1.17744
 H494 H 0.37983 0.18929 1.16160
 H495 H 0.37934 0.22024 1.10330
 H496 H 0.42953 0.20865 1.06065
 H497 H 0.54151 0.09983 1.11722
 H498 H 0.54285 0.13314 1.06140
 C499 C 0.04177 0.59207 0.61195
 C500 C 0.01805 0.62273 0.62240
 C501 C -0.00614 0.62065 0.65120
 C502 C -0.00777 0.58869 0.66924
 C503 C 0.01477 0.55774 0.65906
 C504 C 0.04065 0.55956 0.63097
 C505 C 0.06595 0.59267 0.58240
 C506 C 0.08953 0.56253 0.57289
 C507 C 0.08958 0.53135 0.59253
 C508 C 0.06550 0.52977 0.62135
 H509 H 0.06684 0.61623 0.56628
 H510 H 0.10803 0.56346 0.55029
 H511 H 0.10829 0.50821 0.58531
 H512 H 0.06672 0.50513 0.63610
 H513 H -0.02458 0.64380 0.65921
 H514 H -0.02774 0.58774 0.69055
 C515 C 0.52604 0.84917 -0.14010
 C516 C 0.50401 0.88241 -0.14081
 C517 C 0.48534 0.89522 -0.10916
 C518 C 0.48810 0.87614 -0.07740
 C519 C 0.51068 0.84404 -0.07541
 C520 C 0.53079 0.83079 -0.10673
 C521 C 0.54315 0.83349 -0.17185
 C522 C 0.56672 0.80224 -0.17023
 C523 C 0.57369 0.78602 -0.13712
 C524 C 0.55603 0.80008 -0.10561
 H525 H 0.53825 0.84494 -0.19823
 H526 H 0.57993 0.79076 -0.19474
 H527 H 0.59264 0.76223 -0.13588
 H528 H 0.56269 0.78685 -0.08044
 H529 H 0.46863 0.92063 -0.10877
 H530 H 0.47230 0.88670 -0.05400
 C531 C 0.94706 0.37824 0.35054
 C532 C 0.97551 0.36348 0.37346
 C533 C 1.00656 0.38225 0.37798
 C534 C 1.00897 0.41528 0.36249
 C535 C 0.98072 0.43104 0.34152
 C536 C 0.94939 0.41266 0.33531
 C537 C 0.91742 0.35877 0.34045
 C538 C 0.88944 0.37398 0.31885
 C539 C 0.89059 0.40855 0.30629
 C540 C 0.92029 0.42776 0.31422
 H541 H 0.91592 0.33135 0.34838
 H542 H 0.86679 0.35879 0.31172
 H543 H 0.86863 0.42033 0.28979
 H544 H 0.92028 0.45440 0.30357
 H545 H 1.02866 0.37244 0.39543
 H546 H 1.03326 0.42887 0.36714
 C547 C 0.52926 0.85729 0.12492
 C548 C 0.50387 0.88853 0.12781
 C549 C 0.48199 0.89733 0.09738
 C550 C 0.48563 0.87736 0.06486
 C551 C 0.51145 0.84780 0.06088
 C552 C 0.53406 0.83784 0.09079
 C553 C 0.54834 0.84338 0.15553
 C554 C 0.57417 0.81386 0.15185
 C555 C 0.58117 0.79714 0.11787
 C556 C 0.56128 0.80881 0.08759
 H557 H 0.54296 0.85452 0.18272
 H558 H 0.58883 0.80390 0.17552
 H559 H 0.60163 0.77457 0.11508
 H560 H 0.56741 0.79485 0.06174
 H561 H 0.46272 0.92100 0.09791
 H562 H 0.46789 0.88515 0.04240
 C563 C -0.04751 0.40044 0.59770
 C564 C -0.02280 0.36932 0.60114
 C565 C 0.00406 0.36899 0.62802
 C566 C 0.00722 0.39893 0.65102
 C567 C -0.01640 0.43020 0.64792
 C568 C -0.04470 0.43087 0.62178
 C569 C -0.07444 0.40238 0.57035
 C570 C -0.09897 0.43285 0.56786
 C571 C -0.09717 0.46192 0.59236
 C572 C -0.07037 0.46106 0.61911
 H573 H -0.07675 0.38060 0.55055
 H574 H -0.11959 0.43386 0.54688
 H575 H -0.11655 0.48533 0.59052
 H576 H -0.07014 0.48412 0.63775
 H577 H 0.02319 0.34548 0.63080
 H578 H 0.02899 0.39803 0.67082
 C579 C 0.45897 0.11043 0.89570
 C580 C 0.48751 0.11139 0.87015
 C581 C 0.51447 0.13469 0.87691
 C582 C 0.51391 0.15652 0.90845
 C583 C 0.48627 0.15596 0.93424
 C584 C 0.45782 0.13364 0.92746
 C585 C 0.43196 0.08635 0.89094
 C586 C 0.40346 0.08662 0.91562
 C587 C 0.40129 0.11067 0.94549
 C588 C 0.42811 0.13400 0.95147
 H589 H 0.43262 0.06691 0.86840
 H590 H 0.38284 0.06818 0.91143
 H591 H 0.37882 0.11108 0.96427
 H592 H 0.42515 0.15242 0.97488
 H593 H 0.53648 0.13561 0.85776
 H594 H 0.53579 0.17345 0.91319
 C595 C 1.03143 0.58599 0.41428
 C596 C 1.01472 0.62007 0.40420
 C597 C 0.99604 0.62266 0.37104
 C598 C 0.99335 0.59252 0.34818
 C599 C 1.01037 0.55877 0.35689
 C600 C 1.03114 0.55574 0.38945
 C601 C 1.04776 0.58090 0.44880
 C602 C 1.06645 0.54808 0.45713
 C603 C 1.06924 0.51972 0.43144
 C604 C 1.05186 0.52339 0.39789
 H605 H 1.04592 0.60190 0.46989
 H606 H 1.07915 0.54478 0.48353
 H607 H 1.08455 0.49457 0.43770
 H608 H 1.05507 0.50074 0.37865
 H609 H 0.98303 0.64831 0.36284
 H610 H 0.97725 0.59556 0.32363
 C611 C 1.09135 0.55496 0.10686
 C612 C 1.12439 0.53319 0.11387
 C613 C 1.12493 0.50920 0.14262
 C614 C 1.09442 0.50621 0.16373
 C615 C 1.06206 0.52746 0.15759
 C616 C 1.06087 0.55336 0.13023
 C617 C 1.08648 0.57606 0.07560
 C618 C 1.05473 0.59840 0.07043
 C619 C 1.02673 0.59965 0.09559
 C620 C 1.02952 0.57716 0.12508
 H621 H 1.10640 0.57489 0.05417
 H622 H 1.05181 0.61476 0.04666
 H623 H 1.00234 0.61740 0.09171
 H624 H 1.00687 0.57842 0.14370
 H625 H 1.14941 0.49256 0.14927
 H626 H 1.09586 0.48620 0.18446
 C627 C 0.64164 -0.03742 0.62152
 C628 C 0.61485 -0.00860 0.62964
 C629 C 0.60896 0.01938 0.60530
 C630 C 0.62830 0.01881 0.57290
 C631 C 0.65418 -0.00977 0.56370
 C632 C 0.66103 -0.03835 0.58799
 C633 C 0.64975 -0.06525 0.64611
 C634 C 0.67528 -0.09403 0.63729
 C635 C 0.69314 -0.09568 0.60395
 C636 C 0.68614 -0.06824 0.57942
 H637 H 0.63669 -0.06488 0.67241
 H638 H 0.68111 -0.11524 0.65636
 H639 H 0.71262 -0.11831 0.59709
 H640 H 0.70038 -0.07086 0.55371
 H641 H 0.58843 0.04145 0.61098
 H642 H 0.62292 0.04088 0.55469
 C643 C -0.09743 0.44403 0.89404
 C644 C -0.12761 0.46942 0.88806
 C645 C -0.12551 0.49502 0.86143
 C646 C -0.09399 0.49639 0.84130
 C647 C -0.06350 0.47211 0.84701
 C648 C -0.06547 0.44482 0.87269
 C649 C -0.09790 0.41841 0.92138
 C650 C -0.06832 0.39316 0.92639
 C651 C -0.03790 0.39276 0.90429
 C652 C -0.03643 0.41819 0.87758
 H653 H -0.12093 0.41768 0.93920
 H654 H -0.06913 0.37360 0.94736
 H655 H -0.01525 0.37272 0.90791
 H656 H -0.01257 0.41654 0.86062
 H657 H -0.14824 0.51476 0.85684
 H658 H -0.09300 0.51741 0.82184
 C659 C 0.33865 0.03389 0.36504
 C660 C 0.36991 0.00953 0.35872
 C661 C 0.38126 -0.01479 0.38557
 C662 C 0.36274 -0.01510 0.41829
 C663 C 0.33244 0.00924 0.42573
 C664 C 0.32035 0.03445 0.39921
 C665 C 0.32492 0.05749 0.33806
 C666 C 0.29519 0.08240 0.34521
 C667 C 0.27860 0.08431 0.37922
 C668 C 0.29099 0.06069 0.40606
 H669 H 0.33680 0.05673 0.31118
 H670 H 0.28511 0.10049 0.32434
 H671 H 0.25588 0.10409 0.38479
 H672 H 0.27754 0.06349 0.43219
 H673 H 0.40524 -0.03340 0.38147
 H674 H 0.37228 -0.03459 0.43814
 C675 C 0.11483 0.47486 0.89303
 C676 C 0.12958 0.50848 0.89069
 C677 C 0.11343 0.53429 0.86748
 C678 C 0.08301 0.52752 0.84691
 C679 C 0.06783 0.49466 0.84878
 C680 C 0.08439 0.46755 0.87110
 C681 C 0.12909 0.44856 0.91727
 C682 C 0.11504 0.41525 0.91834
 C683 C 0.08667 0.40741 0.89542
 C684 C 0.07148 0.43318 0.87193
 H685 H 0.15095 0.45343 0.93579
 H686 H 0.12641 0.39531 0.93689
 H687 H 0.07625 0.38130 0.89595
 H688 H 0.04987 0.42577 0.85421
 H689 H 0.12425 0.56014 0.86563
 H690 H 0.07072 0.54843 0.82990
 C691 C 0.63533 -0.02960 0.36903
 C692 C 0.60945 0.00040 0.36484
 C693 C 0.60633 0.02802 0.39174
 C694 C 0.62782 0.02615 0.42282
 C695 C 0.65315 -0.00341 0.42803
 C696 C 0.65737 -0.03156 0.40096
 C697 C 0.63887 -0.05836 0.34291
 C698 C 0.66378 -0.08813 0.34788
 C699 C 0.68522 -0.09009 0.37905
 C700 C 0.68198 -0.06228 0.40552
 H701 H 0.62236 -0.05826 0.31858
 H702 H 0.66625 -0.10995 0.32758
 H703 H 0.70426 -0.11344 0.38289
 H704 H 0.69865 -0.06533 0.42962
 H705 H 0.58635 0.05088 0.38903
 H706 H 0.62429 0.04776 0.44335
 C707 C 0.90854 0.46496 0.09491
 C708 C 0.87422 0.48052 0.10774
 C709 C 0.87207 0.49879 0.14174
 C710 C 0.90292 0.50241 0.16271
 C711 C 0.93702 0.48693 0.15105
 C712 C 0.93969 0.46645 0.11765
 C713 C 0.91296 0.44875 0.05964
 C714 C 0.94623 0.43144 0.04850
 C715 C 0.97573 0.43002 0.07206
 C716 C 0.97262 0.44729 0.10631
 H717 H 0.89109 0.44959 0.04010
 H718 H 0.94903 0.41881 0.02155
 H719 H 1.00128 0.41586 0.06358
 H720 H 0.99617 0.44525 0.12383
 H721 H 0.84623 0.51091 0.15198
 H722 H 0.90018 0.51823 0.18800
 C723 C 0.35055 0.03189 0.62221
 C724 C 0.38006 0.00525 0.62599
 C725 C 0.38766 -0.02074 0.59796
 C726 C 0.36703 -0.02044 0.56627
 C727 C 0.33810 0.00584 0.56156
 C728 C 0.32972 0.03253 0.58949
 C729 C 0.34103 0.05771 0.65037
 C730 C 0.31256 0.08433 0.64589
 C731 C 0.29309 0.08576 0.61343
 C732 C 0.30150 0.06022 0.58541
 H733 H 0.35528 0.05744 0.67612
 H734 H 0.30567 0.10404 0.66766
 H735 H 0.27126 0.10673 0.60999
 H736 H 0.28585 0.06258 0.56057
 H737 H 0.41023 -0.04115 0.60039
 H738 H 0.37368 -0.04098 0.54516
   
