data_POSCAR
  _audit_creation_date              2014-09-24
  _audit_creation_method            'ToBaCCo'
  _symmetry_space_group_name_H-M    'P1'
  _symmetry_Int_Tables_number       1
  _symmetry_cell_setting            triclinic
  loop_
  _symmetry_equiv_pos_as_xyz
 x,y,z
_cell_length_a 31.1531
_cell_length_b 31.3283
_cell_length_c 31.4893
_cell_angle_alpha 90.103400
_cell_angle_beta 89.997600
_cell_angle_gamma 90.040800
loop_
  _atom_site_label
  _atom_site_type_symbol
  _atom_site_fract_x
  _atom_site_fract_y
  _atom_site_fract_z
C1 C 0.25036 0.28044 0.21834
 C2 C 0.28199 0.27995 0.18666
 C3 C 0.31393 0.24823 0.18623
 C4 C 0.31382 0.21673 0.21803
 C5 C 0.28235 0.21678 0.24990
 C6 C 0.25050 0.24875 0.25010
 C7 C 0.21861 0.31215 0.21876
 C8 C 0.18682 0.31268 0.25049
 C9 C 0.18719 0.28094 0.28204
 C10 C 0.21878 0.24905 0.28206
 C11 C 0.21912 0.21745 0.31355
 C12 C 0.25074 0.18541 0.31360
 C13 C 0.28226 0.18536 0.28158
 H14 H 0.28140 0.30399 0.16196
 H15 H 0.33863 0.19250 0.21834
 H16 H 0.21900 0.33681 0.19466
 H17 H 0.16248 0.28069 0.30628
 H18 H 0.19507 0.21814 0.33842
 H19 H 0.30641 0.16048 0.28098
 C20 C 0.74949 -0.28187 0.21870
 C21 C 0.71794 -0.28132 0.18688
 C22 C 0.68607 -0.24918 0.18572
 C23 C 0.68692 -0.21741 0.21768
 C24 C 0.71804 -0.21786 0.24986
 C25 C 0.74938 -0.25025 0.25044
 C26 C 0.78117 -0.31371 0.21907
 C27 C 0.81296 -0.31501 0.25114
 C28 C 0.81187 -0.28320 0.28306
 C29 C 0.78061 -0.25099 0.28279
 C30 C 0.78032 -0.21931 0.31435
 C31 C 0.74918 -0.18683 0.31406
 C32 C 0.71813 -0.18641 0.28165
 H33 H 0.71968 -0.30519 0.16205
 H34 H 0.66227 -0.19311 0.21905
 H35 H 0.77962 -0.33844 0.19508
 H36 H 0.83643 -0.28192 0.30733
 H37 H 0.80403 -0.22026 0.33951
 H38 H 0.69435 -0.16118 0.28081
 C39 C 0.74978 0.28163 0.78114
 C40 C 0.71831 0.28101 0.81303
 C41 C 0.68648 0.24880 0.81427
 C42 C 0.68732 0.21698 0.78236
 C43 C 0.71838 0.21750 0.75010
 C44 C 0.74966 0.24999 0.74942
 C45 C 0.78139 0.31357 0.78067
 C46 C 0.81312 0.31495 0.74856
 C47 C 0.81202 0.28313 0.71664
 C48 C 0.78081 0.25082 0.71701
 C49 C 0.78051 0.21911 0.68547
 C50 C 0.74942 0.18654 0.68586
 C51 C 0.71845 0.18603 0.71834
 H52 H 0.72009 0.30490 0.83784
 H53 H 0.66271 0.19261 0.78107
 H54 H 0.77981 0.33833 0.80464
 H55 H 0.83653 0.28193 0.69232
 H56 H 0.80416 0.22011 0.66025
 H57 H 0.69472 0.16073 0.71925
 C58 C 0.24911 -0.27972 0.78244
 C59 C 0.28057 -0.27896 0.81432
 C60 C 0.31276 -0.24745 0.81453
 C61 C 0.31294 -0.21626 0.78244
 C62 C 0.28169 -0.21661 0.75037
 C63 C 0.24977 -0.24860 0.75025
 C64 C 0.21722 -0.31137 0.78224
 C65 C 0.18566 -0.31296 0.74997
 C66 C 0.18703 -0.28145 0.71785
 C67 C 0.21856 -0.24945 0.71792
 C68 C 0.21917 -0.21812 0.68613
 C69 C 0.25066 -0.18591 0.68614
 C70 C 0.28190 -0.18551 0.71839
 H71 H 0.27974 -0.30270 0.83931
 H72 H 0.33787 -0.19212 0.78201
 H73 H 0.21854 -0.33578 0.80648
 H74 H 0.16254 -0.28033 0.69350
 H75 H 0.19540 -0.21911 0.66101
 H76 H 0.30602 -0.16056 0.71898
 C77 C 0.75052 -0.27988 0.78224
 C78 C 0.71911 -0.27911 0.81417
 C79 C 0.68700 -0.24757 0.81442
 C80 C 0.68683 -0.21638 0.78235
 C81 C 0.71803 -0.21675 0.75024
 C82 C 0.74987 -0.24875 0.75006
 C83 C 0.78234 -0.31153 0.78200
 C84 C 0.81387 -0.31311 0.74969
 C85 C 0.81251 -0.28162 0.71756
 C86 C 0.78104 -0.24962 0.71768
 C87 C 0.78045 -0.21827 0.68591
 C88 C 0.74905 -0.18604 0.68599
 C89 C 0.71784 -0.18563 0.71828
 H90 H 0.71993 -0.30285 0.83915
 H91 H 0.66195 -0.19221 0.78197
 H92 H 0.78102 -0.33594 0.80623
 H93 H 0.83697 -0.28051 0.69318
 H94 H 0.80420 -0.21926 0.66077
 H95 H 0.69379 -0.16066 0.71892
 C96 C 0.25042 0.28170 0.78096
 C97 C 0.28206 0.28122 0.81264
 C98 C 0.31396 0.24946 0.81299
 C99 C 0.31385 0.21797 0.78109
 C100 C 0.28239 0.21800 0.74923
 C101 C 0.25054 0.24998 0.74912
 C102 C 0.21865 0.31339 0.78064
 C103 C 0.18683 0.31386 0.74894
 C104 C 0.18720 0.28209 0.71731
 C105 C 0.21880 0.25022 0.71718
 C106 C 0.21912 0.21856 0.68563
 C107 C 0.25074 0.18653 0.68551
 C108 C 0.28228 0.18653 0.71749
 H109 H 0.28148 0.30528 0.83742
 H110 H 0.33864 0.19371 0.78071
 H111 H 0.21903 0.33808 0.80481
 H112 H 0.16247 0.28179 0.69309
 H113 H 0.19504 0.21920 0.66079
 H114 H 0.30642 0.16164 0.71804
 C115 C 0.25014 -0.28169 0.21834
 C116 C 0.28173 -0.28115 0.18656
 C117 C 0.31368 -0.24906 0.18547
 C118 C 0.31288 -0.21730 0.21745
 C119 C 0.28172 -0.21775 0.24960
 C120 C 0.25030 -0.25011 0.25011
 C121 C 0.21839 -0.31351 0.21867
 C122 C 0.18659 -0.31481 0.25072
 C123 C 0.18771 -0.28301 0.28265
 C124 C 0.21904 -0.25084 0.28242
 C125 C 0.21938 -0.21920 0.31401
 C126 C 0.25060 -0.18676 0.31379
 C127 C 0.28169 -0.18633 0.28141
 H128 H 0.27996 -0.30501 0.16171
 H129 H 0.33759 -0.19304 0.21887
 H130 H 0.21991 -0.33823 0.19466
 H131 H 0.16312 -0.28172 0.30689
 H132 H 0.19564 -0.22015 0.33916
 H133 H 0.30553 -0.16113 0.28063
 C134 C 0.75078 0.27994 0.21826
 C135 C 0.71940 0.27915 0.18631
 C136 C 0.68731 0.24754 0.18599
 C137 C 0.68714 0.21630 0.21801
 C138 C 0.71832 0.21669 0.25014
 C139 C 0.75014 0.24876 0.25039
 C140 C 0.78257 0.31165 0.21856
 C141 C 0.81411 0.31324 0.25085
 C142 C 0.81275 0.28172 0.28295
 C143 C 0.78130 0.24964 0.28278
 C144 C 0.78071 0.21825 0.31451
 C145 C 0.74931 0.18596 0.31436
 C146 C 0.71814 0.18552 0.28206
 H147 H 0.72022 0.30293 0.16137
 H148 H 0.66228 0.19208 0.21834
 H149 H 0.78122 0.33610 0.19436
 H150 H 0.83720 0.28064 0.30734
 H151 H 0.80444 0.21925 0.33967
 H152 H 0.69410 0.16050 0.28136
 O153 O 0.28637 0.04118 0.45842
 O154 O 0.28638 -0.04174 0.54119
 O155 O 0.28630 -0.04197 0.45853
 O156 O 0.28632 0.04144 0.54106
 O157 O 0.21552 0.04133 0.54112
 O158 O 0.21551 -0.04196 0.45852
 O159 O 0.21559 -0.04171 0.54125
 O160 O 0.21557 0.04105 0.45838
 Cu161 Cu 0.29344 -0.00027 0.49981
 Cu162 Cu 0.20846 -0.00033 0.49982
 C163 C 0.25096 0.05529 0.44419
 C164 C 0.25098 -0.05591 0.55542
 C165 C 0.25089 -0.05623 0.44435
 C166 C 0.25091 0.05567 0.55524
 O167 O 0.78448 0.04139 0.54138
 O168 O 0.78442 -0.04179 0.45865
 O169 O 0.78438 0.04126 0.45868
 O170 O 0.78430 -0.04164 0.54137
 O171 O 0.71351 -0.04172 0.54131
 O172 O 0.71359 0.04134 0.45874
 O173 O 0.71363 -0.04183 0.45865
 O174 O 0.71369 0.04144 0.54137
 Cu175 Cu 0.79149 -0.00020 0.50002
 Cu176 Cu 0.70650 -0.00020 0.50002
 C177 C 0.74911 0.05568 0.55555
 C178 C 0.74902 -0.05607 0.44447
 C179 C 0.74900 0.05553 0.44456
 C180 C 0.74890 -0.05589 0.55551
 O181 O 0.45887 0.28308 0.04105
 O182 O 0.54272 0.28318 -0.04131
 O183 O 0.45915 0.28345 -0.04173
 O184 O 0.54227 0.28282 0.04129
 O185 O 0.54235 0.21242 0.04057
 O186 O 0.45850 0.21305 -0.04186
 O187 O 0.54206 0.21278 -0.04218
 O188 O 0.45871 0.21267 0.04080
 Cu189 Cu 0.50075 0.29018 -0.00015
 Cu190 Cu 0.50038 0.20567 -0.00071
 C191 C 0.44452 0.24787 0.05515
 C192 C 0.55671 0.24802 -0.05592
 C193 C 0.44454 0.24837 -0.05600
 C194 C 0.55659 0.24753 0.05514
 O195 O 0.54174 0.78714 0.04232
 O196 O 0.45816 0.78769 -0.04043
 O197 O 0.45826 0.78717 0.04229
 O198 O 0.54185 0.78766 -0.04041
 O199 O 0.54163 0.71726 -0.04106
 O200 O 0.45806 0.71677 0.04155
 O201 O 0.45823 0.71729 -0.04107
 O202 O 0.54179 0.71674 0.04158
 Cu203 Cu 0.50001 0.79448 0.00098
 Cu204 Cu 0.49992 0.70997 0.00023
 C205 C 0.55609 0.75184 0.05611
 C206 C 0.44389 0.75257 -0.05494
 C207 C 0.44382 0.75188 0.05607
 C208 C 0.55604 0.75253 -0.05492
 O209 O 0.04185 0.45848 0.28602
 O210 O -0.04204 0.54126 0.28616
 O211 O -0.04170 0.45802 0.28619
 O212 O 0.04149 0.54157 0.28600
 O213 O 0.04168 0.54106 0.21596
 O214 O -0.04216 0.45822 0.21614
 O215 O -0.04206 0.54120 0.21612
 O216 O 0.04129 0.45796 0.21598
 Cu217 Cu -0.00010 0.49986 0.29311
 Cu218 Cu -0.00031 0.49964 0.20903
 C219 C 0.05586 0.44395 0.25096
 C220 C -0.05642 0.55543 0.25116
 C221 C -0.05620 0.44382 0.25119
 C222 C 0.05595 0.55553 0.25095
 O223 O 0.04157 0.54203 0.78421
 O224 O -0.04245 0.45933 0.78374
 O225 O 0.04110 0.45890 0.78395
 O226 O -0.04205 0.54230 0.78411
 O227 O -0.04206 0.54233 0.71406
 O228 O 0.04167 0.45942 0.71391
 O229 O -0.04195 0.45909 0.71370
 O230 O 0.04138 0.54254 0.71417
 Cu231 Cu -0.00045 0.50063 0.79102
 Cu232 Cu -0.00024 0.50084 0.70694
 C233 C 0.05578 0.55656 0.74927
 C234 C -0.05656 0.44498 0.74865
 C235 C 0.05568 0.44490 0.74891
 C236 C -0.05634 0.55658 0.74912
 C237 C 0.36108 0.20955 0.13408
 C238 C 0.34743 0.24808 0.15261
 C239 C 0.36601 0.28652 0.13875
 C240 C 0.39741 0.28644 0.10706
 C241 C 0.41109 0.24791 0.08858
 C242 C 0.39259 0.20945 0.10248
 H243 H 0.34698 0.17946 0.14363
 H244 H 0.35667 0.31668 0.15281
 H245 H 0.41116 0.31661 0.09724
 H246 H 0.40230 0.17924 0.08878
 C247 C 0.64078 0.71294 0.13333
 C248 C 0.65406 0.75111 0.15346
 C249 C 0.63427 0.78954 0.14049
 C250 C 0.60278 0.78973 0.10889
 C251 C 0.58971 0.75160 0.08937
 C252 C 0.60903 0.71323 0.10197
 H253 H 0.65333 0.68222 0.14279
 H254 H 0.64405 0.82008 0.15329
 H255 H 0.58873 0.81994 0.09967
 H256 H 0.59949 0.68320 0.08771
 C257 C 0.64128 0.28673 -0.13335
 C258 C 0.65451 0.24853 -0.15343
 C259 C 0.63470 0.21011 -0.14035
 C260 C 0.60327 0.20997 -0.10868
 C261 C 0.59029 0.24814 -0.08921
 C262 C 0.60963 0.28649 -0.10193
 H263 H 0.65381 0.31744 -0.14291
 H264 H 0.64442 0.17955 -0.15313
 H265 H 0.58919 0.17978 -0.09938
 H266 H 0.60014 0.31655 -0.08773
 C267 C 0.36039 0.79118 -0.13366
 C268 C 0.34633 0.75266 -0.15194
 C269 C 0.36467 0.71416 -0.13802
 C270 C 0.39624 0.71416 -0.10652
 C271 C 0.41033 0.75267 -0.08826
 C272 C 0.39207 0.79119 -0.10220
 H273 H 0.34650 0.82132 -0.14328
 H274 H 0.35502 0.68401 -0.15192
 H275 H 0.40979 0.68394 -0.09664
 H276 H 0.40210 0.82140 -0.08867
 C277 C 0.13975 0.36513 0.28896
 C278 C 0.15323 0.34635 0.25064
 C279 C 0.13440 0.36000 0.21244
 C280 C 0.10289 0.39173 0.21254
 C281 C 0.08937 0.41045 0.25087
 C282 C 0.10813 0.39677 0.28908
 H283 H 0.15405 0.35576 0.31886
 H284 H 0.14362 0.34574 0.18245
 H285 H 0.08894 0.40140 0.18257
 H286 H 0.09856 0.41066 0.31913
 C287 C 0.13988 0.63507 0.78789
 C288 C 0.15352 0.65471 0.74980
 C289 C 0.13409 0.64104 0.71153
 C290 C 0.10266 0.60920 0.71142
 C291 C 0.08931 0.59011 0.74946
 C292 C 0.10822 0.60345 0.78767
 H293 H 0.15211 0.64510 0.81846
 H294 H 0.14414 0.65343 0.68109
 H295 H 0.08891 0.59943 0.68134
 H296 H 0.09842 0.58957 0.81762
 C297 C -0.14137 0.63300 0.21305
 C298 C -0.15484 0.65276 0.25119
 C299 C -0.13504 0.63946 0.28935
 C300 C -0.10338 0.60788 0.28929
 C301 C -0.09015 0.58872 0.25119
 C302 C -0.10947 0.60167 0.21310
 H303 H -0.15391 0.64275 0.18256
 H304 H -0.14494 0.65197 0.31983
 H305 H -0.08933 0.59839 0.31928
 H306 H -0.09981 0.58770 0.18310
 C307 C -0.13494 0.36065 0.71035
 C308 C -0.15473 0.34727 0.74849
 C309 C -0.14130 0.36706 0.78664
 C310 C -0.10951 0.39853 0.78661
 C311 C -0.09023 0.41158 0.74853
 C312 C -0.10337 0.39237 0.71042
 H313 H -0.14479 0.34809 0.67986
 H314 H -0.15379 0.35724 0.81714
 H315 H -0.09990 0.41251 0.81662
 H316 H -0.08933 0.40193 0.68044
 C317 C 0.28958 0.13815 0.36526
 C318 C 0.25083 0.15201 0.34706
 C319 C 0.21213 0.13374 0.36110
 C320 C 0.21217 0.10242 0.39265
 C321 C 0.25093 0.08855 0.41081
 C322 C 0.28964 0.10674 0.39673
 H323 H 0.31988 0.15201 0.35557
 H324 H 0.18179 0.14326 0.34729
 H325 H 0.18181 0.08892 0.40264
 H326 H 0.32004 0.09689 0.41019
 C327 C 0.71052 0.13857 0.63469
 C328 C 0.74933 0.15303 0.65239
 C329 C 0.78806 0.13519 0.63792
 C330 C 0.78799 0.10365 0.60647
 C331 C 0.74917 0.08916 0.58883
 C332 C 0.71043 0.10697 0.60330
 H333 H 0.68019 0.15209 0.64473
 H334 H 0.81845 0.14521 0.65134
 H335 H 0.81839 0.09048 0.59615
 H336 H 0.67998 0.09664 0.59025
 C337 C 0.21209 -0.13459 0.63830
 C338 C 0.25079 -0.15263 0.65255
 C339 C 0.28958 -0.13856 0.63453
 C340 C 0.28966 -0.10717 0.60304
 C341 C 0.25094 -0.08919 0.58878
 C342 C 0.21215 -0.10329 0.60675
 H343 H 0.18172 -0.14428 0.65198
 H344 H 0.31988 -0.15223 0.64440
 H345 H 0.32008 -0.09714 0.58974
 H346 H 0.18178 -0.08996 0.59661
 C347 C 0.78787 -0.13543 0.36196
 C348 C 0.74912 -0.15334 0.34755
 C349 C 0.71034 -0.13898 0.36533
 C350 C 0.71029 -0.10740 0.39675
 C351 C 0.74905 -0.08952 0.41117
 C352 C 0.78784 -0.10392 0.39344
 H353 H 0.81824 -0.14537 0.34847
 H354 H 0.67999 -0.15255 0.35534
 H355 H 0.67986 -0.09714 0.40987
 H356 H 0.81825 -0.09070 0.40371
 C357 C 0.63957 0.79108 -0.13366
 C358 C 0.65349 0.75256 -0.15199
 C359 C 0.63506 0.71407 -0.13809
 C360 C 0.60352 0.71409 -0.10655
 C361 C 0.58957 0.75260 -0.08825
 C362 C 0.60793 0.79112 -0.10218
 H363 H 0.65354 0.82121 -0.14328
 H364 H 0.64460 0.68392 -0.15203
 H365 H 0.58990 0.68388 -0.09669
 H366 H 0.59800 0.82132 -0.08861
 C367 C 0.36611 0.28754 -0.13930
 C368 C 0.34738 0.24919 -0.15334
 C369 C 0.36085 0.21058 -0.13499
 C370 C 0.39238 0.21031 -0.10343
 C371 C 0.41107 0.24866 -0.08938
 C372 C 0.39754 0.28728 -0.10764
 H373 H 0.35688 0.31775 -0.15321
 H374 H 0.34661 0.18056 -0.14467
 H375 H 0.40195 0.18002 -0.08989
 H376 H 0.41143 0.31737 -0.09766
 C377 C 0.35897 0.71303 0.13316
 C378 C 0.34573 0.75121 0.15326
 C379 C 0.36562 0.78964 0.14032
 C380 C 0.39715 0.78981 0.10877
 C381 C 0.41017 0.75166 0.08929
 C382 C 0.39076 0.71330 0.10186
 H383 H 0.34634 0.68232 0.14261
 H384 H 0.35587 0.82019 0.15311
 H385 H 0.41128 0.82001 0.09958
 H386 H 0.40026 0.68326 0.08761
 C387 C 0.63542 0.28590 0.13854
 C388 C 0.65383 0.24742 0.15239
 C389 C 0.63995 0.20891 0.13395
 C390 C 0.60837 0.20890 0.10240
 C391 C 0.59005 0.24742 0.08852
 C392 C 0.60396 0.28591 0.10694
 H393 H 0.64493 0.31604 0.15256
 H394 H 0.65390 0.17878 0.14354
 H395 H 0.59847 0.17871 0.08875
 H396 H 0.59035 0.31612 0.09712
 C397 C -0.14032 0.63509 0.78764
 C398 C -0.15401 0.65460 0.74953
 C399 C -0.13464 0.64088 0.71126
 C400 C -0.10322 0.60907 0.71117
 C401 C -0.08982 0.59010 0.74924
 C402 C -0.10867 0.60351 0.78744
 H403 H -0.15249 0.64518 0.81820
 H404 H -0.14474 0.65320 0.68080
 H405 H -0.08951 0.59924 0.68110
 H406 H -0.09883 0.58972 0.81742
 C407 C -0.13433 0.35931 0.28923
 C408 C -0.15377 0.34557 0.25099
 C409 C -0.14014 0.36511 0.21286
 C410 C -0.10855 0.39677 0.21300
 C411 C -0.08966 0.41023 0.25118
 C412 C -0.10294 0.39120 0.28927
 H413 H -0.14435 0.34694 0.31969
 H414 H -0.15234 0.35499 0.18231
 H415 H -0.09878 0.41058 0.18301
 H416 H -0.08918 0.40106 0.31931
 C417 C 0.13435 0.36111 0.78716
 C418 C 0.15321 0.34748 0.74891
 C419 C 0.13968 0.36621 0.71065
 C420 C 0.10799 0.39777 0.71063
 C421 C 0.08921 0.41143 0.74890
 C422 C 0.10277 0.39276 0.78716
 H423 H 0.14361 0.34688 0.81710
 H424 H 0.15400 0.35686 0.68072
 H425 H 0.09840 0.41164 0.68063
 H426 H 0.08881 0.40242 0.81717
 C427 C 0.14088 0.63316 0.21267
 C428 C 0.15438 0.65295 0.25079
 C429 C 0.13460 0.63966 0.28897
 C430 C 0.10292 0.60807 0.28896
 C431 C 0.08966 0.58887 0.25088
 C432 C 0.10896 0.60180 0.21276
 H433 H 0.15341 0.64289 0.18216
 H434 H 0.14454 0.65217 0.31945
 H435 H 0.08890 0.59858 0.31897
 H436 H 0.09927 0.58779 0.18279
 C437 C 0.71019 -0.13867 0.63446
 C438 C 0.74896 -0.15274 0.65246
 C439 C 0.78769 -0.13468 0.63825
 C440 C 0.78767 -0.10332 0.60675
 C441 C 0.74890 -0.08922 0.58880
 C442 C 0.71015 -0.10723 0.60302
 H443 H 0.67987 -0.15237 0.64430
 H444 H 0.81804 -0.14437 0.65192
 H445 H 0.81806 -0.08997 0.59664
 H446 H 0.67974 -0.09719 0.58972
 C447 C 0.28950 -0.13907 0.36519
 C448 C 0.25070 -0.15333 0.34731
 C449 C 0.21197 -0.13540 0.36168
 C450 C 0.21204 -0.10396 0.39322
 C451 C 0.25084 -0.08965 0.41104
 C452 C 0.28957 -0.10755 0.39666
 H453 H 0.31982 -0.15267 0.35522
 H454 H 0.18160 -0.14526 0.34812
 H455 H 0.18165 -0.09070 0.40346
 H456 H 0.32001 -0.09736 0.40986
 C457 C 0.78791 0.13455 0.36204
 C458 C 0.74920 0.15260 0.34784
 C459 C 0.71041 0.13845 0.36578
 C460 C 0.71033 0.10694 0.39714
 C461 C 0.74905 0.08892 0.41134
 C462 C 0.78785 0.10311 0.39346
 H463 H 0.81828 0.14432 0.34842
 H464 H 0.68010 0.15214 0.35595
 H465 H 0.67990 0.09683 0.41039
 H466 H 0.81822 0.08977 0.40357
 C467 C 0.21209 0.13465 0.63809
 C468 C 0.25079 0.15302 0.65204
 C469 C 0.28954 0.13910 0.63382
 C470 C 0.28959 0.10749 0.60244
 C471 C 0.25088 0.08916 0.58848
 C472 C 0.21213 0.10313 0.60663
 H473 H 0.18176 0.14423 0.65192
 H474 H 0.31984 0.15304 0.64344
 H475 H 0.31999 0.09757 0.58898
 H476 H 0.18176 0.08954 0.59671
   
