data_POSCAR
  _audit_creation_date              2014-09-24
  _audit_creation_method            'ToBaCCo'
  _symmetry_space_group_name_H-M    'P1'
  _symmetry_Int_Tables_number       1
  _symmetry_cell_setting            triclinic
  loop_
  _symmetry_equiv_pos_as_xyz
 x,y,z
_cell_length_a 18.2143
_cell_length_b 18.2143
_cell_length_c 47.5992
_cell_angle_alpha 89.733300
_cell_angle_beta 90.266800
_cell_angle_gamma 119.830200
loop_
  _atom_site_label
  _atom_site_type_symbol
  _atom_site_fract_x
  _atom_site_fract_y
  _atom_site_fract_z
Si1 Si 0.00309 0.00041 0.50015
 Si2 Si 1.00034 0.00315 0.16651
 Si3 Si -0.00333 0.99673 0.83333
 O4 O 0.60149 0.06558 -0.02843
 O5 O 0.45843 0.06700 0.02629
 O6 O 0.60612 0.07625 0.02615
 O7 O 0.46308 0.07521 -0.02836
 O8 O 0.39226 -0.06474 -0.02807
 O9 O 0.53743 -0.06370 0.02681
 O10 O 0.38974 -0.07295 0.02656
 O11 O 0.53065 -0.07435 -0.02777
 Cu12 Cu 0.53922 0.08494 -0.00114
 Cu13 Cu 0.45558 -0.08287 -0.00058
 C14 C 0.59001 -0.00523 -0.03721
 C15 C 0.39962 -0.00335 0.03557
 C16 C 0.59660 0.00705 0.03565
 C17 C 0.40339 0.00566 -0.03736
 O18 O -0.06480 0.39233 0.69473
 O19 O -0.06376 0.53749 0.63985
 O20 O -0.07302 0.38981 0.64009
 O21 O -0.07442 0.53072 0.69443
 O22 O 0.06552 0.60155 0.69509
 O23 O 0.06693 0.45850 0.64037
 O24 O 0.07618 0.60619 0.64051
 O25 O 0.07514 0.46315 0.69502
 Cu26 Cu -0.08293 0.45565 0.66724
 Cu27 Cu 0.08488 0.53928 0.66780
 C28 C 0.00560 0.40345 0.70402
 C29 C 0.00699 0.59666 0.63101
 C30 C -0.00341 0.39969 0.63109
 C31 C -0.00529 0.59007 0.70387
 O32 O 0.54067 0.60666 0.30593
 O33 O 0.39728 0.46237 0.36073
 O34 O 0.53538 0.60983 0.36055
 O35 O 0.39321 0.46856 0.30612
 O36 O 0.46231 0.39734 0.30593
 O37 O 0.60660 0.54074 0.36073
 O38 O 0.46849 0.39328 0.36054
 O39 O 0.60976 0.53544 0.30612
 Cu40 Cu 0.45965 0.54384 0.33333
 Cu41 Cu 0.54377 0.45971 0.33333
 C42 C 0.59978 0.59517 0.29689
 C43 C 0.40893 0.40312 0.36978
 C44 C 0.59510 0.59985 0.36977
 C45 C 0.40305 0.40899 0.29688
 C46 C -0.01594 0.06927 0.52265
 C47 C -0.02005 0.11887 0.53831
 C48 C -0.01900 0.17902 0.55714
 C49 C -0.01517 0.23098 0.57356
 C50 C -0.00931 0.29153 0.59320
 C51 C -0.00517 0.34204 0.61031
 C52 C 0.93161 0.91492 0.18898
 C53 C 0.88193 0.86089 0.20457
 C54 C 0.82158 0.80136 0.22328
 C55 C 0.76939 0.75287 0.23961
 C56 C 0.70851 0.69781 0.25912
 C57 C 0.65773 0.65120 0.27616
 C58 C 0.08039 0.01540 -0.14535
 C59 C 0.13504 0.02051 -0.12976
 C60 C 0.19525 0.02033 -0.11104
 C61 C 0.24428 0.01703 -0.09470
 C62 C 0.29991 0.01153 -0.07516
 C63 C 0.34693 0.00750 -0.05811
 C64 C 0.02225 0.93097 0.52263
 C65 C 0.02628 0.88089 0.53826
 C66 C 0.02498 0.82011 0.55706
 C67 C 0.02080 0.76756 0.57346
 C68 C 0.01438 0.70629 0.59308
 C69 C 0.00963 0.65513 0.61020
 C70 C 0.06954 0.09110 0.18893
 C71 C 0.11949 0.14490 0.20451
 C72 C 0.18016 0.20411 0.22323
 C73 C 0.23260 0.25232 0.23956
 C74 C 0.29376 0.30703 0.25909
 C75 C 0.34479 0.35333 0.27614
 C76 C 0.90846 -0.02205 -0.14438
 C77 C 0.85450 -0.02580 -0.12892
 C78 C 0.79512 -0.02417 -0.11036
 C79 C 0.74681 -0.01972 -0.09417
 C80 C 0.69201 -0.01300 -0.07479
 C81 C 0.64567 -0.00805 -0.05786
 C82 C 0.06921 -0.01588 0.14401
 C83 C 0.11880 -0.01999 0.12835
 C84 C 0.17895 -0.01894 0.10952
 C85 C 0.23091 -0.01511 0.09310
 C86 C 0.29146 -0.00925 0.07346
 C87 C 0.34197 -0.00511 0.05635
 C88 C 0.91486 0.93167 0.47768
 C89 C 0.86083 0.88200 0.46209
 C90 C 0.80130 0.82164 0.44338
 C91 C 0.75281 0.76945 0.42705
 C92 C 0.69775 0.70858 0.40754
 C93 C 0.65114 0.65779 0.39050
 C94 C 0.01533 0.08046 0.81201
 C95 C 0.02044 0.13510 0.79642
 C96 C 0.02027 0.19532 0.77770
 C97 C 0.01696 0.24435 0.76136
 C98 C 0.01146 0.29997 0.74182
 C99 C 0.00744 0.34700 0.72477
 C100 C 0.93091 0.02231 0.14403
 C101 C 0.88083 0.02634 0.12840
 C102 C 0.82004 0.02504 0.10960
 C103 C 0.76750 0.02086 0.09320
 C104 C 0.70622 0.01444 0.07358
 C105 C 0.65506 0.00969 0.05646
 C106 C 0.09104 0.06961 0.47773
 C107 C 0.14483 0.11956 0.46215
 C108 C 0.20405 0.18022 0.44343
 C109 C 0.25225 0.23267 0.42710
 C110 C 0.30697 0.29382 0.40757
 C111 C 0.35327 0.34486 0.39052
 C112 C -0.02212 0.90853 0.81104
 C113 C -0.02587 0.85457 0.79558
 C114 C -0.02423 0.79519 0.77702
 C115 C -0.01978 0.74688 0.76083
 C116 C -0.01307 0.69208 0.74145
 C117 C -0.00811 0.64574 0.72452
   
