data_POSCAR
  _audit_creation_date              2014-09-24
  _audit_creation_method            'ToBaCCo'
  _symmetry_space_group_name_H-M    'P1'
  _symmetry_Int_Tables_number       1
  _symmetry_cell_setting            triclinic
  loop_
  _symmetry_equiv_pos_as_xyz
 x,y,z
_cell_length_a 36.1434
_cell_length_b 36.4233
_cell_length_c 35.9871
_cell_angle_alpha 90.263400
_cell_angle_beta 89.168900
_cell_angle_gamma 90.738900
loop_
  _atom_site_label
  _atom_site_type_symbol
  _atom_site_fract_x
  _atom_site_fract_y
  _atom_site_fract_z
N1 N 0.19696 1.28186 0.16985
 N2 N 0.17436 1.28520 0.19853
 C3 C 0.15326 1.31495 0.19377
 C4 C 0.16360 1.33171 0.16050
 C5 C 0.19122 1.30943 0.14597
 H6 H 0.13181 1.32364 0.21299
 H7 H 0.20431 1.31138 0.11882
 Cu8 Cu 0.17297 1.24847 0.23764
 Cu9 Cu 0.22903 1.23963 0.16364
 Cu10 Cu 0.24582 1.19326 0.24561
 N11 N 0.17564 1.21309 0.27779
 N12 N 0.20380 1.19081 0.28010
 C13 C 0.19812 1.16799 0.30895
 C14 C 0.16479 1.17675 0.32631
 C15 C 0.15118 1.20538 0.30531
 H16 H 0.21708 1.14673 0.31679
 H17 H 0.12439 1.21803 0.30830
 N18 N 0.27753 1.18891 0.20087
 N19 N 0.27040 1.20561 0.16936
 C20 C 0.29528 1.19516 0.14337
 C21 C 0.31955 1.17099 0.15936
 C22 C 0.30715 1.16731 0.19573
 H23 H 0.29505 1.20355 0.11459
 H24 H 0.31816 1.14929 0.21653
 H25 H 0.20965 1.20267 0.20434
 H26 H 0.23777 1.24351 0.21869
 N27 N 0.81033 0.74095 0.15371
 N28 N 0.84107 0.74791 0.17169
 C29 C 0.86630 0.72244 0.16258
 C30 C 0.85031 0.69802 0.13798
 C31 C 0.81486 0.71056 0.13273
 H32 H 0.89419 0.72166 0.17302
 H33 H 0.79438 0.69901 0.11428
 Cu34 Cu 0.84545 0.78908 0.20577
 Cu35 Cu 0.76812 0.77364 0.15653
 Cu36 Cu 0.77465 0.84636 0.21873
 N37 N 0.84196 0.82034 0.24953
 N38 N 0.81404 0.84254 0.25466
 C39 C 0.81947 0.86237 0.28575
 C40 C 0.85248 0.85169 0.30165
 C41 C 0.86610 0.82514 0.27730
 H42 H 0.80194 0.88475 0.29443
 H43 H 0.89175 0.81039 0.27944
 N44 N 0.73144 0.83796 0.18703
 N45 N 0.72884 0.81032 0.16334
 C46 C 0.69755 0.81382 0.14386
 C47 C 0.67920 0.84474 0.15638
 C48 C 0.70168 0.85945 0.18359
 H49 H 0.68971 0.79644 0.12076
 H50 H 0.69731 0.88478 0.19871
 H51 H 0.79653 0.82010 0.17171
 H52 H 0.77837 0.79090 0.21051
 N53 N 0.81548 1.24943 -0.15816
 N54 N 0.84313 1.24709 -0.18216
 C55 C 0.87059 1.26995 -0.17156
 C56 C 0.85971 1.28720 -0.13892
 C57 C 0.82428 1.27405 -0.13160
 H58 H 0.89658 1.27381 -0.18640
 H59 H 0.80649 1.28136 -0.10836
 Cu60 Cu 0.84079 1.21391 -0.22457
 Cu61 Cu 0.77046 1.21991 -0.16332
 Cu62 Cu 0.78258 1.14215 -0.21804
 N63 N 0.83551 1.17908 -0.26536
 N64 N 0.81331 1.15042 -0.26217
 C65 C 0.81759 1.12867 -0.29216
 C66 C 0.84342 1.14486 -0.31617
 C67 C 0.85443 1.17676 -0.29776
 H68 H 0.80294 1.10289 -0.29601
 H69 H 0.87668 1.19532 -0.30582
 N70 N 0.74190 1.14719 -0.18150
 N71 N 0.73634 1.17738 -0.16187
 C72 C 0.70604 1.17256 -0.14015
 C73 C 0.69167 1.13781 -0.14679
 C74 C 0.71531 1.12236 -0.17282
 H75 H 0.69590 1.19236 -0.12008
 H76 H 0.71325 1.09502 -0.18452
 H77 H 0.80451 1.17893 -0.17881
 H78 H 0.77553 1.19706 -0.21693
 N79 N 0.18922 0.72604 -0.18490
 N80 N 0.16012 0.73013 -0.20595
 C81 C 0.13527 0.70330 -0.19826
 C82 C 0.14997 0.68082 -0.17156
 C83 C 0.18420 0.69604 -0.16361
 H84 H 0.10816 0.70076 -0.21041
 H85 H 0.20313 0.68710 -0.14256
 Cu86 Cu 0.15712 0.77084 -0.24042
 Cu87 Cu 0.22973 0.76195 -0.18443
 Cu88 Cu 0.20884 0.84550 -0.22446
 N89 N 0.16026 0.81050 -0.27640
 N90 N 0.18084 0.83976 -0.27002
 C91 C 0.17685 0.86379 -0.29786
 C92 C 0.15278 0.84867 -0.32372
 C93 C 0.14241 0.81491 -0.30861
 H94 H 0.18875 0.89118 -0.29782
 H95 H 0.12328 0.79499 -0.32012
 N96 N 0.24839 0.83980 -0.18817
 N97 N 0.25760 0.80776 -0.17426
 C98 C 0.28516 0.81302 -0.14991
 C99 C 0.29318 0.85017 -0.14824
 C100 C 0.26968 0.86631 -0.17307
 H101 H 0.29715 0.79173 -0.13324
 H102 H 0.26774 0.89529 -0.17904
 H103 H 0.19104 0.80141 -0.19079
 H104 H 0.22076 0.79248 -0.23263
 C105 C 0.55382 1.03653 -0.00609
 H106 H 0.55729 1.03249 0.02337
 C107 C 0.58039 1.05666 -0.02615
 H108 H 0.60387 1.06868 -0.01199
 C109 C 0.52031 1.02424 -0.06098
 H110 H 0.49752 1.01089 -0.07478
 C111 C 0.54612 1.04439 -0.08207
 H112 H 0.54278 1.04677 -0.11182
 N113 N 0.52413 1.02128 -0.02351
 C114 C 0.42414 1.02301 0.03771
 H115 H 0.41086 1.00098 0.02258
 C116 C 0.40234 1.04747 0.05804
 H117 H 0.37249 1.04442 0.05791
 C118 C 0.47881 1.05358 0.05720
 H119 H 0.50859 1.05579 0.05707
 C120 C 0.45802 1.07845 0.07825
 H121 H 0.47193 1.09966 0.09420
 Zn122 Zn 0.48993 0.99416 0.00663
 N123 N 0.46168 1.02682 0.03695
 C124 C 0.51554 0.96460 0.07437
 N125 N 0.51796 0.96284 0.03663
 C126 C 0.54228 0.94016 0.01911
 C127 C 0.56575 0.91825 0.03971
 C128 C 0.53880 0.94341 0.09605
 C129 C 0.43444 0.98407 -0.04671
 C130 C 0.40770 0.96490 -0.06685
 C131 C 0.42745 0.90872 -0.03820
 C132 C 0.45406 0.92894 -0.01876
 N133 N 0.45691 0.96599 -0.02311
 H134 H 0.49611 0.98293 0.08768
 H135 H 0.54384 0.93965 -0.01093
 H136 H 0.58546 0.90070 0.02558
 H137 H 0.53734 0.94546 0.12607
 H138 H 0.43657 1.01362 -0.04905
 H139 H 0.38975 0.97965 -0.08525
 H140 H 0.42487 0.87938 -0.03396
 H141 H 0.47164 0.91511 0.00058
 C142 C 0.41928 1.07597 0.07804
 C143 C 0.57631 1.06106 -0.06446
 C144 C 0.40349 0.92692 -0.06198
 C145 C 0.56425 0.92011 0.07856
 C146 C -0.01100 0.55673 1.04501
 H147 H 0.01888 0.55729 1.04643
 C148 C -0.03161 0.58242 1.06499
 H149 H -0.01750 0.60257 1.08210
 C150 C -0.06567 0.53016 1.02040
 H151 H -0.07873 0.51022 1.00238
 C152 C -0.08734 0.55591 1.03934
 H153 H -0.11706 0.55562 1.03586
 N154 N -0.02823 0.53075 1.02397
 C155 C 0.05661 0.44703 1.01495
 H156 H 0.05667 0.44283 0.98516
 C157 C 0.08003 0.42662 1.03711
 H158 H 0.09800 0.40644 1.02436
 C159 C 0.03206 0.47744 1.06803
 H160 H 0.01268 0.49653 1.08013
 C161 C 0.05535 0.45790 1.09119
 H162 H 0.05413 0.46252 1.12093
 Zn163 Zn 0.00255 0.49762 0.99773
 N164 N 0.03353 0.47214 1.03057
 C165 C 0.06847 0.53058 0.96875
 N166 N 0.03142 0.52599 0.96404
 C167 C 0.01344 0.54365 0.93657
 C168 C 0.03300 0.56614 0.91168
 C169 C 0.08899 0.55348 0.94494
 C170 C -0.04959 0.44033 0.99235
 C171 C -0.06911 0.41163 0.97537
 C172 C -0.03848 0.42683 0.91719
 C173 C -0.01971 0.45537 0.93520
 N174 N -0.02562 0.46163 0.97212
 H175 H 0.08200 0.51730 0.99155
 H176 H -0.01620 0.54025 0.93407
 H177 H 0.01835 0.57984 0.88979
 H178 H 0.11827 0.55776 0.94958
 H179 H -0.05312 0.44537 1.02183
 H180 H -0.08787 0.39457 0.99171
 H181 H -0.03322 0.42165 0.88794
 H182 H 0.00036 0.47169 0.91985
 C183 C 0.07999 0.43245 1.07566
 C184 C -0.07030 0.58196 1.06258
 C185 C -0.06323 0.40455 0.93749
 C186 C 0.07130 0.57114 0.91563
 C187 C 1.04925 -0.01098 0.55375
 H188 H 1.04508 0.01744 0.56087
 C189 C 1.07109 -0.03246 0.57649
 H190 H 1.08323 -0.02051 0.60116
 C191 C 1.03903 -0.06140 0.51316
 H192 H 1.02702 -0.07247 0.48812
 C193 C 1.06072 -0.08388 0.53517
 H194 H 1.06495 -0.11225 0.52723
 N195 N 1.03350 -0.02566 0.52283
 C196 C 1.01926 0.06376 0.44438
 H197 H 0.98943 0.06468 0.44263
 C198 C 1.04119 0.08865 0.42420
 H199 H 1.02816 0.10846 0.40643
 C200 C 1.07263 0.03601 0.46879
 H201 H 1.08476 0.01523 0.48595
 C202 C 1.09557 0.06086 0.44967
 H203 H 1.12531 0.05914 0.45233
 Zn204 Zn 1.00417 0.00452 0.49212
 N205 N 1.03523 0.03783 0.46575
 C206 C 0.98536 0.06080 0.54222
 N207 N 0.97095 0.03258 0.52191
 C208 C 0.93391 0.02523 0.52244
 C209 C 0.91014 0.04554 0.54527
 C210 C 0.96264 0.08160 0.56564
 C211 C 0.98009 -0.02003 0.42109
 C212 C 0.95894 -0.04107 0.39656
 C213 C 0.93372 -0.07483 0.44891
 C214 C 0.95510 -0.05294 0.47249
 N215 N 0.97723 -0.02569 0.45840
 H216 H 1.01458 0.06729 0.54021
 H217 H 0.92258 0.00353 0.50542
 H218 H 0.88081 0.03904 0.54590
 H219 H 0.97467 0.10328 0.58245
 H220 H 0.99851 0.00097 0.41020
 H221 H 0.96094 -0.03587 0.36699
 H222 H 0.91607 -0.09629 0.46045
 H223 H 0.95386 -0.05744 0.50218
 C224 C 1.07984 0.08767 0.42714
 C225 C 1.07719 -0.06926 0.56707
 C226 C 0.93490 -0.06830 0.41055
 C227 C 0.92455 0.07398 0.56731
 C228 C 0.16435 0.38486 1.11667
 C229 C 0.14600 0.36121 1.14277
 C230 C 0.10795 0.36608 1.14960
 C231 C 0.08747 0.38995 1.12828
 C232 C 0.10420 0.41053 1.09981
 C233 C 0.14316 0.40929 1.09475
 C234 C 0.20340 0.38689 1.11368
 C235 C 0.22089 0.41024 1.08815
 C236 C 0.20009 0.43296 1.06590
 C237 C 0.16168 0.43300 1.06945
 H238 H 0.22098 0.37181 1.13201
 H239 H 0.25080 0.41125 1.08619
 H240 H 0.21386 0.45140 1.04650
 H241 H 0.14684 0.45250 1.05293
 H242 H 0.09297 0.34930 1.16966
 H243 H 0.05783 0.39114 1.13302
 C244 C -0.14184 0.62993 1.12570
 C245 C -0.13142 0.66699 1.11912
 C246 C -0.10178 0.67501 1.09502
 C247 C -0.08278 0.64709 1.07686
 C248 C -0.09231 0.61011 1.08273
 C249 C -0.12175 0.60117 1.10785
 C250 C -0.17097 0.62080 1.15068
 C251 C -0.17997 0.58422 1.15814
 C252 C -0.15990 0.55615 1.14139
 C253 C -0.13089 0.56439 1.11672
 H254 H -0.18674 0.64175 1.16494
 H255 H -0.20233 0.57762 1.17740
 H256 H -0.16664 0.52781 1.14779
 H257 H -0.11547 0.54166 1.10528
 H258 H -0.09345 0.70326 1.08998
 H259 H -0.06034 0.65446 1.05793
 C260 C -0.08163 0.31103 0.89200
 C261 C -0.11941 0.31514 0.88261
 C262 C -0.13791 0.34716 0.89333
 C263 C -0.11938 0.37560 0.91150
 C264 C -0.08175 0.37295 0.91940
 C265 C -0.06257 0.34042 0.91012
 C266 C -0.06261 0.27799 0.88501
 C267 C -0.02549 0.27457 0.89426
 C268 C -0.00670 0.30360 0.91111
 C269 C -0.02500 0.33617 0.91926
 H270 H -0.07626 0.25422 0.87319
 H271 H -0.01131 0.24910 0.88862
 H272 H 0.02207 0.30069 0.91837
 H273 H -0.00957 0.35773 0.93316
 H274 H -0.16681 0.35060 0.88675
 H275 H -0.13435 0.40024 0.91884
 C276 C 0.14459 0.61475 0.85034
 C277 C 0.13064 0.65089 0.84865
 C278 C 0.09737 0.65919 0.86694
 C279 C 0.07857 0.63287 0.88801
 C280 C 0.09201 0.59708 0.89099
 C281 C 0.12482 0.58743 0.87121
 C282 C 0.17714 0.60487 0.83080
 C283 C 0.18986 0.56892 0.83160
 C284 C 0.17022 0.54210 0.85133
 C285 C 0.13788 0.55105 0.87073
 H286 H 0.19272 0.62461 0.81432
 H287 H 0.21482 0.56172 0.81641
 H288 H 0.17993 0.51410 0.85133
 H289 H 0.12300 0.52906 0.88470
 H290 H 0.08635 0.68668 0.86574
 H291 H 0.05355 0.64077 0.90278
 C292 C 1.12155 0.17429 0.38124
 C293 C 1.14667 0.15753 0.35552
 C294 C 1.15246 0.11954 0.35818
 C295 C 1.13116 0.09780 0.38206
 C296 C 1.10383 0.11312 0.40503
 C297 C 1.09985 0.15183 0.40594
 C298 C 1.11951 0.21289 0.38519
 C299 C 1.09522 0.22883 0.41080
 C300 C 1.07335 0.20688 0.43396
 C301 C 1.07596 0.16880 0.43208
 H302 H 1.13770 0.23126 0.36988
 H303 H 1.09399 0.25842 0.41327
 H304 H 1.05499 0.21944 0.45422
 H305 H 1.05988 0.15300 0.45204
 H306 H 1.17173 0.10574 0.33969
 H307 H 1.13508 0.06835 0.38146
 C308 C 1.15729 -0.10608 0.62423
 C309 C 1.13806 -0.13412 0.64465
 C310 C 1.10170 -0.14342 0.63428
 C311 C 1.08303 -0.12285 0.60822
 C312 C 1.09999 -0.09249 0.59119
 C313 C 1.13777 -0.08461 0.59801
 C314 C 1.19595 -0.10047 0.62714
 C315 C 1.21415 -0.07266 0.60733
 C316 C 1.19464 -0.05057 0.58329
 C317 C 1.15694 -0.05671 0.57818
 H318 H 1.21288 -0.11838 0.64337
 H319 H 1.24372 -0.06867 0.61014
 H320 H 1.20900 -0.02925 0.56772
 H321 H 1.14328 -0.04004 0.55786
 H322 H 1.08624 -0.16504 0.64830
 H323 H 1.05437 -0.12966 0.60260
 C324 C 0.85193 -0.11328 0.36176
 C325 C 0.87078 -0.13216 0.33234
 C326 C 0.90974 -0.13233 0.33242
 C327 C 0.92968 -0.11176 0.35806
 C328 C 0.91170 -0.09030 0.38486
 C329 C 0.87250 -0.09083 0.38696
 C330 C 0.81345 -0.11770 0.36827
 C331 C 0.79522 -0.09727 0.39562
 C332 C 0.81490 -0.07261 0.41758
 C333 C 0.85320 -0.06949 0.41358
 H334 H 0.79720 -0.13784 0.35335
 H335 H 0.76567 -0.10071 0.39986
 H336 H 0.80054 -0.05644 0.43843
 H337 H 0.86742 -0.05036 0.43164
 H338 H 0.92540 -0.14666 0.31114
 H339 H 0.95965 -0.11201 0.35650
 C340 C 0.87557 0.15068 0.62192
 C341 C 0.85900 0.12938 0.65111
 C342 C 0.86006 0.09086 0.64821
 C343 C 0.88048 0.07370 0.62029
 C344 C 0.90025 0.09417 0.59373
 C345 C 0.89688 0.13290 0.59348
 C346 C 0.86932 0.18878 0.61861
 C347 C 0.88581 0.20915 0.59000
 C348 C 0.90784 0.19198 0.56333
 C349 C 0.91296 0.15418 0.56462
 H350 H 0.85041 0.20306 0.63692
 H351 H 0.88083 0.23832 0.58808
 H352 H 0.92019 0.20789 0.54093
 H353 H 0.92875 0.14178 0.54223
 H354 H 0.84734 0.07345 0.66920
 H355 H 0.88221 0.04402 0.62044
 C356 C 0.37327 1.16432 0.11316
 C357 C 0.34843 1.14911 0.14009
 C358 C 0.34922 1.11135 0.14722
 C359 C 0.37273 1.08842 0.12721
 C360 C 0.39624 1.10238 0.09927
 C361 C 0.39663 1.14063 0.09188
 C362 C 0.37585 1.20257 0.10719
 C363 C 0.39909 1.21694 0.07948
 C364 C 0.42026 1.19365 0.05730
 C365 C 0.41914 1.15587 0.06332
 H366 H 0.36049 1.22179 0.12416
 H367 H 0.40059 1.24631 0.07510
 H368 H 0.43788 1.20494 0.03550
 H369 H 0.43593 1.13888 0.04527
 H370 H 0.33057 1.09919 0.16768
 H371 H 0.37219 1.05929 0.13322
 C372 C 0.62496 1.13539 -0.12301
 C373 C 0.66039 1.11936 -0.12719
 C374 C 0.66680 1.08489 -0.11159
 C375 C 0.63927 1.06663 -0.09126
 C376 C 0.60432 1.08206 -0.08620
 C377 C 0.59681 1.11671 -0.10199
 C378 C 0.61651 1.16912 -0.13989
 C379 C 0.58173 1.18472 -0.13498
 C380 C 0.55469 1.16704 -0.11345
 C381 C 0.56200 1.13333 -0.09710
 H382 H 0.63635 1.18355 -0.15739
 H383 H 0.57571 1.21066 -0.14800
 H384 H 0.52782 1.17940 -0.10960
 H385 H 0.54019 1.12049 -0.08064
 H386 H 0.69366 1.07225 -0.11457
 H387 H 0.64525 1.04012 -0.07936
 C388 C 0.30849 0.89597 -0.09731
 C389 C 0.31967 0.86897 -0.12354
 C390 C 0.35709 0.85993 -0.12687
 C391 C 0.38373 0.87851 -0.10617
 C392 C 0.37369 0.90647 -0.08130
 C393 C 0.33571 0.91474 -0.07585
 C394 C 0.27075 0.90399 -0.09110
 C395 C 0.26013 0.93007 -0.06470
 C396 C 0.28668 0.94824 -0.04362
 C397 C 0.32408 0.94056 -0.04882
 H398 H 0.24905 0.88981 -0.10599
 H399 H 0.23110 0.93588 -0.06024
 H400 H 0.27822 0.96812 -0.02282
 H401 H 0.34359 0.95460 -0.03104
 H402 H 0.36587 0.83902 -0.14649
 H403 H 0.41258 0.87162 -0.11026
 C404 C 0.61526 0.84261 0.12691
 C405 C 0.64688 0.86250 0.13932
 C406 C 0.64884 0.90059 0.13381
 C407 C 0.62130 0.91875 0.11492
 C408 C 0.59098 0.89945 0.10066
 C409 C 0.58741 0.86121 0.10684
 C410 C 0.61006 0.80492 0.13474
 C411 C 0.57911 0.78579 0.12180
 C412 C 0.55255 0.80378 0.10129
 C413 C 0.55642 0.84119 0.09400
 H414 H 0.62926 0.79003 0.15155
 H415 H 0.57559 0.75688 0.12795
 H416 H 0.52857 0.78876 0.09141
 H417 H 0.53480 0.85435 0.07861
 H418 H 0.67259 0.91640 0.14308
 H419 H 0.62418 0.94806 0.11043
   
