data_POSCAR
  _audit_creation_date              2014-09-24
  _audit_creation_method            'ToBaCCo'
  _symmetry_space_group_name_H-M    'P1'
  _symmetry_Int_Tables_number       1
  _symmetry_cell_setting            triclinic
  loop_
  _symmetry_equiv_pos_as_xyz
 x,y,z
_cell_length_a 38.0481
_cell_length_b 38.1034
_cell_length_c 38.0162
_cell_angle_alpha 88.362600
_cell_angle_beta 88.966300
_cell_angle_gamma 90.691400
loop_
  _atom_site_label
  _atom_site_type_symbol
  _atom_site_fract_x
  _atom_site_fract_y
  _atom_site_fract_z
Zn1 Zn 0.77158 0.72878 0.78743
 Zn2 Zn 0.76915 0.78588 0.73211
 Zn3 Zn 0.71730 0.72630 0.73190
 Zn4 Zn 0.71266 0.78008 0.78733
 O5 O 0.74267 0.75525 0.75969
 O6 O 0.81720 0.73861 0.77932
 O7 O 0.76283 0.77999 0.68606
 O8 O 0.72654 0.68087 0.73970
 O9 O 0.81539 0.78149 0.73893
 O10 O 0.76662 0.68257 0.78098
 O11 O 0.72567 0.73485 0.68589
 O12 O 0.66742 0.77084 0.77892
 O13 O 0.75957 0.83084 0.73994
 O14 O 0.67074 0.73036 0.73845
 O15 O 0.71793 0.82668 0.78115
 O16 O 0.71858 0.77111 0.83334
 O17 O 0.76358 0.73480 0.83346
 C18 C 0.83264 0.76095 0.75882
 C19 C 0.74464 0.75788 0.66960
 C20 C 0.74728 0.66534 0.76059
 C21 C 0.65275 0.74977 0.75832
 C22 C 0.73806 0.84513 0.76085
 C23 C 0.74067 0.75241 0.84977
 Zn24 Zn 0.21727 0.72763 0.72975
 Zn25 Zn 0.21285 0.78175 0.78488
 Zn26 Zn 0.27125 0.72982 0.78558
 Zn27 Zn 0.26967 0.78674 0.73000
 O28 O 0.24276 0.75647 0.75756
 O29 O 0.17073 0.73187 0.73632
 O30 O 0.21873 0.77326 0.83096
 O31 O 0.26596 0.68359 0.77928
 O32 O 0.16757 0.77254 0.77661
 O33 O 0.22626 0.68216 0.73762
 O34 O 0.26318 0.73627 0.83155
 O35 O 0.31583 0.78200 0.73715
 O36 O 0.21831 0.82830 0.77820
 O37 O 0.31698 0.73921 0.77769
 O38 O 0.26037 0.83184 0.73739
 O39 O 0.26353 0.78070 0.68399
 O40 O 0.22574 0.73608 0.68373
 C41 C 0.15281 0.75138 0.75616
 C42 C 0.24055 0.75444 0.84762
 C43 C 0.24671 0.66648 0.75869
 C44 C 0.33275 0.76137 0.75723
 C45 C 0.23870 0.84645 0.75789
 C46 C 0.24507 0.75885 0.66749
 Zn47 Zn 0.71514 0.22636 0.77091
 Zn48 Zn 0.77185 0.22952 0.71576
 Zn49 Zn 0.71541 0.28345 0.71545
 Zn50 Zn 0.76961 0.28360 0.77105
 O51 O 0.74300 0.25573 0.74329
 O52 O 0.72410 0.18085 0.76470
 O53 O 0.76481 0.23702 0.66969
 O54 O 0.66942 0.27429 0.72204
 O55 O 0.76601 0.18332 0.72368
 O56 O 0.66933 0.23132 0.76244
 O57 O 0.72415 0.27808 0.66950
 O58 O 0.76102 0.32945 0.76450
 O59 O 0.81756 0.23854 0.72247
 O60 O 0.72109 0.32925 0.72303
 O61 O 0.81579 0.27909 0.76297
 O62 O 0.76219 0.27425 0.81708
 O63 O 0.72037 0.23334 0.81694
 C64 C 0.74565 0.16570 0.74446
 C65 C 0.74473 0.25790 0.65322
 C66 C 0.65304 0.25196 0.74182
 C67 C 0.74051 0.34573 0.74393
 C68 C 0.83302 0.25974 0.74239
 C69 C 0.74086 0.25339 0.83339
 Zn70 Zn 0.27193 0.23105 0.70982
 Zn71 Zn 0.21580 0.22742 0.76551
 Zn72 Zn 0.26997 0.28483 0.76547
 Zn73 Zn 0.21518 0.28485 0.71045
 O74 O 0.24323 0.25704 0.73778
 O75 O 0.26609 0.18471 0.71726
 O76 O 0.22167 0.23389 0.81151
 O77 O 0.31603 0.28043 0.75701
 O78 O 0.22467 0.18204 0.75876
 O79 O 0.31774 0.23989 0.71650
 O80 O 0.26322 0.27506 0.81148
 O81 O 0.22075 0.33065 0.71837
 O82 O 0.16993 0.23239 0.75776
 O83 O 0.26115 0.33067 0.75939
 O84 O 0.16920 0.27546 0.71750
 O85 O 0.22369 0.27995 0.66434
 O86 O 0.26468 0.23919 0.66388
 C87 C 0.24593 0.16698 0.73817
 C88 C 0.24230 0.25386 0.82786
 C89 C 0.33322 0.26105 0.73646
 C90 C 0.24034 0.34703 0.73921
 C91 C 0.15323 0.25301 0.73749
 C92 C 0.24442 0.26016 0.64774
 Zn93 Zn 0.73013 0.71386 0.23222
 Zn94 Zn 0.78415 0.77151 0.23208
 Zn95 Zn 0.72761 0.76822 0.28728
 Zn96 Zn 0.78448 0.71467 0.28776
 O97 O 0.75658 0.74205 0.25984
 O98 O 0.73758 0.72296 0.18612
 O99 O 0.77504 0.81697 0.23820
 O100 O 0.68196 0.75930 0.28020
 O101 O 0.77891 0.76436 0.18612
 O102 O 0.68389 0.71843 0.24003
 O103 O 0.73342 0.81446 0.27949
 O104 O 0.77556 0.72002 0.33373
 O105 O 0.82995 0.76687 0.24040
 O106 O 0.73437 0.76057 0.33337
 O107 O 0.83047 0.72417 0.28107
 O108 O 0.77913 0.66880 0.28034
 O109 O 0.73895 0.66807 0.23911
 C110 C 0.75867 0.74402 0.16975
 C111 C 0.75362 0.83210 0.25856
 C112 C 0.66658 0.73807 0.26025
 C113 C 0.75458 0.73988 0.34993
 C114 C 0.84653 0.74652 0.26104
 C115 C 0.75971 0.65205 0.25964
 Zn116 Zn 0.28438 0.77558 0.23034
 Zn117 Zn 0.23018 0.71811 0.22960
 Zn118 Zn 0.28433 0.71788 0.28523
 Zn119 Zn 0.22765 0.77160 0.28543
 O120 O 0.25664 0.74580 0.25765
 O121 O 0.27909 0.76912 0.18420
 O122 O 0.23899 0.67226 0.23560
 O123 O 0.33031 0.72715 0.27856
 O124 O 0.23751 0.72800 0.18370
 O125 O 0.33024 0.77053 0.23860
 O126 O 0.27879 0.67212 0.27718
 O127 O 0.23464 0.76358 0.33141
 O128 O 0.18400 0.72229 0.23773
 O129 O 0.27554 0.72274 0.33128
 O130 O 0.18199 0.76246 0.27860
 O131 O 0.23323 0.81793 0.27801
 O132 O 0.27522 0.82100 0.23709
 C133 C 0.25868 0.74915 0.16757
 C134 C 0.25950 0.65582 0.25603
 C135 C 0.34661 0.74963 0.25888
 C136 C 0.25476 0.74261 0.34772
 C137 C 0.16666 0.74135 0.25848
 C138 C 0.25352 0.83585 0.25741
 Zn139 Zn 0.72827 0.26950 0.21592
 Zn140 Zn 0.78659 0.21782 0.21564
 Zn141 Zn 0.78204 0.27053 0.27211
 Zn142 Zn 0.72959 0.21169 0.27051
 O143 O 0.75662 0.24239 0.24355
 O144 O 0.73620 0.26383 0.16979
 O145 O 0.83183 0.22680 0.22426
 O146 O 0.77414 0.31635 0.26419
 O147 O 0.78085 0.22715 0.16970
 O148 O 0.73407 0.31546 0.22281
 O149 O 0.82858 0.26483 0.26707
 O150 O 0.73508 0.21712 0.31679
 O151 O 0.78113 0.17116 0.22147
 O152 O 0.77235 0.26208 0.31781
 O153 O 0.73916 0.16682 0.26237
 O154 O 0.68349 0.21645 0.26309
 O155 O 0.68249 0.26028 0.22369
 C156 C 0.75893 0.24611 0.15337
 C157 C 0.84654 0.24618 0.24642
 C158 C 0.75372 0.33230 0.24324
 C159 C 0.75297 0.23914 0.33367
 C160 C 0.76082 0.15263 0.24154
 C161 C 0.66663 0.23764 0.24353
 Zn162 Zn 0.22973 0.27315 0.20843
 Zn163 Zn 0.28702 0.22055 0.21137
 Zn164 Zn 0.28201 0.27530 0.26580
 Zn165 Zn 0.22855 0.21712 0.26503
 O166 O 0.25682 0.24650 0.23769
 O167 O 0.23926 0.26651 0.16296
 O168 O 0.33217 0.22912 0.22075
 O169 O 0.27341 0.32079 0.25753
 O170 O 0.28268 0.22846 0.16489
 O171 O 0.23486 0.31939 0.21479
 O172 O 0.32860 0.27062 0.26015
 O173 O 0.23422 0.22318 0.31112
 O174 O 0.28046 0.17431 0.21852
 O175 O 0.27275 0.26714 0.31173
 O176 O 0.23701 0.17158 0.25797
 O177 O 0.18251 0.22327 0.25715
 O178 O 0.18392 0.26382 0.21428
 C179 C 0.26173 0.24769 0.14755
 C180 C 0.34672 0.25052 0.24111
 C181 C 0.25355 0.33648 0.23589
 C182 C 0.25289 0.24471 0.32780
 C183 C 0.25913 0.15656 0.23821
 C184 C 0.16689 0.24312 0.23521
 C185 C -0.11108 0.79432 0.74720
 C186 C -0.07436 0.79630 0.74669
 C187 C -0.05454 0.76689 0.75604
 C188 C -0.07188 0.73548 0.76664
 C189 C -0.10861 0.73369 0.76796
 C190 C -0.12856 0.76303 0.75802
 N191 N -0.01698 0.76970 0.75510
 N192 N 0.00247 0.74277 0.75467
 C193 C 0.04003 0.74559 0.75481
 C194 C 0.06006 0.71684 0.74483
 C195 C 0.09679 0.71884 0.74474
 C196 C 0.11402 0.74942 0.75554
 C197 C 0.09384 0.77811 0.76598
 C198 C 0.05714 0.77635 0.76530
 H199 H -0.12582 0.81738 0.73960
 H200 H -0.06128 0.82069 0.73863
 H201 H -0.05706 0.71250 0.77428
 H202 H -0.12141 0.70923 0.77630
 H203 H 0.04715 0.69295 0.73684
 H204 H 0.11170 0.69628 0.73677
 H205 H 0.10644 0.80202 0.77434
 H206 H 0.04216 0.79881 0.77339
 C207 C 0.71273 -0.09941 0.78417
 C208 C 0.71137 -0.06277 0.78468
 C209 C 0.73362 -0.04214 0.76263
 C210 C 0.75739 -0.05862 0.73991
 C211 C 0.75878 -0.09522 0.73935
 C212 C 0.73647 -0.11606 0.76148
 N213 N 0.73157 -0.00467 0.76374
 N214 N 0.75121 0.01539 0.74435
 C215 C 0.74939 0.05287 0.74511
 C216 C 0.77187 0.07298 0.72286
 C217 C 0.77074 0.10962 0.72269
 C218 C 0.74700 0.12684 0.74491
 C219 C 0.72448 0.10654 0.76735
 C220 C 0.72565 0.06986 0.76746
 H221 H 0.69518 -0.11468 0.80154
 H222 H 0.69293 -0.05038 0.80230
 H223 H 0.77487 -0.04326 0.72258
 H224 H 0.77737 -0.10717 0.72157
 H225 H 0.79028 0.06017 0.70553
 H226 H 0.78845 0.12442 0.70509
 H227 H 0.70588 0.11897 0.78477
 H228 H 0.70800 0.05485 0.78492
 C229 C 0.70852 0.75878 -0.09280
 C230 C 0.70749 0.75728 -0.05601
 C231 C 0.73767 0.74899 -0.03717
 C232 C 0.76893 0.74150 -0.05556
 C233 C 0.76981 0.74223 -0.09236
 C234 C 0.73967 0.75113 -0.11134
 N235 N 0.73586 0.74810 0.00050
 N236 N 0.76335 0.74901 0.01904
 C237 C 0.76161 0.74742 0.05670
 C238 C 0.79099 0.75788 0.07555
 C239 C 0.78996 0.75710 0.11234
 C240 C 0.75969 0.74495 0.13086
 C241 C 0.73041 0.73383 0.11188
 C242 C 0.73122 0.73538 0.07508
 H243 H 0.68485 0.76550 -0.10675
 H244 H 0.68322 0.76298 -0.04212
 H245 H 0.79253 0.73477 -0.04151
 H246 H 0.79417 0.73628 -0.10598
 H247 H 0.81459 0.76708 0.06166
 H248 H 0.81296 0.76561 0.12630
 H249 H 0.70673 0.72442 0.12550
 H250 H 0.70828 0.72690 0.06102
 C251 C 0.59673 0.71740 0.74648
 C252 C 0.56000 0.71558 0.74617
 C253 C 0.54000 0.74444 0.75589
 C254 C 0.55712 0.77511 0.76660
 C255 C 0.59381 0.77668 0.76770
 C256 C 0.61397 0.74791 0.75746
 N257 N 0.50244 0.74185 0.75523
 N258 N 0.48318 0.76893 0.75524
 C259 C 0.44560 0.76639 0.75566
 C260 C 0.42612 0.79591 0.74593
 C261 C 0.38939 0.79422 0.74601
 C262 C 0.37157 0.76311 0.75676
 C263 C 0.39117 0.73364 0.76704
 C264 C 0.42791 0.73514 0.76617
 H265 H 0.61163 0.69478 0.73865
 H266 H 0.54708 0.69176 0.73801
 H267 H 0.54216 0.79764 0.77451
 H268 H 0.60643 0.80055 0.77618
 H269 H 0.43948 0.82018 0.73794
 H270 H 0.37492 0.81737 0.73815
 H271 H 0.37809 0.70931 0.77535
 H272 H 0.44246 0.71207 0.77408
 C273 C 0.21351 -0.09771 0.78045
 C274 C 0.21216 -0.06104 0.78039
 C275 C 0.23435 -0.04074 0.75798
 C276 C 0.25810 -0.05756 0.73551
 C277 C 0.25950 -0.09419 0.73553
 C278 C 0.23721 -0.11471 0.75799
 N279 N 0.23226 -0.00324 0.75853
 N280 N 0.25166 0.01663 0.73869
 C281 C 0.24971 0.05413 0.73908
 C282 C 0.27186 0.07417 0.71642
 C283 C 0.27068 0.11083 0.71607
 C284 C 0.24720 0.12812 0.73851
 C285 C 0.22496 0.10788 0.76128
 C286 C 0.22619 0.07121 0.76158
 H287 H 0.19598 -0.11271 0.79807
 H288 H 0.19374 -0.04839 0.79783
 H289 H 0.27555 -0.04244 0.71793
 H290 H 0.27805 -0.10642 0.71791
 H291 H 0.29010 0.06130 0.69896
 H292 H 0.28817 0.12559 0.69821
 H293 H 0.20658 0.12035 0.77890
 H294 H 0.20878 0.05628 0.77936
 C295 C 0.20851 0.76185 -0.09507
 C296 C 0.20754 0.76102 -0.05829
 C297 C 0.23772 0.75297 -0.03935
 C298 C 0.26892 0.74501 -0.05763
 C299 C 0.26973 0.74505 -0.09442
 C300 C 0.23959 0.75373 -0.11349
 N301 N 0.23593 0.75266 -0.00169
 N302 N 0.26341 0.75395 0.01685
 C303 C 0.26159 0.75276 0.05452
 C304 C 0.29092 0.76341 0.07336
 C305 C 0.28986 0.76270 0.11016
 C306 C 0.25963 0.75047 0.12868
 C307 C 0.23037 0.73933 0.10970
 C308 C 0.23119 0.74077 0.07291
 H309 H 0.18485 0.76842 -0.10911
 H310 H 0.18331 0.76705 -0.04447
 H311 H 0.29250 0.73844 -0.04349
 H312 H 0.29404 0.73877 -0.10796
 H313 H 0.31452 0.77258 0.05946
 H314 H 0.31286 0.77124 0.12412
 H315 H 0.20671 0.72985 0.12331
 H316 H 0.20829 0.73216 0.05887
 C317 C -0.11097 0.29288 0.75188
 C318 C -0.07428 0.29531 0.75073
 C319 C -0.05422 0.26682 0.74014
 C320 C -0.07130 0.23591 0.72997
 C321 C -0.10802 0.23372 0.73035
 C322 C -0.12819 0.26210 0.74157
 N323 N -0.01668 0.26995 0.73979
 N324 N 0.00295 0.24317 0.73897
 C325 C 0.04049 0.24623 0.73805
 C326 C 0.06041 0.21686 0.74722
 C327 C 0.09708 0.21914 0.74730
 C328 C 0.11446 0.25072 0.73729
 C329 C 0.09444 0.28001 0.72735
 C330 C 0.05770 0.27791 0.72809
 H331 H -0.12588 0.31523 0.76040
 H332 H -0.06140 0.31930 0.75851
 H333 H -0.05629 0.21364 0.72145
 H334 H -0.12063 0.20968 0.72231
 H335 H 0.04742 0.19228 0.75481
 H336 H 0.11188 0.19610 0.75484
 H337 H 0.10719 0.30467 0.71959
 H338 H 0.04279 0.30088 0.72063
 C339 C 0.77168 0.60850 0.78388
 C340 C 0.77306 0.57183 0.78428
 C341 C 0.75179 0.55252 0.76204
 C342 C 0.72898 0.57034 0.73922
 C343 C 0.72756 0.60698 0.73877
 C344 C 0.74889 0.62650 0.76110
 N345 N 0.75382 0.51498 0.76308
 N346 N 0.73510 0.49606 0.74348
 C347 C 0.73690 0.45853 0.74424
 C348 C 0.71550 0.43970 0.72176
 C349 C 0.71660 0.40306 0.72167
 C350 C 0.73925 0.38457 0.74419
 C351 C 0.76072 0.40360 0.76682
 C352 C 0.75958 0.44027 0.76686
 H353 H 0.78846 0.62272 0.80140
 H354 H 0.79075 0.55839 0.80198
 H355 H 0.71225 0.55601 0.72175
 H356 H 0.70972 0.61999 0.72091
 H357 H 0.69792 0.45349 0.70422
 H358 H 0.69972 0.38925 0.70392
 H359 H 0.77846 0.39018 0.78448
 H360 H 0.77639 0.45428 0.78450
 C361 C 0.70952 0.24042 -0.10917
 C362 C 0.70846 0.23980 -0.07238
 C363 C 0.73785 0.25029 -0.05355
 C364 C 0.76829 0.26213 -0.07195
 C365 C 0.76914 0.26349 -0.10875
 C366 C 0.73984 0.25242 -0.12772
 N367 N 0.73607 0.24893 -0.01588
 N368 N 0.76356 0.25002 0.00265
 C369 C 0.76181 0.24936 0.04032
 C370 C 0.79201 0.24113 0.05914
 C371 C 0.79103 0.23976 0.09593
 C372 C 0.75992 0.24751 0.11448
 C373 C 0.72977 0.25642 0.09552
 C374 C 0.73059 0.25701 0.05872
 H375 H 0.68649 0.23194 -0.12312
 H376 H 0.68481 0.23074 -0.05848
 H377 H 0.79125 0.27061 -0.05792
 H378 H 0.79286 0.27279 -0.12238
 H379 H 0.81625 0.23532 0.04524
 H380 H 0.81470 0.23303 0.10987
 H381 H 0.70543 0.26243 0.10916
 H382 H 0.70698 0.26371 0.04467
 C383 C 0.59645 0.21860 0.75102
 C384 C 0.55980 0.21648 0.74969
 C385 C 0.54037 0.24571 0.73900
 C386 C 0.55807 0.27709 0.72891
 C387 C 0.59477 0.27902 0.72947
 C388 C 0.61429 0.24986 0.74080
 N389 N 0.50283 0.24288 0.73853
 N390 N 0.48346 0.26987 0.73760
 C391 C 0.44594 0.26716 0.73660
 C392 C 0.42591 0.29615 0.74578
 C393 C 0.38922 0.29410 0.74592
 C394 C 0.37200 0.26320 0.73596
 C395 C 0.39216 0.23436 0.72595
 C396 C 0.42888 0.23618 0.72662
 H397 H 0.61086 0.19566 0.75962
 H398 H 0.54644 0.19213 0.75742
 H399 H 0.54357 0.29995 0.72031
 H400 H 0.60787 0.30344 0.72149
 H401 H 0.43879 0.32020 0.75338
 H402 H 0.37430 0.31679 0.75353
 H403 H 0.37952 0.21022 0.71823
 H404 H 0.44391 0.21353 0.71916
 C405 C 0.27078 0.60943 0.78188
 C406 C 0.27212 0.57276 0.78203
 C407 C 0.25094 0.55363 0.75954
 C408 C 0.22823 0.57165 0.73677
 C409 C 0.22686 0.60828 0.73657
 C410 C 0.24814 0.62762 0.75910
 N411 N 0.25303 0.51609 0.76023
 N412 N 0.23439 0.49733 0.74040
 C413 C 0.23631 0.45980 0.74076
 C414 C 0.21490 0.44113 0.71814
 C415 C 0.21614 0.40451 0.71763
 C416 C 0.23894 0.38586 0.73987
 C417 C 0.26041 0.40473 0.76264
 C418 C 0.25912 0.44138 0.76310
 H419 H 0.28752 0.62351 0.79956
 H420 H 0.28974 0.55918 0.79970
 H421 H 0.21157 0.55746 0.71912
 H422 H 0.20912 0.62143 0.71871
 H423 H 0.19721 0.45505 0.70080
 H424 H 0.19925 0.39083 0.69979
 H425 H 0.27826 0.39119 0.78009
 H426 H 0.27595 0.45525 0.78083
 C427 C 0.21187 0.24033 -0.11439
 C428 C 0.21140 0.23929 -0.07761
 C429 C 0.24118 0.24934 -0.05915
 C430 C 0.27145 0.26109 -0.07787
 C431 C 0.27170 0.26290 -0.11467
 C432 C 0.24197 0.25235 -0.13327
 N433 N 0.23977 0.24805 -0.02149
 N434 N 0.26737 0.24870 -0.00309
 C435 C 0.26552 0.24848 0.03457
 C436 C 0.29534 0.23956 0.05374
 C437 C 0.29412 0.23888 0.09056
 C438 C 0.26320 0.24804 0.10869
 C439 C 0.23347 0.25751 0.08935
 C440 C 0.23450 0.25742 0.05261
 H441 H 0.18853 0.23224 -0.12807
 H442 H 0.18787 0.23035 -0.06343
 H443 H 0.29468 0.26927 -0.06409
 H444 H 0.29527 0.27218 -0.12858
 H445 H 0.31944 0.23275 0.04011
 H446 H 0.31745 0.23165 0.10483
 H447 H 0.20927 0.26458 0.10265
 H448 H 0.21121 0.26468 0.03831
 C449 C -0.09744 0.78065 0.25164
 C450 C -0.06079 0.78313 0.25210
 C451 C -0.04082 0.75391 0.26162
 C452 C -0.05795 0.72219 0.27159
 C453 C -0.09468 0.71990 0.27196
 C454 C -0.11474 0.74903 0.26164
 N455 N -0.00329 0.75714 0.26102
 N456 N 0.01644 0.73043 0.26042
 C457 C 0.05396 0.73371 0.26033
 C458 C 0.07420 0.70533 0.24980
 C459 C 0.11087 0.70794 0.24880
 C460 C 0.12790 0.73879 0.25923
 C461 C 0.10754 0.76705 0.27044
 C462 C 0.07083 0.76468 0.27065
 H463 H -0.11228 0.80357 0.24381
 H464 H -0.04786 0.80774 0.24450
 H465 H -0.04299 0.69934 0.27932
 H466 H -0.10737 0.69521 0.27972
 H467 H 0.06148 0.68130 0.24191
 H468 H 0.12594 0.68568 0.24030
 H469 H 0.12000 0.79113 0.27856
 H470 H 0.05567 0.78686 0.27913
 C471 C 0.72855 -0.11179 0.28031
 C472 C 0.72736 -0.07515 0.28001
 C473 C 0.74970 -0.05508 0.25757
 C474 C 0.77338 -0.07211 0.23519
 C475 C 0.77462 -0.10878 0.23544
 C476 C 0.75223 -0.12905 0.25804
 N477 N 0.74783 -0.01759 0.25819
 N478 N 0.76737 0.00243 0.23868
 C479 C 0.76525 0.03991 0.23968
 C480 C 0.78750 0.06053 0.21762
 C481 C 0.78613 0.09719 0.21811
 C482 C 0.76236 0.11383 0.24079
 C483 C 0.74002 0.09298 0.26288
 C484 C 0.74143 0.05638 0.26234
 H485 H 0.71094 -0.12657 0.29803
 H486 H 0.70900 -0.06231 0.29737
 H487 H 0.79093 -0.05713 0.21760
 H488 H 0.79315 -0.12124 0.21797
 H489 H 0.80597 0.04815 0.20004
 H490 H 0.80369 0.11246 0.20077
 H491 H 0.72141 0.10492 0.28065
 H492 H 0.72394 0.04103 0.27967
 C493 C 0.75479 0.79016 0.61199
 C494 C 0.75559 0.79118 0.57519
 C495 C 0.74818 0.76091 0.55656
 C496 C 0.73920 0.72958 0.57515
 C497 C 0.73761 0.72872 0.61194
 C498 C 0.74565 0.75894 0.63071
 N499 N 0.74961 0.76272 0.51889
 N500 N 0.75155 0.73528 0.50066
 C501 C 0.75217 0.73704 0.46298
 C502 C 0.76359 0.70791 0.44453
 C503 C 0.76477 0.70893 0.40774
 C504 C 0.75367 0.73890 0.38882
 C505 C 0.74169 0.76793 0.40740
 C506 C 0.74126 0.76716 0.44420
 H507 H 0.76090 0.81389 0.62579
 H508 H 0.76240 0.81551 0.56114
 H509 H 0.73310 0.70592 0.56126
 H510 H 0.73058 0.70429 0.62571
 H511 H 0.77193 0.68451 0.45873
 H512 H 0.77392 0.68612 0.39408
 H513 H 0.73306 0.79139 0.39348
 H514 H 0.73208 0.78989 0.45795
 C515 C 0.61029 0.70559 0.25010
 C516 C 0.57357 0.70380 0.25040
 C517 C 0.55376 0.73275 0.26018
 C518 C 0.57110 0.76348 0.27045
 C519 C 0.60782 0.76504 0.27093
 C520 C 0.62777 0.73621 0.26048
 N521 N 0.51620 0.73027 0.25967
 N522 N 0.49699 0.75738 0.25967
 C523 C 0.45941 0.75488 0.25984
 C524 C 0.44005 0.78446 0.25007
 C525 C 0.40335 0.78270 0.24943
 C526 C 0.38540 0.75145 0.25947
 C527 C 0.40486 0.72194 0.26992
 C528 C 0.44160 0.72351 0.26977
 H529 H 0.62502 0.68291 0.24213
 H530 H 0.56049 0.67994 0.24257
 H531 H 0.55628 0.78610 0.27838
 H532 H 0.62063 0.78898 0.27898
 H533 H 0.45349 0.80881 0.24250
 H534 H 0.38900 0.80590 0.24148
 H535 H 0.39169 0.69751 0.27771
 H536 H 0.45606 0.70039 0.27769
 C537 C 0.22777 -0.10836 0.27932
 C538 C 0.22611 -0.07172 0.27907
 C539 C 0.24833 -0.05134 0.25680
 C540 C 0.27242 -0.06806 0.23459
 C541 C 0.27412 -0.10471 0.23478
 C542 C 0.25181 -0.12530 0.25716
 N543 N 0.24592 -0.01386 0.25730
 N544 N 0.26544 0.00622 0.23781
 C545 C 0.26315 0.04370 0.23828
 C546 C 0.28574 0.06398 0.21631
 C547 C 0.28440 0.10062 0.21620
 C548 C 0.26029 0.11769 0.23818
 C549 C 0.23752 0.09721 0.26019
 C550 C 0.23893 0.06054 0.26027
 H551 H 0.21020 -0.12339 0.29686
 H552 H 0.20744 -0.05915 0.29631
 H553 H 0.28990 -0.05287 0.21712
 H554 H 0.29293 -0.11691 0.21740
 H555 H 0.30451 0.05131 0.19925
 H556 H 0.30231 0.11555 0.19892
 H557 H 0.21866 0.10951 0.27743
 H558 H 0.22115 0.04541 0.27750
 C559 C 0.25561 0.79116 0.60999
 C560 C 0.25646 0.79229 0.57321
 C561 C 0.24877 0.76217 0.55447
 C562 C 0.23949 0.73085 0.57295
 C563 C 0.23786 0.72987 0.60974
 C564 C 0.24616 0.75996 0.62861
 N565 N 0.25021 0.76413 0.51682
 N566 N 0.25191 0.73679 0.49843
 C567 C 0.25250 0.73883 0.46076
 C568 C 0.26371 0.70978 0.44205
 C569 C 0.26486 0.71110 0.40526
 C570 C 0.25395 0.74131 0.38660
 C571 C 0.24218 0.77026 0.40544
 C572 C 0.24177 0.76917 0.44223
 H573 H 0.26192 0.81479 0.62388
 H574 H 0.26350 0.81661 0.55924
 H575 H 0.23318 0.70731 0.55896
 H576 H 0.23058 0.70548 0.62344
 H577 H 0.27191 0.68621 0.45606
 H578 H 0.27385 0.68835 0.39140
 H579 H 0.23370 0.79389 0.39173
 H580 H 0.23276 0.79185 0.45617
 C581 C -0.09800 0.25675 0.27926
 C582 C -0.06135 0.25597 0.28144
 C583 C -0.04081 0.24592 0.25262
 C584 C -0.05737 0.23621 0.22155
 C585 C -0.09401 0.23629 0.21957
 C586 C -0.11469 0.24668 0.24837
 N587 N -0.00333 0.24553 0.25551
 N588 N 0.01675 0.24432 0.22845
 C589 C 0.05422 0.24329 0.23084
 C590 C 0.07083 0.23366 0.26236
 C591 C 0.10756 0.23283 0.26368
 C592 C 0.12813 0.24235 0.23376
 C593 C 0.11133 0.25191 0.20235
 C594 C 0.07469 0.25190 0.20086
 H595 H -0.11330 0.26463 0.30194
 H596 H -0.04890 0.26344 0.30554
 H597 H -0.04204 0.22815 0.19898
 H598 H -0.10616 0.22843 0.19544
 H599 H 0.05544 0.22660 0.28579
 H600 H 0.11988 0.22545 0.28822
 H601 H 0.12656 0.25914 0.17884
 H602 H 0.06217 0.25918 0.17640
 C603 C 0.78408 0.59500 0.28219
 C604 C 0.78553 0.55837 0.28222
 C605 C 0.76436 0.53925 0.25976
 C606 C 0.74156 0.55724 0.23704
 C607 C 0.74005 0.59390 0.23697
 C608 C 0.76130 0.61321 0.25956
 N609 N 0.76648 0.50173 0.26062
 N610 N 0.74798 0.48271 0.24090
 C611 C 0.75005 0.44518 0.24187
 C612 C 0.72888 0.42601 0.21945
 C613 C 0.73008 0.38935 0.21981
 C614 C 0.75262 0.37118 0.24272
 C615 C 0.77394 0.39055 0.26519
 C616 C 0.77268 0.42722 0.26479
 H617 H 0.80080 0.60903 0.29992
 H618 H 0.80320 0.54480 0.29984
 H619 H 0.72491 0.54303 0.21941
 H620 H 0.72223 0.60709 0.21922
 H621 H 0.71134 0.43954 0.20167
 H622 H 0.71332 0.37527 0.20216
 H623 H 0.79157 0.37739 0.28315
 H624 H 0.78933 0.44147 0.28239
 C625 C 0.73445 0.28877 0.59543
 C626 C 0.73515 0.28958 0.55864
 C627 C 0.74575 0.26014 0.54021
 C628 C 0.75637 0.22991 0.55900
 C629 C 0.75644 0.22934 0.59578
 C630 C 0.74525 0.25869 0.61435
 N631 N 0.74602 0.26177 0.50255
 N632 N 0.74719 0.23427 0.48435
 C633 C 0.74846 0.23609 0.44668
 C634 C 0.74055 0.20597 0.42800
 C635 C 0.74151 0.20701 0.39120
 C636 C 0.75128 0.23809 0.37254
 C637 C 0.75966 0.26818 0.39138
 C638 C 0.75795 0.26730 0.42814
 H639 H 0.72590 0.31182 0.60907
 H640 H 0.72706 0.31307 0.54443
 H641 H 0.76494 0.20695 0.54525
 H642 H 0.76480 0.20579 0.60972
 H643 H 0.73333 0.18174 0.44202
 H644 H 0.73512 0.18338 0.37734
 H645 H 0.76719 0.29250 0.37767
 H646 H 0.76443 0.29085 0.44206
 C647 C 0.60991 0.20475 0.25415
 C648 C 0.57318 0.20316 0.25420
 C649 C 0.55378 0.23287 0.24491
 C650 C 0.57154 0.26422 0.23490
 C651 C 0.60828 0.26564 0.23407
 C652 C 0.62782 0.23597 0.24390
 N653 N 0.51619 0.23042 0.24528
 N654 N 0.49700 0.25754 0.24545
 C655 C 0.45945 0.25509 0.24469
 C656 C 0.43954 0.28412 0.25407
 C657 C 0.40282 0.28253 0.25346
 C658 C 0.38548 0.25204 0.24256
 C659 C 0.40555 0.22304 0.23275
 C660 C 0.44223 0.22442 0.23413
 H661 H 0.62432 0.18145 0.26166
 H662 H 0.55976 0.17881 0.26181
 H663 H 0.55706 0.28743 0.22733
 H664 H 0.62142 0.29005 0.22616
 H665 H 0.45254 0.30795 0.26212
 H666 H 0.38800 0.30532 0.26095
 H667 H 0.39287 0.19919 0.22433
 H668 H 0.45711 0.20173 0.22649
 C669 C 0.28332 0.59829 0.27788
 C670 C 0.28458 0.56167 0.27730
 C671 C 0.26361 0.54308 0.25422
 C672 C 0.24120 0.56157 0.23150
 C673 C 0.23989 0.59822 0.23205
 C674 C 0.26093 0.61700 0.25528
 N675 N 0.26552 0.50556 0.25452
 N676 N 0.24734 0.48686 0.23424
 C677 C 0.24942 0.44932 0.23492
 C678 C 0.22881 0.43024 0.21189
 C679 C 0.23013 0.39356 0.21206
 C680 C 0.25219 0.37534 0.23540
 C681 C 0.27291 0.39464 0.25846
 C682 C 0.27156 0.43127 0.25824
 H683 H 0.29986 0.61190 0.29609
 H684 H 0.30193 0.54770 0.29492
 H685 H 0.22472 0.54776 0.21341
 H686 H 0.22237 0.61182 0.21430
 H687 H 0.21164 0.44384 0.19380
 H688 H 0.21383 0.37951 0.19397
 H689 H 0.29019 0.38146 0.27676
 H690 H 0.28777 0.44542 0.27632
 C691 C 0.23413 0.29188 0.59035
 C692 C 0.23504 0.29330 0.55355
 C693 C 0.24589 0.26423 0.53468
 C694 C 0.25653 0.23376 0.55305
 C695 C 0.25639 0.23257 0.58984
 C696 C 0.24497 0.26154 0.60885
 N697 N 0.24628 0.26640 0.49701
 N698 N 0.24747 0.23912 0.47850
 C699 C 0.24878 0.24121 0.44084
 C700 C 0.24055 0.21129 0.42201
 C701 C 0.24144 0.21252 0.38522
 C702 C 0.25147 0.24359 0.36669
 C703 C 0.26024 0.27349 0.38565
 C704 C 0.25857 0.27243 0.42245
 H705 H 0.22542 0.31466 0.60434
 H706 H 0.22692 0.31697 0.53968
 H707 H 0.26528 0.21106 0.53898
 H708 H 0.26481 0.20885 0.60344
 H709 H 0.23311 0.18705 0.43590
 H710 H 0.23476 0.18903 0.37127
 H711 H 0.26799 0.29779 0.37203
 H712 H 0.26531 0.29582 0.43651
   
