data_POSCAR
  _audit_creation_date              2014-09-24
  _audit_creation_method            'ToBaCCo'
  _symmetry_space_group_name_H-M    'P1'
  _symmetry_Int_Tables_number       1
  _symmetry_cell_setting            triclinic
  loop_
  _symmetry_equiv_pos_as_xyz
 x,y,z
_cell_length_a 20.0291
_cell_length_b 20.1163
_cell_length_c 22.2506
_cell_angle_alpha 89.953400
_cell_angle_beta 90.182400
_cell_angle_gamma 120.098800
loop_
  _atom_site_label
  _atom_site_type_symbol
  _atom_site_fract_x
  _atom_site_fract_y
  _atom_site_fract_z
O1 O 0.34249 0.54470 0.30186
 O2 O 0.21767 0.55354 0.31677
 C3 C 0.18484 0.59245 0.32632
 O4 O 0.19837 0.65083 0.29502
 O5 O 0.33079 0.77421 0.31583
 C6 C 0.40242 0.80778 0.32727
 O7 O 0.44894 0.79544 0.29719
 O8 O 0.43797 0.66378 0.32122
 C9 C 0.39989 0.59266 0.33331
 O10 O 0.32389 0.54697 0.18107
 O11 O 0.19586 0.54975 0.19651
 C12 C 0.18928 0.59907 0.16481
 O13 O 0.22781 0.67054 0.17611
 O14 O 0.35693 0.79777 0.19628
 C15 C 0.41362 0.80350 0.16631
 O16 O 0.44621 0.76509 0.17892
 O17 O 0.44401 0.63746 0.20340
 C18 C 0.39599 0.58087 0.17184
 Cr19 Cr 0.27215 0.55279 0.24903
 Cr20 Cr 0.28025 0.72109 0.24589
 Cr21 Cr 0.44025 0.71351 0.25012
 O22 O 0.33077 0.66238 0.24841
 O23 O 0.54897 0.32277 0.68215
 O24 O 0.55213 0.19554 0.69738
 C25 C 0.60192 0.18932 0.66614
 O26 O 0.67366 0.22703 0.67742
 O27 O 0.80130 0.35592 0.69737
 C28 C 0.80680 0.41237 0.66737
 O29 O 0.76828 0.44478 0.68002
 O30 O 0.64005 0.44234 0.70416
 C31 C 0.58306 0.39454 0.67271
 O32 O 0.54700 0.34071 0.80296
 O33 O 0.55613 0.21644 0.81768
 C34 C 0.59543 0.18393 0.82735
 O35 O 0.65430 0.19789 0.79634
 O36 O 0.77808 0.32986 0.81701
 C37 C 0.81126 0.40107 0.82862
 O38 O 0.79874 0.44736 0.79841
 O39 O 0.66650 0.43619 0.82207
 C40 C 0.59514 0.39807 0.83421
 Cr41 Cr 0.55516 0.27104 0.75004
 Cr42 Cr 0.72457 0.27948 0.74711
 Cr43 Cr 0.71646 0.43862 0.75110
 O44 O 0.66529 0.32956 0.74945
 C45 C 0.49506 -0.02707 0.46983
 C46 C 0.54174 -0.05131 0.44137
 C47 C 0.51136 -0.10484 0.39493
 C48 C 0.43425 -0.13542 0.37683
 C49 C 0.38888 -0.11109 0.40720
 N50 N 0.42001 -0.05829 0.45222
 C51 C 0.52469 0.03016 0.51928
 N52 N 0.47357 0.03343 0.55768
 C53 C 0.49649 0.08383 0.60442
 C54 C 0.57532 0.13497 0.61486
 C55 C 0.62886 0.13346 0.57518
 C56 C 0.60394 0.08179 0.52735
 H57 H 0.54827 -0.12280 0.37357
 H58 H 0.32898 -0.13354 0.39504
 H59 H 0.45312 0.08331 0.63361
 H60 H 0.69017 0.17263 0.58079
 H61 H 0.60073 -0.03064 0.45515
 H62 H 0.64670 0.08360 0.49684
 C63 C 1.02047 0.52387 0.46922
 C64 C 1.04324 0.59304 0.43846
 C65 C 1.09634 0.61497 0.39169
 C66 C 1.12773 0.56888 0.37555
 C67 C 1.10429 0.50073 0.40784
 N68 N 1.05215 0.48036 0.45309
 C69 C 0.96455 0.49726 0.51962
 N70 N 0.96055 0.44154 0.55677
 C71 C 0.91100 0.41367 0.60393
 C72 C 0.86122 0.44216 0.61619
 C73 C 0.86371 0.49906 0.57818
 C74 C 0.91475 0.52640 0.52984
 H75 H 1.11343 0.66856 0.36861
 H76 H 1.12718 0.46353 0.39720
 H77 H 0.91086 0.36949 0.63181
 H78 H 0.82567 0.52201 0.58538
 H79 H 1.02195 0.63102 0.45061
 H80 H 0.91365 0.56879 0.50068
 C81 C 0.47715 0.51367 0.48216
 C82 C 0.50218 0.59228 0.47613
 C83 C 0.47656 0.61755 0.42778
 C84 C 0.42490 0.56496 0.38563
 C85 C 0.39879 0.48653 0.39438
 N86 N 0.42549 0.46324 0.44158
 C87 C 0.50562 0.48445 0.53140
 N88 N 0.46379 0.40907 0.54764
 C89 C 0.48692 0.37869 0.59232
 C90 C 0.55600 0.42522 0.62369
 C91 C 0.60041 0.50266 0.60694
 C92 C 0.57590 0.53223 0.56086
 H93 H 0.49704 0.67845 0.42361
 H94 H 0.35842 0.44393 0.36322
 H95 H 0.45116 0.31849 0.60343
 H96 H 0.65484 0.54051 0.62897
 H97 H 0.54055 0.63429 0.50845
 H98 H 0.61287 0.59155 0.54807
 C99 C 0.49921 -0.03775 1.01941
 C100 C 0.52854 -0.08737 1.02945
 C101 C 0.50091 -0.13881 1.07747
 C102 C 0.44355 -0.14186 1.11535
 C103 C 0.41486 -0.09226 1.10324
 N104 N 0.44301 -0.04231 1.05640
 C105 C 0.52614 0.01862 0.96939
 N106 N 0.48237 0.05017 0.95324
 C107 C 0.50299 0.10268 0.90831
 C108 C 0.57170 0.12663 0.87637
 C109 C 0.61809 0.09541 0.89257
 C110 C 0.59589 0.04193 0.93902
 H111 H 0.52404 -0.17668 1.08457
 H112 H 0.37033 -0.09282 1.13102
 H113 H 0.46554 0.12541 0.89760
 H114 H 0.67209 0.11287 0.86977
 H115 H 0.57131 -0.08799 1.00037
 H116 H 0.63409 0.02074 0.95123
 C117 C 1.03290 0.52369 1.02215
 C118 C 1.07940 0.60269 1.03349
 C119 C 1.13147 0.62780 1.08126
 C120 C 1.13906 0.57481 1.11802
 C121 C 1.09258 0.49607 1.10395
 N122 N 1.04161 0.47314 1.05735
 C123 C 0.97544 0.49376 0.97252
 N124 N 0.94842 0.42060 0.95246
 C125 C 0.89590 0.38939 0.90704
 C126 C 0.86764 0.43276 0.87867
 C127 C 0.89378 0.50776 0.89930
 C128 C 0.94692 0.53815 0.94622
 H129 H 1.16615 0.68917 1.08885
 H130 H 1.09600 0.45242 1.13007
 H131 H 0.87689 0.33110 0.89286
 H132 H 0.87251 0.54289 0.87961
 H133 H 1.07706 0.64544 1.00556
 H134 H 0.96392 0.59530 0.96192
 C135 C 0.48640 0.50367 1.03126
 C136 C 0.53434 0.57371 1.06058
 C137 C 0.50460 0.59817 1.10639
 C138 C 0.42681 0.55397 1.12300
 C139 C 0.38011 0.48515 1.09175
 N140 N 0.41067 0.46205 1.04735
 C141 C 0.51578 0.47522 0.98233
 N142 N 0.46513 0.42358 0.94186
 C143 C 0.48853 0.39689 0.89493
 C144 C 0.56732 0.42297 0.88634
 C145 C 0.62015 0.47460 0.92839
 C146 C 0.59475 0.50022 0.97648
 H147 H 0.54259 0.65239 1.12834
 H148 H 0.31964 0.44955 1.10276
 H149 H 0.44575 0.35655 0.86383
 H150 H 0.68132 0.49507 0.92434
 H151 H 0.59393 0.61051 1.04790
 H152 H 0.63696 0.53859 1.00874
   
