data_POSCAR
  _audit_creation_date              2014-09-24
  _audit_creation_method            'ToBaCCo'
  _symmetry_space_group_name_H-M    'P1'
  _symmetry_Int_Tables_number       1
  _symmetry_cell_setting            triclinic
  loop_
  _symmetry_equiv_pos_as_xyz
 x,y,z
_cell_length_a 32.9511
_cell_length_b 32.0278
_cell_length_c 15.5140
_cell_angle_alpha 89.585500
_cell_angle_beta 89.600600
_cell_angle_gamma 89.264300
loop_
  _atom_site_label
  _atom_site_type_symbol
  _atom_site_fract_x
  _atom_site_fract_y
  _atom_site_fract_z
C1 C 0.80765 0.18758 0.40637
 C2 C 0.82739 0.17683 0.48330
 C3 C 0.81629 0.19396 0.56368
 C4 C 0.78473 0.22498 0.56525
 C5 C 0.76587 0.23798 0.48684
 C6 C 0.77727 0.21907 0.40758
 C7 C 0.76034 0.23448 0.33036
 C8 C 0.73295 0.26763 0.33045
 C9 C 0.72020 0.28601 0.40785
 C10 C 0.73584 0.27047 0.48721
 C11 C 0.77058 0.24275 0.64277
 C12 C 0.74009 0.27331 0.64341
 C13 C 0.72212 0.28786 0.56652
 C14 C 0.69205 0.32032 0.56617
 C15 C 0.67890 0.33618 0.48585
 C16 C 0.69305 0.32031 0.40755
 H17 H 0.76941 0.22248 0.26810
 H18 H 0.72208 0.27884 0.26873
 H19 H 0.78246 0.23312 0.70458
 H20 H 0.73188 0.28623 0.70534
 H21 H 0.85202 0.15433 0.47961
 H22 H 0.65493 0.35949 0.48222
 C23 C 0.28060 0.65332 0.42164
 C24 C 0.28697 0.63093 0.49819
 C25 C 0.27112 0.64456 0.57693
 C26 C 0.24718 0.68159 0.58004
 C27 C 0.23703 0.70240 0.50202
 C28 C 0.25339 0.68783 0.42231
 C29 C 0.24308 0.70892 0.34586
 C30 C 0.21661 0.74288 0.34694
 C31 C 0.20043 0.75814 0.42480
 C32 C 0.21133 0.73848 0.50374
 C33 C 0.23352 0.69862 0.65836
 C34 C 0.21114 0.73584 0.66039
 C35 C 0.19763 0.75543 0.58403
 C36 C 0.17339 0.79287 0.58379
 C37 C 0.16292 0.81087 0.50407
 C38 C 0.17483 0.79357 0.42532
 H39 H 0.25510 0.69943 0.28396
 H40 H 0.21008 0.75794 0.28585
 H41 H 0.24100 0.68405 0.71938
 H42 H 0.20565 0.74908 0.72301
 H43 H 0.30613 0.60312 0.49710
 H44 H 0.14271 0.83788 0.50317
 C45 C 0.32368 0.31124 -0.56412
 C46 C 0.33322 0.32620 -0.48151
 C47 C 0.31789 0.30840 -0.40586
 C48 C 0.29178 0.27404 -0.41135
 C49 C 0.27824 0.26053 -0.49325
 C50 C 0.29326 0.27993 -0.56989
 C51 C 0.27757 0.26691 -0.64940
 C52 C 0.24839 0.23613 -0.65409
 C53 C 0.23434 0.21517 -0.57998
 C54 C 0.24965 0.22743 -0.49829
 C55 C 0.27817 0.25355 -0.33682
 C56 C 0.25190 0.22019 -0.34177
 C57 C 0.23643 0.20693 -0.42142
 C58 C 0.20988 0.17247 -0.42687
 C59 C 0.19468 0.16177 -0.50812
 C60 C 0.20442 0.18354 -0.58449
 H61 H 0.28643 0.28059 -0.71010
 H62 H 0.23745 0.22926 -0.71766
 H63 H 0.28820 0.26275 -0.27352
 H64 H 0.24436 0.20511 -0.28150
 H65 H 0.35249 0.35295 -0.47412
 H66 H 0.17407 0.13595 -0.51173
 C67 C -0.31937 0.70107 -0.43764
 C68 C -0.32847 0.68571 -0.52008
 C69 C -0.30681 0.69739 -0.59462
 C70 C -0.27710 0.72876 -0.58844
 C71 C -0.26793 0.74585 -0.50689
 C72 C -0.28773 0.73075 -0.43098
 C73 C -0.27388 0.74446 -0.35040
 C74 C -0.24330 0.77372 -0.34450
 C75 C -0.22614 0.79169 -0.41873
 C76 C -0.23854 0.77799 -0.50106
 C77 C -0.25789 0.74513 -0.66239
 C78 C -0.23073 0.77783 -0.65709
 C79 C -0.22104 0.79570 -0.57739
 C80 C -0.19391 0.83003 -0.57110
 C81 C -0.18362 0.84318 -0.48777
 C82 C -0.19636 0.82254 -0.41294
 H83 H -0.28545 0.73197 -0.29039
 H84 H -0.23381 0.78262 -0.28069
 H85 H -0.26454 0.73386 -0.72619
 H86 H -0.21714 0.78807 -0.71691
 H87 H -0.35260 0.66361 -0.52706
 H88 H -0.16597 0.87080 -0.47797
 N89 N 0.06308 1.06932 -0.09199
 N90 N 0.09076 1.09802 -0.10730
 N91 N -0.01519 1.04195 -0.18453
 N92 N -0.04043 1.04513 -0.24975
 N93 N -0.02030 1.07345 -0.13158
 N94 N -0.04937 1.09901 -0.15976
 N95 N 0.06798 1.03777 -0.14480
 N96 N 0.09921 1.04401 -0.19655
 C97 C 0.11361 1.08133 -0.17150
 C98 C -0.06143 1.08079 -0.23394
 N99 N -0.02760 0.92532 -0.11160
 N100 N -0.05411 0.89772 -0.13825
 N101 N 0.06386 0.94826 -0.13299
 N102 N 0.09357 0.93490 -0.18348
 N103 N 0.05536 0.92006 -0.07379
 N104 N 0.07857 0.88638 -0.08427
 N105 N -0.01909 0.95220 -0.17326
 N106 N -0.03912 0.94334 -0.24381
 Mn107 Mn 0.02447 0.99511 -0.15943
 C108 C -0.06128 0.90987 -0.22056
 C109 C 0.10292 0.89663 -0.15173
 N110 N -0.03920 1.08047 0.04998
 N111 N -0.06029 1.11521 0.06316
 N112 N 0.03433 1.04794 0.15077
 N113 N 0.05302 1.05648 0.22301
 N114 N 0.04361 1.07522 0.09038
 N115 N 0.06918 1.10318 0.12061
 N116 N -0.04839 1.05225 0.10871
 N117 N -0.07642 1.06699 0.16179
 Mn118 Mn 0.01193 1.07504 -0.02102
 C119 C -0.08426 1.10586 0.13137
 C120 C 0.07515 1.09037 0.20335
 N121 N 0.03605 0.92769 0.10835
 N122 N 0.06543 0.90271 0.13636
 N123 N -0.05267 0.96253 0.12112
 N124 N -0.08231 0.95489 0.17628
 N125 N -0.04719 0.93068 0.06928
 N126 N -0.07302 0.90064 0.08851
 N127 N 0.03040 0.95905 0.16137
 N128 N 0.05581 0.95656 0.22633
 Mn129 Mn 0.00417 0.92554 -0.00176
 Mn130 Mn -0.00926 1.00540 0.13570
 Cl131 Cl 0.00783 1.00028 -0.01168
 C132 C 0.07727 0.92131 0.21020
 C133 C -0.09536 0.91656 0.15433
 N134 N 0.44997 0.42775 -0.06578
 N135 N 0.42717 0.39437 -0.07594
 N136 N 0.51992 0.46202 -0.17755
 N137 N 0.54322 0.46048 -0.24678
 N138 N 0.53119 0.43336 -0.12127
 N139 N 0.56255 0.41147 -0.15099
 N140 N 0.43888 0.45732 -0.12028
 N141 N 0.40814 0.44504 -0.16725
 C142 C 0.40051 0.40607 -0.13804
 C143 C 0.56944 0.42881 -0.22966
 N144 N 0.52082 0.58147 -0.12487
 N145 N 0.54858 0.60705 -0.15664
 N146 N 0.43261 0.54708 -0.12182
 N147 N 0.39937 0.55585 -0.16579
 N148 N 0.43976 0.57677 -0.06626
 N149 N 0.41175 0.60647 -0.07131
 N150 N 0.51351 0.55149 -0.17968
 N151 N 0.53572 0.55580 -0.24991
 Mn152 Mn 0.47608 0.50445 -0.15031
 C153 C 0.55728 0.59051 -0.23513
 C154 C 0.38627 0.59261 -0.13218
 N155 N 0.55824 0.43418 0.05623
 N156 N 0.58392 0.40276 0.07028
 N157 N 0.48556 0.46051 0.16761
 N158 N 0.46844 0.45302 0.24292
 N159 N 0.47715 0.43089 0.11256
 N160 N 0.45373 0.40247 0.14918
 N161 N 0.56592 0.46519 0.10866
 N162 N 0.59697 0.45557 0.15845
 Mn163 Mn 0.50408 0.43110 -0.00458
 C164 C 0.60852 0.41697 0.13282
 C165 C 0.44840 0.41715 0.23037
 N166 N 0.46665 0.57779 0.10970
 N167 N 0.43719 0.60123 0.14308
 N168 N 0.55960 0.55559 0.10684
 N169 N 0.58787 0.57079 0.15740
 N170 N 0.54744 0.58437 0.05150
 N171 N 0.56687 0.61952 0.06413
 N172 N 0.47917 0.54982 0.16611
 N173 N 0.45923 0.55370 0.23947
 Mn174 Mn 0.49359 0.58042 -0.00756
 Mn175 Mn 0.52277 0.50778 0.13740
 Cl176 Cl 0.49919 0.50587 -0.00624
 C177 C 0.43301 0.58554 0.22417
 C178 C 0.59285 0.61034 0.12842
 C179 C 0.34414 0.32776 0.36206
 C180 C 0.37922 0.34859 0.36590
 C181 C 0.39881 0.36704 0.28929
 C182 C 0.42703 0.39591 0.30074
 H183 H 0.39509 0.35214 0.42603
 H184 H 0.38960 0.35828 0.22504
 H185 H 0.33255 0.32307 0.29822
 H186 H 0.43405 0.40592 0.36554
 C187 C -0.17842 0.85198 0.35525
 C188 C -0.14745 0.87904 0.35866
 C189 C -0.13380 0.90578 0.28707
 C190 C -0.12235 0.89131 0.20985
 H191 H -0.13063 0.88405 0.41684
 H192 H -0.12538 0.93708 0.30524
 H193 H -0.19229 0.84819 0.29303
 H194 H -0.12781 0.85911 0.19303
 C195 C 0.68599 0.67605 0.32765
 C196 C 0.64902 0.66340 0.30543
 C197 C 0.64224 0.63560 0.23249
 C198 C 0.61090 0.64299 0.18075
 H199 H 0.62245 0.67396 0.34114
 H200 H 0.65991 0.60693 0.22742
 H201 H 0.71091 0.67020 0.28327
 H202 H 0.59496 0.67278 0.18381
 C203 C 0.18472 1.17238 0.33736
 C204 C 0.14748 1.15560 0.33644
 C205 C 0.12815 1.13842 0.25880
 C206 C 0.09689 1.11276 0.27081
 H207 H 0.12992 1.15380 0.39556
 H208 H 0.14017 1.14459 0.19486
 H209 H 0.19923 1.17742 0.27566
 H210 H 0.08750 1.10531 0.33626
 C211 C 0.67285 0.33476 -0.35712
 C212 C 0.65365 0.37191 -0.35196
 C213 C 0.62566 0.38296 -0.28100
 C214 C 0.60160 0.41656 -0.29053
 H215 H 0.65714 0.39484 -0.40299
 H216 H 0.62272 0.36269 -0.22512
 H217 H 0.67188 0.31460 -0.30091
 H218 H 0.60426 0.43557 -0.34839
 C219 C 0.15897 0.81545 -0.34365
 C220 C 0.14535 0.79983 -0.26820
 C221 C 0.12487 0.82681 -0.20263
 C222 C 0.13104 0.86809 -0.19701
 H223 H 0.14279 0.76647 -0.25922
 H224 H 0.10189 0.81250 -0.16228
 H225 H 0.15284 0.84830 -0.35529
 H226 H 0.15430 0.88277 -0.23579
 C227 C 0.28241 0.61903 -0.34711
 C228 C 0.30634 0.63380 -0.28578
 C229 C 0.32961 0.60483 -0.23052
 C230 C 0.35450 0.61918 -0.17062
 H231 H 0.31279 0.66690 -0.28367
 H232 H 0.32949 0.57173 -0.24482
 H233 H 0.27850 0.58555 -0.35182
 H234 H 0.35413 0.65211 -0.15495
 C235 C -0.16171 1.18127 -0.36140
 C236 C -0.14268 1.14388 -0.35494
 C237 C -0.11386 1.13229 -0.28569
 C238 C -0.09349 1.09595 -0.29241
 H239 H -0.14803 1.12027 -0.40297
 H240 H -0.10796 1.15353 -0.23336
 H241 H -0.15935 1.20222 -0.30740
 H242 H -0.09963 1.07587 -0.34667
 C243 C 0.65709 0.68813 -0.36495
 C244 C 0.63675 0.65202 -0.36170
 C245 C 0.60883 0.64060 -0.29059
 C246 C 0.58722 0.60577 -0.29811
 H247 H 0.64086 0.62917 -0.41211
 H248 H 0.60513 0.66057 -0.23493
 H249 H 0.65486 0.70798 -0.30899
 H250 H 0.59111 0.58689 -0.35542
 C251 C 0.19607 1.15017 -0.35310
 C252 C 0.18550 1.10976 -0.35595
 C253 C 0.16369 1.08692 -0.28732
 C254 C 0.14410 1.10479 -0.22093
 H255 H 0.19241 1.09151 -0.41279
 H256 H 0.15967 1.05390 -0.29876
 H257 H 0.19370 1.16592 -0.29212
 H258 H 0.14684 1.13773 -0.20785
 C259 C 0.33092 0.32663 -0.32254
 C260 C 0.32664 0.36780 -0.30932
 C261 C 0.34735 0.39233 -0.24260
 C262 C 0.37316 0.37731 -0.18303
 H263 H 0.30979 0.38611 -0.35637
 H264 H 0.34370 0.42587 -0.24927
 H265 H 0.34658 0.30673 -0.27667
 H266 H 0.37708 0.34410 -0.17256
 C267 C -0.17687 0.83447 -0.33068
 C268 C -0.13676 0.84033 -0.32981
 C269 C -0.11593 0.86206 -0.26052
 C270 C -0.08502 0.88654 -0.28248
 H271 H -0.11905 0.83313 -0.38721
 H272 H -0.12655 0.85983 -0.19440
 H273 H -0.19519 0.84142 -0.27423
 H274 H -0.07724 0.89081 -0.35002
 C275 C 0.30467 0.64125 0.34382
 C276 C 0.34440 0.63273 0.35018
 C277 C 0.36983 0.61988 0.27623
 C278 C 0.40580 0.60178 0.29154
 H279 H 0.35879 0.63467 0.41269
 H280 H 0.35883 0.62359 0.21091
 H281 H 0.29025 0.63993 0.28144
 H282 H 0.41490 0.59588 0.35761
 C283 C -0.18226 1.16562 0.33057
 C284 C -0.14409 1.15466 0.31098
 C285 C -0.13444 1.12745 0.23827
 C286 C -0.10504 1.13764 0.18313
 H287 H -0.11898 1.16619 0.34840
 H288 H -0.14831 1.09697 0.23595
 H289 H -0.20581 1.15861 0.28465
 H290 H -0.09277 1.16889 0.18313
 C291 C 0.67744 0.33995 0.32686
 C292 C 0.67873 0.38152 0.31625
 C293 C 0.65741 0.40593 0.24874
 C294 C 0.63683 0.39016 0.18243
 H295 H 0.69366 0.39979 0.36501
 H296 H 0.65650 0.43937 0.25886
 H297 H 0.66337 0.32032 0.27954
 H298 H 0.63777 0.35712 0.16868
 C299 C 0.15699 0.81082 0.34475
 C300 C 0.15041 0.85164 0.33337
 C301 C 0.12453 0.86733 0.26334
 C302 C 0.10875 0.90571 0.26856
 H303 H 0.16135 0.87355 0.38056
 H304 H 0.11538 0.84652 0.21242
 H305 H 0.14652 0.78917 0.29660
 H306 H 0.11684 0.92558 0.32191
   
