data_POSCAR
  _audit_creation_date              2014-09-24
  _audit_creation_method            'ToBaCCo'
  _symmetry_space_group_name_H-M    'P1'
  _symmetry_Int_Tables_number       1
  _symmetry_cell_setting            triclinic
  loop_
  _symmetry_equiv_pos_as_xyz
 x,y,z
_cell_length_a 40.7572
_cell_length_b 40.8829
_cell_length_c 13.3281
_cell_angle_alpha 89.364600
_cell_angle_beta 90.827000
_cell_angle_gamma 121.052500
loop_
  _atom_site_label
  _atom_site_type_symbol
  _atom_site_fract_x
  _atom_site_fract_y
  _atom_site_fract_z
C1 C 0.25216 0.53082 0.52285
 C2 C 0.25446 0.53291 0.42151
 C3 C 0.22514 0.53387 0.35761
 C4 C 0.28527 0.53230 0.36650
 C5 C 0.27907 0.52463 0.58423
 C6 C 0.22189 0.53345 0.57551
 C7 C 0.20223 0.50271 0.29478
 C8 C 0.17909 0.50533 0.22111
 C9 C 0.17875 0.53916 0.20962
 C10 C 0.20001 0.56966 0.27564
 C11 C 0.22315 0.56702 0.34976
 C12 C 0.28400 0.49779 0.35378
 C13 C 0.30965 0.49589 0.28982
 C14 C 0.33699 0.52854 0.23672
 C15 C 0.33839 0.56315 0.25000
 C16 C 0.31247 0.56498 0.31411
 C17 C 0.31332 0.55565 0.62077
 C18 C 0.33864 0.54937 0.67788
 C19 C 0.33057 0.51217 0.69727
 C20 C 0.29622 0.48104 0.66078
 C21 C 0.27046 0.48730 0.60549
 C22 C 0.23166 0.56520 0.63567
 C23 C 0.20309 0.56873 0.68195
 C24 C 0.16446 0.54061 0.66901
 C25 C 0.15463 0.50869 0.60892
 C26 C 0.18319 0.50514 0.56271
 H27 H 0.20361 0.47698 0.30001
 H28 H 0.16308 0.48178 0.16976
 H29 H 0.20030 0.59617 0.26626
 H30 H 0.24099 0.59139 0.39711
 H31 H 0.26237 0.47207 0.39088
 H32 H 0.30785 0.46870 0.28154
 H33 H 0.31315 0.59168 0.32171
 H34 H 0.32044 0.58462 0.60492
 H35 H 0.36486 0.57358 0.70637
 H36 H 0.28926 0.45206 0.67536
 H37 H 0.24398 0.46305 0.57813
 H38 H 0.26134 0.58747 0.64580
 H39 H 0.21103 0.59329 0.72868
 H40 H 0.12500 0.48636 0.59858
 H41 H 0.17518 0.48038 0.51675
 H42 H 0.35944 0.58857 0.21063
 C43 C 0.46363 -0.27607 0.53365
 C44 C 0.46271 -0.27968 0.43174
 C45 C 0.47305 -0.30563 0.38158
 C46 C 0.45633 -0.25398 0.36503
 C47 C 0.47210 -0.23928 0.57908
 C48 C 0.46260 -0.30597 0.60132
 C49 C 0.50603 -0.30636 0.41086
 C50 C 0.51748 -0.32808 0.35750
 C51 C 0.49697 -0.34840 0.27220
 C52 C 0.46413 -0.34752 0.24249
 C53 C 0.45230 -0.32645 0.29673
 C54 C 0.48238 -0.23380 0.28823
 C55 C 0.47837 -0.20771 0.22947
 C56 C 0.44804 -0.20147 0.24556
 C57 C 0.42057 -0.22321 0.31801
 C58 C 0.42480 -0.24923 0.37801
 C59 C 0.44966 -0.23861 0.65692
 C60 C 0.45923 -0.20400 0.70244
 C61 C 0.49178 -0.16954 0.67154
 C62 C 0.51413 -0.17031 0.59405
 C63 C 0.50451 -0.20479 0.54841
 C64 C 0.43736 -0.34502 0.58160
 C65 C 0.44264 -0.37265 0.62931
 C66 C 0.47239 -0.36176 0.69939
 C67 C 0.49454 -0.32339 0.72793
 C68 C 0.48967 -0.29563 0.67945
 H69 H 0.52334 -0.28960 0.47398
 H70 H 0.54254 -0.32879 0.38207
 H71 H 0.44721 -0.36363 0.17813
 H72 H 0.42705 -0.32610 0.27194
 H73 H 0.50677 -0.23708 0.27642
 H74 H 0.49986 -0.19112 0.17377
 H75 H 0.40407 -0.26498 0.43602
 H76 H 0.42486 -0.26487 0.68252
 H77 H 0.44151 -0.20428 0.76255
 H78 H 0.53938 -0.14415 0.56991
 H79 H 0.52285 -0.20469 0.49026
 H80 H 0.41561 -0.35386 0.52344
 H81 H 0.42582 -0.40205 0.60472
 H82 H 0.51819 -0.31440 0.78043
 H83 H 0.50932 -0.26587 0.69702
 H84 H 0.39727 -0.21842 0.33188
 C85 C 1.25912 0.75098 0.56949
 C86 C 1.26621 0.75445 0.46844
 C87 C 1.29912 0.78941 0.42384
 C88 C 1.23679 0.72742 0.39517
 C89 C 1.21905 0.72651 0.60548
 C90 C 1.28810 0.77838 0.64308
 C91 C 1.30384 0.82532 0.44345
 C92 C 1.32758 0.85676 0.38337
 C93 C 1.34652 0.85273 0.30204
 C94 C 1.34393 0.81769 0.28568
 C95 C 1.32040 0.78617 0.34650
 C96 C 1.22579 0.74154 0.31239
 C97 C 1.19599 0.71664 0.24836
 C98 C 1.17648 0.67724 0.26678
 C99 C 1.18809 0.66300 0.34696
 C100 C 1.21835 0.68776 0.40989
 C101 C 1.20930 0.69813 0.67920
 C102 C 1.17143 0.67650 0.71373
 C103 C 1.14343 0.68359 0.67537
 C104 C 1.15334 0.71213 0.60311
 C105 C 1.19078 0.73357 0.56895
 C106 C 1.32722 0.79057 0.63520
 C107 C 1.35498 0.82375 0.68427
 C108 C 1.34381 0.84419 0.74431
 C109 C 1.30494 0.82910 0.76334
 C110 C 1.27723 0.79645 0.71324
 H111 H 1.28687 0.82840 0.50014
 H112 H 1.32879 0.88353 0.39548
 H113 H 1.35799 0.81409 0.22203
 H114 H 1.31669 0.75864 0.32897
 H115 H 1.23933 0.77196 0.29924
 H116 H 1.18722 0.72819 0.18723
 H117 H 1.22659 0.67609 0.47192
 H118 H 1.23087 0.69272 0.70941
 H119 H 1.16410 0.65457 0.77014
 H120 H 1.13198 0.71803 0.57363
 H121 H 1.19787 0.75601 0.51430
 H122 H 1.33639 0.77652 0.58400
 H123 H 1.38497 0.83527 0.66814
 H124 H 1.29591 0.84485 0.80864
 H125 H 1.24745 0.78769 0.72241
 H126 H 1.17311 0.63258 0.36182
 C127 C 0.74081 0.49867 0.55765
 C128 C 0.74127 0.49581 0.45605
 C129 C 0.77471 0.49868 0.40489
 C130 C 0.70732 0.48659 0.39262
 C131 C 0.70572 0.49067 0.61122
 C132 C 0.77291 0.50331 0.62279
 C133 C 0.81184 0.53031 0.41950
 C134 C 0.84347 0.53053 0.37934
 C135 C 0.83815 0.49928 0.32307
 C136 C 0.80113 0.46837 0.30620
 C137 C 0.76961 0.46799 0.34671
 C138 C 0.70740 0.51535 0.33439
 C139 C 0.67506 0.50763 0.27782
 C140 C 0.64234 0.47065 0.27632
 C141 C 0.64297 0.44147 0.33093
 C142 C 0.67504 0.44946 0.38992
 C143 C 0.69124 0.46221 0.68563
 C144 C 0.65737 0.45226 0.73401
 C145 C 0.63723 0.47036 0.70873
 C146 C 0.65184 0.49968 0.63693
 C147 C 0.68637 0.51020 0.58911
 C148 C 0.78371 0.47573 0.62281
 C149 C 0.80904 0.47656 0.69590
 C150 C 0.82358 0.50466 0.77028
 C151 C 0.81412 0.53307 0.76832
 C152 C 0.78889 0.53239 0.69497
 H153 H 0.81630 0.55444 0.46336
 H154 H 0.87185 0.55508 0.39142
 H155 H 0.79675 0.44445 0.26146
 H156 H 0.74132 0.44325 0.33484
 H157 H 0.73218 0.54403 0.33494
 H158 H 0.67556 0.53061 0.23538
 H159 H 0.67471 0.42682 0.43374
 H160 H 0.70554 0.44674 0.70419
 H161 H 0.64595 0.42923 0.78858
 H162 H 0.63620 0.51363 0.61638
 H163 H 0.69753 0.53292 0.53385
 H164 H 0.77087 0.45237 0.56988
 H165 H 0.81543 0.45391 0.69819
 H166 H 0.82452 0.55445 0.82678
 H167 H 0.78041 0.55350 0.69717
 H168 H 0.61828 0.41282 0.32999
 C169 C 0.50000 0.24165 0.56484
 C170 C 0.50048 0.24331 0.46288
 C171 C 0.49875 0.27411 0.40957
 C172 C 0.50269 0.21433 0.40217
 C173 C 0.50939 0.21564 0.61946
 C174 C 0.49042 0.26588 0.62552
 C175 C 0.46526 0.26651 0.35840
 C176 C 0.46288 0.29638 0.31424
 C177 C 0.49446 0.33380 0.31846
 C178 C 0.52811 0.34114 0.36757
 C179 C 0.53012 0.31156 0.41434
 C180 C 0.47457 0.17570 0.41356
 C181 C 0.47822 0.14771 0.36551
 C182 C 0.50994 0.15764 0.30555
 C183 C 0.53776 0.19632 0.29122
 C184 C 0.53394 0.22462 0.33893
 C185 C 0.54336 0.21632 0.59808
 C186 C 0.55286 0.19266 0.65036
 C187 C 0.52910 0.16863 0.72632
 C188 C 0.49503 0.16752 0.74802
 C189 C 0.48509 0.19086 0.69440
 C190 C 0.51519 0.28907 0.70253
 C191 C 0.50471 0.30963 0.76433
 C192 C 0.46938 0.30714 0.74966
 C193 C 0.44497 0.28462 0.67191
 C194 C 0.45529 0.26397 0.61060
 H195 H 0.44084 0.23765 0.35458
 H196 H 0.43698 0.29024 0.27445
 H197 H 0.55261 0.36990 0.37016
 H198 H 0.55609 0.31773 0.45392
 H199 H 0.45019 0.16725 0.46149
 H200 H 0.45643 0.11796 0.37600
 H201 H 0.55595 0.25435 0.32954
 H202 H 0.56307 0.23596 0.54274
 H203 H 0.57992 0.19468 0.63551
 H204 H 0.47705 0.14986 0.80884
 H205 H 0.45890 0.19013 0.71242
 H206 H 0.54225 0.29065 0.71586
 H207 H 0.52349 0.32638 0.82553
 H208 H 0.41719 0.28174 0.66148
 H209 H 0.43523 0.24539 0.55385
 H210 H 0.56226 0.20453 0.24412
 C211 C 0.79085 0.24304 0.56720
 C212 C 0.78941 0.24079 0.46526
 C213 C 0.75562 0.20899 0.41441
 C214 C 0.81699 0.27376 0.40187
 C215 C 0.81933 0.27822 0.61990
 C216 C 0.75993 0.21359 0.63194
 C217 C 0.75785 0.17943 0.36877
 C218 C 0.72569 0.14979 0.31986
 C219 C 0.69147 0.15022 0.31409
 C220 C 0.68949 0.17986 0.35931
 C221 C 0.72109 0.20871 0.41056
 C222 C 0.85690 0.29141 0.41618
 C223 C 0.88201 0.32584 0.36704
 C224 C 0.86747 0.34275 0.30199
 C225 C 0.82801 0.32426 0.28420
 C226 C 0.80299 0.29014 0.33331
 C227 C 0.81912 0.31219 0.60524
 C228 C 0.83906 0.34254 0.67142
 C229 C 0.85898 0.33901 0.75301
 C230 C 0.86143 0.30627 0.76394
 C231 C 0.84161 0.27590 0.69760
 C232 C 0.74104 0.22480 0.69833
 C233 C 0.71280 0.19832 0.76221
 C234 C 0.70265 0.16008 0.76107
 C235 C 0.72154 0.14856 0.69533
 C236 C 0.75018 0.17523 0.63160
 H237 H 0.78438 0.17934 0.37130
 H238 H 0.72781 0.12729 0.28424
 H239 H 0.66329 0.18052 0.35473
 H240 H 0.71896 0.23133 0.44558
 H241 H 0.86846 0.27918 0.46786
 H242 H 0.91252 0.33939 0.38082
 H243 H 0.77254 0.27754 0.32072
 H244 H 0.80121 0.31410 0.54748
 H245 H 0.83631 0.36745 0.66392
 H246 H 0.87615 0.30306 0.82817
 H247 H 0.84153 0.24966 0.71070
 H248 H 0.74794 0.25416 0.70018
 H249 H 0.69824 0.20750 0.81160
 H250 H 0.71405 0.11903 0.69278
 H251 H 0.76481 0.16604 0.58258
 H252 H 0.81652 0.33683 0.23339
 O253 O 0.98597 0.44804 0.19997
 O254 O 0.92984 0.44466 0.15442
 C255 C 0.94904 0.43252 0.20452
 O256 O 1.06711 0.61820 0.14003
 O257 O 1.09843 0.61268 0.00554
 C258 C 1.09739 0.62964 0.08605
 O259 O 0.96667 0.55390 0.22779
 O260 O 0.92069 0.49542 0.16750
 C261 C 0.93230 0.52414 0.22740
 O262 O 1.08595 0.51416 0.10026
 O263 O 1.10684 0.56231 -0.01692
 C264 C 1.11257 0.54154 0.04611
 Zr265 Zr 1.02602 0.49357 0.10697
 O266 O 1.05002 0.50317 0.25335
 O267 O 1.03277 0.44621 0.08631
 Zr268 Zr 1.01249 0.56817 0.12829
 O269 O 1.03518 0.57828 0.27618
 O270 O 1.00204 0.61367 0.13884
 O271 O 0.99017 0.51089 0.16654
 O272 O 1.05225 0.55203 0.10581
 O273 O 1.03884 0.49136 -0.22230
 O274 O 1.08473 0.55104 -0.16810
 C275 C 1.07322 0.52104 -0.22352
 O276 O 0.91824 0.53067 -0.11561
 O277 O 0.89797 0.48496 0.00790
 C278 C 0.89168 0.50380 -0.06050
 O279 O 1.01860 0.60167 -0.19554
 O280 O 1.07496 0.60435 -0.15757
 C281 C 1.05521 0.61665 -0.20440
 O282 O 0.93633 0.42922 -0.13949
 O283 O 0.90680 0.43593 -0.00265
 C284 C 0.90722 0.41747 -0.07989
 Zr285 Zr 0.99176 0.47967 -0.13160
 O286 O 0.97223 0.47606 -0.28106
 O287 O 0.99577 0.43050 -0.14907
 Zr288 Zr 0.97865 0.55400 -0.11122
 O289 O 0.96171 0.54658 -0.26420
 O290 O 0.96560 0.59757 -0.09785
 Zr291 Zr 0.94989 0.48915 0.04829
 Zr292 Zr 1.05528 0.55927 -0.05143
 O293 O 1.01420 0.53657 -0.16784
 O294 O 0.95093 0.49468 -0.10918
 O295 O 1.04136 0.50193 -0.04320
 O296 O 0.96406 0.54636 0.03825
 O297 O 0.97928 0.46090 0.01489
 O298 O 1.02633 0.58818 -0.01922
 H299 H 1.07565 0.56473 0.14837
 H300 H 0.94497 0.55340 0.05596
 H301 H 1.02304 0.54402 -0.23780
 H302 H 0.96669 0.43288 0.02375
 H303 H 1.01934 0.63390 0.09148
 H304 H 0.98733 0.61899 -0.06194
 H305 H 0.94265 0.51916 -0.27405
 H306 H 0.97171 0.45365 -0.31054
 H307 H 1.01607 0.43329 -0.10209
 H308 H 1.04417 0.44338 0.14958
 H309 H 1.03196 0.50481 0.29881
 H310 H 1.02046 0.55417 0.31440
 O311 O 0.56550 0.51606 0.16141
 O312 O 0.54886 0.45764 0.09646
 C313 C 0.57025 0.48728 0.15263
 O314 O 0.39681 0.46451 0.15687
 O315 O 0.41166 0.51338 0.04552
 C316 C 0.39216 0.49116 0.11993
 O317 O 0.44311 0.40755 0.20511
 O318 O 0.49077 0.40677 0.11801
 C319 C 0.46634 0.39527 0.19014
 O320 O 0.52127 0.57596 0.12366
 O321 O 0.47175 0.56623 0.01947
 C322 C 0.49714 0.58519 0.08801
 Zr323 Zr 0.52587 0.52739 0.09085
 O324 O 0.53617 0.54306 0.24379
 O325 O 0.57977 0.57447 0.05134
 Zr326 Zr 0.43743 0.44960 0.12418
 O327 O 0.44097 0.46325 0.27832
 O328 O 0.38352 0.39944 0.14688
 O329 O 0.49585 0.47065 0.14053
 O330 O 0.46865 0.50831 0.11358
 O331 O 0.51691 0.55311 -0.23031
 O332 O 0.46987 0.55642 -0.14643
 C333 C 0.49581 0.56773 -0.21584
 O334 O 0.43073 0.38126 -0.14515
 O335 O 0.48277 0.39195 -0.04998
 C336 C 0.45359 0.37083 -0.10790
 O337 O 0.38793 0.44334 -0.18543
 O338 O 0.40857 0.50339 -0.12617
 C339 C 0.38541 0.47371 -0.17882
 O340 O 0.55108 0.48388 -0.20490
 O341 O 0.53931 0.44034 -0.07980
 C342 C 0.55425 0.45652 -0.16434
 Zr343 Zr 0.51928 0.50885 -0.15555
 O344 O 0.51714 0.50380 -0.31351
 O345 O 0.57705 0.55394 -0.16599
 Zr346 Zr 0.43011 0.43248 -0.12468
 O347 O 0.42803 0.42524 -0.28228
 O348 O 0.37360 0.38497 -0.11448
 Zr349 Zr 0.50065 0.44686 0.00625
 Zr350 Zr 0.45540 0.51243 -0.03769
 O351 O 0.46127 0.48872 -0.17093
 O352 O 0.48714 0.44949 -0.14607
 O353 O 0.51570 0.54383 -0.04815
 O354 O 0.44050 0.41649 0.01500
 O355 O 0.54238 0.50423 -0.02171
 O356 O 0.41337 0.45480 -0.01032
 H357 H 0.46266 0.52108 0.16685
 H358 H 0.42665 0.38892 0.03168
 H359 H 0.45322 0.49468 -0.23571
 H360 H 0.56951 0.51115 -0.02439
 H361 H 0.36626 0.39835 0.09232
 H362 H 0.37201 0.37060 -0.05282
 H363 H 0.44602 0.41674 -0.29933
 H364 H 0.49887 0.47666 -0.32892
 H365 H 0.57835 0.57744 -0.14226
 H366 H 0.59150 0.58830 0.11468
 H367 H 0.51151 0.52747 0.27847
 H368 H 0.46424 0.46454 0.30629
 O369 O 0.52017 -0.07345 0.18674
 O370 O 0.46701 -0.10272 0.08379
 C371 C 0.48904 -0.10316 0.15499
 O372 O 0.50305 0.06518 0.18360
 O373 O 0.56158 0.09872 0.10775
 C374 C 0.53495 0.09657 0.16509
 O375 O 0.42738 -0.03764 0.17158
 O376 O 0.42266 -0.08512 0.07126
 C377 C 0.40922 -0.07226 0.13759
 O378 O 0.60045 0.02773 0.20004
 O379 O 0.60784 0.08018 0.11540
 C380 C 0.61863 0.06418 0.18173
 Zr381 Zr 0.54758 -0.01642 0.13892
 O382 O 0.54561 -0.01720 0.29755
 O383 O 0.58586 -0.03691 0.14229
 Zr384 Zr 0.48131 0.00943 0.13073
 O385 O 0.47590 0.00289 0.28879
 O386 O 0.43963 0.02541 0.11914
 O387 O 0.48892 -0.03679 0.14734
 O388 O 0.53832 0.02811 0.16025
 O389 O 0.60742 0.03609 -0.15517
 O390 O 0.61188 0.08437 -0.05835
 C391 C 0.62479 0.07137 -0.12641
 O392 O 0.43890 -0.02659 -0.19067
 O393 O 0.42848 -0.08013 -0.10498
 C394 C 0.41978 -0.06301 -0.17406
 O395 O 0.51463 0.07704 -0.15493
 O396 O 0.56804 0.10296 -0.05350
 C397 C 0.54630 0.10587 -0.11936
 O398 O 0.52666 -0.06598 -0.18069
 O399 O 0.47089 -0.09898 -0.09200
 C400 C 0.49432 -0.09694 -0.15949
 Zr401 Zr 0.55358 -0.01086 -0.11295
 O402 O 0.56108 -0.00826 -0.27010
 O403 O 0.59162 -0.03145 -0.09684
 Zr404 Zr 0.48864 0.01733 -0.12101
 O405 O 0.49601 0.02560 -0.27806
 O406 O 0.44522 0.03111 -0.12664
 Zr407 Zr 0.47564 -0.05488 -0.00285
 Zr408 Zr 0.55963 0.05436 0.02061
 O409 O 0.54582 0.03536 -0.12878
 O410 O 0.49657 -0.02867 -0.14379
 O411 O 0.58105 0.01719 0.02000
 O412 O 0.45572 -0.01659 -0.00326
 O413 O 0.53063 -0.04762 0.00721
 O414 O 0.50494 0.04784 0.01181
 H415 H 0.54961 0.04358 0.22155
 H416 H 0.42790 -0.02649 -0.00972
 H417 H 0.55926 0.05360 -0.18424
 H418 H 0.53307 -0.07050 0.00561
 H419 H 0.43115 0.02550 0.18845
 H420 H 0.44955 0.04786 -0.06874
 H421 H 0.49266 0.00182 -0.30675
 H422 H 0.55226 0.00846 -0.29766
 H423 H 0.61595 -0.01072 -0.06791
 H424 H 0.60909 -0.01832 0.10545
 H425 H 0.51843 -0.02857 0.31625
 H426 H 0.49929 0.02387 0.32066
 N427 N 1.16380 0.54407 0.13282
 N428 N 1.15103 0.55019 0.05547
 N429 N 0.50754 0.62761 0.22151
 N430 N 0.49388 0.61457 0.13484
 N431 N 0.36033 -0.12076 0.23274
 N432 N 0.37042 -0.09619 0.16686
 N433 N 0.86920 0.49924 0.27500
 N434 N 0.90421 0.52475 0.28856
 N435 N 0.49434 0.36399 0.26452
 N436 N 0.46471 0.36666 0.25525
 N437 N 0.65896 0.12248 0.25799
 N438 N 0.65151 0.08870 0.24158
 N439 N 0.54285 0.15370 -0.21171
 N440 N 0.55944 0.14390 -0.15203
 N441 N 0.60295 0.45626 -0.25526
 N442 N 0.57050 0.43912 -0.22059
 N443 N 0.86783 0.36197 -0.17122
 N444 N 0.87316 0.38179 -0.09722
 N445 N 0.50332 -0.13384 -0.28043
 N446 N 0.48343 -0.13159 -0.21123
 N447 N 0.35791 0.50721 -0.24619
 N448 N 0.35630 0.47537 -0.23603
 N449 N 1.10800 0.66446 -0.29374
 N450 N 1.07396 0.64857 -0.27082
 N451 N 0.84009 0.50037 -0.15011
 N452 N 0.85289 0.49414 -0.07281
 N453 N 0.45674 0.32128 -0.18418
 N454 N 0.44277 0.33195 -0.12046
 N455 N 0.67135 0.13339 -0.17784
 N456 N 0.65834 0.09768 -0.18038
 N457 N 1.13611 0.54385 -0.27719
 N458 N 1.10056 0.51911 -0.28481
 N459 N 0.48639 0.61612 -0.28586
 N460 N 0.50288 0.59800 -0.28322
 N461 N 0.36733 -0.11934 -0.24120
 N462 N 0.38701 -0.08430 -0.23697
 N463 N 0.44893 -0.16925 0.19952
 N464 N 0.48108 -0.13821 0.19954
 N465 N 0.36460 0.52707 0.17438
 N466 N 0.36441 0.49599 0.16971
 N467 N 1.14299 0.65114 0.21093
 N468 N 1.13274 0.65884 0.12758
 N469 N 0.51177 0.12728 0.25919
 N470 N 0.53960 0.13062 0.20837
 N471 N 0.60819 0.46309 0.22298
 N472 N 0.60235 0.49039 0.20629
 N473 N 0.89159 0.37827 0.25147
 N474 N 0.92782 0.39832 0.26252
   
