data_POSCAR
  _audit_creation_date              2014-09-24
  _audit_creation_method            'ToBaCCo'
  _symmetry_space_group_name_H-M    'P1'
  _symmetry_Int_Tables_number       1
  _symmetry_cell_setting            triclinic
  loop_
  _symmetry_equiv_pos_as_xyz
 x,y,z
_cell_length_a 23.2884
_cell_length_b 25.3430
_cell_length_c 23.2886
_cell_angle_alpha 90.000000
_cell_angle_beta 90.000900
_cell_angle_gamma 90.000000
loop_
  _atom_site_label
  _atom_site_type_symbol
  _atom_site_fract_x
  _atom_site_fract_y
  _atom_site_fract_z
C1 C 0.25000 0.25022 0.25000
 C2 C 0.75000 0.75000 0.25000
 C3 C 0.75000 0.24979 0.75000
 C4 C 0.25000 0.75000 0.75000
 C5 C 0.08075 0.07940 0.02003
 H6 H 0.08196 0.08123 -0.02637
 C7 C 0.11432 0.11395 0.05247
 H8 H 0.14149 0.14213 0.03051
 C9 C 0.04296 0.04075 0.10459
 H10 H 0.01438 0.01281 0.12479
 C11 C 0.07575 0.07459 0.13872
 H12 H 0.07237 0.07172 0.18498
 N13 N 0.04649 0.04333 0.04636
 C14 C 0.02197 -0.08100 -0.08094
 H15 H -0.02444 -0.08283 -0.08196
 C16 C 0.05427 -0.11526 -0.11501
 H17 H 0.03219 -0.14326 -0.14230
 C18 C 0.10668 -0.04256 -0.04326
 H19 H 0.12700 -0.01477 -0.01459
 C20 C 0.14068 -0.07613 -0.07653
 H21 H 0.18695 -0.07324 -0.07337
 Zn22 Zn 0.00124 -0.00092 -0.00099
 N23 N 0.04844 -0.04515 -0.04652
 C24 C -0.04107 0.04109 -0.10620
 N25 N -0.04410 0.04360 -0.04795
 C26 C -0.07820 0.07960 -0.02127
 C27 C -0.11221 0.11406 -0.05337
 C28 C -0.07431 0.07484 -0.14000
 C29 C -0.01970 -0.08131 0.07855
 C30 C -0.05216 -0.11547 0.11258
 C31 C -0.13839 -0.07591 0.07420
 C32 C -0.10425 -0.04247 0.04095
 N33 N -0.04602 -0.04528 0.04423
 H34 H -0.01264 0.01319 -0.12668
 H35 H -0.07903 0.08135 0.02514
 H36 H -0.13929 0.14214 -0.03114
 H37 H -0.07137 0.07197 -0.18629
 H38 H 0.02669 -0.08329 0.07959
 H39 H -0.03022 -0.14357 0.13987
 H40 H -0.18465 -0.07281 0.07108
 H41 H -0.12446 -0.01457 0.01234
 C42 C 0.11453 -0.11303 -0.11321
 C43 C 0.11220 0.11176 0.11272
 C44 C -0.11241 -0.11293 0.11085
 C45 C -0.11070 0.11185 -0.11363
 C46 C 0.08094 0.58100 0.52197
 H47 H 0.08196 0.58283 0.47556
 C48 C 0.11501 0.61526 0.55427
 H49 H 0.14230 0.64326 0.53219
 C50 C 0.04326 0.54256 0.60668
 H51 H 0.01459 0.51477 0.62700
 C52 C 0.07653 0.57613 0.64068
 H53 H 0.07337 0.57324 0.68695
 N54 N 0.04652 0.54515 0.54844
 C55 C 0.02127 0.42040 0.42180
 H56 H -0.02514 0.41865 0.42097
 C57 C 0.05337 0.38594 0.38779
 H58 H 0.03114 0.35787 0.36071
 C59 C 0.10620 0.45891 0.45893
 H60 H 0.12669 0.48680 0.48736
 C61 C 0.14000 0.42516 0.42569
 H62 H 0.18629 0.42803 0.42863
 Zn63 Zn 0.00099 0.50092 0.50124
 N64 N 0.04795 0.45640 0.45589
 C65 C -0.04095 0.54248 0.39574
 N66 N -0.04423 0.54528 0.45398
 C67 C -0.07856 0.58131 0.48029
 C68 C -0.11259 0.61547 0.44783
 C69 C -0.07420 0.57592 0.36161
 C70 C -0.02003 0.42060 0.58075
 C71 C -0.05247 0.38605 0.61432
 C72 C -0.13872 0.42541 0.57575
 C73 C -0.10459 0.45925 0.54295
 N74 N -0.04636 0.45667 0.54649
 H75 H -0.01234 0.51457 0.37554
 H76 H -0.07959 0.58329 0.52669
 H77 H -0.13987 0.64357 0.46978
 H78 H -0.07108 0.57281 0.31535
 H79 H 0.02637 0.41877 0.58195
 H80 H -0.03051 0.35787 0.64149
 H81 H -0.18498 0.42828 0.57236
 H82 H -0.12479 0.48719 0.51438
 C83 C 0.11363 0.38815 0.38930
 C84 C 0.11321 0.61303 0.61453
 C85 C -0.11272 0.38824 0.61220
 C86 C -0.11085 0.61293 0.38759
 C87 C 0.57820 0.07959 0.52127
 H88 H 0.57903 0.08135 0.47486
 C89 C 0.61221 0.11406 0.55337
 H90 H 0.63929 0.14214 0.53114
 C91 C 0.54107 0.04109 0.60620
 H92 H 0.51264 0.01319 0.62669
 C93 C 0.57431 0.07484 0.64000
 H94 H 0.57137 0.07197 0.68629
 N95 N 0.54410 0.04360 0.54795
 C96 C 0.51970 -0.08131 0.42145
 H97 H 0.47331 -0.08329 0.42041
 C98 C 0.55216 -0.11547 0.38742
 H99 H 0.53022 -0.14357 0.36013
 C100 C 0.60426 -0.04248 0.45905
 H101 H 0.62446 -0.01457 0.48766
 C102 C 0.63840 -0.07592 0.42580
 H103 H 0.68465 -0.07281 0.42892
 Zn104 Zn 0.49876 -0.00092 0.50099
 N105 N 0.54602 -0.04528 0.45577
 C106 C 0.45704 0.04075 0.39541
 N107 N 0.45351 0.04333 0.45364
 C108 C 0.41925 0.07940 0.47997
 C109 C 0.38568 0.11395 0.44753
 C110 C 0.42425 0.07459 0.36128
 C111 C 0.47803 -0.08100 0.58094
 C112 C 0.44573 -0.11527 0.61501
 C113 C 0.35932 -0.07613 0.57654
 C114 C 0.39332 -0.04256 0.54326
 N115 N 0.45156 -0.04515 0.54652
 H116 H 0.48562 0.01281 0.37521
 H117 H 0.41804 0.08123 0.52637
 H118 H 0.35851 0.14213 0.46949
 H119 H 0.42763 0.07172 0.31502
 H120 H 0.52444 -0.08283 0.58196
 H121 H 0.46781 -0.14326 0.64230
 H122 H 0.31305 -0.07324 0.57338
 H123 H 0.37300 -0.01477 0.51459
 C124 C 0.61241 -0.11293 0.38915
 C125 C 0.61070 0.11185 0.61363
 C126 C 0.38547 -0.11303 0.61321
 C127 C 0.38780 0.11176 0.38728
 C128 C 0.57856 0.58131 0.01971
 H129 H 0.57959 0.58329 -0.02669
 C130 C 0.61259 0.61547 0.05217
 H131 H 0.63987 0.64357 0.03022
 C132 C 0.54095 0.54248 0.10426
 H133 H 0.51235 0.51457 0.12446
 C134 C 0.57420 0.57592 0.13840
 H135 H 0.57108 0.57281 0.18465
 N136 N 0.54423 0.54528 0.04603
 C137 C 0.52003 0.42060 -0.08075
 H138 H 0.47363 0.41877 -0.08195
 C139 C 0.55247 0.38605 -0.11432
 H140 H 0.53051 0.35787 -0.14148
 C141 C 0.60459 0.45925 -0.04295
 H142 H 0.62479 0.48719 -0.01438
 C143 C 0.63872 0.42541 -0.07575
 H144 H 0.68498 0.42828 -0.07236
 Zn145 Zn 0.49901 0.50092 -0.00124
 N146 N 0.54636 0.45667 -0.04649
 C147 C 0.45674 0.54256 -0.10668
 N148 N 0.45348 0.54515 -0.04843
 C149 C 0.41906 0.58100 -0.02196
 C150 C 0.38499 0.61526 -0.05427
 C151 C 0.42347 0.57613 -0.14068
 C152 C 0.47873 0.42040 0.07820
 C153 C 0.44663 0.38594 0.11221
 C154 C 0.36001 0.42516 0.07431
 C155 C 0.39380 0.45891 0.04107
 N156 N 0.45205 0.45640 0.04411
 H157 H 0.48541 0.51477 -0.12700
 H158 H 0.41804 0.58283 0.02444
 H159 H 0.35770 0.64326 -0.03219
 H160 H 0.42663 0.57324 -0.18695
 H161 H 0.52514 0.41865 0.07903
 H162 H 0.46886 0.35787 0.13929
 H163 H 0.31371 0.42803 0.07137
 H164 H 0.37332 0.48680 0.01264
 C165 C 0.61272 0.38824 -0.11220
 C166 C 0.61085 0.61293 0.11241
 C167 C 0.38637 0.38815 0.11070
 C168 C 0.38679 0.61303 -0.11453
 N169 N 0.23959 -0.18009 -0.17845
 C170 C 0.21448 -0.21561 -0.21450
 N171 N 0.15604 -0.21641 -0.21731
 N172 N 0.12448 -0.18401 -0.18522
 C173 C 0.14974 -0.14904 -0.14900
 N174 N 0.20797 -0.14769 -0.14641
 N175 N 0.15476 0.28450 0.28532
 C176 C 0.21308 0.28605 0.28745
 N177 N 0.23843 0.32164 0.32302
 N178 N 0.20691 0.35389 0.35534
 C179 C 0.14866 0.35211 0.35342
 N180 N 0.12327 0.31676 0.31767
 N181 N 0.73787 -0.17855 0.32299
 C182 C 0.71283 -0.21423 0.28730
 N183 N 0.65453 -0.21606 0.28500
 N184 N 0.62274 -0.18403 0.31733
 C185 C 0.64781 -0.14863 0.35323
 N186 N 0.70605 -0.14653 0.35529
 N187 N 0.73807 0.32120 -0.17691
 C188 C 0.71296 0.28559 -0.21262
 N189 N 0.65465 0.28420 -0.21532
 N190 N 0.62294 0.31661 -0.18338
 C191 C 0.64808 0.35200 -0.14752
 N192 N 0.70632 0.35361 -0.14499
 N193 N -0.21468 0.21550 -0.15476
 C194 C -0.21255 0.21396 -0.21308
 N195 N -0.17698 0.17836 -0.23843
 N196 N -0.14466 0.14611 -0.20691
 C197 C -0.14658 0.14789 -0.14866
 N198 N -0.18232 0.18325 -0.12327
 N199 N -0.17701 0.67856 0.26213
 C200 C -0.21270 0.71424 0.28717
 N201 N -0.21500 0.71606 0.34547
 N202 N -0.18267 0.68404 0.37726
 C203 C -0.14677 0.64864 0.35219
 N204 N -0.14471 0.64653 0.29395
 N205 N 0.28468 0.21580 0.34535
 C206 C 0.28738 0.21442 0.28705
 N207 N 0.32309 0.17881 0.26193
 N208 N 0.35501 0.14639 0.29368
 C209 C 0.35248 0.14801 0.35192
 N210 N 0.31662 0.18339 0.37706
 N211 N 0.28269 0.71641 -0.15604
 C212 C 0.28550 0.71561 -0.21448
 N213 N 0.32154 0.68009 -0.23959
 N214 N 0.35359 0.64769 -0.20796
 C215 C 0.35100 0.64904 -0.14974
 N216 N 0.31478 0.68401 -0.12448
 N217 N -0.23787 -0.17855 0.17701
 C218 C -0.21283 -0.21423 0.21270
 N219 N -0.15453 -0.21606 0.21500
 N220 N -0.12274 -0.18403 0.18267
 C221 C -0.14781 -0.14863 0.14677
 N222 N -0.20605 -0.14653 0.14471
 N223 N -0.23807 0.32120 0.67691
 C224 C -0.21296 0.28559 0.71263
 N225 N -0.15465 0.28420 0.71532
 N226 N -0.12294 0.31661 0.68338
 C227 C -0.14808 0.35200 0.64752
 N228 N -0.20632 0.35361 0.64499
 N229 N 0.34396 -0.21641 0.71731
 C230 C 0.28552 -0.21561 0.71450
 N231 N 0.26041 -0.18009 0.67846
 N232 N 0.29203 -0.14769 0.64641
 C233 C 0.35026 -0.14904 0.64900
 N234 N 0.37552 -0.18401 0.68522
 N235 N 0.34524 0.28450 0.21468
 C236 C 0.28692 0.28605 0.21255
 N237 N 0.26157 0.32164 0.17698
 N238 N 0.29309 0.35389 0.14466
 C239 C 0.35134 0.35211 0.14658
 N240 N 0.37674 0.31676 0.18233
 N241 N 0.21532 0.21580 0.15465
 C242 C 0.21263 0.21442 0.21296
 N243 N 0.17691 0.17881 0.23807
 N244 N 0.14499 0.14639 0.20632
 C245 C 0.14752 0.14801 0.14808
 N246 N 0.18338 0.18339 0.12294
 N247 N 0.21731 0.71641 0.65604
 C248 C 0.21450 0.71561 0.71448
 N249 N 0.17845 0.68009 0.73959
 N250 N 0.14641 0.64769 0.70797
 C251 C 0.14900 0.64904 0.64974
 N252 N 0.18522 0.68401 0.62448
 N253 N 0.71468 0.21550 0.65476
 C254 C 0.71255 0.21396 0.71308
 N255 N 0.67698 0.17836 0.73843
 N256 N 0.64466 0.14611 0.70691
 C257 C 0.64658 0.14789 0.64866
 N258 N 0.68232 0.18325 0.62327
 N259 N 0.67701 0.67856 0.23787
 C260 C 0.71270 0.71424 0.21283
 N261 N 0.71500 0.71606 0.15453
 N262 N 0.68267 0.68404 0.12274
 C263 C 0.64677 0.64864 0.14781
 N264 N 0.64471 0.64653 0.20605
   
