data_POSCAR
  _audit_creation_date              2014-09-24
  _audit_creation_method            'ToBaCCo'
  _symmetry_space_group_name_H-M    'P1'
  _symmetry_Int_Tables_number       1
  _symmetry_cell_setting            triclinic
  loop_
  _symmetry_equiv_pos_as_xyz
 x,y,z
_cell_length_a 17.5433
_cell_length_b 18.7197
_cell_length_c 17.8830
_cell_angle_alpha 90.169600
_cell_angle_beta 89.878000
_cell_angle_gamma 90.473900
loop_
  _atom_site_label
  _atom_site_type_symbol
  _atom_site_fract_x
  _atom_site_fract_y
  _atom_site_fract_z
C1 C 0.55030 1.06477 -0.33265
 C2 C 0.47672 1.05546 -0.30218
 C3 C 0.41180 1.05833 -0.34697
 C4 C 0.41839 1.07047 -0.42400
 C5 C 0.49112 1.07672 -0.45664
 C6 C 0.55678 1.07939 -0.41076
 C7 C 0.62581 1.10090 -0.44437
 C8 C 0.63333 1.10245 -0.52157
 C9 C 0.57104 1.08612 -0.56819
 C10 C 0.49816 1.08021 -0.53557
 C11 C 0.35371 1.07847 -0.46906
 C12 C 0.36092 1.08513 -0.54580
 C13 C 0.43233 1.07783 -0.58115
 C14 C 0.43985 1.07277 -0.66030
 C15 C 0.51368 1.07759 -0.69172
 C16 C 0.57940 1.08094 -0.64659
 H17 H 0.67490 1.11672 -0.41174
 H18 H 0.68832 1.11752 -0.54444
 H19 H 0.29690 1.08044 -0.44541
 H20 H 0.30950 1.09622 -0.57659
 H21 H 0.46907 1.04135 -0.24392
 H22 H 0.52086 1.07014 -0.75143
 C23 C -0.57519 1.33681 -0.02905
 C24 C -0.51039 1.29789 -0.00956
 C25 C -0.44342 1.33148 0.01605
 C26 C -0.44305 1.40694 0.02499
 C27 C -0.50555 1.44738 -0.00127
 C28 C -0.57093 1.41217 -0.03009
 C29 C -0.62977 1.45316 -0.06064
 C30 C -0.62755 1.52719 -0.05696
 C31 C -0.56681 1.56333 -0.02182
 C32 C -0.50335 1.52329 0.00262
 C33 C -0.38355 1.44307 0.06196
 C34 C -0.38092 1.51718 0.06491
 C35 C -0.43809 1.55870 0.03169
 C36 C -0.43443 1.63460 0.03211
 C37 C -0.50097 1.67272 0.01430
 C38 C -0.56734 1.63838 -0.01151
 H39 H -0.67777 1.42842 -0.08874
 H40 H -0.67379 1.55559 -0.08298
 H41 H -0.33915 1.41466 0.09082
 H42 H -0.33456 1.54142 0.09590
 H43 H -0.51280 1.24026 -0.01372
 H44 H -0.50070 1.73046 0.01764
 C45 C 0.01761 0.33049 0.43536
 C46 C 0.02128 0.29445 0.50454
 C47 C 0.02526 0.32979 0.57405
 C48 C 0.03035 0.40600 0.57392
 C49 C 0.02447 0.44426 0.50554
 C50 C 0.01480 0.40658 0.43677
 C51 C -0.00407 0.44611 0.37278
 C52 C -0.00202 0.52023 0.37306
 C53 C 0.01706 0.55872 0.43789
 C54 C 0.02666 0.52081 0.50601
 C55 C 0.04365 0.44532 0.63984
 C56 C 0.04118 0.51932 0.64097
 C57 C 0.03474 0.55905 0.57485
 C58 C 0.03150 0.63529 0.57512
 C59 C 0.02747 0.67055 0.50572
 C60 C 0.02168 0.63426 0.43729
 H61 H -0.02348 0.42045 0.32204
 H62 H -0.01828 0.54698 0.32212
 H63 H 0.05642 0.41992 0.69229
 H64 H 0.04401 0.54384 0.69532
 H65 H 0.01970 0.23674 0.50429
 H66 H 0.03058 0.72837 0.50501
 O67 O -0.21103 0.98419 -0.07477
 O68 O 0.17643 0.98772 -0.11726
 O69 O -0.02437 1.07693 -0.19036
 O70 O -0.01939 0.88496 -0.18804
 O71 O -0.00134 0.79788 -0.09865
 O72 O -0.01722 1.16758 -0.10232
 O73 O 0.07504 0.98465 -0.19934
 O74 O -0.13004 0.98699 -0.17603
 Zr75 Zr -0.02031 0.98183 -0.12758
 O76 O 0.05685 0.91952 -0.07109
 O77 O -0.08253 1.04694 -0.05793
 C78 C -0.19700 0.99108 -0.14528
 C79 C 0.14684 0.98922 -0.18343
 C80 C -0.01926 1.14376 -0.17110
 C81 C -0.00746 0.81950 -0.16759
 H82 H 0.08170 1.07919 -0.10539
 O83 O 0.05253 1.04880 -0.07054
 H84 H -0.11524 0.88375 -0.08588
 O85 O -0.07979 0.91480 -0.05723
 O86 O 0.19913 0.99804 0.08061
 O87 O -0.18957 0.98257 0.12163
 O88 O 0.09481 1.17112 -0.00826
 O89 O 0.10353 0.80238 -0.00733
 O90 O -0.10440 0.79608 0.01806
 O91 O -0.11532 1.16499 0.00932
 O92 O 0.01341 1.08122 0.19385
 O93 O 0.01192 0.88919 0.19523
 O94 O 0.00375 1.17006 0.10478
 O95 O 0.00988 0.79928 0.10635
 O96 O 0.18650 1.08394 -0.01986
 O97 O -0.20285 1.07293 0.02083
 O98 O -0.19607 0.88317 0.02905
 O99 O 0.19129 0.89393 -0.01988
 O100 O 0.11795 0.99485 0.18212
 O101 O -0.09004 0.98970 0.20537
 Zr102 Zr 0.12587 0.98715 -0.01076
 Zr103 Zr -0.13681 0.97997 0.01647
 Zr104 Zr -0.00847 1.11186 0.00181
 Zr105 Zr -0.00199 0.85614 0.00406
 Zr106 Zr 0.00780 0.98520 0.13393
 O107 O -0.06532 0.91694 0.07841
 O108 O 0.06781 1.05184 0.06271
 C109 C 0.18484 1.00221 0.15131
 C110 C -0.16206 0.99213 0.18796
 C111 C 0.16454 1.14981 -0.01833
 C112 C 0.17239 0.82696 -0.01755
 C113 C -0.17397 0.81740 0.02935
 C114 C -0.18452 1.13999 0.01741
 C115 C 0.01045 1.14752 0.17360
 C116 C 0.01247 0.82245 0.17506
 H117 H -0.09638 1.07888 0.10907
 O118 O -0.06693 1.04771 0.07538
 H119 H 0.10874 0.89341 0.09309
 O120 O 0.07138 0.92132 0.06416
 C121 C 0.31562 1.01366 0.31724
 C122 C 0.37653 1.05715 0.29271
 C123 C 0.37090 1.08450 0.21930
 C124 C 0.30841 1.06653 0.17342
 C125 C 0.24989 1.02053 0.19934
 C126 C 0.25312 0.99747 0.27307
 C127 C 0.24747 0.92330 0.30319
 C128 C 0.31612 0.94113 0.35169
 H129 H 0.41395 1.12054 0.19731
 H130 H 0.30604 1.08850 0.11750
 H131 H 0.25914 0.88186 0.26005
 H132 H 0.19427 0.91471 0.33596
 H133 H 0.36785 0.91029 0.33660
 H134 H 0.30233 0.94261 0.41237
 C135 C -0.29772 1.01970 0.35132
 C136 C -0.34852 1.06941 0.32069
 C137 C -0.32649 1.10281 0.25377
 C138 C -0.26028 1.08111 0.21630
 C139 C -0.21719 1.02263 0.24137
 C140 C -0.23325 0.99652 0.31290
 C141 C -0.24468 0.92196 0.34041
 C142 C -0.31488 0.94742 0.38174
 H143 H -0.36121 1.14429 0.22946
 H144 H -0.24466 1.10737 0.16496
 H145 H -0.19951 0.90623 0.38019
 H146 H -0.25773 0.88331 0.29476
 H147 H -0.30895 0.94554 0.44353
 H148 H -0.36893 0.92439 0.35951
 C149 C -0.31844 1.02262 -0.31512
 C150 C -0.38541 1.05282 -0.28641
 C151 C -0.38640 1.06688 -0.20853
 C152 C -0.32557 1.04597 -0.16256
 C153 C -0.26181 1.01053 -0.19290
 C154 C -0.25768 1.00391 -0.27031
 C155 C -0.24150 0.93942 -0.31640
 C156 C -0.30814 0.95975 -0.36547
 H157 H -0.43400 1.09386 -0.18258
 H158 H -0.32885 1.05724 -0.10319
 H159 H -0.25144 0.88902 -0.28497
 H160 H -0.18578 0.94450 -0.34566
 H161 H -0.35669 0.92128 -0.36261
 H162 H -0.29019 0.97531 -0.42278
 C163 C 0.30504 0.97394 -0.32070
 C164 C 0.33740 1.04220 -0.31368
 C165 C 0.29363 1.09668 -0.28164
 C166 C 0.22445 1.07970 -0.24643
 C167 C 0.19887 1.00829 -0.24313
 C168 C 0.23691 0.95699 -0.28544
 C169 C 0.26321 0.88404 -0.26519
 C170 C 0.33820 0.90266 -0.30361
 H171 H 0.31506 1.15109 -0.27984
 H172 H 0.19487 1.12102 -0.21559
 H173 H 0.23024 0.84156 -0.29466
 H174 H 0.26854 0.87669 -0.20391
 H175 H 0.34852 0.87074 -0.35510
 H176 H 0.38728 0.90617 -0.26446
 C177 C 0.28455 1.31736 -0.00639
 C178 C 0.35222 1.29718 -0.04237
 C179 C 0.35069 1.23291 -0.08357
 C180 C 0.28760 1.18635 -0.07858
 C181 C 0.22407 1.20369 -0.03355
 C182 C 0.22140 1.27241 -0.00319
 C183 C 0.20205 1.29622 0.07423
 C184 C 0.27143 1.34538 0.07066
 H185 H 0.40034 1.21607 -0.11487
 H186 H 0.29067 1.13492 -0.10623
 H187 H 0.20744 1.25274 0.11611
 H188 H 0.14738 1.32574 0.07591
 H189 H 0.31739 1.33026 0.11017
 H190 H 0.25658 1.40299 0.07063
 C191 C 0.29149 0.66068 0.00140
 C192 C 0.36329 0.68218 -0.02522
 C193 C 0.36776 0.74924 -0.06085
 C194 C 0.30474 0.79549 -0.06092
 C195 C 0.23498 0.77522 -0.02707
 C196 C 0.22872 0.70525 -0.00065
 C197 C 0.20056 0.67852 0.07302
 C198 C 0.26907 0.62935 0.07474
 H199 H 0.42109 0.76769 -0.08483
 H200 H 0.31211 0.84850 -0.08389
 H201 H 0.14542 0.64930 0.06770
 H202 H 0.20244 0.72063 0.11698
 H203 H 0.25344 0.57186 0.06982
 H204 H 0.31027 0.64257 0.11999
 C205 C -0.29492 0.64974 0.01884
 C206 C -0.36584 0.67304 0.04644
 C207 C -0.36611 0.73994 0.08330
 C208 C -0.30127 0.78449 0.08270
 C209 C -0.23432 0.76403 0.04458
 C210 C -0.23075 0.69385 0.01823
 C211 C -0.20470 0.66588 -0.05565
 C212 C -0.27477 0.61750 -0.05509
 H213 H -0.41723 0.75938 0.11030
 H214 H -0.30540 0.83697 0.10803
 H215 H -0.15035 0.63612 -0.05114
 H216 H -0.20589 0.70706 -0.10035
 H217 H -0.26061 0.55992 -0.05034
 H218 H -0.31667 0.63051 -0.09948
 C219 C -0.30117 1.30918 0.01116
 C220 C -0.37494 1.28625 0.03034
 C221 C -0.38226 1.21542 0.05655
 C222 C -0.32057 1.16800 0.05251
 C223 C -0.24813 1.19099 0.02680
 C224 C -0.23911 1.26362 0.01169
 C225 C -0.20536 1.29839 -0.05540
 C226 C -0.27306 1.34843 -0.05590
 H227 H -0.43671 1.19499 0.07586
 H228 H -0.33085 1.11265 0.06696
 H229 H -0.20444 1.26115 -0.10380
 H230 H -0.15051 1.32566 -0.04208
 H231 H -0.31072 1.34105 -0.10530
 H232 H -0.25719 1.40470 -0.04286
 C233 C -0.01354 1.21891 0.36901
 C234 C 0.01740 1.28825 0.36836
 C235 C 0.05420 1.30891 0.30053
 C236 C 0.05042 1.26533 0.23536
 C237 C 0.01236 1.19877 0.23696
 C238 C -0.01560 1.17595 0.30614
 C239 C -0.09186 1.14560 0.32597
 C240 C -0.08979 1.19282 0.39514
 H241 H 0.08685 1.35812 0.29757
 H242 H 0.07780 1.28323 0.18452
 H243 H -0.08909 1.08768 0.33907
 H244 H -0.13678 1.16092 0.28547
 H245 H -0.08613 1.16186 0.44794
 H246 H -0.13361 1.23541 0.39485
 C247 C -0.01747 1.30952 -0.29494
 C248 C 0.02211 1.28753 -0.35933
 C249 C 0.05425 1.21836 -0.35592
 C250 C 0.04035 1.17278 -0.29473
 C251 C -0.00514 1.19446 -0.23359
 C252 C -0.02881 1.26562 -0.23292
 C253 C -0.10623 1.29572 -0.22014
 C254 C -0.09386 1.34285 -0.28798
 H255 H 0.08973 1.19851 -0.40087
 H256 H 0.06455 1.11975 -0.29596
 H257 H -0.10809 1.32746 -0.16782
 H258 H -0.15256 1.25546 -0.22773
 H259 H -0.09026 1.40062 -0.27376
 H260 H -0.13201 1.32918 -0.33558
 C261 C -0.02667 0.73459 -0.35829
 C262 C 0.02596 0.67873 -0.35934
 C263 C 0.07390 0.67358 -0.29567
 C264 C 0.06132 0.71665 -0.23120
 C265 C 0.00198 0.76727 -0.22957
 C266 C -0.03799 0.77739 -0.29596
 C267 C -0.12185 0.77909 -0.30826
 C268 C -0.10954 0.73239 -0.37655
 H269 H 0.12174 0.63743 -0.29577
 H270 H 0.09875 0.71135 -0.18349
 H271 H -0.14027 0.83335 -0.32299
 H272 H -0.15484 0.75249 -0.26287
 H273 H -0.12237 0.75999 -0.42992
 H274 H -0.13477 0.67796 -0.37097
 C275 C -0.02274 0.74052 0.36356
 C276 C 0.01957 0.67807 0.36719
 C277 C 0.06303 0.66251 0.30169
 C278 C 0.05950 0.70713 0.23686
 C279 C 0.01537 0.77021 0.23703
 C280 C -0.02334 0.78393 0.30296
 C281 C -0.08175 0.83193 0.33406
 C282 C -0.08106 0.78379 0.40369
 H283 H 0.09965 0.61626 0.30044
 H284 H 0.09216 0.69305 0.18795
 H285 H -0.13481 0.82749 0.30072
 H286 H -0.05942 0.88688 0.34401
 H287 H -0.13533 0.75384 0.41231
 H288 H -0.05789 0.81121 0.45401
   
