data_POSCAR
  _audit_creation_date              2014-09-24
  _audit_creation_method            'ToBaCCo'
  _symmetry_space_group_name_H-M    'P1'
  _symmetry_Int_Tables_number       1
  _symmetry_cell_setting            triclinic
  loop_
  _symmetry_equiv_pos_as_xyz
 x,y,z
_cell_length_a 34.0761
_cell_length_b 34.3670
_cell_length_c 37.1315
_cell_angle_alpha 90.049300
_cell_angle_beta 90.011000
_cell_angle_gamma 90.013100
loop_
  _atom_site_label
  _atom_site_type_symbol
  _atom_site_fract_x
  _atom_site_fract_y
  _atom_site_fract_z
C1 C 0.22442 0.37784 -0.00709
 C2 C 0.23523 0.36404 0.02707
 C3 C 0.25577 0.32873 0.02991
 C4 C 0.27097 0.30999 -0.00062
 C5 C 0.26120 0.32519 -0.03462
 C6 C 0.23719 0.35839 -0.03849
 C7 C 0.30137 0.27845 0.00279
 C8 C 0.30911 0.25296 -0.02602
 C9 C 0.34378 0.23056 -0.02710
 C10 C 0.36723 0.22857 0.00400
 C11 C 0.35857 0.25150 0.03414
 C12 C 0.32634 0.27696 0.03295
 H13 H 0.20851 0.40506 -0.00913
 H14 H 0.26178 0.31729 0.05646
 H15 H 0.27421 0.31223 -0.05808
 H16 H 0.28906 0.25226 -0.04843
 H17 H 0.39355 0.21085 0.00419
 H18 H 0.32156 0.29640 0.05531
 C19 C 0.77638 0.61970 -0.00478
 C20 C 0.75570 0.62763 0.02700
 C21 C 0.73150 0.66072 0.02877
 C22 C 0.72892 0.68697 -0.00020
 C23 C 0.75209 0.67966 -0.03084
 C24 C 0.77307 0.64468 -0.03458
 C25 C 0.69813 0.71830 -0.00064
 C26 C 0.68080 0.72969 -0.03327
 C27 C 0.64864 0.75550 -0.03453
 C28 C 0.63181 0.76783 -0.00177
 C29 C 0.64777 0.75569 0.03129
 C30 C 0.68241 0.73332 0.03138
 H31 H 0.79258 0.59269 -0.00713
 H32 H 0.71358 0.66497 0.05244
 H33 H 0.75210 0.70027 -0.05274
 H34 H 0.69098 0.71629 -0.05770
 H35 H 0.60548 0.78551 -0.00189
 H36 H 0.69626 0.72629 0.05670
 C37 C 0.77635 0.37147 1.00064
 C38 C 0.75303 0.36512 0.97009
 C39 C 0.72579 0.33430 0.97011
 C40 C 0.72246 0.30902 0.99969
 C41 C 0.74811 0.31450 1.02895
 C42 C 0.77295 0.34712 1.03087
 C43 C 0.68903 0.28064 1.00227
 C44 C 0.67215 0.27238 1.03591
 C45 C 0.63879 0.24847 1.03939
 C46 C 0.62078 0.23415 1.00779
 C47 C 0.63578 0.24386 0.97367
 C48 C 0.67109 0.26509 0.97141
 H49 H 0.79541 0.39670 1.00164
 H50 H 0.70624 0.33096 0.94743
 H51 H 0.74691 0.29451 1.05127
 H52 H 0.68452 0.28591 1.05942
 H53 H 0.59380 0.21757 1.00953
 H54 H 0.68391 0.27051 0.94527
 C55 C 0.22400 0.62551 1.00318
 C56 C 0.24711 0.63299 0.97277
 C57 C 0.27323 0.66457 0.97317
 C58 C 0.27607 0.68949 1.00307
 C59 C 0.25147 0.68234 1.03276
 C60 C 0.22703 0.64926 1.03392
 C61 C 0.30813 0.71940 1.00477
 C62 C 0.32652 0.72826 1.03761
 C63 C 0.36020 0.75217 1.03927
 C64 C 0.37678 0.76557 1.00669
 C65 C 0.35974 0.75550 0.97348
 C66 C 0.32394 0.73524 0.97316
 H67 H 0.20539 0.59994 1.00360
 H68 H 0.29238 0.66878 0.95035
 H69 H 0.25280 0.70164 1.05562
 H70 H 0.31517 0.71519 1.06175
 H71 H 0.40418 0.78158 1.00695
 H72 H 0.30943 0.73007 0.94771
 C73 C 0.00384 0.24120 0.38735
 C74 C 0.03894 0.25976 0.37743
 C75 C 0.03955 0.28358 0.34661
 C76 C 0.00610 0.28799 0.32490
 C77 C -0.02795 0.26731 0.33426
 C78 C -0.03028 0.24609 0.36658
 C79 C 0.00531 0.31706 0.29482
 C80 C -0.02938 0.33766 0.28722
 C81 C -0.03092 0.36645 0.26021
 C82 C 0.00387 0.37582 0.24185
 C83 C 0.03946 0.35725 0.25041
 C84 C 0.03944 0.32669 0.27560
 H85 H 0.00264 0.22473 0.41219
 H86 H 0.06596 0.29945 0.34007
 H87 H -0.05321 0.26897 0.31681
 H88 H -0.05504 0.33146 0.30311
 H89 H 0.00370 0.39897 0.22206
 H90 H 0.06619 0.31089 0.28089
 C91 C -0.00316 0.75937 0.61593
 C92 C 0.03262 0.74205 0.62551
 C93 C 0.03447 0.71843 0.65641
 C94 C 0.00134 0.71262 0.67826
 C95 C -0.03369 0.73172 0.66898
 C96 C -0.03691 0.75311 0.63683
 C97 C 0.00201 0.68335 0.70813
 C98 C -0.03132 0.66049 0.71503
 C99 C -0.03124 0.63100 0.74144
 C100 C 0.00381 0.62366 0.76020
 C101 C 0.03822 0.64468 0.75235
 C102 C 0.03647 0.67562 0.72756
 H103 H -0.00519 0.77578 0.59110
 H104 H 0.06153 0.70361 0.66283
 H105 H -0.05893 0.72869 0.68632
 H106 H -0.05721 0.66561 0.69912
 H107 H 0.00493 0.60010 0.77955
 H108 H 0.06216 0.69316 0.72260
 C109 C 0.99044 0.75769 0.38579
 C110 C 0.95520 0.73872 0.37684
 C111 C 0.95424 0.71372 0.34682
 C112 C 0.98736 0.70852 0.32487
 C113 C 1.02162 0.72941 0.33330
 C114 C 1.02453 0.75197 0.36496
 C115 C 0.98744 0.67885 0.29517
 C116 C 1.02201 0.65832 0.28702
 C117 C 1.02314 0.62945 0.26000
 C118 C 0.98796 0.61975 0.24237
 C119 C 0.95244 0.63814 0.25160
 C120 C 0.95289 0.66887 0.27667
 H121 H 0.99163 0.77540 0.40993
 H122 H 0.92775 0.69771 0.34093
 H123 H 1.04635 0.72708 0.31534
 H124 H 1.04796 0.66470 0.30244
 H125 H 0.98782 0.59652 0.22261
 H126 H 0.92618 0.68462 0.28227
 C127 C 1.00363 0.24037 0.61636
 C128 C 0.96820 0.25816 0.62654
 C129 C 0.96723 0.28161 0.65758
 C130 C 1.00069 0.28684 0.67907
 C131 C 1.03530 0.26730 0.66930
 C132 C 1.03783 0.24599 0.63698
 C133 C 1.00066 0.31599 0.70910
 C134 C 1.03427 0.33848 0.71595
 C135 C 1.03446 0.36831 0.74211
 C136 C 0.99932 0.37640 0.76058
 C137 C 0.96470 0.35560 0.75280
 C138 C 0.96632 0.32421 0.72851
 H139 H 1.00502 0.22404 0.59142
 H140 H 0.94048 0.29677 0.66439
 H141 H 1.06072 0.26989 0.68647
 H142 H 1.06013 0.33288 0.70014
 H143 H 0.99832 0.40032 0.77959
 H144 H 0.94051 0.30671 0.72386
 C145 C 0.37438 0.00130 0.23202
 C146 C 0.35366 0.03580 0.23968
 C147 C 0.32341 0.03496 0.26537
 C148 C 0.31673 0.00199 0.28665
 C149 C 0.33880 -0.03174 0.27948
 C150 C 0.36690 -0.03310 0.25144
 C151 C 0.28936 0.00379 0.31831
 C152 C 0.27107 -0.02997 0.33132
 C153 C 0.25082 -0.03005 0.36434
 C154 C 0.24453 0.00535 0.38234
 C155 C 0.26091 0.04001 0.36900
 C156 C 0.28389 0.03869 0.33752
 H157 H 0.39729 0.00171 0.21178
 H158 H 0.30594 0.06059 0.27003
 H159 H 0.33458 -0.05656 0.29667
 H160 H 0.27347 -0.05667 0.31612
 H161 H 0.22872 0.00561 0.40766
 H162 H 0.29826 0.06485 0.32843
 C163 C 0.61894 0.00139 0.76575
 C164 C 0.63609 0.03748 0.75717
 C165 C 0.66742 0.03868 0.73247
 C166 C 0.67837 0.00557 0.71277
 C167 C 0.65884 -0.02966 0.72020
 C168 C 0.63044 -0.03277 0.74769
 C169 C 0.70764 0.00786 0.68249
 C170 C 0.72707 -0.02585 0.67074
 C171 C 0.74667 -0.02704 0.63754
 C172 C 0.75336 0.00785 0.61893
 C173 C 0.73750 0.04299 0.63178
 C174 C 0.71364 0.04243 0.66285
 H175 H 0.59555 0.00024 0.78549
 H176 H 0.68269 0.06570 0.72794
 H177 H 0.66520 -0.05455 0.70368
 H178 H 0.72550 -0.05203 0.68672
 H179 H 0.76910 0.00736 0.59358
 H180 H 0.69915 0.06880 0.67121
 C181 C 0.37162 0.98807 0.76666
 C182 C 0.36137 0.95353 0.74873
 C183 C 0.33506 0.95520 0.71958
 C184 C 0.31645 0.99011 0.70989
 C185 C 0.32521 1.02376 0.73006
 C186 C 0.35443 1.02361 0.75694
 C187 C 0.29041 0.99200 0.67719
 C188 C 0.28712 1.02666 0.65743
 C189 C 0.26351 1.02930 0.62631
 C190 C 0.24523 0.99530 0.61333
 C191 C 0.25070 0.95952 0.63096
 C192 C 0.27097 0.95881 0.66400
 H193 H 0.39349 0.98742 0.78783
 H194 H 0.33016 0.92951 0.70359
 H195 H 0.30998 1.05041 0.72405
 H196 H 0.30323 1.05171 0.66647
 H197 H 0.22882 0.99615 0.58833
 H198 H 0.27216 0.93197 0.67904
 C199 C 0.62404 1.00370 0.23549
 C200 C 0.64460 0.96899 0.24236
 C201 C 0.67365 0.96848 0.26927
 C202 C 0.67988 1.00079 0.29157
 C203 C 0.65768 1.03463 0.28523
 C204 C 0.63048 1.03707 0.25662
 C205 C 0.70724 0.99868 0.32317
 C206 C 0.72510 1.03257 0.33636
 C207 C 0.74452 1.03296 0.36969
 C208 C 0.75112 0.99770 0.38772
 C209 C 0.73557 0.96279 0.37404
 C210 C 0.71300 0.96375 0.34222
 H211 H 0.60201 1.00421 0.21443
 H212 H 0.69053 0.94244 0.27388
 H213 H 0.66119 1.05874 0.30343
 H214 H 0.72272 1.05929 0.32120
 H215 H 0.76634 0.99772 0.41335
 H216 H 0.69921 0.93737 0.33279
 O217 O 0.87380 0.82537 0.47015
 O218 O 0.82304 0.88587 0.53895
 O219 O 0.87635 0.83183 0.54050
 O220 O 0.81919 0.88062 0.46842
 O221 O 0.77403 0.83480 0.47285
 O222 O 0.82894 0.78826 0.54560
 O223 O 0.77705 0.84069 0.54252
 O224 O 0.82756 0.78083 0.47613
 Cu225 Cu 0.85280 0.86051 0.50360
 Cu226 Cu 0.79726 0.80670 0.50931
 C227 C 0.85937 0.79238 0.46204
 C228 C 0.79181 0.87259 0.55308
 C229 C 0.86142 0.80236 0.55600
 C230 C 0.78668 0.86590 0.45862
 O231 O 0.12449 0.17555 0.46967
 O232 O 0.18162 0.11567 0.53487
 O233 O 0.12433 0.16666 0.53991
 O234 O 0.17924 0.12112 0.46484
 O235 O 0.22297 0.16847 0.46768
 O236 O 0.17068 0.21138 0.54419
 O237 O 0.22625 0.16228 0.53660
 O238 O 0.16929 0.22165 0.47477
 Cu239 Cu 0.14776 0.14010 0.50181
 Cu240 Cu 0.20155 0.19568 0.50591
 C241 C 0.13744 0.20916 0.46152
 C242 C 0.21388 0.12931 0.54673
 C243 C 0.13891 0.19630 0.55534
 C244 C 0.21068 0.13696 0.45382
 O245 O 0.11233 0.82662 0.52898
 O246 O 0.16615 0.88615 0.46085
 O247 O 0.10897 0.83515 0.45887
 O248 O 0.16494 0.88302 0.53211
 O249 O 0.20869 0.83570 0.52964
 O250 O 0.15616 0.79140 0.45377
 O251 O 0.21179 0.84054 0.45959
 O252 O 0.15753 0.78104 0.52298
 Cu253 Cu 0.13359 0.86247 0.49576
 Cu254 Cu 0.18805 0.80778 0.49128
 C255 C 0.12610 0.79329 0.53713
 C256 C 0.19802 0.87241 0.44816
 C257 C 0.12375 0.80572 0.44328
 C258 C 0.19587 0.86684 0.54386
 O259 O 0.88140 0.17453 0.53448
 O260 O 0.82579 0.11680 0.46672
 O261 O 0.88265 0.16727 0.46419
 O262 O 0.82418 0.12178 0.53727
 O263 O 0.78150 0.16994 0.53356
 O264 O 0.83726 0.21293 0.45947
 O265 O 0.78200 0.16415 0.46414
 O266 O 0.83752 0.22140 0.52896
 Cu267 Cu 0.85798 0.14027 0.50151
 Cu268 Cu 0.80529 0.19687 0.49658
 C269 C 0.86894 0.20831 0.54258
 C270 C 0.79476 0.13151 0.45341
 C271 C 0.86882 0.19720 0.44865
 C272 C 0.79263 0.13811 0.54750
 O273 O 0.46117 0.87917 0.83463
 O274 O 0.54223 0.83618 0.88824
 O275 O 0.53728 0.88540 0.83390
 O276 O 0.46474 0.83272 0.89090
 O277 O 0.46806 0.78317 0.85313
 O278 O 0.53799 0.83534 0.79654
 O279 O 0.54440 0.78767 0.84920
 O280 O 0.46285 0.82808 0.79846
 Cu281 Cu 0.50114 0.86335 0.86596
 Cu282 Cu 0.50359 0.80345 0.82087
 C283 C 0.44839 0.86061 0.80739
 C284 C 0.55769 0.80486 0.87679
 C285 C 0.54961 0.86914 0.80528
 C286 C 0.45364 0.79906 0.88100
 O287 O 0.53900 0.16759 0.11723
 O288 O 0.45729 0.11697 0.16173
 O289 O 0.46284 0.17359 0.11442
 O290 O 0.53372 0.11734 0.17104
 O291 O 0.52808 0.16322 0.21236
 O292 O 0.46393 0.22033 0.15531
 O293 O 0.45235 0.16548 0.20057
 O294 O 0.53854 0.21214 0.16018
 Cu295 Cu 0.49851 0.13909 0.13702
 Cu296 Cu 0.49569 0.19454 0.18641
 C297 C 0.55265 0.19843 0.13115
 C298 C 0.44008 0.13335 0.18787
 C299 C 0.45198 0.20706 0.12550
 C300 C 0.54271 0.13137 0.20177
 O301 O 0.53304 0.10816 0.84427
 O302 O 0.45215 0.15048 0.89813
 O303 O 0.45581 0.10242 0.84414
 O304 O 0.52958 0.15876 0.89763
 O305 O 0.52287 0.20698 0.85889
 O306 O 0.45271 0.15133 0.80563
 O307 O 0.44649 0.19753 0.85790
 O308 O 0.52901 0.15797 0.80690
 Cu309 Cu 0.49338 0.12506 0.87504
 Cu310 Cu 0.48765 0.18335 0.82861
 C311 C 0.54509 0.12643 0.81671
 C312 C 0.43440 0.18013 0.88587
 C313 C 0.44090 0.11834 0.81635
 C314 C 0.53897 0.19259 0.88663
 O315 O 0.46302 0.83580 0.11314
 O316 O 0.54292 0.88936 0.15878
 O317 O 0.54013 0.83505 0.10978
 O318 O 0.46603 0.88854 0.16556
 O319 O 0.47180 0.84263 0.20674
 O320 O 0.54062 0.78878 0.15103
 O321 O 0.54793 0.84145 0.19821
 O322 O 0.46503 0.79148 0.15615
 Cu323 Cu 0.50238 0.86693 0.13260
 Cu324 Cu 0.50635 0.81168 0.18223
 C325 C 0.45032 0.80460 0.12721
 C326 C 0.55998 0.87347 0.18535
 C327 C 0.55329 0.80284 0.12174
 C328 C 0.45662 0.87420 0.19600
 O329 O 0.83559 0.46479 0.88719
 O330 O 0.89260 0.53144 0.82683
 O331 O 0.84778 0.54000 0.88384
 O332 O 0.88830 0.45572 0.83554
 O333 O 0.83653 0.45503 0.79972
 O334 O 0.80037 0.54420 0.84341
 O335 O 0.84314 0.52908 0.78845
 O336 O 0.78565 0.47029 0.84967
 Cu337 Cu 0.87111 0.49764 0.86216
 Cu338 Cu 0.81151 0.49964 0.81670
 C339 C 0.80023 0.45700 0.87845
 C340 C 0.87680 0.54148 0.79708
 C341 C 0.81787 0.55709 0.87122
 C342 C 0.86918 0.44077 0.80975
 O343 O 0.15559 0.46768 0.10977
 O344 O 0.10100 0.53502 0.17123
 O345 O 0.14518 0.54383 0.11357
 O346 O 0.10843 0.45956 0.16504
 O347 O 0.16173 0.46111 0.19893
 O348 O 0.19451 0.54917 0.15190
 O349 O 0.15248 0.53524 0.20737
 O350 O 0.20720 0.47442 0.14516
 Cu351 Cu 0.12237 0.50124 0.13610
 Cu352 Cu 0.18422 0.50527 0.17917
 C353 C 0.19097 0.45942 0.11777
 C354 C 0.11796 0.54628 0.20002
 C355 C 0.17539 0.56159 0.12493
 C356 C 0.12917 0.44572 0.19035
 O357 O 0.89093 0.46175 0.17298
 O358 O 0.83482 0.52728 0.11116
 O359 O 0.88316 0.53717 0.16589
 O360 O 0.84958 0.45240 0.11389
 O361 O 0.80019 0.44502 0.15185
 O362 O 0.82960 0.53447 0.19931
 O363 O 0.78295 0.51879 0.14587
 O364 O 0.83923 0.46054 0.20883
 Cu365 Cu 0.86983 0.49528 0.13737
 Cu366 Cu 0.80776 0.48944 0.17975
 C367 C 0.87398 0.45014 0.20166
 C368 C 0.79878 0.53360 0.11828
 C369 C 0.86208 0.55042 0.19119
 C370 C 0.81995 0.43355 0.12482
 O371 O 0.16719 0.53536 0.88678
 O372 O 0.11145 0.46772 0.82681
 O373 O 0.15960 0.46035 0.88188
 O374 O 0.11539 0.54383 0.83449
 O375 O 0.16672 0.54618 0.79822
 O376 O 0.20669 0.45860 0.84097
 O377 O 0.16018 0.47142 0.78778
 O378 O 0.21682 0.53218 0.84863
 Cu379 Cu 0.13321 0.50194 0.86129
 Cu380 Cu 0.19231 0.50221 0.81493
 C381 C 0.20218 0.54424 0.87791
 C382 C 0.12700 0.45806 0.79691
 C383 C 0.19053 0.44512 0.86913
 C384 C 0.13404 0.55968 0.80884
 C385 C 0.23209 0.38906 0.05948
 C386 C 0.26130 0.39031 0.08523
 C387 C 0.24967 0.41735 0.10941
 C388 C 0.21408 0.43092 0.09701
 O389 O 0.20321 0.41403 0.06637
 H390 H 0.28840 0.37391 0.08594
 H391 H 0.26518 0.42593 0.13359
 C392 C 0.75569 0.59935 0.05701
 C393 C 0.72305 0.59164 0.07780
 C394 C 0.73507 0.56538 0.10267
 C395 C 0.77422 0.55880 0.09544
 O396 O 0.78693 0.57919 0.06747
 H397 H 0.69385 0.60368 0.07515
 H398 H 0.71748 0.55287 0.12399
 C399 C 0.75440 0.39260 0.93941
 C400 C 0.72255 0.40049 0.91763
 C401 C 0.73581 0.42600 0.89267
 C402 C 0.77480 0.43216 0.90085
 O403 O 0.78630 0.41212 0.92946
 H404 H 0.69297 0.38927 0.91972
 H405 H 0.71904 0.43852 0.87079
 C406 C 0.24660 0.60635 0.94147
 C407 C 0.27885 0.59962 0.91982
 C408 C 0.26614 0.57524 0.89364
 C409 C 0.22709 0.56856 0.90111
 O410 O 0.21502 0.58715 0.93036
 H411 H 0.30830 0.61097 0.92273
 H412 H 0.28330 0.56374 0.87153
 C413 C 0.07430 0.25648 0.40042
 C414 C 0.10304 0.28474 0.40269
 C415 C 0.13010 0.27052 0.42600
 C416 C 0.11612 0.23461 0.43641
 O417 O 0.08207 0.22596 0.42112
 H418 H 0.10408 0.31271 0.38939
 H419 H 0.15695 0.28467 0.43445
 C420 C 0.06726 0.74608 0.60176
 C421 C 0.09689 0.71878 0.59935
 C422 C 0.12236 0.73305 0.57463
 C423 C 0.10663 0.76803 0.56361
 O424 O 0.07300 0.77606 0.57985
 H425 H 0.09948 0.69133 0.61337
 H426 H 0.14935 0.71955 0.56566
 C427 C 0.91992 0.74324 0.39986
 C428 C 0.89006 0.71610 0.40212
 C429 C 0.86367 0.73125 0.42560
 C430 C 0.87910 0.76653 0.43615
 O431 O 0.91339 0.77393 0.42077
 H432 H 0.88784 0.68819 0.38880
 H433 H 0.83641 0.71804 0.43421
 C434 C 0.93277 0.25497 0.60360
 C435 C 0.90429 0.28350 0.60140
 C436 C 0.87693 0.26945 0.57831
 C437 C 0.89047 0.23337 0.56792
 O438 O 0.92456 0.22444 0.58300
 H439 H 0.90364 0.31156 0.61461
 H440 H 0.85022 0.28387 0.56990
 C441 C 0.36681 0.07350 0.22430
 C442 C 0.34924 0.10923 0.23083
 C443 C 0.37441 0.13632 0.21757
 C444 C 0.40514 0.11541 0.20347
 O445 O 0.40072 0.07741 0.20724
 H446 H 0.32214 0.11553 0.24474
 H447 H 0.37108 0.16762 0.21848
 C448 C 0.61871 0.07411 0.77124
 C449 C 0.62743 0.11093 0.75833
 C450 C 0.60128 0.13523 0.77428
 C451 C 0.57856 0.11183 0.79590
 O452 O 0.58894 0.07477 0.79427
 H453 H 0.64887 0.11933 0.73836
 H454 H 0.59851 0.16627 0.77009
 C455 C 0.37963 0.91617 0.75952
 C456 C 0.37084 0.88016 0.74480
 C457 C 0.39519 0.85460 0.76140
 C458 C 0.41672 0.87656 0.78530
 O459 O 0.40739 0.91385 0.78441
 H460 H 0.34957 0.87287 0.72428
 H461 H 0.39725 0.82361 0.75651
 C462 C 0.63233 0.93240 0.22446
 C463 C 0.65122 0.89689 0.22790
 C464 C 0.62658 0.87029 0.21302
 C465 C 0.59487 0.89136 0.20108
 O466 O 0.59817 0.92897 0.20769
 H467 H 0.67890 0.89045 0.24078
 H468 H 0.63085 0.83912 0.21152
 C469 C 0.35760 0.21447 0.94038
 C470 C 0.33959 0.21850 0.90704
 C471 C 0.36606 0.20532 0.88260
 C472 C 0.39796 0.19362 0.90245
 O473 O 0.39303 0.19867 0.93742
 H474 H 0.31154 0.23129 0.90045
 H475 H 0.36291 0.20504 0.85358
 C476 C 0.63212 0.76646 0.93208
 C477 C 0.64711 0.75620 0.89858
 C478 C 0.62124 0.77001 0.87412
 C479 C 0.59263 0.78835 0.89386
 O480 O 0.59902 0.78668 0.92902
 H481 H 0.67350 0.74036 0.89190
 H482 H 0.62286 0.76693 0.84514
 C483 C 0.37836 0.76049 0.07263
 C484 C 0.36779 0.74443 0.10557
 C485 C 0.39356 0.75897 0.12993
 C486 C 0.41770 0.78327 0.11069
 O487 O 0.40879 0.78440 0.07597
 H488 H 0.34484 0.72386 0.11184
 H489 H 0.39463 0.75265 0.15847
 C490 C 0.62251 0.24077 0.07366
 C491 C 0.63486 0.25725 0.10597
 C492 C 0.61025 0.24327 0.13159
 C493 C 0.58506 0.21888 0.11361
 O494 O 0.59218 0.21717 0.07859
 H495 H 0.65822 0.27778 0.11103
 H496 H 0.61052 0.25012 0.16005
 C497 C 0.25916 0.06507 0.60809
 C498 C 0.28151 0.09811 0.61463
 C499 C 0.26758 0.12566 0.59200
 C500 C 0.23754 0.10812 0.57332
 O501 O 0.23233 0.07127 0.58270
 H502 H 0.30574 0.10230 0.63299
 H503 H 0.27790 0.15534 0.58963
 C504 C 0.75311 0.07070 0.38731
 C505 C 0.73302 0.10462 0.37945
 C506 C 0.74619 0.13134 0.40334
 C507 C 0.77339 0.11211 0.42417
 O508 O 0.77772 0.07516 0.41473
 H509 H 0.71021 0.10921 0.35964
 H510 H 0.73686 0.16136 0.40553
 C511 C 0.75486 0.93472 0.62054
 C512 C 0.73536 0.90089 0.62999
 C513 C 0.74694 0.87375 0.60584
 C514 C 0.77268 0.89259 0.58326
 O515 O 0.77765 0.92972 0.59189
 H516 H 0.71372 0.89659 0.65092
 H517 H 0.73741 0.84373 0.60457
 C518 C 0.24067 0.93238 0.38168
 C519 C 0.25930 0.89777 0.37342
 C520 C 0.24539 0.87145 0.39726
 C521 C 0.21918 0.89150 0.41853
 O522 O 0.21614 0.92866 0.40933
 H523 H 0.28176 0.89238 0.35345
 H524 H 0.25370 0.84112 0.39921
 C525 C 0.06864 0.39058 0.74866
 C526 C 0.10253 0.38902 0.72798
 C527 C 0.12772 0.41464 0.74318
 C528 C 0.10814 0.43010 0.77226
 O529 O 0.07217 0.41580 0.77575
 H530 H 0.10878 0.37204 0.70417
 H531 H 0.15730 0.42099 0.73431
 C532 C 0.05843 0.60986 0.25145
 C533 C 0.09354 0.61413 0.26999
 C534 C 0.11948 0.59046 0.25323
 C535 C 0.09905 0.57338 0.22543
 O536 O 0.06193 0.58489 0.22416
 H537 H 0.10026 0.63180 0.29325
 H538 H 0.15003 0.58638 0.26028
 C539 C 0.93386 0.38644 0.25238
 C540 C 0.89919 0.38272 0.27166
 C541 C 0.87317 0.40666 0.25534
 C542 C 0.89316 0.42332 0.22708
 O543 O 0.93005 0.41131 0.22511
 H544 H 0.89283 0.36523 0.29509
 H545 H 0.84283 0.41111 0.26293
 C546 C 0.93489 0.60837 0.74805
 C547 C 0.90121 0.60906 0.72707
 C548 C 0.87623 0.58348 0.74253
 C549 C 0.89575 0.56887 0.77202
 O550 O 0.93150 0.58366 0.77553
 H551 H 0.89495 0.62544 0.70294
 H552 H 0.84680 0.57663 0.73355
 C553 C 0.78569 0.63116 0.92922
 C554 C 0.77304 0.64724 0.89701
 C555 C 0.78428 0.62182 0.87091
 C556 C 0.80323 0.59232 0.88882
 O557 O 0.80425 0.59775 0.92407
 H558 H 0.75544 0.67301 0.89281
 H559 H 0.77840 0.62393 0.84233
 C560 C 0.22871 0.37366 0.92704
 C561 C 0.24277 0.35908 0.89456
 C562 C 0.22982 0.38392 0.86879
 C563 C 0.20825 0.41143 0.88686
 O564 O 0.20729 0.40545 0.92207
 H565 H 0.26105 0.33401 0.88944
 H566 H 0.23561 0.38235 0.84016
 C567 C 0.20926 0.63619 0.06841
 C568 C 0.21259 0.65556 0.10103
 C569 C 0.19928 0.63023 0.12634
 C570 C 0.18820 0.59758 0.10752
 O571 O 0.19403 0.60095 0.07247
 H572 H 0.22491 0.68394 0.10646
 H573 H 0.19860 0.63459 0.15520
 C574 C 0.79000 0.35945 0.06592
 C575 C 0.78662 0.33904 0.09798
 C576 C 0.79827 0.36412 0.12424
 C577 C 0.80852 0.39766 0.10648
 O578 O 0.80377 0.39507 0.07124
 H579 H 0.77528 0.31008 0.10241
 H580 H 0.79846 0.35894 0.15299
 C581 C 0.92396 0.76462 0.62283
 C582 C 0.88870 0.75022 0.63574
 C583 C 0.86088 0.76305 0.61248
 C584 C 0.88082 0.78449 0.58712
 O585 O 0.91908 0.78564 0.59319
 H586 H 0.88360 0.73099 0.65828
 H587 H 0.82974 0.75690 0.61345
 C588 C 0.93093 0.23339 0.38068
 C589 C 0.89523 0.24553 0.36677
 C590 C 0.86767 0.23283 0.39030
 C591 C 0.88811 0.21365 0.41681
 O592 O 0.92650 0.21378 0.41122
 H593 H 0.88951 0.26329 0.34336
 H594 H 0.83632 0.23767 0.38877
 C595 C 0.07679 0.23382 0.62278
 C596 C 0.11235 0.24717 0.63604
 C597 C 0.14002 0.23408 0.61273
 C598 C 0.11976 0.21348 0.58699
 O599 O 0.08139 0.21316 0.59283
 H600 H 0.11786 0.26593 0.65886
 H601 H 0.17127 0.23962 0.61387
 C602 C 0.06129 0.76575 0.37721
 C603 C 0.09722 0.75712 0.36141
 C604 C 0.12488 0.77146 0.38411
 C605 C 0.10438 0.78832 0.41187
 O606 O 0.06587 0.78519 0.40790
 H607 H 0.10342 0.74082 0.33718
 H608 H 0.15641 0.76939 0.38109
 C609 C 0.61303 0.93096 0.75620
 C610 C 0.62085 0.89608 0.73867
 C611 C 0.59807 0.86901 0.75495
 C612 C 0.57807 0.88860 0.78151
 O613 O 0.58694 0.92618 0.78252
 H614 H 0.64048 0.89013 0.71651
 H615 H 0.59632 0.83839 0.74830
 C616 C 0.38811 0.93234 0.24390
 C617 C 0.38499 0.89806 0.26343
 C618 C 0.41025 0.87276 0.24785
 C619 C 0.42707 0.89260 0.21964
 O620 O 0.41382 0.92884 0.21698
 H621 H 0.36702 0.89144 0.28658
 H622 H 0.41568 0.84302 0.25605
 C623 C 0.60923 0.07170 0.24995
 C624 C 0.61115 0.10502 0.27103
 C625 C 0.58637 0.13081 0.25557
 C626 C 0.57102 0.11215 0.22595
 O627 O 0.58470 0.07623 0.22229
 H628 H 0.62801 0.11066 0.29511
 H629 H 0.58032 0.16011 0.26475
 C630 C 0.36942 0.06068 0.77259
 C631 C 0.35471 0.09718 0.76444
 C632 C 0.37962 0.12288 0.78009
 C633 C 0.40765 0.10066 0.79705
 O634 O 0.40160 0.06284 0.79284
 H635 H 0.32954 0.10485 0.74825
 H636 H 0.37778 0.15431 0.77908
 C637 C 0.62623 0.76204 0.06557
 C638 C 0.63099 0.73853 0.09545
 C639 C 0.60424 0.75102 0.11972
 C640 C 0.58474 0.78127 0.10326
 O641 O 0.59782 0.78813 0.07019
 H642 H 0.65057 0.71405 0.09895
 H643 H 0.59929 0.73924 0.14636
 C644 C 0.38482 0.25081 0.06588
 C645 C 0.38879 0.28123 0.08996
 C646 C 0.41479 0.26864 0.11498
 C647 C 0.42505 0.23152 0.10449
 O648 O 0.40712 0.22055 0.07453
 H649 H 0.37485 0.30950 0.08937
 H650 H 0.42503 0.28462 0.13830
 C651 C 0.61254 0.23663 0.94041
 C652 C 0.61476 0.26048 0.91053
 C653 C 0.58738 0.24696 0.88727
 C654 C 0.57013 0.21568 0.90422
 O655 O 0.58514 0.20925 0.93673
 H656 H 0.63321 0.28572 0.90650
 H657 H 0.58068 0.25861 0.86090
 C658 C 0.38145 0.76035 0.93907
 C659 C 0.37699 0.73511 0.91033
 C660 C 0.40360 0.74650 0.88546
 C661 C 0.42263 0.77792 0.90045
 O662 O 0.40952 0.78648 0.93321
 H663 H 0.35758 0.71030 0.90811
 H664 H 0.40867 0.73334 0.85937
 C665 C 0.74073 0.92592 0.39428
 C666 C 0.71613 0.89404 0.39148
 C667 C 0.73048 0.86739 0.41506
 C668 C 0.76284 0.88466 0.43054
 O669 O 0.76914 0.92025 0.41816
 H670 H 0.69018 0.89071 0.37501
 H671 H 0.71855 0.83882 0.42060
 C672 C 0.23920 0.92243 0.61319
 C673 C 0.25607 0.88680 0.62107
 C674 C 0.24173 0.86158 0.59619
 C675 C 0.21699 0.88327 0.57489
 O676 O 0.21534 0.92028 0.58495
 H677 H 0.27776 0.88009 0.64140
 H678 H 0.24886 0.83102 0.59353
 C679 C 0.25581 0.07711 0.38898
 C680 C 0.27984 0.10936 0.38541
 C681 C 0.26555 0.13617 0.40889
 C682 C 0.23383 0.11862 0.42509
 O683 O 0.22783 0.08275 0.41325
 H684 H 0.30544 0.11291 0.36853
 H685 H 0.27722 0.16495 0.41401
 C686 C 0.74395 0.07969 0.61149
 C687 C 0.72063 0.11250 0.61424
 C688 C 0.73624 0.13870 0.59089
 C689 C 0.76802 0.12028 0.57557
 O690 O 0.77279 0.08441 0.58785
 H691 H 0.69472 0.11685 0.63055
 H692 H 0.72547 0.16771 0.58536
 C693 C 0.91485 0.62254 0.23735
 C694 C 0.87785 0.63198 0.25010
 C695 C 0.85273 0.60675 0.23363
 C696 C 0.87604 0.58399 0.21191
 O697 O 0.91357 0.59342 0.21403
 H698 H 0.86993 0.65320 0.27034
 H699 H 0.82138 0.60444 0.23775
 C700 C 0.92641 0.36956 0.76698
 C701 C 0.88994 0.35700 0.75519
 C702 C 0.86342 0.38153 0.77054
 C703 C 0.88538 0.40704 0.79076
 O704 O 0.92346 0.39995 0.78877
 H705 H 0.88310 0.33414 0.73619
 H706 H 0.83194 0.38157 0.76665
 C707 C 0.07640 0.63123 0.76709
 C708 C 0.11289 0.64502 0.75666
 C709 C 0.13947 0.62048 0.77188
 C710 C 0.11751 0.59377 0.79070
 O711 O 0.07938 0.60015 0.78799
 H712 H 0.11977 0.66876 0.73868
 H713 H 0.17104 0.62126 0.76880
 C714 C 0.07674 0.37278 0.23558
 C715 C 0.11399 0.36250 0.24710
 C716 C 0.13885 0.38801 0.23081
 C717 C 0.11517 0.41177 0.21040
 O718 O 0.07764 0.40267 0.21311
 H719 H 0.12231 0.34049 0.26642
 H720 H 0.17035 0.38981 0.23418
   
