data_POSCAR
  _audit_creation_date              2014-09-24
  _audit_creation_method            'ToBaCCo'
  _symmetry_space_group_name_H-M    'P1'
  _symmetry_Int_Tables_number       1
  _symmetry_cell_setting            triclinic
  loop_
  _symmetry_equiv_pos_as_xyz
 x,y,z
_cell_length_a 19.8054
_cell_length_b 22.0520
_cell_length_c 20.9152
_cell_angle_alpha 89.493100
_cell_angle_beta 88.579400
_cell_angle_gamma 91.315600
loop_
  _atom_site_label
  _atom_site_type_symbol
  _atom_site_fract_x
  _atom_site_fract_y
  _atom_site_fract_z
Si1 Si 1.24798 0.25333 0.25480
 Si2 Si 0.75605 -0.24874 0.25725
 Si3 Si 0.73307 0.23375 -0.24705
 Si4 Si 1.24901 -0.26272 -0.24277
 Si5 Si 0.26028 0.25577 0.74426
 Si6 Si 0.74404 0.76068 0.74174
 Si7 Si 0.75711 0.25094 0.25683
 Si8 Si 0.23832 0.74565 0.23523
 N9 N 1.13228 0.07051 0.05561
 N10 N 1.18127 0.11123 0.06313
 N11 N 1.08691 -0.05513 0.10762
 N12 N 1.10271 -0.09788 0.14936
 N13 N 1.12837 -0.05640 0.05775
 N14 N 1.17316 -0.09898 0.06372
 N15 N 1.08758 0.07280 0.10279
 N16 N 1.10533 0.11451 0.14427
 C17 C 1.16343 0.13857 0.11835
 C18 C 1.15671 -0.12477 0.12066
 N19 N 0.89141 -0.05785 0.07954
 N20 N 0.84801 -0.10138 0.09881
 N21 N 0.94009 0.07240 0.11401
 N22 N 0.92764 0.11628 0.15553
 N23 N 0.89228 0.06981 0.07148
 N24 N 0.84749 0.11191 0.08178
 N25 N 0.94207 -0.05456 0.11893
 N26 N 0.93526 -0.09515 0.16501
 Mn27 Mn 1.01412 0.00918 0.11166
 C28 C 0.87704 -0.12429 0.15199
 C29 C 0.86984 0.14075 0.13388
 N30 N 1.11929 -0.05852 -0.07857
 N31 N 1.16172 -0.10176 -0.09295
 N32 N 1.07622 0.06851 -0.12150
 N33 N 1.08646 0.11533 -0.16111
 N34 N 1.12343 0.06820 -0.07869
 N35 N 1.16572 0.11449 -0.08632
 N36 N 1.06928 -0.05891 -0.11846
 N37 N 1.07532 -0.10238 -0.16057
 Mn38 Mn 1.12623 0.00569 -0.01109
 C39 C 1.13287 -0.12873 -0.14396
 C40 C 1.14254 0.14339 -0.13770
 N41 N 0.88401 0.06645 -0.06610
 N42 N 0.83978 0.10905 -0.07786
 N43 N 0.92470 -0.06042 -0.10907
 N44 N 0.90421 -0.09948 -0.15285
 N45 N 0.88206 -0.06126 -0.05984
 N46 N 0.83161 -0.10010 -0.06909
 N47 N 0.93149 0.06727 -0.11102
 N48 N 0.92233 0.11036 -0.15340
 Mn49 Mn 0.88655 0.00403 0.00647
 Mn50 Mn 1.00039 0.00421 -0.11571
 Cl51 Cl 1.00651 0.00567 -0.00201
 C52 C 0.86544 0.13622 -0.13217
 C53 C 0.84646 -0.12456 -0.12662
 N54 N 1.11354 0.55982 0.58599
 N55 N 1.15210 0.60838 0.59276
 N56 N 1.05902 0.42917 0.62125
 N57 N 1.06646 0.38602 0.66412
 N58 N 1.11132 0.43291 0.58157
 N59 N 1.15634 0.39221 0.59688
 N60 N 1.06515 0.55660 0.63000
 N61 N 1.07056 0.60322 0.66921
 C62 C 1.12512 0.63479 0.64472
 C63 C 1.12683 0.36295 0.64799
 N64 N 0.87202 0.43437 0.56651
 N65 N 0.82210 0.39411 0.57250
 N66 N 0.92117 0.55711 0.62382
 N67 N 0.91422 0.59945 0.66713
 N68 N 0.87667 0.56228 0.57876
 N69 N 0.83727 0.60903 0.59113
 N70 N 0.91401 0.42966 0.61384
 N71 N 0.89350 0.38523 0.65334
 Mn72 Mn 0.98977 0.49288 0.62290
 C73 C 0.83648 0.36306 0.62607
 C74 C 0.86200 0.63161 0.64668
 N75 N 1.12378 0.44168 0.44539
 N76 N 1.16905 0.39957 0.43750
 N77 N 1.08369 0.57205 0.40392
 N78 N 1.10497 0.61093 0.35929
 N79 N 1.12772 0.56833 0.44967
 N80 N 1.18032 0.60499 0.43710
 N81 N 1.08301 0.44416 0.39692
 N82 N 1.10012 0.40266 0.35419
 Mn83 Mn 1.11949 0.50073 0.51584
 C84 C 1.15375 0.37507 0.38096
 C85 C 1.16480 0.63169 0.38095
 N86 N 0.88884 0.57133 0.44113
 N87 N 0.84506 0.61449 0.43345
 N88 N 0.93763 0.44671 0.38887
 N89 N 0.93372 0.40481 0.34480
 N90 N 0.88509 0.44393 0.42851
 N91 N 0.84318 0.39948 0.41138
 N92 N 0.93690 0.57403 0.39662
 N93 N 0.92561 0.61943 0.35630
 Mn94 Mn 0.87979 0.50301 0.50360
 Mn95 Mn 1.01023 0.50937 0.39578
 Cl96 Cl 0.99968 0.50150 0.50936
 C97 C 0.86830 0.64448 0.38092
 C98 C 0.87490 0.37567 0.35904
 N99 N 0.60583 0.07011 0.54111
 N100 N 0.65485 0.11070 0.54930
 N101 N 0.57391 -0.05741 0.59712
 N102 N 0.59440 -0.09639 0.64057
 N103 N 0.61475 -0.05689 0.54670
 N104 N 0.66431 -0.09513 0.55469
 N105 N 0.56311 0.06939 0.59017
 N106 N 0.58238 0.10906 0.63318
 C107 C 0.63893 0.13524 0.60650
 C108 C 0.65067 -0.11988 0.61320
 N109 N 0.37986 -0.07821 0.57621
 N110 N 0.34269 -0.12578 0.59592
 N111 N 0.41723 0.05744 0.60782
 N112 N 0.40640 0.10439 0.64566
 N113 N 0.36592 0.04875 0.57008
 N114 N 0.31949 0.08952 0.58052
 N115 N 0.43073 -0.06942 0.61446
 N116 N 0.43023 -0.11062 0.66036
 Mn117 Mn 0.49613 0.00039 0.60294
 C118 C 0.37555 -0.14563 0.64819
 C119 C 0.34508 0.12396 0.62753
 N120 N 0.59946 -0.06128 0.40940
 N121 N 0.64653 -0.10024 0.39354
 N122 N 0.53927 0.06190 0.36724
 N123 N 0.54751 0.10206 0.32003
 N124 N 0.59056 0.06518 0.40579
 N125 N 0.63440 0.10754 0.38640
 N126 N 0.54863 -0.06518 0.37031
 N127 N 0.55949 -0.10732 0.32717
 Mn128 Mn 0.60309 0.00403 0.47562
 C129 C 0.62045 -0.12892 0.34252
 C130 C 0.60685 0.13067 0.33330
 N131 N 0.35017 0.04399 0.43455
 N132 N 0.30140 0.08361 0.43001
 N133 N 0.40377 -0.07791 0.38674
 N134 N 0.38486 -0.11668 0.34225
 N135 N 0.36320 -0.08267 0.43739
 N136 N 0.31538 -0.12424 0.42815
 N137 N 0.39320 0.04982 0.38592
 N138 N 0.37508 0.09401 0.34728
 Mn139 Mn 0.36420 -0.01759 0.50479
 Mn140 Mn 0.47111 -0.00759 0.37685
 Cl141 Cl 0.48358 -0.00532 0.48995
 C142 C 0.31781 0.11485 0.37567
 C143 C 0.33005 -0.14575 0.36910
 N144 N 0.63001 0.55313 0.07660
 N145 N 0.67873 0.59215 0.08954
 N146 N 0.56287 0.42953 0.11826
 N147 N 0.56752 0.39131 0.16664
 N148 N 0.61584 0.42652 0.07943
 N149 N 0.65792 0.38555 0.10078
 N150 N 0.57957 0.55630 0.11819
 N151 N 0.59295 0.59803 0.16128
 C152 C 0.65494 0.61996 0.14202
 C153 C 0.62618 0.36331 0.15470
 N154 N 0.37742 0.44420 0.05838
 N155 N 0.32518 0.40655 0.06670
 N156 N 0.43599 0.56728 0.10733
 N157 N 0.42434 0.60615 0.15335
 N158 N 0.39114 0.57152 0.06221
 N159 N 0.34659 0.61369 0.07801
 N160 N 0.41900 0.44016 0.10615
 N161 N 0.39630 0.39897 0.14806
 Mn162 Mn 0.49919 0.49828 0.11289
 C163 C 0.33810 0.37812 0.12234
 C164 C 0.36913 0.63532 0.13498
 N165 N 0.63124 0.42795 -0.05754
 N166 N 0.67054 0.38092 -0.06310
 N167 N 0.60294 0.55884 -0.10650
 N168 N 0.61996 0.60307 -0.14689
 N169 N 0.64602 0.55546 -0.06007
 N170 N 0.69430 0.59778 -0.06808
 N171 N 0.59078 0.43176 -0.10593
 N172 N 0.60149 0.38734 -0.14632
 Mn173 Mn 0.63149 0.49068 0.00962
 C174 C 0.65104 0.35603 -0.11847
 C175 C 0.67687 0.62738 -0.12246
 N176 N 0.40857 0.57087 -0.07833
 N177 N 0.36511 0.61004 -0.09958
 N178 N 0.44854 0.44080 -0.11807
 N179 N 0.44283 0.39684 -0.15976
 N180 N 0.39464 0.44328 -0.08033
 N181 N 0.34995 0.40052 -0.09665
 N182 N 0.46046 0.56739 -0.11848
 N183 N 0.45390 0.60456 -0.16757
 Mn184 Mn 0.39191 0.50770 -0.00967
 Mn185 Mn 0.52573 0.49973 -0.11257
 Cl186 Cl 0.51180 0.49921 0.00023
 C187 C 0.39466 0.63124 -0.15465
 C188 C 0.38152 0.37188 -0.14632
 C189 C 1.19399 0.19851 0.21028
 C190 C 1.20575 0.18443 0.14943
 H191 H 1.15272 0.17686 0.23746
 H192 H 1.24863 0.20446 0.12323
 C193 C 1.17176 0.69094 0.73270
 C194 C 1.15675 0.68875 0.67141
 H195 H 1.14955 0.65856 0.76680
 H196 H 1.18295 0.71912 0.63774
 C197 C 0.67288 0.18781 0.70216
 C198 C 0.68400 0.17701 0.64039
 H199 H 0.62920 0.16805 0.72737
 H200 H 0.72876 0.19550 0.61589
 C201 C 0.68616 0.69490 0.22986
 C202 C 0.69535 0.66552 0.17429
 H203 H 0.72570 0.72678 0.24595
 H204 H 0.66207 0.67318 0.21527
 C205 C 0.78982 -0.19899 0.18936
 C206 C 0.84908 -0.17099 0.19586
 H207 H 0.75802 -0.18906 0.14944
 H208 H 0.87830 -0.18062 0.23773
 C209 C 0.80268 0.28280 0.70379
 C210 C 0.78792 0.31914 0.65539
 H211 H 0.76295 0.25979 0.72259
 H212 H 0.73664 0.31930 0.63831
 C213 C 0.29650 -0.22671 0.68231
 C214 C 0.35314 -0.19521 0.69123
 H215 H 0.28492 -0.26705 0.70757
 H216 H 0.38182 -0.20287 0.73388
 C217 C 0.30946 0.30406 0.20484
 C218 C 0.29061 0.33512 0.15408
 H219 H 0.27498 0.27746 0.23056
 H220 H 0.23946 0.33077 0.13713
 C221 C 0.76787 0.17928 -0.17982
 C222 C 0.83341 0.18266 -0.16989
 H223 H 0.74344 0.20445 -0.21063
 H224 H 0.86568 0.21320 -0.19850
 C225 C 0.82956 0.70794 0.29143
 C226 C 0.82883 0.69360 0.35326
 H227 H 0.86457 0.68671 0.25843
 H228 H 0.78978 0.71231 0.38390
 C229 C 0.30121 0.20330 0.30673
 C230 C 0.27546 0.16252 0.34853
 H231 H 0.35469 0.20326 0.29449
 H232 H 0.22212 0.16262 0.36112
 C233 C 0.29653 0.68179 -0.19172
 C234 C 0.36186 0.67146 -0.19946
 H235 H 0.26729 0.66081 -0.15270
 H236 H 0.39078 0.69134 -0.23920
 C237 C 1.22443 -0.19899 -0.18280
 C238 C 1.16166 -0.17711 -0.18130
 H239 H 1.23643 -0.23363 -0.21767
 H240 H 1.21124 -0.17601 -0.16008
 C241 C 1.18318 0.30179 0.29704
 C242 C 1.19649 0.32835 0.35199
 H243 H 1.13847 0.31334 0.27123
 H244 H 1.24238 0.31709 0.37617
 C245 C 0.71726 -0.19349 0.31586
 C246 C 0.65472 -0.17525 0.30490
 H247 H 0.74702 -0.17440 0.35379
 H248 H 0.62745 -0.19390 0.26504
 C249 C 0.67536 0.29040 -0.20770
 C250 C 0.68517 0.30525 -0.14734
 H251 H 0.63967 0.31383 -0.23692
 H252 H 0.72326 0.28299 -0.11994
 C253 C 1.19302 0.20215 -0.22620
 C254 C 1.17873 0.19664 -0.16423
 H255 H 1.17066 0.17114 -0.25999
 H256 H 1.20535 0.22512 -0.13079
 C257 C 1.18808 0.69213 0.28699
 C258 C 1.20756 0.67132 0.34643
 H259 H 1.21906 0.71921 0.26080
 H260 H 1.25617 0.68430 0.36531
 C261 C 0.70452 0.19503 0.30536
 C262 C 0.64158 0.17688 0.29217
 H263 H 0.72964 0.17650 0.34630
 H264 H 0.61678 0.19439 0.25055
 C265 C 0.69210 0.70728 -0.20456
 C266 C 0.71670 0.67727 -0.15441
 H267 H 0.64182 0.69644 -0.22077
 H268 H 0.76736 0.68747 -0.13866
 C269 C 0.81278 -0.19246 -0.21480
 C270 C 0.79877 -0.16593 -0.15913
 H271 H 0.77600 -0.21759 -0.23805
 H272 H 0.74910 -0.17295 -0.13716
 C273 C 0.78629 0.30724 0.31828
 C274 C 0.85035 0.32595 0.31893
 H275 H 0.74893 0.32692 0.35003
 H276 H 0.88597 0.30764 0.28446
 C277 C 0.30140 -0.20897 0.27627
 C278 C 0.28870 -0.18805 0.33829
 H279 H 0.34556 -0.19277 0.24914
 H280 H 0.24316 -0.20365 0.36367
 C281 C 0.28978 0.30807 -0.19159
 C282 C 0.35507 0.32137 -0.18517
 H283 H 0.25214 0.33252 -0.16442
 H284 H 0.39140 0.29875 -0.21566
 C285 C 1.18215 -0.19849 0.20469
 C286 C 1.19447 -0.17150 0.14541
 H287 H 1.14144 -0.18323 0.23564
 H288 H 1.23708 -0.18628 0.11655
 C289 C 1.22338 0.30444 0.68284
 C290 C 1.15818 0.31721 0.68766
 H291 H 1.25635 0.32637 0.64717
 H292 H 1.12694 0.29709 0.72581
 C293 C 0.68226 -0.18708 0.70243
 C294 C 0.69484 -0.16403 0.64391
 H295 H 0.63820 -0.17376 0.73008
 H296 H 0.74005 -0.17707 0.61781
 C297 C 0.71253 0.29360 0.18965
 C298 C 0.65589 0.32273 0.20189
 H299 H 0.73620 0.26882 0.22440
 H300 H 0.63211 0.31941 0.24908
 C301 C 0.82976 0.20417 0.22447
 C302 C 0.83064 0.18988 0.16267
 H303 H 0.86353 0.18300 0.25741
 H304 H 0.79322 0.20934 0.13222
 C305 C 0.77735 0.70845 0.67750
 C306 C 0.83695 0.68302 0.68445
 H307 H 0.74377 0.69345 0.64042
 H308 H 0.86740 0.69698 0.72427
 C309 C 0.32473 0.20625 0.70647
 C310 C 0.30664 0.17404 0.65562
 H311 H 0.37158 0.19785 0.73021
 H312 H 0.25803 0.18218 0.63481
 C313 C 0.27775 0.70612 0.16760
 C314 C 0.33901 0.67770 0.17581
 H315 H 0.24844 0.69701 0.12561
 H316 H 0.36473 0.68636 0.22008
   
