data_POSCAR
  _audit_creation_date              2014-09-24
  _audit_creation_method            'ToBaCCo'
  _symmetry_space_group_name_H-M    'P1'
  _symmetry_Int_Tables_number       1
  _symmetry_cell_setting            triclinic
  loop_
  _symmetry_equiv_pos_as_xyz
 x,y,z
_cell_length_a 58.9517
_cell_length_b 58.9435
_cell_length_c 58.9451
_cell_angle_alpha 89.194700
_cell_angle_beta 89.150100
_cell_angle_gamma 89.171400
loop_
  _atom_site_label
  _atom_site_type_symbol
  _atom_site_fract_x
  _atom_site_fract_y
  _atom_site_fract_z
C1 C 0.74777 0.61316 1.02982
 C2 C 0.75880 0.62253 1.01068
 C3 C 0.78043 0.63188 1.01291
 C4 C 0.79081 0.63207 1.03416
 C5 C 0.77977 0.62248 1.05314
 C6 C 0.75831 0.61293 1.05095
 C7 C 0.74771 0.62234 0.98838
 C8 C 0.72570 0.63141 0.98590
 C9 C 0.71510 0.63098 0.96480
 C10 C 0.72630 0.62110 0.94621
 C11 C 0.74815 0.61184 0.94863
 C12 C 0.75892 0.61268 0.96960
 H13 H 0.73116 0.60572 1.02811
 H14 H 0.78893 0.63930 0.99821
 H15 H 0.71698 0.63903 1.00028
 H16 H 0.77581 0.60540 0.97145
 H17 H 0.78785 0.62248 1.06958
 H18 H 0.71802 0.62060 0.92991
 C19 C 0.74401 0.39138 0.47050
 C20 C 0.75514 0.38181 0.48932
 C21 C 0.77711 0.37260 0.48653
 C22 C 0.78771 0.37275 0.46510
 C23 C 0.77658 0.38252 0.44646
 C24 C 0.75478 0.39193 0.44918
 C25 C 0.74380 0.38149 0.51184
 C26 C 0.72201 0.37239 0.51454
 C27 C 0.71132 0.37204 0.53593
 C28 C 0.72219 0.38119 0.55461
 C29 C 0.74381 0.39047 0.55198
 C30 C 0.75468 0.39043 0.53070
 H31 H 0.72713 0.39869 0.47254
 H32 H 0.78572 0.36494 0.50091
 H33 H 0.71358 0.36524 0.50012
 H34 H 0.77140 0.39767 0.52871
 H35 H 0.78480 0.38271 0.42988
 H36 H 0.71388 0.38102 0.57115
 C37 C 0.24351 -0.11042 -0.02954
 C38 C 0.25466 -0.12005 -0.01077
 C39 C 0.27665 -0.12921 -0.01359
 C40 C 0.28727 -0.12894 -0.03503
 C41 C 0.27610 -0.11908 -0.05363
 C42 C 0.25428 -0.10974 -0.05085
 C43 C 0.24334 -0.12040 0.01177
 C44 C 0.22156 -0.12952 0.01450
 C45 C 0.21086 -0.12982 0.03590
 C46 C 0.22175 -0.12059 0.05456
 C47 C 0.24336 -0.11130 0.05188
 C48 C 0.25421 -0.11141 0.03059
 H49 H 0.22663 -0.10314 -0.02745
 H50 H 0.28524 -0.13688 0.00081
 H51 H 0.21316 -0.13669 0.00005
 H52 H 0.27092 -0.10413 0.02858
 H53 H 0.28428 -0.11874 -0.07024
 H54 H 0.21348 -0.12066 0.07113
 C55 C 0.24763 0.11206 0.52914
 C56 C 0.25870 0.12148 0.51006
 C57 C 0.28032 0.13086 0.51240
 C58 C 0.29060 0.13100 0.53367
 C59 C 0.27952 0.12136 0.55258
 C60 C 0.25810 0.11180 0.55029
 C61 C 0.24769 0.12137 0.48772
 C62 C 0.22567 0.13042 0.48521
 C63 C 0.21516 0.13012 0.46407
 C64 C 0.22644 0.12038 0.44545
 C65 C 0.24829 0.11114 0.44789
 C66 C 0.25899 0.11185 0.46892
 H67 H 0.23105 0.10460 0.52742
 H68 H 0.28890 0.13836 0.49779
 H69 H 0.21689 0.13795 0.49960
 H70 H 0.27588 0.10460 0.47078
 H71 H 0.28753 0.12135 0.56903
 H72 H 0.21823 0.11998 0.42912
 C73 C 0.11243 0.52944 0.24743
 C74 C 0.12185 0.51033 0.25846
 C75 C 0.13123 0.51262 0.28007
 C76 C 0.13139 0.53388 0.29041
 C77 C 0.12177 0.55282 0.27940
 C78 C 0.11219 0.55060 0.25796
 C79 C 0.12172 0.48801 0.24740
 C80 C 0.13072 0.48551 0.22535
 C81 C 0.13038 0.46439 0.21479
 C82 C 0.12064 0.44577 0.22605
 C83 C 0.11144 0.44819 0.24793
 C84 C 0.11220 0.46920 0.25868
 H85 H 0.10497 0.52769 0.23084
 H86 H 0.13872 0.49799 0.28862
 H87 H 0.13825 0.49991 0.21658
 H88 H 0.10497 0.47105 0.27559
 H89 H 0.12180 0.56924 0.28750
 H90 H 0.12020 0.42945 0.21781
 C91 C -0.10920 -0.02988 0.24405
 C92 C -0.11868 -0.01099 0.25515
 C93 C -0.12784 -0.01367 0.27716
 C94 C -0.12773 -0.03507 0.28784
 C95 C -0.11803 -0.05378 0.27671
 C96 C -0.10869 -0.05117 0.25487
 C97 C -0.11894 0.01149 0.24375
 C98 C -0.12802 0.01416 0.22194
 C99 C -0.12831 0.03554 0.21120
 C100 C -0.11911 0.05422 0.22206
 C101 C -0.10985 0.05161 0.24369
 C102 C -0.10997 0.03036 0.25459
 H103 H -0.10194 -0.02793 0.22713
 H104 H -0.13542 0.00082 0.28572
 H105 H -0.13519 -0.00030 0.21358
 H106 H -0.10274 0.02840 0.27132
 H107 H -0.11784 -0.07037 0.28493
 H108 H -0.11918 0.07078 0.21376
 C109 C 0.39134 0.47057 0.74435
 C110 C 0.38179 0.48946 0.75538
 C111 C 0.37247 0.48679 0.77733
 C112 C 0.37250 0.46539 0.78802
 C113 C 0.38228 0.44667 0.77695
 C114 C 0.39178 0.44928 0.75518
 C115 C 0.38159 0.51193 0.74397
 C116 C 0.37258 0.51460 0.72214
 C117 C 0.37233 0.53595 0.71139
 C118 C 0.38150 0.55463 0.72225
 C119 C 0.39069 0.55205 0.74390
 C120 C 0.39054 0.53080 0.75483
 H121 H 0.39873 0.47252 0.72749
 H122 H 0.36483 0.50128 0.78582
 H123 H 0.36541 0.50018 0.71372
 H124 H 0.39772 0.52885 0.77158
 H125 H 0.38242 0.43009 0.78519
 H126 H 0.38141 0.57115 0.71389
 C127 C 0.61408 1.02903 0.74855
 C128 C 0.62345 1.00989 0.75955
 C129 C 0.63283 1.01212 0.78117
 C130 C 0.63305 1.03338 0.79155
 C131 C 0.62345 1.05236 0.78053
 C132 C 0.61388 1.05015 0.75910
 C133 C 0.62323 0.98759 0.74845
 C134 C 0.63225 0.98509 0.72641
 C135 C 0.63178 0.96400 0.71580
 C136 C 0.62190 0.94542 0.72701
 C137 C 0.61269 0.94785 0.74888
 C138 C 0.61357 0.96882 0.75967
 H139 H 0.60661 1.02739 0.73197
 H140 H 0.64026 0.99742 0.78966
 H141 H 0.63987 0.99946 0.71769
 H142 H 0.60633 0.97069 0.77657
 H143 H 0.62344 1.06881 0.78856
 H144 H 0.62136 0.92913 0.71872
 C145 C -0.02947 0.24398 -0.10981
 C146 C -0.01074 0.25519 -0.11946
 C147 C -0.01364 0.27718 -0.12860
 C148 C -0.03512 0.28772 -0.12829
 C149 C -0.05367 0.27647 -0.11842
 C150 C -0.05082 0.25466 -0.10910
 C151 C 0.01182 0.24393 -0.11991
 C152 C 0.01454 0.22209 -0.12891
 C153 C 0.03597 0.21146 -0.12932
 C154 C 0.05467 0.22248 -0.12034
 C155 C 0.05201 0.24415 -0.11118
 C156 C 0.03069 0.25493 -0.11116
 H157 H -0.02733 0.22709 -0.10255
 H158 H 0.00071 0.28582 -0.13631
 H159 H 0.00007 0.21360 -0.13590
 H160 H 0.02869 0.27169 -0.10398
 H161 H -0.07031 0.28459 -0.11807
 H162 H 0.07127 0.21427 -0.12051
 C163 C 0.52896 0.24800 0.11193
 C164 C 0.50978 0.25909 0.12116
 C165 C 0.51204 0.28072 0.13055
 C166 C 0.53332 0.29098 0.13090
 C167 C 0.55232 0.27988 0.12147
 C168 C 0.55012 0.25845 0.11189
 C169 C 0.48745 0.24807 0.12085
 C170 C 0.48487 0.22603 0.12984
 C171 C 0.46374 0.21551 0.12936
 C172 C 0.44520 0.22681 0.11951
 C173 C 0.44771 0.24868 0.11034
 C174 C 0.46873 0.25938 0.11123
 H175 H 0.52731 0.23140 0.10446
 H176 H 0.49737 0.28931 0.13790
 H177 H 0.49920 0.21724 0.13745
 H178 H 0.47065 0.27629 0.10403
 H179 H 0.56877 0.28788 0.12163
 H180 H 0.42888 0.21860 0.11899
 C181 C 1.02890 0.74795 0.61394
 C182 C 1.00969 0.75897 0.62317
 C183 C 1.01185 0.78060 0.63256
 C184 C 1.03310 0.79097 0.63292
 C185 C 1.05214 0.77993 0.62347
 C186 C 1.05002 0.75849 0.61389
 C187 C 0.98741 0.74786 0.62282
 C188 C 0.98487 0.72585 0.63188
 C189 C 0.96380 0.71522 0.63130
 C190 C 0.94528 0.72639 0.62128
 C191 C 0.94775 0.74824 0.61203
 C192 C 0.96871 0.75905 0.61302
 H193 H 1.02732 0.73135 0.60646
 H194 H 0.99709 0.78910 0.63989
 H195 H 0.99919 0.71715 0.63960
 H196 H 0.97060 0.77593 0.60575
 H197 H 1.06860 0.78795 0.62358
 H198 H 0.92900 0.71810 0.62066
 C199 C 0.47051 0.74462 0.39119
 C200 C 0.48932 0.75578 0.38163
 C201 C 0.48650 0.77773 0.37239
 C202 C 0.46505 0.78829 0.37251
 C203 C 0.44642 0.77712 0.38227
 C204 C 0.44916 0.75534 0.39170
 C205 C 0.51185 0.74448 0.38131
 C206 C 0.51458 0.72265 0.37230
 C207 C 0.53599 0.71201 0.37191
 C208 C 0.55467 0.72299 0.38093
 C209 C 0.55203 0.74465 0.39012
 C210 C 0.53072 0.75546 0.39011
 H211 H 0.47257 0.72775 0.39850
 H212 H 0.50087 0.78637 0.36473
 H213 H 0.50016 0.71414 0.36524
 H214 H 0.52872 0.77223 0.39727
 H215 H 0.42982 0.78530 0.38242
 H216 H 0.57123 0.71472 0.38073
 C217 C 0.40818 -0.01831 0.27665
 H218 H 0.40918 -0.00081 0.28181
 C219 C 0.41999 -0.03528 0.28862
 H220 H 0.43026 -0.03086 0.30295
 C221 C 0.39255 -0.04574 0.25256
 H222 H 0.38129 -0.04992 0.23902
 C223 C 0.40408 -0.06315 0.26400
 H224 H 0.40183 -0.08059 0.25902
 N225 N 0.39468 -0.02381 0.25906
 C226 C 0.38120 0.03709 0.21828
 H227 H 0.36296 0.03561 0.21745
 C228 C 0.39199 0.05498 0.20708
 H229 H 0.38205 0.06735 0.19759
 C230 C 0.41639 0.02289 0.23192
 H231 H 0.42577 0.01031 0.24161
 C232 C 0.42791 0.04064 0.22094
 H233 H 0.44616 0.04178 0.22227
 Zn234 Zn 0.37614 -0.00093 0.24564
 N235 N 0.39339 0.02170 0.23066
 C236 C 0.35993 0.03502 0.27311
 N237 N 0.35850 0.01238 0.26920
 C238 C 0.34556 -0.00129 0.28278
 C239 C 0.33313 0.00781 0.30096
 C240 C 0.34780 0.04479 0.29107
 C241 C 0.36804 -0.02202 0.20466
 C242 C 0.35554 -0.03183 0.18755
 C243 C 0.32126 -0.02408 0.20927
 C244 C 0.33443 -0.01438 0.22602
 N245 N 0.35742 -0.01381 0.22355
 H246 H 0.37074 0.04554 0.26258
 H247 H 0.34507 -0.01930 0.27956
 H248 H 0.32293 -0.00317 0.31174
 H249 H 0.34912 0.06280 0.29412
 H250 H 0.38631 -0.02105 0.20301
 H251 H 0.36417 -0.03851 0.17267
 H252 H 0.30299 -0.02464 0.21138
 H253 H 0.32627 -0.00735 0.24091
 C254 C 0.41551 0.05690 0.20856
 C255 C 0.41771 -0.05793 0.28235
 C256 C 0.33196 -0.03297 0.18993
 C257 C 0.33431 0.03107 0.30513
 C258 C 0.09083 1.01829 0.78002
 H259 H 0.08954 1.00083 0.78575
 C260 C 0.07914 1.03546 0.79171
 H261 H 0.06871 1.03124 0.80640
 C262 C 0.10700 1.04541 0.75471
 H263 H 0.11842 1.04940 0.74078
 C264 C 0.09562 1.06302 0.76584
 H265 H 0.09813 1.08040 0.76024
 N266 N 0.10453 1.02354 0.76196
 C267 C 0.11730 0.96214 0.72305
 H268 H 0.13560 0.96309 0.72199
 C269 C 0.10619 0.94465 0.71233
 H270 H 0.11595 0.93204 0.70302
 C271 C 0.08225 0.97742 0.73651
 H272 H 0.07304 0.99033 0.74585
 C273 C 0.07041 0.96011 0.72601
 H274 H 0.05208 0.95961 0.72738
 Zn275 Zn 0.12283 1.00038 0.74881
 N276 N 0.10531 0.97790 0.73506
 C277 C 0.13904 0.96450 0.77705
 N278 N 0.14039 0.98711 0.77229
 C279 C 0.15341 1.00090 0.78489
 C280 C 0.16609 0.99194 0.80284
 C281 C 0.15144 0.95487 0.79482
 C282 C 0.13125 1.02125 0.70692
 C283 C 0.14393 1.03096 0.68922
 C284 C 0.17805 1.02277 0.71024
 C285 C 0.16471 1.01319 0.72759
 N286 N 0.14172 1.01292 0.72576
 H287 H 0.12818 0.95389 0.76728
 H288 H 0.15384 1.01889 0.78102
 H289 H 0.17642 1.00301 0.81279
 H290 H 0.15025 0.93686 0.79851
 H291 H 0.11298 1.02052 0.70579
 H292 H 0.13542 1.03778 0.67440
 H293 H 0.19632 1.02313 0.71187
 H294 H 0.17276 1.00604 0.74244
 C295 C 0.08257 0.94353 0.71391
 C296 C 0.08178 1.05805 0.78465
 C297 C 0.16751 1.03184 0.69096
 C298 C 0.16509 0.96870 0.80781
 C299 C 0.59177 0.51862 0.27931
 H300 H 0.59059 0.50113 0.28494
 C301 C 0.58000 0.53566 0.29111
 H302 H 0.56961 0.53129 0.30580
 C303 C 0.60776 0.54598 0.25413
 H304 H 0.61913 0.55011 0.24022
 C305 C 0.59629 0.56346 0.26539
 H306 H 0.59870 0.58089 0.25990
 N307 N 0.60542 0.52406 0.26126
 C308 C 0.61843 0.46286 0.22210
 H309 H 0.63673 0.46384 0.22107
 C310 C 0.60735 0.44540 0.21130
 H311 H 0.61713 0.43283 0.20196
 C312 C 0.58334 0.47807 0.23556
 H313 H 0.57411 0.49094 0.24492
 C314 C 0.57154 0.46079 0.22498
 H315 H 0.55321 0.46028 0.22632
 Zn316 Zn 0.62384 0.50106 0.24801
 N317 N 0.60641 0.47858 0.23414
 C318 C 0.64019 0.46514 0.27614
 N319 N 0.64142 0.48778 0.27146
 C320 C 0.65431 0.50161 0.28415
 C321 C 0.66695 0.49268 0.30214
 C322 C 0.65255 0.45554 0.29396
 C323 C 0.63221 0.52220 0.20623
 C324 C 0.64487 0.53207 0.18862
 C325 C 0.67899 0.52389 0.20964
 C326 C 0.66568 0.51416 0.22691
 N327 N 0.64269 0.51379 0.22504
 H328 H 0.62943 0.45450 0.26630
 H329 H 0.65464 0.51961 0.28032
 H330 H 0.67715 0.50379 0.31217
 H331 H 0.65143 0.43752 0.29761
 H332 H 0.61394 0.52140 0.20508
 H333 H 0.63636 0.53894 0.17382
 H334 H 0.69726 0.52432 0.21129
 H335 H 0.67373 0.50695 0.24173
 C336 C 0.58372 0.44427 0.21284
 C337 C 0.58250 0.55830 0.28419
 C338 C 0.66845 0.53304 0.19040
 C339 C 0.66604 0.46943 0.30706
 C340 C 0.90826 0.48092 0.77816
 H341 H 0.90937 0.49838 0.78341
 C342 C 0.92001 0.46382 0.79003
 H343 H 0.93033 0.46811 0.80435
 C344 C 0.89244 0.45372 0.75395
 H345 H 0.88115 0.44967 0.74040
 C346 C 0.90390 0.43618 0.76527
 H347 H 0.90156 0.41879 0.76019
 N348 N 0.89471 0.47560 0.76056
 C349 C 0.88154 0.53672 0.72001
 H350 H 0.86330 0.53527 0.71914
 C351 C 0.89239 0.55462 0.70889
 H352 H 0.88248 0.56704 0.69942
 C353 C 0.91668 0.52241 0.73367
 H354 H 0.92601 0.50977 0.74334
 C355 C 0.92825 0.54017 0.72278
 H356 H 0.94650 0.54127 0.72415
 Zn357 Zn 0.87630 0.49863 0.74721
 N358 N 0.89368 0.52126 0.73236
 C359 C 0.86023 0.53456 0.77477
 N360 N 0.85866 0.51195 0.77077
 C361 C 0.84552 0.49834 0.78421
 C362 C 0.83302 0.50748 0.80233
 C363 C 0.84803 0.54437 0.79266
 C364 C 0.86825 0.47781 0.70609
 C365 C 0.85577 0.46821 0.68885
 C366 C 0.82144 0.47604 0.71045
 C367 C 0.83459 0.48553 0.72734
 N368 N 0.85759 0.48597 0.72499
 H369 H 0.87119 0.54503 0.76434
 H370 H 0.84491 0.48034 0.78093
 H371 H 0.82264 0.49656 0.81300
 H372 H 0.84946 0.56236 0.79575
 H373 H 0.88653 0.47868 0.70454
 H374 H 0.86443 0.46159 0.67396
 H375 H 0.80316 0.47560 0.71246
 H376 H 0.82640 0.49252 0.74223
 C377 C 0.91590 0.55649 0.71042
 C378 C 0.91760 0.44122 0.78362
 C379 C 0.83217 0.46723 0.69109
 C380 C 0.83432 0.53072 0.80656
 C381 C 0.27737 0.40927 -0.01948
 H382 H 0.28256 0.41026 -0.00200
 C383 C 0.28934 0.42108 -0.03647
 H384 H 0.30369 0.43133 -0.03207
 C385 C 0.25320 0.39370 -0.04686
 H386 H 0.23963 0.38247 -0.05103
 C387 C 0.26463 0.40523 -0.06429
 H388 H 0.25961 0.40300 -0.08172
 N389 N 0.25975 0.39580 -0.02495
 C390 C 0.21896 0.38236 0.03597
 H391 H 0.21806 0.36412 0.03445
 C392 C 0.20780 0.39315 0.05390
 H393 H 0.19828 0.38321 0.06626
 C394 C 0.23273 0.41753 0.02186
 H395 H 0.24245 0.42690 0.00929
 C396 C 0.22180 0.42905 0.03964
 H397 H 0.22321 0.44729 0.04084
 Zn398 Zn 0.24630 0.37727 -0.00207
 N399 N 0.23138 0.39454 0.02060
 C400 C 0.27372 0.36095 0.03384
 N401 N 0.26981 0.35956 0.01120
 C402 C 0.28334 0.34658 -0.00249
 C403 C 0.30145 0.33405 0.00660
 C404 C 0.29160 0.34872 0.04359
 C405 C 0.20527 0.36929 -0.02309
 C406 C 0.18812 0.35683 -0.03290
 C407 C 0.20976 0.32250 -0.02523
 C408 C 0.22655 0.33562 -0.01554
 N409 N 0.22414 0.35862 -0.01494
 H410 H 0.26322 0.37179 0.04438
 H411 H 0.28013 0.34612 -0.02050
 H412 H 0.31218 0.32380 -0.00439
 H413 H 0.29463 0.35000 0.06161
 H414 H 0.20368 0.38756 -0.02210
 H415 H 0.17326 0.36550 -0.03953
 H416 H 0.21182 0.30422 -0.02582
 H417 H 0.24142 0.32742 -0.00854
 C418 C 0.20937 0.41666 0.05588
 C419 C 0.28301 0.41883 -0.05910
 C420 C 0.19044 0.33324 -0.03407
 C421 C 0.30559 0.33517 0.02986
 C422 C 0.78014 0.09089 1.01874
 H423 H 0.78581 0.08965 1.00126
 C424 C 0.79188 0.07914 1.03582
 H425 H 0.80655 0.06870 1.03149
 C426 C 0.75495 0.10700 1.04603
 H427 H 0.74106 0.11841 1.05012
 C428 C 0.76614 0.09554 1.06355
 H429 H 0.76062 0.09801 1.08096
 N430 N 0.76212 0.10459 1.02413
 C431 C 0.72301 0.11755 0.96293
 H432 H 0.72196 0.13585 0.96395
 C433 C 0.71226 0.10649 0.94543
 H434 H 0.70292 0.11628 0.93288
 C435 C 0.73652 0.08245 0.97804
 H436 H 0.74589 0.07320 0.99088
 C437 C 0.72598 0.07066 0.96072
 H438 H 0.72736 0.05233 0.96014
 Zn439 Zn 0.74891 0.12297 1.00108
 N440 N 0.73506 0.10551 0.97861
 C441 C 0.77706 0.13920 0.96512
 N442 N 0.77238 0.14053 0.98776
 C443 C 0.78505 0.15351 1.00152
 C444 C 0.80300 0.16616 0.99251
 C445 C 0.79484 0.15157 0.95545
 C446 C 0.70711 0.13138 1.02216
 C447 C 0.68945 0.14406 1.03193
 C448 C 0.71047 0.17818 1.02370
 C449 C 0.72778 0.16485 1.01406
 N450 N 0.72593 0.14185 1.01376
 H451 H 0.76723 0.12837 0.95454
 H452 H 0.78123 0.15392 1.01952
 H453 H 0.81302 0.17645 1.00356
 H454 H 0.79848 0.15039 0.93743
 H455 H 0.70597 0.11310 1.02140
 H456 H 0.67463 0.13555 1.03879
 H457 H 0.71210 0.19645 1.02407
 H458 H 0.74262 0.17290 1.00686
 C459 C 0.71384 0.08286 0.94422
 C460 C 0.78491 0.08170 1.05845
 C461 C 0.69120 0.16765 1.03282
 C462 C 0.80791 0.16517 0.96926
 C463 C 0.27958 0.59186 0.51823
 H464 H 0.28518 0.59075 0.50071
 C465 C 0.29142 0.58005 0.53519
 H466 H 0.30611 0.56970 0.53075
 C467 C 0.25443 0.60773 0.54570
 H468 H 0.24051 0.61907 0.54991
 C469 C 0.26572 0.59621 0.56311
 H470 H 0.26026 0.59856 0.58056
 N471 N 0.26152 0.60546 0.52376
 C472 C 0.22217 0.61864 0.46275
 H473 H 0.22109 0.63693 0.46383
 C474 C 0.21138 0.60761 0.44525
 H475 H 0.20198 0.61742 0.43277
 C476 C 0.23578 0.58351 0.47772
 H477 H 0.24521 0.57424 0.49050
 C478 C 0.22521 0.57176 0.46040
 H479 H 0.22661 0.55344 0.45977
 Zn480 Zn 0.24819 0.62394 0.50086
 N481 N 0.23429 0.60657 0.47836
 C482 C 0.27621 0.64043 0.46491
 N483 N 0.27159 0.64161 0.48757
 C484 C 0.28431 0.65447 0.50138
 C485 C 0.30228 0.66714 0.49242
 C486 C 0.29400 0.65281 0.45528
 C487 C 0.20646 0.63216 0.52215
 C488 C 0.18886 0.64474 0.53217
 C489 C 0.20983 0.67894 0.52415
 C490 C 0.22708 0.66570 0.51426
 N491 N 0.22524 0.64272 0.51376
 H492 H 0.26633 0.62968 0.45428
 H493 H 0.28055 0.65477 0.51940
 H494 H 0.31236 0.67731 0.50352
 H495 H 0.29760 0.65173 0.43724
 H496 H 0.20532 0.61390 0.52124
 H497 H 0.17410 0.63616 0.53904
 H498 H 0.21147 0.69720 0.52470
 H499 H 0.24189 0.67382 0.50707
 C500 C 0.21299 0.58399 0.44398
 C501 C 0.28453 0.58247 0.55786
 C502 C 0.19063 0.66831 0.53329
 C503 C 0.30714 0.66627 0.46915
 C504 C 0.77827 0.90902 0.48102
 H505 H 0.78352 0.91002 0.49848
 C506 C 0.79020 0.92078 0.46396
 H507 H 0.80459 0.93101 0.46829
 C508 C 0.75396 0.89345 0.45375
 H509 H 0.74035 0.88225 0.44965
 C510 C 0.76535 0.90493 0.43626
 H511 H 0.76025 0.90270 0.41886
 N512 N 0.76059 0.89558 0.47564
 C513 C 0.71993 0.88226 0.53668
 H514 H 0.71896 0.86404 0.53512
 C515 C 0.70886 0.89306 0.55465
 H516 H 0.69933 0.88314 0.56701
 C517 C 0.73381 0.91741 0.52259
 H518 H 0.74354 0.92677 0.51002
 C519 C 0.72296 0.92893 0.54043
 H520 H 0.72444 0.94717 0.54165
 Zn521 Zn 0.74715 0.87711 0.49858
 N522 N 0.73236 0.89443 0.52130
 C523 C 0.77460 0.86070 0.53443
 N524 N 0.77063 0.85931 0.51179
 C525 C 0.78405 0.84623 0.49809
 C526 C 0.80210 0.83359 0.50717
 C527 C 0.79242 0.84836 0.54416
 C528 C 0.70602 0.86930 0.47771
 C529 C 0.68877 0.85691 0.46799
 C530 C 0.71028 0.82249 0.47559
 C531 C 0.72717 0.83554 0.48520
 N532 N 0.72488 0.85854 0.48580
 H533 H 0.76419 0.87162 0.54497
 H534 H 0.78080 0.84576 0.48009
 H535 H 0.81274 0.82324 0.49617
 H536 H 0.79549 0.84964 0.56217
 H537 H 0.70451 0.88757 0.47870
 H538 H 0.67392 0.86565 0.46141
 H539 H 0.71225 0.80420 0.47501
 H540 H 0.74204 0.82726 0.49215
 C541 C 0.71053 0.91656 0.55667
 C542 C 0.78378 0.91851 0.44136
 C543 C 0.69097 0.83332 0.46682
 C544 C 0.80629 0.83470 0.53042
 C545 C -0.01852 0.27754 0.40814
 H546 H -0.00104 0.28273 0.40919
 C547 C -0.03555 0.28947 0.41994
 H548 H -0.03119 0.30381 0.43023
 C549 C -0.04584 0.25338 0.39244
 H550 H -0.04996 0.23982 0.38118
 C551 C -0.06331 0.26478 0.40395
 H552 H -0.08072 0.25974 0.40168
 N553 N -0.02394 0.25993 0.39463
 C554 C 0.03707 0.21920 0.38142
 H555 H 0.03565 0.21832 0.36317
 C556 C 0.05492 0.20804 0.39229
 H557 H 0.06734 0.19853 0.38240
 C558 C 0.02272 0.23291 0.41655
 H559 H 0.01009 0.24260 0.42587
 C560 C 0.04043 0.22197 0.42814
 H561 H 0.04150 0.22334 0.44640
 Zn562 Zn -0.00098 0.24649 0.37618
 N563 N 0.02162 0.23159 0.39354
 C564 C 0.03499 0.27395 0.36002
 N565 N 0.01237 0.26999 0.35851
 C566 C -0.00126 0.28348 0.34544
 C567 C 0.00787 0.30160 0.33296
 C568 C 0.04478 0.29184 0.34783
 C569 C -0.02193 0.20543 0.36816
 C570 C -0.03162 0.18822 0.35568
 C571 C -0.02377 0.20979 0.32135
 C572 C -0.01421 0.22664 0.33449
 N573 N -0.01373 0.22429 0.35749
 H574 H 0.04547 0.26348 0.37092
 H575 H -0.01926 0.28024 0.34489
 H576 H -0.00307 0.31231 0.32264
 H577 H 0.06278 0.29491 0.34921
 H578 H -0.02104 0.20388 0.38643
 H579 H -0.03827 0.17336 0.36434
 H580 H -0.02425 0.21180 0.30306
 H581 H -0.00718 0.24151 0.32629
 C582 C 0.05675 0.20957 0.41582
 C583 C -0.05817 0.28313 0.41761
 C584 C -0.03263 0.19047 0.33208
 C585 C 0.03112 0.30580 0.33420
 C586 C 1.01824 0.77893 0.09143
 H587 H 1.00077 0.78461 0.09020
 C588 C 1.03534 0.79064 0.07967
 H589 H 1.03104 0.80529 0.06922
 C590 C 1.04549 0.75372 0.10755
 H591 H 1.04956 0.73983 0.11897
 C592 C 1.06302 0.76487 0.09607
 H593 H 1.08043 0.75933 0.09853
 N594 N 1.02359 0.76091 0.10514
 C595 C 0.96236 0.72183 0.11818
 H596 H 0.96339 0.72079 0.13648
 C597 C 0.94485 0.71108 0.10714
 H598 H 0.93230 0.70176 0.11695
 C599 C 0.97747 0.73531 0.08306
 H600 H 0.99031 0.74469 0.07380
 C601 C 0.96013 0.72478 0.07130
 H602 H 0.95955 0.72616 0.05297
 Zn603 Zn 1.00053 0.74773 0.12355
 N604 N 0.97805 0.73387 0.10612
 C605 C 0.96459 0.77591 0.13980
 N606 N 0.98723 0.77123 0.14110
 C607 C 1.00099 0.78391 0.15407
 C608 C 0.99199 0.80186 0.16674
 C609 C 0.95492 0.79368 0.15218
 C610 C 1.02157 0.70593 0.13196
 C611 C 1.03140 0.68830 0.14463
 C612 C 1.02325 0.70938 0.17875
 C613 C 1.01356 0.72666 0.16542
 N614 N 1.01321 0.72477 0.14244
 H615 H 0.95401 0.76607 0.12898
 H616 H 1.01899 0.78010 0.15446
 H617 H 1.00304 0.81188 0.17702
 H618 H 0.93690 0.79731 0.15102
 H619 H 1.02077 0.70475 0.11369
 H620 H 1.03824 0.67347 0.13612
 H621 H 1.02368 0.71105 0.19701
 H622 H 1.00639 0.74151 0.17347
 C623 C 0.94363 0.71266 0.08352
 C624 C 1.05795 0.78364 0.08222
 C625 C 1.03236 0.69010 0.16821
 C626 C 0.96873 0.80676 0.16577
 C627 C 0.51825 0.27919 0.59210
 H628 H 0.50075 0.28482 0.59098
 C629 C 0.53524 0.29099 0.58028
 H630 H 0.53083 0.30566 0.56989
 C631 C 0.54566 0.25404 0.60802
 H632 H 0.54983 0.24014 0.61938
 C633 C 0.56310 0.26529 0.59648
 H634 H 0.58054 0.25980 0.59884
 N635 N 0.52373 0.26116 0.60574
 C636 C 0.46261 0.22195 0.61890
 H637 H 0.46363 0.22093 0.63720
 C638 C 0.44514 0.21116 0.60785
 H639 H 0.43260 0.20181 0.61766
 C640 C 0.47774 0.23542 0.58378
 H641 H 0.49058 0.24480 0.57452
 C642 C 0.46044 0.22484 0.57201
 H643 H 0.45989 0.22618 0.55368
 Zn644 Zn 0.50079 0.24790 0.62422
 N645 N 0.47829 0.23401 0.60684
 C646 C 0.46487 0.27601 0.64068
 N647 N 0.48752 0.27135 0.64184
 C648 C 0.50136 0.28406 0.65470
 C649 C 0.49243 0.30203 0.66739
 C650 C 0.45527 0.29381 0.65309
 C651 C 0.52200 0.20615 0.63255
 C652 C 0.53194 0.18856 0.64518
 C653 C 0.52382 0.20961 0.67932
 C654 C 0.51402 0.22685 0.66603
 N655 N 0.51360 0.22496 0.64305
 H656 H 0.45423 0.26615 0.62993
 H657 H 0.51936 0.28026 0.65499
 H658 H 0.50354 0.31208 0.67758
 H659 H 0.43724 0.29743 0.65203
 H660 H 0.52115 0.20497 0.61428
 H661 H 0.53882 0.17377 0.63665
 H662 H 0.52430 0.21129 0.69758
 H663 H 0.50681 0.24167 0.67410
 C664 C 0.44395 0.21270 0.58422
 C665 C 0.55789 0.28407 0.58270
 C666 C 0.53297 0.19037 0.66876
 C667 C 0.46917 0.30692 0.66656
 C668 C 0.48088 0.77786 0.90895
 H669 H 0.49833 0.78313 0.91015
 C670 C 0.46371 0.78970 0.92066
 H671 H 0.46793 0.80402 0.93103
 C672 C 0.45379 0.75364 0.89297
 H673 H 0.44981 0.74010 0.88163
 C674 C 0.43619 0.76494 0.90438
 H675 H 0.41882 0.75984 0.90196
 N676 N 0.47564 0.76027 0.89534
 C677 C 0.53680 0.71967 0.88240
 H678 H 0.53542 0.71877 0.86416
 C679 C 0.55466 0.70855 0.89331
 H680 H 0.56711 0.69905 0.88345
 C681 C 0.52238 0.73340 0.91749
 H682 H 0.50972 0.74309 0.92678
 C683 C 0.54010 0.72250 0.92912
 H684 H 0.54115 0.72390 0.94738
 Zn685 Zn 0.49877 0.74692 0.87702
 N686 N 0.52131 0.73205 0.89449
 C687 C 0.53479 0.77442 0.86111
 N688 N 0.51218 0.77047 0.85946
 C689 C 0.49865 0.78394 0.84628
 C690 C 0.50787 0.80202 0.83380
 C691 C 0.54467 0.79228 0.84894
 C692 C 0.47801 0.70581 0.86881
 C693 C 0.46842 0.68860 0.85626
 C694 C 0.47638 0.71025 0.82200
 C695 C 0.48583 0.72710 0.83522
 N696 N 0.48620 0.72471 0.85822
 H697 H 0.54520 0.76398 0.87210
 H698 H 0.48065 0.78069 0.84561
 H699 H 0.49701 0.81270 0.82337
 H700 H 0.56267 0.79533 0.85042
 H701 H 0.47881 0.70423 0.88709
 H702 H 0.46177 0.67370 0.86487
 H703 H 0.47598 0.71229 0.80372
 H704 H 0.49286 0.74200 0.82708
 C705 C 0.55646 0.71011 0.91684
 C706 C 0.44114 0.78327 0.91814
 C707 C 0.46751 0.69089 0.83266
 C708 C 0.53111 0.80620 0.83517
 C709 C 0.45423 -0.15035 0.34136
 N710 N 0.44166 -0.13398 0.35177
 N711 N 0.43613 -0.11488 0.34068
 C712 C 0.44304 -0.11154 0.31885
 N713 N 0.45568 -0.12787 0.30847
 N714 N 0.46121 -0.14698 0.31956
 C715 C 0.45872 -0.17161 0.35271
 C716 C 0.46189 -0.18976 0.36192
 C717 C 0.43531 -0.09195 0.30628
 C718 C 0.42785 -0.07608 0.29548
 C719 C 0.95410 0.34819 0.84169
 N720 N 0.94141 0.36438 0.85223
 N721 N 0.93587 0.38360 0.84135
 C722 C 0.94289 0.38724 0.81960
 N723 N 0.95566 0.37108 0.80908
 N724 N 0.96119 0.35186 0.81997
 C725 C 0.95862 0.32681 0.85281
 C726 C 0.96181 0.30857 0.86183
 C727 C 0.93517 0.40696 0.80724
 C728 C 0.92772 0.42294 0.79659
 C729 C 0.04609 1.15119 0.84145
 N730 N 0.03956 1.14801 0.81977
 N731 N 0.04489 1.12879 0.80917
 C732 C 0.05687 1.11215 0.81993
 N733 N 0.06334 1.11530 0.84164
 N734 N 0.05800 1.13452 0.85224
 C735 C 0.04181 1.17252 0.85227
 C736 C 0.03882 1.19070 0.86106
 C737 C 0.06443 1.09240 0.80784
 C738 C 0.07177 1.07638 0.79741
 C739 C 0.54642 0.65080 0.34178
 N740 N 0.53980 0.64772 0.32011
 N741 N 0.54522 0.62862 0.30934
 C742 C 0.55738 0.61199 0.31992
 N743 N 0.56393 0.61503 0.34162
 N744 N 0.55851 0.63414 0.35239
 C745 C 0.54207 0.67203 0.35276
 C746 C 0.53902 0.69013 0.36167
 C747 C 0.56502 0.59239 0.30766
 C748 C 0.57242 0.57649 0.29708
 C749 C 0.54346 0.35164 0.16134
 N750 N 0.55003 0.36998 0.14889
 N751 N 0.55598 0.38899 0.15909
 C752 C 0.55551 0.39025 0.18205
 N753 N 0.54885 0.37193 0.19450
 N754 N 0.54290 0.35292 0.18430
 C755 C 0.53894 0.33058 0.15046
 C756 C 0.53597 0.31265 0.14145
 C757 C 0.56408 0.40986 0.19304
 C758 C 0.57240 0.42585 0.20216
 C759 C 0.04266 0.85060 0.66271
 N760 N 0.04899 0.86900 0.65022
 N761 N 0.05480 0.88808 0.66037
 C762 C 0.05445 0.88935 0.68333
 N763 N 0.04804 0.87097 0.69583
 N764 N 0.04221 0.85190 0.68567
 C765 C 0.03832 0.82948 0.65188
 C766 C 0.03550 0.81150 0.64290
 C767 C 0.06294 0.90904 0.69426
 C768 C 0.07124 0.92508 0.70332
 C769 C 0.95384 0.65280 0.66020
 N770 N 0.95512 0.65000 0.68302
 N771 N 0.94966 0.63027 0.69282
 C772 C 0.94282 0.61271 0.68009
 N773 N 0.94162 0.61549 0.65725
 N774 N 0.94708 0.63523 0.64745
 C775 C 0.95807 0.67455 0.64985
 C776 C 0.96097 0.69300 0.64130
 C777 C 0.93478 0.59228 0.69080
 C778 C 0.92686 0.57563 0.69978
 C779 C 0.45360 0.15309 0.15818
 N780 N 0.45515 0.15019 0.18097
 N781 N 0.44962 0.13048 0.19078
 C782 C 0.44242 0.11305 0.17808
 N783 N 0.44095 0.11592 0.15527
 N784 N 0.44648 0.13563 0.14547
 C785 C 0.45791 0.17482 0.14785
 C786 C 0.46086 0.19328 0.13932
 C787 C 0.43435 0.09265 0.18882
 C788 C 0.42643 0.07602 0.19785
 C789 C 0.34190 0.45514 -0.15171
 N790 N 0.35241 0.44286 -0.13521
 N791 N 0.34134 0.43741 -0.11606
 C792 C 0.31944 0.44410 -0.11282
 N793 N 0.30895 0.45645 -0.12929
 N794 N 0.32002 0.46191 -0.14843
 C795 C 0.35323 0.45951 -0.17302
 C796 C 0.36243 0.46254 -0.19120
 C797 C 0.30690 0.43640 -0.09318
 C798 C 0.29613 0.42896 -0.07728
 C799 C 0.84212 0.95469 0.34835
 N800 N 0.85269 0.94227 0.36471
 N801 N 0.84176 0.93684 0.38394
 C802 C 0.81993 0.94369 0.38741
 N803 N 0.80939 0.95617 0.37108
 N804 N 0.82032 0.96161 0.35185
 C805 C 0.85329 0.95904 0.32695
 C806 C 0.86236 0.96207 0.30871
 C807 C 0.80752 0.93602 0.40714
 C808 C 0.79682 0.92860 0.42311
 C809 C 0.84214 0.04567 1.15113
 N810 N 0.82037 0.03931 1.14814
 N811 N 0.80967 0.04471 1.12901
 C812 C 0.82041 0.05658 1.11226
 N813 N 0.84219 0.06287 1.11523
 N814 N 0.85290 0.05747 1.13436
 C815 C 0.85307 0.04136 1.17239
 C816 C 0.86196 0.03837 1.19050
 C817 C 0.80823 0.06422 1.09262
 C818 C 0.79773 0.07162 1.07668
 C819 C 0.34218 0.54629 0.65020
 N820 N 0.32048 0.53975 0.64719
 N821 N 0.30970 0.54516 0.62810
 C822 C 0.32031 0.55725 0.61143
 N823 N 0.34204 0.56373 0.61441
 N824 N 0.35282 0.55831 0.63350
 C825 C 0.35317 0.54196 0.67143
 C826 C 0.36208 0.53893 0.68952
 C827 C 0.30804 0.56492 0.59185
 C828 C 0.29746 0.57234 0.57599
 C829 C 0.16172 0.54401 0.35111
 N830 N 0.14922 0.55052 0.36946
 N831 N 0.15938 0.55642 0.38850
 C832 C 0.18233 0.55596 0.38979
 N833 N 0.19482 0.54936 0.37147
 N834 N 0.18467 0.54346 0.35243
 C835 C 0.15088 0.53951 0.33003
 C836 C 0.14191 0.53655 0.31208
 C837 C 0.19327 0.56447 0.40946
 C838 C 0.20235 0.57274 0.42551
 C839 C 0.66273 0.04309 0.85119
 N840 N 0.65021 0.04952 0.86955
 N841 N 0.66033 0.05534 0.88864
 C842 C 0.68328 0.05487 0.88997
 N843 N 0.69580 0.04835 0.87164
 N844 N 0.68568 0.04253 0.85255
 C845 C 0.65193 0.03871 0.83007
 C846 C 0.64299 0.03585 0.81208
 C847 C 0.69419 0.06333 0.90968
 C848 C 0.70324 0.07159 0.92574
 C849 C 0.66057 0.95421 0.65328
 N850 N 0.64778 0.94758 0.63569
 N851 N 0.65753 0.94218 0.61591
 C852 C 0.68037 0.94330 0.61310
 N853 N 0.69315 0.95000 0.63067
 N854 N 0.68340 0.95540 0.65044
 C855 C 0.65026 0.95837 0.67506
 C856 C 0.64175 0.96122 0.69355
 C857 C 0.69102 0.93533 0.59260
 C858 C 0.69995 0.92745 0.57589
 C859 C 0.15918 0.45452 0.15230
 N860 N 0.14643 0.44767 0.13477
 N861 N 0.15621 0.44221 0.11502
 C862 C 0.17904 0.44348 0.11218
 N863 N 0.19178 0.45042 0.12968
 N864 N 0.18200 0.45588 0.14943
 C865 C 0.14886 0.45874 0.17406
 C866 C 0.14034 0.46161 0.19254
 C867 C 0.18974 0.43546 0.09173
 C868 C 0.19872 0.42756 0.07505
 C869 C -0.15082 0.34177 0.45428
 N870 N -0.14740 0.31994 0.46114
 N871 N -0.12826 0.30892 0.45558
 C872 C -0.11193 0.31941 0.44303
 N873 N -0.11531 0.34127 0.43624
 N874 N -0.13446 0.35228 0.44180
 C875 C -0.17213 0.35304 0.45879
 C876 C -0.19030 0.36220 0.46196
 C877 C -0.09229 0.30693 0.43526
 C878 C -0.07637 0.29619 0.42777
 C879 C 0.34781 0.84110 0.95441
 N880 N 0.35141 0.81931 0.96128
 N881 N 0.37068 0.80847 0.95580
 C882 C 0.38696 0.81911 0.94332
 N883 N 0.38340 0.84093 0.93651
 N884 N 0.36413 0.85177 0.94199
 C885 C 0.32640 0.85219 0.95885
 C886 C 0.30814 0.86120 0.96198
 C887 C 0.40675 0.80681 0.93563
 C888 C 0.42280 0.79620 0.92822
 C889 C 1.15077 0.84067 0.04614
 N890 N 1.14777 0.81888 0.03987
 N891 N 1.12862 0.80821 0.04527
 C892 C 1.11185 0.81902 0.05706
 N893 N 1.11482 0.84084 0.06326
 N894 N 1.13398 0.85151 0.05786
 C895 C 1.17204 0.85158 0.04180
 C896 C 1.19016 0.86045 0.03878
 C897 C 1.09217 0.80689 0.06471
 C898 C 1.07621 0.79642 0.07212
 C899 C 0.65023 0.34171 0.54637
 N900 N 0.64734 0.31991 0.54007
 N901 N 0.62827 0.30911 0.54552
 C902 C 0.61149 0.31979 0.55740
 N903 N 0.61434 0.34162 0.56363
 N904 N 0.63341 0.35242 0.55818
 C905 C 0.67142 0.35275 0.54200
 C906 C 0.68948 0.36171 0.53895
 C907 C 0.59191 0.30753 0.56510
 C908 C 0.57604 0.29696 0.57256
 C909 C 0.35125 0.16133 0.54400
 N910 N 0.36954 0.14885 0.55066
 N911 N 0.38856 0.15901 0.55662
 C912 C 0.38988 0.18197 0.55608
 N913 N 0.37161 0.19445 0.54934
 N914 N 0.35260 0.18428 0.54337
 C915 C 0.33019 0.15049 0.53943
 C916 C 0.31226 0.14152 0.53641
 C917 C 0.40951 0.19293 0.56464
 C918 C 0.42552 0.20203 0.57294
 C919 C 0.85050 0.66166 0.04383
 N920 N 0.86882 0.64911 0.05030
 N921 N 0.88792 0.65920 0.05610
 C922 C 0.88931 0.68216 0.05559
 N923 N 0.87103 0.69470 0.04904
 N924 N 0.85192 0.68461 0.04323
 C925 C 0.82935 0.65090 0.03947
 C926 C 0.81135 0.64198 0.03662
 C927 C 0.90904 0.69304 0.06403
 C928 C 0.92513 0.70207 0.07227
 C929 C 0.65268 0.65992 0.95494
 N930 N 0.64992 0.68276 0.95610
 N931 N 0.63019 0.69256 0.95063
 C932 C 0.61261 0.67981 0.94389
 N933 N 0.61535 0.65696 0.94281
 N934 N 0.63508 0.64716 0.94828
 C935 C 0.67442 0.64956 0.95916
 C936 C 0.69288 0.64100 0.96203
 C937 C 0.59219 0.69052 0.93582
 C938 C 0.57556 0.69949 0.92785
 C939 C 0.15280 0.15912 0.45407
 N940 N 0.13524 0.14641 0.44722
 N941 N 0.11555 0.15626 0.44168
 C942 C 0.11280 0.17910 0.44289
 N943 N 0.13034 0.19179 0.44982
 N944 N 0.15003 0.18195 0.45536
 C945 C 0.17451 0.14873 0.45834
 C946 C 0.19295 0.14015 0.46126
 C947 C 0.09243 0.18986 0.43478
 C948 C 0.07583 0.19888 0.42681
 C949 C 0.58389 0.10436 0.72724
 N950 N 0.59638 0.11922 0.71470
 N951 N 0.58630 0.13643 0.70373
 C952 C 0.56345 0.13931 0.70497
 N953 N 0.55097 0.12446 0.71753
 N954 N 0.56104 0.10724 0.72850
 C955 C 0.59465 0.08551 0.73860
 C956 C 0.60353 0.06949 0.74800
 C957 C 0.55257 0.15746 0.69263
 C958 C 0.54355 0.17255 0.68194
 C959 C 1.08280 0.60380 0.22669
 N960 N 1.09544 0.61958 0.21557
 N961 N 1.08544 0.63685 0.20462
 C962 C 1.06249 0.63887 0.20448
 N963 N 1.04985 0.62310 0.21563
 N964 N 1.05985 0.60583 0.22657
 C965 C 1.09352 0.58493 0.23804
 C966 C 1.10238 0.56889 0.24744
 C967 C 1.05173 0.65709 0.19214
 C968 C 1.04281 0.67223 0.18143
 C969 C 0.92060 0.89487 0.22257
 N970 N 0.94340 0.89152 0.22310
 N971 N 0.95306 0.87411 0.21224
 C972 C 0.94020 0.85953 0.20055
 N973 N 0.91740 0.86288 0.20004
 N974 N 0.90775 0.88028 0.21089
 C975 C 0.91023 0.91375 0.23403
 C976 C 0.90155 0.92969 0.24356
 C977 C 0.95056 0.84096 0.18859
 C978 C 0.95902 0.82537 0.17832
 C979 C 0.42142 0.39535 0.72315
 N980 N 0.44128 0.39800 0.71157
 N981 N 0.45096 0.38055 0.70081
 C982 C 0.44107 0.35991 0.70134
 N983 N 0.42122 0.35725 0.71293
 N984 N 0.41154 0.37471 0.72369
 C985 C 0.41090 0.41421 0.73451
 C986 C 0.40213 0.43015 0.74397
 C987 C 0.45123 0.34123 0.68938
 C988 C 0.45955 0.32558 0.67911
 C989 C 0.41917 0.60571 0.77520
 N990 N 0.40621 0.62052 0.78733
 N991 N 0.41575 0.63763 0.79803
 C992 C 0.43853 0.64045 0.79690
 N993 N 0.45149 0.62566 0.78475
 N994 N 0.44195 0.60855 0.77405
 C995 C 0.40898 0.58700 0.76408
 C996 C 0.40054 0.57114 0.75486
 C997 C 0.44885 0.65845 0.80901
 C998 C 0.45743 0.67336 0.81956
 C999 C -0.08126 0.10525 0.27491
 N1000 N -0.09415 0.11996 0.28724
 N1001 N -0.08457 0.13707 0.29789
 C1002 C -0.06181 0.14001 0.29652
 N1003 N -0.04892 0.12532 0.28417
 N1004 N -0.05851 0.10820 0.27352
 C1005 C -0.09150 0.08655 0.26383
 C1006 C -0.09997 0.07069 0.25463
 C1007 C -0.05143 0.15801 0.30857
 C1008 C -0.04279 0.17293 0.31906
 C1009 C 0.08098 0.39451 0.27968
 N1010 N 0.05888 0.39006 0.27577
 N1011 N 0.04880 0.37260 0.28617
 C1012 C 0.06053 0.35908 0.30080
 N1013 N 0.08263 0.36353 0.30470
 N1014 N 0.09270 0.38098 0.29430
 C1015 C 0.09181 0.41335 0.26856
 C1016 C 0.10085 0.42921 0.25920
 C1017 C 0.04972 0.34038 0.31218
 C1018 C 0.04099 0.32463 0.32203
 C1019 C 0.58173 0.89439 0.78052
 N1020 N 0.59359 0.88013 0.79433
 N1021 N 0.58334 0.86279 0.80474
 C1022 C 0.56094 0.85917 0.80165
 N1023 N 0.54907 0.87342 0.78783
 N1024 N 0.55932 0.89077 0.77741
 C1025 C 0.59274 0.91313 0.76941
 C1026 C 0.60192 0.92892 0.76009
 C1027 C 0.54995 0.84060 0.81307
 C1028 C 0.54110 0.82494 0.82296
 C1029 C 0.72701 0.58357 0.10418
 N1030 N 0.71578 0.59621 0.11989
 N1031 N 0.70480 0.58619 0.13715
 C1032 C 0.70475 0.56325 0.13921
 N1033 N 0.71601 0.55061 0.12350
 N1034 N 0.72698 0.56062 0.10625
 C1035 C 0.73838 0.59429 0.08530
 C1036 C 0.74779 0.60315 0.06926
 C1037 C 0.69238 0.55247 0.15741
 C1038 C 0.68167 0.54352 0.17254
 C1039 C 0.22610 1.08182 0.60443
 N1040 N 0.22318 1.05903 0.60482
 N1041 N 0.21221 1.04908 0.62211
 C1042 C 0.20385 1.06160 0.63954
 N1043 N 0.20679 1.08439 0.63916
 N1044 N 0.21776 1.09435 0.62187
 C1045 C 0.23749 1.09256 0.58559
 C1046 C 0.24693 1.10144 0.56959
 C1047 C 0.19147 1.05098 0.65782
 C1048 C 0.18074 1.04216 0.67302
 C1049 C 0.22180 0.92038 0.89578
 N1050 N 0.20212 0.93206 0.89941
 N1051 N 0.19128 0.94192 0.88212
 C1052 C 0.19982 0.94043 0.86070
 N1053 N 0.21951 0.92876 0.85707
 N1054 N 0.23035 0.91890 0.87436
 C1055 C 0.23336 0.90967 0.91440
 C1056 C 0.24295 0.90074 0.93016
 C1057 C 0.18789 0.95067 0.84206
 C1058 C 0.17763 0.95904 0.82643
 C1059 C 0.72238 0.42163 0.39554
 N1060 N 0.70219 0.43247 0.39887
 N1061 N 0.69141 0.44220 0.38148
 C1062 C 0.70051 0.44140 0.36024
 N1063 N 0.72071 0.43056 0.35690
 N1064 N 0.73150 0.42083 0.37430
 C1065 C 0.73390 0.41108 0.41427
 C1066 C 0.74347 0.40228 0.43012
 C1067 C 0.68868 0.45152 0.34148
 C1068 C 0.67850 0.45982 0.32577
 C1069 C 0.77503 0.41896 0.60567
 N1070 N 0.77444 0.44180 0.60814
 N1071 N 0.78508 0.45133 0.62529
 C1072 C 0.79661 0.43830 0.64050
 N1073 N 0.79718 0.41546 0.63804
 N1074 N 0.78655 0.40592 0.62089
 C1075 C 0.76397 0.40876 0.58694
 C1076 C 0.75476 0.40032 0.57107
 C1077 C 0.80865 0.44859 0.65855
 C1078 C 0.81915 0.45716 0.67351
 C1079 C 0.27462 -0.08237 0.10530
 N1080 N 0.27280 -0.05966 0.10840
 N1081 N 0.28349 -0.04992 0.12540
 C1082 C 0.29631 -0.06262 0.13982
 N1083 N 0.29812 -0.08534 0.13674
 N1084 N 0.28743 -0.09507 0.11974
 C1085 C 0.26352 -0.09275 0.08669
 C1086 C 0.25430 -0.10132 0.07090
 C1087 C 0.30839 -0.05207 0.15770
 C1088 C 0.31891 -0.04329 0.17251
 C1089 C 0.28008 0.08074 0.39417
 N1090 N 0.27428 0.05950 0.38810
 N1091 N 0.28466 0.04946 0.37061
 C1092 C 0.30115 0.06036 0.35865
 N1093 N 0.30694 0.08159 0.36472
 N1094 N 0.29656 0.09164 0.38221
 C1095 C 0.26895 0.09154 0.41303
 C1096 C 0.25958 0.10056 0.42890
 C1097 C 0.31244 0.04960 0.33986
 C1098 C 0.32222 0.04091 0.32404
 C1099 C 0.77975 0.58100 0.89505
 N1100 N 0.77692 0.55852 0.89157
 N1101 N 0.78731 0.54833 0.87416
 C1102 C 0.80083 0.56033 0.85971
 N1103 N 0.80365 0.58280 0.86320
 N1104 N 0.79327 0.59299 0.88060
 C1105 C 0.76867 0.59195 0.91385
 C1106 C 0.75935 0.60110 0.92967
 C1107 C 0.81223 0.54941 0.84107
 C1108 C 0.82211 0.54063 0.82537
 C1109 C 0.10446 0.72652 0.58439
 N1110 N 0.11547 0.70938 0.59541
 N1111 N 0.13272 0.69842 0.58538
 C1112 C 0.13949 0.70427 0.56402
 N1113 N 0.12850 0.72142 0.55300
 N1114 N 0.11124 0.73239 0.56304
 C1115 C 0.08553 0.73793 0.59497
 C1116 C 0.06944 0.74736 0.60370
 C1117 C 0.15767 0.69204 0.55305
 C1118 C 0.17279 0.68143 0.54395
 C1119 C 0.60458 0.22633 1.08257
 N1120 N 0.60788 0.22769 1.05978
 N1121 N 0.62522 0.21667 1.04994
 C1122 C 0.63978 0.20399 1.06262
 N1123 N 0.63649 0.20265 1.08542
 N1124 N 0.61915 0.21367 1.09525
 C1125 C 0.58561 0.23777 1.09307
 C1126 C 0.56952 0.24725 1.10175
 C1127 C 0.65807 0.19161 1.05199
 C1128 C 0.67327 0.18088 1.04317
 C1129 C 0.89588 0.22183 0.92078
 N1130 N 0.89659 0.19892 0.92323
 N1131 N 0.87934 0.18801 0.93307
 C1132 C 0.86087 0.19968 0.94080
 N1133 N 0.86015 0.22260 0.93836
 N1134 N 0.87741 0.23351 0.92851
 C1135 C 0.91448 0.23353 0.91018
 C1136 C 0.93023 0.24322 0.90133
 C1137 C 0.84220 0.18785 0.95112
 C1138 C 0.82655 0.17766 0.95955
 C1139 C 0.39555 0.72267 0.42117
 N1140 N 0.39570 0.69969 0.42265
 N1141 N 0.37835 0.68883 0.43236
 C1142 C 0.36032 0.70062 0.44092
 N1143 N 0.36016 0.72361 0.43944
 N1144 N 0.37752 0.73447 0.42972
 C1145 C 0.41427 0.73431 0.41072
 C1146 C 0.43011 0.74395 0.40199
 C1147 C 0.34156 0.68886 0.45114
 C1148 C 0.32585 0.67872 0.45950
 C1149 C 0.60572 0.77631 0.41810
 N1150 N 0.61407 0.76892 0.43825
 N1151 N 0.63118 0.77965 0.44778
 C1152 C 0.64044 0.79807 0.43741
 N1153 N 0.63210 0.80544 0.41725
 N1154 N 0.61500 0.79471 0.40773
 C1155 C 0.58699 0.76507 0.40808
 C1156 C 0.57112 0.75573 0.39980
 C1157 C 0.65847 0.81000 0.44789
 C1158 C 0.67340 0.82040 0.45660
 C1159 C 0.10561 0.27587 -0.08309
 N1160 N 0.11316 0.26922 -0.06238
 N1161 N 0.13020 0.28000 -0.05280
 C1162 C 0.14020 0.29774 -0.06366
 N1163 N 0.13266 0.30438 -0.08438
 N1164 N 0.11563 0.29360 -0.09396
 C1165 C 0.08693 0.26460 -0.09317
 C1166 C 0.07109 0.25525 -0.10148
 C1167 C 0.15812 0.30977 -0.05314
 C1168 C 0.17297 0.32025 -0.04437
 C1169 C 0.39418 0.28045 0.07968
 N1170 N 0.37679 0.28925 0.09222
 N1171 N 0.35935 0.29963 0.08212
 C1172 C 0.35875 0.30151 0.05918
 N1173 N 0.37614 0.29270 0.04663
 N1174 N 0.39358 0.28232 0.05673
 C1175 C 0.41298 0.26935 0.09057
 C1176 C 0.42880 0.25998 0.09966
 C1177 C 0.34011 0.31300 0.04840
 C1178 C 0.32440 0.32293 0.03970
 C1179 C 0.89443 0.77968 0.58068
 N1180 N 0.89721 0.78905 0.55969
 N1181 N 0.87987 0.79940 0.54939
 C1182 C 0.85920 0.80065 0.55976
 N1183 N 0.85641 0.79126 0.58074
 N1184 N 0.87376 0.78091 0.59103
 C1185 C 0.91313 0.76867 0.59183
 C1186 C 0.92889 0.75940 0.60113
 C1187 C 0.84065 0.81227 0.54895
 C1188 C 0.82501 0.82231 0.54025
   
