data_POSCAR
  _audit_creation_date              2014-09-24
  _audit_creation_method            'ToBaCCo'
  _symmetry_space_group_name_H-M    'P1'
  _symmetry_Int_Tables_number       1
  _symmetry_cell_setting            triclinic
  loop_
  _symmetry_equiv_pos_as_xyz
 x,y,z
_cell_length_a 27.4765
_cell_length_b 21.4312
_cell_length_c 11.1926
_cell_angle_alpha 90.001000
_cell_angle_beta 89.999100
_cell_angle_gamma 89.998000
loop_
  _atom_site_label
  _atom_site_type_symbol
  _atom_site_fract_x
  _atom_site_fract_y
  _atom_site_fract_z
C1 C 0.71344 0.28058 0.56527
 C2 C 0.71366 0.28028 0.43915
 C3 C 0.75103 0.24972 0.37740
 C4 C 0.78836 0.21920 0.43948
 C5 C 0.78816 0.21926 0.56587
 C6 C 0.75073 0.25000 0.62763
 H7 H 0.75060 0.25009 0.72468
 H8 H 0.75097 0.24975 0.28039
 C9 C 0.21390 0.78073 0.56570
 C10 C 0.21369 0.78079 0.43976
 C11 C 0.25075 0.75001 0.37746
 C12 C 0.28797 0.71908 0.43913
 C13 C 0.28820 0.71879 0.56530
 C14 C 0.25109 0.74975 0.62763
 H15 H 0.25104 0.74977 0.72462
 H16 H 0.25062 0.75009 0.28052
 C17 C 0.28587 0.27999 -0.56375
 C18 C 0.28586 0.28019 -0.43783
 C19 C 0.24855 0.24988 -0.37527
 C20 C 0.21109 0.21920 -0.43674
 C21 C 0.21110 0.21901 -0.56316
 C22 C 0.24850 0.24943 -0.62547
 H23 H 0.24863 0.24935 -0.72246
 H24 H 0.24880 0.25019 -0.27828
 C25 C -0.21440 0.78069 -0.56299
 C26 C -0.21437 0.78047 -0.43708
 C27 C -0.25145 0.74935 -0.37535
 C28 C -0.28857 0.71839 -0.43766
 C29 C -0.28860 0.71860 -0.56407
 C30 C -0.25142 0.74984 -0.62555
 H31 H -0.25119 0.75016 -0.72254
 H32 H -0.25132 0.74926 -0.27835
 N33 N 0.05088 1.11182 -0.12798
 N34 N 0.08486 1.15378 -0.15104
 N35 N -0.05145 1.06803 -0.20992
 N36 N -0.08546 1.07880 -0.29054
 N37 N -0.05151 1.11175 -0.12768
 N38 N -0.08564 1.15356 -0.15011
 N39 N 0.05081 1.06802 -0.21009
 N40 N 0.08464 1.07891 -0.29116
 C41 C 0.10577 1.13211 -0.25239
 C42 C -0.10663 1.13186 -0.25123
 N43 N -0.05155 0.88990 -0.12781
 N44 N -0.08569 0.84808 -0.15028
 N45 N 0.05078 0.93364 -0.20983
 N46 N 0.08502 0.92299 -0.28997
 N47 N 0.05081 0.88997 -0.12751
 N48 N 0.08512 0.84834 -0.14931
 N49 N -0.05152 0.93364 -0.21000
 N50 N -0.08556 0.92284 -0.29063
 Mn51 Mn -0.00035 1.00083 -0.21064
 C52 C -0.10674 0.86975 -0.25142
 C53 C 0.10626 0.87006 -0.25020
 N54 N -0.05157 1.11180 0.13057
 N55 N -0.08550 1.15381 0.15387
 N56 N 0.05072 1.06798 0.21245
 N57 N 0.08466 1.07874 0.29323
 N58 N 0.05080 1.11173 0.13028
 N59 N 0.08488 1.15357 0.15293
 N60 N -0.05149 1.06797 0.21260
 N61 N -0.08524 1.07886 0.29386
 Mn62 Mn -0.00035 1.11250 0.00129
 C63 C -0.10634 1.13210 0.25528
 C64 C 0.10581 1.13183 0.25411
 N65 N 0.05087 0.88993 0.13039
 N66 N 0.08498 0.84809 0.15308
 N67 N -0.05144 0.93368 0.21234
 N68 N -0.08560 0.92303 0.29265
 N69 N -0.05148 0.88998 0.13009
 N70 N -0.08573 0.84831 0.15212
 N71 N 0.05081 0.93370 0.21252
 N72 N 0.08478 0.92292 0.29330
 Mn73 Mn -0.00034 0.88924 0.00128
 Mn74 Mn -0.00035 1.00083 0.21312
 Cl75 Cl -0.00034 1.00087 0.00124
 C76 C 0.10595 0.86981 0.25427
 C77 C -0.10681 0.87006 0.25307
 N78 N 0.44933 0.43203 0.20911
 N79 N 0.41525 0.42135 0.28967
 N80 N 0.55165 0.38831 0.12706
 N81 N 0.58572 0.34648 0.14996
 N82 N 0.55155 0.43212 0.20909
 N83 N 0.58543 0.42144 0.29001
 N84 N 0.44928 0.38825 0.12698
 N85 N 0.41507 0.34651 0.14946
 C86 C 0.39402 0.36828 0.25055
 C87 C 0.60658 0.36834 0.25114
 N88 N 0.55176 0.43191 -0.21341
 N89 N 0.58590 0.42113 -0.29384
 N90 N 0.44943 0.38829 -0.13105
 N91 N 0.41512 0.34668 -0.15307
 N92 N 0.44946 0.43203 -0.21323
 N93 N 0.41525 0.42148 -0.29344
 N94 N 0.55181 0.38822 -0.13108
 N95 N 0.58606 0.34649 -0.15328
 Mn96 Mn 0.50055 0.38755 -0.00204
 C97 C 0.60715 0.36811 -0.25440
 C98 C 0.39402 0.36852 -0.25394
 N99 N 0.55172 0.56635 0.20920
 N100 N 0.58550 0.57734 0.29039
 N101 N 0.44947 0.61008 0.12698
 N102 N 0.41548 0.65200 0.14988
 N103 N 0.44951 0.56627 0.20901
 N104 N 0.41566 0.57706 0.28996
 N105 N 0.55182 0.61010 0.12702
 N106 N 0.58574 0.65213 0.15011
 Mn107 Mn 0.50053 0.49919 0.20972
 C108 C 0.60661 0.63054 0.25154
 C109 C 0.39458 0.63021 0.25105
 N110 N 0.44931 0.56647 -0.21335
 N111 N 0.41522 0.57737 -0.29383
 N112 N 0.55167 0.61006 -0.13110
 N113 N 0.58571 0.65195 -0.15373
 N114 N 0.55160 0.56633 -0.21333
 N115 N 0.58551 0.57719 -0.29417
 N116 N 0.44932 0.61016 -0.13102
 N117 N 0.41516 0.65200 -0.15324
 Mn118 Mn 0.50053 0.49918 -0.21403
 Mn119 Mn 0.50058 0.61080 -0.00205
 Cl120 Cl 0.50055 0.49918 -0.00213
 C121 C 0.39405 0.63045 -0.25437
 C122 C 0.60663 0.63028 -0.25495
 C123 C 0.32381 0.31083 0.36889
 C124 C 0.35567 0.33681 0.31378
 C125 C -0.17673 0.81213 0.37042
 C126 C -0.14502 0.83848 0.31585
 C127 C 0.67591 0.68887 0.37151
 C128 C 0.64447 0.66246 0.31567
 C129 C 0.17542 1.18959 0.37304
 C130 C 0.14382 1.16344 0.31765
 C131 C 0.67749 0.31019 -0.37174
 C132 C 0.64558 0.33648 -0.31723
 C133 C 0.17629 0.81209 -0.36729
 C134 C 0.14456 0.83846 -0.31277
 C135 C 0.32398 0.68884 -0.37173
 C136 C 0.35576 0.66228 -0.31725
 C137 C -0.17626 1.18979 -0.36996
 C138 C -0.14468 1.16355 -0.31460
 C139 C 0.67596 0.68854 -0.37390
 C140 C 0.64451 0.66209 -0.31855
 C141 C 0.17538 1.18991 -0.37228
 C142 C 0.14378 1.16382 -0.31641
 C143 C 0.32377 0.31114 -0.37120
 C144 C 0.35565 0.33716 -0.31661
 C145 C -0.17665 0.81177 -0.36977
 C146 C -0.14494 0.83806 -0.31472
 C147 C 0.32539 0.68802 0.37098
 C148 C 0.35679 0.66188 0.31504
 C149 C -0.17587 1.18984 0.37541
 C150 C -0.14428 1.16378 0.31951
 C151 C 0.67604 0.31099 0.37101
 C152 C 0.64451 0.33687 0.31506
 C153 C 0.17586 0.81202 0.37283
 C154 C 0.14413 0.83821 0.31774
   
