data_POSCAR
  _audit_creation_date              2014-09-24
  _audit_creation_method            'ToBaCCo'
  _symmetry_space_group_name_H-M    'P1'
  _symmetry_Int_Tables_number       1
  _symmetry_cell_setting            triclinic
  loop_
  _symmetry_equiv_pos_as_xyz
 x,y,z
_cell_length_a 36.0218
_cell_length_b 36.1215
_cell_length_c 36.1004
_cell_angle_alpha 102.966700
_cell_angle_beta 76.537600
_cell_angle_gamma 76.873000
loop_
  _atom_site_label
  _atom_site_type_symbol
  _atom_site_fract_x
  _atom_site_fract_y
  _atom_site_fract_z
C1 C 0.50622 0.47950 0.00296
 C2 C 0.47779 0.50784 -0.00279
 C3 C 0.43788 0.50319 -0.00313
 C4 C 0.48493 0.54543 -0.00848
 C5 C 0.54406 0.48648 0.00823
 C6 C 0.50149 0.43980 0.00362
 C7 C 0.42299 0.50938 -0.03461
 C8 C 0.38464 0.50738 -0.03430
 C9 C 0.36055 0.49939 -0.00234
 C10 C 0.37527 0.49303 0.02914
 C11 C 0.41368 0.49506 0.02881
 C12 C 0.51784 0.54488 -0.03877
 C13 C 0.52398 0.58051 -0.04391
 C14 C 0.49711 0.61696 -0.01909
 C15 C 0.46405 0.61765 0.01079
 C16 C 0.45790 0.58210 0.01599
 C17 C 0.54362 0.51919 0.03822
 C18 C 0.57948 0.52512 0.04301
 C19 C 0.61606 0.49825 0.01814
 C20 C 0.61664 0.46540 -0.01146
 C21 C 0.58086 0.45946 -0.01631
 C22 C 0.50766 0.42488 0.03514
 C23 C 0.50567 0.38668 0.03502
 C24 C 0.49770 0.36284 0.00329
 C25 C 0.49135 0.37753 -0.02819
 C26 C 0.49336 0.41577 -0.02812
 H27 H 0.44106 0.51596 -0.05937
 H28 H 0.37372 0.51253 -0.05883
 H29 H 0.35697 0.48708 0.05425
 H30 H 0.42424 0.49103 0.05379
 H31 H 0.53861 0.51690 -0.05845
 H32 H 0.54956 0.57963 -0.06726
 H33 H 0.43223 0.58315 0.03933
 H34 H 0.51555 0.53995 0.05795
 H35 H 0.57868 0.55053 0.06615
 H36 H 0.64476 0.44436 -0.03079
 H37 H 0.58184 0.43395 -0.03942
 H38 H 0.51426 0.44279 0.05973
 H39 H 0.51081 0.37555 0.05944
 H40 H 0.48546 0.35922 -0.05305
 H41 H 0.48936 0.42634 -0.05315
 H42 H 0.44301 0.64569 0.03009
 C43 C -0.00225 0.52505 0.52810
 C44 C -0.00786 0.49667 0.49981
 C45 C -0.00904 0.45726 0.50497
 C46 C -0.01278 0.50325 0.46185
 C47 C 0.00273 0.56292 0.52126
 C48 C -0.00116 0.51992 0.56757
 C49 C 0.02282 0.43269 0.51263
 C50 C 0.02207 0.39487 0.51549
 C51 C -0.01036 0.38121 0.51046
 C52 C -0.04216 0.40557 0.50287
 C53 C -0.04146 0.44334 0.50002
 C54 C 0.01206 0.47582 0.42550
 C55 C 0.00713 0.48081 0.38954
 C56 C -0.02286 0.51311 0.38948
 C57 C -0.04790 0.54053 0.42559
 C58 C -0.04300 0.53556 0.46167
 C59 C -0.02217 0.59926 0.54854
 C60 C -0.01772 0.63515 0.54276
 C61 C 0.01183 0.63513 0.50980
 C62 C 0.03709 0.59901 0.48266
 C63 C 0.03269 0.56304 0.48845
 C64 C -0.03290 0.51174 0.59206
 C65 C -0.03184 0.50794 0.62953
 C66 C 0.00076 0.51258 0.64298
 C67 C 0.03232 0.52099 0.61882
 C68 C 0.03131 0.52477 0.58137
 H69 H 0.04847 0.44255 0.51573
 H70 H 0.04696 0.37612 0.52108
 H71 H -0.06730 0.39521 0.49874
 H72 H -0.06615 0.46172 0.49383
 H73 H 0.03535 0.45060 0.42504
 H74 H 0.02659 0.45936 0.36177
 H75 H -0.06296 0.55660 0.48941
 H76 H -0.04527 0.59979 0.57414
 H77 H -0.03735 0.66292 0.56399
 H78 H 0.06019 0.59867 0.45717
 H79 H 0.05270 0.53532 0.46749
 H80 H -0.05859 0.50870 0.58231
 H81 H -0.05655 0.50172 0.64812
 H82 H 0.05758 0.52484 0.62903
 H83 H 0.05592 0.53136 0.56305
 H84 H -0.07133 0.56552 0.42586
 C85 C 0.52627 -0.00315 0.47193
 C86 C 0.49751 -0.00821 0.50071
 C87 C 0.50362 -0.01221 0.53913
 C88 C 0.45805 -0.00958 0.49565
 C89 C 0.52155 -0.00284 0.43216
 C90 C 0.56412 0.00218 0.47862
 C91 C 0.53595 -0.04188 0.54014
 C92 C 0.54041 -0.04600 0.57663
 C93 C 0.51242 -0.02069 0.61241
 C94 C 0.48011 0.00880 0.61150
 C95 C 0.47567 0.01293 0.57510
 C96 C 0.44391 -0.04165 0.50146
 C97 C 0.40610 -0.04253 0.49861
 C98 C 0.38194 -0.01126 0.49017
 C99 C 0.39581 0.02082 0.48432
 C100 C 0.43366 0.02176 0.48718
 C101 C 0.52678 0.02902 0.41735
 C102 C 0.52332 0.02934 0.37966
 C103 C 0.51486 -0.00230 0.35622
 C104 C 0.50986 -0.03431 0.37065
 C105 C 0.51334 -0.03468 0.40837
 C106 C 0.56385 0.03260 0.51084
 C107 C 0.59979 0.03732 0.51655
 C108 C 0.63630 0.01191 0.48989
 C109 C 0.63668 -0.01811 0.45747
 C110 C 0.60081 -0.02285 0.45180
 H111 H 0.55740 -0.06206 0.51271
 H112 H 0.56546 -0.06909 0.57687
 H113 H 0.45816 0.02852 0.63891
 H114 H 0.45042 0.03581 0.57495
 H115 H 0.46216 -0.06593 0.50829
 H116 H 0.39556 -0.06739 0.50338
 H117 H 0.44369 0.04713 0.48342
 H118 H 0.53338 0.05370 0.43510
 H119 H 0.52742 0.05417 0.36873
 H120 H 0.50359 -0.05908 0.35264
 H121 H 0.51001 -0.05992 0.41887
 H122 H 0.53585 0.05271 0.53141
 H123 H 0.59905 0.06081 0.54164
 H124 H 0.66470 -0.03792 0.43655
 H125 H 0.60162 -0.04630 0.42666
 H126 H 0.37720 0.04532 0.47807
 O127 O 0.48182 -0.01428 -0.06200
 O128 O 0.47739 -0.00188 0.04328
 O129 O 0.47686 0.04464 -0.00272
 O130 O 0.48148 -0.06050 -0.01587
 O131 O 0.54744 -0.07713 -0.03275
 O132 O 0.54281 0.02824 -0.01968
 O133 O 0.54334 -0.01835 0.02630
 O134 O 0.54777 -0.03084 -0.07888
 Cu135 Cu 0.47274 -0.00633 -0.00761
 Cu136 Cu 0.55199 -0.02616 -0.02793
 C137 C 0.51554 -0.02444 -0.08817
 C138 C 0.50968 -0.00834 0.05250
 C139 C 0.50904 0.05417 -0.00930
 C140 C 0.51516 -0.08653 -0.02628
 O141 O -0.07674 0.54722 1.03141
 O142 O 0.02886 0.54279 1.01943
 O143 O -0.01665 0.54249 0.97260
 O144 O -0.03152 0.54831 1.07835
 O145 O -0.01495 0.48270 1.06266
 O146 O -0.00015 0.47688 0.95681
 O147 O 0.04530 0.47718 1.00365
 O148 O -0.06009 0.48161 1.01570
 Cu149 Cu -0.02565 0.55182 1.02701
 Cu150 Cu -0.00579 0.47298 1.00811
 C151 C -0.08617 0.51508 1.02535
 C152 C 0.05486 0.50922 1.00980
 C153 C -0.00623 0.50877 0.94691
 C154 C -0.02553 0.51648 1.08833
 O155 O 0.01898 -0.05590 0.46459
 O156 O 0.00615 0.04954 0.47007
 O157 O 0.06535 -0.00993 0.46441
 O158 O -0.04032 0.00364 0.46979
 O159 O -0.05678 0.01943 0.53552
 O160 O 0.04904 0.00591 0.53015
 O161 O -0.01027 0.06529 0.53580
 O162 O 0.00262 -0.04001 0.53032
 Cu163 Cu 0.01415 -0.00478 0.46058
 Cu164 Cu -0.00553 0.01421 0.53959
 C165 C 0.01283 -0.06571 0.49660
 C166 C -0.00389 0.07514 0.50385
 C167 C 0.07499 -0.00396 0.49639
 C168 C -0.06636 0.01366 0.50350
 C169 C -0.34688 0.50404 1.02289
 C170 C -0.31538 0.50813 1.02616
 C171 C -0.27724 0.51210 1.02919
 C172 C -0.25993 0.53682 1.01060
 C173 C -0.22188 0.53898 1.01166
 C174 C -0.20098 0.51642 1.03132
 C175 C -0.21851 0.49211 1.05037
 C176 C -0.25656 0.48996 1.04931
 C177 C -0.16089 0.51681 1.03035
 C178 C -0.12695 0.51642 1.02861
 H179 H -0.27557 0.55394 0.99481
 H180 H -0.20854 0.55772 0.99666
 H181 H -0.20255 0.47440 1.06548
 H182 H -0.26958 0.47061 1.06363
 C183 C 0.32411 0.49905 0.99857
 C184 C 0.29038 0.49929 0.99934
 C185 C 0.24999 0.50020 1.00030
 C186 C 0.23547 0.50833 0.96927
 C187 C 0.19597 0.51002 0.97057
 C188 C 0.17080 0.50362 1.00293
 C189 C 0.18537 0.49536 1.03388
 C190 C 0.22486 0.49366 1.03258
 C191 C 0.13000 0.50574 1.00462
 C192 C 0.09574 0.50744 1.00660
 H193 H 0.25461 0.51352 0.94420
 H194 H 0.18504 0.51645 0.94649
 H195 H 0.16618 0.49037 1.05906
 H196 H 0.23572 0.48744 1.05677
 C197 C 0.01607 -0.32769 0.50416
 C198 C 0.01877 -0.29603 0.50032
 C199 C 0.02099 -0.25765 0.49677
 C200 C 0.00154 -0.24026 0.47277
 C201 C 0.00164 -0.20194 0.47121
 C202 C 0.02118 -0.18086 0.49365
 C203 C 0.04112 -0.19848 0.51720
 C204 C 0.04102 -0.23680 0.51876
 C205 C 0.01925 -0.14058 0.49389
 C206 C 0.01678 -0.10653 0.49478
 H207 H -0.01420 -0.25604 0.45580
 H208 H -0.01401 -0.18853 0.45304
 H209 H 0.05617 -0.18238 0.53481
 H210 H 0.05598 -0.24989 0.53757
 C211 C -0.01057 0.34174 0.51172
 C212 C -0.01088 0.30854 0.51209
 C213 C -0.01126 0.26875 0.51182
 C214 C 0.00897 0.24924 0.53402
 C215 C 0.00935 0.21021 0.53293
 C216 C -0.01050 0.19055 0.50966
 C217 C -0.03094 0.21016 0.48766
 C218 C -0.03132 0.24919 0.48875
 C219 C -0.00908 0.15002 0.50769
 C220 C -0.00718 0.11590 0.50594
 H221 H 0.02464 0.26407 0.55190
 H222 H 0.02533 0.19527 0.54998
 H223 H -0.04630 0.19520 0.46950
 H224 H -0.04700 0.26400 0.47142
 C225 C 0.51605 -0.02485 -0.35190
 C226 C 0.51828 -0.02781 -0.31981
 C227 C 0.51984 -0.03039 -0.28096
 C228 C 0.49248 -0.04517 -0.25872
 C229 C 0.49248 -0.04566 -0.22008
 C230 C 0.51983 -0.03135 -0.20351
 C231 C 0.54752 -0.01703 -0.22594
 C232 C 0.54752 -0.01654 -0.26458
 C233 C 0.51855 -0.02994 -0.16305
 C234 C 0.51723 -0.02791 -0.12895
 H235 H 0.47081 -0.05577 -0.27102
 H236 H 0.47084 -0.05665 -0.20296
 H237 H 0.56871 -0.00576 -0.21337
 H238 H 0.56868 -0.00487 -0.28143
 C239 C 0.51211 -0.00215 0.31709
 C240 C 0.51024 -0.00190 0.28422
 C241 C 0.50851 -0.00162 0.24483
 C242 C 0.49526 -0.03018 0.22267
 C243 C 0.49453 -0.03048 0.18403
 C244 C 0.50703 -0.00222 0.16737
 C245 C 0.52002 0.02651 0.18963
 C246 C 0.52075 0.02681 0.22828
 C247 C 0.50746 -0.00341 0.12713
 C248 C 0.50824 -0.00516 0.09319
 H249 H 0.48580 -0.05234 0.23513
 H250 H 0.48454 -0.05290 0.16705
 H251 H 0.52986 0.04843 0.17702
 H252 H 0.53111 0.04899 0.24513
 C253 C 0.50318 -0.34622 -0.02414
 C254 C 0.50750 -0.31492 -0.02762
 C255 C 0.51174 -0.27699 -0.03084
 C256 C 0.48887 -0.25568 -0.04997
 C257 C 0.49122 -0.21779 -0.05105
 C258 C 0.51645 -0.20106 -0.03302
 C259 C 0.53976 -0.22261 -0.01440
 C260 C 0.53741 -0.26050 -0.01332
 C261 C 0.51693 -0.16108 -0.03188
 C262 C 0.51655 -0.12723 -0.02990
 H263 H 0.46879 -0.26806 -0.06345
 H264 H 0.47291 -0.20130 -0.06534
 H265 H 0.55921 -0.20988 -0.00018
 H266 H 0.55509 -0.27664 0.00171
 C267 C 0.49745 0.32288 0.00249
 C268 C 0.49788 0.28925 0.00182
 C269 C 0.49902 0.24894 0.00090
 C270 C 0.50987 0.23345 0.03044
 C271 C 0.51180 0.19402 0.02908
 C272 C 0.50290 0.16991 -0.00183
 C273 C 0.49191 0.18546 -0.03127
 C274 C 0.48998 0.22488 -0.02991
 C275 C 0.50527 0.12918 -0.00364
 C276 C 0.50713 0.09497 -0.00580
 H277 H 0.51700 0.25178 0.05435
 H278 H 0.52035 0.18231 0.05198
 H279 H 0.48499 0.16709 -0.05532
 H280 H 0.48165 0.23651 -0.05295
 C281 C -0.32855 0.01621 0.49521
 C282 C -0.29694 0.01922 0.49915
 C283 C -0.25863 0.02175 0.50283
 C284 C -0.23690 0.04039 0.47949
 C285 C -0.19856 0.04066 0.48119
 C286 C -0.18182 0.02228 0.50623
 C287 C -0.20379 0.00417 0.53002
 C288 C -0.24212 0.00390 0.52833
 C289 C -0.14145 0.02034 0.50608
 C290 C -0.10731 0.01779 0.50526
 H291 H -0.24930 0.05410 0.45953
 H292 H -0.18175 0.05458 0.46252
 H293 H -0.19104 -0.01029 0.54934
 H294 H -0.25860 -0.01077 0.54635
 C295 C 0.34244 -0.01162 0.48884
 C296 C 0.30918 -0.01198 0.48840
 C297 C 0.26931 -0.01232 0.48857
 C298 C 0.25030 0.00738 0.46571
 C299 C 0.21114 0.00789 0.46674
 C300 C 0.19086 -0.01131 0.49063
 C301 C 0.20996 -0.03124 0.51329
 C302 C 0.24912 -0.03175 0.51225
 C303 C 0.15016 -0.00966 0.49259
 C304 C 0.11591 -0.00754 0.49433
 H305 H 0.26563 0.02255 0.44736
 H306 H 0.19660 0.02347 0.44918
 H307 H 0.19450 -0.04608 0.53194
 H308 H 0.26354 -0.04700 0.53010
 C309 C -0.02793 0.51750 1.35219
 C310 C -0.03125 0.52005 1.32034
 C311 C -0.03406 0.52189 1.28167
 C312 C -0.04872 0.49458 1.25965
 C313 C -0.04901 0.49458 1.22098
 C314 C -0.03462 0.52188 1.20419
 C315 C -0.02053 0.54958 1.22643
 C316 C -0.02024 0.54958 1.26510
 C317 C -0.03259 0.52032 1.16359
 C318 C -0.02990 0.51867 1.12932
 H319 H -0.05926 0.47290 1.27211
 H320 H -0.05979 0.47292 1.20397
 H321 H -0.00918 0.57070 1.21365
 H322 H -0.00864 0.57067 1.28179
 C323 C 0.00150 0.50966 0.68190
 C324 C 0.00212 0.50770 0.71465
 C325 C 0.00269 0.50597 0.75394
 C326 C -0.02094 0.48629 0.77379
 C327 C -0.02134 0.48572 0.81248
 C328 C 0.00190 0.50480 0.83147
 C329 C 0.02581 0.52418 0.81150
 C330 C 0.02621 0.52475 0.77280
 C331 C 0.00013 0.50562 0.87188
 C332 C -0.00222 0.50680 0.90600
 H333 H -0.03930 0.47175 0.75951
 H334 H -0.04004 0.47077 0.82772
 H335 H 0.04377 0.53916 0.82596
 H336 H 0.04452 0.54013 0.75774
   
