data_POSCAR
  _audit_creation_date              2014-09-24
  _audit_creation_method            'ToBaCCo'
  _symmetry_space_group_name_H-M    'P1'
  _symmetry_Int_Tables_number       1
  _symmetry_cell_setting            triclinic
  loop_
  _symmetry_equiv_pos_as_xyz
 x,y,z
_cell_length_a 52.3386
_cell_length_b 52.3156
_cell_length_c 52.4300
_cell_angle_alpha 89.953400
_cell_angle_beta 89.934000
_cell_angle_gamma 89.995300
loop_
  _atom_site_label
  _atom_site_type_symbol
  _atom_site_fract_x
  _atom_site_fract_y
  _atom_site_fract_z
C1 C 0.16444 0.16405 0.19805
 C2 C 0.18641 0.15322 0.18665
 C3 C 0.19782 0.16391 0.16462
 C4 C 0.18651 0.18594 0.15398
 C5 C 0.16474 0.19710 0.16487
 C6 C 0.15390 0.18611 0.18673
 H7 H 0.19475 0.13637 0.19503
 H8 H 0.19534 0.19556 0.13797
 H9 H 0.13634 0.19426 0.19398
 C10 C -0.16453 0.83583 0.19846
 C11 C -0.15366 0.81390 0.18702
 C12 C -0.16445 0.80275 0.16518
 C13 C -0.18640 0.81366 0.15442
 C14 C -0.19765 0.83542 0.16524
 C15 C -0.18666 0.84633 0.18710
 H16 H -0.13716 0.80475 0.19538
 H17 H -0.19519 0.80474 0.13798
 H18 H -0.19484 0.86388 0.19430
 C19 C -0.16403 0.16432 -0.19802
 C20 C -0.18604 0.15353 -0.18663
 C21 C -0.19743 0.16419 -0.16460
 C22 C -0.18606 0.18615 -0.15392
 C23 C -0.16426 0.19729 -0.16479
 C24 C -0.15344 0.18633 -0.18666
 H25 H -0.19443 0.13672 -0.19504
 H26 H -0.19489 0.19575 -0.13791
 H27 H -0.13586 0.19445 -0.19390
 C28 C 0.16494 0.83567 -0.19774
 C29 C 0.15410 0.81389 -0.18652
 C30 C 0.16484 0.80300 -0.16458
 C31 C 0.18668 0.81419 -0.15376
 C32 C 0.19814 0.83614 -0.16461
 C33 C 0.18680 0.84662 -0.18673
 H34 H 0.13766 0.80494 -0.19532
 H35 H 0.19503 0.80506 -0.13726
 H36 H 0.19401 0.86418 -0.19490
 C37 C 0.16414 1.16412 0.80228
 C38 C 0.15333 1.18601 0.81342
 C39 C 0.16413 1.19704 0.83532
 C40 C 0.18598 1.18584 0.84613
 C41 C 0.19707 1.16394 0.83528
 C42 C 0.18599 1.15320 0.81338
 H43 H 0.13612 1.19417 0.80534
 H44 H 0.19484 1.19465 0.86259
 H45 H 0.19446 1.13635 0.80487
 C46 C 0.83631 0.83565 0.80239
 C47 C 0.84699 0.81361 0.81382
 C48 C 0.83617 0.80223 0.83579
 C49 C 0.81412 0.81360 0.84631
 C50 C 0.80314 0.83547 0.83545
 C51 C 0.81430 0.84634 0.81369
 H52 H 0.86383 0.80520 0.80549
 H53 H 0.80599 0.80638 0.86387
 H54 H 0.80467 0.86234 0.80484
 C55 C 0.16368 0.83621 1.19779
 C56 C 0.15317 0.81408 1.18645
 C57 C 0.16408 0.80307 1.16457
 C58 C 0.18582 0.81432 1.15370
 C59 C 0.19673 0.83628 1.16443
 C60 C 0.18559 0.84709 1.18630
 H61 H 0.13563 0.80590 1.19368
 H62 H 0.19474 0.80552 1.13725
 H63 H 0.19473 0.86360 1.19465
 C64 C 0.83585 1.16372 1.19797
 C65 C 0.81375 1.15311 1.18669
 C66 C 0.80267 1.16395 1.16483
 C67 C 0.81382 1.18572 1.15390
 C68 C 0.83576 1.19672 1.16457
 C69 C 0.84661 1.18567 1.18645
 H70 H 0.80564 1.13554 1.19396
 H71 H 0.80533 1.19419 1.13706
 H72 H 0.86265 1.19531 1.19516
 N73 N 0.52687 1.02750 1.04499
 N74 N 0.54670 1.03021 1.06029
 N75 N 0.47312 1.04530 1.02725
 N76 N 0.45328 1.06063 1.03002
 N77 N 0.47308 1.02751 1.04493
 N78 N 0.45320 1.03026 1.06020
 N79 N 0.52692 1.04530 1.02732
 N80 N 0.54677 1.06059 1.03012
 C81 C 0.55891 1.05098 1.05082
 C82 C 0.44104 1.05105 1.05071
 N83 N 0.47331 1.02775 0.95462
 N84 N 0.45347 1.03052 0.93934
 N85 N 0.52705 1.04545 0.97243
 N86 N 0.54690 1.06078 0.96972
 N87 N 0.52710 1.02775 0.95469
 N88 N 0.54698 1.03056 0.93944
 N89 N 0.47326 1.04545 0.97236
 N90 N 0.45339 1.06074 0.96962
 Mn91 Mn 0.50009 1.04570 0.99984
 C92 C 0.44124 1.05123 0.94889
 C93 C 0.55914 1.05130 0.94900
 N94 N 0.47308 0.97249 1.04483
 N95 N 0.45320 0.96971 1.06008
 N96 N 0.52692 0.95478 1.02716
 N97 N 0.54674 0.93944 1.02994
 N98 N 0.52688 0.97248 1.04490
 N99 N 0.54667 0.96965 1.06022
 N100 N 0.47312 0.95479 1.02709
 N101 N 0.45325 0.93948 1.02980
 Mn102 Mn 0.49998 1.00000 1.04523
 C103 C 0.44102 0.94898 1.05052
 C104 C 0.55887 0.94891 1.05070
 N105 N 0.52709 0.97273 0.95459
 N106 N 0.54697 0.97001 0.93932
 N107 N 0.47325 0.95494 0.97219
 N108 N 0.45340 0.93965 0.96938
 N109 N 0.47330 0.97273 0.95452
 N110 N 0.45348 0.97002 0.93921
 N111 N 0.52705 0.95494 0.97226
 N112 N 0.54691 0.93963 0.96948
 Mn113 Mn 0.50020 1.00024 0.95428
 Mn114 Mn 0.50009 0.95454 0.99967
 Cl115 Cl 0.50009 1.00012 0.99976
 C116 C 0.55913 0.94923 0.94880
 C117 C 0.44126 0.94925 0.94868
 N118 N 0.02772 0.47314 0.04530
 N119 N 0.03053 0.45329 0.06060
 N120 N 0.04536 0.52697 0.02747
 N121 N 0.06065 0.54684 0.03017
 N122 N 0.02765 0.52696 0.04522
 N123 N 0.03041 0.54683 0.06047
 N124 N 0.04543 0.47315 0.02755
 N125 N 0.06076 0.45332 0.03029
 C126 C 0.05128 0.44112 0.05105
 C127 C 0.05113 0.55903 0.05089
 N128 N 0.02752 0.52692 -0.04508
 N129 N 0.03025 0.54675 -0.06041
 N130 N 0.04534 0.47313 -0.02735
 N131 N 0.06066 0.45328 -0.03011
 N132 N 0.02758 0.47310 -0.04501
 N133 N 0.03033 0.45323 -0.06026
 N134 N 0.04528 0.52695 -0.02742
 N135 N 0.06057 0.54681 -0.03027
 Mn136 Mn 0.04568 0.50005 0.00006
 C137 C 0.05100 0.55897 -0.05098
 C138 C 0.05111 0.44106 -0.05078
 N139 N -0.02735 0.52690 0.04537
 N140 N -0.03014 0.54675 0.06065
 N141 N -0.04504 0.47305 0.02778
 N142 N -0.06031 0.45317 0.03059
 N143 N -0.02728 0.47308 0.04544
 N144 N -0.02999 0.45322 0.06074
 N145 N -0.04511 0.52687 0.02771
 N146 N -0.06046 0.54670 0.03050
 Mn147 Mn 0.00018 0.50002 0.04566
 C148 C -0.05092 0.55890 0.05118
 C149 C -0.05073 0.44099 0.05129
 N150 N -0.02741 0.47303 -0.04487
 N151 N -0.03020 0.45319 -0.06015
 N152 N -0.04518 0.52684 -0.02719
 N153 N -0.06049 0.54670 -0.02991
 N154 N -0.02747 0.52684 -0.04494
 N155 N -0.03025 0.54671 -0.06021
 N156 N -0.04512 0.47301 -0.02712
 N157 N -0.06044 0.45316 -0.02985
 Mn158 Mn 0.00005 0.49997 -0.04530
 Mn159 Mn -0.04544 0.49994 0.00030
 Cl160 Cl 0.00012 0.50000 0.00018
 C161 C -0.05093 0.44098 -0.05058
 C162 C -0.05098 0.55891 -0.05064
 N163 N 1.04503 0.02734 0.47304
 N164 N 1.06033 0.03007 0.45320
 N165 N 1.02736 0.04511 0.52677
 N166 N 1.03015 0.06039 0.54658
 N167 N 1.04506 0.02732 0.52675
 N168 N 1.06036 0.03003 0.54655
 N169 N 1.02734 0.04512 0.47307
 N170 N 1.03012 0.06043 0.45324
 C171 C 1.05083 0.05085 0.44103
 C172 C 1.05087 0.05079 0.55873
 N173 N 0.95459 0.02754 0.52690
 N174 N 0.93932 0.03034 0.54675
 N175 N 0.97235 0.04525 0.47315
 N176 N 0.96965 0.06055 0.45331
 N177 N 0.95457 0.02755 0.47319
 N178 N 0.93929 0.03033 0.45337
 N179 N 0.97237 0.04524 0.52685
 N180 N 0.96967 0.06055 0.54667
 Mn181 Mn 0.99986 0.04550 0.49996
 C182 C 0.94892 0.05106 0.55889
 C183 C 0.94889 0.05105 0.44117
 N184 N 1.04493 -0.02770 0.52678
 N185 N 1.06025 -0.03051 0.54657
 N186 N 1.02714 -0.04538 0.47311
 N187 N 1.02984 -0.06067 0.45328
 N188 N 1.04491 -0.02768 0.47308
 N189 N 1.06018 -0.03044 0.45323
 N190 N 1.02716 -0.04540 0.52682
 N191 N 1.02991 -0.06073 0.54664
 Mn192 Mn 1.04531 -0.00018 0.49991
 C193 C 1.05068 -0.05125 0.55876
 C194 C 1.05059 -0.05115 0.44107
 N195 N 0.95444 -0.02747 0.47322
 N196 N 0.93912 -0.03019 0.45342
 N197 N 0.97216 -0.04526 0.52690
 N198 N 0.96939 -0.06055 0.54675
 N199 N 0.95447 -0.02748 0.52692
 N200 N 0.93918 -0.03019 0.54678
 N201 N 0.97214 -0.04525 0.47320
 N202 N 0.96934 -0.06055 0.45339
 Mn203 Mn 0.95419 0.00004 0.50006
 Mn204 Mn 0.99965 -0.04565 0.50001
 Cl205 Cl 0.99975 -0.00007 0.49998
 C206 C 0.94861 -0.05096 0.44125
 C207 C 0.94868 -0.05096 0.55895
 C208 C 1.12853 0.15758 0.25976
 C209 C 1.13135 0.13153 0.26484
 C210 C 1.14490 0.11612 0.24780
 C211 C 1.15572 0.12669 0.22581
 C212 C 1.15323 0.15308 0.22029
 C213 C 1.13927 0.16827 0.23779
 C214 C 1.12050 0.12065 0.28763
 C215 C 1.11149 0.11161 0.30679
 C216 C 1.10103 0.10111 0.32930
 C217 C 1.09216 0.09221 0.34859
 C218 C 1.08165 0.08168 0.37170
 C219 C 1.09292 0.06021 0.38298
 C220 C 1.08287 0.05012 0.40557
 C221 C 1.06143 0.06144 0.41714
 C222 C 1.05016 0.08295 0.40563
 C223 C 1.06024 0.09300 0.38304
 H224 H 1.11824 0.16975 0.27296
 H225 H 1.14699 0.09584 0.25144
 H226 H 1.16510 0.11371 0.21278
 H227 H 1.13743 0.18871 0.23533
 H228 H 1.10949 0.05130 0.37435
 H229 H 1.09189 0.03351 0.41398
 H230 H 1.03359 0.09201 0.41409
 H231 H 1.05137 0.10962 0.37446
 C232 C 0.88320 -0.14526 0.24847
 C233 C 0.86789 -0.13135 0.26529
 C234 C 0.84195 -0.12812 0.26003
 C235 C 0.83128 -0.13879 0.23805
 C236 C 0.84637 -0.15307 0.22074
 C237 C 0.87265 -0.15601 0.22647
 C238 C 0.87875 -0.12053 0.28807
 C239 C 0.88778 -0.11153 0.30721
 C240 C 0.89826 -0.10108 0.32970
 C241 C 0.90715 -0.09222 0.34896
 C242 C 0.91769 -0.08173 0.37204
 C243 C 0.90645 -0.06026 0.38335
 C244 C 0.91653 -0.05020 0.40590
 C245 C 0.93798 -0.06154 0.41740
 C246 C 0.94922 -0.08304 0.40587
 C247 C 0.93911 -0.09307 0.38332
 H248 H 0.90341 -0.14769 0.25226
 H249 H 0.82985 -0.11756 0.27307
 H250 H 0.81090 -0.13661 0.23547
 H251 H 0.88556 -0.16573 0.21362
 H252 H 0.88987 -0.05133 0.37477
 H253 H 0.90752 -0.03359 0.41432
 H254 H 0.96579 -0.09212 0.41428
 H255 H 0.94796 -0.10969 0.37472
 C256 C 0.85536 0.11647 0.75219
 C257 C 0.86894 0.13188 0.73516
 C258 C 0.87185 0.15791 0.74026
 C259 C 0.86116 0.16857 0.76226
 C260 C 0.84715 0.15338 0.77974
 C261 C 0.84459 0.12702 0.77420
 C262 C 0.87974 0.12102 0.71234
 C263 C 0.88869 0.11198 0.69317
 C264 C 0.89907 0.10147 0.67065
 C265 C 0.90787 0.09256 0.65135
 C266 C 0.91830 0.08200 0.62823
 C267 C 0.93975 0.09322 0.61685
 C268 C 0.94976 0.08314 0.59426
 C269 C 0.93839 0.06169 0.58278
 C270 C 0.91691 0.05047 0.59438
 C271 C 0.90693 0.06059 0.61697
 H272 H 0.85321 0.09620 0.74853
 H273 H 0.88218 0.17008 0.72707
 H274 H 0.86307 0.18900 0.76474
 H275 H 0.83517 0.11403 0.78721
 H276 H 0.94871 0.10980 0.62540
 H277 H 0.96636 0.09213 0.58578
 H278 H 0.90780 0.03390 0.58599
 H279 H 0.89032 0.05175 0.62562
 C280 C 1.11604 -0.14040 0.75438
 C281 C 1.13181 -0.13179 0.73458
 C282 C 1.15837 -0.13374 0.73690
 C283 C 1.16915 -0.14427 0.75892
 C284 C 1.15347 -0.15302 0.77892
 C285 C 1.12678 -0.15096 0.77641
 C286 C 1.12077 -0.12106 0.71183
 C287 C 1.11163 -0.11210 0.69271
 C288 C 1.10105 -0.10166 0.67025
 C289 C 1.09212 -0.09278 0.65101
 C290 C 1.08157 -0.08222 0.62795
 C291 C 1.09288 -0.06079 0.61661
 C292 C 1.08280 -0.05066 0.59407
 C293 C 1.06129 -0.06189 0.58261
 C294 C 1.04998 -0.08336 0.59417
 C295 C 1.06009 -0.09346 0.61670
 H296 H 1.09546 -0.13893 0.75280
 H297 H 1.17075 -0.12721 0.72166
 H298 H 1.18974 -0.14590 0.76015
 H299 H 1.11423 -0.15724 0.79161
 H300 H 1.10950 -0.05193 0.62515
 H301 H 1.09186 -0.03407 0.58562
 H302 H 1.03336 -0.09236 0.58579
 H303 H 1.05118 -0.11005 0.62532
 C304 C 0.25989 1.12850 1.15772
 C305 C 0.26486 1.13160 1.13173
 C306 C 0.24772 1.14529 1.11657
 C307 C 0.22569 1.15590 1.12732
 C308 C 0.22022 1.15302 1.15363
 C309 C 0.23788 1.13903 1.16859
 C310 C 0.28764 1.12085 1.12069
 C311 C 0.30679 1.11188 1.11156
 C312 C 0.32929 1.10142 1.10100
 C313 C 0.34858 1.09252 1.09208
 C314 C 0.37168 1.08197 1.08154
 C315 C 0.38305 1.09328 1.06016
 C316 C 0.40565 1.08320 1.05007
 C317 C 0.41713 1.06167 1.06130
 C318 C 0.40554 1.05035 1.08271
 C319 C 0.38295 1.06046 1.09277
 H320 H 0.27320 1.11814 1.16971
 H321 H 0.25130 1.14764 1.09635
 H322 H 0.21258 1.16548 1.11457
 H323 H 0.23559 1.13700 1.18898
 H324 H 0.37449 1.10993 1.05131
 H325 H 0.41412 1.09226 1.03352
 H326 H 0.41394 1.03371 1.09171
 H327 H 0.37431 1.05155 1.10932
 C328 C 0.25979 0.87225 0.84197
 C329 C 0.26502 0.86902 0.86788
 C330 C 0.24812 0.85510 0.88314
 C331 C 0.22611 0.84434 0.87257
 C332 C 0.22042 0.84727 0.84632
 C333 C 0.23779 0.86157 0.83128
 C334 C 0.28782 0.87983 0.87876
 C335 C 0.30699 0.88881 0.88780
 C336 C 0.32951 0.89923 0.89830
 C337 C 0.34880 0.90807 0.90721
 C338 C 0.37192 0.91854 0.91775
 C339 C 0.38319 0.90718 0.93914
 C340 C 0.40578 0.91719 0.94925
 C341 C 0.41737 0.93869 0.93805
 C342 C 0.40587 0.95006 0.91663
 C343 C 0.38329 0.94002 0.90655
 H344 H 0.27289 0.88282 0.82991
 H345 H 0.25188 0.85267 0.90332
 H346 H 0.21321 0.83461 0.88543
 H347 H 0.23524 0.86375 0.81093
 H348 H 0.37455 0.89055 0.94797
 H349 H 0.41418 0.90809 0.96580
 H350 H 0.41434 0.96668 0.90765
 H351 H 0.37472 0.94897 0.88999
 C352 C 0.75453 0.85947 1.11634
 C353 C 0.73467 0.86806 1.13204
 C354 C 0.73693 0.86606 1.15856
 C355 C 0.75894 0.85550 1.16936
 C356 C 0.77901 0.84677 1.15375
 C357 C 0.77656 0.84888 1.12710
 C358 C 0.71193 0.87885 1.12098
 C359 C 0.69281 0.88784 1.11183
 C360 C 0.67036 0.89833 1.10122
 C361 C 0.65111 0.90724 1.09226
 C362 C 0.62806 0.91784 1.08168
 C363 C 0.61672 0.93928 1.09294
 C364 C 0.59418 0.94945 1.08283
 C365 C 0.58272 0.93823 1.06134
 C366 C 0.59428 0.91675 1.05008
 C367 C 0.61681 0.90662 1.06022
 H368 H 0.75300 0.86098 1.09579
 H369 H 0.72164 0.87258 1.17090
 H370 H 0.76013 0.85383 1.18992
 H371 H 0.79180 0.84261 1.11460
 H372 H 0.62527 0.94812 1.10955
 H373 H 0.58574 0.96604 1.09185
 H374 H 0.58590 0.90777 1.03348
 H375 H 0.62543 0.89002 1.05135
 C376 C 0.75261 1.14556 0.88341
 C377 C 0.73544 1.13196 0.86823
 C378 C 0.74041 1.12892 0.84224
 C379 C 0.76244 1.13942 0.83140
 C380 C 0.78013 1.15333 0.84637
 C381 C 0.77467 1.15615 0.87268
 C382 C 0.71264 1.12122 0.87926
 C383 C 0.69347 1.11226 0.88838
 C384 C 0.67095 1.10180 0.89891
 C385 C 0.65165 1.09290 0.90780
 C386 C 0.62853 1.08232 0.91829
 C387 C 0.61725 1.06088 0.90699
 C388 C 0.59464 1.05074 0.91700
 C389 C 0.58306 1.06196 0.93845
 C390 C 0.59456 1.08342 0.94976
 C391 C 0.61716 1.09354 0.93971
 H392 H 0.74904 1.14786 0.90365
 H393 H 0.72708 1.11863 0.83024
 H394 H 0.76474 1.13745 0.81100
 H395 H 0.78780 1.16565 0.88545
 H396 H 0.62589 1.05204 0.89041
 H397 H 0.58624 1.03415 0.90795
 H398 H 0.58608 1.09241 0.96633
 H399 H 0.62574 1.11013 0.94862
 C400 C 0.14048 0.24506 0.11615
 C401 C 0.13204 0.26493 0.13191
 C402 C 0.13422 0.26263 0.15841
 C403 C 0.14480 0.24057 0.16914
 C404 C 0.15337 0.22049 0.15346
 C405 C 0.15109 0.22298 0.12683
 C406 C 0.12125 0.28772 0.12092
 C407 C 0.11226 0.30688 0.11183
 C408 C 0.10177 0.32939 0.10130
 C409 C 0.09287 0.34867 0.09240
 C410 C 0.08229 0.37178 0.08187
 C411 C 0.06085 0.38309 0.09317
 C412 C 0.05071 0.40568 0.08312
 C413 C 0.06194 0.41722 0.06164
 C414 C 0.08341 0.40570 0.05034
 C415 C 0.09352 0.38311 0.06042
 H416 H 0.13884 0.24662 0.09561
 H417 H 0.12782 0.27793 0.17079
 H418 H 0.14660 0.23936 0.18967
 H419 H 0.15724 0.20773 0.11429
 H420 H 0.05200 0.37448 0.10978
 H421 H 0.03411 0.41410 0.09217
 H422 H 0.09241 0.41414 0.03373
 H423 H 0.11012 0.37452 0.05152
 C424 C -0.13998 0.24506 -0.11598
 C425 C -0.13151 0.26497 -0.13171
 C426 C -0.13364 0.26274 -0.15821
 C427 C -0.14423 0.24073 -0.16898
 C428 C -0.15285 0.22062 -0.15334
 C429 C -0.15059 0.22302 -0.12671
 C430 C -0.12074 0.28773 -0.12067
 C431 C -0.11177 0.30686 -0.11153
 C432 C -0.10131 0.32934 -0.10094
 C433 C -0.09243 0.34860 -0.09200
 C434 C -0.08187 0.37169 -0.08145
 C435 C -0.06042 0.38302 -0.09272
 C436 C -0.05030 0.40559 -0.08265
 C437 C -0.06156 0.41709 -0.06118
 C438 C -0.08304 0.40554 -0.04989
 C439 C -0.09313 0.38297 -0.05999
 H440 H -0.13837 0.24656 -0.09544
 H441 H -0.12721 0.27807 -0.17056
 H442 H -0.14600 0.23958 -0.18953
 H443 H -0.15678 0.20775 -0.11420
 H444 H -0.05156 0.37445 -0.10933
 H445 H -0.03371 0.41404 -0.09169
 H446 H -0.09205 0.41394 -0.03330
 H447 H -0.10973 0.37435 -0.05111
 C448 C 0.11610 0.75510 -0.14015
 C449 C 0.13189 0.73516 -0.13188
 C450 C 0.15843 0.73738 -0.13424
 C451 C 0.16917 0.75944 -0.14483
 C452 C 0.15346 0.77960 -0.15321
 C453 C 0.12680 0.77718 -0.15076
 C454 C 0.12089 0.71237 -0.12108
 C455 C 0.11178 0.69322 -0.11207
 C456 C 0.10124 0.67071 -0.10157
 C457 C 0.09233 0.65142 -0.09265
 C458 C 0.08181 0.62832 -0.08205
 C459 C 0.09313 0.61702 -0.06064
 C460 C 0.08308 0.59444 -0.05048
 C461 C 0.06158 0.58287 -0.06165
 C462 C 0.05026 0.59439 -0.08308
 C463 C 0.06034 0.61698 -0.09322
 H464 H 0.09553 0.75359 -0.13838
 H465 H 0.17082 0.72202 -0.12800
 H466 H 0.18973 0.76058 -0.14681
 H467 H 0.11425 0.79248 -0.15681
 H468 H 0.10974 0.62564 -0.05184
 H469 H 0.09214 0.58602 -0.03392
 H470 H 0.03365 0.58593 -0.09203
 H471 H 0.05143 0.62556 -0.10978
 C472 C -0.13995 0.75494 0.11650
 C473 C -0.13171 0.73496 0.13225
 C474 C -0.13411 0.73714 0.15875
 C475 C -0.14471 0.75918 0.16948
 C476 C -0.15305 0.77937 0.15382
 C477 C -0.15057 0.77700 0.12719
 C478 C -0.12092 0.71218 0.12126
 C479 C -0.11192 0.69304 0.11214
 C480 C -0.10143 0.67055 0.10159
 C481 C -0.09252 0.65128 0.09266
 C482 C -0.08194 0.62819 0.08210
 C483 C -0.06045 0.61690 0.09330
 C484 C -0.05030 0.59434 0.08321
 C485 C -0.06158 0.58279 0.06180
 C486 C -0.08310 0.59429 0.05060
 C487 C -0.09322 0.61686 0.06071
 H488 H -0.13814 0.75347 0.09597
 H489 H -0.12789 0.72175 0.17111
 H490 H -0.14672 0.76028 0.19001
 H491 H -0.15658 0.79233 0.11467
 H492 H -0.05156 0.62552 0.10985
 H493 H -0.03367 0.58593 0.09219
 H494 H -0.09214 0.58584 0.03405
 H495 H -0.10985 0.62543 0.05189
 C496 C 1.13982 0.11544 0.75442
 C497 C 1.13127 0.13131 0.73470
 C498 C 1.13335 0.15787 0.73708
 C499 C 1.14397 0.16854 0.75908
 C500 C 1.15268 0.15276 0.77901
 C501 C 1.15047 0.12608 0.77644
 C502 C 1.12050 0.12038 0.71195
 C503 C 1.11152 0.11132 0.69282
 C504 C 1.10109 0.10083 0.67034
 C505 C 1.09222 0.09196 0.65107
 C506 C 1.08171 0.08148 0.62799
 C507 C 1.06030 0.09283 0.61670
 C508 C 1.05021 0.08282 0.59414
 C509 C 1.06147 0.06134 0.58260
 C510 C 1.08291 0.04999 0.59411
 C511 C 1.09296 0.06003 0.61667
 H512 H 1.13825 0.09486 0.75280
 H513 H 1.12686 0.17032 0.72189
 H514 H 1.14571 0.18913 0.76036
 H515 H 1.15670 0.11345 0.79158
 H516 H 1.05143 0.10944 0.62531
 H517 H 1.03365 0.09191 0.58572
 H518 H 1.09192 0.03339 0.58567
 H519 H 1.10954 0.05109 0.62526
 C520 C 0.85487 -0.11635 0.75241
 C521 C 0.86852 -0.13159 0.73531
 C522 C 0.87163 -0.15761 0.74034
 C523 C 0.86114 -0.16844 0.76236
 C524 C 0.84718 -0.15340 0.77998
 C525 C 0.84430 -0.12705 0.77446
 C526 C 0.87921 -0.12059 0.71250
 C527 C 0.88814 -0.11150 0.69333
 C528 C 0.89854 -0.10100 0.67080
 C529 C 0.90738 -0.09212 0.65149
 C530 C 0.91788 -0.08165 0.62836
 C531 C 0.93928 -0.09300 0.61701
 C532 C 0.94935 -0.08300 0.59440
 C533 C 0.93809 -0.06151 0.58287
 C534 C 0.91667 -0.05015 0.59443
 C535 C 0.90663 -0.06019 0.61704
 H536 H 0.85252 -0.09609 0.74879
 H537 H 0.88196 -0.16966 0.72706
 H538 H 0.86316 -0.18887 0.76470
 H539 H 0.83474 -0.11424 0.78753
 H540 H 0.94814 -0.10962 0.62562
 H541 H 0.96591 -0.09209 0.58595
 H542 H 0.90766 -0.03354 0.58599
 H543 H 0.89007 -0.05124 0.62566
 C544 C 1.14477 -0.11607 0.24788
 C545 C 1.13089 -0.13141 0.26472
 C546 C 1.12769 -0.15736 0.25945
 C547 C 1.13835 -0.16802 0.23744
 C548 C 1.15259 -0.15289 0.22010
 C549 C 1.15552 -0.12661 0.22585
 C550 C 1.12007 -0.12057 0.28753
 C551 C 1.11107 -0.11159 0.30671
 C552 C 1.10062 -0.10117 0.32924
 C553 C 1.09176 -0.09234 0.34854
 C554 C 1.08129 -0.08187 0.37168
 C555 C 1.05985 -0.09317 0.38302
 C556 C 1.04981 -0.08315 0.40563
 C557 C 1.06114 -0.06172 0.41716
 C558 C 1.08261 -0.05042 0.40560
 C559 C 1.09261 -0.06046 0.38299
 H560 H 1.14718 -0.09585 0.25168
 H561 H 1.11715 -0.16948 0.27251
 H562 H 1.13619 -0.18840 0.23485
 H563 H 1.16522 -0.11368 0.21299
 H564 H 1.05093 -0.10973 0.37442
 H565 H 1.03322 -0.09220 0.41408
 H566 H 1.09168 -0.03386 0.41403
 H567 H 1.10921 -0.05157 0.37437
 C568 C 0.88370 0.14531 0.24806
 C569 C 0.86849 0.13129 0.26492
 C570 C 0.84258 0.12786 0.25967
 C571 C 0.83182 0.13841 0.23766
 C572 C 0.84681 0.15277 0.22031
 C573 C 0.87306 0.15595 0.22604
 C574 C 0.87942 0.12056 0.28772
 C575 C 0.88847 0.11162 0.30688
 C576 C 0.89894 0.10121 0.32940
 C577 C 0.90779 0.09236 0.34870
 C578 C 0.91824 0.08186 0.37182
 C579 C 0.90688 0.06046 0.38318
 C580 C 0.91687 0.05039 0.40577
 C581 C 0.93835 0.06164 0.41727
 C582 C 0.94971 0.08307 0.40570
 C583 C 0.93969 0.09311 0.38310
 H584 H 0.90388 0.14791 0.25186
 H585 H 0.83056 0.11721 0.27274
 H586 H 0.81147 0.13606 0.23508
 H587 H 0.88587 0.16578 0.21316
 H588 H 0.89027 0.05160 0.37460
 H589 H 0.90777 0.03383 0.41424
 H590 H 0.96632 0.09208 0.41410
 H591 H 0.94864 0.10967 0.37446
 C592 C 0.13335 0.26241 -0.15815
 C593 C 0.13143 0.26476 -0.13163
 C594 C 0.14009 0.24497 -0.11589
 C595 C 0.15069 0.22292 -0.12660
 C596 C 0.15273 0.22038 -0.15325
 C597 C 0.14392 0.24037 -0.16891
 C598 C 0.12068 0.28755 -0.12062
 C599 C 0.11173 0.30671 -0.11150
 C600 C 0.10131 0.32922 -0.10096
 C601 C 0.09245 0.34853 -0.09205
 C602 C 0.08193 0.37165 -0.08154
 C603 C 0.09325 0.38300 -0.06019
 C604 C 0.08320 0.40561 -0.05012
 C605 C 0.06170 0.41714 -0.06134
 C606 C 0.05039 0.40557 -0.08273
 C607 C 0.06047 0.38296 -0.09276
 H608 H 0.12678 0.27765 -0.17051
 H609 H 0.13864 0.24658 -0.09533
 H610 H 0.15702 0.20773 -0.11407
 H611 H 0.14555 0.23913 -0.18946
 H612 H 0.10987 0.37440 -0.05135
 H613 H 0.09226 0.41407 -0.03360
 H614 H 0.03377 0.41400 -0.09171
 H615 H 0.05156 0.37433 -0.10929
 C616 C -0.11554 0.24469 0.14018
 C617 C -0.13136 0.26456 0.13181
 C618 C -0.15790 0.26225 0.13405
 C619 C -0.16862 0.24019 0.14464
 C620 C -0.15289 0.22011 0.15315
 C621 C -0.12622 0.22260 0.15080
 C622 C -0.12039 0.28737 0.12104
 C623 C -0.11130 0.30655 0.11206
 C624 C -0.10079 0.32908 0.10161
 C625 C -0.09191 0.34840 0.09274
 C626 C -0.08142 0.37154 0.08220
 C627 C -0.09275 0.38286 0.06082
 C628 C -0.08274 0.40549 0.05071
 C629 C -0.06127 0.41706 0.06191
 C630 C -0.04994 0.40552 0.08333
 C631 C -0.05998 0.38289 0.09340
 H632 H -0.09497 0.24625 0.13849
 H633 H -0.17032 0.27756 0.12771
 H634 H -0.18919 0.23899 0.14652
 H635 H -0.11364 0.20735 0.15692
 H636 H -0.10935 0.37423 0.05199
 H637 H -0.09182 0.41392 0.03417
 H638 H -0.03335 0.41398 0.09230
 H639 H -0.05106 0.37429 0.10995
 C640 C -0.11598 0.75242 -0.14464
 C641 C -0.13141 0.73539 -0.13107
 C642 C -0.15744 0.74048 -0.12826
 C643 C -0.16810 0.76247 -0.13902
 C644 C -0.15290 0.77997 -0.15299
 C645 C -0.12652 0.77444 -0.15549
 C646 C -0.12057 0.71258 -0.12019
 C647 C -0.11157 0.69340 -0.11116
 C648 C -0.10112 0.67085 -0.10069
 C649 C -0.09226 0.65153 -0.09182
 C650 C -0.08176 0.62838 -0.08134
 C651 C -0.09305 0.61704 -0.05992
 C652 C -0.08301 0.59440 -0.04988
 C653 C -0.06156 0.58284 -0.06119
 C654 C -0.05028 0.59440 -0.08265
 C655 C -0.06035 0.61704 -0.09266
 H656 H -0.09571 0.74877 -0.14673
 H657 H -0.16962 0.72728 -0.11795
 H658 H -0.18853 0.76494 -0.13718
 H659 H -0.11354 0.78747 -0.16489
 H660 H -0.10963 0.62566 -0.05101
 H661 H -0.09205 0.58595 -0.03330
 H662 H -0.03371 0.58595 -0.09170
 H663 H -0.05146 0.62566 -0.10924
 C664 C 0.14006 0.75517 0.11578
 C665 C 0.13152 0.73531 0.13152
 C666 C 0.13355 0.73760 0.15803
 C667 C 0.14408 0.75964 0.16878
 C668 C 0.15276 0.77971 0.15313
 C669 C 0.15062 0.77724 0.12649
 C670 C 0.12078 0.71253 0.12052
 C671 C 0.11182 0.69338 0.11142
 C672 C 0.10138 0.67087 0.10091
 C673 C 0.09251 0.65157 0.09203
 C674 C 0.08198 0.62845 0.08155
 C675 C 0.06056 0.61711 0.09288
 C676 C 0.05047 0.59450 0.08288
 C677 C 0.06173 0.58296 0.06142
 C678 C 0.08318 0.59452 0.05009
 C679 C 0.09324 0.61713 0.06012
 H680 H 0.13853 0.75362 0.09523
 H681 H 0.12707 0.72230 0.17040
 H682 H 0.14578 0.76085 0.18933
 H683 H 0.15685 0.79248 0.11396
 H684 H 0.05170 0.62571 0.10946
 H685 H 0.03390 0.58604 0.09195
 H686 H 0.09220 0.58608 0.03351
 H687 H 0.10982 0.62575 0.05120
 C688 C 0.26250 1.13330 0.84165
 C689 C 0.26484 1.13124 0.86816
 C690 C 0.24501 1.13975 0.88394
 C691 C 0.22294 1.15033 0.87327
 C692 C 0.22042 1.15252 0.84664
 C693 C 0.24045 1.14385 0.83094
 C694 C 0.28765 1.12053 0.87913
 C695 C 0.30683 1.11163 0.88822
 C696 C 0.32937 1.10125 0.89875
 C697 C 0.34868 1.09244 0.90764
 C698 C 0.37182 1.08197 0.91814
 C699 C 0.38309 1.09326 0.93956
 C700 C 0.40571 1.08324 0.94962
 C701 C 0.41732 1.06181 0.93833
 C702 C 0.40584 1.05053 0.91688
 C703 C 0.38322 1.06058 0.90685
 H704 H 0.27778 1.12685 0.82926
 H705 H 0.24661 1.13820 0.90448
 H706 H 0.20773 1.15656 0.88583
 H707 H 0.23923 1.14560 0.81040
 H708 H 0.37443 1.10982 0.94845
 H709 H 0.41411 1.09227 0.96619
 H710 H 0.41433 1.03397 0.90784
 H711 H 0.37465 1.05169 0.89028
 C712 C 0.24458 0.86066 1.11568
 C713 C 0.26456 0.86884 1.13140
 C714 C 0.26237 0.86647 1.15790
 C715 C 0.24030 0.85595 1.16867
 C716 C 0.22010 0.84765 1.15304
 C717 C 0.22249 0.85012 1.12641
 C718 C 0.28738 0.87952 1.12036
 C719 C 0.30656 0.88843 1.11123
 C720 C 0.32910 0.89881 1.10067
 C721 C 0.34842 0.90764 1.09175
 C722 C 0.37157 0.91814 1.08124
 C723 C 0.38289 0.93957 1.09252
 C724 C 0.40552 0.94965 1.08250
 C725 C 0.41708 0.93838 1.06107
 C726 C 0.40554 0.91692 1.04978
 C727 C 0.38291 0.90687 1.05984
 H728 H 0.24606 0.86244 1.09514
 H729 H 0.27777 0.87265 1.17024
 H730 H 0.23919 0.85395 1.18920
 H731 H 0.20715 0.84414 1.11392
 H732 H 0.37427 0.94845 1.10909
 H733 H 0.41395 0.96623 1.09153
 H734 H 0.41400 0.90790 1.03322
 H735 H 0.37430 0.89029 1.05095
 C736 C 0.75497 1.13947 1.11609
 C737 C 0.73507 1.13105 1.13185
 C738 C 0.73730 1.13325 1.15835
 C739 C 0.75931 1.14387 1.16908
 C740 C 0.77939 1.15246 1.15341
 C741 C 0.77699 1.15012 1.12678
 C742 C 0.71230 1.12030 1.12086
 C743 C 0.69316 1.11135 1.11175
 C744 C 0.67066 1.10095 1.10119
 C745 C 0.65137 1.09213 1.09226
 C746 C 0.62826 1.08166 1.08171
 C747 C 0.61689 1.06020 1.09293
 C748 C 0.59430 1.05016 1.08285
 C749 C 0.58281 1.06153 1.06144
 C750 C 0.59440 1.08303 1.05022
 C751 C 0.61699 1.09303 1.06032
 H752 H 0.75346 1.13780 1.09555
 H753 H 0.72198 1.12686 1.17072
 H754 H 0.76046 1.14571 1.18962
 H755 H 0.79226 1.15626 1.11424
 H756 H 0.62546 1.05125 1.10948
 H757 H 0.58583 1.03355 1.09184
 H758 H 0.58600 1.09212 1.03367
 H759 H 0.62564 1.10965 1.05149
 C760 C 0.73765 0.84191 0.86598
 C761 C 0.73535 0.86847 0.86813
 C762 C 0.75520 0.88428 0.85966
 C763 C 0.77726 0.87359 0.84905
 C764 C 0.77975 0.84690 0.84680
 C765 C 0.75969 0.83118 0.85539
 C766 C 0.71258 0.87946 0.87894
 C767 C 0.69343 0.88855 0.88795
 C768 C 0.67093 0.89906 0.89845
 C769 C 0.65164 0.90794 0.90736
 C770 C 0.62852 0.91845 0.91791
 C771 C 0.61722 0.93996 0.90672
 C772 C 0.59462 0.95002 0.91679
 C773 C 0.58305 0.93865 0.93819
 C774 C 0.59457 0.91712 0.94939
 C775 C 0.61718 0.90709 0.93928
 H776 H 0.72237 0.82950 0.87240
 H777 H 0.75364 0.90487 0.86129
 H778 H 0.79250 0.88616 0.84287
 H779 H 0.76091 0.81059 0.85361
 H780 H 0.62585 0.94891 0.89017
 H781 H 0.58620 0.96666 0.90782
 H782 H 0.58611 0.90802 0.96593
 H783 H 0.62577 0.89044 0.94810
   
