data_POSCAR
  _audit_creation_date              2014-09-24
  _audit_creation_method            'ToBaCCo'
  _symmetry_space_group_name_H-M    'P1'
  _symmetry_Int_Tables_number       1
  _symmetry_cell_setting            triclinic
  loop_
  _symmetry_equiv_pos_as_xyz
 x,y,z
_cell_length_a 43.1554
_cell_length_b 44.1052
_cell_length_c 50.4646
_cell_angle_alpha 90.026400
_cell_angle_beta 89.882600
_cell_angle_gamma 122.896200
loop_
  _atom_site_label
  _atom_site_type_symbol
  _atom_site_fract_x
  _atom_site_fract_y
  _atom_site_fract_z
O1 O 0.03963 0.55054 1.28209
 O2 O -0.02879 0.51784 1.22935
 O3 O -0.03226 0.51286 1.28072
 O4 O 0.04251 0.54921 1.23034
 O5 O 0.03918 0.49750 1.23128
 O6 O -0.03575 0.46111 1.27933
 O7 O -0.03210 0.46624 1.22787
 O8 O 0.03620 0.49881 1.28265
 Cu9 Cu 0.00571 0.53778 1.25569
 Cu10 Cu 0.00152 0.47579 1.25529
 C11 C 0.04965 0.53060 1.29160
 C12 C -0.04226 0.48675 1.21935
 C13 C -0.04700 0.48030 1.28836
 C14 C 0.05358 0.52923 1.22233
 O15 O 0.42702 0.46439 1.27294
 O16 O 0.45901 0.42803 1.22141
 O17 O 0.45883 0.42875 1.27303
 O18 O 0.42599 0.46317 1.22118
 O19 O 0.48011 0.51479 1.22070
 O20 O 0.51310 0.48022 1.27267
 O21 O 0.51315 0.47961 1.22098
 O22 O 0.48124 0.51581 1.27228
 Cu23 Cu 0.43727 0.44096 1.24708
 Cu24 Cu 0.50233 0.50274 1.24648
 C25 C 0.44882 0.49623 1.28173
 C26 C 0.49173 0.44762 1.21248
 C27 C 0.49142 0.44867 1.28196
 C28 C 0.44729 0.49490 1.21213
 O29 O 0.52186 0.96919 1.27654
 O30 O 0.56235 1.03924 1.22444
 O31 O 0.55925 1.03941 1.27595
 O32 O 0.52676 0.96924 1.22501
 O33 O 0.47435 0.96659 1.22219
 O34 O 0.50717 1.03731 1.27335
 O35 O 0.50990 1.03654 1.22178
 O36 O 0.46969 0.96688 1.27370
 Cu37 Cu 0.54776 1.00449 1.25080
 Cu38 Cu 0.48503 1.00157 1.24753
 C39 C 0.48876 0.95600 1.28411
 C40 C 0.54287 1.04972 1.21408
 C41 C 0.53900 1.05054 1.28346
 C42 C 0.49514 0.95604 1.21470
 O43 O 0.96723 0.52539 0.72050
 O44 O 1.04097 0.55966 0.76959
 O45 O 1.03924 0.56114 0.71822
 O46 O 0.96921 0.51970 0.77181
 O47 O 0.96843 0.46951 0.76776
 O48 O 1.03850 0.51090 0.71561
 O49 O 1.04021 0.50932 0.76723
 O50 O 0.96656 0.47524 0.71661
 Cu51 Cu 1.00417 0.54643 0.74533
 Cu52 Cu 1.00339 0.48627 0.74142
 C53 C 0.95415 0.49460 0.71009
 C54 C 1.05323 0.54063 0.77695
 C55 C 1.05111 0.54295 0.70787
 C56 C 0.95683 0.48732 0.77886
 O57 O 0.48085 0.44597 0.72911
 O58 O 0.44035 0.47345 0.78088
 O59 O 0.44285 0.47582 0.72938
 O60 O 0.47654 0.44179 0.78073
 O61 O 0.52879 0.49504 0.78304
 O62 O 0.49494 0.52927 0.73132
 O63 O 0.49263 0.52672 0.78299
 O64 O 0.53283 0.49945 0.73149
 Cu65 Cu 0.45496 0.45388 0.75480
 Cu66 Cu 0.51751 0.51797 0.75745
 C67 C 0.51376 0.46818 0.72133
 C68 C 0.45974 0.50488 0.79085
 C69 C 0.46306 0.50826 0.72146
 C70 C 0.50825 0.46250 0.79082
 O71 O 0.54924 0.03732 0.72309
 O72 O 0.50951 -0.03272 0.77506
 O73 O 0.50986 -0.03282 0.72343
 O74 O 0.54937 0.03757 0.77477
 O75 O 0.49883 0.03856 0.77465
 O76 O 0.45906 -0.03238 0.72321
 O77 O 0.45891 -0.03183 0.77493
 O78 O 0.49828 0.03759 0.72295
 Cu79 Cu 0.53457 0.00229 0.74913
 Cu80 Cu 0.47369 0.00305 0.74899
 C81 C 0.53035 0.04918 0.71395
 C82 C 0.47737 -0.04420 0.78393
 C83 C 0.47782 -0.04458 0.71430
 C84 C 0.53095 0.05015 0.78356
 O85 O 0.39177 0.65946 0.98214
 O86 O 0.39354 0.71787 0.97050
 C87 C 0.37751 0.73344 0.96320
 O88 O 0.34867 0.72813 0.97456
 O89 O 0.28850 0.66592 0.96506
 C90 C 0.27040 0.63209 0.96147
 O91 O 0.27261 0.61072 0.97712
 O92 O 0.33454 0.61362 0.97274
 C93 C 0.36916 0.63138 0.96886
 O94 O 0.38657 0.67131 1.03407
 O95 O 0.39044 0.73090 1.02264
 C96 C 0.36653 0.73526 1.03365
 O97 O 0.33297 0.71801 1.02664
 O98 O 0.27087 0.65754 1.01701
 C99 C 0.26524 0.63259 1.03282
 O100 O 0.28149 0.61590 1.03042
 O101 O 0.34104 0.61465 1.02582
 C102 C 0.36851 0.63793 1.03949
 Cr103 Cr 0.38861 0.69389 1.00225
 Cr104 Cr 0.31118 0.69147 0.99595
 Cr105 Cr 0.30840 0.61562 1.00147
 O106 O 0.33618 0.66704 0.99988
 O107 O 0.61652 0.34869 0.98022
 O108 O 0.61417 0.28996 0.96859
 C109 C 0.63020 0.27416 0.96179
 O110 O 0.65808 0.27858 0.97403
 O111 O 0.72036 0.34072 0.96814
 C112 C 0.73869 0.37477 0.96547
 O113 O 0.73521 0.39524 0.98120
 O114 O 0.67493 0.39443 0.97426
 C115 C 0.64091 0.37754 0.96845
 O116 O 0.61586 0.33391 1.03238
 O117 O 0.61167 0.27420 1.02068
 C118 C 0.63369 0.26800 1.03256
 O119 O 0.66780 0.28445 1.02699
 O120 O 0.73173 0.34480 1.02115
 C121 C 0.73735 0.37000 1.03672
 O122 O 0.72183 0.38728 1.03375
 O123 O 0.66368 0.39030 1.02693
 C124 C 0.63448 0.36688 1.03904
 Cr125 Cr 0.61661 0.31268 1.00048
 Cr126 Cr 0.69357 0.31312 0.99768
 Cr127 Cr 0.69782 0.38982 1.00393
 O128 O 0.66924 0.33848 1.00071
 O129 O 0.64144 0.38260 0.52587
 O130 O 0.70153 0.38299 0.53317
 C131 C 0.71851 0.36710 0.53596
 O132 O 0.71406 0.34253 0.52027
 O133 O 0.65129 0.28106 0.52572
 C134 C 0.61684 0.26290 0.53020
 O135 O 0.59434 0.26737 0.51719
 O136 O 0.59503 0.32502 0.52934
 C137 C 0.61221 0.35751 0.53711
 O138 O 0.65463 0.38896 0.47314
 O139 O 0.71616 0.39231 0.48055
 C140 C 0.72108 0.37244 0.46509
 O141 O 0.70358 0.33839 0.46755
 O142 O 0.64296 0.27488 0.47278
 C143 C 0.61581 0.27009 0.45934
 O144 O 0.59858 0.28496 0.46527
 O145 O 0.59693 0.34133 0.47751
 C146 C 0.62094 0.37091 0.46640
 Cr147 Cr 0.67740 0.38477 0.50304
 Cr148 Cr 0.67698 0.31010 0.49666
 Cr149 Cr 0.59824 0.30575 0.49740
 O150 O 0.65081 0.33357 0.49905
 O151 O 0.35137 0.61841 0.53172
 O152 O 0.29000 0.61457 0.52263
 C153 C 0.28478 0.63653 0.53504
 O154 O 0.30225 0.66992 0.52960
 O155 O 0.36442 0.73154 0.52188
 C156 C 0.39210 0.73723 0.53528
 O157 O 0.40891 0.72156 0.53037
 O158 O 0.40906 0.66317 0.52294
 C159 C 0.38560 0.63615 0.53671
 O160 O 0.36183 0.61592 0.47906
 O161 O 0.30210 0.61523 0.47023
 C162 C 0.28592 0.63119 0.46442
 O163 O 0.29191 0.65915 0.47670
 O164 O 0.35526 0.71972 0.46885
 C165 C 0.38959 0.73678 0.46409
 O166 O 0.41163 0.73248 0.47773
 O167 O 0.40794 0.67223 0.47007
 C168 C 0.38961 0.63865 0.46527
 Cr169 Cr 0.32741 0.61804 0.50090
 Cr170 Cr 0.32946 0.69416 0.49927
 Cr171 Cr 0.40735 0.69632 0.50028
 O172 O 0.35468 0.66952 0.50015
 C173 C 0.39148 0.50083 0.33490
 C174 C 0.41563 0.53576 0.34558
 C175 C 0.45067 0.55779 0.33341
 C176 C 0.46124 0.54475 0.31215
 C177 C 0.43738 0.50968 0.30223
 C178 C 0.40223 0.48814 0.31369
 C179 C 0.47527 0.59274 0.34260
 C180 C 0.46604 0.60656 0.36369
 C181 C 0.43171 0.58574 0.37679
 C182 C 0.40627 0.54955 0.36782
 C183 C 0.37260 0.52820 0.38164
 C184 C 0.36385 0.54164 0.40326
 C185 C 0.38797 0.57696 0.41192
 C186 C 0.42212 0.59972 0.39875
 C187 C 0.44508 0.63563 0.40813
 C188 C 0.43459 0.64802 0.42966
 C189 C 0.40102 0.62520 0.44276
 C190 C 0.37789 0.58963 0.43372
 H191 H 0.36399 0.48252 0.34233
 H192 H 0.48844 0.56209 0.30349
 H193 H 0.38283 0.46107 0.30648
 H194 H 0.50212 0.60970 0.33337
 H195 H 0.48690 0.63368 0.36949
 H196 H 0.35239 0.50058 0.37653
 H197 H 0.33772 0.52411 0.41328
 H198 H 0.47116 0.65510 0.39915
 H199 H 0.45296 0.67571 0.43606
 H200 H 0.35160 0.57176 0.44345
 C201 C 0.42100 0.88833 0.33235
 C202 C 0.44154 0.87611 0.34500
 C203 C 0.47861 0.89154 0.33671
 C204 C 0.49394 0.91761 0.31645
 C205 C 0.47320 0.92947 0.30411
 C206 C 0.43657 0.91443 0.31239
 C207 C 0.50039 0.88105 0.34872
 C208 C 0.48655 0.85592 0.36912
 C209 C 0.44993 0.83984 0.37833
 C210 C 0.42678 0.84950 0.36567
 C211 C 0.38964 0.83209 0.37401
 C212 C 0.37571 0.80670 0.39427
 C213 C 0.39812 0.79774 0.40729
 C214 C 0.43560 0.81424 0.39966
 C215 C 0.45722 0.80461 0.41395
 C216 C 0.44216 0.77963 0.43464
 C217 C 0.40505 0.76320 0.44195
 C218 C 0.38316 0.77239 0.42806
 H219 H 0.39291 0.87869 0.33757
 H220 H 0.52235 0.92889 0.31050
 H221 H 0.41960 0.92287 0.30348
 H222 H 0.52869 0.89260 0.34238
 H223 H 0.50538 0.84944 0.37708
 H224 H 0.37025 0.83716 0.36509
 H225 H 0.34700 0.79407 0.39992
 H226 H 0.48604 0.81609 0.40996
 H227 H 0.45987 0.77319 0.44496
 H228 H 0.35443 0.76005 0.43356
 C229 C 0.11399 0.59276 0.34518
 C230 C 0.13111 0.57498 0.35426
 C231 C 0.12061 0.54170 0.34207
 C232 C 0.09374 0.52693 0.32195
 C233 C 0.07722 0.54509 0.31326
 C234 C 0.08769 0.57806 0.32511
 C235 C 0.13713 0.52340 0.34989
 C236 C 0.16419 0.53745 0.36935
 C237 C 0.17573 0.57049 0.38210
 C238 C 0.15840 0.58922 0.37477
 C239 C 0.16874 0.62144 0.38832
 C240 C 0.19529 0.63519 0.40806
 C241 C 0.21295 0.61773 0.41508
 C242 C 0.20374 0.58529 0.40214
 C243 C 0.22317 0.56920 0.40980
 C244 C 0.24984 0.58431 0.42971
 C245 C 0.25828 0.61600 0.44275
 C246 C 0.23978 0.63264 0.43515
 H247 H 0.12049 0.61835 0.35284
 H248 H 0.08606 0.50151 0.31282
 H249 H 0.07550 0.59281 0.31883
 H250 H 0.12919 0.49792 0.34074
 H251 H 0.17525 0.52136 0.37414
 H252 H 0.15651 0.63671 0.38443
 H253 H 0.20213 0.65992 0.41793
 H254 H 0.21870 0.54502 0.40077
 H255 H 0.26380 0.57086 0.43496
 H256 H 0.24615 0.65730 0.44491
 C257 C 0.49080 0.38804 0.33533
 C258 C 0.52614 0.40991 0.34698
 C259 C 0.55040 0.44467 0.33593
 C260 C 0.53919 0.45696 0.31459
 C261 C 0.50384 0.43515 0.30368
 C262 C 0.47997 0.40055 0.31416
 C263 C 0.58571 0.46718 0.34630
 C264 C 0.59774 0.45613 0.36746
 C265 C 0.57472 0.42191 0.37936
 C266 C 0.53818 0.39853 0.36910
 C267 C 0.51481 0.36470 0.38145
 C268 C 0.52664 0.35382 0.40281
 C269 C 0.56223 0.37596 0.41278
 C270 C 0.58692 0.41029 0.40126
 C271 C 0.62287 0.43138 0.41214
 C272 C 0.63360 0.41874 0.43332
 C273 C 0.60901 0.38479 0.44456
 C274 C 0.57325 0.36366 0.43420
 H275 H 0.47070 0.36108 0.34198
 H276 H 0.55801 0.48377 0.30662
 H277 H 0.45255 0.38297 0.30607
 H278 H 0.60436 0.49379 0.33794
 H279 H 0.62536 0.47539 0.37415
 H280 H 0.48685 0.34583 0.37523
 H281 H 0.50763 0.32758 0.41159
 H282 H 0.64363 0.45763 0.40465
 H283 H 0.66146 0.43570 0.44082
 H284 H 0.55396 0.33721 0.44256
 C285 C 0.59974 0.11767 0.33433
 C286 C 0.57821 0.13080 0.34368
 C287 C 0.54330 0.11699 0.33174
 C288 C 0.53045 0.09059 0.31178
 C289 C 0.55193 0.07740 0.30307
 C290 C 0.58680 0.09156 0.31451
 C291 C 0.52121 0.12944 0.33982
 C292 C 0.53277 0.15520 0.35965
 C293 C 0.56704 0.16951 0.37250
 C294 C 0.59005 0.15694 0.36447
 C295 C 0.62391 0.17053 0.37774
 C296 C 0.63488 0.19522 0.39821
 C297 C 0.61287 0.20771 0.40626
 C298 C 0.57886 0.19554 0.39341
 C299 C 0.55816 0.20991 0.40222
 C300 C 0.57036 0.23439 0.42326
 C301 C 0.60351 0.24542 0.43627
 C302 C 0.62476 0.23219 0.42739
 H303 H 0.62683 0.12694 0.34177
 H304 H 0.50352 0.08027 0.30311
 H305 H 0.60441 0.08238 0.30825
 H306 H 0.49452 0.11905 0.33073
 H307 H 0.51378 0.16298 0.36469
 H308 H 0.64262 0.16229 0.37311
 H309 H 0.66095 0.20455 0.40795
 H310 H 0.53240 0.20287 0.39337
 H311 H 0.55346 0.24435 0.42956
 H312 H 0.65072 0.24083 0.43705
 C313 C 0.87444 0.41047 0.33099
 C314 C 0.86481 0.43113 0.34619
 C315 C 0.88502 0.46897 0.34174
 C316 C 0.91326 0.48501 0.32254
 C317 C 0.92245 0.46398 0.30787
 C318 C 0.90268 0.42666 0.31231
 C319 C 0.87728 0.49067 0.35670
 C320 C 0.85048 0.47588 0.37643
 C321 C 0.82979 0.43843 0.38182
 C322 C 0.83636 0.41558 0.36590
 C323 C 0.81422 0.37790 0.37016
 C324 C 0.78756 0.36306 0.38985
 C325 C 0.78183 0.38497 0.40623
 C326 C 0.80267 0.42295 0.40254
 C327 C 0.79570 0.44373 0.42004
 C328 C 0.76928 0.42737 0.44015
 C329 C 0.74887 0.38982 0.44361
 C330 C 0.75528 0.36885 0.42641
 H331 H 0.86132 0.38177 0.33330
 H332 H 0.92856 0.51396 0.31941
 H333 H 0.90911 0.40965 0.30130
 H334 H 0.89246 0.51957 0.35334
 H335 H 0.84645 0.49468 0.38702
 H336 H 0.81641 0.35879 0.35840
 H337 H 0.77139 0.33398 0.39240
 H338 H 0.81044 0.47272 0.41902
 H339 H 0.76499 0.44434 0.45313
 H340 H 0.73971 0.33975 0.42879
 C341 C 0.49495 0.38442 1.16309
 C342 C 0.53136 0.40571 1.15287
 C343 C 0.55429 0.44132 1.16283
 C344 C 0.54121 0.45462 1.18217
 C345 C 0.50516 0.43318 1.19206
 C346 C 0.48223 0.39801 1.18231
 C347 C 0.59024 0.46368 1.15347
 C348 C 0.60410 0.45185 1.13411
 C349 C 0.58249 0.41681 1.12323
 C350 C 0.54568 0.39313 1.13305
 C351 C 0.52452 0.35772 1.12273
 C352 C 0.53838 0.34600 1.10320
 C353 C 0.57378 0.36897 1.09296
 C354 C 0.59644 0.40469 1.10282
 C355 C 0.63201 0.42693 1.09150
 C356 C 0.64415 0.41434 1.07123
 C357 C 0.62158 0.37914 1.06143
 C358 C 0.58648 0.35645 1.07265
 H359 H 0.47541 0.35724 1.15660
 H360 H 0.55930 0.48192 1.18951
 H361 H 0.45420 0.38079 1.18954
 H362 H 0.60794 0.49086 1.16114
 H363 H 0.63216 0.47105 1.12821
 H364 H 0.49693 0.33812 1.12938
 H365 H 0.52098 0.31861 1.09585
 H366 H 0.65115 0.45443 1.09752
 H367 H 0.67148 0.43253 1.06308
 H368 H 0.56864 0.32916 1.06523
 C369 C 0.89419 0.48793 1.17041
 C370 C 0.87855 0.45418 1.15762
 C371 C 0.89078 0.43152 1.16559
 C372 C 0.91667 0.44202 1.18619
 C373 C 0.93161 0.47553 1.19888
 C374 C 0.92008 0.49826 1.19051
 C375 C 0.87728 0.39859 1.15284
 C376 C 0.85240 0.38782 1.13202
 C377 C 0.83931 0.40936 1.12335
 C378 C 0.85171 0.44253 1.13696
 C379 C 0.83653 0.46276 1.12972
 C380 C 0.81113 0.45177 1.10934
 C381 C 0.79999 0.42042 1.09511
 C382 C 0.81395 0.39875 1.10172
 C383 C 0.80220 0.36763 1.08610
 C384 C 0.77753 0.35849 1.06514
 C385 C 0.76357 0.37985 1.05897
 C386 C 0.77493 0.41076 1.07417
 H387 H 0.88767 0.50747 1.16508
 H388 H 0.92541 0.42415 1.19210
 H389 H 0.93108 0.52449 1.19952
 H390 H 0.88635 0.38102 1.15886
 H391 H 0.84344 0.36199 1.12339
 H392 H 0.84314 0.48711 1.13975
 H393 H 0.80027 0.46823 1.10455
 H394 H 0.81191 0.35001 1.08924
 H395 H 0.76933 0.33445 1.05374
 H396 H 0.76455 0.42768 1.06955
 C397 C 0.60972 0.11926 1.16434
 C398 C 0.58763 0.12923 1.15103
 C399 C 0.55031 0.11223 1.15919
 C400 C 0.53618 0.08677 1.17981
 C401 C 0.55841 0.07722 1.19271
 C402 C 0.59526 0.09371 1.18475
 C403 C 0.52707 0.12055 1.14671
 C404 C 0.53979 0.14525 1.12608
 C405 C 0.57663 0.16299 1.11704
 C406 C 0.60111 0.15519 1.12993
 C407 C 0.63823 0.17375 1.12139
 C408 C 0.65104 0.19884 1.10096
 C409 C 0.62750 0.20640 1.08800
 C410 C 0.58990 0.18849 1.09566
 C411 C 0.56719 0.19691 1.08150
 C412 C 0.58141 0.22231 1.06106
 C413 C 0.61869 0.24028 1.05383
 C414 C 0.64153 0.23199 1.06739
 H415 H 0.63822 0.13039 1.15941
 H416 H 0.50754 0.07410 1.18567
 H417 H 0.61310 0.08682 1.19430
 H418 H 0.49855 0.10769 1.15294
 H419 H 0.51984 0.15000 1.11778
 H420 H 0.65843 0.16977 1.13024
 H421 H 0.67982 0.21248 1.09521
 H422 H 0.53823 0.18437 1.08554
 H423 H 0.56297 0.22797 1.05095
 H424 H 0.67044 0.24558 1.06201
 C425 C 0.38596 0.49830 1.16022
 C426 C 0.40716 0.53466 1.15150
 C427 C 0.44192 0.55790 1.16369
 C428 C 0.45490 0.54482 1.18328
 C429 C 0.43364 0.50867 1.19144
 C430 C 0.39904 0.48570 1.17981
 C431 C 0.46366 0.59411 1.15631
 C432 C 0.45184 0.60804 1.13704
 C433 C 0.41765 0.58611 1.12405
 C434 C 0.39511 0.54870 1.13119
 C435 C 0.36153 0.52648 1.11756
 C436 C 0.35033 0.54009 1.09762
 C437 C 0.37179 0.57641 1.09054
 C438 C 0.40550 0.60017 1.10382
 C439 C 0.42561 0.63699 1.09615
 C440 C 0.41327 0.64919 1.07570
 C441 C 0.38049 0.62530 1.06215
 C442 C 0.35970 0.58897 1.06997
 H443 H 0.35902 0.47879 1.15253
 H444 H 0.48162 0.56299 1.19228
 H445 H 0.38189 0.45766 1.18579
 H446 H 0.49026 0.61200 1.16556
 H447 H 0.47061 0.63621 1.13253
 H448 H 0.34327 0.49806 1.12147
 H449 H 0.32450 0.52183 1.08756
 H450 H 0.45101 0.65722 1.10548
 H451 H 0.42983 0.67748 1.07028
 H452 H 0.33406 0.57020 1.05988
 C453 C 0.12708 0.53365 1.17880
 C454 C 0.13559 0.56180 1.16084
 C455 C 0.11737 0.58034 1.16442
 C456 C 0.09174 0.57077 1.18513
 C457 C 0.08304 0.54213 1.20216
 C458 C 0.10122 0.52403 1.19892
 C459 C 0.12424 0.60785 1.14702
 C460 C 0.14802 0.61686 1.12564
 C461 C 0.16634 0.59882 1.12087
 C462 C 0.16085 0.57156 1.13921
 C463 C 0.18073 0.55493 1.13530
 C464 C 0.20440 0.56382 1.11393
 C465 C 0.20915 0.58940 1.09541
 C466 C 0.19016 0.60724 1.09846
 C467 C 0.19566 0.63255 1.07874
 C468 C 0.21949 0.64020 1.05743
 C469 C 0.23860 0.62288 1.05481
 C470 C 0.23305 0.59731 1.07387
 H471 H 0.13912 0.51779 1.17759
 H472 H 0.07761 0.58478 1.18738
 H473 H 0.09515 0.50187 1.21188
 H474 H 0.11066 0.62232 1.14974
 H475 H 0.15162 0.63842 1.11327
 H476 H 0.17902 0.53500 1.14859
 H477 H 0.21905 0.55030 1.11182
 H478 H 0.18187 0.64684 1.07901
 H479 H 0.22304 0.66001 1.04299
 H480 H 0.24765 0.58369 1.07212
 C481 C 0.49545 0.89313 1.16383
 C482 C 0.46059 0.87782 1.15150
 C483 C 0.43673 0.88810 1.16127
 C484 C 0.44794 0.91326 1.18195
 C485 C 0.48282 0.92859 1.19353
 C486 C 0.50625 0.91803 1.18439
 C487 C 0.40183 0.87343 1.15028
 C488 C 0.38978 0.84861 1.12977
 C489 C 0.41242 0.83755 1.11913
 C490 C 0.44861 0.85276 1.12995
 C491 C 0.47177 0.84273 1.11865
 C492 C 0.46003 0.81853 1.09774
 C493 C 0.42472 0.80303 1.08729
 C494 C 0.40023 0.81204 1.09786
 C495 C 0.36446 0.79488 1.08672
 C496 C 0.35383 0.77027 1.06597
 C497 C 0.37831 0.76181 1.05546
 C498 C 0.41378 0.77839 1.06627
 H499 H 0.51513 0.88646 1.15822
 H500 H 0.42945 0.92104 1.18895
 H501 H 0.53330 0.92925 1.19306
 H502 H 0.38351 0.88122 1.15764
 H503 H 0.36253 0.83894 1.12248
 H504 H 0.49953 0.85344 1.12529
 H505 H 0.47888 0.81180 1.08970
 H506 H 0.34375 0.79949 1.09365
 H507 H 0.32615 0.75780 1.05814
 H508 H 0.43293 0.77186 1.05850
 C509 C 0.58072 0.47422 0.66977
 C510 C 0.56076 0.43971 0.65771
 C511 C 0.52512 0.41418 0.66789
 C512 C 0.51008 0.42341 0.68872
 C513 C 0.53001 0.45794 0.70001
 C514 C 0.56553 0.48304 0.69046
 C515 C 0.50448 0.37958 0.65717
 C516 C 0.51822 0.36953 0.63644
 C517 C 0.55334 0.39393 0.62532
 C518 C 0.57484 0.42973 0.63597
 C519 C 0.60944 0.45450 0.62428
 C520 C 0.62270 0.44480 0.60303
 C521 C 0.60233 0.41003 0.59260
 C522 C 0.56753 0.38390 0.60367
 C523 C 0.54846 0.34881 0.59253
 C524 C 0.56308 0.34045 0.57116
 C525 C 0.59717 0.36659 0.56003
 C526 C 0.61669 0.40133 0.57100
 H527 H 0.60820 0.49514 0.66383
 H528 H 0.48264 0.40364 0.69604
 H529 H 0.58173 0.50989 0.69889
 H530 H 0.47723 0.35995 0.66487
 H531 H 0.50018 0.34235 0.62937
 H532 H 0.62701 0.48200 0.63084
 H533 H 0.64932 0.46487 0.59465
 H534 H 0.52224 0.32701 0.59984
 H535 H 0.54739 0.31327 0.56326
 H536 H 0.64327 0.42177 0.56277
 C537 C 0.59593 0.11733 0.66311
 C538 C 0.57359 0.12721 0.65007
 C539 C 0.53654 0.11058 0.65876
 C540 C 0.52296 0.08574 0.67976
 C541 C 0.54544 0.07630 0.69239
 C542 C 0.58197 0.09229 0.68383
 C543 C 0.51299 0.11860 0.64641
 C544 C 0.52511 0.14254 0.62531
 C545 C 0.56167 0.15986 0.61575
 C546 C 0.58655 0.15265 0.62868
 C547 C 0.62360 0.17136 0.61996
 C548 C 0.63592 0.19598 0.59926
 C549 C 0.61191 0.20275 0.58613
 C550 C 0.57434 0.18456 0.59391
 C551 C 0.55105 0.19188 0.57937
 C552 C 0.56480 0.21679 0.55862
 C553 C 0.60213 0.23530 0.55148
 C554 C 0.62546 0.22787 0.56527
 H555 H 0.62417 0.12801 0.65764
 H556 H 0.49450 0.07333 0.68604
 H557 H 0.59994 0.08538 0.69315
 H558 H 0.48468 0.10606 0.65306
 H559 H 0.50504 0.14722 0.61716
 H560 H 0.64414 0.16804 0.62899
 H561 H 0.66469 0.20987 0.59343
 H562 H 0.52199 0.17874 0.58332
 H563 H 0.54601 0.22177 0.54827
 H564 H 0.65438 0.24179 0.55987
 C565 C 0.88131 0.49042 0.66577
 C566 C 0.86677 0.45723 0.65228
 C567 C 0.88206 0.43653 0.65823
 C568 C 0.91026 0.44857 0.67716
 C569 C 0.92421 0.48148 0.69031
 C570 C 0.90943 0.50218 0.68438
 C571 C 0.86931 0.40397 0.64520
 C572 C 0.84215 0.39163 0.62594
 C573 C 0.82623 0.41131 0.61901
 C574 C 0.83806 0.44419 0.63289
 C575 C 0.82071 0.46284 0.62699
 C576 C 0.79362 0.45056 0.60769
 C577 C 0.78280 0.41939 0.59328
 C578 C 0.79884 0.39923 0.59868
 C579 C 0.78714 0.36809 0.58314
 C580 C 0.76098 0.35776 0.56316
 C581 C 0.74533 0.37786 0.55788
 C582 C 0.75617 0.40852 0.57326
 H583 H 0.87205 0.50832 0.66225
 H584 H 0.92156 0.43236 0.68148
 H585 H 0.91969 0.52781 0.69414
 H586 H 0.88069 0.38791 0.64978
 H587 H 0.83404 0.36620 0.61699
 H588 H 0.82717 0.48708 0.63711
 H589 H 0.78125 0.46592 0.60382
 H590 H 0.79800 0.35131 0.58550
 H591 H 0.75313 0.33387 0.55168
 H592 H 0.74438 0.42440 0.56935
 C593 C 0.39953 0.51128 0.67147
 C594 C 0.42278 0.54503 0.65881
 C595 C 0.45991 0.56664 0.66752
 C596 C 0.47271 0.55491 0.68822
 C597 C 0.44929 0.52134 0.70037
 C598 C 0.41266 0.49976 0.69178
 C599 C 0.48427 0.59973 0.65540
 C600 C 0.47295 0.61176 0.63441
 C601 C 0.43640 0.59123 0.62476
 C602 C 0.41064 0.55776 0.63764
 C603 C 0.37358 0.53825 0.62902
 C604 C 0.36217 0.55039 0.60819
 C605 C 0.38712 0.58223 0.59486
 C606 C 0.42464 0.60312 0.60279
 C607 C 0.44882 0.63486 0.58811
 C608 C 0.43611 0.64534 0.56681
 C609 C 0.39892 0.62473 0.55928
 C610 C 0.37460 0.59318 0.57351
 H611 H 0.37119 0.49271 0.66592
 H612 H 0.50121 0.57176 0.69455
 H613 H 0.39391 0.47363 0.70074
 H614 H 0.51262 0.61647 0.66207
 H615 H 0.49363 0.63765 0.62634
 H616 H 0.35233 0.51349 0.63817
 H617 H 0.33341 0.53444 0.60233
 H618 H 0.47786 0.65206 0.59229
 H619 H 0.45563 0.66982 0.55620
 H620 H 0.34577 0.57685 0.56786
 C621 C 0.41492 0.89141 0.66234
 C622 C 0.43557 0.87785 0.65186
 C623 C 0.47031 0.89013 0.66355
 C624 C 0.48388 0.91546 0.68424
 C625 C 0.46342 0.92920 0.69410
 C626 C 0.42863 0.91653 0.68301
 C627 C 0.49164 0.87731 0.65449
 C628 C 0.47940 0.85242 0.63403
 C629 C 0.44517 0.83937 0.62149
 C630 C 0.42306 0.85263 0.63031
 C631 C 0.38949 0.84059 0.61707
 C632 C 0.37774 0.81639 0.59610
 C633 C 0.39864 0.80282 0.58754
 C634 C 0.43249 0.81380 0.60021
 C635 C 0.45213 0.79850 0.59105
 C636 C 0.43893 0.77392 0.57014
 C637 C 0.40576 0.76356 0.55743
 C638 C 0.38573 0.77819 0.56632
 H639 H 0.38797 0.88314 0.65514
 H640 H 0.51073 0.92457 0.69257
 H641 H 0.41183 0.92623 0.69015
 H642 H 0.51825 0.88666 0.66333
 H643 H 0.49793 0.84435 0.62830
 H644 H 0.37164 0.84972 0.62220
 H645 H 0.35185 0.80813 0.58650
 H646 H 0.47767 0.80458 0.59969
 H647 H 0.45501 0.76301 0.56388
 H648 H 0.35981 0.77017 0.55687
 C649 C 0.12122 0.60846 0.65949
 C650 C 0.13452 0.58822 0.64807
 C651 C 0.11857 0.55224 0.65700
 C652 C 0.09110 0.53765 0.67661
 C653 C 0.07836 0.55805 0.68794
 C654 C 0.09371 0.59359 0.67901
 C655 C 0.13006 0.53075 0.64642
 C656 C 0.15700 0.54393 0.62694
 C657 C 0.17389 0.57951 0.61718
 C658 C 0.16283 0.60223 0.62814
 C659 C 0.18062 0.63816 0.61892
 C660 C 0.20789 0.65140 0.59954
 C661 C 0.21848 0.62945 0.58835
 C662 C 0.20160 0.59315 0.59689
 C663 C 0.21306 0.57195 0.58455
 C664 C 0.23996 0.58622 0.56477
 C665 C 0.25665 0.62210 0.55645
 C666 C 0.24581 0.64364 0.56848
 H667 H 0.13131 0.63582 0.65375
 H668 H 0.07965 0.51006 0.68304
 H669 H 0.08457 0.61020 0.68717
 H670 H 0.11801 0.50325 0.65327
 H671 H 0.16411 0.52534 0.62012
 H672 H 0.17428 0.65705 0.62643
 H673 H 0.22074 0.67919 0.59315
 H674 H 0.20165 0.54407 0.58942
 H675 H 0.24768 0.56884 0.55592
 H676 H 0.25835 0.67143 0.56218
 C677 C 0.39264 0.50497 0.83943
 C678 C 0.41494 0.53846 0.85265
 C679 C 0.45254 0.56041 0.84501
 C680 C 0.46670 0.54939 0.82482
 C681 C 0.44421 0.51627 0.81190
 C682 C 0.40714 0.49417 0.81946
 C683 C 0.47605 0.59332 0.85755
 C684 C 0.46332 0.60507 0.87779
 C685 C 0.42618 0.58439 0.88628
 C686 C 0.40140 0.55082 0.87319
 C687 C 0.36390 0.53096 0.88089
 C688 C 0.35103 0.54317 0.90077
 C689 C 0.37491 0.57540 0.91404
 C690 C 0.41289 0.59637 0.90723
 C691 C 0.43597 0.62844 0.92182
 C692 C 0.42173 0.63939 0.94179
 C693 C 0.38407 0.61891 0.94807
 C694 C 0.36085 0.58679 0.93412
 H695 H 0.36397 0.48622 0.84414
 H696 H 0.49554 0.56667 0.81930
 H697 H 0.38914 0.46835 0.80991
 H698 H 0.50479 0.61025 0.85170
 H699 H 0.48344 0.63093 0.88614
 H700 H 0.34344 0.50590 0.87169
 H701 H 0.32195 0.52706 0.90586
 H702 H 0.46525 0.64571 0.91855
 H703 H 0.44046 0.66425 0.95226
 H704 H 0.33166 0.57051 0.93886
 C705 C 0.12905 0.60681 0.82291
 C706 C 0.13791 0.58489 0.83718
 C707 C 0.11825 0.54757 0.83087
 C708 C 0.09138 0.53328 0.81076
 C709 C 0.08282 0.55547 0.79710
 C710 C 0.10201 0.59226 0.80335
 C711 C 0.12509 0.52459 0.84492
 C712 C 0.15026 0.53751 0.86565
 C713 C 0.17022 0.57433 0.87297
 C714 C 0.16488 0.59860 0.85785
 C715 C 0.18674 0.63582 0.86385
 C716 C 0.21174 0.64879 0.88458
 C717 C 0.21593 0.62535 0.90033
 C718 C 0.19540 0.58780 0.89484
 C719 C 0.20059 0.56534 0.91184
 C720 C 0.22496 0.57971 0.93323
 C721 C 0.24506 0.61686 0.93848
 C722 C 0.24051 0.63948 0.92174
 H723 H 0.14176 0.63518 0.82670
 H724 H 0.07645 0.50468 0.80624
 H725 H 0.09599 0.61009 0.79315
 H726 H 0.11037 0.49609 0.84010
 H727 H 0.15368 0.51783 0.87544
 H728 H 0.18560 0.65597 0.85269
 H729 H 0.22773 0.67758 0.88849
 H730 H 0.18582 0.53649 0.90950
 H731 H 0.22786 0.56151 0.94582
 H732 H 0.25584 0.66830 0.92552
 C733 C 0.41131 0.89066 0.83582
 C734 C 0.43059 0.87577 0.84646
 C735 C 0.46563 0.88743 0.83544
 C736 C 0.48065 0.91329 0.81504
 C737 C 0.46130 0.92802 0.80505
 C738 C 0.42648 0.91626 0.81556
 C739 C 0.48567 0.87339 0.84487
 C740 C 0.47189 0.84800 0.86512
 C741 C 0.43732 0.83563 0.87699
 C742 C 0.41639 0.84988 0.86758
 C743 C 0.38213 0.83805 0.87976
 C744 C 0.36873 0.81333 0.90038
 C745 C 0.38864 0.79915 0.90972
 C746 C 0.42307 0.80974 0.89814
 C747 C 0.44169 0.79390 0.90833
 C748 C 0.42688 0.76915 0.92924
 C749 C 0.39310 0.75930 0.94078
 C750 C 0.37411 0.77437 0.93075
 H751 H 0.38440 0.88322 0.84259
 H752 H 0.50758 0.92203 0.80700
 H753 H 0.41077 0.92702 0.80819
 H754 H 0.51245 0.88218 0.83651
 H755 H 0.48938 0.83885 0.87117
 H756 H 0.36487 0.84759 0.87403
 H757 H 0.34236 0.80526 0.90916
 H758 H 0.46772 0.79987 0.90065
 H759 H 0.44213 0.75784 0.93647
 H760 H 0.34777 0.76679 0.93930
 C761 C 0.50856 0.40021 0.84223
 C762 C 0.54406 0.42169 0.85370
 C763 C 0.56811 0.45688 0.84326
 C764 C 0.55645 0.47002 0.82277
 C765 C 0.52098 0.44852 0.81201
 C766 C 0.49737 0.41348 0.82183
 C767 C 0.60369 0.47889 0.85333
 C768 C 0.61624 0.46681 0.87348
 C769 C 0.59342 0.43210 0.88472
 C770 C 0.55649 0.40942 0.87499
 C771 C 0.53308 0.37541 0.88707
 C772 C 0.54529 0.36364 0.90761
 C773 C 0.58136 0.38497 0.91689
 C774 C 0.60613 0.41941 0.90555
 C775 C 0.64268 0.43948 0.91549
 C776 C 0.65376 0.42595 0.93583
 C777 C 0.62896 0.39208 0.94711
 C778 C 0.59273 0.37180 0.93748
 H779 H 0.48871 0.37289 0.84832
 H780 H 0.57512 0.49712 0.81522
 H781 H 0.46987 0.39610 0.81381
 H782 H 0.62218 0.50584 0.84548
 H783 H 0.64401 0.48574 0.88006
 H784 H 0.50473 0.35718 0.88140
 H785 H 0.52621 0.33734 0.91628
 H786 H 0.66362 0.46555 0.90784
 H787 H 0.68201 0.44220 0.94274
 H788 H 0.57330 0.34537 0.94581
 C789 C 0.88629 0.41617 0.82579
 C790 C 0.87576 0.43566 0.84161
 C791 C 0.89277 0.47302 0.83617
 C792 C 0.91871 0.48968 0.81553
 C793 C 0.92877 0.46988 0.80016
 C794 C 0.91228 0.43305 0.80556
 C795 C 0.88405 0.49370 0.85145
 C796 C 0.85926 0.47842 0.87237
 C797 C 0.84170 0.44144 0.87880
 C798 C 0.84939 0.41950 0.86274
 C799 C 0.83029 0.38212 0.86825
 C800 C 0.80515 0.36676 0.88897
 C801 C 0.79816 0.38789 0.90528
 C802 C 0.81645 0.42556 0.90060
 C803 C 0.80886 0.44578 0.91817
 C804 C 0.78394 0.42919 0.93905
 C805 C 0.76557 0.39189 0.94337
 C806 C 0.77291 0.37141 0.92633
 H807 H 0.87547 0.38794 0.82870
 H808 H 0.93144 0.51825 0.81168
 H809 H 0.91953 0.41700 0.79408
 H810 H 0.89678 0.52221 0.84732
 H811 H 0.85416 0.49648 0.88296
 H812 H 0.83373 0.36365 0.85668
 H813 H 0.79114 0.33793 0.89234
 H814 H 0.82193 0.47456 0.91660
 H815 H 0.77901 0.44587 0.95187
 H816 H 0.75904 0.34254 0.92947
 C817 C 0.59667 0.11527 0.83555
 C818 C 0.57790 0.13106 0.84555
 C819 C 0.54336 0.12008 0.83403
 C820 C 0.52826 0.09392 0.81383
 C821 C 0.54707 0.07826 0.80448
 C822 C 0.58146 0.08942 0.81546
 C823 C 0.52390 0.13512 0.84277
 C824 C 0.53776 0.16081 0.86280
 C825 C 0.57180 0.17248 0.87519
 C826 C 0.59210 0.15718 0.86652
 C827 C 0.62571 0.16818 0.87932
 C828 C 0.63903 0.19301 0.89987
 C829 C 0.61971 0.20822 0.90850
 C830 C 0.58603 0.19859 0.89619
 C831 C 0.56806 0.21552 0.90558
 C832 C 0.58259 0.24016 0.92653
 C833 C 0.61547 0.24892 0.93894
 C834 C 0.63399 0.23296 0.92959
 H835 H 0.62323 0.12221 0.84268
 H836 H 0.50170 0.08570 0.80542
 H837 H 0.59679 0.07798 0.80859
 H838 H 0.49751 0.12687 0.83404
 H839 H 0.52069 0.17070 0.86832
 H840 H 0.64244 0.15778 0.87419
 H841 H 0.66482 0.20034 0.90918
 H842 H 0.54274 0.21044 0.89723
 H843 H 0.56771 0.25217 0.93317
 H844 H 0.65965 0.23967 0.93880
   
