data_POSCAR
  _audit_creation_date              2014-09-24
  _audit_creation_method            'ToBaCCo'
  _symmetry_space_group_name_H-M    'P1'
  _symmetry_Int_Tables_number       1
  _symmetry_cell_setting            triclinic
  loop_
  _symmetry_equiv_pos_as_xyz
 x,y,z
_cell_length_a 21.5477
_cell_length_b 22.6897
_cell_length_c 25.8745
_cell_angle_alpha 90.622700
_cell_angle_beta 90.570200
_cell_angle_gamma 90.226700
loop_
  _atom_site_label
  _atom_site_type_symbol
  _atom_site_fract_x
  _atom_site_fract_y
  _atom_site_fract_z
B1 B 0.28219 0.22661 0.30060
 B2 B 0.20725 0.21562 0.28616
 B3 B 0.23315 0.28302 0.30067
 B4 B 0.30492 0.29188 0.27708
 B5 B 0.32311 0.22689 0.24638
 B6 B 0.26185 0.17875 0.25257
 B7 B 0.22143 0.27343 0.19776
 B8 B 0.29634 0.28446 0.21296
 B9 B 0.27018 0.21709 0.19793
 B10 B 0.19821 0.20801 0.22173
 B11 B 0.18024 0.27304 0.25228
 B12 B 0.24158 0.32116 0.24607
 B13 B 0.73551 0.78925 0.20052
 B14 B 0.70988 0.72167 0.21443
 B15 B 0.78476 0.73313 0.20113
 B16 B 0.80755 0.79895 0.22629
 B17 B 0.74352 0.82816 0.25592
 B18 B 0.68236 0.77970 0.24764
 B19 B 0.77214 0.72456 0.30368
 B20 B 0.79780 0.79185 0.29057
 B21 B 0.72305 0.78092 0.30275
 B22 B 0.70056 0.71519 0.27839
 B23 B 0.76443 0.68591 0.24859
 B24 B 0.82553 0.73426 0.25667
 B25 B 0.71281 0.22473 -0.30688
 B26 B 0.78594 0.21024 -0.29088
 B27 B 0.76548 0.27870 -0.30620
 B28 B 0.69347 0.29165 -0.28420
 B29 B 0.66986 0.22856 -0.25368
 B30 B 0.72810 0.17743 -0.25851
 B31 B 0.77307 0.27094 -0.20304
 B32 B 0.69935 0.28568 -0.21993
 B33 B 0.72062 0.21739 -0.20414
 B34 B 0.79258 0.20395 -0.22648
 B35 B 0.81616 0.26711 -0.25671
 B36 B 0.75766 0.31849 -0.25174
 B37 B 0.27923 0.77612 -0.29660
 B38 B 0.20374 0.78425 -0.28411
 B39 B 0.23167 0.71806 -0.29898
 B40 B 0.30327 0.71080 -0.27354
 B41 B 0.31922 0.77555 -0.24124
 B42 B 0.25674 0.82205 -0.24837
 B43 B 0.21826 0.72522 -0.19630
 B44 B 0.29334 0.71625 -0.20944
 B45 B 0.26531 0.78276 -0.19432
 B46 B 0.19358 0.79022 -0.21989
 B47 B 0.17783 0.72537 -0.25181
 B48 B 0.24014 0.67893 -0.24476
 B49 B 1.22016 1.27353 0.79963
 B50 B 1.29512 1.28547 0.78698
 B51 B 1.26947 1.21768 0.80030
 B52 B 1.19773 1.20781 0.77425
 B53 B 1.17980 1.27246 0.74392
 B54 B 1.24071 1.32101 0.75235
 B55 B 1.28244 1.22570 0.69799
 B56 B 1.20769 1.21492 0.71015
 B57 B 1.23333 1.28224 0.69707
 B58 B 1.30489 1.29179 0.72264
 B59 B 1.32302 1.22735 0.75343
 B60 B 1.26190 1.17875 0.74488
 B61 B 0.77763 0.72619 0.80038
 B62 B 0.70309 0.71335 0.78615
 B63 B 0.72780 0.78141 0.80028
 B64 B 0.79924 0.79155 0.77585
 B65 B 0.81821 0.72651 0.74570
 B66 B 0.75798 0.67741 0.75267
 B67 B 0.71477 0.77048 0.69787
 B68 B 0.78964 0.78293 0.71166
 B69 B 0.76500 0.71503 0.69777
 B70 B 0.69362 0.70503 0.72209
 B71 B 0.67443 0.76997 0.75247
 B72 B 0.73463 0.81920 0.74533
 B73 B 1.22768 0.72450 0.30088
 B74 B 1.20930 0.79449 0.28935
 B75 B 1.28308 0.77585 0.29941
 B76 B 1.29602 0.70871 0.27247
 B77 B 1.22691 0.68721 0.24473
 B78 B 1.17241 0.74087 0.25589
 B79 B 1.26459 0.78857 0.19787
 B80 B 1.28218 0.71856 0.20865
 B81 B 1.20892 0.73779 0.19911
 B82 B 1.19616 0.80447 0.22596
 B83 B 1.26537 0.82598 0.25399
 B84 B 1.31970 0.77199 0.24266
 B85 B 0.78479 1.26844 0.19684
 B86 B 0.70983 1.27708 0.21031
 B87 B 0.73780 1.21070 0.19529
 B88 B 0.80981 1.20373 0.22061
 B89 B 0.82546 1.26896 0.25215
 B90 B 0.76294 1.31501 0.24507
 B91 B 0.72440 1.21831 0.29758
 B92 B 0.79989 1.21036 0.28487
 B93 B 0.77172 1.27651 0.29945
 B94 B 0.70006 1.28325 0.27422
 B95 B 0.68422 1.21819 0.24243
 B96 B 0.74689 1.17194 0.24957
 N97 N 0.61283 1.06314 0.05170
 N98 N 0.65576 1.10282 0.06491
 N99 N 0.56641 0.94086 0.08832
 N100 N 0.57589 0.90409 0.12634
 N101 N 0.61259 0.93949 0.05547
 N102 N 0.65582 0.90184 0.07144
 N103 N 0.56676 1.06477 0.08453
 N104 N 0.57523 1.10651 0.11920
 C105 C 0.62990 1.13021 0.10639
 C106 C 0.63075 0.87949 0.11526
 N107 N 0.38644 0.94110 0.05746
 N108 N 0.34360 0.90294 0.07268
 N109 N 0.43624 1.06570 0.08657
 N110 N 0.42961 1.10601 0.12271
 N111 N 0.38844 1.06492 0.05470
 N112 N 0.34651 1.10416 0.06978
 N113 N 0.43382 0.94172 0.08983
 N114 N 0.42534 0.90393 0.12718
 Mn115 Mn 0.50086 1.00312 0.08737
 C116 C 0.36987 0.87953 0.11573
 C117 C 0.37451 1.13016 0.11159
 N118 N 0.60913 0.93435 -0.05783
 N119 N 0.65130 0.89517 -0.07251
 N120 N 0.56166 1.05582 -0.09404
 N121 N 0.56776 1.09327 -0.13187
 N122 N 0.60910 1.05872 -0.06181
 N123 N 0.64988 1.09857 -0.07800
 N124 N 0.56092 0.93226 -0.08921
 N125 N 0.56761 0.89127 -0.12473
 Mn126 Mn 0.61229 0.99902 -0.00315
 C127 C 0.62311 0.86797 -0.11364
 C128 C 0.62185 1.12025 -0.12131
 N129 N 0.38553 1.05987 -0.05855
 N130 N 0.34430 1.09998 -0.07332
 N131 N 0.43061 0.93287 -0.08667
 N132 N 0.42460 0.88799 -0.11846
 N133 N 0.38388 0.93591 -0.05469
 N134 N 0.34287 0.89365 -0.06554
 N135 N 0.43080 1.05656 -0.09205
 N136 N 0.42294 1.09443 -0.12939
 Mn137 Mn 0.38477 1.00063 -0.00031
 Mn138 Mn 0.49591 0.99429 -0.09050
 Cl139 Cl 0.49856 0.99934 -0.00155
 C140 C 0.36988 1.12161 -0.11716
 C141 C 0.37061 0.86366 -0.10477
 N142 N 1.11238 0.56341 0.55624
 N143 N 1.15460 0.60295 0.57158
 N144 N 1.06680 0.43875 0.58783
 N145 N 1.07548 0.39994 0.62435
 N146 N 1.11359 0.43913 0.55558
 N147 N 1.15648 0.40059 0.57059
 N148 N 1.06570 0.56276 0.58857
 N149 N 1.07362 0.60220 0.62544
 C150 C 1.12817 0.62738 0.61423
 C151 C 1.13050 0.37587 0.61306
 N152 N 0.88778 0.43639 0.55481
 N153 N 0.84495 0.39772 0.56968
 N154 N 0.93401 0.56134 0.58851
 N155 N 0.92524 0.59989 0.62584
 N156 N 0.88712 0.56099 0.55565
 N157 N 0.84403 0.59910 0.57088
 N158 N 0.93458 0.43709 0.58781
 N159 N 0.92571 0.39904 0.62496
 Mn160 Mn 1.00035 0.49997 0.58811
 C161 C 0.87073 0.37399 0.61304
 C162 C 0.87000 0.62367 0.61423
 N163 N 1.11310 0.43912 0.44198
 N164 N 1.15575 0.40041 0.42706
 N165 N 1.06527 0.56277 0.40965
 N166 N 1.07323 0.60098 0.37255
 N167 N 1.11231 0.56388 0.44240
 N168 N 1.15458 0.60305 0.42720
 N169 N 1.06607 0.43864 0.40927
 N170 N 1.07429 0.39950 0.37235
 Mn171 Mn 1.11413 0.50142 0.49908
 C172 C 1.12933 0.37544 0.38405
 C173 C 1.12799 0.62652 0.38400
 N174 N 0.88709 0.56135 0.44211
 N175 N 0.84532 0.60137 0.42794
 N176 N 0.93464 0.43725 0.40910
 N177 N 0.92741 0.39701 0.37283
 N178 N 0.88793 0.43672 0.44135
 N179 N 0.84640 0.39619 0.42667
 N180 N 0.93364 0.56113 0.40966
 N181 N 0.92596 0.60082 0.37376
 Mn182 Mn 0.88621 0.49888 0.49842
 Mn183 Mn 0.99984 0.49991 0.40952
 Cl184 Cl 1.00015 0.50006 0.49883
 C185 C 0.87180 0.62614 0.38568
 C186 C 0.87326 0.37131 0.38438
 N187 N 0.92884 0.55998 -0.09002
 N188 N 0.88784 0.56802 -0.12704
 N189 N 1.06006 0.60578 -0.05849
 N190 N 1.10115 0.64595 -0.07310
 N191 N 1.05939 0.56119 -0.09127
 N192 N 1.10005 0.56873 -0.12801
 N193 N 0.92946 0.60464 -0.05732
 N194 N 0.88948 0.64550 -0.07246
 C195 C 0.86304 0.62055 -0.11534
 C196 C 1.12638 0.62078 -0.11599
 N197 N 1.06402 0.56429 0.08704
 N198 N 1.10361 0.57561 0.12471
 N199 N 0.93203 0.60649 0.05589
 N200 N 0.89409 0.64853 0.07260
 N201 N 0.93328 0.56271 0.08876
 N202 N 0.89573 0.57278 0.12751
 N203 N 1.06188 0.60817 0.05434
 N204 N 1.09907 0.65167 0.07010
 Mn205 Mn 0.99582 0.60727 -0.00147
 C206 C 1.12564 0.62930 0.11336
 C207 C 0.87085 0.62545 0.11673
 N208 N 1.06038 0.43662 -0.09173
 N209 N 1.09995 0.42836 -0.12931
 N210 N 0.93089 0.39135 -0.05823
 N211 N 0.89079 0.34998 -0.07408
 N212 N 0.92980 0.43578 -0.09035
 N213 N 0.88878 0.42715 -0.12741
 N214 N 1.06196 0.39278 -0.05900
 N215 N 1.10250 0.35241 -0.07457
 Mn216 Mn 0.99462 0.49840 -0.09076
 C217 C 1.12655 0.37670 -0.11795
 C218 C 0.86403 0.37452 -0.11670
 N219 N 0.93471 0.43740 0.08847
 N220 N 0.89548 0.42864 0.12610
 N221 N 1.06478 0.39393 0.05474
 N222 N 1.10437 0.35284 0.07058
 N223 N 1.06540 0.43881 0.08735
 N224 N 1.10564 0.43038 0.12497
 N225 N 0.93410 0.39286 0.05553
 N226 N 0.89486 0.35154 0.07107
 Mn227 Mn 0.99939 0.50075 0.08787
 Mn228 Mn 0.99793 0.39153 -0.00173
 Cl229 Cl 0.99694 0.49941 -0.00141
 C230 C 0.87032 0.37590 0.11454
 C231 C 1.13043 0.37763 0.11385
 N232 N 0.60480 1.04635 0.43030
 N233 N 0.65102 1.05529 0.39819
 N234 N 0.58241 1.10303 0.53782
 N235 N 0.60232 1.14474 0.56992
 N236 N 0.62072 1.05818 0.53752
 N237 N 0.66759 1.06769 0.56976
 N238 N 0.56767 1.09244 0.43150
 N239 N 0.58921 1.13440 0.40128
 C240 C 0.64050 1.10994 0.38055
 C241 C 0.65552 1.12186 0.58913
 N242 N 0.40372 1.07768 0.55733
 N243 N 0.36457 1.09987 0.59137
 N244 N 0.43197 1.10297 0.44352
 N245 N 0.41397 1.14245 0.40919
 N246 N 0.38765 1.06387 0.45049
 N247 N 0.33929 1.07457 0.42051
 N248 N 0.45036 1.11426 0.55051
 N249 N 0.44514 1.16140 0.58060
 Mn250 Mn 0.50800 1.10347 0.49063
 C251 C 0.39146 1.15170 0.60558
 C252 C 0.35622 1.12359 0.39540
 N253 N 0.60993 0.93297 0.54810
 N254 N 0.65840 0.92214 0.57785
 N255 N 0.54830 0.88251 0.44801
 N256 N 0.55567 0.83470 0.41910
 N257 N 0.59449 0.91967 0.44160
 N258 N 0.63515 0.89768 0.40901
 N259 N 0.56578 0.89365 0.55481
 N260 N 0.58399 0.85390 0.58880
 Mn261 Mn 0.60739 0.98923 0.48925
 C262 C 0.64167 0.87289 0.60261
 C263 C 0.60992 0.84519 0.39524
 N264 N 0.37704 0.93783 0.46055
 N265 N 0.33116 0.92859 0.42716
 N266 N 0.43038 0.90375 0.56651
 N267 N 0.40965 0.86177 0.59708
 N268 N 0.39327 0.94982 0.56822
 N269 N 0.34760 0.94068 0.60088
 N270 N 0.41590 0.89333 0.45977
 N271 N 0.39743 0.85236 0.42619
 Mn272 Mn 0.39048 1.00741 0.50938
 Mn273 Mn 0.49010 0.89300 0.50743
 Cl274 Cl 0.49891 0.99827 0.49912
 C275 C 0.34442 0.87511 0.40648
 C276 C 0.35869 0.88603 0.61849
 N277 N 1.04907 0.88477 0.45173
 N278 N 1.05236 0.83984 0.41893
 N279 N 1.11176 0.93502 0.55074
 N280 N 1.15824 0.92732 0.58334
 N281 N 1.06650 0.89747 0.55932
 N282 N 1.08129 0.86273 0.59833
 N283 N 1.09408 0.92262 0.44375
 N284 N 1.12939 0.90479 0.40547
 C285 C 1.10227 0.85367 0.39020
 C286 C 1.13840 0.88281 0.61294
 N287 N 1.08473 1.10465 0.54147
 N288 N 1.09920 1.14125 0.57996
 N289 N 1.10634 1.04756 0.43256
 N290 N 1.14842 1.05306 0.39623
 N291 N 1.06901 1.09323 0.43323
 N292 N 1.08526 1.13138 0.39745
 N293 N 1.12341 1.06002 0.54024
 N294 N 1.16560 1.06516 0.57739
 Mn295 Mn 1.10903 0.99115 0.49162
 C296 C 1.14977 1.11576 0.60172
 C297 C 1.13393 1.10477 0.37417
 N298 N 0.93262 0.90844 0.57108
 N299 N 0.91543 0.86966 0.60597
 N300 N 0.87843 0.94203 0.46459
 N301 N 0.83696 0.93771 0.42683
 N302 N 0.91737 0.89762 0.46287
 N303 N 0.90383 0.86208 0.42342
 N304 N 0.89573 0.95443 0.57220
 N305 N 0.85320 0.94864 0.60810
 Mn306 Mn 0.99129 0.89627 0.51146
 C307 C 0.86684 0.89631 0.62928
 C308 C 0.85353 0.88793 0.40161
 N309 N 0.93526 1.10387 0.44533
 N310 N 0.92094 1.13716 0.40526
 N311 N 0.90799 1.07942 0.56121
 N312 N 0.87227 1.09798 0.59896
 N313 N 0.95286 1.11736 0.55286
 N314 N 0.94888 1.16309 0.58476
 N315 N 0.88995 1.06658 0.45444
 N316 N 0.84386 1.07303 0.42132
 Mn317 Mn 1.01055 1.10561 0.49300
 Mn318 Mn 0.89279 1.01073 0.51336
 Cl319 Cl 1.00096 1.00098 0.50245
 C320 C 0.86402 1.11644 0.39081
 C321 C 0.89896 1.14957 0.61361
 N322 N 0.62133 0.55384 0.05858
 N323 N 0.66479 0.59391 0.06699
 N324 N 0.57328 0.42834 0.08826
 N325 N 0.58830 0.38777 0.12226
 N326 N 0.61490 0.43068 0.05168
 N327 N 0.65891 0.39142 0.05923
 N328 N 0.58178 0.55238 0.09671
 N329 N 0.59660 0.59255 0.13213
 C330 C 0.64805 0.61821 0.11244
 C331 C 0.64089 0.36436 0.10267
 N332 N 0.39401 0.44264 0.05855
 N333 N 0.34685 0.40729 0.06751
 N334 N 0.45063 0.55877 0.10220
 N335 N 0.44535 0.59372 0.14277
 N336 N 0.40432 0.56573 0.06939
 N337 N 0.36512 0.60552 0.08795
 N338 N 0.43855 0.43589 0.09306
 N339 N 0.42219 0.39572 0.12706
 Mn340 Mn 0.51105 0.49338 0.09551
 C341 C 0.36550 0.37773 0.10956
 C342 C 0.39270 0.62309 0.13322
 N343 N 0.60855 0.43764 -0.05636
 N344 N 0.65034 0.39754 -0.06715
 N345 N 0.57040 0.56405 -0.08667
 N346 N 0.58467 0.60338 -0.12185
 N347 N 0.61466 0.56078 -0.05153
 N348 N 0.66023 0.59770 -0.06173
 N349 N 0.56526 0.44009 -0.09234
 N350 N 0.57777 0.40176 -0.12985
 Mn351 Mn 0.61505 0.49604 0.00055
 C352 C 0.63037 0.37505 -0.11238
 C353 C 0.64016 0.62456 -0.10496
 N354 N 0.39736 0.57323 -0.04385
 N355 N 0.35278 0.61161 -0.05296
 N356 N 0.42944 0.44676 -0.08807
 N357 N 0.41305 0.40800 -0.12430
 N358 N 0.38718 0.44966 -0.05176
 N359 N 0.34098 0.41273 -0.06233
 N360 N 0.43623 0.57076 -0.08281
 N361 N 0.41883 0.60779 -0.11928
 Mn362 Mn 0.39519 0.50829 0.00811
 Mn363 Mn 0.50025 0.50519 -0.08819
 Cl364 Cl 0.50507 0.50080 0.00388
 C365 C 0.36762 0.63371 -0.09940
 C366 C 0.35830 0.38656 -0.10717
 N367 N 0.29004 1.18448 0.14908
 N368 N 0.34612 1.16770 0.14862
 N369 N 0.78565 0.68178 0.64916
 N370 N 0.84028 0.66091 0.65104
 N371 N 0.71498 0.82148 0.15151
 N372 N 0.66070 0.84326 0.15264
 N373 N 1.21346 0.31509 0.64817
 N374 N 1.15991 0.33839 0.64979
 N375 N 0.69922 1.18642 -0.15528
 N376 N 0.64911 1.15706 -0.15925
 N377 N 1.20813 0.69163 0.34985
 N378 N 1.15648 0.66425 0.34693
 N379 N 0.28384 0.81532 -0.14501
 N380 N 0.34173 0.82307 -0.13917
 N381 N 0.79073 0.30995 0.34870
 N382 N 0.84479 0.33240 0.34777
 N383 N 1.19017 0.29686 0.14875
 N384 N 1.16741 0.34839 0.15178
 N385 N 0.68169 0.79273 0.64989
 N386 N 0.67887 0.84789 0.64237
 N387 N 1.18712 0.70093 -0.14844
 N388 N 1.16415 0.64953 -0.15281
 N389 N 0.69143 1.19236 0.34391
 N390 N 0.67890 1.13744 0.34330
 N391 N 0.81584 0.70867 0.15258
 N392 N 0.83561 0.65602 0.15487
 N393 N 0.30977 1.19696 0.65002
 N394 N 0.36793 1.18981 0.64502
 N395 N 0.80403 0.29364 -0.15325
 N396 N 0.82678 0.34526 -0.15497
 N397 N 0.31857 0.79724 0.34749
 N398 N 0.30947 0.84933 0.36472
 N399 N 1.16408 1.18515 0.32350
 N400 N 1.17290 1.13224 0.33718
 N401 N 0.66076 0.67926 -0.17869
 N402 N 0.67905 0.66128 -0.13489
 N403 N 0.82309 1.17185 0.67300
 N404 N 0.87153 1.18892 0.64991
 N405 N 0.31200 0.68215 0.16607
 N406 N 0.36568 0.66045 0.17154
 N407 N 1.15953 0.81356 0.67813
 N408 N 1.17727 0.85668 0.65114
 N409 N 0.66562 0.31017 0.17574
 N410 N 0.68110 0.32717 0.13118
 N411 N 0.83922 0.82208 0.33099
 N412 N 0.81862 0.86377 0.35916
 N413 N 0.33791 0.32130 -0.17711
 N414 N 0.31856 0.34791 -0.13680
 N415 N 1.18810 0.29690 -0.15198
 N416 N 1.16421 0.34781 -0.15534
 N417 N 0.69452 0.80882 0.35011
 N418 N 0.63636 0.80706 0.35757
 N419 N 0.80930 0.70344 -0.15098
 N420 N 0.82601 0.64989 -0.15263
 N421 N 0.31454 1.20362 0.34878
 N422 N 0.31936 1.14835 0.35518
 N423 N 1.17352 0.71584 0.15131
 N424 N 1.16250 0.66078 0.15013
 N425 N 0.68236 1.20123 0.64405
 N426 N 0.69036 1.14785 0.63042
 N427 N 0.81519 0.29314 0.14876
 N428 N 0.83435 0.34603 0.15195
 N429 N 0.31201 0.80256 0.65712
 N430 N 0.32093 0.85809 0.65605
 N431 N 0.28906 1.18495 -0.15093
 N432 N 0.34141 1.15963 -0.15365
 N433 N 0.79158 0.69132 0.35244
 N434 N 0.84331 0.66482 0.34949
 N435 N 0.71815 1.17836 0.14595
 N436 N 0.66034 1.16830 0.14219
 N437 N 1.21238 0.68540 0.65144
 N438 N 1.15733 0.66518 0.65138
 N439 N 0.70796 0.81422 -0.15101
 N440 N 0.65163 0.83017 -0.15035
 N441 N 1.21289 0.31624 0.34936
 N442 N 1.15858 0.33776 0.34738
 N443 N 0.28555 0.82100 0.14955
 N444 N 0.34007 0.84265 0.15217
 N445 N 0.78872 0.31036 0.64541
 N446 N 0.84058 0.33718 0.64989
 N447 N 1.16610 1.18444 0.66995
 N448 N 1.18539 1.14080 0.64342
 N449 N 0.66674 0.68578 0.17985
 N450 N 0.68664 0.65868 0.14028
 N451 N 1.17692 0.83207 0.32919
 N452 N 1.12772 0.81592 0.35173
 N453 N 0.65549 0.32269 -0.18804
 N454 N 0.66829 0.33624 -0.14162
 N455 N 0.84425 1.18189 0.32273
 N456 N 0.82546 1.14121 0.35191
 N457 N 0.33804 0.68261 -0.17501
 N458 N 0.32611 0.66973 -0.12850
 N459 N 0.83214 0.81376 0.67428
 N460 N 0.82718 0.86841 0.66533
 N461 N 0.34127 0.31795 0.17961
 N462 N 0.32416 0.34150 0.13772
   
