data_POSCAR
  _audit_creation_date              2014-09-24
  _audit_creation_method            'ToBaCCo'
  _symmetry_space_group_name_H-M    'P1'
  _symmetry_Int_Tables_number       1
  _symmetry_cell_setting            triclinic
  loop_
  _symmetry_equiv_pos_as_xyz
 x,y,z
_cell_length_a 52.6385
_cell_length_b 53.2529
_cell_length_c 49.6337
_cell_angle_alpha 91.459400
_cell_angle_beta 89.617200
_cell_angle_gamma 92.902600
loop_
  _atom_site_label
  _atom_site_type_symbol
  _atom_site_fract_x
  _atom_site_fract_y
  _atom_site_fract_z
C1 C 0.27116 0.45840 0.98857
 C2 C 0.25350 0.45574 1.01312
 C3 C 0.23824 0.47548 1.01720
 C4 C 0.24211 0.49619 0.99622
 C5 C 0.25350 0.46260 0.96494
 C6 C 0.23819 0.48229 0.96883
 C7 C 0.28569 0.48378 0.99318
 C8 C 0.27071 0.50356 0.99728
 H9 H 0.25316 0.43962 1.02600
 H10 H 0.22981 0.51234 0.99943
 H11 H 0.25293 0.45065 0.94695
 H12 H 0.30624 0.48588 0.99381
 C13 C 0.73448 0.54879 0.01392
 C14 C 0.75166 0.54300 0.03748
 C15 C 0.76492 0.52186 0.03355
 C16 C 0.75963 0.50832 0.00618
 C17 C 0.75228 0.54988 -0.01070
 C18 C 0.76553 0.52872 -0.01478
 C19 C 0.71767 0.52492 0.00933
 C20 C 0.73056 0.50369 0.00523
 H21 H 0.75368 0.55510 0.05528
 H22 H 0.77025 0.49100 0.00292
 H23 H 0.75458 0.56612 -0.02333
 H24 H 0.69709 0.52507 0.00907
 C25 C 0.03578 0.22119 0.51179
 C26 C 0.03444 0.23550 0.48737
 C27 C 0.01290 0.25084 0.48631
 C28 C -0.00371 0.24860 0.50994
 C29 C 0.03458 0.24068 0.53503
 C30 C 0.01394 0.25519 0.53410
 C31 C 0.01022 0.20612 0.51335
 C32 C -0.01050 0.22026 0.51231
 H33 H 0.04907 0.23542 0.47190
 H34 H -0.02072 0.26007 0.50941
 H35 H 0.04921 0.24320 0.55024
 H36 H 0.00859 0.18584 0.51465
 C37 C 0.96274 0.77642 0.48766
 C38 C 0.96386 0.75633 0.46509
 C39 C 0.98471 0.74215 0.46609
 C40 C 1.00272 0.74955 0.48968
 C41 C 0.96476 0.76194 0.51379
 C42 C 0.98551 0.74766 0.51486
 C43 C 0.98809 0.79166 0.48554
 C44 C 1.00902 0.77786 0.48661
 H45 H 0.94905 0.75326 0.45015
 H46 H 1.01981 0.73822 0.49051
 H47 H 0.95029 0.76207 0.52941
 H48 H 0.98941 0.81190 0.48375
 C49 C 0.50054 0.05326 0.21789
 C50 C 0.47751 0.05315 0.23716
 C51 C 0.47639 0.03341 0.25418
 C52 C 0.49845 0.01570 0.25033
 C53 C 0.52363 0.05272 0.23650
 C54 C 0.52264 0.03301 0.25353
 C55 C 0.49891 0.02885 0.20423
 C56 C 0.49777 0.00810 0.22192
 H57 H 0.46346 0.06731 0.23731
 H58 H 0.49761 -0.00023 0.26436
 H59 H 0.53924 0.06678 0.23620
 H60 H 0.49835 0.02658 0.18247
 C61 C 0.49919 -0.05211 0.78120
 C62 C 0.47567 -0.05161 0.76330
 C63 C 0.47617 -0.03204 0.74616
 C64 C 0.50034 -0.01467 0.74847
 C65 C 0.52178 -0.05185 0.76146
 C66 C 0.52242 -0.03224 0.74433
 C67 C 0.50111 -0.02624 0.79540
 C68 C 0.50172 -0.00659 0.77838
 H69 H 0.46013 -0.06572 0.76407
 H70 H 0.50080 0.00132 0.73454
 H71 H 0.53601 -0.06584 0.76114
 H72 H 0.50218 -0.02383 0.81711
 C73 C 0.29230 0.01648 0.47382
 H74 H 0.29270 0.02924 0.49114
 C75 C 0.31008 0.01992 0.45314
 H76 H 0.32405 0.03551 0.45473
 C77 C 0.27373 -0.01959 0.45125
 H78 H 0.25984 -0.03523 0.45084
 C79 C 0.29121 -0.01687 0.43007
 H80 H 0.29034 -0.03039 0.41339
 N81 N 0.27446 -0.00286 0.47243
 C82 C 0.21518 0.02403 0.52609
 H83 H 0.21359 0.00916 0.54054
 C84 C 0.19995 0.04472 0.52885
 H85 H 0.18667 0.04555 0.54556
 C86 C 0.23418 0.04066 0.48654
 H87 H 0.24720 0.03887 0.46979
 C88 C 0.21934 0.06163 0.48851
 H89 H 0.22138 0.07579 0.47327
 Zn90 Zn 0.25231 -0.00594 0.50241
 N91 N 0.23209 0.02252 0.50535
 C92 C 0.27353 0.00915 0.55357
 N93 N 0.27350 -0.00797 0.53276
 C94 C 0.29023 -0.02658 0.53179
 C95 C 0.30778 -0.02871 0.55240
 C96 C 0.29083 0.00775 0.57467
 C97 C 0.21416 -0.03720 0.47779
 C98 C 0.19771 -0.05845 0.47438
 C99 C 0.21462 -0.07510 0.51498
 C100 C 0.23082 -0.05358 0.51754
 N101 N 0.23048 -0.03527 0.49893
 H102 H 0.26052 0.02420 0.55364
 H103 H 0.29008 -0.03965 0.51474
 H104 H 0.32096 -0.04366 0.55106
 H105 H 0.29068 0.02164 0.59096
 H106 H 0.21399 -0.02219 0.46352
 H107 H 0.18490 -0.05955 0.45737
 H108 H 0.21519 -0.08939 0.53007
 H109 H 0.24346 -0.05148 0.53458
 C110 C 0.20195 0.06392 0.50991
 C111 C 0.30971 0.00312 0.43086
 C112 C 0.19778 -0.07778 0.49314
 C113 C 0.30835 -0.01133 0.57417
 C114 C 0.70816 0.01983 0.53032
 H115 H 0.70797 0.03519 0.51647
 C116 C 0.69053 0.01840 0.55143
 H117 H 0.67693 0.03289 0.55376
 C118 C 0.72571 -0.01809 0.54337
 H119 H 0.73900 -0.03261 0.53980
 C120 C 0.70843 -0.02027 0.56474
 H121 H 0.70895 -0.03638 0.57756
 N122 N 0.72533 0.00180 0.52674
 C123 C 0.78578 0.03716 0.47801
 H124 H 0.78654 0.02351 0.46154
 C125 C 0.80213 0.05863 0.47814
 H126 H 0.81551 0.06124 0.46167
 C127 C 0.76751 0.04996 0.51956
 H128 H 0.75419 0.04638 0.53582
 C129 C 0.78361 0.07165 0.52059
 H130 H 0.78235 0.08459 0.53767
 Zn131 Zn 0.74688 0.00396 0.49617
 N132 N 0.76868 0.03338 0.49833
 C133 C 0.72665 0.02488 0.44927
 N134 N 0.72535 0.00496 0.46592
 C135 C 0.70727 -0.01400 0.46262
 C136 C 0.68963 -0.01348 0.44179
 C137 C 0.70941 0.02616 0.42818
 C138 C 0.78438 -0.02706 0.51377
 C139 C 0.79956 -0.04781 0.51362
 C140 C 0.78006 -0.06218 0.47171
 C141 C 0.76518 -0.04116 0.47272
 N142 N 0.76733 -0.02431 0.49374
 H143 H 0.74066 0.04012 0.45263
 H144 H 0.70636 -0.02938 0.47648
 H145 H 0.67528 -0.02869 0.43969
 H146 H 0.71066 0.04232 0.41535
 H147 H 0.78594 -0.01320 0.53008
 H148 H 0.81283 -0.04967 0.52994
 H149 H 0.77792 -0.07543 0.45487
 H150 H 0.75193 -0.03839 0.45668
 C151 C 0.80117 0.07628 0.49963
 C152 C 0.69041 -0.00196 0.56890
 C153 C 0.79743 -0.06582 0.49246
 C154 C 0.69045 0.00689 0.42433
 C155 C 0.49582 0.22110 0.99161
 H156 H 0.48235 0.21848 0.97528
 C157 C 0.49452 0.20491 1.01327
 H158 H 0.47994 0.18983 1.01339
 C159 C 0.53124 0.24397 1.01094
 H160 H 0.54575 0.25897 1.00980
 C161 C 0.53066 0.22819 1.03300
 H162 H 0.54468 0.23146 1.04873
 N163 N 0.51367 0.24044 0.99105
 C164 C 0.47830 0.29449 0.94056
 H165 H 0.49238 0.29713 0.92478
 C166 C 0.45587 0.30745 0.94007
 H167 H 0.45289 0.32009 0.92377
 C168 C 0.46542 0.27512 0.98121
 H169 H 0.46936 0.26294 0.99755
 C170 C 0.44280 0.28766 0.98152
 H171 H 0.42956 0.28468 0.99805
 Zn172 Zn 0.51330 0.26148 0.96096
 N173 N 0.48253 0.27850 0.96080
 C174 C 0.49677 0.23741 0.91184
 N175 N 0.51585 0.24015 0.93019
 C176 C 0.53624 0.22550 0.92885
 C177 C 0.53786 0.20691 0.90871
 C178 C 0.49755 0.21893 0.89141
 C179 C 0.54092 0.30243 0.98396
 C180 C 0.56130 0.31991 0.98771
 C181 C 0.58069 0.30352 0.94711
 C182 C 0.55995 0.28623 0.94422
 N183 N 0.54084 0.28570 0.96283
 H184 H 0.48041 0.24879 0.91364
 H185 H 0.55087 0.22773 0.94406
 H186 H 0.55397 0.19505 0.90853
 H187 H 0.48181 0.21656 0.87748
 H188 H 0.52531 0.30180 0.99826
 H189 H 0.56106 0.33278 1.00494
 H190 H 0.59586 0.30344 0.93227
 H191 H 0.55928 0.27314 0.92722
 C192 C 0.43774 0.30410 0.96077
 C193 C 0.51199 0.20846 1.03446
 C194 C 0.58170 0.32046 0.96930
 C195 C 0.51806 0.20304 0.88999
 C196 C 0.46986 0.77754 0.00502
 H197 H 0.45540 0.77930 0.02045
 C198 C 0.47032 0.79330 -0.01699
 H199 H 0.45602 0.80712 -0.01833
 C200 C 0.50628 0.75757 -0.01145
 H201 H 0.52057 0.74399 -0.00897
 C202 C 0.50748 0.77299 -0.03381
 H203 H 0.52259 0.77082 -0.04846
 N204 N 0.48746 0.75991 0.00724
 C205 C 0.44889 0.70520 0.05946
 H206 H 0.46212 0.70472 0.07600
 C207 C 0.42645 0.68999 0.05965
 H208 H 0.42262 0.67778 0.07646
 C209 C 0.43828 0.72124 0.01713
 H210 H 0.44315 0.73298 0.00027
 C211 C 0.41568 0.70642 0.01650
 H212 H 0.40341 0.70718 -0.00084
 Zn213 Zn 0.48532 0.74017 0.03840
 N214 N 0.45432 0.72049 0.03844
 C215 C 0.46776 0.76519 0.08616
 N216 N 0.48701 0.76321 0.06793
 C217 C 0.50781 0.77937 0.06867
 C218 C 0.50997 0.79845 0.08835
 C219 C 0.46902 0.78423 0.10612
 C220 C 0.51500 0.70125 0.01887
 C221 C 0.53620 0.68652 0.01725
 C222 C 0.55175 0.70656 0.05856
 C223 C 0.53029 0.72092 0.05934
 N224 N 0.51282 0.71857 0.03925
 H225 H 0.45109 0.75254 0.08481
 H226 H 0.52258 0.77766 0.05356
 H227 H 0.52659 0.81129 0.08821
 H228 H 0.45333 0.78585 0.12016
 H229 H 0.50062 0.69948 0.00336
 H230 H 0.53788 0.67335 0.00043
 H231 H 0.56569 0.70918 0.07447
 H232 H 0.52788 0.73421 0.07584
 C233 C 0.40954 0.69038 0.03786
 C234 C 0.48929 0.79113 -0.03682
 C235 C 0.55520 0.68943 0.03702
 C236 C 0.49026 0.80132 0.10720
 C237 C 1.03365 0.46289 0.21625
 H238 H 1.01846 0.44842 0.21580
 C239 C 1.05364 0.46182 0.19773
 H240 H 1.05369 0.44629 0.18323
 C241 C 1.05135 0.50103 0.23534
 H242 H 1.05009 0.51654 0.24965
 C243 C 1.07173 0.50073 0.21711
 H244 H 1.08613 0.51598 0.21786
 N245 N 1.03286 0.48222 0.23461
 C246 C 0.98227 0.45210 0.29760
 H247 H 0.96767 0.46569 0.29805
 C248 C 0.98105 0.43225 0.31558
 H249 H 0.96532 0.43069 0.32969
 C250 C 1.02082 0.43815 0.27907
 H251 H 1.03659 0.44074 0.26524
 C252 C 1.02035 0.41805 0.29663
 H253 H 1.03573 0.40530 0.29577
 Zn254 Zn 1.00348 0.48272 0.25687
 N255 N 1.00187 0.45461 0.27973
 C256 C 0.95573 0.46447 0.23399
 N257 N 0.97540 0.48202 0.23310
 C258 C 0.97651 0.49991 0.21403
 C259 C 0.95714 0.50102 0.19516
 C260 C 0.93581 0.46492 0.21546
 C261 C 1.02235 0.51650 0.29767
 C262 C 1.02261 0.53787 0.31469
 C263 C 0.98431 0.55021 0.29322
 C264 C 0.98478 0.52865 0.27667
 N265 N 1.00372 0.51240 0.27897
 H266 H 0.95544 0.45008 0.24896
 H267 H 0.99255 0.51343 0.21358
 H268 H 0.95848 0.51560 0.18034
 H269 H 0.92023 0.45090 0.21655
 H270 H 1.03698 0.50309 0.29940
 H271 H 1.03763 0.54077 0.32941
 H272 H 0.96899 0.56280 0.29096
 H273 H 0.96976 0.52484 0.26221
 C274 C 1.00033 0.41491 0.31530
 C275 C 1.07298 0.48099 0.19785
 C276 C 1.00339 0.55510 0.31259
 C277 C 0.93634 0.48345 0.19573
 C278 C -0.03161 0.49593 0.78641
 H279 H -0.01766 0.48170 0.78666
 C280 C -0.05129 0.49562 0.80544
 H281 H -0.05237 0.48094 0.82015
 C282 C -0.04655 0.53267 0.76727
 H283 H -0.04436 0.54737 0.75272
 C284 C -0.06653 0.53309 0.78593
 H285 H -0.07966 0.54807 0.78524
 N286 N -0.02965 0.51419 0.76775
 C287 C 0.01559 0.48351 0.70184
 H288 H 0.03009 0.49854 0.70018
 C289 C 0.01595 0.46257 0.68436
 H290 H 0.03090 0.46170 0.66933
 C291 C -0.02149 0.46670 0.72349
 H292 H -0.03621 0.46850 0.73858
 C293 C -0.02185 0.44539 0.70642
 H294 H -0.03684 0.43091 0.70877
 Zn295 Zn -0.00128 0.51421 0.74401
 N296 N -0.00272 0.48505 0.72117
 C297 C 0.04453 0.49580 0.76379
 N298 N 0.02825 0.51480 0.76578
 C299 C 0.03160 0.53356 0.78473
 C300 C 0.05198 0.53367 0.80267
 C301 C 0.06517 0.49520 0.78124
 C302 C -0.02017 0.54330 0.70347
 C303 C -0.02075 0.56296 0.68546
 C304 C 0.01861 0.58046 0.70444
 C305 C 0.01842 0.56042 0.72214
 N306 N -0.00088 0.54244 0.72145
 H307 H 0.04127 0.48070 0.74910
 H308 H 0.01812 0.54822 0.78620
 H309 H 0.05411 0.54865 0.81777
 H310 H 0.07767 0.47971 0.77942
 H311 H -0.03508 0.52855 0.70307
 H312 H -0.03633 0.56318 0.67135
 H313 H 0.03418 0.59454 0.70530
 H314 H 0.03386 0.55913 0.73619
 C315 C -0.00285 0.44304 0.68661
 C316 C -0.06906 0.51445 0.80545
 C317 C -0.00117 0.58191 0.68573
 C318 C 0.06900 0.51418 0.80120
 N319 N 0.10262 0.20076 0.51256
 C320 C 0.09901 0.17542 0.51437
 N321 N 0.07501 0.16514 0.51544
 N322 N 0.05521 0.17963 0.51471
 C323 C 0.05855 0.20499 0.51285
 N324 N 0.08271 0.21531 0.51184
 C325 C 0.11999 0.15923 0.51469
 C326 C 0.13633 0.14416 0.51480
 C327 C 0.15444 0.12488 0.51466
 N328 N 0.15319 0.10709 0.53374
 N329 N 0.16853 0.08794 0.53246
 C330 C 0.18561 0.08580 0.51198
 N331 N 0.18687 0.10379 0.49299
 N332 N 0.17151 0.12294 0.49425
 N333 N 0.68657 0.58943 0.04458
 C334 C 0.68326 0.60628 0.02508
 N335 N 0.69799 0.60552 0.00257
 N336 N 0.71528 0.58820 -0.00048
 C337 C 0.71845 0.57108 0.01891
 N338 N 0.70381 0.57212 0.04152
 C339 C 0.66254 0.62273 0.02704
 C340 C 0.64430 0.63549 0.02867
 C341 C 0.62190 0.64972 0.03054
 N342 N 0.61837 0.66571 0.05175
 N343 N 0.59715 0.67825 0.05385
 C344 C 0.57863 0.67516 0.03491
 N345 N 0.58230 0.65907 0.01370
 N346 N 0.60352 0.64653 0.01159
 N347 N 0.89578 -0.20361 0.49034
 C348 C 0.89899 -0.17849 0.48646
 N349 N 0.92273 -0.16828 0.48250
 N350 N 0.94268 -0.18261 0.48255
 C351 C 0.93975 -0.20772 0.48661
 N352 N 0.91584 -0.21800 0.49036
 C353 C 0.87799 -0.16231 0.48758
 C354 C 0.86174 -0.14715 0.48874
 C355 C 0.84392 -0.12762 0.49042
 N356 N 0.84465 -0.11114 0.51170
 N357 N 0.82966 -0.09172 0.51246
 C358 C 0.81347 -0.08795 0.49191
 N359 N 0.81273 -0.10462 0.47066
 N360 N 0.82775 -0.12405 0.46988
 N361 N 0.32913 0.42190 0.97940
 C362 C 0.31929 0.39821 0.97501
 N363 N 0.29364 0.39390 0.97519
 N364 N 0.27835 0.41286 0.97957
 C365 C 0.28822 0.43670 0.98396
 N366 N 0.31390 0.44076 0.98376
 C367 C 0.33627 0.37827 0.97058
 C368 C 0.35211 0.36290 0.96733
 C369 C 0.37244 0.34611 0.96418
 N370 N 0.37673 0.32923 0.98339
 N371 N 0.39719 0.31551 0.98196
 C372 C 0.41421 0.31829 0.96139
 N373 N 0.40969 0.33512 0.94208
 N374 N 0.38922 0.34883 0.94350
 N375 N 0.91984 0.20938 0.50460
 C376 C 0.91673 0.18472 0.51087
 N377 N 0.93720 0.17226 0.51831
 N378 N 0.96011 0.18390 0.51925
 C379 C 0.96351 0.20846 0.51280
 N380 N 0.94289 0.22111 0.50563
 C381 C 0.89270 0.17096 0.50816
 C382 C 0.87395 0.15711 0.50588
 C383 C 0.85338 0.13850 0.50315
 N384 N 0.85212 0.12307 0.48101
 N385 N 0.83516 0.10367 0.47968
 C386 C 0.81892 0.09882 0.50052
 N387 N 0.82010 0.11451 0.52259
 N388 N 0.83711 0.13391 0.52394
 N389 N 0.31818 0.55579 0.00831
 C390 C 0.30366 0.57514 0.01539
 N391 N 0.27795 0.57129 0.01617
 N392 N 0.26720 0.54858 0.01016
 C393 C 0.28184 0.52909 0.00317
 N394 N 0.30749 0.53323 0.00235
 C395 C 0.31606 0.59907 0.02197
 C396 C 0.32901 0.61792 0.02684
 C397 C 0.34688 0.63876 0.03165
 N398 N 0.35160 0.65585 0.01226
 N399 N 0.37099 0.67281 0.01472
 C400 C 0.38653 0.67316 0.03651
 N401 N 0.38148 0.65617 0.05606
 N402 N 0.36208 0.63922 0.05361
 N403 N 0.07895 -0.21066 0.49065
 C404 C 0.08147 -0.18585 0.48487
 N405 N 0.06047 -0.17342 0.47918
 N406 N 0.03765 -0.18525 0.47940
 C407 C 0.03485 -0.20998 0.48532
 N408 N 0.05598 -0.22257 0.49083
 C409 C 0.10558 -0.17201 0.48573
 C410 C 0.12438 -0.15810 0.48628
 C411 C 0.14503 -0.13942 0.48677
 N412 N 0.16065 -0.13669 0.50837
 N413 N 0.17781 -0.11744 0.51011
 C414 C 0.17983 -0.10009 0.49046
 N415 N 0.16423 -0.10307 0.46878
 N416 N 0.14711 -0.12231 0.46702
 N417 N 0.71686 0.43564 0.99170
 C418 C 0.69104 0.43453 0.99057
 N419 N 0.67851 0.45590 0.99420
 N420 N 0.69124 0.47774 0.99880
 C421 C 0.71703 0.47911 0.99999
 N422 N 0.72967 0.45762 0.99630
 C423 C 0.67654 0.41127 0.98625
 C424 C 0.66219 0.39308 0.98320
 C425 C 0.64305 0.37305 0.98036
 N426 N 0.62460 0.37042 0.99937
 N427 N 0.60532 0.35352 0.99593
 C428 C 0.60367 0.33868 0.97328
 N429 N 0.62233 0.34128 0.95430
 N430 N 0.64163 0.35826 0.95772
 N431 N 0.48555 0.10914 1.17838
 C432 C 0.50567 0.11092 1.16123
 N433 N 0.52427 0.09438 1.16298
 N434 N 0.52275 0.07649 1.18126
 C435 C 0.50256 0.07451 1.19841
 N436 N 0.48402 0.09125 1.19668
 C437 C 0.50667 0.12915 1.14047
 C438 C 0.50749 0.14387 1.12244
 C439 C 0.50836 0.16074 1.10041
 N440 N 0.52657 0.17961 1.09920
 N441 N 0.52771 0.19482 1.07828
 C442 C 0.51073 0.19166 1.05780
 N443 N 0.49251 0.17271 1.05919
 N444 N 0.49137 0.15751 1.08009
 N445 N -0.02415 0.71173 0.57706
 C446 C -0.00479 0.69590 0.57567
 N447 N 0.01181 0.69751 0.55470
 N448 N 0.00904 0.71434 0.53564
 C449 C -0.01045 0.73013 0.53686
 N450 N -0.02693 0.72854 0.55801
 C451 C -0.00282 0.67678 0.59537
 C452 C -0.00189 0.66040 0.61165
 C453 C -0.00158 0.64052 0.63068
 N454 N 0.01758 0.63957 0.64869
 N455 N 0.01772 0.62101 0.66623
 C456 C -0.00130 0.60274 0.66640
 N457 N -0.02045 0.60386 0.64829
 N458 N -0.02059 0.62239 0.63078
 N459 N 0.47716 0.90713 -0.16296
 C460 C 0.49548 0.89020 -0.16218
 N461 N 0.51493 0.89171 -0.18019
 N462 N 0.51605 0.90969 -0.19841
 C463 C 0.49776 0.92678 -0.19919
 N464 N 0.47827 0.92510 -0.18115
 C465 C 0.49472 0.87164 -0.14177
 C466 C 0.49381 0.85660 -0.12405
 C467 C 0.49237 0.83937 -0.10233
 N468 N 0.51007 0.82198 -0.09975
 N469 N 0.50902 0.80652 -0.07904
 C470 C 0.49028 0.80795 -0.06015
 N471 N 0.47259 0.82541 -0.06293
 N472 N 0.47363 0.84085 -0.08362
 N473 N 1.02381 0.28673 0.42590
 C474 C 1.00410 0.30215 0.42679
 N475 N 0.98698 0.30008 0.44725
 N476 N 0.98960 0.28321 0.46629
 C477 C 1.00945 0.26781 0.46563
 N478 N 1.02643 0.26987 0.44494
 C479 C 1.00201 0.32109 0.40690
 C480 C 1.00085 0.33720 0.39034
 C481 C 1.00017 0.35657 0.37074
 N482 N 0.98130 0.37299 0.37119
 N483 N 0.98120 0.39139 0.35346
 C484 C 0.99999 0.39407 0.33466
 N485 N 1.01880 0.37748 0.33429
 N486 N 1.01890 0.35910 0.35200
 N487 N 0.49409 0.95409 0.17629
 C488 C 0.49320 0.93481 0.19359
 N489 N 0.49378 0.93991 0.22049
 N490 N 0.49517 0.96366 0.22976
 C491 C 0.49610 0.98310 0.21245
 N492 N 0.49549 0.97778 0.18555
 C493 C 0.49234 0.90945 0.18317
 C494 C 0.49203 0.88875 0.17280
 C495 C 0.49224 0.86503 0.15856
 N496 N 0.51304 0.85909 0.14401
 N497 N 0.51260 0.83843 0.12834
 C498 C 0.49131 0.82296 0.12655
 N499 N 0.47057 0.82884 0.14146
 N500 N 0.47100 0.84956 0.15714
 N501 N 0.02368 0.30131 0.59035
 C502 C 0.00394 0.31634 0.58722
 N503 N -0.01279 0.31104 0.56696
 N504 N -0.00981 0.29136 0.55029
 C505 C 0.01001 0.27631 0.55329
 N506 N 0.02666 0.28165 0.57369
 C507 C 0.00144 0.33812 0.60453
 C508 C -0.00006 0.35658 0.61895
 C509 C -0.00114 0.37874 0.63597
 N510 N 0.01667 0.39783 0.63350
 N511 N 0.01602 0.41826 0.64949
 C512 C -0.00245 0.42039 0.66856
 N513 N -0.02030 0.40118 0.67091
 N514 N -0.01966 0.38072 0.65491
 N515 N 0.50728 0.06282 0.77920
 C516 C 0.50850 0.06830 0.80601
 N517 N 0.50741 0.04928 0.82365
 N518 N 0.50519 0.02548 0.81480
 C519 C 0.50397 0.01984 0.78800
 N520 N 0.50505 0.03896 0.77035
 C521 C 0.51098 0.09380 0.81597
 C522 C 0.51306 0.11467 0.82588
 C523 C 0.51548 0.13870 0.83953
 N524 N 0.53640 0.14489 0.85449
 N525 N 0.53757 0.16582 0.86978
 C526 C 0.51783 0.18130 0.87075
 N527 N 0.49702 0.17517 0.85540
 N528 N 0.49584 0.15421 0.84011
 N529 N 0.97512 0.69506 0.41071
 C530 C 0.99532 0.68058 0.41366
 N531 N 1.01225 0.68650 0.43358
 N532 N 1.00902 0.70625 0.45008
 C533 C 0.98875 0.72076 0.44725
 N534 N 0.97189 0.71479 0.42720
 C535 C 0.99828 0.65893 0.39623
 C536 C 1.00007 0.64073 0.38147
 C537 C 1.00134 0.61909 0.36370
 N538 N 1.02009 0.60275 0.36615
 N539 N 1.02086 0.58248 0.34986
 C540 C 1.00288 0.57780 0.33057
 N541 N 0.98419 0.59429 0.32824
 N542 N 0.98342 0.61454 0.34449
 N543 N 1.18784 0.49790 0.06251
 C544 C 1.18518 0.47902 0.08030
 N545 N 1.19999 0.45901 0.07746
 N546 N 1.21694 0.45792 0.05746
 C547 C 1.21966 0.47677 0.03956
 N548 N 1.20480 0.49679 0.04251
 C549 C 1.16646 0.47987 0.10145
 C550 C 1.15048 0.48027 0.11898
 C551 C 1.13110 0.48033 0.13949
 N552 N 1.11295 0.46139 0.14023
 N553 N 1.09466 0.46154 0.15890
 C554 C 1.09380 0.48064 0.17754
 N555 N 1.11211 0.49957 0.17674
 N556 N 1.13043 0.49942 0.15805
 N557 N 0.56063 -0.00426 0.68914
 C558 C 0.57973 -0.02031 0.68657
 N559 N 0.58003 -0.04031 0.70289
 N560 N 0.56178 -0.04413 0.72127
 C561 C 0.54260 -0.02810 0.72394
 N562 N 0.54239 -0.00809 0.70753
 C563 C 0.59926 -0.01637 0.66664
 C564 C 0.61566 -0.01331 0.64983
 C565 C 0.63509 -0.01002 0.62968
 N566 N 0.65302 -0.02722 0.62635
 N567 N 0.67074 -0.02452 0.60722
 C568 C 0.67117 -0.00452 0.59071
 N569 N 0.65317 0.01271 0.59422
 N570 N 0.63544 0.01002 0.61336
 N571 N -0.18517 0.50265 0.94089
 C572 C -0.18065 0.52146 0.92331
 N573 N -0.19390 0.54256 0.92591
 N574 N -0.21112 0.54481 0.94551
 C575 C -0.21569 0.52604 0.96322
 N576 N -0.20240 0.50491 0.96050
 C577 C -0.16175 0.51933 0.90246
 C578 C -0.14577 0.51791 0.88502
 C579 C -0.12660 0.51664 0.86436
 N580 N -0.12468 0.53429 0.84516
 N581 N -0.10654 0.53348 0.82634
 C582 C -0.08963 0.51500 0.82603
 N583 N -0.09172 0.49731 0.84531
 N584 N -0.10986 0.49812 0.86414
 N585 N 0.41847 0.04178 0.29504
 C586 C 0.41847 0.02171 0.31129
 N587 N 0.43743 0.00550 0.30879
 N588 N 0.45583 0.00923 0.29056
 C589 C 0.45593 0.02932 0.27425
 N590 N 0.43688 0.04551 0.27681
 C591 C 0.39901 0.01802 0.33132
 C592 C 0.38287 0.01516 0.34843
 C593 C 0.36398 0.01214 0.36918
 N594 N 0.34625 -0.00722 0.36795
 N595 N 0.32892 -0.01007 0.38748
 C596 C 0.32873 0.00633 0.40892
 N597 N 0.34655 0.02570 0.40997
 N598 N 0.36386 0.02855 0.39047
 N599 N 0.18525 0.51279 0.93630
 C600 C 0.18303 0.49953 0.91265
 N601 N 0.19907 0.48090 0.90735
 N602 N 0.21675 0.47563 0.92513
 C603 C 0.21903 0.48877 0.94888
 N604 N 0.20297 0.50751 0.95410
 C605 C 0.16348 0.50439 0.89371
 C606 C 0.14710 0.50743 0.87738
 C607 C 0.12766 0.50983 0.85757
 N608 N 0.12482 0.49251 0.83721
 N609 N 0.10638 0.49410 0.81918
 C610 C 0.09007 0.51306 0.82081
 N611 N 0.09308 0.53047 0.84123
 N612 N 0.11153 0.52888 0.85930
 N613 N 0.55902 0.00519 0.30752
 C614 C 0.57983 0.02120 0.30924
 N615 N 0.58191 0.04105 0.29269
 N616 N 0.56373 0.04478 0.27492
 C617 C 0.54282 0.02881 0.27311
 N618 N 0.54083 0.00893 0.28973
 C619 C 0.59925 0.01752 0.32865
 C620 C 0.61562 0.01490 0.34504
 C621 C 0.63510 0.01237 0.36468
 N622 N 0.65405 0.03039 0.36759
 N623 N 0.67178 0.02849 0.38634
 C624 C 0.67120 0.00852 0.40288
 N625 N 0.65218 -0.00955 0.39978
 N626 N 0.63443 -0.00766 0.38102
 N627 N 0.80469 0.52018 0.09433
 C628 C 0.81935 0.50054 0.08857
 N629 N 0.81587 0.48753 0.06491
 N630 N 0.79827 0.49404 0.04754
 C631 C 0.78363 0.51382 0.05320
 N632 N 0.78714 0.52668 0.07699
 C633 C 0.83928 0.49475 0.10669
 C634 C 0.85632 0.49113 0.12203
 C635 C 0.87698 0.48828 0.14028
 N636 N 0.87552 0.47058 0.15949
 N637 N 0.89444 0.46883 0.17699
 C638 C 0.91544 0.48477 0.17596
 N639 N 0.91674 0.50239 0.15660
 N640 N 0.89788 0.50413 0.13912
 N641 N 0.43872 -0.00540 0.69225
 C642 C 0.41795 -0.02151 0.69122
 N643 N 0.41620 -0.04098 0.70830
 N644 N 0.43466 -0.04423 0.72590
 C645 C 0.45555 -0.02817 0.72699
 N646 N 0.45719 -0.00866 0.70987
 C647 C 0.39849 -0.01865 0.67164
 C648 C 0.38227 -0.01684 0.65490
 C649 C 0.36322 -0.01540 0.63457
 N650 N 0.36197 -0.03253 0.61394
 N651 N 0.34444 -0.03128 0.59488
 C652 C 0.32749 -0.01285 0.59574
 N653 N 0.32880 0.00427 0.61655
 N654 N 0.34635 0.00302 0.63564
   
