data_POSCAR
  _audit_creation_date              2014-09-24
  _audit_creation_method            'ToBaCCo'
  _symmetry_space_group_name_H-M    'P1'
  _symmetry_Int_Tables_number       1
  _symmetry_cell_setting            triclinic
  loop_
  _symmetry_equiv_pos_as_xyz
 x,y,z
_cell_length_a 27.5097
_cell_length_b 28.0322
_cell_length_c 26.9580
_cell_angle_alpha 90.716300
_cell_angle_beta 90.505100
_cell_angle_gamma 92.702000
loop_
  _atom_site_label
  _atom_site_type_symbol
  _atom_site_fract_x
  _atom_site_fract_y
  _atom_site_fract_z
C1 C 0.70285 0.66720 0.90556
 H2 H 0.72741 0.64707 0.88346
 C3 C 0.66484 0.68940 0.88213
 H4 H 0.66092 0.68625 0.84218
 C5 C 0.67648 0.69364 0.98422
 H6 H 0.68053 0.69397 1.02418
 C7 C 0.63758 0.71623 0.96222
 H8 H 0.61299 0.73497 0.98574
 N9 N 0.70740 0.66868 0.95584
 C10 C 0.84460 0.64139 1.02862
 H11 H 0.84717 0.60485 1.01593
 C12 C 0.88380 0.66406 1.05367
 H13 H 0.91598 0.64435 1.06077
 C14 C 0.79854 0.71044 1.03621
 H15 H 0.76528 0.72831 1.02923
 C16 C 0.83681 0.73434 1.06226
 H17 H 0.83274 0.77057 1.07546
 Zn18 Zn 0.75293 0.62884 0.98596
 N19 N 0.80303 0.66463 1.02032
 C20 C 0.81971 0.61872 0.91178
 N21 N 0.78329 0.59389 0.93536
 C22 C 0.77027 0.54797 0.92220
 C23 C 0.79496 0.52518 0.88394
 C24 C 0.84600 0.59706 0.87471
 C25 C 0.74396 0.57397 1.07303
 C26 C 0.71860 0.55439 1.11323
 C27 C 0.64361 0.56347 1.06786
 C28 C 0.67050 0.58267 1.02856
 N29 N 0.71967 0.58892 1.03236
 H30 H 0.82872 0.65544 0.92232
 H31 H 0.74089 0.52917 0.94130
 H32 H 0.78499 0.48847 0.87393
 H33 H 0.87564 0.61706 0.85711
 H34 H 0.78302 0.57916 1.07552
 H35 H 0.73980 0.54438 1.14497
 H36 H 0.60429 0.56052 1.06427
 H37 H 0.65179 0.59460 0.99588
 C38 C 0.88018 0.71120 1.07072
 C39 C 0.63058 0.71284 0.91048
 C40 C 0.66724 0.55041 1.11191
 C41 C 0.83366 0.54996 0.86033
 C42 C 0.70179 0.28232 0.51705
 H43 H 0.73525 0.26522 0.50878
 C44 C 0.66448 0.25721 0.54195
 H45 H 0.66926 0.22054 0.55244
 C46 C 0.65574 0.35170 0.51587
 H47 H 0.65340 0.38901 0.50677
 C48 C 0.61773 0.32811 0.54072
 H49 H 0.58670 0.34821 0.55100
 N50 N 0.69693 0.32888 0.50531
 C51 C 0.84399 0.33314 0.47485
 H52 H 0.85081 0.35524 0.50742
 C53 C 0.88297 0.31220 0.45176
 H54 H 0.91921 0.31991 0.46652
 C55 C 0.78908 0.29856 0.41505
 H56 H 0.75259 0.29316 0.40064
 C57 C 0.82701 0.27708 0.39065
 H58 H 0.81929 0.25578 0.35744
 Zn59 Zn 0.74867 0.36671 0.47918
 N60 N 0.79836 0.32772 0.45512
 C61 C 0.75823 0.40040 0.57799
 N62 N 0.77484 0.40760 0.53111
 C63 C 0.81289 0.43909 0.52251
 C64 C 0.83722 0.46279 0.56212
 C65 C 0.78121 0.42358 0.61855
 C66 C 0.69727 0.37311 0.39123
 C67 C 0.68262 0.39170 0.34620
 C68 C 0.71870 0.46842 0.37163
 C69 C 0.73414 0.44783 0.41590
 N70 N 0.72412 0.40055 0.42429
 H71 H 0.72823 0.37513 0.58453
 H72 H 0.82621 0.44374 0.48517
 H73 H 0.86856 0.48637 0.55463
 H74 H 0.76691 0.41663 0.65506
 H75 H 0.68740 0.33639 0.39965
 H76 H 0.66234 0.36889 0.31985
 H77 H 0.72741 0.50583 0.36483
 H78 H 0.75471 0.46941 0.44290
 C79 C 0.87476 0.28467 0.40829
 C80 C 0.62192 0.28018 0.55442
 C81 C 0.69354 0.43969 0.33586
 C82 C 0.82243 0.45413 0.61108
 C83 C 0.21751 -0.16270 0.08424
 H84 H 0.24892 -0.14889 0.10513
 C85 C 0.17828 -0.18422 0.10910
 H86 H 0.17995 -0.18681 0.14914
 C87 C 0.17665 -0.17476 0.00703
 H88 H 0.17601 -0.16979 -0.03270
 C89 C 0.13637 -0.19640 0.03046
 H90 H 0.10519 -0.20779 0.00796
 N91 N 0.21561 -0.15752 0.03425
 C92 C 0.34916 -0.13753 -0.04934
 H93 H 0.35542 -0.09928 -0.04522
 C94 C 0.38392 -0.16450 -0.07222
 H95 H 0.41672 -0.14685 -0.08636
 C96 C 0.29866 -0.20704 -0.03598
 H97 H 0.26551 -0.22336 -0.02133
 C98 C 0.33199 -0.23531 -0.06010
 H99 H 0.32437 -0.27341 -0.06436
 Zn100 Zn 0.26480 -0.11981 0.00327
 N101 N 0.30792 -0.15908 -0.03094
 C102 C 0.34624 -0.09619 0.06503
 N103 N 0.30021 -0.08396 0.05337
 C104 C 0.27787 -0.04994 0.08014
 C105 C 0.30175 -0.02733 0.12068
 C106 C 0.37178 -0.07366 0.10425
 C107 C 0.24896 -0.07855 -0.09046
 C108 C 0.22196 -0.05627 -0.12674
 C109 C 0.16398 -0.03626 -0.06402
 C110 C 0.19255 -0.05856 -0.02883
 N111 N 0.23374 -0.07995 -0.04268
 H112 H 0.36280 -0.12487 0.04543
 H113 H 0.24099 -0.04140 0.07107
 H114 H 0.28333 -0.00086 0.14215
 H115 H 0.40808 -0.08435 0.11341
 H116 H 0.28130 -0.09613 -0.10125
 H117 H 0.23629 -0.05674 -0.16380
 H118 H 0.13053 -0.02093 -0.05202
 H119 H 0.18035 -0.06106 0.00910
 C120 C 0.37554 -0.21397 -0.07741
 C121 C 0.13658 -0.20051 0.08246
 C122 C 0.17754 -0.03589 -0.11432
 C123 C 0.34917 -0.03965 0.13319
 C124 C 0.20414 0.21198 0.45943
 H125 H 0.23795 0.22961 0.47184
 C126 C 0.17115 0.23685 0.43096
 H127 H 0.17940 0.27379 0.42162
 C128 C 0.15189 0.14218 0.45560
 H129 H 0.14511 0.10500 0.46469
 C130 C 0.11781 0.16573 0.42803
 H131 H 0.08471 0.14645 0.41581
 N132 N 0.19386 0.16549 0.47102
 C133 C 0.28750 0.16880 0.58941
 H134 H 0.25811 0.15274 0.61072
 C135 C 0.32777 0.19013 0.61401
 H136 H 0.32887 0.19058 0.65420
 C137 C 0.32265 0.18632 0.51135
 H138 H 0.32064 0.18369 0.47130
 C139 C 0.36373 0.20801 0.53449
 H140 H 0.39238 0.22337 0.51165
 Zn141 Zn 0.23666 0.12835 0.50738
 N142 N 0.28611 0.16646 0.53902
 C143 C 0.30924 0.06708 0.47706
 N144 N 0.26736 0.08703 0.46259
 C145 C 0.25233 0.08506 0.41435
 C146 C 0.28044 0.06385 0.37828
 C147 C 0.33874 0.04573 0.44201
 C148 C 0.15973 0.11533 0.57360
 C149 C 0.13397 0.09543 0.61313
 C150 C 0.19341 0.03490 0.61860
 C151 C 0.21770 0.05556 0.57828
 N152 N 0.20061 0.09516 0.55677
 H153 H 0.32132 0.07045 0.51529
 H154 H 0.21993 0.10228 0.40297
 H155 H 0.26880 0.06549 0.33994
 H156 H 0.37302 0.03182 0.45370
 H157 H 0.14775 0.14784 0.55734
 H158 H 0.10172 0.11216 0.62630
 H159 H 0.20740 0.00333 0.63526
 H160 H 0.25068 0.04061 0.56485
 C161 C 0.36716 0.20873 0.58662
 C162 C 0.12715 0.21372 0.41581
 C163 C 0.15130 0.05541 0.63675
 C164 C 0.32478 0.04458 0.39182
 C165 C 0.18483 0.43819 0.22667
 H166 H 0.18431 0.42706 0.26493
 C167 C 0.20474 0.40892 0.19047
 H168 H 0.22047 0.37587 0.20131
 C169 C 0.16101 0.49228 0.16524
 H170 H 0.14186 0.52335 0.15483
 C171 C 0.18094 0.46444 0.12803
 H172 H 0.17677 0.47498 0.08981
 N173 N 0.16294 0.47876 0.21352
 C174 C 0.14817 0.58649 0.32603
 H175 H 0.11594 0.60047 0.30972
 C176 C 0.17247 0.61274 0.36346
 H177 H 0.15932 0.64708 0.37454
 C178 C 0.20259 0.52393 0.33391
 H179 H 0.21386 0.48911 0.32244
 C180 C 0.22747 0.54874 0.37268
 H181 H 0.25831 0.53310 0.39034
 Zn182 Zn 0.12512 0.50993 0.26181
 N183 N 0.16374 0.54322 0.31132
 C184 C 0.08754 0.45771 0.34269
 N185 N 0.08623 0.46179 0.29250
 C186 C 0.06217 0.42839 0.26331
 C187 C 0.04004 0.38767 0.28435
 C188 C 0.06582 0.41769 0.36526
 C189 C 0.11181 0.59362 0.21099
 C190 C 0.08733 0.63019 0.18888
 C191 C 0.01122 0.58665 0.20462
 C192 C 0.03730 0.55097 0.22726
 N193 N 0.08674 0.55513 0.22988
 H194 H 0.10688 0.48466 0.36522
 H195 H 0.06188 0.43251 0.22345
 H196 H 0.02147 0.36147 0.26025
 H197 H 0.06839 0.41432 0.40517
 H198 H 0.15113 0.59597 0.21355
 H199 H 0.10830 0.65990 0.17325
 H200 H -0.02809 0.58288 0.20211
 H201 H 0.01812 0.52012 0.24268
 C202 C 0.21216 0.59379 0.38766
 C203 C 0.20263 0.42177 0.14042
 C204 C 0.03631 0.62719 0.18590
 C205 C 0.04312 0.38131 0.33596
 C206 C -0.21299 0.01988 0.19277
 H207 H -0.22722 0.00496 0.22678
 C208 C -0.24453 0.03937 0.15832
 H209 H -0.28304 0.03938 0.16642
 C210 C -0.14549 0.03927 0.14172
 H211 H -0.10658 0.03986 0.13601
 C212 C -0.17563 0.05807 0.10585
 H213 H -0.15859 0.07390 0.07365
 N214 N -0.16440 0.02044 0.18402
 C215 C -0.15464 -0.08229 0.28657
 H216 H -0.14182 -0.10345 0.25601
 C217 C -0.17159 -0.10495 0.32922
 H218 H -0.17196 -0.14357 0.33089
 C219 C -0.16909 -0.00646 0.32179
 H220 H -0.16715 0.03203 0.31878
 C221 C -0.18631 -0.02771 0.36532
 H222 H -0.19890 -0.00504 0.39478
 Zn223 Zn -0.11998 -0.00415 0.23041
 N224 N -0.15287 -0.03386 0.28394
 C225 C -0.05313 0.03897 0.29880
 N226 N -0.08054 0.04730 0.25785
 C227 C -0.08612 0.09260 0.24178
 C228 C -0.06465 0.13164 0.26772
 C229 C -0.03127 0.07702 0.32604
 C230 C -0.09658 -0.06583 0.15164
 C231 C -0.07375 -0.10313 0.12835
 C232 C -0.02363 -0.11091 0.20150
 C233 C -0.04669 -0.07243 0.22308
 N234 N -0.08276 -0.05088 0.19813
 H235 H -0.05081 0.00303 0.31228
 H236 H -0.10940 0.09905 0.21046
 H237 H -0.07198 0.16720 0.25546
 H238 H -0.01119 0.06984 0.35967
 H239 H -0.12673 -0.05036 0.13300
 H240 H -0.08568 -0.11483 0.09157
 H241 H 0.00456 -0.12809 0.22196
 H242 H -0.03695 -0.06101 0.26037
 C243 C -0.18658 -0.07770 0.36979
 C244 C -0.22614 0.05855 0.11386
 C245 C -0.03764 -0.12674 0.15366
 C246 C -0.03745 0.12407 0.31099
 C247 C 0.31218 0.55554 0.70472
 H248 H 0.32355 0.57787 0.73609
 C249 C 0.28955 0.57579 0.66425
 H250 H 0.28323 0.61364 0.66488
 C251 C 0.30814 0.47951 0.66491
 H252 H 0.31689 0.44230 0.66493
 C253 C 0.28472 0.49829 0.62371
 H254 H 0.27530 0.47543 0.59205
 N255 N 0.32270 0.50865 0.70355
 C256 C 0.35561 0.44856 0.84772
 H257 H 0.39472 0.45474 0.84934
 C258 C 0.33138 0.42721 0.88750
 H259 H 0.35247 0.41659 0.91922
 C260 C 0.28146 0.45284 0.80296
 H261 H 0.26230 0.46256 0.76967
 C262 C 0.25578 0.43091 0.84176
 H263 H 0.21684 0.42391 0.83818
 Zn264 Zn 0.36603 0.48803 0.75275
 N265 N 0.33054 0.46102 0.80654
 C266 C 0.39872 0.56127 0.82080
 N267 N 0.40427 0.54340 0.77412
 C268 C 0.43131 0.56819 0.74010
 C269 C 0.45340 0.61283 0.75227
 C270 C 0.42055 0.60546 0.83465
 C271 C 0.40884 0.39740 0.74492
 C272 C 0.43221 0.36086 0.72027
 C273 C 0.44834 0.41456 0.65247
 C274 C 0.42508 0.45012 0.67854
 N275 N 0.40531 0.44098 0.72371
 H276 H 0.37528 0.54264 0.84675
 H277 H 0.43391 0.55455 0.70269
 H278 H 0.47368 0.63261 0.72436
 H279 H 0.41369 0.61962 0.87132
 H280 H 0.39185 0.39001 0.78007
 H281 H 0.43245 0.32601 0.73699
 H282 H 0.46216 0.42202 0.61573
 H283 H 0.42035 0.48416 0.66127
 C284 C 0.28070 0.41825 0.88487
 C285 C 0.27734 0.54737 0.62239
 C286 C 0.45172 0.36914 0.67300
 C287 C 0.44819 0.63198 0.80004
 C288 C 0.68839 0.94164 0.71072
 H289 H 0.69111 0.93085 0.74883
 C290 C 0.71700 0.92027 0.67510
 H291 H 0.74181 0.89343 0.68634
 C292 C 0.65075 0.98703 0.64896
 H293 H 0.62348 1.01155 0.63845
 C294 C 0.67907 0.96688 0.61215
 H295 H 0.67303 0.97629 0.57386
 N296 N 0.65555 0.97397 0.69719
 C297 C 0.64610 1.06724 0.81599
 H298 H 0.62842 1.09205 0.79252
 C299 C 0.66762 1.08418 0.86016
 H300 H 0.66685 1.12205 0.86715
 C301 C 0.66665 0.98842 0.83416
 H302 H 0.66438 0.95077 0.82497
 C303 C 0.68856 1.00377 0.87897
 H304 H 0.70407 0.97759 0.90292
 Zn305 Zn 0.61197 0.99691 0.74541
 N306 N 0.64624 1.02016 0.80338
 C307 C 0.54334 0.95318 0.80737
 N308 N 0.57048 0.94534 0.76652
 C309 C 0.57416 0.90054 0.74718
 C310 C 0.55272 0.86098 0.77124
 C311 C 0.52130 0.91483 0.83245
 C312 C 0.60304 1.08557 0.70025
 C313 C 0.58003 1.12421 0.68002
 C314 C 0.50257 1.08217 0.69257
 C315 C 0.52711 1.04453 0.71355
 N316 N 0.57654 1.04702 0.71725
 H317 H 0.54152 0.98903 0.82234
 H318 H 0.59605 0.89504 0.71471
 H319 H 0.55874 0.82568 0.75668
 H320 H 0.50186 0.92171 0.86638
 H321 H 0.64235 1.08626 0.70254
 H322 H 0.60206 1.15409 0.66621
 H323 H 0.46326 1.07960 0.68928
 H324 H 0.50672 1.01329 0.72653
 C325 C 0.68890 1.05223 0.89312
 C326 C 0.71232 0.93257 0.62515
 C327 C 0.52908 1.12294 0.67626
 C328 C 0.52719 0.86788 0.81552
 C329 C 0.06541 0.20482 -0.17294
 H330 H 0.07953 0.24134 -0.17589
 C331 C 0.09193 0.16757 -0.19212
 H332 H 0.12606 0.17582 -0.21060
 C333 C 0.00521 0.14956 -0.14301
 H334 H -0.02768 0.14245 -0.12224
 C335 C 0.03050 0.11124 -0.16173
 H336 H 0.01625 0.07534 -0.15496
 N337 N 0.02288 0.19533 -0.14882
 C338 C -0.05792 0.32508 -0.14276
 H339 H -0.06997 0.32119 -0.10490
 C340 C -0.07576 0.36128 -0.17145
 H341 H -0.10130 0.38501 -0.15509
 C342 C -0.01345 0.29607 -0.21071
 H343 H 0.01011 0.26999 -0.22602
 C344 C -0.03111 0.33174 -0.24123
 H345 H -0.02071 0.33320 -0.27985
 Zn346 Zn -0.00821 0.24656 -0.11660
 N347 N -0.02650 0.29397 -0.16211
 C348 C 0.03422 0.32185 -0.05589
 N349 N 0.03682 0.27503 -0.06911
 C350 C 0.07626 0.25018 -0.05618
 C351 C 0.11631 0.27309 -0.03205
 C352 C 0.07339 0.34612 -0.03186
 C353 C -0.10020 0.20781 -0.12491
 C354 C -0.14698 0.19162 -0.11270
 C355 C -0.12777 0.20798 -0.02631
 C356 C -0.08073 0.22412 -0.04052
 N357 N -0.06796 0.22325 -0.08918
 H358 H 0.00299 0.34143 -0.06611
 H359 H 0.07771 0.21290 -0.06654
 H360 H 0.14729 0.25234 -0.02327
 H361 H 0.07122 0.38388 -0.02360
 H362 H -0.08933 0.20827 -0.16338
 H363 H -0.17130 0.17921 -0.14252
 H364 H -0.13631 0.20843 0.01271
 H365 H -0.05463 0.23741 -0.01281
 C366 C -0.06190 0.36543 -0.22122
 C367 C 0.07466 0.12002 -0.18665
 C368 C -0.16184 0.19101 -0.06288
 C369 C 0.11595 0.32235 -0.02139
 C370 C 0.43296 0.21290 0.21313
 H371 H 0.41880 0.24815 0.21640
 C372 C 0.40916 0.17429 0.23637
 H373 H 0.37681 0.18007 0.25784
 C374 C 0.49069 0.16210 0.17886
 H375 H 0.52197 0.15722 0.15581
 C376 C 0.46824 0.12255 0.20168
 H377 H 0.48234 0.08776 0.19472
 N378 N 0.47165 0.20584 0.18329
 C379 C 0.49047 0.35465 0.17126
 H380 H 0.46537 0.35698 0.14061
 C381 C 0.50763 0.39650 0.19516
 H382 H 0.49609 0.43067 0.18228
 C383 C 0.53763 0.30813 0.22456
 H384 H 0.55029 0.27357 0.23467
 C385 C 0.55497 0.34918 0.25025
 H386 H 0.58105 0.34624 0.28023
 Zn387 Zn 0.49459 0.25732 0.14343
 N388 N 0.50761 0.31182 0.18452
 C389 C 0.45666 0.30412 0.06061
 N390 N 0.44591 0.27098 0.09579
 C391 C 0.40010 0.25090 0.09973
 C392 C 0.36196 0.26794 0.07164
 C393 C 0.41958 0.32207 0.03153
 C394 C 0.59546 0.26670 0.12011
 C395 C 0.63849 0.25367 0.09743
 C396 C 0.59220 0.19174 0.05227
 C397 C 0.55008 0.20612 0.07554
 N398 N 0.55257 0.24205 0.10991
 H399 H 0.49355 0.31885 0.05745
 H400 H 0.39238 0.22299 0.12604
 H401 H 0.32554 0.25252 0.07659
 H402 H 0.42820 0.35051 0.00575
 H403 H 0.59667 0.29621 0.14626
 H404 H 0.67247 0.27295 0.10670
 H405 H 0.58926 0.16295 0.02513
 H406 H 0.51537 0.18802 0.06692
 C407 C 0.54165 0.39396 0.23383
 C408 C 0.42611 0.12827 0.22991
 C409 C 0.63742 0.21483 0.06425
 C410 C 0.37125 0.30565 0.03879
 C411 C 0.93546 0.69588 0.68726
 H412 H 0.91997 0.73042 0.68962
 C413 C 0.90976 0.65628 0.70637
 H414 H 0.87473 0.66097 0.72337
 C415 C 0.99895 0.64737 0.66156
 H416 H 1.03364 0.64379 0.64387
 C417 C 0.97445 0.60673 0.68021
 H418 H 0.99063 0.57260 0.67553
 N419 N 0.97844 0.69062 0.66374
 C420 C 1.04031 0.83541 0.64752
 H421 H 1.03475 0.83855 0.60794
 C422 C 1.05930 0.87445 0.67506
 H423 H 1.06906 0.90719 0.65594
 C424 C 1.03678 0.78753 0.71938
 H425 H 1.02829 0.75333 0.73615
 C426 C 1.05644 0.82569 0.74837
 H427 H 1.06317 0.82070 0.78756
 Zn428 Zn 1.00604 0.74275 0.62723
 N429 N 1.02958 0.79305 0.66983
 C430 C 0.92489 0.79492 0.61254
 N431 N 0.95601 0.76761 0.58716
 C432 C 0.94983 0.75904 0.53760
 C433 C 0.91037 0.77761 0.51210
 C434 C 0.88517 0.81377 0.58883
 C435 C 1.10472 0.73732 0.60194
 C436 C 1.14523 0.71606 0.58210
 C437 C 1.09096 0.66185 0.53539
 C438 C 1.05143 0.68421 0.55611
 N439 N 1.05890 0.72066 0.58953
 H440 H 0.93089 0.80217 0.65164
 H441 H 0.97511 0.73772 0.51775
 H442 H 0.90564 0.77044 0.47274
 H443 H 0.86031 0.83380 0.61084
 H444 H 1.11014 0.76548 0.62941
 H445 H 1.18092 0.72864 0.59497
 H446 H 1.08433 0.63175 0.51025
 H447 H 1.01482 0.67044 0.54795
 C448 C 1.06763 0.86991 0.72625
 C449 C 0.92857 0.61083 0.70194
 C450 C 1.13862 0.67718 0.54887
 C451 C 0.87766 0.80572 0.53773
 C452 C 0.57965 0.71863 0.30139
 H453 H 0.59660 0.75418 0.30169
 C454 C 0.60243 0.68158 0.27724
 H455 H 0.63674 0.68904 0.25882
 C456 C 0.51592 0.66512 0.32728
 H457 H 0.48262 0.65868 0.34757
 C458 C 0.53739 0.62702 0.30356
 H459 H 0.52036 0.59170 0.30702
 N460 N 0.53806 0.70953 0.32716
 C461 C 0.47924 0.84663 0.36117
 H462 H 0.49178 0.84958 0.39928
 C463 C 0.45531 0.88404 0.34003
 H464 H 0.44936 0.91475 0.36337
 C465 C 0.46933 0.80019 0.28743
 H466 H 0.47456 0.76708 0.26758
 C467 C 0.44424 0.83658 0.26492
 H468 H 0.43064 0.83125 0.22731
 Zn469 Zn 0.51629 0.75762 0.37024
 N470 N 0.48603 0.80593 0.33481
 C471 C 0.59334 0.82351 0.37711
 N472 N 0.57173 0.78699 0.40282
 C473 C 0.58994 0.77364 0.44748
 C474 C 0.63110 0.79824 0.46813
 C475 C 0.63336 0.84946 0.39671
 C476 C 0.42334 0.74580 0.41132
 C477 C 0.38533 0.72236 0.43628
 C478 C 0.44263 0.66798 0.46908
 C479 C 0.47981 0.69272 0.44351
 N480 N 0.46945 0.73041 0.41455
 H481 H 0.57908 0.83298 0.34127
 H482 H 0.57251 0.74439 0.46729
 H483 H 0.64480 0.78818 0.50410
 H484 H 0.64920 0.87919 0.37610
 H485 H 0.41507 0.77480 0.38724
 H486 H 0.34888 0.73407 0.43038
 H487 H 0.45106 0.63691 0.49045
 H488 H 0.51633 0.68006 0.44442
 C489 C 0.43737 0.87957 0.29098
 C490 C 0.58200 0.63488 0.27914
 C491 C 0.39458 0.68242 0.46518
 C492 C 0.65265 0.83704 0.44260
 C493 C 0.38143 0.00024 0.26834
 C494 C 0.11950 0.99780 0.76380
 C495 C 0.62406 0.50989 0.23766
 C496 C 0.87977 0.48437 0.74323
 C497 C 0.24858 0.36785 0.01594
 C498 C 0.73190 0.13155 1.00440
 C499 C 0.26825 0.63604 0.51391
 C500 C 0.77228 0.88856 0.50386
 C501 C 0.00259 0.24961 0.36518
 C502 C 1.00914 0.74805 0.12417
 C503 C 0.50023 0.24866 0.62419
 C504 C 0.49838 0.74360 0.87648
 C505 C 0.41145 -0.08439 0.26819
 C506 C 0.41105 -0.03713 0.28652
 H507 H 0.39172 -0.09404 0.23439
 H508 H 0.43571 -0.02675 0.31660
 C509 C 0.91788 0.40299 0.74757
 C510 C 0.90999 0.44637 0.76683
 H511 H 0.90790 0.39409 0.70952
 H512 H 0.92491 0.45478 0.80346
 C513 C 0.10474 1.08107 0.79467
 C514 C 0.08738 1.03632 0.78445
 H515 H 0.14271 1.09006 0.78719
 H516 H 0.04935 1.02675 0.79048
 C517 C 0.61066 0.59529 0.26004
 C518 C 0.59196 0.55111 0.24989
 H519 H 0.64944 0.60244 0.25553
 H520 H 0.55320 0.54346 0.25310
 C521 C 0.56760 0.43752 0.25292
 C522 C 0.59141 0.46682 0.22137
 H523 H 0.57185 0.44248 0.29265
 H524 H 0.58737 0.45895 0.18199
 C525 C 0.09220 0.90926 0.75561
 C526 C 0.08717 0.95552 0.74458
 H527 H 0.11657 0.89934 0.78507
 H528 H 0.06001 0.96381 0.71703
 C529 C 0.89783 0.56910 0.71779
 C530 C 0.91407 0.52549 0.72668
 H531 H 0.85953 0.57480 0.72321
 H532 H 0.95209 0.51859 0.72173
 C533 C 0.39637 0.08696 0.24845
 C534 C 0.41425 0.04419 0.25762
 H535 H 0.35781 0.09159 0.25345
 H536 H 0.45289 0.03953 0.25353
 C537 C 0.25405 0.39302 -0.07492
 C538 C 0.26795 0.39794 -0.02715
 H539 H 0.22327 0.36951 -0.08545
 H540 H 0.29743 0.42365 -0.01789
 C541 C 0.79697 0.89675 0.41490
 C542 C 0.79048 0.91736 0.45953
 H543 H 0.79001 0.85850 0.41114
 H544 H 0.80032 0.95485 0.46528
 C545 C 0.74206 0.08054 1.08101
 C546 C 0.75475 0.09489 1.03269
 H547 H 0.70624 0.08740 1.09482
 H548 H 0.78659 0.08002 1.01617
 C549 C 0.26054 0.56941 0.57630
 C550 C 0.28413 0.60864 0.55895
 H551 H 0.23049 0.55226 0.55567
 H552 H 0.31456 0.62411 0.58055
 C553 C 0.23558 0.62238 0.42831
 C554 C 0.25352 0.60369 0.46979
 H555 H 0.23268 0.66080 0.42681
 H556 H 0.25515 0.56533 0.47287
 C557 C 0.70998 0.06655 0.93926
 C558 C 0.70883 0.11320 0.95910
 H559 H 0.72750 0.03964 0.96059
 H560 H 0.68930 0.13949 0.93902
 C561 C 0.73861 0.90523 0.58762
 C562 C 0.75074 0.92146 0.54246
 H563 H 0.74817 0.86948 0.59760
 H564 H 0.74187 0.95721 0.53195
 C565 C 0.21897 0.38819 0.10181
 C566 C 0.23554 0.40249 0.05740
 H567 H 0.21672 0.35047 0.11016
 H568 H 0.23887 0.44044 0.05013
 C569 C -0.08481 0.26743 0.37823
 C570 C -0.04100 0.25915 0.39743
 H571 H -0.09089 0.26262 0.33866
 H572 H -0.03516 0.26287 0.43710
 C573 C 0.41122 0.75753 0.89681
 C574 C 0.45835 0.76020 0.91027
 H575 H 0.39895 0.73663 0.86466
 H576 H 0.46893 0.78147 0.94287
 C577 C 1.09375 0.78202 0.11112
 C578 C 1.05258 0.76159 0.09163
 H579 H 1.09571 0.78765 0.15095
 H580 H 1.04960 0.75479 0.05214
 C581 C 0.58493 0.25498 0.58549
 C582 C 0.53857 0.26797 0.58801
 H583 H 0.59719 0.22581 0.60748
 H584 H 0.52682 0.29481 0.56266
 C585 C 0.41086 0.22776 0.61392
 C586 C 0.45532 0.23240 0.59388
 H587 H 0.40682 0.23578 0.65306
 H588 H 0.46077 0.22057 0.55604
 C589 C 0.91988 0.73545 0.09996
 C590 C 0.96711 0.72851 0.09116
 H591 H 0.90943 0.75921 0.12953
 H592 H 0.97633 0.70501 0.06077
 C593 C 0.58718 0.73010 0.88448
 C594 C 0.54483 0.73864 0.90662
 H595 H 0.58835 0.73073 0.84430
 H596 H 0.54163 0.73469 0.94635
 C597 C 0.09106 0.23895 0.38681
 C598 C 0.04382 0.23451 0.39838
 H599 H 0.10327 0.25987 0.35541
 H600 H 0.03376 0.21396 0.43091
 C601 C 0.50359 0.16175 0.65172
 C602 C 0.51952 0.20790 0.65501
 H603 H 0.47177 0.15125 0.62966
 H604 H 0.54987 0.21723 0.67976
 C605 C 1.00966 0.66407 0.15970
 C606 C 1.02559 0.71022 0.16004
 H607 H 0.97813 0.65199 0.13794
 H608 H 1.05517 0.72095 0.18519
 C609 C 0.98363 0.83207 0.12902
 C610 C 0.99499 0.79235 0.15294
 H611 H 0.98506 0.83214 0.08883
 H612 H 0.99030 0.79033 0.19276
 C613 C 0.47034 0.33041 0.64165
 C614 C 0.48780 0.28970 0.65897
 H615 H 0.46797 0.33518 0.60191
 H616 H 0.49111 0.28482 0.69863
 C617 C 0.46843 0.68083 0.81191
 C618 C 0.48340 0.69336 0.85793
 H619 H 0.46963 0.70651 0.78234
 H620 H 0.48271 0.66603 0.88607
 C621 C -0.01968 0.16388 0.34397
 C622 C -0.01065 0.20891 0.32881
 H623 H -0.01436 0.15571 0.38275
 H624 H -0.01519 0.21724 0.29000
 C625 C 0.02421 0.33738 0.36060
 C626 C 0.01728 0.29493 0.33731
 H627 H 0.01862 0.33927 0.40032
 H628 H 0.02645 0.29162 0.29851
 C629 C 0.51094 0.82828 0.84840
 C630 C 0.50794 0.78134 0.83647
 H631 H 0.50273 0.83883 0.88605
 H632 H 0.51824 0.76993 0.79982
 C633 C 0.63961 0.53610 0.15084
 C634 C 0.65688 0.52275 0.19786
 H635 H 0.60035 0.53560 0.14609
 H636 H 0.69552 0.52274 0.20538
 C637 C 0.12467 1.03621 0.67999
 C638 C 0.14715 1.01722 0.71889
 H639 H 0.08574 1.04044 0.68126
 H640 H 0.18648 1.01585 0.71821
 C641 C 0.14704 0.98254 0.85179
 C642 C 0.15463 0.98307 0.80012
 H643 H 0.11351 0.99663 0.86526
 H644 H 0.18583 0.96620 0.78511
 C645 C 0.67743 0.45815 0.28777
 C646 C 0.65290 0.49815 0.28438
 H647 H 0.67841 0.43442 0.25576
 H648 H 0.64956 0.52032 0.31734
 C649 C 0.85157 0.47671 0.65261
 C650 C 0.84813 0.46343 0.70046
 H651 H 0.87863 0.50391 0.64228
 H652 H 0.82261 0.43473 0.71044
 C653 C 0.37530 -0.01927 0.17708
 C654 C 0.35332 -0.01406 0.22089
 H655 H 0.41447 -0.01363 0.17499
 H656 H 0.31491 -0.02429 0.22334
 C657 C 0.35924 0.02805 0.35417
 C658 C 0.34529 0.01205 0.30878
 H659 H 0.39759 0.03034 0.36379
 H660 H 0.30679 0.00809 0.30021
 C661 C 0.86409 0.52755 0.82288
 C662 C 0.84624 0.50174 0.78397
 H663 H 0.90278 0.53685 0.82466
 H664 H 0.80731 0.49397 0.78108
 C665 C 0.17971 0.64952 0.53063
 C666 C 0.22636 0.66622 0.53030
 H667 H 0.17093 0.61376 0.51653
 H668 H 0.23554 0.70187 0.54429
 C669 C 0.68339 0.19908 1.04234
 C670 C 0.68983 0.15269 1.03279
 H671 H 0.71190 0.22586 1.03484
 H672 H 0.66046 0.12732 1.04225
 C673 C 0.79305 0.17203 0.94679
 C674 C 0.77108 0.16686 0.99385
 H675 H 0.77278 0.15748 0.91501
 H676 H 0.78829 0.18477 1.02569
 C677 C 0.35462 0.65271 0.48734
 C678 C 0.31054 0.66897 0.49757
 H679 H 0.36138 0.61565 0.49466
 H680 H 0.30369 0.70614 0.49142
 C681 C 0.69257 0.86804 0.46345
 C682 C 0.73125 0.85269 0.48822
 H683 H 0.69211 0.90558 0.45426
 H684 H 0.73332 0.81520 0.49687
 C685 C 0.15891 0.35087 -0.00134
 C686 C 0.20453 0.33552 0.00075
 H687 H 0.15307 0.38749 0.00950
 H688 H 0.21185 0.30027 -0.01317
 C689 C 0.33161 0.33034 0.01388
 C690 C 0.28823 0.33626 0.03546
 H691 H 0.34062 0.34777 -0.02061
 H692 H 0.28112 0.31881 0.07038
 C693 C 0.83564 0.82563 0.51136
 C694 C 0.81595 0.86593 0.52721
 H695 H 0.82120 0.80729 0.47845
 H696 H 0.83436 0.88634 0.55680
   
