data_POSCAR
  _audit_creation_date              2014-09-24
  _audit_creation_method            'ToBaCCo'
  _symmetry_space_group_name_H-M    'P1'
  _symmetry_Int_Tables_number       1
  _symmetry_cell_setting            triclinic
  loop_
  _symmetry_equiv_pos_as_xyz
 x,y,z
_cell_length_a 25.8925
_cell_length_b 25.9204
_cell_length_c 25.9018
_cell_angle_alpha 101.254900
_cell_angle_beta 79.281600
_cell_angle_gamma 79.823300
loop_
  _atom_site_label
  _atom_site_type_symbol
  _atom_site_fract_x
  _atom_site_fract_y
  _atom_site_fract_z
C1 C 0.52509 0.48412 0.00005
 C2 C 0.48534 0.52435 -0.00385
 C3 C 0.42989 0.51654 -0.00466
 C4 C 0.49385 0.57921 -0.00640
 C5 C 0.58074 0.49111 0.00136
 C6 C 0.51562 0.42976 0.00293
 C7 C 0.42006 0.47569 -0.04328
 C8 C 0.36723 0.47116 -0.04475
 C9 C 0.32224 0.50854 -0.00847
 C10 C 0.33345 0.54915 0.03049
 C11 C 0.38614 0.55289 0.03222
 C12 C 0.47728 0.60263 -0.04683
 C13 C 0.48004 0.65575 -0.04752
 C14 C 0.49982 0.68652 -0.00798
 C15 C 0.51746 0.66292 0.03195
 C16 C 0.51386 0.60989 0.03316
 C17 C 0.60476 0.47468 0.04157
 C18 C 0.65821 0.47673 0.04165
 C19 C 0.68873 0.49569 0.00173
 C20 C 0.66467 0.51294 -0.03815
 C21 C 0.61129 0.51000 -0.03877
 C22 C 0.47685 0.42235 0.04499
 C23 C 0.47149 0.37028 0.04868
 C24 C 0.50539 0.32495 0.01084
 C25 C 0.54352 0.33272 -0.03153
 C26 C 0.54865 0.38454 -0.03533
 H27 H 0.45329 0.44799 -0.07320
 H28 H 0.36257 0.44023 -0.07705
 H29 H 0.30204 0.57721 0.06193
 H30 H 0.39283 0.58446 0.06278
 H31 H 0.46142 0.57987 -0.07754
 H32 H 0.46656 0.67294 -0.07891
 H33 H 0.52553 0.59326 0.06559
 H34 H 0.58213 0.45970 0.07277
 H35 H 0.67575 0.46359 0.07302
 H36 H 0.68768 0.52717 -0.06969
 H37 H 0.59422 0.52152 -0.07106
 H38 H 0.45162 0.45675 0.07546
 H39 H 0.44208 0.36537 0.08197
 H40 H 0.56959 0.29859 -0.06174
 H41 H 0.57883 0.38945 -0.06800
 H42 H 0.53229 0.68613 0.06323
 C43 C 0.00178 0.51419 0.51501
 C44 C -0.00144 0.47352 0.47441
 C45 C -0.00362 0.41877 0.48284
 C46 C -0.00274 0.48080 0.41903
 C47 C 0.00355 0.56941 0.50771
 C48 C 0.00399 0.50617 0.56982
 C49 C 0.03451 0.37411 0.44886
 C50 C 0.03154 0.32198 0.45352
 C51 C -0.00992 0.31329 0.49210
 C52 C -0.04773 0.35811 0.52676
 C53 C -0.04481 0.41046 0.52194
 C54 C 0.03686 0.50134 0.38962
 C55 C 0.03547 0.50620 0.33700
 C56 C -0.00467 0.48925 0.31246
 C57 C -0.04384 0.46826 0.34169
 C58 C -0.04296 0.46423 0.39447
 C59 C -0.03630 0.59916 0.48830
 C60 C -0.03514 0.65215 0.48478
 C61 C 0.00506 0.67659 0.50189
 C62 C 0.04472 0.64683 0.52133
 C63 C 0.04406 0.59376 0.52403
 C64 C -0.03413 0.54012 0.61466
 C65 C -0.03019 0.53704 0.66695
 C66 C 0.01221 0.50012 0.67555
 C67 C 0.04985 0.46527 0.63056
 C68 C 0.04595 0.46849 0.57805
 H69 H 0.06654 0.37970 0.41842
 H70 H 0.06177 0.28834 0.42685
 H71 H -0.08041 0.35259 0.55648
 H72 H -0.07523 0.44436 0.54790
 H73 H 0.06915 0.51300 0.40711
 H74 H 0.06655 0.52181 0.31492
 H75 H -0.07372 0.44799 0.41623
 H76 H -0.06870 0.58171 0.47677
 H77 H -0.06649 0.67461 0.47022
 H78 H 0.07631 0.66470 0.53439
 H79 H 0.07504 0.57168 0.53936
 H80 H -0.06667 0.56954 0.60908
 H81 H -0.06031 0.56374 0.70076
 H82 H 0.08318 0.43675 0.63603
 H83 H 0.07636 0.44267 0.54395
 H84 H -0.07531 0.45516 0.32371
 C85 C 0.51389 0.00155 0.48572
 C86 C 0.47327 -0.00044 0.52665
 C87 C 0.48060 -0.00147 0.58221
 C88 C 0.41831 -0.00208 0.51813
 C89 C 0.50520 0.00282 0.43082
 C90 C 0.56952 0.00304 0.49243
 C91 C 0.46134 -0.03969 0.60749
 C92 C 0.46509 -0.04038 0.66037
 C93 C 0.48909 -0.00320 0.68966
 C94 C 0.50908 0.03478 0.66366
 C95 C 0.50382 0.03632 0.61111
 C96 C 0.40928 -0.04402 0.47988
 C97 C 0.35674 -0.04655 0.47515
 C98 C 0.31244 -0.00757 0.50909
 C99 C 0.32184 0.03464 0.54679
 C100 C 0.37418 0.03722 0.55135
 C101 C 0.46819 0.04510 0.42223
 C102 C 0.46473 0.04828 0.36960
 C103 C 0.49870 0.00959 0.32483
 C104 C 0.53482 -0.03321 0.33379
 C105 C 0.53811 -0.03645 0.38621
 C106 C 0.59480 0.04137 0.47319
 C107 C 0.64811 0.04179 0.47522
 C108 C 0.67779 0.00430 0.49754
 C109 C 0.65174 -0.03361 0.51780
 C110 C 0.59870 -0.03491 0.51420
 H111 H 0.44332 -0.06938 0.58608
 H112 H 0.45083 -0.07169 0.67724
 H113 H 0.52621 0.06545 0.68467
 H114 H 0.51735 0.06745 0.59329
 H115 H 0.44277 -0.07534 0.45457
 H116 H 0.35066 -0.07982 0.44614
 H117 H 0.38035 0.06980 0.58116
 H118 H 0.44319 0.07638 0.45613
 H119 H 0.43686 0.08193 0.36384
 H120 H 0.56083 -0.06410 0.30014
 H121 H 0.56701 -0.06925 0.39206
 H122 H 0.57313 0.07118 0.45628
 H123 H 0.66514 0.07305 0.46092
 H124 H 0.67302 -0.06444 0.53374
 H125 H 0.58076 -0.06608 0.52766
 H126 H 0.28859 0.06571 0.57290
 O127 O 0.45290 0.00999 -0.05550
 O128 O 0.45264 0.02412 0.08868
 O129 O 0.45362 0.08944 0.02323
 O130 O 0.45465 -0.05530 0.00921
 O131 O 0.54359 -0.07430 -0.01146
 O132 O 0.54251 0.06972 0.00389
 O133 O 0.54154 0.00418 0.06825
 O134 O 0.54185 -0.00739 -0.07590
 Cu135 Cu 0.44453 0.01905 0.01843
 Cu136 Cu 0.55127 -0.00394 -0.00592
 C137 C 0.49725 -0.00033 -0.09020
 C138 C 0.49707 0.01573 0.10309
 C139 C 0.49818 0.10422 0.01554
 C140 C 0.49938 -0.08944 -0.00291
 O141 O -0.07372 0.54215 1.00949
 O142 O 0.06917 0.54369 0.99994
 O143 O 0.00587 0.54179 0.93250
 O144 O -0.00920 0.54114 1.07663
 O145 O 0.01149 0.45215 1.05465
 O146 O 0.02624 0.45283 0.91082
 O147 O 0.09074 0.45474 0.97746
 O148 O -0.05331 0.45315 0.98857
 Cu149 Cu -0.00409 0.55108 1.00685
 Cu150 Cu 0.02089 0.44429 0.98075
 C151 C -0.08799 0.49748 1.00008
 C152 C 0.10438 0.49978 0.98755
 C153 C 0.01796 0.49744 0.89706
 C154 C -0.00076 0.49637 1.09018
 O155 O 0.01036 -0.08643 0.45544
 O156 O -0.00031 0.05668 0.45534
 O157 O 0.07725 -0.02133 0.45683
 O158 O -0.06692 -0.00756 0.45620
 O159 O -0.08724 0.01071 0.54545
 O160 O 0.05578 0.00164 0.54598
 O161 O -0.02296 0.07858 0.54447
 O162 O -0.00795 -0.06567 0.54465
 Cu163 Cu 0.00728 -0.01680 0.44701
 Cu164 Cu -0.01766 0.00858 0.55410
 C165 C 0.00265 -0.10055 0.50001
 C166 C -0.01339 0.09218 0.49965
 C167 C 0.09104 -0.01135 0.50173
 C168 C -0.10148 0.00278 0.50077
 C169 C -0.21899 0.45043 1.00619
 C170 C -0.25412 0.49627 1.00131
 C171 C -0.23443 0.54260 0.99651
 C172 C -0.18065 0.54325 0.99707
 C173 C -0.14531 0.49723 1.00146
 C174 C -0.16498 0.45074 1.00580
 H175 H -0.23321 0.41410 1.00958
 H176 H -0.26087 0.57850 0.99303
 H177 H -0.16653 0.57955 0.99330
 H178 H -0.13869 0.41471 1.00918
 C179 C 0.22731 0.55215 1.01103
 C180 C 0.27018 0.50612 0.98908
 C181 C 0.25659 0.45791 0.96461
 C182 C 0.20304 0.45573 0.96389
 C183 C 0.16136 0.50169 0.98642
 C184 C 0.17425 0.54991 1.00943
 H185 H 0.23407 0.59140 1.02739
 H186 H 0.28630 0.42044 0.94859
 H187 H 0.19424 0.41780 0.94603
 H188 H 0.14308 0.58631 1.02673
 C189 C 0.01045 -0.23061 0.54683
 C190 C 0.00501 -0.26653 0.50101
 C191 C -0.00033 -0.24780 0.45456
 C192 C 0.00004 -0.19407 0.45387
 C193 C 0.00483 -0.15791 0.49995
 C194 C 0.00994 -0.17671 0.54647
 H195 H 0.01424 -0.24410 0.58326
 H196 H -0.00425 -0.27489 0.41866
 H197 H -0.00431 -0.18061 0.41755
 H198 H 0.01364 -0.14977 0.58256
 C199 C -0.02578 0.24329 0.54473
 C200 C -0.01398 0.25742 0.49482
 C201 C -0.00476 0.21736 0.44694
 C202 C -0.00576 0.16412 0.44875
 C203 C -0.01606 0.14951 0.49852
 C204 C -0.02672 0.18979 0.54658
 H205 H -0.03280 0.27329 0.58228
 H206 H 0.00338 0.22720 0.40789
 H207 H 0.00225 0.13424 0.41096
 H208 H -0.03476 0.17982 0.58556
 C209 C 0.45255 -0.02061 -0.22209
 C210 C 0.49206 -0.00358 -0.25622
 C211 C 0.53416 0.01337 -0.23455
 C212 C 0.53678 0.01279 -0.18117
 C213 C 0.49660 -0.00310 -0.14751
 C214 C 0.45445 -0.01962 -0.16840
 H215 H 0.41829 -0.03224 -0.23565
 H216 H 0.56642 0.02535 -0.25915
 H217 H 0.56968 0.02586 -0.16585
 H218 H 0.42278 -0.03176 -0.14308
 C219 C 0.54642 0.00381 0.22982
 C220 C 0.49785 0.01420 0.26879
 C221 C 0.44889 0.02787 0.25346
 C222 C 0.44855 0.02952 0.19985
 C223 C 0.49718 0.01780 0.16060
 C224 C 0.54610 0.00561 0.17638
 H225 H 0.58479 -0.00586 0.24068
 H226 H 0.41087 0.03582 0.28260
 H227 H 0.41017 0.03904 0.18897
 H228 H 0.58427 -0.00340 0.14726
 C229 C 0.54639 -0.23631 -0.00243
 C230 C 0.50020 -0.25635 -0.00753
 C231 C 0.45403 -0.22141 -0.01206
 C232 C 0.45379 -0.16722 -0.01080
 C233 C 0.50003 -0.14712 -0.00589
 C234 C 0.54647 -0.18230 -0.00210
 H235 H 0.58253 -0.26258 0.00082
 H236 H 0.41778 -0.23588 -0.01562
 H237 H 0.41743 -0.14107 -0.01376
 H238 H 0.58261 -0.16785 0.00207
 C239 C 0.45285 0.25452 0.02737
 C240 C 0.50259 0.26944 0.01587
 C241 C 0.55033 0.23041 0.00748
 C242 C 0.54861 0.17724 0.00881
 C243 C 0.49905 0.16168 0.01852
 C244 C 0.45109 0.20103 0.02854
 H245 H 0.41545 0.28381 0.03382
 H246 H 0.58920 0.24100 -0.00044
 H247 H 0.58631 0.14810 0.00129
 H248 H 0.41228 0.19030 0.03617
 C249 C -0.24513 -0.01226 0.54000
 C250 C -0.26771 0.00444 0.49877
 C251 C -0.23425 0.02119 0.45853
 C252 C -0.18029 0.02041 0.45908
 C253 C -0.15862 0.00445 0.50062
 C254 C -0.19156 -0.01142 0.54130
 H255 H -0.26918 -0.02404 0.57272
 H256 H -0.24867 0.03260 0.42486
 H257 H -0.15549 0.03250 0.42705
 H258 H -0.17558 -0.02408 0.57374
 C259 C 0.21648 -0.00056 0.55448
 C260 C 0.25638 -0.01128 0.50654
 C261 C 0.24199 -0.02449 0.45667
 C262 C 0.18843 -0.02549 0.45488
 C263 C 0.14835 -0.01354 0.50295
 C264 C 0.16317 -0.00167 0.55273
 H265 H 0.22653 0.00873 0.59351
 H266 H 0.27186 -0.03266 0.41908
 H267 H 0.17830 -0.03476 0.41590
 H268 H 0.13342 0.00743 0.59053
 C269 C 0.00022 0.53905 1.23847
 C270 C -0.00488 0.49181 1.25590
 C271 C -0.00995 0.44662 1.21886
 C272 C -0.00907 0.44830 1.16515
 C273 C -0.00396 0.49550 1.14758
 C274 C 0.00020 0.54105 1.18488
 H275 H 0.00385 0.57448 1.26643
 H276 H -0.01355 0.40962 1.23128
 H277 H -0.01233 0.41260 1.13733
 H278 H 0.00452 0.57786 1.17238
 C279 C 0.03007 0.44988 0.74637
 C280 C 0.01726 0.49902 0.73144
 C281 C 0.00780 0.54751 0.77075
 C282 C 0.00947 0.54694 0.82418
 C283 C 0.02064 0.49784 0.83957
 C284 C 0.03165 0.44929 0.79994
 H285 H 0.03726 0.41192 0.71698
 H286 H -0.00117 0.58601 0.76020
 H287 H 0.00107 0.58505 0.85362
 H288 H 0.04037 0.41077 0.81051
   
