data_POSCAR
  _audit_creation_date              2014-09-24
  _audit_creation_method            'ToBaCCo'
  _symmetry_space_group_name_H-M    'P1'
  _symmetry_Int_Tables_number       1
  _symmetry_cell_setting            triclinic
  loop_
  _symmetry_equiv_pos_as_xyz
 x,y,z
_cell_length_a 20.7814
_cell_length_b 20.7988
_cell_length_c 28.1174
_cell_angle_alpha 84.355100
_cell_angle_beta 96.615600
_cell_angle_gamma 88.869100
loop_
  _atom_site_label
  _atom_site_type_symbol
  _atom_site_fract_x
  _atom_site_fract_y
  _atom_site_fract_z
C1 C 0.01854 0.36804 0.96047
 C2 C 0.00935 0.32934 1.00274
 C3 C -0.00563 0.35598 1.04431
 C4 C -0.00447 0.42433 1.04490
 C5 C 0.00190 0.46448 1.00200
 C6 C 0.01150 0.43631 0.95928
 C7 C 0.01254 0.47742 0.91654
 C8 C 0.01126 0.54424 0.91673
 C9 C 0.00749 0.57310 0.95946
 C10 C -0.00052 0.53314 1.00201
 C11 C -0.00440 0.45365 1.08788
 C12 C -0.00669 0.52036 1.08787
 C13 C -0.00937 0.56152 1.04484
 C14 C -0.01547 0.63014 1.04392
 C15 C -0.00272 0.66826 1.00208
 C16 C 0.01029 0.64089 0.96054
 H17 H 0.01307 0.45892 0.88208
 H18 H 0.01189 0.57305 0.88262
 H19 H 0.00078 0.42567 1.12261
 H20 H -0.00271 0.53860 1.12265
 H21 H 0.01198 0.27741 1.00247
 H22 H -0.00347 0.72037 1.00119
 C23 C 0.37161 0.01089 0.54316
 C24 C 0.33168 -0.00444 0.50248
 C25 C 0.35715 -0.01696 0.46027
 C26 C 0.42447 -0.01115 0.45771
 C27 C 0.46617 0.00095 0.49917
 C28 C 0.43977 0.01062 0.54237
 C29 C 0.48243 0.01797 0.58385
 C30 C 0.54889 0.02082 0.58212
 C31 C 0.57577 0.01671 0.53879
 C32 C 0.53439 0.00379 0.49733
 C33 C 0.45084 -0.01408 0.41423
 C34 C 0.51713 -0.01034 0.41223
 C35 C 0.56078 -0.00567 0.45394
 C36 C 0.62945 -0.00633 0.45314
 C37 C 0.66856 0.01110 0.49386
 C38 C 0.64295 0.02359 0.53607
 H39 H 0.46526 0.02013 0.61851
 H40 H 0.57884 0.02481 0.61565
 H41 H 0.42031 -0.01699 0.38072
 H42 H 0.53259 -0.00830 0.37686
 H43 H 0.27979 -0.00638 0.50353
 H44 H 0.72042 0.01376 0.49359
 C45 C 0.08415 -0.09243 0.28584
 H46 H 0.07021 -0.12983 0.26302
 C47 C 0.14481 -0.09691 0.31312
 H48 H 0.17659 -0.13824 0.31131
 C49 C 0.06072 0.00751 0.31492
 H50 H 0.02790 0.04859 0.31471
 C51 C 0.12097 0.00485 0.34297
 H52 H 0.13388 0.04429 0.36417
 N53 N 0.04326 -0.04105 0.28749
 C54 C -0.04301 -0.09562 0.16165
 H55 H -0.03791 -0.04798 0.14377
 C56 C -0.04628 -0.14883 0.13485
 H57 H -0.04370 -0.14146 0.09650
 C58 C -0.05384 -0.16325 0.23303
 H59 H -0.05631 -0.16837 0.27143
 C60 C -0.05817 -0.21754 0.20755
 H61 H -0.06375 -0.26455 0.22658
 Zn62 Zn -0.03768 -0.03414 0.24853
 N63 N -0.04550 -0.10393 0.21002
 C64 C 0.00656 0.05999 0.18200
 N65 N -0.04158 0.04594 0.20994
 C66 C -0.09013 0.08975 0.21263
 C67 C -0.09172 0.15032 0.18633
 C68 C 0.00646 0.11986 0.15465
 C69 C -0.09796 -0.03344 0.33497
 C70 C -0.15083 -0.03506 0.36158
 C71 C -0.22107 -0.04871 0.28884
 C72 C -0.16713 -0.04576 0.26352
 N73 N -0.10714 -0.03785 0.28670
 H74 H 0.04546 0.02483 0.18142
 H75 H -0.12720 0.07831 0.23577
 H76 H -0.13045 0.18481 0.18917
 H77 H 0.04567 0.13043 0.13321
 H78 H -0.04984 -0.02835 0.35294
 H79 H -0.14280 -0.03134 0.39991
 H80 H -0.26856 -0.05459 0.26979
 H81 H -0.17298 -0.04957 0.22517
 C82 C -0.05330 -0.21083 0.15798
 C83 C 0.16393 -0.04804 0.34230
 C84 C -0.21335 -0.04257 0.33837
 C85 C -0.04309 0.16601 0.15686
 C86 C 0.03378 0.16268 0.76516
 H87 H 0.02919 0.16855 0.72624
 C88 C 0.03710 0.21694 0.79070
 H89 H 0.03507 0.26478 0.77144
 C90 C 0.04271 0.09307 0.83782
 H91 H 0.04560 0.04464 0.85596
 C92 C 0.04416 0.14623 0.86475
 H93 H 0.04849 0.13857 0.90365
 N94 N 0.03810 0.10225 0.78892
 C95 C 0.11727 -0.01149 0.68482
 H96 H 0.08352 -0.05025 0.68219
 C97 C 0.17014 -0.01016 0.65820
 H98 H 0.17565 -0.04768 0.63485
 C99 C 0.15254 0.08200 0.72058
 H100 H 0.14688 0.11703 0.74575
 C101 C 0.20599 0.08513 0.69475
 H102 H 0.23991 0.12338 0.69985
 Zn103 Zn 0.03624 0.03168 0.75097
 N104 N 0.10866 0.03488 0.71468
 C105 C -0.04888 0.02597 0.66323
 N106 N -0.04364 0.03898 0.71003
 C107 C -0.09628 0.05898 0.72992
 C108 C -0.15707 0.06591 0.70284
 C109 C -0.10911 0.03115 0.63507
 C110 C 0.09434 -0.08670 0.79460
 C111 C 0.09725 -0.14714 0.82121
 C112 C -0.01053 -0.12623 0.84137
 C113 C -0.01160 -0.06624 0.81397
 N114 N 0.04012 -0.04794 0.79082
 H115 H -0.00673 0.01158 0.64742
 H116 H -0.09097 0.06994 0.76695
 H117 H -0.19843 0.08173 0.71932
 H118 H -0.11240 0.02061 0.59796
 H119 H 0.13555 -0.07100 0.77689
 H120 H 0.14062 -0.17748 0.82338
 H121 H -0.05266 -0.14031 0.85868
 H122 H -0.05410 -0.03464 0.81073
 C123 C 0.21519 0.03906 0.66271
 C124 C 0.04227 0.20893 0.84103
 C125 C 0.04430 -0.16781 0.84482
 C126 C -0.16412 0.05124 0.65497
 N127 N -0.07840 -0.32283 0.14696
 N128 N -0.06825 -0.36683 0.11748
 C129 C -0.03554 -0.33862 0.08260
 C130 C -0.02773 -0.27454 0.09134
 N131 N -0.05443 -0.26701 0.13194
 H132 H -0.00189 -0.23792 0.07188
 N133 N -0.07338 0.28065 0.14379
 N134 N -0.06333 0.33266 0.11487
 C135 C -0.02470 0.31439 0.08281
 C136 C -0.01245 0.24832 0.09287
 N137 N -0.04304 0.22946 0.13139
 H138 H 0.01642 0.21713 0.07450
 N139 N 0.31624 0.08541 0.64115
 N140 N 0.35918 0.07912 0.61046
 C141 C 0.34008 0.03018 0.58460
 C142 C 0.28325 0.00734 0.60008
 N143 N 0.27010 0.04279 0.63563
 H144 H 0.25407 -0.03050 0.58598
 N145 N -0.27434 0.09647 0.63534
 N146 N -0.32665 0.09038 0.60462
 C147 C -0.31208 0.04492 0.57613
 C148 C -0.24841 0.02439 0.58980
 N149 N -0.22676 0.05736 0.62702
 H150 H -0.22123 -0.01222 0.57501
 N151 N 0.08846 -0.27784 0.86588
 N152 N 0.08025 -0.32988 0.89540
 C153 C 0.03085 -0.31587 0.92020
 C154 C 0.00957 -0.25294 0.90524
 N155 N 0.04654 -0.23099 0.87112
 H156 H -0.02791 -0.22558 0.91883
 N157 N 0.08022 0.31609 0.85573
 N158 N 0.07519 0.35953 0.88663
 C159 C 0.03647 0.33508 0.91890
 C160 C 0.01935 0.27404 0.90731
 N161 N 0.04717 0.26440 0.86761
 H162 H -0.01158 0.24058 0.92512
 N163 N -0.32376 -0.07162 0.35059
 N164 N -0.36717 -0.06221 0.38033
 C165 C -0.33978 -0.02620 0.41420
 C166 C -0.27657 -0.01548 0.40451
 N167 N -0.26894 -0.04397 0.36446
 H168 H -0.24055 0.01289 0.42310
 N169 N 0.27345 -0.09430 0.36418
 N170 N 0.32591 -0.08722 0.39448
 C171 C 0.31248 -0.03839 0.42031
 C172 C 0.24963 -0.01636 0.40528
 N173 N 0.22701 -0.05218 0.36991
 H174 H 0.22319 0.02149 0.41925
   
