data_POSCAR
  _audit_creation_date              2014-09-24
  _audit_creation_method            'ToBaCCo'
  _symmetry_space_group_name_H-M    'P1'
  _symmetry_Int_Tables_number       1
  _symmetry_cell_setting            triclinic
  loop_
  _symmetry_equiv_pos_as_xyz
 x,y,z
_cell_length_a 58.0010
_cell_length_b 57.8233
_cell_length_c 57.9943
_cell_angle_alpha 89.935400
_cell_angle_beta 89.999900
_cell_angle_gamma 90.060400
loop_
  _atom_site_label
  _atom_site_type_symbol
  _atom_site_fract_x
  _atom_site_fract_y
  _atom_site_fract_z
N1 N 0.59764 0.66172 0.61584
 N2 N 0.58859 0.65227 0.63435
 C3 C 0.56993 0.66458 0.64071
 C4 C 0.56708 0.68278 0.62534
 C5 C 0.58509 0.68031 0.60979
 H6 H 0.55918 0.66052 0.65538
 H7 H 0.58892 0.69120 0.59514
 Cu8 Cu 0.60222 0.62474 0.64810
 Cu9 Cu 0.62501 0.64931 0.60082
 Cu10 Cu 0.64938 0.60023 0.62526
 N11 N 0.61594 0.59722 0.66176
 N12 N 0.63438 0.58775 0.65267
 C13 C 0.64038 0.56911 0.66520
 C14 C 0.62484 0.56657 0.68329
 C15 C 0.60955 0.58489 0.68043
 H16 H 0.65505 0.55833 0.66127
 H17 H 0.59479 0.58897 0.69102
 N18 N 0.66199 0.61547 0.59752
 N19 N 0.65273 0.63412 0.58824
 C20 C 0.66518 0.64030 0.56962
 C21 C 0.68323 0.62483 0.56697
 C22 C 0.68058 0.60933 0.58504
 H23 H 0.66133 0.65501 0.55881
 H24 H 0.69137 0.59461 0.58887
 H25 H 0.62036 0.61554 0.61132
 H26 H 0.63900 0.63413 0.62988
 N27 N 0.90284 0.33762 0.11580
 N28 N 0.91174 0.34686 0.13448
 C29 C 0.93054 0.33472 0.14069
 C30 C 0.93358 0.31668 0.12512
 C31 C 0.91554 0.31924 0.10953
 H32 H 0.94106 0.33871 0.15553
 H33 H 0.91161 0.30849 0.09484
 Cu34 Cu 0.89747 0.37395 0.14840
 Cu35 Cu 0.87451 0.34929 0.10191
 Cu36 Cu 0.85114 0.39932 0.12502
 N37 N 0.88419 0.40161 0.16210
 N38 N 0.86609 0.41145 0.15265
 C39 C 0.86037 0.43031 0.16490
 C40 C 0.87571 0.43257 0.18311
 C41 C 0.89065 0.41398 0.18069
 H42 H 0.84607 0.44151 0.16074
 H43 H 0.90519 0.40980 0.19156
 N44 N 0.83875 0.38410 0.09714
 N45 N 0.84782 0.36524 0.08810
 C46 C 0.83538 0.35907 0.06949
 C47 C 0.81753 0.37474 0.06663
 C48 C 0.82030 0.39037 0.08453
 H49 H 0.83893 0.34408 0.05899
 H50 H 0.80958 0.40514 0.08828
 H51 H 0.87990 0.38316 0.11160
 H52 H 0.86045 0.36560 0.13029
 N53 N 0.40229 0.16205 -0.11569
 N54 N 0.41136 0.15257 -0.13414
 C55 C 0.43006 0.16486 -0.14050
 C56 C 0.43290 0.18306 -0.12518
 C57 C 0.41487 0.18063 -0.10966
 H58 H 0.44077 0.16082 -0.15519
 H59 H 0.41108 0.19149 -0.09500
 Cu60 Cu 0.39769 0.12509 -0.14781
 Cu61 Cu 0.37491 0.14964 -0.10065
 Cu62 Cu 0.35046 0.10057 -0.12504
 N63 N 0.38400 0.09761 -0.16146
 N64 N 0.36548 0.08815 -0.15243
 C65 C 0.35951 0.06951 -0.16493
 C66 C 0.37509 0.06706 -0.18291
 C67 C 0.39042 0.08529 -0.18009
 H68 H 0.34485 0.05862 -0.16113
 H69 H 0.40514 0.08933 -0.19077
 N70 N 0.33788 0.11580 -0.09734
 N71 N 0.34717 0.13444 -0.08808
 C72 C 0.33469 0.14064 -0.06952
 C73 C 0.31661 0.12518 -0.06687
 C74 C 0.31923 0.10968 -0.08490
 H75 H 0.33854 0.15536 -0.05874
 H76 H 0.30840 0.09498 -0.08873
 H77 H 0.37958 0.11575 -0.11099
 H78 H 0.36102 0.13436 -0.12960
 N79 N 0.09727 0.83793 0.38418
 N80 N 0.08818 0.84741 0.36572
 C81 C 0.06956 0.83505 0.35929
 C82 C 0.06671 0.81671 0.37460
 C83 C 0.08479 0.81924 0.39016
 H84 H 0.05899 0.83916 0.34453
 H85 H 0.08874 0.80843 0.40482
 Cu86 Cu 0.10184 0.87498 0.35207
 Cu87 Cu 0.12467 0.85043 0.39921
 Cu88 Cu 0.14904 0.89959 0.37485
 N89 N 0.11551 0.90253 0.33841
 N90 N 0.13399 0.91200 0.34748
 C91 C 0.14002 0.93062 0.33494
 C92 C 0.12448 0.93308 0.31693
 C93 C 0.10915 0.91485 0.31974
 H94 H 0.15466 0.94151 0.33877
 H95 H 0.09449 0.91079 0.30899
 N96 N 0.16161 0.88438 0.40257
 N97 N 0.15237 0.86571 0.41184
 C98 C 0.16488 0.85954 0.43041
 C99 C 0.18293 0.87506 0.43303
 C100 C 0.18023 0.89056 0.41499
 H101 H 0.16110 0.84478 0.44120
 H102 H 0.19103 0.90529 0.41112
 H103 H 0.12002 0.88436 0.38881
 H104 H 0.13860 0.86583 0.37018
 N105 N 0.09710 0.16240 0.11566
 N106 N 0.08806 0.15287 0.13418
 C107 C 0.06943 0.16517 0.14067
 C108 C 0.06682 0.18318 0.12533
 C109 C 0.08455 0.18104 0.10969
 H110 H 0.05857 0.16134 0.15534
 H111 H 0.08806 0.19217 0.09511
 Cu112 Cu 0.10168 0.12541 0.14782
 Cu113 Cu 0.12442 0.14999 0.10061
 Cu114 Cu 0.14881 0.10089 0.12507
 N115 N 0.11531 0.09799 0.16151
 N116 N 0.13382 0.08848 0.15247
 C117 C 0.13980 0.06987 0.16506
 C118 C 0.12420 0.06771 0.18284
 C119 C 0.10890 0.08573 0.18023
 H120 H 0.15437 0.05876 0.16157
 H121 H 0.09424 0.08954 0.19110
 N122 N 0.16135 0.11608 0.09734
 N123 N 0.15207 0.13476 0.08803
 C124 C 0.16456 0.14096 0.06943
 C125 C 0.18239 0.12546 0.06707
 C126 C 0.17997 0.10993 0.08491
 H127 H 0.16101 0.15564 0.05842
 H128 H 0.19099 0.09529 0.08852
 H129 H 0.11975 0.11609 0.11103
 H130 H 0.13834 0.13470 0.12963
 N131 N 0.40253 0.83806 0.61572
 N132 N 0.41156 0.84755 0.63426
 C133 C 0.43027 0.83532 0.64066
 C134 C 0.43293 0.81734 0.62531
 C135 C 0.41514 0.81949 0.60971
 H136 H 0.44117 0.83917 0.65529
 H137 H 0.41163 0.80838 0.59514
 Cu138 Cu 0.39788 0.87499 0.64791
 Cu139 Cu 0.37514 0.85048 0.60071
 Cu140 Cu 0.35074 0.89956 0.62511
 N141 N 0.38426 0.90246 0.66155
 N142 N 0.36577 0.91199 0.65247
 C143 C 0.35985 0.93066 0.66498
 C144 C 0.37548 0.93283 0.68274
 C145 C 0.39075 0.91478 0.68017
 H146 H 0.34527 0.94176 0.66148
 H147 H 0.40544 0.91100 0.69101
 N148 N 0.33814 0.88434 0.59744
 N149 N 0.34742 0.86567 0.58816
 C150 C 0.33496 0.85951 0.56953
 C151 C 0.31714 0.87504 0.56712
 C152 C 0.31954 0.89053 0.58496
 H153 H 0.33856 0.84489 0.55850
 H154 H 0.30856 0.90520 0.58852
 H155 H 0.37976 0.88431 0.61118
 H156 H 0.36110 0.86569 0.62973
 N157 N 0.90274 0.66200 0.38409
 N158 N 0.91183 0.65247 0.36561
 C159 C 0.93044 0.66484 0.35910
 C160 C 0.93301 0.68293 0.37435
 C161 C 0.91525 0.68071 0.38999
 H162 H 0.94129 0.66107 0.34441
 H163 H 0.91173 0.69184 0.40454
 Cu164 Cu 0.89818 0.62492 0.35206
 Cu165 Cu 0.87537 0.64948 0.39912
 Cu166 Cu 0.85097 0.60032 0.37478
 N167 N 0.88452 0.59745 0.33838
 N168 N 0.86599 0.58793 0.34741
 C169 C 0.85998 0.56933 0.33483
 C170 C 0.87558 0.56719 0.31705
 C171 C 0.89093 0.58521 0.31968
 H172 H 0.84540 0.55819 0.33834
 H173 H 0.90556 0.58908 0.30878
 N174 N 0.83841 0.61549 0.40249
 N175 N 0.84769 0.63419 0.41176
 C176 C 0.83519 0.64037 0.43034
 C177 C 0.81735 0.62484 0.43275
 C178 C 0.81978 0.60930 0.41495
 H179 H 0.83873 0.65506 0.44131
 H180 H 0.80876 0.59465 0.41136
 H181 H 0.87995 0.61557 0.38878
 H182 H 0.86142 0.63412 0.37010
 N183 N 0.59775 0.33800 -0.11568
 N184 N 0.58871 0.34757 -0.13418
 C185 C 0.57004 0.33529 -0.14066
 C186 C 0.56742 0.31721 -0.12538
 C187 C 0.58518 0.31934 -0.10977
 H188 H 0.55918 0.33912 -0.15534
 H189 H 0.58870 0.30816 -0.09522
 Cu190 Cu 0.60228 0.37504 -0.14796
 Cu191 Cu 0.62512 0.35037 -0.10072
 Cu192 Cu 0.64957 0.39952 -0.12519
 N193 N 0.61603 0.40253 -0.16155
 N194 N 0.63458 0.41205 -0.15254
 C195 C 0.64055 0.43065 -0.16519
 C196 C 0.62490 0.43283 -0.18295
 C197 C 0.60957 0.41480 -0.18024
 H198 H 0.65516 0.44177 -0.16174
 H199 H 0.59490 0.41095 -0.19111
 N200 N 0.66215 0.38426 -0.09748
 N201 N 0.65284 0.36557 -0.08818
 C202 C 0.66530 0.35935 -0.06958
 C203 C 0.68317 0.37484 -0.06720
 C204 C 0.68078 0.39040 -0.08502
 H205 H 0.66172 0.34467 -0.05858
 H206 H 0.69183 0.40505 -0.08860
 H207 H 0.62059 0.38416 -0.11112
 H208 H 0.63909 0.36560 -0.12975
 C209 C -0.01495 0.28193 0.14252
 C210 C -0.01486 0.26482 0.12552
 C211 C -0.03178 0.26491 0.10839
 C212 C -0.04878 0.28201 0.10822
 C213 C -0.04918 0.29944 0.12526
 C214 C -0.03193 0.29908 0.14244
 C215 C 0.00261 0.24719 0.12562
 C216 C 0.01727 0.23245 0.12565
 C217 C 0.03448 0.21525 0.12563
 C218 C 0.04922 0.20059 0.12554
 H219 H -0.00189 0.28201 0.15588
 H220 H -0.03188 0.25172 0.09513
 H221 H -0.06152 0.28131 0.09465
 H222 H -0.03133 0.31193 0.15595
 C223 C 0.51464 0.71824 0.64266
 C224 C 0.51455 0.73542 0.62567
 C225 C 0.53156 0.73544 0.60859
 C226 C 0.54860 0.71836 0.60847
 C227 C 0.54890 0.70092 0.62546
 C228 C 0.53167 0.70112 0.64259
 C229 C 0.49703 0.75305 0.62574
 C230 C 0.48237 0.76783 0.62574
 C231 C 0.46521 0.78512 0.62568
 C232 C 0.45051 0.79985 0.62556
 H233 H 0.50152 0.71804 0.65598
 H234 H 0.53167 0.74866 0.59533
 H235 H 0.56147 0.71895 0.59501
 H236 H 0.53122 0.68812 0.65599
 C237 C 1.03186 0.76486 0.39129
 C238 C 1.01485 0.76488 0.37423
 C239 C 1.01496 0.78210 0.35730
 C240 C 1.03203 0.79923 0.35737
 C241 C 1.04940 0.79946 0.37446
 C242 C 1.04895 0.78193 0.39145
 C243 C 0.99729 0.74723 0.37410
 C244 C 0.98260 0.73245 0.37404
 C245 C 0.96538 0.71515 0.37404
 C246 C 0.95063 0.70043 0.37412
 H247 H 1.03193 0.75162 0.40454
 H248 H 1.00183 0.78231 0.34401
 H249 H 1.03141 0.81217 0.34393
 H250 H 1.06173 0.78116 0.40498
 C251 C 0.46858 0.23558 -0.10847
 C252 C 0.48561 0.23551 -0.12553
 C253 C 0.48550 0.21834 -0.14248
 C254 C 0.46840 0.20128 -0.14241
 C255 C 0.45111 0.20117 -0.12534
 C256 C 0.45146 0.21856 -0.10835
 C257 C 0.50316 0.25310 -0.12567
 C258 C 0.51786 0.26784 -0.12573
 C259 C 0.53506 0.28509 -0.12571
 C260 C 0.54980 0.29978 -0.12561
 H261 H 0.46848 0.24881 -0.09525
 H262 H 0.49861 0.21815 -0.15578
 H263 H 0.46885 0.18826 -0.15576
 H264 H 0.43860 0.21913 -0.09488
 C265 C 0.10710 -0.03142 0.26452
 C266 C 0.12405 -0.01421 0.26444
 C267 C 0.14114 -0.01418 0.28144
 C268 C 0.14130 -0.03128 0.29848
 C269 C 0.12432 -0.04873 0.29878
 C270 C 0.10720 -0.04855 0.28154
 C271 C 0.12391 0.00343 0.24694
 C272 C 0.12386 0.01822 0.23229
 C273 C 0.12387 0.03551 0.21513
 C274 C 0.12397 0.05024 0.20042
 H275 H 0.09378 -0.03158 0.25142
 H276 H 0.15436 -0.00092 0.28155
 H277 H 0.15476 -0.03070 0.31135
 H278 H 0.09383 -0.06157 0.28109
 C279 C 0.60759 0.53200 -0.26487
 C280 C 0.62453 0.51481 -0.26475
 C281 C 0.64157 0.51481 -0.28178
 C282 C 0.64169 0.53184 -0.29891
 C283 C 0.62470 0.54933 -0.29938
 C284 C 0.60764 0.54910 -0.28198
 C285 C 0.62444 0.49715 -0.24720
 C286 C 0.62443 0.48235 -0.23252
 C287 C 0.62449 0.46506 -0.21529
 C288 C 0.62463 0.45033 -0.20056
 H289 H 0.59429 0.53219 -0.25175
 H290 H 0.65479 0.50158 -0.28185
 H291 H 0.65523 0.53108 -0.31169
 H292 H 0.59420 0.56201 -0.28137
 C293 C 0.39253 1.03170 0.76465
 C294 C 0.37556 1.01451 0.76452
 C295 C 0.35843 1.01448 0.78148
 C296 C 0.35826 1.03154 0.79853
 C297 C 0.37525 1.04897 0.79888
 C298 C 0.39241 1.04880 0.78168
 C299 C 0.37567 0.99693 0.74697
 C300 C 0.37572 0.98219 0.73229
 C301 C 0.37574 0.96495 0.71509
 C302 C 0.37568 0.95027 0.70035
 H303 H 0.40586 1.03192 0.75155
 H304 H 0.34515 1.00128 0.78154
 H305 H 0.34479 1.03093 0.81139
 H306 H 0.40583 1.06179 0.78128
 C307 C 0.89276 0.46782 0.23577
 C308 C 0.87604 0.48523 0.23557
 C309 C 0.85926 0.48549 0.21826
 C310 C 0.85919 0.46844 0.20120
 C311 C 0.87592 0.45079 0.20119
 C312 C 0.89273 0.45073 0.21873
 C313 C 0.87608 0.50285 0.25308
 C314 C 0.87605 0.51763 0.26771
 C315 C 0.87597 0.53494 0.28485
 C316 C 0.87584 0.54969 0.29951
 H317 H 0.90583 0.46744 0.24911
 H318 H 0.84621 0.49888 0.21793
 H319 H 0.84595 0.46921 0.18812
 H320 H 0.90590 0.43753 0.21941
 C321 C 0.26409 0.10818 -0.03145
 C322 C 0.26407 0.12528 -0.01443
 C323 C 0.28117 0.14235 -0.01449
 C324 C 0.29824 0.14234 -0.03150
 C325 C 0.29847 0.12521 -0.04876
 C326 C 0.28114 0.10812 -0.04849
 C327 C 0.24652 0.12532 0.00309
 C328 C 0.23181 0.12536 0.01776
 C329 C 0.21459 0.12542 0.03492
 C330 C 0.19989 0.12545 0.04959
 H331 H 0.25093 0.09487 -0.03157
 H332 H 0.28132 0.15568 -0.00137
 H333 H 0.31116 0.15580 -0.03100
 H334 H 0.28061 0.09464 -0.06137
 C335 C 0.71860 0.64195 0.51442
 C336 C 0.73566 0.62487 0.51436
 C337 C 0.73563 0.60778 0.53144
 C338 C 0.71862 0.60774 0.54853
 C339 C 0.70134 0.62484 0.54880
 C340 C 0.70157 0.64196 0.53148
 C341 C 0.75318 0.62489 0.49679
 C342 C 0.76787 0.62489 0.48208
 C343 C 0.78508 0.62487 0.46488
 C344 C 0.79980 0.62486 0.45021
 H345 H 0.71846 0.65528 0.50128
 H346 H 0.74876 0.59447 0.53157
 H347 H 0.71915 0.59427 0.56144
 H348 H 0.68867 0.65542 0.53098
 C349 C 0.78166 0.35728 0.01461
 C350 C 0.76483 0.37457 0.01436
 C351 C 0.76511 0.39187 0.03118
 C352 C 0.78219 0.39192 0.04818
 C353 C 0.79929 0.37464 0.04861
 C354 C 0.79876 0.35728 0.03159
 C355 C 0.74728 0.37458 -0.00317
 C356 C 0.73259 0.37462 -0.01786
 C357 C 0.71539 0.37469 -0.03505
 C358 C 0.70069 0.37477 -0.04973
 H359 H 0.78159 0.34378 0.00167
 H360 H 0.75215 0.40534 0.03115
 H361 H 0.78187 0.40557 0.06090
 H362 H 0.81149 0.34365 0.03125
 C363 C 0.23543 0.89224 0.46840
 C364 C 0.23553 0.87513 0.48546
 C365 C 0.21849 0.85800 0.48544
 C366 C 0.20142 0.85795 0.46843
 C367 C 0.20111 0.87508 0.45113
 C368 C 0.21838 0.89223 0.45137
 C369 C 0.25309 0.87515 0.50299
 C370 C 0.26779 0.87514 0.51767
 C371 C 0.28499 0.87512 0.53488
 C372 C 0.29967 0.87508 0.54958
 H373 H 0.24855 0.90560 0.46825
 H374 H 0.21840 0.84465 0.49857
 H375 H 0.18853 0.84444 0.46895
 H376 H 0.21885 0.90573 0.43846
   
