data_POSCAR
  _audit_creation_date              2014-09-24
  _audit_creation_method            'ToBaCCo'
  _symmetry_space_group_name_H-M    'P1'
  _symmetry_Int_Tables_number       1
  _symmetry_cell_setting            triclinic
  loop_
  _symmetry_equiv_pos_as_xyz
 x,y,z
_cell_length_a 33.6271
_cell_length_b 33.4758
_cell_length_c 34.3727
_cell_angle_alpha 89.754900
_cell_angle_beta 89.763900
_cell_angle_gamma 89.951500
loop_
  _atom_site_label
  _atom_site_type_symbol
  _atom_site_fract_x
  _atom_site_fract_y
  _atom_site_fract_z
N1 N 0.30330 0.40928 1.38162
 N2 N 0.30143 0.37763 1.40426
 C3 C 0.26734 0.37844 1.42483
 C4 C 0.24686 0.41316 1.41535
 C5 C 0.27098 0.43215 1.38796
 H6 H 0.25880 0.35583 1.44579
 H7 H 0.26480 0.45953 1.37234
 Cu8 Cu 0.34484 0.33948 1.40618
 Cu9 Cu 0.34626 0.41585 1.34342
 Cu10 Cu 0.39026 0.32466 1.32124
 N11 N 0.38203 0.29568 1.39944
 N12 N 0.39845 0.28893 1.36541
 C13 C 0.41918 0.25460 1.36707
 C14 C 0.41630 0.23916 1.40459
 C15 C 0.39254 0.26646 1.42438
 H16 H 0.43525 0.24223 1.34267
 H17 H 0.38189 0.26436 1.45402
 N18 N 0.39345 0.37206 1.28696
 N19 N 0.37790 0.40709 1.29566
 C20 C 0.38602 0.43309 1.26659
 C21 C 0.40807 0.41345 1.23824
 C22 C 0.41213 0.37482 1.25241
 H23 H 0.37624 0.46384 1.26610
 H24 H 0.42740 0.35022 1.23869
 H25 H 0.34025 0.35702 1.33757
 H26 H 0.38890 0.37187 1.35868
 N27 N 1.20838 0.59979 0.87342
 N28 N 1.20419 0.62488 0.90239
 C29 C 1.23476 0.62003 0.92727
 C30 C 1.25943 0.59016 0.91302
 C31 C 1.24145 0.57801 0.87883
 H32 H 1.23922 0.63755 0.95321
 H33 H 1.25169 0.55530 0.85892
 Cu34 Cu 1.15966 0.66195 0.90255
 Cu35 Cu 1.17163 0.59762 0.82977
 Cu36 Cu 1.09236 0.66452 0.83112
 N37 N 1.11786 0.70200 0.90198
 N38 N 1.09111 0.70244 0.87426
 C39 C 1.06694 0.73413 0.87927
 C40 C 1.07943 0.75515 0.91182
 C41 C 1.11189 0.73349 0.92544
 H42 H 1.04321 0.74204 0.85957
 H43 H 1.13063 0.74050 0.94988
 N44 N 1.09991 0.62401 0.79005
 N45 N 1.13110 0.60002 0.78867
 C46 C 1.12937 0.57810 0.75598
 C47 C 1.09528 0.58838 0.73612
 C48 C 1.07718 0.61743 0.75854
 H49 H 1.15101 0.55590 0.74736
 H50 H 1.05006 0.63331 0.75172
 H51 H 1.15314 0.65663 0.83236
 H52 H 1.12234 0.61899 0.85889
 N53 N 0.70623 -0.10513 0.12600
 N54 N 0.69897 -0.12461 0.09375
 C55 C 0.72944 -0.11896 0.06869
 C56 C 0.75732 -0.09442 0.08631
 C57 C 0.74132 -0.08637 0.12268
 H58 H 0.73110 -0.13188 0.03996
 H59 H 0.75387 -0.06795 0.14521
 Cu60 Cu 0.65075 -0.15593 0.08860
 Cu61 Cu 0.66908 -0.10327 0.16937
 Cu62 Cu 0.58079 -0.15547 0.15865
 N63 N 0.61144 -0.19827 0.09308
 N64 N 0.58373 -0.19794 0.12008
 C65 C 0.56094 -0.23079 0.11645
 C66 C 0.57553 -0.25346 0.08566
 C67 C 0.60765 -0.23145 0.07157
 H68 H 0.53637 -0.23791 0.13562
 H69 H 0.62734 -0.23885 0.04776
 N70 N 0.59267 -0.12236 0.20447
 N71 N 0.62724 -0.10449 0.20943
 C72 C 0.62716 -0.08600 0.24411
 C73 C 0.59072 -0.09223 0.26174
 C74 C 0.56949 -0.11536 0.23577
 H75 H 0.65136 -0.06827 0.25531
 H76 H 0.53966 -0.12678 0.23967
 H77 H 0.64135 -0.15747 0.15861
 H78 H 0.61919 -0.11156 0.13673
 N79 N -0.20499 1.09614 -0.37588
 N80 N -0.20391 1.12566 -0.40126
 C81 C -0.23525 1.12252 -0.42536
 C82 C -0.25670 1.08890 -0.41491
 C83 C -0.23655 1.07277 -0.38352
 H84 H -0.24233 1.14332 -0.44848
 H85 H -0.24541 1.04712 -0.36632
 Cu86 Cu -0.16241 1.16592 -0.39891
 Cu87 Cu -0.16851 1.09314 -0.33171
 Cu88 Cu -0.09930 1.16992 -0.32442
 N89 N -0.12221 1.20756 -0.39625
 N90 N -0.09927 1.21022 -0.36555
 C91 C -0.07616 1.24283 -0.36895
 C92 C -0.08444 1.26151 -0.40413
 C93 C -0.11383 1.23797 -0.42076
 H94 H -0.05419 1.25154 -0.34775
 H95 H -0.12902 1.24334 -0.44793
 N96 N -0.10367 1.12612 -0.28616
 N97 N -0.12921 1.09639 -0.28911
 C98 C -0.12446 1.07164 -0.25836
 C99 C -0.09449 1.08658 -0.23493
 C100 C -0.08203 1.12106 -0.25373
 H101 H -0.14209 1.04519 -0.25297
 H102 H -0.05881 1.14111 -0.24455
 H103 H -0.15863 1.15369 -0.32912
 H104 H -0.12182 1.12356 -0.35712
 N105 N 0.70901 0.60090 0.62544
 N106 N 0.70166 0.62059 0.59314
 C107 C 0.73239 0.61568 0.56829
 C108 C 0.76060 0.59145 0.58607
 C109 C 0.74446 0.58273 0.62232
 H110 H 0.73411 0.62904 0.53965
 H111 H 0.75713 0.56408 0.64480
 Cu112 Cu 0.65307 0.65141 0.58761
 Cu113 Cu 0.67154 0.59828 0.66863
 Cu114 Cu 0.58272 0.64960 0.65719
 N115 N 0.61324 0.69334 0.59185
 N116 N 0.58553 0.69257 0.61889
 C117 C 0.56276 0.72553 0.61560
 C118 C 0.57730 0.74854 0.58506
 C119 C 0.60932 0.72692 0.57063
 H120 H 0.53839 0.73275 0.63495
 H121 H 0.62878 0.73506 0.54679
 N122 N 0.59452 0.61627 0.70304
 N123 N 0.62924 0.59873 0.70841
 C124 C 0.62900 0.58021 0.74326
 C125 C 0.59229 0.58611 0.76050
 C126 C 0.57111 0.60906 0.73416
 H127 H 0.65334 0.56282 0.75491
 H128 H 0.54120 0.62039 0.73775
 H129 H 0.62192 0.60624 0.63560
 H130 H 0.64332 0.65223 0.65757
 N131 N 0.79949 0.40896 0.12226
 N132 N 0.80237 0.38125 0.09539
 C133 C 0.77068 0.38367 0.07167
 C134 C 0.74704 0.41499 0.08400
 C135 C 0.76627 0.43049 0.11606
 H136 H 0.76514 0.36404 0.04737
 H137 H 0.75583 0.45443 0.13453
 Cu138 Cu 0.84689 0.34434 0.09389
 Cu139 Cu 0.83615 0.41190 0.16597
 Cu140 Cu 0.90465 0.33494 0.17265
 N141 N 0.88269 0.29924 0.10016
 N142 N 0.90400 0.29492 0.13185
 C143 C 0.92471 0.26059 0.12968
 C144 C 0.91626 0.24264 0.09453
 C145 C 0.88953 0.26805 0.07642
 H146 H 0.94490 0.24975 0.15175
 H147 H 0.87544 0.26368 0.04854
 N148 N 0.90118 0.37833 0.21089
 N149 N 0.87564 0.40814 0.20823
 C150 C 0.88038 0.43231 0.23918
 C151 C 0.91033 0.41687 0.26246
 C152 C 0.92285 0.38275 0.24334
 H153 H 0.86258 0.45855 0.24489
 H154 H 0.94598 0.36241 0.25241
 H155 H 0.88433 0.38371 0.14085
 H156 H 0.84564 0.35131 0.16416
 N157 N 0.29663 0.09365 0.87718
 N158 N 0.29803 0.12263 0.90282
 C159 C 0.26627 0.11979 0.92668
 C160 C 0.24418 0.08694 0.91575
 C161 C 0.26439 0.07090 0.88436
 H162 H 0.25944 0.14022 0.95006
 H163 H 0.25521 0.04573 0.86695
 Cu164 Cu 0.34050 0.16201 0.90248
 Cu165 Cu 0.33384 0.09037 0.83372
 Cu166 Cu 0.40528 0.16455 0.82769
 N167 N 0.38143 0.20290 0.89846
 N168 N 0.40553 0.20471 0.86834
 C169 C 0.42889 0.23716 0.87151
 C170 C 0.41921 0.25649 0.90572
 C171 C 0.38905 0.23389 0.92219
 H172 H 0.45137 0.24601 0.85061
 H173 H 0.37304 0.24037 0.94877
 N174 N 0.40077 0.12134 0.78937
 N175 N 0.37401 0.09264 0.79175
 C176 C 0.37817 0.06841 0.76072
 C177 C 0.40903 0.08263 0.73764
 C178 C 0.42266 0.11612 0.75697
 H179 H 0.35936 0.04302 0.75475
 H180 H 0.44664 0.13556 0.74801
 H181 H 0.38047 0.11885 0.86062
 H182 H 0.34510 0.15089 0.83255
 N183 N 0.20560 0.90068 0.37609
 N184 N 0.19828 0.88047 0.40813
 C185 C 0.22895 0.88495 0.43285
 C186 C 0.25712 0.90945 0.41527
 C187 C 0.24100 0.91883 0.37927
 H188 H 0.23074 0.87091 0.46117
 H189 H 0.25374 0.93770 0.35693
 Cu190 Cu 0.15014 0.84913 0.41336
 Cu191 Cu 0.16843 0.90336 0.33291
 Cu192 Cu 0.08042 0.85046 0.34384
 N193 N 0.11128 0.80660 0.40866
 N194 N 0.08378 0.80714 0.38164
 C195 C 0.06168 0.77373 0.38459
 C196 C 0.07651 0.75070 0.41487
 C197 C 0.10793 0.77274 0.42953
 H198 H 0.03760 0.76623 0.36520
 H199 H 0.12737 0.76472 0.45329
 N200 N 0.09197 0.88452 0.29839
 N201 N 0.12640 0.90273 0.29318
 C202 C 0.12614 0.92145 0.25844
 C203 C 0.08971 0.91499 0.24113
 C204 C 0.06873 0.89151 0.26730
 H205 H 0.15029 0.93925 0.24687
 H206 H 0.03911 0.87959 0.26355
 H207 H 0.11863 0.89426 0.36578
 H208 H 0.14106 0.84887 0.34338
 Zn209 Zn -0.02397 1.00847 0.04831
 Zn210 Zn -0.03174 0.96813 -0.02916
 Zn211 Zn 0.01014 1.04715 -0.02178
 Zn212 Zn 0.04743 0.97390 0.01077
 O213 O 0.00037 0.99930 0.00188
 O214 O -0.07114 0.98528 0.05109
 O215 O -0.04483 0.99287 -0.07421
 O216 O -0.00819 1.08915 0.00504
 O217 O -0.07813 0.95497 -0.00551
 O218 O -0.03276 1.06023 0.05779
 O219 O -0.01339 1.05050 -0.06784
 O220 O 0.08936 1.00035 -0.00835
 O221 O -0.00838 0.92137 -0.04222
 O222 O 0.06201 1.05591 -0.03089
 O223 O 0.04907 0.92617 -0.01140
 O224 O 0.05715 0.96495 0.06134
 O225 O 0.00297 0.98944 0.08893
 C226 C -0.09125 0.96382 0.02812
 C227 C -0.03550 1.02727 -0.08719
 C228 C -0.02570 1.09132 0.03772
 C229 C 0.09232 1.03411 -0.02499
 C230 C 0.02519 0.90686 -0.03269
 C231 C 0.03626 0.97187 0.09140
 Zn232 Zn 0.54880 -0.02680 0.49048
 Zn233 Zn 0.46897 -0.03325 0.52995
 Zn234 Zn 0.51046 0.04611 0.52215
 Zn235 Zn 0.47774 0.00728 0.45214
 O236 O 0.50137 -0.00180 0.49884
 O237 O 0.55058 -0.07431 0.51345
 O238 O 0.45594 -0.00895 0.57524
 O239 O 0.56219 0.05559 0.53095
 O240 O 0.49221 -0.08031 0.54282
 O241 O 0.59039 0.00026 0.50914
 O242 O 0.48699 0.04894 0.56838
 O243 O 0.46925 0.05912 0.44184
 O244 O 0.42252 -0.04586 0.50641
 O245 O 0.49167 0.08792 0.49519
 O246 O 0.43045 -0.01563 0.44957
 O247 O 0.50492 -0.01256 0.41197
 O248 O 0.55890 -0.03662 0.44007
 C249 C 0.52631 -0.09426 0.53409
 C250 C 0.46524 0.02538 0.58811
 C251 C 0.59283 0.03415 0.52533
 C252 C 0.47521 0.09010 0.46211
 C253 C 0.40985 -0.03687 0.47266
 C254 C 0.53811 -0.03043 0.40990
 Zn255 Zn 0.98049 0.49073 0.54712
 Zn256 Zn 1.01364 0.45220 0.47667
 Zn257 Zn 0.97143 0.53127 0.46962
 Zn258 Zn 1.05127 0.52530 0.50824
 O259 O 1.00410 0.49996 0.50025
 O260 O 0.97222 0.43894 0.55716
 O261 O 0.99007 0.44939 0.43060
 O262 O 0.92509 0.54378 0.49363
 O263 O 0.99499 0.41022 0.50365
 O264 O 0.93314 0.51370 0.55045
 O265 O 0.95844 0.50708 0.42452
 O266 O 1.05245 0.57305 0.48579
 O267 O 1.06555 0.44313 0.46744
 O268 O 0.99418 0.57840 0.45660
 O269 O 1.09298 0.49900 0.48867
 O270 O 1.06170 0.53428 0.55860
 O271 O 1.00779 0.51009 0.58712
 C272 C 0.97838 0.40804 0.53679
 C273 C 0.96795 0.47291 0.41134
 C274 C 0.91252 0.53497 0.52754
 C275 C 1.02802 0.59272 0.46526
 C276 C 1.09583 0.46511 0.47257
 C277 C 1.04108 0.52767 0.58894
 Zn278 Zn 0.47854 0.48961 0.95285
 Zn279 Zn 0.54885 0.52513 0.99058
 Zn280 Zn 0.46920 0.53010 1.03029
 Zn281 Zn 0.51215 0.45142 1.02326
 O282 O 0.50207 0.49916 0.99944
 O283 O 0.50545 0.50931 0.91229
 O284 O 0.54968 0.57288 1.01274
 O285 O 0.42277 0.54231 1.00643
 O286 O 0.55897 0.53438 0.94003
 O287 O 0.43094 0.51186 0.94996
 O288 O 0.49168 0.57742 1.04301
 O289 O 0.48842 0.44807 1.06953
 O290 O 0.59088 0.49910 1.00965
 O291 O 0.45634 0.50548 1.07565
 O292 O 0.56413 0.44320 1.03224
 O293 O 0.49456 0.40916 0.99641
 O294 O 0.47097 0.43775 0.94320
 C295 C 0.53846 0.52740 0.90991
 C296 C 0.52526 0.59218 1.03365
 C297 C 0.41017 0.53306 0.97279
 C298 C 0.46610 0.47131 1.08891
 C299 C 0.59419 0.46536 1.02625
 C300 C 0.47792 0.40678 0.96343
 C301 C 1.18431 0.39926 0.44992
 C302 C 1.20976 0.42595 0.42995
 C303 C 1.19714 0.46578 0.42485
 C304 C 1.16056 0.47858 0.43970
 C305 C 1.13505 0.45161 0.45862
 C306 C 1.14702 0.41180 0.46337
 H307 H 1.19240 0.36826 0.45422
 H308 H 1.21582 0.48755 0.41030
 H309 H 1.15180 0.50947 0.43569
 H310 H 1.12769 0.39053 0.47790
 C311 C 0.31079 0.58715 0.96639
 C312 C 0.29752 0.57525 0.92940
 C313 C 0.32134 0.54900 0.90764
 C314 C 0.35743 0.53526 0.92213
 C315 C 0.37095 0.54725 0.95890
 C316 C 0.34719 0.57328 0.98101
 H317 H 0.29323 0.60721 0.98409
 H318 H 0.31264 0.53923 0.87899
 H319 H 0.37491 0.51528 0.90419
 H320 H 0.35683 0.58311 1.00942
 C321 C -0.19067 0.90962 0.03309
 C322 C -0.20422 0.92046 0.07042
 C323 C -0.18045 0.94591 0.09291
 C324 C -0.14421 0.95991 0.07883
 C325 C -0.13043 0.94899 0.04174
 C326 C -0.15408 0.92376 0.01888
 H327 H -0.20810 0.89012 0.01486
 H328 H -0.18946 0.95524 0.12167
 H329 H -0.12687 0.97931 0.09732
 H330 H -0.14426 0.91478 -0.00983
 C331 C 0.67701 0.10253 0.55499
 C332 C 0.70538 0.07496 0.56843
 C333 C 0.69689 0.03398 0.56664
 C334 C 0.66072 0.02076 0.55150
 C335 C 0.63192 0.04832 0.53894
 C336 C 0.64034 0.08934 0.54090
 H337 H 0.68276 0.13432 0.55636
 H338 H 0.71835 0.01218 0.57672
 H339 H 0.65481 -0.01103 0.55059
 H340 H 0.61859 0.11117 0.53144
 C341 C 0.44848 0.17436 0.39334
 C342 C 0.43230 0.20303 0.41890
 C343 C 0.43186 0.19429 0.45907
 C344 C 0.44693 0.15809 0.47311
 C345 C 0.46180 0.12928 0.44735
 C346 C 0.46238 0.13768 0.40738
 H347 H 0.44938 0.17940 0.36226
 H348 H 0.42034 0.21542 0.47999
 H349 H 0.44596 0.15216 0.50411
 H350 H 0.47372 0.11585 0.38697
 C351 C 0.95472 0.32251 0.60497
 C352 C 0.93259 0.29685 0.58085
 C353 C 0.92747 0.30777 0.54152
 C354 C 0.94396 0.34312 0.52687
 C355 C 0.96461 0.36908 0.55146
 C356 C 0.96984 0.35857 0.59058
 H357 H 0.95920 0.31579 0.63544
 H358 H 0.91127 0.28888 0.52167
 H359 H 0.93943 0.35086 0.49657
 H360 H 0.98563 0.37833 0.61003
 C361 C 0.03110 0.81050 -0.09048
 C362 C 0.06448 0.79163 -0.07363
 C363 C 0.08321 0.81067 -0.04216
 C364 C 0.07004 0.84769 -0.02895
 C365 C 0.03742 0.86678 -0.04632
 C366 C 0.01768 0.84757 -0.07687
 H367 H 0.01528 0.79707 -0.11440
 H368 H 0.10866 0.79772 -0.02777
 H369 H 0.08570 0.86147 -0.00503
 H370 H -0.00768 0.86151 -0.09075
 C371 C 0.58232 0.68896 1.04239
 C372 C 0.56197 0.70904 1.07242
 C373 C 0.52825 0.69032 1.08899
 C374 C 0.51575 0.65264 1.07621
 C375 C 0.53684 0.63261 1.04684
 C376 C 0.57007 0.65138 1.03000
 H377 H 0.60824 0.70165 1.02841
 H378 H 0.51131 0.70447 1.11191
 H379 H 0.48995 0.63897 1.08969
 H380 H 0.58685 0.63697 1.00703
 C381 C 0.41266 0.46755 1.18684
 C382 C 0.42345 0.42936 1.20055
 C383 C 0.44888 0.40589 1.17748
 C384 C 0.46253 0.41972 1.14154
 C385 C 0.45145 0.45760 1.12752
 C386 C 0.42648 0.48151 1.15067
 H387 H 0.39325 0.48658 1.20376
 H388 H 0.45850 0.37663 1.18696
 H389 H 0.48182 0.40047 1.12465
 H390 H 0.41747 0.51089 1.14078
 C391 C 0.53698 -0.06838 0.30641
 C392 C 0.57735 -0.07648 0.29969
 C393 C 0.60496 -0.06890 0.32935
 C394 C 0.59233 -0.05390 0.36524
 C395 C 0.55197 -0.04538 0.37180
 C396 C 0.52446 -0.05261 0.34197
 H397 H 0.51513 -0.07367 0.28397
 H398 H 0.63625 -0.07516 0.32501
 H399 H 0.61415 -0.04877 0.38777
 H400 H 0.49310 -0.04670 0.34635
 C401 C -0.09028 1.03227 -0.18381
 C402 C -0.07952 1.07055 -0.19732
 C403 C -0.05415 1.09388 -0.17431
 C404 C -0.03991 1.07952 -0.13893
 C405 C -0.05061 1.04137 -0.12531
 C406 C -0.07595 1.01781 -0.14815
 H407 H -0.10963 1.01337 -0.20075
 H408 H -0.04541 1.12361 -0.18316
 H409 H -0.02057 1.09863 -0.12211
 H410 H -0.08478 0.98829 -0.13843
 C411 C 1.04078 0.56811 0.69134
 C412 C 1.08156 0.57214 0.69871
 C413 C 1.10913 0.56060 0.67007
 C414 C 1.09607 0.54607 0.63426
 C415 C 1.05526 0.54183 0.62698
 C416 C 1.02774 0.55259 0.65598
 H417 H 1.01899 0.57657 0.71309
 H418 H 1.14075 0.56364 0.67505
 H419 H 1.11783 0.53795 0.61235
 H420 H 0.99608 0.54983 0.65097
 C421 C 0.82544 0.55564 0.59431
 C422 C 0.79946 0.57749 0.57038
 C423 C 0.81111 0.58549 0.53171
 C424 C 0.84780 0.57179 0.51744
 C425 C 0.87347 0.54976 0.54155
 C426 C 0.86177 0.54196 0.58011
 H427 H 0.81810 0.54902 0.62427
 H428 H 0.79194 0.60216 0.51235
 H429 H 0.85600 0.57834 0.48759
 H430 H 0.88084 0.52531 0.59967
 C431 C 0.69808 0.46839 1.06748
 C432 C 0.70843 0.42779 1.06797
 C433 C 0.68130 0.39952 1.05383
 C434 C 0.64395 0.41161 1.04037
 C435 C 0.63371 0.45227 1.03970
 C436 C 0.66128 0.48059 1.05292
 H437 H 0.71862 0.49071 1.07807
 H438 H 0.68859 0.36800 1.05413
 H439 H 0.62317 0.38928 1.03024
 H440 H 0.65396 0.51211 1.05287
 C441 C 0.19674 1.03261 -0.06607
 C442 C 0.20587 1.07346 -0.06779
 C443 C 0.17780 1.10137 -0.05445
 C444 C 0.14076 1.08864 -0.04053
 C445 C 0.13170 1.04775 -0.03863
 C446 C 0.16019 1.01982 -0.05109
 H447 H 0.21800 1.01057 -0.07605
 H448 H 0.18409 1.13306 -0.05575
 H449 H 0.11926 1.11072 -0.03107
 H450 H 0.15379 0.98812 -0.05015
 C451 C 0.30779 -0.08599 0.46921
 C452 C 0.29614 -0.07734 0.43075
 C453 C 0.32233 -0.05568 0.40675
 C454 C 0.35890 -0.04281 0.42064
 C455 C 0.37065 -0.05120 0.45899
 C456 C 0.34475 -0.07307 0.48320
 H457 H 0.28843 -0.10254 0.48861
 H458 H 0.31498 -0.04860 0.37695
 H459 H 0.37810 -0.02625 0.40102
 H460 H 0.35296 -0.08005 0.51289
 C461 C 0.52660 -0.19587 0.58423
 C462 C 0.56352 -0.21141 0.57209
 C463 C 0.58769 -0.18803 0.54761
 C464 C 0.57545 -0.15018 0.53559
 C465 C 0.53860 -0.13454 0.54760
 C466 C 0.51421 -0.15782 0.57203
 H467 H 0.50711 -0.21311 0.60294
 H468 H 0.61646 -0.19858 0.53793
 H469 H 0.59507 -0.13316 0.51676
 H470 H 0.48563 -0.14667 0.58173
 C471 C 1.08821 0.68705 0.45135
 C472 C 1.06349 0.71035 0.42750
 C473 C 1.02673 0.69450 0.41572
 C474 C 1.01492 0.65626 0.42782
 C475 C 1.03978 0.63311 0.45175
 C476 C 1.07654 0.64900 0.46327
 H477 H 1.11692 0.69784 0.46063
 H478 H 1.00688 0.71170 0.39747
 H479 H 0.98641 0.64486 0.41846
 H480 H 1.09653 0.63203 0.48164
 C481 C -0.06267 1.19812 0.03991
 C482 C -0.06804 1.20428 0.07996
 C483 C -0.05846 1.17341 0.10609
 C484 C -0.04453 1.13672 0.09236
 C485 C -0.03899 1.13057 0.05232
 C486 C -0.04780 1.16175 0.02623
 H487 H -0.06959 1.22157 0.01922
 H488 H -0.06258 1.17731 0.13710
 H489 H -0.03801 1.11316 0.11308
 H490 H -0.04406 1.15768 -0.00482
 C491 C 0.44851 0.32417 0.89452
 C492 C 0.43602 0.29420 0.92051
 C493 C 0.43891 0.30088 0.96069
 C494 C 0.45395 0.33700 0.97466
 C495 C 0.46530 0.36745 0.94867
 C496 C 0.46251 0.36069 0.90847
 H497 H 0.44633 0.31983 0.86340
 H498 H 0.42966 0.27813 0.98130
 H499 H 0.45556 0.34159 1.00578
 H500 H 0.47109 0.38370 0.88783
 C501 C 0.53825 0.56268 0.80521
 C502 C 0.57867 0.57076 0.79865
 C503 C 0.60599 0.56391 0.82878
 C504 C 0.59302 0.54981 0.86502
 C505 C 0.55260 0.54146 0.87148
 C506 C 0.52539 0.54778 0.84113
 H507 H 0.51661 0.56740 0.78240
 H508 H 0.63730 0.57015 0.82457
 H509 H 0.61461 0.54524 0.88791
 H510 H 0.49401 0.54186 0.84539
 C511 C 0.44861 0.09060 0.67626
 C512 C 0.42335 0.06713 0.69961
 C513 C 0.41191 0.02924 0.68599
 C514 C 0.42551 0.01528 0.64986
 C515 C 0.45071 0.03901 0.62664
 C516 C 0.46207 0.07677 0.64039
 H517 H 0.45783 0.12005 0.68526
 H518 H 0.39266 0.01023 0.70324
 H519 H 0.41625 -0.01397 0.64010
 H520 H 0.48138 0.09597 0.62333
 C521 C 0.03572 0.93741 0.19633
 C522 C 0.07622 0.93003 0.20294
 C523 C 0.10371 0.93712 0.17280
 C524 C 0.09081 0.95074 0.13646
 C525 C 0.05031 0.95834 0.12992
 C526 C 0.02294 0.95183 0.16030
 H527 H 0.01397 0.93249 0.21915
 H528 H 0.13509 0.93142 0.17708
 H529 H 0.11253 0.95550 0.11356
 H530 H -0.00851 0.95720 0.15599
 C531 C 0.91473 0.47029 0.31387
 C532 C 0.92494 0.43197 0.30039
 C533 C 0.94931 0.40770 0.32375
 C534 C 0.96317 0.42125 0.35945
 C535 C 0.95307 0.45948 0.37303
 C536 C 0.92868 0.48394 0.34983
 H537 H 0.89616 0.48988 0.29662
 H538 H 0.95751 0.37786 0.31489
 H539 H 0.98176 0.40148 0.37655
 H540 H 0.92039 0.51356 0.35946
   
