data_POSCAR
  _audit_creation_date              2014-09-24
  _audit_creation_method            'ToBaCCo'
  _symmetry_space_group_name_H-M    'P1'
  _symmetry_Int_Tables_number       1
  _symmetry_cell_setting            triclinic
  loop_
  _symmetry_equiv_pos_as_xyz
 x,y,z
_cell_length_a 38.9220
_cell_length_b 38.1902
_cell_length_c 37.4988
_cell_angle_alpha 89.795400
_cell_angle_beta 89.905100
_cell_angle_gamma 89.700700
loop_
  _atom_site_label
  _atom_site_type_symbol
  _atom_site_fract_x
  _atom_site_fract_y
  _atom_site_fract_z
C1 C 0.37537 0.26931 0.02786
 C2 C 0.38433 0.25362 -0.00435
 C3 C 0.36992 0.26443 -0.03680
 C4 C 0.34534 0.29199 -0.03701
 C5 C 0.33511 0.30745 -0.00421
 C6 C 0.35039 0.29626 0.02831
 C7 C 0.33995 0.31185 0.06044
 C8 C 0.31376 0.33676 0.06096
 C9 C 0.29760 0.34756 0.02928
 C10 C 0.30879 0.33339 -0.00376
 C11 C 0.32909 0.30287 -0.06866
 C12 C 0.30340 0.32837 -0.06824
 C13 C 0.29281 0.34408 -0.03615
 C14 C 0.26506 0.36834 -0.03509
 C15 C 0.25418 0.38146 -0.00209
 C16 C 0.26986 0.37147 0.02981
 H17 H 0.35142 0.30429 0.08561
 H18 H 0.30598 0.34718 0.08655
 H19 H 0.33538 0.29103 -0.09403
 H20 H 0.29116 0.33484 -0.09331
 H21 H 0.40358 0.23292 -0.00420
 H22 H 0.23313 0.40022 -0.00114
 C23 C 0.73344 0.63174 0.03691
 C24 C 0.74541 0.61928 0.00419
 C25 C 0.73224 0.63182 -0.02806
 C26 C 0.70590 0.65742 -0.02784
 C27 C 0.69318 0.67005 0.00525
 C28 C 0.70704 0.65719 0.03778
 C29 C 0.69460 0.67050 0.07023
 C30 C 0.66889 0.69595 0.07080
 C31 C 0.65477 0.70901 0.03894
 C32 C 0.66693 0.69597 0.00582
 C33 C 0.69251 0.67123 -0.05970
 C34 C 0.66673 0.69665 -0.05915
 C35 C 0.65311 0.70899 -0.02670
 C36 C 0.62680 0.73486 -0.02581
 C37 C 0.61611 0.74822 0.00717
 C38 C 0.62924 0.73532 0.03929
 H39 H 0.70483 0.66152 0.09550
 H40 H 0.66036 0.70555 0.09648
 H41 H 0.70206 0.66268 -0.08537
 H42 H 0.65767 0.70674 -0.08446
 H43 H 0.76563 0.59961 0.00381
 H44 H 0.59604 0.76805 0.00803
 C45 C 0.61687 0.27772 0.97633
 C46 C 0.60658 0.26563 1.00985
 C47 C 0.62048 0.27923 1.04117
 C48 C 0.64542 0.30589 1.03919
 C49 C 0.65656 0.31806 1.00529
 C50 C 0.64232 0.30385 0.97369
 C51 C 0.65377 0.31614 0.94039
 C52 C 0.67871 0.34210 0.93809
 C53 C 0.69287 0.35678 0.96901
 C54 C 0.68186 0.34459 1.00297
 C55 C 0.65943 0.32065 1.07012
 C56 C 0.68401 0.34693 1.06787
 C57 C 0.69604 0.35891 1.03459
 C58 C 0.72109 0.38566 1.03193
 C59 C 0.73088 0.39787 0.99819
 C60 C 0.71780 0.38340 0.96697
 H61 H 0.64352 0.30575 0.91580
 H62 H 0.68667 0.35076 0.91184
 H63 H 0.65131 0.31213 1.09637
 H64 H 0.69351 0.35783 1.09254
 H65 H 0.58714 0.24542 1.01161
 H66 H 0.75024 0.41816 0.99608
 C67 C 0.27627 0.61931 0.96512
 C68 C 0.26374 0.60850 0.99821
 C69 C 0.27766 0.62087 1.03015
 C70 C 0.30406 0.64628 1.02897
 C71 C 0.31659 0.65801 0.99543
 C72 C 0.30276 0.64435 0.96337
 C73 C 0.31563 0.65610 0.93044
 C74 C 0.34141 0.68118 0.92893
 C75 C 0.35523 0.69532 0.96029
 C76 C 0.34295 0.68352 0.99389
 C77 C 0.31753 0.66094 1.06030
 C78 C 0.34323 0.68613 1.05880
 C79 C 0.35668 0.69750 1.02591
 C80 C 0.38264 0.72343 1.02399
 C81 C 0.39353 0.73539 0.99053
 C82 C 0.38067 0.72141 0.95897
 H83 H 0.30563 0.64616 0.90555
 H84 H 0.35027 0.68963 0.90292
 H85 H 0.30803 0.65321 1.08630
 H86 H 0.35236 0.69683 1.08371
 H87 H 0.24374 0.58878 0.99907
 H88 H 0.41322 0.75538 0.98890
 C89 C 0.03373 0.26086 0.36326
 C90 C 0.00267 0.24652 0.37469
 C91 C -0.02893 0.25757 0.36057
 C92 C -0.02910 0.28229 0.33224
 C93 C 0.00226 0.29749 0.32080
 C94 C 0.03385 0.28630 0.33588
 C95 C 0.06466 0.30114 0.32360
 C96 C 0.06436 0.32771 0.29812
 C97 C 0.03323 0.34027 0.28396
 C98 C 0.00194 0.32460 0.29485
 C99 C -0.05965 0.29170 0.31458
 C100 C -0.05998 0.31834 0.28922
 C101 C -0.02974 0.33650 0.28047
 C102 C -0.03020 0.36575 0.25705
 C103 C 0.00111 0.38027 0.24598
 C104 C 0.03252 0.36829 0.25934
 H105 H 0.08927 0.29261 0.33398
 H106 H 0.08874 0.33861 0.28986
 H107 H -0.08371 0.27895 0.32079
 H108 H -0.08428 0.32501 0.27689
 H109 H 0.00306 0.22795 0.39668
 H110 H 0.00103 0.40270 0.22811
 C111 C 0.03028 0.62978 0.73291
 C112 C -0.00063 0.61599 0.74545
 C113 C -0.03257 0.62914 0.73422
 C114 C -0.03342 0.65861 0.71095
 C115 C -0.00215 0.67279 0.69785
 C116 C 0.02980 0.65841 0.70901
 C117 C 0.06045 0.67317 0.69629
 C118 C 0.05986 0.70141 0.67277
 C119 C 0.02858 0.71589 0.66105
 C120 C -0.00278 0.70169 0.67385
 C121 C -0.06453 0.67519 0.70168
 C122 C -0.06517 0.70351 0.67822
 C123 C -0.03471 0.71663 0.66315
 C124 C -0.03505 0.74575 0.63945
 C125 C -0.00372 0.75901 0.62702
 C126 C 0.02780 0.74473 0.63743
 H127 H 0.08523 0.66307 0.70459
 H128 H 0.08423 0.71201 0.66412
 H129 H -0.08875 0.66654 0.71274
 H130 H -0.08985 0.71540 0.67253
 H131 H 0.00029 0.59347 0.76319
 H132 H -0.00378 0.78047 0.60794
 C133 C 0.96962 0.72462 0.38013
 C134 C 1.00010 0.74000 0.39155
 C135 C 1.03179 0.73044 0.37697
 C136 C 1.03337 0.70462 0.35015
 C137 C 1.00258 0.68869 0.33833
 C138 C 0.97051 0.69890 0.35321
 C139 C 0.94027 0.68316 0.34090
 C140 C 0.94145 0.65781 0.31434
 C141 C 0.97295 0.64704 0.29950
 C142 C 1.00386 0.66246 0.31166
 C143 C 1.06475 0.69466 0.33458
 C144 C 1.06602 0.66885 0.30846
 C145 C 1.03601 0.65164 0.29731
 C146 C 1.03706 0.62455 0.27144
 C147 C 1.00606 0.61076 0.25885
 C148 C 0.97437 0.62121 0.27275
 H149 H 0.91541 0.69044 0.35164
 H150 H 0.91742 0.64662 0.30558
 H151 H 1.08861 0.70682 0.34248
 H152 H 1.09082 0.66242 0.29706
 H153 H 0.99917 0.75968 0.41234
 H154 H 1.00658 0.59009 0.23905
 C155 C 1.03032 0.26906 0.62838
 C156 C 1.00006 0.25747 0.61236
 C157 C 0.96780 0.26908 0.62385
 C158 C 0.96540 0.29340 0.65205
 C159 C 0.99588 0.30559 0.66846
 C160 C 1.02839 0.29261 0.65732
 C161 C 1.05807 0.30366 0.67520
 C162 C 1.05614 0.32901 0.70167
 C163 C 1.02449 0.34449 0.71100
 C164 C 0.99391 0.33135 0.69556
 C165 C 0.93344 0.30602 0.66402
 C166 C 0.93149 0.33109 0.69083
 C167 C 0.96143 0.34452 0.70646
 C168 C 0.95981 0.37113 0.73246
 C169 C 0.99013 0.38422 0.74707
 C170 C 1.02255 0.37244 0.73579
 H171 H 1.08312 0.29317 0.66843
 H172 H 1.07980 0.33680 0.71444
 H173 H 0.90968 0.29684 0.65246
 H174 H 0.90629 0.34023 0.69893
 H175 H 1.00164 0.23944 0.59011
 H176 H 0.98837 0.40569 0.76590
 C177 C 0.26767 -0.03082 0.37319
 C178 C 0.25527 0.00141 0.38552
 C179 C 0.26724 0.03306 0.37174
 C180 C 0.29195 0.03298 0.34417
 C181 C 0.30436 0.00058 0.33070
 C182 C 0.29210 -0.03145 0.34513
 C183 C 0.30336 -0.06316 0.33009
 C184 C 0.32663 -0.06351 0.30192
 C185 C 0.34006 -0.03219 0.28791
 C186 C 0.32845 0.00024 0.30219
 C187 C 0.30375 0.06438 0.32907
 C188 C 0.32730 0.06408 0.30113
 C189 C 0.34015 0.03237 0.28744
 C190 C 0.36376 0.03191 0.25877
 C191 C 0.37475 -0.00018 0.24490
 C192 C 0.36313 -0.03223 0.25855
 H193 H 0.29375 -0.08805 0.33963
 H194 H 0.33343 -0.08871 0.29082
 H195 H 0.29449 0.08950 0.33845
 H196 H 0.33491 0.08903 0.28998
 H197 H 0.23631 0.00196 0.40679
 H198 H 0.39346 -0.00017 0.22339
 C199 C 0.73257 -0.02635 0.62469
 C200 C 0.74873 0.00544 0.61652
 C201 C 0.74024 0.03649 0.63367
 C202 C 0.71641 0.03624 0.66186
 C203 C 0.70102 0.00413 0.67229
 C204 C 0.70879 -0.02734 0.65355
 C205 C 0.69066 -0.05795 0.66256
 C206 C 0.66681 -0.05817 0.69032
 C207 C 0.65953 -0.02763 0.70972
 C208 C 0.67642 0.00395 0.70026
 C209 C 0.70729 0.06732 0.67946
 C210 C 0.68284 0.06716 0.70650
 C211 C 0.66703 0.03586 0.71710
 C212 C 0.64091 0.03591 0.74316
 C213 C 0.62671 0.00430 0.75434
 C214 C 0.63449 -0.02722 0.73712
 H215 H 0.69407 -0.08196 0.64778
 H216 H 0.65360 -0.08243 0.69593
 H217 H 0.71880 0.09209 0.67219
 H218 H 0.67632 0.09180 0.71909
 H219 H 0.76777 0.00638 0.59533
 H220 H 0.60646 0.00477 0.77428
 C221 C 0.38237 0.96375 0.72136
 C222 C 0.39752 0.99418 0.73429
 C223 C 0.38503 1.02758 0.72529
 C224 C 0.35709 1.03041 0.70099
 C225 C 0.34157 0.99947 0.68767
 C226 C 0.35415 0.96606 0.69809
 C227 C 0.33859 0.93576 0.68462
 C228 C 0.31130 0.93813 0.66089
 C229 C 0.29847 0.97088 0.65000
 C230 C 0.31372 1.00186 0.66340
 C231 C 0.34517 1.06310 0.68846
 C232 C 0.31754 1.06544 0.66496
 C233 C 0.30145 1.03515 0.65220
 C234 C 0.27348 1.03711 0.62829
 C235 C 0.25876 1.00639 0.61539
 C236 C 0.27096 0.97350 0.62568
 H237 H 0.34757 0.90990 0.69214
 H238 H 0.30038 0.91401 0.65110
 H239 H 0.35716 1.08725 0.69668
 H240 H 0.30904 1.09123 0.65663
 H241 H 0.41898 0.99166 0.75260
 H242 H 0.23761 1.00812 0.59662
 C243 C 0.61199 0.97041 0.28122
 C244 C 0.59833 1.00321 0.27287
 C245 C 0.61455 1.03416 0.28325
 C246 C 0.64552 1.03222 0.30306
 C247 C 0.65885 0.99890 0.31310
 C248 C 0.64219 0.96788 0.30179
 C249 C 0.65581 0.93516 0.31175
 C250 C 0.68489 0.93286 0.33314
 C251 C 0.70133 0.96317 0.34539
 C252 C 0.68855 0.99655 0.33497
 C253 C 0.66270 1.06250 0.31434
 C254 C 0.69213 1.06018 0.33533
 C255 C 0.70506 1.02752 0.34679
 C256 C 0.73484 1.02479 0.36855
 C257 C 0.74669 0.99148 0.37878
 C258 C 0.72995 0.96092 0.36836
 H259 H 0.64379 0.91103 0.30345
 H260 H 0.69429 0.90703 0.34024
 H261 H 0.65341 1.08833 0.30717
 H262 H 0.70464 1.08437 0.34250
 H263 H 0.57488 1.00465 0.25725
 H264 H 0.76844 0.98933 0.39678
 O265 O 0.87393 0.82315 0.46673
 O266 O 0.82505 0.87992 0.52695
 O267 O 0.87311 0.83295 0.53514
 O268 O 0.82395 0.86839 0.45976
 O269 O 0.78545 0.82668 0.46638
 O270 O 0.83482 0.79117 0.54265
 O271 O 0.78626 0.83843 0.53450
 O272 O 0.83592 0.78095 0.47382
 Cu273 Cu 0.85301 0.85506 0.49636
 Cu274 Cu 0.80683 0.80496 0.50497
 C275 C 0.86375 0.79232 0.46045
 C276 C 0.79696 0.86931 0.54020
 C277 C 0.86238 0.80624 0.55198
 C278 C 0.79552 0.85460 0.45122
 O279 O 0.17593 0.12987 0.53750
 O280 O 0.12692 0.17547 0.46809
 O281 O 0.17407 0.12744 0.46820
 O282 O 0.12797 0.17704 0.53658
 O283 O 0.16758 0.21790 0.53529
 O284 O 0.21432 0.16795 0.46569
 O285 O 0.16641 0.21665 0.46552
 O286 O 0.21633 0.17024 0.53508
 Cu287 Cu 0.14740 0.14826 0.50284
 Cu288 Cu 0.19519 0.19735 0.50015
 C289 C 0.20433 0.14215 0.54819
 C290 C 0.13785 0.20418 0.45540
 C291 C 0.20181 0.13913 0.45509
 C292 C 0.13934 0.20622 0.54739
 O293 O 0.17196 0.88050 0.46738
 O294 O 0.12047 0.83799 0.53632
 O295 O 0.17161 0.88130 0.53565
 O296 O 0.12304 0.83434 0.46716
 O297 O 0.15980 0.79023 0.47029
 O298 O 0.21027 0.83865 0.53678
 O299 O 0.15838 0.79496 0.53996
 O300 O 0.20916 0.83677 0.46798
 Cu301 Cu 0.14285 0.86270 0.50136
 Cu302 Cu 0.18803 0.81056 0.50397
 C303 C 0.19976 0.86669 0.45652
 C304 C 0.13076 0.80966 0.55046
 C305 C 0.19968 0.86843 0.54701
 C306 C 0.13306 0.80427 0.45705
 O307 O 0.87992 0.17118 0.52679
 O308 O 0.83353 0.11711 0.46267
 O309 O 0.87853 0.16720 0.45862
 O310 O 0.83387 0.12312 0.53196
 O311 O 0.79209 0.16235 0.52936
 O312 O 0.83727 0.20655 0.45531
 O313 O 0.79190 0.15641 0.45947
 O314 O 0.83886 0.21120 0.52450
 Cu315 Cu 0.86037 0.14049 0.49516
 Cu316 Cu 0.81070 0.18799 0.49190
 C317 C 0.86781 0.20064 0.53617
 C318 C 0.80523 0.12755 0.44957
 C319 C 0.86618 0.19501 0.44490
 C320 C 0.80571 0.13547 0.54363
 O321 O 0.46784 0.86850 0.81821
 O322 O 0.53296 0.82564 0.87389
 O323 O 0.53311 0.87620 0.82546
 O324 O 0.46719 0.82164 0.86725
 O325 O 0.47548 0.78020 0.82710
 O326 O 0.54015 0.83681 0.78300
 O327 O 0.54190 0.78636 0.83189
 O328 O 0.47414 0.82772 0.77718
 Cu329 Cu 0.49989 0.85201 0.85043
 Cu330 Cu 0.50903 0.80370 0.80066
 C331 C 0.46001 0.85572 0.78809
 C332 C 0.54763 0.79787 0.86301
 C333 C 0.54676 0.86659 0.79636
 C334 C 0.45993 0.79190 0.85446
 O335 O 0.53753 0.17771 0.13435
 O336 O 0.46645 0.12699 0.17130
 O337 O 0.47157 0.17804 0.12604
 O338 O 0.53210 0.12915 0.18293
 O339 O 0.52555 0.16882 0.22517
 O340 O 0.46409 0.21743 0.16850
 O341 O 0.45908 0.16602 0.21393
 O342 O 0.53023 0.21836 0.17547
 Cu343 Cu 0.50275 0.14906 0.14952
 Cu344 Cu 0.49434 0.19653 0.20024
 C345 C 0.54555 0.20691 0.14784
 C346 C 0.45028 0.13780 0.19852
 C347 C 0.45759 0.20594 0.13756
 C348 C 0.53857 0.14032 0.21404
 O349 O 0.53881 0.12610 0.83117
 O350 O 0.46577 0.16826 0.87541
 O351 O 0.47291 0.12087 0.82675
 O352 O 0.53170 0.17417 0.88011
 O353 O 0.53005 0.21575 0.83906
 O354 O 0.47216 0.16147 0.78454
 O355 O 0.46365 0.20900 0.83362
 O356 O 0.53850 0.16734 0.78977
 Cu357 Cu 0.50256 0.14332 0.85756
 Cu358 Cu 0.50121 0.19262 0.80757
 C359 C 0.55047 0.13885 0.80235
 C360 C 0.45188 0.19543 0.86210
 C361 C 0.46276 0.13191 0.79658
 C362 C 0.54007 0.20444 0.86923
 O363 O 0.46893 0.82481 0.12027
 O364 O 0.52535 0.87756 0.17690
 O365 O 0.53433 0.82961 0.12928
 O366 O 0.45974 0.87459 0.16690
 O367 O 0.45605 0.83528 0.20998
 O368 O 0.53055 0.78835 0.17052
 O369 O 0.52236 0.83731 0.21925
 O370 O 0.46422 0.78526 0.16297
 Cu371 Cu 0.49732 0.85566 0.14416
 Cu372 Cu 0.49299 0.80751 0.19502
 C373 C 0.45752 0.79568 0.13154
 C374 C 0.53316 0.86662 0.20785
 C375 C 0.54501 0.80122 0.14302
 C376 C 0.44521 0.86307 0.19483
 O377 O 0.87068 0.53346 0.82530
 O378 O 0.81881 0.46803 0.87223
 O379 O 0.86673 0.46651 0.82415
 O380 O 0.82388 0.53591 0.87472
 O381 O 0.78325 0.54010 0.83384
 O382 O 0.82731 0.47054 0.78213
 O383 O 0.77853 0.47222 0.83099
 O384 O 0.83076 0.53888 0.78424
 Cu385 Cu 0.84883 0.50056 0.85338
 Cu386 Cu 0.80092 0.50580 0.80358
 C387 C 0.86008 0.54704 0.79633
 C388 C 0.78993 0.45891 0.85974
 C389 C 0.85506 0.45727 0.79409
 C390 C 0.79644 0.54991 0.86311
 O391 O 0.13272 0.53634 0.17401
 O392 O 0.17682 0.46617 0.12541
 O393 O 0.12821 0.46915 0.17226
 O394 O 0.18083 0.53355 0.12507
 O395 O 0.21969 0.53167 0.16773
 O396 O 0.16727 0.46524 0.21473
 O397 O 0.21689 0.46374 0.16703
 O398 O 0.17123 0.53336 0.21662
 Cu399 Cu 0.15080 0.50184 0.14493
 Cu400 Cu 0.19769 0.49827 0.19586
 C401 C 0.14364 0.54629 0.20424
 C402 C 0.20444 0.45314 0.13772
 C403 C 0.13844 0.45642 0.20168
 C404 C 0.20961 0.54293 0.13758
 O405 O 0.83009 0.53719 0.12771
 O406 O 0.87397 0.46324 0.16993
 O407 O 0.82487 0.46990 0.12362
 O408 O 0.87843 0.53028 0.17479
 O409 O 0.84004 0.53044 0.21823
 O410 O 0.78595 0.46989 0.16667
 O411 O 0.83580 0.46263 0.21310
 O412 O 0.79093 0.53736 0.17041
 Cu413 Cu 0.85565 0.50014 0.14467
 Cu414 Cu 0.80930 0.50012 0.19655
 C415 C 0.80293 0.54972 0.14147
 C416 C 0.86303 0.45045 0.19908
 C417 C 0.79623 0.46001 0.13619
 C418 C 0.86879 0.54005 0.20554
 O419 O 0.17395 0.53107 0.87382
 O420 O 0.11992 0.46785 0.82681
 O421 O 0.16823 0.46362 0.87430
 O422 O 0.12502 0.53471 0.82597
 O423 O 0.16346 0.53103 0.78294
 O424 O 0.20747 0.45934 0.83201
 O425 O 0.15883 0.46290 0.78457
 O426 O 0.21296 0.52731 0.83119
 Cu427 Cu 0.14305 0.49987 0.85456
 Cu428 Cu 0.18963 0.49503 0.80335
 C429 C 0.20307 0.53921 0.86111
 C430 C 0.12970 0.45484 0.79733
 C431 C 0.19491 0.44904 0.86153
 C432 C 0.13593 0.54415 0.79553
 C433 C 0.22189 0.37699 0.07494
 C434 C 0.25521 0.38624 0.06310
 C435 C 0.27274 0.41349 0.07993
 C436 C 0.25677 0.43320 0.10649
 C437 C 0.22271 0.42651 0.11642
 C438 C 0.20547 0.39732 0.10178
 C439 C 0.20433 0.34823 0.06018
 C440 C 0.17131 0.33972 0.07168
 C441 C 0.15531 0.35947 0.09813
 C442 C 0.17217 0.38795 0.11318
 H443 H 0.21612 0.33191 0.03999
 H444 H 0.15815 0.31758 0.06016
 H445 H 0.12979 0.35258 0.10717
 H446 H 0.15915 0.40222 0.13410
 H447 H 0.29819 0.42083 0.07099
 H448 H 0.27026 0.45542 0.11748
 C449 C 0.78425 0.62546 0.07831
 C450 C 0.74988 0.61733 0.06944
 C451 C 0.73236 0.59161 0.08883
 C452 C 0.74928 0.57196 0.11485
 C453 C 0.78421 0.57733 0.12182
 C454 C 0.80154 0.60542 0.10488
 C455 C 0.80197 0.65277 0.06085
 C456 C 0.83591 0.66033 0.06969
 C457 C 0.85270 0.64106 0.09607
 C458 C 0.83577 0.61388 0.11362
 H459 H 0.78964 0.66865 0.04056
 H460 H 0.84918 0.68141 0.05618
 H461 H 0.87894 0.64727 0.10306
 H462 H 0.84949 0.59999 0.13442
 H463 H 0.70605 0.58523 0.08219
 H464 H 0.73571 0.55056 0.12755
 C465 C 0.76508 0.38343 0.92092
 C466 C 0.73286 0.39607 0.93301
 C467 C 0.71798 0.42539 0.91655
 C468 C 0.73575 0.44386 0.89029
 C469 C 0.76902 0.43371 0.88021
 C470 C 0.78328 0.40233 0.89420
 C471 C 0.77999 0.35287 0.93560
 C472 C 0.81191 0.34088 0.92371
 C473 C 0.82949 0.35905 0.89714
 C474 C 0.81541 0.38949 0.88244
 H475 H 0.76697 0.33788 0.95606
 H476 H 0.82299 0.31730 0.93504
 H477 H 0.85414 0.34947 0.88783
 H478 H 0.82965 0.40256 0.86152
 H479 H 0.69345 0.43538 0.92582
 H480 H 0.72455 0.46781 0.87981
 C481 C 0.27754 0.57157 0.91854
 C482 C 0.26192 0.60183 0.93324
 C483 C 0.22942 0.61241 0.92143
 C484 C 0.21159 0.59269 0.89647
 C485 C 0.22576 0.56186 0.88246
 C486 C 0.25934 0.55126 0.89299
 C487 C 0.31034 0.56023 0.92994
 C488 C 0.32488 0.52953 0.91661
 C489 C 0.30701 0.50941 0.89206
 C490 C 0.27455 0.51996 0.88041
 H491 H 0.32493 0.57488 0.94931
 H492 H 0.35003 0.52113 0.92562
 H493 H 0.31828 0.48537 0.88211
 H494 H 0.26166 0.50309 0.86179
 H495 H 0.21707 0.63522 0.93295
 H496 H 0.18588 0.60088 0.88900
 C497 C 0.08047 0.27223 0.40889
 C498 C 0.06504 0.25025 0.38313
 C499 C 0.07634 0.21567 0.37956
 C500 C 0.10136 0.20205 0.40209
 C501 C 0.11632 0.22263 0.42872
 C502 C 0.10667 0.25849 0.43167
 C503 C 0.06937 0.30721 0.41346
 C504 C 0.08449 0.32859 0.43892
 C505 C 0.11031 0.31544 0.46079
 C506 C 0.12100 0.28067 0.45774
 H507 H 0.04899 0.31844 0.39748
 H508 H 0.07600 0.35547 0.44181
 H509 H 0.12195 0.33231 0.48039
 H510 H 0.14049 0.27173 0.47604
 H511 H 0.06443 0.19855 0.36024
 H512 H 0.10814 0.17464 0.39956
 C513 C 0.06760 0.79605 0.62753
 C514 C 0.05914 0.76053 0.62158
 C515 C 0.07750 0.74125 0.59615
 C516 C 0.10251 0.75717 0.57511
 C517 C 0.10924 0.79305 0.57825
 C518 C 0.09252 0.81265 0.60546
 C519 C 0.05140 0.81549 0.65481
 C520 C 0.05928 0.85064 0.66004
 C521 C 0.08345 0.86701 0.63840
 C522 C 0.09996 0.84834 0.61140
 H523 H 0.03285 0.80357 0.67256
 H524 H 0.04668 0.86521 0.68108
 H525 H 0.08961 0.89428 0.64267
 H526 H 0.11878 0.86219 0.59569
 H527 H 0.07113 0.71410 0.59126
 H528 H 0.11501 0.74185 0.55452
 C529 C 0.92601 0.72078 0.43001
 C530 C 0.93754 0.73627 0.39782
 C531 C 0.92185 0.76688 0.38522
 C532 C 0.89628 0.78340 0.40499
 C533 C 0.88555 0.76974 0.43787
 C534 C 0.89983 0.73768 0.45038
 C535 C 0.94101 0.68957 0.44307
 C536 C 0.93064 0.67539 0.47563
 C537 C 0.90545 0.69210 0.49584
 C538 C 0.89021 0.72298 0.48352
 H539 H 0.96085 0.67595 0.42826
 H540 H 0.94237 0.65145 0.48537
 H541 H 0.89775 0.68116 0.52128
 H542 H 0.87109 0.73511 0.50036
 H543 H 0.93083 0.77910 0.36082
 H544 H 0.88583 0.80802 0.39531
 C545 C 0.92128 0.27467 0.57680
 C546 C 0.93744 0.25554 0.60458
 C547 C 0.92785 0.22094 0.61119
 C548 C 0.90377 0.20452 0.58977
 C549 C 0.88834 0.22212 0.56102
 C550 C 0.89646 0.25790 0.55472
 C551 C 0.93028 0.30976 0.56969
 C552 C 0.91499 0.32816 0.54175
 C553 C 0.89097 0.31190 0.52008
 C554 C 0.88199 0.27705 0.52609
 H555 H 0.94914 0.32327 0.58565
 H556 H 0.92198 0.35514 0.53673
 H557 H 0.87934 0.32639 0.49838
 H558 H 0.86379 0.26559 0.50798
 H559 H 0.94029 0.20601 0.63218
 H560 H 0.89810 0.17723 0.59492
 C561 C 0.37676 0.07200 0.20633
 C562 C 0.37924 0.06413 0.24321
 C563 C 0.40052 0.08449 0.26482
 C564 C 0.42094 0.11068 0.25012
 C565 C 0.42208 0.11610 0.21316
 C566 C 0.39866 0.09781 0.19102
 C567 C 0.35299 0.05454 0.18436
 C568 C 0.35113 0.06191 0.14799
 C569 C 0.37262 0.08692 0.13291
 C570 C 0.39611 0.10479 0.15407
 H571 H 0.33530 0.03551 0.19521
 H572 H 0.33275 0.04832 0.13148
 H573 H 0.37087 0.09276 0.10470
 H574 H 0.41160 0.12452 0.14119
 H575 H 0.40257 0.07897 0.29310
 H576 H 0.43763 0.12520 0.26760
 C577 C 0.59583 0.08250 0.73252
 C578 C 0.62241 0.06820 0.75405
 C579 C 0.62706 0.08055 0.78872
 C580 C 0.60480 0.10550 0.80297
 C581 C 0.57722 0.11887 0.78301
 C582 C 0.57298 0.10805 0.74704
 C583 C 0.59035 0.07045 0.69738
 C584 C 0.56314 0.08323 0.67701
 C585 C 0.54071 0.10797 0.69117
 C586 C 0.54535 0.12021 0.72579
 H587 H 0.60681 0.05089 0.68535
 H588 H 0.55928 0.07367 0.65018
 H589 H 0.51937 0.11753 0.67535
 H590 H 0.52668 0.13882 0.73548
 H591 H 0.64691 0.06933 0.80552
 H592 H 0.60811 0.11319 0.83054
 C593 C 0.42294 0.91242 0.71327
 C594 C 0.39728 0.92997 0.73323
 C595 C 0.38902 0.91829 0.76746
 C596 C 0.40774 0.89148 0.78338
 C597 C 0.43539 0.87552 0.76561
 C598 C 0.44227 0.88478 0.72944
 C599 C 0.43099 0.92316 0.67820
 C600 C 0.45747 0.90706 0.65927
 C601 C 0.47654 0.88026 0.67493
 C602 C 0.46925 0.86924 0.70961
 H603 H 0.41699 0.94415 0.66519
 H604 H 0.46339 0.91558 0.63241
 H605 H 0.49730 0.86806 0.66019
 H606 H 0.48534 0.84875 0.72029
 H607 H 0.36934 0.93161 0.78285
 H608 H 0.40206 0.88481 0.81086
 C609 C 0.56258 0.92761 0.28228
 C610 C 0.59375 0.93950 0.26711
 C611 C 0.60545 0.92521 0.23501
 C612 C 0.58603 0.90048 0.21698
 C613 C 0.55455 0.88900 0.23073
 C614 C 0.54275 0.90210 0.26399
 C615 C 0.55030 0.94132 0.31483
 C616 C 0.51893 0.93042 0.32888
 C617 C 0.49929 0.90583 0.31085
 C618 C 0.51095 0.89177 0.27872
 H619 H 0.56480 0.96054 0.32959
 H620 H 0.50975 0.94121 0.35381
 H621 H 0.47483 0.89765 0.32176
 H622 H 0.49472 0.87299 0.26560
 H623 H 0.62905 0.93453 0.22300
 H624 H 0.59518 0.89098 0.19147
 C625 C 0.37923 0.21040 0.92859
 C626 C 0.38159 0.24733 0.93218
 C627 C 0.40133 0.26631 0.90755
 C628 C 0.42184 0.24903 0.88263
 C629 C 0.42306 0.21233 0.88149
 C630 C 0.39966 0.19282 0.90268
 C631 C 0.35634 0.19072 0.94992
 C632 C 0.35360 0.15460 0.94573
 C633 C 0.37321 0.13746 0.92007
 C634 C 0.39593 0.15624 0.89863
 H635 H 0.33991 0.20322 0.96948
 H636 H 0.33584 0.13992 0.96215
 H637 H 0.37059 0.10948 0.91653
 H638 H 0.40977 0.14187 0.87838
 H639 H 0.40344 0.29451 0.90977
 H640 H 0.43894 0.26445 0.86613
 C641 C 0.58839 0.72630 0.92200
 C642 C 0.61000 0.74764 0.94339
 C643 C 0.61140 0.78372 0.93653
 C644 C 0.59242 0.79884 0.90915
 C645 C 0.57075 0.77870 0.88778
 C646 C 0.56864 0.74192 0.89393
 C647 C 0.58390 0.69028 0.92962
 C648 C 0.56163 0.66990 0.90954
 C649 C 0.54268 0.68495 0.88210
 C650 C 0.54576 0.72053 0.87452
 H651 H 0.59702 0.67753 0.95149
 H652 H 0.55865 0.64237 0.91569
 H653 H 0.52500 0.66908 0.86694
 H654 H 0.52941 0.73074 0.85377
 H655 H 0.62721 0.80053 0.95290
 H656 H 0.59400 0.82692 0.90523
 C657 C 0.42140 0.71921 0.07649
 C658 C 0.39833 0.73831 0.05422
 C659 C 0.39478 0.77453 0.05904
 C660 C 0.41310 0.79194 0.08521
 C661 C 0.43637 0.77409 0.10724
 C662 C 0.44077 0.73726 0.10307
 C663 C 0.42751 0.68305 0.07122
 C664 C 0.45139 0.66491 0.09193
 C665 C 0.47029 0.68239 0.11764
 C666 C 0.46541 0.71816 0.12300
 H667 H 0.41433 0.66848 0.05078
 H668 H 0.45565 0.63721 0.08759
 H669 H 0.48926 0.66826 0.13320
 H670 H 0.48180 0.73037 0.14239
 H671 H 0.37780 0.78966 0.04195
 H672 H 0.40958 0.82000 0.08773
 C673 C 0.62040 0.23155 0.08799
 C674 C 0.60801 0.26416 0.07527
 C675 C 0.57959 0.27987 0.09177
 C676 C 0.56155 0.26231 0.11848
 C677 C 0.57128 0.22844 0.12901
 C678 C 0.60197 0.21358 0.11520
 C679 C 0.65023 0.21597 0.07349
 C680 C 0.66192 0.18360 0.08598
 C681 C 0.64415 0.16620 0.11296
 C682 C 0.61443 0.18094 0.12750
 H683 H 0.66487 0.22884 0.05271
 H684 H 0.68495 0.17201 0.07478
 H685 H 0.65347 0.14119 0.12269
 H686 H 0.60160 0.16686 0.14874
 H687 H 0.56989 0.30480 0.08214
 H688 H 0.53807 0.27395 0.12866
 C689 C 0.22559 0.08177 0.62596
 C690 C 0.25866 0.07048 0.61509
 C691 C 0.27509 0.08734 0.58664
 C692 C 0.25803 0.11307 0.56696
 C693 C 0.22402 0.12223 0.57506
 C694 C 0.20814 0.10800 0.60587
 C695 C 0.20923 0.06692 0.65598
 C696 C 0.17651 0.07808 0.66624
 C697 C 0.15959 0.10414 0.64690
 C698 C 0.17516 0.11907 0.61700
 H699 H 0.22176 0.04691 0.67191
 H700 H 0.16430 0.06661 0.68942
 H701 H 0.13432 0.11291 0.65516
 H702 H 0.16140 0.13965 0.60307
 H703 H 0.30035 0.07873 0.57805
 H704 H 0.27050 0.12382 0.54352
 C705 C 0.78791 0.05933 0.37726
 C706 C 0.75212 0.05410 0.38271
 C707 C 0.73435 0.07624 0.40629
 C708 C 0.75172 0.10122 0.42631
 C709 C 0.78739 0.10512 0.42329
 C710 C 0.80550 0.08545 0.39714
 C711 C 0.80631 0.04003 0.35130
 C712 C 0.84108 0.04616 0.34520
 C713 C 0.85809 0.07200 0.36417
 C714 C 0.84056 0.09171 0.38964
 H715 H 0.79383 0.02060 0.33494
 H716 H 0.85475 0.03120 0.32517
 H717 H 0.88494 0.07715 0.35879
 H718 H 0.85459 0.11248 0.40250
 H719 H 0.70713 0.07259 0.41111
 H720 H 0.73741 0.11626 0.44583
 C721 C 0.74159 0.94815 0.56495
 C722 C 0.74092 0.94464 0.60280
 C723 C 0.75511 0.91426 0.61833
 C724 C 0.77161 0.88906 0.59741
 C725 C 0.77576 0.89422 0.56069
 C726 C 0.76067 0.92392 0.54411
 C727 C 0.72353 0.97550 0.54741
 C728 C 0.72676 0.98060 0.51076
 C729 C 0.74763 0.95847 0.49081
 C730 C 0.76416 0.93022 0.50714
 H731 H 0.70683 0.99315 0.56197
 H732 H 0.71325 1.00199 0.49784
 H733 H 0.75063 0.96291 0.46247
 H734 H 0.77957 0.91342 0.49050
 H735 H 0.75564 0.91110 0.64705
 H736 H 0.78318 0.86648 0.61030
 C737 C 0.27393 0.91778 0.41337
 C738 C 0.25440 0.93873 0.38931
 C739 C 0.21923 0.93237 0.38543
 C740 C 0.20298 0.90671 0.40542
 C741 C 0.22096 0.88691 0.43087
 C742 C 0.25709 0.89169 0.43450
 C743 C 0.30934 0.92388 0.41877
 C744 C 0.32794 0.90446 0.44368
 C745 C 0.31167 0.87914 0.46422
 C746 C 0.27666 0.87293 0.46003
 H747 H 0.32297 0.94390 0.40412
 H748 H 0.35506 0.90941 0.44738
 H749 H 0.32620 0.86446 0.48387
 H750 H 0.26554 0.85359 0.47745
 H751 H 0.20389 0.94826 0.36742
 H752 H 0.17550 0.90355 0.40224
 C753 C 0.07536 0.40809 0.72560
 C754 C 0.05173 0.39049 0.74851
 C755 C 0.05586 0.39323 0.78546
 C756 C 0.08239 0.41254 0.80000
 C757 C 0.10604 0.43047 0.77845
 C758 C 0.10336 0.42735 0.74055
 C759 C 0.07044 0.40896 0.68819
 C760 C 0.09397 0.42527 0.66579
 C761 C 0.12224 0.44209 0.68003
 C762 C 0.12663 0.44386 0.71684
 H763 H 0.04828 0.39734 0.67573
 H764 H 0.09013 0.42499 0.63720
 H765 H 0.14060 0.45452 0.66243
 H766 H 0.14861 0.45829 0.72561
 H767 H 0.03816 0.38024 0.80346
 H768 H 0.08393 0.41401 0.82881
 C769 C 0.09214 0.59154 0.27931
 C770 C 0.06784 0.60993 0.25778
 C771 C 0.07239 0.61038 0.22075
 C772 C 0.09904 0.59210 0.20471
 C773 C 0.12245 0.57211 0.22476
 C774 C 0.12050 0.57364 0.26285
 C775 C 0.08766 0.58850 0.31665
 C776 C 0.11192 0.57142 0.33772
 C777 C 0.14075 0.55638 0.32215
 C778 C 0.14491 0.55698 0.28526
 H779 H 0.06535 0.59908 0.33006
 H780 H 0.10834 0.56988 0.36632
 H781 H 0.15976 0.54349 0.33875
 H782 H 0.16786 0.54467 0.27540
 H783 H 0.05434 0.62431 0.20379
 H784 H 0.10026 0.59232 0.17584
 C785 C 0.91446 0.39735 0.26850
 C786 C 0.93923 0.38211 0.24507
 C787 C 0.93478 0.38575 0.20824
 C788 C 0.90778 0.40512 0.19433
 C789 C 0.88400 0.42230 0.21648
 C790 C 0.88569 0.41621 0.25407
 C791 C 0.91872 0.39627 0.30598
 C792 C 0.89374 0.40980 0.32870
 C793 C 0.86441 0.42542 0.31477
 C794 C 0.86050 0.42908 0.27802
 H795 H 0.94138 0.38514 0.31824
 H796 H 0.89712 0.40807 0.35731
 H797 H 0.84481 0.43545 0.33259
 H798 H 0.83704 0.44132 0.26934
 H799 H 0.95303 0.37408 0.18985
 H800 H 0.90661 0.40814 0.16561
 C801 C 0.91340 0.59536 0.72427
 C802 C 0.93762 0.61203 0.74699
 C803 C 0.93361 0.60897 0.78398
 C804 C 0.90700 0.58975 0.79871
 C805 C 0.88315 0.57216 0.77734
 C806 C 0.88536 0.57609 0.73945
 C807 C 0.91770 0.59546 0.68679
 C808 C 0.89371 0.57983 0.66460
 C809 C 0.86548 0.56292 0.67911
 C810 C 0.86157 0.56040 0.71596
 H811 H 0.93970 0.60740 0.67415
 H812 H 0.89711 0.58073 0.63595
 H813 H 0.84678 0.55099 0.66167
 H814 H 0.83952 0.54610 0.72500
 H815 H 0.95165 0.62140 0.80187
 H816 H 0.90574 0.58784 0.82753
 C817 C 0.78167 0.62452 0.92869
 C818 C 0.74736 0.61723 0.93879
 C819 C 0.72876 0.59193 0.92014
 C820 C 0.74443 0.57207 0.89351
 C821 C 0.77920 0.57679 0.88510
 C822 C 0.79769 0.60428 0.90149
 C823 C 0.80051 0.65131 0.94544
 C824 C 0.83431 0.65819 0.93535
 C825 C 0.84985 0.63876 0.90836
 C826 C 0.83180 0.61211 0.89144
 H827 H 0.78916 0.66736 0.96613
 H828 H 0.84844 0.67887 0.94834
 H829 H 0.87597 0.64447 0.90038
 H830 H 0.84460 0.59817 0.87011
 H831 H 0.70253 0.58611 0.92774
 H832 H 0.72996 0.55121 0.88115
 C833 C 0.21133 0.37753 0.93088
 C834 C 0.24759 0.38055 0.93426
 C835 C 0.26568 0.40075 0.90923
 C836 C 0.24824 0.42078 0.88383
 C837 C 0.21223 0.42109 0.88251
 C838 C 0.19363 0.39745 0.90444
 C839 C 0.19245 0.35421 0.95266
 C840 C 0.15704 0.35080 0.94867
 C841 C 0.13983 0.36988 0.92252
 C842 C 0.15784 0.39276 0.90036
 H843 H 0.20501 0.33787 0.97240
 H844 H 0.14299 0.33281 0.96555
 H845 H 0.11243 0.36661 0.91905
 H846 H 0.14356 0.40584 0.87946
 H847 H 0.29332 0.40343 0.91124
 H848 H 0.26298 0.43805 0.86678
 C849 C 0.28383 0.58101 0.08209
 C850 C 0.26492 0.60624 0.06204
 C851 C 0.23023 0.61206 0.07014
 C852 C 0.21385 0.59301 0.09668
 C853 C 0.23116 0.56671 0.11571
 C854 C 0.26681 0.56090 0.10907
 C855 C 0.31863 0.57349 0.07415
 C856 C 0.33646 0.54745 0.09259
 C857 C 0.31998 0.52787 0.11872
 C858 C 0.28553 0.53417 0.12674
 H859 H 0.33235 0.58731 0.05340
 H860 H 0.36311 0.54213 0.08622
 H861 H 0.33386 0.50732 0.13259
 H862 H 0.27412 0.51741 0.14657
 H863 H 0.21529 0.63081 0.05480
 H864 H 0.18670 0.59774 0.10119
 C865 C 0.76056 0.38286 0.08398
 C866 C 0.73687 0.40119 0.06170
 C867 C 0.73213 0.43735 0.06645
 C868 C 0.75019 0.45544 0.09234
 C869 C 0.77408 0.43817 0.11392
 C870 C 0.77915 0.40165 0.11045
 C871 C 0.76786 0.34688 0.07924
 C872 C 0.79164 0.32967 0.10098
 C873 C 0.80904 0.34791 0.12741
 C874 C 0.80310 0.38363 0.13206
 H875 H 0.75555 0.33177 0.05860
 H876 H 0.79674 0.30204 0.09717
 H877 H 0.82750 0.33440 0.14414
 H878 H 0.81741 0.39703 0.15260
 H879 H 0.71461 0.45188 0.04941
 H880 H 0.74655 0.48351 0.09454
 C881 C 0.92869 0.79785 0.62658
 C882 C 0.93457 0.76105 0.62559
 C883 C 0.91231 0.74009 0.60549
 C884 C 0.88719 0.75515 0.58380
 C885 C 0.88344 0.79162 0.58146
 C886 C 0.90271 0.81317 0.60470
 C887 C 0.94748 0.81962 0.64984
 C888 C 0.94123 0.85555 0.65110
 C889 C 0.91571 0.87045 0.62993
 C890 C 0.89637 0.84956 0.60718
 H891 H 0.96663 0.80894 0.66777
 H892 H 0.95588 0.87183 0.66903
 H893 H 0.91052 0.89827 0.63151
 H894 H 0.87586 0.86211 0.59243
 H895 H 0.91626 0.71201 0.60411
 H896 H 0.87226 0.73820 0.56678
 C897 C 0.91611 0.26640 0.39403
 C898 C 0.94092 0.24453 0.37690
 C899 C 0.93732 0.20814 0.37921
 C900 C 0.91104 0.19315 0.39886
 C901 C 0.88705 0.21371 0.41743
 C902 C 0.88808 0.25091 0.41317
 C903 C 0.91978 0.30327 0.39476
 C904 C 0.89484 0.32454 0.41026
 C905 C 0.86626 0.30969 0.42631
 C906 C 0.86309 0.27343 0.42842
 H907 H 0.94195 0.31619 0.38361
 H908 H 0.89773 0.35271 0.40984
 H909 H 0.84674 0.32640 0.43799
 H910 H 0.84046 0.26406 0.44169
 H911 H 0.95573 0.19094 0.36630
 H912 H 0.91046 0.16484 0.40081
 C913 C 0.08543 0.27820 0.59269
 C914 C 0.06331 0.25638 0.61294
 C915 C 0.07048 0.22062 0.61557
 C916 C 0.09726 0.20573 0.59633
 C917 C 0.11818 0.22598 0.57381
 C918 C 0.11384 0.26314 0.57377
 C919 C 0.07929 0.31460 0.59000
 C920 C 0.10173 0.33614 0.57125
 C921 C 0.13024 0.32188 0.55426
 C922 C 0.13601 0.28582 0.55484
 H923 H 0.05733 0.32687 0.60257
 H924 H 0.09705 0.36409 0.57003
 H925 H 0.14785 0.33885 0.54013
 H926 H 0.15843 0.27670 0.54086
 H927 H 0.05395 0.20372 0.63120
 H928 H 0.10051 0.17755 0.59769
 C929 C 0.07123 0.78263 0.38136
 C930 C 0.06253 0.74804 0.39141
 C931 C 0.08037 0.73150 0.41914
 C932 C 0.10495 0.74955 0.43862
 C933 C 0.11219 0.78472 0.43103
 C934 C 0.09656 0.80106 0.40106
 C935 C 0.05499 0.79935 0.35226
 C936 C 0.06402 0.83331 0.34236
 C937 C 0.08938 0.85108 0.36105
 C938 C 0.10564 0.83520 0.39007
 H939 H 0.03555 0.78618 0.33674
 H940 H 0.05152 0.84579 0.31986
 H941 H 0.09660 0.87726 0.35293
 H942 H 0.12575 0.84966 0.40325
 H943 H 0.07380 0.70504 0.42703
 H944 H 0.11681 0.73660 0.46126
 C945 C 0.57598 0.94507 0.74107
 C946 C 0.61205 0.94248 0.74573
 C947 C 0.62589 0.91355 0.76394
 C948 C 0.60444 0.88805 0.77869
 C949 C 0.56866 0.89167 0.77689
 C950 C 0.55414 0.92049 0.75815
 C951 C 0.56115 0.97240 0.72058
 C952 C 0.52563 0.97671 0.71894
 C953 C 0.50429 0.95388 0.73739
 C954 C 0.51830 0.92591 0.75658
 H955 H 0.57688 0.99068 0.70578
 H956 H 0.51465 0.99808 0.70363
 H957 H 0.47675 0.95777 0.73670
 H958 H 0.50088 0.90885 0.77042
 H959 H 0.65338 0.91143 0.76791
 H960 H 0.61579 0.86632 0.79320
 C961 C 0.37362 0.93069 0.20552
 C962 C 0.37626 0.93688 0.24281
 C963 C 0.39627 0.91401 0.26368
 C964 C 0.41614 0.88785 0.24789
 C965 C 0.41686 0.88386 0.21075
 C966 C 0.39370 0.90372 0.18950
 C967 C 0.35053 0.95013 0.18402
 C968 C 0.34771 0.94354 0.14763
 C969 C 0.36712 0.91701 0.13204
 C970 C 0.38967 0.89702 0.15269
 H971 H 0.33393 0.97003 0.19531
 H972 H 0.32992 0.95869 0.13156
 H973 H 0.36434 0.91154 0.10389
 H974 H 0.40309 0.87572 0.13970
 H975 H 0.39874 0.91815 0.29214
 H976 H 0.43301 0.87238 0.26468
 C977 C 0.56515 0.07462 0.28562
 C978 C 0.59861 0.06588 0.27326
 C979 C 0.61305 0.08528 0.24520
 C980 C 0.59380 0.11082 0.22741
 C981 C 0.56003 0.11849 0.23788
 C982 C 0.54589 0.10137 0.26810
 C983 C 0.55043 0.05711 0.31518
 C984 C 0.51736 0.06539 0.32680
 C985 C 0.49843 0.09130 0.30947
 C986 C 0.51245 0.10916 0.28043
 H987 H 0.56449 0.03710 0.32967
 H988 H 0.50643 0.05172 0.34942
 H989 H 0.47278 0.09767 0.31867
 H990 H 0.49695 0.12922 0.26799
 H991 H 0.63834 0.07863 0.23506
 H992 H 0.60481 0.12361 0.20426
 C993 C 0.38496 0.08123 0.76335
 C994 C 0.40182 0.05668 0.74058
 C995 C 0.43761 0.05913 0.73592
 C996 C 0.45655 0.08487 0.75290
 C997 C 0.44053 0.10922 0.77511
 C998 C 0.40451 0.10815 0.78000
 C999 C 0.34970 0.07837 0.77202
 C1000 C 0.33381 0.10264 0.79444
 C1001 C 0.35266 0.12985 0.80917
 C1002 C 0.38772 0.13259 0.80221
 H1003 H 0.33416 0.05723 0.76197
 H1004 H 0.30673 0.10023 0.80052
 H1005 H 0.34016 0.14865 0.82648
 H1006 H 0.40160 0.15389 0.81441
 H1007 H 0.45121 0.04050 0.71923
 H1008 H 0.48420 0.08499 0.74962
 C1009 C 0.62269 0.78403 0.08420
 C1010 C 0.61450 0.74991 0.07256
 C1011 C 0.58811 0.73137 0.08948
 C1012 C 0.56779 0.74735 0.11544
 C1013 C 0.57318 0.78238 0.12480
 C1014 C 0.60199 0.80036 0.11072
 C1015 C 0.65061 0.80255 0.06944
 C1016 C 0.65825 0.83629 0.08099
 C1017 C 0.63831 0.85212 0.10732
 C1018 C 0.61043 0.83442 0.12212
 H1019 H 0.66690 0.79094 0.04920
 H1020 H 0.67985 0.85016 0.06959
 H1021 H 0.64452 0.87821 0.11638
 H1022 H 0.59590 0.84737 0.14290
 H1023 H 0.58169 0.70520 0.08073
 H1024 H 0.54591 0.73324 0.12597
 C1025 C 0.37812 0.23312 0.08487
 C1026 C 0.39348 0.25654 0.06022
 C1027 C 0.42834 0.26486 0.06366
 C1028 C 0.44839 0.24933 0.09007
 C1029 C 0.43406 0.22541 0.11405
 C1030 C 0.39852 0.21794 0.11246
 C1031 C 0.34322 0.22370 0.08217
 C1032 C 0.32857 0.20063 0.10673
 C1033 C 0.34831 0.18656 0.13427
 C1034 C 0.38298 0.19511 0.13724
 H1035 H 0.32702 0.23406 0.06118
 H1036 H 0.30173 0.19372 0.10444
 H1037 H 0.33674 0.16883 0.15336
 H1038 H 0.39746 0.18389 0.15911
 H1039 H 0.44043 0.28240 0.04470
 H1040 H 0.47562 0.25509 0.09101
 C1041 C 0.56967 0.27878 0.92997
 C1042 C 0.59929 0.26280 0.94487
 C1043 C 0.60984 0.22980 0.93295
 C1044 C 0.59100 0.21200 0.90731
 C1045 C 0.56108 0.22669 0.89273
 C1046 C 0.55022 0.26055 0.90380
 C1047 C 0.55829 0.31200 0.94158
 C1048 C 0.52824 0.32685 0.92798
 C1049 C 0.50888 0.30888 0.90290
 C1050 C 0.51957 0.27604 0.89096
 H1051 H 0.57239 0.32667 0.96134
 H1052 H 0.51977 0.35231 0.93717
 H1053 H 0.48533 0.32035 0.89278
 H1054 H 0.50331 0.26298 0.87197
 H1055 H 0.63219 0.21719 0.94459
 H1056 H 0.59936 0.18604 0.89942
 C1057 C 0.38261 0.76775 0.91098
 C1058 C 0.39471 0.73569 0.92527
 C1059 C 0.42429 0.72003 0.91106
 C1060 C 0.44363 0.73720 0.88511
 C1061 C 0.43400 0.77060 0.87313
 C1062 C 0.40232 0.78530 0.88451
 C1063 C 0.35177 0.78321 0.92319
 C1064 C 0.34032 0.81502 0.90907
 C1065 C 0.35932 0.83196 0.88272
 C1066 C 0.39005 0.81734 0.87047
 H1067 H 0.33617 0.77066 0.94341
 H1068 H 0.31652 0.82652 0.91851
 H1069 H 0.35019 0.85652 0.87167
 H1070 H 0.40383 0.83102 0.84963
 H1071 H 0.43376 0.69550 0.92195
 H1072 H 0.46771 0.72562 0.87658
 C1073 C 0.72335 0.91135 0.41317
 C1074 C 0.74173 0.92751 0.38491
 C1075 C 0.77434 0.91491 0.37572
 C1076 C 0.79000 0.88847 0.39558
 C1077 C 0.77350 0.87350 0.42516
 C1078 C 0.73907 0.88371 0.43319
 C1079 C 0.69049 0.92364 0.42343
 C1080 C 0.67310 0.90867 0.45209
 C1081 C 0.68810 0.88151 0.47135
 C1082 C 0.72072 0.86920 0.46228
 H1083 H 0.67800 0.94514 0.40975
 H1084 H 0.64794 0.91839 0.45957
 H1085 H 0.67455 0.87015 0.49377
 H1086 H 0.73105 0.84855 0.47872
 H1087 H 0.78870 0.92724 0.35436
 H1088 H 0.81625 0.88122 0.38920
 C1089 C 0.22981 0.92210 0.62613
 C1090 C 0.25512 0.94257 0.60879
 C1091 C 0.26402 0.93539 0.57338
 C1092 C 0.24712 0.90945 0.55445
 C1093 C 0.22106 0.88985 0.57051
 C1094 C 0.21299 0.89511 0.60688
 C1095 C 0.22038 0.92827 0.66191
 C1096 C 0.19550 0.90766 0.67853
 C1097 C 0.17972 0.88063 0.65993
 C1098 C 0.18839 0.87428 0.62442
 H1099 H 0.23220 0.94888 0.67728
 H1100 H 0.18858 0.91254 0.70604
 H1101 H 0.16071 0.86450 0.67308
 H1102 H 0.17622 0.85267 0.61092
 H1103 H 0.28328 0.95099 0.55988
 H1104 H 0.25327 0.90582 0.52652
 C1105 C 0.21861 0.07663 0.37799
 C1106 C 0.25227 0.06554 0.38687
 C1107 C 0.27012 0.08250 0.41415
 C1108 C 0.25418 0.10852 0.43438
 C1109 C 0.21989 0.11792 0.42802
 C1110 C 0.20231 0.10315 0.39862
 C1111 C 0.20061 0.06147 0.34933
 C1112 C 0.16740 0.07257 0.34092
 C1113 C 0.15160 0.09888 0.36077
 C1114 C 0.16880 0.11411 0.38933
 H1115 H 0.21218 0.04125 0.33303
 H1116 H 0.15393 0.06085 0.31876
 H1117 H 0.12592 0.10760 0.35394
 H1118 H 0.15588 0.13483 0.40369
 H1119 H 0.29587 0.07409 0.42116
 H1120 H 0.26792 0.11961 0.45672
 C1121 C 0.78981 0.07798 0.62519
 C1122 C 0.75530 0.06880 0.61858
 C1123 C 0.73685 0.08614 0.59175
 C1124 C 0.75302 0.11010 0.56937
 C1125 C 0.78812 0.11710 0.57312
 C1126 C 0.80634 0.10266 0.60251
 C1127 C 0.80841 0.06256 0.65347
 C1128 C 0.84245 0.07190 0.65978
 C1129 C 0.85844 0.09668 0.63815
 C1130 C 0.84066 0.11200 0.60979
 H1131 H 0.79663 0.04358 0.67111
 H1132 H 0.85640 0.06007 0.68171
 H1133 H 0.88474 0.10413 0.64342
 H1134 H 0.85381 0.13159 0.59410
 H1135 H 0.71044 0.07904 0.58639
 H1136 H 0.73866 0.12111 0.54724
 C1137 C 0.92922 0.57393 0.27803
 C1138 C 0.94353 0.60277 0.25950
 C1139 C 0.93134 0.61162 0.22560
 C1140 C 0.90600 0.59175 0.20934
 C1141 C 0.89198 0.56246 0.22651
 C1142 C 0.90325 0.55345 0.26142
 C1143 C 0.94117 0.56425 0.31222
 C1144 C 0.92781 0.53513 0.32977
 C1145 C 0.90276 0.51489 0.31351
 C1146 C 0.89072 0.52364 0.27959
 H1147 H 0.96094 0.57900 0.32563
 H1148 H 0.93715 0.52806 0.35601
 H1149 H 0.89274 0.49219 0.32723
 H1150 H 0.87183 0.50658 0.26792
 H1151 H 0.94247 0.63337 0.21107
 H1152 H 0.89792 0.59874 0.18259
 C1153 C 0.91179 0.41517 0.72229
 C1154 C 0.92728 0.38857 0.74334
 C1155 C 0.91514 0.38223 0.77781
 C1156 C 0.88958 0.40324 0.79256
 C1157 C 0.87521 0.43128 0.77335
 C1158 C 0.88532 0.43666 0.73724
 C1159 C 0.92316 0.42184 0.68715
 C1160 C 0.90834 0.44844 0.66679
 C1161 C 0.88244 0.46925 0.68114
 C1162 C 0.87127 0.46387 0.71609
 H1163 H 0.94350 0.40658 0.67503
 H1164 H 0.91709 0.45303 0.63977
 H1165 H 0.87103 0.48979 0.66509
 H1166 H 0.85154 0.48123 0.72586
 H1167 H 0.92699 0.36212 0.79420
 H1168 H 0.88229 0.39870 0.82009
 C1169 C 0.07971 0.58718 0.72326
 C1170 C 0.06244 0.61214 0.74475
 C1171 C 0.07294 0.61715 0.77994
 C1172 C 0.09876 0.59649 0.79478
 C1173 C 0.11504 0.56999 0.77504
 C1174 C 0.10640 0.56594 0.73832
 C1175 C 0.07000 0.58202 0.68741
 C1176 C 0.08655 0.55708 0.66646
 C1177 C 0.11259 0.53648 0.68088
 C1178 C 0.12221 0.54041 0.71645
 H1179 H 0.04965 0.59724 0.67519
 H1180 H 0.07904 0.55362 0.63892
 H1181 H 0.12538 0.51724 0.66437
 H1182 H 0.14217 0.52324 0.72600
 H1183 H 0.05981 0.63608 0.79662
 H1184 H 0.10494 0.60014 0.82269
 C1185 C 0.07877 0.41358 0.27042
 C1186 C 0.06373 0.38775 0.24842
 C1187 C 0.07559 0.38329 0.21355
 C1188 C 0.10109 0.40476 0.19973
 C1189 C 0.11580 0.43131 0.22034
 C1190 C 0.10510 0.43559 0.25635
 C1191 C 0.06720 0.41888 0.30570
 C1192 C 0.08141 0.44496 0.32684
 C1193 C 0.10692 0.46656 0.31317
 C1194 C 0.11849 0.46230 0.27822
 H1195 H 0.04706 0.40304 0.31725
 H1196 H 0.07240 0.44862 0.35391
 H1197 H 0.11765 0.48685 0.32973
 H1198 H 0.13776 0.48029 0.26875
 H1199 H 0.06395 0.36391 0.19640
 H1200 H 0.10858 0.40138 0.17212
   
