data_POSCAR
  _audit_creation_date              2014-09-24
  _audit_creation_method            'ToBaCCo'
  _symmetry_space_group_name_H-M    'P1'
  _symmetry_Int_Tables_number       1
  _symmetry_cell_setting            triclinic
  loop_
  _symmetry_equiv_pos_as_xyz
 x,y,z
_cell_length_a 36.7517
_cell_length_b 36.8039
_cell_length_c 20.5514
_cell_angle_alpha 89.832200
_cell_angle_beta 90.084000
_cell_angle_gamma 120.047400
loop_
  _atom_site_label
  _atom_site_type_symbol
  _atom_site_fract_x
  _atom_site_fract_y
  _atom_site_fract_z
O1 O 0.45007 0.95996 0.56208
 O2 O 0.49107 1.04184 0.43509
 O3 O 0.44992 0.96011 0.43530
 O4 O 0.49074 1.04167 0.56192
 O5 O 0.55097 1.04177 0.56215
 O6 O 0.51012 0.96015 0.43542
 O7 O 0.55126 1.04187 0.43533
 O8 O 0.51029 0.96006 0.56219
 Cu9 Cu 0.46438 1.00090 0.49857
 Cu10 Cu 0.53674 1.00098 0.49878
 C11 C 0.47330 0.94623 0.58361
 C12 C 0.52808 1.05563 0.41370
 C13 C 0.47312 0.94638 0.41394
 C14 C 0.52770 1.05543 0.58351
 O15 O 0.03933 0.54959 0.43638
 O16 O -0.04253 0.50871 0.56325
 O17 O 0.03930 0.54982 0.56313
 O18 O -0.04250 0.50887 0.43638
 O19 O -0.04253 0.44877 0.43671
 O20 O 0.03933 0.48975 0.56358
 O21 O -0.04250 0.44864 0.56358
 O22 O 0.03930 0.48948 0.43683
 Cu23 Cu -0.00162 0.53530 0.49974
 Cu24 Cu -0.00162 0.46309 0.50022
 C25 C 0.05310 0.52640 0.41516
 C26 C -0.05626 0.47179 0.58495
 C27 C 0.05310 0.52670 0.58480
 C28 C -0.05626 0.47196 0.41501
 O29 O 0.55099 0.50925 0.43781
 O30 O 0.51014 0.55002 0.56454
 O31 O 0.55128 0.50943 0.56463
 O32 O 0.51032 0.55028 0.43777
 O33 O 0.45009 0.49016 0.43789
 O34 O 0.49109 0.44928 0.56487
 O35 O 0.44995 0.48986 0.56466
 O36 O 0.49076 0.44912 0.43804
 Cu37 Cu 0.53676 0.53581 0.50118
 Cu38 Cu 0.46440 0.46353 0.50139
 C39 C 0.52772 0.47232 0.41645
 C40 C 0.47314 0.52679 0.58602
 C41 C 0.52810 0.47250 0.58626
 C42 C 0.47332 0.52712 0.41635
 O43 O 0.39663 0.65726 -0.05480
 O44 O 0.39486 0.72637 -0.07472
 C45 C 0.37480 0.74523 -0.08703
 O46 O 0.34261 0.73932 -0.05544
 O47 O 0.27334 0.66837 -0.07471
 C48 C 0.25443 0.62945 -0.08669
 O49 O 0.26034 0.60321 -0.05491
 O50 O 0.33136 0.60504 -0.07420
 C51 C 0.37034 0.62509 -0.08632
 O52 O 0.39487 0.66853 0.07468
 O53 O 0.39662 0.73941 0.05476
 C54 C 0.37033 0.74528 0.08628
 O55 O 0.33135 0.72635 0.07416
 O56 O 0.26034 0.65714 0.05487
 C57 C 0.25443 0.62500 0.08665
 O58 O 0.27335 0.60499 0.07467
 O59 O 0.34262 0.60332 0.05540
 C60 C 0.37481 0.62961 0.08699
 Cr61 Cr 0.39338 0.69671 -0.00002
 Cr62 Cr 0.30309 0.69662 -0.00027
 Cr63 Cr 0.30310 0.60651 0.00023
 O64 O 0.33319 0.66661 -0.00001
 O65 O 0.60360 0.34294 -0.05513
 O66 O 0.60537 0.27384 -0.07450
 C67 C 0.62546 0.25503 -0.08664
 O68 O 0.65763 0.26088 -0.05494
 O69 O 0.72689 0.33183 -0.07444
 C70 C 0.74574 0.37074 -0.08677
 O71 O 0.73987 0.39697 -0.05519
 O72 O 0.66887 0.39517 -0.07467
 C73 C 0.62989 0.37512 -0.08682
 O74 O 0.60537 0.33156 0.07446
 O75 O 0.60359 0.26070 0.05509
 C76 C 0.62988 0.25481 0.08678
 O77 O 0.66886 0.27372 0.07463
 O78 O 0.73987 0.34292 0.05515
 C79 C 0.74574 0.37502 0.08673
 O80 O 0.72689 0.39509 0.07440
 O81 O 0.65764 0.39679 0.05490
 C82 C 0.62547 0.37047 0.08660
 Cr83 Cr 0.60685 0.30344 -0.00002
 Cr84 Cr 0.69713 0.30352 0.00010
 Cr85 Cr 0.69714 0.39364 -0.00014
 O86 O 0.66704 0.33354 -0.00001
 C87 C 0.45755 0.91461 -0.36659
 C88 C 0.44455 0.88821 -0.32448
 C89 C 0.42954 0.85750 -0.27485
 C90 C 0.41687 0.83147 -0.23221
 C91 C 0.40216 0.80119 -0.18196
 C92 C 0.38966 0.77553 -0.13876
 C93 C 0.08475 0.54263 -0.36549
 C94 C 0.11118 0.55605 -0.32347
 C95 C 0.14193 0.57178 -0.27397
 C96 C 0.16801 0.58517 -0.23145
 C97 C 0.19835 0.60076 -0.18134
 C98 C 0.22406 0.61395 -0.13828
 C99 C 0.45725 0.54248 -0.36436
 C100 C 0.44383 0.55544 -0.32244
 C101 C 0.42809 0.57042 -0.27307
 C102 C 0.41467 0.58307 -0.23066
 C103 C 0.39905 0.59776 -0.18070
 C104 C 0.38585 0.61025 -0.13776
 C105 C 0.54335 0.08687 -0.36665
 C106 C 0.55625 0.11308 -0.32446
 C107 C 0.57113 0.14355 -0.27472
 C108 C 0.58368 0.16937 -0.23197
 C109 C 0.59827 0.19941 -0.18161
 C110 C 0.61069 0.22489 -0.13837
 C111 C 0.91397 0.45686 -0.36775
 C112 C 0.88774 0.44357 -0.32541
 C113 C 0.85727 0.42802 -0.27547
 C114 C 0.83146 0.41477 -0.23256
 C115 C 0.80142 0.39932 -0.18200
 C116 C 0.77593 0.38621 -0.13862
 C117 C 0.54315 0.45765 -0.36656
 C118 C 0.55655 0.44468 -0.32440
 C119 C 0.57226 0.42972 -0.27472
 C120 C 0.58564 0.41709 -0.23203
 C121 C 0.60122 0.40242 -0.18174
 C122 C 0.61440 0.38995 -0.13853
 C123 C 0.91397 0.45712 0.36771
 C124 C 0.88774 0.44418 0.32537
 C125 C 0.85727 0.42927 0.27543
 C126 C 0.83146 0.41670 0.23252
 C127 C 0.80142 0.40212 0.18196
 C128 C 0.77593 0.38973 0.13858
 C129 C 0.54312 0.08552 0.36652
 C130 C 0.55653 0.11190 0.32436
 C131 C 0.57225 0.14257 0.27468
 C132 C 0.58562 0.16858 0.23199
 C133 C 0.60121 0.19883 0.18170
 C134 C 0.61439 0.22448 0.13849
 C135 C 0.54337 0.45653 0.36661
 C136 C 0.55627 0.44322 0.32442
 C137 C 0.57115 0.42763 0.27468
 C138 C 0.58370 0.41436 0.23193
 C139 C 0.59829 0.39891 0.18157
 C140 C 0.61070 0.38584 0.13833
 C141 C 0.08475 0.54213 0.36545
 C142 C 0.11118 0.55513 0.32343
 C143 C 0.14193 0.57016 0.27393
 C144 C 0.16801 0.58285 0.23141
 C145 C 0.19835 0.59760 0.18130
 C146 C 0.22406 0.61012 0.13824
 C147 C 0.45723 0.91480 0.36432
 C148 C 0.44381 0.88841 0.32240
 C149 C 0.42807 0.85770 0.27303
 C150 C 0.41466 0.83164 0.23062
 C151 C 0.39904 0.80132 0.18066
 C152 C 0.38583 0.77562 0.13772
 C153 C 0.45757 0.54299 0.36655
 C154 C 0.44457 0.55639 0.32444
 C155 C 0.42956 0.57209 0.27481
 C156 C 0.41689 0.58545 0.23217
 C157 C 0.40217 0.60101 0.18192
 C158 C 0.38967 0.61416 0.13872
   
