data_POSCAR
  _audit_creation_date              2014-09-24
  _audit_creation_method            'ToBaCCo'
  _symmetry_space_group_name_H-M    'P1'
  _symmetry_Int_Tables_number       1
  _symmetry_cell_setting            triclinic
  loop_
  _symmetry_equiv_pos_as_xyz
 x,y,z
_cell_length_a 53.3770
_cell_length_b 53.2778
_cell_length_c 20.9054
_cell_angle_alpha 90.003600
_cell_angle_beta 90.138700
_cell_angle_gamma 119.965800
loop_
  _atom_site_label
  _atom_site_type_symbol
  _atom_site_fract_x
  _atom_site_fract_y
  _atom_site_fract_z
C1 C 0.18227 0.49350 0.48865
 C2 C 0.19638 0.49561 0.43051
 C3 C 0.22589 0.50382 0.43300
 C4 C 0.24174 0.51202 0.49118
 C5 C 0.22720 0.51239 0.54732
 C6 C 0.19719 0.50155 0.54729
 C7 C 0.27282 0.51890 0.49382
 C8 C 0.28563 0.51719 0.55199
 C9 C 0.31442 0.52317 0.55417
 C10 C 0.33012 0.52914 0.49730
 C11 C 0.31756 0.52938 0.43873
 C12 C 0.28964 0.52566 0.43759
 H13 H 0.15991 0.48828 0.48822
 H14 H 0.23580 0.50220 0.38953
 H15 H 0.23876 0.51963 0.59205
 H16 H 0.27350 0.51081 0.59601
 H17 H 0.35159 0.53172 0.49822
 H18 H 0.28135 0.52769 0.39193
 C19 C 0.50695 -0.30858 0.50174
 C20 C 0.49783 -0.30186 0.44437
 C21 C 0.48587 -0.28354 0.44707
 C22 C 0.48576 -0.26967 0.50497
 C23 C 0.49410 -0.27804 0.56172
 C24 C 0.50378 -0.29813 0.56101
 C25 C 0.47888 -0.24540 0.50590
 C26 C 0.47336 -0.23529 0.56393
 C27 C 0.47068 -0.21041 0.56573
 C28 C 0.47076 -0.19682 0.50846
 C29 C 0.47569 -0.20653 0.45020
 C30 C 0.48035 -0.23021 0.44933
 H31 H 0.51355 -0.32478 0.50072
 H32 H 0.47813 -0.27909 0.40320
 H33 H 0.49481 -0.26800 0.60692
 H34 H 0.47168 -0.24593 0.60889
 H35 H 0.46908 -0.17737 0.50963
 H36 H 0.48588 -0.23590 0.40410
 C37 C 1.32311 0.80933 0.50838
 C38 C 1.30931 0.79998 0.44853
 C39 C 1.28298 0.77336 0.44606
 C40 C 1.27097 0.75594 0.50117
 C41 C 1.28576 0.76618 0.55979
 C42 C 1.31114 0.79300 0.56366
 C43 C 1.24275 0.72775 0.49792
 C44 C 1.22555 0.71545 0.55315
 C45 C 1.19892 0.68915 0.55049
 C46 C 1.18931 0.67567 0.49041
 C47 C 1.20559 0.68775 0.43512
 C48 C 1.23237 0.71316 0.43915
 H49 H 1.34346 0.82938 0.51298
 H50 H 1.27096 0.76728 0.40179
 H51 H 1.27791 0.75367 0.60321
 H52 H 1.23185 0.72717 0.59781
 H53 H 1.16925 0.65532 0.48584
 H54 H 1.24488 0.72108 0.39579
 C55 C 0.80832 0.48225 0.51172
 C56 C 0.79869 0.48652 0.45274
 C57 C 0.77409 0.48958 0.44999
 C58 C 0.75763 0.48650 0.50551
 C59 C 0.76815 0.48244 0.56461
 C60 C 0.79378 0.48128 0.56792
 C61 C 0.72985 0.48745 0.50182
 C62 C 0.71721 0.49169 0.55732
 C63 C 0.69082 0.49178 0.55487
 C64 C 0.67760 0.48862 0.49481
 C65 C 0.69004 0.48534 0.43912
 C66 C 0.71557 0.48414 0.44274
 H67 H 0.82809 0.48124 0.51419
 H68 H 0.76826 0.49434 0.40397
 H69 H 0.75682 0.47994 0.60890
 H70 H 0.72855 0.49665 0.60236
 H71 H 0.65715 0.48814 0.49056
 H72 H 0.72360 0.48020 0.39880
 C73 C 0.51418 0.32512 0.50269
 C74 C 0.51586 0.31311 0.44473
 C75 C 0.51603 0.28701 0.44451
 C76 C 0.51214 0.27119 0.50144
 C77 C 0.50833 0.28280 0.55919
 C78 C 0.51054 0.31038 0.56087
 C79 C 0.51272 0.24319 0.49995
 C80 C 0.51924 0.23209 0.55524
 C81 C 0.52132 0.20664 0.55281
 C82 C 0.51880 0.19369 0.49257
 C83 C 0.51228 0.20416 0.43763
 C84 C 0.50785 0.22779 0.44200
 H85 H 0.51357 0.34515 0.50143
 H86 H 0.51959 0.27967 0.39909
 H87 H 0.50476 0.27101 0.60332
 H88 H 0.52405 0.24384 0.59980
 H89 H 0.51969 0.17393 0.48785
 H90 H 0.50107 0.23410 0.39918
 C91 C 0.67512 0.18979 0.50286
 C92 C 0.68542 0.20508 0.44583
 C93 C 0.71095 0.23192 0.44608
 C94 C 0.72759 0.24318 0.50254
 C95 C 0.71700 0.22680 0.55950
 C96 C 0.69072 0.20036 0.55992
 C97 C 0.75597 0.27134 0.50095
 C98 C 0.76899 0.28745 0.55746
 C99 C 0.79622 0.31318 0.55579
 C100 C 0.80825 0.32445 0.49551
 C101 C 0.79585 0.30916 0.43936
 C102 C 0.77069 0.28219 0.44238
 H103 H 0.65515 0.16914 0.50239
 H104 H 0.71735 0.24365 0.40148
 H105 H 0.72930 0.23364 0.60343
 H106 H 0.75868 0.27937 0.60296
 H107 H 0.82765 0.34544 0.49144
 H108 H 0.76291 0.27015 0.39829
 O109 O 0.96155 0.43513 0.11593
 O110 O 0.92917 0.44330 0.06065
 C111 C 0.93543 0.42957 0.10319
 O112 O 1.04524 0.56451 0.11170
 O113 O 1.07529 0.55583 0.04875
 C114 C 1.07074 0.57019 0.09294
 O115 O 0.96451 0.52341 0.12631
 O116 O 0.93053 0.48570 0.06602
 C117 C 0.93794 0.50432 0.11238
 O118 O 1.04188 0.47111 0.10153
 O119 O 1.07381 0.51143 0.04507
 C120 C 1.06789 0.49047 0.08500
 Zr121 Zr 1.00158 0.46681 0.07667
 O122 O 1.00702 0.46793 0.17722
 O123 O 0.99697 0.42500 0.07234
 Zr124 Zr 1.00366 0.53115 0.08354
 O125 O 1.00904 0.53262 0.18407
 O126 O 1.00152 0.56978 0.08615
 O127 O 0.97712 0.48657 0.09522
 O128 O 1.02800 0.51089 0.08942
 O129 O 1.03735 0.47415 -0.12246
 O130 O 1.07170 0.51261 -0.06451
 C131 C 1.06396 0.49332 -0.10951
 O132 O 0.95960 0.52444 -0.11068
 O133 O 0.92817 0.48635 -0.04812
 C134 C 0.93368 0.50514 -0.09316
 O135 O 1.04044 0.56565 -0.11074
 O136 O 1.07315 0.55660 -0.05932
 C137 C 1.06665 0.57126 -0.09907
 O138 O 0.95702 0.43661 -0.11702
 O139 O 0.92666 0.44389 -0.05203
 C140 C 0.93146 0.43058 -0.09832
 Zr141 Zr 0.99829 0.46793 -0.08357
 O142 O 0.99865 0.46870 -0.18483
 O143 O 0.99449 0.42640 -0.08397
 Zr144 Zr 1.00025 0.53235 -0.07641
 O145 O 1.00132 0.53697 -0.17700
 O146 O 0.99810 0.57080 -0.06603
 Zr147 Zr 0.95760 0.47879 0.00400
 Zr148 Zr 1.04428 0.52020 -0.00451
 O149 O 1.02392 0.51217 -0.09459
 O150 O 0.97337 0.48792 -0.09048
 O151 O 1.02582 0.47478 -0.00669
 O152 O 0.97660 0.52417 0.00650
 O153 O 0.97448 0.45063 -0.00150
 O154 O 1.02818 0.54915 0.00144
 H155 H 1.04169 0.51677 0.12587
 H156 H 0.96370 0.53253 0.00920
 H157 H 1.03564 0.51859 -0.13415
 H158 H 0.96095 0.42944 -0.00170
 H159 H 1.01815 0.58467 0.06166
 H160 H 1.01692 0.58601 -0.04890
 H161 H 0.98892 0.51741 -0.19508
 H162 H 0.98326 0.47264 -0.19901
 H163 H 1.01273 0.42849 -0.06683
 H164 H 1.01203 0.42608 0.04313
 H165 H 0.99116 0.46976 0.19681
 H166 H 0.99406 0.51374 0.20123
 O167 O 0.43886 0.48112 0.11819
 O168 O 0.44669 0.51994 0.05636
 C169 C 0.43387 0.50186 0.10265
 O170 O 0.56652 0.52420 0.11224
 O171 O 0.55741 0.48403 0.05406
 C172 C 0.57190 0.50375 0.09671
 O173 O 0.52432 0.56275 0.12149
 O174 O 0.48807 0.55993 0.05742
 C175 C 0.50564 0.57053 0.10579
 O176 O 0.47499 0.43586 0.11323
 O177 O 0.51388 0.44197 0.05437
 C178 C 0.49432 0.42885 0.09792
 Zr179 Zr 0.46903 0.47022 0.07996
 O180 O 0.46878 0.46729 0.18098
 O181 O 0.42727 0.43310 0.07522
 Zr182 Zr 0.53389 0.53264 0.07908
 O183 O 0.53955 0.53535 0.17941
 O184 O 0.57215 0.57339 0.07062
 O185 O 0.48951 0.51494 0.09208
 O186 O 0.51320 0.48829 0.09183
 O187 O 0.47383 0.43473 -0.11174
 O188 O 0.51330 0.44148 -0.05391
 C189 C 0.49314 0.42772 -0.09614
 O190 O 0.52431 0.56241 -0.12293
 O191 O 0.48832 0.55999 -0.05893
 C192 C 0.50599 0.57051 -0.10691
 O193 O 0.56624 0.52411 -0.11205
 O194 O 0.55734 0.48375 -0.05495
 C195 C 0.57193 0.50391 -0.09668
 O196 O 0.43804 0.47990 -0.11841
 O197 O 0.44621 0.51937 -0.05851
 C198 C 0.43286 0.50055 -0.10365
 Zr199 Zr 0.46872 0.46978 -0.08023
 O200 O 0.46862 0.46648 -0.18118
 O201 O 0.42689 0.43276 -0.07558
 Zr202 Zr 0.53347 0.53216 -0.08043
 O203 O 0.53850 0.53375 -0.18084
 O204 O 0.57171 0.57305 -0.07357
 Zr205 Zr 0.48095 0.52438 -0.00084
 Zr206 Zr 0.52161 0.47828 -0.00021
 O207 O 0.51282 0.48775 -0.09249
 O208 O 0.48906 0.51444 -0.09350
 O209 O 0.47624 0.45138 0.00011
 O210 O 0.52623 0.55061 -0.00084
 O211 O 0.45236 0.47930 -0.00027
 O212 O 0.55096 0.52328 -0.00056
 H213 H 0.51928 0.48179 0.13025
 H214 H 0.53419 0.57187 -0.00091
 H215 H 0.51879 0.48093 -0.13048
 H216 H 0.43131 0.47223 -0.00012
 H217 H 0.58782 0.56983 0.05672
 H218 H 0.58721 0.56984 -0.05662
 H219 H 0.51901 0.52149 -0.19920
 H220 H 0.47286 0.48541 -0.19891
 H221 H 0.42870 0.41716 -0.05429
 H222 H 0.42937 0.41704 0.05745
 H223 H 0.47389 0.48656 0.19829
 H224 H 0.52045 0.52193 0.19802
 O225 O 0.47310 0.04161 0.11135
 O226 O 0.51264 0.07281 0.05218
 C227 C 0.49314 0.06745 0.09538
 O228 O 0.51976 -0.04085 0.12114
 O229 O 0.48039 -0.07299 0.06222
 C230 C 0.49978 -0.06696 0.10616
 O231 O 0.55881 0.04018 0.12333
 O232 O 0.55376 0.07196 0.05802
 C233 C 0.56566 0.06620 0.10573
 O234 O 0.43000 -0.03903 0.11064
 O235 O 0.43774 -0.07222 0.05777
 C236 C 0.42356 -0.06544 0.09797
 Zr237 Zr 0.46457 0.00075 0.07785
 O238 O 0.46085 -0.00096 0.17877
 O239 O 0.42701 0.00447 0.06942
 Zr240 Zr 0.52745 -0.00040 0.08559
 O241 O 0.52629 -0.00236 0.18669
 O242 O 0.56839 0.00225 0.08580
 O243 O 0.50902 0.02602 0.09325
 O244 O 0.48307 -0.02463 0.09513
 O245 O 0.43276 -0.04207 -0.11412
 O246 O 0.43914 -0.07360 -0.05086
 C247 C 0.42596 -0.06806 -0.09606
 O248 O 0.56206 0.03741 -0.11216
 O249 O 0.55539 0.07069 -0.05636
 C250 C 0.56862 0.06381 -0.09884
 O251 O 0.52142 -0.04383 -0.10440
 O252 O 0.48109 -0.07450 -0.04657
 C253 C 0.50080 -0.06959 -0.08874
 O254 O 0.47778 0.03896 -0.12623
 O255 O 0.51451 0.07147 -0.06179
 C256 C 0.49728 0.06518 -0.11048
 Zr257 Zr 0.46638 -0.00111 -0.08209
 O258 O 0.46276 -0.00519 -0.18272
 O259 O 0.42911 0.00336 -0.08006
 Zr260 Zr 0.52930 -0.00236 -0.07444
 O261 O 0.53089 -0.00613 -0.17494
 O262 O 0.56978 -0.00033 -0.06466
 Zr263 Zr 0.51919 0.04269 -0.00049
 Zr264 Zr 0.47472 -0.04400 0.00397
 O265 O 0.48519 -0.02670 -0.08910
 O266 O 0.51118 0.02371 -0.09237
 O267 O 0.44721 -0.02625 -0.00135
 O268 O 0.54590 0.02411 0.00482
 O269 O 0.47414 0.02550 -0.00415
 O270 O 0.51974 -0.02766 0.00749
 H271 H 0.47613 -0.03691 0.13388
 H272 H 0.56713 0.03721 0.00614
 H273 H 0.47907 -0.03968 -0.12688
 H274 H 0.46675 0.03922 -0.00713
 H275 H 0.56591 -0.01585 0.06676
 H276 H 0.56626 -0.01868 -0.04489
 H277 H 0.52706 0.00854 -0.19442
 H278 H 0.48263 0.00324 -0.19950
 H279 H 0.41277 -0.01516 -0.06466
 H280 H 0.41207 -0.01307 0.04722
 H281 H 0.47955 0.01419 0.19646
 H282 H 0.52034 0.01146 0.20178
 C283 C 1.14938 0.48675 0.25875
 C284 C 1.13541 0.47032 0.31320
 C285 C 1.15099 0.47210 0.36827
 C286 C 1.18124 0.49064 0.37141
 C287 C 1.19545 0.50571 0.31510
 C288 C 1.17967 0.50405 0.25985
 C289 C 1.13178 0.48695 0.20347
 C290 C 1.13819 0.51303 0.17285
 C291 C 1.11842 0.51391 0.12980
 C292 C 1.09179 0.48884 0.11732
 C293 C 1.08655 0.46243 0.14388
 C294 C 1.10637 0.46146 0.18599
 H295 H 1.13898 0.45867 0.40839
 H296 H 1.21856 0.52048 0.31459
 H297 H 1.12311 0.53449 0.10976
 H298 H 1.06644 0.44261 0.13433
 H299 H 1.19112 0.51679 0.21843
 H300 H 1.15754 0.53309 0.18525
 H301 H 1.11211 0.45678 0.31437
 H302 H 1.10114 0.44088 0.20722
 C303 C 0.50231 0.65287 0.28187
 C304 C 0.52534 0.66590 0.32557
 C305 C 0.52422 0.68169 0.37728
 C306 C 0.50039 0.68583 0.38636
 C307 C 0.47879 0.67561 0.33846
 C308 C 0.47951 0.65884 0.28723
 C309 C 0.50155 0.63130 0.23535
 C310 C 0.49150 0.62908 0.17205
 C311 C 0.49242 0.60917 0.12916
 C312 C 0.50363 0.59148 0.14898
 C313 C 0.51270 0.59321 0.21267
 C314 C 0.51143 0.61256 0.25520
 H315 H 0.54220 0.69062 0.41062
 H316 H 0.46006 0.67828 0.34328
 H317 H 0.48496 0.60802 0.08045
 H318 H 0.52060 0.57928 0.23018
 H319 H 0.46149 0.64922 0.25409
 H320 H 0.48356 0.64307 0.15542
 H321 H 0.54395 0.66300 0.32114
 H322 H 0.51821 0.61274 0.30415
 C323 C 0.34769 -0.14784 0.28328
 C324 C 0.35168 -0.13526 0.34406
 C325 C 0.33884 -0.15230 0.39784
 C326 C 0.32137 -0.18271 0.39293
 C327 C 0.31683 -0.19518 0.33119
 C328 C 0.33010 -0.17798 0.27726
 C329 C 0.36289 -0.12918 0.22748
 C330 C 0.37829 -0.13671 0.18447
 C331 C 0.39660 -0.11670 0.13884
 C332 C 0.39993 -0.08881 0.13574
 C333 C 0.38277 -0.08226 0.17557
 C334 C 0.36447 -0.10221 0.22078
 H335 H 0.34209 -0.14115 0.44298
 H336 H 0.30422 -0.21839 0.32438
 H337 H 0.40931 -0.12252 0.10851
 H338 H 0.38442 -0.06117 0.17390
 H339 H 0.32669 -0.18824 0.23086
 H340 H 0.37750 -0.15735 0.18861
 H341 H 0.36526 -0.11207 0.35033
 H342 H 0.35238 -0.09607 0.25236
 C343 C 0.85112 0.49455 0.29041
 C344 C 0.83765 0.46875 0.32592
 C345 C 0.82005 0.46595 0.37787
 C346 C 0.81517 0.48867 0.39441
 C347 C 0.82766 0.51404 0.35751
 C348 C 0.84575 0.51708 0.30622
 C349 C 0.87222 0.49849 0.24008
 C350 C 0.89988 0.52318 0.24036
 C351 C 0.92102 0.52548 0.19764
 C352 C 0.91479 0.50329 0.15316
 C353 C 0.88663 0.47926 0.15090
 C354 C 0.86565 0.47673 0.19439
 H355 H 0.81057 0.44622 0.40588
 H356 H 0.82425 0.53186 0.36988
 H357 H 0.94243 0.54437 0.20044
 H358 H 0.88103 0.46195 0.11685
 H359 H 0.85587 0.53714 0.27938
 H360 H 0.90552 0.54015 0.27546
 H361 H 0.84167 0.45119 0.31503
 H362 H 0.84438 0.45758 0.19300
 C363 C 0.50804 0.35463 0.27661
 C364 C 0.53174 0.36971 0.31799
 C365 C 0.53494 0.35598 0.37181
 C366 C 0.51488 0.32680 0.38405
 C367 C 0.49195 0.31136 0.34104
 C368 C 0.48835 0.32527 0.28809
 C369 C 0.50279 0.37023 0.22468
 C370 C 0.52441 0.38622 0.17972
 C371 C 0.52064 0.40362 0.13519
 C372 C 0.49560 0.40609 0.13615
 C373 C 0.47344 0.38902 0.17950
 C374 C 0.47692 0.37104 0.22298
 H375 H 0.55266 0.36826 0.40470
 H376 H 0.47609 0.28890 0.35014
 H377 H 0.53794 0.41614 0.10195
 H378 H 0.45384 0.39031 0.18135
 H379 H 0.46992 0.31332 0.25675
 H380 H 0.54444 0.38571 0.18006
 H381 H 0.54702 0.39246 0.31019
 H382 H 0.46001 0.35889 0.25747
 C383 C 0.64083 0.15667 0.27926
 C384 C 0.67056 0.16714 0.28662
 C385 C 0.68549 0.18465 0.33887
 C386 C 0.67074 0.19135 0.38521
 C387 C 0.64121 0.18169 0.37676
 C388 C 0.62642 0.16475 0.32365
 C389 C 0.62421 0.13504 0.22941
 C390 C 0.60673 0.13955 0.18620
 C391 C 0.58896 0.11772 0.14318
 C392 C 0.58761 0.09068 0.14423
 C393 C 0.60584 0.08660 0.18632
 C394 C 0.62419 0.10870 0.22807
 H395 H 0.70821 0.19164 0.34507
 H396 H 0.62947 0.18649 0.41233
 H397 H 0.57549 0.12163 0.11080
 H398 H 0.60547 0.06610 0.18801
 H399 H 0.60341 0.15666 0.31902
 H400 H 0.60654 0.15979 0.18645
 H401 H 0.68198 0.16104 0.25291
 H402 H 0.63745 0.10479 0.26133
 C403 C 0.51936 0.15711 -0.28674
 C404 C 0.51007 0.17736 -0.28031
 C405 C 0.51253 0.19535 -0.33177
 C406 C 0.52413 0.19315 -0.39097
 C407 C 0.53598 0.17464 -0.39394
 C408 C 0.53328 0.15666 -0.34289
 C409 C 0.51199 0.13427 -0.23859
 C410 C 0.49343 0.10530 -0.25585
 C411 C 0.48777 0.08299 -0.21316
 C412 C 0.50091 0.08917 -0.15246
 C413 C 0.51901 0.11835 -0.13461
 C414 C 0.52434 0.14076 -0.17729
 H415 H 0.50296 0.20895 -0.32634
 H416 H 0.54712 0.17354 -0.43607
 H417 H 0.47382 0.06084 -0.22863
 H418 H 0.52948 0.12383 -0.08822
 H419 H 0.54125 0.14163 -0.34798
 H420 H 0.48365 0.09995 -0.30301
 H421 H 0.49927 0.17796 -0.23702
 H422 H 0.53882 0.16304 -0.16338
 C423 C 0.64970 0.49976 -0.27845
 C424 C 0.66687 0.48672 -0.27458
 C425 C 0.68115 0.48479 -0.32892
 C426 C 0.67788 0.49514 -0.38892
 C427 C 0.66066 0.50837 -0.39170
 C428 C 0.64694 0.51071 -0.33736
 C429 C 0.63398 0.50176 -0.22225
 C430 C 0.63451 0.52786 -0.20968
 C431 C 0.61566 0.52885 -0.16522
 C432 C 0.59577 0.50374 -0.13228
 C433 C 0.59692 0.47815 -0.14069
 C434 C 0.61590 0.47715 -0.18556
 H435 H 0.69351 0.47383 -0.32415
 H436 H 0.65834 0.51790 -0.43540
 H437 H 0.61574 0.54907 -0.15896
 H438 H 0.58200 0.45856 -0.11566
 H439 H 0.63374 0.52082 -0.34167
 H440 H 0.64865 0.54725 -0.23647
 H441 H 0.66923 0.47806 -0.22954
 H442 H 0.61516 0.45676 -0.19444
 C443 C 0.84576 0.35427 -0.27695
 C444 C 0.85907 0.35584 -0.33556
 C445 C 0.84272 0.34243 -0.38970
 C446 C 0.81218 0.32691 -0.38777
 C447 C 0.79878 0.32512 -0.32828
 C448 C 0.81543 0.33898 -0.27369
 C449 C 0.86426 0.36935 -0.22085
 C450 C 0.85918 0.38811 -0.18285
 C451 C 0.88023 0.40684 -0.13912
 C452 C 0.90670 0.40729 -0.13360
 C453 C 0.91057 0.38679 -0.16775
 C454 C 0.88952 0.36792 -0.21046
 H455 H 0.85452 0.34341 -0.43249
 H456 H 0.77550 0.31406 -0.32387
 H457 H 0.87653 0.42207 -0.11264
 H458 H 0.93045 0.38612 -0.16344
 H459 H 0.80464 0.33758 -0.22892
 H460 H 0.83986 0.38962 -0.18985
 H461 H 0.88241 0.36768 -0.33979
 H462 H 0.89367 0.35314 -0.23796
 C463 C 0.48098 -0.16077 -0.26462
 C464 C 0.49999 -0.17112 -0.27762
 C465 C 0.49544 -0.18884 -0.33073
 C466 C 0.47216 -0.19602 -0.37258
 C467 C 0.45264 -0.18635 -0.35855
 C468 C 0.45683 -0.16915 -0.30451
 C469 C 0.48767 -0.13921 -0.21325
 C470 C 0.51426 -0.11317 -0.21316
 C471 C 0.51931 -0.09100 -0.17018
 C472 C 0.49804 -0.09467 -0.12562
 C473 C 0.47231 -0.12163 -0.12282
 C474 C 0.46696 -0.14349 -0.16694
 H475 H 0.51100 -0.19570 -0.34107
 H476 H 0.43466 -0.19148 -0.39035
 H477 H 0.53941 -0.07059 -0.17358
 H478 H 0.45571 -0.12539 -0.08844
 H479 H 0.44203 -0.16119 -0.29559
 H480 H 0.53053 -0.10941 -0.24863
 H481 H 0.51874 -0.16487 -0.24750
 H482 H 0.44641 -0.16352 -0.16582
 C483 C 0.35714 0.51510 -0.27880
 C484 C 0.32856 0.49366 -0.29326
 C485 C 0.31404 0.49684 -0.34579
 C486 C 0.32796 0.52138 -0.38521
 C487 C 0.35610 0.54326 -0.36937
 C488 C 0.37048 0.54023 -0.31660
 C489 C 0.37395 0.51041 -0.22809
 C490 C 0.37307 0.48367 -0.22346
 C491 C 0.39149 0.48018 -0.18140
 C492 C 0.41104 0.50325 -0.14247
 C493 C 0.41101 0.52962 -0.14496
 C494 C 0.39276 0.53320 -0.18756
 H495 H 0.29243 0.47957 -0.35725
 H496 H 0.36724 0.56244 -0.39891
 H497 H 0.39092 0.45957 -0.18056
 H498 H 0.42591 0.54787 -0.11586
 H499 H 0.39255 0.55699 -0.30714
 H500 H 0.35904 0.46581 -0.25448
 H501 H 0.31767 0.47415 -0.26470
 H502 H 0.39375 0.55398 -0.18974
 C503 C 1.14804 0.64872 -0.28404
 C504 C 1.17816 0.66619 -0.27874
 C505 C 1.19493 0.68028 -0.33265
 C506 C 1.18201 0.67658 -0.39371
 C507 C 1.15162 0.65926 -0.39784
 C508 C 1.13500 0.64571 -0.34397
 C509 C 1.12986 0.63274 -0.22837
 C510 C 1.10370 0.63230 -0.21780
 C511 C 1.08403 0.61361 -0.17269
 C512 C 1.08998 0.59478 -0.13710
 C513 C 1.11705 0.59662 -0.14444
 C514 C 1.13686 0.61551 -0.18971
 H515 H 1.21815 0.69281 -0.32657
 H516 H 1.14021 0.65668 -0.44238
 H517 H 1.06357 0.61306 -0.16772
 H518 H 1.12226 0.58235 -0.11792
 H519 H 1.11178 0.63233 -0.34949
 H520 H 1.09799 0.64571 -0.24625
 H521 H 1.18873 0.66887 -0.23292
 H522 H 1.15686 0.61537 -0.19715
 C523 C 0.84190 0.48945 -0.26205
 C524 C 0.83170 0.46455 -0.30031
 C525 C 0.81478 0.46106 -0.35436
 C526 C 0.80725 0.48208 -0.36983
 C527 C 0.81599 0.50609 -0.32938
 C528 C 0.83350 0.50993 -0.27625
 C529 C 0.86389 0.49551 -0.21236
 C530 C 0.89125 0.52040 -0.21717
 C531 C 0.91367 0.52427 -0.17639
 C532 C 0.90899 0.50355 -0.12924
 C533 C 0.88092 0.47978 -0.12146
 C534 C 0.85870 0.47548 -0.16352
 H535 H 0.80838 0.44252 -0.38533
 H536 H 0.81068 0.52270 -0.34107
 H537 H 0.93492 0.54299 -0.18334
 H538 H 0.87639 0.46388 -0.08451
 H539 H 0.84129 0.52932 -0.24741
 H540 H 0.89567 0.53607 -0.25473
 H541 H 0.83821 0.44866 -0.29043
 H542 H 0.83764 0.45624 -0.15882
 C543 C 0.50265 0.35011 -0.27022
 C544 C 0.52165 0.36678 -0.31880
 C545 C 0.52446 0.35361 -0.37370
 C546 C 0.50873 0.32319 -0.38115
 C547 C 0.49074 0.30643 -0.33030
 C548 C 0.48728 0.31985 -0.27596
 C549 C 0.49787 0.36504 -0.21637
 C550 C 0.47211 0.36597 -0.21305
 C551 C 0.46989 0.38532 -0.17139
 C552 C 0.49330 0.40376 -0.13181
 C553 C 0.51824 0.40110 -0.13195
 C554 C 0.52066 0.38223 -0.17457
 H555 H 0.53952 0.36744 -0.40987
 H556 H 0.47781 0.28308 -0.33395
 H557 H 0.45031 0.38666 -0.17209
 H558 H 0.53653 0.41475 -0.10168
 H559 H 0.47234 0.30669 -0.23887
 H560 H 0.45444 0.35306 -0.24555
 H561 H 0.53374 0.39019 -0.31500
 H562 H 0.54078 0.38192 -0.17689
 C563 C 0.65078 0.14790 -0.27402
 C564 C 0.65428 0.13563 -0.33044
 C565 C 0.66848 0.15293 -0.38305
 C566 C 0.67943 0.18297 -0.38091
 C567 C 0.67720 0.19558 -0.32376
 C568 C 0.66289 0.17818 -0.27080
 C569 C 0.63278 0.12867 -0.22123
 C570 C 0.61284 0.13408 -0.18893
 C571 C 0.59286 0.11363 -0.14636
 C572 C 0.59225 0.08728 -0.13588
 C573 C 0.61316 0.08260 -0.16541
 C574 C 0.63333 0.10315 -0.20717
 H575 H 0.67020 0.14269 -0.42628
 H576 H 0.68543 0.21870 -0.32100
 H577 H 0.57694 0.11778 -0.12432
 H578 H 0.61350 0.06268 -0.15740
 H579 H 0.66082 0.18832 -0.22780
 H580 H 0.61163 0.15337 -0.19907
 H581 H 0.64492 0.11241 -0.33509
 H582 H 0.64885 0.09863 -0.22999
 C583 C 1.14702 0.49515 -0.28987
 C584 C 1.13666 0.47313 -0.33626
 C585 C 1.15345 0.47512 -0.38876
 C586 C 1.18174 0.49864 -0.39566
 C587 C 1.19332 0.51918 -0.34565
 C588 C 1.17592 0.51772 -0.29384
 C589 C 1.12661 0.49532 -0.24163
 C590 C 1.13522 0.50569 -0.17875
 C591 C 1.11509 0.50529 -0.13484
 C592 C 1.08606 0.49408 -0.15307
 C593 C 1.07777 0.48421 -0.21598
 C594 C 1.09773 0.48515 -0.25965
 H595 H 1.14419 0.45787 -0.42394
 H596 H 1.21494 0.53767 -0.34879
 H597 H 1.12206 0.51331 -0.08671
 H598 H 1.05579 0.47628 -0.23221
 H599 H 1.18465 0.53503 -0.25885
 H600 H 1.15731 0.51375 -0.16331
 H601 H 1.11507 0.45457 -0.33312
 H602 H 1.09044 0.47820 -0.30817
 C603 C 0.51053 0.65758 -0.27824
 C604 C 0.53095 0.66642 -0.32771
 C605 C 0.52981 0.68243 -0.37903
 C606 C 0.50870 0.69086 -0.38164
 C607 C 0.49062 0.68517 -0.32792
 C608 C 0.49123 0.66828 -0.27719
 C609 C 0.50778 0.63496 -0.23266
 C610 C 0.50098 0.63510 -0.16760
 C611 C 0.49938 0.61362 -0.12597
 C612 C 0.50487 0.59207 -0.14901
 C613 C 0.51051 0.59143 -0.21423
 C614 C 0.51168 0.61236 -0.25550
 H615 H 0.54534 0.68782 -0.41725
 H616 H 0.47401 0.69118 -0.32763
 H617 H 0.49484 0.61439 -0.07577
 H618 H 0.51408 0.57459 -0.23356
 H619 H 0.47532 0.66200 -0.23954
 H620 H 0.49761 0.65209 -0.14871
 H621 H 0.54710 0.65978 -0.32830
 H622 H 0.51565 0.61075 -0.30569
 C623 C 0.35096 -0.15996 -0.26555
 C624 C 0.36613 -0.16892 -0.30557
 C625 C 0.35274 -0.18566 -0.35986
 C626 C 0.32384 -0.19420 -0.37375
 C627 C 0.30816 -0.18680 -0.33148
 C628 C 0.32174 -0.16949 -0.27809
 C629 C 0.36661 -0.13809 -0.21555
 C630 C 0.38255 -0.14279 -0.16854
 C631 C 0.40027 -0.12054 -0.12646
 C632 C 0.40316 -0.09289 -0.13222
 C633 C 0.38610 -0.08870 -0.17753
 C634 C 0.36778 -0.11121 -0.21846
 H635 H 0.36519 -0.19101 -0.39229
 H636 H 0.28593 -0.19296 -0.34199
 H637 H 0.41265 -0.12465 -0.09129
 H638 H 0.38764 -0.06776 -0.18290
 H639 H 0.30978 -0.16268 -0.24780
 H640 H 0.38179 -0.16346 -0.16543
 H641 H 0.38878 -0.16153 -0.29687
 H642 H 0.35569 -0.10717 -0.25471
 C643 C 0.48583 -0.15527 0.28371
 C644 C 0.50680 -0.16284 0.29924
 C645 C 0.50304 -0.18036 0.35221
 C646 C 0.47844 -0.19022 0.39098
 C647 C 0.45721 -0.18312 0.37473
 C648 C 0.46077 -0.16597 0.32126
 C649 C 0.49092 -0.13445 0.23178
 C650 C 0.46888 -0.13964 0.18798
 C651 C 0.47249 -0.11828 0.14422
 C652 C 0.49798 -0.09114 0.14440
 C653 C 0.52058 -0.08656 0.18613
 C654 C 0.51713 -0.10808 0.22917
 H655 H 0.51980 -0.18537 0.36420
 H656 H 0.43807 -0.19055 0.40397
 H657 H 0.45480 -0.12261 0.11225
 H658 H 0.54057 -0.06598 0.18706
 H659 H 0.44447 -0.16012 0.31065
 H660 H 0.44859 -0.15996 0.18875
 H661 H 0.52627 -0.15483 0.27090
 H662 H 0.53440 -0.10355 0.26267
 C663 C 0.36213 0.52245 0.27571
 C664 C 0.33228 0.50371 0.28273
 C665 C 0.31740 0.50734 0.33345
 C666 C 0.33221 0.52949 0.37863
 C667 C 0.36182 0.54902 0.37002
 C668 C 0.37662 0.54567 0.31864
 C669 C 0.37857 0.51654 0.22696
 C670 C 0.37531 0.48876 0.22189
 C671 C 0.39275 0.48367 0.18024
 C672 C 0.41339 0.50616 0.14208
 C673 C 0.41590 0.53371 0.14561
 C674 C 0.39883 0.53890 0.18809
 H675 H 0.29463 0.49180 0.33947
 H676 H 0.37366 0.56623 0.40432
 H677 H 0.39045 0.46229 0.17870
 H678 H 0.43184 0.55157 0.11732
 H679 H 0.39968 0.56033 0.31436
 H680 H 0.36004 0.47125 0.25198
 H681 H 0.32066 0.48578 0.24993
 H682 H 0.40170 0.56048 0.19122
 C683 C 1.16180 0.64686 0.26143
 C684 C 1.16875 0.63151 0.30589
 C685 C 1.18419 0.64514 0.36140
 C686 C 1.19341 0.67446 0.37246
 C687 C 1.18801 0.69027 0.32618
 C688 C 1.17203 0.67648 0.27131
 C689 C 1.14086 0.63100 0.20986
 C690 C 1.11515 0.63205 0.20620
 C691 C 1.09282 0.61325 0.16560
 C692 C 1.09599 0.59340 0.12709
 C693 C 1.12264 0.59402 0.12713
 C694 C 1.14473 0.61234 0.16900
 H695 H 1.18807 0.63262 0.39679
 H696 H 1.19473 0.71286 0.33430
 H697 H 1.07266 0.61352 0.16617
 H698 H 1.12588 0.57933 0.09724
 H699 H 1.16677 0.68863 0.23766
 H700 H 1.11168 0.64621 0.23759
 H701 H 1.16075 0.60856 0.29953
 H702 H 1.16450 0.61133 0.17095
 C703 C 0.50394 0.15721 0.26493
 C704 C 0.52998 0.17012 0.29964
 C705 C 0.53289 0.18615 0.35474
 C706 C 0.51000 0.18989 0.37560
 C707 C 0.48452 0.17837 0.33916
 C708 C 0.48143 0.16194 0.28444
 C709 C 0.49925 0.13610 0.21376
 C710 C 0.52066 0.14193 0.16784
 C711 C 0.51784 0.12014 0.12602
 C712 C 0.49400 0.09196 0.13077
 C713 C 0.47186 0.08674 0.17429
 C714 C 0.47440 0.10859 0.21507
 H715 H 0.55277 0.19502 0.38216
 H716 H 0.46660 0.18097 0.35465
 H717 H 0.53481 0.12509 0.09174
 H718 H 0.45297 0.06541 0.17873
 H719 H 0.46116 0.15220 0.25837
 H720 H 0.53990 0.16311 0.16551
 H721 H 0.54752 0.16653 0.28613
 H722 H 0.45767 0.10346 0.25025
 C723 C 0.64846 0.48981 0.26797
 C724 C 0.63397 0.46615 0.30958
 C725 C 0.64794 0.46385 0.36401
 C726 C 0.67678 0.48483 0.37677
 C727 C 0.69179 0.50754 0.33325
 C728 C 0.67763 0.51019 0.27955
 C729 C 0.63217 0.49480 0.21714
 C730 C 0.63204 0.52107 0.21534
 C731 C 0.61338 0.52451 0.17402
 C732 C 0.59478 0.50187 0.13296
 C733 C 0.59644 0.47633 0.13175
 C734 C 0.61464 0.47265 0.17418
 H735 H 0.63600 0.44631 0.39738
 H736 H 0.71395 0.52408 0.34280
 H737 H 0.61283 0.54454 0.17585
 H738 H 0.58280 0.45871 0.09996
 H739 H 0.68914 0.52861 0.24809
 H740 H 0.64525 0.53838 0.24840
 H741 H 0.61137 0.45036 0.30193
 H742 H 0.61455 0.45227 0.17458
 C743 C 0.84530 0.35052 0.27198
 C744 C 0.83236 0.36342 0.30732
 C745 C 0.81512 0.34925 0.36007
 C746 C 0.81014 0.32175 0.37788
 C747 C 0.82170 0.30807 0.34068
 C748 C 0.83938 0.32247 0.28830
 C749 C 0.86696 0.36758 0.22246
 C750 C 0.89422 0.36961 0.22331
 C751 C 0.91625 0.38906 0.18305
 C752 C 0.91134 0.40664 0.14063
 C753 C 0.88352 0.40331 0.13725
 C754 C 0.86164 0.38420 0.17820
 H755 H 0.80645 0.36015 0.38846
 H756 H 0.81824 0.28694 0.35409
 H757 H 0.93734 0.39088 0.18648
 H758 H 0.87885 0.41617 0.10447
 H759 H 0.84905 0.31207 0.26156
 H760 H 0.89893 0.35719 0.25736
 H761 H 0.83684 0.38514 0.29622
 H762 H 0.84072 0.38286 0.17632
   
