data_POSCAR
  _audit_creation_date              2014-09-24
  _audit_creation_method            'ToBaCCo'
  _symmetry_space_group_name_H-M    'P1'
  _symmetry_Int_Tables_number       1
  _symmetry_cell_setting            triclinic
  loop_
  _symmetry_equiv_pos_as_xyz
 x,y,z
_cell_length_a 47.1255
_cell_length_b 46.8991
_cell_length_c 14.1858
_cell_angle_alpha 88.473300
_cell_angle_beta 91.135500
_cell_angle_gamma 119.620000
loop_
  _atom_site_label
  _atom_site_type_symbol
  _atom_site_fract_x
  _atom_site_fract_y
  _atom_site_fract_z
C1 C 0.28691 0.54876 0.57741
 C2 C 0.28249 0.54184 0.48364
 C3 C 0.24926 0.52115 0.44530
 C4 C 0.30939 0.54757 0.41873
 C5 C 0.32024 0.56840 0.61998
 C6 C 0.25856 0.52999 0.64130
 C7 C 0.23926 0.48871 0.42312
 C8 C 0.20815 0.46861 0.38704
 C9 C 0.18624 0.48061 0.37082
 C10 C 0.19624 0.51316 0.39627
 C11 C 0.22758 0.53328 0.43268
 C12 C 0.33049 0.53513 0.44072
 C13 C 0.35244 0.53625 0.37361
 C14 C 0.35321 0.54914 0.28243
 C15 C 0.33268 0.56234 0.26155
 C16 C 0.31096 0.56145 0.32883
 C17 C 0.34554 0.59515 0.57088
 C18 C 0.37815 0.60719 0.59812
 C19 C 0.38580 0.59369 0.67754
 C20 C 0.36021 0.57117 0.73535
 C21 C 0.32784 0.55851 0.70668
 C22 C 0.23691 0.54141 0.66161
 C23 C 0.20803 0.52121 0.71113
 C24 C 0.20085 0.48966 0.74280
 C25 C 0.22293 0.47868 0.72384
 C26 C 0.25118 0.49842 0.67237
 H27 H 0.25560 0.47887 0.43448
 H28 H 0.20175 0.44364 0.37295
 H29 H 0.18047 0.52364 0.38595
 H30 H 0.23507 0.55837 0.45020
 H31 H 0.32910 0.52342 0.50864
 H32 H 0.36765 0.52557 0.39181
 H33 H 0.29467 0.57082 0.30991
 H34 H 0.34032 0.60499 0.50714
 H35 H 0.39712 0.62535 0.55333
 H36 H 0.36507 0.56157 0.80010
 H37 H 0.30917 0.53936 0.74989
 H38 H 0.24187 0.56544 0.63658
 H39 H 0.19138 0.53025 0.72488
 H40 H 0.21781 0.45434 0.74602
 H41 H 0.26718 0.48888 0.65516
 H42 H 0.33294 0.57290 0.19260
 C43 C 0.52127 -0.21723 0.55547
 C44 C 0.52792 -0.21852 0.46294
 C45 C 0.53922 -0.24116 0.43325
 C46 C 0.52668 -0.19609 0.38811
 C47 C 0.50958 -0.19509 0.58595
 C48 C 0.52823 -0.23570 0.63102
 C49 C 0.56920 -0.23734 0.46535
 C50 C 0.57826 -0.26054 0.44373
 C51 C 0.55775 -0.28763 0.38819
 C52 C 0.52802 -0.29093 0.35458
 C53 C 0.51892 -0.26777 0.37669
 C54 C 0.55386 -0.17841 0.32946
 C55 C 0.55409 -0.15647 0.26050
 C56 C 0.52732 -0.15132 0.24934
 C57 C 0.49984 -0.16931 0.30664
 C58 C 0.49925 -0.19199 0.37406
 C59 C 0.47681 -0.20819 0.61117
 C60 C 0.46450 -0.18736 0.63047
 C61 C 0.48509 -0.15323 0.62726
 C62 C 0.51823 -0.14023 0.60554
 C63 C 0.53037 -0.16105 0.58431
 C64 C 0.51505 -0.26982 0.62773
 C65 C 0.52676 -0.28573 0.68844
 C66 C 0.55127 -0.26809 0.75625
 C67 C 0.56213 -0.23432 0.76452
 C68 C 0.55091 -0.21837 0.70226
 H69 H 0.58514 -0.21681 0.50902
 H70 H 0.60114 -0.25736 0.47167
 H71 H 0.51189 -0.31115 0.31042
 H72 H 0.49571 -0.27092 0.35138
 H73 H 0.57529 -0.18113 0.33816
 H74 H 0.57568 -0.14281 0.21776
 H75 H 0.47741 -0.20622 0.41522
 H76 H 0.46057 -0.23449 0.61260
 H77 H 0.43898 -0.19790 0.64841
 H78 H 0.53454 -0.11397 0.60248
 H79 H 0.55573 -0.15071 0.56483
 H80 H 0.49678 -0.28392 0.57517
 H81 H 0.51658 -0.31187 0.68107
 H82 H 0.58072 -0.21944 0.81510
 H83 H 0.56129 -0.19205 0.70670
 H84 H 0.47865 -0.16614 0.29835
 C85 C 1.23769 0.72760 0.55472
 C86 C 1.24074 0.73038 0.45876
 C87 C 1.27089 0.75728 0.41699
 C88 C 1.21734 0.70379 0.39441
 C89 C 1.21799 0.69456 0.59761
 C90 C 1.25735 0.75570 0.61985
 C91 C 1.26972 0.77902 0.34976
 C92 C 1.29865 0.80581 0.31698
 C93 C 1.32932 0.81096 0.34982
 C94 C 1.32994 0.78761 0.41330
 C95 C 1.30111 0.76120 0.44632
 C96 C 1.18337 0.68751 0.40979
 C97 C 1.16186 0.66179 0.35193
 C98 C 1.17368 0.65264 0.27501
 C99 C 1.20740 0.66935 0.25801
 C100 C 1.22898 0.69439 0.31732
 C101 C 1.22544 0.66995 0.57739
 C102 C 1.20513 0.63782 0.60792
 C103 C 1.17681 0.62952 0.65982
 C104 C 1.17107 0.65508 0.68649
 C105 C 1.19155 0.68732 0.65557
 C106 C 1.26759 0.74991 0.70859
 C107 C 1.28521 0.77554 0.77082
 C108 C 1.29414 0.80816 0.74553
 C109 C 1.28433 0.81410 0.65611
 C110 C 1.26537 0.78815 0.59560
 H111 H 1.24644 0.77588 0.32526
 H112 H 1.29663 0.82243 0.26662
 H113 H 1.35238 0.78975 0.44093
 H114 H 1.30234 0.74407 0.49676
 H115 H 1.17342 0.69475 0.46656
 H116 H 1.13591 0.64977 0.36549
 H117 H 1.25488 0.70621 0.30317
 H118 H 1.24654 0.67553 0.53516
 H119 H 1.21180 0.61980 0.58887
 H120 H 1.15014 0.65038 0.72781
 H121 H 1.18596 0.70633 0.67324
 H122 H 1.26216 0.72543 0.73025
 H123 H 1.29270 0.76958 0.83753
 H124 H 1.28993 0.83859 0.63411
 H125 H 1.25674 0.79356 0.53005
 H126 H 1.21718 0.66280 0.19915
 C127 C 0.75700 0.47492 0.53982
 C128 C 0.75456 0.47426 0.44362
 C129 C 0.77911 0.47185 0.38331
 C130 C 0.72524 0.47203 0.39647
 C131 C 0.73649 0.48307 0.60141
 C132 C 0.77790 0.46343 0.58689
 C133 C 0.81289 0.49119 0.40077
 C134 C 0.83559 0.48810 0.34590
 C135 C 0.82510 0.46645 0.27017
 C136 C 0.79146 0.44757 0.25156
 C137 C 0.76874 0.45007 0.30774
 C138 C 0.72821 0.49421 0.32406
 C139 C 0.70036 0.49363 0.28594
 C140 C 0.66913 0.47068 0.31933
 C141 C 0.66633 0.44737 0.38826
 C142 C 0.69409 0.44789 0.42582
 C143 C 0.72492 0.46633 0.68799
 C144 C 0.70654 0.47408 0.74746
 C145 C 0.69838 0.49839 0.72154
 C146 C 0.70944 0.51475 0.63387
 C147 C 0.72896 0.50782 0.57600
 C148 C 0.77242 0.43188 0.56933
 C149 C 0.79392 0.42185 0.60418
 C150 C 0.82160 0.44326 0.65751
 C151 C 0.82535 0.47403 0.68124
 C152 C 0.80362 0.48397 0.64622
 H153 H 0.82175 0.50891 0.45662
 H154 H 0.86138 0.50342 0.36072
 H155 H 0.78266 0.43062 0.19372
 H156 H 0.74298 0.43478 0.29241
 H157 H 0.75210 0.51264 0.29951
 H158 H 0.70342 0.51154 0.23165
 H159 H 0.69134 0.43006 0.48021
 H160 H 0.72994 0.44697 0.70996
 H161 H 0.69802 0.46007 0.81259
 H162 H 0.70436 0.53402 0.61137
 H163 H 0.73841 0.52212 0.51161
 H164 H 0.75192 0.41534 0.52597
 H165 H 0.78869 0.39743 0.58706
 H166 H 0.84565 0.49124 0.72353
 H167 H 0.80770 0.50820 0.66182
 H168 H 0.64293 0.42934 0.41625
 C169 C 0.45234 0.25356 0.55033
 C170 C 0.45039 0.24843 0.45564
 C171 C 0.45310 0.27399 0.38429
 C172 C 0.45314 0.22029 0.42260
 C173 C 0.44425 0.22647 0.62011
 C174 C 0.46893 0.28734 0.58631
 C175 C 0.43934 0.29407 0.40168
 C176 C 0.44337 0.31905 0.33782
 C177 C 0.45982 0.32350 0.25274
 C178 C 0.47216 0.30259 0.23263
 C179 C 0.46906 0.27830 0.29772
 C180 C 0.42563 0.18962 0.40630
 C181 C 0.42959 0.16269 0.38587
 C182 C 0.46103 0.16631 0.38365
 C183 C 0.48835 0.19729 0.39735
 C184 C 0.48443 0.22405 0.41592
 C185 C 0.46622 0.21508 0.64012
 C186 C 0.45735 0.18793 0.70032
 C187 C 0.42688 0.17257 0.74613
 C188 C 0.40567 0.18535 0.72936
 C189 C 0.41407 0.21161 0.66576
 C190 C 0.50056 0.30939 0.55560
 C191 C 0.51566 0.34220 0.58024
 C192 C 0.49951 0.35397 0.63668
 C193 C 0.46839 0.33108 0.67212
 C194 C 0.45334 0.29805 0.64745
 H195 H 0.42541 0.29050 0.46490
 H196 H 0.43294 0.33437 0.35388
 H197 H 0.48482 0.30545 0.16716
 H198 H 0.47957 0.26324 0.27998
 H199 H 0.40134 0.18640 0.41198
 H200 H 0.40823 0.13892 0.37537
 H201 H 0.50586 0.24763 0.42857
 H202 H 0.49010 0.22691 0.60808
 H203 H 0.47490 0.17969 0.71261
 H204 H 0.38186 0.17429 0.76154
 H205 H 0.39679 0.22010 0.65129
 H206 H 0.51328 0.30129 0.51012
 H207 H 0.53979 0.35796 0.55270
 H208 H 0.45500 0.33844 0.71707
 H209 H 0.42903 0.28126 0.67278
 H210 H 0.51283 0.20083 0.39428
 C211 C 0.72376 0.25263 0.57558
 C212 C 0.72973 0.25133 0.48244
 C213 C 0.70430 0.22981 0.41375
 C214 C 0.76367 0.26624 0.44891
 C215 C 0.75166 0.26352 0.64327
 C216 C 0.68974 0.23806 0.61311
 C217 C 0.68369 0.19633 0.43461
 C218 C 0.66220 0.17545 0.36628
 C219 C 0.66147 0.18745 0.27489
 C220 C 0.68190 0.22098 0.25436
 C221 C 0.70310 0.24192 0.32306
 C222 C 0.77931 0.24751 0.45024
 C223 C 0.81153 0.26138 0.42072
 C224 C 0.82850 0.29409 0.38739
 C225 C 0.81276 0.31296 0.38770
 C226 C 0.78055 0.29909 0.41847
 C227 C 0.77443 0.29687 0.65368
 C228 C 0.80373 0.30643 0.70317
 C229 C 0.81047 0.28278 0.74562
 C230 C 0.78691 0.24941 0.73692
 C231 C 0.75838 0.23999 0.68458
 C232 C 0.66468 0.23917 0.55991
 C233 C 0.63191 0.21930 0.58504
 C234 C 0.62373 0.19902 0.66603
 C235 C 0.64897 0.20179 0.72623
 C236 C 0.68151 0.22104 0.70023
 H237 H 0.68485 0.18616 0.50308
 H238 H 0.64710 0.14969 0.38405
 H239 H 0.68168 0.23107 0.18503
 H240 H 0.71898 0.26755 0.30498
 H241 H 0.76658 0.22222 0.47505
 H242 H 0.82291 0.24624 0.42414
 H243 H 0.76868 0.31384 0.41805
 H244 H 0.77011 0.31541 0.62016
 H245 H 0.82085 0.33239 0.70839
 H246 H 0.79105 0.23016 0.76536
 H247 H 0.74187 0.21411 0.67363
 H248 H 0.67024 0.25385 0.49564
 H249 H 0.61317 0.21852 0.53814
 H250 H 0.64365 0.18785 0.79183
 H251 H 0.69980 0.22090 0.74689
 H252 H 0.82495 0.33816 0.36248
 N253 N 0.96809 0.48546 0.04843
 N254 N 0.94114 0.48735 0.04159
 N255 N 1.03815 0.50735 0.12586
 N256 N 1.06379 0.52787 0.17662
 N257 N 1.03697 0.52144 0.04566
 N258 N 1.06190 0.55153 0.03903
 N259 N 0.96907 0.47132 0.12879
 N260 N 0.94277 0.46363 0.17929
 C261 C 0.92577 0.47413 0.12390
 C262 C 1.07826 0.55539 0.12130
 N263 N 1.03946 0.42353 0.12292
 N264 N 1.06329 0.41799 0.14755
 N265 N 0.97133 0.41164 0.17518
 N266 N 0.94797 0.39811 0.23906
 N267 N 0.97210 0.38878 0.12539
 N268 N 0.95001 0.35938 0.15470
 N269 N 1.04057 0.44755 0.17148
 N270 N 1.06614 0.45960 0.22950
 Mn271 Mn 1.00483 0.45961 0.15208
 C272 C 1.07985 0.44059 0.21326
 C273 C 0.93502 0.36548 0.22481
 N274 N 1.03588 0.50781 -0.15134
 N275 N 1.06199 0.53627 -0.17105
 N276 N 0.96795 0.44882 -0.19689
 N277 N 0.94147 0.43305 -0.24894
 N278 N 0.96703 0.47189 -0.14890
 N279 N 0.93969 0.47243 -0.16743
 N280 N 1.03604 0.48432 -0.19921
 N281 N 1.06209 0.49603 -0.25266
 Mn282 Mn 1.00197 0.49701 -0.05173
 C283 C 1.07787 0.52836 -0.23475
 C284 C 0.92423 0.44810 -0.23035
 N285 N 0.97038 0.37525 -0.07146
 N286 N 0.94304 0.34702 -0.06078
 N287 N 1.03876 0.42618 -0.15227
 N288 N 1.06692 0.43868 -0.19664
 N289 N 1.03968 0.41123 -0.07367
 N290 N 1.06847 0.41307 -0.06306
 N291 N 0.96944 0.39016 -0.15001
 N292 N 0.94131 0.37266 -0.19425
 Mn293 Mn 1.00536 0.39944 0.02570
 Mn294 Mn 1.00306 0.43727 -0.17546
 Cl295 Cl 1.00381 0.44842 -0.01193
 C296 C 0.92534 0.34565 -0.13850
 C297 C 1.08501 0.42988 -0.14097
 N298 N 0.48205 0.46986 0.02061
 N299 N 0.47071 0.43814 0.01036
 N300 N 0.47733 0.52822 0.10637
 N301 N 0.46030 0.53706 0.15922
 N302 N 0.46330 0.51851 0.02353
 N303 N 0.43659 0.52095 0.01727
 N304 N 0.49506 0.47905 0.10474
 N305 N 0.49262 0.45368 0.15441
 C306 C 0.47726 0.42834 0.09455
 C307 C 0.43503 0.53251 0.10235
 N308 N 0.57059 0.59501 0.12923
 N309 N 0.58493 0.62398 0.16825
 N310 N 0.55964 0.52553 0.16695
 N311 N 0.56219 0.50246 0.21492
 N312 N 0.58731 0.54570 0.12508
 N313 N 0.60955 0.53702 0.14473
 N314 N 0.54264 0.57528 0.17021
 N315 N 0.53703 0.59073 0.23789
 Mn316 Mn 0.51853 0.52707 0.13829
 C317 C 0.56370 0.62113 0.23484
 C318 C 0.59343 0.51014 0.20125
 N319 N 0.48421 0.53619 -0.16806
 N320 N 0.46093 0.54339 -0.18541
 N321 N 0.53021 0.50927 -0.21424
 N322 N 0.54115 0.49434 -0.26771
 N323 N 0.50310 0.48792 -0.17214
 N324 N 0.49485 0.45774 -0.19624
 N325 N 0.51143 0.55763 -0.20950
 N326 N 0.50720 0.58002 -0.25664
 Mn327 Mn 0.48284 0.50278 -0.07453
 C328 C 0.47546 0.57053 -0.24110
 C329 C 0.51879 0.46235 -0.25639
 N330 N 0.60824 0.56392 -0.06745
 N331 N 0.63145 0.55617 -0.05600
 N332 N 0.57597 0.60411 -0.14600
 N333 N 0.57157 0.62725 -0.18663
 N334 N 0.59009 0.61347 -0.06302
 N335 N 0.59545 0.64335 -0.04551
 N336 N 0.59478 0.55559 -0.15134
 N337 N 0.60889 0.54226 -0.19968
 Mn338 Mn 0.58946 0.57975 0.03098
 Mn339 Mn 0.55323 0.55679 -0.18138
 Cl340 Cl 0.53596 0.54158 -0.02147
 C341 C 0.63200 0.54320 -0.13936
 C342 C 0.58422 0.65172 -0.12414
 N343 N 0.41872 -0.03672 0.14537
 N344 N 0.39458 -0.06587 0.17127
 N345 N 0.47126 0.03504 0.18591
 N346 N 0.48361 0.05807 0.24957
 N347 N 0.44373 0.03174 0.15147
 N348 N 0.43676 0.05282 0.19052
 N349 N 0.44659 -0.03250 0.17965
 N350 N 0.44236 -0.05835 0.22933
 C351 C 0.40992 -0.07883 0.22400
 C352 C 0.46195 0.06896 0.25157
 N353 N 0.54317 0.04892 0.02261
 N354 N 0.57081 0.07691 0.01294
 N355 N 0.50630 -0.02259 0.10236
 N356 N 0.50678 -0.04702 0.14931
 N357 N 0.51770 -0.01971 0.01693
 N358 N 0.52650 -0.04205 0.00360
 N359 N 0.53176 0.04575 0.10814
 N360 N 0.55140 0.07127 0.15940
 Mn361 Mn 0.48909 0.00650 0.14479
 C362 C 0.57562 0.09048 0.09897
 C363 C 0.51949 -0.05888 0.08696
 N364 N 0.41837 0.03114 -0.03664
 N365 N 0.41022 0.05393 -0.02242
 N366 N 0.40451 -0.03407 -0.12839
 N367 N 0.38716 -0.06146 -0.17555
 N368 N 0.39345 -0.03752 -0.04209
 N369 N 0.36871 -0.06741 -0.02809
 N370 N 0.43042 0.03455 -0.12154
 N371 N 0.43124 0.05988 -0.16675
 Mn372 Mn 0.41811 -0.00289 0.05498
 C373 C 0.41840 0.07159 -0.10447
 C374 C 0.36466 -0.08188 -0.11230
 N375 N 0.49265 -0.01990 -0.17058
 N376 N 0.49832 -0.04285 -0.20156
 N377 N 0.49075 0.04510 -0.19924
 N378 N 0.49652 0.07198 -0.24743
 N379 N 0.51803 0.04809 -0.16374
 N380 N 0.54295 0.07687 -0.18651
 N381 N 0.46513 -0.02342 -0.20575
 N382 N 0.45117 -0.04907 -0.26105
 Mn383 Mn 0.51820 0.01436 -0.07429
 Mn384 Mn 0.44753 0.00555 -0.16491
 Cl385 Cl 0.46820 0.00589 -0.00987
 C386 C 0.47234 -0.06068 -0.25814
 C387 C 0.52928 0.09140 -0.23905
 N388 N 1.11767 0.42121 0.24048
 N389 N 1.14751 0.43198 0.28577
 C390 C 1.15580 0.46080 0.32675
 C391 C 1.13079 0.46834 0.31021
 C392 C 1.10786 0.44318 0.25524
 H393 H 1.12984 0.48988 0.33096
 H394 H 1.10599 0.40013 0.19987
 H395 H 1.16120 0.42017 0.28005
 N396 N 0.60098 0.67153 0.31900
 N397 N 0.59963 0.69589 0.35888
 C398 C 0.56817 0.68866 0.36193
 C399 C 0.54859 0.65780 0.32402
 C400 C 0.57049 0.64812 0.29702
 H401 H 0.52258 0.64539 0.31025
 H402 H 0.62263 0.67180 0.30274
 H403 H 0.62024 0.71786 0.37744
 N404 N 0.41121 -0.12403 0.31284
 N405 N 0.38883 -0.15496 0.34776
 C406 C 0.35857 -0.16086 0.32256
 C407 C 0.36135 -0.13391 0.27045
 C408 C 0.39439 -0.11163 0.26715
 H409 H 0.34212 -0.13006 0.24119
 H410 H 0.43648 -0.11277 0.32248
 H411 H 0.39565 -0.16988 0.38625
 N412 N 0.87087 0.46386 0.07439
 N413 N 0.84438 0.46138 0.11238
 C414 C 0.84893 0.46506 0.20633
 C415 C 0.87981 0.46964 0.22929
 C416 C 0.89282 0.46867 0.14313
 H417 H 0.89148 0.47409 0.29796
 H418 H 0.87392 0.46259 0.00215
 H419 H 0.82405 0.45842 0.07367
 N420 N 0.46487 0.37258 0.04822
 N421 N 0.46083 0.34524 0.08945
 C422 C 0.46335 0.34919 0.18357
 C423 C 0.46962 0.38066 0.20312
 C424 C 0.47046 0.39465 0.11510
 H425 H 0.47333 0.39184 0.27133
 H426 H 0.46420 0.37610 -0.02464
 H427 H 0.45605 0.32417 0.05340
 N428 N 0.62500 0.14398 0.06108
 N429 N 0.64728 0.16970 0.10714
 C430 C 0.64061 0.16485 0.20020
 C431 C 0.61261 0.13470 0.21351
 C432 C 0.60361 0.12234 0.12365
 H433 H 0.60066 0.12312 0.27917
 H434 H 0.62468 0.14133 -0.01188
 H435 H 0.66717 0.18969 0.07502
 N436 N 0.39182 0.10568 -0.08530
 N437 N 0.39353 0.13342 -0.12974
 C438 C 0.41777 0.14490 -0.19388
 C439 C 0.43150 0.12451 -0.19205
 C440 C 0.41448 0.10036 -0.12445
 H441 H 0.45053 0.12597 -0.23680
 H442 H 0.37479 0.09110 -0.03423
 H443 H 0.37888 0.14340 -0.11238
 N444 N 0.65964 0.51262 -0.08442
 N445 N 0.67725 0.49923 -0.12330
 C446 C 0.68038 0.50653 -0.21670
 C447 C 0.66418 0.52411 -0.23899
 C448 C 0.65158 0.52719 -0.15451
 H449 H 0.66164 0.53340 -0.30740
 H450 H 0.65359 0.51093 -0.01326
 H451 H 0.68765 0.48767 -0.08345
 N452 N 0.87788 0.28977 -0.11426
 N453 N 0.84583 0.27211 -0.14749
 C454 C 0.84029 0.29200 -0.20659
 C455 C 0.86877 0.32236 -0.21269
 C456 C 0.89151 0.31977 -0.15491
 H457 H 0.87291 0.34359 -0.25476
 H458 H 0.88894 0.28075 -0.06690
 H459 H 0.82934 0.24823 -0.12524
 N460 N 0.43848 -0.11241 -0.34489
 N461 N 0.44166 -0.13724 -0.37376
 C462 C 0.47217 -0.13117 -0.35286
 C463 C 0.48907 -0.10135 -0.30872
 C464 C 0.46683 -0.09040 -0.30477
 H465 H 0.51375 -0.08969 -0.28091
 H466 H 0.41710 -0.11097 -0.35112
 H467 H 0.42325 -0.15778 -0.40745
 N468 N 0.47037 0.61458 -0.33162
 N469 N 0.44662 0.62123 -0.35144
 C470 C 0.41926 0.59897 -0.30625
 C471 C 0.42620 0.57752 -0.25565
 C472 C 0.45842 0.58793 -0.27420
 H473 H 0.40960 0.55564 -0.21626
 H474 H 0.49386 0.62739 -0.35956
 H475 H 0.44913 0.64008 -0.39739
 N476 N 1.12701 0.54213 -0.32721
 N477 N 1.15521 0.57047 -0.35506
 C478 C 1.15410 0.59644 -0.31967
 C479 C 1.12562 0.58495 -0.26751
 C480 C 1.10955 0.55127 -0.27490
 H481 H 1.11681 0.59888 -0.23054
 H482 H 1.12061 0.51838 -0.34669
 H483 H 1.17233 0.57037 -0.40026
 N484 N 0.87526 0.40989 -0.32013
 N485 N 0.84613 0.40804 -0.35005
 C486 C 0.84562 0.43472 -0.31806
 C487 C 0.87404 0.45345 -0.26568
 C488 C 0.89173 0.43725 -0.26979
 H489 H 0.88185 0.47652 -0.23150
 H490 H 0.88300 0.39336 -0.33770
 H491 H 0.82954 0.38985 -0.39451
 N492 N 0.54769 0.44159 -0.35187
 N493 N 0.54263 0.41131 -0.38089
 C494 C 0.51376 0.38781 -0.34542
 C495 C 0.50023 0.40286 -0.29291
 C496 C 0.52204 0.43615 -0.29939
 H497 H 0.47736 0.39156 -0.25538
 H498 H 0.56797 0.46421 -0.36894
 H499 H 0.55881 0.40878 -0.42426
 N500 N 0.53736 0.14085 -0.33378
 N501 N 0.56246 0.16970 -0.35801
 C502 C 0.58978 0.17255 -0.31644
 C503 C 0.58152 0.14427 -0.26408
 C504 C 0.54841 0.12488 -0.27727
 H505 H 0.59756 0.13764 -0.22569
 H506 H 0.51339 0.13212 -0.35740
 H507 H 0.56073 0.18666 -0.40344
 N508 N 1.13726 0.43017 -0.10731
 N509 N 1.16770 0.44599 -0.13754
 C510 C 1.17037 0.46781 -0.20561
 C511 C 1.14009 0.46551 -0.21981
 C512 C 1.11980 0.44125 -0.15633
 H513 H 1.13369 0.47933 -0.26950
 H514 H 1.12871 0.41214 -0.05397
 H515 H 1.18634 0.44210 -0.11075
 N516 N 0.59496 0.70742 -0.07973
 N517 N 0.58556 0.72981 -0.11350
 C518 C 0.56534 0.71643 -0.18840
 C519 C 0.56186 0.68562 -0.20355
 C520 C 0.58079 0.68113 -0.13521
 H521 H 0.54795 0.66854 -0.25836
 H522 H 0.61037 0.71099 -0.02195
 H523 H 0.59279 0.75234 -0.08256
 N524 N 0.33248 -0.13971 -0.05704
 N525 N 0.31388 -0.17046 -0.09689
 C526 C 0.31189 -0.16608 -0.19088
 C527 C 0.32966 -0.13247 -0.21242
 C528 C 0.34221 -0.11706 -0.12707
 H529 H 0.33377 -0.12064 -0.28124
 H530 H 0.33855 -0.13560 0.01443
 H531 H 0.30248 -0.19237 -0.05771
 N532 N 0.54232 -0.09546 0.05334
 N533 N 0.54454 -0.11966 0.09632
 C534 C 0.52851 -0.12685 0.17896
 C535 C 0.51559 -0.10620 0.18899
 C536 C 0.52515 -0.08654 0.10812
 H537 H 0.50223 -0.10481 0.24826
 H538 H 0.55303 -0.08486 -0.01139
 H539 H 0.55697 -0.13086 0.06928
 N540 N 0.38740 0.54038 0.06753
 N541 N 0.36625 0.54522 0.11443
 C542 C 0.37353 0.54683 0.20737
 C543 C 0.40088 0.54308 0.21963
 C544 C 0.40877 0.53899 0.12917
 H545 H 0.41285 0.54250 0.28496
 H546 H 0.38683 0.53764 -0.00544
 H547 H 0.34651 0.54614 0.08287
 N548 N 1.13008 0.60467 0.07455
 N549 N 1.15523 0.62981 0.11447
 C550 C 1.15103 0.62733 0.20863
 C551 C 1.12185 0.59882 0.22965
 C552 C 1.10943 0.58521 0.14218
 H553 H 1.11094 0.58975 0.29814
 H554 H 1.12712 0.60104 0.00187
 H555 H 1.17444 0.64884 0.07717
 N556 N 0.49086 0.10965 0.37533
 N557 N 0.49066 0.13529 0.41040
 C558 C 0.46605 0.13814 0.36982
 C559 C 0.44954 0.11293 0.30673
 C560 C 0.46645 0.09575 0.31176
 H561 H 0.42974 0.10910 0.25932
 H562 H 0.50811 0.10251 0.39286
 H563 H 0.50758 0.15085 0.45989
 N564 N 0.58897 0.45971 0.27536
 N565 N 0.60872 0.44887 0.30484
 C566 C 0.63983 0.47220 0.28689
 C567 C 0.63962 0.49888 0.24266
 C568 C 0.60701 0.48997 0.23774
 H569 H 0.66017 0.52218 0.22147
 H570 H 0.56358 0.44660 0.28179
 H571 H 0.60061 0.42594 0.33730
 N572 N 0.90202 0.30775 0.27630
 N573 N 0.87406 0.28880 0.31879
 C574 C 0.86166 0.30757 0.34779
 C575 C 0.88323 0.34018 0.32341
 C576 C 0.90824 0.33896 0.27763
 H577 H 0.88032 0.36144 0.33186
 H578 H 0.91594 0.29912 0.24371
 H579 H 0.86318 0.26329 0.32254
   
