data_POSCAR
  _audit_creation_date              2014-09-24
  _audit_creation_method            'ToBaCCo'
  _symmetry_space_group_name_H-M    'P1'
  _symmetry_Int_Tables_number       1
  _symmetry_cell_setting            triclinic
  loop_
  _symmetry_equiv_pos_as_xyz
 x,y,z
_cell_length_a 51.0760
_cell_length_b 51.2649
_cell_length_c 51.7719
_cell_angle_alpha 89.687000
_cell_angle_beta 91.299000
_cell_angle_gamma 90.024600
loop_
  _atom_site_label
  _atom_site_type_symbol
  _atom_site_fract_x
  _atom_site_fract_y
  _atom_site_fract_z
N1 N 0.28213 0.22913 0.20204
 N2 N 0.26986 0.24884 0.19093
 C3 C 0.28125 0.25448 0.16841
 C4 C 0.30199 0.23744 0.16519
 C5 C 0.30191 0.22161 0.18705
 H6 H 0.27495 0.27004 0.15555
 H7 H 0.31544 0.20608 0.19204
 Cu8 Cu 0.24108 0.26619 0.20753
 Cu9 Cu 0.27203 0.21577 0.23564
 Cu10 Cu 0.20952 0.23373 0.25412
 N11 N 0.20666 0.27670 0.21834
 N12 N 0.19411 0.26392 0.23630
 C13 C 0.17110 0.27593 0.24032
 C14 C 0.16912 0.29734 0.22385
 C15 C 0.19212 0.29710 0.21019
 H16 H 0.15707 0.26972 0.25441
 H17 H 0.19822 0.31107 0.19583
 N18 N 0.22905 0.20413 0.26986
 N19 N 0.25318 0.19810 0.26350
 C20 C 0.26175 0.17821 0.27849
 C21 C 0.24207 0.17126 0.29512
 C22 C 0.22160 0.18808 0.28905
 H23 H 0.28082 0.16924 0.27719
 H24 H 0.20294 0.18902 0.29844
 H25 H 0.23390 0.22260 0.22449
 H26 H 0.24748 0.24477 0.24984
 N27 N 0.73637 -0.20869 0.19749
 N28 N 0.74297 -0.23218 0.19007
 C29 C 0.72873 -0.23853 0.16884
 C30 C 0.71193 -0.21795 0.16267
 C31 C 0.71765 -0.19926 0.18133
 H32 H 0.72990 -0.25721 0.15938
 H33 H 0.70823 -0.18063 0.18385
 Cu34 Cu 0.76763 -0.25329 0.21025
 Cu35 Cu 0.74998 -0.19383 0.22952
 Cu36 Cu 0.80133 -0.22637 0.26026
 N37 N 0.79880 -0.26955 0.22523
 N38 N 0.81179 -0.25927 0.24484
 C39 C 0.83238 -0.27464 0.25107
 C40 C 0.83245 -0.29579 0.23433
 C41 C 0.81069 -0.29171 0.21820
 H42 H 0.84633 -0.27044 0.26649
 H43 H 0.80386 -0.30374 0.20237
 N44 N 0.78758 -0.19267 0.27234
 N45 N 0.76903 -0.17957 0.25970
 C46 C 0.76427 -0.15725 0.27234
 C47 C 0.78019 -0.15653 0.29422
 C48 C 0.79465 -0.17929 0.29372
 H49 H 0.74937 -0.14317 0.26687
 H50 H 0.80902 -0.18570 0.30804
 H51 H 0.78566 -0.21231 0.22583
 H52 H 0.76272 -0.22719 0.24931
 N53 N 0.72430 0.22259 0.79392
 N54 N 0.73074 0.24662 0.80002
 C55 C 0.71529 0.25483 0.81912
 C56 C 0.69814 0.23484 0.82521
 C57 C 0.70456 0.21470 0.80879
 H58 H 0.71631 0.27400 0.82769
 H59 H 0.69571 0.19557 0.80779
 Cu60 Cu 0.75849 0.26502 0.78232
 Cu61 Cu 0.74156 0.20334 0.76697
 Cu62 Cu 0.79781 0.23079 0.74322
 N63 N 0.79225 0.27829 0.77161
 N64 N 0.80822 0.26423 0.75784
 C65 C 0.83040 0.27778 0.75416
 C66 C 0.82810 0.30197 0.76586
 C67 C 0.80349 0.30148 0.77675
 H68 H 0.84646 0.27091 0.74279
 H69 H 0.79452 0.31658 0.78804
 N70 N 0.78353 0.19733 0.73072
 N71 N 0.76187 0.18702 0.73964
 C72 C 0.75607 0.16529 0.72622
 C73 C 0.77495 0.16170 0.70778
 C74 C 0.79211 0.18243 0.71132
 H75 H 0.73898 0.15336 0.72930
 H76 H 0.80900 0.18698 0.69995
 H77 H 0.77674 0.22199 0.77567
 H78 H 0.75777 0.23435 0.74660
 N79 N 0.27423 -0.22111 0.79651
 N80 N 0.26304 -0.24146 0.80711
 C81 C 0.27585 -0.24742 0.82940
 C82 C 0.29623 -0.22981 0.83295
 C83 C 0.29453 -0.21342 0.81158
 H84 H 0.27080 -0.26351 0.84192
 H85 H 0.30746 -0.19747 0.80688
 Cu86 Cu 0.23370 -0.25898 0.79005
 Cu87 Cu 0.26275 -0.20712 0.76319
 Cu88 Cu 0.20110 -0.22718 0.74209
 N89 N 0.19930 -0.27016 0.77782
 N90 N 0.18656 -0.25763 0.75927
 C91 C 0.16377 -0.26995 0.75417
 C92 C 0.16196 -0.29150 0.77048
 C93 C 0.18501 -0.29079 0.78531
 H94 H 0.14985 -0.26375 0.73938
 H95 H 0.19132 -0.30443 0.80015
 N96 N 0.21947 -0.19701 0.72712
 N97 N 0.24314 -0.18977 0.73484
 C98 C 0.25075 -0.16929 0.72047
 C99 C 0.23098 -0.16332 0.70263
 C100 C 0.21144 -0.18138 0.70751
 H101 H 0.26947 -0.15966 0.72277
 H102 H 0.19284 -0.18327 0.69736
 H103 H 0.22498 -0.21552 0.77296
 H104 H 0.23936 -0.23711 0.74812
 N105 N 0.73657 -0.22068 0.81621
 N106 N 0.74633 -0.24341 0.82329
 C107 C 0.73268 -0.25279 0.84327
 C108 C 0.71339 -0.23492 0.84910
 C109 C 0.71657 -0.21472 0.83159
 H110 H 0.73601 -0.27153 0.85242
 H111 H 0.70419 -0.19773 0.82916
 Cu112 Cu 0.77450 -0.25925 0.80422
 Cu113 Cu 0.74772 -0.20234 0.78522
 Cu114 Cu 0.79453 -0.23335 0.74854
 N115 N 0.80269 -0.27509 0.78514
 N116 N 0.80944 -0.26554 0.76267
 C117 C 0.82868 -0.28025 0.75306
 C118 C 0.83471 -0.30008 0.77061
 C119 C 0.81769 -0.29605 0.79080
 H120 H 0.83814 -0.27612 0.73504
 H121 H 0.81604 -0.30763 0.80818
 N122 N 0.77751 -0.20036 0.73804
 N123 N 0.76120 -0.18760 0.75285
 C124 C 0.75436 -0.16503 0.74105
 C125 C 0.76667 -0.16379 0.71758
 C126 C 0.78109 -0.18648 0.71626
 H127 H 0.74076 -0.15093 0.74847
 H128 H 0.79356 -0.19220 0.70067
 H129 H 0.75849 -0.23565 0.76607
 H130 H 0.78511 -0.21778 0.78381
 N131 N 0.27693 0.21999 0.79421
 N132 N 0.26754 0.24303 0.80004
 C133 C 0.28077 0.25243 0.82073
 C134 C 0.29947 0.23428 0.82841
 C135 C 0.29642 0.21388 0.81114
 H136 H 0.27694 0.27104 0.82961
 H137 H 0.30791 0.19619 0.81055
 Cu138 Cu 0.23901 0.25882 0.78020
 Cu139 Cu 0.26374 0.20040 0.76445
 Cu140 Cu 0.20695 0.22383 0.73471
 N141 N 0.20475 0.26910 0.76688
 N142 N 0.19220 0.25556 0.74904
 C143 C 0.16933 0.26750 0.74311
 C144 C 0.16739 0.28966 0.75820
 C145 C 0.19029 0.28996 0.77306
 H146 H 0.15517 0.26051 0.72894
 H147 H 0.19628 0.30448 0.78705
 N148 N 0.22514 0.19219 0.72313
 N149 N 0.24712 0.18360 0.73404
 C150 C 0.25561 0.16285 0.72075
 C151 C 0.23800 0.15801 0.70063
 C152 C 0.21890 0.17695 0.70280
 H153 H 0.27338 0.15213 0.72524
 H154 H 0.20223 0.17998 0.68990
 H155 H 0.24618 0.23043 0.74345
 H156 H 0.22628 0.21462 0.76913
 N157 N 0.26662 -0.21850 0.18978
 N158 N 0.25349 -0.23747 0.17844
 C159 C 0.26666 -0.24547 0.15766
 C160 C 0.28942 -0.23102 0.15620
 C161 C 0.28885 -0.21416 0.17694
 H162 H 0.26040 -0.26084 0.14470
 H163 H 0.30317 -0.19933 0.18182
 Cu164 Cu 0.22090 -0.25027 0.19249
 Cu165 Cu 0.25288 -0.19942 0.21903
 Cu166 Cu 0.19255 -0.21947 0.24158
 N167 N 0.18801 -0.26245 0.20640
 N168 N 0.17633 -0.24951 0.22472
 C169 C 0.15413 -0.26203 0.23090
 C170 C 0.15205 -0.28423 0.21596
 C171 C 0.17390 -0.28394 0.20067
 H172 H 0.14122 -0.25627 0.24612
 H173 H 0.17923 -0.29853 0.18674
 N174 N 0.21222 -0.18975 0.25628
 N175 N 0.23544 -0.18249 0.24817
 C176 C 0.24409 -0.16237 0.26268
 C177 C 0.22546 -0.15666 0.28090
 C178 C 0.20555 -0.17450 0.27616
 H179 H 0.26265 -0.15268 0.26018
 H180 H 0.18765 -0.17659 0.28667
 H181 H 0.23077 -0.22954 0.23386
 H182 H 0.21404 -0.20701 0.21036
 N183 N 0.73238 0.21283 0.20358
 N184 N 0.74629 0.22963 0.19037
 C185 C 0.73246 0.23703 0.16909
 C186 C 0.70850 0.22442 0.16924
 C187 C 0.70913 0.20925 0.19140
 H188 H 0.73889 0.25129 0.15512
 H189 H 0.69377 0.19657 0.19816
 Cu190 Cu 0.78011 0.24212 0.20322
 Cu191 Cu 0.74537 0.19659 0.23543
 Cu192 Cu 0.80020 0.22462 0.26332
 N193 N 0.80732 0.26133 0.22200
 N194 N 0.81446 0.25476 0.24569
 C195 C 0.83236 0.27186 0.25466
 C196 C 0.83683 0.29019 0.23557
 C197 C 0.82067 0.28284 0.21499
 H198 H 0.84148 0.27101 0.27369
 H199 H 0.81819 0.29283 0.19665
 N200 N 0.78299 0.19390 0.27809
 N201 N 0.76193 0.18312 0.26754
 C202 C 0.75485 0.16253 0.28211
 C203 C 0.77238 0.16024 0.30287
 C204 C 0.78991 0.18055 0.29959
 H205 H 0.73829 0.15006 0.27778
 H206 H 0.80642 0.18546 0.31203
 H207 H 0.76388 0.23085 0.24539
 H208 H 0.78473 0.20434 0.23163
 C209 C 0.22310 -0.01658 0.51641
 C210 C 0.22864 0.01043 0.51721
 C211 C 0.23177 0.02423 0.49400
 C212 C 0.22861 0.01193 0.46996
 C213 C 0.22293 -0.01506 0.46916
 C214 C 0.22037 -0.02893 0.49240
 H215 H 0.21660 -0.04975 0.49178
 H216 H 0.23532 0.04508 0.49463
 C217 C 0.75306 -0.02012 0.48300
 C218 C 0.75503 0.00741 0.48299
 C219 C 0.75603 0.02069 0.50662
 C220 C 0.75442 0.00739 0.53030
 C221 C 0.75170 -0.02009 0.53038
 C222 C 0.75135 -0.03337 0.50672
 H223 H 0.75052 -0.05450 0.50683
 H224 H 0.75744 0.04180 0.50658
 C225 C 0.52655 0.23942 -0.01499
 C226 C 0.52839 0.23648 0.01220
 C227 C 0.50529 0.23296 0.02607
 C228 C 0.48058 0.23237 0.01367
 C229 C 0.47882 0.23574 -0.01339
 C230 C 0.50177 0.23928 -0.02730
 H231 H 0.50036 0.24144 -0.04815
 H232 H 0.50653 0.23045 0.04688
 C233 C 0.52566 0.75862 0.01613
 C234 C 0.52466 0.75849 -0.01111
 C235 C 0.50038 0.75672 -0.02407
 C236 C 0.47690 0.75527 -0.01048
 C237 C 0.47783 0.75499 0.01691
 C238 C 0.50232 0.75681 0.02976
 H239 H 0.50329 0.75707 0.05070
 H240 H 0.49971 0.75695 -0.04502
 C241 C 0.01312 0.47588 0.23652
 C242 C -0.01447 0.47633 0.23738
 C243 C -0.02742 0.50030 0.23923
 C244 C -0.01361 0.52399 0.23986
 C245 C 0.01410 0.52365 0.23885
 C246 C 0.02699 0.49950 0.23720
 H247 H 0.04817 0.49903 0.23628
 H248 H -0.04864 0.50053 0.23984
 C249 C 0.01818 0.47392 0.77332
 C250 C -0.00943 0.47362 0.76979
 C251 C -0.02301 0.49750 0.76927
 C252 C -0.00997 0.52134 0.77272
 C253 C 0.01747 0.52157 0.77649
 C254 C 0.03114 0.49786 0.77661
 H255 H 0.05230 0.49807 0.77895
 H256 H -0.04419 0.49756 0.76732
 C257 C 0.32076 0.25717 0.12506
 C258 C 0.33910 0.25737 0.10544
 C259 C 0.35783 0.23760 0.10401
 C260 C 0.35780 0.21724 0.12230
 C261 C 0.33946 0.21700 0.14195
 C262 C 0.32084 0.23710 0.14374
 N263 N 0.37720 0.23916 0.08447
 N264 N 0.39505 0.22204 0.08242
 C265 C 0.41508 0.22405 0.06359
 C266 C 0.43481 0.20514 0.06351
 C267 C 0.45575 0.20751 0.04677
 C268 C 0.45716 0.22881 0.02970
 C269 C 0.43703 0.24746 0.02929
 C270 C 0.41610 0.24511 0.04611
 H271 H 0.30687 0.27304 0.12573
 H272 H 0.33896 0.27320 0.09150
 H273 H 0.37209 0.20169 0.12160
 H274 H 0.34007 0.20110 0.15576
 H275 H 0.43426 0.18885 0.07689
 H276 H 0.47109 0.19291 0.04738
 H277 H 0.43792 0.26422 0.01651
 H278 H 0.40109 0.26002 0.04585
 C279 C 0.67507 0.80454 0.14095
 C280 C 0.65406 0.80445 0.12321
 C281 C 0.64951 0.78294 0.10730
 C282 C 0.66672 0.76163 0.10875
 C283 C 0.68773 0.76159 0.12654
 C284 C 0.69198 0.78285 0.14335
 N285 N 0.62664 0.78277 0.09081
 N286 N 0.62136 0.76406 0.07551
 C287 C 0.59778 0.76361 0.06003
 C288 C 0.59373 0.74324 0.04250
 C289 C 0.57038 0.74168 0.02796
 C290 C 0.55074 0.76052 0.03088
 C291 C 0.55482 0.78098 0.04839
 C292 C 0.57820 0.78261 0.06280
 H293 H 0.67746 0.82152 0.15305
 H294 H 0.64094 0.82104 0.12220
 H295 H 0.66363 0.74478 0.09655
 H296 H 0.70022 0.74458 0.12722
 H297 H 0.60859 0.72841 0.04030
 H298 H 0.56746 0.72560 0.01473
 H299 H 0.53987 0.79568 0.05087
 H300 H 0.58080 0.79848 0.07631
 C301 C 0.65769 0.21542 -0.15621
 C302 C 0.63800 0.21500 -0.13802
 C303 C 0.63727 0.23380 -0.11865
 C304 C 0.65655 0.25334 -0.11763
 C305 C 0.67636 0.25385 -0.13593
 C306 C 0.67719 0.23479 -0.15539
 N307 N 0.61657 0.23239 -0.10056
 N308 N 0.61393 0.24827 -0.08199
 C309 C 0.59247 0.24566 -0.06476
 C310 C 0.58950 0.26363 -0.04473
 C311 C 0.56824 0.26166 -0.02817
 C312 C 0.54977 0.24157 -0.03150
 C313 C 0.55293 0.22349 -0.05142
 C314 C 0.57405 0.22546 -0.06786
 H315 H 0.65736 0.20065 -0.17104
 H316 H 0.62314 0.19993 -0.13904
 H317 H 0.65631 0.26811 -0.10277
 H318 H 0.69111 0.26897 -0.13465
 H319 H 0.60354 0.27928 -0.04211
 H320 H 0.56602 0.27591 -0.01301
 H321 H 0.53896 0.20780 -0.05422
 H322 H 0.57585 0.21123 -0.08309
 C323 C 0.33276 0.79261 -0.14286
 C324 C 0.35266 0.79275 -0.12395
 C325 C 0.35664 0.77118 -0.10773
 C326 C 0.34006 0.74944 -0.11024
 C327 C 0.32006 0.74924 -0.12920
 C328 C 0.31639 0.77073 -0.14596
 N329 N 0.37831 0.77169 -0.08974
 N330 N 0.38369 0.75315 -0.07404
 C331 C 0.40633 0.75437 -0.05720
 C332 C 0.41153 0.73393 -0.03973
 C333 C 0.43426 0.73422 -0.02405
 C334 C 0.45205 0.75502 -0.02577
 C335 C 0.44666 0.77559 -0.04305
 C336 C 0.42400 0.77535 -0.05856
 H337 H 0.33038 0.80965 -0.15508
 H338 H 0.36531 0.80964 -0.12215
 H339 H 0.34284 0.73250 -0.09791
 H340 H 0.30792 0.73203 -0.13105
 H341 H 0.39814 0.71761 -0.03853
 H342 H 0.43820 0.71810 -0.01093
 H343 H 0.46013 0.79183 -0.04460
 H344 H 0.42053 0.79139 -0.07188
 C345 C 0.14677 0.33472 0.20106
 C346 C 0.12804 0.35453 0.20003
 C347 C 0.11017 0.35730 0.21986
 C348 C 0.11079 0.33953 0.24063
 C349 C 0.12955 0.31962 0.24170
 C350 C 0.14803 0.31723 0.22209
 N351 N 0.09251 0.37898 0.21883
 N352 N 0.07562 0.38314 0.23604
 C353 C 0.05901 0.40568 0.23499
 C354 C 0.04060 0.40927 0.25428
 C355 C 0.02523 0.43185 0.25456
 C356 C 0.02811 0.45116 0.23547
 C357 C 0.04631 0.44738 0.21595
 C358 C 0.06159 0.42481 0.21563
 H359 H 0.16034 0.33330 0.18540
 H360 H 0.12771 0.36807 0.18389
 H361 H 0.09715 0.34133 0.25622
 H362 H 0.12996 0.30659 0.25821
 H363 H 0.03850 0.39476 0.26936
 H364 H 0.01154 0.43454 0.26998
 H365 H 0.04881 0.46204 0.20105
 H366 H 0.07570 0.42255 0.20052
 C367 C 0.12043 0.69055 0.75342
 C368 C 0.10116 0.67115 0.75342
 C369 C 0.10261 0.65055 0.77116
 C370 C 0.12346 0.64970 0.78928
 C371 C 0.14283 0.66895 0.78927
 C372 C 0.14184 0.68961 0.77115
 N373 N 0.08336 0.63022 0.76976
 N374 N 0.08328 0.61148 0.78598
 C375 C 0.06502 0.59032 0.78421
 C376 C 0.06643 0.57055 0.80290
 C377 C 0.05039 0.54857 0.80076
 C378 C 0.03261 0.54606 0.77984
 C379 C 0.03075 0.56619 0.76136
 C380 C 0.04681 0.58822 0.76354
 H381 H 0.11854 0.70592 0.73913
 H382 H 0.08520 0.67201 0.73932
 H383 H 0.12505 0.63394 0.80323
 H384 H 0.15857 0.66729 0.80347
 H385 H 0.08041 0.57192 0.81887
 H386 H 0.05214 0.53328 0.81522
 H387 H 0.01749 0.56447 0.74485
 H388 H 0.04547 0.60322 0.74878
 C389 C -0.15211 0.66371 0.21477
 C390 C -0.13439 0.64305 0.21403
 C391 C -0.11368 0.64133 0.23199
 C392 C -0.11070 0.66068 0.25088
 C393 C -0.12840 0.68151 0.25168
 C394 C -0.14950 0.68336 0.23364
 N395 N -0.09630 0.61953 0.23055
 N396 N -0.07714 0.61575 0.24627
 C397 C -0.06060 0.59331 0.24401
 C398 C -0.04051 0.58890 0.26239
 C399 C -0.02483 0.56654 0.26103
 C400 C -0.02904 0.54842 0.24110
 C401 C -0.04894 0.55308 0.22253
 C402 C -0.06457 0.57529 0.22392
 H403 H -0.16777 0.66399 0.20039
 H404 H -0.13687 0.62819 0.19938
 H405 H -0.09477 0.65970 0.26502
 H406 H -0.12542 0.69597 0.26658
 H407 H -0.03726 0.60259 0.27799
 H408 H -0.00973 0.56318 0.27568
 H409 H -0.05245 0.53939 0.20695
 H410 H -0.07988 0.57822 0.20940
 C411 C -0.16115 0.34796 0.77332
 C412 C -0.14332 0.36860 0.77261
 C413 C -0.11744 0.36429 0.76562
 C414 C -0.10957 0.33913 0.75871
 C415 C -0.12759 0.31858 0.75850
 C416 C -0.15367 0.32262 0.76599
 N417 N -0.09967 0.38584 0.76518
 N418 N -0.07517 0.38299 0.76922
 C419 C -0.05783 0.40484 0.76805
 C420 C -0.03647 0.40630 0.78536
 C421 C -0.02054 0.42849 0.78591
 C422 C -0.02500 0.44907 0.76823
 C423 C -0.04591 0.44696 0.75019
 C424 C -0.06239 0.42522 0.75033
 H425 H -0.18097 0.35223 0.77887
 H426 H -0.14960 0.38801 0.77784
 H427 H -0.08963 0.33550 0.75304
 H428 H -0.12077 0.29949 0.75296
 H429 H -0.03289 0.39075 0.79923
 H430 H -0.00523 0.42983 0.80063
 H431 H -0.04978 0.46240 0.73626
 H432 H -0.07869 0.42426 0.73663
 C433 C 0.26724 0.14244 0.32604
 C434 C 0.26819 0.12354 0.34560
 C435 C 0.24512 0.11241 0.35467
 C436 C 0.22090 0.12050 0.34398
 C437 C 0.21989 0.13967 0.32464
 C438 C 0.24306 0.15082 0.31545
 N439 N 0.24680 0.09355 0.37516
 N440 N 0.22706 0.08037 0.38221
 C441 C 0.22853 0.06223 0.40335
 C442 C 0.20677 0.04656 0.40841
 C443 C 0.20706 0.02962 0.42966
 C444 C 0.22914 0.02825 0.44627
 C445 C 0.25105 0.04379 0.44110
 C446 C 0.25085 0.06055 0.41970
 H447 H 0.28543 0.15083 0.31960
 H448 H 0.28697 0.11758 0.35379
 H449 H 0.20277 0.11227 0.35077
 H450 H 0.20099 0.14558 0.31676
 H451 H 0.18943 0.04776 0.39604
 H452 H 0.18980 0.01808 0.43354
 H453 H 0.26820 0.04308 0.45378
 H454 H 0.26786 0.07257 0.41626
 C455 C 0.79716 0.13911 0.67129
 C456 C 0.79712 0.12085 0.65135
 C457 C 0.77554 0.10452 0.64711
 C458 C 0.75400 0.10632 0.66338
 C459 C 0.75399 0.12458 0.68334
 C460 C 0.77547 0.14141 0.68740
 N461 N 0.77570 0.08698 0.62569
 N462 N 0.75682 0.07150 0.62056
 C463 C 0.75700 0.05472 0.59852
 C464 C 0.73577 0.03795 0.59387
 C465 C 0.73493 0.02219 0.57187
 C466 C 0.75544 0.02302 0.55427
 C467 C 0.77679 0.03969 0.55906
 C468 C 0.77764 0.05535 0.58102
 H469 H 0.81417 0.15148 0.67387
 H470 H 0.81385 0.11963 0.63893
 H471 H 0.73705 0.09391 0.66046
 H472 H 0.73687 0.12572 0.69519
 H473 H 0.71970 0.03736 0.60715
 H474 H 0.71816 0.00967 0.56837
 H475 H 0.79279 0.04059 0.54570
 H476 H 0.79425 0.06816 0.58412
 C477 C 0.25227 -0.12530 0.68036
 C478 C 0.25273 -0.10653 0.66068
 C479 C 0.23213 -0.10477 0.64251
 C480 C 0.21076 -0.12188 0.64441
 C481 C 0.21025 -0.14066 0.66407
 C482 C 0.23110 -0.14277 0.68222
 N483 N 0.23371 -0.08604 0.62195
 N484 N 0.21570 -0.08373 0.60471
 C485 C 0.21741 -0.06565 0.58363
 C486 C 0.19713 -0.06500 0.56501
 C487 C 0.19877 -0.04868 0.54342
 C488 C 0.22073 -0.03260 0.54019
 C489 C 0.24091 -0.03292 0.55909
 C490 C 0.23927 -0.04930 0.58069
 H491 H 0.26863 -0.12609 0.69395
 H492 H 0.26932 -0.09346 0.65942
 H493 H 0.19457 -0.12093 0.63058
 H494 H 0.19360 -0.15364 0.66472
 H495 H 0.18021 -0.07751 0.56706
 H496 H 0.18298 -0.04871 0.52909
 H497 H 0.25819 -0.02095 0.55682
 H498 H 0.25524 -0.04951 0.59480
 C499 C 0.77660 -0.11038 0.30886
 C500 C 0.77478 -0.09195 0.32856
 C501 C 0.77487 -0.09997 0.35443
 C502 C 0.77795 -0.12654 0.36054
 C503 C 0.78066 -0.14487 0.34092
 C504 C 0.77955 -0.13697 0.31492
 N505 N 0.77163 -0.08101 0.37426
 N506 N 0.76049 -0.08698 0.39521
 C507 C 0.75791 -0.06889 0.41591
 C508 C 0.73861 -0.07327 0.43414
 C509 C 0.73638 -0.05676 0.45532
 C510 C 0.75394 -0.03590 0.45899
 C511 C 0.77339 -0.03158 0.44062
 C512 C 0.77512 -0.04771 0.41903
 H513 H 0.77578 -0.10391 0.28891
 H514 H 0.77251 -0.07151 0.32365
 H515 H 0.77833 -0.13305 0.38048
 H516 H 0.78277 -0.16529 0.34600
 H517 H 0.72529 -0.08960 0.43193
 H518 H 0.72119 -0.06054 0.46911
 H519 H 0.78769 -0.01618 0.44331
 H520 H 0.79045 -0.04425 0.40532
 C521 C 0.68411 0.73702 -0.12421
 C522 C 0.66298 0.73407 -0.10776
 C523 C 0.64973 0.75593 -0.09867
 C524 C 0.65797 0.78097 -0.10612
 C525 C 0.67888 0.78395 -0.12286
 C526 C 0.69209 0.76200 -0.13218
 N527 N 0.62751 0.75216 -0.08269
 N528 N 0.61665 0.77094 -0.07105
 C529 C 0.59384 0.76723 -0.05587
 C530 C 0.58561 0.78748 -0.03995
 C531 C 0.56320 0.78459 -0.02520
 C532 C 0.54853 0.76146 -0.02648
 C533 C 0.55658 0.74124 -0.04262
 C534 C 0.57922 0.74399 -0.05708
 H535 H 0.69368 0.71971 -0.13124
 H536 H 0.65675 0.71467 -0.10223
 H537 H 0.64797 0.79818 -0.09941
 H538 H 0.68468 0.80344 -0.12852
 H539 H 0.59664 0.80551 -0.03894
 H540 H 0.55714 0.80044 -0.01294
 H541 H 0.54544 0.72329 -0.04382
 H542 H 0.58509 0.72814 -0.06939
 C543 C 0.32661 0.26151 -0.14118
 C544 C 0.34575 0.26397 -0.12165
 C545 C 0.35744 0.24182 -0.11053
 C546 C 0.34972 0.21697 -0.11917
 C547 C 0.33080 0.21448 -0.13898
 C548 C 0.31909 0.23674 -0.15024
 N549 N 0.37792 0.24519 -0.09150
 N550 N 0.38729 0.22629 -0.07820
 C551 C 0.40882 0.22981 -0.06033
 C552 C 0.41663 0.20900 -0.04431
 C553 C 0.43885 0.21123 -0.02815
 C554 C 0.45366 0.23430 -0.02804
 C555 C 0.44554 0.25534 -0.04370
 C556 C 0.42320 0.25321 -0.05961
 H557 H 0.31819 0.27905 -0.14960
 H558 H 0.35168 0.28321 -0.11528
 H559 H 0.35862 0.19956 -0.11096
 H560 H 0.32530 0.19514 -0.14542
 H561 H 0.40579 0.19084 -0.04476
 H562 H 0.44500 0.19469 -0.01641
 H563 H 0.45681 0.27325 -0.04392
 H564 H 0.41765 0.26955 -0.07188
 C565 C 0.30283 0.76239 0.11056
 C566 C 0.32213 0.76105 0.09186
 C567 C 0.34861 0.76344 0.09899
 C568 C 0.35562 0.76788 0.12500
 C569 C 0.33630 0.77006 0.14356
 C570 C 0.30977 0.76710 0.13653
 N571 N 0.36810 0.76175 0.07962
 N572 N 0.39110 0.75367 0.08519
 C573 C 0.41143 0.75302 0.06664
 C574 C 0.43264 0.73623 0.07095
 C575 C 0.45359 0.73617 0.05411
 C576 C 0.45403 0.75347 0.03294
 C577 C 0.43267 0.77039 0.02866
 C578 C 0.41132 0.76988 0.04515
 H579 H 0.28246 0.76023 0.10468
 H580 H 0.31648 0.75776 0.07185
 H581 H 0.37598 0.77005 0.13085
 H582 H 0.34209 0.77364 0.16349
 H583 H 0.43298 0.72324 0.08752
 H584 H 0.46975 0.72292 0.05789
 H585 H 0.43279 0.78451 0.01305
 H586 H 0.39527 0.78334 0.04175
 C587 C 0.66053 0.22634 0.15939
 C588 C 0.63942 0.22927 0.14202
 C589 C 0.64369 0.23259 0.11562
 C590 C 0.66946 0.23361 0.10673
 C591 C 0.69067 0.23141 0.12424
 C592 C 0.68633 0.22747 0.15068
 N593 N 0.62149 0.23511 0.09845
 N594 N 0.62254 0.23057 0.07435
 C595 C 0.59979 0.23356 0.05791
 C596 C 0.59757 0.21906 0.03513
 C597 C 0.57454 0.22008 0.01995
 C598 C 0.55375 0.23641 0.02692
 C599 C 0.55650 0.25162 0.04932
 C600 C 0.57918 0.25006 0.06479
 H601 H 0.65667 0.22358 0.17971
 H602 H 0.61964 0.22858 0.14908
 H603 H 0.67316 0.23638 0.08639
 H604 H 0.71042 0.23231 0.11709
 H605 H 0.61327 0.20615 0.02970
 H606 H 0.57274 0.20763 0.00319
 H607 H 0.54085 0.26443 0.05508
 H608 H 0.58058 0.26163 0.08219
 C609 C -0.13274 0.67671 0.74520
 C610 C -0.11389 0.65712 0.74306
 C611 C -0.10734 0.64123 0.76422
 C612 C -0.12016 0.64483 0.78762
 C613 C -0.13944 0.66401 0.78969
 C614 C -0.14600 0.68039 0.76853
 N615 N -0.08831 0.62103 0.76127
 N616 N -0.07727 0.60984 0.78063
 C617 C -0.05923 0.58874 0.77774
 C618 C -0.04389 0.58073 0.79908
 C619 C -0.02715 0.55929 0.79723
 C620 C -0.02589 0.54535 0.77405
 C621 C -0.04112 0.55344 0.75259
 C622 C -0.05752 0.57515 0.75432
 H623 H -0.13715 0.68847 0.72826
 H624 H -0.10427 0.65438 0.72485
 H625 H -0.11555 0.63257 0.80420
 H626 H -0.14879 0.66607 0.80809
 H627 H -0.04514 0.59097 0.81725
 H628 H -0.01569 0.55313 0.81404
 H629 H -0.04045 0.54279 0.73461
 H630 H -0.06934 0.58086 0.73762
 C631 C -0.13909 0.32369 0.26172
 C632 C -0.12218 0.34500 0.26377
 C633 C -0.11102 0.35576 0.24174
 C634 C -0.11734 0.34523 0.21736
 C635 C -0.13462 0.32410 0.21524
 C636 C -0.14548 0.31299 0.23745
 N637 N -0.09367 0.37751 0.24476
 N638 N -0.07969 0.38604 0.22651
 C639 C -0.06288 0.40820 0.22993
 C640 C -0.04545 0.41480 0.21046
 C641 C -0.02924 0.43666 0.21307
 C642 C -0.03045 0.45233 0.23518
 C643 C -0.04788 0.44572 0.25471
 C644 C -0.06387 0.42372 0.25221
 H645 H -0.14740 0.31581 0.27916
 H646 H -0.11759 0.35307 0.28262
 H647 H -0.10905 0.35339 0.20004
 H648 H -0.13914 0.31619 0.19630
 H649 H -0.04455 0.40305 0.19319
 H650 H -0.01609 0.44165 0.19768
 H651 H -0.04912 0.45764 0.27185
 H652 H -0.07724 0.41909 0.26751
 C653 C 0.12783 0.31109 0.73745
 C654 C 0.10845 0.33042 0.73716
 C655 C 0.10684 0.34809 0.75758
 C656 C 0.12467 0.34597 0.77857
 C657 C 0.14404 0.32678 0.77884
 C658 C 0.14604 0.30925 0.75820
 N659 N 0.08760 0.36846 0.75638
 N660 N 0.08577 0.38490 0.77458
 C661 C 0.06756 0.40610 0.77407
 C662 C 0.06784 0.42329 0.79494
 C663 C 0.05146 0.44504 0.79477
 C664 C 0.03436 0.44991 0.77369
 C665 C 0.03373 0.43246 0.75284
 C666 C 0.05024 0.41063 0.75301
 H667 H 0.12887 0.29801 0.72118
 H668 H 0.09488 0.33185 0.72085
 H669 H 0.12385 0.35931 0.79466
 H670 H 0.15743 0.32576 0.79531
 H671 H 0.08111 0.41999 0.81124
 H672 H 0.05221 0.45821 0.81106
 H673 H 0.02082 0.43601 0.73631
 H674 H 0.04976 0.39760 0.73663
 C675 C 0.10594 0.70107 0.22241
 C676 C 0.08728 0.68120 0.22448
 C677 C 0.09483 0.65501 0.22296
 C678 C 0.12114 0.64887 0.21850
 C679 C 0.13962 0.66870 0.21561
 C680 C 0.13223 0.69495 0.21784
 N681 N 0.07563 0.63490 0.22581
 N682 N 0.08206 0.61247 0.23447
 C683 C 0.06373 0.59148 0.23643
 C684 C 0.06953 0.57085 0.25337
 C685 C 0.05284 0.54935 0.25479
 C686 C 0.03030 0.54780 0.23876
 C687 C 0.02457 0.56854 0.22163
 C688 C 0.04095 0.59041 0.22075
 H689 H 0.09981 0.72120 0.22408
 H690 H 0.06704 0.68617 0.22781
 H691 H 0.12732 0.62874 0.21701
 H692 H 0.15980 0.66352 0.21225
 H693 H 0.08711 0.57142 0.26545
 H694 H 0.05774 0.53369 0.26816
 H695 H 0.00783 0.56756 0.20848
 H696 H 0.03637 0.60600 0.20721
 C697 C 0.76263 -0.11680 0.70476
 C698 C 0.76119 -0.09731 0.68573
 C699 C 0.76050 -0.10399 0.65954
 C700 C 0.76184 -0.13037 0.65250
 C701 C 0.76410 -0.14977 0.67145
 C702 C 0.76435 -0.14316 0.69772
 N703 N 0.75905 -0.08388 0.64027
 N704 N 0.74889 -0.08836 0.61808
 C705 C 0.74857 -0.06945 0.59767
 C706 C 0.73039 -0.07236 0.57732
 C707 C 0.73080 -0.05554 0.55606
 C708 C 0.74989 -0.03587 0.55447
 C709 C 0.76810 -0.03290 0.57504
 C710 C 0.76722 -0.04934 0.59668
 H711 H 0.76298 -0.11128 0.72492
 H712 H 0.76030 -0.07703 0.69138
 H713 H 0.76162 -0.13593 0.63235
 H714 H 0.76530 -0.16997 0.66558
 H715 H 0.71603 -0.08788 0.57783
 H716 H 0.71651 -0.05825 0.54052
 H717 H 0.78348 -0.01841 0.57405
 H718 H 0.78173 -0.04708 0.61207
 C719 C 0.24929 -0.12093 0.30510
 C720 C 0.25068 -0.10253 0.32496
 C721 C 0.22972 -0.09930 0.34156
 C722 C 0.20707 -0.11450 0.33786
 C723 C 0.20562 -0.13286 0.31803
 C724 C 0.22678 -0.13650 0.30148
 N725 N 0.23211 -0.08112 0.36244
 N726 N 0.21386 -0.07807 0.37848
 C727 C 0.21600 -0.06070 0.40000
 C728 C 0.19562 -0.06009 0.41758
 C729 C 0.19765 -0.04476 0.43974
 C730 C 0.22009 -0.02958 0.44456
 C731 C 0.24032 -0.02966 0.42661
 C732 C 0.23832 -0.04515 0.40446
 H733 H 0.26600 -0.12304 0.29284
 H734 H 0.26827 -0.09097 0.32761
 H735 H 0.19055 -0.11239 0.35041
 H736 H 0.18788 -0.14422 0.31593
 H737 H 0.17834 -0.07199 0.41435
 H738 H 0.18183 -0.04496 0.45333
 H739 H 0.25792 -0.01830 0.43011
 H740 H 0.25435 -0.04532 0.39113
 C741 C 0.79396 0.13890 0.34154
 C742 C 0.79388 0.12107 0.36199
 C743 C 0.77248 0.10456 0.36548
 C744 C 0.75104 0.10586 0.34804
 C745 C 0.75105 0.12377 0.32752
 C746 C 0.77246 0.14066 0.32412
 N747 N 0.77290 0.08725 0.38726
 N748 N 0.75462 0.07108 0.39171
 C749 C 0.75546 0.05458 0.41415
 C750 C 0.73526 0.03659 0.41795
 C751 C 0.73520 0.02091 0.44016
 C752 C 0.75543 0.02307 0.45887
 C753 C 0.77573 0.04102 0.45497
 C754 C 0.77583 0.05658 0.43278
 H755 H 0.81095 0.15125 0.33952
 H756 H 0.81052 0.12021 0.37531
 H757 H 0.73421 0.09330 0.35042
 H758 H 0.73411 0.12457 0.31462
 H759 H 0.71940 0.03494 0.40381
 H760 H 0.71920 0.00739 0.44296
 H761 H 0.79151 0.04297 0.46917
 H762 H 0.79165 0.07037 0.43036
 C763 C 0.26425 0.12804 0.67318
 C764 C 0.26596 0.11009 0.65303
 C765 C 0.24332 0.10142 0.63999
 C766 C 0.21880 0.11090 0.64737
 C767 C 0.21709 0.12915 0.66722
 C768 C 0.23981 0.13798 0.68027
 N769 N 0.24572 0.08384 0.61875
 N770 N 0.22589 0.07238 0.60870
 C771 C 0.22772 0.05578 0.58666
 C772 C 0.20584 0.04101 0.57909
 C773 C 0.20639 0.02573 0.55685
 C774 C 0.22883 0.02521 0.54171
 C775 C 0.25085 0.03991 0.54932
 C776 C 0.25040 0.05496 0.57178
 H777 H 0.28211 0.13464 0.68272
 H778 H 0.28498 0.10304 0.64744
 H779 H 0.20101 0.10460 0.63750
 H780 H 0.19798 0.13629 0.67238
 H781 H 0.18821 0.04162 0.59030
 H782 H 0.18910 0.01477 0.55110
 H783 H 0.26828 0.03983 0.53779
 H784 H 0.26748 0.06638 0.57715
   
