data_POSCAR
  _audit_creation_date              2014-09-24
  _audit_creation_method            'ToBaCCo'
  _symmetry_space_group_name_H-M    'P1'
  _symmetry_Int_Tables_number       1
  _symmetry_cell_setting            triclinic
  loop_
  _symmetry_equiv_pos_as_xyz
 x,y,z
_cell_length_a 45.1009
_cell_length_b 45.1745
_cell_length_c 45.3519
_cell_angle_alpha 89.683100
_cell_angle_beta 89.911600
_cell_angle_gamma 90.794500
loop_
  _atom_site_label
  _atom_site_type_symbol
  _atom_site_fract_x
  _atom_site_fract_y
  _atom_site_fract_z
N1 N 0.26721 0.21206 0.18654
 N2 N 0.25491 0.23598 0.17576
 C3 C 0.27084 0.24564 0.15236
 C4 C 0.29434 0.22664 0.14818
 C5 C 0.29123 0.20557 0.17033
 H6 H 0.26594 0.26523 0.13960
 H7 H 0.30594 0.18748 0.17506
 Cu8 Cu 0.22026 0.25262 0.19471
 Cu9 Cu 0.25259 0.19212 0.22205
 Cu10 Cu 0.19158 0.22304 0.25648
 N11 N 0.18609 0.27003 0.21382
 N12 N 0.17525 0.25849 0.23830
 C13 C 0.15267 0.27515 0.24777
 C14 C 0.14904 0.29838 0.22811
 C15 C 0.17067 0.29440 0.20683
 H16 H 0.13987 0.27068 0.26750
 H17 H 0.17534 0.30867 0.18814
 N18 N 0.21128 0.18718 0.27126
 N19 N 0.23443 0.17540 0.25818
 C20 C 0.24331 0.15187 0.27407
 C21 C 0.22489 0.14862 0.29836
 C22 C 0.20481 0.17140 0.29576
 H23 H 0.26203 0.13829 0.26853
 H24 H 0.18733 0.17669 0.31108
 H25 H 0.20916 0.20532 0.21857
 H26 H 0.23440 0.22918 0.24100
 N27 N 0.73594 -0.20926 0.18505
 N28 N 0.74493 -0.23521 0.17603
 C29 C 0.72720 -0.24464 0.15407
 C30 C 0.70573 -0.22341 0.14888
 C31 C 0.71229 -0.20115 0.16905
 H32 H 0.72963 -0.26564 0.14313
 H33 H 0.70068 -0.18069 0.17242
 Cu34 Cu 0.77856 -0.25424 0.19457
 Cu35 Cu 0.75551 -0.18801 0.21709
 Cu36 Cu 0.80216 -0.23092 0.26023
 N37 N 0.81359 -0.27098 0.21283
 N38 N 0.82258 -0.26193 0.23882
 C39 C 0.84549 -0.27853 0.24767
 C40 C 0.85137 -0.29933 0.22598
 C41 C 0.83059 -0.29355 0.20409
 H42 H 0.85633 -0.27593 0.26874
 H43 H 0.82726 -0.30535 0.18371
 N44 N 0.78720 -0.19220 0.27276
 N45 N 0.76977 -0.17570 0.25631
 C46 C 0.76308 -0.15097 0.27126
 C47 C 0.77724 -0.15182 0.29834
 C48 C 0.79236 -0.17829 0.29842
 H49 H 0.74880 -0.13376 0.26308
 H50 H 0.80567 -0.18712 0.31612
 H51 H 0.79580 -0.21047 0.22106
 H52 H 0.76166 -0.22727 0.23778
 N53 N 0.72578 0.21172 0.80994
 N54 N 0.73961 0.23440 0.82193
 C55 C 0.72407 0.24346 0.84553
 C56 C 0.69917 0.22540 0.84859
 C57 C 0.70107 0.20545 0.82556
 H58 H 0.73030 0.26195 0.85930
 H59 H 0.68526 0.18817 0.82003
 Cu60 Cu 0.77580 0.25067 0.80464
 Cu61 Cu 0.74026 0.19265 0.77439
 Cu62 Cu 0.80558 0.22078 0.74392
 N63 N 0.81197 0.26669 0.78712
 N64 N 0.82344 0.25514 0.76325
 C65 C 0.84705 0.27165 0.75470
 C66 C 0.85067 0.29502 0.77429
 C67 C 0.82792 0.29084 0.79467
 H68 H 0.86006 0.26718 0.73524
 H69 H 0.82246 0.30492 0.81297
 N70 N 0.78396 0.18626 0.72765
 N71 N 0.75854 0.17632 0.73860
 C72 C 0.74833 0.15405 0.72163
 C73 C 0.76841 0.14950 0.69912
 C74 C 0.79077 0.17023 0.70366
 H75 H 0.72785 0.14187 0.72536
 H76 H 0.81008 0.17392 0.68988
 H77 H 0.78444 0.20346 0.78062
 H78 H 0.76265 0.22923 0.75707
 N79 N 0.27260 -0.21267 0.81538
 N80 N 0.26007 -0.23698 0.82586
 C81 C 0.27597 -0.24677 0.84898
 C82 C 0.29961 -0.22741 0.85331
 C83 C 0.29668 -0.20600 0.83161
 H84 H 0.27095 -0.26660 0.86156
 H85 H 0.31161 -0.18756 0.82723
 Cu86 Cu 0.22495 -0.25384 0.80725
 Cu87 Cu 0.25819 -0.19261 0.78015
 Cu88 Cu 0.19605 -0.22335 0.74641
 N89 N 0.18980 -0.27067 0.78865
 N90 N 0.17906 -0.25897 0.76443
 C91 C 0.15601 -0.27560 0.75506
 C92 C 0.15182 -0.29914 0.77455
 C93 C 0.17376 -0.29504 0.79572
 H94 H 0.14340 -0.27074 0.73543
 H95 H 0.17848 -0.30921 0.81432
 N96 N 0.21642 -0.18734 0.73167
 N97 N 0.24018 -0.17575 0.74432
 C98 C 0.24953 -0.15216 0.72836
 C99 C 0.23065 -0.14865 0.70461
 C100 C 0.20991 -0.17132 0.70749
 H101 H 0.26877 -0.13863 0.73350
 H102 H 0.19196 -0.17635 0.69249
 H103 H 0.21455 -0.20623 0.78438
 H104 H 0.23895 -0.22957 0.76108
 N105 N 0.73485 -0.21276 0.81569
 N106 N 0.74315 -0.23951 0.82333
 C107 C 0.72523 -0.24986 0.84487
 C108 C 0.70470 -0.22834 0.85135
 C109 C 0.71163 -0.20496 0.83252
 H110 H 0.72691 -0.27148 0.85502
 H111 H 0.70003 -0.18426 0.83043
 Cu112 Cu 0.77626 -0.25835 0.80394
 Cu113 Cu 0.75430 -0.19078 0.78366
 Cu114 Cu 0.79711 -0.23434 0.73750
 N115 N 0.81109 -0.27424 0.78469
 N116 N 0.81859 -0.26537 0.75806
 C117 C 0.84135 -0.28163 0.74839
 C118 C 0.84891 -0.30180 0.77033
 C119 C 0.82915 -0.29616 0.79316
 H120 H 0.85131 -0.27887 0.72685
 H121 H 0.82702 -0.30787 0.81390
 N122 N 0.78292 -0.19486 0.72629
 N123 N 0.76703 -0.17803 0.74381
 C124 C 0.76093 -0.15256 0.72955
 C125 C 0.77402 -0.15330 0.70190
 C126 C 0.78775 -0.18046 0.70069
 H127 H 0.74796 -0.13482 0.73863
 H128 H 0.80004 -0.18931 0.68233
 H129 H 0.75787 -0.22972 0.76213
 H130 H 0.79344 -0.21453 0.77704
 N131 N 0.26591 0.21182 0.81527
 N132 N 0.25358 0.23576 0.82577
 C133 C 0.26939 0.24536 0.84913
 C134 C 0.29283 0.22630 0.85358
 C135 C 0.28979 0.20526 0.83165
 H136 H 0.26451 0.26498 0.86166
 H137 H 0.30456 0.18720 0.82712
 Cu138 Cu 0.21911 0.25257 0.80648
 Cu139 Cu 0.25170 0.19212 0.77974
 Cu140 Cu 0.19119 0.22317 0.74458
 N141 N 0.18483 0.26971 0.78712
 N142 N 0.17457 0.25845 0.76242
 C143 C 0.15211 0.27511 0.75259
 C144 C 0.14788 0.29797 0.77227
 C145 C 0.16901 0.29381 0.79397
 H146 H 0.13976 0.27092 0.73259
 H147 H 0.17311 0.30786 0.81279
 N148 N 0.21109 0.18742 0.73015
 N149 N 0.23407 0.17557 0.74352
 C150 C 0.24311 0.15209 0.72786
 C151 C 0.22494 0.14892 0.70347
 C152 C 0.20487 0.17173 0.70573
 H153 H 0.26172 0.13844 0.73366
 H154 H 0.18753 0.17704 0.69024
 H155 H 0.23374 0.22930 0.76044
 H156 H 0.20818 0.20539 0.78285
 N157 N 0.27022 -0.20730 0.18689
 N158 N 0.25580 -0.22916 0.17407
 C159 C 0.27149 -0.23817 0.15051
 C160 C 0.29708 -0.22085 0.14841
 C161 C 0.29541 -0.20155 0.17194
 H162 H 0.26481 -0.25601 0.13608
 H163 H 0.31171 -0.18502 0.17827
 Cu164 Cu 0.21814 -0.24405 0.18968
 Cu165 Cu 0.25609 -0.18842 0.22252
 Cu166 Cu 0.19419 -0.21966 0.25571
 N167 N 0.18610 -0.26396 0.21115
 N168 N 0.17723 -0.25464 0.23706
 C169 C 0.15571 -0.27289 0.24731
 C170 C 0.15065 -0.29484 0.22669
 C171 C 0.17033 -0.28841 0.20395
 H172 H 0.14452 -0.27031 0.26822
 H173 H 0.17350 -0.30101 0.18401
 N174 N 0.21449 -0.18415 0.27112
 N175 N 0.23838 -0.17244 0.25865
 C176 C 0.24793 -0.14938 0.27495
 C177 C 0.22904 -0.14631 0.29878
 C178 C 0.20805 -0.16870 0.29556
 H179 H 0.26727 -0.13588 0.26995
 H180 H 0.18999 -0.17393 0.31047
 H181 H 0.23548 -0.22689 0.23741
 H182 H 0.21150 -0.19910 0.21850
 N183 N 0.72551 0.21343 0.18858
 N184 N 0.73893 0.23686 0.17721
 C185 C 0.72310 0.24667 0.15404
 C186 C 0.69854 0.22829 0.15060
 C187 C 0.70086 0.20741 0.17293
 H188 H 0.72903 0.26567 0.14060
 H189 H 0.68542 0.18954 0.17786
 Cu190 Cu 0.77557 0.25217 0.19418
 Cu191 Cu 0.74057 0.19293 0.22329
 Cu192 Cu 0.80680 0.21937 0.25282
 N193 N 0.81230 0.26730 0.21110
 N194 N 0.82450 0.25437 0.23401
 C195 C 0.84874 0.27006 0.24212
 C196 C 0.85198 0.29414 0.22323
 C197 C 0.82841 0.29155 0.20381
 H198 H 0.86262 0.26460 0.26073
 H199 H 0.82274 0.30684 0.18638
 N200 N 0.78524 0.18441 0.26872
 N201 N 0.75946 0.17515 0.25822
 C202 C 0.74919 0.15265 0.27516
 C203 C 0.76963 0.14726 0.29714
 C204 C 0.79226 0.16768 0.29233
 H205 H 0.72834 0.14105 0.27190
 H206 H 0.81178 0.17084 0.30582
 H207 H 0.76361 0.22849 0.24123
 H208 H 0.78465 0.20379 0.21615
 C209 C 0.24885 -0.01487 0.52870
 C210 C 0.24646 0.01622 0.52863
 C211 C 0.24540 0.03148 0.50169
 C212 C 0.24625 0.01630 0.47484
 C213 C 0.24862 -0.01479 0.47495
 C214 C 0.25011 -0.03005 0.50187
 H215 H 0.25083 -0.05404 0.50196
 H216 H 0.24309 0.05535 0.50161
 C217 C 0.75330 0.01275 0.52667
 C218 C 0.75839 -0.01800 0.52701
 C219 C 0.76064 -0.03309 0.50017
 C220 C 0.75882 -0.01811 0.47305
 C221 C 0.75372 0.01266 0.47284
 C222 C 0.75044 0.02765 0.49963
 H223 H 0.74758 0.05145 0.49945
 H224 H 0.76414 -0.05680 0.50038
 C225 C 0.47103 0.24814 0.01526
 C226 C 0.47070 0.24733 -0.01579
 C227 C 0.49758 0.24690 -0.03131
 C228 C 0.52481 0.24699 -0.01640
 C229 C 0.52511 0.24805 0.01467
 C230 C 0.49822 0.24875 0.03017
 H231 H 0.49844 0.24850 0.05409
 H232 H 0.49729 0.24545 -0.05517
 C233 C 0.52933 0.76101 0.01732
 C234 C 0.52921 0.75635 -0.01343
 C235 C 0.50213 0.75333 -0.02831
 C236 C 0.47513 0.75561 -0.01320
 C237 C 0.47514 0.76016 0.01754
 C238 C 0.50225 0.76261 0.03247
 H239 H 0.50226 0.76607 0.05612
 H240 H 0.50205 0.75092 -0.05209
 C241 C 0.01593 0.52747 0.24223
 C242 C -0.01515 0.52703 0.23870
 C243 C -0.03030 0.49974 0.23725
 C244 C -0.01504 0.47295 0.23898
 C245 C 0.01602 0.47348 0.24247
 C246 C 0.03117 0.50071 0.24430
 H247 H 0.05516 0.50108 0.24596
 H248 H -0.05418 0.49932 0.23448
 C249 C -0.01563 0.52675 0.75666
 C250 C 0.01564 0.52655 0.75583
 C251 C 0.03034 0.49943 0.75493
 C252 C 0.01452 0.47254 0.75563
 C253 C -0.01672 0.47267 0.75707
 C254 C -0.03145 0.49983 0.75721
 H255 H -0.05547 0.50003 0.75848
 H256 H 0.05439 0.49923 0.75488
 C257 C 0.36708 0.23491 0.08756
 C258 C 0.36139 0.20765 0.10162
 C259 C 0.33717 0.20494 0.12088
 C260 C 0.31876 0.22927 0.12632
 C261 C 0.32447 0.25630 0.11152
 C262 C 0.34869 0.25927 0.09221
 C263 C 0.39314 0.23816 0.06810
 C264 C 0.39926 0.26562 0.05453
 C265 C 0.42466 0.26883 0.03683
 C266 C 0.44358 0.24475 0.03271
 C267 C 0.43705 0.21734 0.04616
 C268 C 0.41182 0.21390 0.06395
 C269 C 0.35525 0.28626 0.07788
 C270 C 0.38012 0.28939 0.05938
 C271 C 0.38033 0.18377 0.09653
 C272 C 0.40513 0.18685 0.07801
 H273 H 0.34121 0.30522 0.08124
 H274 H 0.38453 0.31065 0.04898
 H275 H 0.37611 0.16260 0.10720
 H276 H 0.41935 0.16798 0.07490
 H277 H 0.33286 0.18390 0.13172
 H278 H 0.31066 0.27527 0.11556
 H279 H 0.43003 0.29002 0.02670
 H280 H 0.45184 0.19890 0.04296
 C281 C 0.63355 0.77197 0.08952
 C282 C 0.63708 0.79688 0.10757
 C283 C 0.66133 0.79854 0.12683
 C284 C 0.68204 0.77536 0.12850
 C285 C 0.67815 0.75068 0.10971
 C286 C 0.65398 0.74888 0.09032
 C287 C 0.60761 0.76978 0.06983
 C288 C 0.60378 0.74460 0.05212
 C289 C 0.57851 0.74217 0.03424
 C290 C 0.55720 0.76462 0.03422
 C291 C 0.56158 0.78988 0.05176
 C292 C 0.58677 0.79259 0.06963
 C293 C 0.64962 0.72421 0.07197
 C294 C 0.62496 0.72211 0.05319
 C295 C 0.61602 0.81950 0.10635
 C296 C 0.59127 0.81737 0.08772
 H297 H 0.66526 0.70622 0.07234
 H298 H 0.62228 0.70259 0.03963
 H299 H 0.61851 0.83888 0.12014
 H300 H 0.57538 0.83514 0.08770
 H301 H 0.66355 0.81784 0.14069
 H302 H 0.69357 0.73257 0.11015
 H303 H 0.57493 0.72250 0.02106
 H304 H 0.54515 0.80718 0.05170
 C305 C 0.62745 0.23320 -0.08985
 C306 C 0.63088 0.20674 -0.10550
 C307 C 0.65469 0.20414 -0.12517
 C308 C 0.67495 0.22782 -0.12941
 C309 C 0.67142 0.25404 -0.11310
 C310 C 0.64764 0.25689 -0.09337
 C311 C 0.60187 0.23640 -0.06990
 C312 C 0.59802 0.26314 -0.05476
 C313 C 0.57302 0.26641 -0.03666
 C314 C 0.55218 0.24314 -0.03376
 C315 C 0.55650 0.21642 -0.04878
 C316 C 0.58134 0.21291 -0.06692
 C317 C 0.64332 0.28312 -0.07749
 C318 C 0.61892 0.28620 -0.05852
 C319 C 0.61016 0.18355 -0.10152
 C320 C 0.58578 0.18659 -0.08256
 H321 H 0.65877 0.30155 -0.07997
 H322 H 0.61625 0.30690 -0.04692
 H323 H 0.61262 0.16298 -0.11340
 H324 H 0.57013 0.16830 -0.08036
 H325 H 0.65728 0.18370 -0.13720
 H326 H 0.68665 0.27253 -0.11621
 H327 H 0.56932 0.28718 -0.02549
 H328 H 0.54028 0.19860 -0.04656
 C329 C 0.37181 0.76536 -0.08602
 C330 C 0.36406 0.79330 -0.09704
 C331 C 0.34013 0.79554 -0.11656
 C332 C 0.32388 0.77012 -0.12493
 C333 C 0.33156 0.74232 -0.11317
 C334 C 0.35571 0.73978 -0.09388
 C335 C 0.39765 0.76277 -0.06636
 C336 C 0.40609 0.73469 -0.05613
 C337 C 0.43142 0.73229 -0.03837
 C338 C 0.44771 0.75780 -0.03062
 C339 C 0.43875 0.78576 -0.04057
 C340 C 0.41381 0.78839 -0.05868
 C341 C 0.36445 0.71215 -0.08274
 C342 C 0.38927 0.70963 -0.06426
 C343 C 0.38062 0.81843 -0.08864
 C344 C 0.40504 0.81602 -0.06970
 H345 H 0.35220 0.69225 -0.08862
 H346 H 0.39545 0.68788 -0.05642
 H347 H 0.37479 0.84011 -0.09695
 H348 H 0.41736 0.83590 -0.06392
 H349 H 0.33420 0.81706 -0.12521
 H350 H 0.31938 0.72259 -0.11968
 H351 H 0.43861 0.71077 -0.03074
 H352 H 0.45161 0.80530 -0.03464
 C353 C 0.08889 0.37073 0.23394
 C354 C 0.10076 0.36309 0.20642
 C355 C 0.12018 0.33920 0.20461
 C356 C 0.12765 0.32290 0.23004
 C357 C 0.11507 0.33055 0.25739
 C358 C 0.09584 0.35460 0.25950
 C359 C 0.06926 0.39646 0.23612
 C360 C 0.05813 0.40471 0.26381
 C361 C 0.04038 0.42989 0.26588
 C362 C 0.03354 0.44628 0.24043
 C363 C 0.04443 0.43755 0.21284
 C364 C 0.06250 0.41270 0.21055
 C365 C 0.08379 0.36315 0.28671
 C366 C 0.06533 0.38784 0.28884
 C367 C 0.09322 0.37968 0.18130
 C368 C 0.07435 0.40403 0.18332
 H369 H 0.08894 0.35085 0.30658
 H370 H 0.05676 0.39386 0.31028
 H371 H 0.10214 0.37393 0.15992
 H372 H 0.06925 0.41637 0.16346
 H373 H 0.12941 0.33331 0.18341
 H374 H 0.12082 0.31836 0.27716
 H375 H 0.03211 0.43692 0.28714
 H376 H 0.03918 0.45045 0.19334
 C377 C 0.09086 0.62933 0.76801
 C378 C 0.10806 0.63248 0.79357
 C379 C 0.12800 0.65642 0.79577
 C380 C 0.13087 0.67743 0.77267
 C381 C 0.11274 0.67411 0.74743
 C382 C 0.09300 0.64999 0.74489
 C383 C 0.07063 0.60360 0.76519
 C384 C 0.05413 0.59988 0.73918
 C385 C 0.03581 0.57474 0.73618
 C386 C 0.03363 0.55386 0.75919
 C387 C 0.05002 0.55804 0.78521
 C388 C 0.06870 0.58283 0.78829
 C389 C 0.07573 0.64583 0.71942
 C390 C 0.05671 0.62114 0.71656
 C391 C 0.10525 0.61141 0.81635
 C392 C 0.08584 0.58703 0.81378
 H393 H 0.07717 0.66162 0.70139
 H394 H 0.04403 0.61859 0.69644
 H395 H 0.11832 0.61366 0.83625
 H396 H 0.08449 0.57117 0.83176
 H397 H 0.14110 0.65847 0.81562
 H398 H 0.11436 0.68964 0.72925
 H399 H 0.02387 0.57103 0.71581
 H400 H 0.04847 0.54171 0.80278
 C401 C -0.08813 0.63000 0.22942
 C402 C -0.10600 0.63365 0.20443
 C403 C -0.12550 0.65751 0.20311
 C404 C -0.12766 0.67768 0.22675
 C405 C -0.10893 0.67381 0.25146
 C406 C -0.08929 0.65000 0.25292
 C407 C -0.06829 0.60437 0.23127
 C408 C -0.05080 0.60036 0.25655
 C409 C -0.03278 0.57536 0.25863
 C410 C -0.03235 0.55454 0.23567
 C411 C -0.04973 0.55905 0.21037
 C412 C -0.06775 0.58396 0.20804
 C413 C -0.07112 0.64550 0.27768
 C414 C -0.05221 0.62111 0.27946
 C415 C -0.10443 0.61305 0.18139
 C416 C -0.08566 0.58860 0.18318
 H417 H -0.07175 0.66079 0.29598
 H418 H -0.03881 0.61830 0.29906
 H419 H -0.11808 0.61566 0.16193
 H420 H -0.08538 0.57305 0.16508
 H421 H -0.13919 0.65980 0.18371
 H422 H -0.10973 0.68886 0.26989
 H423 H -0.01982 0.57159 0.27835
 H424 H -0.04941 0.54294 0.19274
 C425 C -0.08971 0.36791 0.76883
 C426 C -0.08958 0.34649 0.74656
 C427 C -0.10884 0.32189 0.74880
 C428 C -0.12860 0.31875 0.77292
 C429 C -0.12776 0.34042 0.79533
 C430 C -0.10851 0.36495 0.79334
 C431 C -0.07018 0.39425 0.76617
 C432 C -0.07072 0.41589 0.78828
 C433 C -0.05276 0.44125 0.78527
 C434 C -0.03446 0.44507 0.76038
 C435 C -0.03403 0.42319 0.73844
 C436 C -0.05184 0.39761 0.74129
 C437 C -0.10808 0.38686 0.81523
 C438 C -0.08949 0.41190 0.81275
 C439 C -0.07057 0.35039 0.72220
 C440 C -0.05205 0.37554 0.71959
 H441 H -0.12244 0.38477 0.83433
 H442 H -0.09002 0.42840 0.82998
 H443 H -0.07022 0.33402 0.70484
 H444 H -0.03796 0.37782 0.70031
 H445 H -0.10874 0.30575 0.73126
 H446 H -0.14210 0.33862 0.81439
 H447 H -0.05308 0.45818 0.80213
 H448 H -0.02040 0.42642 0.71897
 C449 C 0.23253 0.08808 0.37102
 C450 C 0.25633 0.09154 0.35127
 C451 C 0.25352 0.11088 0.32715
 C452 C 0.22721 0.12685 0.32284
 C453 C 0.20340 0.12261 0.34265
 C454 C 0.20598 0.10337 0.36682
 C455 C 0.23570 0.06858 0.39696
 C456 C 0.21211 0.06571 0.41708
 C457 C 0.21560 0.04800 0.44224
 C458 C 0.24239 0.03331 0.44727
 C459 C 0.26575 0.03608 0.42684
 C460 C 0.26252 0.05377 0.40156
 C461 C 0.18268 0.09949 0.38715
 C462 C 0.18571 0.08099 0.41188
 C463 C 0.28266 0.07602 0.35636
 C464 C 0.28570 0.05745 0.38108
 H465 H 0.16205 0.11112 0.38409
 H466 H 0.16734 0.07887 0.42721
 H467 H 0.30118 0.07848 0.34126
 H468 H 0.30646 0.04612 0.38434
 H469 H 0.27212 0.11399 0.31229
 H470 H 0.18288 0.13437 0.33947
 H471 H 0.19770 0.04586 0.45814
 H472 H 0.28655 0.02514 0.43106
 C473 C 0.76144 0.08798 0.62797
 C474 C 0.78956 0.09577 0.63898
 C475 C 0.79171 0.11599 0.66227
 C476 C 0.76598 0.12790 0.67486
 C477 C 0.73793 0.11940 0.66393
 C478 C 0.73554 0.09971 0.64021
 C479 C 0.75910 0.06757 0.60279
 C480 C 0.73106 0.06077 0.59093
 C481 C 0.72912 0.04241 0.56613
 C482 C 0.75492 0.03052 0.55380
 C483 C 0.78274 0.03690 0.56630
 C484 C 0.78502 0.05575 0.59065
 C485 C 0.70784 0.09185 0.62820
 C486 C 0.70565 0.07284 0.60387
 C487 C 0.81495 0.08333 0.62636
 C488 C 0.81271 0.06352 0.60270
 H489 H 0.68770 0.10076 0.63745
 H490 H 0.68389 0.06765 0.59505
 H491 H 0.83675 0.08904 0.63476
 H492 H 0.83284 0.05453 0.59352
 H493 H 0.81334 0.12223 0.67077
 H494 H 0.71805 0.12872 0.67333
 H495 H 0.70773 0.03742 0.55632
 H496 H 0.80256 0.02782 0.55650
 C497 C 0.23785 -0.08768 0.63226
 C498 C 0.21021 -0.10067 0.63908
 C499 C 0.20791 -0.12017 0.66313
 C500 C 0.23299 -0.12671 0.68032
 C501 C 0.26043 -0.11298 0.67353
 C502 C 0.26303 -0.09359 0.64936
 C503 C 0.24061 -0.06802 0.60632
 C504 C 0.26845 -0.05571 0.59893
 C505 C 0.27112 -0.03791 0.57359
 C506 C 0.24611 -0.03229 0.55612
 C507 C 0.21834 -0.04441 0.56395
 C508 C 0.21546 -0.06245 0.58902
 C509 C 0.29040 -0.08045 0.64159
 C510 C 0.29307 -0.06188 0.61676
 C511 C 0.18550 -0.09426 0.62145
 C512 C 0.18807 -0.07543 0.59686
 H513 H 0.30998 -0.08482 0.65462
 H514 H 0.31464 -0.05245 0.61135
 H515 H 0.16404 -0.10410 0.62656
 H516 H 0.16854 -0.07125 0.58368
 H517 H 0.18661 -0.13027 0.66836
 H518 H 0.27993 -0.11802 0.68643
 H519 H 0.29254 -0.02877 0.56719
 H520 H 0.19920 -0.04011 0.55021
 C521 C 0.77162 -0.09089 0.37019
 C522 C 0.74962 -0.09074 0.34833
 C523 C 0.75185 -0.11024 0.32444
 C524 C 0.77569 -0.13002 0.32259
 C525 C 0.79772 -0.12952 0.34458
 C526 C 0.79579 -0.11005 0.36842
 C527 C 0.76898 -0.07109 0.39579
 C528 C 0.79074 -0.07169 0.41788
 C529 C 0.78764 -0.05361 0.44264
 C530 C 0.76288 -0.03523 0.44554
 C531 C 0.74140 -0.03459 0.42305
 C532 C 0.74438 -0.05250 0.39804
 C533 C 0.81735 -0.10966 0.39074
 C534 C 0.81488 -0.09079 0.41505
 C535 C 0.72557 -0.07147 0.35110
 C536 C 0.72298 -0.05270 0.37555
 H537 H 0.83614 -0.12429 0.38956
 H538 H 0.83182 -0.09140 0.43195
 H539 H 0.70843 -0.07112 0.33439
 H540 H 0.70392 -0.03844 0.37700
 H541 H 0.73463 -0.11055 0.30782
 H542 H 0.81637 -0.14430 0.34324
 H543 H 0.80423 -0.05408 0.45991
 H544 H 0.72205 -0.02084 0.42544
 C545 C 0.63192 0.76483 -0.08807
 C546 C 0.64372 0.73902 -0.10023
 C547 C 0.66785 0.74141 -0.11966
 C548 C 0.67983 0.76938 -0.12738
 C549 C 0.66766 0.79505 -0.11502
 C550 C 0.64381 0.79288 -0.09517
 C551 C 0.60630 0.76245 -0.06790
 C552 C 0.59452 0.78827 -0.05569
 C553 C 0.56980 0.78593 -0.03699
 C554 C 0.55667 0.75813 -0.03109
 C555 C 0.56864 0.73245 -0.04341
 C556 C 0.59372 0.73446 -0.06167
 C557 C 0.63148 0.81818 -0.08240
 C558 C 0.60733 0.81591 -0.06290
 C559 C 0.63091 0.71138 -0.09303
 C560 C 0.60625 0.70914 -0.07419
 H561 H 0.64049 0.83995 -0.08762
 H562 H 0.59839 0.83597 -0.05365
 H563 H 0.63984 0.69131 -0.10229
 H564 H 0.59683 0.68743 -0.06947
 H565 H 0.67679 0.72154 -0.12932
 H566 H 0.67688 0.81664 -0.12064
 H567 H 0.56024 0.80567 -0.02764
 H568 H 0.55830 0.71110 -0.03884
 C569 C 0.36572 0.23437 -0.08627
 C570 C 0.34795 0.25906 -0.09179
 C571 C 0.32362 0.25617 -0.11088
 C572 C 0.31724 0.22890 -0.12465
 C573 C 0.33506 0.20428 -0.11837
 C574 C 0.35934 0.20690 -0.09928
 C575 C 0.39193 0.23751 -0.06707
 C576 C 0.41003 0.21292 -0.06210
 C577 C 0.43548 0.21626 -0.04471
 C578 C 0.44282 0.24389 -0.03247
 C579 C 0.42441 0.26829 -0.03734
 C580 C 0.39881 0.26520 -0.05466
 C581 C 0.37768 0.18269 -0.09335
 C582 C 0.40260 0.18565 -0.07506
 C583 C 0.35524 0.28627 -0.07856
 C584 C 0.38025 0.28929 -0.06033
 H585 H 0.37292 0.16135 -0.10318
 H586 H 0.41635 0.16653 -0.07130
 H587 H 0.34170 0.30549 -0.08260
 H588 H 0.38526 0.31073 -0.05083
 H589 H 0.31028 0.27536 -0.11564
 H590 H 0.33021 0.18308 -0.12845
 H591 H 0.44986 0.19757 -0.04095
 H592 H 0.43041 0.28965 -0.02817
 C593 C 0.37035 0.77242 0.08853
 C594 C 0.35013 0.74862 0.09112
 C595 C 0.32572 0.75109 0.11020
 C596 C 0.32168 0.77705 0.12678
 C597 C 0.34196 0.80086 0.12338
 C598 C 0.36635 0.79863 0.10442
 C599 C 0.39656 0.76964 0.06930
 C600 C 0.41710 0.79323 0.06730
 C601 C 0.44249 0.79012 0.04983
 C602 C 0.44734 0.76370 0.03443
 C603 C 0.42644 0.74035 0.03634
 C604 C 0.40095 0.74319 0.05384
 C605 C 0.38710 0.82195 0.10142
 C606 C 0.41207 0.81928 0.08320
 C607 C 0.35507 0.72265 0.07499
 C608 C 0.38004 0.71999 0.05666
 H609 H 0.38419 0.84231 0.11353
 H610 H 0.42772 0.83765 0.08176
 H611 H 0.33966 0.70412 0.07676
 H612 H 0.38315 0.69949 0.04484
 H613 H 0.31043 0.73255 0.11269
 H614 H 0.33894 0.82114 0.13556
 H615 H 0.45866 0.80805 0.04835
 H616 H 0.43047 0.71981 0.02488
 C617 C 0.62752 0.23600 0.08846
 C618 C 0.64516 0.26098 0.09487
 C619 C 0.66879 0.25824 0.11476
 C620 C 0.67451 0.23084 0.12852
 C621 C 0.65672 0.20598 0.12157
 C622 C 0.63324 0.20841 0.10153
 C623 C 0.60217 0.23890 0.06820
 C624 C 0.58429 0.21396 0.06216
 C625 C 0.55962 0.21705 0.04373
 C626 C 0.55272 0.24482 0.03169
 C627 C 0.57086 0.26959 0.03768
 C628 C 0.59581 0.26672 0.05589
 C629 C 0.61511 0.18389 0.09459
 C630 C 0.59107 0.18661 0.07519
 C631 C 0.63848 0.28831 0.08165
 C632 C 0.61417 0.29114 0.06256
 H633 H 0.61937 0.16247 0.10444
 H634 H 0.57746 0.16722 0.07066
 H635 H 0.65193 0.30776 0.08639
 H636 H 0.60957 0.31269 0.05313
 H637 H 0.68214 0.27758 0.12010
 H638 H 0.66112 0.18472 0.13170
 H639 H 0.54534 0.19810 0.03923
 H640 H 0.56514 0.29106 0.02873
 C641 C -0.08891 0.62918 0.76584
 C642 C -0.09427 0.64651 0.74071
 C643 C -0.11423 0.66999 0.74252
 C644 C -0.12948 0.67587 0.76909
 C645 C -0.12326 0.65833 0.79421
 C646 C -0.10303 0.63509 0.79270
 C647 C -0.06869 0.60388 0.76381
 C648 C -0.06366 0.58630 0.78890
 C649 C -0.04531 0.56162 0.78658
 C650 C -0.03243 0.55440 0.75937
 C651 C -0.03763 0.57215 0.73442
 C652 C -0.05555 0.59717 0.73658
 C653 C -0.09705 0.61729 0.81745
 C654 C -0.07763 0.59335 0.81560
 C655 C -0.08009 0.63958 0.71404
 C656 C -0.06117 0.61525 0.71198
 H657 H -0.10771 0.62170 0.83836
 H658 H -0.07388 0.57999 0.83512
 H659 H -0.08402 0.65280 0.69446
 H660 H -0.05106 0.61040 0.69089
 H661 H -0.11840 0.68287 0.72282
 H662 H -0.13405 0.66248 0.81507
 H663 H -0.04155 0.54759 0.80566
 H664 H -0.02837 0.56602 0.71330
 C665 C -0.08678 0.36744 0.22832
 C666 C -0.10267 0.36252 0.20218
 C667 C -0.12203 0.33806 0.20042
 C668 C -0.12584 0.31868 0.22465
 C669 C -0.10920 0.32364 0.25051
 C670 C -0.08972 0.34807 0.25250
 C671 C -0.06725 0.39378 0.23065
 C672 C -0.05187 0.39912 0.25705
 C673 C -0.03421 0.42480 0.25951
 C674 C -0.03200 0.44492 0.23581
 C675 C -0.04727 0.43912 0.20942
 C676 C -0.06494 0.41353 0.20670
 C677 C -0.07360 0.35389 0.27838
 C678 C -0.05499 0.37898 0.28062
 C679 C -0.09931 0.38246 0.17848
 C680 C -0.08078 0.40756 0.18072
 H681 H -0.07563 0.33911 0.29719
 H682 H -0.04320 0.38281 0.30107
 H683 H -0.11139 0.37884 0.15816
 H684 H -0.07909 0.42258 0.16206
 H685 H -0.13428 0.33437 0.18023
 H686 H -0.11195 0.30909 0.26939
 H687 H -0.02288 0.42960 0.28002
 H688 H -0.04558 0.45475 0.19124
 C689 C 0.08733 0.36982 0.76523
 C690 C 0.09701 0.35567 0.73954
 C691 C 0.11635 0.33173 0.74202
 C692 C 0.12645 0.32237 0.76989
 C693 C 0.11646 0.33679 0.79542
 C694 C 0.09674 0.36043 0.79323
 C695 C 0.06744 0.39535 0.76274
 C696 C 0.05785 0.40957 0.78845
 C697 C 0.03958 0.43430 0.78592
 C698 C 0.03144 0.44496 0.75798
 C699 C 0.04113 0.43057 0.73241
 C700 C 0.05897 0.40548 0.73467
 C701 C 0.08645 0.37506 0.81844
 C702 C 0.06724 0.39915 0.81609
 C703 C 0.08756 0.36605 0.71189
 C704 C 0.06896 0.39062 0.70949
 H705 H 0.09345 0.36795 0.84016
 H706 H 0.05998 0.40995 0.83607
 H707 H 0.09488 0.35532 0.69191
 H708 H 0.06249 0.39815 0.68774
 H709 H 0.12417 0.32098 0.72223
 H710 H 0.12389 0.32954 0.81695
 H711 H 0.03227 0.44576 0.80553
 H712 H 0.03501 0.43913 0.71092
 C713 C 0.09015 0.63138 0.23338
 C714 C 0.09947 0.64132 0.20543
 C715 C 0.11924 0.66551 0.20334
 C716 C 0.12945 0.67989 0.22895
 C717 C 0.11952 0.66984 0.25680
 C718 C 0.10004 0.64545 0.25915
 C719 C 0.07004 0.60545 0.23574
 C720 C 0.06151 0.59489 0.26376
 C721 C 0.04333 0.56950 0.26587
 C722 C 0.03343 0.55521 0.24020
 C723 C 0.04165 0.56630 0.21232
 C724 C 0.06022 0.59134 0.20994
 C725 C 0.09056 0.63461 0.28676
 C726 C 0.07172 0.60968 0.28902
 C727 C 0.08898 0.62674 0.18013
 C728 C 0.06962 0.60223 0.18235
 H729 H 0.09802 0.64530 0.30680
 H730 H 0.06520 0.60185 0.31074
 H731 H 0.09593 0.63425 0.15844
 H732 H 0.06220 0.59151 0.16231
 H733 H 0.12646 0.67323 0.18181
 H734 H 0.12743 0.68050 0.27667
 H735 H 0.03705 0.56068 0.28730
 H736 H 0.03413 0.55496 0.19263
 C737 C 0.77001 -0.09075 0.63077
 C738 C 0.74746 -0.09110 0.65218
 C739 C 0.74926 -0.11097 0.67604
 C740 C 0.77311 -0.13069 0.67818
 C741 C 0.79575 -0.12959 0.65676
 C742 C 0.79433 -0.10968 0.63304
 C743 C 0.76774 -0.07077 0.60506
 C744 C 0.79002 -0.07096 0.58340
 C745 C 0.78717 -0.05289 0.55840
 C746 C 0.76217 -0.03494 0.55484
 C747 C 0.74022 -0.03464 0.57695
 C748 C 0.74292 -0.05254 0.60219
 C749 C 0.81648 -0.10877 0.61122
 C750 C 0.81437 -0.08970 0.58683
 C751 C 0.72328 -0.07207 0.64887
 C752 C 0.72102 -0.05316 0.62428
 H753 H 0.83542 -0.12318 0.61283
 H754 H 0.83174 -0.08993 0.57030
 H755 H 0.70573 -0.07208 0.66521
 H756 H 0.70180 -0.03914 0.62238
 H757 H 0.73164 -0.11178 0.69231
 H758 H 0.81443 -0.14432 0.65843
 H759 H 0.80412 -0.05311 0.54142
 H760 H 0.72070 -0.02122 0.57404
 C761 C 0.23697 -0.08673 0.37158
 C762 C 0.20908 -0.09890 0.36448
 C763 C 0.20656 -0.11806 0.34037
 C764 C 0.23165 -0.12498 0.32334
 C765 C 0.25935 -0.11209 0.33045
 C766 C 0.26218 -0.09312 0.35470
 C767 C 0.23992 -0.06739 0.39752
 C768 C 0.26799 -0.05592 0.40518
 C769 C 0.27081 -0.03837 0.43048
 C770 C 0.24573 -0.03212 0.44764
 C771 C 0.21775 -0.04341 0.43956
 C772 C 0.21471 -0.06123 0.41453
 C773 C 0.28979 -0.08083 0.36275
 C774 C 0.29265 -0.06261 0.38760
 C775 C 0.18434 -0.09195 0.38185
 C776 C 0.18710 -0.07338 0.40643
 H777 H 0.30941 -0.08559 0.34990
 H778 H 0.31439 -0.05383 0.39321
 H779 H 0.16269 -0.10112 0.37653
 H780 H 0.16750 -0.06875 0.41937
 H781 H 0.18509 -0.12754 0.33490
 H782 H 0.27886 -0.11744 0.31769
 H783 H 0.29237 -0.02983 0.43704
 H784 H 0.19855 -0.03862 0.45305
 C785 C 0.76215 0.08659 0.36965
 C786 C 0.79018 0.09276 0.35734
 C787 C 0.79250 0.11261 0.33352
 C788 C 0.76698 0.12572 0.32168
 C789 C 0.73898 0.11876 0.33384
 C790 C 0.73647 0.09951 0.35813
 C791 C 0.75971 0.06666 0.39543
 C792 C 0.73185 0.06152 0.40856
 C793 C 0.72987 0.04352 0.43383
 C794 C 0.75540 0.03032 0.44540
 C795 C 0.78303 0.03515 0.43169
 C796 C 0.78539 0.05361 0.40684
 C797 C 0.70891 0.09332 0.37146
 C798 C 0.70666 0.07479 0.39636
 C799 C 0.81532 0.07916 0.36929
 C800 C 0.81295 0.05978 0.39352
 H801 H 0.68894 0.10320 0.36281
 H802 H 0.68503 0.07092 0.40620
 H803 H 0.83705 0.08362 0.35991
 H804 H 0.83290 0.04986 0.40214
 H805 H 0.81407 0.11770 0.32407
 H806 H 0.71929 0.12904 0.32502
 H807 H 0.70864 0.03977 0.44456
 H808 H 0.80269 0.02511 0.44091
 C809 C 0.23273 0.08809 0.63169
 C810 C 0.25672 0.09209 0.65101
 C811 C 0.25388 0.11153 0.67485
 C812 C 0.22735 0.12709 0.67928
 C813 C 0.20337 0.12235 0.65990
 C814 C 0.20597 0.10296 0.63605
 C815 C 0.23591 0.06848 0.60602
 C816 C 0.21210 0.06506 0.58635
 C817 C 0.21560 0.04731 0.56140
 C818 C 0.24261 0.03313 0.55612
 C819 C 0.26618 0.03643 0.57614
 C820 C 0.26294 0.05415 0.60123
 C821 C 0.18247 0.09851 0.61618
 C822 C 0.18549 0.07989 0.59173
 C823 C 0.28325 0.07700 0.64576
 C824 C 0.28631 0.05836 0.62129
 H825 H 0.16166 0.10978 0.61937
 H826 H 0.16695 0.07732 0.57676
 H827 H 0.30192 0.07987 0.66052
 H828 H 0.30724 0.04738 0.61788
 H829 H 0.27259 0.11506 0.68940
 H830 H 0.18271 0.13379 0.66321
 H831 H 0.19754 0.04476 0.54582
 H832 H 0.28715 0.02589 0.57173
   
