data_POSCAR
  _audit_creation_date              2014-09-24
  _audit_creation_method            'ToBaCCo'
  _symmetry_space_group_name_H-M    'P1'
  _symmetry_Int_Tables_number       1
  _symmetry_cell_setting            triclinic
  loop_
  _symmetry_equiv_pos_as_xyz
 x,y,z
_cell_length_a 32.2647
_cell_length_b 32.3285
_cell_length_c 32.3661
_cell_angle_alpha 85.410300
_cell_angle_beta 94.494800
_cell_angle_gamma 96.170200
loop_
  _atom_site_label
  _atom_site_type_symbol
  _atom_site_fract_x
  _atom_site_fract_y
  _atom_site_fract_z
C1 C 0.59329 0.54336 -0.01669
 C2 C 0.58296 0.58461 -0.01831
 C3 C 0.54182 0.59434 -0.01614
 C4 C 0.50898 0.56119 -0.01533
 C5 C 0.51840 0.51914 -0.01396
 C6 C 0.56046 0.51018 -0.01537
 C7 C 0.56798 0.46860 -0.01931
 C8 C 0.53591 0.43634 -0.01818
 C9 C 0.49452 0.44416 -0.01429
 C10 C 0.48536 0.48596 -0.01315
 C11 C 0.46674 0.56902 -0.02018
 C12 C 0.43470 0.53674 -0.01895
 C13 C 0.44312 0.49482 -0.01304
 C14 C 0.41032 0.46151 -0.01131
 C15 C 0.42055 0.42049 -0.01273
 C16 C 0.46176 0.41139 -0.01393
 H17 H 0.59856 0.46043 -0.02484
 H18 H 0.54389 0.40521 -0.02168
 H19 H 0.45776 0.60027 -0.02662
 H20 H 0.40314 0.54522 -0.02448
 H21 H 0.60814 0.60966 -0.01713
 H22 H 0.39630 0.39458 -0.01069
 C23 C -0.01129 0.59052 0.46548
 C24 C -0.01368 0.57999 0.42429
 C25 C -0.00975 0.53924 0.41395
 C26 C -0.00635 0.50726 0.44671
 C27 C -0.00450 0.51754 0.48879
 C28 C -0.00657 0.55934 0.49815
 C29 C -0.00475 0.56878 0.53996
 C30 C -0.00052 0.53794 0.57204
 C31 C 0.00084 0.49616 0.56366
 C32 C -0.00117 0.48583 0.52168
 C33 C -0.00752 0.46492 0.43873
 C34 C -0.00337 0.43409 0.47084
 C35 C -0.00009 0.44381 0.51254
 C36 C 0.00416 0.41260 0.54541
 C37 C 0.00696 0.42343 0.58655
 C38 C 0.00456 0.46445 0.59616
 H39 H -0.00680 0.60015 0.54842
 H40 H 0.00162 0.54730 0.60354
 H41 H -0.01249 0.45478 0.40757
 H42 H -0.00314 0.40240 0.46245
 H43 H -0.01562 0.60493 0.39993
 H44 H 0.00966 0.39922 0.61155
 C45 C 0.53490 -0.01645 0.59283
 C46 C 0.57537 -0.02221 0.58281
 C47 C 0.58695 -0.01903 0.54166
 C48 C 0.55562 -0.01378 0.50874
 C49 C 0.51397 -0.00971 0.51798
 C50 C 0.50351 -0.01102 0.55997
 C51 C 0.46132 -0.00991 0.56784
 C52 C 0.43084 -0.00431 0.53571
 C53 C 0.44060 -0.00200 0.49406
 C54 C 0.48237 -0.00533 0.48502
 C55 C 0.56406 -0.01549 0.46687
 C56 C 0.53354 -0.00994 0.43478
 C57 C 0.49246 -0.00483 0.44308
 C58 C 0.46108 0.00050 0.41053
 C59 C 0.42044 0.00524 0.42004
 C60 C 0.40960 0.00325 0.46115
 H61 H 0.45094 -0.01425 0.59896
 H62 H 0.39934 -0.00232 0.54404
 H63 H 0.59423 -0.02203 0.45821
 H64 H 0.54254 -0.01020 0.40331
 H65 H 0.59963 -0.02448 0.60782
 H66 H 0.39644 0.00894 0.39498
 O67 O 0.46958 -0.00345 -0.06045
 O68 O 0.46334 -0.00753 0.05294
 O69 O 0.46277 0.05125 -0.00699
 O70 O 0.47052 -0.06206 -0.00077
 O71 O 0.53936 -0.05048 0.00761
 O72 O 0.53162 0.06277 0.00137
 O73 O 0.53218 0.00404 0.06134
 O74 O 0.53843 0.00809 -0.05212
 Cu75 Cu 0.45961 -0.00659 -0.00458
 Cu76 Cu 0.54233 0.00729 0.00546
 C77 C 0.50508 0.00273 -0.07541
 C78 C 0.49666 -0.00230 0.07628
 C79 C 0.49588 0.07613 -0.00384
 C80 C 0.50630 -0.07537 0.00408
 O81 O -0.04679 0.54138 0.99882
 O82 O 0.06659 0.53292 1.00529
 O83 O 0.00800 0.53404 0.94546
 O84 O 0.01180 0.54032 1.05884
 O85 O -0.00023 0.47164 1.06733
 O86 O -0.00402 0.46535 0.95395
 O87 O 0.05456 0.46424 1.01378
 O88 O -0.05882 0.47269 1.00731
 Cu89 Cu 0.01111 0.54409 1.00131
 Cu90 Cu -0.00332 0.46156 1.01150
 C91 C -0.07194 0.50848 1.00201
 C92 C 0.07970 0.49711 1.01030
 C93 C 0.00152 0.49861 0.93058
 C94 C 0.00622 0.50708 1.08220
 O95 O -0.00917 -0.04994 0.46565
 O96 O -0.00285 0.06359 0.47350
 O97 O 0.05086 0.01054 0.46509
 O98 O -0.06280 0.00299 0.47374
 O99 O -0.05297 -0.00641 0.54211
 O100 O 0.06074 0.00113 0.53345
 O101 O 0.00702 0.05415 0.54186
 O102 O 0.00068 -0.05932 0.53402
 Cu103 Cu -0.00695 0.00779 0.46258
 Cu104 Cu 0.00489 -0.00351 0.54477
 C105 C -0.00528 -0.07378 0.49851
 C106 C 0.00297 0.07801 0.50904
 C107 C 0.07496 0.00690 0.49777
 C108 C -0.07706 -0.00299 0.50938
 C109 C -0.29351 0.55719 0.96243
 C110 C -0.27739 0.52732 0.99112
 C111 C -0.30407 0.50266 1.01737
 C112 C -0.34677 0.50763 1.01475
 C113 C -0.36369 0.53705 0.98535
 C114 C -0.33612 0.56228 0.95976
 C115 C -0.23338 0.52245 0.99384
 C116 C -0.19645 0.51880 0.99583
 C117 C -0.15312 0.51492 0.99797
 C118 C -0.11608 0.51187 0.99977
 H119 H -0.27312 0.57660 0.94207
 H120 H -0.29182 0.47987 1.04017
 H121 H -0.36634 0.48922 1.03656
 H122 H -0.34770 0.58531 0.93680
 C123 C 0.31499 0.49960 1.02589
 C124 C 0.28325 0.47706 1.00255
 C125 C 0.29357 0.44930 0.97495
 C126 C 0.33539 0.44427 0.97037
 C127 C 0.36791 0.46745 0.99293
 C128 C 0.35693 0.49468 1.02136
 C129 C 0.24002 0.48233 1.00655
 C130 C 0.20355 0.48627 1.00894
 C131 C 0.16059 0.49042 1.01061
 C132 C 0.12374 0.49363 1.01104
 H133 H 0.30734 0.52080 1.04777
 H134 H 0.26925 0.43164 0.95674
 H135 H 0.34224 0.42313 0.94807
 H136 H 0.38073 0.51143 1.04092
 C137 C -0.04737 -0.30191 0.46509
 C138 C -0.01159 -0.27943 0.48249
 C139 C 0.02400 -0.29971 0.49512
 C140 C 0.02391 -0.34226 0.49016
 C141 C -0.01191 -0.36495 0.47280
 C142 C -0.04750 -0.34448 0.46013
 C143 C -0.01100 -0.23538 0.48647
 C144 C -0.01018 -0.19840 0.48949
 C145 C -0.00883 -0.15503 0.49277
 C146 C -0.00738 -0.11795 0.49543
 H147 H -0.07499 -0.28646 0.45502
 H148 H 0.05192 -0.28254 0.50839
 H149 H 0.05183 -0.35748 0.49946
 H150 H -0.07519 -0.36147 0.44625
 C151 C 0.04173 0.30594 0.54401
 C152 C 0.00580 0.28292 0.52759
 C153 C -0.03057 0.30247 0.51655
 C154 C -0.03104 0.34487 0.52199
 C155 C 0.00497 0.36809 0.53824
 C156 C 0.04129 0.34834 0.54944
 C157 C 0.00597 0.23909 0.52285
 C158 C 0.00586 0.20228 0.51921
 C159 C 0.00535 0.15909 0.51532
 C160 C 0.00452 0.12211 0.51229
 H161 H 0.06996 0.29105 0.55283
 H162 H -0.05860 0.28489 0.50405
 H163 H -0.05946 0.35959 0.51376
 H164 H 0.06918 0.36579 0.56240
 C165 C 0.54058 -0.03855 -0.29189
 C166 C 0.51981 -0.00632 -0.27951
 C167 C 0.50356 0.02240 -0.30942
 C168 C 0.50797 0.01887 -0.35161
 C169 C 0.52829 -0.01387 -0.36467
 C170 C 0.54509 -0.04214 -0.33398
 C171 C 0.51581 -0.00260 -0.23602
 C172 C 0.51291 -0.00015 -0.19941
 C173 C 0.50994 0.00186 -0.15636
 C174 C 0.50763 0.00275 -0.11946
 H175 H 0.55342 -0.06089 -0.26897
 H176 H 0.48795 0.04786 -0.30013
 H177 H 0.49667 0.04261 -0.37391
 H178 H 0.56103 -0.06767 -0.34259
 C179 C 0.47082 0.03537 0.29702
 C180 C 0.47994 -0.00139 0.28107
 C181 C 0.48365 -0.03737 0.30766
 C182 C 0.47806 -0.03665 0.35000
 C183 C 0.46902 0.00017 0.36613
 C184 C 0.46525 0.03611 0.33935
 C185 C 0.48455 -0.00234 0.23729
 C186 C 0.48794 -0.00289 0.20051
 C187 C 0.49143 -0.00318 0.15734
 C188 C 0.49401 -0.00303 0.12037
 H189 H 0.46769 0.06332 0.27669
 H190 H 0.49045 -0.06603 0.29561
 H191 H 0.48043 -0.06482 0.37018
 H192 H 0.45783 0.06462 0.35125
 C193 C 0.50437 -0.31001 0.02058
 C194 C 0.52567 -0.27862 -0.00429
 C195 C 0.55221 -0.28927 -0.03300
 C196 C 0.55732 -0.33110 -0.03704
 C197 C 0.53545 -0.36328 -0.01281
 C198 C 0.50938 -0.35193 0.01659
 C199 C 0.52055 -0.23540 -0.00046
 C200 C 0.51670 -0.19900 0.00198
 C201 C 0.51266 -0.15613 0.00386
 C202 C 0.50957 -0.11934 0.00454
 H203 H 0.48417 -0.30208 0.04332
 H204 H 0.56892 -0.26522 -0.05238
 H205 H 0.57760 -0.33827 -0.06007
 H206 H 0.49372 -0.37540 0.03738
 C207 C 0.49709 0.30517 0.02072
 C208 C 0.47929 0.28147 -0.01177
 C209 C 0.45650 0.30048 -0.04529
 C210 C 0.45133 0.34294 -0.04624
 C211 C 0.46913 0.36687 -0.01377
 C212 C 0.49192 0.34766 0.01981
 C213 C 0.48359 0.23748 -0.01033
 C214 C 0.48678 0.20056 -0.00907
 C215 C 0.49015 0.15725 -0.00747
 C216 C 0.49283 0.12023 -0.00594
 H217 H 0.51459 0.29074 0.04692
 H218 H 0.44244 0.28242 -0.07050
 H219 H 0.43332 0.35718 -0.07218
 H220 H 0.50532 0.36551 0.04541
 C221 C -0.30718 0.01410 0.50365
 C222 C -0.28334 -0.01462 0.52649
 C223 C -0.30246 -0.04500 0.55399
 C224 C -0.34531 -0.04676 0.55864
 C225 C -0.37000 -0.01848 0.53530
 C226 C -0.35006 0.01241 0.50818
 C227 C -0.23909 -0.01238 0.52238
 C228 C -0.20197 -0.01041 0.51919
 C229 C -0.15848 -0.00798 0.51566
 C230 C -0.12131 -0.00577 0.51277
 H231 H -0.29252 0.03819 0.48276
 H232 H -0.28422 -0.06727 0.57199
 H233 H -0.35932 -0.07088 0.57992
 H234 H -0.36735 0.03618 0.49144
 C235 C 0.30380 0.04346 0.46174
 C236 C 0.28005 0.00827 0.47872
 C237 C 0.29883 -0.02838 0.49042
 C238 C 0.34118 -0.02990 0.48507
 C239 C 0.36516 0.00535 0.46826
 C240 C 0.34619 0.04197 0.45641
 C241 C 0.23622 0.00938 0.48336
 C242 C 0.19940 0.00975 0.48701
 C243 C 0.15616 0.00951 0.49102
 C244 C 0.11913 0.00868 0.49423
 H245 H 0.28951 0.07189 0.45239
 H246 H 0.28067 -0.05584 0.50334
 H247 H 0.35527 -0.05856 0.49379
 H248 H 0.36421 0.06926 0.44299
 C249 C -0.03138 0.54643 1.29864
 C250 C -0.00081 0.52342 1.28627
 C251 C 0.02677 0.50537 1.31618
 C252 C 0.02368 0.51014 1.35836
 C253 C -0.00750 0.53266 1.37142
 C254 C -0.03453 0.55131 1.34073
 C255 C 0.00236 0.51890 1.24279
 C256 C 0.00435 0.51559 1.20619
 C257 C 0.00588 0.51223 1.16314
 C258 C 0.00645 0.50971 1.12625
 H259 H -0.05282 0.56067 1.27571
 H260 H 0.05098 0.48801 1.30688
 H261 H 0.04656 0.49730 1.38067
 H262 H -0.05889 0.56889 1.34931
 C263 C 0.03887 0.47032 0.71023
 C264 C 0.00328 0.48294 0.72575
 C265 C -0.03159 0.49043 0.69868
 C266 C -0.03096 0.48505 0.65630
 C267 C 0.00468 0.47243 0.64060
 C268 C 0.03953 0.46495 0.66786
 C269 C 0.00224 0.48724 0.76956
 C270 C 0.00155 0.49037 0.80636
 C271 C 0.00104 0.49358 0.84954
 C272 C 0.00099 0.49601 0.88650
 H273 H 0.06594 0.46426 0.73092
 H274 H -0.05937 0.49997 0.71039
 H275 H -0.05835 0.49029 0.63578
 H276 H 0.06709 0.45477 0.65631
   
