data_POSCAR
  _audit_creation_date              2014-09-24
  _audit_creation_method            'ToBaCCo'
  _symmetry_space_group_name_H-M    'P1'
  _symmetry_Int_Tables_number       1
  _symmetry_cell_setting            triclinic
  loop_
  _symmetry_equiv_pos_as_xyz
 x,y,z
_cell_length_a 28.4908
_cell_length_b 28.8661
_cell_length_c 30.8089
_cell_angle_alpha 90.613000
_cell_angle_beta 89.070600
_cell_angle_gamma 92.371100
loop_
  _atom_site_label
  _atom_site_type_symbol
  _atom_site_fract_x
  _atom_site_fract_y
  _atom_site_fract_z
N1 N 0.57379 0.70259 0.60761
 N2 N 0.56181 0.68507 0.64561
 C3 C 0.52256 0.70476 0.66032
 C4 C 0.50959 0.73646 0.62993
 C5 C 0.54305 0.73468 0.59709
 H6 H 0.50488 0.69684 0.69084
 H7 H 0.54442 0.75450 0.56746
 Cu8 Cu 0.59963 0.63952 0.67299
 Cu9 Cu 0.62779 0.68112 0.57477
 Cu10 Cu 0.65734 0.57033 0.60427
 N11 N 0.62888 0.58433 0.69296
 N12 N 0.64883 0.55570 0.66559
 C13 C 0.66106 0.51781 0.68712
 C14 C 0.64991 0.52384 0.73082
 C15 C 0.62899 0.56640 0.73303
 H16 H 0.67763 0.48845 0.67218
 H17 H 0.61207 0.58165 0.76110
 N18 N 0.67862 0.59974 0.54935
 N19 N 0.66719 0.64183 0.53824
 C20 C 0.68869 0.65298 0.50039
 C21 C 0.71528 0.61635 0.48728
 C22 C 0.70865 0.58337 0.51920
 H23 H 0.68686 0.68606 0.48449
 H24 H 0.72567 0.55066 0.52104
 H25 H 0.60543 0.61836 0.59631
 H26 H 0.66304 0.63938 0.61880
 N27 N 0.93355 0.29962 0.10573
 N28 N 0.94378 0.31495 0.14487
 C29 C 0.97713 0.28882 0.16136
 C30 C 0.98778 0.25433 0.13133
 C31 C 0.95999 0.26331 0.09599
 H32 H 0.99155 0.29378 0.19339
 H33 H 0.96016 0.24604 0.06469
 Cu34 Cu 0.91240 0.36719 0.17107
 Cu35 Cu 0.88520 0.32622 0.07101
 Cu36 Cu 0.83622 0.42540 0.11168
 N37 N 0.89068 0.42752 0.18934
 N38 N 0.86090 0.44985 0.16600
 C39 C 0.85195 0.49037 0.18568
 C40 C 0.87801 0.49407 0.22308
 C41 C 0.90167 0.45323 0.22483
 H42 H 0.82804 0.51532 0.17387
 H43 H 0.92535 0.44327 0.24985
 N44 N 0.81608 0.39546 0.05715
 N45 N 0.83543 0.35812 0.04101
 C46 C 0.81435 0.34622 0.00342
 C47 C 0.78046 0.37785 -0.00447
 C48 C 0.78212 0.40820 0.03042
 H49 H 0.82224 0.31627 -0.01635
 H50 H 0.76002 0.43734 0.03581
 H51 H 0.89746 0.39153 0.09747
 H52 H 0.84724 0.35558 0.12103
 N53 N 0.43262 0.20343 -0.10897
 N54 N 0.44773 0.18453 -0.14535
 C55 C 0.48344 0.21137 -0.16179
 C56 C 0.49045 0.24937 -0.13458
 C57 C 0.45804 0.24283 -0.10111
 H58 H 0.50294 0.20405 -0.19130
 H59 H 0.45373 0.26490 -0.07286
 Cu60 Cu 0.41930 0.12649 -0.16708
 Cu61 Cu 0.38110 0.17594 -0.07433
 Cu62 Cu 0.32771 0.07459 -0.11428
 N63 N 0.38928 0.06923 -0.18893
 N64 N 0.35329 0.04944 -0.16806
 C65 C 0.34015 0.00982 -0.18867
 C66 C 0.36983 0.00411 -0.22403
 C67 C 0.40016 0.04277 -0.22371
 H68 H 0.31157 -0.01356 -0.17841
 H69 H 0.42863 0.05029 -0.24653
 N70 N 0.30709 0.10513 -0.06023
 N71 N 0.32827 0.14294 -0.04423
 C72 C 0.30731 0.15395 -0.00618
 C73 C 0.27160 0.12124 0.00238
 C74 C 0.27192 0.09138 -0.03301
 H75 H 0.31721 0.18352 0.01400
 H76 H 0.24799 0.06194 -0.03855
 H77 H 0.38928 0.10822 -0.09438
 H78 H 0.34805 0.14305 -0.12588
 N79 N 0.07540 0.80146 0.39259
 N80 N 0.05530 0.82769 0.36436
 C81 C 0.01210 0.80975 0.35594
 C82 C 0.00466 0.76965 0.37992
 C83 C 0.04629 0.76484 0.40195
 H84 H -0.01108 0.82337 0.33217
 H85 H 0.05426 0.73765 0.42424
 Cu86 Cu 0.08956 0.87966 0.33765
 Cu87 Cu 0.13692 0.81894 0.41588
 Cu88 Cu 0.16983 0.93521 0.39909
 N89 N 0.12203 0.93604 0.31806
 N90 N 0.15267 0.95879 0.34256
 C91 C 0.16662 0.99852 0.32266
 C92 C 0.14434 0.99995 0.28299
 C93 C 0.11605 0.95988 0.28152
 H94 H 0.19000 1.02490 0.33665
 H95 H 0.09200 0.94952 0.25607
 N96 N 0.19643 0.89745 0.44503
 N97 N 0.18438 0.85320 0.45076
 C98 C 0.20716 0.83755 0.48522
 C99 C 0.23504 0.87356 0.50166
 C100 C 0.22784 0.91094 0.47537
 H101 H 0.20290 0.80290 0.49810
 H102 H 0.24346 0.94555 0.47877
 H103 H 0.11635 0.88507 0.41215
 H104 H 0.16463 0.87045 0.37342
 N105 N 0.13554 0.12841 0.14285
 N106 N 0.35580 0.85809 0.64765
 N107 N 0.85532 0.63679 0.35245
 N108 N 0.64174 0.38734 -0.13694
 C109 C 0.09706 0.19936 0.16421
 C110 C 0.06015 0.22936 0.16238
 C111 C 0.02145 0.21989 0.13530
 C112 C 0.01906 0.17658 0.11230
 C113 C 0.05785 0.14717 0.11292
 C114 C 0.09706 0.15898 0.13892
 C115 C 0.05517 0.10529 0.08924
 N116 N 0.01530 0.09244 0.06818
 N117 N -0.02226 0.11831 0.06985
 C118 C -0.02204 0.15934 0.09167
 H119 H 0.12654 0.20804 0.18496
 H120 H 0.06332 0.26129 0.18104
 H121 H 0.08386 0.08211 0.08803
 H122 H -0.05481 0.17656 0.09435
 C123 C 0.43996 0.84370 0.64090
 C124 C 0.47713 0.81418 0.63570
 C125 C 0.46880 0.76618 0.63242
 C126 C 0.42204 0.74759 0.63305
 C127 C 0.38415 0.77764 0.63807
 C128 C 0.39332 0.82615 0.64239
 C129 C 0.33825 0.75787 0.63975
 N130 N 0.33097 0.71135 0.63542
 N131 N 0.36648 0.68324 0.62969
 C132 C 0.41173 0.69972 0.62835
 H133 H 0.44755 0.88068 0.64357
 H134 H 0.51276 0.82883 0.63509
 H135 H 0.30813 0.77868 0.64506
 H136 H 0.43909 0.67528 0.62337
 C137 C 0.93710 0.65798 0.37021
 C138 C 0.97317 0.69055 0.37918
 C139 C 0.96544 0.73831 0.37833
 C140 C 0.91871 0.75287 0.37301
 C141 C 0.88202 0.71952 0.36414
 C142 C 0.89168 0.67180 0.36168
 C143 C 0.83665 0.73516 0.35741
 N144 N 0.82806 0.78078 0.36192
 N145 N 0.86176 0.81179 0.37285
 C146 C 0.90655 0.79943 0.37888
 H147 H 0.94465 0.62151 0.36967
 H148 H 1.00807 0.67813 0.38392
 H149 H 0.80796 0.71178 0.34838
 H150 H 0.93167 0.82598 0.38955
 C151 C 0.61048 0.30773 -0.14645
 C152 C 0.57362 0.27448 -0.14675
 C153 C 0.52730 0.28691 -0.13833
 C154 C 0.51786 0.33431 -0.13122
 C155 C 0.55556 0.36799 -0.13005
 C156 C 0.60220 0.35444 -0.13788
 C157 C 0.54527 0.41415 -0.12023
 N158 N 0.50007 0.42607 -0.11438
 N159 N 0.46451 0.39490 -0.11750
 C160 C 0.47180 0.34954 -0.12584
 H161 H 0.64598 0.29702 -0.15261
 H162 H 0.58155 0.23850 -0.15239
 H163 H 0.57251 0.44084 -0.11687
 H164 H 0.44146 0.32611 -0.12880
 C165 C 0.09886 0.08071 0.20029
 C166 C 0.10150 0.04888 0.23350
 C167 C 0.14483 0.03777 0.25067
 C168 C 0.18633 0.06172 0.23538
 C169 C 0.18324 0.09591 0.20272
 C170 C 0.13945 0.10312 0.18299
 C171 C 0.22425 0.12170 0.19085
 N172 N 0.26606 0.11139 0.20792
 N173 N 0.26950 0.07721 0.23621
 C174 C 0.23121 0.05191 0.25034
 H175 H 0.06490 0.08591 0.18632
 H176 H 0.06922 0.03170 0.24504
 H177 H 0.22345 0.15045 0.16880
 H178 H 0.23657 0.02421 0.27267
 C179 C 0.64067 0.41127 -0.21298
 C180 C 0.64530 0.44422 -0.24555
 C181 C 0.65324 0.49144 -0.23552
 C182 C 0.66086 0.50464 -0.19141
 C183 C 0.65588 0.47093 -0.15813
 C184 C 0.64589 0.42363 -0.16916
 C185 C 0.66005 0.48617 -0.11477
 N186 N 0.67252 0.53097 -0.10566
 N187 N 0.68098 0.56170 -0.13696
 C188 C 0.67594 0.55007 -0.17938
 H189 H 0.63337 0.37538 -0.22206
 H190 H 0.63967 0.43271 -0.27871
 H191 H 0.65273 0.46345 -0.08787
 H192 H 0.68507 0.57622 -0.20318
 C193 C 0.36273 0.94036 0.66901
 C194 C 0.36741 0.97554 0.70013
 C195 C 0.36879 0.96515 0.74436
 C196 C 0.36697 0.91809 0.75735
 C197 C 0.36129 0.88231 0.72570
 C198 C 0.35938 0.89361 0.68109
 C199 C 0.35681 0.83622 0.73996
 N200 N 0.36039 0.82662 0.78272
 N201 N 0.36796 0.86001 0.81220
 C202 C 0.37150 0.90532 0.80102
 H203 H 0.36197 0.94965 0.63508
 H204 H 0.36903 1.01127 0.68962
 H205 H 0.34992 0.80775 0.71779
 H206 H 0.37847 0.93070 0.82635
 C207 C 0.86334 0.55534 0.33048
 C208 C 0.87014 0.52092 0.29924
 C209 C 0.87748 0.53226 0.25552
 C210 C 0.88029 0.57959 0.24344
 C211 C 0.87202 0.61458 0.27503
 C212 C 0.86347 0.60227 0.31903
 C213 C 0.87138 0.66077 0.26110
 N214 N 0.88140 0.67132 0.21911
 N215 N 0.89172 0.63876 0.19000
 C216 C 0.89163 0.59335 0.20071
 H217 H 0.85749 0.54525 0.36393
 H218 H 0.86815 0.48497 0.30913
 H219 H 0.86245 0.68858 0.28279
 H220 H 0.90108 0.56865 0.17581
 C221 C 0.18553 0.16431 0.08595
 C222 C 0.21940 0.16271 0.05300
 C223 C 0.23794 0.12061 0.03969
 C224 C 0.22219 0.07916 0.06076
 C225 C 0.18574 0.08043 0.09278
 C226 C 0.16838 0.12384 0.10664
 C227 C 0.16754 0.03789 0.10914
 N228 N 0.18749 -0.00228 0.09746
 N229 N 0.22414 -0.00296 0.07019
 C230 C 0.24226 0.03631 0.05161
 H231 H 0.17302 0.19775 0.09592
 H232 H 0.23089 0.19479 0.03744
 H233 H 0.13716 0.03570 0.13035
 H234 H 0.27262 0.03354 0.03048
 C235 C 0.83135 0.62223 0.42812
 C236 C 0.79725 0.61616 0.46064
 C237 C 0.74949 0.61650 0.45089
 C238 C 0.73576 0.62074 0.40722
 C239 C 0.77049 0.62629 0.37396
 C240 C 0.81874 0.62814 0.38477
 C241 C 0.75558 0.63139 0.33107
 N242 N 0.70906 0.63004 0.32224
 N243 N 0.67648 0.62414 0.35340
 C244 C 0.68821 0.61950 0.39556
 H245 H 0.86802 0.62278 0.43686
 H246 H 0.80823 0.61292 0.49394
 H247 H 0.78025 0.63701 0.30454
 H248 H 0.66031 0.61457 0.41949
 C249 C 0.66503 0.37914 -0.06150
 C250 C 0.69878 0.37824 -0.02945
 C251 C 0.74664 0.37759 -0.04036
 C252 C 0.76064 0.37689 -0.08473
 C253 C 0.72608 0.37726 -0.11745
 C254 C 0.67801 0.38062 -0.10555
 C255 C 0.74092 0.37321 -0.16097
 N256 N 0.78735 0.37203 -0.17106
 N257 N 0.81991 0.37427 -0.14053
 C258 C 0.80820 0.37674 -0.09777
 H259 H 0.62841 0.38091 -0.05190
 H260 H 0.68741 0.37834 0.00429
 H261 H 0.71624 0.36979 -0.18702
 H262 H 0.83622 0.37873 -0.07456
 C263 C 0.34263 0.86977 0.57001
 C264 C 0.31326 0.87440 0.53476
 C265 C 0.26444 0.87249 0.54050
 C266 C 0.24476 0.86737 0.58274
 C267 C 0.27465 0.86296 0.61870
 C268 C 0.32404 0.86363 0.61211
 C269 C 0.25387 0.85663 0.66002
 N270 N 0.20646 0.85600 0.66490
 N271 N 0.17845 0.86106 0.63126
 C272 C 0.19593 0.86669 0.59038
 H273 H 0.38028 0.87097 0.56447
 H274 H 0.32871 0.87843 0.50258
 H275 H 0.27465 0.85157 0.68839
 H276 H 0.17151 0.87080 0.56432
   
