data_POSCAR
  _audit_creation_date              2014-09-24
  _audit_creation_method            'ToBaCCo'
  _symmetry_space_group_name_H-M    'P1'
  _symmetry_Int_Tables_number       1
  _symmetry_cell_setting            triclinic
  loop_
  _symmetry_equiv_pos_as_xyz
 x,y,z
_cell_length_a 44.9031
_cell_length_b 11.6040
_cell_length_c 12.7402
_cell_angle_alpha 105.456300
_cell_angle_beta 88.708700
_cell_angle_gamma 90.155100
loop_
  _atom_site_label
  _atom_site_type_symbol
  _atom_site_fract_x
  _atom_site_fract_y
  _atom_site_fract_z
C1 C 0.73837 0.14311 0.52402
 C2 C 0.74742 0.15535 0.42414
 C3 C 0.77951 0.15101 0.39147
 C4 C 0.72513 0.17742 0.34713
 C5 C 0.70648 0.12880 0.54984
 C6 C 0.75947 0.15557 0.61437
 C7 C 0.79196 0.23422 0.34062
 C8 C 0.82300 0.24037 0.32648
 C9 C 0.84184 0.16669 0.36786
 C10 C 0.82884 0.07690 0.40929
 C11 C 0.79817 0.06552 0.41531
 C12 C 0.70430 0.27004 0.38278
 C13 C 0.67980 0.27807 0.32028
 C14 C 0.67559 0.19328 0.22008
 C15 C 0.69786 0.10666 0.17983
 C16 C 0.72276 0.10011 0.24244
 C17 C 0.68978 0.03585 0.48394
 C18 C 0.65916 0.02869 0.50248
 C19 C 0.64485 0.11372 0.58769
 C20 C 0.66163 0.20609 0.65418
 C21 C 0.69224 0.21305 0.63584
 C22 C 0.76951 0.05502 0.64518
 C23 C 0.79248 0.06654 0.71999
 C24 C 0.80412 0.17978 0.77019
 C25 C 0.79169 0.28108 0.74774
 C26 C 0.77011 0.26890 0.66836
 H27 H 0.77788 0.29846 0.31724
 H28 H 0.83200 0.30910 0.29181
 H29 H 0.84236 0.01361 0.43619
 H30 H 0.78907 -0.00747 0.44344
 H31 H 0.70619 0.33239 0.46203
 H32 H 0.66358 0.34755 0.35371
 H33 H 0.73935 0.03124 0.21180
 H34 H 0.70043 -0.02993 0.41724
 H35 H 0.64664 -0.04305 0.45002
 H36 H 0.65120 0.27234 0.72110
 H37 H 0.70465 0.28613 0.68686
 H38 H 0.76089 -0.03286 0.60626
 H39 H 0.80132 -0.01262 0.73798
 H40 H 0.79969 0.36927 0.78811
 H41 H 0.76196 0.34760 0.64791
 H42 H 0.69555 0.04174 0.10175
 C43 C 0.26029 0.85803 0.48127
 C44 C 0.25257 0.84680 0.58267
 C45 C 0.22081 0.83417 0.61271
 C46 C 0.27581 0.83648 0.66103
 C47 C 0.29140 0.88367 0.45280
 C48 C 0.23833 0.83519 0.39248
 C49 C 0.19970 0.91552 0.59499
 C50 C 0.16948 0.88894 0.59541
 C51 C 0.15973 0.78359 0.61878
 C52 C 0.18046 0.70837 0.64848
 C53 C 0.21101 0.73277 0.64411
 C54 C 0.27718 0.91703 0.76459
 C55 C 0.30240 0.91927 0.82847
 C56 C 0.32597 0.83781 0.79085
 C57 C 0.32293 0.75018 0.69158
 C58 C 0.29814 0.74993 0.62809
 C59 C 0.30660 0.80423 0.36599
 C60 C 0.33689 0.82021 0.34686
 C61 C 0.35215 0.91862 0.41171
 C62 C 0.33651 1.00201 0.49440
 C63 C 0.30645 0.98374 0.51551
 C64 C 0.22413 0.72396 0.36008
 C65 C 0.20201 0.70427 0.28254
 C66 C 0.19278 0.79639 0.23878
 C67 C 0.20738 0.90718 0.26878
 C68 C 0.23056 0.92552 0.34348
 H69 H 0.20678 0.99537 0.57301
 H70 H 0.15366 0.94900 0.57455
 H71 H 0.17318 0.62733 0.66805
 H72 H 0.22693 0.66890 0.65833
 H73 H 0.25947 0.98155 0.79332
 H74 H 0.30380 0.98638 0.90568
 H75 H 0.29691 0.68551 0.55036
 H76 H 0.29528 0.72725 0.31577
 H77 H 0.34835 0.75574 0.28126
 H78 H 0.34775 1.07911 0.54486
 H79 H 0.29502 1.04629 0.58190
 H80 H 0.22946 0.65347 0.39723
 H81 H 0.19109 0.61863 0.26020
 H82 H 0.20075 0.97919 0.23489
 H83 H 0.24159 1.01141 0.36662
 H84 H 0.34015 0.68451 0.65975
 C85 C 0.23303 0.31394 -0.45100
 C86 C 0.24115 0.33906 -0.54684
 C87 C 0.27278 0.35461 -0.57609
 C88 C 0.21871 0.36260 -0.62307
 C89 C 0.20214 0.27281 -0.43321
 C90 C 0.25506 0.32333 -0.36317
 C91 C 0.28185 0.46624 -0.58609
 C92 C 0.31162 0.48791 -0.60440
 C93 C 0.33308 0.39762 -0.61662
 C94 C 0.32378 0.28177 -0.61603
 C95 C 0.29374 0.26106 -0.59342
 C96 C 0.19305 0.43026 -0.58315
 C97 C 0.17045 0.43984 -0.65320
 C98 C 0.17375 0.38798 -0.76608
 C99 C 0.20101 0.33300 -0.80740
 C100 C 0.22306 0.31840 -0.73626
 C101 C 0.18819 0.18757 -0.51666
 C102 C 0.15849 0.15694 -0.50611
 C103 C 0.14178 0.20883 -0.41041
 C104 C 0.15607 0.29084 -0.32444
 C105 C 0.18598 0.32236 -0.33586
 C106 C 0.25779 0.23117 -0.31167
 C107 C 0.28129 0.23175 -0.24136
 C108 C 0.30284 0.32207 -0.22394
 C109 C 0.29856 0.41985 -0.26720
 C110 C 0.27437 0.42198 -0.33365
 H111 H 0.26604 0.53854 -0.57427
 H112 H 0.31797 0.57617 -0.60953
 H113 H 0.33978 0.20971 -0.62623
 H114 H 0.28689 0.17320 -0.58816
 H115 H 0.18996 0.47175 -0.49698
 H116 H 0.15044 0.48836 -0.61847
 H117 H 0.24307 0.26883 -0.76947
 H118 H 0.20006 0.14751 -0.59213
 H119 H 0.14867 0.09237 -0.57397
 H120 H 0.14419 0.33248 -0.24912
 H121 H 0.19621 0.38827 -0.27006
 H122 H 0.24279 0.15559 -0.33028
 H123 H 0.28383 0.15764 -0.20619
 H124 H 0.31417 0.49345 -0.25153
 H125 H 0.27154 0.49844 -0.36595
 H126 H 0.20454 0.29374 -0.89396
 C127 C -0.24144 0.62461 -0.47119
 C128 C -0.23125 0.64555 -0.56670
 C129 C -0.19949 0.67941 -0.57958
 C130 C -0.25244 0.64963 -0.65403
 C131 C -0.27354 0.63988 -0.43692
 C132 C -0.22030 0.59435 -0.39478
 C133 C -0.18612 0.76615 -0.49568
 C134 C -0.15635 0.79698 -0.50383
 C135 C -0.13913 0.74539 -0.59830
 C136 C -0.15274 0.66046 -0.68417
 C137 C -0.18265 0.62780 -0.67469
 C138 C -0.25315 0.74863 -0.69755
 C139 C -0.27756 0.76680 -0.75767
 C140 C -0.30203 0.68854 -0.77237
 C141 C -0.29962 0.58282 -0.73877
 C142 C -0.27475 0.56255 -0.68241
 C143 C -0.28849 0.55504 -0.39458
 C144 C -0.31925 0.56525 -0.37169
 C145 C -0.33551 0.66152 -0.39006
 C146 C -0.31996 0.74923 -0.42672
 C147 C -0.28939 0.73996 -0.44755
 C148 C -0.19914 0.50320 -0.43318
 C149 C -0.17633 0.48591 -0.36649
 C150 C -0.17417 0.56106 -0.26084
 C151 C -0.19611 0.64857 -0.22037
 C152 C -0.21934 0.66390 -0.28646
 H153 H -0.19879 0.81010 -0.42297
 H154 H -0.14707 0.86359 -0.43615
 H155 H -0.14042 0.61846 -0.75841
 H156 H -0.19256 0.56142 -0.74098
 H157 H -0.23598 0.81619 -0.67859
 H158 H -0.27827 0.84679 -0.78544
 H159 H -0.27401 0.48331 -0.65309
 H160 H -0.27654 0.47918 -0.38214
 H161 H -0.33019 0.49639 -0.34218
 H162 H -0.33138 0.82620 -0.43876
 H163 H -0.27822 0.81000 -0.47472
 H164 H -0.19953 0.44960 -0.51653
 H165 H -0.15943 0.41875 -0.39951
 H166 H -0.19458 0.70784 -0.13909
 H167 H -0.23538 0.73512 -0.25558
 H168 H -0.31721 0.51694 -0.75271
 N169 N 0.01014 1.16186 -0.15250
 N170 N 0.03313 1.21574 -0.18610
 N171 N -0.05328 1.05207 -0.13538
 N172 N -0.08150 1.04265 -0.16361
 N173 N -0.04845 1.15429 -0.06347
 N174 N -0.07331 1.21754 -0.04021
 N175 N 0.00419 1.06100 -0.22528
 N176 N 0.02225 1.04583 -0.31089
 C177 C 0.03985 1.14316 -0.28608
 C178 C -0.09361 1.14643 -0.10325
 N179 N -0.03350 0.74526 -0.07845
 N180 N -0.05310 0.66515 -0.06405
 N181 N 0.01311 0.81205 -0.23301
 N182 N 0.03087 0.80069 -0.31897
 N183 N 0.02450 0.75676 -0.16539
 N184 N 0.05070 0.70947 -0.20263
 N185 N -0.04418 0.80666 -0.14214
 N186 N -0.07139 0.77243 -0.17133
 Mn187 Mn -0.02019 0.93258 -0.18485
 C188 C -0.07656 0.68473 -0.12197
 C189 C 0.05389 0.73528 -0.29972
 N190 N -0.02517 1.21978 0.15318
 N191 N -0.05218 1.25876 0.19025
 N192 N 0.04367 1.17394 0.13009
 N193 N 0.07077 1.20987 0.15949
 N194 N 0.03312 1.23185 0.06332
 N195 N 0.05315 1.30749 0.04321
 N196 N -0.01271 1.16684 0.22054
 N197 N -0.03014 1.17330 0.30596
 Mn198 Mn -0.00770 1.19384 0.00021
 C199 C -0.05446 1.23151 0.28731
 C200 C 0.07619 1.29315 0.10511
 N201 N 0.04786 0.82321 0.05060
 N202 N 0.07228 0.75694 0.03184
 N203 N -0.00455 0.91686 0.21157
 N204 N -0.02204 0.92956 0.29854
 N205 N -0.01052 0.81613 0.13857
 N206 N -0.03275 0.75960 0.17326
 N207 N 0.05292 0.92637 0.12094
 N208 N 0.08086 0.93356 0.15222
 Mn209 Mn 0.00714 0.78366 -0.01364
 Mn210 Mn 0.02003 1.04621 0.17146
 Cl211 Cl -0.00017 0.98917 -0.00670
 C212 C 0.09259 0.82756 0.09529
 C213 C -0.03918 0.83063 0.27403
 N214 N 0.45288 0.32833 -0.07042
 N215 N 0.42642 0.28523 -0.05423
 N216 N 0.51091 0.33635 -0.20733
 N217 N 0.52990 0.29838 -0.28968
 N218 N 0.51201 0.26837 -0.13993
 N219 N 0.53150 0.18088 -0.17568
 N220 N 0.45133 0.39419 -0.13969
 N221 N 0.42372 0.39812 -0.17221
 C222 C 0.40865 0.32919 -0.11872
 C223 C 0.54191 0.19996 -0.27000
 N224 N 0.53126 0.67723 -0.12288
 N225 N 0.55622 0.72055 -0.15310
 N226 N 0.46303 0.63997 -0.13130
 N227 N 0.43596 0.65542 -0.16311
 N228 N 0.47145 0.73398 -0.05499
 N229 N 0.45012 0.81611 -0.03244
 N230 N 0.52283 0.58201 -0.19780
 N231 N 0.54203 0.55724 -0.28115
 Mn232 Mn 0.48698 0.48786 -0.17039
 C233 C 0.56258 0.64463 -0.25126
 C234 C 0.42835 0.76557 -0.10159
 N235 N 0.52966 0.31243 0.08324
 N236 N 0.55079 0.22981 0.05828
 N237 N 0.47974 0.46355 0.22797
 N238 N 0.46077 0.49410 0.31088
 N239 N 0.47002 0.37038 0.15376
 N240 N 0.44390 0.33560 0.18461
 N241 N 0.53873 0.40649 0.15831
 N242 N 0.56609 0.39018 0.18705
 Mn243 Mn 0.49103 0.31827 0.00671
 C244 C 0.57311 0.27960 0.12472
 C245 C 0.43888 0.41252 0.28402
 N246 N 0.48905 0.77853 0.16844
 N247 N 0.46877 0.86340 0.20083
 N248 N 0.55000 0.65301 0.16779
 N249 N 0.57766 0.64721 0.19865
 N250 N 0.54830 0.72047 0.10006
 N251 N 0.57480 0.76345 0.08369
 N252 N 0.49005 0.71087 0.23626
 N253 N 0.46986 0.74663 0.31538
 Mn254 Mn 0.51004 0.72901 0.02265
 Mn255 Mn 0.51472 0.55884 0.19882
 Cl256 Cl 0.50065 0.52341 0.01455
 C257 C 0.45746 0.84356 0.29339
 C258 C 0.59270 0.71721 0.14639
 N259 N 0.40152 0.54112 0.39109
 N260 N 0.37282 0.54164 0.41549
 C261 C 0.36301 0.42865 0.37631
 C262 C 0.38692 0.35785 0.32683
 N263 N 0.41036 0.43257 0.33716
 H264 H 0.38688 0.26450 0.28165
 N265 N -0.06900 0.88202 0.44055
 N266 N -0.09587 0.86246 0.47667
 C267 C -0.10934 0.78194 0.39512
 C268 C -0.08927 0.75144 0.30732
 N269 N -0.06455 0.81631 0.33942
 H270 H -0.09274 0.69377 0.22653
 N271 N 0.63897 0.82042 0.12450
 N272 N 0.66763 0.81481 0.14576
 C273 C 0.67120 0.71969 0.18681
 C274 C 0.64357 0.66775 0.19049
 N275 N 0.62425 0.73333 0.15159
 H276 H 0.63764 0.59301 0.22248
 N277 N 0.12317 1.32576 0.02229
 N278 N 0.15095 1.34525 0.05555
 C279 C 0.14956 1.38258 0.16543
 C280 C 0.12000 1.38730 0.19769
 N281 N 0.10431 1.35015 0.10671
 H282 H 0.11099 1.39770 0.27930
 N283 N 0.57011 0.02567 -0.37255
 N284 N 0.59746 0.00000 -0.41322
 C285 C 0.61272 0.10380 -0.39080
 C286 C 0.59376 0.19431 -0.33662
 N287 N 0.56761 0.14179 -0.32698
 H288 H 0.59860 0.28843 -0.30426
 N289 N 0.08385 0.75245 -0.45434
 N290 N 0.11212 0.76800 -0.47836
 C291 C 0.12817 0.75104 -0.39553
 C292 C 0.10886 0.72357 -0.32000
 N293 N 0.08140 0.72591 -0.35977
 H294 H 0.11392 0.71682 -0.23914
 N295 N 0.38972 0.91964 -0.04018
 N296 N 0.36207 0.94042 -0.06562
 C297 C 0.35419 0.84716 -0.14907
 C298 C 0.37799 0.76879 -0.17363
 N299 N 0.39958 0.81716 -0.10471
 H300 H 0.37982 0.68503 -0.23613
 N301 N -0.13607 1.28069 -0.04885
 N302 N -0.16368 1.29207 -0.07939
 C303 C -0.16956 1.19343 -0.16019
 C304 C -0.14454 1.12116 -0.17848
 N305 N -0.12417 1.17922 -0.10786
 H306 H -0.14077 1.03921 -0.24205
 N307 N 0.58971 0.75191 -0.36014
 N308 N 0.61731 0.76122 -0.39514
 C309 C 0.63350 0.67368 -0.37181
 C310 C 0.61445 0.60852 -0.32233
 N311 N 0.58745 0.66026 -0.31743
 H312 H 0.61991 0.53703 -0.28611
 N313 N 0.07019 1.08587 -0.45061
 N314 N 0.09757 1.09947 -0.48569
 C315 C 0.11160 1.17718 -0.40377
 C316 C 0.09137 1.21224 -0.31668
 N317 N 0.06593 1.15291 -0.34985
 H318 H 0.09506 1.26958 -0.23592
 N319 N 0.36250 0.23642 -0.07930
 N320 N 0.33398 0.23347 -0.10438
 C321 C 0.33053 0.30881 -0.16780
 C322 C 0.35800 0.35724 -0.18161
 N323 N 0.37723 0.30964 -0.12544
 H324 H 0.36372 0.41711 -0.23116
 N325 N -0.10475 0.49965 -0.15829
 N326 N -0.13110 0.46173 -0.19855
 C327 C -0.14696 0.56004 -0.19968
 C328 C -0.12951 0.65856 -0.16045
 N329 N -0.10346 0.61766 -0.13540
 H330 H -0.13403 0.74969 -0.16221
 N331 N 0.42627 1.01674 0.37626
 N332 N 0.39808 1.04029 0.40785
 C333 C 0.38429 0.93387 0.39366
 C334 C 0.40500 0.84447 0.35399
 N335 N 0.43083 0.89983 0.34532
 H336 H 0.40143 0.74891 0.32902
 N337 N -0.08329 1.15607 0.41368
 N338 N -0.11113 1.13008 0.43261
 C339 C -0.12837 1.18034 0.37144
 C340 C -0.10985 1.24050 0.31484
 N341 N -0.08188 1.22107 0.34282
 H342 H -0.11571 1.28314 0.25217
 N343 N 0.61073 0.12389 0.05656
 N344 N 0.63840 0.09946 0.07843
 C345 C 0.64725 0.19034 0.16224
 C346 C 0.62403 0.27116 0.19079
 N347 N 0.60180 0.22632 0.12369
 H348 H 0.62293 0.35354 0.25525
 N349 N 0.13268 0.68107 0.06395
 N350 N 0.15968 0.66965 0.09983
 C351 C 0.16685 0.77653 0.16731
 C352 C 0.14323 0.85379 0.17236
 N353 N 0.12240 0.79062 0.10705
 H354 H 0.14057 0.94381 0.22437
   
