data_POSCAR
  _audit_creation_date              2014-09-24
  _audit_creation_method            'ToBaCCo'
  _symmetry_space_group_name_H-M    'P1'
  _symmetry_Int_Tables_number       1
  _symmetry_cell_setting            triclinic
  loop_
  _symmetry_equiv_pos_as_xyz
 x,y,z
_cell_length_a 40.8215
_cell_length_b 37.9049
_cell_length_c 21.6709
_cell_angle_alpha 89.940700
_cell_angle_beta 90.058400
_cell_angle_gamma 90.016400
loop_
  _atom_site_label
  _atom_site_type_symbol
  _atom_site_fract_x
  _atom_site_fract_y
  _atom_site_fract_z
C1 C 0.16732 0.24670 0.18445
 C2 C 0.18457 0.21461 0.18886
 C3 C 0.21699 0.21559 0.21158
 C4 C 0.23120 0.24697 0.23432
 C5 C 0.21246 0.27817 0.23149
 C6 C 0.18115 0.27848 0.20479
 C7 C 0.26544 0.24705 0.26043
 C8 C 0.28392 0.27843 0.26387
 C9 C 0.31517 0.27889 0.29078
 C10 C 0.32922 0.24713 0.31075
 C11 C 0.31224 0.21490 0.30575
 C12 C 0.27988 0.21567 0.28273
 H13 H 0.14217 0.24710 0.16869
 H14 H 0.23162 0.19193 0.20888
 H15 H 0.22201 0.30266 0.24934
 H16 H 0.27419 0.30293 0.24633
 H17 H 0.35432 0.24768 0.32671
 H18 H 0.26547 0.19183 0.28493
 C19 C 0.82964 0.24776 0.18979
 C20 C 0.81587 0.27972 0.20943
 C21 C 0.78414 0.27975 0.23458
 C22 C 0.76519 0.24860 0.23668
 C23 C 0.77924 0.21721 0.21377
 C24 C 0.81171 0.21629 0.19261
 C25 C 0.73110 0.24851 0.26291
 C26 C 0.71742 0.21721 0.28699
 C27 C 0.68511 0.21592 0.30991
 C28 C 0.66740 0.24776 0.31301
 C29 C 0.68079 0.27957 0.29154
 C30 C 0.71208 0.27952 0.26482
 H31 H 0.85479 0.24729 0.17391
 H32 H 0.77444 0.30429 0.25199
 H33 H 0.76506 0.19316 0.21169
 H34 H 0.73251 0.19391 0.29057
 H35 H 0.64229 0.24793 0.32884
 H36 H 0.72149 0.30395 0.24628
 C37 C 0.66588 0.74649 0.69103
 C38 C 0.68399 0.71514 0.69355
 C39 C 0.71651 0.71624 0.71450
 C40 C 0.73047 0.74767 0.73753
 C41 C 0.71128 0.77866 0.73596
 C42 C 0.67951 0.77848 0.71090
 C43 C 0.76472 0.74780 0.76322
 C44 C 0.78371 0.77895 0.76471
 C45 C 0.81536 0.77952 0.79126
 C46 C 0.82884 0.74728 0.81160
 C47 C 0.81100 0.71576 0.80835
 C48 C 0.77867 0.71658 0.78678
 H49 H 0.64070 0.74591 0.67520
 H50 H 0.73080 0.69229 0.71205
 H51 H 0.72080 0.80321 0.75369
 H52 H 0.77332 0.80307 0.74720
 H53 H 0.85409 0.74611 0.82668
 H54 H 0.76453 0.69251 0.78903
 C55 C 0.32846 0.74827 0.68490
 C56 C 0.31077 0.77970 0.69053
 C57 C 0.27815 0.77834 0.71051
 C58 C 0.26370 0.74653 0.73103
 C59 C 0.28251 0.71531 0.72605
 C60 C 0.31430 0.71585 0.70098
 C61 C 0.22950 0.74644 0.75774
 C62 C 0.21087 0.71509 0.76313
 C63 C 0.17939 0.71496 0.79049
 C64 C 0.16552 0.74763 0.80718
 C65 C 0.18291 0.77919 0.80026
 C66 C 0.21519 0.77808 0.77881
 H67 H 0.35371 0.74906 0.66962
 H68 H 0.26436 0.80261 0.70928
 H69 H 0.27285 0.69025 0.74096
 H70 H 0.22130 0.69048 0.74835
 H71 H 0.14031 0.74898 0.82238
 H72 H 0.22883 0.80245 0.77941
 O73 O 1.02921 -0.04508 -0.01192
 O74 O 0.96482 0.00656 0.06427
 O75 O 0.96602 -0.04504 -0.01533
 O76 O 1.02907 0.00714 0.06497
 O77 O 1.02888 0.04572 -0.01138
 O78 O 0.96619 -0.00675 -0.09207
 O79 O 0.96515 0.04491 -0.01236
 O80 O 1.03002 -0.00681 -0.08870
 Cu81 Cu 0.99711 -0.02277 0.03344
 Cu82 Cu 0.99755 0.02312 -0.05882
 C83 C 1.04061 -0.03488 -0.06340
 C84 C 0.95391 0.03449 0.03919
 C85 C 0.95562 -0.03507 -0.06781
 C86 C 1.03995 0.03520 0.04024
 O87 O 0.52886 0.45457 0.48313
 O88 O 0.46718 0.50563 0.56805
 O89 O 0.46553 0.45541 0.48557
 O90 O 0.53097 0.50543 0.56313
 O91 O 0.52978 0.54501 0.48846
 O92 O 0.46470 0.49467 0.41040
 O93 O 0.46605 0.54499 0.49308
 O94 O 0.52825 0.49383 0.40793
 Cu95 Cu 0.49815 0.47640 0.53258
 Cu96 Cu 0.49704 0.52364 0.44253
 C97 C 0.53899 0.46521 0.43094
 C98 C 0.45615 0.53415 0.54538
 C99 C 0.45430 0.46614 0.43416
 C100 C 0.54159 0.53379 0.53905
 O101 O -0.03367 0.54532 0.01000
 O102 O 0.03150 0.49476 0.08747
 O103 O 0.02999 0.54527 0.00473
 O104 O -0.03206 0.49405 0.09042
 O105 O -0.03301 0.45496 0.01509
 O106 O 0.02901 0.50571 -0.06983
 O107 O 0.03027 0.45546 0.01251
 O108 O -0.03488 0.50600 -0.06493
 Cu109 Cu -0.00087 0.52385 0.05559
 Cu110 Cu -0.00221 0.47670 -0.03443
 C111 C -0.04549 0.53428 -0.04065
 C112 C 0.04167 0.46615 0.06378
 C113 C 0.04000 0.53428 -0.04736
 C114 C -0.04296 0.46552 0.06741
 O115 O 0.46719 1.04650 0.50895
 O116 O 0.52842 0.99364 0.59292
 O117 O 0.53085 1.04573 0.51362
 O118 O 0.46475 0.99386 0.58590
 O119 O 0.46681 0.95576 0.50909
 O120 O 0.53255 1.00753 0.43691
 O121 O 0.52998 0.95577 0.51577
 O122 O 0.46824 1.00818 0.43236
 Cu123 Cu 0.49772 1.02377 0.55805
 Cu124 Cu 0.49966 0.97817 0.46556
 C125 C 0.45694 1.03613 0.45668
 C126 C 0.53945 0.96546 0.56899
 C127 C 0.54302 1.03537 0.46285
 C128 C 0.45457 0.96586 0.55991
 C129 C 1.12767 0.14894 0.11759
 C130 C 1.13654 0.11892 0.14892
 C131 C 1.16192 0.11834 0.19158
 C132 C 1.17853 0.15010 0.20315
 C133 C 1.16936 0.18212 0.17286
 C134 C 1.14356 0.18086 0.12865
 O135 O 1.10290 0.14395 0.07887
 C136 C 1.09578 0.11006 0.08634
 C137 C 1.11550 0.09354 0.12898
 C138 C 1.11153 0.05829 0.14530
 C139 C 1.08627 0.03931 0.11632
 C140 C 1.06591 0.05566 0.07147
 C141 C 1.07090 0.09160 0.05633
 H142 H 1.16839 0.09438 0.21591
 H143 H 1.19727 0.14974 0.23848
 H144 H 1.13617 0.20376 0.10230
 H145 H 1.12717 0.04591 0.17936
 H146 H 1.08283 0.01182 0.12827
 H147 H 1.05561 0.10494 0.02277
 C148 C 0.63039 0.64672 0.61601
 C149 C 0.63592 0.61801 0.65346
 C150 C 0.65763 0.61887 0.70290
 C151 C 0.67402 0.65074 0.71462
 C152 C 0.66842 0.68096 0.67720
 C153 C 0.64644 0.67862 0.62672
 O154 O 0.60809 0.64072 0.57268
 C155 C 0.59925 0.60755 0.58316
 C156 C 0.61550 0.59246 0.63212
 C157 C 0.60908 0.55835 0.65249
 C158 C 0.58484 0.53906 0.62121
 C159 C 0.56769 0.55404 0.57048
 C160 C 0.57529 0.58878 0.55111
 H161 H 0.66136 0.59605 0.73211
 H162 H 0.69027 0.65215 0.75407
 H163 H 0.64162 0.70106 0.59716
 H164 H 0.62199 0.54713 0.69150
 H165 H 0.57938 0.51254 0.63670
 H166 H 0.56246 0.60118 0.51309
 C167 C -0.12967 0.35053 0.14240
 C168 C -0.12983 0.37518 0.18892
 C169 C -0.14730 0.37036 0.24343
 C170 C -0.16525 0.33890 0.25010
 C171 C -0.16534 0.31305 0.20264
 C172 C -0.14727 0.31926 0.14800
 O173 O -0.11131 0.35975 0.09463
 C174 C -0.09952 0.39090 0.11126
 C175 C -0.11005 0.40167 0.16850
 C176 C -0.10011 0.43339 0.19487
 C177 C -0.07832 0.45467 0.16100
 C178 C -0.06697 0.44391 0.10197
 C179 C -0.07804 0.41156 0.07691
 H180 H -0.14697 0.39000 0.27965
 H181 H -0.17862 0.33445 0.29252
 H182 H -0.14707 0.30036 0.11056
 H183 H -0.10860 0.44134 0.24006
 H184 H -0.07009 0.47928 0.18104
 H185 H -0.06983 0.40236 0.03224
 C186 C 0.36544 0.85054 0.62293
 C187 C 0.35991 0.87770 0.66366
 C188 C 0.33797 0.87500 0.71243
 C189 C 0.32131 0.84288 0.71986
 C190 C 0.32685 0.81423 0.67888
 C191 C 0.34913 0.81842 0.62936
 O192 O 0.38790 0.85815 0.58078
 C193 C 0.39683 0.89076 0.59535
 C194 C 0.38050 0.90396 0.64575
 C195 C 0.38694 0.93721 0.67004
 C196 C 0.41127 0.95763 0.64127
 C197 C 0.42847 0.94458 0.58912
 C198 C 0.42087 0.91065 0.56583
 H199 H 0.33424 0.89661 0.74425
 H200 H 0.30484 0.84000 0.75867
 H201 H 0.35391 0.79720 0.59720
 H202 H 0.37395 0.94693 0.71008
 H203 H 0.41674 0.98350 0.65975
 H204 H 0.43370 0.89969 0.52657
 C205 C -0.13494 0.64715 -0.11545
 C206 C -0.14016 0.61876 -0.15369
 C207 C -0.16178 0.61987 -0.20324
 C208 C -0.17841 0.65167 -0.21424
 C209 C -0.17316 0.68159 -0.17597
 C210 C -0.15127 0.67898 -0.12541
 O211 O -0.11266 0.64095 -0.07213
 C212 C -0.10353 0.60798 -0.08344
 C213 C -0.11957 0.59321 -0.13290
 C214 C -0.11285 0.55936 -0.15409
 C215 C -0.08854 0.53999 -0.12312
 C216 C -0.07161 0.55463 -0.07189
 C217 C -0.07949 0.58913 -0.05171
 H218 H -0.16525 0.59730 -0.23309
 H219 H -0.19457 0.65329 -0.25379
 H220 H -0.14670 0.70119 -0.09523
 H221 H -0.12560 0.54840 -0.19347
 H222 H -0.08288 0.51366 -0.13924
 H223 H -0.06684 0.60128 -0.01326
 C224 C 0.36936 1.14952 0.37723
 C225 C 0.36097 1.11957 0.34533
 C226 C 0.33584 1.11893 0.30215
 C227 C 0.31897 1.15056 0.29067
 C228 C 0.32768 1.18251 0.32155
 C229 C 0.35324 1.18131 0.36626
 O230 O 0.39388 1.14459 0.41655
 C231 C 0.40132 1.11082 0.40888
 C232 C 0.38208 1.09431 0.36552
 C233 C 0.38642 1.05916 0.34904
 C234 C 0.41153 1.04026 0.37868
 C235 C 0.43135 1.05659 0.42435
 C236 C 0.42604 1.09243 0.43954
 H237 H 0.32971 1.09502 0.27741
 H238 H 0.30041 1.15018 0.25501
 H239 H 0.36024 1.20416 0.39306
 H240 H 0.37114 1.04678 0.31443
 H241 H 0.41521 1.01282 0.36670
 H242 H 0.44090 1.10575 0.47377
 C243 C 1.12891 -0.15005 -0.13037
 C244 C 1.13361 -0.12304 -0.17189
 C245 C 1.15474 -0.12583 -0.22188
 C246 C 1.17145 -0.15787 -0.22969
 C247 C 1.16676 -0.18636 -0.18788
 C248 C 1.14529 -0.18209 -0.13717
 O249 O 1.10716 -0.14238 -0.08699
 C250 C 1.09785 -0.10988 -0.10156
 C251 C 1.11323 -0.09681 -0.15316
 C252 C 1.10626 -0.06367 -0.17752
 C253 C 1.08240 -0.04323 -0.14750
 C254 C 1.06619 -0.05615 -0.09410
 C255 C 1.07429 -0.08998 -0.07084
 H256 H 1.15785 -0.10434 -0.25427
 H257 H 1.18732 -0.16082 -0.26936
 H258 H 1.14116 -0.20319 -0.10436
 H259 H 1.11850 -0.05404 -0.21849
 H260 H 1.07653 -0.01744 -0.16598
 H261 H 1.06223 -0.10085 -0.03061
 C262 C 0.62652 0.35069 0.35791
 C263 C 0.62602 0.37480 0.31046
 C264 C 0.64300 0.36955 0.25555
 C265 C 0.66113 0.33819 0.24943
 C266 C 0.66191 0.31288 0.29786
 C267 C 0.64436 0.31955 0.35291
 O268 O 0.60846 0.36019 0.40586
 C269 C 0.59618 0.39099 0.38840
 C270 C 0.60612 0.40126 0.33049
 C271 C 0.59561 0.43254 0.30321
 C272 C 0.57383 0.45388 0.33688
 C273 C 0.56304 0.44360 0.39659
 C274 C 0.57469 0.41170 0.42255
 H275 H 0.64212 0.38875 0.21859
 H276 H 0.67407 0.33338 0.20669
 H277 H 0.64467 0.30107 0.39106
 H278 H 0.60364 0.44010 0.25749
 H279 H 0.56514 0.47814 0.31615
 H280 H 0.56694 0.40287 0.46777
 C281 C 0.87248 -0.15255 -0.14569
 C282 C 0.86721 -0.12511 -0.18586
 C283 C 0.84542 -0.12746 -0.23495
 C284 C 0.82825 -0.15931 -0.24274
 C285 C 0.83318 -0.18846 -0.20191
 C286 C 0.85604 -0.18446 -0.15275
 O287 O 0.89380 -0.14496 -0.10143
 C288 C 0.90233 -0.11200 -0.11409
 C289 C 0.88688 -0.09857 -0.16540
 C290 C 0.89256 -0.06452 -0.18697
 C291 C 0.91519 -0.04362 -0.15444
 C292 C 0.93135 -0.05691 -0.10117
 C293 C 0.92460 -0.09165 -0.08082
 H294 H 0.84178 -0.10556 -0.26630
 H295 H 0.81213 -0.16127 -0.28219
 H296 H 0.86007 -0.20487 -0.11865
 H297 H 0.88017 -0.05448 -0.22752
 H298 H 0.92004 -0.01711 -0.17071
 H299 H 0.93661 -0.10276 -0.04070
 C300 C 0.36795 0.35062 0.36002
 C301 C 0.36742 0.37548 0.31379
 C302 C 0.35039 0.37052 0.25883
 C303 C 0.33319 0.33866 0.25135
 C304 C 0.33334 0.31259 0.29855
 C305 C 0.35100 0.31895 0.35370
 O306 O 0.38614 0.35997 0.40802
 C307 C 0.39743 0.39143 0.39180
 C308 C 0.38669 0.40225 0.33465
 C309 C 0.39618 0.43415 0.30839
 C310 C 0.41787 0.45554 0.34214
 C311 C 0.42965 0.44470 0.40092
 C312 C 0.41889 0.41223 0.42610
 H313 H 0.35055 0.39031 0.22279
 H314 H 0.32026 0.33410 0.20847
 H315 H 0.35142 0.29986 0.39090
 H316 H 0.38753 0.44209 0.26324
 H317 H 0.42588 0.48021 0.32196
 H318 H 0.42750 0.40295 0.47051
 C319 C 0.12326 0.64896 -0.13744
 C320 C 0.12845 0.62018 -0.17453
 C321 C 0.15000 0.62087 -0.22410
 C322 C 0.16696 0.65246 -0.23580
 C323 C 0.16204 0.68302 -0.19840
 C324 C 0.13952 0.68063 -0.14839
 O325 O 0.10208 0.64289 -0.09225
 C326 C 0.09353 0.60954 -0.10119
 C327 C 0.10886 0.59439 -0.15105
 C328 C 0.10306 0.55974 -0.16904
 C329 C 0.08043 0.54002 -0.13440
 C330 C 0.06435 0.55506 -0.08257
 C331 C 0.07125 0.59036 -0.06577
 H332 H 0.15356 0.59791 -0.25299
 H333 H 0.18285 0.65309 -0.27567
 H334 H 0.13553 0.70222 -0.11667
 H335 H 0.11533 0.54835 -0.20853
 H336 H 0.07548 0.51305 -0.14796
 H337 H 0.05928 0.60278 -0.02689
 C338 C 0.62968 1.14990 0.38459
 C339 C 0.63944 1.11962 0.35520
 C340 C 0.66478 1.11905 0.31260
 C341 C 0.68050 1.15108 0.29911
 C342 C 0.67053 1.18334 0.32754
 C343 C 0.64472 1.18210 0.37167
 O344 O 0.60486 1.14484 0.42315
 C345 C 0.59865 1.11063 0.41753
 C346 C 0.61901 1.09399 0.37626
 C347 C 0.61592 1.05845 0.36148
 C348 C 0.59076 1.03932 0.39032
 C349 C 0.56959 1.05581 0.43351
 C350 C 0.57384 1.09200 0.44750
 H351 H 0.67186 1.09488 0.28966
 H352 H 0.69917 1.15061 0.26376
 H353 H 0.63667 1.20524 0.39656
 H354 H 0.63204 1.04600 0.32839
 H355 H 0.58786 1.01165 0.37920
 H356 H 0.55783 1.10545 0.47960
 C357 C 0.12792 0.35026 0.13678
 C358 C 0.12843 0.37490 0.18331
 C359 C 0.14553 0.36970 0.23816
 C360 C 0.16282 0.33787 0.24518
 C361 C 0.16273 0.31206 0.19764
 C362 C 0.14497 0.31863 0.14265
 O363 O 0.10972 0.35983 0.08890
 C364 C 0.09841 0.39120 0.10550
 C365 C 0.10915 0.40174 0.16277
 C366 C 0.09969 0.43354 0.18934
 C367 C 0.07804 0.45510 0.15578
 C368 C 0.06627 0.44454 0.09688
 C369 C 0.07699 0.41217 0.07140
 H370 H 0.14535 0.38931 0.27442
 H371 H 0.17583 0.33315 0.28794
 H372 H 0.14459 0.29974 0.10520
 H373 H 0.10835 0.44127 0.23458
 H374 H 0.07006 0.47969 0.17620
 H375 H 0.06840 0.40310 0.02686
 C376 C 0.62503 0.84939 0.64405
 C377 C 0.62516 0.87388 0.69081
 C378 C 0.64250 0.86889 0.74547
 C379 C 0.66040 0.83740 0.75204
 C380 C 0.66056 0.81172 0.70433
 C381 C 0.64257 0.81806 0.64957
 O382 O 0.60685 0.85886 0.59609
 C383 C 0.59516 0.89002 0.61285
 C384 C 0.60557 0.90052 0.67036
 C385 C 0.59580 0.93222 0.69691
 C386 C 0.57430 0.95378 0.66294
 C387 C 0.56308 0.94336 0.60359
 C388 C 0.57395 0.91100 0.57833
 H389 H 0.64214 0.88843 0.78184
 H390 H 0.67372 0.83284 0.79452
 H391 H 0.64244 0.79928 0.61196
 H392 H 0.60422 0.93995 0.74230
 H393 H 0.56624 0.97841 0.68313
 H394 H 0.56583 0.90206 0.53341
 C395 C 0.86544 0.14785 0.11556
 C396 C 0.86008 0.11927 0.15339
 C397 C 0.83852 0.12023 0.20295
 C398 C 0.82205 0.15205 0.21439
 C399 C 0.82744 0.18216 0.17658
 C400 C 0.84931 0.17973 0.12602
 O401 O 0.88761 0.14172 0.07209
 C402 C 0.89653 0.10860 0.08289
 C403 C 0.88046 0.09369 0.13219
 C404 C 0.88695 0.05968 0.15293
 C405 C 0.91106 0.04028 0.12169
 C406 C 0.92802 0.05502 0.07057
 C407 C 0.92037 0.08969 0.05080
 H408 H 0.83493 0.09749 0.23243
 H409 H 0.80590 0.15353 0.25390
 H410 H 0.85397 0.20210 0.09618
 H411 H 0.87418 0.04862 0.19219
 H412 H 0.91653 0.01382 0.13747
 H413 H 0.93306 0.10189 0.01247
 C414 C 0.36891 0.64716 0.62784
 C415 C 0.36848 0.62110 0.67200
 C416 C 0.35072 0.62414 0.72655
 C417 C 0.33276 0.65534 0.73590
 C418 C 0.33293 0.68267 0.69101
 C419 C 0.35127 0.67823 0.63611
 O420 O 0.38762 0.63945 0.57969
 C421 C 0.39935 0.60782 0.59370
 C422 C 0.38841 0.59534 0.64964
 C423 C 0.39814 0.56293 0.67352
 C424 C 0.42016 0.54271 0.63848
 C425 C 0.43198 0.55512 0.58070
 C426 C 0.42113 0.58817 0.55808
 H427 H 0.35088 0.60338 0.76087
 H428 H 0.31923 0.65842 0.77850
 H429 H 0.35170 0.69834 0.60060
 H430 H 0.38932 0.55365 0.71774
 H431 H 0.42817 0.51753 0.65669
 H432 H 0.42972 0.59860 0.51447
   
