data_POSCAR
  _audit_creation_date              2014-09-24
  _audit_creation_method            'ToBaCCo'
  _symmetry_space_group_name_H-M    'P1'
  _symmetry_Int_Tables_number       1
  _symmetry_cell_setting            triclinic
  loop_
  _symmetry_equiv_pos_as_xyz
 x,y,z
_cell_length_a 62.3229
_cell_length_b 62.2817
_cell_length_c 21.7151
_cell_angle_alpha 89.980000
_cell_angle_beta 90.007000
_cell_angle_gamma 119.976900
loop_
  _atom_site_label
  _atom_site_type_symbol
  _atom_site_fract_x
  _atom_site_fract_y
  _atom_site_fract_z
O1 O 0.21872 0.47876 0.44076
 O2 O 0.26105 0.47913 0.55960
 O3 O 0.21890 0.47853 0.56051
 O4 O 0.26084 0.47929 0.44028
 O5 O 0.28095 0.52025 0.44063
 O6 O 0.23890 0.51947 0.56097
 O7 O 0.28112 0.52006 0.56006
 O8 O 0.23874 0.51970 0.44107
 Cu9 Cu 0.23784 0.47482 0.50026
 Cu10 Cu 0.26190 0.52399 0.50073
 C11 C 0.22144 0.49915 0.42091
 C12 C 0.27850 0.49964 0.57958
 C13 C 0.22166 0.49885 0.58095
 C14 C 0.27820 0.49988 0.42051
 O15 O 0.51969 -0.21911 0.56128
 O16 O 0.51954 -0.26124 0.44220
 O17 O 0.51958 -0.21934 0.44185
 O18 O 0.51967 -0.26106 0.56164
 O19 O 0.47877 -0.28154 0.56198
 O20 O 0.47865 -0.23974 0.44206
 O21 O 0.47862 -0.28173 0.44240
 O22 O 0.47879 -0.23950 0.56163
 Cu23 Cu 0.52372 -0.23814 0.50175
 Cu24 Cu 0.47459 -0.26268 0.50208
 C25 C 0.49928 -0.22192 0.58126
 C26 C 0.49907 -0.27878 0.42244
 C27 C 0.49912 -0.22228 0.42199
 C28 C 0.49926 -0.27860 0.58173
 O29 O 1.26050 0.78134 0.44130
 O30 O 1.21809 0.73943 0.56010
 O31 O 1.26022 0.78103 0.56066
 O32 O 1.21838 0.73978 0.44038
 O33 O 1.23839 0.71885 0.44023
 O34 O 1.28033 0.76018 0.56063
 O35 O 1.23810 0.71851 0.56010
 O36 O 1.28059 0.76048 0.44115
 Cu37 Cu 1.23726 0.76246 0.50064
 Cu38 Cu 1.26134 0.73737 0.50054
 C39 C 1.27791 0.77820 0.42146
 C40 C 1.22074 0.72172 0.58011
 C41 C 1.27757 0.77781 0.58059
 C42 C 1.22118 0.72222 0.42006
 O43 O 0.73940 0.52159 0.55949
 O44 O 0.78135 0.52103 0.44089
 O45 O 0.73978 0.52158 0.43977
 O46 O 0.78103 0.52110 0.56025
 O47 O 0.76026 0.48014 0.56041
 O48 O 0.71892 0.48063 0.43982
 O49 O 0.76056 0.48007 0.44093
 O50 O 0.71857 0.48066 0.55969
 Cu51 Cu 0.76245 0.52543 0.50011
 Cu52 Cu 0.73745 0.47626 0.50025
 C53 C 0.72173 0.50124 0.57956
 C54 C 0.77825 0.50047 0.42118
 C55 C 0.72226 0.50121 0.41952
 C56 C 0.77785 0.50056 0.58030
 O57 O 0.47743 0.25953 0.44110
 O58 O 0.47738 0.21720 0.55967
 O59 O 0.47730 0.25903 0.56073
 O60 O 0.47733 0.21763 0.44004
 O61 O 0.51825 0.23802 0.44006
 O62 O 0.51823 0.27954 0.56086
 O63 O 0.51828 0.23763 0.55983
 O64 O 0.51835 0.27999 0.44109
 Cu65 Cu 0.47326 0.23630 0.50039
 Cu66 Cu 0.52239 0.26085 0.50048
 C67 C 0.49789 0.27704 0.42116
 C68 C 0.49781 0.22007 0.57970
 C69 C 0.49773 0.27643 0.58101
 C70 C 0.49777 0.22067 0.41977
 O71 O 0.74008 0.21874 0.44132
 O72 O 0.78215 0.26113 0.55991
 O73 O 0.74058 0.21897 0.56104
 O74 O 0.78169 0.26081 0.44056
 O75 O 0.76095 0.28101 0.44094
 O76 O 0.71972 0.23905 0.56152
 O77 O 0.76137 0.28128 0.56040
 O78 O 0.71925 0.23885 0.44165
 Cu79 Cu 0.76318 0.23786 0.50068
 Cu80 Cu 0.73819 0.26204 0.50118
 C81 C 0.72243 0.22150 0.42152
 C82 C 0.77913 0.27861 0.57988
 C83 C 0.72306 0.22178 0.58151
 C84 C 0.77850 0.27819 0.42073
 O85 O 0.96581 0.44592 0.11279
 O86 O 0.93838 0.45132 0.05343
 C87 C 0.94354 0.44031 0.09682
 O88 O 1.03507 0.55672 0.10635
 O89 O 1.06247 0.54991 0.05077
 C90 C 1.05736 0.56214 0.09082
 O91 O 0.96574 0.52015 0.11242
 O92 O 0.93834 0.48723 0.05334
 C93 C 0.94347 0.50343 0.09660
 O94 O 1.03513 0.47859 0.10643
 O95 O 1.06250 0.51295 0.05120
 C96 C 1.05741 0.49556 0.09120
 Zr97 Zr 1.00040 0.47314 0.07654
 O98 O 1.00283 0.47296 0.17373
 O99 O 0.99924 0.43874 0.06927
 Zr100 Zr 1.00032 0.52741 0.07649
 O101 O 1.00309 0.52934 0.17372
 O102 O 0.99747 0.55989 0.07433
 O103 O 0.97829 0.48923 0.08870
 O104 O 1.02180 0.51102 0.08803
 O105 O 1.03492 0.47807 -0.10762
 O106 O 1.06224 0.51249 -0.05269
 C107 C 1.05718 0.49501 -0.09230
 O108 O 0.96576 0.52010 -0.11440
 O109 O 0.93836 0.48721 -0.05515
 C110 C 0.94349 0.50342 -0.09840
 O111 O 1.03510 0.55667 -0.10863
 O112 O 1.06246 0.54990 -0.05274
 C113 C 1.05738 0.56210 -0.09303
 O114 O 0.96579 0.44561 -0.11386
 O115 O 0.93836 0.45124 -0.05518
 C116 C 0.94351 0.44008 -0.09822
 Zr117 Zr 1.00036 0.47310 -0.07826
 O118 O 1.00317 0.47433 -0.17552
 O119 O 0.99796 0.43798 -0.07655
 Zr120 Zr 1.00036 0.52739 -0.07856
 O121 O 1.00313 0.52919 -0.17580
 O122 O 0.99755 0.55990 -0.07670
 Zr123 Zr 0.96321 0.48168 -0.00093
 Zr124 Zr 1.03732 0.51881 -0.00084
 O125 O 1.02186 0.51099 -0.08979
 O126 O 0.97826 0.48918 -0.09061
 O127 O 1.02262 0.48013 -0.00076
 O128 O 0.97864 0.52044 -0.00106
 O129 O 0.97861 0.45834 -0.00077
 O130 O 1.02254 0.54275 -0.00102
 H131 H 1.03282 0.51652 0.12452
 H132 H 0.96737 0.52735 -0.00106
 H133 H 1.03297 0.51648 -0.12611
 H134 H 0.96735 0.44014 -0.00070
 H135 H 1.01204 0.57275 0.05179
 H136 H 1.01210 0.57275 -0.05411
 H137 H 0.98998 0.51313 -0.19210
 H138 H 0.98957 0.47652 -0.19185
 H139 H 1.01034 0.43896 -0.04645
 H140 H 0.99932 0.43324 0.11205
 H141 H 0.99094 0.47761 0.19030
 H142 H 0.98990 0.51334 0.19019
 O143 O 0.44636 0.48061 0.11339
 O144 O 0.45127 0.51305 0.05311
 C145 C 0.44054 0.49711 0.09707
 O146 O 0.55656 0.52159 0.10595
 O147 O 0.54983 0.48740 0.05034
 C148 C 0.56202 0.50475 0.09041
 O149 O 0.52006 0.55450 0.11170
 O150 O 0.48707 0.54893 0.05283
 C151 C 0.50330 0.56003 0.09600
 O152 O 0.47865 0.44377 0.10708
 O153 O 0.51263 0.45034 0.05093
 C154 C 0.49543 0.43826 0.09147
 Zr155 Zr 0.47299 0.47274 0.07570
 O156 O 0.47012 0.46913 0.17261
 O157 O 0.43885 0.43951 0.06509
 Zr158 Zr 0.52726 0.52708 0.07604
 O159 O 0.52882 0.52619 0.17335
 O160 O 0.55976 0.56236 0.07430
 O161 O 0.48913 0.51091 0.08815
 O162 O 0.51090 0.48919 0.08747
 O163 O 0.47820 0.44331 -0.10843
 O164 O 0.51254 0.45030 -0.05323
 C165 C 0.49512 0.43795 -0.09300
 O166 O 0.51997 0.55444 -0.11479
 O167 O 0.48708 0.54894 -0.05561
 C168 C 0.50328 0.56003 -0.09882
 O169 O 0.55655 0.52171 -0.10916
 O170 O 0.54990 0.48762 -0.05329
 C171 C 0.56205 0.50490 -0.09359
 O172 O 0.44562 0.47997 -0.11464
 O173 O 0.45116 0.51298 -0.05581
 C174 C 0.44007 0.49672 -0.09895
 Zr175 Zr 0.47303 0.47279 -0.07883
 O176 O 0.47410 0.47108 -0.17608
 O177 O 0.43791 0.44012 -0.07683
 Zr178 Zr 0.52723 0.52707 -0.07899
 O179 O 0.52896 0.52604 -0.17623
 O180 O 0.55969 0.56238 -0.07719
 Zr181 Zr 0.48156 0.51852 -0.00145
 Zr182 Zr 0.51876 0.48148 -0.00132
 O183 O 0.51091 0.48918 -0.09025
 O184 O 0.48907 0.51098 -0.09111
 O185 O 0.48007 0.45750 -0.00142
 O186 O 0.52028 0.54181 -0.00147
 O187 O 0.45819 0.47980 -0.00144
 O188 O 0.54261 0.52022 -0.00145
 H189 H 0.51652 0.48370 0.12380
 H190 H 0.52721 0.56001 -0.00148
 H191 H 0.51642 0.48360 -0.12661
 H192 H 0.44002 0.47298 -0.00125
 H193 H 0.57257 0.56068 0.05141
 H194 H 0.57251 0.56072 -0.05433
 H195 H 0.51300 0.52337 -0.19255
 H196 H 0.47665 0.48701 -0.19243
 H197 H 0.43924 0.42819 -0.04920
 H198 H 0.43258 0.43374 0.10730
 H199 H 0.48618 0.48184 0.18972
 H200 H 0.51279 0.52351 0.18936
 O201 O 0.51993 -0.03427 0.11359
 O202 O 0.48716 -0.06172 0.05416
 C203 C 0.50328 -0.05657 0.09762
 O204 O 0.47827 0.03496 0.10647
 O205 O 0.51251 0.06234 0.05112
 C206 C 0.49512 0.05724 0.09097
 O207 O 0.44568 -0.03427 0.11255
 O208 O 0.45123 -0.06173 0.05375
 C209 C 0.44012 -0.05657 0.09685
 O210 O 0.55643 0.03516 0.10756
 O211 O 0.54975 0.06257 0.05157
 C212 C 0.56187 0.05746 0.09199
 Zr213 Zr 0.52727 0.00033 0.07742
 O214 O 0.52909 0.00310 0.17465
 O215 O 0.55976 -0.00247 0.07564
 Zr216 Zr 0.47303 0.00030 0.07659
 O217 O 0.47378 0.00311 0.17381
 O218 O 0.43772 -0.00255 0.07395
 O219 O 0.48909 -0.02178 0.08926
 O220 O 0.51086 0.02181 0.08838
 O221 O 0.55691 0.03489 -0.10749
 O222 O 0.55002 0.06229 -0.05225
 C223 C 0.56233 0.05718 -0.09205
 O224 O 0.44599 -0.03434 -0.11418
 O225 O 0.45139 -0.06176 -0.05468
 C226 C 0.44037 -0.05663 -0.09808
 O227 O 0.47867 0.03494 -0.10888
 O228 O 0.51272 0.06235 -0.05302
 C229 C 0.49547 0.05723 -0.09337
 O230 O 0.52030 -0.03437 -0.11327
 O231 O 0.48733 -0.06177 -0.05432
 C232 C 0.50358 -0.05666 -0.09743
 Zr233 Zr 0.52749 0.00024 -0.07754
 O234 O 0.52946 0.00302 -0.17478
 O235 O 0.55994 -0.00262 -0.07507
 Zr236 Zr 0.47329 0.00029 -0.07839
 O237 O 0.47443 0.00301 -0.17565
 O238 O 0.43800 -0.00251 -0.07688
 Zr239 Zr 0.48171 -0.03687 -0.00036
 Zr240 Zr 0.51880 0.03737 -0.00054
 O241 O 0.51117 0.02178 -0.08939
 O242 O 0.48936 -0.02185 -0.09009
 O243 O 0.54271 0.02254 -0.00005
 O244 O 0.45842 -0.02141 -0.00090
 O245 O 0.52043 -0.02143 0.00007
 O246 O 0.48008 0.02256 -0.00100
 H247 H 0.51629 0.03286 0.12481
 H248 H 0.44024 -0.03268 -0.00099
 H249 H 0.51678 0.03284 -0.12583
 H250 H 0.52734 -0.03271 0.00026
 H251 H 0.43946 0.01201 0.05128
 H252 H 0.43967 0.01205 -0.05435
 H253 H 0.47710 -0.01031 -0.19182
 H254 H 0.51349 -0.01020 -0.19126
 H255 H 0.57268 0.01181 -0.05190
 H256 H 0.57273 0.01228 0.05389
 H257 H 0.51299 -0.00993 0.19098
 H258 H 0.47665 -0.01003 0.19040
 N259 N 1.18947 0.52012 0.31497
 C260 C 1.17053 0.49830 0.29431
 N261 N 1.16862 0.47679 0.31437
 N262 N 1.18509 0.47709 0.35400
 C263 C 1.20401 0.49891 0.37500
 N264 N 1.20595 0.52043 0.35461
 C265 C 1.15194 0.49788 0.25447
 C266 C 1.13581 0.49728 0.22254
 C267 C 1.11601 0.49628 0.18654
 N268 N 1.09232 0.47826 0.19721
 N269 N 1.07371 0.47783 0.16600
 C270 C 1.07814 0.49541 0.12302
 N271 N 1.10191 0.51340 0.11218
 N272 N 1.12054 0.51383 0.14346
 N273 N 0.52098 0.68965 0.31817
 C274 C 0.49940 0.67003 0.29875
 N275 N 0.47766 0.66754 0.31884
 N276 N 0.47753 0.68412 0.35739
 C277 C 0.49913 0.70373 0.37717
 N278 N 0.52085 0.70623 0.35670
 C279 C 0.49965 0.65145 0.26015
 C280 C 0.50019 0.63567 0.22913
 C281 C 0.50122 0.61672 0.19385
 N282 N 0.48459 0.60459 0.14832
 N283 N 0.48534 0.58662 0.11672
 C284 C 0.50272 0.58018 0.12966
 N285 N 0.51934 0.59240 0.17523
 N286 N 0.51859 0.61036 0.20678
 N287 N 0.31002 -0.16815 0.31791
 C288 C 0.32950 -0.17034 0.29843
 N289 N 0.33172 -0.18979 0.31824
 N290 N 0.31500 -0.20650 0.35657
 C291 C 0.29553 -0.20427 0.37642
 N292 N 0.29331 -0.18484 0.35623
 C293 C 0.34822 -0.15154 0.26008
 C294 C 0.36412 -0.13524 0.22927
 C295 C 0.38319 -0.11528 0.19423
 N296 N 0.39534 -0.11981 0.14881
 N297 N 0.41340 -0.10112 0.11739
 C298 C 0.41991 -0.07728 0.13041
 N299 N 0.40767 -0.07285 0.17588
 N300 N 0.38963 -0.09152 0.20724
 N301 N 0.81029 0.47860 0.31820
 C302 C 0.82972 0.50025 0.29832
 N303 N 0.83188 0.52194 0.31768
 N304 N 0.81519 0.52199 0.35595
 C305 C 0.79578 0.50034 0.37621
 N306 N 0.79359 0.47864 0.35649
 C307 C 0.84851 0.50031 0.25998
 C308 C 0.86480 0.50070 0.22917
 C309 C 0.88476 0.50159 0.19413
 N310 N 0.90850 0.51887 0.20723
 N311 N 0.92717 0.51952 0.17583
 C312 C 0.92275 0.50290 0.13023
 N313 N 0.89894 0.48561 0.11710
 N314 N 0.88025 0.48496 0.14856
 N315 N 0.47601 0.30812 0.31502
 C316 C 0.49760 0.32752 0.29483
 N317 N 0.51932 0.33009 0.31532
 N318 N 0.51944 0.31378 0.35488
 C319 C 0.49783 0.29438 0.37539
 N320 N 0.47612 0.29181 0.35457
 C321 C 0.49740 0.34583 0.25503
 C322 C 0.49694 0.36146 0.22315
 C323 C 0.49605 0.38036 0.18720
 N324 N 0.47823 0.38627 0.19823
 N325 N 0.47785 0.40448 0.16695
 C326 C 0.49529 0.41741 0.12353
 N327 N 0.51308 0.41138 0.11234
 N328 N 0.51346 0.39315 0.14369
 N329 N 0.69180 0.16859 0.31519
 C330 C 0.67225 0.17056 0.29518
 N331 N 0.66944 0.18956 0.31581
 N332 N 0.68565 0.20605 0.35537
 C333 C 0.70520 0.20405 0.37571
 N334 N 0.70801 0.18506 0.35474
 C335 C 0.65404 0.15198 0.25539
 C336 C 0.63850 0.13585 0.22350
 C337 C 0.61968 0.11604 0.18753
 N338 N 0.60683 0.12062 0.14407
 N339 N 0.58865 0.10200 0.11276
 C340 C 0.58271 0.07818 0.12392
 N341 N 0.59570 0.07371 0.16728
 N342 N 0.61386 0.09232 0.19852
 N343 N 0.47588 0.16793 -0.31665
 C344 C 0.49746 0.17017 -0.29621
 N345 N 0.51919 0.18939 -0.31643
 N346 N 0.51933 0.20581 -0.35604
 C347 C 0.49773 0.20354 -0.37696
 N348 N 0.47600 0.18433 -0.35626
 C349 C 0.49725 0.15164 -0.25642
 C350 C 0.49680 0.13556 -0.22457
 C351 C 0.49594 0.11577 -0.18869
 N352 N 0.51341 0.12038 -0.14538
 N353 N 0.51308 0.10177 -0.11414
 C354 C 0.49526 0.07794 -0.12526
 N355 N 0.47776 0.07344 -0.16847
 N356 N 0.47809 0.09203 -0.19963
 N357 N 0.66978 0.48038 -0.31652
 C358 C 0.67255 0.50223 -0.29635
 N359 N 0.69203 0.52372 -0.31683
 N360 N 0.70819 0.52338 -0.35642
 C361 C 0.70541 0.50153 -0.37707
 N362 N 0.68595 0.48003 -0.35612
 C363 C 0.65438 0.50268 -0.25658
 C364 C 0.63884 0.50329 -0.22471
 C365 C 0.62000 0.50428 -0.18878
 N366 N 0.61416 0.52216 -0.19985
 N367 N 0.59596 0.52257 -0.16869
 C368 C 0.58296 0.50510 -0.12536
 N369 N 0.58893 0.48725 -0.11412
 N370 N 0.60715 0.48685 -0.14534
 N371 N 0.81023 0.33143 -0.31877
 C372 C 0.82976 0.32929 -0.29943
 N373 N 0.83202 0.30989 -0.31933
 N374 N 0.81534 0.29320 -0.35766
 C375 C 0.79582 0.29535 -0.37756
 N376 N 0.79352 0.31473 -0.35711
 C377 C 0.84857 0.34803 -0.26111
 C378 C 0.86487 0.36394 -0.23034
 C379 C 0.88482 0.38305 -0.19537
 N380 N 0.90856 0.38947 -0.20835
 N381 N 0.92723 0.40755 -0.17706
 C382 C 0.92281 0.41984 -0.13171
 N383 N 0.89899 0.41335 -0.11871
 N384 N 0.88030 0.39525 -0.15005
 N385 N 0.52139 -0.16899 -0.31782
 C386 C 0.49985 -0.17097 -0.29801
 N387 N 0.47808 -0.19036 -0.31739
 N388 N 0.47787 -0.20718 -0.35570
 C389 C 0.49943 -0.20515 -0.37608
 N390 N 0.52119 -0.18580 -0.35612
 C391 C 0.50015 -0.15201 -0.25981
 C392 C 0.50069 -0.13561 -0.22914
 C393 C 0.50168 -0.11556 -0.19426
 N394 N 0.48506 -0.11999 -0.14876
 N395 N 0.48574 -0.10123 -0.11753
 C396 C 0.50305 -0.07742 -0.13081
 N397 N 0.51967 -0.07309 -0.17635
 N398 N 0.51899 -0.09183 -0.20753
 N399 N 0.30983 0.47805 -0.31962
 C400 C 0.32920 0.49972 -0.29976
 N401 N 0.33130 0.52139 -0.31909
 N402 N 0.31458 0.52139 -0.35741
 C403 C 0.29523 0.49970 -0.37783
 N404 N 0.29312 0.47804 -0.35792
 C405 C 0.34796 0.49965 -0.26154
 C406 C 0.36390 0.49927 -0.23086
 C407 C 0.38303 0.49842 -0.19599
 N408 N 0.38950 0.48114 -0.20912
 N409 N 0.40759 0.48054 -0.17789
 C410 C 0.41985 0.49722 -0.13246
 N411 N 0.41331 0.51451 -0.11932
 N412 N 0.39520 0.51511 -0.15060
 N413 N 1.18966 0.66975 -0.31592
 C414 C 1.17064 0.67258 -0.29563
 N415 N 1.16867 0.69209 -0.31603
 N416 N 1.18515 0.70825 -0.35567
 C417 C 1.20416 0.70542 -0.37646
 N418 N 1.20616 0.68591 -0.35557
 C419 C 1.15202 0.65440 -0.25585
 C420 C 1.13586 0.63886 -0.22400
 C421 C 1.11603 0.62004 -0.18811
 N422 N 1.09233 0.61425 -0.19920
 N423 N 1.07370 0.59605 -0.16809
 C424 C 1.07812 0.58300 -0.12478
 N425 N 1.10190 0.58891 -0.11352
 N426 N 1.12055 0.60713 -0.14470
 N427 N 0.83134 0.52214 -0.31591
 C428 C 0.82923 0.50048 -0.29656
 N429 N 0.80983 0.47880 -0.31632
 N430 N 0.79310 0.47879 -0.35457
 C431 C 0.79525 0.50048 -0.37434
 N432 N 0.81462 0.52215 -0.35415
 C433 C 0.84813 0.50058 -0.25872
 C434 C 0.86453 0.50097 -0.22846
 C435 C 0.88459 0.50180 -0.19414
 N436 N 0.88019 0.48518 -0.14864
 N437 N 0.89896 0.48575 -0.11782
 C438 C 0.92274 0.50294 -0.13158
 N439 N 0.92705 0.51955 -0.17714
 N440 N 0.90829 0.51898 -0.20790
 N441 N 0.51893 0.32914 -0.31240
 C442 C 0.49716 0.32642 -0.29191
 N443 N 0.47562 0.30698 -0.31214
 N444 N 0.47583 0.29078 -0.35182
 C445 C 0.49759 0.29351 -0.37269
 N446 N 0.51915 0.31293 -0.35209
 C447 C 0.49683 0.34472 -0.25250
 C448 C 0.49630 0.36040 -0.22111
 C449 C 0.49541 0.37942 -0.18590
 N450 N 0.51299 0.39255 -0.14308
 N451 N 0.51270 0.41099 -0.11262
 C452 C 0.49483 0.41689 -0.12409
 N453 N 0.47721 0.40361 -0.16681
 N454 N 0.47751 0.38519 -0.19720
 N455 N 0.69299 0.16896 -0.31189
 C456 C 0.67346 0.17086 -0.29143
 N457 N 0.67053 0.18983 -0.31168
 N458 N 0.68661 0.20637 -0.35137
 C459 C 0.70612 0.20444 -0.37220
 N460 N 0.70907 0.18548 -0.35157
 C461 C 0.65529 0.15213 -0.25198
 C462 C 0.63970 0.13588 -0.22052
 C463 C 0.62076 0.11597 -0.18518
 N464 N 0.60770 0.12042 -0.14217
 N465 N 0.58931 0.10171 -0.11163
 C466 C 0.58337 0.07793 -0.12319
 N467 N 0.59658 0.07357 -0.16610
 N468 N 0.61496 0.09227 -0.19658
 N469 N 1.16890 0.47611 -0.31237
 C470 C 1.17079 0.49754 -0.29187
 N471 N 1.18972 0.51945 -0.31215
 N472 N 1.20623 0.51989 -0.35190
 C473 C 1.20431 0.49844 -0.37276
 N474 N 1.18540 0.47655 -0.35210
 C475 C 1.15209 0.49699 -0.25231
 C476 C 1.13587 0.49633 -0.22076
 C477 C 1.11597 0.49536 -0.18536
 N478 N 1.12040 0.51296 -0.14258
 N479 N 1.10169 0.51263 -0.11204
 C480 C 1.07794 0.49471 -0.12335
 N481 N 1.07361 0.47706 -0.16601
 N482 N 1.09231 0.47739 -0.19650
 N483 N 0.47801 0.66872 -0.31672
 C484 C 0.49977 0.67108 -0.29736
 N485 N 0.52132 0.69063 -0.31712
 N486 N 0.52114 0.70725 -0.35544
 C487 C 0.49939 0.70485 -0.37543
 N488 N 0.47781 0.68534 -0.35505
 C489 C 0.50005 0.65237 -0.25944
 C490 C 0.50057 0.63643 -0.22909
 C491 C 0.50150 0.61726 -0.19466
 N492 N 0.51872 0.61077 -0.20839
 N493 N 0.51935 0.59261 -0.17757
 C494 C 0.50277 0.58029 -0.13200
 N495 N 0.48554 0.58686 -0.11828
 N496 N 0.48491 0.60503 -0.14915
 N497 N 0.30958 -0.16870 -0.31561
 C498 C 0.32911 -0.17086 -0.29637
 N499 N 0.33133 -0.19029 -0.31623
 N500 N 0.31459 -0.20700 -0.35445
 C501 C 0.29509 -0.20480 -0.37411
 N502 N 0.29284 -0.18539 -0.35382
 C503 C 0.34793 -0.15198 -0.25853
 C504 C 0.36394 -0.13559 -0.22826
 C505 C 0.38316 -0.11554 -0.19393
 N506 N 0.39531 -0.11996 -0.14831
 N507 N 0.41350 -0.10119 -0.11746
 C508 C 0.42014 -0.07738 -0.13130
 N509 N 0.40790 -0.07305 -0.17698
 N510 N 0.38973 -0.09181 -0.20778
 N511 N 0.47777 -0.19000 0.31838
 C512 C 0.49951 -0.17077 0.29833
 N513 N 0.52108 -0.16886 0.31766
 N514 N 0.52093 -0.18560 0.35613
 C515 C 0.49919 -0.20480 0.37659
 N516 N 0.47761 -0.20675 0.35686
 C517 C 0.49979 -0.15186 0.26009
 C518 C 0.50033 -0.13547 0.22943
 C519 C 0.50131 -0.11544 0.19460
 N520 N 0.51851 -0.09171 0.20819
 N521 N 0.51921 -0.07296 0.17699
 C522 C 0.50271 -0.07731 0.13115
 N523 N 0.48550 -0.10111 0.11757
 N524 N 0.48481 -0.11987 0.14882
 N525 N 0.31023 0.47853 0.31640
 C526 C 0.32976 0.50024 0.29730
 N527 N 0.33200 0.52188 0.31737
 N528 N 0.31525 0.52180 0.35567
 C529 C 0.29574 0.50007 0.37519
 N530 N 0.29349 0.47844 0.35469
 C531 C 0.34857 0.50022 0.25930
 C532 C 0.36454 0.49985 0.22885
 C533 C 0.38370 0.49901 0.19425
 N534 N 0.39046 0.48201 0.20829
 N535 N 0.40853 0.48137 0.17711
 C536 C 0.42047 0.49773 0.13084
 N537 N 0.41365 0.51474 0.11681
 N538 N 0.39556 0.51538 0.14805
 N539 N 1.18947 0.66977 0.31286
 C540 C 1.17058 0.67276 0.29228
 N541 N 1.16864 0.69228 0.31272
 N542 N 1.18504 0.70830 0.35269
 C543 C 1.20391 0.70530 0.37363
 N544 N 1.20589 0.68579 0.35283
 C545 C 1.15199 0.65467 0.25242
 C546 C 1.13584 0.63916 0.22062
 C547 C 1.11601 0.62032 0.18492
 N548 N 1.09232 0.61453 0.19611
 N549 N 1.07367 0.59625 0.16530
 C550 C 1.07807 0.58311 0.12225
 N551 N 1.10185 0.58903 0.11089
 N552 N 1.12051 0.60733 0.14177
 N553 N 0.51900 0.18939 0.31253
 C554 C 0.49723 0.17041 0.29179
 N555 N 0.47568 0.16827 0.31213
 N556 N 0.47588 0.18457 0.35215
 C557 C 0.49764 0.20353 0.37327
 N558 N 0.51921 0.20571 0.35257
 C559 C 0.49691 0.15189 0.25194
 C560 C 0.49637 0.13577 0.22020
 C561 C 0.49544 0.11593 0.18462
 N562 N 0.47753 0.09223 0.19571
 N563 N 0.47722 0.07357 0.16503
 C564 C 0.49482 0.07797 0.12222
 N565 N 0.51270 0.10176 0.11094
 N566 N 0.51301 0.12044 0.14169
 N567 N 0.69225 0.52371 0.31201
 C568 C 0.67275 0.50223 0.29167
 N569 N 0.66980 0.48037 0.31237
 N570 N 0.68584 0.48001 0.35235
 C571 C 0.70533 0.50151 0.37305
 N572 N 0.70829 0.52336 0.35199
 C573 C 0.65464 0.50271 0.25185
 C574 C 0.63910 0.50333 0.22009
 C575 C 0.62024 0.50431 0.18444
 N576 N 0.60728 0.48682 0.14127
 N577 N 0.58896 0.48717 0.11043
 C578 C 0.58299 0.50500 0.12184
 N579 N 0.59610 0.52253 0.16490
 N580 N 0.61441 0.52219 0.19568
 N581 N 0.83171 0.30995 0.31607
 C582 C 0.82959 0.32952 0.29687
 N583 N 0.81028 0.33187 0.31709
 N584 N 0.79364 0.31520 0.35561
 C585 C 0.79581 0.29565 0.37522
 N586 N 0.81509 0.29329 0.35458
 C587 C 0.84839 0.34825 0.25869
 C588 C 0.86473 0.36418 0.22813
 C589 C 0.88474 0.38330 0.19346
 N590 N 0.88029 0.39543 0.14781
 N591 N 0.89903 0.41354 0.11668
 C592 C 0.92282 0.42012 0.13026
 N593 N 0.92718 0.40791 0.17596
 N594 N 0.90845 0.38981 0.20705
   
