data_POSCAR
  _audit_creation_date              2014-09-24
  _audit_creation_method            'ToBaCCo'
  _symmetry_space_group_name_H-M    'P1'
  _symmetry_Int_Tables_number       1
  _symmetry_cell_setting            triclinic
  loop_
  _symmetry_equiv_pos_as_xyz
 x,y,z
_cell_length_a 53.7783
_cell_length_b 53.5417
_cell_length_c 57.4830
_cell_angle_alpha 89.957300
_cell_angle_beta 90.038300
_cell_angle_gamma 121.013000
loop_
  _atom_site_label
  _atom_site_type_symbol
  _atom_site_fract_x
  _atom_site_fract_y
  _atom_site_fract_z
C1 C 0.02630 0.50317 1.29879
 C2 C -0.00011 0.49243 1.31069
 C3 C -0.02649 0.48316 1.29911
 C4 C -0.02617 0.48581 1.27446
 C5 C -0.00015 0.49480 1.26193
 C6 C 0.02599 0.50297 1.27404
 C7 C 0.05067 0.50908 1.26101
 C8 C 0.05069 0.51043 1.23688
 C9 C 0.02577 0.50491 1.22464
 C10 C -0.00021 0.49592 1.23714
 C11 C -0.05052 0.48193 1.26210
 C12 C -0.05048 0.48325 1.23796
 C13 C -0.02614 0.48843 1.22495
 C14 C -0.02631 0.48861 1.20014
 C15 C 0.00020 0.49927 1.18836
 C16 C 0.02603 0.50757 1.20018
 H17 H 0.07024 0.51248 1.26928
 H18 H 0.07043 0.51551 1.22789
 H19 H -0.06971 0.47862 1.27096
 H20 H -0.06962 0.48092 1.22966
 H21 H -0.00010 0.49146 1.32952
 H22 H 0.00078 0.50006 1.16951
 C23 C 0.52554 0.49947 1.20246
 C24 C 0.51091 0.51086 1.19053
 C25 C 0.49618 0.52217 1.20239
 C26 C 0.49599 0.52221 1.22701
 C27 C 0.51104 0.51106 1.23940
 C28 C 0.52622 0.50006 1.22708
 C29 C 0.54265 0.49110 1.23965
 C30 C 0.54300 0.49147 1.26383
 C31 C 0.52630 0.50008 1.27660
 C32 C 0.51131 0.51135 1.26417
 C33 C 0.48173 0.53369 1.23955
 C34 C 0.48203 0.53404 1.26374
 C35 C 0.49699 0.52335 1.27638
 C36 C 0.49796 0.52432 1.30094
 C37 C 0.51224 0.51267 1.31298
 C38 C 0.52587 0.49978 1.30142
 H39 H 0.55599 0.48428 1.23090
 H40 H 0.55723 0.48563 1.27232
 H41 H 0.47034 0.54278 1.23081
 H42 H 0.47039 0.54288 1.27240
 H43 H 0.51050 0.51042 1.17166
 H44 H 0.51153 0.51261 1.33184
 C45 C 0.48101 0.97257 1.29880
 C46 C 0.49160 0.99918 1.31054
 C47 C 0.50186 1.02575 1.29878
 C48 C 0.50027 1.02542 1.27406
 C49 C 0.49137 0.99917 1.26173
 C50 C 0.48223 0.97281 1.27406
 C51 C 0.47624 0.94786 1.26131
 C52 C 0.47609 0.94787 1.23714
 C53 C 0.48270 0.97307 1.22461
 C54 C 0.49147 0.99925 1.23692
 C55 C 0.50522 1.05005 1.26137
 C56 C 0.50503 1.05003 1.23720
 C57 C 0.50004 1.02542 1.22451
 C58 C 0.50116 1.02563 1.19971
 C59 C 0.49072 0.99895 1.18806
 C60 C 0.48139 0.97288 1.20005
 H61 H 0.47208 0.92807 1.26983
 H62 H 0.47109 0.92793 1.22838
 H63 H 0.50854 1.06949 1.26998
 H64 H 0.50815 1.06941 1.22861
 H65 H 0.49181 0.99920 1.32939
 H66 H 0.49094 0.99840 1.16921
 C67 C 1.02598 0.49716 0.80004
 C68 C 0.99936 0.48587 0.81178
 C69 C 0.97325 0.47605 0.79990
 C70 C 0.97328 0.47770 0.77537
 C71 C 0.99956 0.48780 0.76296
 C72 C 1.02579 0.49676 0.77523
 C73 C 1.05048 0.50272 0.76232
 C74 C 1.05040 0.50332 0.73814
 C75 C 1.02564 0.49801 0.72563
 C76 C 0.99949 0.48845 0.73818
 C77 C 0.94774 0.46974 0.76294
 C78 C 0.94767 0.47040 0.73878
 C79 C 0.97314 0.47902 0.72604
 C80 C 0.97298 0.47869 0.70147
 C81 C 0.99899 0.48903 0.68935
 C82 C 1.02566 0.49960 0.70086
 H83 H 1.06998 0.50615 0.77073
 H84 H 1.06985 0.50716 0.72938
 H85 H 0.92748 0.46300 0.77178
 H86 H 0.92737 0.46413 0.73019
 H87 H 0.99885 0.48575 0.83064
 H88 H 0.99837 0.48985 0.67052
 C89 C 0.52240 0.49573 0.69902
 C90 C 0.50911 0.50856 0.68711
 C91 C 0.49605 0.52162 0.69898
 C92 C 0.49662 0.52239 0.72360
 C93 C 0.51008 0.50954 0.73596
 C94 C 0.52319 0.49632 0.72364
 C95 C 0.53748 0.48486 0.73623
 C96 C 0.53823 0.48562 0.76042
 C97 C 0.52471 0.49787 0.77303
 C98 C 0.51084 0.51031 0.76068
 C99 C 0.48487 0.53643 0.73616
 C100 C 0.48559 0.53716 0.76036
 C101 C 0.49811 0.52390 0.77299
 C102 C 0.49900 0.52461 0.79761
 C103 C 0.51282 0.51231 0.80950
 C104 C 0.52543 0.49879 0.79764
 H105 H 0.54863 0.47553 0.72752
 H106 H 0.54992 0.47684 0.76911
 H107 H 0.47532 0.54739 0.72742
 H108 H 0.47657 0.54865 0.76902
 H109 H 0.50843 0.50787 0.66825
 H110 H 0.51321 0.51270 0.82837
 C111 C 0.47266 -0.02703 0.80087
 C112 C 0.48358 -0.00011 0.81222
 C113 C 0.49760 0.02632 0.80015
 C114 C 0.49995 0.02631 0.77568
 C115 C 0.48829 -0.00052 0.76361
 C116 C 0.47436 -0.02729 0.77611
 C117 C 0.46083 -0.05350 0.76333
 C118 C 0.46300 -0.05354 0.73924
 C119 C 0.47754 -0.02736 0.72665
 C120 C 0.49010 -0.00058 0.73890
 C121 C 0.51283 0.05245 0.76291
 C122 C 0.51498 0.05238 0.73881
 C123 C 0.50413 0.02616 0.72646
 C124 C 0.50617 0.02589 0.70192
 C125 C 0.49404 -0.00072 0.69017
 C126 C 0.47965 -0.02723 0.70211
 H127 H 0.44777 -0.07441 0.77167
 H128 H 0.45281 -0.07446 0.73058
 H129 H 0.52108 0.07329 0.77138
 H130 H 0.52490 0.07317 0.72996
 H131 H 0.48305 0.00062 0.83107
 H132 H 0.49561 -0.00079 0.67136
 O133 O 0.37757 0.66650 0.97293
 O134 O 0.37761 0.71457 0.98069
 C135 C 0.35935 0.71783 0.96904
 O136 O 0.33231 0.70311 0.97301
 O137 O 0.28382 0.65399 0.98022
 C138 C 0.28034 0.63229 0.96846
 O139 O 0.29452 0.61981 0.97251
 O140 O 0.34281 0.62063 0.98012
 C141 C 0.36476 0.63945 0.96862
 O142 O 0.37875 0.65788 1.01909
 O143 O 0.37626 0.70459 1.02682
 C144 C 0.36243 0.71741 1.03094
 O145 O 0.34027 0.71254 1.01924
 O146 O 0.29315 0.66222 1.02645
 C147 C 0.27995 0.63506 1.03043
 O148 O 0.28448 0.61765 1.01868
 O149 O 0.33399 0.62104 1.02630
 C150 C 0.36096 0.63535 1.03060
 Cr151 Cr 0.37597 0.68503 0.99987
 Cr152 Cr 0.31320 0.68222 0.99973
 Cr153 Cr 0.31472 0.62137 0.99941
 O154 O 0.33463 0.66288 0.99967
 O155 O 0.62349 0.34514 0.98117
 O156 O 0.62152 0.29598 0.97411
 C157 C 0.63350 0.28131 0.97009
 O158 O 0.65515 0.28458 0.98169
 O159 O 0.70449 0.33257 0.97385
 C160 C 0.71942 0.35961 0.96945
 O161 O 0.71671 0.37844 0.98084
 O162 O 0.66923 0.37915 0.97317
 C163 C 0.64223 0.36667 0.96922
 O164 O 0.62459 0.33715 1.02744
 O165 O 0.61995 0.28674 1.02034
 C166 C 0.63712 0.28185 1.03201
 O167 O 0.66408 0.29463 1.02784
 O168 O 0.71450 0.34135 1.02002
 C169 C 0.71989 0.36401 1.03137
 O170 O 0.70757 0.37828 1.02697
 O171 O 0.66155 0.38163 1.01931
 C172 C 0.63930 0.36433 1.03126
 Cr173 Cr 0.62396 0.31699 1.00076
 Cr174 Cr 0.68385 0.31413 1.00084
 Cr175 Cr 0.68790 0.37779 1.00009
 O176 O 0.66524 0.33630 1.00056
 O177 O 0.66146 0.37844 0.51882
 O178 O 0.70828 0.37630 0.52594
 C179 C 0.72115 0.36248 0.52999
 O180 O 0.71627 0.34022 0.51830
 O181 O 0.66654 0.29280 0.52623
 C182 C 0.63961 0.27949 0.53064
 O183 O 0.62191 0.28380 0.51918
 O184 O 0.62515 0.33351 0.52671
 C185 C 0.63930 0.36068 0.53066
 O186 O 0.66894 0.37670 0.47257
 O187 O 0.71716 0.37716 0.47966
 C188 C 0.72020 0.35875 0.46795
 O189 O 0.70581 0.33166 0.47219
 O190 O 0.65729 0.28294 0.48011
 C191 C 0.63542 0.27929 0.46862
 O192 O 0.62286 0.29332 0.47297
 O193 O 0.62355 0.34173 0.48055
 C194 C 0.64188 0.36367 0.46873
 Cr195 Cr 0.68813 0.37557 0.49926
 Cr196 Cr 0.68573 0.31272 0.49922
 Cr197 Cr 0.62494 0.31385 0.49984
 O198 O 0.66627 0.33405 0.49944
 O199 O 0.33283 0.62331 0.52676
 O200 O 0.28298 0.61925 0.51920
 C201 C 0.27820 0.63653 0.53090
 O202 O 0.29106 0.66364 0.52681
 O203 O 0.33779 0.71422 0.51940
 C204 C 0.35999 0.71934 0.53115
 O205 O 0.37413 0.70685 0.52704
 O206 O 0.37735 0.66053 0.51943
 C207 C 0.35982 0.63788 0.53095
 O208 O 0.34155 0.62284 0.48058
 O209 O 0.29290 0.62130 0.47300
 C210 C 0.27853 0.63354 0.46886
 O211 O 0.28169 0.65512 0.48060
 O212 O 0.32978 0.70448 0.47319
 C213 C 0.35679 0.71934 0.46910
 O214 O 0.37526 0.71653 0.48086
 O215 O 0.37593 0.66882 0.47328
 C216 C 0.36341 0.64176 0.46906
 Cr217 Cr 0.31330 0.62325 0.49989
 Cr218 Cr 0.31091 0.68364 0.50000
 Cr219 Cr 0.37409 0.68733 0.50015
 O220 O 0.33277 0.66474 0.50002
 C221 C 0.44760 0.53041 0.34334
 C222 C 0.45812 0.56039 0.34279
 C223 C 0.48142 0.57857 0.32822
 C224 C 0.49425 0.56682 0.31434
 C225 C 0.48375 0.53677 0.31484
 C226 C 0.46040 0.51866 0.32947
 C227 C 0.44542 0.57244 0.35768
 C228 C 0.43472 0.58212 0.37052
 C229 C 0.42218 0.59300 0.38599
 C230 C 0.41147 0.60191 0.39957
 C231 C 0.39873 0.61211 0.41622
 C232 C 0.41176 0.64192 0.42089
 C233 C 0.40006 0.65166 0.43783
 C234 C 0.37515 0.63165 0.45038
 C235 C 0.36199 0.60175 0.44529
 C236 C 0.37373 0.59209 0.42834
 H237 H 0.42968 0.51618 0.35462
 H238 H 0.48983 0.60181 0.32777
 H239 H 0.51248 0.58111 0.30334
 H240 H 0.45220 0.49547 0.33019
 H241 H 0.43116 0.65761 0.41164
 H242 H 0.41073 0.67482 0.44129
 H243 H 0.34279 0.58575 0.45456
 H244 H 0.36349 0.56896 0.42488
 C245 C 0.42945 0.89705 0.32039
 C246 C 0.44343 0.89651 0.34075
 C247 C 0.47001 0.92090 0.34697
 C248 C 0.48257 0.94580 0.33299
 C249 C 0.46893 0.94668 0.31228
 C250 C 0.44199 0.92193 0.30632
 C251 C 0.43036 0.87132 0.35567
 C252 C 0.41989 0.85070 0.36867
 C253 C 0.40820 0.82711 0.38443
 C254 C 0.39869 0.80743 0.39832
 C255 C 0.38792 0.78450 0.41538
 C256 C 0.40738 0.77963 0.42786
 C257 C 0.39723 0.75823 0.44514
 C258 C 0.36740 0.74137 0.45023
 C259 C 0.34795 0.74619 0.43737
 C260 C 0.35818 0.76764 0.42008
 H261 H 0.40865 0.87840 0.31558
 H262 H 0.48101 0.92074 0.36272
 H263 H 0.50337 0.96416 0.33818
 H264 H 0.43008 0.92215 0.29119
 H265 H 0.43046 0.79259 0.42439
 H266 H 0.41280 0.75509 0.45465
 H267 H 0.32486 0.73361 0.44080
 H268 H 0.34293 0.77128 0.41056
 C269 C 0.07781 0.51257 0.34643
 C270 C 0.10212 0.53941 0.34053
 C271 C 0.10162 0.55400 0.32051
 C272 C 0.07683 0.54186 0.30649
 C273 C 0.05213 0.51471 0.31214
 C274 C 0.05300 0.50039 0.33249
 C275 C 0.12710 0.55237 0.35555
 C276 C 0.14760 0.56311 0.36857
 C277 C 0.17109 0.57555 0.38431
 C278 C 0.19072 0.58611 0.39816
 C279 C 0.21363 0.59865 0.41517
 C280 C 0.21896 0.62340 0.42758
 C281 C 0.24030 0.63495 0.44484
 C282 C 0.25663 0.62186 0.44997
 C283 C 0.25136 0.59718 0.43716
 C284 C 0.22996 0.58566 0.41989
 H285 H 0.07794 0.50112 0.36194
 H286 H 0.12018 0.57503 0.31597
 H287 H 0.07663 0.55429 0.29169
 H288 H 0.03466 0.47941 0.33743
 H289 H 0.20640 0.63359 0.42409
 H290 H 0.24380 0.65398 0.45431
 H291 H 0.26352 0.58658 0.44063
 H292 H 0.22596 0.56645 0.41042
 C293 C 0.54320 0.44471 0.32370
 C294 C 0.55921 0.45871 0.34366
 C295 C 0.56420 0.48624 0.34959
 C296 C 0.55336 0.49982 0.33559
 C297 C 0.53763 0.48628 0.31512
 C298 C 0.53234 0.45825 0.30962
 C299 C 0.57015 0.44476 0.35839
 C300 C 0.57937 0.43346 0.37108
 C301 C 0.59017 0.42062 0.38637
 C302 C 0.59934 0.40996 0.39979
 C303 C 0.61016 0.39756 0.41625
 C304 C 0.63999 0.41107 0.42044
 C305 C 0.65040 0.39983 0.43726
 C306 C 0.63105 0.37490 0.45016
 C307 C 0.60112 0.36123 0.44554
 C308 C 0.59078 0.37252 0.42872
 H309 H 0.53881 0.42317 0.31915
 H310 H 0.57647 0.49724 0.36507
 H311 H 0.55801 0.52134 0.34049
 H312 H 0.51905 0.44639 0.29479
 H313 H 0.65518 0.43051 0.41092
 H314 H 0.67356 0.41088 0.44034
 H315 H 0.58562 0.34199 0.45510
 H316 H 0.56764 0.36192 0.42565
 C317 C 0.51395 0.07749 0.34716
 C318 C 0.54016 0.10203 0.34045
 C319 C 0.55344 0.10160 0.31967
 C320 C 0.54062 0.07666 0.30568
 C321 C 0.51410 0.05171 0.31217
 C322 C 0.50111 0.05254 0.33327
 C323 C 0.55374 0.12720 0.35538
 C324 C 0.56484 0.14780 0.36837
 C325 C 0.57756 0.17138 0.38411
 C326 C 0.58821 0.19108 0.39796
 C327 C 0.60071 0.21407 0.41497
 C328 C 0.62556 0.21969 0.42722
 C329 C 0.63705 0.24112 0.44448
 C330 C 0.62378 0.25724 0.44978
 C331 C 0.59899 0.25167 0.43714
 C332 C 0.58754 0.23020 0.41988
 H333 H 0.50349 0.07757 0.36325
 H334 H 0.57396 0.12036 0.31447
 H335 H 0.55206 0.07655 0.29022
 H336 H 0.48061 0.03407 0.33886
 H337 H 0.63590 0.20728 0.42359
 H338 H 0.65617 0.24485 0.45381
 H339 H 0.58824 0.26367 0.44073
 H340 H 0.56825 0.22598 0.41054
 C341 C 0.92253 0.47134 0.34783
 C342 C 0.89753 0.44577 0.34071
 C343 C 0.89749 0.43267 0.31966
 C344 C 0.92240 0.44511 0.30576
 C345 C 0.94776 0.47109 0.31260
 C346 C 0.94745 0.48380 0.33402
 C347 C 0.87222 0.43284 0.35536
 C348 C 0.85151 0.42246 0.36814
 C349 C 0.82781 0.41083 0.38367
 C350 C 0.80804 0.40129 0.39737
 C351 C 0.78502 0.39038 0.41425
 C352 C 0.76841 0.36050 0.41898
 C353 C 0.74700 0.35011 0.43621
 C354 C 0.74199 0.36953 0.44899
 C355 C 0.75855 0.39949 0.44383
 C356 C 0.77992 0.40981 0.42660
 H357 H 0.92281 0.48165 0.36412
 H358 H 0.87835 0.41263 0.31412
 H359 H 0.92209 0.43387 0.29000
 H360 H 0.96626 0.50389 0.33990
 H361 H 0.77223 0.34528 0.40956
 H362 H 0.73465 0.32692 0.43970
 H363 H 0.75526 0.41505 0.45328
 H364 H 0.79270 0.43299 0.42311
 C365 C 0.54095 0.44383 1.17644
 C366 C 0.56210 0.46069 1.15984
 C367 C 0.57188 0.49041 1.15766
 C368 C 0.56036 0.50317 1.17185
 C369 C 0.53907 0.48635 1.18846
 C370 C 0.52941 0.45658 1.19064
 C371 C 0.57305 0.44735 1.14448
 C372 C 0.58198 0.43629 1.13127
 C373 C 0.59223 0.42353 1.11541
 C374 C 0.60085 0.41286 1.10153
 C375 C 0.61104 0.40044 1.08456
 C376 C 0.63625 0.41853 1.07185
 C377 C 0.64562 0.40675 1.05470
 C378 C 0.62984 0.37664 1.04998
 C379 C 0.60470 0.35858 1.06307
 C380 C 0.59537 0.37044 1.08022
 H381 H 0.53309 0.42079 1.17817
 H382 H 0.58812 0.50361 1.14479
 H383 H 0.56787 0.52610 1.16979
 H384 H 0.51266 0.44318 1.20310
 H385 H 0.64852 0.44179 1.07503
 H386 H 0.66509 0.42128 1.04500
 H387 H 0.59205 0.33533 1.05993
 H388 H 0.57578 0.35624 1.08994
 C389 C 0.89810 0.43865 1.17854
 C390 C 0.89803 0.45297 1.15822
 C391 C 0.92274 0.47936 1.15204
 C392 C 0.94751 0.49135 1.16603
 C393 C 0.94795 0.47731 1.18670
 C394 C 0.92283 0.45060 1.19261
 C395 C 0.87299 0.44025 1.14325
 C396 C 0.85240 0.42977 1.13033
 C397 C 0.82872 0.41774 1.11476
 C398 C 0.80887 0.40769 1.10111
 C399 C 0.78562 0.39600 1.08439
 C400 C 0.77091 0.41067 1.07964
 C401 C 0.74923 0.40006 1.06263
 C402 C 0.74201 0.37461 1.05008
 C403 C 0.75668 0.35980 1.05525
 C404 C 0.77834 0.37046 1.07227
 H405 H 0.87921 0.41797 1.18331
 H406 H 0.92294 0.49061 1.13630
 H407 H 0.96615 0.51200 1.16086
 H408 H 0.92264 0.43830 1.20765
 H409 H 0.77641 0.43049 1.08889
 H410 H 0.73838 0.41199 1.05913
 H411 H 0.75167 0.34015 1.04597
 H412 H 0.78964 0.35897 1.07578
 C413 C 0.55298 0.10144 1.17883
 C414 C 0.53992 0.10189 1.15792
 C415 C 0.51382 0.07733 1.15105
 C416 C 0.50083 0.05234 1.16496
 C417 C 0.51354 0.05155 1.18624
 C418 C 0.54003 0.07649 1.19281
 C419 C 0.55361 0.12721 1.14314
 C420 C 0.56487 0.14807 1.13039
 C421 C 0.57780 0.17206 1.11503
 C422 C 0.58858 0.19217 1.10153
 C423 C 0.60107 0.21569 1.08495
 C424 C 0.58321 0.22305 1.07275
 C425 C 0.59500 0.24489 1.05581
 C426 C 0.62489 0.25968 1.05077
 C427 C 0.64275 0.25243 1.06341
 C428 C 0.63088 0.23056 1.08036
 H429 H 0.57343 0.12020 1.18415
 H430 H 0.50354 0.07741 1.13486
 H431 H 0.48042 0.03385 1.15925
 H432 H 0.55136 0.07639 1.20836
 H433 H 0.56010 0.21164 1.07614
 H434 H 0.58062 0.24991 1.04646
 H435 H 0.66582 0.26337 1.06000
 H436 H 0.64490 0.22499 1.08966
 C437 C 0.43729 0.53027 1.17363
 C438 C 0.45383 0.55476 1.15956
 C439 C 0.48415 0.56884 1.15990
 C440 C 0.49789 0.55840 1.17412
 C441 C 0.48144 0.53387 1.18825
 C442 C 0.45103 0.51979 1.18788
 C443 C 0.43986 0.56509 1.14424
 C444 C 0.42870 0.57392 1.13102
 C445 C 0.41623 0.58444 1.11511
 C446 C 0.40605 0.59355 1.10117
 C447 C 0.39447 0.60454 1.08411
 C448 C 0.41314 0.63008 1.07188
 C449 C 0.40221 0.64029 1.05467
 C450 C 0.37238 0.62503 1.04941
 C451 C 0.35371 0.59954 1.06202
 C452 C 0.36472 0.58937 1.07924
 H453 H 0.41381 0.51911 1.17339
 H454 H 0.49715 0.58771 1.14900
 H455 H 0.52135 0.56932 1.17406
 H456 H 0.43804 0.50060 1.19846
 H457 H 0.43622 0.64196 1.07550
 H458 H 0.41719 0.65999 1.04535
 H459 H 0.33065 0.58727 1.05845
 H460 H 0.35008 0.56954 1.08858
 C461 C 0.10053 0.55965 1.17539
 C462 C 0.10251 0.54258 1.15789
 C463 C 0.07981 0.51380 1.15465
 C464 C 0.05511 0.50220 1.16871
 C465 C 0.05295 0.51926 1.18622
 C466 C 0.07583 0.54807 1.18947
 C467 C 0.12730 0.55489 1.14268
 C468 C 0.14774 0.56521 1.12961
 C469 C 0.17128 0.57726 1.11393
 C470 C 0.19105 0.58750 1.10021
 C471 C 0.21422 0.59962 1.08343
 C472 C 0.22071 0.58130 1.07090
 C473 C 0.24235 0.59285 1.05387
 C474 C 0.25779 0.62296 1.04911
 C475 C 0.25135 0.64125 1.06205
 C476 C 0.22969 0.62962 1.07907
 H477 H 0.11788 0.58200 1.17795
 H478 H 0.08106 0.50045 1.14108
 H479 H 0.03758 0.48001 1.16586
 H480 H 0.07433 0.56166 1.20267
 H481 H 0.20882 0.55803 1.07411
 H482 H 0.24676 0.57815 1.04428
 H483 H 0.26281 0.66450 1.05887
 H484 H 0.22480 0.64399 1.08865
 C485 C 0.47704 0.91850 1.15567
 C486 C 0.44811 0.89595 1.15804
 C487 C 0.43026 0.89825 1.17457
 C488 C 0.44123 0.92310 1.18854
 C489 C 0.47021 0.94583 1.18617
 C490 C 0.48803 0.94336 1.16963
 C491 C 0.43649 0.87097 1.14295
 C492 C 0.42676 0.85037 1.12996
 C493 C 0.41538 0.82663 1.11437
 C494 C 0.40569 0.80671 1.10071
 C495 C 0.39418 0.78339 1.08398
 C496 C 0.36890 0.77622 1.07167
 C497 C 0.35833 0.75446 1.05466
 C498 C 0.37295 0.73957 1.04969
 C499 C 0.39814 0.74666 1.06243
 C500 C 0.40867 0.76845 1.07943
 H501 H 0.49099 0.91702 1.14286
 H502 H 0.40780 0.88102 1.17645
 H503 H 0.42708 0.92483 1.20098
 H504 H 0.51036 0.96076 1.16746
 H505 H 0.35754 0.78767 1.07503
 H506 H 0.33888 0.74956 1.04524
 H507 H 0.40992 0.73564 1.05907
 H508 H 0.42829 0.77386 1.08883
 C509 C 0.53449 0.43818 0.67225
 C510 C 0.55730 0.45498 0.65684
 C511 C 0.56895 0.48513 0.65552
 C512 C 0.55778 0.49842 0.66948
 C513 C 0.53496 0.48170 0.68499
 C514 C 0.52329 0.45146 0.68622
 C515 C 0.56833 0.44131 0.64192
 C516 C 0.57758 0.43019 0.62909
 C517 C 0.58843 0.41757 0.61365
 C518 C 0.59771 0.40716 0.60011
 C519 C 0.60879 0.39521 0.58349
 C520 C 0.63416 0.41377 0.57113
 C521 C 0.64433 0.40249 0.55420
 C522 C 0.62921 0.37241 0.54936
 C523 C 0.60394 0.35386 0.56216
 C524 C 0.59381 0.36522 0.57909
 H525 H 0.52520 0.41482 0.67330
 H526 H 0.58649 0.49831 0.64358
 H527 H 0.56684 0.52172 0.66817
 H528 H 0.50540 0.43820 0.69786
 H529 H 0.64590 0.43703 0.57437
 H530 H 0.66386 0.41740 0.54473
 H531 H 0.59178 0.33062 0.55890
 H532 H 0.57411 0.35067 0.58854
 C533 C 0.56376 0.09729 0.67520
 C534 C 0.54724 0.10251 0.65925
 C535 C 0.51730 0.08295 0.65760
 C536 C 0.50393 0.05820 0.67174
 C537 C 0.52035 0.05284 0.68775
 C538 C 0.55038 0.07250 0.68937
 C539 C 0.56094 0.12745 0.64408
 C540 C 0.57193 0.14794 0.63096
 C541 C 0.58426 0.17146 0.61515
 C542 C 0.59438 0.19116 0.60127
 C543 C 0.60599 0.21419 0.58427
 C544 C 0.58738 0.22054 0.57210
 C545 C 0.59835 0.24204 0.55486
 C546 C 0.62816 0.25748 0.54953
 C547 C 0.64676 0.25118 0.56211
 C548 C 0.63572 0.22965 0.57934
 H549 H 0.58696 0.11220 0.67653
 H550 H 0.50434 0.08671 0.64525
 H551 H 0.48079 0.04312 0.67015
 H552 H 0.56340 0.06846 0.70144
 H553 H 0.56432 0.20866 0.57575
 H554 H 0.58341 0.24633 0.54557
 H555 H 0.66981 0.26264 0.55848
 H556 H 0.65031 0.22487 0.58863
 C557 C 0.91839 0.47556 0.65815
 C558 C 0.89673 0.44604 0.65913
 C559 C 0.89961 0.42736 0.67449
 C560 C 0.92420 0.43809 0.68864
 C561 C 0.94605 0.46765 0.68762
 C562 C 0.94297 0.48631 0.67229
 C563 C 0.87217 0.43475 0.64372
 C564 C 0.85197 0.42534 0.63042
 C565 C 0.82874 0.41437 0.61445
 C566 C 0.80926 0.40502 0.60047
 C567 C 0.78642 0.39386 0.58339
 C568 C 0.77944 0.36864 0.57090
 C569 C 0.75802 0.35827 0.55371
 C570 C 0.74326 0.37303 0.54871
 C571 C 0.75022 0.39821 0.56156
 C572 C 0.77169 0.40854 0.57876
 H573 H 0.91646 0.49017 0.64624
 H574 H 0.88308 0.40444 0.67528
 H575 H 0.92644 0.42333 0.70013
 H576 H 0.95974 0.50912 0.67115
 H577 H 0.79075 0.35713 0.57432
 H578 H 0.75320 0.33882 0.54421
 H579 H 0.73929 0.41009 0.55820
 H580 H 0.77696 0.42811 0.58830
 C581 C 0.43827 0.53298 0.67209
 C582 C 0.45486 0.55605 0.65676
 C583 C 0.48493 0.56808 0.65552
 C584 C 0.49836 0.55705 0.66949
 C585 C 0.48186 0.53398 0.68492
 C586 C 0.45170 0.52192 0.68607
 C587 C 0.44107 0.56697 0.64186
 C588 C 0.42985 0.57615 0.62904
 C589 C 0.41712 0.58694 0.61364
 C590 C 0.40663 0.59619 0.60014
 C591 C 0.39458 0.60726 0.58357
 C592 C 0.41286 0.63309 0.57153
 C593 C 0.40150 0.64328 0.55467
 C594 C 0.37162 0.62772 0.54958
 C595 C 0.35334 0.60197 0.56205
 C596 C 0.36478 0.59182 0.57891
 H597 H 0.41498 0.52339 0.67308
 H598 H 0.49795 0.58584 0.64364
 H599 H 0.52161 0.56642 0.66825
 H600 H 0.43861 0.50384 0.69765
 H601 H 0.43598 0.64519 0.57498
 H602 H 0.41620 0.66318 0.54545
 H603 H 0.33025 0.58946 0.55859
 H604 H 0.35043 0.57176 0.58811
 C605 C 0.47369 0.91424 0.66172
 C606 C 0.44356 0.89609 0.65970
 C607 C 0.42517 0.90270 0.67197
 C608 C 0.43689 0.92748 0.68610
 C609 C 0.46709 0.94573 0.68815
 C610 C 0.48541 0.93900 0.67583
 C611 C 0.43161 0.87128 0.64441
 C612 C 0.42185 0.85085 0.63126
 C613 C 0.41069 0.82736 0.61545
 C614 C 0.40133 0.80767 0.60160
 C615 C 0.39032 0.78463 0.58465
 C616 C 0.36511 0.77727 0.57218
 C617 C 0.35502 0.75577 0.55499
 C618 C 0.37010 0.74134 0.54999
 C619 C 0.39524 0.74864 0.56286
 C620 C 0.40528 0.77016 0.58005
 H621 H 0.48811 0.90943 0.65219
 H622 H 0.40183 0.88891 0.67041
 H623 H 0.42249 0.93262 0.69526
 H624 H 0.50876 0.95304 0.67706
 H625 H 0.35339 0.78837 0.57558
 H626 H 0.33559 0.75069 0.54547
 H627 H 0.40735 0.73796 0.55949
 H628 H 0.42487 0.77574 0.58958
 C629 C 0.07672 0.51308 0.65178
 C630 C 0.10112 0.53937 0.65859
 C631 C 0.10078 0.55232 0.67962
 C632 C 0.07610 0.53906 0.69377
 C633 C 0.05134 0.51238 0.68724
 C634 C 0.05202 0.49979 0.66585
 C635 C 0.12612 0.55329 0.64362
 C636 C 0.14663 0.56463 0.63063
 C637 C 0.17018 0.57754 0.61495
 C638 C 0.18988 0.58824 0.60117
 C639 C 0.21291 0.60062 0.58426
 C640 C 0.22782 0.63057 0.57967
 C641 C 0.24933 0.64236 0.56252
 C642 C 0.25618 0.62429 0.54969
 C643 C 0.24129 0.59425 0.55468
 C644 C 0.21981 0.58254 0.57183
 H645 H 0.07671 0.50288 0.63551
 H646 H 0.11942 0.57291 0.68490
 H647 H 0.07606 0.55028 0.70942
 H648 H 0.03365 0.47924 0.66017
 H649 H 0.22260 0.64476 0.58916
 H650 H 0.26036 0.66556 0.55916
 H651 H 0.24601 0.57972 0.54519
 H652 H 0.20836 0.55931 0.57522
 C653 C 0.48945 0.57247 0.84063
 C654 C 0.45930 0.56009 0.84032
 C655 C 0.44216 0.53647 0.82562
 C656 C 0.45511 0.52515 0.81141
 C657 C 0.48534 0.53748 0.81169
 C658 C 0.50241 0.56117 0.82644
 C659 C 0.44595 0.57106 0.85563
 C660 C 0.43496 0.58011 0.86880
 C661 C 0.42231 0.59052 0.88460
 C662 C 0.41169 0.59927 0.89842
 C663 C 0.39923 0.60950 0.91531
 C664 C 0.37430 0.58955 0.92754
 C665 C 0.36285 0.59931 0.94467
 C666 C 0.37624 0.62921 0.94983
 C667 C 0.40110 0.64913 0.93719
 C668 C 0.41250 0.63931 0.92007
 H669 H 0.50289 0.59064 0.85203
 H670 H 0.41880 0.52661 0.82536
 H671 H 0.44159 0.50658 0.80039
 H672 H 0.52572 0.57076 0.82702
 H673 H 0.36388 0.56642 0.92402
 H674 H 0.34369 0.58338 0.95402
 H675 H 0.41194 0.67229 0.94069
 H676 H 0.43185 0.65493 0.91073
 C677 C 0.07764 0.50912 0.84833
 C678 C 0.10184 0.53578 0.84189
 C679 C 0.10116 0.54947 0.82138
 C680 C 0.07635 0.53659 0.80736
 C681 C 0.05179 0.50955 0.81351
 C682 C 0.05280 0.49620 0.83439
 C683 C 0.12697 0.54940 0.85677
 C684 C 0.14764 0.56062 0.86962
 C685 C 0.17140 0.57355 0.88511
 C686 C 0.19130 0.58443 0.89871
 C687 C 0.21458 0.59720 0.91540
 C688 C 0.22016 0.62204 0.92780
 C689 C 0.24183 0.63372 0.94481
 C690 C 0.25824 0.62065 0.94970
 C691 C 0.25275 0.59592 0.93686
 C692 C 0.23104 0.58428 0.91986
 H693 H 0.07790 0.49836 0.86422
 H694 H 0.11963 0.57035 0.81641
 H695 H 0.07605 0.54838 0.79215
 H696 H 0.03459 0.47536 0.83976
 H697 H 0.20751 0.63219 0.92452
 H698 H 0.24549 0.65279 0.95431
 H699 H 0.26496 0.58532 0.94015
 H700 H 0.22687 0.56500 0.91039
 C701 C 0.43318 0.91900 0.84828
 C702 C 0.44114 0.89836 0.84397
 C703 C 0.45961 0.90239 0.82538
 C704 C 0.46993 0.92687 0.81103
 C705 C 0.46159 0.94759 0.81484
 C706 C 0.44346 0.94349 0.83400
 C707 C 0.43062 0.87332 0.85890
 C708 C 0.42167 0.85259 0.87169
 C709 C 0.41109 0.82864 0.88701
 C710 C 0.40201 0.80848 0.90041
 C711 C 0.39119 0.78482 0.91681
 C712 C 0.41053 0.77963 0.92914
 C713 C 0.40015 0.75755 0.94587
 C714 C 0.37023 0.74035 0.95054
 C715 C 0.35092 0.74546 0.93778
 C716 C 0.36137 0.76758 0.92105
 H717 H 0.41899 0.91616 0.86271
 H718 H 0.46631 0.88678 0.82212
 H719 H 0.48511 0.93000 0.79734
 H720 H 0.43657 0.95887 0.83762
 H721 H 0.43366 0.79289 0.92602
 H722 H 0.41562 0.75420 0.95533
 H723 H 0.32778 0.73265 0.94090
 H724 H 0.34621 0.77145 0.91163
 C725 C 0.57384 0.49027 0.84065
 C726 C 0.56194 0.46005 0.84040
 C727 C 0.53846 0.44253 0.82576
 C728 C 0.52680 0.45517 0.81154
 C729 C 0.53866 0.48547 0.81175
 C730 C 0.56220 0.50292 0.82644
 C731 C 0.57324 0.44699 0.85575
 C732 C 0.58251 0.43621 0.86894
 C733 C 0.59313 0.42376 0.88479
 C734 C 0.60198 0.41326 0.89866
 C735 C 0.61224 0.40089 0.91564
 C736 C 0.59238 0.37626 0.92830
 C737 C 0.60215 0.36489 0.94551
 C738 C 0.63199 0.37806 0.95033
 C739 C 0.65182 0.40259 0.93726
 C740 C 0.64197 0.41392 0.92006
 H741 H 0.59189 0.50400 0.85201
 H742 H 0.52897 0.41911 0.82555
 H743 H 0.50835 0.44136 0.80056
 H744 H 0.57141 0.52629 0.82697
 H745 H 0.56931 0.36603 0.92505
 H746 H 0.58629 0.34597 0.95519
 H747 H 0.67492 0.41325 0.94049
 H748 H 0.65753 0.43303 0.91038
 C749 C 0.91862 0.47091 0.84406
 C750 C 0.89684 0.44151 0.84223
 C751 C 0.89976 0.42352 0.82618
 C752 C 0.92447 0.43485 0.81212
 C753 C 0.94639 0.46431 0.81393
 C754 C 0.94332 0.48225 0.83002
 C755 C 0.87194 0.42971 0.85732
 C756 C 0.85145 0.42008 0.87031
 C757 C 0.82786 0.40913 0.88592
 C758 C 0.80809 0.40009 0.89961
 C759 C 0.78497 0.38970 0.91638
 C760 C 0.76788 0.35990 0.92129
 C761 C 0.74626 0.35000 0.93832
 C762 C 0.74149 0.36984 0.95071
 C763 C 0.75855 0.39973 0.94538
 C764 C 0.78013 0.40954 0.92835
 H765 H 0.91664 0.48499 0.85650
 H766 H 0.88313 0.40070 0.82471
 H767 H 0.92670 0.42063 0.80001
 H768 H 0.96012 0.50497 0.83176
 H769 H 0.77148 0.34435 0.91215
 H770 H 0.73353 0.32687 0.94196
 H771 H 0.75546 0.41560 0.95452
 H772 H 0.79326 0.43267 0.92471
 C773 C 0.50601 0.08455 0.84224
 C774 C 0.53619 0.10314 0.84260
 C775 C 0.55370 0.09700 0.82862
 C776 C 0.54109 0.07224 0.81446
 C777 C 0.51083 0.05350 0.81405
 C778 C 0.49337 0.05978 0.82807
 C779 C 0.54928 0.12791 0.85795
 C780 C 0.56027 0.14836 0.87110
 C781 C 0.57314 0.17193 0.88684
 C782 C 0.58410 0.19173 0.90058
 C783 C 0.59711 0.21497 0.91736
 C784 C 0.62174 0.22012 0.92970
 C785 C 0.63381 0.24194 0.94665
 C786 C 0.62134 0.25891 0.95151
 C787 C 0.59677 0.25380 0.93877
 C788 C 0.58474 0.23195 0.92184
 H789 H 0.49228 0.08900 0.85310
 H790 H 0.57708 0.11112 0.82889
 H791 H 0.55490 0.06744 0.80404
 H792 H 0.47003 0.04538 0.82815
 H793 H 0.63147 0.20708 0.92639
 H794 H 0.65273 0.24529 0.95608
 H795 H 0.58663 0.26645 0.94205
 H796 H 0.56564 0.22812 0.91240
   
