data_POSCAR
  _audit_creation_date              2014-09-24
  _audit_creation_method            'ToBaCCo'
  _symmetry_space_group_name_H-M    'P1'
  _symmetry_Int_Tables_number       1
  _symmetry_cell_setting            triclinic
  loop_
  _symmetry_equiv_pos_as_xyz
 x,y,z
_cell_length_a 20.7721
_cell_length_b 23.5796
_cell_length_c 24.0406
_cell_angle_alpha 78.834000
_cell_angle_beta 94.751700
_cell_angle_gamma 92.569700
loop_
  _atom_site_label
  _atom_site_type_symbol
  _atom_site_fract_x
  _atom_site_fract_y
  _atom_site_fract_z
N1 N 0.64109 0.77304 0.58749
 N2 N 0.63823 0.76322 0.64295
 C3 C 0.59768 0.80053 0.65645
 C4 C 0.57299 0.83485 0.60651
 C5 C 0.60168 0.81630 0.56362
 H6 H 0.58363 0.79950 0.69896
 H7 H 0.59227 0.83135 0.51834
 Cu8 Cu 0.67838 0.69606 0.69146
 Cu9 Cu 0.69264 0.72540 0.55198
 Cu10 Cu 0.70219 0.58690 0.61784
 N11 N 0.68521 0.61434 0.72831
 N12 N 0.68783 0.57206 0.69974
 C13 C 0.67610 0.52121 0.73469
 C14 C 0.66541 0.53260 0.78769
 C15 C 0.67304 0.59178 0.78224
 H16 H 0.67213 0.47980 0.72151
 H17 H 0.66327 0.61707 0.81350
 N18 N 0.74272 0.61593 0.54665
 N19 N 0.74017 0.67076 0.52192
 C20 C 0.77444 0.67989 0.47587
 C21 C 0.79916 0.62798 0.47085
 C22 C 0.77804 0.58799 0.51640
 H23 H 0.78141 0.72135 0.44821
 H24 H 0.78914 0.54264 0.52782
 H25 H 0.64623 0.65537 0.62712
 H26 H 0.73597 0.66184 0.63850
 N27 N 0.87143 0.28672 0.06942
 N28 N 0.90705 0.28826 0.11701
 C29 C 0.94978 0.24551 0.12598
 C30 C 0.94101 0.21618 0.08108
 C31 C 0.89131 0.24382 0.04581
 H32 H 0.98540 0.23727 0.16176
 H33 H 0.87015 0.23255 0.00660
 Cu34 Cu 0.89563 0.34695 0.16199
 Cu35 Cu 0.79862 0.33736 0.04395
 Cu36 Cu 0.78128 0.44521 0.12030
 N37 N 0.88492 0.40849 0.20395
 N38 N 0.83775 0.44497 0.18880
 C39 C 0.84011 0.48230 0.22475
 C40 C 0.89209 0.46895 0.26420
 C41 C 0.91983 0.42222 0.24960
 H42 H 0.80812 0.51800 0.22105
 H43 H 0.96238 0.40024 0.27053
 N44 N 0.72115 0.43342 0.05584
 N45 N 0.72797 0.39299 0.02592
 C46 C 0.67781 0.39474 -0.01375
 C47 C 0.63768 0.43844 -0.00820
 C48 C 0.66656 0.46165 0.03636
 H49 H 0.66986 0.36468 -0.04242
 H50 H 0.64792 0.49574 0.05421
 H51 H 0.84241 0.40385 0.07652
 H52 H 0.78444 0.35683 0.12189
 N53 N 0.42153 0.19275 -0.07349
 N54 N 0.44840 0.18959 -0.12035
 C55 C 0.49263 0.23322 -0.13095
 C56 C 0.49347 0.26480 -0.08784
 C57 C 0.44821 0.23761 -0.05208
 H58 H 0.52071 0.24194 -0.16774
 H59 H 0.43348 0.25117 -0.01466
 Cu60 Cu 0.42179 0.12852 -0.16219
 Cu61 Cu 0.35056 0.14144 -0.04587
 Cu62 Cu 0.27179 0.07092 -0.14708
 N63 N 0.38673 0.07179 -0.20627
 N64 N 0.32753 0.05028 -0.20100
 C65 C 0.31448 0.01406 -0.23765
 C66 C 0.36870 0.01205 -0.26671
 C67 C 0.41374 0.04932 -0.24587
 H68 H 0.26921 -0.00972 -0.24224
 H69 H 0.46209 0.05979 -0.25894
 N70 N 0.23299 0.07958 -0.07707
 N71 N 0.26316 0.10709 -0.03915
 C72 C 0.22432 0.10778 0.00268
 C73 C 0.16729 0.07849 -0.00893
 C74 C 0.17454 0.06045 -0.05937
 H75 H 0.23695 0.12743 0.03936
 H76 H 0.13968 0.03576 -0.08168
 H77 H 0.35056 0.07466 -0.09306
 H78 H 0.31841 0.14637 -0.12871
 N79 N 0.10388 0.73488 0.42042
 N80 N 0.08803 0.74789 0.36519
 C81 C 0.04710 0.70638 0.35038
 C82 C 0.03625 0.66574 0.39901
 C83 C 0.07339 0.68501 0.44232
 H84 H 0.02352 0.70813 0.30829
 H85 H 0.07572 0.66539 0.48698
 Cu86 Cu 0.11267 0.82249 0.31748
 Cu87 Cu 0.15998 0.78491 0.46160
 Cu88 Cu 0.20373 0.91255 0.38522
 N89 N 0.11774 0.90564 0.28756
 N90 N 0.15209 0.94108 0.31513
 C91 C 0.14687 0.99543 0.28549
 C92 C 0.10775 0.99403 0.23650
 C93 C 0.09007 0.93625 0.23893
 H94 H 0.17057 1.03326 0.29806
 H95 H 0.05942 0.91774 0.20804
 N96 N 0.24819 0.88237 0.45850
 N97 N 0.23229 0.83118 0.48748
 C98 C 0.27085 0.82005 0.53589
 C99 C 0.31263 0.86704 0.53749
 C100 C 0.29705 0.90588 0.48770
 H101 H 0.26823 0.78096 0.56783
 H102 H 0.32021 0.94756 0.47344
 H103 H 0.11308 0.84330 0.39521
 H104 H 0.18842 0.80958 0.38186
 N105 N 0.05002 0.09205 0.09902
 N106 N 0.43910 0.92759 0.63469
 N107 N 0.89941 0.56402 0.37450
 N108 N 0.58374 0.40974 -0.11944
 C109 C -0.02536 0.16928 0.07167
 C110 C 0.01507 0.13872 0.11146
 H111 H -0.03375 0.15625 0.03078
 H112 H 0.01974 0.14725 0.15429
 C113 C 0.51964 0.87536 0.59867
 C114 C 0.49542 0.89268 0.64232
 H115 H 0.49868 0.89009 0.55580
 H116 H 0.51893 0.88092 0.68469
 C117 C 0.99116 0.61967 0.40640
 C118 C 0.95409 0.60340 0.36357
 H119 H 0.98376 0.59796 0.44955
 H120 H 0.96326 0.62125 0.31984
 C121 C 0.52762 0.31960 -0.08219
 C122 C 0.56098 0.35174 -0.12307
 H123 H 0.52096 0.33582 -0.04396
 H124 H 0.56883 0.33483 -0.16069
 C125 C 0.09132 0.04469 0.19207
 C126 C 0.05974 0.04107 0.14206
 H127 H 0.10814 0.08676 0.20001
 H128 H 0.04579 -0.00064 0.13168
 C129 C 0.64090 0.49645 -0.16528
 C130 C 0.62153 0.44111 -0.16398
 H131 H 0.63293 0.51658 -0.12974
 H132 H 0.63083 0.42033 -0.19882
 C133 C 0.37538 0.97694 0.68981
 C134 C 0.43302 0.96535 0.67416
 H135 H 0.33181 0.95761 0.67257
 H136 H 0.47669 0.98111 0.69478
 C137 C 0.91602 0.50066 0.30917
 C138 C 0.87612 0.53016 0.33310
 H139 H 0.96688 0.49918 0.32338
 H140 H 0.82449 0.52737 0.32233
 C141 C 0.11247 0.06658 0.02699
 C142 C 0.09562 0.10558 0.05634
 H143 H 0.08665 0.02528 0.03026
 H144 H 0.11831 0.14845 0.04908
 C145 C 0.84218 0.62037 0.42745
 C146 C 0.85729 0.56867 0.41798
 H147 H 0.86111 0.65921 0.40134
 H148 H 0.83455 0.52970 0.44058
 C149 C 0.57401 0.45504 -0.03723
 C150 C 0.54943 0.44147 -0.08633
 H151 H 0.54501 0.48131 -0.01726
 H152 H 0.50147 0.45578 -0.10254
 C153 C 0.36390 0.87253 0.58226
 C154 C 0.38909 0.92380 0.59024
 H155 H 0.38023 0.83346 0.61055
 H156 H 0.36914 0.96339 0.56563
   
