data_POSCAR
  _audit_creation_date              2014-09-24
  _audit_creation_method            'ToBaCCo'
  _symmetry_space_group_name_H-M    'P1'
  _symmetry_Int_Tables_number       1
  _symmetry_cell_setting            triclinic
  loop_
  _symmetry_equiv_pos_as_xyz
 x,y,z
_cell_length_a 52.2184
_cell_length_b 52.0702
_cell_length_c 15.1692
_cell_angle_alpha 89.622400
_cell_angle_beta 90.107300
_cell_angle_gamma 120.052900
loop_
  _atom_site_label
  _atom_site_type_symbol
  _atom_site_fract_x
  _atom_site_fract_y
  _atom_site_fract_z
C1 C 0.25533 0.51551 0.55853
 C2 C 0.25198 0.51100 0.46991
 C3 C 0.22534 0.50688 0.42173
 C4 C 0.27429 0.50792 0.41814
 C5 C 0.27846 0.51244 0.60581
 C6 C 0.23381 0.51929 0.61263
 C7 C 0.19677 0.48629 0.45109
 C8 C 0.17189 0.48295 0.40633
 C9 C 0.17478 0.49900 0.32777
 C10 C 0.20376 0.51955 0.29880
 C11 C 0.22859 0.52327 0.34482
 C12 C 0.26705 0.48038 0.38212
 C13 C 0.28843 0.47695 0.33706
 C14 C 0.31714 0.50119 0.32564
 C15 C 0.32430 0.52878 0.36153
 C16 C 0.30299 0.53213 0.40740
 C17 C 0.30487 0.53753 0.63177
 C18 C 0.32713 0.53423 0.67246
 C19 C 0.32275 0.50576 0.69027
 C20 C 0.29615 0.48075 0.66461
 C21 C 0.27428 0.48406 0.62215
 C22 C 0.22527 0.54006 0.58860
 C23 C 0.20127 0.53974 0.63032
 C24 C 0.18603 0.51915 0.69788
 C25 C 0.19591 0.49992 0.72614
 C26 C 0.21969 0.50007 0.68416
 H27 H 0.19366 0.47268 0.50881
 H28 H 0.15035 0.46645 0.43102
 H29 H 0.20741 0.53394 0.24261
 H30 H 0.25043 0.53944 0.32127
 H31 H 0.24505 0.46145 0.39066
 H32 H 0.28267 0.45537 0.31119
 H33 H 0.30886 0.55352 0.43493
 H34 H 0.30847 0.55956 0.61846
 H35 H 0.34784 0.55381 0.68944
 H36 H 0.29246 0.45862 0.67674
 H37 H 0.25405 0.46452 0.60170
 H38 H 0.23616 0.55538 0.53446
 H39 H 0.19376 0.55461 0.60741
 H40 H 0.18432 0.48389 0.77822
 H41 H 0.22585 0.48392 0.70429
 H42 H 0.34638 0.54767 0.35396
 C43 C 0.50898 -0.24579 0.54985
 C44 C 0.50975 -0.24469 0.45990
 C45 C 0.50753 -0.26964 0.40688
 C46 C 0.51392 -0.21806 0.41087
 C47 C 0.50776 -0.22245 0.60231
 C48 C 0.51066 -0.26966 0.59855
 C49 C 0.52953 -0.26444 0.34473
 C50 C 0.52855 -0.28804 0.29845
 C51 C 0.50531 -0.31713 0.31273
 C52 C 0.48294 -0.32227 0.37332
 C53 C 0.48389 -0.29868 0.41945
 C54 C 0.53772 -0.18982 0.43075
 C55 C 0.54088 -0.16472 0.38725
 C56 C 0.52087 -0.16747 0.32099
 C57 C 0.49738 -0.19575 0.29982
 C58 C 0.49402 -0.22089 0.34414
 C59 C 0.48541 -0.21543 0.58715
 C60 C 0.48704 -0.19039 0.62588
 C61 C 0.51110 -0.17200 0.67994
 C62 C 0.53226 -0.18020 0.70024
 C63 C 0.53054 -0.20537 0.66190
 C64 C 0.48752 -0.28886 0.65440
 C65 C 0.48741 -0.31349 0.69200
 C66 C 0.51046 -0.31942 0.67430
 C67 C 0.53477 -0.29862 0.62385
 C68 C 0.53472 -0.27417 0.58574
 H69 H 0.54793 -0.24221 0.33403
 H70 H 0.54621 -0.28374 0.25280
 H71 H 0.46492 -0.34460 0.38548
 H72 H 0.46644 -0.30311 0.46604
 H73 H 0.55368 -0.18718 0.48074
 H74 H 0.55887 -0.14307 0.40555
 H75 H 0.47562 -0.24251 0.32756
 H76 H 0.46744 -0.22861 0.54230
 H77 H 0.47031 -0.18455 0.61058
 H78 H 0.55083 -0.16636 0.74245
 H79 H 0.54789 -0.21052 0.67467
 H80 H 0.46906 -0.28535 0.66634
 H81 H 0.46917 -0.32804 0.73471
 H82 H 0.55311 -0.30211 0.60953
 H83 H 0.55304 -0.25920 0.54396
 H84 H 0.48163 -0.19830 0.24920
 C85 C 1.24834 0.75398 0.53871
 C86 C 1.24889 0.75397 0.44861
 C87 C 1.27545 0.77564 0.39729
 C88 C 1.22208 0.73325 0.39826
 C89 C 1.22319 0.73011 0.58952
 C90 C 1.27185 0.77901 0.58887
 C91 C 1.27232 0.79115 0.32599
 C92 C 1.29719 0.81288 0.28106
 C93 C 1.32591 0.81970 0.30637
 C94 C 1.32890 0.80387 0.37744
 C95 C 1.30396 0.78156 0.42059
 C96 C 1.19546 0.73328 0.41094
 C97 C 1.16938 0.71152 0.37211
 C98 C 1.16957 0.68939 0.32036
 C99 C 1.19648 0.69044 0.30309
 C100 C 1.22266 0.71236 0.34163
 C101 C 1.21301 0.70012 0.57161
 C102 C 1.18687 0.67791 0.60981
 C103 C 1.17027 0.68511 0.66757
 C104 C 1.18236 0.71507 0.69211
 C105 C 1.20831 0.73732 0.65279
 C106 C 1.28940 0.77417 0.64901
 C107 C 1.31394 0.79824 0.68765
 C108 C 1.32126 0.82759 0.66693
 C109 C 1.30210 0.83203 0.61154
 C110 C 1.27781 0.80802 0.57253
 H111 H 1.25064 0.78713 0.30676
 H112 H 1.29400 0.82531 0.22892
 H113 H 1.35056 0.80823 0.39836
 H114 H 1.30699 0.76925 0.47337
 H115 H 1.19476 0.74957 0.45335
 H116 H 1.14885 0.71125 0.38493
 H117 H 1.24307 0.71222 0.33065
 H118 H 1.22467 0.69395 0.52510
 H119 H 1.17883 0.65524 0.58947
 H120 H 1.17154 0.72141 0.74115
 H121 H 1.21619 0.76027 0.66956
 H122 H 1.28473 0.75183 0.66350
 H123 H 1.32715 0.79390 0.73401
 H124 H 1.30674 0.85420 0.59460
 H125 H 1.26413 0.81207 0.52721
 H126 H 1.19699 0.67367 0.26251
 C127 C 0.74736 0.49922 0.55246
 C128 C 0.74949 0.50313 0.46313
 C129 C 0.77561 0.50708 0.41303
 C130 C 0.72518 0.50302 0.41241
 C131 C 0.72296 0.49939 0.60204
 C132 C 0.76939 0.49526 0.60435
 C133 C 0.80427 0.52918 0.43703
 C134 C 0.82898 0.53049 0.39709
 C135 C 0.82534 0.50987 0.33225
 C136 C 0.79676 0.48896 0.30434
 C137 C 0.77203 0.48759 0.34443
 C138 C 0.72641 0.52980 0.39068
 C139 C 0.70160 0.52969 0.35549
 C140 C 0.67557 0.50274 0.33812
 C141 C 0.67554 0.47598 0.35232
 C142 C 0.69983 0.47610 0.39157
 C143 C 0.70292 0.47452 0.65118
 C144 C 0.67903 0.47424 0.69378
 C145 C 0.67420 0.49853 0.68597
 C146 C 0.69564 0.52407 0.64075
 C147 C 0.71984 0.52457 0.60046
 C148 C 0.77802 0.47487 0.57831
 C149 C 0.80069 0.47335 0.62267
 C150 C 0.81436 0.49119 0.69691
 C151 C 0.80465 0.51066 0.72499
 C152 C 0.78242 0.51261 0.67932
 H153 H 0.80747 0.54473 0.48880
 H154 H 0.85093 0.54696 0.41860
 H155 H 0.79366 0.47315 0.25348
 H156 H 0.75014 0.47051 0.32454
 H157 H 0.74603 0.55077 0.40537
 H158 H 0.70252 0.55066 0.34370
 H159 H 0.69875 0.45523 0.40688
 H160 H 0.70562 0.45524 0.65585
 H161 H 0.66452 0.45506 0.73364
 H162 H 0.69325 0.54347 0.63345
 H163 H 0.73595 0.54454 0.56660
 H164 H 0.76767 0.46057 0.52229
 H165 H 0.80723 0.45783 0.59951
 H166 H 0.81535 0.52561 0.77953
 H167 H 0.77615 0.52851 0.70065
 H168 H 0.65632 0.45494 0.33568
 C169 C 0.49682 0.24859 0.54711
 C170 C 0.49838 0.24880 0.45719
 C171 C 0.50021 0.27376 0.40391
 C172 C 0.49534 0.22266 0.40910
 C173 C 0.49788 0.22512 0.60070
 C174 C 0.49224 0.27069 0.59576
 C175 C 0.47966 0.26794 0.33628
 C176 C 0.47734 0.29111 0.29768
 C177 C 0.49521 0.32033 0.32719
 C178 C 0.51764 0.32652 0.38862
 C179 C 0.52037 0.30340 0.42596
 C180 C 0.47019 0.19456 0.42179
 C181 C 0.46794 0.16967 0.38024
 C182 C 0.49065 0.17252 0.32464
 C183 C 0.51579 0.20063 0.31172
 C184 C 0.51794 0.22560 0.35280
 C185 C 0.51981 0.21757 0.58607
 C186 C 0.51915 0.19388 0.63157
 C187 C 0.49732 0.17797 0.69603
 C188 C 0.47594 0.18639 0.71222
 C189 C 0.47629 0.20969 0.66530
 C190 C 0.51088 0.28640 0.66607
 C191 C 0.50682 0.30729 0.71183
 C192 C 0.48376 0.31271 0.68890
 C193 C 0.46526 0.29697 0.61770
 C194 C 0.46904 0.27575 0.57306
 H195 H 0.46419 0.24534 0.31714
 H196 H 0.46044 0.28608 0.24844
 H197 H 0.53205 0.34902 0.41081
 H198 H 0.53699 0.30847 0.47611
 H199 H 0.45244 0.19194 0.46457
 H200 H 0.44843 0.14818 0.39102
 H201 H 0.53750 0.24708 0.34254
 H202 H 0.53697 0.22947 0.53742
 H203 H 0.53510 0.18733 0.61346
 H204 H 0.45902 0.17516 0.76202
 H205 H 0.45925 0.21526 0.67818
 H206 H 0.52894 0.28287 0.68444
 H207 H 0.52237 0.31992 0.76341
 H208 H 0.44722 0.30039 0.59818
 H209 H 0.45394 0.26337 0.52033
 H210 H 0.53366 0.20316 0.26968
 C211 C 0.75055 0.25749 0.53819
 C212 C 0.75000 0.25694 0.44819
 C213 C 0.72658 0.23112 0.39955
 C214 C 0.77390 0.28102 0.39472
 C215 C 0.77721 0.27933 0.58700
 C216 C 0.72579 0.23418 0.59105
 C217 C 0.72083 0.20224 0.41830
 C218 C 0.69764 0.17789 0.37652
 C219 C 0.68012 0.18201 0.31422
 C220 C 0.68718 0.21099 0.29090
 C221 C 0.71013 0.23538 0.33376
 C222 C 0.78855 0.27392 0.33020
 C223 C 0.81268 0.29636 0.28468
 C224 C 0.82238 0.32627 0.30225
 C225 C 0.80721 0.33345 0.36474
 C226 C 0.78294 0.31099 0.40998
 C227 C 0.77518 0.29780 0.64992
 C228 C 0.80044 0.31873 0.69476
 C229 C 0.82816 0.32101 0.67948
 C230 C 0.82989 0.30237 0.61562
 C231 C 0.80469 0.28158 0.57085
 C232 C 0.69659 0.22805 0.57829
 C233 C 0.67297 0.20295 0.61717
 C234 C 0.67827 0.18359 0.66868
 C235 C 0.70751 0.19090 0.68654
 C236 C 0.73112 0.21608 0.64829
 H237 H 0.73400 0.19853 0.46642
 H238 H 0.69298 0.15576 0.39407
 H239 H 0.67448 0.21465 0.24094
 H240 H 0.71468 0.25752 0.31696
 H241 H 0.78196 0.25099 0.31731
 H242 H 0.82426 0.29044 0.23707
 H243 H 0.77167 0.31695 0.45855
 H244 H 0.75409 0.29626 0.66341
 H245 H 0.79808 0.33258 0.74326
 H246 H 0.85094 0.30440 0.59822
 H247 H 0.80668 0.26740 0.52268
 H248 H 0.69209 0.24197 0.53517
 H249 H 0.65052 0.19785 0.60387
 H250 H 0.71198 0.17634 0.72684
 H251 H 0.75346 0.22047 0.65916
 H252 H 0.81462 0.35644 0.37985
 N253 N 1.03212 0.49486 -0.16138
 N254 N 1.05625 0.50710 -0.21052
 N255 N 0.97150 0.44280 -0.09690
 N256 N 0.95009 0.41508 -0.10626
 N257 N 0.96988 0.45981 -0.15819
 N258 N 0.94726 0.44409 -0.21101
 N259 N 1.03352 0.47733 -0.10125
 N260 N 1.05850 0.47694 -0.10831
 C261 C 1.07224 0.49543 -0.17698
 C262 C 0.93534 0.41613 -0.17840
 N263 N 0.97208 0.46028 0.15382
 N264 N 0.94790 0.44584 0.20205
 N265 N 1.03495 0.47736 0.08779
 N266 N 1.05869 0.47474 0.09551
 N267 N 1.03446 0.49472 0.14926
 N268 N 1.05792 0.50436 0.20068
 N269 N 0.97282 0.44295 0.09252
 N270 N 0.94925 0.41620 0.09784
 Mn271 Mn 1.00319 0.45980 -0.00443
 C272 C 0.93420 0.41834 0.16707
 C273 C 1.07302 0.49194 0.16558
 N274 N 0.96555 0.51265 -0.15678
 N275 N 0.94063 0.49977 -0.20190
 N276 N 1.02684 0.56499 -0.10034
 N277 N 1.04830 0.59268 -0.11228
 N278 N 1.02779 0.54772 -0.16130
 N279 N 1.04999 0.56310 -0.21610
 N280 N 0.96455 0.52980 -0.09540
 N281 N 0.93888 0.52902 -0.09738
 Mn282 Mn 0.99885 0.50379 -0.16056
 C283 C 0.92416 0.51013 -0.16408
 C284 C 1.06237 0.59115 -0.18532
 N285 N 1.03025 0.54785 0.15013
 N286 N 1.05193 0.56352 0.20554
 N287 N 0.96624 0.53018 0.09423
 N288 N 0.94224 0.53213 0.10627
 N289 N 0.96838 0.51352 0.15566
 N290 N 0.94606 0.50396 0.21151
 N291 N 1.02842 0.56509 0.08986
 N292 N 1.04894 0.59305 0.10275
 Mn293 Mn 1.00135 0.50409 0.15333
 Mn294 Mn 0.99650 0.54788 -0.00301
 Cl295 Cl 1.00000 0.50393 -0.00363
 C296 C 1.06324 0.59168 0.17574
 C297 C 0.92961 0.51537 0.17934
 N298 N 0.46280 0.43648 0.10768
 N299 N 0.45916 0.40972 0.11964
 N300 N 0.45066 0.48748 0.15692
 N301 N 0.43640 0.49769 0.20375
 N302 N 0.43305 0.46872 0.09759
 N303 N 0.40638 0.46541 0.10335
 N304 N 0.48048 0.45481 0.16800
 N305 N 0.48961 0.44110 0.22207
 C306 C 0.47589 0.41300 0.19151
 C307 C 0.40870 0.48384 0.16913
 N308 N 0.52558 0.55864 0.09433
 N309 N 0.52949 0.58572 0.09758
 N310 N 0.53633 0.50915 0.16703
 N311 N 0.54903 0.49901 0.22128
 N312 N 0.55478 0.52529 0.10438
 N313 N 0.58033 0.52611 0.11392
 N314 N 0.50686 0.54176 0.15558
 N315 N 0.49766 0.55686 0.20233
 Mn316 Mn 0.49354 0.49834 0.16307
 C317 C 0.51182 0.58421 0.16506
 C318 C 0.57646 0.50947 0.18726
 N319 N 0.43455 0.46752 -0.09155
 N320 N 0.40907 0.46692 -0.09918
 N321 N 0.48230 0.45151 -0.14408
 N322 N 0.49071 0.43623 -0.19328
 N323 N 0.46405 0.43461 -0.08199
 N324 N 0.45957 0.40738 -0.08713
 N325 N 0.45298 0.48423 -0.15372
 N326 N 0.44044 0.49509 -0.20595
 Mn327 Mn 0.44829 0.45148 0.00785
 C328 C 0.41308 0.48395 -0.17129
 C329 C 0.47655 0.40881 -0.15643
 N330 N 0.55606 0.52345 -0.08494
 N331 N 0.58201 0.52487 -0.08893
 N332 N 0.50905 0.53861 -0.15526
 N333 N 0.49994 0.55261 -0.20828
 N334 N 0.52682 0.55668 -0.09473
 N335 N 0.53012 0.58338 -0.10481
 N336 N 0.53822 0.50554 -0.14560
 N337 N 0.55150 0.49433 -0.19237
 Mn338 Mn 0.54122 0.54138 0.00476
 Mn339 Mn 0.49565 0.49499 -0.15078
 Cl340 Cl 0.49467 0.49656 0.00627
 C341 C 0.57873 0.50637 -0.15594
 C342 C 0.51308 0.58049 -0.17567
 N343 N 0.44177 -0.03309 0.09181
 N344 N 0.41654 -0.05843 0.09641
 N345 N 0.48804 0.03039 0.15254
 N346 N 0.49662 0.05386 0.20311
 N347 N 0.46960 0.02937 0.09186
 N348 N 0.46516 0.05208 0.09954
 N349 N 0.46036 -0.03227 0.15173
 N350 N 0.44820 -0.05713 0.19844
 C351 C 0.42084 -0.07330 0.16293
 C352 C 0.48229 0.06728 0.16895
 N353 N 0.56322 0.03615 0.08625
 N354 N 0.58867 0.06126 0.09142
 N355 N 0.51778 -0.02769 0.14951
 N356 N 0.51230 -0.04950 0.20507
 N357 N 0.53575 -0.02622 0.08683
 N358 N 0.54278 -0.04707 0.09757
 N359 N 0.54513 0.03459 0.14884
 N360 N 0.55785 0.05857 0.19823
 Mn361 Mn 0.50278 0.00121 0.15194
 C362 C 0.58495 0.07512 0.16135
 C363 C 0.52834 -0.06122 0.17227
 N364 N 0.46894 0.02966 -0.09814
 N365 N 0.46566 0.05318 -0.10279
 N366 N 0.45920 -0.03141 -0.15925
 N367 N 0.44594 -0.05456 -0.21159
 N368 N 0.44103 -0.03264 -0.09756
 N369 N 0.41486 -0.05667 -0.10633
 N370 N 0.48704 0.03079 -0.16000
 N371 N 0.49671 0.05511 -0.20795
 Mn372 Mn 0.45499 -0.00166 -0.00290
 C373 C 0.48309 0.06873 -0.17173
 C374 C 0.41839 -0.07028 -0.17718
 N375 N 0.53462 -0.02638 -0.10261
 N376 N 0.54023 -0.04824 -0.11363
 N377 N 0.54369 0.03472 -0.16358
 N378 N 0.55672 0.05711 -0.21962
 N379 N 0.56246 0.03614 -0.10357
 N380 N 0.58885 0.05956 -0.11724
 N381 N 0.51598 -0.02748 -0.16267
 N382 N 0.50850 -0.04993 -0.21641
 Mn383 Mn 0.54937 0.00495 -0.00819
 Mn384 Mn 0.50143 0.00163 -0.16234
 Cl385 Cl 0.50216 0.00154 -0.00530
 C386 C 0.52403 -0.06249 -0.18563
 C387 C 0.58497 0.07227 -0.19048
 C388 C 1.14855 0.49673 0.18988
 C389 C 1.15039 0.49576 0.28409
 C390 C 1.12613 0.49259 0.33391
 C391 C 1.10209 0.49254 0.29420
 C392 C 1.10066 0.49501 0.20287
 C393 C 1.12423 0.49768 0.14973
 C394 C 1.16867 0.49382 0.13397
 C395 C 1.16718 0.49571 0.04267
 C396 C 1.14537 0.49991 0.00458
 C397 C 1.12406 0.50092 0.05714
 H398 H 1.18521 0.48912 0.15976
 H399 H 1.18299 0.49379 0.00122
 H400 H 1.14452 0.50157 -0.06623
 H401 H 1.10755 0.50420 0.02423
 H402 H 1.12631 0.49200 0.40531
 H403 H 1.08417 0.49023 0.33566
 C404 C 0.50409 0.65372 0.17680
 C405 C 0.50555 0.65753 0.26960
 C406 C 0.50754 0.63680 0.32404
 C407 C 0.50912 0.61313 0.28840
 C408 C 0.50887 0.60937 0.19704
 C409 C 0.50559 0.62931 0.14008
 C410 C 0.50020 0.67306 0.11988
 C411 C 0.49786 0.66854 0.02903
 C412 C 0.49889 0.64455 -0.00673
 C413 C 0.50254 0.62498 0.04792
 H414 H 0.49842 0.69149 0.14502
 H415 H 0.49478 0.68350 -0.01377
 H416 H 0.49647 0.64087 -0.07714
 H417 H 0.50220 0.60617 0.01714
 H418 H 0.50845 0.63931 0.39505
 H419 H 0.51121 0.59790 0.33282
 C420 C 0.35397 -0.15244 0.17218
 C421 C 0.35114 -0.15668 0.26538
 C422 C 0.37383 -0.13568 0.31931
 C423 C 0.39673 -0.10944 0.28420
 C424 C 0.39829 -0.10338 0.19376
 C425 C 0.37785 -0.12572 0.13618
 C426 C 0.33494 -0.17513 0.11373
 C427 C 0.33860 -0.17129 0.02278
 C428 C 0.36174 -0.14530 -0.01210
 C429 C 0.38140 -0.12285 0.04359
 H430 H 0.31772 -0.19647 0.13747
 H431 H 0.32384 -0.18892 -0.02087
 H432 H 0.36490 -0.14290 -0.08269
 H433 H 0.40000 -0.10398 0.01305
 H434 H 0.37272 -0.13837 0.39036
 H435 H 0.41260 -0.09304 0.32899
 C436 C 0.85708 0.48611 0.31218
 C437 C 0.85145 0.50965 0.29558
 C438 C 0.87092 0.53357 0.24279
 C439 C 0.89571 0.53452 0.20583
 C440 C 0.90203 0.51160 0.22021
 C441 C 0.88222 0.48667 0.27293
 C442 C 0.83830 0.46210 0.36782
 C443 C 0.84329 0.43851 0.38170
 C444 C 0.86695 0.43832 0.34069
 C445 C 0.88615 0.46197 0.28675
 H446 H 0.81967 0.46135 0.40137
 H447 H 0.82860 0.42018 0.42401
 H448 H 0.87044 0.41970 0.35063
 H449 H 0.90347 0.45996 0.25528
 H450 H 0.86682 0.55169 0.22985
 H451 H 0.91029 0.55368 0.16599
 C452 C 0.46154 0.34218 0.31014
 C453 C 0.48940 0.34409 0.29732
 C454 C 0.51225 0.36913 0.25531
 C455 C 0.50752 0.39145 0.22247
 C456 C 0.47975 0.38916 0.22975
 C457 C 0.45653 0.36463 0.27431
 C458 C 0.43883 0.31896 0.36011
 C459 C 0.41154 0.31730 0.37129
 C460 C 0.40640 0.33880 0.33405
 C461 C 0.42867 0.36238 0.28640
 H462 H 0.44201 0.30220 0.39240
 H463 H 0.39435 0.29934 0.40957
 H464 H 0.38519 0.33742 0.34316
 H465 H 0.42397 0.37897 0.26026
 H466 H 0.53375 0.37113 0.24635
 H467 H 0.52548 0.41031 0.18901
 C468 C 0.62534 0.15060 0.27709
 C469 C 0.65475 0.15586 0.27307
 C470 C 0.66037 0.13557 0.22952
 C471 C 0.63753 0.11011 0.19174
 C472 C 0.60826 0.10414 0.19531
 C473 C 0.60210 0.12517 0.23475
 C474 C 0.61833 0.16966 0.32385
 C475 C 0.58976 0.16535 0.32230
 C476 C 0.56768 0.14202 0.27476
 C477 C 0.57359 0.12197 0.23173
 H478 H 0.63469 0.18799 0.36218
 H479 H 0.58482 0.18043 0.35719
 H480 H 0.54585 0.13943 0.27142
 H481 H 0.55581 0.10457 0.19448
 H482 H 0.68271 0.13930 0.22566
 H483 H 0.64276 0.09453 0.16124
 C484 C 0.52065 0.15106 -0.23328
 C485 C 0.49538 0.15268 -0.26176
 C486 C 0.46715 0.12738 -0.25125
 C487 C 0.46378 0.10070 -0.22048
 C488 C 0.48836 0.09805 -0.19977
 C489 C 0.51710 0.12332 -0.20412
 C490 C 0.54894 0.17671 -0.22572
 C491 C 0.57331 0.17476 -0.19738
 C492 C 0.56999 0.14751 -0.17283
 C493 C 0.54218 0.12207 -0.17484
 H494 H 0.55242 0.19867 -0.23852
 H495 H 0.59480 0.19462 -0.19274
 H496 H 0.58890 0.14624 -0.14942
 H497 H 0.54053 0.10174 -0.15057
 H498 H 0.44735 0.12750 -0.27195
 H499 H 0.44170 0.08158 -0.21582
 C500 C 0.62016 0.47308 -0.27407
 C501 C 0.64945 0.49828 -0.27430
 C502 C 0.65416 0.52423 -0.23145
 C503 C 0.63126 0.52582 -0.19051
 C504 C 0.60258 0.50151 -0.18937
 C505 C 0.59710 0.47433 -0.22710
 C506 C 0.61250 0.44731 -0.32387
 C507 C 0.58445 0.42224 -0.31727
 C508 C 0.56310 0.42248 -0.26336
 C509 C 0.56916 0.44829 -0.21924
 H510 H 0.62770 0.44631 -0.36997
 H511 H 0.57923 0.40251 -0.35432
 H512 H 0.54158 0.40275 -0.25701
 H513 H 0.55189 0.44737 -0.17792
 H514 H 0.67605 0.54361 -0.22771
 H515 H 0.63597 0.54664 -0.16108
 C516 C 0.87661 0.33723 -0.24586
 C517 C 0.85399 0.34276 -0.27718
 C518 C 0.85855 0.37169 -0.27046
 C519 C 0.88514 0.39496 -0.23970
 C520 C 0.90824 0.39036 -0.21360
 C521 C 0.90431 0.36137 -0.21767
 C522 C 0.87180 0.30806 -0.23713
 C523 C 0.89455 0.30305 -0.21121
 C524 C 0.92240 0.32683 -0.19237
 C525 C 0.92734 0.35572 -0.19528
 H526 H 0.85033 0.28881 -0.24862
 H527 H 0.89057 0.28059 -0.20615
 H528 H 0.94018 0.32287 -0.17411
 H529 H 0.94943 0.37337 -0.18066
 H530 H 0.84201 0.37690 -0.29357
 H531 H 0.88767 0.41690 -0.23636
 C532 C 0.52100 -0.11976 -0.34894
 C533 C 0.51522 -0.14322 -0.28943
 C534 C 0.51423 -0.13897 -0.19876
 C535 C 0.51783 -0.11239 -0.16647
 C536 C 0.52238 -0.08930 -0.22388
 C537 C 0.52458 -0.09257 -0.31595
 C538 C 0.52432 -0.12235 -0.44035
 C539 C 0.53080 -0.09888 -0.49785
 C540 C 0.53429 -0.07238 -0.46577
 C541 C 0.53145 -0.06906 -0.37582
 H542 H 0.52250 -0.14224 -0.46814
 H543 H 0.53360 -0.10108 -0.56748
 H544 H 0.53967 -0.05411 -0.51069
 H545 H 0.53547 -0.04765 -0.35399
 H546 H 0.51027 -0.15657 -0.15265
 H547 H 0.51633 -0.11008 -0.09600
 C548 C 0.35998 0.51406 -0.18798
 C549 C 0.34654 0.50174 -0.27032
 C550 C 0.35596 0.48496 -0.31793
 C551 C 0.37784 0.47979 -0.28516
 C552 C 0.39112 0.49139 -0.20407
 C553 C 0.38305 0.50944 -0.15585
 C554 C 0.35086 0.53047 -0.13609
 C555 C 0.36539 0.54359 -0.05764
 C556 C 0.38904 0.54047 -0.02902
 C557 C 0.39778 0.52345 -0.07721
 H558 H 0.33240 0.53319 -0.15506
 H559 H 0.35827 0.55626 -0.01884
 H560 H 0.40032 0.55083 0.03168
 H561 H 0.41601 0.52124 -0.05215
 H562 H 0.34620 0.47569 -0.38129
 H563 H 0.38425 0.46633 -0.32303
 C564 C 1.11722 0.66631 -0.29028
 C565 C 1.14252 0.66263 -0.29911
 C566 C 1.13950 0.63507 -0.27503
 C567 C 1.11330 0.61243 -0.23967
 C568 C 1.08922 0.61643 -0.22391
 C569 C 1.09083 0.64340 -0.24964
 C570 C 1.11634 0.69077 -0.32834
 C571 C 1.09158 0.69403 -0.31904
 C572 C 1.06671 0.67260 -0.27459
 C573 C 1.06604 0.64729 -0.24138
 H574 H 1.13415 0.70709 -0.36866
 H575 H 1.09151 0.71306 -0.34793
 H576 H 1.04745 0.67515 -0.26830
 H577 H 1.04562 0.63055 -0.21154
 H578 H 1.15789 0.63109 -0.28070
 H579 H 1.11199 0.59161 -0.22270
 C580 C 0.84323 0.49231 -0.16975
 C581 C 0.83907 0.49160 -0.26295
 C582 C 0.86135 0.49295 -0.31807
 C583 C 0.88824 0.49821 -0.28401
 C584 C 0.89392 0.50184 -0.19348
 C585 C 0.87082 0.49734 -0.13486
 C586 C 0.81982 0.48575 -0.11042
 C587 C 0.82371 0.48524 -0.01966
 C588 C 0.85060 0.49037 0.01411
 C589 C 0.87387 0.49607 -0.04253
 H590 H 0.79796 0.47985 -0.13343
 H591 H 0.80551 0.48010 0.02466
 H592 H 0.85315 0.48907 0.08452
 H593 H 0.89364 0.49819 -0.01296
 H594 H 0.85896 0.49218 -0.38915
 H595 H 0.90531 0.50073 -0.32964
 C596 C 0.48171 0.33802 -0.17394
 C597 C 0.48033 0.33473 -0.26750
 C598 C 0.47673 0.35516 -0.31951
 C599 C 0.47610 0.37907 -0.28190
 C600 C 0.47849 0.38336 -0.19077
 C601 C 0.48168 0.36301 -0.13569
 C602 C 0.48122 0.31615 -0.11696
 C603 C 0.48341 0.32007 -0.02592
 C604 C 0.48580 0.34558 0.01054
 C605 C 0.48499 0.36692 -0.04341
 H606 H 0.47844 0.29549 -0.14169
 H607 H 0.48323 0.30320 0.01659
 H608 H 0.48780 0.34859 0.08115
 H609 H 0.48710 0.38640 -0.01177
 H610 H 0.47576 0.35351 -0.39076
 H611 H 0.47360 0.39441 -0.32476
 C612 C 0.63497 0.13183 -0.35870
 C613 C 0.65347 0.15486 -0.29989
 C614 C 0.64969 0.14982 -0.20889
 C615 C 0.62765 0.12278 -0.17530
 C616 C 0.60853 0.09991 -0.23152
 C617 C 0.61240 0.10406 -0.32431
 C618 C 0.63920 0.13535 -0.45097
 C619 C 0.62164 0.11226 -0.50794
 C620 C 0.59984 0.08514 -0.47456
 C621 C 0.59537 0.08086 -0.38386
 H622 H 0.65634 0.15571 -0.48009
 H623 H 0.62530 0.11519 -0.57829
 H624 H 0.58662 0.06713 -0.51917
 H625 H 0.57904 0.05896 -0.36169
 H626 H 0.66396 0.16705 -0.16336
 H627 H 0.62517 0.11990 -0.10441
 C628 C 1.15544 0.53697 -0.21990
 C629 C 1.15769 0.51499 -0.26827
 C630 C 1.13224 0.48765 -0.28462
 C631 C 1.10473 0.48183 -0.25459
 C632 C 1.10186 0.50323 -0.20779
 C633 C 1.12719 0.53095 -0.18907
 C634 C 1.18067 0.56427 -0.19851
 C635 C 1.17809 0.58519 -0.14819
 C636 C 1.15051 0.57921 -0.11756
 C637 C 1.12523 0.55234 -0.13746
 H638 H 1.20258 0.56952 -0.21935
 H639 H 1.19762 0.60605 -0.13221
 H640 H 1.14868 0.59547 -0.07807
 H641 H 1.10425 0.54843 -0.11168
 H642 H 1.13369 0.47065 -0.32139
 H643 H 1.08547 0.46045 -0.26831
 C644 C 0.48388 0.62596 -0.29634
 C645 C 0.50964 0.65472 -0.29239
 C646 C 0.53522 0.65762 -0.25219
 C647 C 0.53539 0.63344 -0.21352
 C648 C 0.51015 0.60522 -0.21372
 C649 C 0.48376 0.60138 -0.25334
 C650 C 0.45888 0.62054 -0.34702
 C651 C 0.43348 0.59267 -0.34759
 C652 C 0.43243 0.56956 -0.29862
 C653 C 0.45715 0.57375 -0.25148
 H654 H 0.45885 0.63745 -0.38861
 H655 H 0.41448 0.58900 -0.38614
 H656 H 0.41250 0.54812 -0.29874
 H657 H 0.45492 0.55518 -0.21342
 H658 H 0.55517 0.67909 -0.24772
 H659 H 0.55572 0.63686 -0.18359
 C660 C 0.37506 -0.14525 -0.29381
 C661 C 0.34651 -0.14779 -0.29673
 C662 C 0.34307 -0.12489 -0.26076
 C663 C 0.36645 -0.10058 -0.22071
 C664 C 0.39439 -0.09788 -0.21544
 C665 C 0.39884 -0.12061 -0.25005
 C666 C 0.38121 -0.16540 -0.33820
 C667 C 0.40891 -0.16314 -0.33189
 C668 C 0.43119 -0.14067 -0.28238
 C669 C 0.42634 -0.11954 -0.24188
 H670 H 0.36504 -0.18267 -0.37990
 H671 H 0.41309 -0.17896 -0.36551
 H672 H 0.45249 -0.13934 -0.27641
 H673 H 0.44430 -0.10264 -0.20377
 H674 H 0.32171 -0.12614 -0.26097
 H675 H 0.36270 -0.08344 -0.19436
 C676 C 0.55038 -0.11916 0.23538
 C677 C 0.52381 -0.14058 0.27708
 C678 C 0.50005 -0.13539 0.28321
 C679 C 0.50230 -0.10935 0.25020
 C680 C 0.52846 -0.08745 0.21044
 C681 C 0.55320 -0.09187 0.20497
 C682 C 0.57419 -0.12437 0.22272
 C683 C 0.60085 -0.10251 0.18670
 C684 C 0.60439 -0.07509 0.16305
 C685 C 0.58095 -0.06967 0.17226
 H686 H 0.57240 -0.14540 0.23990
 H687 H 0.61898 -0.10674 0.17812
 H688 H 0.62540 -0.05790 0.13721
 H689 H 0.58529 -0.04770 0.15535
 H690 H 0.47968 -0.15144 0.31539
 H691 H 0.48322 -0.10643 0.25528
 C692 C 0.33665 0.48756 0.19075
 C693 C 0.33999 0.49744 0.27912
 C694 C 0.36543 0.50342 0.32587
 C695 C 0.38712 0.49906 0.28789
 C696 C 0.38422 0.48824 0.20175
 C697 C 0.35863 0.48248 0.15160
 C698 C 0.31221 0.48345 0.13970
 C699 C 0.30870 0.47353 0.05323
 C700 C 0.32957 0.46794 0.01538
 C701 C 0.35436 0.47264 0.06314
 H702 H 0.29579 0.48825 0.16547
 H703 H 0.28985 0.47047 0.01505
 H704 H 0.32692 0.46059 -0.05235
 H705 H 0.37009 0.46923 0.02745
 H706 H 0.36832 0.51109 0.39336
 H707 H 0.40622 0.50371 0.32757
 C708 C 1.11922 0.64380 0.34517
 C709 C 1.14145 0.66446 0.28736
 C710 C 1.13683 0.66157 0.19617
 C711 C 1.11082 0.63847 0.16143
 C712 C 1.08867 0.61754 0.21684
 C713 C 1.09227 0.62064 0.30971
 C714 C 1.12333 0.64534 0.43752
 C715 C 1.10091 0.62547 0.49354
 C716 C 1.07398 0.60398 0.45925
 C717 C 1.06954 0.60157 0.36840
 H718 H 1.14386 0.66170 0.46730
 H719 H 1.10429 0.62684 0.56395
 H720 H 1.05644 0.58905 0.50331
 H721 H 1.04797 0.58497 0.34527
 H722 H 1.15364 0.67726 0.15148
 H723 H 1.10834 0.63644 0.09045
 C724 C 0.48806 0.14362 0.18744
 C725 C 0.48814 0.14604 0.28046
 C726 C 0.48636 0.12303 0.33321
 C727 C 0.48483 0.09799 0.29551
 C728 C 0.48506 0.09509 0.20378
 C729 C 0.48737 0.11837 0.14867
 C730 C 0.48832 0.16565 0.13200
 C731 C 0.48951 0.16376 0.04080
 C732 C 0.49057 0.14007 0.00319
 C733 C 0.48969 0.11764 0.05605
 H734 H 0.48739 0.18442 0.15832
 H735 H 0.48986 0.18088 -0.00093
 H736 H 0.49197 0.13910 -0.06740
 H737 H 0.49132 0.10018 0.02335
 H738 H 0.48641 0.12461 0.40442
 H739 H 0.48324 0.08056 0.33857
 C740 C 0.61990 0.48432 0.33724
 C741 C 0.64889 0.50280 0.30298
 C742 C 0.65272 0.52146 0.23125
 C743 C 0.62893 0.52265 0.19464
 C744 C 0.59996 0.50440 0.22569
 C745 C 0.59507 0.48356 0.29448
 C746 C 0.61495 0.46678 0.41378
 C747 C 0.58635 0.44638 0.44111
 C748 C 0.56218 0.44323 0.39375
 C749 C 0.56636 0.46158 0.32148
 H750 H 0.63299 0.46866 0.45356
 H751 H 0.58291 0.43252 0.49830
 H752 H 0.54002 0.42658 0.41341
 H753 H 0.54677 0.45725 0.28609
 H754 H 0.67451 0.53553 0.20334
 H755 H 0.63345 0.53835 0.14147
 C756 C 0.85099 0.37267 0.20723
 C757 C 0.84997 0.34980 0.26117
 C758 C 0.87612 0.34934 0.27849
 C759 C 0.90315 0.37146 0.24583
 C760 C 0.90483 0.39467 0.19488
 C761 C 0.87872 0.39526 0.17349
 C762 C 0.82510 0.37339 0.18483
 C763 C 0.82659 0.39602 0.13143
 C764 C 0.85368 0.41803 0.09831
 C765 C 0.87955 0.41765 0.11848
 H766 H 0.80353 0.35640 0.20753
 H767 H 0.80657 0.39637 0.11510
 H768 H 0.85465 0.43542 0.05653
 H769 H 0.90013 0.43504 0.09093
 H770 H 0.87566 0.33198 0.31944
 H771 H 0.92304 0.37080 0.26196
   
