data_POSCAR
  _audit_creation_date              2014-09-24
  _audit_creation_method            'ToBaCCo'
  _symmetry_space_group_name_H-M    'P1'
  _symmetry_Int_Tables_number       1
  _symmetry_cell_setting            triclinic
  loop_
  _symmetry_equiv_pos_as_xyz
 x,y,z
_cell_length_a 51.7335
_cell_length_b 51.7448
_cell_length_c 51.6837
_cell_angle_alpha 89.082400
_cell_angle_beta 89.153500
_cell_angle_gamma 89.166600
loop_
  _atom_site_label
  _atom_site_type_symbol
  _atom_site_fract_x
  _atom_site_fract_y
  _atom_site_fract_z
C1 C 0.72999 0.65871 0.96853
 H2 H 0.74832 0.65936 0.95821
 C3 C 0.70847 0.67203 0.95867
 H4 H 0.71026 0.68312 0.94079
 C5 C 0.70476 0.64230 1.00361
 H6 H 0.70308 0.63007 1.02065
 C7 C 0.68283 0.65531 0.99446
 H8 H 0.66451 0.65325 1.00465
 N9 N 0.72774 0.64410 0.99056
 C10 C 0.80509 0.62988 1.02082
 H11 H 0.80407 0.60910 1.02318
 C12 C 0.82713 0.64278 1.02842
 H13 H 0.84313 0.63193 1.03674
 C14 C 0.78532 0.66943 1.00739
 H15 H 0.76888 0.67970 0.99941
 C16 C 0.80708 0.68313 1.01480
 H17 H 0.80738 0.70397 1.01248
 Zn18 Zn 0.75624 0.62320 1.00099
 N19 N 0.78487 0.64323 1.01032
 C20 C 0.78982 0.60307 0.96243
 N21 N 0.76550 0.60191 0.97275
 C22 C 0.74704 0.58720 0.96192
 C23 C 0.75281 0.57285 0.93980
 C24 C 0.79638 0.58903 0.94044
 C25 C 0.74241 0.61660 1.05265
 C26 C 0.73403 0.60382 1.07513
 C27 C 0.73569 0.56356 1.05194
 C28 C 0.74410 0.57716 1.02984
 N29 N 0.74674 0.60328 1.03050
 H30 H 0.80403 0.61537 0.97078
 H31 H 0.72771 0.58704 0.97019
 H32 H 0.73795 0.56150 0.93103
 H33 H 0.81568 0.59040 0.93216
 H34 H 0.74491 0.63732 1.05262
 H35 H 0.73003 0.61482 1.09245
 H36 H 0.73300 0.54285 1.05107
 H37 H 0.74806 0.56690 1.01215
 C38 C 0.82818 0.66962 1.02534
 C39 C 0.68463 0.67008 0.97165
 C40 C 0.73033 0.57710 1.07471
 C41 C 0.77770 0.57393 0.92893
 C42 C 0.72858 0.34026 0.52616
 H43 H 0.74692 0.33873 0.53590
 C44 C 0.70729 0.32652 0.53571
 H45 H 0.70926 0.31424 0.55276
 C46 C 0.70314 0.35907 0.49282
 H47 H 0.70129 0.37230 0.47658
 C48 C 0.68144 0.34569 0.50170
 H49 H 0.66312 0.34849 0.49208
 N50 N 0.72615 0.35618 0.50508
 C51 C 0.80346 0.37016 0.47312
 H52 H 0.80232 0.39103 0.47174
 C53 C 0.82564 0.35714 0.46442
 H54 H 0.84165 0.36799 0.45629
 C55 C 0.78387 0.33052 0.48524
 H56 H 0.76746 0.32025 0.49318
 C57 C 0.80577 0.31670 0.47673
 H58 H 0.80622 0.29579 0.47820
 Zn59 Zn 0.75450 0.37698 0.49475
 N60 N 0.78326 0.35681 0.48354
 C61 C 0.78807 0.39449 0.53316
 N62 N 0.76374 0.39673 0.52365
 C63 C 0.74540 0.41179 0.53543
 C64 C 0.75143 0.42569 0.55750
 C65 C 0.79487 0.40801 0.55510
 C66 C 0.74036 0.38630 0.44390
 C67 C 0.73187 0.40029 0.42231
 C68 C 0.73359 0.43939 0.44718
 C69 C 0.74213 0.42462 0.46838
 N70 N 0.74480 0.39849 0.46650
 H71 H 0.80219 0.38190 0.52406
 H72 H 0.72605 0.41282 0.52779
 H73 H 0.73675 0.43759 0.56684
 H74 H 0.81428 0.40601 0.56256
 H75 H 0.74289 0.36554 0.44291
 H76 H 0.72777 0.39031 0.40460
 H77 H 0.73087 0.46008 0.44893
 H78 H 0.74619 0.43399 0.48636
 C79 C 0.82687 0.33019 0.46633
 C80 C 0.68346 0.32944 0.52345
 C81 C 0.72816 0.42702 0.42404
 C82 C 0.77642 0.42372 0.56739
 C83 C 0.22841 -0.15918 0.02593
 H84 H 0.24676 -0.16068 0.03566
 C85 C 0.20714 -0.17293 0.03552
 H86 H 0.20913 -0.18518 0.05259
 C87 C 0.20292 -0.14047 -0.00742
 H88 H 0.20104 -0.12726 -0.02368
 C89 C 0.18124 -0.15385 0.00150
 H90 H 0.16291 -0.15109 -0.00811
 N91 N 0.22594 -0.14331 0.00483
 C92 C 0.30315 -0.12933 -0.02739
 H93 H 0.30197 -0.10847 -0.02885
 C94 C 0.32533 -0.14234 -0.03608
 H95 H 0.34130 -0.13149 -0.04430
 C96 C 0.28367 -0.16897 -0.01503
 H97 H 0.26731 -0.17923 -0.00700
 C98 C 0.30558 -0.18278 -0.02353
 H99 H 0.30609 -0.20368 -0.02196
 Zn100 Zn 0.25426 -0.12251 -0.00561
 N101 N 0.28301 -0.14268 -0.01685
 C102 C 0.28795 -0.10494 0.03265
 N103 N 0.26358 -0.10269 0.02322
 C104 C 0.24529 -0.08761 0.03505
 C105 C 0.25140 -0.07371 0.05710
 C106 C 0.29483 -0.09141 0.05455
 C107 C 0.24007 -0.11337 -0.05644
 C108 C 0.23146 -0.09951 -0.07807
 C109 C 0.23298 -0.06030 -0.05329
 C110 C 0.24165 -0.07497 -0.03207
 N111 N 0.24446 -0.10109 -0.03390
 H112 H 0.30203 -0.11753 0.02352
 H113 H 0.22591 -0.08658 0.02748
 H114 H 0.23676 -0.06180 0.06648
 H115 H 0.31425 -0.09342 0.06196
 H116 H 0.24272 -0.13412 -0.05738
 H117 H 0.22743 -0.10969 -0.09571
 H118 H 0.23017 -0.03960 -0.05147
 H119 H 0.24568 -0.06554 -0.01412
 C120 C 0.32663 -0.16929 -0.03404
 C121 C 0.18330 -0.17006 0.02327
 C122 C 0.22756 -0.07276 -0.07642
 C123 C 0.27642 -0.07569 0.06690
 C124 C 0.23040 0.15863 0.46797
 H125 H 0.24875 0.15937 0.45769
 C126 C 0.20886 0.17191 0.45812
 H127 H 0.21064 0.18306 0.44028
 C128 C 0.20516 0.14202 0.50295
 H129 H 0.20349 0.12973 0.51995
 C130 C 0.18321 0.15499 0.49380
 H131 H 0.16487 0.15284 0.50395
 N132 N 0.22816 0.14394 0.48995
 C133 C 0.30550 0.12980 0.52029
 H134 H 0.30450 0.10902 0.52257
 C135 C 0.32748 0.14271 0.52801
 H136 H 0.34348 0.13186 0.53632
 C137 C 0.28568 0.16937 0.50698
 H138 H 0.26923 0.17964 0.49901
 C139 C 0.30738 0.18308 0.51451
 H140 H 0.30765 0.20393 0.51228
 Zn141 Zn 0.25670 0.12309 0.50038
 N142 N 0.28527 0.14316 0.50980
 C143 C 0.29037 0.10314 0.46181
 N144 N 0.26605 0.10187 0.47212
 C145 C 0.24767 0.08708 0.46127
 C146 C 0.25352 0.07276 0.43915
 C147 C 0.29701 0.08912 0.43983
 C148 C 0.24281 0.11637 0.55201
 C149 C 0.23454 0.10352 0.57448
 C150 C 0.23642 0.06331 0.55128
 C151 C 0.24473 0.07695 0.52918
 N152 N 0.24723 0.10309 0.52984
 H153 H 0.30453 0.11549 0.47018
 H154 H 0.22833 0.08684 0.46953
 H155 H 0.23871 0.06134 0.43037
 H156 H 0.31632 0.09057 0.43156
 H157 H 0.24519 0.13711 0.55201
 H158 H 0.23044 0.11436 0.59186
 H159 H 0.23382 0.04260 0.55052
 H160 H 0.24874 0.06672 0.51149
 C161 C 0.32848 0.16956 0.52505
 C162 C 0.18500 0.16983 0.47104
 C163 C 0.23103 0.07680 0.57403
 C164 C 0.27841 0.07393 0.42830
 C165 C 0.15940 0.46793 0.23048
 H166 H 0.16010 0.45770 0.24889
 C167 C 0.17270 0.45802 0.20898
 H168 H 0.18381 0.44020 0.21084
 C169 C 0.14289 0.50281 0.20506
 H170 H 0.13062 0.51977 0.20331
 C171 C 0.15587 0.49360 0.18314
 H172 H 0.15375 0.50368 0.16474
 N173 N 0.14474 0.48987 0.22813
 C174 C 0.13037 0.52019 0.30545
 H175 H 0.10958 0.52240 0.30440
 C176 C 0.14321 0.52797 0.32746
 H177 H 0.13230 0.53625 0.34343
 C178 C 0.17001 0.50701 0.28572
 H179 H 0.18034 0.49907 0.26928
 C180 C 0.18366 0.51460 0.30746
 H181 H 0.20451 0.51245 0.30777
 Zn182 Zn 0.12381 0.50029 0.25662
 N183 N 0.14380 0.50974 0.28525
 C184 C 0.10374 0.46174 0.29030
 N185 N 0.10257 0.47204 0.26595
 C186 C 0.08785 0.46120 0.24750
 C187 C 0.07351 0.43908 0.25331
 C188 C 0.08970 0.43975 0.29691
 C189 C 0.11711 0.55184 0.24256
 C190 C 0.10424 0.57425 0.23426
 C191 C 0.06403 0.55102 0.23624
 C192 C 0.07769 0.52897 0.24457
 N193 N 0.10383 0.52968 0.24704
 H194 H 0.11604 0.47010 0.30452
 H195 H 0.08769 0.46946 0.22814
 H196 H 0.06215 0.43030 0.23845
 H197 H 0.09108 0.43148 0.31624
 H198 H 0.13786 0.55187 0.24493
 H199 H 0.11508 0.59163 0.23012
 H200 H 0.04331 0.55023 0.23367
 H201 H 0.06746 0.51128 0.24864
 C202 C 0.17007 0.52511 0.32852
 C203 C 0.17067 0.47086 0.18504
 C204 C 0.07752 0.57376 0.23079
 C205 C 0.07459 0.42822 0.27824
 C206 C -0.16055 0.02674 0.22753
 H207 H -0.16214 0.03642 0.24589
 C208 C -0.17420 0.03631 0.20618
 H209 H -0.18649 0.05333 0.20818
 C210 C -0.14164 -0.00648 0.20209
 H211 H -0.12839 -0.02267 0.20027
 C212 C -0.15493 0.00242 0.18032
 H213 H -0.15201 -0.00721 0.16200
 N214 N -0.14461 0.00572 0.22512
 C215 C -0.13062 -0.02633 0.30249
 H216 H -0.10975 -0.02770 0.30129
 C217 C -0.14358 -0.03506 0.32473
 H218 H -0.13269 -0.04321 0.34071
 C219 C -0.17031 -0.01417 0.28302
 H220 H -0.18061 -0.00620 0.26663
 C221 C -0.18408 -0.02271 0.30498
 H222 H -0.20499 -0.02124 0.30551
 Zn223 Zn -0.12385 -0.00461 0.25353
 N224 N -0.14402 -0.01588 0.28233
 C225 C -0.10637 0.03370 0.28718
 N226 N -0.10408 0.02424 0.26281
 C227 C -0.08893 0.03603 0.24451
 C228 C -0.07496 0.05802 0.25061
 C229 C -0.09277 0.05555 0.29405
 C230 C -0.11453 -0.05537 0.23939
 C231 C -0.10052 -0.07693 0.23095
 C232 C -0.06141 -0.05206 0.23278
 C233 C -0.07619 -0.03089 0.24126
 N234 N -0.10233 -0.03280 0.24385
 H235 H -0.11902 0.02460 0.30127
 H236 H -0.08788 0.02844 0.22514
 H237 H -0.06297 0.06735 0.23597
 H238 H -0.09478 0.06295 0.31348
 H239 H -0.13530 -0.05638 0.24185
 H240 H -0.11051 -0.09462 0.22683
 H241 H -0.04069 -0.05030 0.23013
 H242 H -0.06681 -0.01294 0.24535
 C243 C -0.17053 -0.03315 0.32605
 C244 C -0.17119 0.02413 0.18229
 C245 C -0.07378 -0.07518 0.22733
 C246 C -0.07695 0.06782 0.27564
 C247 C 0.33995 0.52643 0.72877
 H248 H 0.33843 0.53607 0.74717
 C249 C 0.32622 0.53607 0.70750
 H250 H 0.31396 0.55308 0.70953
 C251 C 0.35873 0.49327 0.70318
 H252 H 0.37196 0.47707 0.70126
 C253 C 0.34537 0.50224 0.68149
 H254 H 0.34816 0.49273 0.66311
 N255 N 0.35586 0.50540 0.72625
 C256 C 0.36994 0.47317 0.80352
 H257 H 0.39081 0.47187 0.80236
 C258 C 0.35694 0.46432 0.82569
 H259 H 0.36782 0.45614 0.84168
 C260 C 0.33025 0.48526 0.78399
 H261 H 0.31996 0.49324 0.76760
 C262 C 0.31645 0.47659 0.80589
 H263 H 0.29554 0.47798 0.80636
 Zn264 Zn 0.37668 0.49499 0.75457
 N265 N 0.35655 0.48365 0.78336
 C266 C 0.39429 0.53324 0.78824
 N267 N 0.39648 0.52382 0.76386
 C268 C 0.41152 0.53566 0.74550
 C269 C 0.42544 0.55769 0.75154
 C270 C 0.40784 0.55513 0.79506
 C271 C 0.38594 0.44427 0.74027
 C272 C 0.39991 0.42273 0.73172
 C273 C 0.43904 0.44758 0.73348
 C274 C 0.42430 0.46873 0.74207
 N275 N 0.39816 0.46682 0.74476
 H276 H 0.38172 0.52409 0.80238
 H277 H 0.41250 0.52809 0.72611
 H278 H 0.43732 0.56708 0.73685
 H279 H 0.40589 0.56253 0.81450
 H280 H 0.36518 0.44326 0.74281
 H281 H 0.38990 0.40506 0.72758
 H282 H 0.45975 0.44935 0.73075
 H283 H 0.43370 0.48667 0.74618
 C284 C 0.32998 0.46612 0.82695
 C285 C 0.32914 0.52395 0.68359
 C286 C 0.42664 0.42449 0.72800
 C287 C 0.42352 0.56748 0.77658
 C288 C 0.66014 0.96845 0.73088
 H289 H 0.66093 0.95814 0.74923
 C290 C 0.67338 0.95868 0.70927
 H291 H 0.68454 0.94088 0.71101
 C292 C 0.64344 1.00341 0.70568
 H293 H 0.63112 1.02034 0.70406
 C294 C 0.65637 0.99434 0.68367
 H295 H 0.65415 1.00450 0.66533
 N296 N 0.64541 0.99037 0.72869
 C297 C 0.63105 1.02028 0.80619
 H298 H 0.61025 1.02241 0.80518
 C299 C 0.64388 1.02802 0.82823
 H300 H 0.63290 1.03620 0.84422
 C301 C 0.67071 1.00733 0.78635
 H302 H 0.68104 0.99949 0.76987
 C303 C 0.68437 1.01488 0.80810
 H304 H 0.70524 1.01279 0.80830
 Zn305 Zn 0.62450 1.00059 0.75727
 N306 N 0.64449 1.00997 0.78593
 C307 C 0.60452 0.96183 0.79080
 N308 N 0.60333 0.97223 0.76649
 C309 C 0.58863 0.96144 0.74799
 C310 C 0.57429 0.93930 0.75371
 C311 C 0.59049 0.93981 0.79732
 C312 C 0.61761 1.05218 0.74345
 C313 C 0.60466 1.07455 0.73515
 C314 C 0.56455 1.05115 0.73698
 C315 C 0.57827 1.02914 0.74531
 N316 N 0.60441 1.02995 0.74784
 H317 H 0.61681 0.97015 0.80505
 H318 H 0.58846 0.96978 0.72866
 H319 H 0.56294 0.93058 0.73883
 H320 H 0.59186 0.93148 0.81663
 H321 H 0.63834 1.05229 0.74585
 H322 H 0.61544 1.09198 0.73105
 H323 H 0.54385 1.05027 0.73435
 H324 H 0.56811 1.01141 0.74932
 C325 C 0.67078 1.02528 0.82925
 C326 C 0.67122 0.97163 0.68540
 C327 C 0.57795 1.07395 0.73159
 C328 C 0.57537 0.92836 0.77861
 C329 C 0.02586 0.22808 -0.15908
 H330 H 0.03554 0.24645 -0.16051
 C331 C 0.03554 0.20686 -0.17280
 H332 H 0.05264 0.20891 -0.18497
 C333 C -0.00747 0.20247 -0.14052
 H334 H -0.02376 0.20053 -0.12738
 C335 C 0.00155 0.18084 -0.15388
 H336 H -0.00802 0.16249 -0.15118
 N337 N 0.00472 0.22553 -0.14328
 C338 C -0.02756 0.30263 -0.12920
 H339 H -0.02904 0.30137 -0.10831
 C340 C -0.03625 0.32485 -0.14219
 H341 H -0.04450 0.34077 -0.13131
 C342 C -0.01514 0.28333 -0.16890
 H343 H -0.00708 0.26702 -0.17920
 C344 C -0.02364 0.30528 -0.18270
 H345 H -0.02205 0.30587 -0.20362
 Zn346 Zn -0.00578 0.25375 -0.12243
 N347 N -0.01699 0.28257 -0.14259
 C348 C 0.03241 0.28737 -0.10463
 N349 N 0.02297 0.26300 -0.10247
 C350 C 0.03479 0.24465 -0.08742
 C351 C 0.05682 0.25067 -0.07347
 C352 C 0.05430 0.29418 -0.09104
 C353 C -0.05657 0.23947 -0.11347
 C354 C -0.07820 0.23083 -0.09966
 C355 C -0.05352 0.23228 -0.06032
 C356 C -0.03230 0.24098 -0.07494
 N357 N -0.03407 0.24385 -0.10109
 H358 H 0.02329 0.30151 -0.11721
 H359 H 0.02722 0.22527 -0.08647
 H360 H 0.06620 0.23598 -0.06159
 H361 H 0.06171 0.31360 -0.09299
 H362 H -0.05746 0.24215 -0.13424
 H363 H -0.09580 0.22681 -0.10991
 H364 H -0.05174 0.22945 -0.03959
 H365 H -0.01438 0.24500 -0.06543
 C366 C -0.03419 0.32626 -0.16916
 C367 C 0.02336 0.18298 -0.16999
 C368 C -0.07661 0.22689 -0.07287
 C369 C 0.06664 0.27569 -0.07537
 C370 C 0.46867 0.23017 0.15929
 H371 H 0.45835 0.24849 0.16000
 C372 C 0.45888 0.20861 0.17263
 H373 H 0.44107 0.21036 0.18379
 C374 C 0.50363 0.20499 0.14269
 H375 H 0.52058 0.20335 0.13037
 C376 C 0.49454 0.18303 0.15572
 H377 H 0.50471 0.16472 0.15358
 N378 N 0.49059 0.22796 0.14456
 C379 C 0.52058 0.30537 0.12995
 H380 H 0.52277 0.30431 0.10914
 C381 C 0.52826 0.32743 0.14273
 H382 H 0.53645 0.34342 0.13176
 C383 C 0.50752 0.28565 0.16969
 H384 H 0.49965 0.26920 0.18008
 C385 C 0.51501 0.30743 0.18329
 H386 H 0.51286 0.30777 0.20416
 Zn387 Zn 0.50084 0.25648 0.12353
 N388 N 0.51023 0.28515 0.14345
 C389 C 0.46208 0.28991 0.10351
 N390 N 0.47247 0.26563 0.10234
 C391 C 0.46162 0.24714 0.08770
 C392 C 0.43942 0.25282 0.07342
 C393 C 0.44001 0.29639 0.08954
 C394 C 0.55243 0.24273 0.11667
 C395 C 0.57483 0.23449 0.10373
 C396 C 0.55144 0.23620 0.06357
 C397 C 0.52941 0.24448 0.07729
 N398 N 0.53020 0.24705 0.10344
 H399 H 0.47045 0.30416 0.11576
 H400 H 0.46995 0.22784 0.08754
 H401 H 0.43065 0.23793 0.06213
 H402 H 0.43168 0.31566 0.09091
 H403 H 0.55253 0.24516 0.13742
 H404 H 0.59226 0.23046 0.11454
 H405 H 0.55057 0.23354 0.04286
 H406 H 0.51167 0.24842 0.06711
 C407 C 0.52541 0.32852 0.16961
 C408 C 0.47182 0.18478 0.17058
 C409 C 0.57425 0.23091 0.07701
 C410 C 0.42848 0.27767 0.07450
 C411 C 0.96770 0.73032 0.65990
 H412 H 0.95743 0.74866 0.66068
 C413 C 0.95789 0.70875 0.67319
 H414 H 0.94011 0.71050 0.68439
 C415 C 1.00259 0.70514 0.64317
 H416 H 1.01953 0.70350 0.63084
 C417 C 0.99349 0.68316 0.65616
 H418 H 1.00362 0.66483 0.65396
 N419 N 0.98961 0.72812 0.64514
 C420 C 1.01980 0.80551 0.63097
 H421 H 1.02199 0.80457 0.61016
 C422 C 1.02756 0.82746 0.64389
 H423 H 1.03581 0.84349 0.63301
 C424 C 1.00669 0.78559 0.67060
 H425 H 0.99878 0.76911 0.68090
 C426 C 1.01426 0.80727 0.68433
 H427 H 1.01213 0.80748 0.70521
 Zn428 Zn 0.99995 0.75671 0.62426
 N429 N 1.00939 0.78525 0.64436
 C430 C 0.96134 0.79037 0.60433
 N431 N 0.97166 0.76607 0.60306
 C432 C 0.96083 0.74770 0.58824
 C433 C 0.93874 0.75355 0.57386
 C434 C 0.93937 0.79701 0.59026
 C435 C 1.05152 0.74286 0.61744
 C436 C 1.07393 0.73465 0.60450
 C437 C 1.05063 0.73670 0.56429
 C438 C 1.02859 0.74494 0.57801
 N439 N 1.02933 0.74732 0.60419
 H440 H 0.96968 0.80451 0.61671
 H441 H 0.96910 0.72838 0.58800
 H442 H 0.92999 0.73877 0.56241
 H443 H 0.93111 0.81630 0.59170
 H444 H 1.05158 0.74515 0.63821
 H445 H 1.09132 0.73051 0.61532
 H446 H 1.04981 0.73420 0.54355
 H447 H 1.01089 0.74900 0.56781
 C448 C 1.02473 0.82840 0.67078
 C449 C 0.97080 0.68490 0.67106
 C450 C 1.07340 0.73126 0.57775
 C451 C 0.92788 0.77843 0.57502
 C452 C 0.52642 0.72910 0.33907
 H453 H 0.53612 0.74746 0.33750
 C454 C 0.53597 0.70783 0.32534
 H455 H 0.55297 0.70982 0.31303
 C456 C 0.49320 0.70360 0.35797
 H457 H 0.47702 0.70171 0.37125
 C458 C 0.50209 0.68191 0.34461
 H459 H 0.49251 0.66358 0.34746
 N460 N 0.50541 0.72663 0.35503
 C461 C 0.47342 0.80384 0.36915
 H462 H 0.47210 0.80262 0.39004
 C463 C 0.46464 0.82605 0.35619
 H464 H 0.45651 0.84197 0.36717
 C465 C 0.48547 0.78445 0.32939
 H466 H 0.49341 0.76809 0.31907
 C467 C 0.47688 0.80637 0.31561
 H468 H 0.47832 0.80685 0.29467
 Zn469 Zn 0.49509 0.75493 0.37586
 N470 N 0.48383 0.78374 0.35571
 C471 C 0.53344 0.78850 0.39346
 N472 N 0.52396 0.76416 0.39568
 C473 C 0.53572 0.74582 0.41080
 C474 C 0.55770 0.75187 0.42482
 C475 C 0.55529 0.79532 0.40710
 C476 C 0.44431 0.74071 0.38518
 C477 C 0.42275 0.73223 0.39920
 C478 C 0.44761 0.73403 0.43836
 C479 C 0.46878 0.74255 0.42356
 N480 N 0.46689 0.74518 0.39740
 H481 H 0.52436 0.80262 0.38083
 H482 H 0.52810 0.72647 0.41181
 H483 H 0.56700 0.73720 0.43679
 H484 H 0.56272 0.81474 0.40514
 H485 H 0.44331 0.74321 0.36440
 H486 H 0.40505 0.72811 0.38920
 H487 H 0.44937 0.73134 0.45909
 H488 H 0.48674 0.74664 0.43295
 C489 C 0.46646 0.82741 0.32918
 C490 C 0.52378 0.68397 0.32832
 C491 C 0.42449 0.72857 0.42597
 C492 C 0.56754 0.77687 0.42290
 C493 C 0.40612 -0.02164 0.27540
 H494 H 0.40667 -0.00326 0.28504
 C495 C 0.41979 -0.04295 0.28545
 H496 H 0.43105 -0.04096 0.30279
 C497 C 0.38970 -0.04719 0.24185
 H498 H 0.37738 -0.04905 0.22533
 C499 C 0.40307 -0.06893 0.25124
 H500 H 0.40117 -0.08731 0.24174
 N501 N 0.39137 -0.02413 0.25401
 C502 C 0.37704 0.05286 0.22090
 H503 H 0.35631 0.05164 0.21887
 C504 C 0.38984 0.07510 0.21264
 H505 H 0.37897 0.09106 0.20413
 C506 C 0.41652 0.03353 0.23454
 H507 H 0.42680 0.01723 0.24299
 C508 C 0.43012 0.05550 0.22650
 H509 H 0.45087 0.05611 0.22881
 Zn510 Zn 0.37037 0.00428 0.24320
 N511 N 0.39039 0.03279 0.23193
 C512 C 0.35104 0.03848 0.28104
 N513 N 0.34944 0.01404 0.27191
 C514 C 0.33468 -0.00406 0.28427
 C515 C 0.32078 0.00222 0.30681
 C516 C 0.33746 0.04554 0.30337
 C517 C 0.36327 -0.00992 0.19239
 C518 C 0.35024 -0.01802 0.17062
 C519 C 0.31015 -0.01599 0.19519
 C520 C 0.32398 -0.00785 0.21659
 N521 N 0.35013 -0.00544 0.21489
 H522 H 0.36337 0.05242 0.27149
 H523 H 0.33417 -0.02350 0.27692
 H524 H 0.30942 -0.01236 0.31682
 H525 H 0.33921 0.06493 0.31069
 H526 H 0.38402 -0.00760 0.19156
 H527 H 0.36097 -0.02204 0.15294
 H528 H 0.28942 -0.01840 0.19674
 H529 H 0.31387 -0.00380 0.23453
 C530 C 0.41658 0.07653 0.21562
 C531 C 0.41805 -0.06686 0.27336
 C532 C 0.32350 -0.02131 0.17208
 C533 C 0.32236 0.02724 0.31648
 C534 C 0.08568 1.03028 0.78159
 H535 H 0.08383 1.01179 0.79145
 C536 C 0.07218 1.05192 0.79087
 H537 H 0.05974 1.05008 0.80783
 C538 C 0.10506 1.05570 0.74821
 H539 H 0.11844 1.05734 0.73207
 C540 C 0.09193 1.07776 0.75684
 H541 H 0.09504 1.09618 0.74710
 N542 N 0.10177 1.03254 0.76063
 C543 C 0.11511 0.95525 0.73008
 H544 H 0.13599 0.95576 0.72891
 C545 C 0.10213 0.93366 0.72151
 H546 H 0.11303 0.91748 0.71366
 C547 C 0.07539 0.97589 0.74149
 H548 H 0.06511 0.99250 0.74907
 C549 C 0.06160 0.95458 0.73307
 H550 H 0.04067 0.95477 0.73423
 Zn551 Zn 0.12216 1.00350 0.75071
 N552 N 0.10170 0.97569 0.74005
 C553 C 0.13933 0.96873 0.78970
 N554 N 0.14205 0.99301 0.77961
 C555 C 0.15794 1.01032 0.79063
 C556 C 0.17237 1.00320 0.81236
 C557 C 0.15335 0.96085 0.81132
 C558 C 0.13140 1.01816 0.69958
 C559 C 0.14558 1.02535 0.67754
 C560 C 0.18483 1.01989 0.70195
 C561 C 0.16989 1.01276 0.72361
 N562 N 0.14364 1.01247 0.72213
 H563 H 0.12609 0.95546 0.78122
 H564 H 0.15936 1.02967 0.78253
 H565 H 0.18505 1.01701 0.82100
 H566 H 0.15107 0.94146 0.81918
 H567 H 0.11054 1.01743 0.69889
 H568 H 0.13562 1.03032 0.65980
 H569 H 0.20569 1.02054 0.70332
 H570 H 0.17928 1.00762 0.74153
 C571 C 0.07516 0.93326 0.72306
 C572 C 0.07550 1.07591 0.77847
 C573 C 0.17250 1.02641 0.67879
 C574 C 0.17005 0.97818 0.82272
 C575 C 0.58559 0.53109 0.27977
 H576 H 0.58374 0.51260 0.28963
 C577 C 0.57211 0.55274 0.28907
 H578 H 0.55968 0.55090 0.30603
 C579 C 0.60498 0.55650 0.24640
 H580 H 0.61837 0.55815 0.23026
 C581 C 0.59187 0.57857 0.25503
 H582 H 0.59499 0.59699 0.24531
 N583 N 0.60169 0.53334 0.25881
 C584 C 0.61523 0.45609 0.22825
 H585 H 0.63611 0.45668 0.22705
 C586 C 0.60233 0.43443 0.21972
 H587 H 0.61329 0.41829 0.21187
 C588 C 0.57545 0.47656 0.23972
 H589 H 0.56511 0.49314 0.24732
 C590 C 0.56173 0.45518 0.23134
 H591 H 0.54081 0.45528 0.23255
 Zn592 Zn 0.62213 0.50434 0.24892
 N593 N 0.60176 0.47647 0.23824
 C594 C 0.63933 0.46958 0.28792
 N595 N 0.64199 0.49388 0.27785
 C596 C 0.65782 0.51122 0.28892
 C597 C 0.67221 0.50412 0.31068
 C598 C 0.65332 0.46172 0.30957
 C599 C 0.63146 0.51901 0.19780
 C600 C 0.64566 0.52628 0.17581
 C601 C 0.68487 0.52094 0.20032
 C602 C 0.66990 0.51373 0.22193
 N603 N 0.64365 0.51335 0.22038
 H604 H 0.62614 0.45628 0.27940
 H605 H 0.65919 0.53058 0.28084
 H606 H 0.68483 0.51796 0.31936
 H607 H 0.65107 0.44232 0.31741
 H608 H 0.61060 0.51821 0.19706
 H609 H 0.63574 0.53123 0.15805
 H610 H 0.70572 0.52166 0.20175
 H611 H 0.67925 0.50861 0.23987
 C612 C 0.57537 0.43391 0.22133
 C613 C 0.57545 0.57673 0.27667
 C614 C 0.67258 0.52744 0.17713
 C615 C 0.66993 0.47909 0.32102
 C616 C 0.90525 0.47851 0.77616
 H617 H 0.90575 0.49691 0.78578
 C618 C 0.91891 0.45722 0.78629
 H619 H 0.93010 0.45925 0.80367
 C620 C 0.88898 0.45291 0.74258
 H621 H 0.87672 0.45101 0.72602
 C622 C 0.90233 0.43120 0.75204
 H623 H 0.90048 0.41280 0.74256
 N624 N 0.89058 0.47599 0.75472
 C625 C 0.87617 0.55288 0.72144
 H626 H 0.85545 0.55161 0.71935
 C627 C 0.88894 0.57514 0.71316
 H628 H 0.87806 0.59105 0.70458
 C629 C 0.91565 0.53368 0.73523
 H630 H 0.92595 0.51742 0.74375
 C631 C 0.92922 0.55566 0.72717
 H632 H 0.94997 0.55633 0.72953
 Zn633 Zn 0.86955 0.50434 0.74382
 N634 N 0.88953 0.53288 0.73255
 C635 C 0.85004 0.53856 0.78155
 N636 N 0.84853 0.51409 0.77246
 C637 C 0.83382 0.49597 0.78484
 C638 C 0.81991 0.50223 0.80737
 C639 C 0.83643 0.54560 0.80387
 C640 C 0.86264 0.49008 0.69300
 C641 C 0.84971 0.48189 0.67121
 C642 C 0.80955 0.48374 0.69569
 C643 C 0.82328 0.49198 0.71711
 N644 N 0.84942 0.49452 0.71547
 H645 H 0.86233 0.55252 0.77199
 H646 H 0.83338 0.47651 0.77752
 H647 H 0.80860 0.48763 0.81741
 H648 H 0.83813 0.56502 0.81116
 H649 H 0.88338 0.49250 0.69222
 H650 H 0.86050 0.47789 0.65357
 H651 H 0.78883 0.48122 0.69719
 H652 H 0.81311 0.49599 0.73503
 C653 C 0.91567 0.57663 0.71620
 C654 C 0.91723 0.43330 0.77422
 C655 C 0.82298 0.47846 0.67262
 C656 C 0.82140 0.52727 0.81701
 C657 C 0.27546 0.40457 -0.02100
 H658 H 0.28507 0.40504 -0.00257
 C659 C 0.28555 0.41830 -0.04228
 H660 H 0.30290 0.42951 -0.04022
 C661 C 0.24190 0.38834 -0.04667
 H662 H 0.22536 0.37609 -0.04859
 C663 C 0.25133 0.40177 -0.06839
 H664 H 0.24184 0.39998 -0.08681
 N665 N 0.25404 0.38991 -0.02356
 C666 C 0.22087 0.37562 0.05345
 H667 H 0.21879 0.35490 0.05228
 C668 C 0.21262 0.38846 0.07567
 H669 H 0.20408 0.37763 0.09166
 C670 C 0.23457 0.41505 0.03401
 H671 H 0.24303 0.42530 0.01769
 C672 C 0.22654 0.42869 0.05596
 H673 H 0.22888 0.44944 0.05652
 Zn674 Zn 0.24315 0.36890 0.00485
 N675 N 0.23192 0.38893 0.03335
 C676 C 0.28089 0.34946 0.03918
 N677 N 0.27177 0.34790 0.01470
 C678 C 0.28413 0.33318 -0.00341
 C679 C 0.30668 0.31933 0.00289
 C680 C 0.30322 0.33592 0.04627
 C681 C 0.19238 0.36198 -0.00945
 C682 C 0.17059 0.34904 -0.01759
 C683 C 0.19500 0.30888 -0.01554
 C684 C 0.21643 0.32262 -0.00736
 N685 N 0.21482 0.34876 -0.00494
 H686 H 0.27134 0.36176 0.05312
 H687 H 0.27679 0.33270 -0.02288
 H688 H 0.31670 0.30803 -0.01169
 H689 H 0.31054 0.33767 0.06569
 H690 H 0.19162 0.38272 -0.00713
 H691 H 0.15296 0.35983 -0.02164
 H692 H 0.19648 0.28815 -0.01796
 H693 H 0.23433 0.31245 -0.00329
 C694 C 0.21563 0.41519 0.07702
 C695 C 0.27347 0.41669 -0.06624
 C696 C 0.17196 0.32230 -0.02089
 C697 C 0.31635 0.32089 0.02795
 C698 C 0.78110 0.08538 1.03026
 H699 H 0.79094 0.08348 1.01175
 C700 C 0.79036 0.07191 1.05198
 H701 H 0.80728 0.05945 1.05019
 C702 C 0.74781 0.10488 1.05561
 H703 H 0.73172 0.11829 1.05720
 C704 C 0.75641 0.09178 1.07775
 H705 H 0.74671 0.09495 1.09617
 N706 N 0.76020 0.10152 1.03244
 C707 C 0.72967 0.11494 0.95501
 H708 H 0.72855 0.13582 0.95550
 C709 C 0.72105 0.10200 0.93341
 H710 H 0.71322 0.11293 0.91720
 C711 C 0.74099 0.07520 0.97571
 H712 H 0.74855 0.06488 0.99236
 C713 C 0.73252 0.06144 0.95439
 H714 H 0.73362 0.04051 0.95460
 Zn715 Zn 0.75033 0.12192 1.00333
 N716 N 0.73962 0.10150 0.97549
 C717 C 0.78932 0.13900 0.96851
 N718 N 0.77926 0.14173 0.99281
 C719 C 0.79033 0.15759 1.01014
 C720 C 0.81208 0.17195 1.00300
 C721 C 0.81097 0.15296 0.96063
 C722 C 0.69928 0.13127 1.01793
 C723 C 0.67731 0.14548 1.02515
 C724 C 0.70181 0.18468 1.01975
 C725 C 0.72339 0.16970 1.01258
 N726 N 0.72184 0.14346 1.01226
 H727 H 0.78080 0.12580 0.95524
 H728 H 0.78226 0.15902 1.02950
 H729 H 0.82077 0.18459 1.01683
 H730 H 0.81880 0.15065 0.94123
 H731 H 0.69854 0.11041 1.01718
 H732 H 0.65957 0.13556 1.03011
 H733 H 0.70324 0.20552 1.02043
 H734 H 0.74132 0.17905 1.00747
 C735 C 0.72253 0.07503 0.93303
 C736 C 0.77799 0.07531 1.07597
 C737 C 0.67864 0.17239 1.02626
 C738 C 0.82242 0.16960 0.97797
 C739 C 0.28058 0.58628 0.53064
 H740 H 0.29040 0.58446 0.51213
 C741 C 0.28989 0.57277 0.55231
 H742 H 0.30684 0.56036 0.55047
 C743 C 0.24724 0.60559 0.55608
 H744 H 0.23110 0.61895 0.55772
 C745 C 0.25589 0.59245 0.57817
 H746 H 0.24619 0.59552 0.59661
 N747 N 0.25962 0.60234 0.53289
 C748 C 0.22891 0.61562 0.45554
 H749 H 0.22769 0.63650 0.45602
 C750 C 0.22036 0.60262 0.43395
 H751 H 0.21247 0.61350 0.41773
 C752 C 0.24045 0.57594 0.47625
 H753 H 0.24808 0.56568 0.49290
 C754 C 0.23205 0.56213 0.45494
 H755 H 0.23328 0.54121 0.45515
 Zn756 Zn 0.24964 0.62271 0.50381
 N757 N 0.23895 0.60225 0.47601
 C758 C 0.28849 0.63989 0.46891
 N759 N 0.27848 0.64260 0.49324
 C760 C 0.28956 0.65848 0.51054
 C761 C 0.31128 0.67287 0.50336
 C762 C 0.31011 0.65388 0.46098
 C763 C 0.19859 0.63193 0.51851
 C764 C 0.17660 0.64608 0.52577
 C765 C 0.20099 0.68534 0.52031
 C766 C 0.22259 0.67042 0.51311
 N767 N 0.22110 0.64417 0.51279
 H768 H 0.27998 0.62666 0.45566
 H769 H 0.28153 0.65989 0.52992
 H770 H 0.31997 0.68552 0.51716
 H771 H 0.31791 0.65158 0.44157
 H772 H 0.19790 0.61107 0.51776
 H773 H 0.15889 0.63612 0.53076
 H774 H 0.20237 0.70619 0.52099
 H775 H 0.24049 0.67981 0.50796
 C776 C 0.22200 0.57566 0.43358
 C777 C 0.27752 0.57605 0.57633
 C778 C 0.17786 0.67300 0.52687
 C779 C 0.32157 0.67053 0.47831
 C780 C 0.77534 0.90613 0.47861
 H781 H 0.78500 0.90667 0.49702
 C782 C 0.78537 0.91981 0.45726
 H783 H 0.80271 0.93105 0.45924
 C784 C 0.74177 0.88977 0.45305
 H785 H 0.72524 0.87748 0.45120
 C786 C 0.75113 0.90315 0.43128
 H787 H 0.74161 0.90127 0.41288
 N788 N 0.75395 0.89142 0.47614
 C789 C 0.72077 0.87704 0.55314
 H790 H 0.71865 0.85632 0.55190
 C791 C 0.71257 0.88981 0.57542
 H792 H 0.70402 0.87893 0.59138
 C793 C 0.73459 0.91650 0.53386
 H794 H 0.74309 0.92678 0.51758
 C795 C 0.72662 0.93006 0.55587
 H796 H 0.72903 0.95080 0.55652
 Zn797 Zn 0.74313 0.87040 0.50458
 N798 N 0.73186 0.89039 0.53309
 C799 C 0.78085 0.85101 0.53894
 N800 N 0.77180 0.84946 0.51443
 C801 C 0.78420 0.83475 0.49635
 C802 C 0.80671 0.82086 0.50272
 C803 C 0.80314 0.83743 0.54609
 C804 C 0.69237 0.86332 0.49031
 C805 C 0.67066 0.85033 0.48202
 C806 C 0.69526 0.81028 0.48386
 C807 C 0.71659 0.82406 0.49219
 N808 N 0.71486 0.85018 0.49477
 H809 H 0.77126 0.86330 0.55287
 H810 H 0.77692 0.83428 0.47686
 H811 H 0.81675 0.80954 0.48816
 H812 H 0.81038 0.83914 0.56555
 H813 H 0.69151 0.88405 0.49275
 H814 H 0.65300 0.86107 0.47798
 H815 H 0.69685 0.78958 0.48128
 H816 H 0.73453 0.81395 0.49622
 C817 C 0.71568 0.91652 0.57689
 C818 C 0.77325 0.91811 0.43333
 C819 C 0.67218 0.82363 0.47851
 C820 C 0.81629 0.82238 0.52782
 C821 C -0.02108 0.27525 0.40568
 H822 H -0.00264 0.28480 0.40620
 C823 C -0.04233 0.28537 0.41938
 H824 H -0.04023 0.30268 0.43063
 C825 C -0.04685 0.24186 0.38929
 H826 H -0.04882 0.22538 0.37697
 C827 C -0.06853 0.25132 0.40268
 H828 H -0.08697 0.24192 0.40080
 N829 N -0.02371 0.25390 0.39093
 C830 C 0.05308 0.22057 0.37635
 H831 H 0.05181 0.21858 0.35560
 C832 C 0.07532 0.21220 0.38910
 H833 H 0.09121 0.20366 0.37818
 C834 C 0.03391 0.23418 0.41593
 H835 H 0.01768 0.24266 0.42627
 C836 C 0.05588 0.22604 0.42948
 H837 H 0.05656 0.22830 0.45025
 Zn838 Zn 0.00460 0.24305 0.36983
 N839 N 0.03310 0.23163 0.38977
 C840 C 0.03896 0.28076 0.35041
 N841 N 0.01445 0.27175 0.34891
 C842 C -0.00365 0.28423 0.33426
 C843 C 0.00268 0.30679 0.32040
 C844 C 0.04607 0.30310 0.33686
 C845 C -0.00990 0.19239 0.36265
 C846 C -0.01820 0.17075 0.34958
 C847 C -0.01619 0.19545 0.30951
 C848 C -0.00785 0.21672 0.32338
 N849 N -0.00534 0.21490 0.34954
 H850 H 0.05291 0.27111 0.36266
 H851 H -0.02315 0.27697 0.33382
 H852 H -0.01191 0.31690 0.30914
 H853 H 0.06552 0.31033 0.33855
 H854 H -0.00751 0.19146 0.38340
 H855 H -0.02230 0.15307 0.36028
 H856 H -0.01869 0.19710 0.28878
 H857 H -0.00373 0.23467 0.31329
 C858 C 0.07682 0.21511 0.41586
 C859 C -0.06632 0.27341 0.41766
 C860 C -0.02161 0.17235 0.32283
 C861 C 0.02776 0.31634 0.32189
 C862 C 1.03044 0.78085 0.08506
 H863 H 1.01192 0.79062 0.08319
 C864 C 1.05208 0.79021 0.07156
 H865 H 1.05020 0.80715 0.05910
 C866 C 1.05593 0.74761 0.10453
 H867 H 1.05760 0.73150 0.11795
 C868 C 1.07798 0.75632 0.09140
 H869 H 1.09643 0.74668 0.09454
 N870 N 1.03273 0.75992 0.10120
 C871 C 0.95554 0.72915 0.11485
 H872 H 0.95613 0.72799 0.13576
 C873 C 0.93391 0.72050 0.10198
 H874 H 0.91779 0.71260 0.11298
 C875 C 0.97599 0.74060 0.07499
 H876 H 0.99255 0.74824 0.06461
 C877 C 0.95464 0.73210 0.06129
 H878 H 0.95474 0.73325 0.04035
 Zn879 Zn 1.00375 0.74995 0.12169
 N880 N 0.97590 0.73918 0.10133
 C881 C 0.96893 0.78880 0.13884
 N882 N 0.99324 0.77881 0.14153
 C883 C 1.01058 0.78991 0.15736
 C884 C 1.00345 0.81164 0.17172
 C885 C 0.96105 0.81042 0.15280
 C886 C 1.01849 0.69895 0.13104
 C887 C 1.02575 0.67697 0.14526
 C888 C 1.02038 0.70140 0.18451
 C889 C 1.01317 0.72299 0.16951
 N890 N 1.01281 0.72147 0.14324
 H891 H 0.95565 0.78026 0.12566
 H892 H 1.02995 0.78189 0.15875
 H893 H 1.01728 0.82036 0.18434
 H894 H 0.94164 0.81821 0.15053
 H895 H 1.01770 0.69823 0.11016
 H896 H 1.03070 0.65925 0.13533
 H897 H 1.02108 0.70279 0.20537
 H898 H 1.00804 0.74089 0.17888
 C899 C 0.93340 0.72203 0.07498
 C900 C 1.07610 0.77793 0.07494
 C901 C 1.02689 0.67826 0.17220
 C902 C 0.97841 0.82191 0.16941
 C903 C 0.53059 0.28055 0.58534
 H904 H 0.51208 0.29035 0.58348
 C905 C 0.55222 0.28988 0.57181
 H906 H 0.55036 0.30682 0.55936
 C907 C 0.55605 0.24729 0.60479
 H908 H 0.55771 0.23118 0.61822
 C909 C 0.57810 0.25596 0.59164
 H910 H 0.59654 0.24630 0.59477
 N911 N 0.53287 0.25962 0.60148
 C912 C 0.45562 0.22895 0.61508
 H913 H 0.45617 0.22780 0.63599
 C914 C 0.43400 0.22033 0.60217
 H915 H 0.41784 0.21247 0.61314
 C916 C 0.47616 0.24036 0.57526
 H917 H 0.49276 0.24795 0.56490
 C918 C 0.45482 0.23189 0.56152
 H919 H 0.45497 0.23303 0.54057
 Zn920 Zn 0.50387 0.24969 0.62197
 N921 N 0.47602 0.23894 0.60160
 C922 C 0.46908 0.28859 0.63914
 N923 N 0.49339 0.27859 0.64179
 C924 C 0.51076 0.28969 0.65758
 C925 C 0.50366 0.31141 0.67196
 C926 C 0.46123 0.31021 0.65311
 C927 C 0.51860 0.19869 0.63143
 C928 C 0.52589 0.17675 0.64571
 C929 C 0.52049 0.20127 0.68489
 C930 C 0.51326 0.22282 0.66984
 N931 N 0.51290 0.22123 0.64357
 H932 H 0.45577 0.28004 0.62598
 H933 H 0.53013 0.28166 0.65894
 H934 H 0.51752 0.32012 0.68455
 H935 H 0.44182 0.31800 0.65087
 H936 H 0.51781 0.19791 0.61055
 H937 H 0.53087 0.15902 0.63582
 H938 H 0.52120 0.20273 0.70575
 H939 H 0.50812 0.24074 0.67916
 C940 C 0.43354 0.22186 0.57517
 C941 C 0.57623 0.27757 0.57517
 C942 C 0.52703 0.17811 0.67264
 C943 C 0.47862 0.32169 0.66969
 C944 C 0.47882 0.77574 0.90563
 H945 H 0.49727 0.78528 0.90619
 C946 C 0.45754 0.78591 0.91925
 H947 H 0.45962 0.80324 0.93048
 C948 C 0.45308 0.74234 0.88925
 H949 H 0.45113 0.72583 0.87696
 C950 C 0.43137 0.75184 0.90256
 H951 H 0.41293 0.74244 0.90066
 N952 N 0.47622 0.75437 0.89093
 C953 C 0.55297 0.72083 0.87671
 H954 H 0.55174 0.71877 0.85597
 C955 C 0.57515 0.71245 0.88955
 H956 H 0.59106 0.70383 0.87870
 C957 C 0.53374 0.73465 0.91618
 H958 H 0.51751 0.74321 0.92645
 C959 C 0.55565 0.72650 0.92982
 H960 H 0.55629 0.72884 0.95059
 Zn961 Zn 0.50458 0.74340 0.86996
 N962 N 0.53299 0.73200 0.89004
 C963 C 0.53910 0.78098 0.85060
 N964 N 0.51458 0.77201 0.84898
 C965 C 0.49658 0.78450 0.83420
 C966 C 0.50303 0.80702 0.82034
 C967 C 0.54632 0.80328 0.83705
 C968 C 0.49009 0.69273 0.86298
 C969 C 0.48182 0.67101 0.85001
 C970 C 0.48390 0.69551 0.80982
 C971 C 0.49220 0.71686 0.82359
 N972 N 0.49467 0.71518 0.84976
 H973 H 0.55296 0.77133 0.86294
 H974 H 0.47708 0.77728 0.83368
 H975 H 0.48852 0.81714 0.80899
 H976 H 0.56578 0.81048 0.83884
 H977 H 0.49244 0.69192 0.88374
 H978 H 0.47772 0.65339 0.86080
 H979 H 0.48144 0.69705 0.78908
 H980 H 0.49633 0.73476 0.81342
 C981 C 0.57660 0.71547 0.91630
 C982 C 0.43355 0.77395 0.91750
 C983 C 0.47847 0.67247 0.82325
 C984 C 0.52812 0.81654 0.82196
 C985 C 0.45776 -0.15099 0.31641
 C986 C 0.44963 -0.13165 0.30581
 C987 C 0.43948 -0.10892 0.29409
 C988 C 0.43014 -0.08961 0.28449
 C989 C 0.95673 0.34912 0.81734
 C990 C 0.94866 0.36849 0.80676
 C991 C 0.93857 0.39125 0.79504
 C992 C 0.92927 0.41056 0.78542
 C993 C 0.03394 1.16034 0.81767
 C994 C 0.04289 1.14104 0.80804
 C995 C 0.05366 1.11827 0.79739
 C996 C 0.06329 1.09886 0.78865
 C997 C 0.53422 0.66127 0.31597
 C998 C 0.54307 0.64194 0.30633
 C999 C 0.55374 0.61913 0.29565
 C1000 C 0.56330 0.59970 0.28689
 C1001 C 0.53393 0.35107 0.18285
 C1002 C 0.54186 0.37020 0.19293
 C1003 C 0.55222 0.39265 0.20368
 C1004 C 0.56212 0.41166 0.21210
 C1005 C 0.03336 0.85082 0.68416
 C1006 C 0.04138 0.86985 0.69435
 C1007 C 0.05184 0.89219 0.70522
 C1008 C 0.06182 0.91111 0.71373
 C1009 C 0.95991 0.66187 0.68248
 C1010 C 0.95056 0.64230 0.69116
 C1011 C 0.93918 0.61926 0.70048
 C1012 C 0.92887 0.59968 0.70788
 C1013 C 0.46092 0.16175 0.18199
 C1014 C 0.45156 0.14218 0.19066
 C1015 C 0.44015 0.11914 0.19995
 C1016 C 0.42982 0.09957 0.20732
 C1017 C 0.31648 0.45683 -0.15025
 C1018 C 0.30591 0.44859 -0.13093
 C1019 C 0.29421 0.43830 -0.10824
 C1020 C 0.28461 0.42887 -0.08896
 C1021 C 0.81601 0.95774 0.34895
 C1022 C 0.80550 0.94964 0.36836
 C1023 C 0.79387 0.93951 0.39117
 C1024 C 0.78434 0.93018 0.41053
 C1025 C 0.81719 0.03405 1.16074
 C1026 C 0.80755 0.04293 1.14137
 C1027 C 0.79690 0.05361 1.11850
 C1028 C 0.78817 0.06316 1.09901
 C1029 C 0.31679 0.53449 0.66089
 C1030 C 0.30715 0.54343 0.64156
 C1031 C 0.29648 0.55420 0.61875
 C1032 C 0.28772 0.56383 0.59931
 C1033 C 0.18337 0.53376 0.35100
 C1034 C 0.19349 0.54180 0.37007
 C1035 C 0.20429 0.55229 0.39246
 C1036 C 0.21274 0.56230 0.41140
 C1037 C 0.68341 0.03344 0.85051
 C1038 C 0.69365 0.04141 0.86956
 C1039 C 0.70459 0.05180 0.89193
 C1040 C 0.71315 0.06174 0.91086
 C1041 C 0.68252 0.96074 0.66232
 C1042 C 0.69107 0.95140 0.64270
 C1043 C 0.70024 0.94001 0.61961
 C1044 C 0.70751 0.92972 0.59999
 C1045 C 0.18205 0.45985 0.16206
 C1046 C 0.19070 0.45039 0.14254
 C1047 C 0.19998 0.43888 0.11956
 C1048 C 0.20735 0.42848 0.10003
 C1049 C -0.15032 0.31666 0.45723
 C1050 C -0.13099 0.30605 0.44915
 C1051 C -0.10829 0.29429 0.43904
 C1052 C -0.08901 0.28463 0.42973
 C1053 C 0.34947 0.81720 0.95689
 C1054 C 0.36881 0.80660 0.94885
 C1055 C 0.39154 0.79485 0.93878
 C1056 C 0.41084 0.78519 0.92951
 C1057 C 1.16061 0.81753 0.03372
 C1058 C 1.14128 0.80782 0.04258
 C1059 C 1.11848 0.79707 0.05324
 C1060 C 1.09905 0.78823 0.06279
 C1061 C 0.66075 0.31706 0.53388
 C1062 C 0.64142 0.30737 0.54274
 C1063 C 0.61862 0.29665 0.55342
 C1064 C 0.59919 0.28783 0.56299
 C1065 C 0.35095 0.18293 0.53361
 C1066 C 0.37001 0.19312 0.54158
 C1067 C 0.39239 0.20400 0.55197
 C1068 C 0.41134 0.21252 0.56190
 C1069 C 0.85069 0.68298 0.03377
 C1070 C 0.86979 0.69318 0.04163
 C1071 C 0.89221 0.70409 0.05191
 C1072 C 0.91119 0.71265 0.06176
 C1073 C 0.66164 0.68153 0.96072
 C1074 C 0.64211 0.69025 0.95135
 C1075 C 0.61912 0.69963 0.93992
 C1076 C 0.59959 0.70708 0.92957
 C1077 C 0.16200 0.18126 0.46011
 C1078 C 0.14245 0.18995 0.45075
 C1079 C 0.11943 0.19930 0.43935
 C1080 C 0.09986 0.20673 0.42905
 C1081 C 0.56486 0.09633 0.72100
 C1082 C 0.55485 0.11519 0.71125
 C1083 C 0.54420 0.13725 0.69882
 C1084 C 0.53594 0.15599 0.68735
 C1085 C 1.06448 0.59621 0.22027
 C1086 C 1.05453 0.61513 0.21059
 C1087 C 1.04394 0.63727 0.19825
 C1088 C 1.03573 0.65607 0.18685
 C1089 C 0.94039 0.90325 0.21672
 C1090 C 0.95106 0.88487 0.20703
 C1091 C 0.96210 0.86310 0.19479
 C1092 C 0.97025 0.84436 0.18360
 C1093 C 0.44077 0.40294 0.71728
 C1094 C 0.45139 0.38458 0.70750
 C1095 C 0.46237 0.36284 0.69517
 C1096 C 0.47049 0.34412 0.68393
 C1097 C 0.43701 0.59042 0.78353
 C1098 C 0.44760 0.60958 0.79064
 C1099 C 0.45918 0.63183 0.80046
 C1100 C 0.46837 0.65056 0.81014
 C1101 C -0.06337 0.09067 0.28267
 C1102 C -0.05270 0.10975 0.28988
 C1103 C -0.04103 0.13189 0.29983
 C1104 C -0.03178 0.15054 0.30962
 C1105 C 0.06160 0.40453 0.28465
 C1106 C 0.05188 0.38441 0.29126
 C1107 C 0.04195 0.36069 0.30045
 C1108 C 0.03475 0.34040 0.30955
 C1109 C 0.56233 0.90467 0.78494
 C1110 C 0.55255 0.88456 0.79148
 C1111 C 0.54251 0.86086 0.80060
 C1112 C 0.53522 0.84058 0.80965
 C1113 C 0.72064 0.56530 0.09511
 C1114 C 0.71095 0.55526 0.11401
 C1115 C 0.69861 0.54459 0.13614
 C1116 C 0.68721 0.53634 0.15494
 C1117 C 0.22051 1.06379 0.59652
 C1118 C 0.21083 1.05387 0.61548
 C1119 C 0.19850 1.04334 0.63768
 C1120 C 0.18711 1.03519 0.65653
 C1121 C 0.21772 0.94002 0.90397
 C1122 C 0.20794 0.95075 0.88562
 C1123 C 0.19560 0.96184 0.86387
 C1124 C 0.18433 0.97001 0.84515
 C1125 C 0.71748 0.44116 0.40244
 C1126 C 0.70773 0.45181 0.38404
 C1127 C 0.69542 0.46282 0.36224
 C1128 C 0.68418 0.47095 0.34348
 C1129 C 0.78335 0.43717 0.59036
 C1130 C 0.79044 0.44773 0.60956
 C1131 C 0.80025 0.45926 0.63186
 C1132 C 0.80991 0.46840 0.65064
 C1133 C 0.28344 -0.06227 0.08987
 C1134 C 0.29063 -0.05176 0.10906
 C1135 C 0.30055 -0.04031 0.13135
 C1136 C 0.31032 -0.03125 0.15012
 C1137 C 0.28487 0.06095 0.40461
 C1138 C 0.29152 0.05125 0.38450
 C1139 C 0.30078 0.04134 0.36079
 C1140 C 0.30994 0.03417 0.34052
 C1141 C 0.78408 0.56094 0.90522
 C1142 C 0.79068 0.55124 0.88509
 C1143 C 0.79988 0.54134 0.86135
 C1144 C 0.80901 0.53419 0.84107
 C1145 C 0.09583 0.72082 0.56464
 C1146 C 0.11474 0.71120 0.55463
 C1147 C 0.13687 0.69892 0.54399
 C1148 C 0.15567 0.68757 0.53575
 C1149 C 0.59667 0.22040 1.06393
 C1150 C 0.61556 0.21073 1.05394
 C1151 C 0.63768 0.19841 1.04333
 C1152 C 0.65647 0.18702 1.03511
 C1153 C 0.90376 0.21706 0.93987
 C1154 C 0.88539 0.20731 0.95057
 C1155 C 0.86362 0.19502 0.96163
 C1156 C 0.84488 0.18381 0.96980
 C1157 C 0.40290 0.71794 0.44016
 C1158 C 0.38452 0.70822 0.45084
 C1159 C 0.36275 0.69596 0.46191
 C1160 C 0.34401 0.68475 0.47010
 C1161 C 0.59039 0.78385 0.43653
 C1162 C 0.60948 0.79098 0.44726
 C1163 C 0.63165 0.80083 0.45898
 C1164 C 0.65032 0.81053 0.46829
 C1165 C 0.08962 0.28262 -0.06192
 C1166 C 0.10884 0.28972 -0.05140
 C1167 C 0.13116 0.29954 -0.03993
 C1168 C 0.14996 0.30921 -0.03086
 C1169 C 0.40472 0.28395 0.06157
 C1170 C 0.38454 0.29047 0.05192
 C1171 C 0.36076 0.29956 0.04204
 C1172 C 0.34044 0.30860 0.03488
 C1173 C 0.90424 0.78490 0.56194
 C1174 C 0.88418 0.79156 0.55215
 C1175 C 0.86052 0.80081 0.54213
 C1176 C 0.84029 0.80996 0.53486
   
