data_POSCAR
  _audit_creation_date              2014-09-24
  _audit_creation_method            'ToBaCCo'
  _symmetry_space_group_name_H-M    'P1'
  _symmetry_Int_Tables_number       1
  _symmetry_cell_setting            triclinic
  loop_
  _symmetry_equiv_pos_as_xyz
 x,y,z
_cell_length_a 32.6508
_cell_length_b 33.8207
_cell_length_c 8.7212
_cell_angle_alpha 89.604100
_cell_angle_beta 89.999800
_cell_angle_gamma 89.904400
loop_
  _atom_site_label
  _atom_site_type_symbol
  _atom_site_fract_x
  _atom_site_fract_y
  _atom_site_fract_z
O1 O 0.28111 0.28762 0.40995
 O2 O 0.20392 0.21070 0.33717
 O3 O 0.28170 0.21086 0.40872
 O4 O 0.20346 0.28744 0.33802
 O5 O 0.21928 0.28817 0.09146
 O6 O 0.29749 0.21159 0.16218
 O7 O 0.21972 0.21140 0.09060
 O8 O 0.29693 0.28833 0.16339
 Cu9 Cu 0.24090 0.24906 0.39814
 Cu10 Cu 0.26001 0.24993 0.10223
 C11 C 0.30231 0.30072 0.29883
 C12 C 0.19848 0.19836 0.20170
 C13 C 0.30312 0.19859 0.29733
 C14 C 0.19792 0.30050 0.20290
 O15 O 0.79634 0.28713 0.33793
 O16 O 0.71849 0.21044 0.40876
 O17 O 0.79628 0.21039 0.33725
 O18 O 0.71870 0.28720 0.40991
 O19 O 0.70288 0.28785 0.16335
 O20 O 0.78049 0.21104 0.09068
 O21 O 0.70270 0.21112 0.16221
 O22 O 0.78051 0.28781 0.09138
 Cu23 Cu 0.75911 0.24869 0.39814
 Cu24 Cu 0.73999 0.24950 0.10223
 C25 C 0.80180 0.30019 0.20279
 C26 C 0.69713 0.19813 0.29739
 C27 C 0.80180 0.19805 0.20179
 C28 C 0.69745 0.30025 0.29877
 O29 O 0.78140 0.78762 0.90949
 O30 O 0.70368 0.71113 0.83750
 O31 O 0.78140 0.71085 0.90929
 O32 O 0.70369 0.78787 0.83773
 O33 O 0.71951 0.78834 0.59117
 O34 O 0.79721 0.71132 0.66275
 O35 O 0.71950 0.71156 0.59094
 O36 O 0.79721 0.78805 0.66293
 Cu37 Cu 0.74088 0.74932 0.89818
 Cu38 Cu 0.76001 0.74986 0.60227
 C39 C 0.80270 0.80048 0.79825
 C40 C 0.69819 0.69870 0.70217
 C41 C 0.80272 0.69835 0.79803
 C42 C 0.69821 0.80085 0.70246
 O43 O 0.29632 0.78882 0.83784
 O44 O 0.21860 0.71205 0.90914
 O45 O 0.29631 0.71208 0.83739
 O46 O 0.21860 0.78881 0.90962
 O47 O 0.20279 0.78935 0.66309
 O48 O 0.28049 0.71262 0.59083
 O49 O 0.20279 0.71262 0.66258
 O50 O 0.28051 0.78939 0.59129
 Cu51 Cu 0.25911 0.75038 0.89817
 Cu52 Cu 0.23999 0.75106 0.60226
 C53 C 0.30182 0.80179 0.70261
 C54 C 0.19730 0.69964 0.79781
 C55 C 0.30179 0.69965 0.70202
 C56 C 0.19728 0.80177 0.79846
 C57 C 1.03772 0.08023 0.08209
 C58 C 1.00042 0.09978 0.10218
 C59 C 0.96320 0.08020 0.08219
 C60 C 0.96288 0.03987 0.04095
 C61 C 1.00058 0.01966 0.02019
 C62 C 1.03820 0.03990 0.04083
 C63 C 1.07520 0.01931 0.01967
 C64 C 1.07528 -0.02044 -0.02102
 C65 C 1.03837 -0.04106 -0.04204
 C66 C 1.00066 -0.02085 -0.02128
 C67 C 0.92596 0.01925 0.01994
 C68 C 0.92604 -0.02050 -0.02073
 C69 C 0.96304 -0.04109 -0.04189
 C70 C 0.96353 -0.08141 -0.08311
 C71 C 1.00082 -0.10097 -0.10323
 C72 C 1.03804 -0.08139 -0.08328
 H73 H 1.10446 0.03381 0.03444
 H74 H 1.10460 -0.03492 -0.03590
 H75 H 0.89664 0.03372 0.03481
 H76 H 0.89678 -0.03500 -0.03549
 H77 H 1.00035 0.13077 0.13385
 H78 H 1.00088 -0.13196 -0.13487
 C79 C 0.53714 0.58090 0.58319
 C80 C 0.49990 0.60056 0.60313
 C81 C 0.46263 0.58107 0.58314
 C82 C 0.46220 0.54074 0.54204
 C83 C 0.49985 0.52043 0.52143
 C84 C 0.53752 0.54057 0.54207
 C85 C 0.57447 0.51988 0.52106
 C86 C 0.57444 0.48012 0.48049
 C87 C 0.53747 0.45959 0.45947
 C88 C 0.49982 0.47991 0.48009
 C89 C 0.42522 0.52021 0.52101
 C90 C 0.42520 0.48045 0.48047
 C91 C 0.46214 0.45976 0.45947
 C92 C 0.46253 0.41943 0.41838
 C93 C 0.49977 0.39978 0.39840
 C94 C 0.53704 0.41927 0.41835
 H95 H 0.60377 0.53430 0.53584
 H96 H 0.60372 0.46556 0.46571
 H97 H 0.39594 0.53477 0.53577
 H98 H 0.39590 0.46602 0.46569
 H99 H 0.49992 0.63156 0.63469
 H100 H 0.49975 0.36878 0.36685
 C101 C -0.03771 0.41909 0.08430
 C102 C -0.00042 0.39949 0.10468
 C103 C 0.03679 0.41912 0.08440
 C104 C 0.03712 0.45955 0.04258
 C105 C -0.00058 0.47981 0.02153
 C106 C -0.03820 0.45952 0.04246
 C107 C -0.07520 0.48016 0.02098
 C108 C -0.07528 0.52002 -0.02033
 C109 C -0.03837 0.54069 -0.04168
 C110 C -0.00066 0.52043 -0.02059
 C111 C 0.07404 0.48022 0.02124
 C112 C 0.07396 0.52008 -0.02004
 C113 C 0.03696 0.54072 -0.04152
 C114 C 0.03647 0.58114 -0.08338
 C115 C -0.00082 0.60075 -0.10380
 C116 C -0.03804 0.58112 -0.08354
 H117 H -0.10446 0.46562 0.03598
 H118 H -0.10460 0.53453 -0.03544
 H119 H 0.10336 0.46570 0.03634
 H120 H 0.10322 0.53461 -0.03504
 H121 H -0.00035 0.36841 0.13673
 H122 H -0.00088 0.63183 -0.13590
 C123 C 0.53747 1.08180 0.41485
 C124 C 0.50023 1.10150 0.39442
 C125 C 0.46296 1.08196 0.41483
 C126 C 0.46253 1.04154 0.45685
 C127 C 0.50018 1.02118 0.47793
 C128 C 0.53785 1.04138 0.45685
 C129 C 0.57480 1.02064 0.47833
 C130 C 0.57477 0.98079 0.51976
 C131 C 0.53780 0.96022 0.54126
 C132 C 0.50015 0.98058 0.52020
 C133 C 0.42556 1.02097 0.47836
 C134 C 0.42553 0.98112 0.51982
 C135 C 0.46248 0.96039 0.54130
 C136 C 0.46286 0.91997 0.58330
 C137 C 0.50010 0.90027 0.60368
 C138 C 0.53737 0.91980 0.58324
 H139 H 0.60410 1.03509 0.46323
 H140 H 0.60405 0.96620 0.53486
 H141 H 0.39628 1.03555 0.46326
 H142 H 0.39623 0.96667 0.53493
 H143 H 0.50024 1.13256 0.36222
 H144 H 0.50008 0.86920 0.63586
 C145 C 1.16662 0.17019 0.17323
 C146 C 1.13868 0.14774 0.15051
 C147 C 1.10472 0.12285 0.12531
 C148 C 1.07475 0.10278 0.10499
 C149 C 0.66622 0.67063 0.67399
 C150 C 0.63823 0.64823 0.65142
 C151 C 0.60423 0.62339 0.62633
 C152 C 0.57423 0.60338 0.60605
 C153 C -0.16633 0.32848 0.17502
 C154 C -0.13846 0.35110 0.15263
 C155 C -0.10461 0.37621 0.12759
 C156 C -0.07471 0.39643 0.10727
 C157 C 0.33378 0.82997 0.67461
 C158 C 0.36177 0.85245 0.65207
 C159 C 0.39577 0.87737 0.62689
 C160 C 0.42577 0.89744 0.60645
 C161 C -0.16702 0.67162 -0.17533
 C162 C -0.13909 0.64898 -0.15261
 C163 C -0.10514 0.62391 -0.12727
 C164 C -0.07514 0.60374 -0.10674
 C165 C 0.33361 1.17208 0.32369
 C166 C 0.36172 1.14963 0.34617
 C167 C 0.39582 1.12473 0.37127
 C168 C 0.42588 1.10462 0.39167
 C169 C 1.16702 -0.17160 -0.17474
 C170 C 1.13909 -0.14905 -0.15197
 C171 C 1.10514 -0.12405 -0.12668
 C172 C 1.07515 -0.10394 -0.10626
 C173 C 0.66565 0.32858 0.32714
 C174 C 0.63780 0.35123 0.34986
 C175 C 0.60397 0.37636 0.37511
 C176 C 0.57407 0.39660 0.39548
 C177 C 0.83464 -0.17142 -0.17361
 C178 C 0.86260 -0.14897 -0.15110
 C179 C 0.89654 -0.12407 -0.12609
 C180 C 0.92650 -0.10398 -0.10589
 C181 C 0.33400 0.32905 0.32725
 C182 C 0.36178 0.35168 0.34999
 C183 C 0.39558 0.37676 0.37523
 C184 C 0.42548 0.39691 0.39556
 C185 C 0.16536 0.67143 -0.17423
 C186 C 0.13740 0.64891 -0.15176
 C187 C 0.10345 0.62392 -0.12670
 C188 C 0.07350 0.60378 -0.10637
 C189 C 0.66674 1.17161 0.32380
 C190 C 0.63869 1.14918 0.34629
 C191 C 0.60462 1.12434 0.37138
 C192 C 0.57457 1.10432 0.39175
 C193 C 0.16589 0.32872 0.17516
 C194 C 0.13789 0.35128 0.15279
 C195 C 0.10390 0.37632 0.12777
 C196 C 0.07390 0.39649 0.10743
 C197 C 0.66628 0.82916 0.67441
 C198 C 0.63833 0.85178 0.65187
 C199 C 0.60438 0.87687 0.62671
 C200 C 0.57442 0.89709 0.60632
 C201 C 0.83383 0.16995 0.17336
 C202 C 0.86190 0.14756 0.15066
 C203 C 0.89599 0.12274 0.12549
 C204 C 0.92607 0.10272 0.10515
 C205 C 0.33371 0.67144 0.67379
 C206 C 0.36167 0.64890 0.65122
 C207 C 0.39561 0.62389 0.62616
 C208 C 0.42558 0.60372 0.60592
   
