data_POSCAR
  _audit_creation_date              2014-09-24
  _audit_creation_method            'ToBaCCo'
  _symmetry_space_group_name_H-M    'P1'
  _symmetry_Int_Tables_number       1
  _symmetry_cell_setting            triclinic
  loop_
  _symmetry_equiv_pos_as_xyz
 x,y,z
_cell_length_a 32.3413
_cell_length_b 23.5773
_cell_length_c 13.8816
_cell_angle_alpha 90.623800
_cell_angle_beta 89.658600
_cell_angle_gamma 90.271500
loop_
  _atom_site_label
  _atom_site_type_symbol
  _atom_site_fract_x
  _atom_site_fract_y
  _atom_site_fract_z
C1 C 0.65175 0.28941 0.46134
 C2 C 0.66950 0.28472 0.55350
 C3 C 0.70742 0.25595 0.56141
 C4 C 0.72694 0.23023 0.48074
 C5 C 0.70770 0.23529 0.39013
 C6 C 0.67099 0.26563 0.37976
 C7 C 0.76746 0.19941 0.49048
 C8 C 0.79353 0.19045 0.40922
 C9 C 0.83028 0.15924 0.41575
 C10 C 0.84157 0.13853 0.50601
 C11 C 0.81857 0.15057 0.58911
 C12 C 0.78066 0.17852 0.58065
 H13 H 0.62412 0.31374 0.45017
 H14 H 0.72208 0.25519 0.63112
 H15 H 0.72073 0.21582 0.32614
 H16 H 0.78590 0.20797 0.34003
 H17 H 0.86720 0.10979 0.51273
 H18 H 0.76184 0.18310 0.64476
 C19 C 0.22143 0.93039 0.51318
 C20 C 0.23173 0.90091 0.59735
 C21 C 0.25362 0.84981 0.58791
 C22 C 0.26328 0.82602 0.49664
 C23 C 0.25022 0.85504 0.41391
 C24 C 0.22972 0.90728 0.42185
 C25 C 0.28686 0.77136 0.48816
 C26 C 0.31051 0.75844 0.40486
 C27 C 0.33390 0.70869 0.39855
 C28 C 0.33499 0.67222 0.47766
 C29 C 0.31316 0.68488 0.56328
 C30 C 0.28722 0.73246 0.56498
 H31 H 0.20365 0.96908 0.51696
 H32 H 0.26345 0.82931 0.65310
 H33 H 0.25553 0.83716 0.34301
 H34 H 0.31182 0.78723 0.34484
 H35 H 0.35155 0.63271 0.47012
 H36 H 0.26837 0.73977 0.62843
 C37 C 0.29720 0.37784 -0.48398
 C38 C 0.27202 0.38137 -0.56552
 C39 C 0.23092 0.36279 -0.56048
 C40 C 0.21529 0.33671 -0.47670
 C41 C 0.24133 0.33341 -0.39545
 C42 C 0.28192 0.35471 -0.39792
 C43 C 0.17260 0.31150 -0.47563
 C44 C 0.15039 0.30487 -0.38855
 C45 C 0.11206 0.27636 -0.38596
 C46 C 0.09388 0.26014 -0.47421
 C47 C 0.11606 0.26369 -0.56099
 C48 C 0.15506 0.28970 -0.56128
 H49 H 0.32806 0.39574 -0.48696
 H50 H 0.21153 0.36805 -0.62299
 H51 H 0.23069 0.31354 -0.32994
 H52 H 0.16339 0.32018 -0.32148
 H53 H 0.06324 0.24228 -0.47691
 H54 H 0.17247 0.29011 -0.62810
 C55 C -0.14533 0.79880 -0.51712
 C56 C -0.16263 0.77615 -0.60257
 C57 C -0.20018 0.74568 -0.59619
 C58 C -0.22119 0.73955 -0.50727
 C59 C -0.20493 0.76769 -0.42577
 C60 C -0.16673 0.79522 -0.42924
 C61 C -0.25982 0.70439 -0.49753
 C62 C -0.27073 0.68147 -0.40716
 C63 C -0.30856 0.65405 -0.39358
 C64 C -0.33433 0.64400 -0.47245
 C65 C -0.32213 0.65998 -0.56561
 C66 C -0.28596 0.69274 -0.57679
 H67 H -0.11718 0.82373 -0.51902
 H68 H -0.21225 0.72591 -0.66087
 H69 H -0.22170 0.76834 -0.35812
 H70 H -0.25034 0.68536 -0.34594
 H71 H -0.36341 0.62235 -0.46034
 H72 H -0.27840 0.70835 -0.64768
 O73 O 0.00248 0.88451 0.10907
 O74 O 0.07687 0.93274 -0.13197
 O75 O -0.05532 0.92323 -0.09013
 O76 O 0.10576 0.99556 0.09240
 O77 O 0.00232 0.90191 -0.16718
 O78 O 0.07314 0.91667 0.09983
 O79 O 0.10764 1.00838 -0.07999
 O80 O -0.05661 0.92153 0.09167
 C81 C -0.03531 0.88050 0.11796
 C82 C 0.10931 0.96054 -0.12119
 C83 C -0.03517 0.89310 -0.15020
 C84 C 0.10625 0.94292 0.10475
 O85 O 0.05258 1.01070 0.20369
 O86 O -0.01706 1.00805 -0.19844
 O87 O -0.05311 1.03334 0.09749
 O88 O 0.05153 1.09389 -0.06310
 O89 O 0.05494 1.03757 -0.18374
 O90 O -0.01902 0.98331 0.20080
 O91 O 0.04751 1.07955 0.10730
 O92 O -0.06068 1.03405 -0.08485
 Co93 Co 0.02672 0.95187 0.14080
 Co94 Co 0.02889 0.97127 -0.15388
 Co95 Co -0.04897 0.97878 0.00402
 Co96 Co 0.07331 1.03932 0.01345
 O97 O 0.01943 0.98564 0.00052
 C98 C 0.04979 1.06275 0.19101
 C99 C -0.04800 1.03612 -0.16992
 C100 C -0.04219 1.02463 0.18190
 C101 C 0.04952 1.08647 -0.15135
 O102 O 0.43935 0.40549 0.09308
 O103 O 0.53317 0.47718 -0.20038
 O104 O 0.42120 0.43435 -0.07572
 O105 O 0.56818 0.40744 0.07675
 O106 O 0.45862 0.46332 -0.19413
 O107 O 0.50729 0.37573 0.10227
 O108 O 0.56407 0.41896 -0.10331
 O109 O 0.39826 0.47231 0.08797
 C110 C 0.40528 0.42423 0.11781
 C111 C 0.55466 0.43351 -0.18678
 C112 C 0.43145 0.43045 -0.16218
 C113 C 0.54498 0.36872 0.10566
 O114 O 0.53039 0.47266 0.19706
 O115 O 0.45096 0.56570 -0.10479
 O116 O 0.44005 0.56186 0.06806
 O117 O 0.57789 0.52808 -0.08062
 O118 O 0.52356 0.57745 -0.10508
 O119 O 0.45954 0.50724 0.18565
 O120 O 0.57352 0.51633 0.09987
 O121 O 0.39103 0.53312 -0.06985
 Co122 Co 0.48462 0.44325 0.13371
 Co123 Co 0.49179 0.51759 -0.13939
 Co124 Co 0.43328 0.49821 -0.00677
 Co125 Co 0.56366 0.46872 -0.00211
 O126 O 0.49573 0.47902 -0.00044
 C127 C 0.56021 0.50674 0.18320
 C128 C 0.41348 0.56274 -0.12855
 C129 C 0.44708 0.55491 0.15618
 C130 C 0.56163 0.57357 -0.10603
 C131 C 0.28849 0.40552 0.34420
 C132 C 0.32511 0.38909 0.30900
 C133 C 0.34438 0.41593 0.22451
 C134 C 0.37874 0.39373 0.18625
 H135 H 0.34195 0.35595 0.34535
 H136 H 0.33234 0.45570 0.19835
 H137 H 0.27000 0.43583 0.30541
 H138 H 0.39018 0.35373 0.21297
 C139 C -0.14559 0.78761 0.30565
 C140 C -0.10636 0.80435 0.29097
 C141 C -0.09285 0.83117 0.20038
 C142 C -0.05252 0.83570 0.17989
 H143 H -0.08386 0.80161 0.34817
 H144 H -0.11539 0.85378 0.15812
 H145 H -0.16559 0.78376 0.24343
 H146 H -0.03063 0.81144 0.22143
 C147 C 0.65413 0.64157 0.34787
 C148 C 0.62900 0.59610 0.34805
 C149 C 0.60806 0.57508 0.26073
 C150 C 0.58035 0.53292 0.26735
 H151 H 0.62473 0.57166 0.41282
 H152 H 0.61571 0.59324 0.19142
 H153 H 0.65943 0.66368 0.28083
 H154 H 0.57214 0.51648 0.33762
 C155 C 0.10071 1.23564 0.34967
 C156 C 0.07803 1.18794 0.35238
 C157 C 0.06802 1.15487 0.26496
 C158 C 0.05363 1.10187 0.27336
 H159 H 0.06951 1.16979 0.42108
 H160 H 0.07533 1.17191 0.19463
 H161 H 0.11176 1.25098 0.28078
 H162 H 0.04850 1.08443 0.34443
 C163 C 0.65182 0.30918 -0.36225
 C164 C 0.61635 0.33862 -0.35901
 C165 C 0.60116 0.36521 -0.26892
 C166 C 0.56988 0.40203 -0.27171
 H167 H 0.59806 0.34520 -0.42258
 H168 H 0.61644 0.35652 -0.20140
 H169 H 0.66834 0.30445 -0.29502
 H170 H 0.55605 0.41197 -0.34045
 C171 C 0.21699 0.91748 -0.31069
 C172 C 0.20096 0.96867 -0.29016
 C173 C 0.17443 0.98023 -0.20540
 C174 C 0.14672 0.94221 -0.17347
 H175 H 0.20547 1.00382 -0.33849
 H176 H 0.17154 1.02426 -0.18335
 H177 H 0.21703 0.88612 -0.25408
 H178 H 0.14699 0.89928 -0.20213
 C179 C 0.31776 0.65308 -0.35172
 C180 C 0.35047 0.61980 -0.33594
 C181 C 0.35916 0.59500 -0.24130
 C182 C 0.39861 0.59142 -0.21475
 H183 H 0.37479 0.61592 -0.38937
 H184 H 0.33432 0.58036 -0.19500
 H185 H 0.29664 0.66078 -0.29203
 H186 H 0.42217 0.60985 -0.26081
 C187 C -0.16602 1.13039 -0.31680
 C188 C -0.12519 1.12773 -0.30116
 C189 C -0.10682 1.09359 -0.22491
 C190 C -0.06870 1.07293 -0.23882
 H191 H -0.10402 1.14658 -0.35273
 H192 H -0.12486 1.08249 -0.16177
 H193 H -0.18776 1.11393 -0.26428
 H194 H -0.05234 1.08175 -0.30550
 C195 C 0.67953 0.63276 -0.29787
 C196 C 0.64203 0.64329 -0.26147
 C197 C 0.62496 0.61005 -0.18149
 C198 C 0.58584 0.61819 -0.15344
 H199 H 0.62188 0.67250 -0.29842
 H200 H 0.64203 0.57368 -0.15626
 H201 H 0.70080 0.60552 -0.26022
 H202 H 0.56901 0.65434 -0.18041
 C203 C 0.09658 1.25805 -0.29582
 C204 C 0.06363 1.22375 -0.28526
 C205 C 0.06033 1.18520 -0.20290
 C206 C 0.04484 1.13330 -0.21868
 H207 H 0.04250 1.21556 -0.34361
 H208 H 0.07576 1.19538 -0.13573
 H209 H 0.11574 1.26547 -0.23296
 H210 H 0.03295 1.12233 -0.28944
 C211 C 0.30632 0.35767 -0.30764
 C212 C 0.34772 0.35839 -0.30690
 C213 C 0.37085 0.37786 -0.22123
 C214 C 0.41092 0.39120 -0.22971
 H215 H 0.36477 0.35027 -0.37301
 H216 H 0.35399 0.38949 -0.15625
 H217 H 0.28956 0.36344 -0.24039
 H218 H 0.42676 0.38249 -0.29731
 C219 C -0.15108 0.82345 -0.34113
 C220 C -0.11163 0.81964 -0.31458
 C221 C -0.09565 0.85228 -0.23159
 C222 C -0.05572 0.84917 -0.20867
 H223 H -0.09045 0.79399 -0.35723
 H224 H -0.11537 0.88337 -0.19636
 H225 H -0.17281 0.84653 -0.29586
 H226 H -0.03608 0.81937 -0.24732
 C227 C 0.35542 0.69332 0.30728
 C228 C 0.39133 0.66532 0.30683
 C229 C 0.40743 0.63635 0.21976
 C230 C 0.43802 0.59890 0.22885
 H231 H 0.40720 0.65882 0.37439
 H232 H 0.39095 0.63961 0.15226
 H233 H 0.34026 0.70236 0.23978
 H234 H 0.45245 0.59398 0.29860
 C235 C -0.14673 1.14594 0.33174
 C236 C -0.10865 1.12342 0.33356
 C237 C -0.08991 1.09599 0.24879
 C238 C -0.05898 1.05928 0.26098
 H239 H -0.09123 1.12145 0.39960
 H240 H -0.10345 1.10193 0.17838
 H241 H -0.16115 1.15217 0.26232
 H242 H -0.04698 1.05199 0.33257
 C243 C 0.65599 0.27908 0.28205
 C244 C 0.61577 0.28300 0.26155
 C245 C 0.60174 0.31483 0.17710
 C246 C 0.56138 0.32031 0.15940
 H247 H 0.59293 0.26865 0.31346
 H248 H 0.62406 0.34058 0.13840
 H249 H 0.67881 0.29084 0.22822
 H250 H 0.53932 0.29416 0.19809
 C251 C 0.21380 0.93754 0.33695
 C252 C 0.19793 0.91063 0.26026
 C253 C 0.17133 0.94156 0.19319
 C254 C 0.14269 0.91371 0.14218
 H255 H 0.19922 0.86480 0.25478
 H256 H 0.17063 0.98752 0.19728
 H257 H 0.20925 0.98296 0.34420
 H258 H 0.14194 0.86773 0.14312
   
