data_POSCAR
  _audit_creation_date              2014-09-24
  _audit_creation_method            'ToBaCCo'
  _symmetry_space_group_name_H-M    'P1'
  _symmetry_Int_Tables_number       1
  _symmetry_cell_setting            triclinic
  loop_
  _symmetry_equiv_pos_as_xyz
 x,y,z
_cell_length_a 52.8151
_cell_length_b 52.8467
_cell_length_c 53.0848
_cell_angle_alpha 90.060500
_cell_angle_beta 90.096100
_cell_angle_gamma 90.017400
loop_
  _atom_site_label
  _atom_site_type_symbol
  _atom_site_fract_x
  _atom_site_fract_y
  _atom_site_fract_z
N1 N 0.28502 0.23623 0.21307
 N2 N 0.27310 0.25565 0.20305
 C3 C 0.28520 0.26266 0.18183
 C4 C 0.30562 0.24677 0.17857
 C5 C 0.30508 0.23026 0.19863
 H6 H 0.27967 0.27813 0.16967
 H7 H 0.31822 0.21501 0.20236
 Cu8 Cu 0.24299 0.26967 0.21887
 Cu9 Cu 0.27347 0.21989 0.24384
 Cu10 Cu 0.22006 0.24496 0.27250
 N11 N 0.21321 0.28380 0.23518
 N12 N 0.20442 0.27414 0.25627
 C13 C 0.18388 0.28734 0.26356
 C14 C 0.17968 0.30614 0.24605
 C15 C 0.19852 0.30348 0.22832
 H16 H 0.17279 0.28354 0.28024
 H17 H 0.20127 0.31506 0.21175
 N18 N 0.23855 0.21547 0.28596
 N19 N 0.25890 0.20595 0.27502
 C20 C 0.26696 0.18584 0.28841
 C21 C 0.25093 0.18269 0.30858
 C22 C 0.23315 0.20165 0.30659
 H23 H 0.28315 0.17422 0.28379
 H24 H 0.21741 0.20497 0.31916
 H25 H 0.23563 0.22952 0.24026
 H26 H 0.25606 0.25144 0.25896
 N27 N 0.71470 -0.23574 0.21190
 N28 N 0.72651 -0.25521 0.20185
 C29 C 0.71425 -0.26227 0.18067
 C30 C 0.69388 -0.24630 0.17749
 C31 C 0.69456 -0.22973 0.19752
 H32 H 0.71966 -0.27781 0.16854
 H33 H 0.68147 -0.21446 0.20131
 Cu34 Cu 0.75677 -0.26921 0.21747
 Cu35 Cu 0.72633 -0.21953 0.24276
 Cu36 Cu 0.77988 -0.24460 0.27124
 N37 N 0.78659 -0.28338 0.23378
 N38 N 0.79553 -0.27367 0.25483
 C39 C 0.81614 -0.28683 0.26204
 C40 C 0.82019 -0.30566 0.24453
 C41 C 0.80121 -0.30310 0.22686
 H42 H 0.82733 -0.28298 0.27870
 H43 H 0.79830 -0.31473 0.21033
 N44 N 0.76136 -0.21522 0.28490
 N45 N 0.74096 -0.20570 0.27404
 C46 C 0.73289 -0.18568 0.28756
 C47 C 0.74897 -0.18258 0.30776
 C48 C 0.76679 -0.20150 0.30564
 H49 H 0.71665 -0.17407 0.28303
 H50 H 0.78259 -0.20484 0.31819
 H51 H 0.76411 -0.22915 0.23914
 H52 H 0.74379 -0.25120 0.25771
 N53 N 0.71595 0.23616 0.78729
 N54 N 0.72740 0.25621 0.79662
 C55 C 0.71546 0.26341 0.81788
 C56 C 0.69562 0.24695 0.82190
 C57 C 0.69635 0.22995 0.80224
 H58 H 0.72066 0.27940 0.82954
 H59 H 0.68354 0.21430 0.79904
 Cu60 Cu 0.75665 0.27090 0.77985
 Cu61 Cu 0.72729 0.21952 0.75660
 Cu62 Cu 0.77941 0.24537 0.72645
 N63 N 0.78587 0.28528 0.76276
 N64 N 0.79460 0.27525 0.74179
 C65 C 0.81476 0.28871 0.73392
 C66 C 0.81873 0.30805 0.75091
 C67 C 0.80021 0.30546 0.76897
 H68 H 0.82571 0.28471 0.71718
 H69 H 0.79748 0.31735 0.78536
 N70 N 0.76143 0.21515 0.71389
 N71 N 0.74156 0.20533 0.72539
 C72 C 0.73370 0.18480 0.71248
 C73 C 0.74938 0.18169 0.69203
 C74 C 0.76673 0.20112 0.69336
 H75 H 0.71786 0.17291 0.71759
 H76 H 0.78209 0.20464 0.68038
 H77 H 0.76481 0.23052 0.75928
 H78 H 0.74347 0.25125 0.74043
 N79 N 0.28415 -0.23693 0.78629
 N80 N 0.27341 -0.25761 0.79499
 C81 C 0.28555 -0.26488 0.81614
 C82 C 0.30474 -0.24780 0.82075
 C83 C 0.30344 -0.23034 0.80155
 H84 H 0.28088 -0.28132 0.82732
 H85 H 0.31567 -0.21415 0.79886
 Cu86 Cu 0.24458 -0.27297 0.77792
 Cu87 Cu 0.27243 -0.22011 0.75587
 Cu88 Cu 0.22027 -0.24596 0.72571
 N89 N 0.21471 -0.28662 0.76117
 N90 N 0.20530 -0.27600 0.74080
 C91 C 0.18465 -0.28900 0.73331
 C92 C 0.18109 -0.30869 0.74994
 C93 C 0.20035 -0.30676 0.76739
 H94 H 0.17308 -0.28442 0.71712
 H95 H 0.20354 -0.31899 0.78341
 N96 N 0.23802 -0.21561 0.71333
 N97 N 0.25788 -0.20575 0.72488
 C98 C 0.26561 -0.18513 0.71209
 C99 C 0.24984 -0.18200 0.69166
 C100 C 0.23258 -0.20151 0.69287
 H101 H 0.28145 -0.17323 0.71723
 H102 H 0.21722 -0.20507 0.67985
 H103 H 0.23523 -0.23201 0.75897
 H104 H 0.25665 -0.25168 0.73895
 N105 N 0.71352 -0.23857 0.78553
 N106 N 0.72373 -0.25988 0.79333
 C107 C 0.71074 -0.26839 0.81344
 C108 C 0.69149 -0.25151 0.81832
 C109 C 0.69367 -0.23282 0.80038
 H110 H 0.71498 -0.28546 0.82385
 H111 H 0.68180 -0.21627 0.79836
 Cu112 Cu 0.75325 -0.27430 0.77685
 Cu113 Cu 0.72682 -0.21980 0.75693
 Cu114 Cu 0.78027 -0.24407 0.72794
 N115 N 0.78386 -0.28696 0.76089
 N116 N 0.79431 -0.27508 0.74177
 C117 C 0.81527 -0.28765 0.73457
 C118 C 0.81794 -0.30835 0.75007
 C119 C 0.79785 -0.30750 0.76656
 H120 H 0.82766 -0.28208 0.71935
 H121 H 0.79385 -0.32074 0.78157
 N122 N 0.76339 -0.21289 0.71664
 N123 N 0.74304 -0.20356 0.72770
 C124 C 0.73602 -0.18223 0.71564
 C125 C 0.75281 -0.17812 0.69624
 C126 C 0.76986 -0.19778 0.69727
 H127 H 0.71987 -0.17064 0.72046
 H128 H 0.78568 -0.20086 0.68473
 H129 H 0.74319 -0.25030 0.73886
 H130 H 0.76371 -0.23221 0.76125
 N131 N 0.28692 0.23926 0.78491
 N132 N 0.27612 0.25997 0.79350
 C133 C 0.28909 0.26831 0.81375
 C134 C 0.30896 0.25194 0.81789
 C135 C 0.30716 0.23374 0.79937
 H136 H 0.28439 0.28486 0.82479
 H137 H 0.31953 0.21765 0.79671
 Cu138 Cu 0.24577 0.27350 0.77772
 Cu139 Cu 0.27370 0.22072 0.75597
 Cu140 Cu 0.21986 0.24503 0.72731
 N141 N 0.21574 0.28711 0.76139
 N142 N 0.20568 0.27583 0.74166
 C143 C 0.18493 0.28870 0.73434
 C144 C 0.18196 0.30898 0.75039
 C145 C 0.20169 0.30753 0.76733
 H146 H 0.17284 0.28362 0.71867
 H147 H 0.20533 0.32027 0.78288
 N148 N 0.23695 0.21406 0.71558
 N149 N 0.25744 0.20475 0.72649
 C150 C 0.26446 0.18354 0.71422
 C151 C 0.24755 0.17947 0.69485
 C152 C 0.23041 0.19903 0.69612
 H153 H 0.28065 0.17194 0.71893
 H154 H 0.21442 0.20206 0.68373
 H155 H 0.25671 0.25141 0.73889
 H156 H 0.23647 0.23189 0.76009
 N157 N 0.28691 -0.23892 0.21532
 N158 N 0.27613 -0.25996 0.20749
 C159 C 0.28866 -0.26861 0.18713
 C160 C 0.30820 -0.25209 0.18213
 C161 C 0.30667 -0.23349 0.20026
 H162 H 0.28393 -0.28552 0.17665
 H163 H 0.31893 -0.21721 0.20226
 Cu164 Cu 0.24660 -0.27390 0.22438
 Cu165 Cu 0.27438 -0.21996 0.24418
 Cu166 Cu 0.22093 -0.24338 0.27384
 N167 N 0.21608 -0.28615 0.24082
 N168 N 0.20618 -0.27418 0.26018
 C169 C 0.18518 -0.28644 0.26773
 C170 C 0.18184 -0.30708 0.25223
 C171 C 0.20164 -0.30647 0.23536
 H172 H 0.17317 -0.28073 0.28320
 H173 H 0.20512 -0.31973 0.22023
 N174 N 0.23847 -0.21247 0.28494
 N175 N 0.25884 -0.20348 0.27365
 C176 C 0.26626 -0.18217 0.28555
 C177 C 0.24971 -0.17772 0.30509
 C178 C 0.23239 -0.19715 0.30429
 H179 H 0.28247 -0.17077 0.28047
 H180 H 0.21658 -0.19989 0.31693
 H181 H 0.25771 -0.25021 0.26230
 H182 H 0.23721 -0.23166 0.24033
 N183 N 0.71432 0.23801 0.21559
 N184 N 0.72539 0.25876 0.20745
 C185 C 0.71265 0.26752 0.18724
 C186 C 0.69270 0.25135 0.18263
 C187 C 0.69419 0.23286 0.20085
 H188 H 0.71755 0.28423 0.17658
 H189 H 0.68168 0.21682 0.20310
 Cu190 Cu 0.75562 0.27193 0.22381
 Cu191 Cu 0.72705 0.21898 0.24438
 Cu192 Cu 0.78053 0.24267 0.27424
 N193 N 0.78539 0.28520 0.24093
 N194 N 0.79503 0.27364 0.26068
 C195 C 0.81559 0.28642 0.26869
 C196 C 0.81888 0.30695 0.25310
 C197 C 0.79953 0.30576 0.23570
 H198 H 0.82734 0.28110 0.28453
 H199 H 0.79617 0.31878 0.22035
 N200 N 0.76318 0.21159 0.28515
 N201 N 0.74283 0.20250 0.27380
 C202 C 0.73553 0.18116 0.28565
 C203 C 0.75211 0.17679 0.30522
 C204 C 0.76935 0.19630 0.30449
 H205 H 0.71934 0.16971 0.28055
 H206 H 0.78512 0.19914 0.31720
 H207 H 0.74388 0.24946 0.26214
 H208 H 0.76438 0.23006 0.24100
 C209 C 0.25268 0.01331 0.50058
 C210 C 0.25285 -0.01242 0.49996
 C211 C 0.25300 -0.02675 0.47589
 C212 C 0.25281 -0.02790 0.52328
 C213 C 0.25232 0.02768 0.52461
 C214 C 0.25284 0.02881 0.47726
 C215 C 0.23342 -0.02404 0.45813
 C216 C 0.23318 -0.03896 0.43632
 C217 C 0.25242 -0.05674 0.43219
 C218 C 0.27202 -0.05933 0.44975
 C219 C 0.27227 -0.04449 0.47151
 C220 C 0.23375 -0.04610 0.52669
 C221 C 0.23409 -0.06197 0.54768
 C222 C 0.25357 -0.05998 0.56545
 C223 C 0.27262 -0.04179 0.56230
 C224 C 0.27228 -0.02583 0.54125
 C225 C 0.27127 0.04574 0.52921
 C226 C 0.27042 0.06083 0.55078
 C227 C 0.25054 0.05815 0.56796
 C228 C 0.23163 0.04004 0.56363
 C229 C 0.23247 0.02487 0.54200
 C230 C 0.27262 0.02698 0.45967
 C231 C 0.27319 0.04306 0.43872
 C232 C 0.25407 0.06112 0.43528
 C233 C 0.23426 0.06284 0.45267
 C234 C 0.23368 0.04685 0.47356
 H235 H 0.21814 -0.01080 0.46141
 H236 H 0.21781 -0.03696 0.42293
 H237 H 0.28690 -0.07313 0.44682
 H238 H 0.28740 -0.04697 0.48508
 H239 H 0.21868 -0.04810 0.51295
 H240 H 0.21933 -0.07604 0.54987
 H241 H 0.28741 -0.01223 0.53872
 H242 H 0.28659 0.04829 0.51590
 H243 H 0.28503 0.07489 0.55387
 H244 H 0.21604 0.03796 0.57671
 H245 H 0.21743 0.01138 0.53852
 H246 H 0.28781 0.01351 0.46246
 H247 H 0.28868 0.04168 0.42545
 H248 H 0.21945 0.07682 0.45024
 H249 H 0.21839 0.04864 0.48702
 H250 H 0.28787 -0.04020 0.57587
 C251 C 0.74774 -0.01382 0.50077
 C252 C 0.74766 0.01190 0.50010
 C253 C 0.74749 0.02748 0.52340
 C254 C 0.74768 0.02615 0.47602
 C255 C 0.74747 -0.02940 0.47746
 C256 C 0.74803 -0.02806 0.52485
 C257 C 0.72787 0.02542 0.54115
 C258 C 0.72729 0.04149 0.56214
 C259 C 0.74623 0.05978 0.56546
 C260 C 0.76587 0.06175 0.54791
 C261 C 0.76646 0.04576 0.52698
 C262 C 0.72851 0.04397 0.47147
 C263 C 0.72894 0.05877 0.44971
 C264 C 0.74862 0.05604 0.43231
 C265 C 0.76774 0.03817 0.43660
 C266 C 0.76732 0.02330 0.45841
 C267 C 0.76651 -0.04755 0.47377
 C268 C 0.76590 -0.06347 0.45278
 C269 C 0.74616 -0.06155 0.43527
 C270 C 0.72712 -0.04342 0.43873
 C271 C 0.72772 -0.02743 0.45978
 C272 C 0.76777 -0.02506 0.54241
 C273 C 0.76841 -0.03988 0.56425
 C274 C 0.74941 -0.05786 0.56862
 C275 C 0.72964 -0.06074 0.55127
 C276 C 0.72899 -0.04599 0.52949
 H277 H 0.71282 0.01176 0.53848
 H278 H 0.71192 0.03991 0.57553
 H279 H 0.78056 0.07588 0.55024
 H280 H 0.78164 0.04774 0.51343
 H281 H 0.71332 0.04656 0.48491
 H282 H 0.71413 0.07262 0.44666
 H283 H 0.78253 0.00999 0.46182
 H284 H 0.78179 -0.04948 0.48728
 H285 H 0.78066 -0.07749 0.45036
 H286 H 0.71165 -0.04190 0.42539
 H287 H 0.71259 -0.01388 0.46254
 H288 H 0.78287 -0.01165 0.53893
 H289 H 0.78390 -0.03765 0.57746
 H290 H 0.71492 -0.07467 0.55439
 H291 H 0.71373 -0.04868 0.51610
 H292 H 0.78317 0.03607 0.42334
 C293 C 0.50101 0.25271 -0.01244
 C294 C 0.50055 0.25282 0.01317
 C295 C 0.47646 0.25248 0.02756
 C296 C 0.52410 0.25320 0.02847
 C297 C 0.52510 0.25247 -0.02681
 C298 C 0.47746 0.25287 -0.02774
 C299 C 0.47190 0.27146 0.04551
 C300 C 0.45022 0.27066 0.06048
 C301 C 0.43288 0.25081 0.05780
 C302 C 0.43716 0.23188 0.03980
 C303 C 0.45891 0.23266 0.02476
 C304 C 0.54180 0.27294 0.02625
 C305 C 0.56307 0.27369 0.04202
 C306 C 0.56671 0.25480 0.06017
 C307 C 0.54922 0.23503 0.06228
 C308 C 0.52802 0.23426 0.04659
 C309 C 0.54279 0.23280 -0.02394
 C310 C 0.56452 0.23209 -0.03899
 C311 C 0.56866 0.25094 -0.05707
 C312 C 0.55121 0.27068 -0.05978
 C313 C 0.52954 0.27140 -0.04480
 C314 C 0.47367 0.23384 -0.04583
 C315 C 0.45250 0.23445 -0.06159
 C316 C 0.43495 0.25416 -0.05957
 C317 C 0.43846 0.27314 -0.04144
 C318 C 0.45968 0.27254 -0.02561
 H319 H 0.48530 0.28677 0.04808
 H320 H 0.44719 0.28533 0.07443
 H321 H 0.42396 0.21632 0.03773
 H322 H 0.46233 0.21759 0.01137
 H323 H 0.53888 0.28796 0.01269
 H324 H 0.57641 0.28917 0.04033
 H325 H 0.51451 0.21898 0.04868
 H326 H 0.53947 0.21778 -0.01048
 H327 H 0.57782 0.21663 -0.03685
 H328 H 0.55415 0.28530 -0.07377
 H329 H 0.51605 0.28661 -0.04739
 H330 H 0.48725 0.21862 -0.04787
 H331 H 0.45003 0.21974 -0.07562
 H332 H 0.42507 0.28857 -0.03985
 H333 H 0.46252 0.28764 -0.01209
 H334 H 0.55179 0.22037 0.07631
 C335 C 0.49969 0.74687 0.01274
 C336 C 0.49933 0.74691 -0.01287
 C337 C 0.52295 0.74680 -0.02799
 C338 C 0.47530 0.74713 -0.02742
 C339 C 0.47608 0.74647 0.02788
 C340 C 0.52371 0.74727 0.02730
 C341 C 0.52678 0.76586 -0.04599
 C342 C 0.54804 0.76533 -0.06156
 C343 C 0.56565 0.74568 -0.05944
 C344 C 0.56209 0.72667 -0.04140
 C345 C 0.54078 0.72719 -0.02575
 C346 C 0.45757 0.76676 -0.02461
 C347 C 0.43585 0.76741 -0.03975
 C348 C 0.43176 0.74853 -0.05786
 C349 C 0.44928 0.72886 -0.06056
 C350 C 0.47095 0.72820 -0.04550
 C351 C 0.45843 0.72669 0.02553
 C352 C 0.43715 0.72589 0.04121
 C353 C 0.43345 0.74477 0.05939
 C354 C 0.45089 0.76458 0.06162
 C355 C 0.47210 0.76539 0.04602
 C356 C 0.52822 0.72832 0.04528
 C357 C 0.54986 0.72916 0.06038
 C358 C 0.56719 0.74902 0.05781
 C359 C 0.56294 0.76792 0.03981
 C360 C 0.54125 0.76710 0.02463
 H361 H 0.51317 0.78104 -0.04810
 H362 H 0.55054 0.78007 -0.07552
 H363 H 0.57553 0.71128 -0.03972
 H364 H 0.53793 0.71208 -0.01229
 H365 H 0.46084 0.78179 -0.01111
 H366 H 0.42251 0.78283 -0.03764
 H367 H 0.48448 0.71302 -0.04806
 H368 H 0.46141 0.71167 0.01196
 H369 H 0.42385 0.71037 0.03944
 H370 H 0.44827 0.77922 0.07568
 H371 H 0.48558 0.78070 0.04822
 H372 H 0.51482 0.71300 0.04773
 H373 H 0.55287 0.71451 0.07434
 H374 H 0.57613 0.78349 0.03782
 H375 H 0.53786 0.78215 0.01122
 H376 H 0.44639 0.71424 -0.07460
 C377 C 0.01231 0.50072 0.25097
 C378 C -0.01344 0.50084 0.25104
 C379 C -0.02841 0.47709 0.25165
 C380 C -0.02830 0.52470 0.25060
 C381 C 0.02729 0.52447 0.25124
 C382 C 0.02717 0.47685 0.25071
 C383 C -0.04668 0.47271 0.23291
 C384 C -0.06210 0.45130 0.23394
 C385 C -0.05955 0.43409 0.25379
 C386 C -0.04125 0.43820 0.27249
 C387 C -0.02576 0.45967 0.27147
 C388 C -0.02573 0.54224 0.23086
 C389 C -0.04124 0.56370 0.22994
 C390 C -0.05950 0.56773 0.24864
 C391 C -0.06194 0.55044 0.26843
 C392 C -0.04649 0.52903 0.26937
 C393 C 0.02491 0.54211 0.27092
 C394 C 0.04053 0.56349 0.27169
 C395 C 0.05869 0.56731 0.25285
 C396 C 0.06093 0.54991 0.23311
 C397 C 0.04539 0.52857 0.23234
 C398 C 0.04555 0.47280 0.26941
 C399 C 0.06098 0.45137 0.26864
 C400 C 0.05833 0.43378 0.24909
 C401 C 0.03989 0.43755 0.23045
 C402 C 0.02440 0.45904 0.23121
 H403 H -0.04912 0.48601 0.21758
 H404 H -0.07628 0.44835 0.21945
 H405 H -0.03926 0.42508 0.28803
 H406 H -0.01210 0.46297 0.28635
 H407 H -0.01214 0.53901 0.21595
 H408 H -0.03930 0.57688 0.21445
 H409 H -0.04886 0.51565 0.28463
 H410 H 0.01138 0.53901 0.28592
 H411 H 0.03878 0.57676 0.28716
 H412 H 0.07500 0.55260 0.21852
 H413 H 0.04762 0.51509 0.21712
 H414 H 0.04810 0.48639 0.28449
 H415 H 0.07524 0.44873 0.28310
 H416 H 0.03780 0.42414 0.21513
 H417 H 0.01067 0.46207 0.21635
 H418 H -0.07605 0.55331 0.28295
 C419 C 0.01174 0.50049 0.75008
 C420 C -0.01372 0.50041 0.74730
 C421 C -0.02832 0.47656 0.74733
 C422 C -0.02851 0.52414 0.74646
 C423 C 0.02644 0.52429 0.75005
 C424 C 0.02645 0.47673 0.75078
 C425 C -0.03601 0.46539 0.72459
 C426 C -0.05172 0.44409 0.72478
 C427 C -0.05984 0.43381 0.74771
 C428 C -0.05170 0.44459 0.77045
 C429 C -0.03601 0.46591 0.77026
 C430 C -0.04218 0.53054 0.72470
 C431 C -0.05790 0.55179 0.72457
 C432 C -0.06015 0.56676 0.74623
 C433 C -0.04623 0.56070 0.76787
 C434 C -0.03048 0.53944 0.76800
 C435 C 0.03582 0.53435 0.77268
 C436 C 0.05163 0.55556 0.77237
 C437 C 0.05824 0.56684 0.74943
 C438 C 0.04843 0.55719 0.72683
 C439 C 0.03257 0.53599 0.72715
 C440 C 0.03850 0.46910 0.77309
 C441 C 0.05428 0.44788 0.77314
 C442 C 0.05815 0.43416 0.75090
 C443 C 0.04570 0.44137 0.72872
 C444 C 0.02992 0.46260 0.72865
 H445 H -0.03021 0.47342 0.70675
 H446 H -0.05793 0.43593 0.70709
 H447 H -0.05792 0.43685 0.78829
 H448 H -0.03031 0.47445 0.78795
 H449 H -0.04091 0.51894 0.70793
 H450 H -0.06866 0.55627 0.70776
 H451 H -0.02036 0.53453 0.78507
 H452 H 0.03117 0.52559 0.79051
 H453 H 0.05911 0.56285 0.78995
 H454 H 0.05347 0.56569 0.70897
 H455 H 0.02556 0.52830 0.70955
 H456 H 0.03597 0.47975 0.79033
 H457 H 0.06388 0.44250 0.79038
 H458 H 0.04866 0.43095 0.71139
 H459 H 0.02095 0.46843 0.71124
 H460 H -0.04799 0.57205 0.78478
 C461 C 0.32385 0.24725 0.15851
 C462 C 0.33940 0.24754 0.14193
 C463 C 0.35804 0.24787 0.12289
 C464 C 0.37436 0.24819 0.10706
 C465 C 0.39405 0.24872 0.08911
 C466 C 0.41142 0.24947 0.07443
 C467 C 0.67646 0.75315 0.15861
 C468 C 0.66079 0.75276 0.14208
 C469 C 0.64205 0.75233 0.12310
 C470 C 0.62567 0.75191 0.10727
 C471 C 0.60596 0.75124 0.08930
 C472 C 0.58860 0.75041 0.07456
 C473 C 0.67750 0.24758 -0.15797
 C474 C 0.66196 0.24790 -0.14136
 C475 C 0.64335 0.24818 -0.12230
 C476 C 0.62704 0.24846 -0.10645
 C477 C 0.60738 0.24895 -0.08850
 C478 C 0.59005 0.24964 -0.07377
 C479 C 0.32284 0.75169 -0.15903
 C480 C 0.33835 0.75141 -0.14235
 C481 C 0.35695 0.75116 -0.12323
 C482 C 0.37327 0.75089 -0.10734
 C483 C 0.39296 0.75041 -0.08933
 C484 C 0.41033 0.74975 -0.07458
 C485 C 0.15983 0.32474 0.24622
 C486 C 0.14336 0.34054 0.24630
 C487 C 0.12435 0.35934 0.24642
 C488 C 0.10846 0.37570 0.24662
 C489 C 0.09030 0.39532 0.24709
 C490 C 0.07536 0.41254 0.24779
 C491 C 0.16230 0.67370 0.74942
 C492 C 0.14572 0.65800 0.74908
 C493 C 0.12647 0.63943 0.74883
 C494 C 0.11027 0.62335 0.74875
 C495 C 0.09164 0.60416 0.74882
 C496 C 0.07614 0.58740 0.74902
 C497 C -0.16108 0.67668 0.24472
 C498 C -0.14463 0.66086 0.24488
 C499 C -0.12564 0.64205 0.24516
 C500 C -0.10973 0.62570 0.24554
 C501 C -0.09157 0.60611 0.24624
 C502 C -0.07659 0.58891 0.24714
 C503 C -0.16277 0.32594 0.75013
 C504 C -0.14642 0.34186 0.74952
 C505 C -0.12741 0.36066 0.74892
 C506 C -0.11138 0.37690 0.74853
 C507 C -0.09293 0.39623 0.74815
 C508 C -0.07757 0.41312 0.74791
 C509 C 0.25223 0.16330 0.32749
 C510 C 0.25325 0.14703 0.34337
 C511 C 0.25427 0.12808 0.36208
 C512 C 0.25487 0.11212 0.37826
 C513 C 0.25517 0.09378 0.39759
 C514 C 0.25496 0.07857 0.41450
 C515 C 0.74803 0.16211 0.67329
 C516 C 0.74699 0.14575 0.65748
 C517 C 0.74596 0.12675 0.63879
 C518 C 0.74536 0.11076 0.62259
 C519 C 0.74508 0.09242 0.60324
 C520 C 0.74530 0.07721 0.58629
 C521 C 0.25111 -0.16237 0.67301
 C522 C 0.25214 -0.14595 0.65729
 C523 C 0.25321 -0.12689 0.63871
 C524 C 0.25390 -0.11087 0.62258
 C525 C 0.25433 -0.09252 0.60327
 C526 C 0.25427 -0.07734 0.58632
 C527 C 0.74775 -0.16324 0.32677
 C528 C 0.74679 -0.14701 0.34272
 C529 C 0.74586 -0.12812 0.36154
 C530 C 0.74530 -0.11222 0.37783
 C531 C 0.74503 -0.09399 0.39730
 C532 C 0.74525 -0.07888 0.41434
 C533 C 0.67310 0.74706 -0.16184
 C534 C 0.65755 0.74601 -0.14528
 C535 C 0.63910 0.74505 -0.12611
 C536 C 0.62301 0.74454 -0.11004
 C537 C 0.60369 0.74438 -0.09172
 C538 C 0.58667 0.74469 -0.07663
 C539 C 0.32746 0.25329 -0.16230
 C540 C 0.34306 0.25424 -0.14574
 C541 C 0.36155 0.25508 -0.12653
 C542 C 0.37765 0.25550 -0.11043
 C543 C 0.39698 0.25558 -0.09205
 C544 C 0.41399 0.25521 -0.07689
 C545 C 0.32636 0.74621 0.16209
 C546 C 0.34177 0.74499 0.14542
 C547 C 0.36011 0.74389 0.12614
 C548 C 0.37613 0.74331 0.11002
 C549 C 0.39543 0.74316 0.09166
 C550 C 0.41243 0.74356 0.07656
 C551 C 0.67435 0.25314 0.16271
 C552 C 0.65881 0.25440 0.14611
 C553 C 0.64033 0.25552 0.12690
 C554 C 0.62421 0.25611 0.11082
 C555 C 0.60482 0.25630 0.09249
 C556 C 0.58776 0.25594 0.07739
 C557 C -0.16333 0.67405 0.74936
 C558 C -0.14680 0.65835 0.74875
 C559 C -0.12766 0.63977 0.74809
 C560 C -0.11157 0.62363 0.74758
 C561 C -0.09312 0.60435 0.74703
 C562 C -0.07781 0.58747 0.74663
 C563 C -0.16133 0.32554 0.25438
 C564 C -0.14482 0.34125 0.25524
 C565 C -0.12571 0.35989 0.25592
 C566 C -0.10972 0.37615 0.25615
 C567 C -0.09152 0.39568 0.25594
 C568 C -0.07656 0.41288 0.25526
 C569 C 0.16210 0.32752 0.74996
 C570 C 0.14550 0.34315 0.74979
 C571 C 0.12623 0.36163 0.74981
 C572 C 0.11002 0.37766 0.74995
 C573 C 0.09144 0.39683 0.75024
 C574 C 0.07599 0.41359 0.75053
 C575 C 0.16176 0.67465 0.25326
 C576 C 0.14501 0.65918 0.25399
 C577 C 0.12565 0.64080 0.25460
 C578 C 0.10946 0.62475 0.25484
 C579 C 0.09105 0.60541 0.25470
 C580 C 0.07590 0.58837 0.25413
 C581 C 0.75231 -0.15798 0.67809
 C582 C 0.75206 -0.14141 0.66251
 C583 C 0.75185 -0.12243 0.64382
 C584 C 0.75163 -0.10668 0.62742
 C585 C 0.75122 -0.08887 0.60763
 C586 C 0.75060 -0.07431 0.59017
 C587 C 0.25046 -0.15738 0.32302
 C588 C 0.25079 -0.14065 0.33847
 C589 C 0.25097 -0.12155 0.35706
 C590 C 0.25107 -0.10573 0.37342
 C591 C 0.25126 -0.08787 0.39319
 C592 C 0.25161 -0.07327 0.41065
 C593 C 0.75137 0.15653 0.32321
 C594 C 0.75099 0.13987 0.33869
 C595 C 0.75071 0.12082 0.35730
 C596 C 0.75050 0.10503 0.37365
 C597 C 0.75014 0.08717 0.39339
 C598 C 0.74963 0.07256 0.41081
 C599 C 0.24786 0.15928 0.67671
 C600 C 0.24795 0.14263 0.66119
 C601 C 0.24800 0.12352 0.64259
 C602 C 0.24813 0.10765 0.62628
 C603 C 0.24852 0.08964 0.60662
 C604 C 0.24920 0.07488 0.58931
   
