data_POSCAR
  _audit_creation_date              2014-09-24
  _audit_creation_method            'ToBaCCo'
  _symmetry_space_group_name_H-M    'P1'
  _symmetry_Int_Tables_number       1
  _symmetry_cell_setting            triclinic
  loop_
  _symmetry_equiv_pos_as_xyz
 x,y,z
_cell_length_a 42.2781
_cell_length_b 41.6647
_cell_length_c 16.3210
_cell_angle_alpha 89.881700
_cell_angle_beta 89.957900
_cell_angle_gamma 120.495000
loop_
  _atom_site_label
  _atom_site_type_symbol
  _atom_site_fract_x
  _atom_site_fract_y
  _atom_site_fract_z
C1 C 0.28520 0.44429 0.56825
 C2 C 0.29685 0.44030 0.49016
 C3 C 0.28189 0.44450 0.41819
 C4 C 0.25202 0.45033 0.42185
 C5 C 0.23807 0.45307 0.49919
 C6 C 0.25435 0.44965 0.57321
 C7 C 0.24147 0.45541 0.64807
 C8 C 0.21431 0.46485 0.65094
 C9 C 0.19841 0.46908 0.57920
 C10 C 0.21022 0.46287 0.50204
 C11 C 0.23752 0.45589 0.34981
 C12 C 0.21054 0.46537 0.35248
 C13 C 0.19624 0.46902 0.42745
 C14 C 0.17132 0.48240 0.43045
 C15 C 0.16263 0.49091 0.50721
 C16 C 0.17414 0.48327 0.58157
 H17 H 0.25287 0.45433 0.70612
 H18 H 0.20766 0.47094 0.71061
 H19 H 0.24786 0.45419 0.29024
 H20 H 0.20302 0.47198 0.29451
 H21 H 0.31998 0.43592 0.48419
 H22 H 0.14319 0.50057 0.50956
 C23 C 0.54596 -0.29599 0.42004
 C24 C 0.54092 -0.31524 0.49319
 C25 C 0.54594 -0.29862 0.57053
 C26 C 0.55640 -0.26029 0.57409
 C27 C 0.56136 -0.24019 0.49944
 C28 C 0.55656 -0.25805 0.42233
 C29 C 0.56022 -0.23824 0.34985
 C30 C 0.56708 -0.20192 0.35232
 C31 C 0.57052 -0.18404 0.42735
 C32 C 0.56831 -0.20301 0.50172
 C33 C 0.55848 -0.24239 0.64877
 C34 C 0.56505 -0.20613 0.65070
 C35 C 0.56950 -0.18618 0.57820
 C36 C 0.57255 -0.15082 0.57978
 C37 C 0.57549 -0.13237 0.50616
 C38 C 0.57355 -0.14870 0.43027
 H39 H 0.55664 -0.25104 0.29038
 H40 H 0.56871 -0.18832 0.29464
 H41 H 0.55334 -0.25645 0.70695
 H42 H 0.56559 -0.19415 0.70986
 H43 H 0.53349 -0.34425 0.48897
 H44 H 0.57593 -0.10609 0.50789
 C45 C 1.15034 0.72612 0.57394
 C46 C 1.13316 0.71466 0.49700
 C47 C 1.15303 0.72586 0.42387
 C48 C 1.19084 0.75226 0.42535
 C49 C 1.20865 0.76690 0.50122
 C50 C 1.18827 0.75445 0.57568
 C51 C 1.20649 0.77104 0.64915
 C52 C 1.24426 0.79483 0.65144
 C53 C 1.26559 0.80561 0.57948
 C54 C 1.24733 0.79232 0.50286
 C55 C 1.21146 0.76309 0.35277
 C56 C 1.24909 0.78759 0.35412
 C57 C 1.26777 0.80296 0.42805
 C58 C 1.30660 0.82590 0.43030
 C59 C 1.32387 0.83459 0.50707
 C60 C 1.30463 0.82690 0.58154
 H61 H 1.19194 0.76602 0.70645
 H62 H 1.25613 0.80337 0.71144
 H63 H 1.19869 0.75206 0.29403
 H64 H 1.26336 0.79255 0.29648
 H65 H 1.10458 0.69283 0.49306
 H66 H 1.35351 0.85182 0.50873
 C67 C 0.69600 0.53634 0.57753
 C68 C 0.67934 0.53461 0.50205
 C69 C 0.69632 0.53758 0.42721
 C70 C 0.73194 0.54286 0.42592
 C71 C 0.74986 0.54460 0.50120
 C72 C 0.73219 0.54203 0.57755
 C73 C 0.74959 0.54115 0.65020
 C74 C 0.78301 0.54212 0.64870
 C75 C 0.80088 0.54411 0.57446
 C76 C 0.78405 0.54559 0.49966
 C77 C 0.74896 0.54389 0.35141
 C78 C 0.78219 0.54488 0.34989
 C79 C 0.79967 0.54482 0.42282
 C80 C 0.83111 0.54151 0.42089
 C81 C 0.84698 0.53974 0.49398
 C82 C 0.83283 0.54073 0.57121
 H83 H 0.73689 0.53783 0.70936
 H84 H 0.79340 0.53931 0.70690
 H85 H 0.73613 0.54258 0.29324
 H86 H 0.79339 0.54434 0.29063
 H87 H 0.65193 0.53077 0.50095
 H88 H 0.87152 0.53767 0.48977
 C89 C 0.43873 0.27882 0.42310
 C90 C 0.44059 0.29646 0.49666
 C91 C 0.43887 0.28046 0.57356
 C92 C 0.43414 0.24407 0.57618
 C93 C 0.43228 0.22560 0.50095
 C94 C 0.43417 0.24295 0.42435
 C95 C 0.43383 0.22511 0.35123
 C96 C 0.43314 0.19143 0.35248
 C97 C 0.43279 0.17435 0.42691
 C98 C 0.43172 0.19116 0.50201
 C99 C 0.43502 0.22713 0.65028
 C100 C 0.43459 0.19350 0.65108
 C101 C 0.43350 0.17536 0.57795
 C102 C 0.43667 0.14317 0.57810
 C103 C 0.43695 0.12679 0.50377
 C104 C 0.43593 0.14219 0.42854
 H105 H 0.43519 0.23758 0.29215
 H106 H 0.43390 0.17943 0.29433
 H107 H 0.43763 0.24015 0.70881
 H108 H 0.43624 0.18237 0.70985
 H109 H 0.44380 0.32400 0.49324
 H110 H 0.44060 0.10280 0.50438
 C111 C 0.71175 0.17145 0.42150
 C112 C 0.69283 0.15746 0.49489
 C113 C 0.70926 0.16974 0.57208
 C114 C 0.74688 0.19863 0.57502
 C115 C 0.76653 0.21369 0.50005
 C116 C 0.74897 0.19962 0.42326
 C117 C 0.76835 0.21559 0.35035
 C118 C 0.80397 0.24571 0.35200
 C119 C 0.82154 0.26112 0.42659
 C120 C 0.80303 0.24467 0.50149
 C121 C 0.76449 0.21544 0.64922
 C122 C 0.80010 0.24597 0.65033
 C123 C 0.81966 0.26127 0.57743
 C124 C 0.85442 0.29430 0.57777
 C125 C 0.87234 0.30953 0.50351
 C126 C 0.85618 0.29410 0.42824
 H127 H 0.75577 0.20578 0.29103
 H128 H 0.81729 0.25744 0.29398
 H129 H 0.75063 0.20668 0.70747
 H130 H 0.81186 0.25819 0.70909
 H131 H 0.66443 0.13511 0.49093
 H132 H 0.89813 0.33588 0.50408
 N133 N 0.95655 0.54208 0.08563
 N134 N 0.93019 0.54908 0.10488
 N135 N 1.03483 0.56513 0.14496
 N136 N 1.05847 0.58403 0.20314
 N137 N 1.03314 0.58769 0.09118
 N138 N 1.05532 0.62287 0.11268
 N139 N 0.95789 0.51933 0.13939
 N140 N 0.93216 0.50957 0.19528
 C141 C 0.91482 0.52786 0.17266
 C142 C 1.07128 0.61988 0.18223
 N143 N 1.04546 0.47904 0.09248
 N144 N 1.07169 0.47240 0.11544
 N145 N 0.96526 0.45493 0.14063
 N146 N 0.94170 0.43529 0.19859
 N147 N 0.96884 0.43310 0.08817
 N148 N 0.94810 0.39773 0.11074
 N149 N 1.04208 0.50066 0.14588
 N150 N 1.06606 0.50979 0.20536
 Mn151 Mn 0.99999 0.51001 0.14297
 C152 C 1.08460 0.49243 0.18548
 C153 C 0.93082 0.39977 0.17908
 N154 N 1.03571 0.58906 -0.08685
 N155 N 1.05568 0.62454 -0.10843
 N156 N 0.96216 0.52161 -0.14574
 N157 N 0.93821 0.51268 -0.20516
 N158 N 0.95887 0.54322 -0.09212
 N159 N 0.93253 0.54981 -0.11462
 N160 N 1.03882 0.56776 -0.14171
 N161 N 1.06088 0.58813 -0.20158
 Mn162 Mn 0.99604 0.56592 -0.00055
 C163 C 1.07196 0.62343 -0.17902
 C164 C 0.91960 0.52993 -0.18488
 N165 N 0.97124 0.43448 -0.09051
 N166 N 0.94899 0.39921 -0.11132
 N167 N 1.04642 0.50299 -0.13953
 N168 N 1.07232 0.51318 -0.19506
 N169 N 1.04797 0.48030 -0.08580
 N170 N 1.07483 0.47395 -0.10477
 N171 N 0.96948 0.45688 -0.14470
 N172 N 0.94574 0.43770 -0.20261
 Mn173 Mn 1.00843 0.45628 0.00101
 Mn174 Mn 1.00425 0.51227 -0.14327
 Cl175 Cl 1.00220 0.51114 -0.00003
 C176 C 0.93291 0.40189 -0.18097
 C177 C 1.09012 0.49534 -0.17250
 N178 N 0.45027 0.41317 0.08987
 N179 N 0.44029 0.37845 0.10979
 N180 N 0.43633 0.47679 0.14044
 N181 N 0.41878 0.48447 0.19644
 N182 N 0.41322 0.45302 0.08675
 N183 N 0.37906 0.44330 0.10616
 N184 N 0.47344 0.43656 0.14401
 N185 N 0.48042 0.41864 0.20096
 C186 C 0.45992 0.38256 0.17869
 C187 C 0.38325 0.46382 0.17406
 N188 N 0.52941 0.56850 0.08712
 N189 N 0.54027 0.60345 0.10640
 N190 N 0.54247 0.50519 0.14461
 N191 N 0.55932 0.49774 0.20280
 N192 N 0.56622 0.52844 0.09080
 N193 N 0.60010 0.53799 0.11216
 N194 N 0.50539 0.54550 0.14086
 N195 N 0.49871 0.56401 0.19684
 Mn196 Mn 0.48938 0.49101 0.14304
 C197 C 0.52023 0.59999 0.17425
 C198 C 0.59509 0.51798 0.18156
 N199 N 0.41415 0.45276 -0.09140
 N200 N 0.38025 0.44203 -0.11579
 N201 N 0.47538 0.43613 -0.14111
 N202 N 0.48171 0.41845 -0.19933
 N203 N 0.45128 0.41253 -0.08842
 N204 N 0.44019 0.37774 -0.11074
 N205 N 0.43817 0.47590 -0.14492
 N206 N 0.42154 0.48160 -0.20629
 Mn207 Mn 0.43175 0.43239 -0.00072
 C208 C 0.38562 0.46098 -0.18719
 C209 C 0.46017 0.38223 -0.17964
 N210 N 0.56740 0.52782 -0.08718
 N211 N 0.60144 0.53722 -0.10774
 N212 N 0.50694 0.54431 -0.14401
 N213 N 0.50102 0.56191 -0.20336
 N214 N 0.53037 0.56800 -0.09077
 N215 N 0.54140 0.60271 -0.11358
 N216 N 0.54392 0.50418 -0.14040
 N217 N 0.56094 0.49639 -0.19723
 Mn218 Mn 0.54882 0.54864 0.00003
 Mn219 Mn 0.49111 0.49017 -0.14268
 Cl220 Cl 0.49024 0.49055 0.00002
 C221 C 0.59661 0.51664 -0.17610
 C222 C 0.52217 0.59815 -0.18353
 N223 N 0.43203 -0.04573 0.09465
 N224 N 0.39891 -0.07283 0.11663
 N225 N 0.48943 0.03566 0.14352
 N226 N 0.49363 0.05936 0.20153
 N227 N 0.46435 0.03202 0.09085
 N228 N 0.45033 0.05285 0.11294
 N229 N 0.45667 -0.04240 0.14823
 N230 N 0.44128 -0.06732 0.20695
 C231 C 0.40543 -0.08636 0.18631
 C232 C 0.46957 0.07027 0.18139
 N233 N 0.58439 0.04460 0.08747
 N234 N 0.61806 0.07131 0.10638
 N235 N 0.52775 -0.03484 0.14656
 N236 N 0.52336 -0.05808 0.20596
 N237 N 0.55153 -0.03311 0.09228
 N238 N 0.56453 -0.05484 0.11473
 N239 N 0.56067 0.04323 0.14142
 N240 N 0.57728 0.06930 0.19713
 Mn241 Mn 0.50866 0.00047 0.14527
 C242 C 0.61288 0.08688 0.17415
 C243 C 0.54602 -0.07067 0.18529
 N244 N 0.46322 0.03036 -0.08715
 N245 N 0.45021 0.05222 -0.10812
 N246 N 0.45455 -0.04541 -0.13765
 N247 N 0.43820 -0.07092 -0.19447
 N248 N 0.43064 -0.04734 -0.08352
 N249 N 0.39704 -0.07393 -0.10356
 N250 N 0.48723 0.03269 -0.14152
 N251 N 0.49169 0.05650 -0.19981
 Mn252 Mn 0.44711 -0.00774 0.00371
 C253 C 0.46885 0.06878 -0.17798
 C254 C 0.40253 -0.08880 -0.17224
 N255 N 0.55026 -0.03497 -0.08643
 N256 N 0.56328 -0.05682 -0.10741
 N257 N 0.55850 0.04002 -0.14342
 N258 N 0.57411 0.06449 -0.20282
 N259 N 0.58312 0.04292 -0.09025
 N260 N 0.61642 0.06943 -0.11305
 N261 N 0.52555 -0.03804 -0.13956
 N262 N 0.52053 -0.06241 -0.19665
 Mn263 Mn 0.56776 0.00485 0.00077
 Mn264 Mn 0.50646 -0.00266 -0.14090
 Cl265 Cl 0.50750 -0.00128 0.00219
 C266 C 0.54379 -0.07425 -0.17565
 C267 C 0.61005 0.08297 -0.18293
 N268 N 1.14222 0.51244 0.36611
 C269 C 1.15369 0.48737 0.36158
 N270 N 1.14393 0.46503 0.29423
 N271 N 1.12321 0.46736 0.23531
 C272 C 1.11149 0.49218 0.24169
 N273 N 1.12171 0.51482 0.30770
 N274 N 0.56253 0.68914 0.28530
 C275 C 0.53693 0.68146 0.34442
 N276 N 0.50494 0.64836 0.34192
 N277 N 0.49899 0.62349 0.28422
 C278 C 0.52476 0.63065 0.22639
 N279 N 0.55646 0.66420 0.22694
 N280 N 0.36572 -0.14617 0.36551
 C281 C 0.32947 -0.15733 0.36078
 N282 N 0.31773 -0.14711 0.29316
 N283 N 0.34133 -0.12597 0.23458
 C284 C 0.37762 -0.11427 0.24151
 N285 N 0.38917 -0.12523 0.30742
 N286 N 0.85087 0.50517 0.34238
 C287 C 0.84660 0.53526 0.34554
 N288 N 0.86239 0.56178 0.28623
 N289 N 0.88233 0.55849 0.22687
 C290 C 0.88727 0.52870 0.22543
 N291 N 0.87082 0.50199 0.28361
 N292 N 0.47737 0.33609 0.34732
 C293 C 0.44667 0.30189 0.34849
 N294 N 0.42122 0.29300 0.28855
 N295 N 0.42621 0.31783 0.23048
 C296 C 0.45663 0.35240 0.23109
 N297 N 0.48223 0.36082 0.28990
 N298 N 0.65631 0.15266 0.34161
 C299 C 0.68996 0.15615 0.34577
 N300 N 0.69953 0.13925 0.28765
 N301 N 0.67592 0.11906 0.22863
 C302 C 0.64188 0.11484 0.22636
 N303 N 0.63276 0.13238 0.28326
 N304 N 0.42339 0.11251 -0.28532
 C305 C 0.44691 0.12936 -0.34905
 N306 N 0.47837 0.12821 -0.35200
 N307 N 0.48588 0.11042 -0.29466
 C308 C 0.46227 0.09301 -0.23186
 N309 N 0.43102 0.09471 -0.22742
 N310 N 0.63706 0.50377 -0.36038
 C311 C 0.67344 0.52872 -0.35273
 N312 N 0.68543 0.54841 -0.28157
 N313 N 0.66160 0.54398 -0.22223
 C314 C 0.62509 0.51939 -0.23196
 N315 N 0.61357 0.49908 -0.30144
 N316 N 0.88558 0.31103 -0.28688
 C317 C 0.86958 0.31884 -0.35011
 N318 N 0.87268 0.35282 -0.35340
 N319 N 0.89143 0.37832 -0.29673
 C320 C 0.90797 0.37099 -0.23435
 N321 N 0.90439 0.33669 -0.22966
 N322 N 0.58806 -0.11853 -0.28576
 C323 C 0.56357 -0.13603 -0.34730
 N324 N 0.53202 -0.13508 -0.34788
 N325 N 0.52528 -0.11689 -0.29022
 C326 C 0.54980 -0.09886 -0.22948
 N327 N 0.58123 -0.10029 -0.22755
 N328 N 0.29749 0.43714 -0.28732
 C329 C 0.30888 0.44791 -0.36604
 N330 N 0.34507 0.46228 -0.38297
 N331 N 0.36876 0.46630 -0.32519
 C332 C 0.35754 0.45566 -0.24724
 N333 N 0.32134 0.44078 -0.22889
 N334 N 1.09313 0.68195 -0.36118
 C335 C 1.13021 0.70469 -0.35659
 N336 N 1.14740 0.70192 -0.28870
 N337 N 1.12867 0.67755 -0.22919
 C338 C 1.09181 0.65487 -0.23510
 N339 N 1.07440 0.65753 -0.30206
 N340 N 0.86660 0.51465 -0.37120
 C341 C 0.85061 0.53556 -0.36075
 N342 N 0.85578 0.55350 -0.28785
 N343 N 0.87675 0.55116 -0.22938
 C344 C 0.89302 0.53053 -0.24174
 N345 N 0.88709 0.51206 -0.31321
 N346 N 0.46894 0.34109 -0.36827
 C347 C 0.44572 0.30398 -0.35811
 N348 N 0.42784 0.29189 -0.28489
 N349 N 0.43262 0.31617 -0.22561
 C350 C 0.45578 0.35332 -0.23752
 N351 N 0.47400 0.36505 -0.30947
 N352 N 0.64948 0.13854 -0.36758
 C353 C 0.68613 0.15240 -0.35923
 N354 N 0.69824 0.14514 -0.28804
 N355 N 0.67451 0.12421 -0.22930
 C356 C 0.63785 0.10998 -0.23962
 N357 N 0.62599 0.11800 -0.30930
 N358 N 1.14806 0.46611 -0.28110
 C359 C 1.15954 0.48986 -0.34645
 N360 N 1.15101 0.51720 -0.34755
 N361 N 1.13096 0.52001 -0.28865
 C362 C 1.11824 0.49553 -0.22558
 N363 N 1.12766 0.46882 -0.22175
 N364 N 0.55744 0.68872 -0.28957
 C365 C 0.53824 0.67749 -0.36114
 N366 N 0.51293 0.64080 -0.36976
 N367 N 0.50723 0.61643 -0.31109
 C368 C 0.52675 0.62736 -0.24082
 N369 N 0.55191 0.66407 -0.23044
 N370 N 0.36133 -0.15065 -0.34648
 C371 C 0.32632 -0.15741 -0.34719
 N372 N 0.31545 -0.14391 -0.28391
 N373 N 0.33885 -0.12378 -0.22440
 C374 C 0.37405 -0.11642 -0.22608
 N375 N 0.38459 -0.13066 -0.28756
 N376 N 0.58867 -0.11696 0.29443
 C377 C 0.56542 -0.13203 0.35935
 N378 N 0.53532 -0.12852 0.36312
 N379 N 0.52878 -0.11026 0.30517
 C380 C 0.55201 -0.09475 0.24089
 N381 N 0.58204 -0.09859 0.23596
 N382 N 0.33803 0.48280 0.34154
 C383 C 0.30444 0.45159 0.34396
 N384 N 0.29548 0.42518 0.28542
 N385 N 0.31971 0.42982 0.22718
 C386 C 0.35368 0.46084 0.22628
 N387 N 0.36215 0.48732 0.28393
 N388 N 1.11788 0.70921 0.29369
 C389 C 1.13565 0.70137 0.35279
 N390 N 1.13386 0.66800 0.35163
 N391 N 1.11460 0.64302 0.29445
 C392 C 1.09645 0.65040 0.23588
 N393 N 1.09863 0.68411 0.23586
 N394 N 0.42233 0.11108 0.29268
 C395 C 0.44587 0.12791 0.35614
 N396 N 0.47774 0.12758 0.35789
 N397 N 0.48571 0.11067 0.29947
 C398 C 0.46217 0.09337 0.23675
 N399 N 0.43039 0.09410 0.23375
 N400 N 0.63894 0.49985 0.35356
 C401 C 0.67316 0.53027 0.35370
 N402 N 0.68274 0.55581 0.29252
 N403 N 0.65864 0.55114 0.23409
 C404 C 0.62413 0.52095 0.23549
 N405 N 0.61494 0.49531 0.29576
 N406 N 0.88861 0.31088 0.29381
 C407 C 0.87207 0.31860 0.35605
 N408 N 0.87311 0.35161 0.35581
 N409 N 0.89046 0.37634 0.29663
 C410 C 0.90746 0.36916 0.23505
 N411 N 0.90608 0.33583 0.23412
   
