data_POSCAR
  _audit_creation_date              2014-09-24
  _audit_creation_method            'ToBaCCo'
  _symmetry_space_group_name_H-M    'P1'
  _symmetry_Int_Tables_number       1
  _symmetry_cell_setting            triclinic
  loop_
  _symmetry_equiv_pos_as_xyz
 x,y,z
_cell_length_a 27.1228
_cell_length_b 27.0360
_cell_length_c 27.0808
_cell_angle_alpha 90.278900
_cell_angle_beta 90.099400
_cell_angle_gamma 89.826300
loop_
  _atom_site_label
  _atom_site_type_symbol
  _atom_site_fract_x
  _atom_site_fract_y
  _atom_site_fract_z
C1 C 0.52122 0.98275 -0.50303
 C2 C 0.47161 0.98177 -0.50964
 C3 C 0.44818 0.98684 -0.55896
 C4 C 0.43662 0.97609 -0.46798
 C5 C 0.54437 0.98309 -0.45330
 C6 C 0.55641 0.98400 -0.54492
 C7 C 0.41276 1.02388 -0.56559
 C8 C 0.38430 1.02558 -0.60836
 C9 C 0.38999 0.98990 -0.64646
 C10 C 0.42824 0.95435 -0.64039
 C11 C 0.45637 0.95254 -0.59696
 C12 C 0.43361 1.01120 -0.42972
 C13 C 0.39567 1.00844 -0.39483
 C14 C 0.35984 0.97105 -0.39828
 C15 C 0.36391 0.93525 -0.43574
 C16 C 0.40191 0.93776 -0.47018
 C17 C 0.53862 0.94369 -0.42018
 C18 C 0.56631 0.94226 -0.37643
 C19 C 0.60059 0.97979 -0.36577
 C20 C 0.60486 1.01985 -0.39821
 C21 C 0.57707 1.02146 -0.44146
 C22 C 0.59303 0.94736 -0.54762
 C23 C 0.63115 0.95093 -0.58179
 C24 C 0.63354 0.99130 -0.61406
 C25 C 0.59578 1.02708 -0.61286
 C26 C 0.55762 1.02367 -0.57820
 H27 H 0.40640 1.05122 -0.53689
 H28 H 0.35884 1.05624 -0.61142
 H29 H 0.43438 0.92496 -0.66685
 H30 H 0.48295 0.92297 -0.59214
 H31 H 0.45937 1.04168 -0.42800
 H32 H 0.39304 1.03671 -0.36648
 H33 H 0.40349 0.91047 -0.49957
 H34 H 0.51421 0.91329 -0.42906
 H35 H 0.56261 0.91086 -0.35206
 H36 H 0.63049 1.04957 -0.39051
 H37 H 0.58208 1.05212 -0.46655
 H38 H 0.59282 0.91657 -0.52215
 H39 H 0.65935 0.92248 -0.58245
 H40 H 0.59700 1.05870 -0.63721
 H41 H 0.53025 1.05284 -0.57606
 H42 H 0.33716 0.90574 -0.43884
 C43 C -0.50345 1.47950 0.02621
 C44 C -0.49677 1.52845 0.01893
 C45 C -0.44679 1.55019 0.01752
 C46 C -0.53819 1.56378 0.01356
 C47 C -0.55243 1.45649 0.03098
 C48 C -0.46158 1.44459 0.02717
 C49 C -0.43128 1.58023 0.05681
 C50 C -0.38673 1.60570 0.05403
 C51 C -0.35697 1.60168 0.01177
 C52 C -0.37175 1.57021 -0.02694
 C53 C -0.41663 1.54495 -0.02425
 C54 C -0.56931 1.57498 0.05342
 C55 C -0.60274 1.61443 0.05026
 C56 C -0.60524 1.64352 0.00732
 C57 C -0.57510 1.63097 -0.03302
 C58 C -0.54180 1.59167 -0.02981
 C59 C -0.57481 1.43522 -0.01047
 C60 C -0.61305 1.40115 -0.00495
 C61 C -0.62965 1.38701 0.04252
 C62 C -0.60899 1.41183 0.08373
 C63 C -0.57064 1.44569 0.07796
 C64 C -0.44437 1.42406 -0.01718
 C65 C -0.40912 1.38640 -0.01658
 C66 C -0.39126 1.36804 0.02848
 C67 C -0.40812 1.38917 0.07291
 C68 C -0.44304 1.42729 0.07223
 H69 H -0.45434 1.58489 0.08913
 H70 H -0.37599 1.62946 0.08449
 H71 H -0.34979 1.56706 -0.06016
 H72 H -0.42867 1.52290 -0.05545
 H73 H -0.56609 1.55479 0.08770
 H74 H -0.62508 1.62351 0.08215
 H75 H -0.51775 1.58383 -0.06079
 H76 H -0.56028 1.44228 -0.04700
 H77 H -0.62600 1.38310 -0.03818
 H78 H -0.62172 1.40506 0.12088
 H79 H -0.55339 1.46155 0.11046
 H80 H -0.45937 1.43621 -0.05219
 H81 H -0.39729 1.37026 -0.05128
 H82 H -0.39468 1.37578 0.10809
 H83 H -0.45660 1.44240 0.10676
 H84 H -0.57673 1.65206 -0.06688
 C85 C 0.00434 0.53052 0.49553
 C86 C 0.01039 0.48071 0.49323
 C87 C 0.01406 0.45471 0.44514
 C88 C 0.01442 0.45006 0.53839
 C89 C 0.00006 0.55673 0.54342
 C90 C -0.00078 0.56062 0.45020
 C91 C -0.02803 0.43510 0.42273
 C92 C -0.02459 0.40989 0.37780
 C93 C 0.02145 0.40264 0.35419
 C94 C 0.06353 0.42375 0.37695
 C95 C 0.05975 0.44934 0.42185
 C96 C -0.01989 0.41258 0.54711
 C97 C -0.01604 0.38293 0.58898
 C98 C 0.02222 0.39013 0.62378
 C99 C 0.05642 0.42834 0.61474
 C100 C 0.05297 0.45728 0.57220
 C101 C 0.04109 0.57999 0.56427
 C102 C 0.03718 0.60483 0.60939
 C103 C -0.00838 0.60812 0.63474
 C104 C -0.04934 0.58363 0.61333
 C105 C -0.04504 0.55831 0.56834
 C106 C 0.03576 0.59482 0.43750
 C107 C 0.03078 0.62343 0.39495
 C108 C -0.01054 0.61782 0.36412
 C109 C -0.04706 0.58352 0.37674
 C110 C -0.04255 0.55567 0.41987
 H111 H -0.06383 0.43975 0.43981
 H112 H -0.05873 0.39749 0.36134
 H113 H 0.10007 0.41869 0.36187
 H114 H 0.09268 0.46432 0.43890
 H115 H -0.05023 0.40652 0.52184
 H116 H -0.04457 0.35570 0.59473
 H117 H 0.08093 0.48484 0.56531
 H118 H 0.07656 0.57808 0.54608
 H119 H 0.07078 0.61993 0.62464
 H120 H -0.08563 0.58560 0.62963
 H121 H -0.07715 0.54050 0.55250
 H122 H 0.06829 0.59922 0.46026
 H123 H 0.05939 0.64968 0.38579
 H124 H -0.07955 0.57918 0.35385
 H125 H -0.07180 0.53048 0.42979
 H126 H 0.08754 0.43455 0.63900
 O127 O -0.12173 1.00223 -0.08602
 O128 O 0.13024 0.99422 -0.05665
 O129 O 0.00914 1.05804 -0.13757
 O130 O 0.01314 0.92600 -0.12343
 O131 O 0.00288 0.87126 -0.05912
 O132 O 0.00498 1.12497 -0.08461
 O133 O 0.07728 0.98977 -0.12312
 O134 O -0.05535 0.99417 -0.13847
 Zr135 Zr 0.00640 0.99617 -0.09088
 O136 O 0.04469 0.95511 -0.03982
 O137 O -0.04122 1.04640 -0.05915
 C138 C -0.10229 0.99754 -0.12957
 C139 C 0.12105 0.98958 -0.10344
 C140 C 0.00710 1.10513 -0.12837
 C141 C 0.01184 0.88192 -0.10501
 H142 H 0.07062 1.06245 -0.06996
 O143 O 0.04727 1.04423 -0.04883
 H144 H -0.06312 0.93375 -0.07136
 O145 O -0.04404 0.95682 -0.05032
 O146 O 0.11611 1.01095 0.07449
 O147 O -0.13630 1.01388 0.04591
 O148 O 0.06650 1.13078 -0.01129
 O149 O 0.05864 0.87726 0.01383
 O150 O -0.07438 0.88051 0.00232
 O151 O -0.06509 1.13337 -0.02721
 O152 O -0.01537 1.08484 0.11344
 O153 O -0.01919 0.95305 0.12644
 O154 O -0.00534 1.13939 0.04890
 O155 O -0.01512 0.88598 0.07374
 O156 O 0.12504 1.07021 0.00293
 O157 O -0.12692 1.07486 -0.02669
 O158 O -0.13133 0.94276 -0.00988
 O159 O 0.12099 0.93524 0.01349
 O160 O 0.04996 1.01993 0.12715
 O161 O -0.08324 1.01770 0.11237
 Zr162 Zr 0.08331 1.00371 0.00438
 Zr163 Zr -0.08903 1.00743 -0.01541
 Zr164 Zr -0.00043 1.09220 -0.01395
 Zr165 Zr -0.00618 0.91855 0.00317
 Zr166 Zr -0.01227 1.01471 0.08008
 O167 O -0.05375 0.96663 0.03816
 O168 O 0.03824 1.05430 0.03963
 C169 C 0.09691 1.01728 0.11788
 C170 C -0.12706 1.01679 0.09284
 C171 C 0.11138 1.11572 -0.00476
 C172 C 0.10458 0.89013 0.01658
 C173 C -0.11922 0.89709 -0.00186
 C174 C -0.11083 1.11989 -0.03025
 C175 C -0.01231 1.12892 0.09519
 C176 C -0.01906 0.90592 0.11739
 H177 H -0.07340 1.07887 0.04547
 O178 O -0.05061 1.05548 0.02902
 H179 H 0.05306 0.94592 0.07306
 O180 O 0.03491 0.96484 0.04769
 C181 C 0.31112 1.01079 0.31598
 C182 C 0.27843 1.00894 0.27585
 C183 C 0.29314 0.98597 0.23140
 C184 C 0.34012 0.96475 0.22807
 C185 C 0.37231 0.96589 0.26843
 C186 C 0.35888 0.98917 0.31349
 C187 C 0.26045 0.98410 0.19121
 C188 C 0.21281 1.00414 0.19538
 C189 C 0.19776 1.02642 0.24021
 C190 C 0.23077 1.02901 0.28002
 C191 C 0.14977 1.04541 0.24458
 C192 C 0.11685 1.04227 0.20493
 C193 C 0.13156 1.02065 0.16001
 C194 C 0.17979 1.00177 0.15554
 H195 H 0.29721 1.02645 0.35006
 H196 H 0.35212 0.94719 0.19407
 H197 H 0.40862 0.95037 0.26268
 H198 H 0.27187 0.96660 0.15694
 H199 H 0.21923 1.04629 0.31436
 H200 H 0.13761 1.06251 0.27875
 H201 H 0.08001 1.05720 0.20928
 H202 H 0.19146 0.98448 0.12127
 C203 C -0.32922 1.00828 0.30285
 C204 C -0.28802 1.01071 0.27153
 C205 C -0.24024 1.00241 0.29095
 C206 C -0.23440 0.99214 0.34125
 C207 C -0.27552 0.98915 0.37192
 C208 C -0.32324 0.99674 0.35304
 C209 C -0.19909 1.00374 0.25974
 C210 C -0.20504 1.01252 0.20911
 C211 C -0.25273 1.02092 0.18962
 C212 C -0.29387 1.02034 0.22099
 C213 C -0.25852 1.02909 0.13889
 C214 C -0.21763 1.02814 0.10763
 C215 C -0.17002 1.01942 0.12650
 C216 C -0.16404 1.01216 0.17755
 H217 H -0.36594 1.01390 0.28798
 H218 H -0.19808 0.98587 0.35678
 H219 H -0.27003 0.98093 0.41065
 H220 H -0.16253 0.99717 0.27471
 H221 H -0.33045 1.02659 0.20595
 H222 H -0.29475 1.03568 0.12328
 H223 H -0.22341 1.03419 0.06854
 H224 H -0.12765 1.00517 0.19266
 C225 C -0.31528 0.98524 -0.32885
 C226 C -0.28310 0.98431 -0.28836
 C227 C -0.30169 0.97456 -0.24066
 C228 C -0.35214 0.96475 -0.23466
 C229 C -0.38397 0.96542 -0.27542
 C230 C -0.36591 0.97638 -0.32266
 C231 C -0.26960 0.97507 -0.19989
 C232 C -0.21916 0.98485 -0.20639
 C233 C -0.20060 0.99347 -0.25434
 C234 C -0.23267 0.99332 -0.29494
 C235 C -0.15017 1.00227 -0.26096
 C236 C -0.11832 1.00296 -0.22046
 C237 C -0.13629 0.99547 -0.17242
 C238 C -0.18694 0.98623 -0.16573
 H239 H -0.30094 0.99285 -0.36538
 H240 H -0.36703 0.95697 -0.19843
 H241 H -0.42289 0.95852 -0.26991
 H242 H -0.28386 0.96806 -0.16320
 H243 H -0.21843 1.00041 -0.33163
 H244 H -0.13534 1.00871 -0.29749
 H245 H -0.07957 1.00991 -0.22679
 H246 H -0.20128 0.97984 -0.12898
 C247 C 0.32305 0.97696 -0.31354
 C248 C 0.28208 0.97643 -0.28192
 C249 C 0.23420 0.97003 -0.30174
 C250 C 0.22819 0.96365 -0.35276
 C251 C 0.26915 0.96376 -0.38388
 C252 C 0.31685 0.97055 -0.36465
 C253 C 0.19311 0.97031 -0.27035
 C254 C 0.19924 0.97679 -0.21931
 C255 C 0.24718 0.98238 -0.19945
 C256 C 0.28825 0.98223 -0.23083
 C257 C 0.25329 0.98845 -0.14846
 C258 C 0.21232 0.98986 -0.11743
 C259 C 0.16427 0.98532 -0.13670
 C260 C 0.15813 0.97826 -0.18784
 H261 H 0.35978 0.98177 -0.29842
 H262 H 0.19182 0.95871 -0.36862
 H263 H 0.26349 0.95927 -0.42325
 H264 H 0.15640 0.96576 -0.28567
 H265 H 0.32495 0.98687 -0.21553
 H266 H 0.28976 0.99258 -0.13258
 H267 H 0.21844 0.99523 -0.07825
 H268 H 0.12144 0.97442 -0.20331
 C269 C 0.30436 1.33266 0.01008
 C270 C 0.27398 1.29098 0.01459
 C271 C 0.27464 1.26305 0.05848
 C272 C 0.30536 1.27771 0.09737
 C273 C 0.33580 1.31905 0.09262
 C274 C 0.33656 1.34716 0.04861
 C275 C 0.24459 1.22100 0.06278
 C276 C 0.21342 1.20691 0.02375
 C277 C 0.21261 1.23534 -0.02005
 C278 C 0.24297 1.27691 -0.02440
 C279 C 0.18077 1.22229 -0.05866
 C280 C 0.14904 1.18226 -0.05355
 C281 C 0.14928 1.15391 -0.01029
 C282 C 0.18209 1.16569 0.02809
 H283 H 0.30156 1.35421 -0.02337
 H284 H 0.30653 1.25668 0.13132
 H285 H 0.36053 1.32683 0.12298
 H286 H 0.24514 1.19959 0.09654
 H287 H 0.24223 1.29847 -0.05808
 H288 H 0.17962 1.24369 -0.09238
 H289 H 0.12365 1.17365 -0.08331
 H290 H 0.18166 1.14424 0.06182
 C291 C 0.31437 0.68671 0.02459
 C292 C 0.28355 0.72845 0.02172
 C293 C 0.30086 0.77220 -0.00075
 C294 C 0.34889 0.77349 -0.01967
 C295 C 0.37925 0.73175 -0.01685
 C296 C 0.36231 0.68787 0.00502
 C297 C 0.26978 0.81371 -0.00437
 C298 C 0.22133 0.81181 0.01367
 C299 C 0.20424 0.76798 0.03626
 C300 C 0.23548 0.72681 0.04042
 C301 C 0.15581 0.76566 0.05372
 C302 C 0.12409 0.80584 0.04786
 C303 C 0.14021 0.84946 0.02489
 C304 C 0.18929 0.85257 0.00859
 H305 H 0.30070 0.65301 0.04114
 H306 H 0.36292 0.80671 -0.03682
 H307 H 0.41633 0.73397 -0.03143
 H308 H 0.28303 0.84715 -0.02181
 H309 H 0.22213 0.69325 0.05760
 H310 H 0.14218 0.73248 0.07128
 H311 H 0.08663 0.80265 0.06128
 H312 H 0.20201 0.88591 -0.00939
 C313 C -0.31683 0.68417 0.01794
 C314 C -0.27630 0.71554 0.01232
 C315 C -0.23076 0.69624 -0.00440
 C316 C -0.22696 0.64562 -0.01573
 C317 C -0.26791 0.61461 -0.01061
 C318 C -0.31303 0.63362 0.00658
 C319 C -0.19013 0.72795 -0.00984
 C320 C -0.19489 0.77875 0.00056
 C321 C -0.24087 0.79775 0.01663
 C322 C -0.28103 0.76605 0.02273
 C323 C -0.24623 0.84834 0.02617
 C324 C -0.20657 0.88015 0.01970
 C325 C -0.16049 0.86203 0.00402
 C326 C -0.15471 0.81106 -0.00517
 H327 H -0.35180 0.69931 0.03026
 H328 H -0.19246 0.63009 -0.02875
 H329 H -0.26426 0.57569 -0.01958
 H330 H -0.15510 0.71323 -0.02250
 H331 H -0.31613 0.78079 0.03525
 H332 H -0.28120 0.86341 0.03853
 H333 H -0.21189 0.91911 0.02766
 H334 H -0.11938 0.79677 -0.01743
 C335 C -0.31663 1.32389 -0.00360
 C336 C -0.28524 1.28261 -0.00482
 C337 C -0.29457 1.24199 0.02652
 C338 C -0.33468 1.24375 0.05906
 C339 C -0.36547 1.28522 0.06037
 C340 C -0.35694 1.32541 0.02887
 C341 C -0.26353 1.20048 0.02508
 C342 C -0.22258 1.19955 -0.00645
 C343 C -0.21277 1.24052 -0.03720
 C344 C -0.24452 1.28151 -0.03665
 C345 C -0.17068 1.24024 -0.06722
 C346 C -0.13791 1.20034 -0.06580
 C347 C -0.14752 1.15956 -0.03548
 C348 C -0.19037 1.15890 -0.00656
 H349 H -0.30958 1.35501 -0.02765
 H350 H -0.34232 1.21301 0.08339
 H351 H -0.39669 1.28543 0.08525
 H352 H -0.27074 1.16929 0.04905
 H353 H -0.23711 1.31283 -0.06036
 H354 H -0.16249 1.27137 -0.09085
 H355 H -0.10482 1.20139 -0.08813
 H356 H -0.19730 1.12783 0.01763
 C357 C -0.01027 1.33738 0.29870
 C358 C -0.00584 1.30721 0.25672
 C359 C 0.03462 1.31288 0.22461
 C360 C 0.06962 1.34953 0.23482
 C361 C 0.06516 1.37949 0.27692
 C362 C 0.02529 1.37385 0.31008
 C363 C 0.03987 1.28115 0.18356
 C364 C 0.00551 1.24319 0.17504
 C365 C -0.03523 1.23817 0.20728
 C366 C -0.04087 1.27041 0.24741
 C367 C -0.06909 1.19992 0.19990
 C368 C -0.06176 1.16561 0.16220
 C369 C -0.02108 1.16941 0.13051
 C370 C 0.01195 1.20900 0.13609
 H371 H -0.04028 1.32981 0.32376
 H372 H 0.10073 1.35488 0.21038
 H373 H 0.09261 1.40792 0.28229
 H374 H 0.07125 1.28515 0.15915
 H375 H -0.07193 1.26602 0.27219
 H376 H -0.10049 1.19567 0.22420
 H377 H -0.08762 1.13536 0.15816
 H378 H 0.04363 1.21164 0.11190
 C379 C 0.00929 1.31020 -0.33524
 C380 C 0.01292 1.27965 -0.29373
 C381 C 0.03307 1.29826 -0.24932
 C382 C 0.05040 1.34700 -0.24768
 C383 C 0.04754 1.37708 -0.28951
 C384 C 0.02632 1.35950 -0.33394
 C385 C 0.03571 1.26779 -0.20747
 C386 C 0.01924 1.21861 -0.20995
 C387 C 0.00036 1.19983 -0.25501
 C388 C -0.00303 1.23049 -0.29637
 C389 C -0.01488 1.15054 -0.25815
 C390 C -0.01174 1.11999 -0.21703
 C391 C 0.00602 1.13820 -0.17167
 C392 C 0.02146 1.18775 -0.16830
 H393 H -0.00497 1.29439 -0.36917
 H394 H 0.06602 1.36199 -0.21396
 H395 H 0.06009 1.41487 -0.28594
 H396 H 0.05076 1.28222 -0.17318
 H397 H -0.01799 1.21602 -0.33069
 H398 H -0.02927 1.13557 -0.29244
 H399 H -0.02411 1.08212 -0.22058
 H400 H 0.03556 1.20206 -0.13359
 C401 C 0.02032 0.67485 -0.30964
 C402 C 0.01499 0.70412 -0.26711
 C403 C -0.02422 0.69537 -0.23416
 C404 C -0.05683 0.65648 -0.24396
 C405 C -0.05137 0.62732 -0.28649
 C406 C -0.01295 0.63614 -0.32066
 C407 C -0.03071 0.72631 -0.19269
 C408 C 0.00117 0.76645 -0.18449
 C409 C 0.04088 0.77441 -0.21739
 C410 C 0.04775 0.74303 -0.25803
 C411 C 0.07233 0.81471 -0.21020
 C412 C 0.06334 0.84828 -0.17219
 C413 C 0.02336 0.84178 -0.14002
 C414 C -0.00694 0.79999 -0.14527
 H415 H 0.04909 0.68482 -0.33530
 H416 H -0.08685 0.64872 -0.21884
 H417 H -0.07688 0.59707 -0.29140
 H418 H -0.06123 0.71999 -0.16771
 H419 H 0.07792 0.74973 -0.28338
 H420 H 0.10298 0.82118 -0.23495
 H421 H 0.08719 0.88018 -0.16842
 H422 H -0.03809 0.79517 -0.12073
 C423 C -0.01247 0.70051 0.32403
 C424 C -0.01712 0.73058 0.28228
 C425 C -0.02461 0.70886 0.23525
 C426 C -0.02872 0.65725 0.23119
 C427 C -0.02490 0.62755 0.27323
 C428 C -0.01613 0.64896 0.31976
 C429 C -0.02764 0.73906 0.19323
 C430 C -0.02379 0.79071 0.19785
 C431 C -0.01778 0.81217 0.24524
 C432 C -0.01426 0.78205 0.28700
 C433 C -0.01485 0.86355 0.25024
 C434 C -0.01670 0.89360 0.20870
 C435 C -0.02123 0.87301 0.16103
 C436 C -0.02530 0.82130 0.15595
 H437 H -0.00639 0.71715 0.36005
 H438 H -0.03474 0.63987 0.19556
 H439 H -0.02785 0.58777 0.26936
 H440 H -0.03272 0.72242 0.15706
 H441 H -0.00902 0.79867 0.32317
 H442 H -0.01052 0.88055 0.28631
 H443 H -0.01343 0.93317 0.21408
 H444 H -0.02904 0.80485 0.11956
   
