data_POSCAR
  _audit_creation_date              2014-09-24
  _audit_creation_method            'ToBaCCo'
  _symmetry_space_group_name_H-M    'P1'
  _symmetry_Int_Tables_number       1
  _symmetry_cell_setting            triclinic
  loop_
  _symmetry_equiv_pos_as_xyz
 x,y,z
_cell_length_a 19.8459
_cell_length_b 19.8328
_cell_length_c 19.8017
_cell_angle_alpha 90.129200
_cell_angle_beta 89.970500
_cell_angle_gamma 90.146000
loop_
  _atom_site_label
  _atom_site_type_symbol
  _atom_site_fract_x
  _atom_site_fract_y
  _atom_site_fract_z
O1 O 0.59760 0.16776 0.00789
 O2 O 0.67099 0.07848 0.00481
 C3 C 0.65788 0.14244 0.00738
 O4 O 0.40313 -0.00372 0.16955
 O5 O 0.32982 0.00215 0.08006
 C6 C 0.34284 -0.00153 0.14411
 O7 O 0.59218 0.00193 0.17304
 O8 O 0.66796 -0.00330 0.08577
 C9 C 0.65342 0.00005 0.14961
 O10 O 0.40915 0.17119 -0.00277
 O11 O 0.33289 0.08401 -0.00115
 C12 C 0.34804 0.14761 -0.00296
 Zr13 Zr 0.50245 0.11997 0.00238
 O14 O 0.49529 0.19464 0.07864
 O15 O 0.51244 0.19563 -0.07228
 Zr16 Zr 0.49852 -0.00076 0.12181
 O17 O 0.49119 0.07418 0.19777
 O18 O 0.50340 -0.07689 0.19643
 O19 O 0.56094 0.06809 0.07258
 O20 O 0.44183 0.06918 0.06993
 O21 O 0.41003 0.00751 -0.16986
 O22 O 0.33280 0.00472 -0.08385
 C23 C 0.34865 0.00769 -0.14738
 O24 O 0.59021 -0.17117 -0.00436
 O25 O 0.66760 -0.08538 0.00112
 C26 C 0.65164 -0.14880 -0.00298
 O27 O 0.40213 -0.16753 0.00304
 O28 O 0.32884 -0.07819 -0.00046
 C29 C 0.34187 -0.14219 0.00190
 O30 O 0.59778 -0.00461 -0.16635
 O31 O 0.67139 -0.00375 -0.07689
 C32 C 0.65812 -0.00508 -0.14102
 Zr33 Zr 0.50259 0.00028 -0.11868
 O34 O 0.49479 -0.07567 -0.19368
 O35 O 0.51298 0.07455 -0.19461
 Zr36 Zr 0.49760 -0.12010 0.00071
 O37 O 0.48941 -0.19622 -0.07395
 O38 O 0.50277 -0.19479 0.07679
 Zr39 Zr 0.60127 -0.00186 0.00313
 Zr40 Zr 0.39936 0.00143 -0.00039
 O41 O 0.44132 -0.06776 -0.06911
 O42 O 0.56036 -0.07039 -0.06751
 O43 O 0.44256 0.07064 -0.06869
 O44 O 0.55663 -0.07039 0.07083
 O45 O 0.56140 0.06805 -0.06595
 O46 O 0.43734 -0.06885 0.06969
 H47 H 0.41187 0.09775 0.09795
 H48 H 0.58607 -0.09923 0.09896
 H49 H 0.41087 -0.09512 -0.09791
 H50 H 0.59238 0.09584 -0.09365
 H51 H 0.46491 -0.10778 0.18897
 H52 H 0.46321 -0.18895 0.10662
 H53 H 0.52448 -0.18724 -0.10827
 H54 H 0.53407 -0.10587 -0.18882
 H55 H 0.47841 0.10935 -0.18606
 H56 H 0.47468 0.19011 -0.10442
 H57 H 0.53302 0.18755 0.11044
 H58 H 0.52927 0.10581 0.19144
 O59 O -0.00448 0.59297 -0.17093
 O60 O -0.00373 0.66810 -0.08257
 C61 C -0.00513 0.65380 -0.14646
 O62 O -0.16754 0.40212 0.00370
 O63 O -0.07839 0.32878 0.00120
 C64 C -0.14231 0.34187 0.00370
 O65 O -0.17030 0.58949 -0.00618
 O66 O -0.08458 0.66701 -0.00259
 C67 C -0.14797 0.65098 -0.00557
 O68 O 0.00662 0.40433 -0.17057
 O69 O 0.00395 0.32974 -0.08226
 C70 C 0.00639 0.34341 -0.14631
 Zr71 Zr 0.00129 0.49886 -0.12107
 O72 O -0.07316 0.48984 -0.19713
 O73 O 0.07742 0.50752 -0.19555
 Zr74 Zr -0.11922 0.49682 -0.00108
 O75 O -0.19413 0.48727 -0.07664
 O76 O -0.19471 0.50341 0.07426
 O77 O -0.06953 0.55797 -0.07065
 O78 O -0.06686 0.43895 -0.06994
 O79 O 0.17185 0.40831 -0.00433
 O80 O 0.08492 0.33180 -0.00060
 C81 C 0.14843 0.34708 -0.00331
 O82 O 0.00285 0.59385 0.16949
 O83 O -0.00094 0.66850 0.08121
 C84 C 0.00156 0.65451 0.14506
 O85 O -0.00297 0.40534 0.16915
 O86 O 0.00303 0.33026 0.08094
 C87 C -0.00096 0.34454 0.14477
 O88 O 0.16812 0.59716 0.00361
 O89 O 0.07883 0.67046 -0.00048
 C90 C 0.14276 0.65746 0.00236
 Zr91 Zr 0.12052 0.50172 -0.00038
 O92 O 0.19540 0.49616 0.07553
 O93 O 0.19597 0.51039 -0.07553
 Zr94 Zr -0.00002 0.49963 0.11954
 O95 O 0.07491 0.49372 0.19536
 O96 O -0.07617 0.50600 0.19423
 Zr97 Zr -0.00132 0.60051 -0.00074
 Zr98 Zr 0.00235 0.39822 -0.00077
 O99 O 0.07005 0.44220 0.06845
 O100 O 0.06863 0.56131 0.06904
 O101 O 0.07147 0.43991 -0.07015
 O102 O -0.06958 0.55702 0.06800
 O103 O 0.06855 0.55929 -0.06945
 O104 O -0.06800 0.43763 0.06867
 H105 H -0.09454 0.40808 -0.09799
 H106 H -0.09827 0.58689 0.09598
 H107 H 0.09863 0.41277 0.09685
 H108 H 0.09625 0.58986 -0.09770
 H109 H -0.18725 0.46617 0.10651
 H110 H -0.10656 0.46686 0.18816
 H111 H 0.10684 0.53136 0.18797
 H112 H 0.18834 0.53449 0.10677
 H113 H 0.18963 0.47266 -0.10767
 H114 H 0.10867 0.46921 -0.18966
 H115 H -0.10608 0.52654 -0.19008
 H116 H -0.18752 0.52452 -0.10911
 O117 O 0.16680 -0.00324 0.40286
 O118 O 0.07770 0.00016 0.32908
 C119 C 0.14165 -0.00226 0.34240
 O120 O -0.00458 -0.16978 0.59402
 O121 O -0.00031 -0.08174 0.66929
 C122 C -0.00345 -0.14551 0.65490
 O123 O 0.00171 -0.16972 0.40575
 O124 O -0.00198 -0.08166 0.33089
 C125 C 0.00059 -0.14541 0.34497
 O126 O 0.17003 0.00661 0.59067
 O127 O 0.08441 0.00267 0.66823
 C128 C 0.14778 0.00621 0.65222
 Zr129 Zr 0.11882 0.00027 0.49795
 O130 O 0.19250 -0.07653 0.50444
 O131 O 0.19566 0.07392 0.48899
 Zr132 Zr -0.00112 -0.11979 0.50006
 O133 O 0.07471 -0.19443 0.50640
 O134 O -0.07654 -0.19524 0.49357
 O135 O 0.06724 -0.06920 0.43824
 O136 O 0.06881 -0.06854 0.55800
 O137 O 0.00487 0.16997 0.59497
 O138 O 0.00240 0.08189 0.66998
 C139 C 0.00491 0.14572 0.65591
 O140 O -0.17233 0.00365 0.40853
 O141 O -0.08536 0.00029 0.33217
 C142 C -0.14897 0.00254 0.34719
 O143 O -0.16857 -0.00416 0.59768
 O144 O -0.07930 0.00024 0.67136
 C145 C -0.14322 -0.00306 0.65816
 O146 O -0.00568 0.16989 0.40592
 O147 O -0.00383 0.08161 0.33072
 C148 C -0.00545 0.14543 0.34499
 Zr149 Zr -0.00094 0.12039 0.50039
 O150 O -0.07671 0.19491 0.50905
 O151 O 0.07386 0.19625 0.49205
 Zr152 Zr -0.12095 0.00039 0.50219
 O153 O -0.19518 0.07644 0.51095
 O154 O -0.19695 -0.07449 0.49616
 Zr155 Zr -0.00273 0.00027 0.39893
 Zr156 Zr 0.00096 0.00029 0.60160
 O157 O -0.06857 0.06904 0.56042
 O158 O -0.07140 0.06981 0.44076
 O159 O 0.06956 0.06992 0.55944
 O160 O -0.07084 -0.06863 0.44246
 O161 O 0.06683 0.06917 0.44039
 O162 O -0.06946 -0.06907 0.56175
 H163 H 0.09727 -0.09633 0.58813
 H164 H -0.09940 -0.09699 0.41271
 H165 H -0.09622 0.09724 0.59107
 H166 H 0.09476 0.09745 0.41007
 H167 H -0.10847 -0.18780 0.53121
 H168 H -0.18923 -0.10674 0.53337
 H169 H -0.18981 0.10718 0.47203
 H170 H -0.10798 0.18897 0.47060
 H171 H 0.10623 0.18974 0.52942
 H172 H 0.18682 0.10903 0.52337
 H173 H 0.18726 -0.10611 0.46448
 H174 H 0.10573 -0.18775 0.46787
 C175 C -0.28504 0.19218 0.00730
 C176 C -0.28705 0.23991 0.06840
 C177 C -0.23850 0.28832 0.06742
 C178 C -0.19210 0.28487 0.00541
 C179 C -0.16389 0.21249 0.00605
 C180 C -0.21277 0.16374 0.00704
 C181 C -0.28794 0.23828 -0.05479
 C182 C -0.23948 0.28660 -0.05577
 H183 H -0.32282 0.23518 0.10964
 H184 H -0.23277 0.32498 0.10784
 H185 H -0.11056 0.20050 0.00608
 H186 H -0.20092 0.11035 0.00792
 H187 H -0.32437 0.23254 -0.09532
 H188 H -0.23450 0.32215 -0.09712
 C189 C 0.28489 0.80792 0.00233
 C190 C 0.28652 0.76232 0.06488
 C191 C 0.23824 0.71365 0.06502
 C192 C 0.19240 0.71469 0.00262
 C193 C 0.16388 0.78696 0.00076
 C194 C 0.21252 0.83598 0.00061
 C195 C 0.28856 0.75969 -0.05829
 C196 C 0.24034 0.71107 -0.05813
 H197 H 0.32184 0.76870 0.10628
 H198 H 0.23231 0.67842 0.10652
 H199 H 0.11050 0.79870 -0.00025
 H200 H 0.20044 0.88931 -0.00052
 H201 H 0.32529 0.76423 -0.09871
 H202 H 0.23591 0.67406 -0.09840
 C203 C 0.29201 0.19844 -0.00364
 C204 C 0.29502 0.24609 0.05752
 C205 C 0.24665 0.29445 0.05743
 C206 C 0.19931 0.29109 -0.00379
 C207 C 0.24591 0.29321 -0.06572
 C208 C 0.29436 0.24479 -0.06563
 C209 C 0.21962 0.17005 -0.00297
 C210 C 0.17103 0.21861 -0.00305
 H211 H 0.33157 0.24155 0.09803
 H212 H 0.24191 0.33122 0.09785
 H213 H 0.24061 0.32913 -0.10667
 H214 H 0.33044 0.23932 -0.10650
 H215 H 0.20739 0.11667 -0.00262
 H216 H 0.11770 0.20631 -0.00279
 C217 C -0.29308 0.79908 -0.00484
 C218 C -0.32029 0.72697 -0.01499
 C219 C -0.27224 0.67899 -0.01569
 C220 C -0.20014 0.70624 -0.00617
 C221 C -0.19189 0.75935 -0.06219
 C222 C -0.24064 0.80805 -0.06149
 C223 C -0.25145 0.79572 0.06050
 C224 C -0.20285 0.74718 0.05980
 H225 H -0.37289 0.71404 -0.02279
 H226 H -0.28512 0.62642 -0.02414
 H227 H -0.15142 0.75869 -0.09910
 H228 H -0.24179 0.84896 -0.09780
 H229 H -0.25925 0.82896 0.10344
 H230 H -0.16912 0.73899 0.10215
 C231 C 0.00167 -0.28883 0.19545
 C232 C -0.05907 -0.29260 0.24334
 C233 C -0.05931 -0.24408 0.29181
 C234 C 0.00119 -0.19582 0.28833
 C235 C 0.06356 -0.24147 0.29012
 C236 C 0.06381 -0.29005 0.24160
 C237 C -0.00004 -0.21651 0.16705
 C238 C -0.00030 -0.16767 0.21583
 H239 H -0.09914 -0.32973 0.23880
 H240 H -0.09959 -0.23976 0.32870
 H241 H 0.10463 -0.23532 0.32583
 H242 H 0.10509 -0.32543 0.23583
 H243 H -0.00085 -0.20456 0.11359
 H244 H -0.00133 -0.11433 0.20372
 C245 C 0.00677 0.28927 0.80553
 C246 C -0.05232 0.29160 0.76157
 C247 C -0.05262 0.24063 0.71059
 C248 C 0.00607 0.19652 0.71283
 C249 C 0.06461 0.24113 0.70936
 C250 C 0.06507 0.29221 0.76044
 C251 C 0.00725 0.22049 0.83294
 C252 C 0.00682 0.16919 0.78152
 H253 H -0.09389 0.32665 0.76791
 H254 H -0.09428 0.23433 0.67554
 H255 H 0.10564 0.23501 0.67355
 H256 H 0.10662 0.32758 0.76615
 H257 H 0.00886 0.20819 0.88632
 H258 H 0.00799 0.11582 0.79352
 C259 C -0.00252 0.28814 0.19526
 C260 C 0.05754 0.29131 0.24396
 C261 C 0.05637 0.24306 0.29248
 C262 C -0.00483 0.19568 0.28833
 C263 C -0.06648 0.24225 0.28928
 C264 C -0.06531 0.29052 0.24064
 C265 C -0.00152 0.21564 0.16700
 C266 C -0.00274 0.16710 0.21585
 H267 H 0.09820 0.32783 0.23992
 H268 H 0.09604 0.23838 0.32991
 H269 H -0.10810 0.23697 0.32450
 H270 H -0.10598 0.32648 0.23429
 H271 H -0.00015 0.20336 0.11357
 H272 H -0.00239 0.11369 0.20380
 C273 C -0.00547 -0.28950 0.80336
 C274 C -0.06672 -0.29177 0.75608
 C275 C -0.06628 -0.24296 0.70797
 C276 C -0.00457 -0.19611 0.71121
 C277 C -0.00483 -0.16818 0.78391
 C278 C -0.00530 -0.21720 0.83229
 C279 C 0.05616 -0.29191 0.75655
 C280 C 0.05663 -0.24321 0.70849
 H281 H -0.10758 -0.32796 0.76084
 H282 H -0.10681 -0.23745 0.67158
 H283 H -0.00497 -0.11488 0.79644
 H284 H -0.00583 -0.20538 0.88583
 H285 H 0.09668 -0.32827 0.76154
 H286 H 0.09755 -0.23795 0.67243
 C287 C 0.29322 0.00891 0.80049
 C288 C 0.32013 0.01909 0.72829
 C289 C 0.27196 0.01867 0.68024
 C290 C 0.20004 0.00810 0.70757
 C291 C 0.20372 -0.05742 0.74867
 C292 C 0.25241 -0.05700 0.79723
 C293 C 0.24008 0.06468 0.80944
 C294 C 0.19119 0.06426 0.76068
 H295 H 0.37257 0.02801 0.71542
 H296 H 0.28459 0.02723 0.62761
 H297 H 0.17052 -0.10030 0.74057
 H298 H 0.26080 -0.09952 0.83064
 H299 H 0.24091 0.10125 0.85031
 H300 H 0.15028 0.10049 0.75991
 C301 C -0.29289 0.00091 0.19818
 C302 C -0.29632 -0.05671 0.24396
 C303 C -0.24535 -0.05594 0.29490
 C304 C -0.20026 0.00220 0.29077
 C305 C -0.17296 0.00040 0.22202
 C306 C -0.22410 -0.00032 0.17077
 C307 C -0.29492 0.06069 0.24152
 C308 C -0.24392 0.06131 0.29254
 H309 H -0.33230 -0.09785 0.23913
 H310 H -0.23996 -0.09633 0.33146
 H311 H -0.11963 0.00011 0.20978
 H312 H -0.21158 -0.00112 0.11738
 H313 H -0.32980 0.10230 0.23482
 H314 H -0.23739 0.10325 0.32733
 C315 C 0.28550 -0.00204 0.19362
 C316 C 0.21339 0.00023 0.16456
 C317 C 0.16415 0.00002 0.21293
 C318 C 0.19180 -0.00242 0.28561
 C319 C 0.23722 -0.06498 0.28691
 C320 C 0.28613 -0.06479 0.23888
 C321 C 0.28906 0.05813 0.24233
 C322 C 0.24019 0.05796 0.29028
 H323 H 0.20191 0.00173 0.11100
 H324 H 0.11092 0.00133 0.20046
 H325 H 0.23057 -0.10660 0.32185
 H326 H 0.32129 -0.10623 0.23278
 H327 H 0.32626 0.09821 0.23866
 H328 H 0.23565 0.09794 0.32757
 C329 C -0.28505 -0.00524 0.80891
 C330 C -0.28744 -0.06673 0.76172
 C331 C -0.23928 -0.06621 0.71292
 C332 C -0.19280 -0.00422 0.71545
 C333 C -0.24014 0.05677 0.71333
 C334 C -0.28820 0.05628 0.76208
 C335 C -0.21260 -0.00459 0.83698
 C336 C -0.16410 -0.00405 0.78786
 H337 H -0.32315 -0.10794 0.76715
 H338 H -0.23392 -0.10691 0.67656
 H339 H -0.23544 0.09765 0.67722
 H340 H -0.32449 0.09681 0.76764
 H341 H -0.20037 -0.00483 0.89040
 H342 H -0.11069 -0.00378 0.79962
   
