data_POSCAR
  _audit_creation_date              2014-09-24
  _audit_creation_method            'ToBaCCo'
  _symmetry_space_group_name_H-M    'P1'
  _symmetry_Int_Tables_number       1
  _symmetry_cell_setting            triclinic
  loop_
  _symmetry_equiv_pos_as_xyz
 x,y,z
_cell_length_a 25.4294
_cell_length_b 25.3899
_cell_length_c 25.4234
_cell_angle_alpha 90.098400
_cell_angle_beta 89.939400
_cell_angle_gamma 90.047100
loop_
  _atom_site_label
  _atom_site_type_symbol
  _atom_site_fract_x
  _atom_site_fract_y
  _atom_site_fract_z
Si1 Si 1.25086 0.24984 0.25047
 Si2 Si 0.75030 -0.25049 0.25037
 Si3 Si 0.75018 0.24980 -0.25012
 Si4 Si 1.25054 -0.25061 -0.25010
 Si5 Si 0.24992 0.25100 0.74983
 Si6 Si 0.75032 0.75013 0.74935
 Si7 Si 0.74855 0.24995 0.25011
 Si8 Si 0.24946 0.75020 0.24984
 N9 N 0.94518 0.05624 -0.09294
 N10 N 0.91207 0.06867 -0.13097
 N11 N 1.05536 0.09333 -0.05610
 N12 N 1.08797 0.13184 -0.06832
 N13 N 1.05581 0.05676 -0.09269
 N14 N 1.08902 0.06942 -0.13062
 N15 N 0.94517 0.09281 -0.05634
 N16 N 0.91231 0.13102 -0.06861
 C17 C 0.89132 0.11514 -0.11487
 C18 C 1.10929 0.11607 -0.11450
 N19 N 1.05508 0.05714 0.09394
 N20 N 1.08874 0.06950 0.13150
 N21 N 0.94478 0.09304 0.05692
 N22 N 0.91168 0.13120 0.06885
 N23 N 0.94449 0.05663 0.09355
 N24 N 0.91091 0.06909 0.13125
 N25 N 1.05492 0.09349 0.05724
 N26 N 1.08816 0.13158 0.06902
 Mn27 Mn 1.00008 0.09347 0.00045
 C28 C 1.10953 0.11576 0.11505
 C29 C 0.89025 0.11541 0.11492
 N30 N 1.05642 -0.05693 -0.09242
 N31 N 1.08948 -0.06956 -0.13048
 N32 N 0.94640 -0.09419 -0.05606
 N33 N 0.91347 -0.13251 -0.06818
 N34 N 0.94589 -0.05758 -0.09252
 N35 N 0.91238 -0.07000 -0.13020
 N36 N 1.05652 -0.09324 -0.05566
 N37 N 1.08934 -0.13151 -0.06790
 Mn38 Mn 1.00081 -0.00040 -0.09309
 C39 C 1.11021 -0.11588 -0.11426
 C40 C 0.89196 -0.11655 -0.11416
 N41 N 0.94518 -0.05706 0.09376
 N42 N 0.91149 -0.06941 0.13132
 N43 N 1.05651 -0.09303 0.05796
 N44 N 1.08981 -0.13088 0.07063
 N45 N 1.05562 -0.05657 0.09467
 N46 N 1.08809 -0.06884 0.13324
 N47 N 0.94605 -0.09383 0.05738
 N48 N 0.91317 -0.13217 0.06933
 Mn49 Mn 1.00006 0.00006 0.09441
 Mn50 Mn 1.00141 -0.09392 0.00090
 Cl51 Cl 1.00060 -0.00022 0.00066
 C52 C 0.89134 -0.11608 0.11516
 C53 C 1.10979 -0.11492 0.11740
 N54 N 1.05481 0.44235 0.40583
 N55 N 1.08909 0.43021 0.36872
 N56 N 0.94430 0.40685 0.44311
 N57 N 0.91060 0.36903 0.43169
 N58 N 0.94409 0.44319 0.40642
 N59 N 0.90998 0.43100 0.36916
 N60 N 1.05449 0.40617 0.44267
 N61 N 1.08821 0.36837 0.43147
 C62 C 1.11005 0.38422 0.38562
 C63 C 0.88888 0.38493 0.38585
 N64 N 0.94463 0.44401 0.59267
 N65 N 0.91110 0.43184 0.63052
 N66 N 1.05486 0.40662 0.55588
 N67 N 1.08806 0.36856 0.56769
 N68 N 1.05536 0.44327 0.59237
 N69 N 1.08920 0.43118 0.62981
 N70 N 0.94462 0.40739 0.55615
 N71 N 0.91133 0.36944 0.56822
 Mn72 Mn 0.99960 0.40643 0.49943
 C73 C 0.89009 0.38549 0.61431
 C74 C 1.10979 0.38474 0.61352
 N75 N 0.94539 0.55689 0.40594
 N76 N 0.91101 0.56885 0.36898
 N77 N 1.05708 0.59245 0.44141
 N78 N 1.09096 0.62989 0.42886
 N79 N 1.05594 0.55599 0.40471
 N80 N 1.08883 0.56785 0.36626
 N81 N 0.94654 0.59374 0.44222
 N82 N 0.91316 0.63174 0.43084
 Mn83 Mn 1.00001 0.49958 0.40524
 C84 C 0.89074 0.61537 0.38544
 C85 C 1.11106 0.61368 0.38218
 N86 N 1.05652 0.55676 0.59185
 N87 N 1.09011 0.56891 0.62953
 N88 N 0.94676 0.59440 0.55546
 N89 N 0.91341 0.63250 0.56705
 N90 N 0.94587 0.55785 0.59195
 N91 N 0.91169 0.57006 0.62915
 N92 N 1.05697 0.59296 0.55501
 N93 N 1.09052 0.63076 0.56685
 Mn94 Mn 1.00056 0.50050 0.59271
 Mn95 Mn 1.00190 0.59378 0.49853
 Cl96 Cl 1.00053 0.50010 0.49898
 C97 C 1.11151 0.61487 0.61303
 C98 C 0.89125 0.61645 0.61275
 N99 N 0.59283 0.05526 0.55586
 N100 N 0.63097 0.08837 0.56837
 N101 N 0.55618 -0.05501 0.59332
 N102 N 0.56846 -0.08748 0.63184
 N103 N 0.59270 -0.05554 0.55677
 N104 N 0.63063 -0.08868 0.56942
 N105 N 0.55630 0.05531 0.59241
 N106 N 0.56867 0.08819 0.63064
 C107 C 0.61495 0.10915 0.61484
 C108 C 0.61461 -0.10881 0.61608
 N109 N 0.40604 -0.05508 0.55746
 N110 N 0.36855 -0.08879 0.57002
 N111 N 0.44323 0.05554 0.59285
 N112 N 0.43138 0.08871 0.63102
 N113 N 0.40652 0.05568 0.55654
 N114 N 0.36883 0.08921 0.56913
 N115 N 0.44289 -0.05470 0.59361
 N116 N 0.43130 -0.08781 0.63178
 Mn117 Mn 0.49963 0.00025 0.59333
 C118 C 0.38522 -0.10934 0.61620
 C119 C 0.38528 0.11003 0.61539
 N120 N 0.59210 -0.05689 0.44328
 N121 N 0.63019 -0.08993 0.43072
 N122 N 0.55556 0.05285 0.40559
 N123 N 0.56731 0.08581 0.36726
 N124 N 0.59208 0.05383 0.44208
 N125 N 0.62947 0.08770 0.42957
 N126 N 0.55523 -0.05741 0.40712
 N127 N 0.56745 -0.09046 0.36899
 Mn128 Mn 0.59289 -0.00080 0.49946
 C129 C 0.61389 -0.11106 0.38460
 C130 C 0.61314 0.10783 0.38307
 N131 N 0.40606 0.05422 0.44286
 N132 N 0.36880 0.08820 0.43052
 N133 N 0.44164 -0.05762 0.40749
 N134 N 0.42885 -0.09118 0.36982
 N135 N 0.40496 -0.05645 0.44390
 N136 N 0.36630 -0.08905 0.43177
 N137 N 0.44236 0.05300 0.40610
 N138 N 0.43071 0.08593 0.36782
 Mn139 Mn 0.40543 -0.00036 0.50021
 Mn140 Mn 0.49870 -0.00236 0.40623
 Cl141 Cl 0.49917 -0.00083 0.49979
 C142 C 0.38511 0.10815 0.38388
 C143 C 0.38206 -0.11109 0.38583
 N144 N 0.44293 0.59409 -0.05469
 N145 N 0.43081 0.63123 -0.08887
 N146 N 0.40729 0.55866 0.05692
 N147 N 0.36945 0.57158 0.09020
 N148 N 0.44365 0.59544 0.05582
 N149 N 0.43128 0.63430 0.08816
 N150 N 0.40620 0.55773 -0.05358
 N151 N 0.36815 0.56921 -0.08680
 C152 C 0.38435 0.61477 -0.10907
 C153 C 0.38527 0.61856 0.10999
 N154 N 0.44318 0.40788 0.05638
 N155 N 0.43093 0.37001 0.08975
 N156 N 0.40567 0.44434 -0.05336
 N157 N 0.36752 0.43264 -0.08653
 N158 N 0.44215 0.40774 -0.05423
 N159 N 0.42978 0.37034 -0.08820
 N160 N 0.40701 0.44479 0.05686
 N161 N 0.36915 0.43279 0.09023
 Mn162 Mn 0.40618 0.50137 0.00178
 C163 C 0.38496 0.38645 0.11105
 C164 C 0.38341 0.38675 -0.10854
 N165 N 0.55727 0.59429 0.05479
 N166 N 0.56975 0.63177 0.08862
 N167 N 0.59281 0.55688 -0.05570
 N168 N 0.63086 0.56855 -0.08899
 N169 N 0.55654 0.59367 -0.05588
 N170 N 0.56903 0.63125 -0.08955
 N171 N 0.59338 0.55733 0.05448
 N172 N 0.63140 0.56881 0.08778
 Mn173 Mn 0.50012 0.59484 -0.00003
 C174 C 0.61581 0.61495 0.10934
 C175 C 0.61519 0.61465 -0.11044
 N176 N 0.55588 0.40699 -0.05543
 N177 N 0.56833 0.36887 -0.08865
 N178 N 0.59305 0.44390 0.05484
 N179 N 0.63118 0.43192 0.08784
 N180 N 0.55651 0.40733 0.05527
 N181 N 0.56876 0.36967 0.08885
 N182 N 0.59239 0.44360 -0.05542
 N183 N 0.63052 0.43131 -0.08840
 Mn184 Mn 0.49940 0.40702 0.00045
 Mn185 Mn 0.59321 0.50045 -0.00042
 Cl186 Cl 0.49970 0.50092 0.00047
 C187 C 0.61471 0.38500 -0.10947
 C188 C 0.61517 0.38591 0.10937
 C189 C 1.20678 0.20682 0.20690
 C190 C 1.18738 0.23460 0.15678
 C191 C 1.15556 0.20458 0.12601
 C192 C 1.14553 0.14911 0.14792
 C193 C 1.20043 0.12554 0.15590
 C194 C 1.23249 0.15572 0.18658
 C195 C 1.15614 0.18812 0.23437
 C196 C 1.12418 0.15830 0.20359
 H197 H 1.19741 0.27460 0.14604
 H198 H 1.13908 0.21932 0.08953
 H199 H 1.21317 0.08858 0.13858
 H200 H 1.27256 0.14413 0.19508
 H201 H 1.14602 0.19691 0.27479
 H202 H 1.08719 0.14236 0.21783
 C203 C 1.20736 0.70627 0.70593
 C204 C 1.18830 0.73405 0.65572
 C205 C 1.15699 0.70389 0.62458
 C206 C 1.14710 0.64830 0.64628
 C207 C 1.20210 0.62507 0.65477
 C208 C 1.23367 0.65543 0.68581
 C209 C 1.15661 0.68722 0.73291
 C210 C 1.12516 0.65726 0.70177
 H211 H 1.19822 0.77413 0.64516
 H212 H 1.14080 0.71859 0.58796
 H213 H 1.21524 0.58821 0.63753
 H214 H 1.27375 0.64418 0.69480
 H215 H 1.14604 0.69596 0.77323
 H216 H 1.08811 0.64110 0.71562
 C217 C 0.70700 0.20573 0.70674
 C218 C 0.68662 0.23203 0.65615
 C219 C 0.65602 0.20017 0.62566
 C220 C 0.64813 0.14485 0.64845
 C221 C 0.70388 0.12358 0.65721
 C222 C 0.73459 0.15534 0.68742
 C223 C 0.65708 0.18576 0.73446
 C224 C 0.62632 0.15417 0.70414
 H225 H 0.69514 0.27235 0.64513
 H226 H 0.63872 0.21332 0.58894
 H227 H 0.71811 0.08669 0.64091
 H228 H 0.77494 0.14517 0.69637
 H229 H 0.64653 0.19519 0.77466
 H230 H 0.58997 0.13725 0.71886
 C231 C 0.70736 0.70612 0.20656
 C232 C 0.73470 0.65562 0.18728
 C233 C 0.70450 0.62504 0.15544
 C234 C 0.64932 0.64756 0.14537
 C235 C 0.62576 0.65596 0.20029
 C236 C 0.65617 0.68641 0.23236
 C237 C 0.68913 0.73369 0.15591
 C238 C 0.65910 0.70312 0.12398
 H239 H 0.77447 0.64446 0.19753
 H240 H 0.71885 0.58824 0.13908
 H241 H 0.58872 0.63897 0.21307
 H242 H 0.64476 0.69506 0.27252
 H243 H 0.69856 0.77399 0.14572
 H244 H 0.64349 0.71740 0.08692
 C245 C 0.79438 -0.20725 0.20710
 C246 C 0.84493 -0.18838 0.23455
 C247 C 0.87682 -0.15850 0.20375
 C248 C 0.85547 -0.14945 0.14811
 C249 C 0.84561 -0.20497 0.12612
 C250 C 0.81390 -0.23503 0.15689
 C251 C 0.76854 -0.15622 0.18699
 C252 C 0.80050 -0.12602 0.15627
 H253 H 0.85502 -0.19709 0.27495
 H254 H 0.91375 -0.14239 0.21796
 H255 H 0.86216 -0.21973 0.08960
 H256 H 0.80408 -0.27509 0.14611
 H257 H 0.72850 -0.14464 0.19578
 H258 H 0.78770 -0.08906 0.13915
 C259 C 0.79366 0.29345 0.70640
 C260 C 0.81313 0.26598 0.65607
 C261 C 0.84461 0.29636 0.62533
 C262 C 0.85427 0.35194 0.64743
 C263 C 0.79912 0.37494 0.65585
 C264 C 0.76739 0.34433 0.68651
 C265 C 0.84420 0.31257 0.73373
 C266 C 0.87581 0.34279 0.70297
 H267 H 0.80330 0.22594 0.64514
 H268 H 0.86102 0.28182 0.58865
 H269 H 0.78600 0.41184 0.63885
 H270 H 0.72720 0.35542 0.69537
 H271 H 0.85452 0.30369 0.77404
 H272 H 0.91269 0.35905 0.71713
 C273 C 0.29390 -0.20653 0.70740
 C274 C 0.31434 -0.23256 0.65658
 C275 C 0.34486 -0.20047 0.62634
 C276 C 0.35258 -0.14529 0.64968
 C277 C 0.29684 -0.12414 0.65871
 C278 C 0.26621 -0.15610 0.68861
 C279 C 0.34380 -0.18668 0.73526
 C280 C 0.37449 -0.15483 0.70519
 H281 H 0.30605 -0.27287 0.64527
 H282 H 0.36230 -0.21339 0.58953
 H283 H 0.28253 -0.08718 0.64280
 H284 H 0.22584 -0.14603 0.69763
 H285 H 0.35443 -0.19645 0.77529
 H286 H 0.41087 -0.13799 0.71989
 C287 C 0.29382 0.29362 0.20709
 C288 C 0.31233 0.26660 0.15614
 C289 C 0.34224 0.29769 0.12457
 C290 C 0.35162 0.35316 0.14665
 C291 C 0.29630 0.37520 0.15697
 C292 C 0.26622 0.34412 0.18838
 C293 C 0.34484 0.31337 0.23314
 C294 C 0.37511 0.34436 0.20148
 H295 H 0.30315 0.22631 0.14551
 H296 H 0.35802 0.28386 0.08733
 H297 H 0.28170 0.41199 0.14099
 H298 H 0.22631 0.35490 0.19855
 H299 H 0.35629 0.30421 0.27312
 H300 H 0.41207 0.36137 0.21444
 C301 C 0.79439 0.20654 -0.20684
 C302 C 0.76859 0.15535 -0.18690
 C303 C 0.80054 0.12507 -0.15630
 C304 C 0.85548 0.14857 -0.14798
 C305 C 0.87694 0.15794 -0.20359
 C306 C 0.84508 0.18791 -0.23429
 C307 C 0.81374 0.23415 -0.15653
 C308 C 0.84544 0.20404 -0.12584
 H309 H 0.72856 0.14373 -0.19567
 H310 H 0.78770 0.08803 -0.13932
 H311 H 0.91395 0.14205 -0.21782
 H312 H 0.85531 0.19695 -0.27461
 H313 H 0.80379 0.27416 -0.14564
 H314 H 0.86187 0.21873 -0.08927
 C315 C 0.79375 0.70643 0.29390
 C316 C 0.76775 0.65541 0.31391
 C317 C 0.79966 0.62515 0.34457
 C318 C 0.85465 0.64865 0.35278
 C319 C 0.87615 0.65782 0.29721
 C320 C 0.84438 0.68767 0.26648
 C321 C 0.81302 0.73419 0.34415
 C322 C 0.84470 0.70414 0.37488
 H323 H 0.72764 0.64398 0.30512
 H324 H 0.78678 0.58818 0.36170
 H325 H 0.91310 0.64180 0.28297
 H326 H 0.85462 0.69638 0.22610
 H327 H 0.80283 0.77413 0.35509
 H328 H 0.86096 0.71878 0.41156
 C329 C 0.29399 0.20563 0.29297
 C330 C 0.26619 0.15519 0.31171
 C331 C 0.29673 0.12315 0.34153
 C332 C 0.35252 0.14424 0.35053
 C333 C 0.37449 0.15390 0.29501
 C334 C 0.34388 0.18582 0.26503
 C335 C 0.31441 0.23156 0.34383
 C336 C 0.34487 0.19940 0.37397
 H337 H 0.22580 0.14516 0.30273
 H338 H 0.28233 0.08619 0.35743
 H339 H 0.41086 0.13711 0.28023
 H340 H 0.35456 0.19569 0.22500
 H341 H 0.30604 0.27182 0.35526
 H342 H 0.36223 0.21223 0.41082
 C343 C 0.29340 0.70605 -0.20636
 C344 C 0.26587 0.65558 -0.18733
 C345 C 0.29588 0.62496 -0.15550
 C346 C 0.35108 0.64739 -0.14520
 C347 C 0.37483 0.65576 -0.20004
 C348 C 0.34462 0.68631 -0.23209
 C349 C 0.31159 0.73360 -0.15559
 C350 C 0.34143 0.70298 -0.12367
 H351 H 0.22611 0.64445 -0.19775
 H352 H 0.28138 0.58816 -0.13935
 H353 H 0.41190 0.63879 -0.21274
 H354 H 0.35621 0.69512 -0.27214
 H355 H 0.30234 0.77395 -0.14534
 H356 H 0.35703 0.71726 -0.08655
 C357 C 1.20644 -0.20748 -0.20667
 C358 C 1.23247 -0.15645 -0.18651
 C359 C 1.20070 -0.12613 -0.15571
 C360 C 1.14571 -0.14943 -0.14746
 C361 C 1.12416 -0.15858 -0.20306
 C362 C 1.15586 -0.18863 -0.23396
 C363 C 1.18693 -0.23516 -0.15650
 C364 C 1.15542 -0.20496 -0.12559
 H365 H 1.27255 -0.14495 -0.19524
 H366 H 1.21370 -0.08918 -0.13853
 H367 H 1.08718 -0.14255 -0.21710
 H368 H 1.14555 -0.19762 -0.27429
 H369 H 1.19649 -0.27529 -0.14592
 H370 H 1.13879 -0.21967 -0.08912
 C371 C 1.20732 0.29287 0.29422
 C372 C 1.15680 0.31163 0.26674
 C373 C 1.12494 0.34154 0.29744
 C374 C 1.14622 0.35081 0.35305
 C375 C 1.15604 0.29534 0.37509
 C376 C 1.18784 0.26521 0.34438
 C377 C 1.23329 0.34388 0.31440
 C378 C 1.20126 0.37425 0.34500
 H379 H 1.14667 0.30285 0.22635
 H380 H 1.08804 0.35753 0.28315
 H381 H 1.13960 0.28079 0.41171
 H382 H 1.19797 0.22529 0.35528
 H383 H 1.27350 0.35518 0.30589
 H384 H 1.21413 0.41118 0.36230
 C385 C 0.70671 -0.20678 0.29310
 C386 C 0.65677 -0.18728 0.26519
 C387 C 0.62566 -0.15594 0.29537
 C388 C 0.64722 -0.14641 0.35105
 C389 C 0.65536 -0.20159 0.37400
 C390 C 0.68632 -0.23320 0.34368
 C391 C 0.73391 -0.15616 0.31235
 C392 C 0.70284 -0.12463 0.34240
 H393 H 0.64650 -0.19675 0.22496
 H394 H 0.58928 -0.13930 0.28056
 H395 H 0.63797 -0.21481 0.41069
 H396 H 0.69506 -0.27342 0.35481
 H397 H 0.77421 -0.14564 0.30345
 H398 H 0.71673 -0.08756 0.35861
 C399 C 0.70675 0.29306 -0.20623
 C400 C 0.73399 0.34359 -0.18690
 C401 C 0.70363 0.37426 -0.15526
 C402 C 0.64831 0.35185 -0.14530
 C403 C 0.62512 0.34325 -0.20032
 C404 C 0.65569 0.31270 -0.23221
 C405 C 0.68816 0.26562 -0.15557
 C406 C 0.65790 0.29629 -0.12379
 H407 H 0.77388 0.35469 -0.19690
 H408 H 0.71802 0.41104 -0.13888
 H409 H 0.58812 0.36009 -0.21327
 H410 H 0.64445 0.30379 -0.27234
 H411 H 0.69759 0.22535 -0.14528
 H412 H 0.64205 0.28211 -0.08676
 C413 C 1.20579 0.20773 -0.20675
 C414 C 1.23183 0.15682 -0.18657
 C415 C 1.20001 0.12650 -0.15582
 C416 C 1.14494 0.14966 -0.14764
 C417 C 1.15458 0.20527 -0.12573
 C418 C 1.18615 0.23547 -0.15657
 C419 C 1.15527 0.18862 -0.23413
 C420 C 1.12352 0.15859 -0.20328
 H421 H 1.27193 0.14542 -0.19529
 H422 H 1.21301 0.08963 -0.13865
 H423 H 1.13791 0.22002 -0.08926
 H424 H 1.19572 0.27562 -0.14590
 H425 H 1.14507 0.19740 -0.27449
 H426 H 1.08662 0.14239 -0.21742
 C427 C 1.20773 0.70733 0.29080
 C428 C 1.23363 0.68698 0.34181
 C429 C 1.20192 0.65574 0.37189
 C430 C 1.14698 0.64700 0.34861
 C431 C 1.12511 0.70246 0.33976
 C432 C 1.15659 0.73383 0.31006
 C433 C 1.18864 0.65667 0.26309
 C434 C 1.15715 0.62539 0.29308
 H435 H 1.27364 0.69564 0.35351
 H436 H 1.21501 0.63839 0.40860
 H437 H 1.08806 0.71622 0.35596
 H438 H 1.14559 0.77413 0.30202
 H439 H 1.19854 0.64572 0.22315
 H440 H 1.14110 0.58861 0.27832
 C441 C 0.70496 0.20563 0.29246
 C442 C 0.65521 0.18574 0.26431
 C443 C 0.62438 0.15373 0.29414
 C444 C 0.64595 0.14405 0.34975
 C445 C 0.70181 0.12308 0.34096
 C446 C 0.73260 0.15520 0.31132
 C447 C 0.68420 0.23146 0.34325
 C448 C 0.65351 0.19923 0.37323
 H449 H 0.64479 0.19565 0.22426
 H450 H 0.58809 0.13689 0.27921
 H451 H 0.71612 0.08613 0.35689
 H452 H 0.77306 0.14527 0.30258
 H453 H 0.69255 0.27173 0.35474
 H454 H 0.63591 0.21202 0.41000
 C455 C 0.70711 0.70645 -0.20713
 C456 C 0.65590 0.68694 -0.23303
 C457 C 0.62540 0.65632 -0.20119
 C458 C 0.64883 0.64754 -0.14633
 C459 C 0.70402 0.62505 -0.15669
 C460 C 0.73432 0.65579 -0.18831
 C461 C 0.68882 0.73372 -0.15620
 C462 C 0.65868 0.70300 -0.12450
 H463 H 0.64456 0.69590 -0.27309
 H464 H 0.58833 0.63949 -0.21410
 H465 H 0.71829 0.58813 -0.14071
 H466 H 0.77407 0.64463 -0.19874
 H467 H 0.69829 0.77396 -0.14568
 H468 H 0.64304 0.71710 -0.08731
 C469 C 0.79460 -0.20703 -0.20685
 C470 C 0.81402 -0.23516 -0.15691
 C471 C 0.84586 -0.20539 -0.12588
 C472 C 0.85594 -0.14977 -0.14734
 C473 C 0.87725 -0.15858 -0.20312
 C474 C 0.84524 -0.18814 -0.23417
 C475 C 0.76896 -0.15604 -0.18619
 C476 C 0.80103 -0.12613 -0.15522
 H477 H 0.80402 -0.27525 -0.14650
 H478 H 0.86236 -0.22041 -0.08953
 H479 H 0.91424 -0.14254 -0.21725
 H480 H 0.85530 -0.19660 -0.27468
 H481 H 0.72896 -0.14427 -0.19481
 H482 H 0.78833 -0.08924 -0.13772
 C483 C 0.79196 0.29320 0.29401
 C484 C 0.81118 0.26566 0.34428
 C485 C 0.84282 0.29590 0.37508
 C486 C 0.85281 0.35139 0.35305
 C487 C 0.87436 0.34206 0.29750
 C488 C 0.84265 0.31202 0.26672
 C489 C 0.76591 0.34421 0.31406
 C490 C 0.79779 0.37469 0.34475
 H491 H 0.80095 0.22573 0.35517
 H492 H 0.85904 0.28141 0.41178
 H493 H 0.91135 0.35807 0.28333
 H494 H 0.85301 0.30314 0.22638
 H495 H 0.72576 0.35544 0.30536
 H496 H 0.78482 0.41163 0.36193
 C497 C 0.29045 -0.20783 0.29239
 C498 C 0.34185 -0.23350 0.31203
 C499 C 0.37199 -0.20172 0.34315
 C500 C 0.34841 -0.14694 0.35247
 C501 C 0.33881 -0.12477 0.29730
 C502 C 0.30897 -0.15633 0.26604
 C503 C 0.26312 -0.18917 0.34337
 C504 C 0.29319 -0.15763 0.37452
 H505 H 0.35378 -0.27342 0.30304
 H506 H 0.40896 -0.21468 0.36004
 H507 H 0.35451 -0.08741 0.28369
 H508 H 0.30014 -0.14516 0.22598
 H509 H 0.22335 -0.19934 0.35459
 H510 H 0.27868 -0.14182 0.41147
 C511 C 0.29266 0.29476 -0.20621
 C512 C 0.34383 0.31475 -0.23182
 C513 C 0.37391 0.34551 -0.19967
 C514 C 0.35012 0.35388 -0.14479
 C515 C 0.29485 0.37599 -0.15511
 C516 C 0.26497 0.34515 -0.18706
 C517 C 0.31092 0.26740 -0.15547
 C518 C 0.34061 0.29824 -0.12343
 H519 H 0.35548 0.30591 -0.27188
 H520 H 0.41093 0.36264 -0.21232
 H521 H 0.28023 0.41273 -0.13888
 H522 H 0.22519 0.35607 -0.19751
 H523 H 0.30181 0.22701 -0.14534
 H524 H 0.35621 0.28408 -0.08632
 C525 C 1.20697 -0.20781 0.20868
 C526 C 1.18698 -0.15751 0.23645
 C527 C 1.15530 -0.12663 0.20647
 C528 C 1.14569 -0.14820 0.15087
 C529 C 1.20077 -0.15608 0.12768
 C530 C 1.23273 -0.18695 0.15769
 C531 C 1.15627 -0.23506 0.18923
 C532 C 1.12448 -0.20404 0.15951
 H533 H 1.19618 -0.14663 0.27653
 H534 H 1.13850 -0.09027 0.22141
 H535 H 1.21376 -0.13852 0.09099
 H536 H 1.27281 -0.19503 0.14586
 H537 H 1.14586 -0.27556 0.19720
 H538 H 1.08769 -0.21829 0.14315
 C539 C 1.20641 0.29389 0.70595
 C540 C 1.23246 0.34482 0.68582
 C541 C 1.20066 0.37497 0.65491
 C542 C 1.14569 0.35148 0.64657
 C543 C 1.15571 0.29589 0.62475
 C544 C 1.18728 0.26594 0.65573
 C545 C 1.15568 0.31276 0.73311
 C546 C 1.12401 0.34250 0.70213
 H547 H 1.27254 0.35629 0.69471
 H548 H 1.21363 0.41186 0.63769
 H549 H 1.13950 0.28108 0.58812
 H550 H 1.19739 0.22593 0.64504
 H551 H 1.14528 0.30408 0.77346
 H552 H 1.08697 0.35853 0.71614
 C553 C 0.70687 -0.20557 0.70700
 C554 C 0.73432 -0.15498 0.68813
 C555 C 0.70346 -0.12313 0.65833
 C556 C 0.64772 -0.14453 0.64950
 C557 C 0.65565 -0.19968 0.62615
 C558 C 0.68641 -0.23162 0.65621
 C559 C 0.65696 -0.18594 0.73506
 C560 C 0.62604 -0.15424 0.70513
 H561 H 0.77465 -0.14471 0.69714
 H562 H 0.71757 -0.08606 0.64241
 H563 H 0.63825 -0.21267 0.58937
 H564 H 0.69497 -0.27183 0.64476
 H565 H 0.64655 -0.19564 0.77519
 H566 H 0.58970 -0.13752 0.72005
 C567 C 0.70585 0.29361 0.20630
 C568 C 0.68759 0.26636 0.15539
 C569 C 0.65787 0.29727 0.12356
 C570 C 0.64839 0.35284 0.14530
 C571 C 0.62462 0.34427 0.20012
 C572 C 0.65469 0.31345 0.23205
 C573 C 0.73356 0.34407 0.18744
 C574 C 0.70367 0.37498 0.15574
 H575 H 0.69681 0.22604 0.14497
 H576 H 0.64228 0.28323 0.08634
 H577 H 0.58759 0.36129 0.21288
 H578 H 0.64302 0.30446 0.27204
 H579 H 0.77339 0.35497 0.19780
 H580 H 0.71835 0.41174 0.13967
 C581 C 0.79287 0.20678 0.20669
 C582 C 0.84335 0.18803 0.23428
 C583 C 0.87535 0.15809 0.20359
 C584 C 0.85423 0.14886 0.14785
 C585 C 0.79922 0.12541 0.15577
 C586 C 0.76712 0.15568 0.18636
 C587 C 0.81260 0.23446 0.15660
 C588 C 0.84445 0.20436 0.12591
 H589 H 0.85333 0.19693 0.27470
 H590 H 0.91224 0.14213 0.21791
 H591 H 0.78643 0.08845 0.13848
 H592 H 0.72698 0.14413 0.19479
 H593 H 0.80278 0.27449 0.14583
 H594 H 0.86115 0.21906 0.08948
 C595 C 0.79393 0.70723 0.70521
 C596 C 0.84448 0.68822 0.73244
 C597 C 0.87635 0.65858 0.70141
 C598 C 0.85505 0.64975 0.64570
 C599 C 0.79998 0.62627 0.65370
 C600 C 0.76799 0.65636 0.68467
 C601 C 0.81339 0.73527 0.65521
 C602 C 0.84518 0.70539 0.62417
 H603 H 0.85459 0.69661 0.77293
 H604 H 0.91326 0.64245 0.71553
 H605 H 0.78711 0.58943 0.63621
 H606 H 0.72785 0.64491 0.69335
 H607 H 0.80324 0.77528 0.64467
 H608 H 0.86157 0.72023 0.58766
 C609 C 0.29345 0.20696 0.70707
 C610 C 0.34343 0.18733 0.73481
 C611 C 0.37422 0.15561 0.70460
 C612 C 0.35236 0.14592 0.64902
 C613 C 0.29667 0.12455 0.65805
 C614 C 0.26594 0.15639 0.68811
 C615 C 0.31382 0.23305 0.65630
 C616 C 0.34443 0.20108 0.62592
 H617 H 0.35401 0.19717 0.77488
 H618 H 0.41065 0.13895 0.71925
 H619 H 0.28246 0.08752 0.64203
 H620 H 0.22562 0.14612 0.69718
 H621 H 0.30537 0.27332 0.64513
 H622 H 0.36179 0.21409 0.58914
 C623 C 0.29182 0.70971 0.20724
 C624 C 0.26507 0.69067 0.15617
 C625 C 0.29631 0.66101 0.12438
 C626 C 0.35188 0.65216 0.14591
 C627 C 0.37332 0.70781 0.15613
 C628 C 0.34213 0.73770 0.18786
 C629 C 0.31243 0.65857 0.23276
 C630 C 0.34352 0.62867 0.20078
 H631 H 0.22482 0.69913 0.14540
 H632 H 0.28248 0.64505 0.08723
 H633 H 0.40977 0.72280 0.13970
 H634 H 0.35279 0.77780 0.19757
 H635 H 0.30398 0.64661 0.27274
 H636 H 0.36097 0.59188 0.21362
   
