data_POSCAR
  _audit_creation_date              2014-09-24
  _audit_creation_method            'ToBaCCo'
  _symmetry_space_group_name_H-M    'P1'
  _symmetry_Int_Tables_number       1
  _symmetry_cell_setting            triclinic
  loop_
  _symmetry_equiv_pos_as_xyz
 x,y,z
_cell_length_a 25.3266
_cell_length_b 26.6688
_cell_length_c 27.9268
_cell_angle_alpha 91.262200
_cell_angle_beta 92.139000
_cell_angle_gamma 90.925000
loop_
  _atom_site_label
  _atom_site_type_symbol
  _atom_site_fract_x
  _atom_site_fract_y
  _atom_site_fract_z
N1 N 0.19650 0.22090 0.22552
 N2 N -0.19668 0.81637 0.20237
 N3 N -0.21965 0.18942 -0.23463
 N4 N 0.19816 0.76853 -0.20740
 N5 N 0.20238 1.22661 0.79267
 N6 N 0.80240 0.79689 0.78834
 N7 N 0.20326 0.80205 1.20001
 N8 N 0.80720 1.20727 1.22910
 O9 O 0.55086 0.94688 0.93405
 O10 O 0.44958 0.98173 1.09235
 O11 O 0.57993 0.95241 1.02307
 O12 O 0.38221 0.98214 0.94796
 O13 O 0.55018 0.98491 1.08998
 O14 O 0.45223 0.93920 0.93630
 O15 O 0.40433 0.95955 1.02811
 O16 O 0.62502 0.98880 0.95511
 C17 C 0.60055 0.95389 0.92849
 C18 C 0.41533 0.95368 1.07140
 C19 C 0.57655 0.95165 1.06798
 C20 C 0.40304 0.94331 0.93115
 O21 O 0.44347 1.03308 0.90274
 O22 O 0.54420 1.08339 1.07020
 O23 O 0.57745 1.07226 0.96445
 O24 O 0.36795 1.04584 1.03493
 O25 O 0.44303 1.07839 1.06857
 O26 O 0.53977 1.04103 0.90137
 O27 O 0.41501 1.07596 0.96302
 O28 O 0.60922 1.04249 1.04092
 Co29 Co 0.49622 0.99175 0.92478
 Co30 Co 0.49680 1.03056 1.07329
 Co31 Co 0.57312 1.01142 0.99117
 Co32 Co 0.41567 1.01826 0.99724
 O33 O 0.49496 1.01402 0.99779
 C34 C 0.41856 1.07014 0.91875
 C35 C 0.59287 1.07837 1.06557
 C36 C 0.56795 1.07506 0.92108
 C37 C 0.39218 1.07529 1.06649
 O38 O 0.02448 0.44196 0.09004
 O39 O 0.00345 0.53672 -0.09898
 O40 O 0.05291 0.42240 -0.02292
 O41 O 0.06163 0.57862 0.04264
 O42 O 0.01848 0.44713 -0.08905
 O43 O 0.03181 0.53618 0.10246
 O44 O 0.05806 0.55966 -0.04282
 O45 O 0.04740 0.41182 0.01995
 C46 C 0.05414 0.41437 0.06547
 C47 C 0.04701 0.55603 -0.08612
 C48 C 0.05740 0.42819 -0.06699
 C49 C 0.06246 0.56889 0.08611
 O50 O -0.06829 0.54583 0.08899
 O51 O -0.08493 0.43746 -0.05866
 O52 O -0.04322 0.39424 0.04016
 O53 O -0.04273 0.59320 -0.04696
 O54 O -0.09343 0.52924 -0.06643
 O55 O -0.08266 0.45468 0.07262
 O56 O -0.03822 0.60403 0.04143
 O57 O -0.03478 0.37242 -0.04563
 Co58 Co -0.02308 0.49416 0.08084
 Co59 Co -0.03687 0.48838 -0.07103
 Co60 Co -0.01639 0.42767 -0.01019
 Co61 Co 0.00763 0.57684 -0.00175
 O62 O -0.01454 0.50104 0.00465
 C63 C -0.06677 0.59033 0.07532
 C64 C -0.07645 0.39148 -0.06827
 C65 C -0.07878 0.40899 0.06607
 C66 C -0.08542 0.57565 -0.06516
 O67 O 1.12591 0.03435 0.46014
 O68 O 0.93700 0.04745 0.53084
 O69 O 0.96372 0.05758 0.44511
 O70 O 1.06839 0.00670 0.60368
 O71 O 0.90204 0.00659 0.45361
 O72 O 1.11769 0.04163 0.54981
 O73 O 0.97290 0.02050 0.59545
 O74 O 1.05396 0.07010 0.44272
 C75 C 1.10234 0.06948 0.44096
 C76 C 0.94476 0.05199 0.57482
 C77 C 0.91734 0.04524 0.43441
 C78 C 1.10323 0.03878 0.59213
 O79 O 1.12216 -0.05451 0.55444
 O80 O 0.94216 -0.07675 0.47402
 O81 O 1.06805 -0.02634 0.40770
 O82 O 0.95612 -0.07442 0.56195
 O83 O 0.88632 -0.03572 0.53659
 O84 O 1.11704 -0.06122 0.46409
 O85 O 1.04834 -0.08946 0.56854
 O86 O 0.97328 -0.04027 0.41179
 Co87 Co 1.11106 -0.00978 0.50685
 Co88 Co 0.94318 -0.01507 0.50427
 Co89 Co 1.01519 0.01338 0.43250
 Co90 Co 1.01257 -0.03195 0.57583
 O91 O 1.02361 -0.00921 0.50316
 C92 C 1.09698 -0.08977 0.57169
 C93 C 0.94964 -0.07704 0.42979
 C94 C 1.10192 -0.05839 0.42101
 C95 C 0.90763 -0.06560 0.56751
 C96 C 1.17912 0.15452 0.33817
 C97 C 1.12430 0.15752 0.34315
 N98 N 1.09472 0.18304 0.31071
 C99 C 1.11735 0.20544 0.27319
 C100 C 1.17224 0.20202 0.26755
 N101 N 1.20175 0.17643 0.30039
 N102 N 1.20840 0.12768 0.36988
 C103 C 1.18518 0.10267 0.40569
 C104 C 1.12999 0.10405 0.40966
 N105 N 1.10106 0.13208 0.37846
 H106 H 1.09247 0.22416 0.24708
 H107 H 1.20929 0.08029 0.42954
 C108 C 0.85869 -0.15600 0.32422
 C109 C 0.90722 -0.13341 0.31378
 N110 N 0.92100 -0.12910 0.26763
 C111 C 0.88810 -0.14583 0.23111
 C112 C 0.83873 -0.16708 0.24108
 N113 N 0.82523 -0.17219 0.28760
 N114 N 0.84492 -0.15908 0.37072
 C115 C 0.87663 -0.13892 0.40702
 C116 C 0.92367 -0.11358 0.39615
 N117 N 0.93793 -0.11244 0.34970
 H118 H 0.89975 -0.14161 0.19453
 H119 H 0.86334 -0.13943 0.44340
 C120 C 0.85431 0.14725 0.66096
 C121 C 0.86636 0.09817 0.67414
 N122 N 0.84721 0.07929 0.71477
 C123 C 0.81684 0.10753 0.74343
 C124 C 0.80594 0.15731 0.73150
 N125 N 0.82513 0.17623 0.69043
 N126 N 0.87227 0.16494 0.61905
 C127 C 0.90183 0.13570 0.58991
 C128 C 0.91521 0.08720 0.60416
 N129 N 0.89683 0.06986 0.64590
 H130 H 0.80301 0.09211 0.77632
 H131 H 0.91513 0.15022 0.55646
 C132 C 1.17539 -0.17724 0.67434
 C133 C 1.11998 -0.17720 0.67048
 N134 N 1.09151 -0.19901 0.70481
 C135 C 1.11590 -0.22007 0.74342
 C136 C 1.17146 -0.21888 0.74821
 N137 N 1.19972 -0.19757 0.71319
 N138 N 1.20388 -0.15346 0.64120
 C139 C 1.17948 -0.12821 0.60513
 C140 C 1.12401 -0.12596 0.60253
 N141 N 1.09562 -0.15138 0.63492
 H142 H 1.09209 -0.23476 0.77141
 H143 H 1.20319 -0.10810 0.58016
 C144 C 0.30483 1.17214 1.15441
 C145 C 0.28422 1.12493 1.13931
 N146 N 0.23631 1.10966 1.15425
 C147 C 0.20790 1.13952 1.18342
 C148 C 0.22790 1.18722 1.19789
 N149 N 0.27598 1.20248 1.18276
 N150 N 0.35342 1.18676 1.14054
 C151 C 0.38237 1.15635 1.11229
 C152 C 0.36144 1.10948 1.09633
 N153 N 0.31266 1.09497 1.11031
 H154 H 0.16948 1.12680 1.19433
 H155 H 0.42112 1.16886 1.10198
 C156 C 0.31211 0.83253 0.85393
 C157 C 0.29049 0.87919 0.86579
 N158 N 0.23999 0.88910 0.85166
 C159 C 0.20989 0.85424 0.82657
 C160 C 0.23105 0.80719 0.81539
 N161 N 0.28192 0.79751 0.82921
 N162 N 0.36272 0.82280 0.86789
 C163 C 0.39277 0.85763 0.89315
 C164 C 0.37110 0.90423 0.90539
 N165 N 0.32033 0.91383 0.89129
 H166 H 0.16938 0.86257 0.81638
 H167 H 0.43314 0.84897 0.90360
 C168 C 0.68494 0.85441 1.13293
 C169 C 0.67218 0.89959 1.15609
 N170 N 0.70071 0.91508 1.19600
 C171 C 0.74215 0.88801 1.21322
 C172 C 0.75634 0.84353 1.18898
 N173 N 0.72642 0.82772 1.14980
 N174 N 0.65797 0.83960 1.09207
 C175 C 0.61975 0.86868 1.07241
 C176 C 0.60811 0.91491 1.09441
 N177 N 0.63418 0.92896 1.13627
 H178 H 0.76459 0.90205 1.24451
 H179 H 0.60016 0.85682 1.03884
 C180 C 0.67379 1.16637 0.84892
 C181 C 0.64276 1.13005 0.82330
 N182 N 0.65369 1.11884 0.77712
 C183 C 0.69554 1.14073 0.75603
 C184 C 0.72954 1.17409 0.78289
 N185 N 0.71655 1.18698 0.82844
 N186 N 0.66345 1.17728 0.89524
 C187 C 0.62503 1.15193 0.91784
 C188 C 0.59663 1.11264 0.89354
 N189 N 0.60541 1.10351 0.84629
 H190 H 0.70376 1.13018 0.71947
 H191 H 0.61908 1.16021 0.95534
 C192 C 0.14979 0.30641 0.13236
 C193 C 0.12828 0.34531 0.15973
 N194 N 0.13413 0.34490 0.20826
 C195 C 0.15906 0.30654 0.23062
 C196 C 0.17779 0.26595 0.20329
 N197 N 0.17358 0.26775 0.15464
 N198 N 0.14339 0.30603 0.08402
 C199 C 0.11546 0.34222 0.06165
 C200 C 0.09201 0.38039 0.08882
 N201 N 0.09942 0.38120 0.13745
 H202 H 0.16246 0.30672 0.26936
 H203 H 0.10926 0.33942 0.02319
 C204 C -0.17480 0.29917 -0.15990
 C205 C -0.12395 0.28445 -0.14498
 N206 N -0.10504 0.24014 -0.16078
 C207 C -0.13470 0.20948 -0.19077
 C208 C -0.18621 0.22337 -0.20554
 N209 N -0.20503 0.26816 -0.18950
 N210 N -0.19298 0.34418 -0.14441
 C211 C -0.16253 0.37500 -0.11469
 C212 C -0.11190 0.35976 -0.09928
 N213 N -0.09404 0.31477 -0.11499
 H214 H -0.11852 0.17403 -0.20193
 H215 H -0.17773 0.41079 -0.10310
 C216 C 0.12878 0.65170 -0.17615
 C217 C 0.14335 0.64822 -0.12745
 N218 N 0.17861 0.68155 -0.10692
 C219 C 0.19904 0.71939 -0.13245
 C220 C 0.18297 0.72478 -0.18103
 N221 N 0.14902 0.68967 -0.20179
 N222 N 0.09141 0.61959 -0.19591
 C223 C 0.06676 0.58523 -0.16867
 C224 C 0.07975 0.58340 -0.11935
 N225 N 0.11855 0.61442 -0.10037
 H226 H 0.22570 0.74597 -0.11402
 H227 H 0.03571 0.56137 -0.18482
 C228 C -0.15050 0.69588 0.15637
 C229 C -0.12956 0.70949 0.11246
 N230 N -0.13414 0.75749 0.09779
 C231 C -0.15804 0.79250 0.12538
 C232 C -0.17726 0.77912 0.17002
 N233 N -0.17309 0.73101 0.18435
 N234 N -0.14654 0.64807 0.17110
 C235 C -0.12184 0.61321 0.14438
 C236 C -0.09891 0.62686 0.10120
 N237 N -0.10363 0.67488 0.08608
 H238 H -0.16047 0.83079 0.11354
 H239 H -0.11873 0.57552 0.15771
 C240 C 1.17976 0.13876 0.69261
 C241 C 1.12568 0.12741 0.69585
 N242 N 1.09790 0.15037 0.73042
 C243 C 1.12162 0.18415 0.76187
 C244 C 1.17623 0.19547 0.75918
 N245 N 1.20370 0.17174 0.72446
 N246 N 1.20750 0.11683 0.65750
 C247 C 1.18359 0.08420 0.62523
 C248 C 1.12957 0.07222 0.62853
 N249 N 1.10179 0.09406 0.66404
 H250 H 1.09855 0.20058 0.78985
 H251 H 1.20661 0.06754 0.59731
 C252 C 0.82508 -0.13411 0.67787
 C253 C 0.87499 -0.15098 0.66553
 N254 N 0.89841 -0.18755 0.69142
 C255 C 0.87475 -0.20726 0.72991
 C256 C 0.82572 -0.18868 0.74404
 N257 N 0.80191 -0.15301 0.71678
 N258 N 0.80164 -0.09744 0.65211
 C259 C 0.82631 -0.07622 0.61493
 C260 C 0.87715 -0.09179 0.60349
 N261 N 0.90009 -0.12918 0.62900
 H262 H 0.89504 -0.23575 0.75009
 H263 H 0.80719 -0.04636 0.59561
 C264 C 1.17855 -0.14405 0.31658
 C265 C 1.12354 -0.13840 0.31313
 N266 N 1.09577 -0.15896 0.27485
 C267 C 1.12073 -0.18327 0.23899
 C268 C 1.17649 -0.18515 0.24029
 N269 N 1.20363 -0.16632 0.27998
 N270 N 1.20648 -0.12443 0.35508
 C271 C 1.18202 -0.09850 0.38999
 C272 C 1.12740 -0.09028 0.38545
 N273 N 1.09919 -0.11084 0.34718
 H274 H 1.09767 -0.19712 0.20792
 H275 H 1.20535 -0.08269 0.42008
 C276 C 0.83379 0.11883 0.32397
 C277 C 0.87512 0.14342 0.35022
 N278 N 0.89035 0.19025 0.33802
 C279 C 0.86716 0.21316 0.29984
 C280 C 0.82764 0.18753 0.27110
 N281 N 0.81161 0.14106 0.28505
 N282 N 0.81780 0.07231 0.33672
 C283 C 0.84208 0.04885 0.37408
 C284 C 0.88515 0.07249 0.39906
 N285 N 0.90037 0.11952 0.38664
 H286 H 0.87996 0.25084 0.29180
 H287 H 0.82939 0.01129 0.38279
 C288 C 0.16233 0.32927 -0.12945
 C289 C 0.12265 0.35124 -0.15789
 N290 N 0.11353 0.33429 -0.20361
 C291 C 0.14113 0.29531 -0.22169
 C292 C 0.17850 0.27020 -0.19208
 N293 N 0.18821 0.28906 -0.14674
 N294 N 0.17257 0.34685 -0.08410
 C295 C 0.14304 0.38381 -0.06507
 C296 C 0.09979 0.40249 -0.09181
 N297 N 0.09152 0.38665 -0.13825
 H298 H 0.13315 0.28344 -0.25858
 H299 H 0.15118 0.39623 -0.02836
 C300 C -0.16370 0.31058 0.15181
 C301 C -0.10983 0.30369 0.14444
 N302 N -0.08404 0.26619 0.16694
 C303 C -0.10967 0.23505 0.19655
 C304 C -0.16419 0.24110 0.20362
 N305 N -0.18967 0.27877 0.18035
 N306 N -0.18912 0.34914 0.13053
 C307 C -0.16294 0.38128 0.10220
 C308 C -0.10929 0.37374 0.09392
 N309 N -0.08402 0.33501 0.11529
 H310 H -0.08830 0.20445 0.21254
 H311 H -0.18375 0.41220 0.08612
 C312 C -0.16942 0.67832 -0.15084
 C313 C -0.12759 0.69376 -0.11933
 N314 N -0.10969 0.74193 -0.11905
 C315 C -0.13168 0.77568 -0.14908
 C316 C -0.17326 0.76061 -0.18108
 N317 N -0.19161 0.71217 -0.18111
 N318 N -0.18623 0.62953 -0.15119
 C319 C -0.16240 0.59539 -0.12207
 C320 C -0.11963 0.61080 -0.09135
 N321 N -0.10392 0.65985 -0.09078
 H322 H -0.11689 0.81399 -0.14822
 H323 H -0.17542 0.55653 -0.12413
 C324 C 0.14378 0.67925 0.17139
 C325 C 0.14925 0.67615 0.12180
 N326 N 0.17340 0.71405 0.09916
 C327 C 0.19263 0.75529 0.12372
 C328 C 0.18750 0.75938 0.17397
 N329 N 0.16271 0.72064 0.19619
 N330 N 0.11699 0.64213 0.19341
 C331 C 0.09411 0.60282 0.16771
 C332 C 0.09768 0.60091 0.11755
 N333 N 0.12601 0.63754 0.09631
 H334 H 0.20828 0.78567 0.10330
 H335 H 0.07094 0.57513 0.18586
 C336 C 0.30285 1.13919 0.83190
 C337 C 0.33413 1.16857 0.86441
 N338 N 0.32492 1.21846 0.86838
 C339 C 0.28435 1.23978 0.84306
 C340 C 0.24883 1.20929 0.81402
 N341 N 0.26107 1.15983 0.80858
 N342 N 0.31336 1.08996 0.82535
 C343 C 0.35319 1.06835 0.85079
 C344 C 0.38266 1.09672 0.88578
 N345 N 0.37265 1.14656 0.89173
 H346 H 0.28083 1.28002 0.84557
 H347 H 0.35978 1.02860 0.84564
 C348 C 0.31749 0.84880 1.13736
 C349 C 0.31838 0.89960 1.15140
 N350 N 0.28229 0.91674 1.18197
 C351 C 0.24487 0.88566 1.19908
 C352 C 0.24305 0.83399 1.18534
 N353 N 0.28055 0.81728 1.15502
 N354 N 0.35133 0.83255 1.10390
 C355 C 0.38538 0.86509 1.08343
 C356 C 0.38616 0.91597 1.09762
 N357 N 0.35271 0.93185 1.13149
 H358 H 0.21535 0.90216 1.22120
 H359 H 0.41076 0.85170 1.05572
 C360 C 0.71428 1.16407 1.13504
 C361 C 0.67263 1.14494 1.16122
 N362 N 0.67516 1.14925 1.20981
 C363 C 0.71810 1.17068 1.23351
 C364 C 0.76102 1.18864 1.20739
 N365 N 0.75675 1.18557 1.15854
 N366 N 0.71335 1.15799 1.08669
 C367 C 0.67293 1.13267 1.06324
 C368 C 0.63138 1.11292 1.08926
 N369 N 0.63190 1.11986 1.13777
 H370 H 0.71832 1.17414 1.27218
 H371 H 0.67392 1.12675 1.02482
 C372 C 0.68974 0.85160 0.84877
 C373 C 0.71040 0.89924 0.86245
 N374 N 0.75985 0.91265 0.85014
 C375 C 0.78979 0.88046 0.82493
 C376 C 0.76965 0.83245 0.81184
 N377 N 0.72001 0.81901 0.82426
 N378 N 0.63988 0.83868 0.86052
 C379 C 0.60984 0.87114 0.88555
 C380 C 0.63094 0.91837 0.90016
 N381 N 0.68081 0.93123 0.88810
 H382 H 0.82941 0.89165 0.81594
 H383 H 0.57026 0.85985 0.89458
   
