data_POSCAR
  _audit_creation_date              2014-09-24
  _audit_creation_method            'ToBaCCo'
  _symmetry_space_group_name_H-M    'P1'
  _symmetry_Int_Tables_number       1
  _symmetry_cell_setting            triclinic
  loop_
  _symmetry_equiv_pos_as_xyz
 x,y,z
_cell_length_a 40.7456
_cell_length_b 40.6166
_cell_length_c 40.6150
_cell_angle_alpha 89.998900
_cell_angle_beta 89.931400
_cell_angle_gamma 89.940900
loop_
  _atom_site_label
  _atom_site_type_symbol
  _atom_site_fract_x
  _atom_site_fract_y
  _atom_site_fract_z
C1 C 0.18991 1.23313 0.19063
 C2 C 0.17567 1.21924 0.21884
 C3 C 0.18956 1.19108 0.23318
 C4 C 0.21776 1.17691 0.21934
 C5 C 0.23201 1.19077 0.19117
 C6 C 0.21812 1.21889 0.17685
 H7 H 0.15356 1.22997 0.22926
 H8 H 0.22831 1.15485 0.23009
 H9 H 0.22894 1.22929 0.15475
 C10 C 0.81011 0.76592 0.19055
 C11 C 0.78190 0.77987 0.17654
 C12 C 0.76772 0.80800 0.19060
 C13 C 0.78170 0.82216 0.21873
 C14 C 0.80989 0.80826 0.23277
 C15 C 0.82405 0.78012 0.21871
 H16 H 0.77129 0.76924 0.15447
 H17 H 0.77102 0.84422 0.22933
 H18 H 0.84616 0.76970 0.22936
 C19 C 0.80983 1.23320 -0.19029
 C20 C 0.82380 1.21907 -0.21853
 C21 C 0.80970 1.19093 -0.23262
 C22 C 0.78154 1.17699 -0.21849
 C23 C 0.76756 1.19109 -0.19028
 C24 C 0.78167 1.21920 -0.17622
 H25 H 0.84587 1.22961 -0.22918
 H26 H 0.77082 1.15494 -0.22904
 H27 H 0.77105 1.22978 -0.15410
 C28 C 0.19050 0.76776 -0.19200
 C29 C 0.17646 0.78201 -0.22008
 C30 C 0.19049 0.81026 -0.23407
 C31 C 0.21865 0.82416 -0.21997
 C32 C 0.23269 0.80991 -0.19189
 C33 C 0.21863 0.78169 -0.17795
 H34 H 0.15440 0.77145 -0.23063
 H35 H 0.22931 0.84629 -0.23043
 H36 H 0.22921 0.77095 -0.15594
 C37 C 0.55017 1.04516 -0.00958
 H38 H 0.55086 1.04499 0.01705
 C39 C 0.57258 1.06424 -0.02723
 H40 H 0.59055 1.07894 -0.01421
 C41 C 0.52660 1.02544 -0.05918
 H42 H 0.50913 1.00976 -0.07153
 C43 C 0.54861 1.04416 -0.07779
 H44 H 0.54782 1.04307 -0.10443
 N45 N 0.52769 1.02639 -0.02568
 C46 C 0.44979 1.00951 0.04604
 H47 H 0.44908 0.98288 0.04589
 C48 C 0.42736 1.02720 0.06512
 H49 H 0.40935 1.01420 0.07983
 C50 C 0.47343 1.05908 0.02626
 H51 H 0.49094 1.07141 0.01055
 C52 C 0.45140 1.07772 0.04497
 H53 H 0.45221 1.10435 0.04385
 Zn54 Zn 0.50000 0.99953 0.00034
 N55 N 0.47231 1.02559 0.02724
 C56 C 0.52648 0.97357 0.05985
 N57 N 0.52763 0.97261 0.02636
 C58 C 0.55015 0.95379 0.01024
 C59 C 0.57254 0.93468 0.02789
 C60 C 0.54847 0.95482 0.07846
 C61 C 0.44989 0.98969 -0.04534
 C62 C 0.42751 0.97208 -0.06445
 C63 C 0.45151 0.92148 -0.04436
 C64 C 0.47348 0.94005 -0.02561
 N65 N 0.47236 0.97354 -0.02655
 H66 H 0.50898 0.98928 0.07222
 H67 H 0.55088 0.95395 -0.01639
 H68 H 0.59054 0.91996 0.01486
 H69 H 0.54765 0.95593 0.10510
 H70 H 0.44918 1.01632 -0.04515
 H71 H 0.40955 0.98513 -0.07915
 H72 H 0.45232 0.89484 -0.04329
 H73 H 0.49095 0.92767 -0.00992
 C74 C 0.42812 1.06160 0.06449
 C75 C 0.57185 1.06365 -0.06164
 C76 C 0.42828 0.93767 -0.06387
 C77 C 0.57175 0.93529 0.06230
 C78 C -0.00980 0.54988 1.04517
 H79 H 0.01674 0.55061 1.04504
 C80 C -0.02749 0.57233 1.06424
 H81 H -0.01458 0.59038 1.07897
 C82 C -0.05915 0.52615 1.02533
 H83 H -0.07139 0.50859 1.00962
 C84 C -0.07779 0.54819 1.04405
 H85 H -0.10434 0.54735 1.04292
 N86 N -0.02577 0.52729 1.02634
 C87 C 0.04587 0.44922 1.00960
 H88 H 0.04580 0.44848 0.98297
 C89 C 0.06486 0.42677 1.02733
 H90 H 0.07960 0.40872 1.01436
 C91 C 0.02595 0.47296 1.05912
 H92 H 0.01024 0.49051 1.07142
 C93 C 0.04458 0.45092 1.07781
 H94 H 0.04339 0.45176 1.10444
 Zn95 Zn 0.00029 0.49953 0.99953
 N96 N 0.02704 0.47180 1.02563
 C97 C 0.05968 0.52614 0.97370
 N98 N 0.02630 0.52727 0.97268
 C99 C 0.01028 0.54983 0.95384
 C100 C 0.02792 0.57229 0.93476
 C101 C 0.07827 0.54819 0.95499
 C102 C -0.04516 0.44921 0.98954
 C103 C -0.06415 0.42676 0.97185
 C104 C -0.04398 0.45085 0.92133
 C105 C -0.02535 0.47290 0.93997
 N106 N -0.02639 0.47177 0.97346
 H107 H 0.07196 0.50860 0.98943
 H108 H -0.01627 0.55055 0.95395
 H109 H 0.01496 0.59032 0.92002
 H110 H 0.10482 0.54737 0.95613
 H111 H -0.04507 0.44849 1.01617
 H112 H -0.07885 0.40873 0.98486
 H113 H -0.04283 0.45168 0.89469
 H114 H -0.00968 0.49044 0.92763
 C115 C 0.06413 0.42758 1.06174
 C116 C -0.06179 0.57153 1.06359
 C117 C -0.06347 0.42754 0.93745
 C118 C 0.06221 0.57152 0.93543
 C119 C 1.04528 -0.00909 0.55039
 H120 H 1.04514 0.01754 0.55113
 C121 C 1.06434 -0.02680 0.57279
 H122 H 1.07904 -0.01382 0.59081
 C123 C 1.02553 -0.05863 0.52669
 H124 H 1.00985 -0.07094 0.50917
 C125 C 1.04422 -0.07729 0.54869
 H126 H 1.04312 -0.10393 0.54784
 N127 N 1.02651 -0.02514 0.52784
 C128 C 1.00962 0.04664 0.44983
 H129 H 0.98308 0.04653 0.44915
 C130 C 1.02724 0.06569 0.42733
 H131 H 1.01427 0.08044 0.40931
 C132 C 1.05905 0.02676 0.47344
 H133 H 1.07135 0.01102 0.49096
 C134 C 1.07762 0.04545 0.45135
 H135 H 1.10417 0.04429 0.45212
 Zn136 Zn 0.99971 0.00095 0.50016
 N137 N 1.02566 0.02779 0.47237
 C138 C 0.97393 0.06051 0.52684
 N139 N 0.97295 0.02702 0.52796
 C140 C 0.95421 0.01094 0.55057
 C141 C 0.93521 0.02863 0.57308
 C142 C 0.95529 0.07915 0.54894
 C143 C 0.98976 -0.04470 0.44984
 C144 C 0.97214 -0.06381 0.42744
 C145 C 0.92177 -0.04365 0.45166
 C146 C 0.94034 -0.02491 0.47366
 N147 N 0.97373 -0.02589 0.47245
 H148 H 0.98957 0.07284 0.50927
 H149 H 0.95436 -0.01569 0.55128
 H150 H 0.92055 0.01563 0.59115
 H151 H 0.95640 0.10579 0.54813
 H152 H 1.01630 -0.04455 0.44906
 H153 H 0.98510 -0.07854 0.40938
 H154 H 0.89522 -0.04255 0.45256
 H155 H 0.92805 -0.00920 0.49123
 C156 C 1.06154 0.06501 0.42805
 C157 C 1.06372 -0.06121 0.57198
 C158 C 0.93784 -0.06319 0.42830
 C159 C 0.93584 0.06304 0.57231
 C160 C 0.14648 0.30937 1.14589
 N161 N 0.11856 0.32259 1.15843
 N162 N 0.10301 0.34667 1.14249
 C163 C 0.11492 0.35825 1.11353
 N164 N 0.14287 0.34507 1.10101
 N165 N 0.15842 0.32099 1.11695
 C166 C 0.16246 0.28253 1.16234
 C167 C 0.17553 0.25954 1.17580
 C168 C 0.09745 0.38321 1.09570
 C169 C 0.08244 0.40370 1.08039
 C170 C -0.14556 0.68968 1.14660
 N171 N -0.15774 0.67707 1.11822
 N172 N -0.14191 0.65300 1.10252
 C173 C -0.11340 0.64082 1.11473
 N174 N -0.10124 0.65340 1.14314
 N175 N -0.11708 0.67747 1.15884
 C176 C -0.16188 0.71652 1.16276
 C177 C -0.17521 0.73951 1.17598
 C178 C -0.09565 0.61587 1.09713
 C179 C -0.08040 0.59539 1.08201
 C180 C -0.14621 0.30941 0.85382
 N181 N -0.11763 0.32159 0.84177
 N182 N -0.10197 0.34565 0.85757
 C183 C -0.11441 0.35826 0.88588
 N184 N -0.14302 0.34611 0.89790
 N185 N -0.15868 0.32205 0.88210
 C186 C -0.16236 0.28258 0.83756
 C187 C -0.17559 0.25960 0.82429
 C188 C -0.09687 0.38320 0.90361
 C189 C -0.08181 0.40368 0.91885
 C190 C 0.14564 0.68986 0.85259
 N191 N 0.11720 0.67763 0.84033
 N192 N 0.10144 0.65351 0.85598
 C193 C 0.11364 0.64090 0.88437
 N194 N 0.14210 0.65309 0.89660
 N195 N 0.15786 0.67721 0.88095
 C196 C 0.16187 0.71674 0.83648
 C197 C 0.17513 0.73977 0.82330
 C198 C 0.09596 0.61591 0.90194
 C199 C 0.08076 0.59540 0.91703
 C200 C 1.14513 0.14759 0.30958
 N201 N 1.11624 0.15949 0.32122
 N202 N 1.10042 0.14391 0.34535
 C203 C 1.11299 0.11596 0.35857
 N204 N 1.14191 0.10409 0.34697
 N205 N 1.15773 0.11967 0.32284
 C206 C 1.16146 0.16360 0.28269
 C207 C 1.17483 0.17669 0.25965
 C208 C 1.09528 0.09844 0.38358
 C209 C 1.08007 0.08338 0.40412
 C210 C 1.14662 -0.14519 0.68987
 N211 N 1.11847 -0.15757 0.67710
 N212 N 1.10280 -0.14167 0.65309
 C213 C 1.11480 -0.11292 0.64112
 N214 N 1.14298 -0.10057 0.65386
 N215 N 1.15865 -0.11647 0.67787
 C216 C 1.16275 -0.16158 0.71665
 C217 C 1.17595 -0.17499 0.73958
 C218 C 1.09722 -0.09512 0.61623
 C219 C 1.08212 -0.07984 0.59579
 C220 C 0.85455 -0.14659 0.31040
 N221 N 0.88270 -0.15909 0.32311
 N222 N 0.89842 -0.14329 0.34713
 C223 C 0.88647 -0.11452 0.35917
 N224 N 0.85829 -0.10206 0.34650
 N225 N 0.84257 -0.11785 0.32248
 C226 C 0.83838 -0.16288 0.28361
 C227 C 0.82517 -0.17622 0.26067
 C228 C 0.90412 -0.09684 0.38407
 C229 C 0.91931 -0.08166 0.40450
 C230 C 0.85334 0.14672 0.69089
 N231 N 0.88162 0.15896 0.67824
 N232 N 0.89721 0.14315 0.65408
 C233 C 0.88499 0.11462 0.64184
 N234 N 0.85667 0.10241 0.65446
 N235 N 0.84108 0.11822 0.67862
 C236 C 0.83729 0.16300 0.71782
 C237 C 0.82416 0.17630 0.74088
 C238 C 0.90248 0.09689 0.61680
 C239 C 0.91751 0.08164 0.59625
 C240 C 0.30985 1.14547 0.14700
 N241 N 0.32309 1.15808 0.11907
 N242 N 0.34719 1.14221 0.10351
 C243 C 0.35877 1.11325 0.11541
 N244 N 0.34557 1.10066 0.14337
 N245 N 0.32147 1.11653 0.15893
 C246 C 0.28298 1.16184 0.16298
 C247 C 0.25998 1.17523 0.17603
 C248 C 0.38374 1.09548 0.09791
 C249 C 0.40424 1.08021 0.08286
 C250 C 0.68988 1.14652 -0.14526
 N251 N 0.67774 1.15868 -0.11662
 N252 N 0.65370 1.14303 -0.10081
 C253 C 0.64106 1.11473 -0.11317
 N254 N 0.65315 1.10260 -0.14183
 N255 N 0.67720 1.11825 -0.15764
 C256 C 0.71669 1.16263 -0.16154
 C257 C 0.73964 1.17580 -0.17485
 C258 C 0.61614 1.09716 -0.09545
 C259 C 0.59568 1.08206 -0.08022
 C260 C 0.31035 0.85447 -0.14701
 N261 N 0.32251 0.84234 -0.11840
 N262 N 0.34654 0.85804 -0.10267
 C263 C 0.35915 0.88634 -0.11509
 N264 N 0.34703 0.89843 -0.14373
 N265 N 0.32299 0.88274 -0.15946
 C266 C 0.28355 0.83833 -0.16322
 C267 C 0.26060 0.82516 -0.17648
 C268 C 0.38405 0.90397 -0.09745
 C269 C 0.40448 0.91914 -0.08232
 C270 C 0.68990 0.85248 0.14575
 N271 N 0.67716 0.88076 0.15814
 N272 N 0.65308 0.89639 0.14238
 C273 C 0.64101 0.88423 0.11375
 N274 N 0.65372 0.85592 0.10139
 N275 N 0.67780 0.84029 0.11716
 C276 C 0.71676 0.83641 0.16198
 C277 C 0.73976 0.82326 0.17524
 C278 C 0.61606 0.90179 0.09607
 C279 C 0.59559 0.91688 0.08086
   
