data_POSCAR
  _audit_creation_date              2014-09-24
  _audit_creation_method            'ToBaCCo'
  _symmetry_space_group_name_H-M    'P1'
  _symmetry_Int_Tables_number       1
  _symmetry_cell_setting            triclinic
  loop_
  _symmetry_equiv_pos_as_xyz
 x,y,z
_cell_length_a 58.4368
_cell_length_b 57.9962
_cell_length_c 57.6989
_cell_angle_alpha 89.677900
_cell_angle_beta 89.840000
_cell_angle_gamma 89.909100
loop_
  _atom_site_label
  _atom_site_type_symbol
  _atom_site_fract_x
  _atom_site_fract_y
  _atom_site_fract_z
N1 N 0.60066 0.66272 0.61554
 N2 N 0.59251 0.65406 0.63495
 C3 C 0.57419 0.66652 0.64159
 C4 C 0.57067 0.68401 0.62551
 C5 C 0.58787 0.68101 0.60921
 H6 H 0.56423 0.66315 0.65704
 H7 H 0.59078 0.69117 0.59373
 Cu8 Cu 0.60631 0.62718 0.64971
 Cu9 Cu 0.62713 0.64965 0.59989
 Cu10 Cu 0.65094 0.60048 0.62410
 N11 N 0.61939 0.59887 0.66226
 N12 N 0.63654 0.58835 0.65203
 C13 C 0.64182 0.56912 0.66403
 C14 C 0.62721 0.56737 0.68301
 C15 C 0.61321 0.58671 0.68121
 H16 H 0.65543 0.55746 0.65923
 H17 H 0.59934 0.59154 0.69260
 N18 N 0.66316 0.61533 0.59591
 N19 N 0.65399 0.63397 0.58659
 C20 C 0.66617 0.63997 0.56765
 C21 C 0.68396 0.62441 0.56494
 C22 C 0.68148 0.60903 0.58321
 H23 H 0.66262 0.65484 0.55687
 H24 H 0.69217 0.59426 0.58693
 H25 H 0.62159 0.61643 0.61192
 H26 H 0.64193 0.63465 0.62878
 N27 N 0.90127 0.33753 0.11490
 N28 N 0.91116 0.34776 0.13247
 C29 C 0.93008 0.33585 0.13839
 C30 C 0.93220 0.31696 0.12380
 C31 C 0.91345 0.31871 0.10911
 H32 H 0.94128 0.34056 0.15244
 H33 H 0.90896 0.30737 0.09506
 Cu34 Cu 0.89804 0.37543 0.14608
 Cu35 Cu 0.87357 0.34958 0.10049
 Cu36 Cu 0.85049 0.39946 0.12391
 N37 N 0.88499 0.40344 0.15906
 N38 N 0.86641 0.41273 0.15027
 C39 C 0.86089 0.43166 0.16247
 C40 C 0.87685 0.43443 0.17995
 C41 C 0.89191 0.41614 0.17720
 H42 H 0.84612 0.44237 0.15904
 H43 H 0.90683 0.41239 0.18759
 N44 N 0.83692 0.38344 0.09724
 N45 N 0.84567 0.36446 0.08835
 C46 C 0.83271 0.35787 0.07030
 C47 C 0.81489 0.37343 0.06766
 C48 C 0.81814 0.38940 0.08510
 H49 H 0.83598 0.34279 0.05990
 H50 H 0.80779 0.40445 0.08853
 H51 H 0.87883 0.38359 0.10950
 H52 H 0.86089 0.36585 0.12959
 N53 N 0.40098 0.16237 -0.11639
 N54 N 0.40981 0.15302 -0.13508
 C55 C 0.42850 0.16507 -0.14149
 C56 C 0.43155 0.18300 -0.12601
 C57 C 0.41369 0.18068 -0.11031
 H58 H 0.43899 0.16116 -0.15641
 H59 H 0.41025 0.19135 -0.09540
 Cu60 Cu 0.39607 0.12599 -0.14920
 Cu61 Cu 0.37376 0.15010 -0.10125
 Cu62 Cu 0.34951 0.10130 -0.12528
 N63 N 0.38254 0.09825 -0.16210
 N64 N 0.36439 0.08869 -0.15265
 C65 C 0.35866 0.06986 -0.16485
 C66 C 0.37405 0.06740 -0.18300
 C67 C 0.38898 0.08579 -0.18064
 H68 H 0.34422 0.05891 -0.16084
 H69 H 0.40358 0.08973 -0.19149
 N70 N 0.33695 0.11660 -0.09761
 N71 N 0.34620 0.13516 -0.08844
 C72 C 0.33380 0.14143 -0.06980
 C73 C 0.31582 0.12611 -0.06704
 C74 C 0.31842 0.11060 -0.08505
 H75 H 0.33750 0.15621 -0.05914
 H76 H 0.30771 0.09589 -0.08864
 H77 H 0.37861 0.11646 -0.11195
 H78 H 0.35976 0.13505 -0.13032
 N79 N 0.09880 0.83696 0.38614
 N80 N 0.08842 0.84778 0.36911
 C81 C 0.06967 0.83579 0.36306
 C82 C 0.06813 0.81625 0.37705
 C83 C 0.08708 0.81768 0.39149
 H84 H 0.05819 0.84091 0.34933
 H85 H 0.09201 0.80581 0.40507
 Cu86 Cu 0.10047 0.87631 0.35602
 Cu87 Cu 0.12643 0.84887 0.40044
 Cu88 Cu 0.14944 0.89873 0.37685
 N89 N 0.11456 0.90353 0.34225
 N90 N 0.13362 0.91221 0.35044
 C91 C 0.13958 0.93072 0.33764
 C92 C 0.12342 0.93385 0.32036
 C93 C 0.10779 0.91621 0.32387
 H94 H 0.15476 0.94091 0.34052
 H95 H 0.09259 0.91285 0.31383
 N96 N 0.16299 0.88259 0.40361
 N97 N 0.15426 0.86357 0.41258
 C98 C 0.16716 0.85690 0.43074
 C99 C 0.18492 0.87245 0.43336
 C100 C 0.18169 0.88850 0.41579
 H101 H 0.16385 0.84179 0.44125
 H102 H 0.19198 0.90359 0.41232
 H103 H 0.12125 0.88315 0.39198
 H104 H 0.13803 0.86552 0.37086
 C105 C 0.10679 0.14276 0.12539
 N106 N 0.12370 0.14295 0.10918
 C107 C 0.14022 0.12642 0.10917
 N108 N 0.13972 0.10964 0.12569
 C109 C 0.12297 0.10921 0.14206
 N110 N 0.10654 0.12582 0.14175
 C111 C 0.39342 0.85744 0.62567
 N112 N 0.39313 0.87416 0.64207
 C113 C 0.37652 0.89059 0.64214
 N114 N 0.36008 0.89015 0.62555
 C115 C 0.36010 0.87357 0.60901
 N116 N 0.37684 0.85727 0.60921
 C117 C 0.89427 0.64190 0.37421
 N118 N 0.87726 0.64198 0.39031
 C119 C 0.86051 0.62576 0.38999
 N120 N 0.86088 0.60937 0.37326
 C121 C 0.87776 0.60902 0.35702
 N122 N 0.89440 0.62534 0.35764
 C123 C 0.60784 0.35681 -0.12593
 N124 N 0.60810 0.37359 -0.14247
 C125 C 0.62415 0.39051 -0.14214
 N126 N 0.64009 0.39051 -0.12505
 C127 C 0.64014 0.37382 -0.10842
 N128 N 0.62394 0.35706 -0.10898
 C129 C -0.01596 0.26549 0.12412
 C130 C -0.01469 0.28436 0.13916
 C131 C -0.03177 0.30126 0.13915
 C132 C -0.05054 0.29986 0.12389
 C133 C -0.05160 0.28088 0.10873
 C134 C -0.03460 0.26391 0.10895
 C135 C 0.00208 0.24749 0.12428
 C136 C -0.00380 0.22402 0.12366
 C137 C 0.01320 0.20704 0.12395
 C138 C 0.03643 0.21320 0.12463
 C139 C 0.04232 0.23667 0.12513
 C140 C 0.02531 0.25364 0.12507
 C141 C 0.05446 0.19518 0.12484
 C142 C 0.07398 0.19741 0.11075
 C143 C 0.09092 0.18037 0.11085
 C144 C 0.08880 0.16081 0.12521
 C145 C 0.06930 0.15867 0.13940
 C146 C 0.05228 0.17562 0.13913
 H147 H -0.00060 0.28589 0.15120
 H148 H -0.02997 0.31540 0.15111
 H149 H -0.06556 0.27883 0.09669
 H150 H -0.03589 0.24963 0.09700
 H151 H -0.02158 0.21880 0.12324
 H152 H 0.00819 0.18909 0.12336
 H153 H 0.06009 0.24188 0.12586
 H154 H 0.03033 0.27161 0.12537
 H155 H 0.07599 0.21222 0.09941
 H156 H 0.10571 0.18258 0.09972
 H157 H 0.06710 0.14383 0.15065
 H158 H 0.03751 0.17358 0.15034
 C159 C 0.51771 0.73594 0.62574
 C160 C 0.53654 0.73785 0.61067
 C161 C 0.55370 0.72104 0.61060
 C162 C 0.55245 0.70190 0.62562
 C163 C 0.53361 0.70003 0.64072
 C164 C 0.51645 0.71684 0.64077
 C165 C 0.49944 0.75379 0.62576
 C166 C 0.48968 0.76130 0.64670
 C167 C 0.47250 0.77809 0.64670
 C168 C 0.46466 0.78774 0.62577
 C169 C 0.47442 0.78022 0.60484
 C170 C 0.49161 0.76345 0.60483
 C171 C 0.44639 0.80558 0.62577
 C172 C 0.42901 0.80527 0.60900
 C173 C 0.41183 0.82207 0.60897
 C174 C 0.41163 0.83959 0.62572
 C175 C 0.42903 0.83987 0.64251
 C176 C 0.44619 0.82306 0.64254
 H177 H 0.53819 0.75255 0.59912
 H178 H 0.56804 0.72327 0.59891
 H179 H 0.53188 0.68545 0.65236
 H180 H 0.50198 0.71470 0.65235
 H181 H 0.49550 0.75436 0.66312
 H182 H 0.46516 0.78335 0.66310
 H183 H 0.46892 0.78749 0.58844
 H184 H 0.49861 0.75785 0.58840
 H185 H 0.42851 0.79184 0.59604
 H186 H 0.39868 0.82125 0.59582
 H187 H 0.42947 0.85313 0.65564
 H188 H 0.45952 0.82395 0.65550
 C189 C 1.01696 0.76430 0.37617
 C190 C 1.01526 0.78367 0.36162
 C191 C 1.03214 0.80071 0.36179
 C192 C 1.05116 0.79894 0.37671
 C193 C 1.05270 0.77941 0.39132
 C194 C 1.03588 0.76231 0.39096
 C195 C 0.99901 0.74625 0.37597
 C196 C 1.00501 0.72278 0.37605
 C197 C 0.98808 0.70578 0.37574
 C198 C 0.96481 0.71192 0.37556
 C199 C 0.95882 0.73539 0.37558
 C200 C 0.97574 0.75238 0.37568
 C201 C 0.94683 0.69390 0.37531
 C202 C 0.92747 0.69581 0.38966
 C203 C 0.91049 0.67887 0.38941
 C204 C 0.91241 0.65974 0.37465
 C205 C 0.93179 0.65788 0.36028
 C206 C 0.94885 0.67473 0.36068
 H207 H 1.00095 0.78553 0.34986
 H208 H 1.02998 0.81526 0.35022
 H209 H 1.06688 0.77705 0.40309
 H210 H 1.03751 0.74763 0.40253
 H211 H 1.02281 0.71757 0.37608
 H212 H 0.99317 0.68782 0.37592
 H213 H 0.94102 0.74060 0.37524
 H214 H 0.97064 0.77034 0.37581
 H215 H 0.92558 0.71029 0.40128
 H216 H 0.89580 0.68086 0.40071
 H217 H 0.93383 0.64337 0.34872
 H218 H 0.96350 0.67295 0.34928
 C219 C 0.48478 0.23449 -0.12636
 C220 C 0.48638 0.21506 -0.14072
 C221 C 0.46914 0.19838 -0.14062
 C222 C 0.44987 0.20073 -0.12616
 C223 C 0.44829 0.22020 -0.11183
 C224 C 0.46553 0.23687 -0.11193
 C225 C 0.50311 0.25220 -0.12642
 C226 C 0.51037 0.26223 -0.10558
 C227 C 0.52753 0.27898 -0.10562
 C228 C 0.53782 0.28612 -0.12650
 C229 C 0.53059 0.27606 -0.14734
 C230 C 0.51345 0.25928 -0.14730
 C231 C 0.55593 0.30406 -0.12654
 C232 C 0.55636 0.32130 -0.14374
 C233 C 0.57324 0.33835 -0.14360
 C234 C 0.59010 0.33855 -0.12626
 C235 C 0.58972 0.32121 -0.10913
 C236 C 0.57284 0.30418 -0.10926
 H237 H 0.50116 0.21257 -0.15179
 H238 H 0.47113 0.18355 -0.15172
 H239 H 0.43364 0.22280 -0.10065
 H240 H 0.46362 0.25182 -0.10093
 H241 H 0.50292 0.25697 -0.08918
 H242 H 0.53255 0.28658 -0.08931
 H243 H 0.53834 0.28102 -0.16369
 H244 H 0.50808 0.25204 -0.16366
 H245 H 0.54340 0.32185 -0.15711
 H246 H 0.57295 0.35146 -0.15704
 H247 H 0.60247 0.32076 -0.09555
 H248 H 0.57315 0.29094 -0.09596
 C249 C 0.12275 -0.01381 0.26693
 C250 C 0.10825 -0.03305 0.26553
 C251 C 0.10842 -0.04998 0.28286
 C252 C 0.12311 -0.04809 0.30202
 C253 C 0.13757 -0.02879 0.30343
 C254 C 0.13738 -0.01186 0.28610
 C255 C 0.12267 0.00413 0.24845
 C256 C 0.14327 0.01406 0.24072
 C257 C 0.14322 0.03095 0.22336
 C258 C 0.12255 0.03832 0.21331
 C259 C 0.10195 0.02839 0.22103
 C260 C 0.10201 0.01148 0.23839
 C261 C 0.12251 0.05635 0.19492
 C262 C 0.10566 0.07366 0.19467
 C263 C 0.10575 0.09075 0.17749
 C264 C 0.12270 0.09093 0.16015
 C265 C 0.13950 0.07353 0.16035
 C266 C 0.13940 0.05645 0.17753
 H267 H 0.09702 -0.03522 0.25081
 H268 H 0.09722 -0.06467 0.28101
 H269 H 0.14892 -0.02655 0.31801
 H270 H 0.14850 0.00294 0.28788
 H271 H 0.15949 0.00859 0.24794
 H272 H 0.15935 0.03844 0.21797
 H273 H 0.08577 0.03352 0.21347
 H274 H 0.08584 0.00434 0.24412
 H275 H 0.09259 0.07423 0.20800
 H276 H 0.09258 0.10390 0.17793
 H277 H 0.15277 0.07307 0.14722
 H278 H 0.15242 0.04316 0.17705
 C279 C 0.62575 0.51493 -0.26528
 C280 C 0.64077 0.51332 -0.28421
 C281 C 0.64133 0.53060 -0.30119
 C282 C 0.62670 0.54993 -0.29980
 C283 C 0.61157 0.55133 -0.28076
 C284 C 0.61120 0.53412 -0.26371
 C285 C 0.62532 0.49666 -0.24720
 C286 C 0.62457 0.50249 -0.22361
 C287 C 0.62438 0.48527 -0.20656
 C288 C 0.62472 0.46188 -0.21276
 C289 C 0.62532 0.45605 -0.23636
 C290 C 0.62572 0.47327 -0.25340
 C291 C 0.62453 0.44362 -0.19467
 C292 C 0.61042 0.42419 -0.19695
 C293 C 0.61020 0.40700 -0.17987
 C294 C 0.62427 0.40878 -0.16022
 C295 C 0.63845 0.42821 -0.15801
 C296 C 0.63851 0.44548 -0.17501
 H297 H 0.65235 0.49880 -0.28574
 H298 H 0.65325 0.52852 -0.31537
 H299 H 0.60000 0.56572 -0.27871
 H300 H 0.59929 0.53568 -0.24939
 H301 H 0.62443 0.52038 -0.21834
 H302 H 0.62373 0.49025 -0.18851
 H303 H 0.62578 0.43816 -0.24162
 H304 H 0.62611 0.46829 -0.27146
 H305 H 0.59931 0.42243 -0.21183
 H306 H 0.59908 0.39228 -0.18213
 H307 H 0.64949 0.43015 -0.14311
 H308 H 0.64973 0.46016 -0.17292
 C309 C 0.37502 1.01443 0.76477
 C310 C 0.38894 1.03405 0.76251
 C311 C 0.38864 1.05120 0.77943
 C312 C 0.37442 1.04915 0.79904
 C313 C 0.36053 1.02948 0.80128
 C314 C 0.36082 1.01234 0.78435
 C315 C 0.37527 0.99624 0.74675
 C316 C 0.35481 0.98573 0.73968
 C317 C 0.35503 0.96863 0.72271
 C318 C 0.37573 0.96162 0.71245
 C319 C 0.39619 0.97212 0.71953
 C320 C 0.39596 0.98925 0.73647
 C321 C 0.37596 0.94344 0.69442
 C322 C 0.39315 0.92647 0.69425
 C323 C 0.39334 0.90933 0.67732
 C324 C 0.37634 0.90878 0.66012
 C325 C 0.35916 0.92578 0.66029
 C326 C 0.35897 0.94290 0.67724
 H327 H 0.39982 1.03633 0.74746
 H328 H 0.39941 1.06616 0.77692
 H329 H 0.34953 1.02710 0.81621
 H330 H 0.35015 0.99726 0.78677
 H331 H 0.33857 0.99090 0.74710
 H332 H 0.33901 0.96070 0.71781
 H333 H 0.41238 0.96727 0.71177
 H334 H 0.41204 0.99686 0.74170
 H335 H 0.40630 0.92625 0.70743
 H336 H 0.40680 0.89649 0.67778
 H337 H 0.34583 0.92594 0.64729
 H338 H 0.34567 0.95591 0.67672
 C339 C 0.87800 0.48719 0.23236
 C340 C 0.89201 0.46757 0.23437
 C341 C 0.89173 0.45053 0.21734
 C342 C 0.87741 0.45268 0.19789
 C343 C 0.86349 0.47239 0.19585
 C344 C 0.86379 0.48943 0.21288
 C345 C 0.87808 0.50516 0.25061
 C346 C 0.85753 0.51554 0.25781
 C347 C 0.85755 0.53235 0.27506
 C348 C 0.87814 0.53920 0.28550
 C349 C 0.89871 0.52886 0.27826
 C350 C 0.89868 0.51202 0.26102
 C351 C 0.87813 0.55702 0.30389
 C352 C 0.89527 0.57398 0.30448
 C353 C 0.89518 0.59082 0.32172
 C354 C 0.87795 0.59109 0.33879
 C355 C 0.86085 0.57407 0.33821
 C356 C 0.86094 0.55725 0.32097
 H357 H 0.90291 0.46518 0.24934
 H358 H 0.90252 0.43553 0.21968
 H359 H 0.85245 0.47484 0.18103
 H360 H 0.85307 0.50451 0.21065
 H361 H 0.84135 0.51045 0.25031
 H362 H 0.84146 0.54016 0.28008
 H363 H 0.91482 0.53360 0.28612
 H364 H 0.91482 0.50452 0.25568
 H365 H 0.90858 0.57445 0.29140
 H366 H 0.90859 0.60368 0.32159
 H367 H 0.84735 0.57368 0.35110
 H368 H 0.84768 0.54422 0.32117
 C369 C 0.26348 0.12648 -0.01413
 C370 C 0.26140 0.11227 -0.03365
 C371 C 0.27834 0.11216 -0.05079
 C372 C 0.29780 0.12625 -0.04884
 C373 C 0.29984 0.14048 -0.02929
 C374 C 0.28289 0.14059 -0.01216
 C375 C 0.24549 0.12656 0.00410
 C376 C 0.23848 0.14732 0.01440
 C377 C 0.22151 0.14739 0.03151
 C378 C 0.21118 0.12669 0.03875
 C379 C 0.21822 0.10592 0.02849
 C380 C 0.23516 0.10586 0.01135
 C381 C 0.19311 0.12674 0.05691
 C382 C 0.19260 0.10951 0.07412
 C383 C 0.17551 0.10945 0.09110
 C384 C 0.15850 0.12663 0.09128
 C385 C 0.15906 0.14391 0.07409
 C386 C 0.17618 0.14397 0.05712
 H387 H 0.24648 0.10146 -0.03585
 H388 H 0.27598 0.10116 -0.06567
 H389 H 0.31464 0.15139 -0.02699
 H390 H 0.28515 0.15148 0.00284
 H391 H 0.24595 0.16358 0.00902
 H392 H 0.21663 0.16364 0.03925
 H393 H 0.21042 0.08972 0.03352
 H394 H 0.24035 0.08955 0.00392
 H395 H 0.20559 0.09618 0.07461
 H396 H 0.17567 0.09591 0.10410
 H397 H 0.14622 0.15738 0.07365
 H398 H 0.17594 0.15732 0.04393
 C399 C 0.73635 0.62484 0.51220
 C400 C 0.73931 0.61208 0.53275
 C401 C 0.72227 0.61183 0.54979
 C402 C 0.70193 0.62446 0.54673
 C403 C 0.69899 0.63722 0.52616
 C404 C 0.71598 0.63735 0.50907
 C405 C 0.75449 0.62514 0.49416
 C406 C 0.74882 0.62336 0.47058
 C407 C 0.76593 0.62354 0.45360
 C408 C 0.78906 0.62566 0.45983
 C409 C 0.79472 0.62753 0.48340
 C410 C 0.77763 0.62721 0.50038
 C411 C 0.80725 0.62583 0.44183
 C412 C 0.82559 0.64138 0.44320
 C413 C 0.84280 0.64146 0.42633
 C414 C 0.84211 0.62588 0.40774
 C415 C 0.82371 0.61034 0.40638
 C416 C 0.80646 0.61036 0.42320
 H417 H 0.75473 0.60208 0.53554
 H418 H 0.72521 0.60194 0.56545
 H419 H 0.68350 0.64701 0.52313
 H420 H 0.71331 0.64751 0.49350
 H421 H 0.73116 0.62154 0.46529
 H422 H 0.76105 0.62227 0.43557
 H423 H 0.81241 0.62897 0.48873
 H424 H 0.78249 0.62884 0.51839
 H425 H 0.82651 0.65368 0.45722
 H426 H 0.85668 0.65369 0.42792
 H427 H 0.82262 0.59810 0.39232
 H428 H 0.79265 0.59801 0.42183
 C429 C 0.76180 0.37317 0.01584
 C430 C 0.76008 0.38753 0.03529
 C431 C 0.77724 0.38757 0.05212
 C432 C 0.79655 0.37324 0.04989
 C433 C 0.79820 0.35881 0.03045
 C434 C 0.78104 0.35879 0.01363
 C435 C 0.74366 0.37328 -0.00215
 C436 C 0.73643 0.35259 -0.01235
 C437 C 0.71949 0.35272 -0.02940
 C438 C 0.70939 0.37355 -0.03666
 C439 C 0.71658 0.39424 -0.02641
 C440 C 0.73351 0.39410 -0.00935
 C441 C 0.69154 0.37371 -0.05493
 C442 C 0.69142 0.39092 -0.07217
 C443 C 0.67473 0.39100 -0.08947
 C444 C 0.65775 0.37385 -0.08994
 C445 C 0.65784 0.35668 -0.07264
 C446 C 0.67454 0.35661 -0.05535
 H447 H 0.74529 0.39855 0.03768
 H448 H 0.77518 0.39871 0.06695
 H449 H 0.81288 0.34772 0.02796
 H450 H 0.78303 0.34777 -0.00134
 H451 H 0.74375 0.33625 -0.00701
 H452 H 0.71449 0.33653 -0.03712
 H453 H 0.70897 0.41054 -0.03145
 H454 H 0.73886 0.41035 -0.00200
 H455 H 0.70446 0.40416 -0.07251
 H456 H 0.67524 0.40446 -0.10254
 H457 H 0.64499 0.34325 -0.07240
 H458 H 0.67399 0.34330 -0.04212
 C459 C 0.23767 0.87217 0.48555
 C460 C 0.23934 0.88673 0.46608
 C461 C 0.22230 0.88676 0.44914
 C462 C 0.20316 0.87223 0.45125
 C463 C 0.20156 0.85759 0.47070
 C464 C 0.21861 0.85757 0.48764
 C465 C 0.25569 0.87231 0.50366
 C466 C 0.26320 0.85160 0.51390
 C467 C 0.28012 0.85175 0.53097
 C468 C 0.28989 0.87263 0.53822
 C469 C 0.28239 0.89333 0.52798
 C470 C 0.26549 0.89317 0.51089
 C471 C 0.30784 0.87281 0.55640
 C472 C 0.30781 0.88985 0.57362
 C473 C 0.32472 0.89008 0.59069
 C474 C 0.34210 0.87327 0.59094
 C475 C 0.34211 0.85622 0.57370
 C476 C 0.32518 0.85599 0.55665
 H477 H 0.25400 0.89792 0.46379
 H478 H 0.22433 0.89807 0.43431
 H479 H 0.18701 0.84632 0.47310
 H480 H 0.21667 0.84638 0.50260
 H481 H 0.25614 0.83522 0.50854
 H482 H 0.28537 0.83554 0.53869
 H483 H 0.28975 0.90967 0.53302
 H484 H 0.25991 0.90944 0.50352
 H485 H 0.29451 0.90286 0.57408
 H486 H 0.32412 0.90343 0.60372
 H487 H 0.35525 0.84304 0.57330
 H488 H 0.32584 0.84281 0.54344
   
