data_POSCAR
  _audit_creation_date              2014-09-24
  _audit_creation_method            'ToBaCCo'
  _symmetry_space_group_name_H-M    'P1'
  _symmetry_Int_Tables_number       1
  _symmetry_cell_setting            triclinic
  loop_
  _symmetry_equiv_pos_as_xyz
 x,y,z
_cell_length_a 44.4094
_cell_length_b 43.8101
_cell_length_c 44.0791
_cell_angle_alpha 89.936100
_cell_angle_beta 89.971500
_cell_angle_gamma 89.957200
loop_
  _atom_site_label
  _atom_site_type_symbol
  _atom_site_fract_x
  _atom_site_fract_y
  _atom_site_fract_z
N1 N 0.63969 0.64114 0.64047
 N2 N 0.86066 0.35876 0.14047
 N3 N 0.39111 0.10930 -0.11000
 N4 N 0.10898 0.89010 0.39027
 N5 N 0.08976 0.17366 0.10996
 N6 N 0.07782 0.16118 0.13426
 C7 C 0.05436 0.17825 0.14348
 C8 C 0.05127 0.20279 0.12391
 C9 C 0.07417 0.19908 0.10282
 H10 H 0.04023 0.17291 0.16272
 H11 H 0.07925 0.21380 0.08381
 Cu12 Cu 0.09363 0.12360 0.15145
 Cu13 Cu 0.12462 0.15589 0.08962
 Cu14 Cu 0.15395 0.08932 0.12069
 N15 N 0.11056 0.08659 0.16884
 N16 N 0.13421 0.07327 0.15680
 C17 C 0.14141 0.04851 0.17343
 C18 C 0.12111 0.04611 0.19722
 C19 C 0.10187 0.07075 0.19351
 H20 H 0.16000 0.03338 0.16848
 H21 H 0.08323 0.07700 0.20798
 N22 N 0.17078 0.10902 0.08423
 N23 N 0.15979 0.13439 0.07245
 C24 C 0.17650 0.14221 0.04812
 C25 C 0.19907 0.12068 0.04434
 C26 C 0.19466 0.10001 0.06770
 H27 H 0.17249 0.16207 0.03414
 H28 H 0.20820 0.08013 0.07266
 H29 H 0.11674 0.11138 0.10276
 H30 H 0.14196 0.13450 0.12759
 N31 N 0.41065 0.82637 0.60983
 N32 N 0.42265 0.83893 0.63403
 C33 C 0.44617 0.82191 0.64321
 C34 C 0.44923 0.79733 0.62374
 C35 C 0.42625 0.80097 0.60274
 H36 H 0.46034 0.82731 0.66238
 H37 H 0.42113 0.78619 0.58382
 Cu38 Cu 0.40682 0.87650 0.65116
 Cu39 Cu 0.37568 0.84404 0.58958
 Cu40 Cu 0.34627 0.91055 0.62056
 N41 N 0.38982 0.91346 0.66851
 N42 N 0.36607 0.92668 0.65655
 C43 C 0.35883 0.95141 0.67316
 C44 C 0.37919 0.95389 0.69685
 C45 C 0.39852 0.92933 0.69311
 H46 H 0.34016 0.96646 0.66826
 H47 H 0.41722 0.92315 0.70752
 N48 N 0.32939 0.89078 0.58423
 N49 N 0.34041 0.86543 0.57248
 C50 C 0.32366 0.85755 0.54823
 C51 C 0.30103 0.87902 0.54447
 C52 C 0.30544 0.89971 0.56776
 H53 H 0.32770 0.83770 0.53428
 H54 H 0.29187 0.91956 0.57271
 H55 H 0.38349 0.88859 0.60254
 H56 H 0.35843 0.86541 0.62757
 N57 N 0.91119 0.67301 0.38785
 N58 N 0.92213 0.66140 0.36268
 C59 C 0.94728 0.67681 0.35498
 C60 C 0.95238 0.69922 0.37658
 C61 C 0.92894 0.69604 0.39705
 H62 H 0.96090 0.67203 0.33522
 H63 H 0.92469 0.70985 0.41689
 Cu64 Cu 0.90221 0.62736 0.34254
 Cu65 Cu 0.87441 0.65819 0.40662
 Cu66 Cu 0.83903 0.59692 0.37243
 N67 N 0.88263 0.59202 0.32441
 N68 N 0.85791 0.58047 0.33612
 C69 C 0.84925 0.55630 0.31951
 C70 C 0.86965 0.55228 0.29606
 C71 C 0.89058 0.57543 0.29995
 H72 H 0.82985 0.54233 0.32457
 H73 H 0.91013 0.57987 0.28603
 N74 N 0.82343 0.61674 0.40935
 N75 N 0.83697 0.64012 0.42230
 C76 C 0.82115 0.64853 0.44696
 C77 C 0.79641 0.62954 0.44981
 C78 C 0.79864 0.60962 0.42552
 H79 H 0.82746 0.66689 0.46200
 H80 H 0.78327 0.59137 0.41993
 H81 H 0.87841 0.61394 0.39059
 H82 H 0.85502 0.64086 0.36760
 N83 N 0.58854 0.32702 -0.11105
 N84 N 0.57674 0.33959 -0.13538
 C85 C 0.55168 0.32407 -0.14308
 C86 C 0.54752 0.30060 -0.12234
 C87 C 0.57143 0.30327 -0.10239
 H88 H 0.53747 0.32949 -0.16224
 H89 H 0.57642 0.28869 -0.08326
 Cu90 Cu 0.59555 0.37497 -0.15438
 Cu91 Cu 0.62547 0.34175 -0.09253
 Cu92 Cu 0.66045 0.40341 -0.12672
 N93 N 0.61583 0.40931 -0.17368
 N94 N 0.64123 0.42010 -0.16280
 C95 C 0.65030 0.44373 -0.17999
 C96 C 0.62949 0.44817 -0.20298
 C97 C 0.60788 0.42584 -0.19821
 H98 H 0.67029 0.45706 -0.17565
 H99 H 0.58788 0.42189 -0.21159
 N100 N 0.67636 0.38335 -0.09002
 N101 N 0.66300 0.35982 -0.07709
 C102 C 0.67898 0.35130 -0.05257
 C103 C 0.70366 0.37038 -0.04980
 C104 C 0.70121 0.39047 -0.07398
 H105 H 0.67282 0.33284 -0.03755
 H106 H 0.71646 0.40885 -0.07956
 H107 H 0.62173 0.38652 -0.10710
 H108 H 0.64347 0.35990 -0.13193
 C109 C -0.01195 0.25326 0.15265
 C110 C -0.01820 0.27112 0.12712
 C111 C -0.00109 0.26740 0.10069
 C112 C 0.02193 0.24555 0.09971
 C113 C -0.11291 0.34247 0.13606
 C114 C 0.01093 0.23142 0.15171
 C115 C -0.04302 0.29224 0.12801
 C116 C -0.06448 0.30903 0.12971
 C117 C -0.09030 0.32758 0.13272
 C118 C 0.02796 0.22705 0.12513
 H119 H -0.02503 0.25595 0.17323
 H120 H -0.00582 0.28104 0.08074
 H121 H 0.03447 0.24272 0.07885
 H122 H 0.01515 0.21798 0.17186
 C123 C 0.51256 0.74698 0.65248
 C124 C 0.51871 0.72902 0.62702
 C125 C 0.50151 0.73265 0.60065
 C126 C 0.47849 0.75451 0.59965
 C127 C 0.61329 0.65749 0.63604
 C128 C 0.48968 0.76882 0.65151
 C129 C 0.54351 0.70786 0.62794
 C130 C 0.56493 0.69104 0.62966
 C131 C 0.59072 0.67244 0.63269
 C132 C 0.47255 0.77309 0.62499
 H133 H 0.52571 0.74435 0.67302
 H134 H 0.50616 0.71893 0.58076
 H135 H 0.46588 0.75725 0.57883
 H136 H 0.48553 0.78233 0.67161
 C137 C 1.01582 0.75192 0.35196
 C138 C 1.02093 0.76841 0.37866
 C139 C 1.00443 0.76154 0.40480
 C140 C 0.98254 0.73870 0.40422
 C141 C 1.09252 0.86351 0.38626
 C142 C 0.99392 0.72895 0.35134
 C143 C 1.04205 0.79331 0.37922
 C144 C 1.05886 0.81485 0.38063
 C145 C 1.07751 0.84079 0.38327
 C146 C 0.97676 0.72234 0.37739
 H147 H 1.02840 0.75714 0.33154
 H148 H 1.00821 0.77415 0.42559
 H149 H 0.97015 0.73401 0.42483
 H150 H 0.98998 0.71694 0.33028
 C151 C 0.48362 0.24855 -0.14700
 C152 C 0.47948 0.23085 -0.12087
 C153 C 0.49688 0.23658 -0.09508
 C154 C 0.51865 0.25954 -0.09546
 C155 C 0.40766 0.13585 -0.11391
 C156 C 0.50540 0.27165 -0.14742
 C157 C 0.45833 0.20597 -0.12052
 C158 C 0.44147 0.18446 -0.11927
 C159 C 0.42275 0.15855 -0.11679
 C160 C 0.52341 0.27717 -0.12173
 H161 H 0.47033 0.24424 -0.16714
 H162 H 0.49386 0.22303 -0.07472
 H163 H 0.53172 0.26335 -0.07512
 H164 H 0.50853 0.28466 -0.16806
 C165 C 0.14450 -0.01791 0.25053
 C166 C 0.11914 -0.02018 0.26925
 C167 C 0.09429 -0.00126 0.26406
 C168 C 0.09484 0.02005 0.24049
 C169 C 0.11261 -0.09275 0.36405
 C170 C 0.14510 0.00341 0.22686
 C171 C 0.11863 -0.04124 0.29432
 C172 C 0.11746 -0.05821 0.31584
 C173 C 0.11523 -0.07724 0.34159
 C174 C 0.12033 0.02282 0.22169
 H175 H 0.16391 -0.03239 0.25441
 H176 H 0.07452 -0.00284 0.27840
 H177 H 0.07521 0.03426 0.23706
 H178 H 0.16515 0.00496 0.21301
 C179 C 0.60430 0.50246 -0.26535
 C180 C 0.63055 0.51943 -0.27017
 C181 C 0.65658 0.51260 -0.25366
 C182 C 0.65632 0.48919 -0.23212
 C183 C 0.63621 0.61471 -0.34253
 C184 C 0.60398 0.47896 -0.24381
 C185 C 0.63078 0.54457 -0.29123
 C186 C 0.63174 0.56618 -0.30816
 C187 C 0.63375 0.59208 -0.32712
 C188 C 0.62995 0.47223 -0.22673
 H189 H 0.58398 0.50764 -0.27794
 H190 H 0.67704 0.52558 -0.25721
 H191 H 0.67683 0.48450 -0.21976
 H192 H 0.58324 0.46655 -0.24019
 C193 C 0.35565 1.01770 0.75023
 C194 C 0.38107 1.02007 0.76883
 C195 C 0.40601 1.00131 0.76352
 C196 C 0.40549 0.98004 0.73996
 C197 C 0.38750 1.09228 0.86374
 C198 C 0.35509 0.99642 0.72657
 C199 C 0.38154 1.04106 0.79392
 C200 C 0.38268 1.05795 0.81545
 C201 C 0.38489 1.07687 0.84124
 C202 C 0.37995 0.97716 0.72129
 H203 H 0.33617 1.03205 0.75420
 H204 H 0.42582 1.00298 0.77776
 H205 H 0.42519 0.96596 0.73644
 H206 H 0.33499 0.99477 0.71282
 C207 C 0.84340 0.48652 0.24682
 C208 C 0.86914 0.48052 0.22954
 C209 C 0.89493 0.49842 0.23345
 C210 C 0.89506 0.52205 0.25480
 C211 C 0.86404 0.38519 0.15743
 C212 C 0.84348 0.51005 0.26816
 C213 C 0.86910 0.45535 0.20857
 C214 C 0.86828 0.43373 0.19170
 C215 C 0.86641 0.40782 0.17280
 C216 C 0.86938 0.52798 0.27261
 H217 H 0.82330 0.47282 0.24397
 H218 H 0.91504 0.49390 0.22025
 H219 H 0.91545 0.53522 0.25767
 H220 H 0.82317 0.51410 0.28111
 C221 C 0.26380 0.09316 -0.00474
 C222 C 0.27036 0.11928 -0.02174
 C223 C 0.25317 0.14576 -0.01772
 C224 C 0.22969 0.14618 0.00349
 C225 C 0.36494 0.11299 -0.09321
 C226 C 0.24043 0.09352 0.01646
 C227 C 0.29536 0.11892 -0.04254
 C228 C 0.31682 0.11783 -0.05926
 C229 C 0.34252 0.11564 -0.07799
 C230 C 0.22321 0.12011 0.02103
 H231 H 0.27695 0.07252 -0.00768
 H232 H 0.25812 0.16616 -0.03070
 H233 H 0.21708 0.16709 0.00647
 H234 H 0.23593 0.07291 0.02920
 C235 C 0.74916 0.65614 0.51647
 C236 C 0.72997 0.63124 0.52083
 C237 C 0.73202 0.60592 0.50161
 C238 C 0.75340 0.60542 0.47827
 C239 C 0.65696 0.63751 0.61450
 C240 C 0.77054 0.65569 0.49324
 C241 C 0.70879 0.63164 0.54555
 C242 C 0.69173 0.63274 0.56680
 C243 C 0.67258 0.63491 0.59226
 C244 C 0.77308 0.63024 0.47394
 H245 H 0.74775 0.67589 0.53120
 H246 H 0.71732 0.58646 0.50484
 H247 H 0.75478 0.58538 0.46403
 H248 H 0.78496 0.67537 0.49045
 C249 C 0.76805 0.39406 0.00186
 C250 C 0.77032 0.36861 0.02094
 C251 C 0.75129 0.34360 0.01652
 C252 C 0.72986 0.34408 -0.00664
 C253 C 0.84338 0.36236 0.11451
 C254 C 0.74660 0.39458 -0.02141
 C255 C 0.79153 0.36821 0.04562
 C256 C 0.80860 0.36711 0.06684
 C257 C 0.82776 0.36494 0.09228
 C258 C 0.72708 0.36966 -0.02579
 H259 H 0.78262 0.41360 0.00514
 H260 H 0.75288 0.32377 0.03114
 H261 H 0.71556 0.32431 -0.00948
 H262 H 0.74505 0.41472 -0.03554
 C263 C 0.23615 0.90638 0.49550
 C264 C 0.22966 0.88025 0.47854
 C265 C 0.24692 0.85382 0.48257
 C266 C 0.27042 0.85345 0.50373
 C267 C 0.13512 0.88641 0.40708
 C268 C 0.25955 0.90606 0.51665
 C269 C 0.20466 0.88056 0.45777
 C270 C 0.18321 0.88162 0.44105
 C271 C 0.15753 0.88378 0.42232
 C272 C 0.27685 0.87953 0.52122
 H273 H 0.22295 0.92698 0.49254
 H274 H 0.24202 0.83341 0.46963
 H275 H 0.28310 0.83257 0.50672
 H276 H 0.26400 0.92668 0.52934
   
