data_POSCAR
  _audit_creation_date              2014-09-24
  _audit_creation_method            'ToBaCCo'
  _symmetry_space_group_name_H-M    'P1'
  _symmetry_Int_Tables_number       1
  _symmetry_cell_setting            triclinic
  loop_
  _symmetry_equiv_pos_as_xyz
 x,y,z
_cell_length_a 25.0956
_cell_length_b 25.1074
_cell_length_c 33.8999
_cell_angle_alpha 89.287400
_cell_angle_beta 88.509200
_cell_angle_gamma 87.686500
loop_
  _atom_site_label
  _atom_site_type_symbol
  _atom_site_fract_x
  _atom_site_fract_y
  _atom_site_fract_z
C1 C 0.00728 0.50046 0.98141
 C2 C 0.00926 0.50202 1.02140
 C3 C 0.00784 0.55321 1.04266
 C4 C 0.01201 0.45252 1.04562
 C5 C 0.00414 0.44934 0.96043
 C6 C 0.00690 0.54962 0.95665
 C7 C 0.05171 0.56703 1.06431
 C8 C 0.05216 0.61640 1.08278
 C9 C 0.00797 0.65332 1.08078
 C10 C -0.03688 0.63752 1.05985
 C11 C -0.03667 0.58843 1.04089
 C12 C 0.05467 0.41518 1.04081
 C13 C 0.05561 0.36745 1.06248
 C14 C 0.01392 0.35613 1.08950
 C15 C -0.02831 0.39436 1.09455
 C16 C -0.02901 0.44217 1.07306
 C17 C -0.04070 0.41808 0.96539
 C18 C -0.04397 0.37073 0.94448
 C19 C -0.00220 0.35375 0.91860
 C20 C 0.04295 0.38486 0.91421
 C21 C 0.04581 0.43256 0.93464
 C22 C -0.03484 0.55996 0.93063
 C23 C -0.03586 0.60590 0.90702
 C24 C 0.00517 0.64229 0.90867
 C25 C 0.04726 0.63162 0.93460
 C26 C 0.04819 0.58558 0.95828
 H27 H 0.08615 0.53978 1.06640
 H28 H 0.08680 0.62391 1.09981
 H29 H -0.07154 0.66391 1.05614
 H30 H -0.07106 0.57813 1.02433
 H31 H 0.08709 0.42294 1.02008
 H32 H 0.08930 0.34003 1.05804
 H33 H -0.06237 0.47050 1.07702
 H34 H -0.07333 0.43074 0.98509
 H35 H -0.07900 0.34728 0.94863
 H36 H 0.07551 0.37288 0.89423
 H37 H 0.08059 0.45637 0.93046
 H38 H -0.06691 0.53256 0.92880
 H39 H -0.06852 0.61261 0.88708
 H40 H 0.07918 0.65905 0.93692
 H41 H 0.08118 0.57790 0.97779
 H42 H -0.06176 0.38681 1.11434
 C43 C 0.49735 -0.00747 0.48188
 C44 C 0.49569 -0.00555 0.52199
 C45 C 0.44441 -0.00456 0.54484
 C46 C 0.54485 -0.00128 0.54486
 C47 C 0.54850 -0.00740 0.45900
 C48 C 0.44797 -0.00722 0.45883
 C49 C 0.43126 0.03860 0.56953
 C50 C 0.38194 0.04205 0.58946
 C51 C 0.34474 0.00213 0.58540
 C52 C 0.35872 -0.04198 0.56150
 C53 C 0.40819 -0.04534 0.54149
 C54 C 0.57719 0.04265 0.53981
 C55 C 0.62323 0.04635 0.56176
 C56 C 0.63800 0.00616 0.58922
 C57 C 0.60493 -0.03753 0.59427
 C58 C 0.55873 -0.04099 0.57249
 C59 C 0.58822 -0.04758 0.46440
 C60 C 0.63710 -0.04549 0.44375
 C61 C 0.64715 -0.00305 0.41738
 C62 C 0.60658 0.03641 0.41156
 C63 C 0.55774 0.03406 0.43197
 C64 C 0.43841 -0.05039 0.43464
 C65 C 0.39137 -0.05136 0.41359
 C66 C 0.35322 -0.00871 0.41580
 C67 C 0.36363 0.03499 0.43965
 C68 C 0.41059 0.03575 0.46088
 H69 H 0.45868 0.07046 0.57250
 H70 H 0.37245 0.07674 0.60735
 H71 H 0.33165 -0.07404 0.55839
 H72 H 0.41806 -0.07948 0.52309
 H73 H 0.56646 0.07427 0.51913
 H74 H 0.64668 0.08134 0.55771
 H75 H 0.53405 -0.07511 0.57681
 H76 H 0.58140 -0.08038 0.48472
 H77 H 0.66678 -0.07727 0.44834
 H78 H 0.61293 0.06991 0.39183
 H79 H 0.52753 0.06543 0.42745
 H80 H 0.46691 -0.08390 0.43273
 H81 H 0.38446 -0.08615 0.39619
 H82 H 0.33629 0.06907 0.44170
 H83 H 0.41784 0.06985 0.47896
 H84 H 0.61464 -0.06969 0.61445
 C85 C 0.11391 -0.00311 0.26413
 H86 H 0.11621 0.00204 0.23240
 C87 C 0.16047 -0.00532 0.28580
 H88 H 0.19837 -0.00102 0.27037
 C89 C 0.06108 -0.01285 0.32249
 H90 H 0.02230 -0.01516 0.33678
 C91 C 0.10668 -0.01574 0.34530
 H92 H 0.10227 -0.02127 0.37692
 N93 N 0.06553 -0.00756 0.28258
 C94 C -0.03539 -0.07131 0.19300
 H95 H -0.06722 -0.04100 0.19185
 C96 C -0.03559 -0.11509 0.16798
 H97 H -0.06743 -0.11760 0.14724
 C98 C 0.04505 -0.10401 0.22115
 H99 H 0.07606 -0.09998 0.24227
 C100 C 0.04606 -0.14874 0.19709
 H101 H 0.07788 -0.17870 0.20042
 Zn102 Zn 0.00504 -0.00462 0.25025
 N103 N 0.00529 -0.06587 0.21817
 C104 C 0.00517 0.05754 0.17899
 N105 N 0.00868 0.05832 0.21894
 C106 C 0.01504 0.10468 0.23825
 C107 C 0.01595 0.15302 0.21749
 C108 C 0.00531 0.10502 0.15710
 C109 C -0.06989 -0.04485 0.30518
 C110 C -0.11650 -0.04420 0.32871
 C111 C -0.14082 0.04231 0.30115
 C112 C -0.09369 0.04016 0.27843
 N113 N -0.05891 -0.00259 0.28124
 H114 H 0.00153 0.02031 0.16394
 H115 H 0.01877 0.10407 0.26997
 H116 H 0.02133 0.18923 0.23363
 H117 H 0.00062 0.10353 0.12549
 H118 H -0.04216 -0.07894 0.30618
 H119 H -0.12449 -0.07815 0.34763
 H120 H -0.16749 0.07714 0.29890
 H121 H -0.08507 0.07278 0.25854
 C122 C 0.00590 -0.15436 0.16945
 C123 C 0.15737 -0.01237 0.32699
 C124 C -0.15253 0.00002 0.32703
 C125 C 0.01001 0.15383 0.17636
 C126 C -0.02843 0.11373 0.76977
 H127 H -0.03717 0.11587 0.73870
 C128 C -0.02929 0.16019 0.79189
 H129 H -0.03858 0.19823 0.77773
 C130 C -0.00459 0.06160 0.82587
 H131 H 0.00470 0.02308 0.83903
 C132 C -0.00428 0.10732 0.84901
 H133 H 0.00498 0.10356 0.87992
 N134 N -0.01555 0.06576 0.78681
 C135 C 0.06239 -0.03354 0.69606
 H136 H 0.03643 -0.06687 0.69528
 C137 C 0.10875 -0.03347 0.67226
 H138 H 0.11830 -0.06716 0.65339
 C139 C 0.08224 0.04986 0.72283
 H140 H 0.07221 0.08208 0.74281
 C141 C 0.12886 0.05154 0.69966
 H142 H 0.15365 0.08565 0.70174
 Zn143 Zn -0.01267 0.00624 0.75293
 N144 N 0.04977 0.00803 0.72039
 C145 C -0.07201 0.00716 0.68215
 N146 N -0.07467 0.01088 0.72214
 C147 C -0.12216 0.01904 0.74177
 C148 C -0.16960 0.02292 0.72120
 C149 C -0.11860 0.01030 0.66039
 C150 C 0.03327 -0.07223 0.80327
 C151 C 0.03711 -0.12131 0.82315
 C152 C -0.04872 -0.14216 0.79810
 C153 C -0.05098 -0.09276 0.77886
 N154 N -0.01044 -0.05882 0.78183
 H155 H -0.03389 0.00131 0.66700
 H156 H -0.12306 0.02248 0.77356
 H157 H -0.20685 0.02985 0.73749
 H158 H -0.11552 0.00564 0.62872
 H159 H 0.06542 -0.04492 0.80460
 H160 H 0.07197 -0.13081 0.84042
 H161 H -0.08109 -0.16881 0.79465
 H162 H -0.08480 -0.08211 0.76095
 C163 C 0.14266 0.00962 0.67381
 C164 C -0.01627 0.15732 0.83182
 C165 C -0.00415 -0.15725 0.82052
 C166 C -0.16838 0.01820 0.67991
 C167 C -0.03876 -0.26661 0.10531
 C168 C 0.00853 -0.29765 0.09796
 C169 C 0.05658 -0.27412 0.10880
 C170 C 0.05597 -0.22637 0.13015
 C171 C 0.00748 -0.20046 0.14214
 C172 C -0.03915 -0.21986 0.12693
 C173 C -0.09070 -0.23097 0.14758
 C174 C -0.09059 -0.28215 0.12428
 H175 H 0.09532 -0.29164 0.10082
 H176 H 0.09374 -0.21074 0.13809
 H177 H -0.12315 -0.20188 0.13923
 H178 H -0.08637 -0.23768 0.17984
 H179 H -0.12344 -0.28237 0.10292
 H180 H -0.08629 -0.31868 0.14301
 C181 C 0.02685 0.25569 0.09351
 C182 C 0.01269 0.30445 0.11158
 C183 C -0.00936 0.30191 0.15033
 C184 C -0.01197 0.25306 0.17102
 C185 C 0.00754 0.20503 0.15369
 C186 C 0.02364 0.20750 0.11386
 C187 C 0.07209 0.18373 0.09355
 C188 C 0.07660 0.23660 0.07175
 H189 H -0.02290 0.33791 0.16540
 H190 H -0.02825 0.25341 0.20088
 H191 H 0.06251 0.15049 0.07392
 H192 H 0.10522 0.17481 0.11407
 H193 H 0.07067 0.23356 0.03948
 H194 H 0.11264 0.25764 0.08021
 C195 C 0.28504 0.03490 0.64127
 C196 C 0.29154 0.00744 0.60567
 C197 C 0.24524 -0.01283 0.58948
 C198 C 0.19622 -0.01098 0.61090
 C199 C 0.19226 0.01133 0.64897
 C200 C 0.23692 0.03682 0.66224
 C201 C 0.26374 0.03219 0.70100
 C202 C 0.31655 0.03007 0.67798
 H203 H 0.24696 -0.03123 0.56075
 H204 H 0.16195 -0.02816 0.59800
 H205 H 0.25526 -0.00563 0.71696
 H206 H 0.25749 0.06891 0.71878
 H207 H 0.33881 -0.00898 0.68053
 H208 H 0.34062 0.06557 0.68257
 C209 C -0.31205 -0.00174 0.65320
 C210 C -0.31311 0.01124 0.61279
 C211 C -0.26729 0.03481 0.59622
 C212 C -0.22088 0.03946 0.61827
 C213 C -0.21887 0.02089 0.65771
 C214 C -0.26658 0.00383 0.67502
 C215 C -0.27675 -0.04402 0.70005
 C216 C -0.32584 -0.05123 0.67577
 H217 H -0.26621 0.04748 0.56558
 H218 H -0.18622 0.05610 0.60390
 H219 H -0.28649 -0.03344 0.73122
 H220 H -0.24551 -0.07632 0.69596
 H221 H -0.36380 -0.04603 0.69319
 H222 H -0.32185 -0.08799 0.65784
 C223 C -0.04485 -0.28405 0.87308
 C224 C 0.00377 -0.30922 0.88309
 C225 C 0.05068 -0.28739 0.86699
 C226 C 0.04843 -0.23876 0.84567
 C227 C -0.00079 -0.21066 0.84003
 C228 C -0.04707 -0.23623 0.85223
 C229 C -0.09430 -0.21557 0.87590
 C230 C -0.09187 -0.26805 0.89874
 H231 H 0.08922 -0.30707 0.87160
 H232 H 0.08534 -0.22279 0.83448
 H233 H -0.13050 -0.21035 0.85782
 H234 H -0.08520 -0.18062 0.89403
 H235 H -0.12662 -0.29298 0.89375
 H236 H -0.08136 -0.26365 0.93018
 C237 C 0.03871 0.27057 0.88857
 C238 C -0.00600 0.30471 0.89519
 C239 C -0.05382 0.29193 0.87714
 C240 C -0.05727 0.24383 0.85652
 C241 C -0.01344 0.20694 0.85440
 C242 C 0.03504 0.22271 0.86902
 C243 C 0.07355 0.19472 0.89591
 C244 C 0.07778 0.24739 0.91706
 H245 H -0.08868 0.31867 0.87939
 H246 H -0.09462 0.23468 0.84333
 H247 H 0.11111 0.18162 0.88016
 H248 H 0.05497 0.16374 0.91481
 H249 H 0.11763 0.26480 0.91320
 H250 H 0.06157 0.24671 0.94791
 C251 C -0.29625 0.02749 0.35987
 C252 C -0.30031 0.00103 0.39637
 C253 C -0.25228 -0.01937 0.41272
 C254 C -0.20376 -0.01873 0.39077
 C255 C -0.20197 0.00267 0.35206
 C256 C -0.24854 0.02841 0.33842
 C257 C -0.27558 0.02310 0.30006
 C258 C -0.32794 0.02204 0.32357
 H259 H -0.25215 -0.03694 0.44202
 H260 H -0.16805 -0.03606 0.40379
 H261 H -0.26466 -0.01517 0.28518
 H262 H -0.27214 0.05935 0.28115
 H263 H -0.34748 -0.01686 0.32238
 H264 H -0.35460 0.05765 0.31807
 C265 C 0.25295 0.00382 0.41065
 C266 C 0.30288 -0.01114 0.39366
 C267 C 0.30284 -0.03455 0.35595
 C268 C 0.25546 -0.03714 0.33482
 C269 C 0.20647 -0.01643 0.35074
 C270 C 0.20618 0.00043 0.38997
 C271 C 0.18121 0.04918 0.40838
 C272 C 0.23261 0.05387 0.43051
 H273 H 0.33982 -0.04886 0.34189
 H274 H 0.25774 -0.05399 0.30558
 H275 H 0.14655 0.03997 0.42801
 H276 H 0.17385 0.08200 0.38661
 H277 H 0.22732 0.04843 0.46295
 H278 H 0.25423 0.08976 0.42097
   
