data_POSCAR
  _audit_creation_date              2014-09-24
  _audit_creation_method            'ToBaCCo'
  _symmetry_space_group_name_H-M    'P1'
  _symmetry_Int_Tables_number       1
  _symmetry_cell_setting            triclinic
  loop_
  _symmetry_equiv_pos_as_xyz
 x,y,z
_cell_length_a 53.4450
_cell_length_b 53.1857
_cell_length_c 24.1101
_cell_angle_alpha 89.847700
_cell_angle_beta 89.768500
_cell_angle_gamma 117.990600
loop_
  _atom_site_label
  _atom_site_type_symbol
  _atom_site_fract_x
  _atom_site_fract_y
  _atom_site_fract_z
C1 C 0.15898 0.44296 0.53232
 C2 C 0.17123 0.45606 0.48118
 C3 C 0.20071 0.46642 0.47369
 C4 C 0.21749 0.46420 0.51640
 C5 C 0.20432 0.45065 0.56631
 C6 C 0.17544 0.44139 0.57627
 C7 C 0.24907 0.47796 0.51182
 C8 C 0.26559 0.48916 0.55975
 C9 C 0.29501 0.50034 0.55821
 C10 C 0.30839 0.50178 0.50752
 C11 C 0.29277 0.49230 0.45819
 C12 C 0.26297 0.47995 0.46084
 H13 H 0.13654 0.43504 0.53876
 H14 H 0.21103 0.47822 0.43652
 H15 H 0.21675 0.44739 0.59810
 H16 H 0.25567 0.48925 0.59895
 H17 H 0.33108 0.50946 0.50702
 H18 H 0.25069 0.47179 0.42346
 C19 C 0.58503 -0.27659 0.48615
 C20 C 0.58660 -0.26053 0.43845
 C21 C 0.58560 -0.23477 0.44564
 C22 C 0.57980 -0.22660 0.49762
 C23 C 0.57633 -0.24424 0.54377
 C24 C 0.57940 -0.26913 0.53927
 C25 C 0.57592 -0.20048 0.50292
 C26 C 0.58019 -0.18609 0.55395
 C27 C 0.57571 -0.16219 0.55915
 C28 C 0.56845 -0.15154 0.51196
 C29 C 0.56448 -0.16515 0.46064
 C30 C 0.56742 -0.18993 0.45690
 H31 H 0.58725 -0.29559 0.48151
 H32 H 0.58993 -0.22078 0.41032
 H33 H 0.56934 -0.23956 0.58263
 H34 H 0.58722 -0.19314 0.58997
 H35 H 0.56478 -0.13322 0.51552
 H36 H 0.56303 -0.20080 0.41755
 C37 C 1.29341 0.82831 0.48002
 C38 C 1.28255 0.81328 0.43058
 C39 C 1.25873 0.78625 0.43423
 C40 C 1.24382 0.77550 0.48477
 C41 C 1.25617 0.79076 0.53389
 C42 C 1.28182 0.81636 0.53192
 C43 C 1.21584 0.74843 0.48482
 C44 C 1.20407 0.73175 0.53334
 C45 C 1.17797 0.70610 0.53198
 C46 C 1.16534 0.69648 0.47968
 C47 C 1.17632 0.71269 0.43169
 C48 C 1.20050 0.73898 0.43499
 H49 H 1.31242 0.84865 0.47874
 H50 H 1.25121 0.77413 0.39671
 H51 H 1.24654 0.78279 0.57387
 H52 H 1.21483 0.73909 0.57216
 H53 H 1.14755 0.67549 0.47483
 H54 H 1.20696 0.75174 0.39764
 C55 C 0.82368 0.52313 0.52659
 C56 C 0.80909 0.51618 0.47636
 C57 C 0.78452 0.51906 0.47093
 C58 C 0.77538 0.53084 0.51385
 C59 C 0.79064 0.53796 0.56433
 C60 C 0.81461 0.53379 0.57106
 C61 C 0.75049 0.53615 0.50474
 C62 C 0.73318 0.53575 0.54949
 C63 C 0.70960 0.54062 0.54126
 C64 C 0.70338 0.54520 0.48658
 C65 C 0.71981 0.54507 0.44163
 C66 C 0.74353 0.54113 0.45074
 H67 H 0.84218 0.51996 0.53107
 H68 H 0.77311 0.51272 0.43227
 H69 H 0.78467 0.54753 0.59792
 H70 H 0.73843 0.53202 0.59078
 H71 H 0.68430 0.54671 0.47755
 H72 H 0.75640 0.54214 0.41525
 C73 C 0.44140 0.29179 0.51835
 C74 C 0.44782 0.28345 0.46754
 C75 C 0.44654 0.25656 0.46229
 C76 C 0.43822 0.23751 0.50784
 C77 C 0.43097 0.24639 0.55811
 C78 C 0.43399 0.27387 0.56487
 C79 C 0.43770 0.20888 0.50496
 C80 C 0.43877 0.19538 0.55461
 C81 C 0.43432 0.16722 0.55609
 C82 C 0.43058 0.15309 0.50518
 C83 C 0.43436 0.16732 0.45387
 C84 C 0.43661 0.19494 0.45434
 H85 H 0.44407 0.31321 0.52200
 H86 H 0.45292 0.25130 0.42330
 H87 H 0.42200 0.23182 0.59254
 H88 H 0.44211 0.20660 0.59307
 H89 H 0.42645 0.13127 0.50533
 H90 H 0.43777 0.20555 0.41560
 C91 C 0.70152 0.16834 0.48875
 C92 C 0.71408 0.18055 0.43769
 C93 C 0.74035 0.20526 0.43652
 C94 C 0.75447 0.21790 0.48609
 C95 C 0.74151 0.20493 0.53704
 C96 C 0.71494 0.18064 0.53854
 C97 C 0.78216 0.24480 0.48506
 C98 C 0.78994 0.26353 0.53061
 C99 C 0.81715 0.28683 0.53423
 C100 C 0.83557 0.29316 0.48867
 C101 C 0.82776 0.27636 0.44090
 C102 C 0.80126 0.25179 0.43970
 H103 H 0.68090 0.14964 0.48974
 H104 H 0.74898 0.21512 0.39682
 H105 H 0.75187 0.21337 0.57612
 H106 H 0.77538 0.25913 0.56489
 H107 H 0.85575 0.31240 0.48921
 H108 H 0.79604 0.23808 0.40389
 O109 O 0.97220 0.49609 -0.10660
 O110 O 1.01192 0.53873 0.07211
 O111 O 0.92478 0.47076 0.04168
 O112 O 1.04901 0.54111 -0.05817
 O113 O 0.96326 0.50640 0.06836
 O114 O 1.02231 0.50946 -0.11863
 O115 O 1.05185 0.54194 0.04652
 O116 O 0.95610 0.50658 -0.03166
 C117 C 0.96066 0.50940 -0.08296
 C118 C 1.03807 0.55249 0.07022
 C119 C 0.93746 0.49005 0.07892
 C120 C 1.04085 0.53451 -0.10708
 O121 O 1.01212 0.45793 -0.07613
 O122 O 0.97371 0.46331 0.10385
 O123 O 0.93276 0.45421 -0.05674
 O124 O 1.04957 0.49171 0.04466
 O125 O 1.02446 0.49799 0.10962
 O126 O 0.96510 0.44379 -0.06647
 O127 O 1.05200 0.49368 -0.05890
 O128 O 0.95113 0.44228 0.03069
 Co129 Co 0.99314 0.47795 -0.08555
 Co130 Co 0.99365 0.50067 0.08100
 Co131 Co 0.95543 0.47536 0.00108
 Co132 Co 1.04563 0.51473 -0.00621
 O133 O 0.99892 0.49235 -0.00447
 C134 C 1.03817 0.46890 -0.07642
 C135 C 0.95729 0.44074 0.07965
 C136 C 0.94063 0.43810 -0.07846
 C137 C 1.04303 0.49091 0.09469
 O138 O 0.46157 0.45132 -0.05722
 O139 O 0.48983 0.52124 0.11524
 O140 O 0.48256 0.45106 0.05699
 O141 O 0.46376 0.53422 -0.04367
 O142 O 0.50297 0.48320 0.11762
 O143 O 0.44754 0.48946 -0.06201
 O144 O 0.46067 0.51863 0.05273
 O145 O 0.49581 0.44272 -0.03664
 C146 C 0.47228 0.43492 -0.05950
 C147 C 0.46587 0.51795 0.10242
 C148 C 0.48593 0.45787 0.10633
 C149 C 0.44470 0.51155 -0.06357
 O150 O 0.49701 0.52444 -0.11134
 O151 O 0.54937 0.51394 0.05641
 O152 O 0.54044 0.48940 -0.03920
 O153 O 0.50262 0.56908 0.04167
 O154 O 0.53510 0.55459 0.05380
 O155 O 0.51181 0.48571 -0.10756
 O156 O 0.51716 0.55768 -0.04812
 O157 O 0.53694 0.46784 0.05176
 Co158 Co 0.48072 0.48863 -0.07805
 Co159 Co 0.51777 0.51707 0.07886
 Co160 Co 0.51136 0.47290 0.01121
 Co161 Co 0.49047 0.53609 0.00538
 O162 O 0.49715 0.50167 0.00097
 C163 C 0.51335 0.55025 -0.09857
 C164 C 0.55446 0.49330 0.06963
 C165 C 0.53583 0.48937 -0.09037
 C166 C 0.52647 0.57306 0.06405
 O167 O 0.53894 0.01888 -0.09674
 O168 O 0.52181 -0.01431 0.08887
 O169 O 0.54666 0.05043 0.02626
 O170 O 0.51419 -0.04661 -0.03586
 O171 O 0.52355 0.03099 0.09950
 O172 O 0.50784 -0.03030 -0.11179
 O173 O 0.49436 -0.05517 0.05634
 O174 O 0.53713 0.05571 -0.06894
 C175 C 0.55060 0.04502 -0.09315
 C176 C 0.51504 -0.03987 0.08616
 C177 C 0.54604 0.04859 0.07726
 C178 C 0.52046 -0.04099 -0.08544
 O179 O 0.46282 -0.02042 -0.10767
 O180 O 0.46723 0.00718 0.08235
 O181 O 0.48234 0.04195 -0.03903
 O182 O 0.44598 -0.05651 0.01524
 O183 O 0.46444 -0.03861 0.09250
 O184 O 0.49425 0.02926 -0.11331
 O185 O 0.46217 -0.05823 -0.07686
 O186 O 0.49617 0.04884 0.05552
 Co187 Co 0.50070 -0.00070 -0.09780
 Co188 Co 0.49460 -0.00358 0.08110
 Co189 Co 0.51374 0.04396 -0.00688
 Co190 Co 0.48100 -0.04896 -0.01006
 O191 O 0.49743 -0.00235 -0.00840
 C192 C 0.45161 -0.04665 -0.10724
 C193 C 0.47461 0.03289 0.08309
 C194 C 0.47926 0.03806 -0.08939
 C195 C 0.44277 -0.05275 0.06477
 C196 C 1.11364 0.46702 0.41580
 C197 C 1.11942 0.46733 0.35852
 C198 C 1.14339 0.46418 0.34282
 C199 C 1.16072 0.46101 0.38315
 C200 C 1.15441 0.46015 0.44010
 C201 C 1.13068 0.46353 0.45534
 C202 C 1.14988 0.46399 0.28683
 C203 C 1.13317 0.46684 0.24587
 C204 C 1.10917 0.47025 0.25922
 C205 C 1.10231 0.47074 0.31654
 C206 C 1.07872 0.47486 0.32998
 C207 C 1.06262 0.47875 0.28919
 C208 C 1.06901 0.47840 0.23328
 C209 C 1.09206 0.47370 0.21723
 C210 C 1.09705 0.47286 0.15971
 C211 C 1.08064 0.47766 0.12038
 C212 C 1.05859 0.48335 0.13667
 C213 C 1.05260 0.48315 0.19329
 H214 H 1.09613 0.46949 0.43194
 H215 H 1.17843 0.45789 0.36959
 H216 H 1.12558 0.46478 0.49838
 H217 H 1.16817 0.46160 0.27442
 H218 H 1.13995 0.46659 0.20389
 H219 H 1.07217 0.47559 0.37192
 H220 H 1.04497 0.48222 0.30169
 H221 H 1.11354 0.46873 0.14346
 H222 H 1.08564 0.47739 0.07686
 H223 H 1.03544 0.48726 0.20646
 C224 C 0.56725 0.71970 0.29046
 C225 C 0.57567 0.69847 0.28196
 C226 C 0.59237 0.69488 0.32353
 C227 C 0.59747 0.70967 0.37397
 C228 C 0.58637 0.72859 0.38443
 C229 C 0.57253 0.73441 0.34048
 C230 C 0.60314 0.67583 0.31540
 C231 C 0.59644 0.65904 0.26818
 C232 C 0.57795 0.66010 0.22761
 C233 C 0.56742 0.68019 0.23459
 C234 C 0.54761 0.68012 0.19590
 C235 C 0.53735 0.66028 0.15354
 C236 C 0.54691 0.64020 0.14693
 C237 C 0.56831 0.64061 0.18209
 C238 C 0.57846 0.62083 0.17098
 C239 C 0.56606 0.60007 0.13012
 C240 C 0.54308 0.59815 0.09931
 C241 C 0.53438 0.61901 0.10647
 H242 H 0.55601 0.72513 0.25969
 H243 H 0.61014 0.70624 0.40507
 H244 H 0.56358 0.74878 0.34556
 H245 H 0.61639 0.67333 0.34658
 H246 H 0.60503 0.64436 0.26612
 H247 H 0.53840 0.69425 0.19877
 H248 H 0.52129 0.66032 0.12627
 H249 H 0.59575 0.62062 0.19341
 H250 H 0.57393 0.58486 0.12411
 H251 H 0.51710 0.61822 0.08186
 C252 C 0.31097 -0.18041 0.28582
 C253 C 0.32501 -0.15058 0.27703
 C254 C 0.32265 -0.13336 0.31932
 C255 C 0.30859 -0.14543 0.36938
 C256 C 0.29573 -0.17500 0.37879
 C257 C 0.29653 -0.19230 0.33543
 C258 C 0.33460 -0.10401 0.31197
 C259 C 0.34990 -0.09103 0.26440
 C260 C 0.35450 -0.10689 0.22239
 C261 C 0.34172 -0.13720 0.22856
 C262 C 0.34710 -0.15291 0.18731
 C263 C 0.36560 -0.13945 0.14339
 C264 C 0.37909 -0.10989 0.13803
 C265 C 0.37277 -0.09326 0.17602
 C266 C 0.38618 -0.06343 0.16739
 C267 C 0.40728 -0.05063 0.12730
 C268 C 0.41524 -0.06697 0.09348
 C269 C 0.40010 -0.09668 0.09684
 H270 H 0.31087 -0.19524 0.25539
 H271 H 0.30703 -0.13157 0.40053
 H272 H 0.28742 -0.21513 0.34050
 H273 H 0.33244 -0.09079 0.34381
 H274 H 0.35873 -0.06822 0.26297
 H275 H 0.33823 -0.17573 0.18890
 H276 H 0.36999 -0.15233 0.11410
 H277 H 0.38167 -0.04917 0.19203
 H278 H 0.41833 -0.02766 0.12436
 H279 H 0.40629 -0.10938 0.07061
 C280 C 0.81575 0.47904 0.34741
 C281 C 0.84459 0.49614 0.33246
 C282 C 0.86122 0.51980 0.36660
 C283 C 0.84955 0.52548 0.41395
 C284 C 0.82108 0.50843 0.42800
 C285 C 0.80422 0.48528 0.39431
 C286 C 0.88940 0.53799 0.35324
 C287 C 0.90150 0.53376 0.30574
 C288 C 0.88591 0.51081 0.26979
 C289 C 0.85739 0.49096 0.28453
 C290 C 0.84292 0.46647 0.25145
 C291 C 0.85572 0.46169 0.20519
 C292 C 0.88307 0.48148 0.18902
 C293 C 0.89825 0.50668 0.22034
 C294 C 0.92518 0.52694 0.20054
 C295 C 0.93719 0.52154 0.15391
 C296 C 0.92286 0.49594 0.12500
 C297 C 0.89552 0.47616 0.14196
 H298 H 0.80136 0.46116 0.32307
 H299 H 0.86250 0.54387 0.43922
 H300 H 0.78204 0.47197 0.40432
 H301 H 0.90223 0.55591 0.37959
 H302 H 0.92354 0.54856 0.29924
 H303 H 0.82183 0.45006 0.26117
 H304 H 0.84400 0.44234 0.18163
 H305 H 0.93746 0.54740 0.21953
 H306 H 0.95802 0.53757 0.14063
 H307 H 0.88417 0.45646 0.11920
 C308 C 0.48683 0.35326 0.39266
 C309 C 0.46903 0.34969 0.34682
 C310 C 0.44654 0.32198 0.33682
 C311 C 0.44088 0.29955 0.37419
 C312 C 0.45739 0.30432 0.42168
 C313 C 0.48085 0.33098 0.42961
 C314 C 0.42926 0.31707 0.29067
 C315 C 0.43370 0.33902 0.25409
 C316 C 0.45531 0.36713 0.26297
 C317 C 0.47272 0.37266 0.31101
 C318 C 0.49273 0.40109 0.32260
 C319 C 0.49674 0.42321 0.28710
 C320 C 0.48125 0.41796 0.23835
 C321 C 0.46016 0.38995 0.22552
 C322 C 0.44551 0.38592 0.17478
 C323 C 0.45269 0.40843 0.13747
 C324 C 0.47421 0.43575 0.14984
 C325 C 0.48763 0.44056 0.20129
 H326 H 0.50535 0.37305 0.40161
 H327 H 0.42270 0.27884 0.36806
 H328 H 0.49404 0.33488 0.46591
 H329 H 0.41203 0.29598 0.28276
 H330 H 0.41926 0.33331 0.21976
 H331 H 0.50546 0.40716 0.35951
 H332 H 0.51260 0.44464 0.29746
 H333 H 0.42927 0.36546 0.16141
 H334 H 0.44205 0.40417 0.09779
 H335 H 0.50455 0.46160 0.21095
 C336 C 0.69571 0.14733 0.29509
 C337 C 0.66723 0.14197 0.28898
 C338 C 0.65552 0.15152 0.33188
 C339 C 0.67108 0.16426 0.37964
 C340 C 0.69869 0.16835 0.38574
 C341 C 0.71116 0.16046 0.34273
 C342 C 0.62814 0.14799 0.32756
 C343 C 0.61151 0.13440 0.28231
 C344 C 0.62149 0.12327 0.23947
 C345 C 0.64984 0.12716 0.24266
 C346 C 0.65941 0.11527 0.20051
 C347 C 0.64164 0.09917 0.15796
 C348 C 0.61376 0.09459 0.15504
 C349 C 0.60357 0.10733 0.19483
 C350 C 0.57543 0.10280 0.18926
 C351 C 0.55766 0.08457 0.14919
 C352 C 0.56728 0.07080 0.11222
 C353 C 0.59561 0.07655 0.11372
 H354 H 0.70667 0.14162 0.26405
 H355 H 0.66165 0.17099 0.41252
 H356 H 0.73271 0.16386 0.34661
 H357 H 0.61928 0.15557 0.36000
 H358 H 0.59050 0.13230 0.28330
 H359 H 0.68041 0.11726 0.20008
 H360 H 0.64969 0.08977 0.12752
 H361 H 0.56612 0.11248 0.21565
 H362 H 0.53584 0.08068 0.14782
 H363 H 0.60306 0.06590 0.08482
 C364 C 0.45182 0.15711 -0.29764
 C365 C 0.43831 0.12721 -0.29199
 C366 C 0.42257 0.11078 -0.33762
 C367 C 0.42017 0.12399 -0.38631
 C368 C 0.43460 0.15386 -0.39267
 C369 C 0.45023 0.17004 -0.34690
 C370 C 0.40988 0.08113 -0.33512
 C371 C 0.41451 0.06750 -0.29023
 C372 C 0.43140 0.08311 -0.24521
 C373 C 0.44137 0.11314 -0.24396
 C374 C 0.45452 0.12809 -0.19522
 C375 C 0.46050 0.11470 -0.15158
 C376 C 0.45435 0.08623 -0.15559
 C377 C 0.43936 0.06988 -0.20215
 C378 C 0.43498 0.04156 -0.20588
 C379 C 0.44663 0.03075 -0.16695
 C380 C 0.46207 0.04733 -0.12223
 C381 C 0.46475 0.07455 -0.11511
 H382 H 0.46522 0.17114 -0.26588
 H383 H 0.40668 0.11057 -0.41888
 H384 H 0.46307 0.19288 -0.34936
 H385 H 0.39720 0.06833 -0.36928
 H386 H 0.40440 0.04458 -0.29178
 H387 H 0.46040 0.15027 -0.18959
 H388 H 0.47133 0.12715 -0.11554
 H389 H 0.42446 0.02790 -0.24041
 H390 H 0.44453 0.00968 -0.17310
 H391 H 0.47716 0.08754 -0.08085
 C392 C 0.65481 0.55048 -0.37898
 C393 C 0.64949 0.53202 -0.33331
 C394 C 0.66754 0.51955 -0.32591
 C395 C 0.68802 0.52309 -0.36626
 C396 C 0.69145 0.53951 -0.41445
 C397 C 0.67533 0.55416 -0.41840
 C398 C 0.66459 0.50300 -0.27893
 C399 C 0.64413 0.49861 -0.23898
 C400 C 0.62495 0.50972 -0.24566
 C401 C 0.62695 0.52567 -0.29478
 C402 C 0.60565 0.53365 -0.30513
 C403 C 0.58343 0.52684 -0.26816
 C404 C 0.58206 0.51268 -0.21866
 C405 C 0.60319 0.50461 -0.20582
 C406 C 0.60183 0.49210 -0.15325
 C407 C 0.57998 0.48724 -0.11595
 C408 C 0.55859 0.49418 -0.13014
 C409 C 0.55968 0.50676 -0.18161
 H410 H 0.64380 0.56285 -0.38487
 H411 H 0.69981 0.51137 -0.36106
 H412 H 0.67875 0.56911 -0.45174
 H413 H 0.67832 0.49336 -0.27287
 H414 H 0.64304 0.48529 -0.20435
 H415 H 0.60488 0.54421 -0.34282
 H416 H 0.56729 0.53299 -0.27821
 H417 H 0.61775 0.48661 -0.13906
 H418 H 0.57973 0.47786 -0.07587
 H419 H 0.54346 0.51266 -0.19227
 C420 C 0.81898 0.32584 -0.33562
 C421 C 0.84749 0.33619 -0.31903
 C422 C 0.86484 0.32813 -0.35097
 C423 C 0.85472 0.31255 -0.39965
 C424 C 0.82665 0.30294 -0.41673
 C425 C 0.80864 0.30905 -0.38309
 C426 C 0.89233 0.33557 -0.33435
 C427 C 0.90307 0.35070 -0.28609
 C428 C 0.88699 0.35996 -0.25355
 C429 C 0.85936 0.35394 -0.27173
 C430 C 0.84519 0.36690 -0.24357
 C431 C 0.85790 0.38547 -0.19960
 C432 C 0.88442 0.39055 -0.18013
 C433 C 0.89849 0.37650 -0.20508
 C434 C 0.92375 0.37969 -0.18076
 C435 C 0.93621 0.39861 -0.13766
 C436 C 0.92396 0.41491 -0.11706
 C437 C 0.89747 0.41008 -0.13686
 H438 H 0.80406 0.32987 -0.31204
 H439 H 0.86859 0.30668 -0.42296
 H440 H 0.78681 0.30201 -0.39462
 H441 H 0.90569 0.32948 -0.35878
 H442 H 0.92474 0.35614 -0.27689
 H443 H 0.82483 0.36425 -0.25662
 H444 H 0.84683 0.39592 -0.18062
 H445 H 0.93435 0.36776 -0.19398
 H446 H 0.95619 0.40117 -0.12169
 H447 H 0.88751 0.42209 -0.11997
 C448 C 0.56071 -0.15451 -0.28977
 C449 C 0.57126 -0.12471 -0.28461
 C450 C 0.58602 -0.10739 -0.33078
 C451 C 0.58900 -0.11963 -0.38025
 C452 C 0.57686 -0.14923 -0.38574
 C453 C 0.56343 -0.16646 -0.33959
 C454 C 0.59683 -0.07796 -0.32827
 C455 C 0.59122 -0.06541 -0.28289
 C456 C 0.57446 -0.08194 -0.23801
 C457 C 0.56623 -0.11168 -0.23682
 C458 C 0.55251 -0.12739 -0.18866
 C459 C 0.54467 -0.11512 -0.14552
 C460 C 0.54951 -0.08699 -0.14923
 C461 C 0.56485 -0.06989 -0.19527
 C462 C 0.56782 -0.04211 -0.19917
 C463 C 0.55462 -0.03255 -0.16114
 C464 C 0.53910 -0.04955 -0.11635
 C465 C 0.53752 -0.07641 -0.10919
 H466 H 0.54901 -0.16929 -0.25711
 H467 H 0.59985 -0.10608 -0.41545
 H468 H 0.55369 -0.18943 -0.34283
 H469 H 0.60890 -0.06453 -0.36270
 H470 H 0.60026 -0.04255 -0.28430
 H471 H 0.54738 -0.14941 -0.18324
 H472 H 0.53349 -0.12822 -0.11008
 H473 H 0.57829 -0.02798 -0.23347
 H474 H 0.55516 -0.01225 -0.16876
 H475 H 0.52479 -0.09003 -0.07553
 C476 C 0.35423 0.54043 -0.33990
 C477 C 0.34620 0.52150 -0.29400
 C478 C 0.32008 0.49608 -0.29708
 C479 C 0.30284 0.49022 -0.34404
 C480 C 0.31165 0.50867 -0.38985
 C481 C 0.33731 0.53390 -0.38714
 C482 C 0.31179 0.47607 -0.25423
 C483 C 0.32982 0.47963 -0.21026
 C484 C 0.35667 0.50385 -0.20680
 C485 C 0.36394 0.52612 -0.24682
 C486 C 0.38891 0.55200 -0.23873
 C487 C 0.40751 0.55505 -0.19608
 C488 C 0.40239 0.53222 -0.16098
 C489 C 0.37677 0.50634 -0.16542
 C490 C 0.37321 0.48334 -0.13078
 C491 C 0.39479 0.48561 -0.09555
 C492 C 0.42021 0.51100 -0.09238
 C493 C 0.42346 0.53462 -0.12349
 H494 H 0.37412 0.55974 -0.34173
 H495 H 0.28322 0.47040 -0.34625
 H496 H 0.34455 0.54845 -0.42215
 H497 H 0.29157 0.45689 -0.25573
 H498 H 0.32202 0.46306 -0.17918
 H499 H 0.39453 0.57044 -0.26466
 H500 H 0.42672 0.57513 -0.19208
 H501 H 0.35476 0.46275 -0.13243
 H502 H 0.39197 0.46706 -0.07202
 H503 H 0.44334 0.55420 -0.12183
 C504 C 1.16621 0.67490 -0.32360
 C505 C 1.13701 0.65506 -0.32406
 C506 C 1.12185 0.65306 -0.37320
 C507 C 1.13524 0.67076 -0.41876
 C508 C 1.16459 0.68987 -0.41923
 C509 C 1.17968 0.69178 -0.37018
 C510 C 1.09328 0.63318 -0.37717
 C511 C 1.07962 0.61420 -0.33427
 C512 C 1.09384 0.61491 -0.28470
 C513 C 1.12245 0.63676 -0.27813
 C514 C 1.13525 0.63980 -0.22574
 C515 C 1.12089 0.62157 -0.18186
 C516 C 1.09378 0.59887 -0.18906
 C517 C 1.08015 0.59479 -0.24103
 C518 C 1.05375 0.57015 -0.24782
 C519 C 1.04122 0.55082 -0.20440
 C520 C 1.05408 0.55563 -0.15230
 C521 C 1.08039 0.57984 -0.14487
 H522 H 1.17953 0.67705 -0.28857
 H523 H 1.12209 0.66974 -0.45356
 H524 H 1.20230 0.70528 -0.36771
 H525 H 1.08145 0.63183 -0.41447
 H526 H 1.05752 0.59964 -0.34059
 H527 H 1.15616 0.65665 -0.21690
 H528 H 1.13141 0.62491 -0.14216
 H529 H 1.04279 0.56457 -0.28688
 H530 H 1.02138 0.53186 -0.21189
 H531 H 1.09095 0.58335 -0.10518
 C532 C 0.83148 0.53014 -0.27753
 C533 C 0.86141 0.54158 -0.27882
 C534 C 0.87554 0.55394 -0.32939
 C535 C 0.86017 0.55350 -0.37673
 C536 C 0.83048 0.54000 -0.37590
 C537 C 0.81634 0.52930 -0.32546
 C538 C 0.90490 0.56553 -0.33341
 C539 C 0.92050 0.56312 -0.28983
 C540 C 0.90729 0.54901 -0.24008
 C541 C 0.87761 0.53978 -0.23304
 C542 C 0.86508 0.52826 -0.18114
 C543 C 0.88037 0.52375 -0.13922
 C544 C 0.90856 0.52997 -0.14760
 C545 C 0.92259 0.54307 -0.19785
 C546 C 0.95085 0.54792 -0.20519
 C547 C 0.96376 0.53855 -0.16592
 C548 C 0.94947 0.52480 -0.11742
 C549 C 0.92229 0.52165 -0.10731
 H550 H 0.81898 0.52039 -0.24096
 H551 H 0.87132 0.56236 -0.41543
 H552 H 0.79340 0.51877 -0.32375
 H553 H 0.91587 0.57568 -0.37152
 H554 H 0.94302 0.57242 -0.29667
 H555 H 0.84327 0.52227 -0.17171
 H556 H 0.86963 0.51418 -0.10059
 H557 H 0.96304 0.55734 -0.24222
 H558 H 0.98472 0.54114 -0.17443
 H559 H 0.91091 0.51056 -0.07014
 C560 C 0.44620 0.29114 -0.28475
 C561 C 0.43851 0.31307 -0.27947
 C562 C 0.42454 0.31797 -0.32478
 C563 C 0.42222 0.30432 -0.37565
 C564 C 0.43218 0.28428 -0.38206
 C565 C 0.44264 0.27670 -0.33487
 C566 C 0.41370 0.33711 -0.31969
 C567 C 0.41704 0.35212 -0.27094
 C568 C 0.43283 0.34971 -0.22629
 C569 C 0.44462 0.33065 -0.23139
 C570 C 0.46374 0.33132 -0.19036
 C571 C 0.47198 0.35089 -0.14715
 C572 C 0.46024 0.36930 -0.14130
 C573 C 0.43903 0.36746 -0.17866
 C574 C 0.42540 0.38411 -0.16764
 C575 C 0.43500 0.40437 -0.12578
 C576 C 0.45852 0.40886 -0.09359
 C577 C 0.47026 0.39033 -0.09978
 H578 H 0.45508 0.28475 -0.25079
 H579 H 0.41242 0.30927 -0.41036
 H580 H 0.45031 0.26116 -0.33745
 H581 H 0.40270 0.34073 -0.35399
 H582 H 0.40868 0.36704 -0.27096
 H583 H 0.47422 0.31828 -0.19281
 H584 H 0.48792 0.35181 -0.11838
 H585 H 0.40736 0.38204 -0.19098
 H586 H 0.42472 0.41758 -0.12061
 H587 H 0.48792 0.39302 -0.07402
 C588 C 0.67583 0.17481 -0.32715
 C589 C 0.66620 0.14603 -0.31132
 C590 C 0.67569 0.12975 -0.34333
 C591 C 0.69195 0.14121 -0.39178
 C592 C 0.70006 0.16928 -0.40804
 C593 C 0.69258 0.18617 -0.37459
 C594 C 0.66847 0.10194 -0.32747
 C595 C 0.65158 0.08961 -0.28103
 C596 C 0.64033 0.10433 -0.24943
 C597 C 0.64723 0.13278 -0.26557
 C598 C 0.63379 0.14645 -0.23730
 C599 C 0.61358 0.13251 -0.19614
 C600 C 0.60668 0.10481 -0.17990
 C601 C 0.62103 0.09089 -0.20430
 C602 C 0.61498 0.06380 -0.18308
 C603 C 0.59344 0.04996 -0.14398
 C604 C 0.57710 0.06245 -0.12477
 C605 C 0.58478 0.09052 -0.14081
 H606 H 0.67091 0.18914 -0.30363
 H607 H 0.69818 0.12826 -0.41719
 H608 H 0.69902 0.20806 -0.38621
 H609 H 0.67580 0.08944 -0.35150
 H610 H 0.64653 0.06783 -0.27259
 H611 H 0.63735 0.16756 -0.24800
 H612 H 0.60299 0.14346 -0.17726
 H613 H 0.62648 0.05270 -0.19593
 H614 H 0.58915 0.02903 -0.12957
 H615 H 0.57281 0.10074 -0.12503
 C616 C 1.16824 0.44888 -0.27224
 C617 C 1.13847 0.43479 -0.26559
 C618 C 1.12216 0.41685 -0.30913
 C619 C 1.13489 0.41671 -0.36003
 C620 C 1.16398 0.43458 -0.36924
 C621 C 1.18073 0.44875 -0.32309
 C622 C 1.09294 0.40049 -0.30303
 C623 C 1.07910 0.40376 -0.25704
 C624 C 1.09398 0.42425 -0.21602
 C625 C 1.12427 0.43925 -0.21920
 C626 C 1.13916 0.45997 -0.17858
 C627 C 1.12497 0.46771 -0.13940
 C628 C 1.09548 0.45477 -0.13839
 C629 C 1.07952 0.43179 -0.17453
 C630 C 1.04963 0.41857 -0.16983
 C631 C 1.03636 0.42969 -0.13524
 C632 C 1.05231 0.45413 -0.10381
 C633 C 1.08186 0.46572 -0.10347
 H634 H 1.18246 0.46127 -0.23981
 H635 H 1.12174 0.40346 -0.39326
 H636 H 1.20335 0.46230 -0.32697
 H637 H 1.08045 0.38593 -0.33535
 H638 H 1.05642 0.39098 -0.25674
 H639 H 1.16193 0.47190 -0.17783
 H640 H 1.13728 0.48483 -0.11101
 H641 H 1.03577 0.40017 -0.19351
 H642 H 1.01343 0.41985 -0.13532
 H643 H 1.09436 0.48422 -0.07815
 C644 C 0.57620 0.70660 -0.31304
 C645 C 0.56655 0.67701 -0.31877
 C646 C 0.56195 0.66597 -0.37331
 C647 C 0.56617 0.68367 -0.41942
 C648 C 0.57552 0.71310 -0.41358
 C649 C 0.58056 0.72414 -0.35931
 C650 C 0.55271 0.63709 -0.38200
 C651 C 0.54754 0.61864 -0.33779
 C652 C 0.55115 0.62826 -0.28240
 C653 C 0.56089 0.65795 -0.27260
 C654 C 0.56400 0.66737 -0.21707
 C655 C 0.55695 0.64842 -0.17271
 C656 C 0.54677 0.61936 -0.18161
 C657 C 0.54443 0.60896 -0.23655
 C658 C 0.53473 0.57944 -0.24333
 C659 C 0.52578 0.56098 -0.19812
 C660 C 0.52670 0.57106 -0.14419
 C661 C 0.53811 0.60046 -0.13593
 H662 H 0.58081 0.71704 -0.27338
 H663 H 0.56053 0.67371 -0.45970
 H664 H 0.58885 0.74670 -0.35197
 H665 H 0.54923 0.62853 -0.42369
 H666 H 0.54013 0.59671 -0.34883
 H667 H 0.57134 0.68934 -0.20628
 H668 H 0.55912 0.65661 -0.13089
 H669 H 0.53319 0.56962 -0.28300
 H670 H 0.51733 0.53842 -0.20589
 H671 H 0.53908 0.60853 -0.09431
 C672 C 0.30165 -0.15476 -0.32071
 C673 C 0.33168 -0.14208 -0.32235
 C674 C 0.34442 -0.14406 -0.37267
 C675 C 0.32785 -0.15846 -0.41827
 C676 C 0.29826 -0.17011 -0.41692
 C677 C 0.28528 -0.16843 -0.36739
 C678 C 0.37378 -0.13145 -0.37785
 C679 C 0.39109 -0.11564 -0.33501
 C680 C 0.37966 -0.11234 -0.28435
 C681 C 0.34957 -0.12709 -0.27664
 C682 C 0.33861 -0.12664 -0.22342
 C683 C 0.35639 -0.11171 -0.17974
 C684 C 0.38562 -0.09571 -0.18780
 C685 C 0.39752 -0.09526 -0.24076
 C686 C 0.42687 -0.07718 -0.24840
 C687 C 0.44378 -0.06130 -0.20478
 C688 C 0.43225 -0.06279 -0.15210
 C689 C 0.40313 -0.07997 -0.14349
 H690 H 0.29027 -0.15369 -0.28455
 H691 H 0.33825 -0.16038 -0.45551
 H692 H 0.26248 -0.17713 -0.36500
 H693 H 0.38355 -0.13338 -0.41599
 H694 H 0.41353 -0.10689 -0.34243
 H695 H 0.31631 -0.13836 -0.21387
 H696 H 0.34709 -0.11231 -0.13940
 H697 H 0.43737 -0.07424 -0.28793
 H698 H 0.46622 -0.04797 -0.21221
 H699 H 0.39416 -0.08084 -0.10268
 C700 C 0.52957 -0.16037 0.32708
 C701 C 0.54443 -0.13092 0.31399
 C702 C 0.56592 -0.11300 0.35108
 C703 C 0.57214 -0.12426 0.39870
 C704 C 0.55730 -0.15343 0.41074
 C705 C 0.53601 -0.17131 0.37450
 C706 C 0.58112 -0.08386 0.34071
 C707 C 0.57516 -0.07177 0.29493
 C708 C 0.55364 -0.08845 0.25713
 C709 C 0.53841 -0.11861 0.26616
 C710 C 0.51757 -0.13540 0.22728
 C711 C 0.51076 -0.12315 0.18283
 C712 C 0.52442 -0.09374 0.17496
 C713 C 0.54645 -0.07593 0.21121
 C714 C 0.55976 -0.04621 0.20075
 C715 C 0.55041 -0.03478 0.15843
 C716 C 0.52775 -0.05242 0.12455
 C717 C 0.51548 -0.08198 0.13191
 H718 H 0.51264 -0.17558 0.30201
 H719 H 0.58887 -0.11030 0.42626
 H720 H 0.52397 -0.19389 0.38328
 H721 H 0.59772 -0.07010 0.36871
 H722 H 0.58788 -0.04909 0.29062
 H723 H 0.50587 -0.15825 0.23010
 H724 H 0.49421 -0.13692 0.15477
 H725 H 0.57694 -0.03102 0.22534
 H726 H 0.56043 -0.01185 0.15343
 H727 H 0.49796 -0.09586 0.10580
 C728 C 0.31384 0.47456 0.31827
 C729 C 0.34173 0.49711 0.31112
 C730 C 0.35204 0.51891 0.35156
 C731 C 0.33501 0.51812 0.39644
 C732 C 0.30816 0.49481 0.40504
 C733 C 0.29751 0.47334 0.36485
 C734 C 0.37968 0.54104 0.34823
 C735 C 0.39813 0.54106 0.30773
 C736 C 0.38928 0.51934 0.26766
 C737 C 0.36015 0.49828 0.26671
 C738 C 0.35056 0.47937 0.22136
 C739 C 0.36905 0.48056 0.17926
 C740 C 0.39800 0.49951 0.18229
 C741 C 0.40859 0.51846 0.22771
 C742 C 0.43827 0.53521 0.23242
 C743 C 0.45652 0.53414 0.19230
 C744 C 0.44589 0.51685 0.14566
 C745 C 0.41658 0.49953 0.14064
 H746 H 0.30465 0.45682 0.29018
 H747 H 0.34325 0.53537 0.42615
 H748 H 0.27697 0.45491 0.37039
 H749 H 0.38746 0.55808 0.37841
 H750 H 0.41915 0.55891 0.30787
 H751 H 0.32860 0.46397 0.21643
 H752 H 0.36070 0.46599 0.14472
 H753 H 0.44808 0.54869 0.26760
 H754 H 0.47914 0.54745 0.19717
 H755 H 0.40836 0.48566 0.10503
 C756 C 1.16781 0.68550 0.28482
 C757 C 1.13801 0.67171 0.27801
 C758 C 1.12143 0.67482 0.32093
 C759 C 1.13412 0.68916 0.37004
 C760 C 1.16341 0.70102 0.37730
 C761 C 1.18019 0.69984 0.33374
 C762 C 1.09215 0.66286 0.31548
 C763 C 1.07862 0.64678 0.26935
 C764 C 1.09387 0.64149 0.22701
 C765 C 1.12408 0.65426 0.23124
 C766 C 1.13918 0.64792 0.19015
 C767 C 1.12524 0.62856 0.14826
 C768 C 1.09581 0.61526 0.14468
 C769 C 1.07976 0.62249 0.18232
 C770 C 1.05007 0.60949 0.17475
 C771 C 1.03681 0.58812 0.13555
 C772 C 1.05261 0.57916 0.10217
 C773 C 1.08223 0.59378 0.10513
 H774 H 1.18217 0.68531 0.25359
 H775 H 1.12114 0.69056 0.40338
 H776 H 1.20295 0.70909 0.33840
 H777 H 1.07942 0.66545 0.34786
 H778 H 1.05590 0.63776 0.26949
 H779 H 1.16187 0.65660 0.19041
 H780 H 1.13764 0.62344 0.11907
 H781 H 1.03632 0.61481 0.19916
 H782 H 1.01390 0.57769 0.13328
 H783 H 1.09472 0.58742 0.07867
 C784 C 0.43547 0.14790 0.30014
 C785 C 0.44290 0.12564 0.30363
 C786 C 0.44649 0.11699 0.35719
 C787 C 0.44535 0.13174 0.40427
 C788 C 0.43712 0.15330 0.40130
 C789 C 0.43206 0.16101 0.34816
 C790 C 0.45126 0.09353 0.36395
 C791 C 0.45174 0.07784 0.31860
 C792 C 0.44938 0.08619 0.26417
 C793 C 0.44676 0.11150 0.25629
 C794 C 0.44963 0.12247 0.20187
 C795 C 0.45558 0.10942 0.15707
 C796 C 0.45664 0.08381 0.16414
 C797 C 0.45153 0.07098 0.21738
 C798 C 0.44889 0.04338 0.22192
 C799 C 0.45417 0.03038 0.17664
 C800 C 0.46286 0.04457 0.12558
 C801 C 0.46335 0.07108 0.11902
 H802 H 0.43104 0.15472 0.26086
 H803 H 0.45125 0.12608 0.44335
 H804 H 0.42518 0.17700 0.34309
 H805 H 0.45410 0.08685 0.40494
 H806 H 0.45578 0.06015 0.32718
 H807 H 0.44914 0.14217 0.19343
 H808 H 0.45912 0.11933 0.11646
 H809 H 0.44255 0.03127 0.26006
 H810 H 0.45297 0.00969 0.18278
 H811 H 0.46932 0.08192 0.07924
 C812 C 0.69053 0.56807 0.32141
 C813 C 0.67898 0.54343 0.28768
 C814 C 0.68469 0.52080 0.30268
 C815 C 0.70054 0.52268 0.35035
 C816 C 0.70999 0.54641 0.38502
 C817 C 0.70543 0.56926 0.36958
 C818 C 0.67330 0.49580 0.27178
 C819 C 0.65475 0.49183 0.22851
 C820 C 0.64701 0.51298 0.21399
 C821 C 0.66063 0.53981 0.24186
 C822 C 0.65479 0.56181 0.22404
 C823 C 0.63470 0.55717 0.18363
 C824 C 0.61943 0.53043 0.15966
 C825 C 0.62560 0.50800 0.17359
 C826 C 0.60904 0.48117 0.14840
 C827 C 0.58660 0.47667 0.11321
 C828 C 0.58018 0.49874 0.10119
 C829 C 0.59730 0.52580 0.12322
 H830 H 0.68715 0.58618 0.31363
 H831 H 0.70362 0.50472 0.36289
 H832 H 0.71240 0.58766 0.39631
 H833 H 0.67797 0.47862 0.28243
 H834 H 0.64663 0.47174 0.20739
 H835 H 0.66534 0.58302 0.24073
 H836 H 0.63043 0.57453 0.17229
 H837 H 0.61209 0.46289 0.15661
 H838 H 0.57378 0.45557 0.09654
 H839 H 0.59261 0.54312 0.11404
 C840 C 0.89562 0.31518 0.35902
 C841 C 0.88575 0.31995 0.30777
 C842 C 0.85629 0.30419 0.29708
 C843 C 0.83731 0.28762 0.33923
 C844 C 0.84731 0.28623 0.39221
 C845 C 0.87667 0.29863 0.40036
 C846 C 0.84579 0.30636 0.24546
 C847 C 0.86360 0.32495 0.20513
 C848 C 0.89260 0.34309 0.21570
 C849 C 0.90383 0.34061 0.26800
 C850 C 0.93218 0.36027 0.28052
 C851 C 0.94854 0.38248 0.24457
 C852 C 0.93777 0.38545 0.19385
 C853 C 0.91024 0.36493 0.17731
 C854 C 0.90121 0.36782 0.12368
 C855 C 0.91760 0.39156 0.09060
 C856 C 0.94349 0.41321 0.10966
 C857 C 0.95395 0.40951 0.16051
 H858 H 0.91782 0.32443 0.36891
 H859 H 0.81468 0.27767 0.33200
 H860 H 0.88503 0.29679 0.44016
 H861 H 0.82339 0.29403 0.23655
 H862 H 0.85352 0.32580 0.16709
 H863 H 0.94191 0.36013 0.31947
 H864 H 0.96971 0.39784 0.25714
 H865 H 0.88139 0.35235 0.10637
 H866 H 0.90917 0.39367 0.05107
 H867 H 0.97425 0.42589 0.17508
   
