data_POSCAR
  _audit_creation_date              2014-09-24
  _audit_creation_method            'ToBaCCo'
  _symmetry_space_group_name_H-M    'P1'
  _symmetry_Int_Tables_number       1
  _symmetry_cell_setting            triclinic
  loop_
  _symmetry_equiv_pos_as_xyz
 x,y,z
_cell_length_a 47.5431
_cell_length_b 47.9254
_cell_length_c 47.2714
_cell_angle_alpha 90.018300
_cell_angle_beta 90.020100
_cell_angle_gamma 90.034400
loop_
  _atom_site_label
  _atom_site_type_symbol
  _atom_site_fract_x
  _atom_site_fract_y
  _atom_site_fract_z
C1 C 1.21143 0.26201 0.29228
 H2 H 1.20992 0.23956 0.29411
 C3 C 1.19517 0.27910 0.30975
 H4 H 1.18083 0.26959 0.32470
 C5 C 1.23193 0.30156 0.27039
 H6 H 1.24669 0.31028 0.25547
 C7 C 1.21606 0.31942 0.28742
 H8 H 1.21880 0.34175 0.28531
 N9 N 1.22911 0.27341 0.27285
 C10 C 1.24099 0.20904 0.20843
 H11 H 1.26372 0.20838 0.20773
 C12 C 1.22525 0.19195 0.19048
 H13 H 1.23607 0.17831 0.17583
 C14 C 1.19940 0.22829 0.22793
 H15 H 1.18938 0.24267 0.24234
 C16 C 1.18284 0.21160 0.21032
 H17 H 1.16016 0.21297 0.21180
 Zn18 Zn 1.25107 0.24882 0.25049
 N19 N 1.22793 0.22646 0.22696
 C20 C 1.27026 0.19796 0.27471
 N21 N 1.27214 0.22619 0.27556
 C22 C 1.28891 0.23915 0.29469
 C23 C 1.30561 0.22366 0.31321
 C24 C 1.28648 0.18156 0.29285
 C25 C 1.26393 0.28582 0.20643
 C26 C 1.28103 0.30143 0.18836
 C27 C 1.32184 0.28179 0.21138
 C28 C 1.30397 0.26656 0.22900
 N29 N 1.27558 0.26919 0.22657
 H30 H 1.25643 0.18797 0.25968
 H31 H 1.28942 0.26172 0.29546
 H32 H 1.31770 0.23535 0.32850
 H33 H 1.28513 0.15929 0.28979
 H34 H 1.24129 0.28718 0.20466
 H35 H 1.27134 0.31512 0.17297
 H36 H 1.34437 0.27936 0.21361
 H37 H 1.31288 0.25259 0.24449
 C38 C 1.19574 0.19300 0.19136
 C39 C 1.19731 0.30825 0.30739
 C40 C 1.31042 0.29970 0.19088
 C41 C 1.30513 0.19407 0.31259
 C42 C 0.71065 -0.23986 0.29359
 H43 H 0.71039 -0.26243 0.29438
 C44 C 0.69326 -0.22450 0.31158
 H45 H 0.67940 -0.23542 0.32599
 C46 C 0.72871 -0.19833 0.27334
 H47 H 0.74280 -0.18817 0.25870
 C48 C 0.71167 -0.18216 0.29092
 H49 H 0.71290 -0.15964 0.28959
 N50 N 0.72749 -0.22666 0.27459
 C51 C 0.73832 -0.28620 0.20579
 H52 H 0.76102 -0.28691 0.20436
 C53 C 0.72194 -0.30216 0.18735
 H54 H 0.73222 -0.31503 0.17162
 C55 C 0.69743 -0.26796 0.22765
 H56 H 0.68790 -0.25439 0.24313
 C57 C 0.68026 -0.28353 0.20963
 H58 H 0.65764 -0.28219 0.21194
 Zn59 Zn 0.74950 -0.24902 0.25012
 N60 N 0.72591 -0.26991 0.22575
 C61 C 0.76932 -0.30129 0.27048
 N62 N 0.77143 -0.27309 0.27303
 C63 C 0.78842 -0.26130 0.29285
 C64 C 0.80474 -0.27802 0.31062
 C65 C 0.78524 -0.31879 0.28784
 C66 C 0.75973 -0.20938 0.20802
 C67 C 0.77552 -0.19208 0.19036
 C68 C 0.81785 -0.21054 0.21153
 C69 C 0.80123 -0.22751 0.22879
 N70 N 0.77270 -0.22635 0.22703
 H71 H 0.75523 -0.31034 0.25510
 H72 H 0.78926 -0.23882 0.29483
 H73 H 0.81802 -0.26821 0.32636
 H74 H 0.78364 -0.34117 0.28512
 H75 H 0.73700 -0.20914 0.20680
 H76 H 0.76475 -0.17829 0.17582
 H77 H 0.84053 -0.21187 0.21314
 H78 H 0.81120 -0.24165 0.24346
 C79 C 0.69248 -0.30108 0.18927
 C80 C 0.69340 -0.19523 0.31014
 C81 C 0.80501 -0.19240 0.19209
 C82 C 0.80335 -0.30720 0.30818
 C83 C 0.71063 0.26070 -0.20728
 H84 H 0.71030 0.23814 -0.20647
 C85 C 0.69333 0.27613 -0.18926
 H86 H 0.67947 0.26525 -0.17481
 C87 C 0.72877 0.30217 -0.22759
 H88 H 0.74287 0.31227 -0.24227
 C89 C 0.71182 0.31840 -0.20998
 H90 H 0.71312 0.34092 -0.21132
 N91 N 0.72749 0.27384 -0.22632
 C92 C 0.73819 0.21402 -0.29494
 H93 H 0.76089 0.21325 -0.29637
 C94 C 0.72177 0.19799 -0.31329
 H95 H 0.73201 0.18501 -0.32895
 C96 C 0.69734 0.23245 -0.27317
 H97 H 0.68784 0.24613 -0.25776
 C98 C 0.68013 0.21682 -0.29111
 H99 H 0.65752 0.21821 -0.28879
 Zn100 Zn 0.74946 0.25136 -0.25073
 N101 N 0.72582 0.23045 -0.27507
 C102 C 0.76913 0.19907 -0.23018
 N103 N 0.77131 0.22727 -0.22773
 C104 C 0.78835 0.23908 -0.20795
 C105 C 0.80464 0.22238 -0.19013
 C106 C 0.78501 0.18158 -0.21277
 C107 C 0.76005 0.29091 -0.29286
 C108 C 0.77595 0.30811 -0.31054
 C109 C 0.81805 0.28939 -0.28932
 C110 C 0.80124 0.27256 -0.27212
 N111 N 0.77279 0.27391 -0.27385
 H112 H 0.75500 0.19001 -0.24553
 H113 H 0.78925 0.26156 -0.20605
 H114 H 0.81795 0.23220 -0.17443
 H115 H 0.78335 0.15920 -0.21542
 H116 H 0.73732 0.29143 -0.29397
 H117 H 0.76431 0.32220 -0.32396
 H118 H 0.84048 0.28634 -0.28765
 H119 H 0.81107 0.25817 -0.25760
 C120 C 0.69231 0.19912 -0.31136
 C121 C 0.69356 0.30540 -0.19070
 C122 C 0.80577 0.30802 -0.30913
 C123 C 0.80316 0.19319 -0.19248
 C124 C 1.21132 -0.23752 -0.20782
 H125 H 1.20992 -0.25996 -0.20583
 C126 C 1.19504 -0.22040 -0.19041
 H127 H 1.18079 -0.22988 -0.17535
 C128 C 1.23158 -0.19801 -0.23001
 H129 H 1.24627 -0.18932 -0.24503
 C130 C 1.21569 -0.18012 -0.21305
 H131 H 1.21833 -0.15779 -0.21530
 N132 N 1.22890 -0.22616 -0.22736
 C133 C 1.24106 -0.29101 -0.29117
 H134 H 1.26380 -0.29165 -0.29182
 C135 C 1.22539 -0.30824 -0.30904
 H136 H 1.23625 -0.32197 -0.32357
 C137 C 1.19941 -0.27165 -0.27192
 H138 H 1.18934 -0.25717 -0.25766
 C139 C 1.18291 -0.28848 -0.28946
 H140 H 1.16022 -0.28711 -0.28805
 Zn141 Zn 1.25096 -0.25081 -0.24950
 N142 N 1.22794 -0.27346 -0.27282
 C143 C 1.27052 -0.30140 -0.22488
 N144 N 1.27212 -0.27307 -0.22421
 C145 C 1.28874 -0.25969 -0.20511
 C146 C 1.30549 -0.27489 -0.18640
 C147 C 1.28687 -0.31742 -0.20651
 C148 C 1.26371 -0.21411 -0.29383
 C149 C 1.28077 -0.19858 -0.31200
 C150 C 1.32162 -0.21798 -0.28883
 C151 C 1.30378 -0.23312 -0.27111
 N152 N 1.27539 -0.23057 -0.27356
 H153 H 1.25674 -0.31168 -0.23976
 H154 H 1.28922 -0.23712 -0.20471
 H155 H 1.31868 -0.26386 -0.17144
 H156 H 1.28586 -0.33995 -0.20787
 H157 H 1.24106 -0.21281 -0.29561
 H158 H 1.27106 -0.18503 -0.32749
 H159 H 1.34415 -0.22035 -0.28659
 H160 H 1.31272 -0.24697 -0.25552
 C161 C 1.19588 -0.30719 -0.30826
 C162 C 1.19705 -0.19126 -0.19295
 C163 C 1.31016 -0.20024 -0.30946
 C164 C 1.30487 -0.30418 -0.18712
 C165 C 0.26226 0.21373 0.70574
 H166 H 0.23957 0.21309 0.70402
 C167 C 0.27878 0.19782 0.68743
 H168 H 0.26864 0.18505 0.67151
 C169 C 0.30296 0.23175 0.72820
 H170 H 0.31236 0.24522 0.74387
 C171 C 0.32029 0.21621 0.71032
 H172 H 0.34288 0.21747 0.71292
 N173 N 0.27450 0.22990 0.72593
 C174 C 0.21130 0.23816 0.79226
 H175 H 0.21057 0.26063 0.79437
 C176 C 0.19485 0.22142 0.80989
 H177 H 0.18227 0.23177 0.82577
 C178 C 0.23057 0.19833 0.77006
 H179 H 0.24470 0.18934 0.75469
 C180 C 0.21457 0.18074 0.78727
 H181 H 0.21619 0.15855 0.78356
 Zn182 Zn 0.25066 0.25066 0.75010
 N183 N 0.22844 0.22647 0.77260
 C184 C 0.19919 0.27202 0.72808
 N185 N 0.22774 0.27344 0.72685
 C186 C 0.24091 0.29064 0.70820
 C187 C 0.22529 0.30789 0.69033
 C188 C 0.18275 0.28888 0.71056
 C189 C 0.28891 0.25944 0.79415
 C190 C 0.30583 0.27462 0.81276
 C191 C 0.28756 0.31718 0.79246
 C192 C 0.27103 0.30118 0.77420
 N193 N 0.27235 0.27284 0.77504
 H194 H 0.18908 0.25781 0.74259
 H195 H 0.26365 0.29097 0.70729
 H196 H 0.23619 0.32133 0.67554
 H197 H 0.16006 0.28781 0.71222
 H198 H 0.28915 0.23687 0.79469
 H199 H 0.31893 0.26357 0.82777
 H200 H 0.28673 0.33971 0.79100
 H201 H 0.25730 0.31148 0.75933
 C202 C 0.19609 0.19202 0.80770
 C203 C 0.30823 0.19878 0.68974
 C204 C 0.30544 0.30390 0.81191
 C205 C 0.19578 0.30722 0.69143
 C206 C 0.75920 0.70885 0.70825
 H207 H 0.73647 0.70838 0.70712
 C208 C 0.77508 0.69153 0.69069
 H209 H 0.76438 0.67748 0.67633
 C210 C 0.80061 0.72761 0.72868
 H211 H 0.81051 0.74201 0.74316
 C212 C 0.81732 0.71063 0.71152
 H213 H 0.83999 0.71221 0.71302
 N214 N 0.77208 0.72615 0.72704
 C215 C 0.70997 0.73968 0.79354
 H216 H 0.70954 0.76225 0.79415
 C217 C 0.69296 0.72434 0.81191
 H218 H 0.68031 0.73580 0.82693
 C219 C 0.72868 0.69825 0.77401
 H220 H 0.74269 0.68811 0.75928
 C221 C 0.71215 0.68204 0.79203
 H222 H 0.71331 0.65964 0.78962
 Zn223 Zn 0.74876 0.74885 0.74999
 N224 N 0.72697 0.72652 0.77473
 C225 C 0.69654 0.76747 0.72745
 N226 N 0.72503 0.76940 0.72548
 C227 C 0.73741 0.78556 0.70539
 C228 C 0.72101 0.80143 0.68692
 C229 C 0.67935 0.78295 0.70939
 C230 C 0.78776 0.76190 0.79251
 C231 C 0.80394 0.77895 0.81012
 C232 C 0.78395 0.81930 0.78706
 C233 C 0.76815 0.80148 0.76991
 N234 N 0.77057 0.77332 0.77265
 H235 H 0.68704 0.75400 0.74305
 H236 H 0.76010 0.78628 0.70391
 H237 H 0.73127 0.81421 0.67110
 H238 H 0.65674 0.78165 0.71178
 H239 H 0.78896 0.73944 0.79456
 H240 H 0.81791 0.76942 0.82540
 H241 H 0.78154 0.84165 0.78470
 H242 H 0.75377 0.81024 0.75463
 C243 C 0.69352 0.69486 0.81138
 C244 C 0.80457 0.69216 0.69230
 C245 C 0.80223 0.80810 0.80745
 C246 C 0.69155 0.80041 0.68894
 C247 C 0.75917 0.20888 0.20835
 H248 H 0.73644 0.20857 0.20726
 C249 C 0.77490 0.19163 0.19058
 H250 H 0.76410 0.17820 0.17569
 C251 C 0.80077 0.22748 0.22856
 H252 H 0.81079 0.24168 0.24315
 C253 C 0.81732 0.21062 0.21114
 H254 H 0.84000 0.21168 0.21297
 N255 N 0.77223 0.22608 0.22711
 C256 C 0.71051 0.24017 0.29386
 H257 H 0.71027 0.26274 0.29441
 C258 C 0.69341 0.22500 0.31230
 H259 H 0.68017 0.23606 0.32718
 C260 C 0.72855 0.19842 0.27409
 H261 H 0.74242 0.18810 0.25934
 C262 C 0.71185 0.18243 0.29217
 H263 H 0.71269 0.15990 0.29072
 Zn264 Zn 0.74916 0.24889 0.25017
 N265 N 0.72724 0.22675 0.27491
 C266 C 0.69706 0.26785 0.22777
 N267 N 0.72554 0.26967 0.22577
 C268 C 0.73798 0.28578 0.20567
 C269 C 0.72163 0.30168 0.18718
 C270 C 0.67991 0.28337 0.20971
 C271 C 0.78827 0.26136 0.29265
 C272 C 0.80467 0.27814 0.31031
 C273 C 0.78521 0.31884 0.28742
 C274 C 0.76920 0.30128 0.27017
 N275 N 0.77125 0.27309 0.27283
 H276 H 0.68751 0.25442 0.24338
 H277 H 0.76068 0.28639 0.20416
 H278 H 0.73192 0.31440 0.17134
 H279 H 0.65730 0.28215 0.21209
 H280 H 0.78906 0.23889 0.29472
 H281 H 0.81796 0.26839 0.32606
 H282 H 0.78364 0.34120 0.28463
 H283 H 0.75508 0.31027 0.25479
 C284 C 0.69380 0.19572 0.31145
 C285 C 0.80441 0.19229 0.19189
 C286 C 0.80333 0.30731 0.30777
 C287 C 0.69217 0.30074 0.18921
 C288 C 0.26248 0.71398 0.20581
 H289 H 0.23980 0.71327 0.20407
 C290 C 0.27907 0.69794 0.18767
 H291 H 0.26898 0.68502 0.17184
 C292 C 0.30311 0.73228 0.22817
 H293 H 0.31246 0.74590 0.24375
 C294 C 0.32050 0.71662 0.21045
 H295 H 0.34308 0.71795 0.21307
 N296 N 0.27465 0.73035 0.22588
 C297 C 0.21127 0.73890 0.29210
 H298 H 0.21032 0.76138 0.29397
 C299 C 0.19483 0.72217 0.30976
 H300 H 0.18134 0.73197 0.32530
 C301 C 0.23080 0.69891 0.27015
 H302 H 0.24511 0.68988 0.25499
 C303 C 0.21476 0.68140 0.28740
 H304 H 0.21651 0.65902 0.28482
 Zn305 Zn 0.25070 0.75124 0.24986
 N306 N 0.22855 0.72712 0.27254
 C307 C 0.19914 0.77227 0.22765
 N308 N 0.22769 0.77373 0.22638
 C309 C 0.24081 0.79084 0.20760
 C310 C 0.22514 0.80797 0.18966
 C311 C 0.18265 0.78902 0.21006
 C312 C 0.28895 0.76076 0.29379
 C313 C 0.30580 0.77620 0.31224
 C314 C 0.28707 0.81836 0.29169
 C315 C 0.27069 0.80200 0.27362
 N316 N 0.27227 0.77377 0.27462
 H317 H 0.18906 0.75815 0.24227
 H318 H 0.26354 0.79120 0.20667
 H319 H 0.23600 0.82136 0.17479
 H320 H 0.15996 0.78795 0.21177
 H321 H 0.28920 0.73820 0.29468
 H322 H 0.31776 0.76449 0.32759
 H323 H 0.28594 0.84063 0.28853
 H324 H 0.25695 0.81204 0.25856
 C325 C 0.19640 0.69298 0.30749
 C326 C 0.30851 0.69899 0.19000
 C327 C 0.30556 0.80580 0.31153
 C328 C 0.19563 0.80729 0.19082
 N329 N 1.02958 -0.04926 0.02902
 N330 N 1.04823 -0.06885 0.03481
 N331 N 0.97059 -0.02997 0.04907
 N332 N 0.95202 -0.03587 0.06895
 N333 N 0.97048 -0.04931 0.02935
 N334 N 0.95183 -0.06887 0.03531
 N335 N 1.02970 -0.02993 0.04874
 N336 N 1.04845 -0.03586 0.06846
 C337 C 1.06009 -0.05991 0.05918
 C338 C 0.94024 -0.05991 0.05978
 N339 N 0.97044 0.04965 0.02952
 N340 N 0.95173 0.06913 0.03550
 N341 N 1.02968 0.03034 0.04885
 N342 N 1.04840 0.03627 0.06861
 N343 N 1.02954 0.04973 0.02921
 N344 N 1.04816 0.06935 0.03507
 N345 N 0.97056 0.03027 0.04917
 N346 N 0.95194 0.03605 0.06905
 Mn347 Mn 1.00014 0.00018 0.04921
 C348 C 0.94012 0.06007 0.05992
 C349 C 1.06001 0.06037 0.05942
 N350 N 0.97011 -0.04923 -0.03169
 N351 N 0.95135 -0.06875 -0.03747
 N352 N 1.02909 -0.02977 -0.05167
 N353 N 1.04781 -0.03548 -0.07147
 N354 N 1.02921 -0.04916 -0.03202
 N355 N 1.04802 -0.06856 -0.03792
 N356 N 0.96997 -0.02984 -0.05134
 N357 N 0.95112 -0.03567 -0.07101
 Mn358 Mn 0.99984 -0.04948 -0.00134
 C359 C 0.93945 -0.05973 -0.06176
 C360 C 1.05968 -0.05946 -0.06231
 N361 N 1.02918 0.04979 -0.03184
 N362 N 1.04793 0.06928 -0.03769
 N363 N 0.96995 0.03042 -0.05124
 N364 N 0.95117 0.03634 -0.07094
 N365 N 0.97007 0.04975 -0.03152
 N366 N 0.95138 0.06931 -0.03727
 N367 N 1.02907 0.03047 -0.05156
 N368 N 1.04775 0.03630 -0.07137
 Mn369 Mn 0.99981 0.04996 -0.00116
 Mn370 Mn 0.99952 0.00032 -0.05170
 Cl371 Cl 0.99983 0.00025 -0.00125
 C372 C 1.05958 0.06030 -0.06213
 C373 C 0.93952 0.06037 -0.06163
 N374 N 0.97044 0.53019 0.44915
 N375 N 0.95165 0.53606 0.42944
 N376 N 1.02958 0.54961 0.46871
 N377 N 1.04824 0.56919 0.46285
 N378 N 1.02955 0.53029 0.44897
 N379 N 1.04820 0.53623 0.42916
 N380 N 0.97048 0.54950 0.46888
 N381 N 0.95173 0.56901 0.46313
 C382 C 0.93992 0.56005 0.43876
 C383 C 1.05993 0.56027 0.43840
 N384 N 1.02986 0.53010 0.54939
 N385 N 1.04860 0.53597 0.56915
 N386 N 0.97067 0.54940 0.52993
 N387 N 0.95202 0.56892 0.53593
 N388 N 0.97075 0.52999 0.54956
 N389 N 0.95215 0.53581 0.56945
 N390 N 1.02977 0.54949 0.52975
 N391 N 1.04844 0.56906 0.53562
 Mn392 Mn 1.00012 0.54973 0.49932
 C393 C 1.06026 0.56005 0.55996
 C394 C 0.94039 0.55987 0.56035
 N395 N 1.02962 0.47003 0.44883
 N396 N 1.04833 0.46428 0.42902
 N397 N 0.97060 0.45054 0.46865
 N398 N 0.95188 0.43101 0.46282
 N399 N 0.97051 0.46993 0.44901
 N400 N 0.95172 0.46409 0.42928
 N401 N 1.02970 0.45064 0.46847
 N402 N 1.04846 0.43119 0.46255
 Mn403 Mn 1.00003 0.50011 0.44874
 C404 C 1.06014 0.44026 0.43817
 C405 C 0.94003 0.44003 0.43850
 N406 N 0.97082 0.46974 0.54942
 N407 N 0.95222 0.46378 0.56927
 N408 N 1.02989 0.45052 0.52952
 N409 N 1.04860 0.43100 0.53531
 N410 N 1.02993 0.46985 0.54925
 N411 N 1.04868 0.46397 0.56898
 N412 N 0.97079 0.45041 0.52970
 N413 N 0.95217 0.43080 0.53561
 Mn414 Mn 1.00034 0.49992 0.54965
 Mn415 Mn 1.00024 0.45029 0.49908
 Cl416 Cl 1.00019 0.50001 0.49920
 C417 C 0.94051 0.43972 0.56007
 C418 C 1.06040 0.43996 0.55969
 N419 N 0.54962 0.02907 0.53107
 N420 N 0.56906 0.04801 0.53647
 N421 N 0.53024 -0.02957 0.55081
 N422 N 0.53595 -0.04859 0.57019
 N423 N 0.54960 -0.02955 0.53098
 N424 N 0.56899 -0.04853 0.53632
 N425 N 0.53026 0.02907 0.55089
 N426 N 0.53601 0.04802 0.57034
 C427 C 0.56001 0.05986 0.56076
 C428 C 0.55991 -0.06043 0.56057
 N429 N 0.44997 -0.02961 0.53156
 N430 N 0.43073 -0.04872 0.53705
 N431 N 0.46956 0.02904 0.55123
 N432 N 0.46411 0.04805 0.57069
 N433 N 0.44996 0.02901 0.53164
 N434 N 0.43064 0.04800 0.53722
 N435 N 0.46958 -0.02961 0.55115
 N436 N 0.46421 -0.04873 0.57052
 Mn437 Mn 0.49991 -0.00026 0.55130
 C438 C 0.44017 -0.06065 0.56115
 C439 C 0.44002 0.05989 0.56136
 N440 N 0.54921 -0.02947 0.47003
 N441 N 0.56860 -0.04835 0.46434
 N442 N 0.52962 0.02919 0.45054
 N443 N 0.53519 0.04813 0.43104
 N444 N 0.54922 0.02914 0.47013
 N445 N 0.56864 0.04804 0.46452
 N446 N 0.52961 -0.02945 0.45043
 N447 N 0.53515 -0.04833 0.43086
 Mn448 Mn 0.54966 -0.00020 0.50055
 C449 C 0.55926 -0.06015 0.44013
 C450 C 0.55932 0.05992 0.44036
 N451 N 0.44954 0.02908 0.47070
 N452 N 0.42996 0.04783 0.46522
 N453 N 0.46892 -0.02949 0.45077
 N454 N 0.46305 -0.04827 0.43119
 N455 N 0.44956 -0.02953 0.47061
 N456 N 0.43002 -0.04833 0.46507
 N457 N 0.46890 0.02915 0.45088
 N458 N 0.46300 0.04796 0.43135
 Mn459 Mn 0.44951 -0.00027 0.50113
 Mn460 Mn 0.49926 -0.00015 0.45038
 Cl461 Cl 0.49959 -0.00022 0.50084
 C462 C 0.43893 0.05966 0.44089
 C463 C 0.43901 -0.06007 0.44070
 N464 N 0.55003 0.52916 0.03132
 N465 N 0.56943 0.54816 0.03668
 N466 N 0.53078 0.47047 0.05105
 N467 N 0.53654 0.45144 0.07039
 N468 N 0.55010 0.47055 0.03118
 N469 N 0.56951 0.45157 0.03645
 N470 N 0.53071 0.52911 0.05118
 N471 N 0.53645 0.54808 0.07061
 C472 C 0.56039 0.55998 0.06099
 C473 C 0.56050 0.43964 0.06071
 N474 N 0.45047 0.47035 0.03201
 N475 N 0.43121 0.45127 0.03758
 N476 N 0.47002 0.52900 0.05169
 N477 N 0.46456 0.54796 0.07120
 N478 N 0.45037 0.52897 0.03214
 N479 N 0.43103 0.54790 0.03780
 N480 N 0.47012 0.47035 0.05156
 N481 N 0.46476 0.45127 0.07097
 Mn482 Mn 0.50041 0.49974 0.05165
 C483 C 0.44068 0.43936 0.06168
 C484 C 0.44042 0.55977 0.06196
 N485 N 0.54962 0.47068 -0.02978
 N486 N 0.56909 0.45192 -0.03560
 N487 N 0.52990 0.52933 -0.04917
 N488 N 0.53547 0.54822 -0.06872
 N489 N 0.54955 0.52929 -0.02961
 N490 N 0.56898 0.54814 -0.03531
 N491 N 0.52997 0.47069 -0.04933
 N492 N 0.53556 0.45193 -0.06900
 Mn493 Mn 0.55007 0.49992 0.00078
 C494 C 0.55976 0.44018 -0.05985
 C495 C 0.55964 0.55999 -0.05948
 N496 N 0.44987 0.52909 -0.02879
 N497 N 0.43034 0.54792 -0.03413
 N498 N 0.46928 0.47057 -0.04882
 N499 N 0.46349 0.45168 -0.06832
 N500 N 0.44997 0.47048 -0.02894
 N501 N 0.43053 0.45155 -0.03436
 N502 N 0.46919 0.52920 -0.04865
 N503 N 0.46330 0.54813 -0.06807
 Mn504 Mn 0.44992 0.49972 0.00161
 Mn505 Mn 0.49958 0.49995 -0.04927
 Cl506 Cl 0.50000 0.49983 0.00119
 C507 C 0.43928 0.55984 -0.05842
 C508 C 0.43953 0.43979 -0.05871
 C509 C 1.17010 0.12968 0.15039
 C510 C 1.14561 0.14006 0.13778
 C511 C 1.13762 0.16778 0.14247
 C512 C 1.15395 0.18504 0.15978
 C513 C 1.17855 0.17478 0.17267
 C514 C 1.18648 0.14691 0.16769
 C515 C 1.12838 0.12222 0.12041
 C516 C 1.11355 0.10749 0.10605
 C517 C 1.09562 0.09059 0.08948
 C518 C 1.07973 0.07654 0.07559
 H519 H 1.17642 0.10822 0.14700
 H520 H 1.11872 0.17605 0.13279
 H521 H 1.14748 0.20648 0.16287
 H522 H 1.20509 0.13829 0.17758
 C523 C 1.17032 0.62932 0.65101
 C524 C 1.14591 0.63969 0.63824
 C525 C 1.13795 0.66744 0.64273
 C526 C 1.15423 0.68476 0.66002
 C527 C 1.17875 0.67453 0.67308
 C528 C 1.18666 0.64662 0.66830
 C529 C 1.12872 0.62180 0.62089
 C530 C 1.11389 0.60706 0.60655
 C531 C 1.09594 0.59018 0.59001
 C532 C 1.08002 0.57616 0.57613
 H533 H 1.17662 0.60784 0.64777
 H534 H 1.11911 0.67570 0.63292
 H535 H 1.14778 0.70623 0.66296
 H536 H 1.20521 0.63802 0.67832
 C537 C 0.63196 0.17547 0.64171
 C538 C 0.63964 0.14785 0.63600
 C539 C 0.66473 0.13716 0.64704
 C540 C 0.68200 0.15392 0.66390
 C541 C 0.67437 0.18164 0.66999
 C542 C 0.64920 0.19227 0.65859
 C543 C 0.62165 0.13023 0.61925
 C544 C 0.60684 0.11498 0.60548
 C545 C 0.58993 0.09649 0.58965
 C546 C 0.57596 0.08012 0.57634
 H547 H 0.61261 0.18396 0.63322
 H548 H 0.67082 0.11578 0.64284
 H549 H 0.70102 0.14500 0.67267
 H550 H 0.64293 0.21363 0.66260
 C551 C 0.63222 0.67547 0.14215
 C552 C 0.63993 0.64790 0.13632
 C553 C 0.66501 0.63716 0.14733
 C554 C 0.68225 0.65384 0.16429
 C555 C 0.67459 0.68152 0.17051
 C556 C 0.64943 0.69221 0.15914
 C557 C 0.62195 0.63034 0.11950
 C558 C 0.60716 0.61512 0.10570
 C559 C 0.59027 0.59665 0.08984
 C560 C 0.57631 0.58026 0.07654
 H561 H 0.61287 0.68400 0.13369
 H562 H 0.67112 0.61580 0.14303
 H563 H 0.70126 0.64489 0.17304
 H564 H 0.64315 0.71354 0.16325
 C565 C 0.83117 -0.15198 0.12815
 C566 C 0.85504 -0.13880 0.13921
 C567 C 0.86253 -0.14307 0.16751
 C568 C 0.84627 -0.16048 0.18470
 C569 C 0.82226 -0.17388 0.17379
 C570 C 0.81486 -0.16939 0.14532
 C571 C 0.87215 -0.12122 0.12149
 C572 C 0.88690 -0.10668 0.10689
 C573 C 0.90476 -0.08995 0.09010
 C574 C 0.92059 -0.07601 0.07607
 H575 H 0.82526 -0.14893 0.10623
 H576 H 0.88095 -0.13295 0.17630
 H577 H 0.85231 -0.16319 0.20661
 H578 H 0.79671 -0.17967 0.13620
 C579 C 0.86677 0.34846 0.66346
 C580 C 0.85533 0.36042 0.63917
 C581 C 0.82741 0.35497 0.63202
 C582 C 0.81090 0.33763 0.64906
 C583 C 0.82191 0.32507 0.67397
 C584 C 0.85045 0.33108 0.68061
 C585 C 0.87243 0.37812 0.62154
 C586 C 0.88717 0.39274 0.60701
 C587 C 0.90503 0.40956 0.59029
 C588 C 0.92086 0.42356 0.57631
 H589 H 0.88836 0.35276 0.66937
 H590 H 0.81841 0.36391 0.61301
 H591 H 0.78995 0.33333 0.64141
 H592 H 0.86036 0.32375 0.69976
 C593 C 0.33966 -0.16292 0.62619
 C594 C 0.36350 -0.15003 0.63764
 C595 C 0.37015 -0.15387 0.66620
 C596 C 0.35294 -0.17039 0.68333
 C597 C 0.32878 -0.18327 0.67210
 C598 C 0.32239 -0.17945 0.64329
 C599 C 0.38067 -0.13210 0.62039
 C600 C 0.39485 -0.11659 0.60629
 C601 C 0.41112 -0.09780 0.59019
 C602 C 0.42464 -0.08117 0.57676
 H603 H 0.33431 -0.16006 0.60409
 H604 H 0.38846 -0.14384 0.67531
 H605 H 0.35821 -0.17259 0.70550
 H606 H 0.30414 -0.18936 0.63396
 C607 C 0.33995 0.33732 0.12671
 C608 C 0.36387 0.35006 0.13820
 C609 C 0.37054 0.34602 0.16673
 C610 C 0.35330 0.32946 0.18379
 C611 C 0.32907 0.31673 0.17252
 C612 C 0.32265 0.32075 0.14375
 C613 C 0.38109 0.36801 0.12101
 C614 C 0.39530 0.38352 0.10694
 C615 C 0.41161 0.40229 0.09082
 C616 C 0.42515 0.41888 0.07735
 H617 H 0.33459 0.34034 0.10465
 H618 H 0.38891 0.35593 0.17588
 H619 H 0.35860 0.32710 0.20593
 H620 H 0.30436 0.31096 0.13437
 C621 C 0.86493 0.16489 -0.15041
 C622 C 0.85370 0.14015 -0.13947
 C623 C 0.82587 0.13281 -0.14563
 C624 C 0.80937 0.15009 -0.16276
 C625 C 0.82051 0.17497 -0.17396
 C626 C 0.84848 0.18220 -0.16752
 C627 C 0.87091 0.12224 -0.12219
 C628 C 0.88577 0.10748 -0.10793
 C629 C 0.90376 0.09056 -0.09148
 C630 C 0.91971 0.07651 -0.07770
 H631 H 0.88649 0.17073 -0.14586
 H632 H 0.81693 0.11374 -0.13723
 H633 H 0.78781 0.14412 -0.16702
 H634 H 0.85780 0.20099 -0.17610
 C635 C 0.82613 0.63236 0.35487
 C636 C 0.85394 0.63973 0.36106
 C637 C 0.86514 0.66452 0.35018
 C638 C 0.84867 0.68184 0.33312
 C639 C 0.82071 0.67457 0.32666
 C640 C 0.80960 0.64965 0.33779
 C641 C 0.87118 0.62181 0.37829
 C642 C 0.88606 0.60706 0.39252
 C643 C 0.90409 0.59016 0.40893
 C644 C 0.92008 0.57614 0.42270
 H645 H 0.81722 0.61325 0.36323
 H646 H 0.88669 0.67038 0.35475
 H647 H 0.85796 0.70067 0.32458
 H648 H 0.78806 0.64365 0.33351
 C649 C 0.36382 0.17350 0.36031
 C650 C 0.35779 0.14538 0.36477
 C651 C 0.33398 0.13358 0.35237
 C652 C 0.31634 0.14968 0.33530
 C653 C 0.32203 0.17833 0.33000
 C654 C 0.34627 0.18980 0.34329
 C655 C 0.37616 0.12838 0.38174
 C656 C 0.39126 0.11359 0.39567
 C657 C 0.40850 0.09559 0.41169
 C658 C 0.42273 0.07956 0.42514
 H659 H 0.38241 0.18281 0.36966
 H660 H 0.32891 0.11182 0.35599
 H661 H 0.29766 0.13941 0.32752
 H662 H 0.35311 0.21097 0.33961
 C663 C 0.36873 0.67117 -0.14593
 C664 C 0.35854 0.64661 -0.13365
 C665 C 0.33066 0.63843 -0.13832
 C666 C 0.31308 0.65459 -0.15543
 C667 C 0.32320 0.67917 -0.16813
 C668 C 0.35118 0.68738 -0.16304
 C669 C 0.37680 0.62933 -0.11688
 C670 C 0.39183 0.61434 -0.10311
 C671 C 0.40899 0.59611 -0.08728
 C672 C 0.42316 0.57992 -0.07398
 H673 H 0.39032 0.67762 -0.14256
 H674 H 0.32255 0.61946 -0.12888
 H675 H 0.29156 0.64791 -0.15865
 H676 H 0.35968 0.70600 -0.17281
 C677 C 1.15117 -0.13090 -0.16892
 C678 C 1.14681 -0.13753 -0.14042
 C679 C 1.15905 -0.16157 -0.12900
 C680 C 1.17548 -0.17899 -0.14602
 C681 C 1.17988 -0.17260 -0.17474
 C682 C 1.16761 -0.14828 -0.18597
 C683 C 1.12920 -0.12004 -0.12312
 C684 C 1.11406 -0.10562 -0.10881
 C685 C 1.09579 -0.08907 -0.09230
 C686 C 1.07965 -0.07531 -0.07845
 H687 H 1.14166 -0.11243 -0.17802
 H688 H 1.15581 -0.16689 -0.10697
 H689 H 1.18495 -0.19734 -0.13664
 H690 H 1.17029 -0.14297 -0.20806
 C691 C 1.15159 0.36870 0.33155
 C692 C 1.14704 0.36195 0.35998
 C693 C 1.15909 0.33777 0.37132
 C694 C 1.17552 0.32035 0.35428
 C695 C 1.18012 0.32689 0.32563
 C696 C 1.16802 0.35133 0.31448
 C697 C 1.12946 0.37946 0.37730
 C698 C 1.11436 0.39392 0.39162
 C699 C 1.09614 0.41053 0.40814
 C700 C 1.08005 0.42435 0.42201
 H701 H 1.14224 0.38728 0.32250
 H702 H 1.15572 0.33234 0.39330
 H703 H 1.18484 0.30190 0.36360
 H704 H 1.17085 0.35676 0.29243
 C705 C 0.65176 -0.16975 0.37364
 C706 C 0.63835 -0.14624 0.36239
 C707 C 0.64280 -0.13886 0.33412
 C708 C 0.66066 -0.15481 0.31714
 C709 C 0.67436 -0.17841 0.32824
 C710 C 0.66963 -0.18578 0.35667
 C711 C 0.62049 -0.12925 0.37988
 C712 C 0.60578 -0.11442 0.39419
 C713 C 0.58899 -0.09632 0.41055
 C714 C 0.57510 -0.08019 0.42421
 H715 H 0.64855 -0.17556 0.39555
 H716 H 0.63251 -0.12071 0.32520
 H717 H 0.66353 -0.14885 0.29524
 H718 H 0.68011 -0.20365 0.36590
 C719 C 0.65221 0.33093 -0.12701
 C720 C 0.63885 0.35451 -0.13816
 C721 C 0.64328 0.36196 -0.16642
 C722 C 0.66104 0.34597 -0.18349
 C723 C 0.67466 0.32228 -0.17249
 C724 C 0.66998 0.31487 -0.14407
 C725 C 0.62104 0.37149 -0.12058
 C726 C 0.60637 0.38626 -0.10618
 C727 C 0.58957 0.40426 -0.08969
 C728 C 0.57566 0.42028 -0.07590
 H729 H 0.64903 0.32506 -0.10511
 H730 H 0.63302 0.38016 -0.17527
 H731 H 0.66387 0.35198 -0.20538
 H732 H 0.68040 0.29694 -0.13491
 C733 C 1.13768 0.16701 -0.14519
 C734 C 1.14590 0.13953 -0.13995
 C735 C 1.17078 0.12939 -0.15178
 C736 C 1.18736 0.14658 -0.16890
 C737 C 1.17941 0.17450 -0.17463
 C738 C 1.15416 0.18432 -0.16226
 C739 C 1.12853 0.12171 -0.12275
 C740 C 1.11356 0.10704 -0.10851
 C741 C 1.09546 0.09024 -0.09207
 C742 C 1.07943 0.07631 -0.07825
 H743 H 1.11827 0.17502 -0.13634
 H744 H 1.17746 0.10816 -0.14768
 H745 H 1.20689 0.13796 -0.17664
 H746 H 1.14617 0.20500 -0.16653
 C747 C 1.13442 0.66457 0.34917
 C748 C 1.14567 0.63994 0.36032
 C749 C 1.17356 0.63269 0.35439
 C750 C 1.19012 0.64996 0.33730
 C751 C 1.17896 0.67474 0.32590
 C752 C 1.15092 0.68187 0.33209
 C753 C 1.12843 0.62206 0.37761
 C754 C 1.11357 0.60732 0.39190
 C755 C 1.09560 0.59043 0.40840
 C756 C 1.07967 0.57640 0.42225
 H757 H 1.11282 0.67033 0.35353
 H758 H 1.18251 0.61370 0.36296
 H759 H 1.21173 0.64407 0.33324
 H760 H 1.14160 0.70058 0.32336
 C761 C 0.66753 0.13836 0.36004
 C762 C 0.63968 0.14664 0.36462
 C763 C 0.62964 0.17125 0.35232
 C764 C 0.64733 0.18742 0.33528
 C765 C 0.67529 0.17910 0.33030
 C766 C 0.68523 0.15446 0.34300
 C767 C 0.62133 0.12945 0.38139
 C768 C 0.60630 0.11448 0.39521
 C769 C 0.58923 0.09625 0.41115
 C770 C 0.57521 0.08004 0.42458
 H771 H 0.67551 0.11936 0.36950
 H772 H 0.60808 0.17779 0.35563
 H773 H 0.63897 0.20608 0.32551
 H774 H 0.70674 0.14771 0.33988
 C775 C 0.66525 0.63489 -0.14617
 C776 C 0.64010 0.64603 -0.13596
 C777 C 0.63278 0.67346 -0.14265
 C778 C 0.65042 0.68966 -0.15969
 C779 C 0.67587 0.67870 -0.17060
 C780 C 0.68294 0.65094 -0.16325
 C781 C 0.62172 0.62904 -0.11899
 C782 C 0.60668 0.61422 -0.10502
 C783 C 0.58959 0.59613 -0.08892
 C784 C 0.57555 0.58002 -0.07538
 H785 H 0.67126 0.61372 -0.14088
 H786 H 0.61321 0.68224 -0.13500
 H787 H 0.64315 0.71032 -0.16520
 H788 H 0.70258 0.64157 -0.16973
 C789 C 0.83992 -0.16217 -0.12836
 C790 C 0.85246 -0.13826 -0.13977
 C791 C 0.84841 -0.13176 -0.16834
 C792 C 0.83200 -0.14912 -0.18547
 C793 C 0.81941 -0.17329 -0.17425
 C794 C 0.82351 -0.17958 -0.14545
 C795 C 0.87002 -0.12076 -0.12239
 C796 C 0.88513 -0.10628 -0.10807
 C797 C 0.90336 -0.08962 -0.09159
 C798 C 0.91949 -0.07574 -0.07780
 H799 H 0.84291 -0.16741 -0.10626
 H800 H 0.85814 -0.11339 -0.17745
 H801 H 0.82957 -0.14389 -0.20762
 H802 H 0.81381 -0.19781 -0.13608
 C803 C 0.82623 0.36785 0.35435
 C804 C 0.85402 0.36046 0.36056
 C805 C 0.86519 0.33566 0.34970
 C806 C 0.84869 0.31833 0.33264
 C807 C 0.82074 0.32560 0.32617
 C808 C 0.80968 0.35055 0.33727
 C809 C 0.87127 0.37837 0.37783
 C810 C 0.88616 0.39310 0.39210
 C811 C 0.90419 0.40997 0.40857
 C812 C 0.92019 0.42397 0.42239
 H813 H 0.81735 0.38697 0.36270
 H814 H 0.88672 0.32979 0.35428
 H815 H 0.85795 0.29948 0.32413
 H816 H 0.78814 0.35654 0.33299
 C817 C 0.33454 -0.13380 0.35141
 C818 C 0.35818 -0.14569 0.36400
 C819 C 0.36408 -0.17385 0.35959
 C820 C 0.34655 -0.19009 0.34244
 C821 C 0.32247 -0.17851 0.32899
 C822 C 0.31693 -0.14983 0.33422
 C823 C 0.37650 -0.12876 0.38113
 C824 C 0.39154 -0.11400 0.39519
 C825 C 0.40870 -0.09601 0.41134
 C826 C 0.42286 -0.07999 0.42488
 H827 H 0.32958 -0.11201 0.35498
 H828 H 0.38255 -0.18323 0.36908
 H829 H 0.35329 -0.21130 0.33883
 H830 H 0.29837 -0.13948 0.32631
 C831 C 0.33131 0.36129 -0.13926
 C832 C 0.35912 0.35301 -0.13445
 C833 C 0.36925 0.32839 -0.14666
 C834 C 0.35170 0.31222 -0.16384
 C835 C 0.32379 0.32053 -0.16907
 C836 C 0.31374 0.34517 -0.15645
 C837 C 0.37737 0.37024 -0.11758
 C838 C 0.39235 0.38523 -0.10371
 C839 C 0.40942 0.40346 -0.08776
 C840 C 0.42350 0.41967 -0.07438
 H841 H 0.32325 0.38030 -0.12988
 H842 H 0.39079 0.32186 -0.14316
 H843 H 0.36015 0.29354 -0.17353
 H844 H 0.29226 0.35192 -0.15977
 C845 C 1.13738 -0.16726 0.14227
 C846 C 1.14567 -0.13967 0.13729
 C847 C 1.17041 -0.12946 0.14957
 C848 C 1.18675 -0.14673 0.16686
 C849 C 1.17851 -0.17446 0.17213
 C850 C 1.15366 -0.18455 0.15957
 C851 C 1.12849 -0.12178 0.11996
 C852 C 1.11367 -0.10704 0.10564
 C853 C 1.09573 -0.09013 0.08912
 C854 C 1.07983 -0.07607 0.07529
 H855 H 1.11829 -0.17539 0.13284
 H856 H 1.17696 -0.10810 0.14596
 H857 H 1.20555 -0.13823 0.17650
 H858 H 1.14695 -0.20589 0.16289
 C859 C 1.13770 0.33273 0.64275
 C860 C 1.14598 0.36034 0.63787
 C861 C 1.17065 0.37055 0.65028
 C862 C 1.18694 0.35326 0.66759
 C863 C 1.17871 0.32550 0.67275
 C864 C 1.15393 0.31541 0.66005
 C865 C 1.12884 0.37824 0.62052
 C866 C 1.11404 0.39297 0.60618
 C867 C 1.09610 0.40985 0.58965
 C868 C 1.08018 0.42386 0.57581
 H869 H 1.11866 0.32459 0.63321
 H870 H 1.17719 0.39193 0.64675
 H871 H 1.20570 0.36175 0.67733
 H872 H 1.14724 0.29405 0.66328
 C873 C 0.66426 -0.13788 0.64687
 C874 C 0.63909 -0.14853 0.63598
 C875 C 0.63123 -0.17605 0.64195
 C876 C 0.64839 -0.19279 0.65895
 C877 C 0.67366 -0.18219 0.67019
 C878 C 0.68145 -0.15456 0.66385
 C879 C 0.62118 -0.13096 0.61912
 C880 C 0.60647 -0.11570 0.60528
 C881 C 0.58967 -0.09718 0.58940
 C882 C 0.57579 -0.08075 0.57610
 H883 H 0.67049 -0.11656 0.64247
 H884 H 0.61180 -0.18452 0.63358
 H885 H 0.64199 -0.21407 0.66316
 H886 H 0.70054 -0.14566 0.67249
 C887 C 0.66499 0.36235 0.14694
 C888 C 0.63981 0.35167 0.13606
 C889 C 0.63193 0.32418 0.14210
 C890 C 0.64907 0.30748 0.15916
 C891 C 0.67432 0.31810 0.17039
 C892 C 0.68215 0.34570 0.16398
 C893 C 0.62191 0.36921 0.11917
 C894 C 0.60718 0.38444 0.10533
 C895 C 0.59035 0.40292 0.08945
 C896 C 0.57643 0.41933 0.07618
 H897 H 0.67122 0.38365 0.14248
 H898 H 0.61250 0.31570 0.13374
 H899 H 0.64265 0.28621 0.16342
 H900 H 0.70124 0.35461 0.17261
 C901 C 0.86275 0.16688 0.14350
 C902 C 0.85449 0.13929 0.13848
 C903 C 0.82976 0.12904 0.15072
 C904 C 0.81339 0.14629 0.16799
 C905 C 0.82160 0.17404 0.17329
 C906 C 0.84644 0.18415 0.16078
 C907 C 0.87168 0.12146 0.12111
 C908 C 0.88651 0.10679 0.10673
 C909 C 0.90446 0.09000 0.09013
 C910 C 0.92037 0.07607 0.07619
 H911 H 0.88184 0.17504 0.13410
 H912 H 0.82323 0.10768 0.14707
 H913 H 0.79458 0.13778 0.17759
 H914 H 0.85312 0.20550 0.16412
 C915 C 0.86249 0.64324 0.66789
 C916 C 0.85491 0.63859 0.63967
 C917 C 0.83085 0.65139 0.62861
 C918 C 0.81444 0.66879 0.64570
 C919 C 0.82193 0.67366 0.67409
 C920 C 0.84614 0.66064 0.68500
 C921 C 0.87211 0.62102 0.62202
 C922 C 0.88693 0.60651 0.60747
 C923 C 0.90484 0.58981 0.59070
 C924 C 0.92070 0.57591 0.57667
 H925 H 0.88106 0.63342 0.67668
 H926 H 0.82486 0.64805 0.60676
 H927 H 0.79614 0.67877 0.63657
 H928 H 0.85225 0.66364 0.70685
 C929 C 0.36885 0.17532 0.64317
 C930 C 0.36103 0.14781 0.63708
 C931 C 0.33579 0.13713 0.64778
 C932 C 0.31850 0.15378 0.66467
 C933 C 0.32625 0.18140 0.67112
 C934 C 0.35158 0.19203 0.66008
 C935 C 0.37900 0.13029 0.62026
 C936 C 0.39374 0.11508 0.60641
 C937 C 0.41051 0.09660 0.59047
 C938 C 0.42432 0.08020 0.57707
 H939 H 0.38832 0.18381 0.63494
 H940 H 0.32960 0.11582 0.64328
 H941 H 0.29935 0.14487 0.67316
 H942 H 0.35794 0.21331 0.66438
 C943 C 0.36922 0.67529 0.14365
 C944 C 0.36144 0.64774 0.13772
 C945 C 0.33622 0.63708 0.14849
 C946 C 0.31890 0.65382 0.16527
 C947 C 0.32660 0.68149 0.17154
 C948 C 0.35192 0.69208 0.16046
 C949 C 0.37941 0.63016 0.12094
 C950 C 0.39414 0.61492 0.10710
 C951 C 0.41091 0.59643 0.09115
 C952 C 0.42472 0.58004 0.07772
 H953 H 0.38868 0.68376 0.13536
 H954 H 0.33005 0.61575 0.14411
 H955 H 0.29975 0.64493 0.17381
 H956 H 0.35825 0.71340 0.16462
   
