data_POSCAR
  _audit_creation_date              2014-09-24
  _audit_creation_method            'ToBaCCo'
  _symmetry_space_group_name_H-M    'P1'
  _symmetry_Int_Tables_number       1
  _symmetry_cell_setting            triclinic
  loop_
  _symmetry_equiv_pos_as_xyz
 x,y,z
_cell_length_a 57.1304
_cell_length_b 57.1697
_cell_length_c 57.1564
_cell_angle_alpha 89.997200
_cell_angle_beta 89.973800
_cell_angle_gamma 90.001400
loop_
  _atom_site_label
  _atom_site_type_symbol
  _atom_site_fract_x
  _atom_site_fract_y
  _atom_site_fract_z
C1 C 0.21380 0.51741 1.02900
 H2 H 0.21316 0.53091 1.01575
 C3 C 0.19801 0.51787 1.04765
 H4 H 0.18523 0.53183 1.04881
 C5 C 0.23084 0.48239 1.04333
 H6 H 0.24333 0.46836 1.04133
 C7 C 0.21536 0.48216 1.06227
 H8 H 0.21618 0.46804 1.07490
 N9 N 0.22988 0.49994 1.02726
 C10 C 0.28534 0.52840 0.98319
 H11 H 0.28598 0.51513 0.96970
 C12 C 0.30111 0.54705 0.98270
 H13 H 0.31390 0.54825 0.96875
 C14 C 0.26831 0.54275 1.01823
 H15 H 0.25583 0.54078 1.03228
 C16 C 0.28378 0.56169 1.01840
 H17 H 0.28302 0.57436 1.03247
 Zn18 Zn 0.24959 0.50004 1.00063
 N19 N 0.26927 0.52666 1.00069
 C20 C 0.23083 0.51762 0.95792
 N21 N 0.22988 0.50009 0.97403
 C22 C 0.21383 0.48259 0.97230
 C23 C 0.19807 0.48208 0.95364
 C24 C 0.21537 0.51777 0.93898
 C25 C 0.28539 0.47172 1.01802
 C26 C 0.30118 0.45309 1.01848
 C27 C 0.28387 0.43846 0.98278
 C28 C 0.26838 0.45737 0.98299
 N29 N 0.26932 0.47345 1.00054
 H30 H 0.24330 0.53168 0.95989
 H31 H 0.21320 0.46911 0.98558
 H32 H 0.18530 0.46813 0.95245
 H33 H 0.21613 0.53183 0.92629
 H34 H 0.28601 0.48497 1.03152
 H35 H 0.31397 0.45189 1.03241
 H36 H 0.28312 0.42580 0.96870
 H37 H 0.25590 0.45935 0.96895
 C38 C 0.30033 0.56382 1.00049
 C39 C 0.19878 0.50005 1.06442
 C40 C 0.30042 0.43633 1.00068
 C41 C 0.19885 0.49985 0.93686
 C42 C 0.78570 0.51768 -0.02798
 H43 H 0.78636 0.53116 -0.01472
 C44 C 0.80145 0.51814 -0.04666
 H45 H 0.81425 0.53207 -0.04787
 C46 C 0.76862 0.48267 -0.04233
 H47 H 0.75613 0.46864 -0.04034
 C48 C 0.78408 0.48248 -0.06129
 H49 H 0.78329 0.46841 -0.07396
 N50 N 0.76961 0.50020 -0.02624
 C51 C 0.71422 0.52862 0.01794
 H52 H 0.71360 0.51535 0.03143
 C53 C 0.69844 0.54726 0.01845
 H54 H 0.68567 0.54845 0.03241
 C55 C 0.73119 0.54298 -0.01712
 H56 H 0.74365 0.54101 -0.03120
 C57 C 0.71571 0.56191 -0.01728
 H58 H 0.71644 0.57458 -0.03136
 Zn59 Zn 0.74994 0.50026 0.00042
 N60 N 0.73026 0.52689 0.00042
 C61 C 0.76879 0.51778 0.04311
 N62 N 0.76969 0.50027 0.02699
 C63 C 0.78575 0.48277 0.02865
 C64 C 0.80155 0.48224 0.04726
 C65 C 0.78430 0.51792 0.06201
 C66 C 0.71411 0.47200 -0.01698
 C67 C 0.69833 0.45336 -0.01746
 C68 C 0.71568 0.43864 0.01817
 C69 C 0.73117 0.45756 0.01800
 N70 N 0.73021 0.47368 0.00048
 H71 H 0.75632 0.53184 0.04119
 H72 H 0.78634 0.46930 0.01536
 H73 H 0.81433 0.46828 0.04841
 H74 H 0.78359 0.53197 0.07470
 H75 H 0.71347 0.48528 -0.03045
 H76 H 0.68552 0.45220 -0.03139
 H77 H 0.71645 0.42594 0.03222
 H78 H 0.74367 0.45950 0.03203
 C79 C 0.69918 0.56403 0.00065
 C80 C 0.80064 0.50037 -0.06344
 C81 C 0.69911 0.43656 0.00029
 C82 C 0.80084 0.50000 0.06406
 C83 C -0.01774 0.28622 0.47117
 H84 H -0.03110 0.28682 0.48458
 C85 C -0.01842 0.30199 0.45254
 H86 H -0.03243 0.31475 0.45155
 C87 C 0.01717 0.26923 0.45643
 H88 H 0.03124 0.25676 0.45825
 C89 C 0.01716 0.28471 0.43750
 H90 H 0.03115 0.28392 0.42470
 N91 N -0.00022 0.27017 0.47270
 C92 C -0.02820 0.21467 0.51698
 H93 H -0.01482 0.21404 0.53035
 C94 C -0.04684 0.19888 0.51761
 H95 H -0.04790 0.18608 0.53155
 C96 C -0.04289 0.23169 0.48209
 H97 H -0.04105 0.24417 0.46804
 C98 C -0.06182 0.21620 0.48206
 H99 H -0.07461 0.21695 0.46810
 Zn100 Zn -0.00003 0.25045 0.49931
 N101 N -0.02664 0.23074 0.49949
 C102 C -0.01721 0.26915 0.54223
 N103 N 0.00015 0.27013 0.52593
 C104 C 0.01766 0.28620 0.52748
 C105 C 0.01835 0.30192 0.54616
 C106 C -0.01719 0.28457 0.56119
 C107 C 0.02821 0.21472 0.48161
 C108 C 0.04686 0.19895 0.48098
 C109 C 0.06178 0.21625 0.51656
 C110 C 0.04284 0.23172 0.51653
 N111 N 0.02661 0.23077 0.49911
 H112 H -0.03128 0.25667 0.54040
 H113 H 0.03101 0.28685 0.51406
 H114 H 0.03231 0.31470 0.54721
 H115 H -0.03112 0.28378 0.57403
 H116 H 0.01484 0.21409 0.46822
 H117 H 0.04794 0.18617 0.46703
 H118 H 0.07455 0.21699 0.53054
 H119 H 0.04097 0.24418 0.53060
 C120 C -0.06377 0.19964 0.49997
 C121 C -0.00079 0.30126 0.43556
 C122 C 0.06376 0.19971 0.49864
 C123 C 0.00075 0.30111 0.56314
 C124 C 0.98241 0.71409 0.52808
 H125 H 0.96909 0.71344 0.51464
 C126 C 0.98170 0.69834 0.54673
 H127 H 0.96775 0.68555 0.54775
 C128 C 1.01724 0.73115 0.54288
 H129 H 1.03131 0.74363 0.54108
 C130 C 1.01719 0.71569 0.56183
 H131 H 1.03110 0.71647 0.57468
 N132 N 0.99991 0.73017 0.52656
 C133 C 0.97199 0.78555 0.48215
 H134 H 0.98540 0.78617 0.46879
 C135 C 0.95334 0.80132 0.48147
 H136 H 0.95230 0.81410 0.46751
 C137 C 0.95724 0.76857 0.51704
 H138 H 0.95906 0.75611 0.53112
 C139 C 0.93830 0.78404 0.51702
 H140 H 0.92548 0.78331 0.53098
 Zn141 Zn 1.00017 0.74984 0.49994
 N142 N 0.97352 0.76951 0.49967
 C143 C 0.98314 0.73103 0.45702
 N144 N 1.00047 0.73012 0.47335
 C145 C 1.01800 0.71407 0.47187
 C146 C 1.01875 0.69829 0.45325
 C147 C 0.98323 0.71554 0.43811
 C148 C 1.02827 0.78564 0.51766
 C149 C 1.04689 0.80144 0.51833
 C150 C 1.06198 0.78412 0.48282
 C151 C 1.04307 0.76862 0.48281
 N152 N 1.02677 0.76956 0.50017
 H153 H 0.96905 0.74350 0.45879
 H154 H 1.03131 0.71347 0.48532
 H155 H 1.03273 0.68552 0.45226
 H156 H 0.96932 0.71627 0.42525
 H157 H 1.01484 0.78626 0.53100
 H158 H 1.04790 0.81424 0.53226
 H159 H 1.07482 0.78338 0.46888
 H160 H 1.04128 0.75613 0.46875
 C161 C 0.93638 0.80058 0.49909
 C162 C 0.99927 0.69914 0.56373
 C163 C 1.06387 0.80068 0.50072
 C164 C 1.00119 0.69902 0.43624
 C165 C 0.47183 -0.01830 0.28528
 H166 H 0.48521 -0.03168 0.28591
 C167 C 0.45319 -0.01891 0.30107
 H168 H 0.45211 -0.03285 0.31387
 C169 C 0.45719 0.01660 0.26826
 H170 H 0.45905 0.03066 0.25579
 C171 C 0.43826 0.01666 0.28376
 H172 H 0.42548 0.03064 0.28301
 N173 N 0.47342 -0.00081 0.26921
 C174 C 0.51778 -0.02876 0.21374
 H175 H 0.53113 -0.01536 0.21312
 C176 C 0.51846 -0.04739 0.19796
 H177 H 0.53246 -0.04838 0.18519
 C178 C 0.48288 -0.04350 0.23076
 H179 H 0.46881 -0.04168 0.24324
 C180 C 0.48289 -0.06243 0.21528
 H181 H 0.46891 -0.07522 0.21609
 Zn182 Zn 0.50005 -0.00063 0.24950
 N183 N 0.50026 -0.02723 0.22981
 C184 C 0.54294 -0.01780 0.26825
 N185 N 0.52667 -0.00042 0.26920
 C186 C 0.52822 0.01708 0.28526
 C187 C 0.54686 0.01774 0.30103
 C188 C 0.56187 -0.01780 0.28373
 C189 C 0.48234 0.02751 0.21374
 C190 C 0.48164 0.04617 0.19800
 C191 C 0.51716 0.06122 0.21532
 C192 C 0.51721 0.04227 0.23076
 N193 N 0.49985 0.02598 0.22980
 H194 H 0.54111 -0.03186 0.25578
 H195 H 0.51482 0.03044 0.28589
 H196 H 0.54791 0.03168 0.31382
 H197 H 0.57468 -0.03176 0.28298
 H198 H 0.46900 0.01409 0.21311
 H199 H 0.46767 0.04721 0.18523
 H200 H 0.53108 0.07407 0.21609
 H201 H 0.53128 0.04046 0.24324
 C202 C 0.50084 -0.06436 0.19872
 C203 C 0.43628 -0.00125 0.30032
 C204 C 0.49922 0.06315 0.19879
 C205 C 0.56381 0.00011 0.30027
 C206 C 0.52830 -0.01774 0.71428
 H207 H 0.51490 -0.03110 0.71366
 C208 C 0.54695 -0.01839 0.69850
 H209 H 0.54801 -0.03234 0.68572
 C210 C 0.54300 0.01715 0.73128
 H211 H 0.54116 0.03122 0.74375
 C212 C 0.56194 0.01716 0.71580
 H213 H 0.57475 0.03111 0.71654
 N214 N 0.52673 -0.00023 0.73034
 C215 C 0.48228 -0.02807 0.78580
 H216 H 0.46896 -0.01463 0.78641
 C217 C 0.48154 -0.04670 0.80158
 H218 H 0.46757 -0.04770 0.81435
 C219 C 0.51715 -0.04290 0.76881
 H220 H 0.53124 -0.04112 0.75634
 C221 C 0.51707 -0.06182 0.78429
 H222 H 0.53099 -0.07467 0.78355
 Zn223 Zn 0.50009 0.00001 0.75002
 N224 N 0.49981 -0.02658 0.76974
 C225 C 0.45719 -0.01711 0.73126
 N226 N 0.47348 0.00025 0.73031
 C227 C 0.47197 0.01774 0.71424
 C228 C 0.45333 0.01842 0.69846
 C229 C 0.43826 -0.01709 0.71579
 C230 C 0.51782 0.02815 0.78578
 C231 C 0.51851 0.04680 0.80153
 C232 C 0.48301 0.06188 0.78419
 C233 C 0.48297 0.04293 0.76873
 N234 N 0.50032 0.02663 0.76971
 H235 H 0.45899 -0.03117 0.74375
 H236 H 0.48539 0.03108 0.71360
 H237 H 0.45231 0.03236 0.68566
 H238 H 0.42542 -0.03102 0.71654
 H239 H 0.53115 0.01472 0.78643
 H240 H 0.53247 0.04783 0.81432
 H241 H 0.46909 0.07472 0.78341
 H242 H 0.46891 0.04113 0.75625
 C243 C 0.49912 -0.06370 0.80083
 C244 C 0.56389 -0.00076 0.69925
 C245 C 0.50093 0.06379 0.80073
 C246 C 0.43635 0.00082 0.69923
 C247 C 0.28581 0.01759 0.47149
 H248 H 0.28646 0.03111 0.48473
 C249 C 0.30159 0.01801 0.45283
 H250 H 0.31439 0.03193 0.45160
 C251 C 0.26875 -0.01744 0.45721
 H252 H 0.25626 -0.03147 0.45922
 C253 C 0.28423 -0.01769 0.43827
 H254 H 0.28345 -0.03179 0.42563
 N255 N 0.26972 0.00013 0.47326
 C256 C 0.21427 0.02867 0.51728
 H257 H 0.21363 0.01544 0.53080
 C258 C 0.19851 0.04733 0.51772
 H259 H 0.18572 0.04856 0.53167
 C260 C 0.23130 0.04294 0.48221
 H261 H 0.24378 0.04093 0.46816
 C262 C 0.21584 0.06188 0.48199
 H263 H 0.21660 0.07452 0.46788
 Zn264 Zn 0.25002 0.00026 0.49989
 N265 N 0.23034 0.02689 0.49979
 C266 C 0.26879 0.01789 0.54257
 N267 N 0.26973 0.00034 0.52649
 C268 C 0.28578 -0.01716 0.52822
 C269 C 0.30155 -0.01764 0.54687
 C270 C 0.28427 0.01808 0.56149
 C271 C 0.21421 -0.02806 0.48252
 C272 C 0.19844 -0.04671 0.48206
 C273 C 0.21575 -0.06133 0.51776
 C274 C 0.23123 -0.04240 0.51756
 N275 N 0.23028 -0.02632 0.50000
 H276 H 0.25633 0.03195 0.54059
 H277 H 0.28639 -0.03066 0.51497
 H278 H 0.31433 -0.03159 0.54807
 H279 H 0.28353 0.03216 0.57416
 H280 H 0.21359 -0.01482 0.46902
 H281 H 0.18565 -0.04792 0.46812
 H282 H 0.21651 -0.07399 0.53185
 H283 H 0.24371 -0.04042 0.53160
 C284 C 0.19929 0.06405 0.49989
 C285 C 0.30080 0.00019 0.43610
 C286 C 0.19921 -0.06347 0.49986
 C287 C 0.30080 0.00016 0.56363
 C288 C 0.71435 0.01748 0.52800
 H289 H 0.71369 0.03094 0.51471
 C290 C 0.69858 0.01797 0.54666
 H291 H 0.68577 0.03189 0.54785
 C292 C 0.73142 -0.01750 0.54241
 H293 H 0.74392 -0.03153 0.54044
 C294 C 0.71596 -0.01767 0.56136
 H295 H 0.71674 -0.03172 0.57405
 N296 N 0.73044 0.00001 0.52628
 C297 C 0.78586 0.02838 0.48211
 H298 H 0.78649 0.01508 0.46865
 C299 C 0.80160 0.04704 0.48156
 H300 H 0.81438 0.04822 0.46760
 C301 C 0.76884 0.04280 0.51712
 H302 H 0.75637 0.04085 0.53119
 C303 C 0.78429 0.06175 0.51724
 H304 H 0.78353 0.07446 0.53128
 Zn305 Zn 0.75012 0.00004 0.49964
 N306 N 0.76980 0.02667 0.49962
 C307 C 0.73132 0.01751 0.45691
 N308 N 0.73039 0.00002 0.47305
 C309 C 0.71434 -0.01749 0.47140
 C310 C 0.69856 -0.01805 0.45276
 C311 C 0.71584 0.01761 0.43798
 C312 C 0.78594 -0.02822 0.51708
 C313 C 0.80172 -0.04687 0.51759
 C314 C 0.78438 -0.06160 0.48195
 C315 C 0.76890 -0.04267 0.48211
 N316 N 0.76986 -0.02655 0.49961
 H317 H 0.74379 0.03157 0.45882
 H318 H 0.71373 -0.03094 0.48470
 H319 H 0.68579 -0.03201 0.45162
 H320 H 0.71658 0.03164 0.42526
 H321 H 0.78658 -0.01493 0.53054
 H322 H 0.81452 -0.04802 0.53152
 H323 H 0.78362 -0.07430 0.46791
 H324 H 0.75641 -0.04074 0.46807
 C325 C 0.80083 0.06385 0.49931
 C326 C 0.69938 0.00021 0.56347
 C327 C 0.80094 -0.06368 0.49984
 C328 C 0.69931 -0.00032 0.43592
 C329 C 0.48214 0.21422 1.02808
 H330 H 0.46881 0.21362 1.01465
 C331 C 0.48146 0.19840 1.04667
 H332 H 0.46751 0.18560 1.04766
 C333 C 0.51699 0.23123 1.04290
 H334 H 0.53105 0.24373 1.04113
 C335 C 0.51696 0.21571 1.06179
 H336 H 0.53089 0.21644 1.07463
 N337 N 0.49964 0.23031 1.02660
 C338 C 0.47165 0.28583 0.98239
 H339 H 0.48505 0.28650 0.96903
 C340 C 0.45299 0.30159 0.98179
 H341 H 0.45193 0.31441 0.96787
 C342 C 0.45695 0.26873 1.01726
 H343 H 0.45880 0.25623 1.03130
 C344 C 0.43801 0.28419 1.01731
 H345 H 0.42520 0.28341 1.03127
 Zn346 Zn 0.49986 0.25007 1.00004
 N347 N 0.47322 0.26973 0.99987
 C348 C 0.48279 0.23139 0.95709
 N349 N 0.50013 0.23043 0.97339
 C350 C 0.51766 0.21439 0.97186
 C351 C 0.51839 0.19865 0.95320
 C352 C 0.48286 0.21594 0.93813
 C353 C 0.52800 0.28581 1.01785
 C354 C 0.54663 0.30159 1.01854
 C355 C 0.56167 0.28438 0.98296
 C356 C 0.54275 0.26889 0.98292
 N357 N 0.52647 0.26979 1.00031
 H358 H 0.46870 0.24385 0.95890
 H359 H 0.53099 0.21375 0.98528
 H360 H 0.53237 0.18588 0.95216
 H361 H 0.46894 0.21670 0.92529
 H362 H 0.51459 0.28639 1.03121
 H363 H 0.54767 0.31435 1.03252
 H364 H 0.57449 0.28368 0.96900
 H365 H 0.54094 0.25645 0.96883
 C366 C 0.43605 0.30078 0.99943
 C367 C 0.49905 0.19914 1.06365
 C368 C 0.56359 0.30089 1.00092
 C369 C 0.50081 0.19942 0.93621
 C370 C 0.48194 0.78595 -0.02781
 H371 H 0.46859 0.78660 -0.01439
 C372 C 0.48125 0.80169 -0.04647
 H373 H 0.46730 0.81448 -0.04752
 C374 C 0.51681 0.76891 -0.04256
 H375 H 0.53088 0.75643 -0.04074
 C376 C 0.51679 0.78435 -0.06152
 H377 H 0.53072 0.78357 -0.07435
 N378 N 0.49944 0.76989 -0.02626
 C379 C 0.47146 0.71451 0.01816
 H380 H 0.48485 0.71389 0.03152
 C381 C 0.45281 0.69874 0.01884
 H382 H 0.45175 0.68597 0.03280
 C383 C 0.45676 0.73147 -0.01675
 H384 H 0.45860 0.74392 -0.03084
 C385 C 0.43782 0.71600 -0.01674
 H386 H 0.42502 0.71673 -0.03069
 Zn387 Zn 0.49966 0.75023 0.00038
 N388 N 0.47302 0.73054 0.00063
 C389 C 0.48254 0.76904 0.04328
 N390 N 0.49989 0.76997 0.02696
 C391 C 0.51740 0.78603 0.02844
 C392 C 0.51812 0.80181 0.04706
 C393 C 0.48260 0.78452 0.06220
 C394 C 0.52785 0.71444 -0.01729
 C395 C 0.54650 0.69868 -0.01792
 C396 C 0.56148 0.71604 0.01760
 C397 C 0.54254 0.73151 0.01757
 N398 N 0.52628 0.73053 0.00019
 H399 H 0.46846 0.75656 0.04150
 H400 H 0.53074 0.78664 0.01500
 H401 H 0.53209 0.81458 0.04806
 H402 H 0.46868 0.78378 0.07506
 H403 H 0.51445 0.71379 -0.03065
 H404 H 0.54757 0.68587 -0.03185
 H405 H 0.57429 0.71682 0.03156
 H406 H 0.54070 0.74400 0.03162
 C407 C 0.43587 0.69948 0.00121
 C408 C 0.49886 0.80089 -0.06345
 C409 C 0.56344 0.69948 -0.00029
 C410 C 0.50054 0.80106 0.06407
 C411 C 1.02867 0.48181 0.21433
 H412 H 1.01527 0.46845 0.21371
 C413 C 1.04731 0.48117 0.19854
 H414 H 1.04836 0.46724 0.18574
 C415 C 1.04338 0.51670 0.23134
 H416 H 1.04154 0.53076 0.24381
 C417 C 1.06230 0.51672 0.21584
 H418 H 1.07510 0.53068 0.21658
 N419 N 1.02711 0.49931 0.23040
 C420 C 0.98269 0.47146 0.28587
 H421 H 0.96938 0.48490 0.28650
 C422 C 0.98196 0.45282 0.30165
 H423 H 0.96799 0.45182 0.31444
 C424 C 1.01755 0.45662 0.26885
 H425 H 1.03162 0.45839 0.25637
 C426 C 1.01747 0.43769 0.28433
 H427 H 1.03138 0.42483 0.28358
 Zn428 Zn 1.00048 0.49955 0.25010
 N429 N 1.00021 0.47294 0.26980
 C430 C 0.95756 0.48245 0.23137
 N431 N 0.97386 0.49980 0.23041
 C432 C 0.97233 0.51730 0.21435
 C433 C 0.95367 0.51800 0.19859
 C434 C 0.93861 0.48248 0.21592
 C435 C 1.01823 0.52766 0.28586
 C436 C 1.01894 0.54630 0.30162
 C437 C 0.98343 0.56139 0.28431
 C438 C 0.98338 0.54246 0.26885
 N439 N 1.00072 0.52615 0.26980
 H440 H 0.95937 0.46838 0.24384
 H441 H 0.98576 0.53063 0.21370
 H442 H 0.95264 0.53195 0.18581
 H443 H 0.92577 0.46856 0.21668
 H444 H 1.03156 0.51423 0.28650
 H445 H 1.03290 0.54732 0.31440
 H446 H 0.96951 0.57424 0.28355
 H447 H 0.96931 0.54066 0.25637
 C448 C 0.99953 0.43582 0.30088
 C449 C 1.06425 0.49881 0.19928
 C450 C 1.00136 0.56330 0.30085
 C451 C 0.93669 0.50041 0.19938
 C452 C -0.02831 0.48212 0.78576
 H453 H -0.01493 0.46874 0.78639
 C454 C -0.04697 0.48150 0.80153
 H455 H -0.04805 0.46755 0.81432
 C456 C -0.04294 0.51704 0.76876
 H457 H -0.04107 0.53111 0.75630
 C458 C -0.06189 0.51707 0.78423
 H459 H -0.07467 0.53105 0.78349
 N460 N -0.02670 0.49963 0.76971
 C461 C 0.01774 0.47174 0.71428
 H462 H 0.03110 0.48514 0.71369
 C463 C 0.01845 0.45313 0.69848
 H464 H 0.03242 0.45211 0.68570
 C465 C -0.01717 0.45696 0.73123
 H466 H -0.03127 0.45876 0.74370
 C467 C -0.01713 0.43807 0.71572
 H468 H -0.03108 0.42524 0.71644
 Zn469 Zn -0.00004 0.49984 0.75004
 N470 N 0.00020 0.47324 0.73033
 C471 C 0.04281 0.48266 0.76885
 N472 N 0.02655 0.50004 0.76978
 C473 C 0.02807 0.51753 0.78585
 C474 C 0.04668 0.51818 0.80166
 C475 C 0.06172 0.48264 0.78436
 C476 C -0.01772 0.52797 0.71427
 C477 C -0.01840 0.54662 0.69851
 C478 C 0.01710 0.56168 0.71587
 C479 C 0.01712 0.54274 0.73133
 N480 N -0.00023 0.52645 0.73035
 H481 H 0.04100 0.46860 0.75636
 H482 H 0.01467 0.53089 0.78646
 H483 H 0.04771 0.53212 0.81445
 H484 H 0.07452 0.46869 0.78363
 H485 H -0.03106 0.51455 0.71362
 H486 H -0.03234 0.54765 0.68571
 H487 H 0.03103 0.57452 0.71665
 H488 H 0.03118 0.54094 0.74382
 C489 C 0.00083 0.43617 0.69919
 C490 C -0.06388 0.49916 0.80077
 C491 C -0.00081 0.56360 0.69931
 C492 C 0.06363 0.50055 0.80092
 C493 C 0.08269 0.18310 0.49872
 C494 C 0.09832 0.16893 0.49880
 C495 C 0.11669 0.15172 0.49893
 C496 C 0.12604 0.14390 0.52020
 C497 C 0.14334 0.12659 0.52037
 C498 C 0.15136 0.11703 0.49927
 C499 C 0.14215 0.12498 0.47799
 C500 C 0.12485 0.14229 0.47782
 C501 C 0.16856 0.09864 0.49948
 C502 C 0.18271 0.08300 0.49966
 H503 H 0.11981 0.15103 0.53663
 H504 H 0.15030 0.12052 0.53692
 H505 H 0.14818 0.11766 0.46157
 H506 H 0.11770 0.14816 0.46128
 C507 C 0.68257 0.58295 0.00048
 C508 C 0.66840 0.59857 0.00034
 C509 C 0.65117 0.61693 0.00018
 C510 C 0.64299 0.62629 0.02131
 C511 C 0.62566 0.64357 0.02119
 C512 C 0.61644 0.65156 -0.00007
 C513 C 0.62475 0.64234 -0.02121
 C514 C 0.64209 0.62505 -0.02109
 C515 C 0.59804 0.66874 -0.00017
 C516 C 0.58239 0.68289 -0.00024
 H517 H 0.64985 0.62008 0.03786
 H518 H 0.61931 0.65054 0.03764
 H519 H 0.61770 0.64834 -0.03775
 H520 H 0.64824 0.61789 -0.03753
 C521 C 0.91746 -0.18281 0.49911
 C522 C 0.90184 -0.16863 0.49915
 C523 C 0.88348 -0.15140 0.49922
 C524 C 0.87420 -0.14342 0.52047
 C525 C 0.85692 -0.12609 0.52057
 C526 C 0.84885 -0.11667 0.49943
 C527 C 0.85800 -0.12479 0.47817
 C528 C 0.87528 -0.14212 0.47807
 C529 C 0.83167 -0.09827 0.49956
 C530 C 0.81752 -0.08262 0.49968
 H531 H 0.88047 -0.15043 0.53692
 H532 H 0.85002 -0.11989 0.53710
 H533 H 0.85193 -0.11758 0.46173
 H534 H 0.88238 -0.14812 0.46155
 C535 C 0.31703 0.41741 1.00046
 C536 C 0.33119 0.40179 1.00028
 C537 C 0.34840 0.38341 1.00008
 C538 C 0.35751 0.37533 0.97880
 C539 C 0.37482 0.35803 0.97863
 C540 C 0.38309 0.34873 0.99975
 C541 C 0.37385 0.35667 1.02103
 C542 C 0.35654 0.37398 1.02119
 C543 C 0.40148 0.33153 0.99961
 C544 C 0.41711 0.31737 0.99952
 H545 H 0.35139 0.38255 0.96238
 H546 H 0.38189 0.35206 0.96208
 H547 H 0.38017 0.34965 1.03746
 H548 H 0.34967 0.38014 1.03775
 C549 C 0.91732 0.18303 0.49992
 C550 C 0.90170 0.16884 0.49987
 C551 C 0.88334 0.15161 0.49980
 C552 C 0.87482 0.14264 0.52097
 C553 C 0.85754 0.12531 0.52088
 C554 C 0.84871 0.11688 0.49963
 C555 C 0.85708 0.12599 0.47846
 C556 C 0.87436 0.14333 0.47855
 C557 C 0.83153 0.09847 0.49952
 C558 C 0.81739 0.08281 0.49943
 H559 H 0.88169 0.14888 0.53750
 H560 H 0.85123 0.11834 0.53735
 H561 H 0.85042 0.11955 0.46193
 H562 H 0.88087 0.15010 0.46208
 C563 C 0.31691 0.58277 0.00066
 C564 C 0.33106 0.59841 0.00079
 C565 C 0.34825 0.61681 0.00092
 C566 C 0.35638 0.62618 -0.02023
 C567 C 0.37368 0.64349 -0.02014
 C568 C 0.38293 0.65150 0.00110
 C569 C 0.37466 0.64226 0.02226
 C570 C 0.35736 0.62495 0.02217
 C571 C 0.40131 0.66871 0.00116
 C572 C 0.41694 0.68288 0.00120
 H573 H 0.34951 0.61996 -0.03676
 H574 H 0.37999 0.65047 -0.03660
 H575 H 0.38174 0.64828 0.03878
 H576 H 0.35125 0.61778 0.03862
 C577 C 0.08277 -0.18268 0.50069
 C578 C 0.09838 -0.16849 0.50065
 C579 C 0.11672 -0.15124 0.50059
 C580 C 0.12630 -0.14356 0.47936
 C581 C 0.14357 -0.12622 0.47925
 C582 C 0.15133 -0.11649 0.50037
 C583 C 0.14190 -0.12431 0.52160
 C584 C 0.12463 -0.14165 0.52171
 C585 C 0.16850 -0.09808 0.50021
 C586 C 0.18264 -0.08242 0.50006
 H587 H 0.12027 -0.15081 0.46292
 H588 H 0.15070 -0.12025 0.46273
 H589 H 0.14773 -0.11686 0.53803
 H590 H 0.11730 -0.14742 0.53822
 C591 C 0.68252 0.41762 1.00046
 C592 C 0.66837 0.40198 1.00059
 C593 C 0.65117 0.38359 1.00072
 C594 C 0.64174 0.37573 1.02194
 C595 C 0.62444 0.35842 1.02202
 C596 C 0.61651 0.34889 1.00088
 C597 C 0.62607 0.35661 0.97967
 C598 C 0.64337 0.37393 0.97959
 C599 C 0.59813 0.33167 1.00092
 C600 C 0.58251 0.31750 1.00093
 H601 H 0.64759 0.38313 1.03838
 H602 H 0.61711 0.35262 1.03852
 H603 H 0.62002 0.34941 0.96321
 H604 H 0.65050 0.37993 0.96307
 C605 C 0.49915 0.08213 1.18225
 C606 C 0.49906 0.09780 1.16814
 C607 C 0.49892 0.11622 1.15099
 C608 C 0.47805 0.12217 1.13958
 C609 C 0.47802 0.13953 1.12234
 C610 C 0.49887 0.15102 1.11643
 C611 C 0.51971 0.14521 1.12798
 C612 C 0.51973 0.12785 1.14522
 C613 C 0.49896 0.16829 1.09812
 C614 C 0.49902 0.18250 1.08254
 H615 H 0.46187 0.11324 1.14385
 H616 H 0.46183 0.14383 1.11347
 H617 H 0.53593 0.15395 1.12351
 H618 H 0.53598 0.12335 1.15390
 C619 C -0.00079 0.68257 0.58268
 C620 C -0.00087 0.66843 0.59832
 C621 C -0.00099 0.65123 0.61671
 C622 C -0.02190 0.63995 0.62281
 C623 C -0.02190 0.62266 0.64011
 C624 C -0.00100 0.61656 0.65139
 C625 C 0.01987 0.62797 0.64542
 C626 C 0.01988 0.64527 0.62812
 C627 C -0.00090 0.59818 0.66859
 C628 C -0.00084 0.58255 0.68274
 H629 H -0.03812 0.64438 0.61405
 H630 H -0.03813 0.61390 0.64454
 H631 H 0.03614 0.62334 0.65399
 H632 H 0.03615 0.65383 0.62349
 C633 C 0.49903 0.91738 -0.18258
 C634 C 0.49893 0.90176 -0.16840
 C635 C 0.49877 0.88340 -0.15118
 C636 C 0.47789 0.87749 -0.13976
 C637 C 0.47785 0.86021 -0.12244
 C638 C 0.49870 0.84877 -0.11646
 C639 C 0.51955 0.85455 -0.12801
 C640 C 0.51959 0.87184 -0.14534
 C641 C 0.49879 0.83158 -0.09806
 C642 C 0.49883 0.81745 -0.08241
 H643 H 0.46171 0.88637 -0.14409
 H644 H 0.46164 0.85592 -0.11357
 H645 H 0.53578 0.84586 -0.12348
 H646 H 0.53584 0.87632 -0.15401
 C647 C 0.99920 0.31695 0.41764
 C648 C 0.99916 0.33109 0.40198
 C649 C 0.99908 0.34828 0.38359
 C650 C 1.01993 0.35401 0.37200
 C651 C 1.01997 0.37129 0.35467
 C652 C 0.99917 0.38291 0.34887
 C653 C 0.97830 0.37704 0.36033
 C654 C 0.97825 0.35976 0.37765
 C655 C 0.99934 0.40127 0.33164
 C656 C 0.99944 0.41689 0.31747
 H657 H 1.03614 0.34528 0.37650
 H658 H 1.03622 0.37574 0.34596
 H659 H 0.96213 0.38596 0.35603
 H660 H 0.96205 0.35552 0.38655
 C661 C 0.50085 0.91772 0.18301
 C662 C 0.50088 0.90208 0.16886
 C663 C 0.50096 0.88370 0.15166
 C664 C 0.52182 0.87767 0.14026
 C665 C 0.52178 0.86036 0.12296
 C666 C 0.50088 0.84901 0.11700
 C667 C 0.48005 0.85491 0.12854
 C668 C 0.48009 0.87222 0.14584
 C669 C 0.50072 0.83180 0.09863
 C670 C 0.50062 0.81764 0.08300
 H671 H 0.53804 0.88648 0.14458
 H672 H 0.53797 0.85599 0.11411
 H673 H 0.46378 0.84629 0.12401
 H674 H 0.46385 0.87679 0.15450
 C675 C 0.00080 0.31763 0.58213
 C676 C 0.00087 0.33173 0.59782
 C677 C 0.00100 0.34886 0.61626
 C678 C -0.01985 0.35474 0.62775
 C679 C -0.01984 0.37197 0.64513
 C680 C 0.00103 0.38339 0.65107
 C681 C 0.02191 0.37738 0.63971
 C682 C 0.02190 0.36015 0.62234
 C683 C 0.00092 0.40170 0.66835
 C684 C 0.00086 0.41728 0.68256
 H685 H -0.03612 0.34616 0.62314
 H686 H -0.03610 0.37653 0.65376
 H687 H 0.03813 0.38615 0.64412
 H688 H 0.03811 0.35579 0.61351
 C689 C 0.50098 0.08275 0.81729
 C690 C 0.50104 0.09839 0.83143
 C691 C 0.50115 0.11678 0.84862
 C692 C 0.52200 0.12277 0.86003
 C693 C 0.52198 0.14008 0.87731
 C694 C 0.50111 0.15149 0.88326
 C695 C 0.48028 0.14565 0.87171
 C696 C 0.48030 0.12833 0.85442
 C697 C 0.50097 0.16870 0.90163
 C698 C 0.50088 0.18285 0.91726
 H699 H 0.53821 0.11390 0.85572
 H700 H 0.53817 0.14441 0.88618
 H701 H 0.46403 0.15431 0.87622
 H702 H 0.46406 0.12379 0.84575
 C703 C 1.00128 0.68241 0.41733
 C704 C 1.00139 0.66823 0.40172
 C705 C 1.00155 0.65100 0.38337
 C706 C 0.98080 0.64540 0.37157
 C707 C 0.98082 0.62807 0.35429
 C708 C 1.00160 0.61627 0.34875
 C709 C 1.02238 0.62201 0.36042
 C710 C 1.02236 0.63933 0.37769
 C711 C 1.00149 0.59789 0.33156
 C712 C 1.00142 0.58224 0.31742
 H713 H 0.96460 0.65426 0.37588
 H714 H 0.96464 0.62372 0.34542
 H715 H 1.03853 0.61296 0.35631
 H716 H 1.03849 0.64348 0.38675
 C717 C 1.18307 0.49984 0.08236
 C718 C 1.16893 0.49965 0.09802
 C719 C 1.15175 0.49944 0.11644
 C720 C 1.14261 0.47816 0.12448
 C721 C 1.12533 0.47799 0.14182
 C722 C 1.11712 0.49910 0.15120
 C723 C 1.12641 0.52037 0.14330
 C724 C 1.14369 0.52054 0.12596
 C725 C 1.09877 0.49896 0.16845
 C726 C 1.08315 0.49888 0.18264
 H727 H 1.14868 0.46175 0.11720
 H728 H 1.11823 0.46145 0.14776
 H729 H 1.12014 0.53679 0.15039
 H730 H 1.15059 0.53709 0.11982
 C731 C 0.58281 -0.00072 0.68263
 C732 C 0.59844 -0.00065 0.66845
 C733 C 0.61681 -0.00055 0.65122
 C734 C 0.62605 0.02070 0.64324
 C735 C 0.64334 0.02083 0.62590
 C736 C 0.65146 -0.00029 0.61648
 C737 C 0.64236 -0.02155 0.62460
 C738 C 0.62507 -0.02168 0.64194
 C739 C 0.66866 -0.00012 0.59808
 C740 C 0.68280 0.00003 0.58242
 H741 H 0.61975 0.03715 0.65025
 H742 H 0.65022 0.03738 0.61971
 H743 H 0.64847 -0.03798 0.61740
 H744 H 0.61799 -0.03821 0.64793
 C745 C -0.18279 0.50016 0.91760
 C746 C -0.16864 0.49999 0.90194
 C747 C -0.15146 0.49980 0.88353
 C748 C -0.14256 0.47851 0.87525
 C749 C -0.12527 0.47835 0.85792
 C750 C -0.11680 0.49947 0.84880
 C751 C -0.12584 0.52075 0.85694
 C752 C -0.14313 0.52092 0.87427
 C753 C -0.09843 0.49933 0.83157
 C754 C -0.08280 0.49924 0.81739
 H755 H -0.14883 0.46209 0.88233
 H756 H -0.11835 0.46180 0.85179
 H757 H -0.11938 0.53719 0.85006
 H758 H -0.14984 0.53748 0.88060
 C759 C 0.41737 -0.00115 0.31695
 C760 C 0.40175 -0.00104 0.33113
 C761 C 0.38338 -0.00088 0.34837
 C762 C 0.37514 -0.02198 0.35774
 C763 C 0.35784 -0.02179 0.37507
 C764 C 0.34873 -0.00050 0.38310
 C765 C 0.35684 0.02059 0.37359
 C766 C 0.37413 0.02040 0.35626
 C767 C 0.33154 -0.00027 0.40150
 C768 C 0.31738 -0.00006 0.41715
 H769 H 0.38222 -0.03853 0.35180
 H770 H 0.35174 -0.03819 0.38234
 H771 H 0.34996 0.03716 0.37973
 H772 H 0.38043 0.03682 0.34918
 C773 C 0.18230 0.50000 0.91789
 C774 C 0.16817 0.50010 0.90222
 C775 C 0.15102 0.50021 0.88380
 C776 C 0.14219 0.52146 0.87536
 C777 C 0.12494 0.52155 0.85800
 C778 C 0.11644 0.50038 0.84902
 C779 C 0.12541 0.47914 0.85732
 C780 C 0.14266 0.47905 0.87467
 C781 C 0.09811 0.50046 0.83176
 C782 C 0.08252 0.50050 0.81756
 H783 H 0.14848 0.53792 0.88233
 H784 H 0.11808 0.53807 0.85175
 H785 H 0.11892 0.46267 0.85054
 H786 H 0.14932 0.46252 0.88112
 C787 C 0.58274 0.00009 0.31687
 C788 C 0.59836 0.00006 0.33104
 C789 C 0.61674 0.00002 0.34825
 C790 C 0.62570 -0.02121 0.35659
 C791 C 0.64299 -0.02126 0.37391
 C792 C 0.65139 -0.00008 0.38295
 C793 C 0.64256 0.02115 0.37447
 C794 C 0.62527 0.02121 0.35715
 C795 C 0.66858 -0.00015 0.40134
 C796 C 0.68273 -0.00022 0.41699
 H797 H 0.61918 -0.03769 0.34988
 H798 H 0.64965 -0.03778 0.38039
 H799 H 0.64889 0.03763 0.38138
 H800 H 0.61841 0.03772 0.35087
 C801 C 0.81746 0.50014 0.08296
 C802 C 0.83166 0.50024 0.09857
 C803 C 0.84890 0.50034 0.11691
 C804 C 0.85666 0.47920 0.12659
 C805 C 0.87401 0.47925 0.14385
 C806 C 0.88366 0.50044 0.15151
 C807 C 0.87576 0.52159 0.14197
 C808 C 0.85842 0.52154 0.12470
 C809 C 0.90207 0.50044 0.16868
 C810 C 0.91773 0.50043 0.18281
 H811 H 0.84947 0.46270 0.12064
 H812 H 0.88003 0.46279 0.15107
 H813 H 0.88315 0.53807 0.14771
 H814 H 0.85259 0.53798 0.11729
 C815 C 0.41743 0.00082 0.68263
 C816 C 0.40180 0.00081 0.66847
 C817 C 0.38342 0.00077 0.65126
 C818 C 0.37380 -0.02044 0.64360
 C819 C 0.35650 -0.02052 0.62630
 C820 C 0.34874 0.00060 0.61658
 C821 C 0.35822 0.02182 0.62437
 C822 C 0.37553 0.02190 0.64168
 C823 C 0.33154 0.00047 0.59820
 C824 C 0.31739 0.00034 0.58256
 H825 H 0.37982 -0.03688 0.65085
 H826 H 0.34933 -0.03703 0.62035
 H827 H 0.35240 0.03825 0.61693
 H828 H 0.38289 0.03839 0.64742
   
