data_POSCAR
  _audit_creation_date              2014-09-24
  _audit_creation_method            'ToBaCCo'
  _symmetry_space_group_name_H-M    'P1'
  _symmetry_Int_Tables_number       1
  _symmetry_cell_setting            triclinic
  loop_
  _symmetry_equiv_pos_as_xyz
 x,y,z
_cell_length_a 30.0152
_cell_length_b 29.8203
_cell_length_c 26.0757
_cell_angle_alpha 92.820100
_cell_angle_beta 87.270100
_cell_angle_gamma 89.786300
loop_
  _atom_site_label
  _atom_site_type_symbol
  _atom_site_fract_x
  _atom_site_fract_y
  _atom_site_fract_z
C1 C 0.15956 1.26262 0.17931
 N2 N 0.13646 1.24253 0.21770
 C3 C 0.15357 1.20654 0.23996
 N4 N 0.19474 1.19076 0.22386
 C5 C 0.21852 1.21098 0.18577
 N6 N 0.20065 1.24664 0.16333
 C7 C 0.81277 0.73231 0.15437
 N8 N 0.77306 0.75056 0.14373
 C9 C 0.75581 0.78621 0.17245
 N10 N 0.77879 0.80409 0.21225
 C11 C 0.81866 0.78585 0.22348
 N12 N 0.83535 0.75004 0.19442
 C13 C 0.79362 1.25097 -0.15722
 N14 N 0.80911 1.22329 -0.19726
 C15 C 0.78821 1.18379 -0.20844
 N16 N 0.75175 1.17225 -0.17929
 C17 C 0.73611 1.19961 -0.13921
 N18 N 0.75725 1.23878 -0.12830
 C19 C 0.21812 0.77944 -0.20088
 N20 N 0.19571 0.79933 -0.23800
 C21 C 0.20881 0.84022 -0.25411
 N22 N 0.24410 0.86093 -0.23276
 C23 C 0.26621 0.84162 -0.19542
 N24 N 0.25305 0.80088 -0.17951
 C25 C 0.55520 1.06386 0.03519
 H26 H 0.55591 1.07021 0.07635
 C27 C 0.58449 1.08654 0.00237
 H28 H 0.60772 1.11003 0.01905
 C29 C 0.52625 1.02257 -0.03558
 H30 H 0.50468 0.99656 -0.05022
 C31 C 0.55503 1.04430 -0.06972
 H32 H 0.55475 1.03521 -0.11044
 N33 N 0.52688 1.03255 0.01585
 C34 C 0.42629 1.01373 0.13946
 H35 H 0.43022 0.97808 0.14395
 C36 C 0.39184 1.03739 0.16676
 H37 H 0.36957 1.01978 0.19267
 C38 C 0.44910 1.07936 0.09800
 H39 H 0.47075 1.09530 0.07016
 C40 C 0.41498 1.10430 0.12442
 H41 H 0.41195 1.13963 0.11761
 Zn42 Zn 0.49296 0.99822 0.06262
 N43 N 0.45366 1.03478 0.10539
 C44 C 0.53649 0.97313 0.15267
 N45 N 0.53430 0.96752 0.10073
 C46 C 0.56442 0.94148 0.07231
 C47 C 0.59800 0.91903 0.09595
 C48 C 0.56987 0.95137 0.17800
 C49 C 0.42540 0.97560 -0.00244
 C50 C 0.39731 0.94825 -0.03114
 C51 C 0.43319 0.88322 0.00073
 C52 C 0.46086 0.91193 0.02871
 N53 N 0.45691 0.95721 0.02595
 H54 H 0.51293 0.99503 0.17435
 H55 H 0.56263 0.93868 0.03093
 H56 H 0.62216 0.89952 0.07207
 H57 H 0.57155 0.95625 0.21930
 H58 H 0.42229 1.01174 -0.00287
 H59 H 0.37212 0.96388 -0.05274
 H60 H 0.43673 0.84723 0.00304
 H61 H 0.48523 0.89797 0.05270
 C62 C 0.38496 1.08290 0.15825
 C63 C 0.58479 1.07657 -0.05097
 C64 C 0.40150 0.90131 -0.03039
 C65 C 0.60081 0.92349 0.14963
 C66 C 0.00445 0.53417 1.03675
 H67 H 0.02889 0.51080 1.04896
 C68 C -0.01809 0.56276 1.07335
 H69 H -0.01118 0.56074 1.11358
 C70 C -0.03263 0.56712 0.96962
 H71 H -0.03721 0.56926 0.92890
 C72 C -0.05617 0.59608 1.00493
 H73 H -0.07845 0.62070 0.99074
 N74 N -0.00339 0.53661 0.98600
 C75 C 0.11328 0.46387 0.96285
 H76 H 0.12913 0.48845 0.93907
 C77 C 0.13948 0.43405 0.98852
 H78 H 0.17550 0.43606 0.98461
 C79 C 0.04724 0.43046 0.99625
 H80 H 0.01119 0.42907 0.99858
 C81 C 0.07200 0.40020 1.02247
 H82 H 0.05442 0.37509 1.04398
 Zn83 Zn 0.02956 0.50080 0.93548
 N84 N 0.06801 0.46193 0.96788
 C85 C 0.08821 0.57058 0.91908
 N86 N 0.06162 0.54091 0.89403
 C87 C 0.05471 0.54376 0.84311
 C88 C 0.07479 0.57797 0.81549
 C89 C 0.10895 0.60512 0.89303
 C90 C -0.05353 0.46398 0.90800
 C91 C -0.08085 0.43213 0.88447
 C92 C -0.01597 0.40107 0.83688
 C93 C 0.01011 0.43369 0.86118
 N94 N -0.00885 0.46383 0.89660
 H95 H 0.09199 0.56830 0.95993
 H96 H 0.03244 0.52053 0.82430
 H97 H 0.06825 0.58050 0.77523
 H98 H 0.12828 0.62925 0.91473
 H99 H -0.06798 0.48770 0.93675
 H100 H -0.11623 0.43318 0.89439
 H101 H -0.00013 0.37642 0.80998
 H102 H 0.04582 0.43394 0.85332
 C103 C 0.11884 0.40230 1.01961
 C104 C -0.04909 0.59392 1.05769
 C105 C -0.06183 0.39910 0.84960
 C106 C 0.10222 0.60928 0.84044
 C107 C 1.04281 -0.02934 0.57609
 H108 H 1.04724 0.00668 0.57861
 C109 C 1.06652 -0.05650 0.60736
 H110 H 1.08845 -0.04067 0.63447
 C111 C 1.00676 -0.09281 0.53922
 H112 H 0.98300 -0.10673 0.51307
 C113 C 1.02982 -0.12132 0.56993
 H114 H 1.02387 -0.15714 0.56687
 N115 N 1.01421 -0.04778 0.54226
 C116 C 1.00953 0.04928 0.42332
 H117 H 0.97389 0.05478 0.42311
 C118 C 1.03811 0.07161 0.38950
 H119 H 1.02376 0.09357 0.36284
 C120 C 1.07068 0.01196 0.45697
 H121 H 1.08322 -0.01180 0.48279
 C122 C 1.10051 0.03353 0.42368
 H123 H 1.13589 0.02647 0.42451
 Zn124 Zn 0.98452 -0.00732 0.50157
 N125 N 1.02616 0.02076 0.45680
 C126 C 0.96657 0.08047 0.54531
 N127 N 0.95554 0.03634 0.54699
 C128 C 0.92558 0.02192 0.58323
 C129 C 0.90475 0.05246 0.61912
 C130 C 0.94661 0.11213 0.58049
 C131 C 0.95991 -0.06797 0.42339
 C132 C 0.93180 -0.09014 0.38951
 C133 C 0.86934 -0.04928 0.43108
 C134 C 0.89872 -0.02786 0.46422
 N135 N 0.94306 -0.03777 0.46005
 H136 H 0.99144 0.09122 0.51733
 H137 H 0.91830 -0.01352 0.58459
 H138 H 0.88192 0.03973 0.64818
 H139 H 0.95598 0.14709 0.57875
 H140 H 0.99548 -0.07430 0.42002
 H141 H 0.94655 -0.11296 0.35991
 H142 H 0.83415 -0.04085 0.43468
 H143 H 0.88608 -0.00283 0.49262
 C144 C 1.08445 0.06442 0.39006
 C145 C 1.06078 -0.10334 0.60381
 C146 C 0.88566 -0.08112 0.39335
 C147 C 0.91504 0.09842 0.61779
 C148 C 0.13950 0.29805 1.15588
 C149 C 0.15769 0.31835 1.11531
 C150 C 0.13174 0.35247 1.09046
 C151 C 0.14650 0.37087 1.04710
 H152 H 0.19041 0.30856 1.09907
 H153 H 0.09935 0.36199 1.10778
 H154 H 0.10643 0.30840 1.17063
 H155 H 0.17990 0.36298 1.03152
 C156 C -0.16942 0.69720 1.12227
 C157 C -0.12970 0.67827 1.12872
 C158 C -0.11073 0.64462 1.09050
 C159 C -0.07118 0.62537 1.09671
 H160 H -0.11020 0.68869 1.16114
 H161 H -0.12917 0.63610 1.05671
 H162 H -0.18835 0.68587 1.08970
 H163 H -0.05439 0.63258 1.13209
 C164 C -0.18490 0.29101 0.85616
 C165 C -0.14827 0.30575 0.83104
 C166 C -0.12580 0.34660 0.85044
 C167 C -0.08807 0.36129 0.82765
 H168 H -0.13401 0.28717 0.79736
 H169 H -0.13929 0.36315 0.88568
 H170 H -0.19843 0.31056 0.88955
 H171 H -0.07408 0.34274 0.79381
 C172 C 0.20423 0.73594 0.81873
 C173 C 0.16982 0.71233 0.80135
 C174 C 0.15582 0.67116 0.82655
 C175 C 0.12028 0.64767 0.81199
 H176 H 0.15100 0.72419 0.77019
 H177 H 0.17456 0.66070 0.85839
 H178 H 0.22254 0.72349 0.85002
 H179 H 0.10330 0.65730 0.77839
 C180 C 1.12743 0.18572 0.27746
 C181 C 1.13923 0.14803 0.29928
 C182 C 1.10764 0.12684 0.33560
 C183 C 1.11650 0.08734 0.35520
 H184 H 1.17112 0.13194 0.28915
 H185 H 1.07646 0.14405 0.34607
 H186 H 1.09496 0.20047 0.28798
 H187 H 1.14877 0.07164 0.34627
 C188 C 1.18598 -0.13727 0.70942
 C189 C 1.14848 -0.15200 0.68863
 C190 C 1.12534 -0.12320 0.65387
 C191 C 1.08548 -0.13374 0.63597
 H192 H 1.13395 -0.18380 0.69874
 H193 H 1.14133 -0.09225 0.64339
 H194 H 1.19893 -0.10485 0.69896
 H195 H 1.07077 -0.16585 0.64449
 C196 C 0.84394 -0.19609 0.26297
 C197 C 0.83231 -0.15930 0.29211
 C198 C 0.86297 -0.14092 0.33027
 C199 C 0.85422 -0.10229 0.35724
 H200 H 0.80126 -0.14183 0.28671
 H201 H 0.89339 -0.15933 0.33566
 H202 H 0.87551 -0.21239 0.26907
 H203 H 0.82261 -0.08550 0.35288
 C204 C 0.80424 0.15395 0.75192
 C205 C 0.84115 0.16114 0.72265
 C206 C 0.85767 0.12669 0.68378
 C207 C 0.89557 0.13256 0.65585
 H208 H 0.86004 0.19179 0.72819
 H209 H 0.83848 0.09632 0.67842
 H210 H 0.78621 0.12284 0.74567
 H211 H 0.91301 0.16418 0.66061
 C212 C 0.26266 1.19377 0.16679
 C213 C 0.28313 1.15966 0.18760
 C214 C 0.32570 1.14156 0.16463
 C215 C 0.34534 1.10601 0.18363
 H216 H 0.26786 1.14409 0.22073
 H217 H 0.33941 1.15604 0.13010
 H218 H 0.27841 1.20923 0.13385
 H219 H 0.32958 1.09093 0.21684
 C220 C 0.69803 1.18628 -0.10567
 C221 C 0.67534 1.14847 -0.11474
 C222 C 0.64020 1.13386 -0.07799
 C223 C 0.61776 1.09594 -0.08766
 H224 H 0.68370 1.12719 -0.14878
 H225 H 0.63343 1.15391 -0.04274
 H226 H 0.68928 1.20757 -0.07176
 H227 H 0.62406 1.07781 -0.12441
 C228 C 0.30224 0.86669 -0.17083
 C229 C 0.32196 0.85296 -0.12941
 C230 C 0.35390 0.88233 -0.10312
 C231 C 0.37213 0.87079 -0.05979
 H232 H 0.31300 0.82116 -0.11345
 H233 H 0.36187 0.91430 -0.11918
 H234 H 0.31116 0.89890 -0.18583
 H235 H 0.36571 0.83774 -0.04563
 C236 C 0.71360 0.80581 0.15751
 C237 C 0.69512 0.84318 0.17973
 C238 C 0.65567 0.86270 0.15750
 C239 C 0.63704 0.90137 0.17597
 H240 H 0.71016 0.86033 0.21213
 H241 H 0.64237 0.84540 0.12411
 H242 H 0.69806 0.78958 0.12484
 H243 H 0.64870 0.91733 0.21105
   
