data_POSCAR
  _audit_creation_date              2014-09-24
  _audit_creation_method            'ToBaCCo'
  _symmetry_space_group_name_H-M    'P1'
  _symmetry_Int_Tables_number       1
  _symmetry_cell_setting            triclinic
  loop_
  _symmetry_equiv_pos_as_xyz
 x,y,z
_cell_length_a 27.3862
_cell_length_b 26.8612
_cell_length_c 35.0752
_cell_angle_alpha 88.972200
_cell_angle_beta 86.466900
_cell_angle_gamma 89.919000
loop_
  _atom_site_label
  _atom_site_type_symbol
  _atom_site_fract_x
  _atom_site_fract_y
  _atom_site_fract_z
C1 C 0.00863 0.54881 1.01926
 C2 C -0.00835 0.54967 0.98150
 C3 C -0.01912 0.50412 0.96458
 C4 C -0.01101 0.45823 0.98270
 C5 C 0.00696 0.45695 1.01979
 C6 C 0.01782 0.50234 1.03683
 H7 H 0.02832 0.50142 1.06612
 H8 H -0.02979 0.50380 0.93532
 C9 C 0.45468 -0.00493 0.52001
 C10 C 0.45740 -0.00492 0.47975
 C11 C 0.50321 -0.00620 0.45969
 C12 C 0.54705 -0.00819 0.47877
 C13 C 0.54399 -0.00764 0.51948
 C14 C 0.49790 -0.00607 0.53934
 H15 H 0.49561 -0.00513 0.57030
 H16 H 0.50432 -0.00735 0.42876
 C17 C 0.11765 0.00427 0.26714
 H18 H 0.12090 0.00744 0.23629
 C19 C 0.15950 0.00566 0.28785
 H20 H 0.19477 0.01059 0.27259
 C21 C 0.06723 -0.00409 0.32421
 H22 H 0.03122 -0.00710 0.33837
 C23 C 0.10819 -0.00349 0.34606
 H24 H 0.10299 -0.00744 0.37680
 N25 N 0.07271 -0.00118 0.28542
 C26 C -0.01556 -0.06748 0.20062
 H27 H -0.04424 -0.03985 0.19948
 C28 C -0.01688 -0.10977 0.17821
 H29 H -0.04646 -0.11407 0.15943
 C30 C 0.05801 -0.09488 0.22642
 H31 H 0.08666 -0.08932 0.24574
 C32 C 0.05812 -0.13781 0.20448
 H33 H 0.08698 -0.16498 0.20721
 Zn34 Zn 0.01885 -0.00301 0.25408
 N35 N 0.02164 -0.06066 0.22391
 C36 C 0.03062 0.05139 0.18391
 N37 N 0.02243 0.05486 0.22240
 C38 C 0.01792 0.09986 0.23939
 C39 C 0.01915 0.14367 0.21733
 C40 C 0.03291 0.09429 0.16080
 C41 C -0.04985 -0.04352 0.30904
 C42 C -0.09429 -0.04710 0.33072
 C43 C -0.12217 0.02648 0.29793
 C44 C -0.07698 0.02910 0.27732
 N45 N -0.04162 -0.00523 0.28353
 H46 H 0.03577 0.01538 0.17104
 H47 H 0.01225 0.10158 0.27014
 H48 H 0.01340 0.17885 0.23148
 H49 H 0.04004 0.09056 0.13029
 H50 H -0.02178 -0.07132 0.31253
 H51 H -0.10022 -0.07761 0.35107
 H52 H -0.14978 0.05432 0.29282
 H53 H -0.07065 0.05814 0.25593
 C54 C 0.02024 -0.14571 0.18000
 C55 C 0.15524 0.00116 0.32791
 C56 C -0.13108 -0.01178 0.32518
 C57 C 0.02644 0.14133 0.17736
 C58 C -0.02274 0.11130 0.76133
 H59 H -0.02087 0.11490 0.73050
 C60 C -0.02440 0.15388 0.78360
 H61 H -0.02281 0.19010 0.76955
 C62 C -0.02608 0.05949 0.81678
 H63 H -0.02730 0.02266 0.82966
 C64 C -0.02814 0.10108 0.84015
 H65 H -0.03110 0.09560 0.87086
 N66 N -0.02266 0.06523 0.77809
 C67 C 0.05400 -0.03298 0.69640
 H68 H 0.03030 -0.06513 0.69860
 C69 C 0.09810 -0.03538 0.67430
 H70 H 0.10678 -0.06882 0.65850
 C71 C 0.07234 0.04858 0.71555
 H72 H 0.06311 0.08080 0.73239
 C73 C 0.11693 0.04767 0.69400
 H74 H 0.14116 0.07941 0.69462
 Zn75 Zn -0.01872 0.00856 0.74628
 N76 N 0.04141 0.00892 0.71591
 C77 C -0.07466 -0.02312 0.68544
 N78 N -0.07317 0.00893 0.71495
 C79 C -0.11119 0.04030 0.72358
 C80 C -0.15246 0.04040 0.70209
 C81 C -0.11518 -0.02421 0.66319
 C82 C 0.01926 -0.05970 0.79783
 C83 C 0.02068 -0.10289 0.82045
 C84 C -0.05804 -0.12624 0.79877
 C85 C -0.05813 -0.08238 0.77677
 N86 N -0.01984 -0.05019 0.77674
 H87 H -0.04471 -0.04831 0.67919
 H88 H -0.11016 0.06460 0.74771
 H89 H -0.18265 0.06496 0.70997
 H90 H -0.11531 -0.04971 0.63963
 H91 H 0.04938 -0.03361 0.79698
 H92 H 0.05226 -0.11005 0.83684
 H93 H -0.08897 -0.15130 0.79874
 H94 H -0.08884 -0.07404 0.75980
 C95 C 0.13027 0.00537 0.67280
 C96 C -0.02675 0.14915 0.82363
 C97 C -0.01829 -0.13687 0.82104
 C98 C -0.15490 0.00773 0.67147
 C99 C 0.01468 -0.32216 0.08759
 C100 C -0.02303 -0.32810 0.06271
 C101 C -0.02496 -0.37033 0.04023
 C102 C 0.01110 -0.40777 0.04166
 C103 C 0.04851 -0.40185 0.06712
 C104 C 0.05044 -0.35947 0.08954
 C105 C 0.01636 -0.27735 0.11165
 C106 C 0.06096 -0.25325 0.11673
 C107 C 0.06230 -0.21068 0.13902
 C108 C 0.01909 -0.19132 0.15673
 C109 C -0.02542 -0.21571 0.15188
 C110 C -0.02677 -0.25820 0.12959
 H111 H -0.05564 -0.37416 0.02247
 H112 H 0.07732 -0.42929 0.06898
 H113 H 0.09707 -0.19237 0.14179
 H114 H -0.05922 -0.20231 0.16573
 H115 H 0.07968 -0.35617 0.10876
 H116 H 0.09470 -0.26678 0.10287
 H117 H -0.05108 -0.29993 0.06050
 H118 H -0.06156 -0.27646 0.12678
 C119 C 0.01917 0.32265 0.08486
 C120 C 0.05513 0.35989 0.08550
 C121 C 0.05099 0.40414 0.06434
 C122 C 0.01137 0.41195 0.04110
 C123 C -0.02470 0.37462 0.04079
 C124 C -0.02092 0.33080 0.06238
 C125 C 0.02280 0.27588 0.10801
 C126 C 0.00565 0.23053 0.09453
 C127 C 0.00704 0.18704 0.11688
 C128 C 0.02635 0.18747 0.15312
 C129 C 0.04455 0.23260 0.16624
 C130 C 0.04249 0.27627 0.14411
 H131 H 0.07990 0.43151 0.06513
 H132 H -0.05721 0.38007 0.02516
 H133 H -0.00795 0.15328 0.10594
 H134 H 0.06046 0.23432 0.19367
 H135 H -0.05021 0.30382 0.06214
 H136 H -0.00896 0.22850 0.06662
 H137 H 0.08695 0.35466 0.10196
 H138 H 0.05554 0.31052 0.15569
 C139 C 0.31635 -0.00125 0.58478
 C140 C 0.32816 -0.04124 0.56060
 C141 C 0.37318 -0.04255 0.53960
 C142 C 0.40719 -0.00400 0.54253
 C143 C 0.39575 0.03568 0.56695
 C144 C 0.35060 0.03721 0.58774
 C145 C 0.26853 0.00030 0.60698
 C146 C 0.24141 0.04468 0.60925
 C147 C 0.19647 0.04623 0.63034
 C148 C 0.17777 0.00351 0.64989
 C149 C 0.20503 -0.04089 0.64755
 C150 C 0.24980 -0.04250 0.62622
 H151 H 0.38156 -0.07363 0.52106
 H152 H 0.42163 0.06570 0.56958
 H153 H 0.17607 0.08079 0.63094
 H154 H 0.19222 -0.07423 0.66280
 H155 H 0.34265 0.06817 0.60649
 H156 H 0.25469 0.07805 0.59425
 H157 H 0.30230 -0.07116 0.55758
 H158 H 0.27027 -0.07703 0.62536
 C159 C -0.32838 0.00107 0.58486
 C160 C -0.33633 0.03670 0.55603
 C161 C -0.37802 0.03429 0.53507
 C162 C -0.41231 -0.00406 0.54229
 C163 C -0.40496 -0.03910 0.57152
 C164 C -0.36337 -0.03665 0.59254
 C165 C -0.28369 0.00297 0.60674
 C166 C -0.25902 -0.04108 0.61611
 C167 C -0.21721 -0.03948 0.63694
 C168 C -0.19900 0.00622 0.64887
 C169 C -0.22354 0.05030 0.63935
 C170 C -0.26539 0.04870 0.61851
 H171 H -0.38334 0.06204 0.51293
 H172 H -0.43117 -0.06877 0.57770
 H173 H -0.19952 -0.07416 0.64418
 H174 H -0.21016 0.08613 0.64778
 H175 H -0.35874 -0.06412 0.61500
 H176 H -0.27182 -0.07684 0.60707
 H177 H -0.30991 0.06597 0.54922
 H178 H -0.28382 0.08325 0.61205
 C179 C -0.01263 -0.31813 0.91291
 C180 C -0.04905 -0.35469 0.91129
 C181 C -0.04746 -0.39826 0.93355
 C182 C -0.00979 -0.40619 0.95865
 C183 C 0.02713 -0.36976 0.95960
 C184 C 0.02564 -0.32638 0.93715
 C185 C -0.01446 -0.27161 0.88940
 C186 C -0.00034 -0.22583 0.90416
 C187 C -0.00160 -0.18217 0.88199
 C188 C -0.01731 -0.18319 0.84464
 C189 C -0.03177 -0.22879 0.82992
 C190 C -0.03021 -0.27254 0.85200
 H191 H -0.07700 -0.42480 0.93221
 H192 H 0.05809 -0.37529 0.97697
 H193 H 0.00908 -0.14741 0.89425
 H194 H -0.04341 -0.23078 0.80104
 H195 H 0.05504 -0.29966 0.93830
 H196 H 0.01110 -0.22361 0.93308
 H197 H -0.07945 -0.34921 0.89334
 H198 H -0.04056 -0.30725 0.83951
 C199 C -0.02076 0.32602 0.91586
 C200 C 0.02313 0.33852 0.93220
 C201 C 0.02619 0.38141 0.95382
 C202 C -0.01455 0.41271 0.95962
 C203 C -0.05821 0.40089 0.94292
 C204 C -0.06140 0.35779 0.92142
 C205 C -0.02379 0.28026 0.89288
 C206 C -0.04999 0.28022 0.85965
 C207 C -0.05155 0.23757 0.83749
 C208 C -0.02676 0.19399 0.84792
 C209 C -0.00103 0.19390 0.88139
 C210 C 0.00029 0.23643 0.90365
 H211 H 0.06048 0.39037 0.96591
 H212 H -0.09002 0.42464 0.94706
 H213 H -0.07228 0.23875 0.81218
 H214 H 0.01894 0.16123 0.89007
 H215 H -0.09588 0.34899 0.90959
 H216 H -0.06857 0.31346 0.85032
 H217 H 0.05542 0.31554 0.92782
 H218 H 0.02020 0.23491 0.92937
 C219 C -0.31750 -0.01568 0.41278
 C220 C -0.35529 0.01580 0.40162
 C221 C -0.39997 0.01752 0.42297
 C222 C -0.40788 -0.01126 0.45677
 C223 C -0.37023 -0.04348 0.46749
 C224 C -0.32572 -0.04564 0.44581
 C225 C -0.26966 -0.01677 0.39019
 C226 C -0.22560 -0.02256 0.40846
 C227 C -0.18063 -0.02192 0.38728
 C228 C -0.17871 -0.01482 0.34748
 C229 C -0.22257 -0.00957 0.32911
 C230 C -0.26754 -0.01089 0.35018
 H231 H -0.42754 0.04334 0.41386
 H232 H -0.37559 -0.06834 0.49201
 H233 H -0.14724 -0.02560 0.40212
 H234 H -0.22205 -0.00479 0.29836
 H235 H -0.29801 -0.07142 0.45468
 H236 H -0.22571 -0.02635 0.43924
 H237 H -0.35006 0.04014 0.37677
 H238 H -0.30066 -0.00750 0.33502
 C239 C 0.32831 -0.00167 0.41586
 C240 C 0.36002 -0.04299 0.41430
 C241 C 0.40211 -0.04373 0.43484
 C242 C 0.41297 -0.00359 0.45782
 C243 C 0.38146 0.03758 0.45978
 C244 C 0.33960 0.03864 0.43889
 C245 C 0.28395 -0.00059 0.39335
 C246 C 0.24034 0.02163 0.40795
 C247 C 0.19877 0.02256 0.38670
 C248 C 0.19958 0.00084 0.35047
 C249 C 0.24316 -0.02152 0.33598
 C250 C 0.28483 -0.02194 0.35700
 H251 H 0.42594 -0.07594 0.43326
 H252 H 0.38956 0.06904 0.47722
 H253 H 0.16613 0.04072 0.39860
 H254 H 0.24504 -0.03931 0.30848
 H255 H 0.31655 0.07140 0.44031
 H256 H 0.23806 0.03788 0.43602
 H257 H 0.35206 -0.07511 0.39756
 H258 H 0.31791 -0.03870 0.34454
   
