data_POSCAR
  _audit_creation_date              2014-09-24
  _audit_creation_method            'ToBaCCo'
  _symmetry_space_group_name_H-M    'P1'
  _symmetry_Int_Tables_number       1
  _symmetry_cell_setting            triclinic
  loop_
  _symmetry_equiv_pos_as_xyz
 x,y,z
_cell_length_a 42.3005
_cell_length_b 43.4623
_cell_length_c 44.6002
_cell_angle_alpha 89.966100
_cell_angle_beta 90.043000
_cell_angle_gamma 118.277000
loop_
  _atom_site_label
  _atom_site_type_symbol
  _atom_site_fract_x
  _atom_site_fract_y
  _atom_site_fract_z
C1 C 0.00058 0.50770 1.33805
 C2 C 0.03371 0.52122 1.32282
 C3 C 0.03301 0.51919 1.29125
 C4 C 0.00073 0.50708 1.27499
 C5 C -0.03165 0.49524 1.29106
 C6 C -0.03249 0.49375 1.32266
 C7 C 0.00082 0.50667 1.24129
 C8 C -0.02945 0.48240 1.22508
 C9 C -0.02986 0.48245 1.19361
 C10 C 0.00106 0.50575 1.17806
 C11 C 0.03187 0.52950 1.19349
 C12 C 0.03123 0.53048 1.22494
 H13 H 0.00054 0.50795 1.36223
 H14 H 0.05786 0.52836 1.27911
 H15 H -0.05643 0.48579 1.27876
 H16 H -0.05278 0.46282 1.23664
 H17 H 0.00115 0.50539 1.15378
 H18 H 0.05449 0.55037 1.23635
 C19 C 0.48827 0.48810 1.32252
 C20 C 0.47918 0.51158 1.30796
 C21 C 0.48315 0.51479 1.27654
 C22 C 0.49272 0.49298 1.25965
 C23 C 0.50030 0.46890 1.27513
 C24 C 0.49931 0.46685 1.30666
 C25 C 0.49406 0.49483 1.22594
 C26 C 0.51549 0.48389 1.20950
 C27 C 0.51547 0.48393 1.17799
 C28 C 0.49577 0.49745 1.16269
 C29 C 0.47509 0.50952 1.17839
 C30 C 0.47348 0.50703 1.20981
 H31 H 0.48987 0.48876 1.34670
 H32 H 0.47749 0.53343 1.26505
 H33 H 0.50546 0.45048 1.26264
 H34 H 0.53193 0.47472 1.22099
 H35 H 0.49716 0.49922 1.13846
 H36 H 0.45537 0.51407 1.22134
 C37 C 0.50573 1.00041 1.33050
 C38 C 0.49179 0.96878 1.31487
 C39 C 0.49354 0.96915 1.28352
 C40 C 0.50606 1.00067 1.26729
 C41 C 0.51845 1.03213 1.28374
 C42 C 0.52016 1.03267 1.31539
 C43 C 0.50608 1.00072 1.23347
 C44 C 0.52796 1.03137 1.21707
 C45 C 0.52677 1.03198 1.18564
 C46 C 0.50560 1.00090 1.17009
 C47 C 0.48469 0.96971 1.18560
 C48 C 0.48406 0.97011 1.21707
 H49 H 0.50408 0.99943 1.35472
 H50 H 0.48439 0.94447 1.27217
 H51 H 0.52803 1.05646 1.27190
 H52 H 0.54657 1.05511 1.22827
 H53 H 0.50535 1.00098 1.14582
 H54 H 0.46569 0.94630 1.22833
 C55 C 1.00111 0.50381 0.66171
 C56 C 0.96825 0.49045 0.67694
 C57 C 0.96815 0.49236 0.70831
 C58 C 1.00027 0.50512 0.72486
 C59 C 1.03283 0.51713 0.70898
 C60 C 1.03403 0.51799 0.67733
 C61 C 0.99995 0.50543 0.75854
 C62 C 1.03061 0.52886 0.77485
 C63 C 1.03104 0.52839 0.80630
 C64 C 0.99983 0.50563 0.82176
 C65 C 0.96868 0.48279 0.80625
 C66 C 0.96917 0.48221 0.77479
 H67 H 1.00054 0.50455 0.63749
 H68 H 0.94270 0.48328 0.71961
 H69 H 1.05729 0.52429 0.72131
 H70 H 1.05430 0.54800 0.76338
 H71 H 0.99982 0.50560 0.84605
 H72 H 0.94552 0.46298 0.76334
 C73 C 0.48798 0.48578 0.67820
 C74 C 0.49959 0.46549 0.69450
 C75 C 0.50019 0.46715 0.72593
 C76 C 0.49125 0.49043 0.74131
 C77 C 0.48087 0.51148 0.72408
 C78 C 0.47795 0.50832 0.69275
 C79 C 0.49243 0.49254 0.77501
 C80 C 0.47226 0.50546 0.79081
 C81 C 0.47379 0.50825 0.82220
 C82 C 0.49389 0.49579 0.83826
 C83 C 0.51318 0.48163 0.82332
 C84 C 0.51336 0.48128 0.79183
 H85 H 0.48767 0.48478 0.65392
 H86 H 0.50714 0.44965 0.73800
 H87 H 0.47456 0.53023 0.73468
 H88 H 0.45456 0.51287 0.77908
 H89 H 0.49519 0.49776 0.86249
 H90 H 0.52958 0.47163 0.78074
 C91 C 0.51160 0.00028 0.66997
 C92 C 0.52296 0.03200 0.68514
 C93 C 0.51975 0.03187 0.71642
 C94 C 0.50783 0.00072 0.73306
 C95 C 0.49772 -0.03071 0.71719
 C96 C 0.49814 -0.03171 0.68554
 C97 C 0.50640 0.00102 0.76680
 C98 C 0.48359 -0.02947 0.78298
 C99 C 0.48271 -0.03008 0.81466
 C100 C 0.50346 0.00165 0.82995
 C101 C 0.52554 0.03254 0.81445
 C102 C 0.52770 0.03176 0.78314
 H103 H 0.51157 0.00086 0.64574
 H104 H 0.52710 0.05641 0.72753
 H105 H 0.49106 -0.05437 0.72953
 H106 H 0.46515 -0.05255 0.77087
 H107 H 0.50362 0.00260 0.85416
 H108 H 0.54665 0.05534 0.77188
 O109 O 0.37739 0.67208 0.96508
 O110 O 0.38146 0.73352 0.97378
 C111 C 0.35959 0.74043 0.95947
 O112 O 0.32628 0.72601 0.96485
 O113 O 0.26460 0.67102 0.97473
 C114 C 0.25841 0.64354 0.96036
 O115 O 0.27374 0.62526 0.96590
 O116 O 0.33164 0.61937 0.97512
 C117 C 0.35963 0.63950 0.96049
 O118 O 0.37909 0.66283 1.02467
 O119 O 0.38023 0.72298 1.03350
 C120 C 0.36441 0.74092 1.03862
 O121 O 0.33703 0.73744 1.02421
 O122 O 0.27674 0.68092 1.03421
 C123 C 0.25926 0.64861 1.03991
 O124 O 0.26320 0.62540 1.02559
 O125 O 0.32279 0.62235 1.03458
 C126 C 0.35628 0.63649 1.03920
 Cr127 Cr 0.37752 0.69700 0.99928
 Cr128 Cr 0.30211 0.70273 0.99951
 Cr129 Cr 0.29888 0.62507 1.00027
 O130 O 0.32619 0.67493 0.99970
 O131 O 0.62242 0.32840 0.96666
 O132 O 0.62134 0.26823 0.97524
 C133 C 0.64379 0.26248 0.96063
 O134 O 0.67721 0.27814 0.96564
 O135 O 0.73769 0.33470 0.97511
 C136 C 0.74247 0.36179 0.96076
 O137 O 0.72599 0.37893 0.96653
 O138 O 0.66671 0.38204 0.97637
 C139 C 0.63890 0.36103 0.96198
 O140 O 0.62109 0.33756 1.02627
 O141 O 0.62299 0.27878 1.03496
 C142 C 0.64003 0.26191 1.03976
 O143 O 0.66760 0.26654 1.02505
 O144 O 0.72657 0.32455 1.03467
 C145 C 0.74290 0.35691 1.04034
 O146 O 0.73761 0.37939 1.02612
 O147 O 0.67676 0.37971 1.03574
 C148 C 0.64330 0.36440 1.04062
 Cr149 Cr 0.62398 0.30416 1.00079
 Cr150 Cr 0.70126 0.30203 1.00014
 Cr151 Cr 0.70081 0.37804 1.00117
 O152 O 0.67533 0.32808 1.00072
 O153 O 0.65303 0.37687 0.53307
 O154 O 0.71703 0.38382 0.52364
 C155 C 0.72580 0.36384 0.53812
 O156 O 0.71221 0.33132 0.53338
 O157 O 0.65709 0.26955 0.52448
 C158 C 0.62852 0.26227 0.53893
 O159 O 0.60885 0.27631 0.53372
 O160 O 0.59967 0.33073 0.52408
 C161 C 0.62001 0.35809 0.53869
 O162 O 0.64207 0.37688 0.47332
 O163 O 0.70500 0.38099 0.46418
 C164 C 0.72500 0.36721 0.45936
 O165 O 0.72273 0.34105 0.47383
 O166 O 0.66594 0.28063 0.46477
 C167 C 0.63270 0.26235 0.45966
 O168 O 0.60850 0.26517 0.47431
 O169 O 0.60231 0.32116 0.46453
 C170 C 0.61593 0.35342 0.45879
 Cr171 Cr 0.67842 0.37769 0.49858
 Cr172 Cr 0.68828 0.30645 0.49911
 Cr173 Cr 0.60684 0.29949 0.49915
 O174 O 0.65788 0.32788 0.49895
 O175 O 0.34337 0.62171 0.53381
 O176 O 0.28193 0.62073 0.52475
 C177 C 0.27574 0.64213 0.53972
 O178 O 0.29193 0.67482 0.53540
 O179 O 0.35051 0.73408 0.52668
 C180 C 0.37855 0.73881 0.54083
 O181 O 0.39577 0.72237 0.53519
 O182 O 0.39877 0.66472 0.52494
 C183 C 0.37667 0.63788 0.53930
 O184 O 0.35360 0.62131 0.47414
 O185 O 0.29359 0.62338 0.46530
 C186 C 0.27587 0.63963 0.46089
 O187 O 0.28059 0.66641 0.47578
 O188 O 0.34060 0.72408 0.46695
 C189 C 0.37395 0.73990 0.46155
 O190 O 0.39681 0.73450 0.47585
 O191 O 0.39699 0.67560 0.46546
 C192 C 0.38075 0.64329 0.45963
 Cr193 Cr 0.31913 0.62374 0.49954
 Cr194 Cr 0.31698 0.69889 0.50117
 Cr195 Cr 0.39506 0.69832 0.50037
 O196 O 0.34371 0.67366 0.50037
 C197 C 0.45878 0.58312 0.33261
 C198 C 0.44126 0.56952 0.35980
 C199 C 0.43576 0.53683 0.36942
 C200 C 0.44801 0.51786 0.35227
 C201 C 0.46636 0.53117 0.32488
 C202 C 0.47109 0.56412 0.31519
 C203 C 0.42913 0.58879 0.37852
 C204 C 0.41850 0.60331 0.39560
 C205 C 0.40562 0.61861 0.41694
 C206 C 0.39436 0.63045 0.43605
 H207 H 0.46333 0.60858 0.32503
 H208 H 0.42183 0.52585 0.39029
 H209 H 0.44177 0.49209 0.36027
 H210 H 0.48570 0.57629 0.29494
 C211 C 0.46535 0.87674 0.34167
 C212 C 0.44150 0.87302 0.36489
 C213 C 0.43358 0.90013 0.37118
 C214 C 0.44972 0.93104 0.35465
 C215 C 0.47414 0.93533 0.33160
 C216 C 0.48152 0.90773 0.32501
 C217 C 0.42613 0.84219 0.38331
 C218 C 0.41336 0.81733 0.39986
 C219 C 0.39882 0.78934 0.42039
 C220 C 0.38701 0.76631 0.43878
 H221 H 0.47178 0.85594 0.33673
 H222 H 0.41517 0.89751 0.38909
 H223 H 0.44307 0.95163 0.35987
 H224 H 0.50037 0.91045 0.30747
 C225 C 0.10186 0.56922 0.38263
 C226 C 0.13243 0.56915 0.37099
 C227 C 0.13055 0.55314 0.34341
 C228 C 0.09817 0.53726 0.32748
 C229 C 0.06677 0.53692 0.33893
 C230 C 0.06947 0.55338 0.36690
 C231 C 0.16541 0.58513 0.38783
 C232 C 0.19223 0.59839 0.40296
 C233 C 0.22260 0.61354 0.42187
 C234 C 0.24754 0.62590 0.43909
 H235 H 0.10307 0.58180 0.40390
 H236 H 0.15403 0.55262 0.33431
 H237 H 0.09779 0.52409 0.30682
 H238 H 0.04713 0.55564 0.37636
 C239 C 0.55127 0.42022 0.32799
 C240 C 0.53887 0.40958 0.35719
 C241 C 0.51111 0.41493 0.36850
 C242 C 0.49694 0.43234 0.35137
 C243 C 0.51043 0.44515 0.32242
 C244 C 0.53700 0.43755 0.31061
 C245 C 0.55604 0.39552 0.37661
 C246 C 0.57027 0.38487 0.39417
 C247 C 0.58662 0.37341 0.41591
 C248 C 0.60023 0.36415 0.43521
 H249 H 0.57288 0.41626 0.31903
 H250 H 0.50094 0.40636 0.39095
 H251 H 0.47516 0.43547 0.36101
 H252 H 0.54884 0.44708 0.28882
 C253 C 0.56813 0.09750 0.37634
 C254 C 0.56871 0.12763 0.36488
 C255 C 0.55339 0.12666 0.33690
 C256 C 0.53741 0.09555 0.32041
 C257 C 0.53622 0.06458 0.33177
 C258 C 0.55217 0.06641 0.36008
 C259 C 0.58417 0.15902 0.38257
 C260 C 0.59668 0.18432 0.39863
 C261 C 0.61052 0.21273 0.41873
 C262 C 0.62134 0.23597 0.43693
 H263 H 0.58015 0.09803 0.39793
 H264 H 0.55336 0.14984 0.32797
 H265 H 0.52468 0.09581 0.29946
 H266 H 0.55381 0.04427 0.36950
 C267 C 0.89928 0.44567 0.38235
 C268 C 0.86845 0.44482 0.37025
 C269 C 0.87023 0.46045 0.34248
 C270 C 0.90274 0.47678 0.32678
 C271 C 0.93437 0.47794 0.33864
 C272 C 0.93178 0.46194 0.36685
 C273 C 0.83525 0.42791 0.38673
 C274 C 0.80833 0.41364 0.40163
 C275 C 0.77795 0.39701 0.42039
 C276 C 0.75310 0.38311 0.43754
 H277 H 0.89816 0.43337 0.40375
 H278 H 0.84653 0.46023 0.33301
 H279 H 0.90298 0.48955 0.30591
 H280 H 0.95430 0.46028 0.37667
 C281 C 0.53603 0.43190 1.12019
 C282 C 0.57006 0.43760 1.12922
 C283 C 0.58667 0.45891 1.15405
 C284 C 0.56919 0.47432 1.16986
 C285 C 0.53489 0.46864 1.16095
 C286 C 0.51857 0.44726 1.13591
 C287 C 0.58776 0.42171 1.11260
 C288 C 0.60166 0.40821 1.09776
 C289 C 0.61700 0.39245 1.07922
 C290 C 0.62938 0.37931 1.06227
 H291 H 0.52290 0.41545 1.10103
 H292 H 0.61309 0.46365 1.16116
 H293 H 0.58261 0.49092 1.18886
 H294 H 0.49198 0.44190 1.12876
 C295 C 0.87318 0.43699 1.16783
 C296 C 0.87577 0.42149 1.14109
 C297 C 0.90865 0.42372 1.13268
 C298 C 0.93913 0.44237 1.15039
 C299 C 0.93711 0.45913 1.17675
 C300 C 0.90365 0.45562 1.18563
 C301 C 0.84549 0.40553 1.12113
 C302 C 0.82088 0.39322 1.10361
 C303 C 0.79291 0.37982 1.08227
 C304 C 0.76971 0.36907 1.06342
 H305 H 0.84790 0.43558 1.17447
 H306 H 0.91095 0.41183 1.11202
 H307 H 0.96443 0.44424 1.14321
 H308 H 0.90137 0.46854 1.20563
 C309 C 0.58001 0.09750 1.12509
 C310 C 0.57837 0.12726 1.13502
 C311 C 0.56165 0.12643 1.16228
 C312 C 0.54587 0.09570 1.17922
 C313 C 0.54652 0.06537 1.16902
 C314 C 0.56423 0.06675 1.14197
 C315 C 0.59228 0.15797 1.11645
 C316 C 0.60340 0.18304 1.10014
 C317 C 0.61607 0.21154 1.08012
 C318 C 0.62689 0.23506 1.06217
 H319 H 0.59294 0.09788 1.10403
 H320 H 0.56009 0.14927 1.17011
 H321 H 0.53205 0.09531 1.19976
 H322 H 0.56554 0.04395 1.13373
 C323 C 0.42168 0.52728 1.11862
 C324 C 0.42237 0.55778 1.12957
 C325 C 0.43921 0.57181 1.15695
 C326 C 0.45573 0.55572 1.17309
 C327 C 0.45571 0.52538 1.16202
 C328 C 0.43820 0.51116 1.13470
 C329 C 0.40703 0.57532 1.11209
 C330 C 0.39471 0.58996 1.09678
 C331 C 0.38082 0.60683 1.07790
 C332 C 0.36939 0.62076 1.06084
 H333 H 0.40871 0.51616 1.09745
 H334 H 0.44009 0.59550 1.16558
 H335 H 0.46937 0.56756 1.19385
 H336 H 0.43732 0.48761 1.12577
 C337 C 0.09388 0.58607 1.13186
 C338 C 0.12663 0.58837 1.14083
 C339 C 0.12898 0.57372 1.16817
 C340 C 0.09840 0.55585 1.18599
 C341 C 0.06506 0.55223 1.17656
 C342 C 0.06330 0.56818 1.14960
 C343 C 0.15698 0.60344 1.12090
 C344 C 0.18161 0.61498 1.10338
 C345 C 0.20954 0.62746 1.08201
 C346 C 0.23264 0.63741 1.06311
 H347 H 0.09175 0.59730 1.11075
 H348 H 0.15416 0.57519 1.17525
 H349 H 0.10049 0.54354 1.20648
 H350 H 0.03809 0.56620 1.14197
 C351 C 0.44845 0.87535 1.16142
 C352 C 0.43106 0.87491 1.13460
 C353 C 0.42951 0.90491 1.12526
 C354 C 0.44602 0.93551 1.14227
 C355 C 0.46436 0.93650 1.16887
 C356 C 0.46495 0.90593 1.17850
 C357 C 0.41624 0.84431 1.11587
 C358 C 0.40428 0.81935 1.09941
 C359 C 0.39053 0.79101 1.07920
 C360 C 0.37874 0.76762 1.06112
 H361 H 0.44993 0.85231 1.16880
 H362 H 0.41606 0.90483 1.10455
 H363 H 0.44472 0.95850 1.13449
 H364 H 0.47923 0.90602 1.19869
 C365 C 0.50933 0.40857 0.63494
 C366 C 0.54266 0.41123 0.64244
 C367 C 0.56030 0.42892 0.66855
 C368 C 0.54532 0.44508 0.68647
 C369 C 0.51265 0.44392 0.67829
 C370 C 0.49438 0.42476 0.65275
 C371 C 0.55986 0.39829 0.62199
 C372 C 0.57419 0.38841 0.60389
 C373 C 0.59068 0.37761 0.58180
 C374 C 0.60436 0.36869 0.56235
 H375 H 0.49546 0.39494 0.61478
 H376 H 0.58619 0.43126 0.67448
 H377 H 0.56012 0.45995 0.70584
 H378 H 0.46899 0.42313 0.64612
 C379 C 0.57762 0.10165 0.62802
 C380 C 0.56775 0.12747 0.63424
 C381 C 0.54355 0.12245 0.65752
 C382 C 0.52909 0.09155 0.67436
 C383 C 0.53857 0.06528 0.66797
 C384 C 0.56320 0.07082 0.64474
 C385 C 0.58164 0.15841 0.61589
 C386 C 0.59317 0.18354 0.59958
 C387 C 0.60630 0.21201 0.57945
 C388 C 0.61691 0.23547 0.56140
 H389 H 0.59630 0.10523 0.61006
 H390 H 0.53557 0.14220 0.66243
 H391 H 0.50997 0.08790 0.69193
 H392 H 0.57141 0.05130 0.63959
 C393 C 0.87271 0.46316 0.65150
 C394 C 0.86893 0.44046 0.62786
 C395 C 0.89755 0.43438 0.62023
 C396 C 0.92981 0.45082 0.63611
 C397 C 0.93396 0.47367 0.65990
 C398 C 0.90503 0.47965 0.66747
 C399 C 0.83607 0.42373 0.61091
 C400 C 0.80931 0.40958 0.59581
 C401 C 0.77896 0.39311 0.57698
 C402 C 0.75405 0.37941 0.55986
 H403 H 0.85077 0.46820 0.65749
 H404 H 0.89493 0.41687 0.60199
 H405 H 0.95138 0.44527 0.63004
 H406 H 0.90753 0.49737 0.68548
 C407 C 0.42610 0.52895 0.63414
 C408 C 0.43796 0.56449 0.63919
 C409 C 0.46236 0.58175 0.66237
 C410 C 0.47515 0.56350 0.68024
 C411 C 0.46377 0.52788 0.67491
 C412 C 0.43885 0.51076 0.65186
 C413 C 0.42563 0.58299 0.61975
 C414 C 0.41482 0.59715 0.60243
 C415 C 0.40175 0.61236 0.58117
 C416 C 0.39036 0.62441 0.56234
 H417 H 0.40718 0.51534 0.61630
 H418 H 0.47178 0.60931 0.66639
 H419 H 0.49451 0.57737 0.69771
 H420 H 0.42921 0.48323 0.64755
 C421 C 0.44186 0.87368 0.66547
 C422 C 0.45321 0.87322 0.63613
 C423 C 0.48087 0.90358 0.62382
 C424 C 0.49643 0.93458 0.64032
 C425 C 0.48455 0.93607 0.66968
 C426 C 0.45743 0.90464 0.68217
 C427 C 0.43573 0.84220 0.61799
 C428 C 0.42146 0.81712 0.60175
 C429 C 0.40543 0.78877 0.58158
 C430 C 0.39257 0.76546 0.56346
 H431 H 0.42032 0.85030 0.67520
 H432 H 0.49021 0.90344 0.60123
 H433 H 0.51831 0.95708 0.62996
 H434 H 0.44641 0.90405 0.70417
 C435 C 0.13122 0.57610 0.65917
 C436 C 0.13294 0.56623 0.62968
 C437 C 0.10240 0.53956 0.61628
 C438 C 0.07003 0.52320 0.63203
 C439 C 0.06739 0.53321 0.66173
 C440 C 0.09893 0.55977 0.67509
 C441 C 0.16563 0.58400 0.61269
 C442 C 0.19233 0.59856 0.59758
 C443 C 0.22264 0.61493 0.57875
 C444 C 0.24754 0.62801 0.56158
 H445 H 0.15469 0.59692 0.66971
 H446 H 0.10353 0.53146 0.59351
 H447 H 0.04752 0.50204 0.62091
 H448 H 0.09863 0.56957 0.69731
 C449 C 0.42136 0.52808 0.88126
 C450 C 0.42318 0.55899 0.87009
 C451 C 0.44034 0.57258 0.84274
 C452 C 0.45612 0.55564 0.82685
 C453 C 0.45502 0.52491 0.83818
 C454 C 0.43714 0.51112 0.86543
 C455 C 0.40870 0.57737 0.88737
 C456 C 0.39703 0.59258 0.90263
 C457 C 0.38377 0.60989 0.92154
 C458 C 0.37266 0.62396 0.93871
 H459 H 0.40812 0.51731 0.90240
 H460 H 0.44207 0.59658 0.83395
 H461 H 0.47007 0.56713 0.80613
 H462 H 0.43546 0.48729 0.87454
 C463 C 0.09395 0.58428 0.86771
 C464 C 0.12610 0.58498 0.85913
 C465 C 0.12787 0.56957 0.83208
 C466 C 0.09725 0.55246 0.81415
 C467 C 0.06446 0.55042 0.82322
 C468 C 0.06332 0.56716 0.84987
 C469 C 0.15633 0.59926 0.87920
 C470 C 0.18085 0.61024 0.89682
 C471 C 0.20866 0.62225 0.91827
 C472 C 0.23173 0.63207 0.93720
 H473 H 0.09229 0.59613 0.88861
 H474 H 0.15258 0.56982 0.82531
 H475 H 0.09882 0.53950 0.79391
 H476 H 0.03855 0.56637 0.85721
 C477 C 0.43796 0.87475 0.83512
 C478 C 0.42719 0.87573 0.86456
 C479 C 0.43281 0.90745 0.87686
 C480 C 0.45005 0.93828 0.86023
 C481 C 0.46235 0.93820 0.83074
 C482 C 0.45516 0.90554 0.81830
 C483 C 0.41171 0.84463 0.88276
 C484 C 0.39935 0.81939 0.89896
 C485 C 0.38535 0.79080 0.91900
 C486 C 0.37358 0.76727 0.93700
 H487 H 0.43388 0.85031 0.82539
 H488 H 0.42416 0.90847 0.89954
 H489 H 0.45288 0.96193 0.87060
 H490 H 0.46463 0.90362 0.79622
 C491 C 0.58313 0.45541 0.84819
 C492 C 0.56601 0.43417 0.87293
 C493 C 0.53207 0.42897 0.88165
 C494 C 0.51518 0.44473 0.86568
 C495 C 0.53202 0.46600 0.84070
 C496 C 0.56623 0.47123 0.83213
 C497 C 0.58314 0.41793 0.88978
 C498 C 0.59674 0.40425 0.90476
 C499 C 0.61194 0.38845 0.92341
 C500 C 0.62445 0.37548 0.94039
 H501 H 0.60950 0.45977 0.84135
 H502 H 0.51857 0.41258 0.90076
 H503 H 0.48863 0.43977 0.87255
 H504 H 0.58002 0.48774 0.81319
 C505 C 0.90634 0.42566 0.86736
 C506 C 0.87394 0.42455 0.85896
 C507 C 0.87186 0.44024 0.83214
 C508 C 0.90240 0.45797 0.81425
 C509 C 0.93541 0.46037 0.82315
 C510 C 0.93688 0.44341 0.84957
 C511 C 0.84374 0.40947 0.87899
 C512 C 0.81931 0.39773 0.89668
 C513 C 0.79169 0.38480 0.91828
 C514 C 0.76884 0.37418 0.93738
 H515 H 0.90823 0.41359 0.88807
 H516 H 0.84694 0.43967 0.82551
 H517 H 0.90060 0.47108 0.79417
 H518 H 0.96183 0.44445 0.85676
 C519 C 0.56254 0.12732 0.83786
 C520 C 0.57912 0.12772 0.86514
 C521 C 0.57988 0.09751 0.87505
 C522 C 0.56339 0.06679 0.85817
 C523 C 0.54583 0.06586 0.83112
 C524 C 0.54607 0.09661 0.82090
 C525 C 0.59389 0.15848 0.88374
 C526 C 0.60572 0.18355 0.90012
 C527 C 0.61914 0.21205 0.92023
 C528 C 0.63042 0.23557 0.93821
 H529 H 0.56168 0.15051 0.83002
 H530 H 0.59269 0.09753 0.89610
 H531 H 0.56410 0.04368 0.86639
 H532 H 0.53246 0.09658 0.80032
   
