data_POSCAR
  _audit_creation_date              2014-09-24
  _audit_creation_method            'ToBaCCo'
  _symmetry_space_group_name_H-M    'P1'
  _symmetry_Int_Tables_number       1
  _symmetry_cell_setting            triclinic
  loop_
  _symmetry_equiv_pos_as_xyz
 x,y,z
_cell_length_a 22.8794
_cell_length_b 23.7117
_cell_length_c 37.8468
_cell_angle_alpha 85.323800
_cell_angle_beta 88.097000
_cell_angle_gamma 85.365600
loop_
  _atom_site_label
  _atom_site_type_symbol
  _atom_site_fract_x
  _atom_site_fract_y
  _atom_site_fract_z
O1 O -0.02844 0.56997 0.96523
 O2 O -0.03395 0.45233 1.03392
 O3 O -0.02480 0.56070 1.03321
 O4 O -0.03292 0.45989 0.96435
 O5 O 0.06374 0.44907 0.96157
 O6 O 0.07165 0.54575 1.03179
 O7 O 0.06216 0.43609 1.03014
 O8 O 0.06836 0.55753 0.96258
 Cu9 Cu -0.03975 0.51167 0.99933
 Cu10 Cu 0.07617 0.49584 0.99646
 C11 C 0.02065 0.58446 0.95263
 C12 C 0.01275 0.42357 1.04372
 C13 C 0.02505 0.57070 1.04406
 C14 C 0.01436 0.43756 0.95100
 O15 O 0.54807 -0.06689 0.54203
 O16 O 0.44226 -0.06623 0.47014
 O17 O 0.55753 -0.07257 0.47447
 O18 O 0.43501 -0.06286 0.53933
 O19 O 0.43115 0.03066 0.53213
 O20 O 0.55377 0.02099 0.46641
 O21 O 0.44016 0.02716 0.46354
 O22 O 0.54512 0.02644 0.53461
 Cu23 Cu 0.49558 -0.07659 0.50695
 Cu24 Cu 0.49205 0.03564 0.49844
 C25 C 0.56516 -0.02012 0.55042
 C26 C 0.42313 -0.01909 0.45456
 C27 C 0.57731 -0.02760 0.45994
 C28 C 0.41268 -0.01463 0.54726
 Si29 Si 0.00884 -0.02534 0.24319
 Si30 Si -0.02741 0.03943 0.75499
 C31 C 0.08650 -0.34038 0.11068
 C32 C 0.03790 -0.30213 0.11862
 C33 C -0.01550 -0.30767 0.10167
 C34 C -0.01976 -0.35017 0.07834
 C35 C 0.02894 -0.38718 0.07053
 C36 C 0.08195 -0.38189 0.08697
 C37 C -0.06437 -0.27039 0.10769
 C38 C -0.06132 -0.22649 0.12945
 C39 C -0.00908 -0.21839 0.14657
 C40 C 0.04069 -0.25808 0.14216
 C41 C 0.09129 -0.25263 0.16163
 C42 C 0.09374 -0.20935 0.18404
 C43 C 0.04650 -0.16905 0.18750
 C44 C -0.00527 -0.17237 0.16841
 C45 C -0.05065 -0.12864 0.17145
 C46 C -0.04547 -0.08510 0.19349
 C47 C 0.00449 -0.08366 0.21347
 C48 C 0.05088 -0.12515 0.20990
 H49 H 0.12909 -0.33864 0.12164
 H50 H -0.06090 -0.35343 0.06550
 H51 H 0.12041 -0.40975 0.08130
 H52 H -0.10546 -0.27480 0.09509
 H53 H -0.10136 -0.20014 0.13284
 H54 H 0.12969 -0.28192 0.16070
 H55 H 0.13337 -0.20718 0.19864
 H56 H -0.09026 -0.12600 0.15662
 H57 H -0.08095 -0.05234 0.19466
 H58 H 0.09085 -0.12301 0.22406
 C59 C -0.04784 0.32457 0.11427
 C60 C -0.00031 0.28347 0.12045
 C61 C 0.05174 0.28942 0.09957
 C62 C 0.05698 0.33719 0.07541
 C63 C 0.00920 0.37760 0.06941
 C64 C -0.04335 0.37012 0.08887
 C65 C 0.09773 0.24702 0.10237
 C66 C 0.09224 0.19772 0.12440
 C67 C 0.04146 0.19029 0.14596
 C68 C -0.00363 0.23564 0.14573
 C69 C -0.04986 0.23232 0.17126
 C70 C -0.05339 0.18502 0.19517
 C71 C -0.01266 0.13823 0.19351
 C72 C 0.03467 0.13957 0.16836
 C73 C 0.07235 0.08954 0.16615
 C74 C 0.06342 0.04076 0.18830
 C75 C 0.01765 0.04052 0.21368
 C76 C -0.01938 0.08981 0.21674
 H77 H -0.08998 0.32136 0.12759
 H78 H 0.09753 0.34134 0.06007
 H79 H -0.08141 0.39997 0.08481
 H80 H 0.13782 0.25126 0.08662
 H81 H 0.12950 0.16679 0.12495
 H82 H -0.08296 0.26676 0.17423
 H83 H -0.08932 0.18452 0.21458
 H84 H 0.10780 0.08621 0.14675
 H85 H 0.09268 0.00298 0.18566
 H86 H -0.05359 0.09094 0.23710
 C87 C 0.31539 -0.05492 0.62638
 C88 C 0.27465 -0.00690 0.62781
 C89 C 0.27945 0.03828 0.60115
 C90 C 0.32517 0.03620 0.57541
 C91 C 0.36525 -0.01159 0.57465
 C92 C 0.35955 -0.05717 0.60012
 C93 C 0.23825 0.08500 0.60007
 C94 C 0.19114 0.08722 0.62418
 C95 C 0.18438 0.04336 0.65123
 C96 C 0.22855 -0.00293 0.65417
 C97 C 0.22572 -0.04322 0.68365
 C98 C 0.17983 -0.04008 0.70849
 C99 C 0.13412 0.00229 0.70451
 C100 C 0.13532 0.04444 0.67571
 C101 C 0.08663 0.08516 0.67230
 C102 C 0.03900 0.08346 0.69629
 C103 C 0.03828 0.04164 0.72448
 C104 C 0.08674 0.00221 0.72906
 H105 H 0.31338 -0.09219 0.64453
 H106 H 0.32869 0.07128 0.55539
 H107 H 0.38975 -0.09478 0.59994
 H108 H 0.24183 0.11986 0.57992
 H109 H 0.16134 0.12478 0.62143
 H110 H 0.25929 -0.07717 0.68881
 H111 H 0.17953 -0.07198 0.73071
 H112 H 0.08307 0.11783 0.65080
 H113 H 0.00238 0.11496 0.69254
 H114 H 0.08784 -0.02900 0.75153
 C115 C -0.32606 -0.07015 0.61944
 C116 C -0.30442 -0.01877 0.62804
 C117 C -0.32895 0.03239 0.61055
 C118 C -0.37280 0.03166 0.58556
 C119 C -0.39304 -0.01969 0.57680
 C120 C -0.36940 -0.07045 0.59432
 C121 C -0.30923 0.08427 0.61766
 C122 C -0.26445 0.08676 0.64114
 C123 C -0.23746 0.03714 0.65877
 C124 C -0.25878 -0.01641 0.65282
 C125 C -0.23356 -0.06576 0.67171
 C126 C -0.18805 -0.06334 0.69473
 C127 C -0.16538 -0.01189 0.69980
 C128 C -0.18970 0.03922 0.68205
 C129 C -0.16431 0.09011 0.68799
 C130 C -0.11675 0.08974 0.71017
 C131 C -0.09300 0.03908 0.72725
 C132 C -0.11784 -0.01151 0.72229
 H133 H -0.30991 -0.11112 0.63113
 H134 H -0.39042 0.07152 0.57246
 H135 H -0.38385 -0.11097 0.58840
 H136 H -0.32824 0.12356 0.60458
 H137 H -0.25215 0.12867 0.64490
 H138 H -0.24808 -0.10733 0.66943
 H139 H -0.16989 -0.10245 0.70844
 H140 H -0.17931 0.13090 0.67555
 H141 H -0.09832 0.12944 0.71383
 H142 H -0.09976 -0.05099 0.73539
 C143 C 0.04833 -0.32215 0.86908
 C144 C 0.01625 -0.27052 0.87644
 C145 C -0.01044 -0.26709 0.91064
 C146 C -0.00898 -0.31487 0.93506
 C147 C 0.02156 -0.36580 0.92693
 C148 C 0.05136 -0.36887 0.89424
 C149 C -0.03860 -0.21610 0.92031
 C150 C -0.04007 -0.16777 0.89700
 C151 C -0.01541 -0.16921 0.86237
 C152 C 0.01033 -0.22211 0.85131
 C153 C 0.02726 -0.22531 0.81527
 C154 C 0.02017 -0.17815 0.79099
 C155 C -0.00127 -0.12545 0.80195
 C156 C -0.01745 -0.11981 0.83804
 C157 C -0.03404 -0.06467 0.84842
 C158 C -0.03613 -0.01764 0.82372
 C159 C -0.02294 -0.02393 0.78786
 C160 C -0.00616 -0.07810 0.77708
 H161 H 0.07253 -0.32725 0.84447
 H162 H -0.03099 -0.31230 0.96079
 H163 H 0.07583 -0.40793 0.88783
 H164 H -0.05921 -0.21333 0.94639
 H165 H -0.06322 -0.13025 0.90639
 H166 H 0.04395 -0.26451 0.80472
 H167 H 0.03264 -0.18280 0.76343
 H168 H -0.04376 -0.05622 0.87563
 H169 H -0.04843 0.02368 0.83299
 H170 H 0.00427 -0.08327 0.74932
 C171 C 0.06562 0.33947 0.88050
 C172 C 0.01387 0.31456 0.87266
 C173 C -0.03892 0.33287 0.89054
 C174 C -0.03919 0.37415 0.91528
 C175 C 0.01289 0.39718 0.92324
 C176 C 0.06493 0.37975 0.90533
 C177 C -0.09099 0.30914 0.88416
 C178 C -0.09175 0.26625 0.86129
 C179 C -0.04017 0.24544 0.84350
 C180 C 0.01315 0.27123 0.84847
 C181 C 0.06416 0.25245 0.82937
 C182 C 0.06408 0.20824 0.80760
 C183 C 0.01338 0.18085 0.80381
 C184 C -0.03981 0.19927 0.82124
 C185 C -0.08989 0.16951 0.81625
 C186 C -0.08643 0.12299 0.79564
 C187 C -0.03341 0.10482 0.77930
 C188 C 0.01611 0.13426 0.78308
 H189 H 0.10784 0.32810 0.86861
 H190 H -0.07975 0.38719 0.92905
 H191 H 0.10587 0.39693 0.91076
 H192 H -0.13160 0.32325 0.89748
 H193 H -0.13380 0.25019 0.85819
 H194 H 0.10538 0.27095 0.83058
 H195 H 0.10460 0.19481 0.79392
 H196 H -0.13208 0.18016 0.82845
 H197 H -0.12513 0.10033 0.79308
 H198 H 0.05748 0.11999 0.77071
 C199 C -0.27154 -0.07326 0.42536
 C200 C -0.26651 -0.03832 0.39344
 C201 C -0.31624 -0.00220 0.38257
 C202 C -0.36692 0.00198 0.40456
 C203 C -0.37034 -0.03207 0.43641
 C204 C -0.32294 -0.07044 0.44622
 C205 C -0.31514 0.02928 0.34980
 C206 C -0.26615 0.02484 0.32716
 C207 C -0.21510 -0.00938 0.33723
 C208 C -0.21422 -0.03882 0.37172
 C209 C -0.16066 -0.06615 0.38385
 C210 C -0.10995 -0.06591 0.36266
 C211 C -0.11113 -0.04070 0.32807
 C212 C -0.16412 -0.01369 0.31442
 C213 C -0.16407 0.00680 0.27826
 C214 C -0.11294 0.00237 0.25716
 C215 C -0.05988 -0.02086 0.27149
 C216 C -0.05948 -0.04267 0.30696
 H217 H -0.23710 -0.10426 0.43443
 H218 H -0.40421 0.03084 0.39658
 H219 H -0.32520 -0.09758 0.47062
 H220 H -0.35292 0.05703 0.34131
 H221 H -0.26862 0.05073 0.30240
 H222 H -0.15598 -0.08614 0.41033
 H223 H -0.06954 -0.08648 0.37332
 H224 H -0.20327 0.02485 0.26527
 H225 H -0.11503 0.01817 0.22957
 H226 H -0.01932 -0.06216 0.31827
 C227 C 0.32487 0.03821 0.37951
 C228 C 0.29397 -0.00901 0.37282
 C229 C 0.30786 -0.06088 0.39334
 C230 C 0.35100 -0.06469 0.41933
 C231 C 0.38025 -0.01702 0.42590
 C232 C 0.36691 0.03411 0.40555
 C233 C 0.27800 -0.10844 0.38822
 C234 C 0.23346 -0.10552 0.36387
 C235 C 0.21715 -0.05468 0.34323
 C236 C 0.24905 -0.00607 0.34711
 C237 C 0.23476 0.04404 0.32531
 C238 C 0.18944 0.04759 0.30168
 C239 C 0.15637 0.00157 0.29863
 C240 C 0.16978 -0.05050 0.31900
 C241 C 0.13418 -0.09562 0.31466
 C242 C 0.08720 -0.08856 0.29156
 C243 C 0.07423 -0.03675 0.27200
 C244 C 0.10925 0.00794 0.27551
 H245 H 0.31704 0.07948 0.36569
 H246 H 0.36075 -0.10446 0.43502
 H247 H 0.38883 0.07168 0.40990
 H248 H 0.28862 -0.14833 0.40362
 H249 H 0.21261 -0.14419 0.36185
 H250 H 0.25784 0.08174 0.32567
 H251 H 0.17977 0.08724 0.28582
 H252 H 0.14066 -0.13656 0.32911
 H253 H 0.06025 -0.12358 0.28940
 H254 H 0.09916 0.04856 0.26091
   
