data_POSCAR
  _audit_creation_date              2014-09-24
  _audit_creation_method            'ToBaCCo'
  _symmetry_space_group_name_H-M    'P1'
  _symmetry_Int_Tables_number       1
  _symmetry_cell_setting            triclinic
  loop_
  _symmetry_equiv_pos_as_xyz
 x,y,z
_cell_length_a 28.4377
_cell_length_b 29.1920
_cell_length_c 11.8643
_cell_angle_alpha 89.539500
_cell_angle_beta 90.314600
_cell_angle_gamma 119.989700
loop_
  _atom_site_label
  _atom_site_type_symbol
  _atom_site_fract_x
  _atom_site_fract_y
  _atom_site_fract_z
C1 C 0.50572 0.95337 0.55080
 C2 C 0.49570 0.95479 0.43429
 C3 C 0.51377 1.00348 0.37985
 C4 C 0.54427 1.05185 0.43662
 C5 C 0.55419 1.05098 0.55442
 C6 C 0.53403 1.00155 0.60888
 H7 H 0.53794 1.00039 0.69974
 H8 H 0.50731 1.00358 0.28962
 C9 C 0.05159 0.55108 0.54806
 C10 C 0.05222 0.54944 0.42925
 C11 C 0.00312 0.52234 0.37002
 C12 C -0.04718 0.49761 0.42592
 C13 C -0.04762 0.49743 0.54565
 C14 C 0.00168 0.52430 0.60457
 H15 H 0.00128 0.52371 0.69600
 H16 H 0.00419 0.52187 0.27863
 C17 C 0.45810 0.50357 0.56070
 C18 C 0.46005 0.50861 0.44112
 C19 C 0.48237 0.48366 0.37776
 C20 C 0.50435 0.45514 0.42906
 C21 C 0.50286 0.45017 0.54803
 C22 C 0.47628 0.47112 0.61049
 H23 H 0.47313 0.46517 0.70116
 H24 H 0.48359 0.48733 0.28661
 O25 O 0.41536 0.64823 -0.09593
 O26 O 0.42610 0.74111 -0.14062
 C27 C 0.40822 0.77259 -0.15823
 O28 O 0.36766 0.76930 -0.10592
 O29 O 0.27103 0.68632 -0.14181
 C30 C 0.23936 0.63721 -0.15787
 O31 O 0.24389 0.60132 -0.10552
 O32 O 0.32934 0.58926 -0.13431
 C33 C 0.37989 0.60681 -0.14540
 O34 O 0.41434 0.66619 0.12495
 O35 O 0.43029 0.76138 0.07973
 C36 C 0.40054 0.77342 0.13684
 O37 O 0.35006 0.75253 0.11824
 O38 O 0.25258 0.67352 0.08072
 C39 C 0.23968 0.63200 0.13800
 O40 O 0.25963 0.60259 0.11921
 O41 O 0.34137 0.58800 0.09052
 C42 C 0.38382 0.61747 0.14759
 Cr43 Cr 0.41848 0.70291 -0.00822
 Cr44 Cr 0.31167 0.71880 -0.01238
 Cr45 Cr 0.29526 0.59827 -0.00815
 O46 O 0.34167 0.67321 -0.01150
 O47 O 0.58163 0.31553 -0.14588
 O48 O 0.59147 0.23249 -0.10051
 C49 C 0.62869 0.22768 -0.14800
 O50 O 0.67872 0.25854 -0.12955
 O51 O 0.76346 0.35224 -0.10154
 C52 C 0.76671 0.39065 -0.15909
 O53 O 0.73726 0.41105 -0.14078
 O54 O 0.64135 0.40049 -0.11295
 C55 C 0.60223 0.36436 -0.16853
 O56 O 0.57569 0.33100 0.07588
 O57 O 0.59039 0.25095 0.12078
 C58 C 0.62120 0.23265 0.14667
 O59 O 0.66505 0.24538 0.09460
 O60 O 0.74768 0.34017 0.12313
 C61 C 0.76709 0.38906 0.14037
 O62 O 0.75331 0.41741 0.08324
 O63 O 0.65567 0.40230 0.11203
 C64 C 0.60536 0.37304 0.13083
 Cr65 Cr 0.58793 0.28435 -0.01244
 Cr66 Cr 0.71190 0.30034 -0.00361
 Cr67 Cr 0.69560 0.40480 -0.01445
 O68 O 0.66519 0.32977 -0.01058
 C69 C 0.40592 0.82436 -0.32198
 C70 C 0.42972 0.86780 -0.39474
 C71 C 0.48541 0.90524 -0.38785
 C72 C 0.51793 0.89605 -0.30940
 C73 C 0.49330 0.85297 -0.23244
 C74 C 0.43673 0.81666 -0.23953
 C75 C 0.52626 0.84881 -0.14866
 N76 N 0.58063 0.88239 -0.14901
 N77 N 0.60429 0.92010 -0.22695
 C78 C 0.57490 0.92780 -0.30738
 H79 H 0.36258 0.79730 -0.32783
 H80 H 0.40340 0.87393 -0.45147
 H81 H 0.50956 0.81971 -0.08224
 H82 H 0.59637 0.95809 -0.37011
 C83 C 0.18442 0.58108 -0.31662
 C84 C 0.13941 0.56044 -0.38799
 C85 C 0.10222 0.57862 -0.38365
 C86 C 0.11136 0.61929 -0.30697
 C87 C 0.15627 0.63924 -0.23195
 C88 C 0.19350 0.62024 -0.23791
 C89 C 0.16079 0.67594 -0.15016
 N90 N 0.12498 0.69375 -0.14890
 N91 N 0.08445 0.67693 -0.22288
 C92 C 0.07637 0.64034 -0.30165
 H93 H 0.21190 0.56555 -0.32132
 H94 H 0.13267 0.52887 -0.44482
 H95 H 0.19162 0.69004 -0.08583
 H96 H 0.04268 0.62816 -0.35930
 C97 C 0.37136 0.55318 -0.31519
 C98 C 0.39091 0.52917 -0.38813
 C99 C 0.44060 0.53093 -0.36739
 C100 C 0.47078 0.55801 -0.26933
 C101 C 0.44814 0.57747 -0.18982
 C102 C 0.39954 0.57799 -0.21635
 C103 C 0.47522 0.59552 -0.08557
 N104 N 0.52497 0.60097 -0.06975
 N105 N 0.54933 0.58912 -0.15039
 C106 C 0.52433 0.56850 -0.24983
 H107 H 0.33381 0.55231 -0.33629
 H108 H 0.36608 0.50796 -0.45988
 H109 H 0.45730 0.60458 -0.01551
 H110 H 0.54682 0.56085 -0.31280
 C111 C 0.57573 0.17503 -0.31218
 C112 C 0.55863 0.13293 -0.38664
 C113 C 0.57822 0.09726 -0.37798
 C114 C 0.61801 0.10648 -0.29387
 C115 C 0.63346 0.14792 -0.21513
 C116 C 0.61274 0.18298 -0.22590
 C117 C 0.66851 0.15208 -0.12644
 N118 N 0.69059 0.12033 -0.12368
 N119 N 0.67981 0.08451 -0.20317
 C120 C 0.64474 0.07684 -0.28835
 H121 H 0.55925 0.20128 -0.32103
 H122 H 0.52766 0.12680 -0.44783
 H123 H 0.67819 0.17970 -0.05854
 H124 H 0.63881 0.04829 -0.35201
 C125 C 0.84142 0.47045 -0.24712
 C126 C 0.88700 0.49604 -0.31566
 C127 C 0.90190 0.46737 -0.38682
 C128 C 0.87006 0.41138 -0.38804
 C129 C 0.82280 0.38530 -0.32000
 C130 C 0.80954 0.41518 -0.24609
 C131 C 0.79025 0.33004 -0.32909
 N132 N 0.80585 0.30277 -0.39654
 N133 N 0.85175 0.32698 -0.45546
 C134 C 0.88454 0.38023 -0.45292
 H135 H 0.83222 0.49403 -0.19106
 H136 H 0.91132 0.53878 -0.31243
 H137 H 0.75223 0.30831 -0.28476
 H138 H 0.92164 0.39758 -0.50129
 C139 C 0.52175 0.36220 -0.25250
 C140 C 0.49793 0.38499 -0.31775
 C141 C 0.52896 0.42695 -0.39254
 C142 C 0.58583 0.44647 -0.39987
 C143 C 0.60961 0.42200 -0.33578
 C144 C 0.57760 0.38109 -0.25812
 C145 C 0.66531 0.44025 -0.34960
 N146 N 0.69588 0.48290 -0.41595
 N147 N 0.67450 0.50856 -0.46904
 C148 C 0.62083 0.49228 -0.46210
 H149 H 0.49675 0.33137 -0.19270
 H150 H 0.45466 0.36976 -0.30946
 H151 H 0.68471 0.42085 -0.30877
 H152 H 0.60628 0.51581 -0.50397
 C153 C 0.85415 0.40502 0.21825
 C154 C 0.90042 0.43308 0.28378
 C155 C 0.90493 0.47149 0.36054
 C156 C 0.86179 0.48277 0.36744
 C157 C 0.81416 0.45346 0.30142
 C158 C 0.81103 0.41508 0.22453
 C159 C 0.77131 0.46397 0.31421
 N160 N 0.77745 0.50372 0.38213
 N161 N 0.82347 0.53360 0.43801
 C162 C 0.86594 0.52488 0.43204
 H163 H 0.85281 0.37627 0.15915
 H164 H 0.93274 0.42383 0.27600
 H165 H 0.73296 0.44093 0.27143
 H166 H 0.90281 0.55138 0.47664
 C167 C 0.54837 0.15182 0.23574
 C168 C 0.53013 0.10671 0.30229
 C169 C 0.56591 0.09908 0.37169
 C170 C 0.62195 0.13864 0.37206
 C171 C 0.63993 0.18583 0.30804
 C172 C 0.60316 0.19121 0.23531
 C173 C 0.69456 0.22595 0.31825
 N174 N 0.72972 0.21728 0.37963
 N175 N 0.71399 0.17118 0.43100
 C176 C 0.66164 0.13143 0.42791
 H177 H 0.51955 0.15494 0.18068
 H178 H 0.48727 0.07745 0.29996
 H179 H 0.70959 0.26425 0.27910
 H180 H 0.65179 0.09435 0.46771
 C181 C 0.59693 0.44517 0.21686
 C182 C 0.57158 0.46470 0.28539
 C183 C 0.52819 0.43093 0.35518
 C184 C 0.50917 0.37583 0.35326
 C185 C 0.53608 0.35596 0.28581
 C186 C 0.57958 0.39100 0.21461
 C187 C 0.51875 0.30166 0.29367
 N188 N 0.47531 0.26931 0.35831
 N189 N 0.44811 0.28751 0.41596
 C190 C 0.46334 0.33954 0.41513
 H191 H 0.62975 0.47270 0.16295
 H192 H 0.58631 0.50685 0.28466
 H193 H 0.53959 0.28456 0.25090
 H194 H 0.43935 0.35195 0.46256
 C195 C 0.16171 0.55976 0.23780
 C196 C 0.11619 0.53988 0.30638
 C197 C 0.10335 0.57386 0.36356
 C198 C 0.13811 0.62925 0.35386
 C199 C 0.18585 0.64972 0.28716
 C200 C 0.19638 0.61446 0.22446
 C201 C 0.22147 0.70480 0.28719
 N202 N 0.20818 0.73689 0.34387
 N203 N 0.16188 0.71775 0.40090
 C204 C 0.12632 0.66510 0.40738
 H205 H 0.16871 0.53186 0.19160
 H206 H 0.08996 0.49740 0.31311
 H207 H 0.26022 0.72281 0.24517
 H208 H 0.08920 0.65177 0.45414
 C209 C 0.39845 0.84403 0.24690
 C210 C 0.42146 0.88829 0.31578
 C211 C 0.47275 0.90666 0.36335
 C212 C 0.50170 0.87995 0.34087
 C213 C 0.47791 0.83385 0.27273
 C214 C 0.42597 0.81649 0.22212
 C215 C 0.50733 0.80709 0.25921
 N216 N 0.55745 0.82672 0.30515
 N217 N 0.58052 0.87126 0.36415
 C218 C 0.55449 0.89860 0.38316
 H219 H 0.35910 0.83222 0.21003
 H220 H 0.39913 0.90868 0.33176
 H221 H 0.49137 0.77034 0.21501
 H222 H 0.57552 0.93482 0.43060
 C223 C 0.37940 0.53717 0.22913
 C224 C 0.39826 0.51132 0.29851
 C225 C 0.43977 0.53923 0.37670
 C226 C 0.46099 0.59443 0.38830
 C227 C 0.43846 0.62013 0.32394
 C228 C 0.39994 0.59192 0.23755
 C229 C 0.45490 0.67291 0.35024
 N230 N 0.49522 0.69948 0.42622
 N231 N 0.51985 0.67669 0.47847
 C232 C 0.50435 0.62517 0.46157
 H233 H 0.34951 0.51397 0.16571
 H234 H 0.38137 0.46908 0.28860
 H235 H 0.43492 0.69277 0.31449
 H236 H 0.52579 0.60870 0.50606
   
