data_POSCAR
  _audit_creation_date              2014-09-24
  _audit_creation_method            'ToBaCCo'
  _symmetry_space_group_name_H-M    'P1'
  _symmetry_Int_Tables_number       1
  _symmetry_cell_setting            triclinic
  loop_
  _symmetry_equiv_pos_as_xyz
 x,y,z
_cell_length_a 34.3208
_cell_length_b 34.3360
_cell_length_c 34.3506
_cell_angle_alpha 78.655900
_cell_angle_beta 103.716800
_cell_angle_gamma 71.369200
loop_
  _atom_site_label
  _atom_site_type_symbol
  _atom_site_fract_x
  _atom_site_fract_y
  _atom_site_fract_z
O1 O 0.55547 0.49137 0.03007
 O2 O 0.44422 0.50831 0.03005
 O3 O 0.50904 0.44374 0.02935
 O4 O 0.49047 0.55557 0.02947
 O5 O 0.46791 0.57655 -0.03972
 O6 O 0.48446 0.46539 -0.03985
 O7 O 0.42048 0.52994 -0.03906
 O8 O 0.53268 0.51129 -0.03913
 Cu9 Cu 0.50212 0.49754 0.03664
 Cu10 Cu 0.47410 0.52289 -0.04637
 C11 C 0.56308 0.49908 -0.00445
 C12 C 0.41323 0.52161 -0.00432
 C13 C 0.49898 0.43566 -0.00538
 C14 C 0.47682 0.58506 -0.00511
 O15 O -0.02733 0.55943 0.49282
 O16 O -0.02956 0.45186 0.49941
 O17 O -0.02919 0.49916 0.54986
 O18 O -0.02896 0.51270 0.44120
 O19 O 0.04262 0.48146 0.46391
 O20 O 0.04247 0.47264 0.57257
 O21 O 0.04204 0.42308 0.52382
 O22 O 0.04417 0.53115 0.51262
 Cu23 Cu -0.03593 0.50868 0.49346
 Cu24 Cu 0.05003 0.47431 0.52050
 C25 C 0.00887 0.56380 0.50175
 C26 C 0.00586 0.41902 0.51284
 C27 C 0.00646 0.48429 0.57977
 C28 C 0.00678 0.49845 0.43402
 O29 O 0.49683 0.03271 0.54335
 O30 O 0.48378 0.03205 0.43411
 O31 O 0.43599 0.03093 0.48284
 O32 O 0.54484 0.03281 0.49484
 O33 O 0.57348 -0.03818 0.51631
 O34 O 0.46481 -0.04001 0.50308
 O35 O 0.51367 -0.03891 0.45526
 O36 O 0.52461 -0.03817 0.56458
 Cu37 Cu 0.48745 0.03923 0.48674
 Cu38 Cu 0.52195 -0.04594 0.51203
 C39 C 0.51240 -0.00247 0.57274
 C40 C 0.49730 -0.00350 0.42607
 C41 C 0.43182 -0.00497 0.49107
 C42 C 0.57768 -0.00242 0.50699
 C43 C 0.50054 -0.00942 0.01162
 C44 C 0.50226 0.02096 -0.01901
 C45 C 0.50396 0.01495 -0.06025
 C46 C 0.50280 0.06207 -0.01245
 C47 C 0.49989 -0.00268 0.05270
 C48 C 0.49753 -0.05009 0.00566
 C49 C 0.53824 -0.01887 -0.06315
 C50 C 0.54080 -0.02249 -0.10246
 C51 C 0.50913 0.00771 -0.13952
 C52 C 0.47442 0.04095 -0.13628
 C53 C 0.47206 0.04468 -0.09712
 C54 C 0.54234 0.06726 -0.00015
 C55 C 0.54281 0.10695 0.00357
 C56 C 0.50365 0.14211 -0.00576
 C57 C 0.46414 0.13652 -0.01738
 C58 C 0.46375 0.09664 -0.02035
 C59 C 0.46047 0.01033 0.06110
 C60 C 0.45994 0.01320 0.10100
 C61 C 0.49897 0.00232 0.13324
 C62 C 0.53836 -0.00995 0.12446
 C63 C 0.53878 -0.01214 0.08434
 C64 C 0.46318 -0.04975 -0.02637
 C65 C 0.45876 -0.08829 -0.02934
 C66 C 0.48843 -0.12773 -0.00009
 C67 C 0.52320 -0.12789 0.03141
 C68 C 0.52757 -0.08947 0.03434
 H69 H 0.56347 -0.04185 -0.03502
 H70 H 0.56818 -0.04821 -0.10384
 H71 H 0.44896 0.06418 -0.16411
 H72 H 0.44517 0.07084 -0.09562
 H73 H 0.57270 0.04074 0.00602
 H74 H 0.57360 0.11063 0.01235
 H75 H 0.43302 0.09294 -0.02972
 H76 H 0.43026 0.01752 0.03693
 H77 H 0.42924 0.02244 0.10712
 H78 H 0.56880 -0.01819 0.14876
 H79 H 0.56945 -0.02234 0.07822
 H80 H 0.43917 -0.01960 -0.04834
 H81 H 0.43142 -0.08713 -0.05368
 H82 H 0.54702 -0.15781 0.05391
 H83 H 0.55434 -0.09048 0.05924
 H84 H 0.43360 0.16314 -0.02441
 C85 C -0.02242 0.50243 0.98551
 C86 C 0.00780 0.50629 1.01659
 C87 C 0.04823 0.51019 1.01123
 C88 C 0.00292 0.50557 1.05834
 C89 C -0.06365 0.49983 0.99033
 C90 C -0.01573 0.50011 0.94479
 C91 C 0.08857 0.48063 1.03946
 C92 C 0.12697 0.48459 1.03624
 C93 C 0.12592 0.51853 1.00494
 C94 C 0.08545 0.54799 0.97638
 C95 C 0.04691 0.54394 0.97959
 C96 C 0.00481 0.46806 1.08526
 C97 C 0.00340 0.46691 1.12581
 C98 C -0.00064 0.50348 1.13959
 C99 C -0.00336 0.54118 1.11228
 C100 C -0.00101 0.54203 1.07213
 C101 C -0.09143 0.53054 1.00353
 C102 C -0.13097 0.52862 1.00582
 C103 C -0.14400 0.49669 0.99386
 C104 C -0.11645 0.46625 0.98035
 C105 C -0.07664 0.46771 0.97877
 C106 C -0.04693 0.52981 0.90753
 C107 C -0.04267 0.52667 0.86878
 C108 C -0.00730 0.49345 0.86649
 C109 C 0.02427 0.46398 0.90391
 C110 C 0.01998 0.46718 0.94277
 H111 H 0.09031 0.45431 1.06402
 H112 H 0.15759 0.46088 1.05822
 H113 H 0.08354 0.57473 0.95221
 H114 H 0.01604 0.56750 0.95790
 H115 H 0.00835 0.43952 1.07515
 H116 H 0.00554 0.43753 1.14648
 H117 H -0.00215 0.57108 1.05176
 H118 H -0.08301 0.55654 1.01119
 H119 H -0.15199 0.55282 1.01577
 H120 H -0.12570 0.44121 0.97117
 H121 H -0.05599 0.44385 0.96821
 H122 H -0.07473 0.55536 0.90853
 H123 H -0.06713 0.55027 0.84053
 H124 H 0.05157 0.43776 0.90310
 H125 H 0.04397 0.44348 0.97122
 H126 H -0.00608 0.56957 1.12247
 C127 C 0.02332 -0.02508 0.50019
 C128 C -0.01018 0.00897 0.50102
 C129 C -0.05292 0.00712 0.50073
 C130 C -0.00579 0.05032 0.50278
 C131 C 0.06450 -0.02111 0.49746
 C132 C 0.02094 -0.06789 0.50153
 C133 C -0.07614 -0.00643 0.47032
 C134 C -0.11629 -0.00784 0.47081
 C135 C -0.13436 0.00544 0.50095
 C136 C -0.11159 0.01987 0.53069
 C137 C -0.07122 0.02057 0.53065
 C138 C -0.03553 0.08864 0.47222
 C139 C -0.03326 0.12804 0.47442
 C140 C -0.00141 0.12996 0.50750
 C141 C 0.02853 0.09146 0.53803
 C142 C 0.02623 0.05198 0.53579
 C143 C 0.10400 -0.04981 0.52772
 C144 C 0.14311 -0.04732 0.52506
 C145 C 0.14348 -0.01622 0.49189
 C146 C 0.10384 0.01250 0.46152
 C147 C 0.06469 0.00990 0.46415
 C148 C 0.00700 -0.08874 0.53172
 C149 C 0.00496 -0.12886 0.53211
 C150 C 0.01835 -0.14944 0.50334
 C151 C 0.03343 -0.12927 0.47400
 C152 C 0.03445 -0.08879 0.47293
 H153 H -0.06319 -0.01587 0.44627
 H154 H -0.13360 -0.01860 0.44728
 H155 H -0.12482 0.03002 0.55435
 H156 H -0.05402 0.03137 0.55423
 H157 H -0.06053 0.08798 0.44660
 H158 H -0.05635 0.15705 0.45010
 H159 H 0.04893 0.02281 0.56014
 H160 H 0.10448 -0.07403 0.55356
 H161 H 0.17310 -0.06951 0.54920
 H162 H 0.10322 0.03638 0.43532
 H163 H 0.03456 0.03175 0.44000
 H164 H -0.00225 -0.07403 0.55500
 H165 H -0.00628 -0.14424 0.55531
 H166 H 0.04386 -0.14467 0.45154
 H167 H 0.04565 -0.07360 0.44957
 H168 H 0.05304 0.09196 0.56418
 C169 C -0.31042 0.49385 0.99588
 C170 C -0.33895 0.49250 0.95979
 C171 C -0.38019 0.49355 0.95989
 C172 C -0.39262 0.49536 0.99596
 C173 C -0.36316 0.49581 1.03214
 C174 C -0.32222 0.49551 1.03212
 C175 C -0.26759 0.49413 0.99553
 C176 C -0.23960 0.49676 1.03122
 C177 C -0.19926 0.49784 1.03045
 C178 C -0.18664 0.49562 0.99457
 C179 C -0.21491 0.49253 0.95921
 C180 C -0.25563 0.49216 0.95939
 C181 C -0.29312 0.49755 1.06741
 C182 C -0.25258 0.49833 1.06691
 C183 C -0.32581 0.49058 0.92421
 C184 C -0.28479 0.49022 0.92409
 H185 H -0.30190 0.49892 1.09554
 H186 H -0.23125 0.50023 1.09468
 H187 H -0.34744 0.48942 0.89620
 H188 H -0.27596 0.48874 0.89599
 H189 H -0.40259 0.49314 0.93194
 H190 H -0.37254 0.49763 1.05993
 H191 H -0.17743 0.49988 1.05782
 H192 H -0.20547 0.49122 0.93138
 C193 C 0.28914 0.52810 0.99855
 C194 C 0.29591 0.53797 0.95969
 C195 C 0.33685 0.53717 0.95869
 C196 C 0.37121 0.52586 0.99632
 C197 C 0.36324 0.51691 1.03498
 C198 C 0.32242 0.51794 1.03624
 C199 C 0.24668 0.52744 0.99990
 C200 C 0.24026 0.51690 1.03885
 C201 C 0.20037 0.51507 1.04009
 C202 C 0.16706 0.52314 1.00280
 C203 C 0.17380 0.53441 0.96390
 C204 C 0.21364 0.53652 0.96230
 C205 C 0.31451 0.50819 1.07457
 C206 C 0.27410 0.50775 1.07585
 C207 C 0.26183 0.54756 0.92267
 C208 C 0.22144 0.54679 0.92395
 H209 H 0.33992 0.50041 1.10388
 H210 H 0.26948 0.49967 1.10609
 H211 H 0.26657 0.55526 0.89244
 H212 H 0.19624 0.55393 0.89469
 H213 H 0.34213 0.54421 0.92864
 H214 H 0.38895 0.50838 1.06429
 H215 H 0.19529 0.50720 1.07015
 H216 H 0.14857 0.54035 0.93504
 C217 C 0.01259 -0.31454 0.50130
 C218 C 0.05102 -0.34907 0.50703
 C219 C 0.04961 -0.38944 0.50698
 C220 C 0.00992 -0.39535 0.50042
 C221 C -0.02852 -0.35983 0.49376
 C222 C -0.02722 -0.31960 0.49477
 C223 C 0.01411 -0.27229 0.50233
 C224 C -0.02414 -0.23800 0.49770
 C225 C -0.02242 -0.19798 0.49902
 C226 C 0.01697 -0.19206 0.50390
 C227 C 0.05494 -0.22661 0.50822
 C228 C 0.05380 -0.26700 0.50791
 C229 C -0.06489 -0.28443 0.48983
 C230 C -0.06333 -0.24439 0.49150
 C231 C 0.09017 -0.34260 0.51288
 C232 C 0.09148 -0.30219 0.51306
 H233 H -0.09581 -0.28795 0.48490
 H234 H -0.09309 -0.21818 0.48775
 H235 H 0.12004 -0.36897 0.51725
 H236 H 0.12230 -0.29853 0.51747
 H237 H 0.07949 -0.41612 0.51193
 H238 H -0.05934 -0.36360 0.48886
 H239 H -0.05171 -0.17120 0.49534
 H240 H 0.08530 -0.22201 0.51215
 C241 C 0.00318 0.29476 0.51477
 C242 C -0.03601 0.33017 0.50441
 C243 C -0.03492 0.37062 0.50451
 C244 C 0.00501 0.37583 0.51484
 C245 C 0.04405 0.33976 0.52571
 C246 C 0.04330 0.29918 0.52557
 C247 C 0.00214 0.25235 0.51375
 C248 C 0.04129 0.21704 0.52356
 C249 C 0.04006 0.17695 0.52183
 C250 C 0.00001 0.17211 0.51030
 C251 C -0.03888 0.20786 0.50099
 C252 C -0.03801 0.24806 0.50254
 C253 C 0.08182 0.26304 0.53551
 C254 C 0.08083 0.22268 0.53449
 C255 C -0.07554 0.32450 0.49370
 C256 C -0.07652 0.28413 0.49282
 H257 H 0.11299 0.26604 0.54390
 H258 H 0.11127 0.19570 0.54214
 H259 H -0.10600 0.35155 0.48570
 H260 H -0.10771 0.28119 0.48419
 H261 H -0.06516 0.39807 0.49614
 H262 H 0.07497 0.34335 0.53362
 H263 H 0.07012 0.14977 0.52862
 H264 H -0.06981 0.20433 0.49277
 C265 C 0.51645 0.00081 -0.30425
 C266 C 0.50327 0.03939 -0.33611
 C267 C 0.50265 0.03801 -0.37674
 C268 C 0.51524 -0.00167 -0.38588
 C269 C 0.52930 -0.04020 -0.35308
 C270 C 0.52961 -0.03906 -0.31234
 C271 C 0.51580 0.00229 -0.26175
 C272 C 0.52808 -0.03619 -0.23000
 C273 C 0.52634 -0.03446 -0.18989
 C274 C 0.51245 0.00544 -0.18150
 C275 C 0.50105 0.04359 -0.21367
 C276 C 0.50236 0.04224 -0.25384
 C277 C 0.54219 -0.07695 -0.27963
 C278 C 0.54135 -0.07554 -0.23921
 C279 C 0.49041 0.07872 -0.32686
 C280 C 0.49008 0.08011 -0.28639
 H281 H 0.55242 -0.10796 -0.28541
 H282 H 0.55097 -0.10549 -0.21503
 H283 H 0.48028 0.10872 -0.35116
 H284 H 0.47971 0.11113 -0.28064
 H285 H 0.49194 0.06801 -0.40126
 H286 H 0.53910 -0.07104 -0.35929
 H287 H 0.53483 -0.06400 -0.16555
 H288 H 0.49120 0.07441 -0.20745
 C289 C 0.49581 -0.00177 0.30077
 C290 C 0.46766 0.03421 0.30757
 C291 C 0.46772 0.03326 0.34861
 C292 C 0.49528 -0.00354 0.38259
 C293 C 0.52265 -0.03965 0.37504
 C294 C 0.52336 -0.03877 0.33423
 C295 C 0.49677 -0.00051 0.25784
 C296 C 0.52568 -0.03611 0.25121
 C297 C 0.52674 -0.03461 0.21041
 C298 C 0.49869 0.00185 0.17635
 C299 C 0.46970 0.03718 0.18348
 C300 C 0.46886 0.03631 0.22429
 C301 C 0.55153 -0.07391 0.32628
 C302 C 0.55277 -0.07254 0.28549
 C303 C 0.44033 0.07052 0.27323
 C304 C 0.44078 0.07148 0.23227
 H305 H 0.57301 -0.10261 0.35184
 H306 H 0.57511 -0.10025 0.28075
 H307 H 0.41840 0.09846 0.27804
 H308 H 0.41913 0.10009 0.20668
 H309 H 0.44650 0.06116 0.35412
 H310 H 0.54427 -0.06795 0.40102
 H311 H 0.54870 -0.06209 0.20495
 H312 H 0.44822 0.06538 0.15734
 C313 C 0.47345 -0.28943 -0.00403
 C314 C 0.48247 -0.32030 0.03389
 C315 C 0.48206 -0.36085 0.03322
 C316 C 0.47295 -0.37075 -0.00501
 C317 C 0.46293 -0.33897 -0.04286
 C318 C 0.46337 -0.29832 -0.04251
 C319 C 0.47570 -0.24738 -0.00331
 C320 C 0.46769 -0.21683 -0.04112
 C321 C 0.47119 -0.17739 -0.04009
 C322 C 0.48287 -0.16861 -0.00156
 C323 C 0.49004 -0.19942 0.03596
 C324 C 0.48670 -0.23890 0.03529
 C325 C 0.45492 -0.26672 -0.07977
 C326 C 0.45706 -0.22668 -0.07908
 C327 C 0.49267 -0.31032 0.07183
 C328 C 0.49470 -0.27028 0.07251
 H329 H 0.44706 -0.27317 -0.10969
 H330 H 0.45073 -0.20339 -0.10848
 H331 H 0.49959 -0.33384 0.10128
 H332 H 0.50309 -0.26403 0.10247
 H333 H 0.48980 -0.38497 0.06253
 H334 H 0.45598 -0.34621 -0.07246
 H335 H 0.46594 -0.15403 -0.06906
 H336 H 0.49828 -0.19266 0.06569
 C337 C 0.50420 0.30956 -0.00603
 C338 C 0.47851 0.34473 -0.04186
 C339 C 0.47814 0.38562 -0.04177
 C340 C 0.50249 0.39171 -0.00590
 C341 C 0.52820 0.35605 0.02978
 C342 C 0.52942 0.31477 0.02975
 C343 C 0.50428 0.26654 -0.00585
 C344 C 0.53033 0.23119 0.02978
 C345 C 0.53033 0.19031 0.02968
 C346 C 0.50382 0.18505 -0.00540
 C347 C 0.47772 0.22087 -0.04069
 C348 C 0.47808 0.26165 -0.04123
 C349 C 0.55499 0.27866 0.06485
 C350 C 0.55561 0.23755 0.06478
 C351 C 0.45314 0.33845 -0.07683
 C352 C 0.45280 0.29763 -0.07647
 H353 H 0.57468 0.28220 0.09262
 H354 H 0.57580 0.21058 0.09248
 H355 H 0.43312 0.36538 -0.10462
 H356 H 0.43257 0.29422 -0.10399
 H357 H 0.45790 0.41291 -0.06922
 H358 H 0.54708 0.36045 0.05749
 H359 H 0.55032 0.16275 0.05695
 H360 H 0.45769 0.21677 -0.06792
 C361 C -0.29864 0.00027 0.50696
 C362 C -0.30587 -0.03775 0.50713
 C363 C -0.34602 -0.03878 0.50850
 C364 C -0.37906 -0.00190 0.50888
 C365 C -0.37119 0.03591 0.50886
 C366 C -0.33088 0.03709 0.50817
 C367 C -0.25663 0.00167 0.50508
 C368 C -0.24922 0.03955 0.50537
 C369 C -0.20911 0.04060 0.50390
 C370 C -0.17688 0.00434 0.50157
 C371 C -0.18498 -0.03322 0.50081
 C372 C -0.22475 -0.03485 0.50291
 C373 C -0.32230 0.07444 0.50825
 C374 C -0.28208 0.07559 0.50705
 C375 C -0.27307 -0.07375 0.50530
 C376 C -0.23322 -0.07228 0.50309
 H377 H -0.34688 0.10302 0.50924
 H378 H -0.27674 0.10500 0.50724
 H379 H -0.27833 -0.10323 0.50532
 H380 H -0.20885 -0.10069 0.50155
 H381 H -0.35194 -0.06790 0.50808
 H382 H -0.39642 0.06439 0.50923
 H383 H -0.20302 0.06966 0.50417
 H384 H -0.16000 -0.06130 0.49943
 C385 C 0.30736 -0.00908 0.48591
 C386 C 0.31124 0.03093 0.47661
 C387 C 0.35185 0.03224 0.47740
 C388 C 0.38843 -0.00615 0.48766
 C389 C 0.38369 -0.04594 0.49629
 C390 C 0.34328 -0.04759 0.49555
 C391 C 0.26505 -0.01074 0.48626
 C392 C 0.26141 -0.05082 0.49623
 C393 C 0.22140 -0.05231 0.49745
 C394 C 0.18521 -0.01412 0.48899
 C395 C 0.18929 0.02586 0.47853
 C396 C 0.22923 0.02772 0.47724
 C397 C 0.33822 -0.08704 0.50487
 C398 C 0.29796 -0.08863 0.50519
 C399 C 0.27456 0.06876 0.46734
 C400 C 0.23425 0.06718 0.46765
 H401 H 0.36570 -0.11697 0.51230
 H402 H 0.29550 -0.11973 0.51284
 H403 H 0.27712 0.09984 0.46009
 H404 H 0.20686 0.09708 0.46061
 H405 H 0.35509 0.06303 0.47076
 H406 H 0.41155 -0.07569 0.50419
 H407 H 0.21836 -0.08316 0.50490
 H408 H 0.16172 0.05536 0.47239
 C409 C 0.00394 0.50142 1.30833
 C410 C -0.03009 0.53215 1.31517
 C411 C -0.02884 0.53132 1.35644
 C412 C 0.00651 0.50057 1.39061
 C413 C 0.04076 0.47054 1.38317
 C414 C 0.03939 0.47049 1.34206
 C415 C 0.00232 0.50149 1.26504
 C416 C 0.03584 0.47011 1.25825
 C417 C 0.03407 0.47025 1.21702
 C418 C -0.00039 0.50203 1.18288
 C419 C -0.03364 0.53337 1.19017
 C420 C -0.03268 0.53299 1.23128
 C421 C 0.07248 0.43983 1.33400
 C422 C 0.07064 0.43952 1.29280
 C423 C -0.06474 0.56292 1.28060
 C424 C -0.06589 0.56349 1.23935
 H425 H 0.09992 0.41572 1.35976
 H426 H 0.09675 0.41524 1.28795
 H427 H -0.09114 0.58685 1.28546
 H428 H -0.09308 0.58790 1.21358
 H429 H -0.05524 0.55461 1.36199
 H430 H 0.06783 0.44649 1.40935
 H431 H 0.05993 0.44641 1.21136
 H432 H -0.06025 0.55777 1.16382
 C433 C 0.00240 0.48203 0.70377
 C434 C -0.03581 0.49022 0.67168
 C435 C -0.03398 0.48994 0.63145
 C436 C 0.00567 0.48159 0.62308
 C437 C 0.04390 0.47259 0.65586
 C438 C 0.04238 0.47301 0.69627
 C439 C 0.00033 0.48372 0.74581
 C440 C 0.03834 0.47635 0.77778
 C441 C 0.03592 0.47905 0.81745
 C442 C -0.00421 0.48918 0.82507
 C443 C -0.04182 0.49580 0.79273
 C444 C -0.03979 0.49331 0.75304
 C445 C 0.07983 0.46533 0.72916
 C446 C 0.07784 0.46700 0.76921
 C447 C -0.07524 0.49920 0.68027
 C448 C -0.07719 0.50066 0.72030
 H449 H 0.11088 0.45832 0.72381
 H450 H 0.10742 0.46121 0.79360
 H451 H -0.10492 0.50548 0.65577
 H452 H -0.10831 0.50800 0.72557
 H453 H -0.06357 0.49676 0.60655
 H454 H 0.07455 0.46627 0.64975
 H455 H 0.06496 0.47423 0.84203
 H456 H -0.07269 0.50282 0.79851
   
