data_POSCAR
  _audit_creation_date              2014-09-24
  _audit_creation_method            'ToBaCCo'
  _symmetry_space_group_name_H-M    'P1'
  _symmetry_Int_Tables_number       1
  _symmetry_cell_setting            triclinic
  loop_
  _symmetry_equiv_pos_as_xyz
 x,y,z
_cell_length_a 30.3768
_cell_length_b 30.5326
_cell_length_c 9.0723
_cell_angle_alpha 90.365900
_cell_angle_beta 90.023000
_cell_angle_gamma 90.075100
loop_
  _atom_site_label
  _atom_site_type_symbol
  _atom_site_fract_x
  _atom_site_fract_y
  _atom_site_fract_z
O1 O 0.21114 0.29229 0.14163
 O2 O 0.29625 0.20779 0.18099
 O3 O 0.21150 0.20660 0.13713
 O4 O 0.29586 0.29172 0.18585
 O5 O 0.28513 0.29116 0.42630
 O6 O 0.19922 0.20675 0.37642
 O7 O 0.28484 0.20629 0.42100
 O8 O 0.19991 0.29172 0.38183
 Cu9 Cu 0.25452 0.24966 0.13746
 Cu10 Cu 0.24103 0.24883 0.42530
 C11 C 0.19086 0.30642 0.25471
 C12 C 0.30590 0.19331 0.30780
 C13 C 0.19041 0.19234 0.24794
 C14 C 0.30577 0.30525 0.31427
 O15 O 0.79598 0.29155 0.31774
 O16 O 0.71161 0.20634 0.36108
 O17 O 0.79635 0.20759 0.31729
 O18 O 0.71127 0.29203 0.36191
 O19 O 0.69999 0.29184 0.12169
 O20 O 0.78489 0.20648 0.07720
 O21 O 0.69928 0.20689 0.12181
 O22 O 0.78520 0.29137 0.07727
 Cu23 Cu 0.75464 0.24939 0.36345
 Cu24 Cu 0.74109 0.24904 0.07557
 C25 C 0.80585 0.30529 0.19016
 C26 C 0.69049 0.19227 0.24939
 C27 C 0.80596 0.19331 0.18961
 C28 C 0.69095 0.30633 0.24969
 O29 O 0.79635 0.70801 0.68893
 O30 O 0.71214 0.79310 0.64312
 O31 O 0.79721 0.79192 0.68456
 O32 O 0.71162 0.70751 0.64667
 O33 O 0.70073 0.70907 0.88703
 O34 O 0.78648 0.79415 0.92467
 O35 O 0.70094 0.79411 0.88333
 O36 O 0.78611 0.70924 0.92962
 Cu37 Cu 0.75512 0.75003 0.64188
 Cu38 Cu 0.74238 0.75183 0.93008
 C39 C 0.80641 0.69476 0.81694
 C40 C 0.69180 0.80790 0.75513
 C41 C 0.80741 0.80680 0.81113
 C42 C 0.69140 0.69392 0.76004
 O43 O 0.29555 0.79307 0.81114
 O44 O 0.21073 0.70839 0.85675
 O45 O 0.29547 0.70918 0.81390
 O46 O 0.21086 0.79408 0.85478
 O47 O 0.19860 0.79220 0.61549
 O48 O 0.28496 0.70804 0.57331
 O49 O 0.19965 0.70722 0.61643
 O50 O 0.28426 0.79290 0.57095
 Cu51 Cu 0.25396 0.75131 0.85808
 Cu52 Cu 0.24063 0.75005 0.57011
 C53 C 0.30523 0.80674 0.68333
 C54 C 0.19058 0.69335 0.74459
 C55 C 0.30555 0.69485 0.68669
 C56 C 0.18974 0.80746 0.74281
 C57 C 1.00128 0.10571 0.16587
 C58 C 1.04114 0.08377 0.14476
 C59 C 1.04125 0.04193 0.08002
 C60 C 1.00187 0.02246 0.02782
 C61 C 0.96246 0.04676 0.04230
 C62 C 0.96180 0.08749 0.11470
 C63 C 1.00172 -0.02243 -0.04250
 C64 C 0.96230 -0.04691 -0.05465
 C65 C 0.96136 -0.08764 -0.12690
 C66 C 1.00056 -0.10575 -0.18021
 C67 C 1.04052 -0.08373 -0.16071
 C68 C 1.04086 -0.04181 -0.09651
 H69 H 1.00127 0.13808 0.21568
 H70 H 1.07245 0.02522 0.07239
 H71 H 0.93178 0.03461 -0.00200
 H72 H 0.93183 -0.03498 -0.00837
 H73 H 1.00027 -0.13818 -0.22967
 H74 H 1.07209 -0.02503 -0.09020
 C75 C 0.50036 0.60645 0.67403
 C76 C 0.54024 0.58407 0.65832
 C77 C 0.54034 0.54176 0.59682
 C78 C 0.50122 0.52246 0.54199
 C79 C 0.46191 0.54709 0.55163
 C80 C 0.46110 0.58817 0.62143
 C81 C 0.50126 0.47734 0.47391
 C82 C 0.46188 0.45277 0.46232
 C83 C 0.46110 0.41190 0.39108
 C84 C 0.50043 0.39372 0.33921
 C85 C 0.54034 0.41599 0.35701
 C86 C 0.54048 0.45809 0.42004
 H87 H 0.50012 0.63916 0.72120
 H88 H 0.57129 0.52443 0.59371
 H89 H 0.43146 0.53485 0.50575
 H90 H 0.43134 0.46493 0.50744
 H91 H 0.50017 0.36119 0.29061
 H92 H 0.57148 0.47537 0.42462
 C93 C 0.00037 0.39416 0.17116
 C94 C -0.03896 0.41228 0.11976
 C95 C -0.03816 0.45305 0.04962
 C96 C 0.00123 0.47757 0.03850
 C97 C 0.04044 0.45840 0.09205
 C98 C 0.04030 0.41638 0.15394
 C99 C 0.00126 0.52245 -0.02957
 C100 C 0.04044 0.54153 -0.08409
 C101 C 0.04030 0.58341 -0.14691
 C102 C 0.00042 0.60562 -0.16385
 C103 C -0.03886 0.58763 -0.11129
 C104 C -0.03807 0.54700 -0.04029
 H105 H 0.00011 0.36167 0.21867
 H106 H -0.06870 0.46514 0.00468
 H107 H 0.07147 0.47562 0.08779
 H108 H 0.07143 0.52430 -0.08011
 H109 H 0.00017 0.63800 -0.21222
 H110 H -0.06857 0.53501 0.00541
 C111 C 0.50064 0.89419 0.66241
 C112 C 0.46140 0.91225 0.60995
 C113 C 0.46234 0.95289 0.53894
 C114 C 0.50175 0.97742 0.52817
 C115 C 0.54086 0.95829 0.58278
 C116 C 0.54061 0.91637 0.64543
 C117 C 0.50187 1.02231 0.45985
 C118 C 0.54124 1.04175 0.40849
 C119 C 0.54116 1.08364 0.34594
 C120 C 0.50131 1.10564 0.32604
 C121 C 0.46182 1.08742 0.37633
 C122 C 0.46248 1.04664 0.44663
 H123 H 0.50029 0.86182 0.71081
 H124 H 0.43187 0.96488 0.49330
 H125 H 0.57191 0.97546 0.57903
 H126 H 0.57241 1.02496 0.41522
 H127 H 0.50131 1.13806 0.27796
 H128 H 0.43181 1.03447 0.49038
 C129 C 1.14860 0.14294 0.08717
 C130 C 1.15640 0.16161 0.22731
 C131 C 1.12788 0.15057 0.34403
 C132 C 1.09106 0.12397 0.31875
 C133 C 1.08285 0.10672 0.17780
 C134 C 1.11247 0.11546 0.06329
 H135 H 1.16988 0.15019 -0.00533
 H136 H 1.13273 0.16407 0.45356
 H137 H 1.06841 0.11763 0.40833
 H138 H 1.10643 0.10270 -0.04659
 C139 C 0.62330 0.65682 0.85230
 C140 C 0.65567 0.66135 0.74275
 C141 C 0.65186 0.63668 0.61204
 C142 C 0.61551 0.60941 0.58878
 C143 C 0.58196 0.60681 0.69475
 C144 C 0.58657 0.63008 0.82792
 H145 H 0.62535 0.67544 0.95407
 H146 H 0.67642 0.63935 0.52604
 H147 H 0.61247 0.59210 0.48465
 H148 H 0.56111 0.62849 0.91130
 C149 C -0.14695 0.35480 0.03613
 C150 C -0.15693 0.33617 0.17352
 C151 C -0.12911 0.34490 0.29406
 C152 C -0.09131 0.37030 0.27655
 C153 C -0.08071 0.38794 0.13864
 C154 C -0.10926 0.38071 0.01907
 H155 H -0.16774 0.34863 -0.05876
 H156 H -0.13579 0.33104 0.40135
 H157 H -0.07000 0.37583 0.37064
 H158 H -0.10160 0.39386 -0.08853
 C159 C 0.37069 0.84597 0.78598
 C160 C 0.34268 0.83732 0.66582
 C161 C 0.35283 0.85554 0.52794
 C162 C 0.39081 0.88099 0.51009
 C163 C 0.41951 0.88815 0.62933
 C164 C 0.40877 0.87090 0.76769
 H165 H 0.36391 0.83240 0.89363
 H166 H 0.33193 0.84940 0.43329
 H167 H 0.39854 0.89385 0.40216
 H168 H 0.43016 0.87641 0.86159
 C169 C -0.12904 0.65451 -0.28658
 C170 C -0.15655 0.66380 -0.16583
 C171 C -0.14639 0.64565 -0.02785
 C172 C -0.10882 0.61967 -0.01048
 C173 C -0.08056 0.61193 -0.13032
 C174 C -0.09136 0.62907 -0.26876
 H175 H -0.13586 0.66799 -0.39432
 H176 H -0.16695 0.65224 0.06720
 H177 H -0.10100 0.60690 0.09751
 H178 H -0.07026 0.62313 -0.36304
 C179 C 0.35326 1.14356 0.45999
 C180 C 0.34338 1.16276 0.32346
 C181 C 0.37161 1.15504 0.20331
 C182 C 0.40964 1.13001 0.22043
 C183 C 0.42006 1.11173 0.35753
 C184 C 0.39116 1.11804 0.47663
 H185 H 0.33219 1.14897 0.55462
 H186 H 0.36504 1.16940 0.09671
 H187 H 0.43120 1.12520 0.12664
 H188 H 0.39865 1.10445 0.58370
 C189 C 1.12695 -0.15180 -0.35607
 C190 C 1.15569 -0.16182 -0.23889
 C191 C 1.14810 -0.14212 -0.10027
 C192 C 1.11200 -0.11461 -0.07818
 C193 C 1.08215 -0.10683 -0.19287
 C194 C 1.09013 -0.12515 -0.33246
 H195 H 1.13164 -0.16612 -0.46447
 H196 H 1.16954 -0.14857 -0.00749
 H197 H 1.10616 -0.10105 0.03072
 H198 H 1.06732 -0.11957 -0.42217
 C199 C 0.62329 0.34440 0.15932
 C200 C 0.65541 0.33889 0.26922
 C201 C 0.65152 0.36259 0.40189
 C202 C 0.61530 0.38986 0.42653
 C203 C 0.58200 0.39339 0.31995
 C204 C 0.58672 0.37111 0.18501
 H205 H 0.62541 0.32655 0.05603
 H206 H 0.67588 0.35917 0.48822
 H207 H 0.61216 0.40642 0.53195
 H208 H 0.56144 0.37343 0.10118
 C209 C 0.86914 -0.15369 -0.29809
 C210 C 0.84302 -0.16402 -0.17462
 C211 C 0.85505 -0.14657 -0.03609
 C212 C 0.89283 -0.12065 -0.02111
 C213 C 0.91962 -0.11213 -0.14363
 C214 C 0.90719 -0.12843 -0.28230
 H215 H 0.86110 -0.16623 -0.40679
 H216 H 0.83583 -0.15357 0.06153
 H217 H 0.90193 -0.10843 0.08705
 H218 H 0.92721 -0.12186 -0.37847
 C219 C 0.35299 0.35456 0.47119
 C220 C 0.34302 0.33605 0.33278
 C221 C 0.37092 0.34479 0.21288
 C222 C 0.40876 0.37009 0.23195
 C223 C 0.41934 0.38762 0.37081
 C224 C 0.39073 0.38039 0.48981
 H225 H 0.33214 0.34838 0.56561
 H226 H 0.36425 0.33101 0.10486
 H227 H 0.43012 0.37563 0.13829
 H228 H 0.39836 0.39348 0.59809
 C229 C 0.12305 0.65447 -0.34544
 C230 C 0.15517 0.66064 -0.23565
 C231 C 0.15138 0.63748 -0.10286
 C232 C 0.11526 0.61010 -0.07797
 C233 C 0.08194 0.60595 -0.18440
 C234 C 0.08655 0.62768 -0.31949
 H235 H 0.12508 0.67190 -0.44882
 H236 H 0.17576 0.64142 -0.01661
 H237 H 0.11218 0.59399 0.02756
 H238 H 0.06124 0.62488 -0.40317
 C239 C 0.64869 1.14262 0.40709
 C240 C 0.65647 1.16152 0.26811
 C241 C 0.62791 1.15070 0.15073
 C242 C 0.59107 1.12409 0.17438
 C243 C 0.58288 1.10660 0.31426
 C244 C 0.61255 1.11513 0.42928
 H245 H 0.67000 1.14971 0.50003
 H246 H 0.63274 1.16438 0.04204
 H247 H 0.56839 1.11791 0.08443
 H248 H 0.60653 1.10220 0.53837
 C249 C 0.12332 0.34453 0.34753
 C250 C 0.15534 0.33906 0.23715
 C251 C 0.15138 0.36288 0.10577
 C252 C 0.11519 0.39022 0.08276
 C253 C 0.08197 0.39372 0.18971
 C254 C 0.08676 0.37133 0.32347
 H255 H 0.12549 0.32660 0.44988
 H256 H 0.17567 0.35949 0.01910
 H257 H 0.11199 0.40685 -0.02181
 H258 H 0.06156 0.37362 0.40757
 C259 C 0.62366 0.84574 0.84420
 C260 C 0.65605 0.84016 0.73507
 C261 C 0.65218 0.86337 0.60242
 C262 C 0.61579 0.89027 0.57713
 C263 C 0.58226 0.89391 0.68297
 C264 C 0.58690 0.87206 0.81782
 H265 H 0.62574 0.82823 0.94741
 H266 H 0.67673 0.85986 0.51662
 H267 H 0.61273 0.90649 0.47178
 H268 H 0.56146 0.87447 0.90111
 C269 C 0.87165 0.15483 0.29179
 C270 C 0.84340 0.16275 0.17210
 C271 C 0.85322 0.14374 0.03443
 C272 C 0.89111 0.11822 0.01626
 C273 C 0.92004 0.11173 0.13497
 C274 C 0.90966 0.12980 0.27316
 H275 H 0.86512 0.16904 0.39924
 H276 H 0.83214 0.14931 -0.05987
 H277 H 0.89857 0.10478 -0.09161
 H278 H 0.93124 0.12485 0.36665
 C279 C 0.35328 0.64494 0.53423
 C280 C 0.34294 0.66417 0.67116
 C281 C 0.37056 0.65620 0.79244
 C282 C 0.40845 0.63091 0.77617
 C283 C 0.41937 0.61262 0.63878
 C284 C 0.39108 0.61914 0.51842
 H285 H 0.33267 0.65053 0.43880
 H286 H 0.36361 0.67054 0.89940
 H287 H 0.42956 0.62593 0.87086
 H288 H 0.39897 0.60549 0.41119
   
