data_POSCAR
  _audit_creation_date              2014-09-24
  _audit_creation_method            'ToBaCCo'
  _symmetry_space_group_name_H-M    'P1'
  _symmetry_Int_Tables_number       1
  _symmetry_cell_setting            triclinic
  loop_
  _symmetry_equiv_pos_as_xyz
 x,y,z
_cell_length_a 41.1788
_cell_length_b 40.6949
_cell_length_c 41.2496
_cell_angle_alpha 89.897400
_cell_angle_beta 89.969300
_cell_angle_gamma 90.045700
loop_
  _atom_site_label
  _atom_site_type_symbol
  _atom_site_fract_x
  _atom_site_fract_y
  _atom_site_fract_z
N1 N 0.58791 0.67743 0.61112
 N2 N 0.57556 0.66432 0.63758
 C3 C 0.54917 0.68167 0.64651
 C4 C 0.54501 0.70680 0.62446
 C5 C 0.56985 0.70354 0.60233
 H6 H 0.53410 0.67651 0.66739
 H7 H 0.57442 0.71899 0.58145
 Cu8 Cu 0.59515 0.62588 0.65771
 Cu9 Cu 0.62640 0.65970 0.59006
 Cu10 Cu 0.66107 0.59042 0.62469
 N11 N 0.61447 0.58659 0.67645
 N12 N 0.64026 0.57284 0.66341
 C13 C 0.64862 0.54622 0.68096
 C14 C 0.62684 0.54333 0.70617
 C15 C 0.60548 0.56915 0.70278
 H16 H 0.66893 0.53022 0.67578
 H17 H 0.58503 0.57473 0.71828
 N18 N 0.67860 0.61181 0.58552
 N19 N 0.66539 0.63821 0.57232
 C20 C 0.68284 0.64693 0.54602
 C21 C 0.70803 0.62497 0.54270
 C22 C 0.70480 0.60304 0.56795
 H23 H 0.67769 0.66766 0.53043
 H24 H 0.72040 0.58231 0.57308
 H25 H 0.61971 0.61189 0.60575
 H26 H 0.64653 0.63859 0.63098
 N27 N 0.91274 0.32233 0.11062
 N28 N 0.92508 0.33536 0.13708
 C29 C 0.95138 0.31790 0.14611
 C30 C 0.95547 0.29281 0.12410
 C31 C 0.93071 0.29615 0.10190
 H32 H 0.96641 0.32300 0.16701
 H33 H 0.92611 0.28075 0.08105
 Cu34 Cu 0.90557 0.37384 0.15710
 Cu35 Cu 0.87437 0.34023 0.08947
 Cu36 Cu 0.83984 0.40958 0.12392
 N37 N 0.88633 0.41317 0.17573
 N38 N 0.86061 0.42702 0.16263
 C39 C 0.85231 0.45362 0.18014
 C40 C 0.87400 0.45643 0.20540
 C41 C 0.89528 0.43054 0.20204
 H42 H 0.83206 0.46969 0.17492
 H43 H 0.91566 0.42488 0.21760
 N44 N 0.82234 0.38833 0.08475
 N45 N 0.83550 0.36190 0.07163
 C46 C 0.81808 0.35327 0.04534
 C47 C 0.79296 0.37531 0.04194
 C48 C 0.79621 0.39720 0.06715
 H49 H 0.82317 0.33252 0.02981
 H50 H 0.78065 0.41795 0.07223
 H51 H 0.88118 0.38801 0.10508
 H52 H 0.85421 0.36135 0.13032
 N53 N 0.41266 0.17721 -0.11043
 N54 N 0.42576 0.16334 -0.13608
 C55 C 0.45217 0.18072 -0.14506
 C56 C 0.45557 0.20663 -0.12387
 C57 C 0.43025 0.20383 -0.10220
 H58 H 0.46774 0.17505 -0.16541
 H59 H 0.42505 0.21992 -0.08202
 Cu60 Cu 0.40701 0.12401 -0.15523
 Cu61 Cu 0.37383 0.15979 -0.08965
 Cu62 Cu 0.33912 0.09046 -0.12404
 N63 N 0.38682 0.08556 -0.17466
 N64 N 0.36027 0.07257 -0.16234
 C65 C 0.35146 0.04642 -0.18029
 C66 C 0.37368 0.04304 -0.20503
 C67 C 0.39580 0.06811 -0.20092
 H68 H 0.33051 0.03105 -0.17571
 H69 H 0.41675 0.07318 -0.21594
 N70 N 0.32131 0.11213 -0.08523
 N71 N 0.33453 0.13855 -0.07213
 C72 C 0.31692 0.14741 -0.04602
 C73 C 0.29161 0.12553 -0.04274
 C74 C 0.29494 0.10350 -0.06780
 H75 H 0.32208 0.16815 -0.03050
 H76 H 0.27934 0.08275 -0.07286
 H77 H 0.38010 0.11155 -0.10394
 H78 H 0.35493 0.13822 -0.13090
 N79 N 0.08719 0.82166 0.38904
 N80 N 0.07482 0.83478 0.36261
 C81 C 0.04850 0.81732 0.35361
 C82 C 0.04445 0.79212 0.37559
 C83 C 0.06923 0.79541 0.39777
 H84 H 0.03344 0.82249 0.33274
 H85 H 0.07385 0.77994 0.41862
 Cu86 Cu 0.09428 0.87340 0.34261
 Cu87 Cu 0.12556 0.83956 0.41017
 Cu88 Cu 0.15999 0.90916 0.37578
 N89 N 0.11346 0.91287 0.32401
 N90 N 0.13916 0.92673 0.33711
 C91 C 0.14742 0.95344 0.31962
 C92 C 0.12571 0.95630 0.29438
 C93 C 0.10447 0.93033 0.29772
 H94 H 0.16765 0.96954 0.32484
 H95 H 0.08410 0.92468 0.28217
 N96 N 0.17755 0.88777 0.41490
 N97 N 0.16443 0.86124 0.42801
 C98 C 0.18188 0.85253 0.45428
 C99 C 0.20698 0.87463 0.45768
 C100 C 0.20368 0.89663 0.43250
 H101 H 0.17682 0.83170 0.46979
 H102 H 0.21921 0.91745 0.42744
 H103 H 0.11869 0.88739 0.39463
 H104 H 0.14567 0.86093 0.36933
 C105 C 0.09931 0.14992 0.12531
 C106 C 0.09970 0.12552 0.14944
 C107 C 0.12384 0.10114 0.14971
 C108 C 0.14779 0.10139 0.12545
 C109 C 0.14782 0.12559 0.10112
 C110 C 0.12348 0.14975 0.10126
 H111 H 0.08115 0.12549 0.16806
 H112 H 0.16697 0.08320 0.12600
 H113 H 0.12283 0.16797 0.08209
 C114 C 0.39937 0.85051 0.62542
 C115 C 0.39894 0.87480 0.64957
 C116 C 0.37471 0.89908 0.64996
 C117 C 0.35069 0.89885 0.62579
 C118 C 0.35070 0.87476 0.60144
 C119 C 0.37514 0.85070 0.60146
 H120 H 0.41754 0.87481 0.66813
 H121 H 0.33193 0.91749 0.62594
 H122 H 0.37531 0.83205 0.58276
 C123 C 0.90030 0.64931 0.37460
 C124 C 0.87605 0.64914 0.39856
 C125 C 0.85158 0.62506 0.39861
 C126 C 0.85158 0.60094 0.37428
 C127 C 0.87562 0.60070 0.35011
 C128 C 0.89988 0.62499 0.35048
 H129 H 0.87670 0.66728 0.41773
 H130 H 0.83279 0.58230 0.37417
 H131 H 0.91799 0.62547 0.33143
 C132 C 0.60065 0.35116 -0.12585
 C133 C 0.60100 0.37557 -0.14998
 C134 C 0.62517 0.39995 -0.15035
 C135 C 0.64918 0.39972 -0.12617
 C136 C 0.64925 0.37553 -0.10184
 C137 C 0.62488 0.35135 -0.10189
 H138 H 0.58240 0.37558 -0.16854
 H139 H 0.66838 0.41792 -0.12680
 H140 H 0.62426 0.33314 -0.08272
 C141 C 0.02487 0.22396 0.12470
 C142 C 0.05709 0.23250 0.11794
 C143 C 0.08131 0.20844 0.11812
 C144 C -0.02095 0.26946 0.12431
 C145 C 0.04111 0.16716 0.13187
 C146 C 0.01693 0.19126 0.13165
 C147 C -0.00005 0.24873 0.12449
 C148 C 0.07359 0.17549 0.12511
 H149 H 0.06352 0.25776 0.11261
 H150 H 0.10615 0.21567 0.11321
 H151 H 0.03433 0.14195 0.13690
 H152 H -0.00797 0.18436 0.13682
 C153 C 0.47397 0.77664 0.62487
 C154 C 0.46421 0.79145 0.59583
 C155 C 0.43993 0.81544 0.59597
 C156 C 0.51999 0.73135 0.62459
 C157 C 0.43509 0.80992 0.65430
 C158 C 0.45936 0.78591 0.65409
 C159 C 0.49900 0.75199 0.62471
 C160 C 0.42510 0.82497 0.62522
 H161 H 0.47543 0.78452 0.57308
 H162 H 0.43306 0.82687 0.57326
 H163 H 0.42385 0.81642 0.67714
 H164 H 0.46667 0.77455 0.67670
 C165 C 0.97492 0.72329 0.37511
 C166 C 0.94274 0.73182 0.38202
 C167 C 0.91846 0.70779 0.38187
 C168 C 1.02083 0.76877 0.37543
 C169 C 0.95851 0.66656 0.36785
 C170 C 0.98275 0.69063 0.36804
 C171 C 0.99990 0.74805 0.37529
 C172 C 0.92608 0.67487 0.37477
 H173 H 0.93640 0.75705 0.38745
 H174 H 0.89366 0.71502 0.38689
 H175 H 0.96520 0.64137 0.36270
 H176 H 1.00761 0.68375 0.36274
 C177 C 0.52619 0.27702 -0.12494
 C178 C 0.51824 0.30971 -0.13188
 C179 C 0.54242 0.33384 -0.13221
 C180 C 0.48042 0.23141 -0.12427
 C181 C 0.58267 0.29262 -0.11861
 C182 C 0.55844 0.26853 -0.11832
 C183 C 0.50128 0.25220 -0.12458
 C184 C 0.57492 0.32556 -0.12556
 H185 H 0.49333 0.31656 -0.13694
 H186 H 0.53564 0.35904 -0.13722
 H187 H 0.60751 0.28542 -0.11379
 H188 H 0.56488 0.24328 -0.11300
 C189 C 0.12473 0.02688 0.22399
 C190 C 0.13131 0.01845 0.19177
 C191 C 0.13103 0.04258 0.16761
 C192 C 0.12535 -0.01884 0.26963
 C193 C 0.11754 0.08372 0.20785
 C194 C 0.11786 0.05955 0.23197
 C195 C 0.12506 0.00201 0.24884
 C196 C 0.12413 0.07550 0.17538
 H197 H 0.13658 -0.00679 0.18532
 H198 H 0.13580 0.03543 0.14279
 H199 H 0.11258 0.10891 0.21465
 H200 H 0.11283 0.06636 0.25686
 C201 C 0.62598 0.47417 -0.22468
 C202 C 0.61904 0.44149 -0.23261
 C203 C 0.61875 0.41733 -0.20847
 C204 C 0.62654 0.51984 -0.27037
 C205 C 0.63239 0.45851 -0.16831
 C206 C 0.63264 0.48262 -0.19249
 C207 C 0.62627 0.49901 -0.24954
 C208 C 0.62543 0.42558 -0.17603
 H209 H 0.61394 0.43466 -0.25747
 H210 H 0.61374 0.39214 -0.21524
 H211 H 0.63723 0.46567 -0.14351
 H212 H 0.63796 0.50786 -0.18607
 C213 C 0.37412 0.97304 0.72427
 C214 C 0.34503 0.95820 0.71459
 C215 C 0.34519 0.93417 0.69041
 C216 C 0.37381 1.01842 0.77008
 C217 C 0.40361 0.93972 0.68551
 C218 C 0.40339 0.96376 0.70968
 C219 C 0.37394 0.99774 0.74919
 C220 C 0.37450 0.92464 0.67561
 H221 H 0.32225 0.96514 0.72579
 H222 H 0.32246 0.92272 0.68359
 H223 H 0.42649 0.93321 0.67429
 H224 H 0.42603 0.97515 0.71694
 C225 C 0.87484 0.52676 0.27578
 C226 C 0.84577 0.54148 0.28562
 C227 C 0.84598 0.56553 0.30978
 C228 C 0.87432 0.48119 0.23015
 C229 C 0.90444 0.56025 0.31431
 C230 C 0.90416 0.53619 0.29016
 C231 C 0.87457 0.50197 0.25094
 C232 C 0.87534 0.57518 0.32441
 H233 H 0.82294 0.53443 0.27458
 H234 H 0.82325 0.57688 0.31673
 H235 H 0.92736 0.56688 0.32539
 H236 H 0.92679 0.52489 0.28278
 C237 C 0.22151 0.12562 0.02721
 C238 C 0.20745 0.09600 0.03732
 C239 C 0.18349 0.09596 0.06134
 C240 C 0.26692 0.12559 -0.01814
 C241 C 0.18752 0.15526 0.06521
 C242 C 0.21149 0.15523 0.04120
 C243 C 0.24621 0.12561 0.00252
 C244 C 0.17325 0.12560 0.07557
 H245 H 0.21497 0.07294 0.02659
 H246 H 0.17268 0.07279 0.06850
 H247 H 0.18044 0.17842 0.07599
 H248 H 0.22228 0.17829 0.03361
 C249 C 0.77794 0.62499 0.47256
 C250 C 0.78792 0.65460 0.45842
 C251 C 0.81187 0.65465 0.43439
 C252 C 0.73263 0.62496 0.51801
 C253 C 0.81596 0.59537 0.43855
 C254 C 0.79201 0.59539 0.46259
 C255 C 0.75328 0.62496 0.49729
 C256 C 0.82616 0.62502 0.42416
 H257 H 0.77713 0.67765 0.46590
 H258 H 0.81894 0.67781 0.42350
 H259 H 0.82679 0.57222 0.43151
 H260 H 0.78454 0.57233 0.47345
 C261 C 0.72305 0.37546 -0.02812
 C262 C 0.71298 0.34586 -0.04212
 C263 C 0.68899 0.34585 -0.06608
 C264 C 0.76837 0.37538 0.01727
 C265 C 0.68506 0.40514 -0.06217
 C266 C 0.70904 0.40509 -0.03819
 C267 C 0.74771 0.37543 -0.00342
 C268 C 0.67475 0.37551 -0.07639
 H269 H 0.72372 0.32279 -0.03456
 H270 H 0.68186 0.32269 -0.07685
 H271 H 0.67428 0.42831 -0.06930
 H272 H 0.71660 0.42813 -0.02745
 C273 C 0.27691 0.87472 0.52773
 C274 C 0.28675 0.84514 0.54200
 C275 C 0.31075 0.84512 0.56596
 C276 C 0.23157 0.87467 0.48234
 C277 C 0.31512 0.90436 0.56150
 C278 C 0.29114 0.90431 0.53752
 C279 C 0.25223 0.87469 0.50304
 C280 C 0.32520 0.87475 0.57599
 H281 H 0.27583 0.82209 0.53465
 H282 H 0.31770 0.82199 0.57695
 H283 H 0.32608 0.92751 0.56841
 H284 H 0.28376 0.92734 0.52657
   
