data_POSCAR
  _audit_creation_date              2014-09-24
  _audit_creation_method            'ToBaCCo'
  _symmetry_space_group_name_H-M    'P1'
  _symmetry_Int_Tables_number       1
  _symmetry_cell_setting            triclinic
  loop_
  _symmetry_equiv_pos_as_xyz
 x,y,z
_cell_length_a 34.9580
_cell_length_b 35.9724
_cell_length_c 33.7820
_cell_angle_alpha 91.186500
_cell_angle_beta 87.963400
_cell_angle_gamma 91.801400
loop_
  _atom_site_label
  _atom_site_type_symbol
  _atom_site_fract_x
  _atom_site_fract_y
  _atom_site_fract_z
N1 N 0.15893 0.19178 0.26225
 N2 N 0.19201 0.17669 0.26794
 C3 C 0.18783 0.15218 0.29743
 C4 C 0.15013 0.15218 0.31070
 C5 C 0.13242 0.17741 0.28793
 H6 H 0.20985 0.13403 0.30657
 H7 H 0.10222 0.18323 0.28839
 Cu8 Cu 0.23555 0.18543 0.23215
 Cu9 Cu 0.15182 0.22557 0.21916
 Cu10 Cu 0.22385 0.22908 0.14633
 N11 N 0.27106 0.17972 0.18752
 N12 N 0.26583 0.19567 0.15351
 C13 C 0.29122 0.18248 0.12619
 C14 C 0.31334 0.15725 0.14445
 C15 C 0.29994 0.15601 0.18318
 H16 H 0.29196 0.18908 0.09506
 H17 H 0.30855 0.13735 0.20572
 N18 N 0.17785 0.25931 0.14522
 N19 N 0.15040 0.25776 0.17310
 C20 C 0.12305 0.28146 0.16452
 C21 C 0.13386 0.29851 0.12969
 C22 C 0.16865 0.28413 0.11805
 H23 H 0.09732 0.28625 0.18239
 H24 H 0.18596 0.29135 0.09200
 H25 H 0.18956 0.19630 0.18232
 H26 H 0.20895 0.24073 0.20497
 N27 N -0.18035 0.80880 0.27323
 N28 N -0.20334 0.83647 0.26858
 C29 C -0.20073 0.86029 0.29960
 C30 C -0.17476 0.84681 0.32489
 C31 C -0.16211 0.81423 0.30741
 H32 H -0.21397 0.88705 0.30189
 H33 H -0.13904 0.79763 0.31703
 Cu34 Cu -0.22869 0.84305 0.21953
 Cu35 Cu -0.17125 0.77164 0.23155
 Cu36 Cu -0.22504 0.77708 0.14751
 N37 N -0.26322 0.84207 0.17627
 N38 N -0.26159 0.81684 0.14757
 C39 C -0.28754 0.82447 0.12050
 C40 C -0.30613 0.85594 0.13357
 C41 C -0.29023 0.86644 0.16879
 H42 H -0.29197 0.80882 0.09328
 H43 H -0.29720 0.89048 0.18710
 N44 N -0.18646 0.73909 0.15392
 N45 N -0.16629 0.73684 0.18611
 C46 C -0.14113 0.70947 0.18078
 C47 C -0.14587 0.69396 0.14367
 C48 C -0.17463 0.71317 0.12726
 H49 H -0.12000 0.70219 0.20168
 H50 H -0.18521 0.70932 0.09772
 H51 H -0.18473 0.80250 0.18302
 H52 H -0.22521 0.77634 0.20855
 N53 N -0.19282 0.21199 -0.30624
 N54 N -0.22441 0.19131 -0.30840
 C55 C -0.21902 0.16407 -0.33575
 C56 C -0.18238 0.16845 -0.35172
 C57 C -0.16652 0.19909 -0.33263
 H58 H -0.23891 0.14102 -0.34102
 H59 H -0.13707 0.20922 -0.33534
 Cu60 Cu -0.26586 0.19655 -0.26931
 Cu61 Cu -0.18673 0.25143 -0.26656
 Cu62 Cu -0.25475 0.25133 -0.18912
 N63 N -0.29696 0.18864 -0.22155
 N64 N -0.29135 0.20884 -0.18922
 C65 C -0.31428 0.19528 -0.15959
 C66 C -0.33515 0.16523 -0.17463
 C67 C -0.32360 0.16172 -0.21386
 H68 H -0.31500 0.20589 -0.12936
 H69 H -0.33281 0.14046 -0.23487
 N70 N -0.20940 0.28583 -0.19094
 N71 N -0.18396 0.28607 -0.22086
 C72 C -0.15680 0.31251 -0.21404
 C73 C -0.16514 0.32919 -0.17792
 C74 C -0.19855 0.31179 -0.16384
 H75 H -0.13226 0.31867 -0.23346
 H76 H -0.21340 0.31714 -0.13577
 H77 H -0.21808 0.22143 -0.22498
 H78 H -0.24281 0.25938 -0.24952
 N79 N 0.15953 0.80907 -0.26508
 N80 N 0.17662 0.84027 -0.25344
 C81 C 0.16115 0.86898 -0.27115
 C82 C 0.13300 0.85488 -0.29509
 C83 C 0.13268 0.81680 -0.29107
 H84 H 0.17070 0.89776 -0.26820
 H85 H 0.11512 0.79628 -0.30646
 Cu86 Cu 0.21986 0.84057 -0.21954
 Cu87 Cu 0.17539 0.76136 -0.24661
 Cu88 Cu 0.23442 0.76586 -0.16565
 N89 N 0.26746 0.83492 -0.19344
 N90 N 0.27316 0.80642 -0.17080
 C91 C 0.30634 0.81257 -0.15212
 C92 C 0.32206 0.84634 -0.16465
 C93 C 0.29674 0.85977 -0.19060
 H94 H 0.31710 0.79483 -0.12983
 H95 H 0.29826 0.88670 -0.20436
 N96 N 0.20155 0.72175 -0.17866
 N97 N 0.18075 0.71971 -0.21060
 C98 C 0.15855 0.68851 -0.20954
 C99 C 0.16560 0.67009 -0.17542
 C100 C 0.19292 0.69177 -0.15634
 H101 H 0.13612 0.68172 -0.22998
 H102 H 0.20340 0.68756 -0.12707
 H103 H 0.18614 0.78604 -0.19267
 H104 H 0.22939 0.77352 -0.22346
 N105 N 0.20595 1.17306 0.73516
 N106 N 0.18479 1.20247 0.73256
 C107 C 0.15987 1.19674 0.70334
 C108 C 0.16591 1.16198 0.68668
 C109 C 0.19523 1.14761 0.70751
 H110 H 0.13820 1.21591 0.69562
 H111 H 0.20697 1.12026 0.70367
 Cu112 Cu 0.19024 1.24443 0.76928
 Cu113 Cu 0.24401 1.16929 0.77609
 Cu114 Cu 0.24408 1.23856 0.84919
 N115 N 0.18499 1.27921 0.81376
 N116 N 0.20616 1.27697 0.84501
 C117 C 0.19535 1.30302 0.87206
 C118 C 0.16600 1.32243 0.85675
 C119 C 0.15995 1.30663 0.81986
 H120 H 0.20698 1.30667 0.90117
 H121 H 0.13812 1.31367 0.79961
 N122 N 0.28013 1.19725 0.84794
 N123 N 0.28012 1.17085 0.82011
 C124 C 0.30688 1.14612 0.82813
 C125 C 0.32443 1.15762 0.86244
 C126 C 0.30686 1.18998 0.87433
 H127 H 0.31263 1.12112 0.81090
 H128 H 0.31256 1.20643 0.90074
 H129 H 0.21213 1.20042 0.81645
 H130 H 0.25278 1.22511 0.78969
 N131 N 0.81534 0.82804 0.73954
 N132 N 0.84054 0.80165 0.73923
 C133 C 0.86709 0.80816 0.70996
 C134 C 0.85766 0.84010 0.69104
 C135 C 0.82482 0.85208 0.71049
 H136 H 0.89189 0.79157 0.70353
 H137 H 0.80967 0.87705 0.70468
 Cu138 Cu 0.83730 0.76248 0.77854
 Cu139 Cu 0.77336 0.83067 0.77899
 Cu140 Cu 0.76805 0.76299 0.85064
 N141 N 0.83426 0.72519 0.81981
 N142 N 0.80721 0.72553 0.84789
 C143 C 0.81276 0.69790 0.87325
 C144 C 0.84493 0.67937 0.86026
 C145 C 0.85803 0.69734 0.82647
 H146 H 0.79545 0.69243 0.89978
 H147 H 0.88355 0.69122 0.80883
 N148 N 0.73093 0.80303 0.84867
 N149 N 0.73293 0.82875 0.82126
 C150 C 0.70470 0.85289 0.82863
 C151 C 0.68411 0.84170 0.86206
 C152 C 0.70139 0.81017 0.87421
 H153 H 0.70009 0.87745 0.81173
 H154 H 0.69366 0.79434 0.90031
 H155 H 0.80130 0.80415 0.82282
 H156 H 0.76951 0.77465 0.79090
 N157 N 0.20340 0.80655 1.28746
 N158 N 0.17663 0.78005 1.28575
 C159 C 0.14858 0.78751 1.31305
 C160 C 0.15862 0.82023 1.33279
 C161 C 0.19339 0.83159 1.31585
 H162 H 0.12224 0.77128 1.31723
 H163 H 0.20933 0.85708 1.32247
 Cu164 Cu 0.18025 0.73996 1.24592
 Cu165 Cu 0.24729 0.80918 1.25001
 Cu166 Cu 0.25175 0.74010 1.17746
 N167 N 0.18532 0.69942 1.20668
 N168 N 0.21422 0.69931 1.18064
 C169 C 0.20938 0.67074 1.15478
 C170 C 0.17575 0.65197 1.16515
 C171 C 0.16097 0.67080 1.19804
 H172 H 0.22729 0.66577 1.12855
 H173 H 0.13334 0.66560 1.21265
 N174 N 0.29090 0.78022 1.18149
 N175 N 0.28914 0.80678 1.20905
 C176 C 0.31726 0.83241 1.20136
 C177 C 0.33754 0.82115 1.16767
 C178 C 0.32019 0.78815 1.15575
 H179 H 0.32116 0.85850 1.21741
 H180 H 0.32688 0.77251 1.12884
 H181 H 0.21999 0.78209 1.20493
 H182 H 0.24868 0.75302 1.23723
 N183 N 0.81606 1.16825 1.28233
 N184 N 0.84164 1.19595 1.28092
 C185 C 0.86993 1.18898 1.30570
 C186 C 0.86147 1.15531 1.32347
 C187 C 0.82724 1.14287 1.30800
 H188 H 0.89499 1.20674 1.31021
 H189 H 0.81190 1.11702 1.31455
 Cu190 Cu 0.83563 1.23803 1.24608
 Cu191 Cu 0.77064 1.16629 1.24984
 Cu192 Cu 0.76003 1.24075 1.18876
 N193 N 0.82744 1.28078 1.21260
 N194 N 0.79664 1.28204 1.19142
 C195 C 0.79910 1.31215 1.16846
 C196 C 0.83318 1.33076 1.17548
 C197 C 0.85072 1.31022 1.20346
 H198 H 0.77924 1.31836 1.14585
 H199 H 0.87931 1.31497 1.21414
 N200 N 0.72248 1.19942 1.19199
 N201 N 0.72682 1.17027 1.21439
 C202 C 0.69892 1.14467 1.20638
 C203 C 0.67618 1.15884 1.17799
 C204 C 0.69180 1.19335 1.16953
 H205 H 0.69651 1.11712 1.21861
 H206 H 0.68280 1.21156 1.14680
 H207 H 0.79469 1.19750 1.20581
 H208 H 0.76746 1.22256 1.24613
 O209 O 0.52202 0.95400 0.94456
 O210 O 0.46090 0.96645 1.08102
 O211 O 0.57841 0.99051 1.03792
 O212 O 0.45230 0.95278 0.95714
 O213 O 0.53335 0.96261 1.07522
 O214 O 0.47173 0.98284 0.90463
 O215 O 0.44939 0.94003 1.02562
 O216 O 0.57359 0.98187 0.96630
 C217 C 0.55734 0.95410 0.94966
 C218 C 0.44868 0.93897 1.06209
 C219 C 0.56734 0.96530 1.06189
 C220 C 0.44796 0.95870 0.92080
 O221 O 0.47803 1.04434 0.94388
 O222 O 0.53862 1.03303 1.08391
 O223 O 0.54830 1.05438 0.96340
 O224 O 0.42265 1.01005 1.04320
 O225 O 0.46709 1.03805 1.07865
 O226 O 0.53890 1.01753 0.91602
 O227 O 0.42690 1.02277 0.97256
 O228 O 0.55317 1.06183 1.03108
 Co229 Co 0.49868 0.99883 0.94690
 Co230 Co 0.49998 1.00030 1.07258
 Co231 Co 0.55870 1.02055 0.99997
 Co232 Co 0.44313 0.98329 1.00025
 O233 O 0.50168 1.00221 1.00714
 C234 C 0.44346 1.04732 0.95213
 C235 C 0.55379 1.06030 1.06740
 C236 C 0.55418 1.04695 0.92791
 C237 C 0.43339 1.03555 1.06722
 O238 O 0.03318 0.46226 0.06800
 O239 O 0.01833 0.52695 -0.10292
 O240 O 0.01495 0.42677 -0.04126
 O241 O 0.06223 0.54439 0.01783
 O242 O 0.04567 0.47638 -0.06290
 O243 O 0.03397 0.53266 0.07336
 O244 O 0.04963 0.54357 -0.05080
 O245 O 0.00320 0.42074 0.03023
 C246 C 0.02866 0.42955 0.05487
 C247 C 0.04379 0.54894 -0.08696
 C248 C 0.04438 0.44198 -0.05773
 C249 C 0.06272 0.54434 0.05434
 O250 O -0.03991 0.53155 0.07129
 O251 O -0.01927 0.46271 -0.09200
 O252 O -0.06824 0.44869 0.02262
 O253 O -0.02129 0.57082 -0.03453
 O254 O -0.04541 0.52250 -0.06330
 O255 O -0.03965 0.46175 0.07587
 O256 O -0.00805 0.57355 0.03586
 O257 O -0.05836 0.45464 -0.04492
 Co258 Co -0.00323 0.49719 0.06503
 Co259 Co 0.00047 0.50059 -0.06058
 Co260 Co -0.02526 0.44220 -0.00804
 Co261 Co 0.01843 0.55294 -0.00734
 O262 O -0.00394 0.49675 -0.00036
 C263 C -0.03480 0.56442 0.06035
 C264 C -0.05001 0.44829 -0.08014
 C265 C -0.06772 0.44810 0.05904
 C266 C -0.04710 0.55608 -0.05470
 O267 O 1.07696 0.03544 0.46939
 O268 O 0.91745 0.01428 0.54070
 O269 O 0.97446 0.02155 0.42602
 O270 O 1.02794 0.06016 0.55732
 O271 O 0.94628 0.04237 0.47859
 O272 O 1.07956 0.03215 0.54379
 O273 O 0.96254 0.05209 0.55126
 O274 O 1.04276 0.00803 0.42305
 C275 C 1.06701 0.03266 0.43420
 C276 C 0.92805 0.04411 0.55596
 C277 C 0.95454 0.04576 0.44287
 C278 C 1.06303 0.05921 0.55890
 O279 O 1.07073 -0.03877 0.53997
 O280 O 0.90761 -0.01856 0.47245
 O281 O 1.02391 -0.06168 0.45036
 O282 O 0.96504 -0.02055 0.57812
 O283 O 0.94558 -0.04851 0.52435
 O284 O 1.07787 -0.03651 0.46503
 O285 O 1.03393 -0.01066 0.58496
 O286 O 0.95765 -0.04877 0.45179
 Co287 Co 1.06943 -0.00165 0.50438
 Co288 Co 0.94847 -0.00336 0.50023
 Co289 Co 1.00021 -0.01828 0.44348
 Co290 Co 0.99777 0.01863 0.56303
 O291 O 1.00627 0.00023 0.50434
 C292 C 1.05728 -0.03567 0.57474
 C293 C 0.92256 -0.04247 0.44781
 C294 C 1.05914 -0.06310 0.45046
 C295 C 0.94948 -0.04851 0.56109
 C296 C 1.13270 0.12763 0.33587
 C297 C 1.11725 0.10546 0.35780
 C298 C 1.09936 0.07948 0.38349
 C299 C 1.08434 0.05766 0.40607
 C300 C 0.84384 -0.13162 0.35502
 C301 C 0.86033 -0.11191 0.37840
 C302 C 0.88071 -0.08776 0.40381
 C303 C 0.89920 -0.06688 0.42434
 C304 C 0.83854 0.14117 0.62587
 C305 C 0.85742 0.11818 0.60866
 C306 C 0.88088 0.09164 0.58981
 C307 C 0.90191 0.06950 0.57422
 C308 C 1.11250 -0.12413 0.67768
 C309 C 1.09724 -0.10492 0.65467
 C310 C 1.08156 -0.08121 0.62748
 C311 C 1.06976 -0.06042 0.60373
 C312 C 0.33802 1.13321 1.12676
 C313 C 0.35952 1.11097 1.11204
 C314 C 0.38459 1.08437 1.09583
 C315 C 0.40643 1.06173 1.08257
 C316 C 0.35136 0.86673 0.85109
 C317 C 0.37581 0.88696 0.86488
 C318 C 0.40256 0.91218 0.88183
 C319 C 0.42402 0.93390 0.89812
 C320 C 0.66734 0.87518 1.11498
 C321 C 0.64409 0.89420 1.10054
 C322 C 0.61724 0.91821 1.08588
 C323 C 0.59444 0.93957 1.07460
 C324 C 0.64082 1.14132 0.84559
 C325 C 0.61993 1.11943 0.86307
 C326 C 0.59608 1.09353 0.88390
 C327 C 0.57642 1.07175 0.90288
 C328 C 0.11312 0.32639 0.11070
 C329 C 0.09464 0.34992 0.09627
 C330 C 0.07212 0.37756 0.08091
 C331 C 0.05239 0.40128 0.06872
 C332 C -0.14140 0.35648 -0.15798
 C333 C -0.12043 0.37872 -0.14166
 C334 C -0.09535 0.40402 -0.12216
 C335 C -0.07420 0.42487 -0.10420
 C336 C 0.14129 0.64118 -0.15852
 C337 C 0.11930 0.61827 -0.14425
 C338 C 0.09260 0.59285 -0.12660
 C339 C 0.06984 0.57222 -0.10984
 C340 C -0.12285 0.66604 0.12479
 C341 C -0.10294 0.64282 0.10937
 C342 C -0.07920 0.61573 0.09184
 C343 C -0.05883 0.59245 0.07727
 C344 C 1.14358 0.14305 0.65683
 C345 C 1.12464 0.12642 0.63254
 C346 C 1.10252 0.10544 0.60511
 C347 C 1.08407 0.08566 0.58301
 C348 C 0.87935 -0.14051 0.66031
 C349 C 0.89684 -0.12261 0.63534
 C350 C 0.91644 -0.09946 0.60735
 C351 C 0.93221 -0.07756 0.58503
 C352 C 1.13559 -0.15867 0.36093
 C353 C 1.11696 -0.13938 0.38359
 C354 C 1.09590 -0.11487 0.40881
 C355 C 1.07866 -0.09226 0.42886
 C356 C 0.88420 0.13593 0.35090
 C357 C 0.90242 0.11835 0.37346
 C358 C 0.92254 0.09577 0.39917
 C359 C 0.93824 0.07438 0.42002
 C360 C 0.14317 0.35020 -0.12329
 C361 C 0.12284 0.37281 -0.10705
 C362 C 0.09744 0.39832 -0.08874
 C363 C 0.07420 0.41901 -0.07397
 C364 C -0.14949 0.35924 0.15098
 C365 C -0.13443 0.38183 0.12914
 C366 C -0.11491 0.40676 0.10318
 C367 C -0.09538 0.42663 0.08187
 C368 C -0.13634 0.65026 -0.11993
 C369 C -0.11921 0.62662 -0.10364
 C370 C -0.09701 0.60008 -0.08525
 C371 C -0.07574 0.57888 -0.07053
 C372 C 0.15575 0.62515 0.14078
 C373 C 0.13788 0.60411 0.11966
 C374 C 0.11488 0.58122 0.09510
 C375 C 0.09270 0.56333 0.07528
 C376 C 0.35256 1.13788 0.88333
 C377 C 0.37541 1.12015 0.90053
 C378 C 0.40108 1.09748 0.91995
 C379 C 0.42154 1.07601 0.93548
 C380 C 0.36475 0.84323 1.14468
 C381 C 0.38625 0.86265 1.12483
 C382 C 0.40983 0.88695 1.10168
 C383 C 0.42850 0.90951 1.08275
 C384 C 0.64726 1.13955 1.15560
 C385 C 0.62395 1.12374 1.13527
 C386 C 0.59790 1.10439 1.11070
 C387 C 0.57688 1.08588 1.09012
 C388 C 0.65388 0.86157 0.88233
 C389 C 0.62944 0.87974 0.89890
 C390 C 0.60219 0.90310 0.91764
 C391 C 0.58055 0.92511 0.93284
   
