data_POSCAR
  _audit_creation_date              2014-09-24
  _audit_creation_method            'ToBaCCo'
  _symmetry_space_group_name_H-M    'P1'
  _symmetry_Int_Tables_number       1
  _symmetry_cell_setting            triclinic
  loop_
  _symmetry_equiv_pos_as_xyz
 x,y,z
_cell_length_a 18.4491
_cell_length_b 18.4497
_cell_length_c 34.5846
_cell_angle_alpha 90.016500
_cell_angle_beta 90.323200
_cell_angle_gamma 90.002800
loop_
  _atom_site_label
  _atom_site_type_symbol
  _atom_site_fract_x
  _atom_site_fract_y
  _atom_site_fract_z
O1 O 0.06015 0.42879 0.96320
 O2 O 0.05815 0.57067 1.03806
 O3 O 0.05933 0.42963 1.03878
 O4 O 0.05916 0.56996 0.96313
 O5 O -0.06040 0.56896 0.96233
 O6 O -0.06007 0.42744 1.03738
 O7 O -0.06140 0.56884 1.03781
 O8 O -0.05941 0.42785 0.96244
 Cu9 Cu 0.07117 0.49971 1.00087
 Cu10 Cu -0.07230 0.49827 0.99994
 C11 C 0.00069 0.40405 0.94998
 C12 C -0.00194 0.59414 1.05071
 C13 C -0.00033 0.40414 1.05103
 C14 C -0.00064 0.59371 0.94988
 O15 O 0.57295 -0.05921 0.53756
 O16 O 0.43061 -0.05966 0.46251
 O17 O 0.57171 -0.05867 0.46266
 O18 O 0.43157 -0.06053 0.53802
 O19 O 0.42973 0.05901 0.53789
 O20 O 0.57082 0.06089 0.46301
 O21 O 0.42961 0.05989 0.46291
 O22 O 0.57080 0.06018 0.53858
 Cu23 Cu 0.50168 -0.07149 0.50018
 Cu24 Cu 0.50027 0.07197 0.50063
 C25 C 0.59644 0.00053 0.55099
 C26 C 0.40576 0.00007 0.44984
 C27 C 0.59543 0.00140 0.45001
 C28 C 0.40644 -0.00106 0.55076
 C29 C -0.00165 0.00122 0.24981
 C30 C 0.00156 -0.00111 0.74983
 C31 C -0.00303 -0.23753 0.13709
 C32 C -0.06719 -0.27481 0.12753
 C33 C -0.06696 -0.32941 0.09947
 C34 C -0.00246 -0.34834 0.08055
 C35 C 0.06170 -0.31136 0.09020
 C36 C 0.06136 -0.25642 0.11799
 C37 C -0.00319 -0.17885 0.16660
 C38 C 0.05597 -0.16972 0.19185
 C39 C 0.05710 -0.11332 0.21878
 C40 C -0.00218 -0.06526 0.22229
 C41 C -0.06075 -0.07420 0.19621
 C42 C -0.06153 -0.13028 0.16908
 H43 H -0.11723 -0.35716 0.09280
 H44 H 0.11219 -0.32426 0.07593
 H45 H 0.10580 -0.10716 0.23590
 H46 H -0.10611 -0.03695 0.19679
 H47 H 0.11146 -0.22794 0.12404
 H48 H 0.10194 -0.20611 0.19072
 H49 H -0.11751 -0.26235 0.14204
 H50 H -0.10717 -0.13444 0.14940
 C51 C -0.00042 0.23944 0.13662
 C52 C -0.06546 0.26209 0.11899
 C53 C -0.06553 0.31693 0.09115
 C54 C -0.00032 0.34992 0.07959
 C55 C 0.06484 0.32698 0.09712
 C56 C 0.06467 0.27294 0.12545
 C57 C -0.00045 0.18069 0.16620
 C58 C 0.05699 0.13090 0.16845
 C59 C 0.05641 0.07524 0.19578
 C60 C -0.00139 0.06733 0.22207
 C61 C -0.05997 0.11635 0.21874
 C62 C -0.05874 0.17276 0.19182
 H63 H -0.11687 0.33252 0.07826
 H64 H 0.11620 0.35120 0.08931
 H65 H 0.10129 0.03740 0.19630
 H66 H -0.10811 0.11115 0.23610
 H67 H 0.11566 0.25797 0.13886
 H68 H 0.10190 0.13378 0.14851
 H69 H -0.11649 0.23661 0.12615
 H70 H -0.10397 0.21009 0.19106
 C71 C 0.23939 -0.00222 0.63732
 C72 C 0.27651 -0.06636 0.62787
 C73 C 0.33070 -0.06610 0.59976
 C74 C 0.34936 -0.00158 0.58066
 C75 C 0.31258 0.06259 0.59021
 C76 C 0.25805 0.06221 0.61806
 C77 C 0.18103 -0.00247 0.66684
 C78 C 0.17215 0.05660 0.69197
 C79 C 0.11598 0.05766 0.71886
 C80 C 0.06791 -0.00162 0.72244
 C81 C 0.07665 -0.06013 0.69650
 C82 C 0.13249 -0.06082 0.66941
 H83 H 0.35832 -0.11636 0.59318
 H84 H 0.32529 0.11309 0.57581
 H85 H 0.10998 0.10628 0.73590
 H86 H 0.03939 -0.10548 0.69714
 H87 H 0.22968 0.11231 0.62403
 H88 H 0.20853 0.10258 0.69076
 H89 H 0.26424 -0.11671 0.64251
 H90 H 0.13646 -0.10640 0.64982
 C91 C -0.23761 0.00037 0.63642
 C92 C -0.26051 -0.06464 0.61897
 C93 C -0.31577 -0.06469 0.59120
 C94 C -0.34891 0.00054 0.57950
 C95 C -0.32569 0.06568 0.59683
 C96 C -0.27124 0.06547 0.62511
 C97 C -0.17853 0.00025 0.66600
 C98 C -0.12869 0.05766 0.66815
 C99 C -0.07278 0.05701 0.69552
 C100 C -0.06470 -0.00083 0.72196
 C101 C -0.11374 -0.05941 0.71871
 C102 C -0.17038 -0.05810 0.69175
 H103 H -0.33154 -0.11601 0.57846
 H104 H -0.35001 0.11705 0.58890
 H105 H -0.03492 0.10187 0.69597
 H106 H -0.10839 -0.10760 0.73616
 H107 H -0.25606 0.11645 0.63837
 H108 H -0.13174 0.10261 0.64811
 H109 H -0.23496 -0.11569 0.62624
 H110 H -0.20773 -0.10332 0.69108
 C111 C -0.00015 -0.23883 0.86309
 C112 C 0.06411 -0.25813 0.88259
 C113 C 0.06397 -0.31281 0.91051
 C114 C -0.00053 -0.34911 0.91988
 C115 C -0.06484 -0.32985 0.90049
 C116 C -0.06460 -0.27552 0.87232
 C117 C 0.00003 -0.18024 0.83354
 C118 C -0.05801 -0.13131 0.83079
 C119 C -0.05717 -0.07551 0.80354
 C120 C 0.00114 -0.06719 0.77759
 C121 C 0.06025 -0.11547 0.78145
 C122 C 0.05907 -0.17161 0.80852
 H123 H 0.11433 -0.32602 0.92512
 H124 H -0.11536 -0.35710 0.90691
 H125 H -0.10235 -0.03805 0.80273
 H126 H 0.10880 -0.10972 0.76446
 H127 H -0.11482 -0.26278 0.85747
 H128 H -0.10351 -0.13503 0.85031
 H129 H 0.11444 -0.23013 0.87676
 H130 H 0.10485 -0.20825 0.80991
 C131 C 0.00203 0.23703 0.86288
 C132 C 0.06624 0.27386 0.87285
 C133 C 0.06591 0.32798 0.90116
 C134 C 0.00127 0.34691 0.91993
 C135 C -0.06297 0.31045 0.90985
 C136 C -0.06254 0.25597 0.88180
 C137 C 0.00241 0.17863 0.83321
 C138 C -0.05639 0.16986 0.80768
 C139 C -0.05727 0.11362 0.78063
 C140 C 0.00188 0.06534 0.77735
 C141 C 0.06015 0.07406 0.80364
 C142 C 0.06067 0.12994 0.83086
 H143 H 0.11623 0.35537 0.90813
 H144 H -0.11358 0.32341 0.92398
 H145 H -0.10565 0.10775 0.76322
 H146 H 0.10545 0.03674 0.80317
 H147 H -0.11270 0.22784 0.87542
 H148 H -0.10226 0.20639 0.80868
 H149 H 0.11670 0.26140 0.85847
 H150 H 0.10604 0.13383 0.85074
 C151 C -0.23821 0.00237 0.36309
 C152 C -0.27496 0.06662 0.37274
 C153 C -0.32888 0.06643 0.40100
 C154 C -0.34765 0.00188 0.42003
 C155 C -0.31123 -0.06239 0.41028
 C156 C -0.25696 -0.06209 0.38229
 C157 C -0.18015 0.00256 0.33340
 C158 C -0.17169 -0.05642 0.30817
 C159 C -0.11583 -0.05748 0.28108
 C160 C -0.06768 0.00171 0.27742
 C161 C -0.07596 0.06008 0.30350
 C162 C -0.13147 0.06077 0.33077
 H163 H -0.35623 0.11677 0.40773
 H164 H -0.32406 -0.11293 0.42462
 H165 H -0.11013 -0.10605 0.26398
 H166 H -0.03860 0.10535 0.30282
 H167 H -0.22886 -0.11227 0.37616
 H168 H -0.20818 -0.10231 0.30942
 H169 H -0.26263 0.11700 0.35815
 H170 H -0.13508 0.10626 0.35045
 C171 C 0.23765 0.00020 0.36286
 C172 C 0.27442 -0.06420 0.37240
 C173 C 0.32896 -0.06431 0.40063
 C174 C 0.34836 0.00008 0.41977
 C175 C 0.31202 0.06455 0.41008
 C176 C 0.25712 0.06455 0.38209
 C177 C 0.17872 0.00018 0.33332
 C178 C 0.16977 0.05905 0.30802
 C179 C 0.11325 0.06006 0.28097
 C180 C 0.06485 0.00098 0.27749
 C181 C 0.07363 -0.05725 0.30363
 C182 C 0.12980 -0.05790 0.33084
 H183 H 0.35624 -0.11479 0.40729
 H184 H 0.32535 0.11497 0.42449
 H185 H 0.10732 0.10843 0.26370
 H186 H 0.03620 -0.10247 0.30302
 H187 H 0.22908 0.11485 0.37602
 H188 H 0.20644 0.10483 0.30917
 H189 H 0.26156 -0.11449 0.35776
 H190 H 0.13380 -0.10330 0.35056
   
