data_POSCAR
  _audit_creation_date              2014-09-24
  _audit_creation_method            'ToBaCCo'
  _symmetry_space_group_name_H-M    'P1'
  _symmetry_Int_Tables_number       1
  _symmetry_cell_setting            triclinic
  loop_
  _symmetry_equiv_pos_as_xyz
 x,y,z
_cell_length_a 38.8414
_cell_length_b 37.0076
_cell_length_c 38.2530
_cell_angle_alpha 88.685400
_cell_angle_beta 89.328500
_cell_angle_gamma 90.045700
loop_
  _atom_site_label
  _atom_site_type_symbol
  _atom_site_fract_x
  _atom_site_fract_y
  _atom_site_fract_z
C1 C 0.20990 1.24540 0.19090
 C2 C 0.23619 1.21957 0.18849
 C3 C 0.23618 1.18989 0.21116
 C4 C 0.21030 1.18598 0.23682
 C5 C 0.18474 1.21158 0.23941
 C6 C 0.18449 1.24155 0.21623
 C7 C 0.20135 1.27478 0.17015
 N8 N 0.17116 1.28918 0.18206
 C9 C 0.16106 1.26886 0.21063
 C10 C 0.16203 1.19954 0.26499
 N11 N 0.17302 1.16698 0.27830
 C12 C 0.20280 1.15883 0.26080
 C13 C 0.26248 1.16757 0.20080
 N14 N 0.27864 1.18312 0.17261
 C15 C 0.26285 1.21499 0.16491
 H16 H 0.21629 1.28431 0.14778
 H17 H 0.13726 1.27180 0.22521
 H18 H 0.13868 1.21353 0.27208
 H19 H 0.21822 1.13481 0.26439
 H20 H 0.26889 1.14148 0.21234
 H21 H 0.26927 1.23262 0.14281
 C22 C 0.79316 0.76615 0.18533
 C23 C 0.76596 0.79092 0.18353
 C24 C 0.76088 0.81510 0.21006
 C25 C 0.78310 0.81491 0.23871
 C26 C 0.80956 0.79016 0.24074
 C27 C 0.81444 0.76523 0.21399
 C28 C 0.80554 0.74141 0.16213
 N29 N 0.83367 0.72480 0.17610
 C30 C 0.83903 0.73917 0.20809
 C31 C 0.82870 0.79844 0.26949
 N32 N 0.81490 0.82809 0.28510
 C33 C 0.78656 0.83780 0.26624
 C34 C 0.73364 0.83686 0.20058
 N35 N 0.72194 0.82631 0.16901
 C36 C 0.74179 0.79827 0.15840
 H37 H 0.79431 0.73571 0.13709
 H38 H 0.86031 0.73272 0.22515
 H39 H 0.85224 0.78480 0.27664
 H40 H 0.76988 0.86055 0.27090
 H41 H 0.72309 0.85864 0.21576
 H42 H 0.73944 0.78467 0.13380
 C43 C 0.79750 1.23102 -0.17933
 C44 C 0.76864 1.20819 -0.17832
 C45 C 0.76464 1.18258 -0.20369
 C46 C 0.78944 1.17941 -0.23040
 C47 C 0.81769 1.20194 -0.23142
 C48 C 0.82169 1.22809 -0.20578
 C49 C 0.80892 1.25713 -0.15726
 N50 N 0.83962 1.27055 -0.16958
 C51 C 0.84735 1.25265 -0.19950
 C52 C 0.83833 1.19139 -0.25875
 N53 N 0.82358 1.16258 -0.27464
 C54 C 0.79336 1.15547 -0.25711
 C55 C 0.73544 1.16310 -0.19521
 N56 N 0.72157 1.17615 -0.16522
 C57 C 0.74180 1.20383 -0.15479
 H58 H 0.79516 1.26572 -0.13418
 H59 H 0.87054 1.25579 -0.21516
 H60 H 0.86268 1.20392 -0.26558
 H61 H 0.77557 1.13381 -0.26212
 H62 H 0.72528 1.14084 -0.20979
 H63 H 0.73809 1.21888 -0.13111
 C64 C 0.22410 0.76346 -0.19392
 C65 C 0.24983 0.79007 -0.19461
 C66 C 0.24883 0.81790 -0.21924
 C67 C 0.22217 0.81942 -0.24364
 C68 C 0.19684 0.79329 -0.24289
 C69 C 0.19777 0.76507 -0.21775
 C70 C 0.21703 0.73521 -0.17106
 N71 N 0.18673 0.71928 -0.18002
 C72 C 0.17507 0.73769 -0.20894
 C73 C 0.17322 0.80298 -0.26792
 N74 N 0.18346 0.83453 -0.28421
 C75 C 0.21364 0.84448 -0.26914
 C76 C 0.27521 0.84126 -0.21195
 N77 N 0.29230 0.82836 -0.18343
 C78 C 0.27687 0.79688 -0.17281
 H79 H 0.23246 0.72850 -0.14853
 H80 H 0.15146 0.73262 -0.22262
 H81 H 0.15031 0.78764 -0.27336
 H82 H 0.22812 0.86888 -0.27486
 H83 H 0.28035 0.86673 -0.22548
 H84 H 0.28421 0.78032 -0.15046
 C85 C 0.54270 1.05545 -0.01343
 H86 H 0.54111 1.06048 0.01429
 C87 C 0.56683 1.07406 -0.03440
 H88 H 0.58376 1.09343 -0.02257
 C89 C 0.52432 1.02196 -0.06189
 H90 H 0.50865 1.00074 -0.07231
 C91 C 0.54806 1.03989 -0.08377
 H92 H 0.54967 1.03291 -0.11107
 N93 N 0.52231 1.02972 -0.02734
 C94 C 0.44535 1.00946 0.05463
 H95 H 0.45016 0.98093 0.05901
 C96 C 0.41997 1.02670 0.07408
 H97 H 0.40610 1.01122 0.09404
 C98 C 0.45831 1.06388 0.02339
 H99 H 0.47291 1.07797 0.00307
 C100 C 0.43253 1.08211 0.04180
 H101 H 0.42754 1.11021 0.03525
 Zn102 Zn 0.49543 1.00057 0.00370
 N103 N 0.46410 1.02817 0.03009
 C104 C 0.52819 0.98311 0.06806
 N105 N 0.52678 0.97603 0.03335
 C106 C 0.54969 0.95330 0.01817
 C107 C 0.57492 0.93608 0.03818
 C108 C 0.55312 0.96660 0.08901
 C109 C 0.44590 0.98266 -0.04455
 C110 C 0.42415 0.96076 -0.06360
 C111 C 0.44825 0.90841 -0.03397
 C112 C 0.46991 0.93136 -0.01572
 N113 N 0.46849 0.96775 -0.02151
 H114 H 0.51055 1.00218 0.07946
 H115 H 0.54857 0.94891 -0.00966
 H116 H 0.59322 0.91844 0.02553
 H117 H 0.55382 0.97246 0.11659
 H118 H 0.44480 1.01173 -0.04803
 H119 H 0.40618 0.97315 -0.08167
 H120 H 0.44959 0.87950 -0.02915
 H121 H 0.48737 0.92011 0.00341
 C122 C 0.41274 1.06342 0.06747
 C123 C 0.57021 1.06579 -0.06993
 C124 C 0.42511 0.92314 -0.05836
 C125 C 0.57695 0.94280 0.07407
 C126 C -0.01735 0.54541 1.05474
 H127 H 0.00442 0.53254 1.06721
 C128 C -0.03610 0.57174 1.07244
 H129 H -0.02800 0.57886 1.09833
 C130 C -0.05177 0.55392 1.00460
 H131 H -0.05715 0.54747 0.97777
 C132 C -0.07205 0.57917 1.02173
 H133 H -0.09373 0.59060 1.00791
 N134 N -0.02551 0.53705 1.02143
 C135 C 0.06731 0.48116 1.01873
 H136 H 0.07769 0.49887 0.99841
 C137 C 0.08963 0.45941 1.03829
 H138 H 0.11706 0.46147 1.03332
 C139 C 0.01907 0.45635 1.04923
 H140 H -0.00857 0.45488 1.05278
 C141 C 0.04044 0.43382 1.06915
 H142 H 0.02887 0.41488 1.08781
 Zn143 Zn 0.00164 0.50474 0.99526
 N144 N 0.03271 0.47915 1.02437
 C145 C 0.04617 0.55985 0.97475
 N146 N 0.02602 0.53345 0.96171
 C147 C 0.02281 0.52939 0.92662
 C148 C 0.04109 0.55199 0.90317
 C149 C 0.06501 0.58279 0.95235
 C150 C -0.06064 0.46752 0.98076
 C151 C -0.08072 0.44108 0.96541
 C152 C -0.02962 0.41847 0.93681
 C153 C -0.01052 0.44549 0.95262
 N154 N -0.02628 0.46970 0.97369
 H155 H 0.04765 0.56297 1.00275
 H156 H 0.00595 0.50889 0.91673
 H157 H 0.03859 0.54826 0.87532
 H158 H 0.08079 0.60373 0.96332
 H159 H -0.07260 0.48586 0.99873
 H160 H -0.10812 0.44036 0.97091
 H161 H -0.01649 0.39928 0.92040
 H162 H 0.01701 0.44712 0.94823
 C163 C 0.07626 0.43481 1.06350
 C164 C -0.06413 0.58909 1.05605
 C165 C -0.06528 0.41607 0.94305
 C166 C 0.06273 0.57893 0.91604
 C167 C 1.04118 -0.01691 0.55225
 H168 H 1.04174 0.01232 0.55221
 C169 C 1.06082 -0.03670 0.57631
 H170 H 1.07638 -0.02244 0.59482
 C171 C 1.01873 -0.07086 0.52929
 H172 H 1.00178 -0.08413 0.51146
 C173 C 1.03790 -0.09169 0.55289
 H174 H 1.03603 -0.12086 0.55235
 N175 N 1.02075 -0.03416 0.52930
 C176 C 1.00156 0.04329 0.44404
 H177 H 0.97375 0.04181 0.44355
 C178 C 1.01915 0.06564 0.42003
 H179 H 1.00467 0.08109 0.40084
 C180 C 1.05410 0.02406 0.46922
 H181 H 1.06761 0.00759 0.48826
 C182 C 1.07278 0.04603 0.44558
 H183 H 1.10059 0.04667 0.44705
 Zn184 Zn 0.99242 -0.00565 0.49965
 N185 N 1.01911 0.02346 0.46830
 C186 C 0.96800 0.06059 0.52611
 N187 N 0.96533 0.02398 0.52884
 C188 C 0.94574 0.00781 0.55442
 C189 C 0.92800 0.02866 0.57872
 C190 C 0.95073 0.08243 0.54982
 C191 C 0.98168 -0.05610 0.44840
 C192 C 0.96351 -0.07881 0.42664
 C193 C 0.91055 -0.05881 0.45371
 C194 C 0.92981 -0.03646 0.47508
 N195 N 0.96475 -0.03577 0.47223
 H196 H 0.98428 0.07301 0.50618
 H197 H 0.94466 -0.02138 0.55647
 H198 H 0.91333 0.01526 0.59948
 H199 H 0.95332 0.11151 0.54728
 H200 H 1.00945 -0.05454 0.44632
 H201 H 0.97751 -0.09442 0.40757
 H202 H 0.88278 -0.05934 0.45652
 H203 H 0.91681 -0.01962 0.49377
 C204 C 1.05525 0.06737 0.42070
 C205 C 1.05914 -0.07463 0.57698
 C206 C 0.92745 -0.08045 0.42915
 C207 C 0.93075 0.06651 0.57686
 C208 C 0.12523 0.33359 1.18461
 C209 C 0.15306 0.31722 1.16685
 C210 C 0.16101 0.32988 1.13251
 C211 C 0.14107 0.35678 1.11610
 C212 C 0.11306 0.37225 1.13415
 C213 C 0.10567 0.36079 1.16853
 C214 C 0.09255 0.39844 1.11731
 C215 C 0.09930 0.40897 1.08229
 C216 C 0.12750 0.39348 1.06472
 C217 C 0.14826 0.36784 1.08150
 H218 H 0.18165 0.31795 1.11755
 H219 H 0.08443 0.37257 1.18293
 H220 H 0.07123 0.41041 1.13142
 H221 H 0.16955 0.35612 1.06714
 H222 H 0.11852 0.32596 1.21125
 H223 H 0.13304 0.40043 1.03760
 C224 C -0.12670 0.67445 1.18021
 C225 C -0.14655 0.69910 1.16028
 C226 C -0.14543 0.69681 1.12353
 C227 C -0.12497 0.67085 1.10714
 C228 C -0.10647 0.64540 1.12746
 C229 C -0.10748 0.64747 1.16401
 C230 C -0.08713 0.61849 1.11089
 C231 C -0.08464 0.61764 1.07406
 C232 C -0.10198 0.64454 1.05437
 C233 C -0.12238 0.67033 1.07066
 H234 H -0.15924 0.71620 1.10739
 H235 H -0.09323 0.62834 1.18008
 H236 H -0.07444 0.59815 1.12690
 H237 H -0.13579 0.69021 1.05466
 H238 H -0.12708 0.67492 1.20848
 H239 H -0.09972 0.64617 1.02619
 C240 C -0.11307 0.31352 0.82699
 C241 C -0.14065 0.29670 0.84555
 C242 C -0.14721 0.30751 0.88023
 C243 C -0.12693 0.33398 0.89577
 C244 C -0.09971 0.35052 0.87662
 C245 C -0.09304 0.34011 0.84227
 C246 C -0.07963 0.37722 0.89210
 C247 C -0.08625 0.38750 0.92673
 C248 C -0.11323 0.37048 0.94566
 C249 C -0.13341 0.34408 0.93032
 H250 H -0.16741 0.29489 0.89587
 H251 H -0.07231 0.35261 0.82712
 H252 H -0.05919 0.39034 0.87701
 H253 H -0.15404 0.33149 0.94555
 H254 H -0.10716 0.30709 0.80019
 H255 H -0.11856 0.37731 0.97255
 C256 C 0.18606 0.67361 0.86671
 C257 C 0.17020 0.69153 0.83805
 C258 C 0.13646 0.68057 0.82930
 C259 C 0.11880 0.65408 0.84940
 C260 C 0.13487 0.63769 0.87857
 C261 C 0.16862 0.64721 0.88662
 C262 C 0.11676 0.61246 0.89960
 C263 C 0.08253 0.60344 0.89204
 C264 C 0.06700 0.61911 0.86237
 C265 C 0.08497 0.64424 0.84124
 H266 H 0.12308 0.69305 0.80761
 H267 H 0.18150 0.63452 0.90868
 H268 H 0.12919 0.60007 0.92209
 H269 H 0.07218 0.65645 0.81889
 H270 H 0.21207 0.67959 0.87427
 H271 H 0.04059 0.61276 0.85611
 C272 C 1.16925 0.11110 0.31303
 C273 C 1.15669 0.14586 0.30363
 C274 C 1.12654 0.15796 0.32095
 C275 C 1.10937 0.13601 0.34601
 C276 C 1.12227 0.10134 0.35452
 C277 C 1.15228 0.08927 0.33803
 C278 C 1.10480 0.07918 0.37918
 C279 C 1.07435 0.09119 0.39541
 C280 C 1.06191 0.12594 0.38695
 C281 C 1.07926 0.14815 0.36255
 H282 H 1.11600 0.18441 0.31539
 H283 H 1.16259 0.06272 0.34427
 H284 H 1.11448 0.05230 0.38516
 H285 H 1.06901 0.17476 0.35649
 H286 H 1.19200 0.09992 0.30105
 H287 H 1.03880 0.13607 0.39944
 C288 C 1.18153 -0.11654 0.67230
 C289 C 1.16623 -0.14665 0.68990
 C290 C 1.13249 -0.15651 0.68020
 C291 C 1.11463 -0.13674 0.65444
 C292 C 1.13038 -0.10660 0.63761
 C293 C 1.16387 -0.09689 0.64659
 C294 C 1.11234 -0.08658 0.61216
 C295 C 1.07857 -0.09625 0.60332
 C296 C 1.06319 -0.12644 0.62019
 C297 C 1.08104 -0.14650 0.64547
 H298 H 1.11933 -0.17897 0.69296
 H299 H 1.17646 -0.07397 0.63375
 H300 H 1.12466 -0.06363 0.59908
 H301 H 1.06845 -0.16948 0.65818
 H302 H 1.20745 -0.10797 0.67769
 H303 H 1.03705 -0.13420 0.61428
 C304 C 0.81515 -0.11975 0.32277
 C305 C 0.82866 -0.15351 0.31259
 C306 C 0.85764 -0.16700 0.33080
 C307 C 0.87365 -0.14667 0.35656
 C308 C 0.86043 -0.11249 0.36519
 C309 C 0.83086 -0.09961 0.34859
 C310 C 0.87744 -0.09139 0.38970
 C311 C 0.90780 -0.10394 0.40552
 C312 C 0.92018 -0.13850 0.39744
 C313 C 0.90323 -0.15970 0.37328
 H314 H 0.86840 -0.19312 0.32506
 H315 H 0.82020 -0.07351 0.35507
 H316 H 0.86775 -0.06469 0.39544
 H317 H 0.91364 -0.18601 0.36722
 H318 H 0.79298 -0.10780 0.31038
 H319 H 0.94316 -0.14908 0.40971
 C320 C 0.81902 0.11434 0.68338
 C321 C 0.83722 0.14342 0.69798
 C322 C 0.87021 0.15172 0.68380
 C323 C 0.88472 0.13130 0.65692
 C324 C 0.86627 0.10204 0.64333
 C325 C 0.83336 0.09402 0.65654
 C326 C 0.88114 0.08117 0.61692
 C327 C 0.91436 0.08920 0.60390
 C328 C 0.93235 0.11863 0.61747
 C329 C 0.91768 0.13949 0.64367
 H330 H 0.88537 0.17362 0.69365
 H331 H 0.81870 0.07180 0.64626
 H332 H 0.86684 0.05879 0.60643
 H333 H 0.93229 0.16180 0.65383
 H334 H 0.79354 0.10675 0.69232
 H335 H 0.95816 0.12511 0.60833
 C336 C 0.33422 1.18761 0.14095
 C337 C 0.30582 1.16697 0.15259
 C338 C 0.30406 1.13026 0.14442
 C339 C 0.33041 1.11418 0.12490
 C340 C 0.35941 1.13480 0.11401
 C341 C 0.36102 1.17157 0.12211
 C342 C 0.38625 1.11828 0.09530
 C343 C 0.38419 1.08150 0.08672
 C344 C 0.35453 1.06178 0.09685
 C345 C 0.32814 1.07782 0.11601
 H346 H 0.28186 1.11444 0.15288
 H347 H 0.38294 1.18791 0.11384
 H348 H 0.40889 1.13395 0.08799
 H349 H 0.30584 1.06178 0.12372
 H350 H 0.33587 1.21597 0.14706
 H351 H 0.35148 1.03382 0.08978
 C352 C 0.67216 1.18394 -0.12457
 C353 C 0.69180 1.16187 -0.14666
 C354 C 0.68234 1.12539 -0.14983
 C355 C 0.65409 1.11108 -0.13102
 C356 C 0.63484 1.13339 -0.10856
 C357 C 0.64397 1.16985 -0.10571
 C358 C 0.60707 1.11874 -0.08909
 C359 C 0.59830 1.08202 -0.09178
 C360 C 0.61746 1.06027 -0.11455
 C361 C 0.64506 1.07464 -0.13397
 H362 H 0.69743 1.10782 -0.16626
 H363 H 0.62942 1.18743 -0.08876
 H364 H 0.59233 1.13586 -0.07184
 H365 H 0.65960 1.05713 -0.15100
 H366 H 0.67848 1.21222 -0.12198
 H367 H 0.61165 1.03179 -0.11669
 C368 C 0.34055 0.87218 -0.18422
 C369 C 0.32002 0.84647 -0.16601
 C370 C 0.32627 0.83965 -0.13025
 C371 C 0.35187 0.85879 -0.11284
 C372 C 0.37151 0.88529 -0.13127
 C373 C 0.36594 0.89146 -0.16702
 C374 C 0.39598 0.90562 -0.11351
 C375 C 0.40118 0.89974 -0.07752
 C376 C 0.38225 0.87260 -0.05964
 C377 C 0.35771 0.85236 -0.07712
 H378 H 0.31062 0.82030 -0.11557
 H379 H 0.38100 0.91144 -0.18163
 H380 H 0.41079 0.92622 -0.12758
 H381 H 0.34295 0.83207 -0.06259
 H382 H 0.33696 0.87755 -0.21184
 H383 H 0.38569 0.86780 -0.03187
 C384 C 0.67527 0.82172 0.12589
 C385 C 0.69385 0.84229 0.14976
 C386 C 0.68477 0.87871 0.15429
 C387 C 0.65784 0.89439 0.13510
 C388 C 0.63968 0.87351 0.11092
 C389 C 0.64850 0.83717 0.10664
 C390 C 0.61314 0.88933 0.09130
 C391 C 0.60438 0.92584 0.09553
 C392 C 0.62238 0.94627 0.11991
 C393 C 0.64890 0.93071 0.13947
 H394 H 0.69903 0.89508 0.17222
 H395 H 0.63472 0.82069 0.08838
 H396 H 0.59915 0.87321 0.07288
 H397 H 0.66256 0.94716 0.15785
 H398 H 0.68122 0.79350 0.12227
 H399 H 0.61639 0.97454 0.12335
   
