data_POSCAR
  _audit_creation_date              2014-09-24
  _audit_creation_method            'ToBaCCo'
  _symmetry_space_group_name_H-M    'P1'
  _symmetry_Int_Tables_number       1
  _symmetry_cell_setting            triclinic
  loop_
  _symmetry_equiv_pos_as_xyz
 x,y,z
_cell_length_a 37.8626
_cell_length_b 38.7359
_cell_length_c 35.8969
_cell_angle_alpha 91.538400
_cell_angle_beta 89.599100
_cell_angle_gamma 89.948000
loop_
  _atom_site_label
  _atom_site_type_symbol
  _atom_site_fract_x
  _atom_site_fract_y
  _atom_site_fract_z
C1 C 0.18769 0.23061 0.24709
 C2 C 0.19107 0.25710 0.22121
 C3 C 0.21987 0.25734 0.19707
 C4 C 0.24541 0.23125 0.19824
 C5 C 0.24215 0.20533 0.22380
 C6 C 0.21330 0.20506 0.24832
 C7 C 0.16112 0.22151 0.27159
 N8 N 0.17052 0.19139 0.28729
 C9 C 0.20215 0.18107 0.27327
 C10 C 0.26795 0.18123 0.21568
 N11 N 0.28658 0.19205 0.18590
 C12 C 0.27317 0.22249 0.17483
 C13 C 0.21488 0.28368 0.17277
 N14 N 0.18398 0.29948 0.18162
 C15 C 0.16899 0.28354 0.21097
 H16 H 0.13640 0.23501 0.27654
 H17 H 0.21541 0.15718 0.27970
 H18 H 0.27138 0.15659 0.22880
 H19 H 0.28144 0.23600 0.15022
 H20 H 0.23166 0.28996 0.14936
 H21 H 0.14332 0.28976 0.22283
 C22 C -0.19465 0.78140 0.23343
 C23 C -0.19853 0.75286 0.20872
 C24 C -0.22887 0.74951 0.18747
 C25 C -0.25560 0.77447 0.19053
 C26 C -0.25183 0.80247 0.21494
 C27 C -0.22127 0.80595 0.23646
 C28 C -0.16709 0.79312 0.25543
 N29 N -0.17675 0.82387 0.27143
 C30 C -0.20963 0.83203 0.26003
 C31 C -0.27966 0.82448 0.20912
 N32 N -0.30004 0.81039 0.18186
 C33 C -0.28570 0.77992 0.17012
 C34 C -0.22441 0.72128 0.16383
 N35 N -0.19231 0.70741 0.17035
 C36 C -0.17611 0.72640 0.19753
 H37 H -0.14168 0.78075 0.25870
 H38 H -0.22363 0.85565 0.26752
 H39 H -0.28349 0.84987 0.22192
 H40 H -0.29511 0.76411 0.14691
 H41 H -0.24258 0.71219 0.14258
 H42 H -0.14956 0.72200 0.20739
 C43 C -0.21267 0.22291 -0.24797
 C44 C -0.21307 0.24887 -0.21980
 C45 C -0.24057 0.25036 -0.19404
 C46 C -0.26792 0.22600 -0.19604
 C47 C -0.26755 0.20052 -0.22386
 C48 C -0.23985 0.19898 -0.24993
 C49 C -0.18789 0.21298 -0.27462
 N50 N -0.19972 0.18392 -0.29240
 C51 C -0.23127 0.17503 -0.27754
 C52 C -0.29497 0.17830 -0.21669
 N53 N -0.31182 0.18981 -0.18537
 C54 C -0.29561 0.21882 -0.17233
 C55 C -0.23278 0.27617 -0.16827
 N56 N -0.20147 0.29036 -0.17787
 C57 C -0.18902 0.27393 -0.20913
 H58 H -0.16259 0.22510 -0.27959
 H59 H -0.24613 0.15205 -0.28517
 H60 H -0.30085 0.15443 -0.23179
 H61 H -0.30209 0.23241 -0.14640
 H62 H -0.24814 0.28336 -0.14370
 H63 H -0.16384 0.27909 -0.22234
 C64 C 0.18488 0.77480 -0.23557
 C65 C 0.18855 0.74736 -0.21095
 C66 C 0.21742 0.74632 -0.18736
 C67 C 0.24290 0.77254 -0.18800
 C68 C 0.23937 0.79936 -0.21241
 C69 C 0.21034 0.80048 -0.23623
 C70 C 0.15843 0.78438 -0.25962
 N71 N 0.16770 0.81497 -0.27447
 C72 C 0.19919 0.82507 -0.26039
 C73 C 0.26571 0.82280 -0.20462
 N74 N 0.28501 0.81077 -0.17616
 C75 C 0.27144 0.78017 -0.16557
 C76 C 0.21293 0.71854 -0.16470
 N77 N 0.18229 0.70272 -0.17407
 C78 C 0.16700 0.72002 -0.20209
 H79 H 0.13396 0.77075 -0.26501
 H80 H 0.21247 0.84906 -0.26643
 H81 H 0.26934 0.84765 -0.21725
 H82 H 0.28039 0.76559 -0.14209
 H83 H 0.23005 0.71104 -0.14226
 H84 H 0.14159 0.71385 -0.21420
 C85 C 0.24956 1.20667 0.74272
 C86 C 0.27389 1.20580 0.77202
 C87 C 0.27209 1.23027 0.80099
 C88 C 0.24587 1.25604 0.80087
 C89 C 0.22240 1.25711 0.77146
 C90 C 0.22421 1.23241 0.74244
 C91 C 0.24100 1.18302 0.71477
 N92 N 0.21132 1.19418 0.69789
 C93 C 0.20084 1.22424 0.71449
 C94 C 0.19704 1.28128 0.78047
 N95 N 0.20439 1.29495 0.81454
 C96 C 0.23404 1.27983 0.82758
 C97 C 0.29655 1.22086 0.82720
 N98 N 0.31303 1.19170 0.81455
 C99 C 0.29930 1.18209 0.78113
 H100 H 0.25358 1.15825 0.70931
 H101 H 0.17633 1.23752 0.70885
 H102 H 0.17357 1.28677 0.76456
 H103 H 0.24474 1.28407 0.85523
 H104 H 0.30117 1.23353 0.85398
 H105 H 0.30644 1.15891 0.76529
 C106 C 0.78365 0.79626 0.74182
 C107 C 0.75716 0.79653 0.76936
 C108 C 0.75479 0.76966 0.79406
 C109 C 0.77887 0.74206 0.79132
 C110 C 0.80472 0.74173 0.76378
 C111 C 0.80720 0.76893 0.73907
 C112 C 0.79529 0.82097 0.71768
 N113 N 0.82509 0.80899 0.70063
 C114 C 0.83273 0.77734 0.71343
 C115 C 0.82707 0.71465 0.77029
 N116 N 0.81544 0.69856 0.80099
 C117 C 0.78613 0.71498 0.81433
 C118 C 0.72909 0.77861 0.82000
 N119 N 0.71594 0.80991 0.81131
 C120 C 0.73292 0.82123 0.78066
 H121 H 0.78421 0.84650 0.71448
 H122 H 0.85623 0.76253 0.70634
 H123 H 0.85137 0.70860 0.75538
 H124 H 0.77263 0.70916 0.84011
 H125 H 0.72144 0.76410 0.84413
 H126 H 0.72885 0.84616 0.76841
 C127 C 0.21681 0.80325 1.24754
 C128 C 0.24301 0.80471 1.21970
 C129 C 0.24273 0.78111 1.18989
 C130 C 0.21623 0.75582 1.18754
 C131 C 0.19072 0.75431 1.21527
 C132 C 0.19101 0.77799 1.24529
 C133 C 0.20774 0.82511 1.27711
 N134 N 0.17735 0.81331 1.29243
 C135 C 0.16684 0.78466 1.27327
 C136 C 0.16640 0.72991 1.20440
 N137 N 0.17648 0.71659 1.17082
 C138 C 0.20682 0.73207 1.15998
 C139 C 0.26934 0.79036 1.16577
 N140 N 0.28565 0.81869 1.18036
 C141 C 0.26979 0.82788 1.21310
 H142 H 0.22101 0.84883 1.28539
 H143 H 0.14231 0.77099 1.27790
 H144 H 0.14223 0.72345 1.21894
 H145 H 0.22001 0.72757 1.13344
 H146 H 0.27567 0.77812 1.13908
 H147 H 0.27655 0.85034 1.23019
 C148 C 0.78653 1.19897 1.26790
 C149 C 0.76289 1.19484 1.23814
 C150 C 0.76449 1.21701 1.20848
 C151 C 0.78976 1.24340 1.20810
 C152 C 0.81309 1.24744 1.23744
 C153 C 0.81142 1.22519 1.26751
 C154 C 0.79396 1.17891 1.29801
 N155 N 0.82248 1.19256 1.31564
 C156 C 0.83350 1.22069 1.29728
 C157 C 0.83708 1.27237 1.22782
 N158 N 0.82868 1.28343 1.19356
 C159 C 0.79994 1.26600 1.18109
 C160 C 0.74083 1.20520 1.18217
 N161 N 0.72501 1.17660 1.19523
 C162 C 0.73822 1.16982 1.22925
 H163 H 0.78108 1.15498 1.30511
 H164 H 0.85714 1.23538 1.30365
 H165 H 0.85992 1.28067 1.24368
 H166 H 0.78845 1.26840 1.15373
 H167 H 0.73636 1.21583 1.15501
 H168 H 0.73129 1.14773 1.24564
 O169 O 0.53558 0.95303 0.95560
 O170 O 0.46579 0.97821 1.07716
 O171 O 0.55780 0.95654 1.02374
 O172 O 0.41663 0.98369 0.96836
 O173 O 0.53440 0.97593 1.07691
 O174 O 0.46650 0.95429 0.95591
 O175 O 0.44213 0.95987 1.02417
 O176 O 0.58639 0.97999 0.96875
 C177 C 0.56911 0.95608 0.94984
 C178 C 0.44558 0.95768 1.05900
 C179 C 0.55332 0.95417 1.05850
 C180 C 0.43318 0.95854 0.95032
 O181 O 0.47021 1.01878 0.93083
 O182 O 0.53512 1.04420 1.06566
 O183 O 0.55695 1.04023 0.97993
 O184 O 0.42512 1.02178 1.03754
 O185 O 0.46967 1.04616 1.06571
 O186 O 0.53407 1.01794 0.93123
 O187 O 0.44853 1.04290 0.97930
 O188 O 0.57851 1.01699 1.03808
 Co189 Co 0.50160 0.98713 0.94898
 Co190 Co 0.50129 1.01035 1.06621
 Co191 Co 0.55349 0.99799 0.99968
 Co192 Co 0.44945 1.00071 0.99953
 O193 O 0.50148 1.00263 1.00765
 C194 C 0.45436 1.04384 0.94568
 C195 C 0.56757 1.04003 1.06038
 C196 C 0.55075 1.04211 0.94649
 C197 C 0.43723 1.04446 1.05944
 O198 O 0.03256 0.46606 0.06317
 O199 O 0.03638 0.51805 -0.06924
 O200 O 0.01620 0.40685 -0.03605
 O201 O 0.00197 0.57043 0.03103
 O202 O 0.03032 0.45520 -0.06620
 O203 O 0.02970 0.53089 0.06083
 O204 O 0.03595 0.55329 -0.02268
 O205 O 0.04890 0.44399 0.00838
 C206 C 0.05435 0.44886 0.04281
 C207 C 0.05001 0.54266 -0.05185
 C208 C 0.03227 0.42219 -0.06355
 C209 C 0.02534 0.56197 0.05364
 O210 O -0.04136 0.52923 0.06069
 O211 O -0.04140 0.46459 -0.06841
 O212 O -0.00996 0.42182 0.03504
 O213 O -0.02167 0.57848 -0.04113
 O214 O -0.03534 0.52748 -0.06866
 O215 O -0.03836 0.46421 0.06232
 O216 O -0.05625 0.54560 0.00450
 O217 O -0.04249 0.43352 -0.02033
 Co218 Co -0.00433 0.49737 0.05672
 Co219 Co -0.00260 0.49159 -0.06219
 Co220 Co 0.00305 0.44284 -0.00803
 Co221 Co -0.00993 0.54522 -0.01090
 O222 O -0.00353 0.49442 -0.00208
 C223 C -0.06261 0.54430 0.03903
 C224 C -0.05575 0.44173 -0.05011
 C225 C -0.03321 0.43250 0.05763
 C226 C -0.03616 0.56069 -0.06859
 O227 O 1.06669 0.04068 0.47597
 O228 O 0.92902 0.01332 0.54277
 O229 O 0.98383 0.04733 0.45206
 O230 O 1.02840 0.05494 0.56815
 O231 O 0.93575 0.03029 0.47722
 O232 O 1.07517 0.03263 0.54345
 O233 O 0.96783 0.04955 0.55766
 O234 O 1.03819 0.01846 0.42962
 C235 C 1.05924 0.04055 0.44226
 C236 C 0.93652 0.04201 0.55647
 C237 C 0.95241 0.05275 0.45998
 C238 C 1.06070 0.05530 0.56322
 O239 O 1.07017 -0.03292 0.53720
 O240 O 0.95325 -0.03609 0.45931
 O241 O 1.01503 -0.04187 0.44952
 O242 O 0.97078 -0.01975 0.57717
 O243 O 0.95606 -0.04774 0.52611
 O244 O 1.06759 -0.02824 0.46680
 O245 O 1.03520 -0.01304 0.58287
 O246 O 0.97397 -0.00727 0.41206
 Co247 Co 1.06378 0.00311 0.50553
 Co248 Co 0.94949 -0.00830 0.50183
 Co249 Co 0.99886 0.00299 0.45364
 Co250 Co 1.00044 0.01674 0.56638
 O251 O 1.00591 0.00501 0.50906
 C252 C 1.05907 -0.03354 0.57042
 C253 C 0.95066 -0.02903 0.42494
 C254 C 1.04709 -0.04853 0.45025
 C255 C 0.95928 -0.04665 0.56067
 C256 C 1.15115 0.17283 0.31029
 C257 C 1.13468 0.15470 0.33096
 C258 C 1.11707 0.13181 0.35478
 C259 C 1.10310 0.11134 0.37487
 C260 C 1.08759 0.08672 0.39825
 C261 C 1.07467 0.06554 0.41825
 C262 C 0.84313 -0.15592 0.29314
 C263 C 0.86049 -0.13685 0.31285
 C264 C 0.87991 -0.11374 0.33598
 C265 C 0.89603 -0.09378 0.35585
 C266 C 0.91474 -0.07049 0.37943
 C267 C 0.93088 -0.05109 0.39993
 C268 C 0.81824 0.16481 0.68270
 C269 C 0.83438 0.14675 0.66053
 C270 C 0.85346 0.12474 0.63553
 C271 C 0.87038 0.10557 0.61520
 C272 C 0.89144 0.08296 0.59278
 C273 C 0.91095 0.06391 0.57517
 C274 C 1.14854 -0.16624 0.70277
 C275 C 1.13222 -0.14799 0.68227
 C276 C 1.11475 -0.12506 0.65855
 C277 C 1.10095 -0.10461 0.63844
 C278 C 1.08580 -0.07999 0.61494
 C279 C 1.07344 -0.05875 0.59476
 C280 C 0.30978 1.17288 1.16689
 C281 C 0.33024 1.15476 1.14957
 C282 C 0.35329 1.13253 1.12947
 C283 C 0.37252 1.11286 1.11259
 C284 C 0.39480 1.08926 1.09335
 C285 C 0.41397 1.06883 1.07749
 C286 C 0.30942 0.82889 0.84196
 C287 C 0.33091 0.84631 0.85839
 C288 C 0.35480 0.86814 0.87758
 C289 C 0.37418 0.88781 0.89401
 C290 C 0.39573 0.91180 0.91336
 C291 C 0.41326 0.93291 0.93009
 C292 C 0.67444 0.82700 1.16471
 C293 C 0.65211 0.84301 1.14881
 C294 C 0.62760 0.86339 1.12982
 C295 C 0.60815 0.88220 1.11340
 C296 C 0.58719 0.90580 1.09412
 C297 C 0.57085 0.92724 1.07773
 C298 C 0.66401 1.17207 0.83293
 C299 C 0.64284 1.15509 0.84970
 C300 C 0.61958 1.13378 0.86959
 C301 C 0.60117 1.11439 0.88682
 C302 C 0.58148 1.09039 0.90730
 C303 C 0.56641 1.06886 0.92506
 C304 C 0.16837 0.32530 0.16060
 C305 C 0.15497 0.34698 0.14178
 C306 C 0.13852 0.37141 0.11913
 C307 C 0.12302 0.39133 0.09985
 C308 C 0.10244 0.41332 0.07799
 C309 C 0.08216 0.43063 0.06072
 C310 C -0.18351 0.31587 -0.15695
 C311 C -0.16778 0.33747 -0.13876
 C312 C -0.14835 0.36211 -0.11753
 C313 C -0.13039 0.38238 -0.09994
 C314 C -0.10723 0.40495 -0.08043
 C315 C -0.08516 0.42281 -0.06535
 C316 C 0.16730 0.67499 -0.15522
 C317 C 0.15409 0.65156 -0.13857
 C318 C 0.13740 0.62500 -0.11874
 C319 C 0.12143 0.60336 -0.10194
 C320 C 0.10004 0.57962 -0.08287
 C321 C 0.07893 0.56128 -0.06772
 C322 C -0.17717 0.67990 0.14964
 C323 C -0.16399 0.65659 0.13141
 C324 C -0.14756 0.63001 0.10983
 C325 C -0.13197 0.60813 0.09170
 C326 C -0.11119 0.58378 0.07135
 C327 C -0.09071 0.56455 0.05540
 C328 C 1.19108 0.17540 0.67524
 C329 C 1.17154 0.15856 0.65565
 C330 C 1.14742 0.13884 0.63427
 C331 C 1.12645 0.12150 0.61704
 C332 C 1.10215 0.10015 0.59779
 C333 C 1.08234 0.08058 0.58184
 C334 C 0.84635 -0.17274 0.67932
 C335 C 0.86598 -0.15598 0.66044
 C336 C 0.88887 -0.13570 0.63896
 C337 C 0.90772 -0.11742 0.62092
 C338 C 0.92829 -0.09456 0.59994
 C339 C 0.94389 -0.07354 0.58202
 C340 C 1.15770 -0.17006 0.31780
 C341 C 1.13906 -0.15494 0.34016
 C342 C 1.11671 -0.13655 0.36524
 C343 C 1.09800 -0.11956 0.38588
 C344 C 1.07741 -0.09757 0.40922
 C345 C 1.06190 -0.07652 0.42846
 C346 C 0.84072 0.17722 0.34190
 C347 C 0.85790 0.16267 0.36487
 C348 C 0.87869 0.14412 0.38994
 C349 C 0.89659 0.12654 0.40956
 C350 C 0.91724 0.10357 0.43011
 C351 C 0.93406 0.08166 0.44526
 C352 C 0.18221 0.31517 -0.16621
 C353 C 0.16065 0.33292 -0.14990
 C354 C 0.13377 0.35274 -0.13221
 C355 C 0.11011 0.36903 -0.11757
 C356 C 0.08219 0.38765 -0.10020
 C357 C 0.05880 0.40340 -0.08437
 C358 C -0.15096 0.30613 0.17266
 C359 C -0.13308 0.32536 0.15471
 C360 C -0.11177 0.34760 0.13378
 C361 C -0.09344 0.36658 0.11603
 C362 C -0.07205 0.38902 0.09543
 C363 C -0.05405 0.40858 0.07804
 C364 C -0.16604 0.67508 -0.18137
 C365 C -0.14797 0.65452 -0.16562
 C366 C -0.12517 0.63188 -0.14722
 C367 C -0.10484 0.61377 -0.13104
 C368 C -0.08054 0.59394 -0.11106
 C369 C -0.05992 0.57815 -0.09263
 C370 C 0.15601 0.69343 0.14961
 C371 C 0.13712 0.67376 0.13256
 C372 C 0.11358 0.65095 0.11428
 C373 C 0.09288 0.63137 0.09972
 C374 C 0.06854 0.60805 0.08351
 C375 C 0.04824 0.58748 0.06994
 C376 C 0.33794 1.17254 0.83413
 C377 C 0.35896 1.15533 0.85070
 C378 C 0.38264 1.13403 0.86997
 C379 C 0.40176 1.11487 0.88654
 C380 C 0.42249 1.09126 0.90639
 C381 C 0.43833 1.07013 0.92391
 C382 C 0.31255 0.83727 1.16283
 C383 C 0.33532 0.85358 1.14755
 C384 C 0.36122 0.87341 1.12934
 C385 C 0.38248 0.89112 1.11354
 C386 C 0.40616 0.91295 1.09475
 C387 C 0.42506 0.93269 1.07852
 C388 C 0.70094 1.15594 1.17524
 C389 C 0.68045 1.13830 1.15763
 C390 C 0.65667 1.11774 1.13660
 C391 C 0.63642 1.10017 1.11858
 C392 C 0.61266 1.07948 1.09767
 C393 C 0.59221 1.06162 1.08026
 C394 C 0.69126 0.82922 0.83248
 C395 C 0.67045 0.84650 0.85051
 C396 C 0.64686 0.86776 0.87147
 C397 C 0.62750 0.88675 0.88930
 C398 C 0.60585 0.90995 0.91023
 C399 C 0.58842 0.93057 0.92821
   
