data_POSCAR
  _audit_creation_date              2014-09-24
  _audit_creation_method            'ToBaCCo'
  _symmetry_space_group_name_H-M    'P1'
  _symmetry_Int_Tables_number       1
  _symmetry_cell_setting            triclinic
  loop_
  _symmetry_equiv_pos_as_xyz
 x,y,z
_cell_length_a 77.5193
_cell_length_b 77.5074
_cell_length_c 44.4589
_cell_angle_alpha 89.843500
_cell_angle_beta 89.972100
_cell_angle_gamma 90.080800
loop_
  _atom_site_label
  _atom_site_type_symbol
  _atom_site_fract_x
  _atom_site_fract_y
  _atom_site_fract_z
C1 C 0.00004 0.26538 -0.01466
 C2 C -0.00021 0.26576 0.01601
 C3 C -0.01663 0.26466 0.03318
 C4 C 0.01596 0.26699 0.03385
 C5 C 0.01647 0.26390 -0.03171
 C6 C -0.01611 0.26615 -0.03259
 C7 C -0.02060 0.27719 0.05464
 C8 C -0.03616 0.27651 0.07048
 C9 C -0.04837 0.26313 0.06550
 C10 C -0.04382 0.25035 0.04409
 C11 C -0.02821 0.25109 0.02843
 C12 C 0.02796 0.28023 0.02844
 C13 C 0.04347 0.28078 0.04440
 C14 C 0.04718 0.26822 0.06635
 C15 C 0.03490 0.25529 0.07232
 C16 C 0.01942 0.25472 0.05628
 C17 C 0.02807 0.25042 -0.02579
 C18 C 0.04370 0.24942 -0.04133
 C19 C 0.04794 0.26176 -0.06337
 C20 C 0.03609 0.27500 -0.06977
 C21 C 0.02048 0.27602 -0.05414
 C22 C -0.01959 0.25334 -0.05398
 C23 C -0.03506 0.25351 -0.07009
 C24 C -0.04731 0.26658 -0.06524
 C25 C -0.04358 0.27966 -0.04435
 C26 C -0.02808 0.27950 -0.02832
 H27 H -0.01180 0.28781 0.05859
 H28 H -0.03871 0.28723 0.08527
 H29 H -0.05172 0.23911 0.04005
 H30 H -0.02511 0.24094 0.01262
 H31 H 0.02536 0.29004 0.01166
 H32 H 0.05254 0.29108 0.03969
 H33 H 0.01030 0.24443 0.06085
 H34 H 0.02503 0.24070 -0.00904
 H35 H 0.05240 0.23888 -0.03631
 H36 H 0.03905 0.28478 -0.08642
 H37 H 0.01166 0.28646 -0.05913
 H38 H -0.01050 0.24296 -0.05767
 H39 H -0.03762 0.24317 -0.08580
 H40 H -0.05262 0.29007 -0.04053
 H41 H -0.02547 0.28971 -0.01238
 H42 H 0.03745 0.24534 0.08887
 C43 C 0.50000 0.76542 0.48556
 C44 C 0.50021 0.76615 0.51621
 C45 C 0.48403 0.76762 0.53397
 C46 C 0.51658 0.76511 0.53346
 C47 C 0.51618 0.76579 0.46765
 C48 C 0.48358 0.76393 0.46851
 C49 C 0.47213 0.78086 0.52815
 C50 C 0.45659 0.78161 0.54402
 C51 C 0.45275 0.76926 0.56627
 C52 C 0.46494 0.75634 0.57266
 C53 C 0.48045 0.75557 0.55672
 C54 C 0.52069 0.77797 0.55441
 C55 C 0.53619 0.77727 0.57038
 C56 C 0.54781 0.76360 0.56589
 C57 C 0.54349 0.75054 0.54532
 C58 C 0.52798 0.75125 0.52937
 C59 C 0.51950 0.75267 0.44677
 C60 C 0.53497 0.75247 0.43066
 C61 C 0.54738 0.76548 0.43497
 C62 C 0.54382 0.77888 0.45530
 C63 C 0.52833 0.77907 0.47139
 C64 C 0.47182 0.75060 0.47477
 C65 C 0.45620 0.74960 0.45922
 C66 C 0.45213 0.76179 0.43685
 C67 C 0.46414 0.77486 0.43012
 C68 C 0.47974 0.77588 0.44575
 H69 H 0.47482 0.79051 0.51111
 H70 H 0.44759 0.79189 0.53897
 H71 H 0.46229 0.74654 0.58945
 H72 H 0.48948 0.74529 0.56160
 H73 H 0.51197 0.78867 0.55810
 H74 H 0.53903 0.78736 0.58644
 H75 H 0.52490 0.74103 0.51369
 H76 H 0.51023 0.74239 0.44336
 H77 H 0.53721 0.74215 0.41477
 H78 H 0.55316 0.78902 0.45924
 H79 H 0.52588 0.78947 0.48704
 H80 H 0.47473 0.74101 0.49179
 H81 H 0.44736 0.73919 0.46451
 H82 H 0.46131 0.78452 0.41320
 H83 H 0.48868 0.78621 0.44051
 H84 H 0.55221 0.73991 0.54121
 C85 C 1.00031 0.73395 -0.01576
 C86 C 1.00012 0.73434 0.01492
 C87 C 1.01630 0.73356 0.03276
 C88 C 0.98372 0.73586 0.03204
 C89 C 0.98411 0.73273 -0.03351
 C90 C 1.01670 0.73508 -0.03301
 C91 C 1.02827 0.72021 0.02839
 C92 C 1.04380 0.72005 0.04433
 C93 C 1.04757 0.73311 0.06521
 C94 C 1.03533 0.74618 0.07016
 C95 C 1.01982 0.74636 0.05415
 C96 C 0.97970 0.72375 0.05448
 C97 C 0.96411 0.72480 0.07013
 C98 C 0.95229 0.73806 0.06375
 C99 C 0.95654 0.75041 0.04172
 C100 C 0.97215 0.74937 0.02615
 C101 C 0.98062 0.74499 -0.05594
 C102 C 0.96510 0.74443 -0.07188
 C103 C 0.95282 0.73151 -0.06581
 C104 C 0.95656 0.71896 -0.04387
 C105 C 0.97211 0.71950 -0.02801
 C106 C 1.02827 0.74869 -0.02828
 C107 C 1.04385 0.74943 -0.04401
 C108 C 1.04826 0.73664 -0.06532
 C109 C 1.03620 0.72324 -0.07037
 C110 C 1.02066 0.72253 -0.05449
 H111 H 1.02563 0.71001 0.01245
 H112 H 1.05283 0.70965 0.04043
 H113 H 1.03792 0.75651 0.08587
 H114 H 1.01074 0.75674 0.05791
 H115 H 0.98851 0.71328 0.05943
 H116 H 0.96114 0.71502 0.08679
 H117 H 0.97520 0.75908 0.00940
 H118 H 0.98973 0.75527 -0.06058
 H119 H 0.96253 0.75437 -0.08842
 H120 H 0.94750 0.70867 -0.03908
 H121 H 0.97473 0.70969 -0.01123
 H122 H 1.02521 0.75881 -0.01242
 H123 H 1.05203 0.76050 -0.04004
 H124 H 1.03891 0.71271 -0.08554
 H125 H 1.01186 0.71190 -0.05846
 H126 H 0.94785 0.76096 0.03672
 C127 C 0.49995 0.23410 0.48399
 C128 C 0.50016 0.23443 0.51467
 C129 C 0.51657 0.23591 0.53175
 C130 C 0.48397 0.23362 0.53256
 C131 C 0.48355 0.23522 0.46681
 C132 C 0.51613 0.23290 0.46617
 C133 C 0.52055 0.22376 0.55412
 C134 C 0.53616 0.22476 0.56972
 C135 C 0.54804 0.23801 0.56336
 C136 C 0.54382 0.25040 0.54141
 C137 C 0.52819 0.24941 0.52589
 C138 C 0.47197 0.22029 0.52815
 C139 C 0.45643 0.22011 0.54408
 C140 C 0.45269 0.23317 0.56500
 C141 C 0.46498 0.24621 0.57000
 C142 C 0.48049 0.24640 0.55399
 C143 C 0.47198 0.24886 0.47164
 C144 C 0.45637 0.24954 0.45602
 C145 C 0.45212 0.23671 0.43498
 C146 C 0.46393 0.22331 0.42965
 C147 C 0.47953 0.22261 0.44536
 C148 C 0.51964 0.24519 0.44377
 C149 C 0.53513 0.24465 0.42776
 C150 C 0.54739 0.23172 0.43372
 C151 C 0.54363 0.21914 0.45562
 C152 C 0.52810 0.21967 0.47156
 H153 H 0.51170 0.21329 0.55905
 H154 H 0.53910 0.21495 0.58632
 H155 H 0.55255 0.26094 0.53643
 H156 H 0.52518 0.25915 0.50919
 H157 H 0.47458 0.21009 0.51218
 H158 H 0.44736 0.20973 0.54015
 H159 H 0.48960 0.25677 0.55778
 H160 H 0.47504 0.25894 0.48760
 H161 H 0.44769 0.26021 0.46018
 H162 H 0.46096 0.21316 0.41377
 H163 H 0.48832 0.21203 0.44122
 H164 H 0.51055 0.25547 0.43921
 H165 H 0.53772 0.25461 0.41124
 H166 H 0.55267 0.20885 0.46033
 H167 H 0.52547 0.20984 0.48831
 H168 H 0.46241 0.25653 0.58574
 C169 C 0.73496 -0.00003 -0.01705
 C170 C 0.73501 0.00019 0.01364
 C171 C 0.73409 -0.01600 0.03160
 C172 C 0.73629 0.01659 0.03071
 C173 C 0.73385 0.01615 -0.03498
 C174 C 0.73636 -0.01644 -0.03409
 C175 C 0.72088 -0.02805 0.02687
 C176 C 0.72050 -0.04350 0.04309
 C177 C 0.73325 -0.04730 0.06489
 C178 C 0.74619 -0.03475 0.06998
 C179 C 0.74654 -0.01935 0.05361
 C180 C 0.72400 0.02048 0.05282
 C181 C 0.72495 0.03599 0.06868
 C182 C 0.73829 0.04785 0.06284
 C183 C 0.75078 0.04375 0.04107
 C184 C 0.74985 0.02822 0.02529
 C185 C 0.74623 0.01969 -0.05707
 C186 C 0.74578 0.03518 -0.07318
 C187 C 0.73282 0.04764 -0.06774
 C188 C 0.72011 0.04361 -0.04595
 C189 C 0.72059 0.02807 -0.02999
 C190 C 0.74998 -0.02789 -0.02873
 C191 C 0.75093 -0.04354 -0.04413
 C192 C 0.73834 -0.04815 -0.06572
 C193 C 0.72496 -0.03618 -0.07147
 C194 C 0.72404 -0.02057 -0.05591
 H195 H 0.71084 -0.02547 0.01054
 H196 H 0.70977 -0.05210 0.03902
 H197 H 0.75668 -0.03697 0.08550
 H198 H 0.75687 -0.01020 0.05758
 H199 H 0.71350 0.01163 0.05742
 H200 H 0.71506 0.03885 0.08512
 H201 H 0.75970 0.02527 0.00880
 H202 H 0.75659 0.01065 -0.06124
 H203 H 0.75623 0.03756 -0.08875
 H204 H 0.70936 0.05212 -0.04165
 H205 H 0.71059 0.02535 -0.01361
 H206 H 0.75994 -0.02469 -0.01258
 H207 H 0.76198 -0.05163 -0.03964
 H208 H 0.71458 -0.03903 -0.08690
 H209 H 0.71342 -0.01187 -0.06037
 H210 H 0.76139 0.05247 0.03649
 C211 C 0.23458 0.49998 0.48621
 C212 C 0.23457 0.50019 0.51689
 C213 C 0.23341 0.48401 0.53480
 C214 C 0.23600 0.51660 0.53393
 C215 C 0.23357 0.51616 0.46828
 C216 C 0.23588 0.48358 0.46912
 C217 C 0.22006 0.47210 0.52981
 C218 C 0.21959 0.45652 0.54570
 C219 C 0.23235 0.45266 0.56715
 C220 C 0.24539 0.46487 0.57275
 C221 C 0.24588 0.48041 0.55679
 C222 C 0.22366 0.52072 0.55584
 C223 C 0.22459 0.53637 0.57127
 C224 C 0.23796 0.54817 0.56521
 C225 C 0.25055 0.54380 0.54376
 C226 C 0.24963 0.52813 0.52840
 C227 C 0.24605 0.51963 0.44622
 C228 C 0.24562 0.53509 0.43000
 C229 C 0.23262 0.54733 0.43542
 C230 C 0.21988 0.54362 0.45702
 C231 C 0.22029 0.52813 0.47316
 C232 C 0.24943 0.47197 0.47457
 C233 C 0.25035 0.45643 0.45883
 C234 C 0.23787 0.45228 0.43708
 C235 C 0.22455 0.46411 0.43120
 C236 C 0.22360 0.47964 0.44701
 H237 H 0.21010 0.47480 0.51339
 H238 H 0.20921 0.44752 0.54129
 H239 H 0.25549 0.46221 0.58892
 H240 H 0.25625 0.48946 0.56103
 H241 H 0.21309 0.51195 0.56051
 H242 H 0.21463 0.53942 0.58749
 H243 H 0.25951 0.52502 0.51208
 H244 H 0.25637 0.51054 0.44206
 H245 H 0.25571 0.53764 0.41373
 H246 H 0.20953 0.55265 0.46130
 H247 H 0.21032 0.52552 0.48963
 H248 H 0.25927 0.47496 0.49105
 H249 H 0.26095 0.44773 0.46345
 H250 H 0.21466 0.46122 0.41477
 H251 H 0.21311 0.48846 0.44239
 H252 H 0.26119 0.55246 0.53902
 C253 C 0.26503 1.00010 -0.01401
 C254 C 0.26516 1.00029 0.01667
 C255 C 0.26376 1.01668 0.03378
 C256 C 0.26640 0.98410 0.03453
 C257 C 0.26372 0.98369 -0.03111
 C258 C 0.26590 1.01629 -0.03194
 C259 C 0.27609 1.02081 0.05558
 C260 C 0.27516 1.03639 0.07122
 C261 C 0.26174 1.04834 0.06558
 C262 C 0.24915 1.04375 0.04400
 C263 C 0.25011 1.02813 0.02851
 C264 C 0.27977 0.97226 0.02939
 C265 C 0.28034 0.95670 0.04528
 C266 C 0.26765 0.95276 0.06687
 C267 C 0.25459 0.96489 0.07260
 C268 C 0.25401 0.98043 0.05664
 C269 C 0.25027 0.97202 -0.02557
 C270 C 0.24929 0.95650 -0.04135
 C271 C 0.26166 0.95225 -0.06354
 C272 C 0.27492 0.96439 -0.06934
 C273 C 0.27587 0.97986 -0.05339
 C274 C 0.25341 1.01965 -0.05389
 C275 C 0.25374 1.03504 -0.07027
 C276 C 0.26669 1.04760 -0.06524
 C277 C 0.27947 1.04380 -0.04349
 C278 C 0.27911 1.02834 -0.02727
 H279 H 0.28673 1.01211 0.05997
 H280 H 0.28554 1.03924 0.08665
 H281 H 0.23807 1.05182 0.03958
 H282 H 0.24015 1.02494 0.01238
 H283 H 0.28968 0.97502 0.01287
 H284 H 0.29073 0.94776 0.04077
 H285 H 0.24363 0.98942 0.06100
 H286 H 0.24044 0.97498 -0.00905
 H287 H 0.23835 0.94825 -0.03672
 H288 H 0.28515 0.96179 -0.08520
 H289 H 0.28637 0.98873 -0.05800
 H290 H 0.24307 1.01050 -0.05781
 H291 H 0.24323 1.03728 -0.08574
 H292 H 0.29021 1.05239 -0.03948
 H293 H 0.28918 1.02576 -0.01100
 H294 H 0.24455 0.96217 0.08888
 C295 C 0.76476 0.50007 0.48356
 C296 C 0.76513 0.50019 0.51423
 C297 C 0.76394 0.51651 0.53154
 C298 C 0.76637 0.48396 0.53198
 C299 C 0.76335 0.48370 0.46641
 C300 C 0.76543 0.51631 0.46575
 C301 C 0.77652 0.52048 0.55310
 C302 C 0.77564 0.53589 0.56923
 C303 C 0.76206 0.54757 0.56429
 C304 C 0.74928 0.54339 0.54307
 C305 C 0.75017 0.52797 0.52695
 C306 C 0.77964 0.47204 0.52661
 C307 C 0.78025 0.45650 0.54260
 C308 C 0.76772 0.45270 0.56453
 C309 C 0.75474 0.46488 0.57042
 C310 C 0.75411 0.48038 0.55435
 C311 C 0.74989 0.47201 0.47218
 C312 C 0.74901 0.45638 0.45671
 C313 C 0.76146 0.45222 0.43489
 C314 C 0.77465 0.46418 0.42859
 C315 C 0.77554 0.47979 0.44415
 C316 C 0.75260 0.51977 0.44434
 C317 C 0.75266 0.53531 0.42838
 C318 C 0.76564 0.54767 0.43337
 C319 C 0.77877 0.54396 0.45421
 C320 C 0.77870 0.52839 0.47015
 H321 H 0.78714 0.51171 0.55717
 H322 H 0.78551 0.53861 0.58578
 H323 H 0.73873 0.55216 0.53860
 H324 H 0.74016 0.52499 0.51079
 H325 H 0.78945 0.47472 0.50988
 H326 H 0.79057 0.44750 0.53795
 H327 H 0.74380 0.48943 0.55888
 H328 H 0.74012 0.47497 0.48880
 H329 H 0.73851 0.44759 0.46164
 H330 H 0.78450 0.46129 0.41209
 H331 H 0.78597 0.48869 0.43928
 H332 H 0.74233 0.51055 0.44042
 H333 H 0.74254 0.53766 0.41210
 H334 H 0.78889 0.55325 0.45868
 H335 H 0.78889 0.52584 0.48621
 H336 H 0.74480 0.46225 0.58694
 O337 O 0.24565 0.22333 0.25034
 O338 O 0.24153 0.26567 0.28696
 O339 O 0.22244 0.24757 0.25058
 O340 O 0.26478 0.24154 0.28662
 O341 O 0.27743 0.25391 0.24767
 O342 O 0.23510 0.25995 0.21166
 O343 O 0.25419 0.27806 0.24806
 O344 O 0.25830 0.23569 0.21140
 Cu345 Cu 0.24233 0.24328 0.27251
 Cu346 Cu 0.25752 0.25813 0.22578
 C347 C 0.25264 0.22226 0.22457
 C348 C 0.24720 0.27911 0.27385
 C349 C 0.22152 0.25479 0.22493
 C350 C 0.27835 0.24678 0.27339
 O351 O 0.75322 0.77834 0.25115
 O352 O 0.75915 0.73603 0.28759
 O353 O 0.77734 0.75504 0.25093
 O354 O 0.73507 0.75942 0.28789
 O355 O 0.72260 0.74674 0.24922
 O356 O 0.76488 0.74237 0.21224
 O357 O 0.74669 0.72336 0.24890
 O358 O 0.74075 0.76565 0.21249
 Cu359 Cu 0.75745 0.75847 0.27327
 Cu360 Cu 0.74248 0.74325 0.22685
 C361 C 0.74599 0.77924 0.22555
 C362 C 0.75391 0.72244 0.27450
 C363 C 0.77835 0.74801 0.22521
 C364 C 0.72159 0.75384 0.27489
 O365 O 0.77782 0.24615 0.25250
 O366 O 0.73546 0.24009 0.28850
 O367 O 0.75455 0.22199 0.25215
 O368 O 0.75870 0.26437 0.28874
 O369 O 0.74610 0.27669 0.24977
 O370 O 0.74193 0.23434 0.21322
 O371 O 0.72284 0.25243 0.24956
 O372 O 0.76522 0.25849 0.21353
 Cu373 Cu 0.75790 0.24193 0.27439
 Cu374 Cu 0.74276 0.25674 0.22763
 C375 C 0.77878 0.25327 0.22677
 C376 C 0.72189 0.24523 0.27522
 C377 C 0.74757 0.22092 0.22636
 C378 C 0.75306 0.27779 0.27555
 O379 O 0.25953 0.76429 0.21190
 O380 O 0.25335 0.72201 0.24839
 O381 O 0.23537 0.74090 0.21148
 O382 O 0.27754 0.74529 0.24874
 O383 O 0.26500 0.75800 0.28730
 O384 O 0.22281 0.75361 0.25002
 O385 O 0.24081 0.73473 0.28693
 O386 O 0.24699 0.77699 0.25047
 Cu387 Cu 0.25770 0.74186 0.22625
 Cu388 Cu 0.24265 0.75712 0.27253
 C389 C 0.25429 0.77789 0.22492
 C390 C 0.24605 0.72113 0.27394
 C391 C 0.22186 0.74648 0.22437
 C392 C 0.27849 0.75233 0.27446
 O393 O 0.75339 0.22287 0.74897
 O394 O 0.75963 0.26508 0.71240
 O395 O 0.77760 0.24621 0.74936
 O396 O 0.73538 0.24186 0.71213
 O397 O 0.72289 0.25462 0.75068
 O398 O 0.76508 0.25897 0.78788
 O399 O 0.74712 0.27786 0.75092
 O400 O 0.74089 0.23562 0.78753
 Cu401 Cu 0.75775 0.24271 0.72687
 Cu402 Cu 0.74274 0.25803 0.77312
 C403 C 0.74609 0.22200 0.77453
 C404 C 0.75442 0.27871 0.72536
 C405 C 0.77857 0.25336 0.77499
 C406 C 0.72191 0.24756 0.72498
 O407 O 0.27722 0.74834 0.74969
 O408 O 0.23489 0.74206 0.78575
 O409 O 0.25407 0.72398 0.74944
 O410 O 0.25808 0.76630 0.78614
 O411 O 0.24540 0.77865 0.74726
 O412 O 0.24140 0.73629 0.71053
 O413 O 0.22222 0.75439 0.74685
 O414 O 0.26454 0.76068 0.71082
 Cu415 Cu 0.25734 0.74392 0.77164
 Cu416 Cu 0.24212 0.75872 0.72495
 C417 C 0.27813 0.75559 0.72407
 C418 C 0.22131 0.74724 0.77255
 C419 C 0.24709 0.72288 0.72367
 C420 C 0.25238 0.77972 0.77305
 O421 O 0.25326 0.27682 0.75039
 O422 O 0.25932 0.23454 0.78676
 O423 O 0.27737 0.25345 0.74988
 O424 O 0.23518 0.25780 0.78719
 O425 O 0.22263 0.24511 0.74861
 O426 O 0.26481 0.24076 0.71132
 O427 O 0.24676 0.22184 0.74820
 O428 O 0.24070 0.26414 0.71180
 Cu429 Cu 0.25754 0.25694 0.77240
 Cu430 Cu 0.24247 0.24171 0.72610
 C431 C 0.24596 0.27773 0.72485
 C432 C 0.25405 0.22094 0.77375
 C433 C 0.27832 0.24633 0.72422
 C434 C 0.22168 0.25214 0.77434
 O435 O 0.74552 0.72171 0.75357
 O436 O 0.74148 0.76417 0.78991
 O437 O 0.72231 0.74588 0.75382
 O438 O 0.76465 0.73989 0.78977
 O439 O 0.77730 0.75216 0.75074
 O440 O 0.73494 0.75814 0.71476
 O441 O 0.75412 0.77641 0.75084
 O442 O 0.75816 0.73400 0.71454
 Cu443 Cu 0.74223 0.74170 0.77570
 Cu444 Cu 0.75740 0.75642 0.72882
 C445 C 0.75249 0.72059 0.72778
 C446 C 0.74715 0.77756 0.77663
 C447 C 0.72137 0.75295 0.72806
 C448 C 0.77824 0.74500 0.77643
 C449 C 0.25185 0.09466 0.08308
 C450 C 0.25973 0.09656 0.11111
 C451 C 0.26821 0.08256 0.12422
 C452 C 0.26887 0.06669 0.10938
 C453 C 0.26099 0.06444 0.08092
 C454 C 0.25244 0.07883 0.06814
 C455 C 0.25913 0.11291 0.12635
 C456 C 0.25859 0.12664 0.13901
 C457 C 0.25789 0.14274 0.15372
 C458 C 0.25723 0.15651 0.16621
 C459 C 0.25633 0.17297 0.18105
 C460 C 0.26274 0.18777 0.16681
 C461 C 0.26164 0.20381 0.18101
 C462 C 0.25409 0.20524 0.20970
 C463 C 0.24776 0.19026 0.22388
 C464 C 0.24887 0.17424 0.20963
 H465 H 0.24536 0.10548 0.07258
 H466 H 0.27424 0.08385 0.14609
 H467 H 0.27504 0.05612 0.12106
 H468 H 0.24674 0.07829 0.04598
 H469 H 0.26852 0.18693 0.14467
 H470 H 0.26663 0.21508 0.16948
 H471 H 0.24187 0.19091 0.24594
 H472 H 0.24386 0.16286 0.22085
 C473 C 0.77560 0.58937 0.60181
 C474 C 0.75979 0.59552 0.61251
 C475 C 0.74472 0.58596 0.60761
 C476 C 0.74544 0.57035 0.59200
 C477 C 0.76127 0.56407 0.58109
 C478 C 0.77635 0.57376 0.58621
 C479 C 0.75901 0.61168 0.62828
 C480 C 0.75836 0.62527 0.64134
 C481 C 0.75759 0.64124 0.65645
 C482 C 0.75691 0.65493 0.66918
 C483 C 0.75604 0.67135 0.68414
 C484 C 0.74857 0.67260 0.71271
 C485 C 0.74750 0.68860 0.72703
 C486 C 0.75390 0.70358 0.71292
 C487 C 0.76147 0.70216 0.68425
 C488 C 0.76253 0.68614 0.66999
 H489 H 0.78733 0.59670 0.60538
 H490 H 0.73241 0.59059 0.61585
 H491 H 0.73365 0.56309 0.58875
 H492 H 0.78869 0.56939 0.57775
 H493 H 0.74350 0.66122 0.72386
 H494 H 0.74159 0.68925 0.74908
 H495 H 0.76652 0.71342 0.67277
 H496 H 0.76833 0.68532 0.64786
 C497 C 0.72580 0.90604 0.08394
 C498 C 0.73396 0.90477 0.11185
 C499 C 0.74159 0.91935 0.12455
 C500 C 0.74124 0.93514 0.10933
 C501 C 0.73321 0.93674 0.08085
 C502 C 0.72537 0.92181 0.06861
 C503 C 0.73481 0.88842 0.12720
 C504 C 0.73571 0.87471 0.13997
 C505 C 0.73698 0.85864 0.15481
 C506 C 0.73822 0.84490 0.16737
 C507 C 0.73987 0.82847 0.18223
 C508 C 0.74765 0.82742 0.21058
 C509 C 0.74957 0.81142 0.22478
 C510 C 0.74373 0.79623 0.21076
 C511 C 0.73584 0.79744 0.18232
 C512 C 0.73394 0.81346 0.16818
 H513 H 0.71996 0.89477 0.07377
 H514 H 0.74782 0.91853 0.14632
 H515 H 0.74683 0.94613 0.12066
 H516 H 0.71957 0.92188 0.04651
 H517 H 0.75231 0.83896 0.22164
 H518 H 0.75569 0.81094 0.24665
 H519 H 0.73121 0.78601 0.17093
 H520 H 0.72792 0.81412 0.14621
 C521 C 0.22895 0.40457 0.58240
 C522 C 0.23323 0.40374 0.61294
 C523 C 0.23691 0.41892 0.62869
 C524 C 0.23645 0.43486 0.61391
 C525 C 0.23230 0.43582 0.58315
 C526 C 0.22847 0.42050 0.56758
 C527 C 0.23420 0.38729 0.62795
 C528 C 0.23520 0.37350 0.64042
 C529 C 0.23656 0.35734 0.65493
 C530 C 0.23789 0.34353 0.66725
 C531 C 0.23964 0.32705 0.68191
 C532 C 0.24748 0.32594 0.71019
 C533 C 0.24947 0.30991 0.72425
 C534 C 0.24364 0.29474 0.71015
 C535 C 0.23570 0.29600 0.68177
 C536 C 0.23373 0.31205 0.66776
 H537 H 0.22615 0.39290 0.56996
 H538 H 0.24022 0.41842 0.65235
 H539 H 0.23926 0.44644 0.62658
 H540 H 0.22547 0.42079 0.54380
 H541 H 0.25212 0.33746 0.72133
 H542 H 0.25564 0.30939 0.74608
 H543 H 0.23108 0.28459 0.67032
 H544 H 0.22766 0.31276 0.64585
 C545 C 0.90619 0.25239 0.08495
 C546 C 0.90402 0.26165 0.11153
 C547 C 0.91768 0.27136 0.12287
 C548 C 0.93349 0.27188 0.10774
 C549 C 0.93614 0.26261 0.08058
 C550 C 0.92194 0.25281 0.06968
 C551 C 0.88775 0.26115 0.12714
 C552 C 0.87410 0.26066 0.14012
 C553 C 0.85809 0.25996 0.15519
 C554 C 0.84438 0.25924 0.16796
 C555 C 0.82799 0.25819 0.18307
 C556 C 0.82688 0.25079 0.21175
 C557 C 0.81089 0.24934 0.22613
 C558 C 0.79578 0.25529 0.21196
 C559 C 0.79706 0.26286 0.18324
 C560 C 0.81307 0.26429 0.16891
 H561 H 0.89559 0.24495 0.07577
 H562 H 0.91620 0.27845 0.14369
 H563 H 0.94370 0.27897 0.11866
 H564 H 0.92235 0.24606 0.04849
 H565 H 0.83835 0.24601 0.22290
 H566 H 0.81036 0.24345 0.24822
 H567 H 0.78569 0.26756 0.17172
 H568 H 0.81378 0.27003 0.14670
 C569 C 0.40470 0.77267 0.58144
 C570 C 0.40395 0.76892 0.61222
 C571 C 0.41917 0.76567 0.62815
 C572 C 0.43508 0.76599 0.61332
 C573 C 0.43596 0.76957 0.58231
 C574 C 0.42059 0.77302 0.56656
 C575 C 0.38754 0.76797 0.62728
 C576 C 0.37378 0.76695 0.63982
 C577 C 0.35767 0.76553 0.65439
 C578 C 0.34389 0.76413 0.66674
 C579 C 0.32742 0.76228 0.68138
 C580 C 0.32635 0.75449 0.70974
 C581 C 0.31033 0.75238 0.72373
 C582 C 0.29514 0.75804 0.70948
 C583 C 0.29637 0.76594 0.68101
 C584 C 0.31241 0.76803 0.66708
 H585 H 0.39299 0.77513 0.56886
 H586 H 0.41874 0.76277 0.65199
 H587 H 0.44669 0.76349 0.62612
 H588 H 0.42083 0.77558 0.54261
 H589 H 0.33790 0.74997 0.72099
 H590 H 0.30984 0.74625 0.74564
 H591 H 0.28493 0.77044 0.66943
 H592 H 0.31309 0.77406 0.64509
 C593 C 0.09557 0.73004 0.08103
 C594 C 0.09625 0.73472 0.11139
 C595 C 0.08101 0.73857 0.12683
 C596 C 0.06514 0.73789 0.11192
 C597 C 0.06433 0.73334 0.08134
 C598 C 0.07972 0.72934 0.06609
 C599 C 0.11262 0.73585 0.12654
 C600 C 0.12635 0.73693 0.13913
 C601 C 0.14244 0.73833 0.15375
 C602 C 0.15620 0.73962 0.16616
 C603 C 0.17266 0.74124 0.18087
 C604 C 0.17379 0.74906 0.20913
 C605 C 0.18979 0.75076 0.22333
 C606 C 0.20489 0.74465 0.20940
 C607 C 0.20361 0.73679 0.18099
 C608 C 0.18760 0.73510 0.16684
 H609 H 0.10730 0.72710 0.06884
 H610 H 0.08139 0.74218 0.15035
 H611 H 0.05351 0.74084 0.12436
 H612 H 0.07955 0.72603 0.04244
 H613 H 0.16231 0.75387 0.22018
 H614 H 0.19033 0.75687 0.24519
 H615 H 0.21498 0.73195 0.16966
 H616 H 0.18687 0.72904 0.14495
 C617 C 0.58164 0.23598 0.62538
 C618 C 0.59670 0.24015 0.60958
 C619 C 0.59586 0.24368 0.57873
 C620 C 0.58004 0.24303 0.56371
 C621 C 0.56482 0.23883 0.57938
 C622 C 0.56579 0.23531 0.61040
 C623 C 0.61301 0.24082 0.62499
 C624 C 0.62669 0.24140 0.63783
 C625 C 0.64273 0.24214 0.65278
 C626 C 0.65644 0.24283 0.66550
 C627 C 0.67283 0.24377 0.68062
 C628 C 0.67399 0.25129 0.70913
 C629 C 0.68993 0.25244 0.72366
 C630 C 0.70496 0.24606 0.70984
 C631 C 0.70364 0.23844 0.68123
 C632 C 0.68767 0.23731 0.66674
 H633 H 0.58213 0.23327 0.64929
 H634 H 0.60745 0.24688 0.56626
 H635 H 0.57974 0.24557 0.53975
 H636 H 0.55428 0.23223 0.62315
 H637 H 0.66257 0.25634 0.72007
 H638 H 0.69050 0.25838 0.74565
 H639 H 0.71495 0.23341 0.66997
 H640 H 0.68692 0.23147 0.64467
 C641 C 0.74109 0.08154 0.87346
 C642 C 0.73347 0.09599 0.88659
 C643 C 0.72532 0.09443 0.91448
 C644 C 0.72490 0.07852 0.92938
 C645 C 0.73274 0.06373 0.91671
 C646 C 0.74076 0.06561 0.88825
 C647 C 0.73433 0.11248 0.87170
 C648 C 0.73526 0.12630 0.85928
 C649 C 0.73658 0.14247 0.84479
 C650 C 0.73788 0.15628 0.83244
 C651 C 0.73965 0.17275 0.81770
 C652 C 0.73379 0.18776 0.83181
 C653 C 0.73580 0.20379 0.81773
 C654 C 0.74372 0.20501 0.78930
 C655 C 0.74949 0.18983 0.77525
 C656 C 0.74746 0.17381 0.78938
 H657 H 0.74732 0.08257 0.85171
 H658 H 0.71949 0.10559 0.92499
 H659 H 0.71911 0.07823 0.95149
 H660 H 0.74635 0.05474 0.87661
 H661 H 0.72774 0.18708 0.85376
 H662 H 0.73122 0.21522 0.82915
 H663 H 0.75563 0.19031 0.75338
 H664 H 0.75206 0.16228 0.77827
 C665 C 0.23707 0.58050 0.37291
 C666 C 0.23345 0.59581 0.38826
 C667 C 0.22925 0.59526 0.41887
 C668 C 0.22879 0.57948 0.43414
 C669 C 0.23256 0.56402 0.41897
 C670 C 0.23663 0.56470 0.38814
 C671 C 0.23440 0.61212 0.37278
 C672 C 0.23538 0.62579 0.35991
 C673 C 0.23672 0.64183 0.34498
 C674 C 0.23802 0.65555 0.33234
 C675 C 0.23973 0.67196 0.31742
 C676 C 0.23378 0.68698 0.33137
 C677 C 0.23575 0.70298 0.31717
 C678 C 0.24371 0.70416 0.28877
 C679 C 0.24956 0.68896 0.27486
 C680 C 0.24758 0.67298 0.28911
 H681 H 0.24031 0.58078 0.34921
 H682 H 0.22650 0.60705 0.43100
 H683 H 0.22585 0.57940 0.45796
 H684 H 0.23939 0.55301 0.37578
 H685 H 0.22771 0.68634 0.35330
 H686 H 0.23110 0.71442 0.32849
 H687 H 0.25574 0.68942 0.25302
 H688 H 0.25225 0.66143 0.27813
 C689 C 0.26756 0.91880 0.87635
 C690 C 0.25933 0.90457 0.88930
 C691 C 0.25181 0.90606 0.91771
 C692 C 0.25251 0.92171 0.93321
 C693 C 0.26082 0.93632 0.92061
 C694 C 0.26833 0.93448 0.89175
 C695 C 0.25864 0.88840 0.87348
 C696 C 0.25805 0.87483 0.86035
 C697 C 0.25733 0.85889 0.84513
 C698 C 0.25668 0.84523 0.83229
 C699 C 0.25585 0.82885 0.81717
 C700 C 0.26236 0.81404 0.83116
 C701 C 0.26134 0.79807 0.81674
 C702 C 0.25376 0.79670 0.78807
 C703 C 0.24734 0.81169 0.77412
 C704 C 0.24838 0.82765 0.78860
 H705 H 0.27330 0.91782 0.85420
 H706 H 0.24553 0.89505 0.92808
 H707 H 0.24710 0.92193 0.95562
 H708 H 0.27428 0.94524 0.88020
 H709 H 0.26817 0.81482 0.85328
 H710 H 0.26640 0.78679 0.82810
 H711 H 0.24143 0.81108 0.75208
 H712 H 0.24329 0.83904 0.77758
 C713 C 0.76384 0.41852 0.37321
 C714 C 0.75974 0.40346 0.38912
 C715 C 0.75615 0.40433 0.41993
 C716 C 0.75666 0.42019 0.43480
 C717 C 0.76078 0.43541 0.41902
 C718 C 0.76437 0.43440 0.38804
 C719 C 0.75921 0.38711 0.37388
 C720 C 0.75873 0.37338 0.36121
 C721 C 0.75811 0.35729 0.34648
 C722 C 0.75750 0.34353 0.33396
 C723 C 0.75666 0.32707 0.31910
 C724 C 0.76306 0.31229 0.33335
 C725 C 0.76200 0.29626 0.31913
 C726 C 0.75450 0.29481 0.29042
 C727 C 0.74818 0.30977 0.27622
 C728 C 0.74926 0.32578 0.29049
 H729 H 0.76659 0.41800 0.34933
 H730 H 0.75302 0.39274 0.43248
 H731 H 0.75408 0.42051 0.45873
 H732 H 0.76739 0.44591 0.37522
 H733 H 0.76881 0.31314 0.35551
 H734 H 0.76698 0.28500 0.33067
 H735 H 0.74233 0.30910 0.25414
 H736 H 0.74426 0.33715 0.27927
 C737 C 0.09574 0.25606 0.92110
 C738 C 0.09656 0.25954 0.89023
 C739 C 0.08150 0.26369 0.87447
 C740 C 0.06567 0.26438 0.88951
 C741 C 0.06471 0.26091 0.92055
 C742 C 0.07993 0.25673 0.93618
 C743 C 0.11286 0.25885 0.87476
 C744 C 0.12653 0.25826 0.86186
 C745 C 0.14255 0.25752 0.84683
 C746 C 0.15625 0.25683 0.83405
 C747 C 0.17263 0.25590 0.81887
 C748 C 0.17375 0.24842 0.79033
 C749 C 0.18968 0.24729 0.77573
 C750 C 0.20474 0.25363 0.78954
 C751 C 0.20346 0.26121 0.81818
 C752 C 0.18750 0.26233 0.83272
 H753 H 0.10733 0.25288 0.93354
 H754 H 0.08198 0.26636 0.85055
 H755 H 0.05416 0.26743 0.87680
 H756 H 0.07964 0.25423 0.96016
 H757 H 0.16231 0.24340 0.77940
 H758 H 0.19022 0.24137 0.75371
 H759 H 0.21479 0.26621 0.82943
 H760 H 0.18679 0.26814 0.85483
 C761 C 0.58862 0.74854 0.39988
 C762 C 0.59595 0.76367 0.38832
 C763 C 0.58738 0.77942 0.39185
 C764 C 0.57156 0.78005 0.40695
 C765 C 0.56410 0.76489 0.41867
 C766 C 0.57281 0.74912 0.41495
 C767 C 0.61229 0.76299 0.37300
 C768 C 0.62601 0.76224 0.36029
 C769 C 0.64209 0.76117 0.34556
 C770 C 0.65586 0.76012 0.33308
 C771 C 0.67232 0.75874 0.31830
 C772 C 0.67350 0.75102 0.28996
 C773 C 0.68952 0.74945 0.27577
 C774 C 0.70459 0.75560 0.28979
 C775 C 0.70326 0.76340 0.31825
 C776 C 0.68722 0.76494 0.33239
 H777 H 0.59518 0.73629 0.39738
 H778 H 0.59292 0.79122 0.38293
 H779 H 0.56507 0.79234 0.40916
 H780 H 0.56754 0.73728 0.42411
 H781 H 0.66205 0.74615 0.27888
 H782 H 0.69010 0.74340 0.25388
 H783 H 0.71460 0.76826 0.32964
 H784 H 0.68645 0.77092 0.35434
 C785 C 0.90477 0.72825 0.91889
 C786 C 0.90406 0.73222 0.88819
 C787 C 0.91931 0.73561 0.87236
 C788 C 0.93520 0.73520 0.88721
 C789 C 0.93603 0.73137 0.91813
 C790 C 0.92064 0.72781 0.93378
 C791 C 0.88767 0.73319 0.87309
 C792 C 0.87393 0.73420 0.86055
 C793 C 0.85781 0.73557 0.84598
 C794 C 0.84403 0.73690 0.83365
 C795 C 0.82756 0.73865 0.81905
 C796 C 0.82646 0.74636 0.79062
 C797 C 0.81043 0.74836 0.77665
 C798 C 0.79526 0.74267 0.79100
 C799 C 0.79651 0.73486 0.81953
 C800 C 0.81256 0.73288 0.83344
 H801 H 0.89304 0.72568 0.93139
 H802 H 0.91891 0.73868 0.84858
 H803 H 0.94683 0.73779 0.87449
 H804 H 0.92084 0.72507 0.95767
 H805 H 0.83800 0.75089 0.77929
 H806 H 0.80992 0.75442 0.75469
 H807 H 0.78508 0.73034 0.83118
 H808 H 0.81326 0.72692 0.85548
 C809 C 0.41861 0.23356 0.37296
 C810 C 0.40356 0.23815 0.38836
 C811 C 0.40436 0.24227 0.41895
 C812 C 0.42015 0.24183 0.43411
 C813 C 0.43537 0.23724 0.41883
 C814 C 0.43442 0.23310 0.38808
 C815 C 0.38729 0.23869 0.37279
 C816 C 0.37364 0.23922 0.35985
 C817 C 0.35763 0.23996 0.34482
 C818 C 0.34392 0.24071 0.33209
 C819 C 0.32753 0.24179 0.31702
 C820 C 0.31259 0.23570 0.33118
 C821 C 0.29659 0.23715 0.31688
 C822 C 0.29534 0.24475 0.28818
 C823 C 0.31047 0.25070 0.27402
 C824 C 0.32645 0.24923 0.28837
 H825 H 0.41814 0.23040 0.34925
 H826 H 0.39278 0.24579 0.43111
 H827 H 0.42042 0.24485 0.45787
 H828 H 0.44593 0.22971 0.37563
 H829 H 0.31328 0.22993 0.35338
 H830 H 0.28520 0.23244 0.32840
 H831 H 0.30996 0.25662 0.25194
 H832 H 0.33794 0.25401 0.27721
 C833 C 0.74812 0.90548 0.91713
 C834 C 0.74027 0.90353 0.88909
 C835 C 0.73185 0.91754 0.87585
 C836 C 0.73122 0.93344 0.89058
 C837 C 0.73907 0.93573 0.91905
 C838 C 0.74757 0.92134 0.93196
 C839 C 0.74083 0.88715 0.87397
 C840 C 0.74135 0.87339 0.86141
 C841 C 0.74201 0.85726 0.84683
 C842 C 0.74266 0.84346 0.83445
 C843 C 0.74353 0.82696 0.81975
 C844 C 0.73712 0.81220 0.83412
 C845 C 0.73820 0.79613 0.82005
 C846 C 0.74572 0.79461 0.79136
 C847 C 0.75205 0.80955 0.77704
 C848 C 0.75096 0.82561 0.79117
 H849 H 0.75457 0.89465 0.92772
 H850 H 0.72584 0.91621 0.85397
 H851 H 0.72509 0.94400 0.87881
 H852 H 0.75324 0.92191 0.95414
 H853 H 0.73135 0.81310 0.85627
 H854 H 0.73321 0.78489 0.83169
 H855 H 0.75792 0.80884 0.75497
 H856 H 0.75597 0.83695 0.77984
 C857 C 0.23575 0.41918 0.37438
 C858 C 0.24009 0.40402 0.38977
 C859 C 0.24375 0.40463 0.42057
 C860 C 0.24307 0.42032 0.43595
 C861 C 0.23870 0.43563 0.42069
 C862 C 0.23504 0.43489 0.38972
 C863 C 0.24078 0.38784 0.37401
 C864 C 0.24137 0.37426 0.36092
 C865 C 0.24209 0.35830 0.34575
 C866 C 0.24276 0.34463 0.33295
 C867 C 0.24361 0.32825 0.31786
 C868 C 0.23713 0.31342 0.33189
 C869 C 0.23819 0.29744 0.31750
 C870 C 0.24577 0.29609 0.28883
 C871 C 0.25217 0.31110 0.27483
 C872 C 0.25109 0.32707 0.28928
 H873 H 0.23294 0.41886 0.35052
 H874 H 0.24707 0.39296 0.43273
 H875 H 0.24571 0.42044 0.45986
 H876 H 0.23185 0.44648 0.37729
 H877 H 0.23132 0.31418 0.35402
 H878 H 0.23315 0.28614 0.32890
 H879 H 0.25808 0.31051 0.25279
 H880 H 0.25616 0.33847 0.27822
 C881 C 0.27419 0.09422 0.91558
 C882 C 0.26600 0.09549 0.88770
 C883 C 0.25833 0.08091 0.87506
 C884 C 0.25867 0.06513 0.89032
 C885 C 0.26673 0.06354 0.91877
 C886 C 0.27460 0.07847 0.93095
 C887 C 0.26518 0.11183 0.87230
 C888 C 0.26429 0.12553 0.85950
 C889 C 0.26305 0.14158 0.84462
 C890 C 0.26182 0.15532 0.83202
 C891 C 0.26019 0.17174 0.81713
 C892 C 0.25237 0.17278 0.78882
 C893 C 0.25045 0.18877 0.77459
 C894 C 0.25633 0.20396 0.78855
 C895 C 0.26427 0.20276 0.81694
 C896 C 0.26617 0.18675 0.83111
 H897 H 0.28006 0.10550 0.92571
 H898 H 0.25208 0.08172 0.85331
 H899 H 0.25305 0.05414 0.87904
 H900 H 0.28043 0.07841 0.95303
 H901 H 0.24767 0.16124 0.77781
 H902 H 0.24429 0.18925 0.75275
 H903 H 0.26894 0.21419 0.82829
 H904 H 0.27222 0.18609 0.85305
 C905 C 0.78018 0.58791 0.39141
 C906 C 0.76450 0.59653 0.38734
 C907 C 0.74921 0.58916 0.39816
 C908 C 0.74959 0.57326 0.41302
 C909 C 0.76528 0.56449 0.41727
 C910 C 0.78059 0.57199 0.40630
 C911 C 0.76401 0.61296 0.37219
 C912 C 0.76337 0.62674 0.35959
 C913 C 0.76237 0.64288 0.34494
 C914 C 0.76131 0.65667 0.33248
 C915 C 0.75980 0.67314 0.31767
 C916 C 0.75212 0.67426 0.28926
 C917 C 0.75029 0.69028 0.27512
 C918 C 0.75612 0.70543 0.28924
 C919 C 0.76393 0.70416 0.31774
 C920 C 0.76575 0.68812 0.33184
 H921 H 0.79209 0.59349 0.38307
 H922 H 0.73701 0.59575 0.39523
 H923 H 0.73762 0.56795 0.42160
 H924 H 0.79284 0.56547 0.40894
 H925 H 0.74745 0.66275 0.27811
 H926 H 0.74422 0.69080 0.25320
 H927 H 0.76856 0.71557 0.32922
 H928 H 0.77169 0.68740 0.35385
 C929 C 0.08210 0.72968 0.87546
 C930 C 0.09622 0.73822 0.88804
 C931 C 0.09453 0.74626 0.91594
 C932 C 0.07879 0.74580 0.93127
 C933 C 0.06428 0.73721 0.91901
 C934 C 0.06633 0.72914 0.89069
 C935 C 0.11245 0.73877 0.87234
 C936 C 0.12608 0.73932 0.85931
 C937 C 0.14207 0.74009 0.84419
 C938 C 0.15576 0.74088 0.83139
 C939 C 0.17214 0.74201 0.81626
 C940 C 0.17321 0.74947 0.78762
 C941 C 0.18918 0.75101 0.77323
 C942 C 0.20432 0.74512 0.78736
 C943 C 0.20309 0.73749 0.81605
 C944 C 0.18710 0.73597 0.83039
 H945 H 0.08324 0.72352 0.85369
 H946 H 0.10544 0.75280 0.92603
 H947 H 0.07841 0.75164 0.95331
 H948 H 0.05566 0.72293 0.87939
 H949 H 0.16171 0.75421 0.77650
 H950 H 0.18968 0.75694 0.75117
 H951 H 0.21448 0.73283 0.82754
 H952 H 0.18642 0.73019 0.85258
 C953 C 0.59541 0.22846 0.41814
 C954 C 0.59610 0.23246 0.38745
 C955 C 0.58084 0.23589 0.37172
 C956 C 0.56497 0.23547 0.38665
 C957 C 0.56416 0.23160 0.41757
 C958 C 0.57955 0.22801 0.43312
 C959 C 0.61247 0.23343 0.37227
 C960 C 0.62621 0.23443 0.35966
 C961 C 0.64232 0.23580 0.34502
 C962 C 0.65609 0.23712 0.33263
 C963 C 0.67256 0.23887 0.31797
 C964 C 0.67367 0.24662 0.28956
 C965 C 0.68971 0.24861 0.27555
 C966 C 0.70487 0.24288 0.28982
 C967 C 0.70360 0.23503 0.31832
 C968 C 0.68755 0.23305 0.33228
 H969 H 0.60715 0.22585 0.43056
 H970 H 0.58123 0.23899 0.34795
 H971 H 0.55333 0.23809 0.37400
 H972 H 0.57937 0.22523 0.45700
 H973 H 0.66215 0.25118 0.27830
 H974 H 0.69023 0.25471 0.25362
 H975 H 0.71501 0.23048 0.32991
 H976 H 0.68684 0.22706 0.35429
 C977 C 0.91938 0.26110 0.87293
 C978 C 0.90410 0.26498 0.88826
 C979 C 0.90472 0.26967 0.91861
 C980 C 0.92054 0.27037 0.93366
 C981 C 0.93596 0.26636 0.91852
 C982 C 0.93521 0.26178 0.88794
 C983 C 0.88777 0.26385 0.87301
 C984 C 0.87406 0.26278 0.86035
 C985 C 0.85799 0.26139 0.84566
 C986 C 0.84423 0.26012 0.83322
 C987 C 0.82778 0.25852 0.81850
 C988 C 0.81285 0.26470 0.83250
 C989 C 0.79684 0.26305 0.81834
 C990 C 0.79554 0.25516 0.78995
 C991 C 0.81063 0.24901 0.77604
 C992 C 0.82664 0.25069 0.79025
 H993 H 0.91905 0.25748 0.84942
 H994 H 0.89297 0.27263 0.93073
 H995 H 0.92067 0.27370 0.95730
 H996 H 0.94687 0.25882 0.87559
 H997 H 0.81359 0.27078 0.85438
 H998 H 0.78548 0.26792 0.82966
 H999 H 0.81009 0.24288 0.75420
 H1000 H 0.83811 0.24584 0.77922
 C1001 C 0.40428 0.75640 0.42139
 C1002 C 0.40353 0.75961 0.39043
 C1003 C 0.41866 0.76347 0.37459
 C1004 C 0.43448 0.76415 0.38963
 C1005 C 0.43537 0.76095 0.42077
 C1006 C 0.42008 0.75706 0.43648
 C1007 C 0.38724 0.75895 0.37495
 C1008 C 0.37359 0.75838 0.36204
 C1009 C 0.35757 0.75766 0.34699
 C1010 C 0.34388 0.75699 0.33420
 C1011 C 0.32752 0.75608 0.31900
 C1012 C 0.32640 0.74860 0.29046
 C1013 C 0.31047 0.74747 0.27586
 C1014 C 0.29543 0.75382 0.28965
 C1015 C 0.29671 0.76142 0.31829
 C1016 C 0.31266 0.76253 0.33284
 H1017 H 0.39264 0.75345 0.43389
 H1018 H 0.41824 0.76593 0.35060
 H1019 H 0.44605 0.76698 0.37686
 H1020 H 0.42031 0.75477 0.46052
 H1021 H 0.33783 0.74356 0.27955
 H1022 H 0.30993 0.74155 0.25385
 H1023 H 0.28538 0.76643 0.32953
 H1024 H 0.31338 0.76834 0.35494
 C1025 C 0.26334 0.91901 0.12849
 C1026 C 0.26701 0.90385 0.11272
 C1027 C 0.27123 0.90470 0.08214
 C1028 C 0.27164 0.92062 0.06731
 C1029 C 0.26780 0.93593 0.08289
 C1030 C 0.26373 0.93495 0.11370
 C1031 C 0.26609 0.88740 0.12774
 C1032 C 0.26512 0.87361 0.14024
 C1033 C 0.26377 0.85745 0.15478
 C1034 C 0.26246 0.84365 0.16714
 C1035 C 0.26069 0.82718 0.18185
 C1036 C 0.25286 0.82608 0.21015
 C1037 C 0.25084 0.81006 0.22425
 C1038 C 0.25665 0.79489 0.21018
 C1039 C 0.26459 0.79614 0.18178
 C1040 C 0.26658 0.81218 0.16773
 H1041 H 0.26009 0.91851 0.15218
 H1042 H 0.27402 0.89304 0.06969
 H1043 H 0.27458 0.92092 0.04350
 H1044 H 0.26092 0.94652 0.12638
 H1045 H 0.24823 0.83761 0.22127
 H1046 H 0.24468 0.80955 0.24610
 H1047 H 0.26919 0.78472 0.17035
 H1048 H 0.27265 0.81288 0.14580
 C1049 C 0.76382 0.41934 0.62685
 C1050 C 0.76727 0.40407 0.61126
 C1051 C 0.77122 0.40471 0.58056
 C1052 C 0.77159 0.42054 0.56543
 C1053 C 0.76796 0.43596 0.58083
 C1054 C 0.76416 0.43519 0.61176
 C1055 C 0.76635 0.38772 0.62660
 C1056 C 0.76537 0.37402 0.63939
 C1057 C 0.76400 0.35797 0.65427
 C1058 C 0.76267 0.34425 0.66689
 C1059 C 0.76090 0.32784 0.68182
 C1060 C 0.75304 0.32686 0.71013
 C1061 C 0.75101 0.31089 0.72440
 C1062 C 0.75681 0.29567 0.71050
 C1063 C 0.76477 0.29681 0.68210
 C1064 C 0.76679 0.31280 0.66788
 H1065 H 0.76076 0.41899 0.65063
 H1066 H 0.77384 0.39296 0.56824
 H1067 H 0.77432 0.42069 0.54154
 H1068 H 0.76152 0.44684 0.62430
 H1069 H 0.74842 0.33843 0.72110
 H1070 H 0.74483 0.31046 0.74624
 H1071 H 0.76938 0.28535 0.67079
 H1072 H 0.77287 0.31341 0.64596
 C1073 C 0.73616 0.08086 0.12567
 C1074 C 0.74052 0.09605 0.11033
 C1075 C 0.74420 0.09549 0.07953
 C1076 C 0.74351 0.07982 0.06409
 C1077 C 0.73913 0.06448 0.07929
 C1078 C 0.73546 0.06517 0.11027
 C1079 C 0.74119 0.11221 0.12615
 C1080 C 0.74177 0.12578 0.13927
 C1081 C 0.74248 0.14172 0.15447
 C1082 C 0.74313 0.15539 0.16729
 C1083 C 0.74397 0.17177 0.18239
 C1084 C 0.75143 0.17296 0.21097
 C1085 C 0.75250 0.18893 0.22541
 C1086 C 0.74613 0.20393 0.21140
 C1087 C 0.73857 0.20256 0.18272
 C1088 C 0.73751 0.18658 0.16834
 H1089 H 0.73333 0.08114 0.14953
 H1090 H 0.74753 0.10718 0.06742
 H1091 H 0.74617 0.07973 0.04018
 H1092 H 0.73225 0.05356 0.12266
 H1093 H 0.75648 0.16157 0.22204
 H1094 H 0.75840 0.18954 0.24746
 H1095 H 0.73355 0.21385 0.17132
 H1096 H 0.73173 0.18580 0.14621
 C1097 C 0.23547 0.58208 0.62654
 C1098 C 0.23990 0.59705 0.61061
 C1099 C 0.24374 0.59604 0.57991
 C1100 C 0.24315 0.58015 0.56516
 C1101 C 0.23870 0.56502 0.58095
 C1102 C 0.23485 0.56617 0.61182
 C1103 C 0.24053 0.61343 0.62574
 C1104 C 0.24110 0.62718 0.63831
 C1105 C 0.24182 0.64331 0.65294
 C1106 C 0.24251 0.65709 0.66538
 C1107 C 0.24343 0.67357 0.68018
 C1108 C 0.25089 0.67487 0.70873
 C1109 C 0.25201 0.69090 0.72297
 C1110 C 0.24566 0.70586 0.70879
 C1111 C 0.23811 0.70439 0.68013
 C1112 C 0.23701 0.68835 0.66594
 H1113 H 0.23252 0.58271 0.65033
 H1114 H 0.24714 0.60755 0.56734
 H1115 H 0.24593 0.57973 0.54130
 H1116 H 0.23158 0.55473 0.62466
 H1117 H 0.25591 0.66351 0.71995
 H1118 H 0.25790 0.69157 0.74502
 H1119 H 0.23311 0.71565 0.66860
 H1120 H 0.23122 0.68749 0.64382
 C1121 C 0.90449 0.74382 0.07924
 C1122 C 0.90366 0.74036 0.11011
 C1123 C 0.91871 0.73619 0.12589
 C1124 C 0.93455 0.73547 0.11087
 C1125 C 0.93552 0.73893 0.07982
 C1126 C 0.92031 0.74313 0.06417
 C1127 C 0.88736 0.74107 0.12556
 C1128 C 0.87368 0.74169 0.13841
 C1129 C 0.85764 0.74247 0.15336
 C1130 C 0.84392 0.74319 0.16605
 C1131 C 0.82750 0.74415 0.18110
 C1132 C 0.82632 0.75165 0.20962
 C1133 C 0.81035 0.75282 0.22408
 C1134 C 0.79532 0.74650 0.21015
 C1135 C 0.79666 0.73890 0.18153
 C1136 C 0.81266 0.73775 0.16712
 H1137 H 0.89291 0.74701 0.06679
 H1138 H 0.91822 0.73353 0.14982
 H1139 H 0.94605 0.73240 0.12359
 H1140 H 0.92060 0.74562 0.04020
 H1141 H 0.83774 0.75665 0.22064
 H1142 H 0.80976 0.75874 0.24609
 H1143 H 0.78535 0.73392 0.17019
 H1144 H 0.81343 0.73193 0.14503
 C1145 C 0.40466 0.23012 0.58076
 C1146 C 0.40396 0.23476 0.61114
 C1147 C 0.41921 0.23859 0.62660
 C1148 C 0.43508 0.23791 0.61171
 C1149 C 0.43591 0.23339 0.58111
 C1150 C 0.42051 0.22943 0.56583
 C1151 C 0.38759 0.23587 0.62628
 C1152 C 0.37385 0.23694 0.63887
 C1153 C 0.35775 0.23832 0.65351
 C1154 C 0.34399 0.23958 0.66592
 C1155 C 0.32753 0.24118 0.68065
 C1156 C 0.32641 0.24897 0.70894
 C1157 C 0.31040 0.25064 0.72316
 C1158 C 0.29529 0.24453 0.70923
 C1159 C 0.29657 0.23669 0.68079
 C1160 C 0.31258 0.23504 0.66663
 H1161 H 0.39292 0.22720 0.56854
 H1162 H 0.41882 0.24216 0.65014
 H1163 H 0.44672 0.24083 0.62417
 H1164 H 0.42070 0.22614 0.54217
 H1165 H 0.33790 0.25378 0.71999
 H1166 H 0.30987 0.25674 0.74503
 H1167 H 0.28519 0.23185 0.66946
 H1168 H 0.31330 0.22899 0.64472
 C1169 C 0.09519 0.27153 0.08197
 C1170 C 0.09584 0.26755 0.11267
 C1171 C 0.08056 0.26413 0.12839
 C1172 C 0.06471 0.26454 0.11344
 C1173 C 0.06393 0.26837 0.08252
 C1174 C 0.07935 0.27196 0.06697
 C1175 C 0.11220 0.26659 0.12787
 C1176 C 0.12592 0.26559 0.14049
 C1177 C 0.14201 0.26422 0.15514
 C1178 C 0.15577 0.26290 0.16753
 C1179 C 0.17223 0.26115 0.18219
 C1180 C 0.17331 0.25338 0.21057
 C1181 C 0.18933 0.25138 0.22459
 C1182 C 0.20451 0.25713 0.21033
 C1183 C 0.20328 0.26500 0.18185
 C1184 C 0.18724 0.26698 0.16789
 H1185 H 0.10695 0.27412 0.06955
 H1186 H 0.08092 0.26105 0.15217
 H1187 H 0.05305 0.26192 0.12608
 H1188 H 0.07920 0.27472 0.04309
 H1189 H 0.16177 0.24880 0.22182
 H1190 H 0.18982 0.24527 0.24650
 H1191 H 0.21470 0.26956 0.17027
 H1192 H 0.18656 0.27299 0.14589
 C1193 C 0.58647 0.74676 0.60933
 C1194 C 0.59609 0.76187 0.61340
 C1195 C 0.58990 0.77755 0.60212
 C1196 C 0.57417 0.77814 0.58677
 C1197 C 0.56443 0.76301 0.58248
 C1198 C 0.57074 0.74731 0.59397
 C1199 C 0.61236 0.76124 0.62893
 C1200 C 0.62602 0.76065 0.64184
 C1201 C 0.64204 0.75985 0.65682
 C1202 C 0.65576 0.75906 0.66951
 C1203 C 0.67216 0.75795 0.68454
 C1204 C 0.68710 0.76399 0.67029
 C1205 C 0.70311 0.76253 0.68455
 C1206 C 0.70437 0.75498 0.71329
 C1207 C 0.68924 0.74908 0.72753
 C1208 C 0.67326 0.75055 0.71322
 H1209 H 0.59112 0.73455 0.61803
 H1210 H 0.59727 0.78931 0.60505
 H1211 H 0.56977 0.79037 0.57784
 H1212 H 0.56344 0.73549 0.59136
 H1213 H 0.68640 0.76973 0.64807
 H1214 H 0.71450 0.76719 0.67298
 H1215 H 0.68976 0.74320 0.74963
 H1216 H 0.66177 0.74582 0.72444
   
