data_POSCAR
  _audit_creation_date              2014-09-24
  _audit_creation_method            'ToBaCCo'
  _symmetry_space_group_name_H-M    'P1'
  _symmetry_Int_Tables_number       1
  _symmetry_cell_setting            triclinic
  loop_
  _symmetry_equiv_pos_as_xyz
 x,y,z
_cell_length_a 71.0165
_cell_length_b 71.0884
_cell_length_c 20.2319
_cell_angle_alpha 90.053800
_cell_angle_beta 89.952600
_cell_angle_gamma 119.899000
loop_
  _atom_site_label
  _atom_site_type_symbol
  _atom_site_fract_x
  _atom_site_fract_y
  _atom_site_fract_z
C1 C 0.22741 0.49225 0.46713
 C2 C 0.22691 0.49052 0.53772
 C3 C 0.24349 0.48859 0.56984
 C4 C 0.26153 0.49028 0.53557
 C5 C 0.26236 0.49298 0.46590
 C6 C 0.24561 0.49415 0.43319
 H7 H 0.24605 0.49463 0.37964
 H8 H 0.24359 0.48813 0.62337
 C9 C 0.50937 -0.26321 0.46978
 C10 C 0.50669 -0.26395 0.53980
 C11 C 0.50577 -0.24698 0.57233
 C12 C 0.50779 -0.22888 0.53808
 C13 C 0.50942 -0.22857 0.46807
 C14 C 0.51019 -0.24558 0.43530
 H15 H 0.51202 -0.24461 0.38204
 H16 H 0.50422 -0.24763 0.62573
 C17 C 1.26468 0.77000 0.46308
 C18 C 1.26296 0.77073 0.53310
 C19 C 1.24506 0.75388 0.56574
 C20 C 1.22892 0.73611 0.53093
 C21 C 1.23071 0.73516 0.46162
 C22 C 1.24873 0.75171 0.42880
 H23 H 1.24937 0.75103 0.37534
 H24 H 1.24407 0.75420 0.61918
 C25 C 0.77023 0.50843 0.46696
 C26 C 0.77053 0.50853 0.53721
 C27 C 0.75260 0.50716 0.57142
 C28 C 0.73471 0.50624 0.53819
 C29 C 0.73493 0.50661 0.46787
 C30 C 0.75251 0.50752 0.43364
 H31 H 0.75240 0.50756 0.38001
 H32 H 0.75265 0.50689 0.62498
 C33 C 0.49722 0.26542 0.46845
 C34 C 0.49609 0.26460 0.53879
 C35 C 0.49446 0.24624 0.57092
 C36 C 0.49548 0.22958 0.53610
 C37 C 0.49723 0.23103 0.46604
 C38 C 0.49813 0.24884 0.43363
 H39 H 0.49830 0.24913 0.38001
 H40 H 0.49446 0.24589 0.62446
 C41 C 0.73789 0.22761 0.46585
 C42 C 0.73861 0.22670 0.53562
 C43 C 0.75626 0.24342 0.56965
 C44 C 0.77372 0.26081 0.53616
 C45 C 0.77271 0.26152 0.46581
 C46 C 0.75496 0.24488 0.43216
 H47 H 0.75405 0.24575 0.37882
 H48 H 0.75695 0.24200 0.62280
 N49 N 0.97669 0.52262 0.07143
 N50 N 0.96006 0.52581 0.07995
 N51 N 1.02261 0.53224 0.11566
 N52 N 1.03945 0.54277 0.15529
 N53 N 1.02238 0.54529 0.07020
 N54 N 1.03895 0.56512 0.07807
 N55 N 0.97686 0.50963 0.11723
 N56 N 0.96033 0.50359 0.15801
 C57 C 0.95000 0.51384 0.13426
 C58 C 1.04947 0.56328 0.13133
 N59 N 1.02239 0.47869 0.07049
 N60 N 1.03859 0.47487 0.07952
 N61 N 0.97670 0.46910 0.11779
 N62 N 0.96011 0.45876 0.15847
 N63 N 0.97660 0.45588 0.07231
 N64 N 0.95992 0.43615 0.08083
 N65 N 1.02234 0.49163 0.11671
 N66 N 1.03835 0.49679 0.15888
 Mn67 Mn 0.99963 0.50067 0.11763
 C68 C 1.04842 0.48630 0.13486
 C69 C 0.94979 0.43819 0.13486
 N70 N 1.02189 0.54491 -0.07242
 N71 N 1.03822 0.56474 -0.08228
 N72 N 0.97581 0.50877 -0.11609
 N73 N 0.95936 0.50313 -0.15697
 N74 N 0.97629 0.52235 -0.07115
 N75 N 0.96034 0.52652 -0.08071
 N76 N 1.02160 0.53163 -0.11806
 N77 N 1.03778 0.54204 -0.16000
 Mn78 Mn 0.99932 0.53403 -0.00045
 C79 C 1.04803 0.56269 -0.13711
 C80 C 0.94987 0.51433 -0.13425
 N81 N 0.97607 0.45545 -0.06978
 N82 N 0.96003 0.43540 -0.07875
 N83 N 1.02165 0.49120 -0.11758
 N84 N 1.03837 0.49751 -0.15776
 N85 N 1.02184 0.47826 -0.07168
 N86 N 1.03870 0.47540 -0.07944
 N87 N 0.97599 0.46830 -0.11618
 N88 N 0.96004 0.45731 -0.15842
 Mn89 Mn 0.99923 0.46684 0.00033
 Mn90 Mn 0.99874 0.49997 -0.11777
 Cl91 Cl 0.99922 0.50037 -0.00009
 C92 C 0.95015 0.43683 -0.13420
 C93 C 1.04885 0.48749 -0.13348
 N94 N 0.47721 0.45397 0.07298
 N95 N 0.47411 0.43425 0.08217
 N96 N 0.46635 0.48948 0.11825
 N97 N 0.45554 0.49539 0.15823
 N98 N 0.45338 0.47590 0.07318
 N99 N 0.43334 0.47206 0.08165
 N100 N 0.48979 0.46719 0.11931
 N101 N 0.49542 0.45678 0.16173
 C102 C 0.48558 0.43626 0.13777
 C103 C 0.43494 0.48435 0.13487
 N104 N 0.51927 0.54339 0.07215
 N105 N 0.52301 0.56333 0.08194
 N106 N 0.52996 0.50798 0.11846
 N107 N 0.54082 0.50244 0.15944
 N108 N 0.54295 0.52135 0.07304
 N109 N 0.56305 0.52546 0.08235
 N110 N 0.50656 0.53032 0.11855
 N111 N 0.50148 0.54106 0.16155
 Mn112 Mn 0.49816 0.49874 0.11943
 C113 C 0.51176 0.56161 0.13784
 C114 C 0.56145 0.51350 0.13636
 N115 N 0.45331 0.47578 -0.06940
 N116 N 0.43330 0.47205 -0.07813
 N117 N 0.49001 0.46700 -0.11499
 N118 N 0.49661 0.45683 -0.15516
 N119 N 0.47712 0.45376 -0.06924
 N120 N 0.47458 0.43418 -0.07711
 N121 N 0.46630 0.48900 -0.11505
 N122 N 0.45554 0.49464 -0.15595
 Mn123 Mn 0.46501 0.46460 0.00189
 C124 C 0.43496 0.48396 -0.13241
 C125 C 0.48684 0.43634 -0.13104
 N126 N 0.54289 0.52103 -0.06967
 N127 N 0.56278 0.52434 -0.07778
 N128 N 0.50618 0.52986 -0.11540
 N129 N 0.49946 0.53999 -0.15529
 N130 N 0.51920 0.54316 -0.06996
 N131 N 0.52169 0.56271 -0.07771
 N132 N 0.52986 0.50782 -0.11527
 N133 N 0.54046 0.50176 -0.15549
 Mn134 Mn 0.53132 0.53247 0.00135
 Mn135 Mn 0.49808 0.49843 -0.11592
 Cl136 Cl 0.49814 0.49856 0.00174
 C137 C 0.56100 0.51221 -0.13167
 C138 C 0.50930 0.56049 -0.13126
 N139 N 0.45473 -0.02327 0.07230
 N140 N 0.43482 -0.03961 0.08109
 N141 N 0.49051 0.02243 0.11720
 N142 N 0.49647 0.03911 0.15732
 N143 N 0.47737 0.02226 0.07130
 N144 N 0.47381 0.03866 0.07943
 N145 N 0.46785 -0.02339 0.11776
 N146 N 0.45729 -0.03996 0.15830
 C147 C 0.43669 -0.04990 0.13485
 C148 C 0.48588 0.04905 0.13326
 N149 N 0.54430 0.02276 0.07330
 N150 N 0.56401 0.03949 0.08166
 N151 N 0.50856 -0.02303 0.11917
 N152 N 0.50253 -0.03957 0.15983
 N153 N 0.52192 -0.02290 0.07407
 N154 N 0.52538 -0.03933 0.08290
 N155 N 0.53103 0.02264 0.11867
 N156 N 0.54132 0.03931 0.15905
 Mn157 Mn 0.49947 -0.00036 0.11902
 C158 C 0.56190 0.04967 0.13541
 C159 C 0.51318 -0.04959 0.13666
 N160 N 0.47770 0.02191 -0.07140
 N161 N 0.47439 0.03842 -0.08078
 N162 N 0.46817 -0.02395 -0.11506
 N163 N 0.45771 -0.04062 -0.15530
 N164 N 0.45496 -0.02375 -0.07003
 N165 N 0.43512 -0.04026 -0.07852
 N166 N 0.49083 0.02169 -0.11675
 N167 N 0.49684 0.03804 -0.15807
 Mn168 Mn 0.46596 -0.00069 0.00050
 C169 C 0.48645 0.04834 -0.13511
 C170 C 0.43710 -0.05066 -0.13194
 N171 N 0.52225 -0.02319 -0.06833
 N172 N 0.52624 -0.03930 -0.07678
 N173 N 0.53148 0.02188 -0.11591
 N174 N 0.54219 0.03766 -0.15887
 N175 N 0.54452 0.02247 -0.06900
 N176 N 0.56441 0.03878 -0.07837
 N177 N 0.50876 -0.02378 -0.11367
 N178 N 0.50299 -0.04042 -0.15376
 Mn179 Mn 0.53350 -0.00019 0.00254
 Mn180 Mn 0.49979 -0.00106 -0.11613
 Cl181 Cl 0.49968 -0.00057 0.00148
 C182 C 0.51405 -0.04994 -0.13016
 C183 C 0.56270 0.04813 -0.13464
 C184 C 1.17380 0.48688 0.35733
 C185 C 1.17036 0.47432 0.41420
 C186 C 1.18790 0.47551 0.44890
 C187 C 1.20949 0.48999 0.42932
 C188 C 1.21274 0.50191 0.37046
 C189 C 1.19511 0.50031 0.33490
 C190 C 1.15523 0.48641 0.32296
 N191 N 1.15619 0.49087 0.25736
 N192 N 1.13949 0.49078 0.22699
 C193 C 1.12132 0.48650 0.26123
 N194 N 1.12041 0.48210 0.32682
 N195 N 1.13699 0.48196 0.35700
 C196 C 1.10292 0.48678 0.22821
 C197 C 1.08923 0.49199 0.26430
 C198 C 1.07175 0.49222 0.23351
 C199 C 1.06732 0.48672 0.16647
 C200 C 1.08092 0.48141 0.13031
 C201 C 1.09875 0.48170 0.16075
 H202 H 1.15404 0.46341 0.43168
 H203 H 1.18445 0.46494 0.49111
 H204 H 1.22894 0.51337 0.35334
 H205 H 1.19821 0.51020 0.29115
 H206 H 1.09217 0.49611 0.31626
 H207 H 1.06147 0.49633 0.26246
 H208 H 1.07786 0.47719 0.07844
 H209 H 1.10902 0.47757 0.13189
 C210 C 0.51354 0.68719 0.36385
 C211 C 0.50265 0.69726 0.33662
 C212 C 0.50154 0.71374 0.37104
 C213 C 0.51138 0.72069 0.43369
 C214 C 0.52338 0.71132 0.45861
 C215 C 0.52409 0.69454 0.42482
 C216 C 0.51354 0.66881 0.32954
 N217 N 0.51602 0.65384 0.36419
 N218 N 0.51548 0.63696 0.33373
 C219 C 0.51261 0.63445 0.26729
 N220 N 0.51026 0.64950 0.23253
 N221 N 0.51060 0.66628 0.26309
 C222 C 0.51200 0.61569 0.23366
 C223 C 0.51752 0.61685 0.16648
 C224 C 0.51747 0.59926 0.13528
 C225 C 0.51146 0.58005 0.17034
 C226 C 0.50553 0.57871 0.23709
 C227 C 0.50602 0.59645 0.26865
 H228 H 0.49435 0.69191 0.28963
 H229 H 0.49199 0.72023 0.34969
 H230 H 0.53264 0.71716 0.50382
 H231 H 0.53312 0.68747 0.44616
 H232 H 0.52225 0.63150 0.13835
 H233 H 0.52205 0.60066 0.08367
 H234 H 0.50087 0.56408 0.26524
 H235 H 0.50155 0.59504 0.32035
 C236 C 0.31445 -0.17760 0.35509
 C237 C 0.30856 -0.19908 0.33948
 C238 C 0.29179 -0.21639 0.37389
 C239 C 0.28114 -0.21255 0.42662
 C240 C 0.28700 -0.19092 0.44133
 C241 C 0.30331 -0.17370 0.40566
 C242 C 0.33221 -0.15926 0.31926
 N243 N 0.33167 -0.14064 0.30936
 N244 N 0.34788 -0.12390 0.27822
 C245 C 0.36540 -0.12500 0.25650
 N246 N 0.36597 -0.14360 0.26654
 N247 N 0.34963 -0.16046 0.29698
 C248 C 0.38361 -0.10617 0.22374
 C249 C 0.40500 -0.10203 0.23133
 C250 C 0.42232 -0.08362 0.20275
 C251 C 0.41846 -0.06940 0.16463
 C252 C 0.39704 -0.07381 0.15571
 C253 C 0.37979 -0.09188 0.18578
 H254 H 0.31683 -0.20248 0.30028
 H255 H 0.28782 -0.23276 0.36107
 H256 H 0.27854 -0.18728 0.47933
 H257 H 0.30745 -0.15728 0.41835
 H258 H 0.40837 -0.11276 0.26064
 H259 H 0.43872 -0.08058 0.21003
 H260 H 0.39368 -0.06304 0.12659
 H261 H 0.36342 -0.09478 0.17898
 C262 C 0.82068 0.50660 0.35397
 C263 C 0.81497 0.52259 0.34154
 C264 C 0.79834 0.52295 0.37751
 C265 C 0.78716 0.50739 0.42666
 C266 C 0.79232 0.49100 0.43769
 C267 C 0.80900 0.49068 0.40202
 C268 C 0.83904 0.50683 0.31831
 N269 N 0.84604 0.49286 0.33523
 N270 N 0.86296 0.49349 0.30470
 C271 C 0.87360 0.50809 0.25584
 N272 N 0.86651 0.52198 0.23859
 N273 N 0.84961 0.52138 0.26922
 C274 C 0.89282 0.50917 0.22328
 C275 C 0.90294 0.52320 0.16955
 C276 C 0.92142 0.52459 0.14013
 C277 C 0.93020 0.51207 0.16406
 C278 C 0.92001 0.49791 0.21729
 C279 C 0.90150 0.49644 0.24648
 H280 H 0.82357 0.53506 0.30482
 H281 H 0.79452 0.53567 0.36809
 H282 H 0.78363 0.47863 0.47465
 H283 H 0.81284 0.47803 0.41252
 H284 H 0.89666 0.53319 0.15030
 H285 H 0.92893 0.53560 0.09904
 H286 H 0.92639 0.48800 0.23658
 H287 H 0.89414 0.48546 0.28773
 C288 C 0.49136 0.31418 0.35877
 C289 C 0.50729 0.30884 0.34164
 C290 C 0.50911 0.29291 0.37690
 C291 C 0.49480 0.28182 0.42921
 C292 C 0.47819 0.28644 0.44401
 C293 C 0.47674 0.30274 0.40999
 C294 C 0.49031 0.33198 0.32479
 N295 N 0.48345 0.34413 0.35770
 N296 N 0.48293 0.36054 0.32782
 C297 C 0.48902 0.36531 0.26361
 N298 N 0.49572 0.35306 0.23047
 N299 N 0.49649 0.33680 0.26062
 C300 C 0.48847 0.38356 0.23086
 C301 C 0.48421 0.38288 0.16285
 C302 C 0.48309 0.39996 0.13251
 C303 C 0.48679 0.41824 0.16938
 C304 C 0.49149 0.41912 0.23704
 C305 C 0.49204 0.40180 0.26769
 H306 H 0.51876 0.31745 0.30235
 H307 H 0.52197 0.28956 0.36431
 H308 H 0.46658 0.27770 0.48286
 H309 H 0.46412 0.30636 0.42352
 H310 H 0.48134 0.36895 0.13345
 H311 H 0.47952 0.39899 0.08016
 H312 H 0.49436 0.43303 0.26649
 H313 H 0.49548 0.40277 0.32012
 C314 C 0.68446 0.17802 0.35492
 C315 C 0.68067 0.18936 0.40543
 C316 C 0.69801 0.20579 0.44061
 C317 C 0.71944 0.21101 0.42653
 C318 C 0.72330 0.20011 0.37512
 C319 C 0.70600 0.18377 0.33969
 C320 C 0.66609 0.15995 0.31939
 N321 N 0.66977 0.14982 0.26822
 N322 N 0.65333 0.13314 0.23756
 C323 C 0.63250 0.12585 0.25682
 N324 N 0.62880 0.13605 0.30777
 N325 N 0.64524 0.15276 0.33837
 C326 C 0.61428 0.10680 0.22415
 C327 C 0.59295 0.09798 0.24824
 C328 C 0.57591 0.07952 0.21903
 C329 C 0.57982 0.06952 0.16502
 C330 C 0.60102 0.07849 0.14012
 C331 C 0.61808 0.09692 0.16945
 H332 H 0.66431 0.18545 0.41816
 H333 H 0.69472 0.21425 0.47943
 H334 H 0.73971 0.20392 0.36341
 H335 H 0.70953 0.17542 0.30110
 H336 H 0.58941 0.10517 0.29020
 H337 H 0.55969 0.07300 0.23904
 H338 H 0.60448 0.07115 0.09837
 H339 H 0.63429 0.10331 0.14945
 C340 C 0.49497 0.17776 -0.35707
 C341 C 0.50894 0.18720 -0.41123
 C342 C 0.50933 0.20437 -0.44574
 C343 C 0.49552 0.21247 -0.42786
 C344 C 0.48208 0.20345 -0.37196
 C345 C 0.48171 0.18624 -0.33738
 C346 C 0.49419 0.15909 -0.32192
 N347 N 0.48096 0.14995 -0.26892
 N348 N 0.48004 0.13291 -0.23832
 C349 C 0.49229 0.12430 -0.25948
 N350 N 0.50556 0.13350 -0.31232
 N351 N 0.50649 0.15052 -0.34285
 C352 C 0.49103 0.10508 -0.22650
 C353 C 0.50304 0.09574 -0.25097
 C354 C 0.50159 0.07738 -0.22101
 C355 C 0.48813 0.06795 -0.16584
 C356 C 0.47626 0.07734 -0.14082
 C357 C 0.47767 0.09571 -0.17089
 H358 H 0.51974 0.18142 -0.42700
 H359 H 0.52106 0.21174 -0.48515
 H360 H 0.47112 0.20905 -0.35637
 H361 H 0.47080 0.17941 -0.29568
 H362 H 0.51351 0.10251 -0.29364
 H363 H 0.51097 0.07052 -0.24127
 H364 H 0.46578 0.07041 -0.09823
 H365 H 0.46823 0.10250 -0.15067
 C366 C 0.68266 0.50412 -0.35132
 C367 C 0.70427 0.51720 -0.33063
 C368 C 0.72132 0.51756 -0.36622
 C369 C 0.71728 0.50507 -0.42419
 C370 C 0.69550 0.49132 -0.44302
 C371 C 0.67848 0.49095 -0.40741
 C372 C 0.66460 0.50445 -0.31556
 N373 N 0.64379 0.49212 -0.33668
 N374 N 0.62759 0.49287 -0.30600
 C375 C 0.63147 0.50599 -0.25285
 N376 N 0.65227 0.51825 -0.23144
 N377 N 0.66849 0.51750 -0.26216
 C378 C 0.61342 0.50722 -0.22018
 C379 C 0.61727 0.52085 -0.16531
 C380 C 0.60023 0.52239 -0.13602
 C381 C 0.57904 0.51037 -0.16113
 C382 C 0.57514 0.49659 -0.21539
 C383 C 0.59212 0.49501 -0.24455
 H384 H 0.70809 0.52748 -0.28745
 H385 H 0.73777 0.52848 -0.34988
 H386 H 0.69145 0.48031 -0.48433
 H387 H 0.66200 0.48032 -0.42407
 H388 H 0.63347 0.53046 -0.14519
 H389 H 0.60366 0.53310 -0.09410
 H390 H 0.55895 0.48705 -0.23564
 H391 H 0.58852 0.48432 -0.28660
 C392 C 0.82705 0.30984 -0.35576
 C393 C 0.83052 0.30216 -0.41576
 C394 C 0.81317 0.28547 -0.44998
 C395 C 0.79167 0.27654 -0.42659
 C396 C 0.78849 0.28366 -0.36455
 C397 C 0.80596 0.30007 -0.32964
 C398 C 0.84528 0.32837 -0.32175
 N399 N 0.84472 0.33126 -0.25554
 N400 N 0.86104 0.34823 -0.22543
 C401 C 0.87844 0.36312 -0.26048
 N402 N 0.87896 0.36025 -0.32667
 N403 N 0.86275 0.34317 -0.35664
 C404 C 0.89646 0.38212 -0.22751
 C405 C 0.90947 0.40125 -0.26328
 C406 C 0.92664 0.41919 -0.23251
 C407 C 0.93144 0.41818 -0.16578
 C408 C 0.91848 0.39908 -0.12992
 C409 C 0.90099 0.38128 -0.16033
 H410 H 0.84673 0.30897 -0.43611
 H411 H 0.81676 0.27941 -0.49447
 H412 H 0.77234 0.27743 -0.34429
 H413 H 0.80282 0.30566 -0.28333
 H414 H 0.90626 0.40239 -0.31501
 H415 H 0.93642 0.43373 -0.26125
 H416 H 0.92183 0.39795 -0.07830
 H417 H 0.89126 0.36672 -0.13164
 C418 C 0.51032 -0.17655 -0.35339
 C419 C 0.52516 -0.17257 -0.40461
 C420 C 0.52427 -0.18977 -0.44058
 C421 C 0.50874 -0.21142 -0.42546
 C422 C 0.49442 -0.21530 -0.37225
 C423 C 0.49493 -0.19804 -0.33754
 C424 C 0.51078 -0.15830 -0.31714
 N425 N 0.49215 -0.15984 -0.29353
 N426 N 0.49250 -0.14314 -0.26243
 C427 C 0.51151 -0.12437 -0.25300
 N428 N 0.53016 -0.12291 -0.27605
 N429 N 0.52978 -0.13950 -0.30787
 C430 C 0.51187 -0.10572 -0.21970
 C431 C 0.53002 -0.09113 -0.18240
 C432 C 0.53051 -0.07324 -0.15187
 C433 C 0.51313 -0.06932 -0.15975
 C434 C 0.49501 -0.08385 -0.19714
 C435 C 0.49426 -0.10207 -0.22612
 H436 H 0.53726 -0.15612 -0.41754
 H437 H 0.53620 -0.18610 -0.47911
 H438 H 0.48215 -0.23168 -0.35922
 H439 H 0.48339 -0.20151 -0.29791
 H440 H 0.54375 -0.09366 -0.17650
 H441 H 0.54467 -0.06221 -0.12335
 H442 H 0.48138 -0.08119 -0.20364
 H443 H 0.48013 -0.11303 -0.25489
 C444 C 0.31281 0.49003 -0.35618
 C445 C 0.29104 0.47617 -0.33822
 C446 C 0.27419 0.47641 -0.37330
 C447 C 0.27864 0.49031 -0.42803
 C448 C 0.30055 0.50464 -0.44420
 C449 C 0.31734 0.50439 -0.40920
 C450 C 0.33077 0.48951 -0.32044
 N451 N 0.35168 0.50247 -0.33980
 N452 N 0.36788 0.50185 -0.30879
 C453 C 0.36391 0.48824 -0.25698
 N454 N 0.34299 0.47530 -0.23736
 N455 N 0.32676 0.47592 -0.26846
 C456 C 0.38204 0.48736 -0.22363
 C457 C 0.37826 0.47373 -0.16886
 C458 C 0.39546 0.47271 -0.13866
 C459 C 0.41673 0.48523 -0.16281
 C460 C 0.42053 0.49896 -0.21707
 C461 C 0.40342 0.50004 -0.24707
 H462 H 0.28696 0.46494 -0.29744
 H463 H 0.25762 0.46505 -0.35902
 H464 H 0.30490 0.51670 -0.48256
 H465 H 0.33392 0.51563 -0.42365
 H466 H 0.36201 0.46379 -0.14944
 H467 H 0.39208 0.46201 -0.09679
 H468 H 0.43678 0.50887 -0.23661
 H469 H 0.40697 0.51073 -0.28904
 C470 C 1.17589 0.68434 -0.36251
 C471 C 1.18880 0.67998 -0.40556
 C472 C 1.20614 0.69681 -0.43944
 C473 C 1.21079 0.71832 -0.43177
 C474 C 1.19816 0.72281 -0.38813
 C475 C 1.18086 0.70598 -0.35381
 C476 C 1.15728 0.66638 -0.32741
 N477 N 1.14611 0.67048 -0.28046
 N478 N 1.12927 0.65428 -0.24950
 C479 C 1.12286 0.63328 -0.26430
 N480 N 1.13405 0.62920 -0.31119
 N481 N 1.15091 0.64539 -0.34200
 C482 C 1.10392 0.61520 -0.23074
 C483 C 1.09565 0.59370 -0.25243
 C484 C 1.07754 0.57667 -0.22182
 C485 C 1.06738 0.58073 -0.16859
 C486 C 1.07573 0.60213 -0.14626
 C487 C 1.09377 0.61922 -0.17716
 H488 H 1.18558 0.66355 -0.41301
 H489 H 1.21599 0.69302 -0.47165
 H490 H 1.20152 0.73931 -0.38134
 H491 H 1.17127 0.70993 -0.32103
 H492 H 1.10304 0.59000 -0.29354
 H493 H 1.07149 0.56031 -0.23993
 H494 H 1.06821 0.60571 -0.10525
 H495 H 1.09976 0.63556 -0.15903
 C496 C 0.82351 0.51201 -0.35547
 C497 C 0.80206 0.49714 -0.33729
 C498 C 0.78462 0.49649 -0.37130
 C499 C 0.78824 0.51011 -0.42612
 C500 C 0.80984 0.52527 -0.44329
 C501 C 0.82725 0.52632 -0.40801
 C502 C 0.84191 0.51236 -0.32050
 N503 N 0.86100 0.53120 -0.31303
 N504 N 0.87769 0.53143 -0.28220
 C505 C 0.87603 0.51280 -0.25845
 N506 N 0.85697 0.49395 -0.26617
 N507 N 0.84019 0.49376 -0.29625
 C508 C 0.89469 0.51301 -0.22563
 C509 C 0.89803 0.49520 -0.23165
 C510 C 0.91610 0.49570 -0.20235
 C511 C 0.93077 0.51375 -0.16499
 C512 C 0.92719 0.53136 -0.15779
 C513 C 0.90947 0.53113 -0.18865
 H514 H 0.79877 0.48604 -0.29657
 H515 H 0.76828 0.48454 -0.35664
 H516 H 0.81332 0.53667 -0.48324
 H517 H 0.84366 0.53804 -0.42271
 H518 H 0.88691 0.48108 -0.26016
 H519 H 0.91851 0.48190 -0.20837
 H520 H 0.93833 0.54548 -0.12933
 H521 H 0.90718 0.54501 -0.18305
 C522 C 0.49816 0.31621 -0.34849
 C523 C 0.51174 0.32058 -0.40367
 C524 C 0.51143 0.30368 -0.43975
 C525 C 0.49730 0.28183 -0.42241
 C526 C 0.48447 0.27759 -0.36510
 C527 C 0.48479 0.29453 -0.32899
 C528 C 0.49756 0.33414 -0.31277
 N529 N 0.48434 0.33009 -0.25969
 N530 N 0.48326 0.34615 -0.22926
 C531 C 0.49532 0.36696 -0.25065
 N532 N 0.50863 0.37101 -0.30344
 N533 N 0.50972 0.35496 -0.33383
 C534 C 0.49361 0.38480 -0.21839
 C535 C 0.50522 0.40605 -0.24345
 C536 C 0.50310 0.42277 -0.21471
 C537 C 0.48935 0.41865 -0.16018
 C538 C 0.47796 0.39753 -0.13435
 C539 C 0.48004 0.38076 -0.16322
 H540 H 0.52257 0.33709 -0.41944
 H541 H 0.52254 0.30781 -0.48096
 H542 H 0.47327 0.26110 -0.34985
 H543 H 0.47418 0.29056 -0.28653
 H544 H 0.51585 0.40979 -0.28578
 H545 H 0.51216 0.43892 -0.23550
 H546 H 0.46729 0.39392 -0.09218
 H547 H 0.47089 0.36462 -0.14252
 C548 C 0.68787 0.17303 -0.35672
 C549 C 0.69803 0.16928 -0.41064
 C550 C 0.71500 0.18664 -0.44409
 C551 C 0.72161 0.20814 -0.42589
 C552 C 0.71179 0.21188 -0.37100
 C553 C 0.69517 0.19448 -0.33641
 C554 C 0.66945 0.15465 -0.32289
 N555 N 0.66523 0.15599 -0.25809
 N556 N 0.64850 0.13941 -0.22797
 C557 C 0.63516 0.12094 -0.26170
 N558 N 0.63933 0.11965 -0.32656
 N559 N 0.65619 0.13613 -0.35646
 C560 C 0.61647 0.10258 -0.22870
 C561 C 0.59791 0.08841 -0.26518
 C562 C 0.58025 0.07095 -0.23424
 C563 C 0.58105 0.06702 -0.16662
 C564 C 0.59962 0.08111 -0.13010
 C565 C 0.61708 0.09891 -0.16071
 H566 H 0.69294 0.15289 -0.42669
 H567 H 0.72276 0.18328 -0.48488
 H568 H 0.71666 0.22829 -0.35575
 H569 H 0.68761 0.19781 -0.29499
 H570 H 0.59697 0.09095 -0.31757
 H571 H 0.56612 0.06029 -0.26348
 H572 H 0.60057 0.07845 -0.07780
 H573 H 0.63122 0.10954 -0.13150
 C574 C 1.17929 0.49547 -0.34763
 C575 C 1.18658 0.48113 -0.32900
 C576 C 1.20263 0.47989 -0.36561
 C577 C 1.21164 0.49277 -0.42251
 C578 C 1.20510 0.50795 -0.43873
 C579 C 1.18906 0.50915 -0.40217
 C580 C 1.16110 0.49562 -0.31202
 N581 N 1.15302 0.50831 -0.33320
 N582 N 1.13603 0.50773 -0.30323
 C583 C 1.12639 0.49443 -0.25076
 N584 N 1.13458 0.48187 -0.22920
 N585 N 1.15156 0.48243 -0.25922
 C586 C 1.10694 0.49319 -0.21915
 C587 C 1.09719 0.47976 -0.16395
 C588 C 1.07842 0.47804 -0.13571
 C589 C 1.06897 0.48965 -0.16220
 C590 C 1.07881 0.50326 -0.21677
 C591 C 1.09761 0.50503 -0.24490
 H592 H 1.17950 0.47043 -0.28703
 H593 H 1.20707 0.46795 -0.35125
 H594 H 1.21240 0.51896 -0.47994
 H595 H 1.18415 0.52068 -0.41726
 H596 H 1.10396 0.47045 -0.14272
 H597 H 1.07120 0.46749 -0.09348
 H598 H 1.07193 0.51247 -0.23804
 H599 H 1.10467 0.51554 -0.28730
 C600 C 0.50089 0.68243 -0.34550
 C601 C 0.51658 0.70391 -0.32965
 C602 C 0.51802 0.72126 -0.36598
 C603 C 0.50384 0.71754 -0.41894
 C604 C 0.48753 0.69622 -0.43316
 C605 C 0.48617 0.67880 -0.39709
 C606 C 0.50053 0.66402 -0.31002
 N607 N 0.48742 0.64324 -0.33035
 N608 N 0.48793 0.62683 -0.30033
 C609 C 0.50156 0.63048 -0.24867
 N610 N 0.51451 0.65123 -0.22800
 N611 N 0.51403 0.66764 -0.25805
 C612 C 0.50284 0.61235 -0.21696
 C613 C 0.51644 0.61618 -0.16205
 C614 C 0.51836 0.59928 -0.13379
 C615 C 0.50679 0.57822 -0.15992
 C616 C 0.49296 0.57427 -0.21413
 C617 C 0.49098 0.59115 -0.24231
 H618 H 0.52813 0.70733 -0.29018
 H619 H 0.53067 0.73759 -0.35408
 H620 H 0.47624 0.69305 -0.47328
 H621 H 0.47378 0.66249 -0.41026
 H622 H 0.52576 0.63228 -0.14109
 H623 H 0.52907 0.60277 -0.09185
 H624 H 0.48377 0.55815 -0.23510
 H625 H 0.48036 0.58760 -0.28448
 C626 C 0.31476 -0.17915 -0.35210
 C627 C 0.31899 -0.19161 -0.39739
 C628 C 0.30211 -0.20816 -0.43349
 C629 C 0.28069 -0.21244 -0.42574
 C630 C 0.27629 -0.20048 -0.37924
 C631 C 0.29317 -0.18396 -0.34280
 C632 C 0.33285 -0.16091 -0.31618
 N633 N 0.32890 -0.14969 -0.26906
 N634 N 0.34523 -0.13291 -0.23827
 C635 C 0.36619 -0.12662 -0.25342
 N636 N 0.37012 -0.13791 -0.30032
 N637 N 0.35381 -0.15470 -0.33098
 C638 C 0.38439 -0.10754 -0.22077
 C639 C 0.40586 -0.09947 -0.24272
 C640 C 0.42297 -0.08106 -0.21356
 C641 C 0.41902 -0.07039 -0.16158
 C642 C 0.39766 -0.07859 -0.13882
 C643 C 0.38050 -0.09694 -0.16825
 H644 H 0.33537 -0.18850 -0.40541
 H645 H 0.30580 -0.21748 -0.46824
 H646 H 0.25985 -0.20359 -0.37233
 H647 H 0.28932 -0.17472 -0.30824
 H648 H 0.40947 -0.10720 -0.28303
 H649 H 0.43930 -0.07515 -0.23191
 H650 H 0.39416 -0.07070 -0.09872
 H651 H 0.36419 -0.10276 -0.14996
 C652 C 0.50746 -0.17830 0.35471
 C653 C 0.52417 -0.18318 0.34460
 C654 C 0.52459 -0.19977 0.38048
 C655 C 0.50836 -0.21175 0.42721
 C656 C 0.49128 -0.20741 0.43576
 C657 C 0.49089 -0.19078 0.40022
 C658 C 0.50756 -0.15997 0.31941
 N659 N 0.49293 -0.15365 0.33504
 N660 N 0.49339 -0.13679 0.30488
 C661 C 0.50847 -0.12552 0.25768
 N662 N 0.52302 -0.13192 0.24174
 N663 N 0.52259 -0.14877 0.27202
 C664 C 0.50930 -0.10640 0.22541
 C665 C 0.52364 -0.09585 0.17262
 C666 C 0.52476 -0.07751 0.14334
 C667 C 0.51166 -0.06926 0.16649
 C668 C 0.49721 -0.07985 0.21882
 C669 C 0.49600 -0.09825 0.24785
 H670 H 0.53715 -0.17393 0.30986
 H671 H 0.53789 -0.20290 0.37301
 H672 H 0.47839 -0.21672 0.47078
 H673 H 0.47768 -0.18762 0.40887
 H674 H 0.53407 -0.10172 0.15394
 H675 H 0.53602 -0.06968 0.10296
 H676 H 0.48686 -0.07389 0.23748
 H677 H 0.48477 -0.10594 0.28839
 C678 C 0.31161 0.48979 0.35091
 C679 C 0.30955 0.50846 0.34922
 C680 C 0.29310 0.50923 0.38495
 C681 C 0.27885 0.49161 0.42440
 C682 C 0.28061 0.47281 0.42527
 C683 C 0.29676 0.47185 0.38846
 C684 C 0.32949 0.48922 0.31524
 N685 N 0.32762 0.47004 0.29612
 N686 N 0.34397 0.46951 0.26558
 C687 C 0.36293 0.48810 0.25356
 N688 N 0.36479 0.50728 0.27269
 N689 N 0.34837 0.50784 0.30265
 C690 C 0.38132 0.48742 0.22173
 C691 C 0.40278 0.50396 0.23347
 C692 C 0.42022 0.50291 0.20543
 C693 C 0.41651 0.48554 0.16399
 C694 C 0.39508 0.46923 0.15112
 C695 C 0.37764 0.47003 0.18033
 H696 H 0.32068 0.52245 0.32030
 H697 H 0.29187 0.52382 0.38355
 H698 H 0.26962 0.45900 0.45507
 H699 H 0.29799 0.45728 0.39078
 H700 H 0.40610 0.51751 0.26542
 H701 H 0.43661 0.51574 0.21588
 H702 H 0.39180 0.45566 0.11936
 H703 H 0.36127 0.45712 0.17019
 C704 C 1.17850 0.68488 0.34976
 C705 C 1.17568 0.70064 0.38315
 C706 C 1.19272 0.71700 0.41933
 C707 C 1.21296 0.71809 0.42184
 C708 C 1.21605 0.70273 0.38734
 C709 C 1.19886 0.68606 0.35220
 C710 C 1.16015 0.66714 0.31359
 N711 N 1.15927 0.64781 0.30375
 N712 N 1.14234 0.63160 0.27312
 C713 C 1.12573 0.63415 0.25055
 N714 N 1.12674 0.65355 0.25984
 N715 N 1.14355 0.66968 0.29099
 C716 C 1.10666 0.61602 0.21811
 C717 C 1.09358 0.62012 0.17513
 C718 C 1.07521 0.60296 0.14585
 C719 C 1.06933 0.58140 0.16012
 C720 C 1.08240 0.57727 0.20290
 C721 C 1.10103 0.59442 0.23111
 H722 H 1.16016 0.70008 0.38244
 H723 H 1.19012 0.72880 0.44562
 H724 H 1.23162 0.70339 0.38886
 H725 H 1.20150 0.67418 0.32665
 H726 H 1.09760 0.63660 0.16396
 H727 H 1.06538 0.60656 0.11303
 H728 H 1.07826 0.56077 0.21445
 H729 H 1.11074 0.59077 0.26426
 C730 C 0.49293 0.17827 0.35050
 C731 C 0.47530 0.17535 0.38957
 C732 C 0.47660 0.19257 0.42658
 C733 C 0.49542 0.21305 0.42434
 C734 C 0.51271 0.21624 0.38337
 C735 C 0.51161 0.19891 0.34747
 C736 C 0.49208 0.15973 0.31467
 N737 N 0.51060 0.15932 0.30104
 N738 N 0.50982 0.14227 0.27087
 C739 C 0.49050 0.12505 0.25255
 N740 N 0.47199 0.12555 0.26561
 N741 N 0.47275 0.14250 0.29638
 C742 C 0.48959 0.10592 0.22049
 C743 C 0.47210 0.09240 0.17917
 C744 C 0.47111 0.07411 0.14973
 C745 C 0.48729 0.06875 0.16238
 C746 C 0.50475 0.08222 0.20373
 C747 C 0.50601 0.10077 0.23193
 H748 H 0.46074 0.15961 0.39295
 H749 H 0.46305 0.18989 0.45760
 H750 H 0.52731 0.23199 0.38092
 H751 H 0.52536 0.20164 0.31736
 H752 H 0.45928 0.09604 0.16926
 H753 H 0.45747 0.06395 0.11805
 H754 H 0.51749 0.07847 0.21399
 H755 H 0.51962 0.11085 0.26380
 C756 C 0.68503 0.50983 0.35699
 C757 C 0.68809 0.49184 0.35073
 C758 C 0.70474 0.49111 0.38534
 C759 C 0.71817 0.50805 0.42823
 C760 C 0.71535 0.52616 0.43397
 C761 C 0.69901 0.52713 0.39821
 C762 C 0.66704 0.51032 0.32182
 N763 N 0.66840 0.52948 0.30536
 N764 N 0.65203 0.52988 0.27453
 C765 C 0.63355 0.51113 0.25960
 N766 N 0.63217 0.49198 0.27622
 N767 N 0.64863 0.49158 0.30641
 C768 C 0.61515 0.51157 0.22696
 C769 C 0.59378 0.49464 0.23710
 C770 C 0.57630 0.49534 0.20790
 C771 C 0.57993 0.51272 0.16677
 C772 C 0.60131 0.52945 0.15554
 C773 C 0.61876 0.52901 0.18603
 H774 H 0.67765 0.47837 0.31893
 H775 H 0.70677 0.47706 0.38022
 H776 H 0.72569 0.53943 0.46657
 H777 H 0.69698 0.54115 0.40407
 H778 H 0.59053 0.48104 0.26865
 H779 H 0.55996 0.48220 0.21712
 H780 H 0.60451 0.54305 0.12410
 H781 H 0.63508 0.54222 0.17713
 C782 C 0.82127 0.31520 0.35296
 C783 C 0.81563 0.29373 0.33735
 C784 C 0.79956 0.27635 0.37320
 C785 C 0.78881 0.28005 0.42549
 C786 C 0.79377 0.30138 0.43960
 C787 C 0.80996 0.31881 0.40400
 C788 C 0.83928 0.33366 0.31750
 N789 N 0.84654 0.35444 0.33717
 N790 N 0.86328 0.37094 0.30687
 C791 C 0.87347 0.36739 0.25555
 N792 N 0.86611 0.34662 0.23559
 N793 N 0.84940 0.33013 0.26594
 C794 C 0.89259 0.38567 0.22321
 C795 C 0.90245 0.38199 0.16817
 C796 C 0.92090 0.39909 0.13907
 C797 C 0.92995 0.42022 0.16450
 C798 C 0.91999 0.42400 0.21892
 C799 C 0.90149 0.40692 0.24792
 H800 H 0.82393 0.29033 0.29828
 H801 H 0.79589 0.26001 0.36133
 H802 H 0.78542 0.30453 0.47912
 H803 H 0.81376 0.33510 0.41699
 H804 H 0.89600 0.36586 0.14769
 H805 H 0.92820 0.39572 0.09700
 H806 H 0.92657 0.44015 0.23938
 H807 H 0.89433 0.41036 0.29018
   
