data_POSCAR
  _audit_creation_date              2014-09-24
  _audit_creation_method            'ToBaCCo'
  _symmetry_space_group_name_H-M    'P1'
  _symmetry_Int_Tables_number       1
  _symmetry_cell_setting            triclinic
  loop_
  _symmetry_equiv_pos_as_xyz
 x,y,z
_cell_length_a 25.1671
_cell_length_b 25.5716
_cell_length_c 25.0279
_cell_angle_alpha 91.804300
_cell_angle_beta 90.796700
_cell_angle_gamma 84.809200
loop_
  _atom_site_label
  _atom_site_type_symbol
  _atom_site_fract_x
  _atom_site_fract_y
  _atom_site_fract_z
C1 C -0.00649 0.51648 0.24188
 C2 C 0.00388 0.50331 0.75574
 C3 C 0.25851 0.01054 0.50003
 C4 C 0.73691 -0.02657 0.49016
 C5 C 0.48045 0.24768 1.00128
 C6 C 0.52418 0.74816 1.01161
 B7 B 0.99864 1.06474 0.03132
 B8 B 0.99477 1.06355 -0.03734
 B9 B 1.05278 1.04012 -0.00630
 B10 B 1.03671 1.01013 0.05120
 B11 B 0.96730 1.01223 0.05442
 B12 B 0.94217 1.04639 -0.00106
 B13 B 0.99875 0.95274 -0.03592
 B14 B 1.00224 0.95524 0.03221
 B15 B 0.94384 0.97864 -0.00047
 B16 B 0.96090 1.00805 -0.05805
 B17 B 1.02906 1.00524 -0.06078
 B18 B 1.05593 0.97261 -0.00487
 B19 B 0.55477 0.48660 0.46539
 B20 B 0.55886 0.48565 0.53357
 B21 B 0.53491 0.54274 0.50202
 B22 B 0.49725 0.52483 0.44764
 B23 B 0.49737 0.45734 0.44576
 B24 B 0.53484 0.43242 0.49882
 B25 B 0.44744 0.49510 0.53979
 B26 B 0.44296 0.49542 0.47043
 B27 B 0.46636 0.43869 0.50226
 B28 B 0.50471 0.45610 0.55718
 B29 B 0.50404 0.52334 0.56001
 B30 B 0.46609 0.54802 0.50676
 C31 C 1.04999 1.39864 0.15280
 C32 C 1.00967 1.36369 0.15350
 C33 C 0.96347 1.37921 0.18371
 C34 C 0.95673 1.42901 0.20903
 C35 C 0.99690 1.46413 0.20820
 C36 C 1.04411 1.44703 0.18058
 C37 C 0.92444 1.34448 0.18964
 C38 C 0.93126 1.29376 0.16803
 C39 C 0.97654 1.27654 0.13749
 C40 C 1.01444 1.31315 0.12701
 C41 C 1.05484 1.29842 0.08945
 C42 C 1.05868 1.24900 0.06411
 C43 C 1.02437 1.21154 0.07739
 C44 C 0.98409 1.22435 0.11544
 C45 C 0.95350 1.18404 0.13066
 C46 C 0.96032 1.13426 0.10634
 C47 C 0.99707 1.12157 0.06506
 C48 C 1.02937 1.16165 0.05184
 H49 H 1.08761 1.38853 0.13327
 H50 H 0.92038 1.43878 0.23105
 H51 H 1.07705 1.47152 0.18063
 H52 H 0.88872 1.35618 0.21236
 H53 H 0.89924 1.26936 0.17416
 H54 H 1.08272 1.32525 0.07721
 H55 H 1.08946 1.23969 0.03454
 H56 H 0.92532 1.18920 0.16290
 H57 H 0.93824 1.10530 0.12310
 H58 H 1.05562 1.15645 0.01824
 C59 C 1.01511 0.60938 0.12483
 C60 C 1.00691 0.65921 0.15077
 C61 C 0.98858 0.66152 0.20402
 C62 C 0.98546 0.61549 0.23185
 C63 C 0.99546 0.56546 0.20674
 C64 C 1.00775 0.56350 0.15182
 C65 C 0.97341 0.70980 0.22937
 C66 C 0.97408 0.75598 0.20197
 C67 C 0.99361 0.75546 0.14945
 C68 C 1.01438 0.70696 0.12518
 C69 C 1.04338 0.70825 0.07741
 C70 C 1.05063 0.75590 0.05400
 C71 C 1.02528 0.80304 0.07473
 C72 C 0.99448 0.80244 0.12109
 C73 C 0.96199 0.84780 0.13488
 C74 C 0.96268 0.89257 0.10517
 C75 C 1.00038 0.89858 0.06494
 C76 C 1.02945 0.85066 0.04893
 H77 H 1.02506 0.60515 0.08298
 H78 H 0.97506 0.61840 0.27382
 H79 H 1.01230 0.52705 0.12891
 H80 H 0.95950 0.71181 0.27025
 H81 H 0.96168 0.79217 0.22360
 H82 H 1.06308 0.67308 0.05902
 H83 H 1.07469 0.75559 0.01848
 H84 H 0.93138 0.84770 0.16476
 H85 H 0.92806 0.91876 0.11044
 H86 H 1.05654 0.84913 0.01690
 C87 C 1.03897 1.35574 -0.22681
 C88 C 1.02149 1.34685 -0.17522
 C89 C 0.99465 1.38965 -0.14603
 C90 C 0.99072 1.44088 -0.16637
 C91 C 1.01085 1.44960 -0.21713
 C92 C 1.03210 1.40535 -0.24768
 C93 C 0.97072 1.38041 -0.09765
 C94 C 0.97049 1.32942 -0.07949
 C95 C 0.99694 1.28603 -0.10775
 C96 C 1.02668 1.29580 -0.15361
 C97 C 1.06104 1.25438 -0.17615
 C98 C 1.06321 1.20396 -0.15655
 C99 C 1.02938 1.19244 -0.11568
 C100 C 0.99524 1.23316 -0.09168
 C101 C 0.95998 1.21910 -0.05322
 C102 C 0.95932 1.16718 -0.03884
 C103 C 0.99292 1.12471 -0.06165
 C104 C 1.02976 1.14034 -0.09871
 H105 H 1.05528 1.32437 -0.25325
 H106 H 0.97051 1.47338 -0.14367
 H107 H 1.04410 1.40890 -0.28866
 H108 H 0.95036 1.41258 -0.07458
 H109 H 0.95062 1.32526 -0.04216
 H110 H 1.08814 1.26042 -0.20796
 H111 H 1.09039 1.17340 -0.17475
 H112 H 0.93198 1.24742 -0.03334
 H113 H 0.93446 1.16293 -0.00528
 H114 H 1.05977 1.11302 -0.11517
 C115 C 1.04934 0.60691 -0.13995
 C116 C 1.02128 0.65354 -0.15828
 C117 C 0.98387 0.64887 -0.20022
 C118 C 0.98176 0.60138 -0.22816
 C119 C 1.00625 0.55387 -0.20845
 C120 C 1.04011 0.55753 -0.16326
 C121 C 0.94867 0.69164 -0.21438
 C122 C 0.94842 0.73879 -0.18565
 C123 C 0.98775 0.74617 -0.14637
 C124 C 1.02798 0.70473 -0.13647
 C125 C 1.07458 0.71711 -0.10865
 C126 C 1.08118 0.76919 -0.09242
 C127 C 1.03855 0.80831 -0.09645
 C128 C 0.98992 0.79512 -0.11915
 C129 C 0.94459 0.83052 -0.11249
 C130 C 0.94784 0.87777 -0.08449
 C131 C 0.99698 0.89467 -0.06612
 C132 C 1.04296 0.85988 -0.07638
 H133 H 1.07674 0.60791 -0.10635
 H134 H 0.95931 0.60156 -0.26541
 H135 H 1.06136 0.52267 -0.14739
 H136 H 0.91963 0.68796 -0.24637
 H137 H 0.91968 0.77044 -0.19750
 H138 H 1.10767 0.68775 -0.10277
 H139 H 1.11858 0.77824 -0.07392
 H140 H 0.90557 0.82118 -0.12634
 H141 H 0.91138 0.90294 -0.08234
 H142 H 1.08187 0.87031 -0.06450
 C143 C 1.15727 1.07226 0.39466
 C144 C 1.17487 1.04519 0.34673
 C145 C 1.22243 1.01160 0.34972
 C146 C 1.24789 1.00224 0.39873
 C147 C 1.22693 1.02395 0.44751
 C148 C 1.18388 1.06281 0.44381
 C149 C 1.24447 0.98640 0.30393
 C150 C 1.21931 0.99221 0.25476
 C151 C 1.17054 1.02331 0.24944
 C152 C 1.14765 1.05012 0.29609
 C153 C 1.09742 1.07890 0.29075
 C154 C 1.06974 1.07977 0.24217
 C155 C 1.09130 1.05271 0.19690
 C156 C 1.14257 1.02603 0.19942
 C157 C 1.16381 1.00386 0.15117
 C158 C 1.13222 1.00171 0.10497
 C159 C 1.07721 1.01844 0.10445
 C160 C 1.06095 1.05078 0.14945
 H161 H 1.12380 1.10172 0.39518
 H162 H 1.28471 0.97680 0.39858
 H163 H 1.17098 1.08651 0.47857
 H164 H 1.28122 0.96089 0.30627
 H165 H 1.23806 0.96978 0.22187
 H166 H 1.07749 1.09948 0.32410
 H167 H 1.03042 1.10086 0.24035
 H168 H 1.20530 0.98976 0.14719
 H169 H 1.15356 0.99178 0.06892
 H170 H 1.02227 1.07107 0.15060
 C171 C 1.23817 0.98568 -0.35173
 C172 C 1.18275 0.99150 -0.34490
 C173 C 1.15032 1.01056 -0.38809
 C174 C 1.17259 1.01503 -0.43922
 C175 C 1.22846 1.00896 -0.44601
 C176 C 1.26029 0.99664 -0.40023
 C177 C 1.09624 1.02571 -0.37926
 C178 C 1.07522 1.02523 -0.32786
 C179 C 1.10633 1.00415 -0.28486
 C180 C 1.15895 0.98189 -0.29530
 C181 C 1.18542 0.94971 -0.25650
 C182 C 1.16128 0.94154 -0.20792
 C183 C 1.11297 0.96980 -0.19424
 C184 C 1.08655 1.00353 -0.23184
 C185 C 1.04272 1.03697 -0.21433
 C186 C 1.02717 1.03793 -0.16113
 C187 C 1.05195 1.00363 -0.12280
 C188 C 1.09165 0.96592 -0.14279
 H189 H 1.26527 0.97544 -0.31905
 H190 H 1.14596 1.02296 -0.47265
 H191 H 1.30335 0.99345 -0.40256
 H192 H 1.07070 1.04053 -0.41164
 H193 H 1.03365 1.03901 -0.32306
 H194 H 1.22379 0.92849 -0.26422
 H195 H 1.18214 0.91557 -0.17960
 H196 H 1.02150 1.06477 -0.24038
 H197 H 0.99260 1.06426 -0.15117
 H198 H 1.10637 0.93338 -0.11918
 C199 C 0.75523 0.95933 0.33840
 C200 C 0.80367 0.98104 0.32994
 C201 C 0.83555 0.99238 0.37542
 C202 C 0.81564 0.98906 0.42750
 C203 C 0.76526 0.97104 0.43541
 C204 C 0.73730 0.95311 0.38997
 C205 C 0.88690 1.00740 0.36842
 C206 C 0.90766 1.00962 0.31738
 C207 C 0.87629 1.00034 0.27143
 C208 C 0.82228 0.99017 0.27773
 C209 C 0.78869 0.99077 0.23185
 C210 C 0.80832 0.99963 0.18121
 C211 C 0.86269 1.00429 0.17412
 C212 C 0.89723 1.00179 0.21918
 C213 C 0.95196 0.99420 0.21000
 C214 C 0.97111 0.99343 0.15839
 C215 C 0.93917 1.00932 0.11394
 C216 C 0.88353 1.00893 0.12236
 H217 H 0.73089 0.94608 0.30571
 H218 H 0.83919 1.00133 0.46137
 H219 H 0.69888 0.93784 0.39437
 H220 H 0.91170 1.01631 0.40266
 H221 H 0.94775 1.02124 0.31447
 H222 H 0.74648 0.98678 0.23455
 H223 H 0.78114 1.00097 0.14720
 H224 H 0.98009 0.98279 0.24150
 H225 H 1.01054 0.97437 0.15329
 H226 H 0.85634 1.00880 0.08879
 C227 C 0.78516 1.04654 -0.38229
 C228 C 0.81568 1.00613 -0.35596
 C229 C 0.83353 0.96091 -0.38691
 C230 C 0.81287 0.95265 -0.43867
 C231 C 0.77386 0.98878 -0.46135
 C232 C 0.76713 1.03882 -0.43484
 C233 C 0.87056 0.92322 -0.36537
 C234 C 0.88992 0.92951 -0.31358
 C235 C 0.87079 0.97264 -0.28033
 C236 C 0.83066 1.00972 -0.30076
 C237 C 0.80492 1.04710 -0.26470
 C238 C 0.81909 1.04846 -0.21043
 C239 C 0.86238 1.01576 -0.19120
 C240 C 0.88955 0.97910 -0.22676
 C241 C 0.93547 0.95101 -0.20775
 C242 C 0.95452 0.96039 -0.15658
 C243 C 0.92923 0.99669 -0.11831
 C244 C 0.87931 1.02013 -0.13700
 H245 H 0.77559 1.08467 -0.36323
 H246 H 0.82729 0.91729 -0.45983
 H247 H 0.74522 1.07199 -0.45322
 H248 H 0.88468 0.88842 -0.38872
 H249 H 0.91765 0.89816 -0.29956
 H250 H 0.77188 1.07402 -0.27725
 H251 H 0.79750 1.07689 -0.18383
 H252 H 0.96022 0.92405 -0.23286
 H253 H 0.99191 0.93852 -0.14942
 H254 H 0.85126 1.04065 -0.11134
 C255 C 1.36541 1.18601 0.07021
 C256 C 1.34034 1.16192 0.02633
 C257 C 1.36768 1.15793 -0.02296
 C258 C 1.41458 1.18248 -0.02900
 C259 C 1.43323 1.21499 0.01204
 C260 C 1.41160 1.21107 0.06325
 C261 C 1.34733 1.13090 -0.06658
 C262 C 1.29799 1.11135 -0.06384
 C263 C 1.26664 1.11916 -0.01741
 C264 C 1.28912 1.14238 0.02931
 C265 C 1.25881 1.14691 0.07664
 C266 C 1.20805 1.12970 0.07801
 C267 C 1.18502 1.10872 0.03209
 C268 C 1.21351 1.10435 -0.01623
 C269 C 1.18679 1.08708 -0.06208
 C270 C 1.13624 1.07013 -0.05889
 C271 C 1.10880 1.06898 -0.01045
 C272 C 1.13346 1.09208 0.03427
 H273 H 1.35021 1.18672 0.11026
 H274 H 1.43478 1.17922 -0.06712
 H275 H 1.42958 1.22805 0.09839
 H276 H 1.36912 1.12596 -0.10374
 H277 H 1.28546 1.09033 -0.09908
 H278 H 1.27301 1.16392 0.11344
 H279 H 1.18637 1.13345 0.11528
 H280 H 1.20371 1.08606 -0.10145
 H281 H 1.12157 1.05520 -0.09562
 H282 H 1.11282 1.09819 0.07151
 C283 C 0.59797 1.16337 0.06090
 C284 C 0.63357 1.15693 0.01760
 C285 C 0.61261 1.16767 -0.03420
 C286 C 0.55995 1.18959 -0.04084
 C287 C 0.52941 1.20671 0.00397
 C288 C 0.54683 1.18783 0.05404
 C289 C 0.64514 1.15954 -0.07880
 C290 C 0.69929 1.14526 -0.07280
 C291 C 0.72286 1.13871 -0.02167
 C292 C 0.68924 1.14205 0.02407
 C293 C 0.71277 1.13220 0.07481
 C294 C 0.76709 1.11853 0.08044
 C295 C 0.80012 1.11515 0.03606
 C296 C 0.77892 1.12742 -0.01495
 C297 C 0.81533 1.12886 -0.05686
 C298 C 0.86813 1.10848 -0.05025
 C299 C 0.88691 1.08588 -0.00220
 C300 C 0.85416 1.09767 0.04210
 H301 H 0.60906 1.15277 0.10109
 H302 H 0.54479 1.19723 -0.08079
 H303 H 0.52264 1.19647 0.08918
 H304 H 0.62899 1.16618 -0.11865
 H305 H 0.72186 1.13947 -0.10914
 H306 H 0.69029 1.13422 0.11119
 H307 H 0.78327 1.10979 0.11988
 H308 H 0.80400 1.14384 -0.09558
 H309 H 0.89348 1.10773 -0.08475
 H310 H 0.86889 1.09230 0.08141
 C311 C 1.41243 0.85156 -0.04006
 C312 C 1.36722 0.84181 -0.00975
 C313 C 1.37478 0.80225 0.02842
 C314 C 1.42458 0.77420 0.03552
 C315 C 1.47069 0.78514 0.00747
 C316 C 1.46255 0.82320 -0.03215
 C317 C 1.33215 0.78896 0.05867
 C318 C 1.28185 0.81480 0.05290
 C319 C 1.27181 0.85548 0.01648
 C320 C 1.31464 0.86840 -0.01655
 C321 C 1.30298 0.90682 -0.05536
 C322 C 1.25153 0.93142 -0.06171
 C323 C 1.20988 0.91999 -0.02870
 C324 C 1.21987 0.88288 0.01149
 C325 C 1.17806 0.87683 0.04703
 C326 C 1.12825 0.90477 0.04118
 C327 C 1.11529 0.93823 -0.00170
 C328 C 1.15862 0.94670 -0.03475
 H329 H 1.41011 0.88017 -0.07090
 H330 H 1.42538 0.74120 0.06141
 H331 H 1.49481 0.82996 -0.05852
 H332 H 1.33765 0.75789 0.08728
 H333 H 1.25111 0.80084 0.07682
 H334 H 1.33287 0.91834 -0.08193
 H335 H 1.24445 0.96035 -0.09237
 H336 H 1.18354 0.85378 0.08232
 H337 H 1.10205 0.90453 0.07472
 H338 H 1.15416 0.97530 -0.06464
 C339 C 0.67261 0.76516 0.04230
 C340 C 0.67821 0.81824 0.03259
 C341 C 0.63087 0.85114 0.02212
 C342 C 0.58052 0.83050 0.01887
 C343 C 0.57618 0.77623 0.02305
 C344 C 0.62323 0.74502 0.03772
 C345 C 0.63420 0.90439 0.01374
 C346 C 0.68344 0.92495 0.01199
 C347 C 0.73178 0.89286 0.01833
 C348 C 0.72916 0.83930 0.03149
 C349 C 0.77767 0.80849 0.04188
 C350 C 0.82692 0.82886 0.03780
 C351 C 0.83017 0.88039 0.02237
 C352 C 0.78270 0.91260 0.01183
 C353 C 0.78825 0.96223 -0.00846
 C354 C 0.83825 0.98012 -0.01428
 C355 C 0.88603 0.95178 0.00172
 C356 C 0.88070 0.89957 0.01630
 H357 H 0.70586 0.73730 0.05157
 H358 H 0.54560 0.85714 0.01190
 H359 H 0.62272 0.70316 0.04245
 H360 H 0.59836 0.93035 0.00725
 H361 H 0.68230 0.96657 0.00587
 H362 H 0.77916 0.76820 0.05345
 H363 H 0.86291 0.80370 0.04615
 H364 H 0.75475 0.98767 -0.02240
 H365 H 0.83769 1.01633 -0.03309
 H366 H 0.91544 0.87214 0.01973
 C367 C 0.84235 0.55210 0.26650
 C368 C 0.83397 0.53237 0.31714
 C369 C 0.87826 0.50648 0.34393
 C370 C 0.93010 0.50629 0.32327
 C371 C 0.93860 0.52450 0.27162
 C372 C 0.89273 0.54571 0.24336
 C373 C 0.87011 0.47897 0.39011
 C374 C 0.81863 0.47371 0.40763
 C375 C 0.77388 0.50005 0.38238
 C376 C 0.78233 0.53418 0.34025
 C377 C 0.73923 0.56943 0.32359
 C378 C 0.68911 0.56993 0.34714
 C379 C 0.67910 0.53179 0.38370
 C380 C 0.72089 0.49464 0.39893
 C381 C 0.70776 0.45215 0.42832
 C382 C 0.65543 0.44805 0.44366
 C383 C 0.61357 0.48738 0.43501
 C384 C 0.62779 0.53033 0.40530
 H385 H 0.80963 0.56885 0.24229
 H386 H 0.96249 0.48965 0.34738
 H387 H 0.89551 0.55743 0.20240
 H388 H 0.90356 0.45899 0.41120
 H389 H 0.81470 0.45078 0.44267
 H390 H 0.74432 0.59875 0.29439
 H391 H 0.65742 0.59875 0.33483
 H392 H 0.73709 0.42023 0.43802
 H393 H 0.65010 0.41412 0.46517
 H394 H 0.60001 0.56422 0.39978
 C395 C 0.10190 0.46323 0.34407
 C396 C 0.14258 0.49731 0.33910
 C397 C 0.13464 0.53718 0.30133
 C398 C 0.08577 0.54578 0.27413
 C399 C 0.04390 0.51273 0.27976
 C400 C 0.05496 0.46950 0.31320
 C401 C 0.17625 0.56739 0.28925
 C402 C 0.22631 0.55747 0.31261
 C403 C 0.23553 0.51917 0.35165
 C404 C 0.19206 0.49139 0.36796
 C405 C 0.19917 0.46011 0.41339
 C406 C 0.24749 0.45616 0.44158
 C407 C 0.29132 0.48024 0.42331
 C408 C 0.28645 0.50951 0.37663
 C409 C 0.33349 0.52521 0.35505
 C410 C 0.38216 0.51657 0.38220
 C411 C 0.38601 0.49805 0.43477
 C412 C 0.34007 0.47544 0.45156
 H413 H 0.10716 0.42918 0.36868
 H414 H 0.08303 0.57678 0.24571
 H415 H 0.02803 0.43886 0.31404
 H416 H 0.17053 0.59805 0.26023
 H417 H 0.25678 0.58209 0.30144
 H418 H 0.16693 0.44055 0.42949
 H419 H 0.25085 0.43337 0.47747
 H420 H 0.33423 0.54046 0.31531
 H421 H 0.41648 0.51983 0.35861
 H422 H 0.34033 0.45570 0.48785
 C423 C 0.85306 0.53214 0.73189
 C424 C 0.84457 0.50872 0.68158
 C425 C 0.88646 0.47505 0.65867
 C426 C 0.93871 0.47480 0.68031
 C427 C 0.94813 0.50318 0.72835
 C428 C 0.90280 0.52567 0.75639
 C429 C 0.87488 0.44135 0.61567
 C430 C 0.82224 0.43964 0.59713
 C431 C 0.78104 0.47598 0.61699
 C432 C 0.79412 0.51441 0.65579
 C433 C 0.75710 0.55811 0.66661
 C434 C 0.70776 0.56294 0.64063
 C435 C 0.69192 0.52176 0.60792
 C436 C 0.72732 0.47640 0.59867
 C437 C 0.70633 0.43188 0.57565
 C438 C 0.65258 0.43371 0.56047
 C439 C 0.61945 0.48143 0.56004
 C440 C 0.64037 0.52491 0.58565
 H441 H 0.82071 0.55272 0.75429
 H442 H 0.97134 0.45159 0.66074
 H443 H 0.90612 0.54101 0.79697
 H444 H 0.90609 0.41460 0.59800
 H445 H 0.81481 0.41179 0.56508
 H446 H 0.76701 0.59024 0.69292
 H447 H 0.68086 0.59784 0.64832
 H448 H 0.72993 0.39442 0.57273
 H449 H 0.63769 0.39703 0.54891
 H450 H 0.61552 0.56142 0.59063
 C451 C 0.09792 0.53363 0.64079
 C452 C 0.14890 0.51838 0.66364
 C453 C 0.15012 0.49786 0.71537
 C454 C 0.10323 0.49356 0.74259
 C455 C 0.05263 0.50717 0.71975
 C456 C 0.05057 0.52831 0.66863
 C457 C 0.19812 0.48119 0.74041
 C458 C 0.24599 0.48399 0.71510
 C459 C 0.24784 0.50481 0.66385
 C460 C 0.19863 0.52254 0.63759
 C461 C 0.20103 0.54357 0.58636
 C462 C 0.24953 0.54600 0.56118
 C463 C 0.29735 0.52731 0.58582
 C464 C 0.29738 0.50737 0.63757
 C465 C 0.34745 0.49177 0.66103
 C466 C 0.39417 0.49051 0.63163
 C467 C 0.39379 0.50339 0.57741
 C468 C 0.34525 0.52755 0.55821
 H469 H 0.09324 0.54994 0.60167
 H470 H 0.10625 0.47850 0.78259
 H471 H 0.01270 0.54168 0.65051
 H472 H 0.19871 0.46505 0.78001
 H473 H 0.28089 0.46886 0.73691
 H474 H 0.16598 0.55827 0.56446
 H475 H 0.24951 0.56176 0.52145
 H476 H 0.35240 0.48113 0.70219
 H477 H 0.43089 0.48315 0.65346
 H478 H 0.34315 0.54477 0.52036
 C479 C 0.53178 0.62707 0.10231
 C480 C 0.52042 0.65099 0.15302
 C481 C 0.50732 0.70590 0.15603
 C482 C 0.51236 0.73600 0.11109
 C483 C 0.52126 0.71219 0.06002
 C484 C 0.53073 0.65701 0.05643
 C485 C 0.48835 0.73031 0.20360
 C486 C 0.48061 0.70074 0.24800
 C487 C 0.49643 0.64646 0.24758
 C488 C 0.52059 0.62221 0.20075
 C489 C 0.54669 0.57126 0.20414
 C490 C 0.54915 0.54532 0.25225
 C491 C 0.52141 0.56711 0.29685
 C492 C 0.49206 0.61630 0.29373
 C493 C 0.45867 0.63269 0.33656
 C494 C 0.45811 0.60264 0.38208
 C495 C 0.49422 0.55804 0.39058
 C496 C 0.52371 0.54039 0.34496
 H497 H 0.53927 0.58500 0.09689
 H498 H 0.50580 0.77847 0.11490
 H499 H 0.53909 0.63660 0.01858
 H500 H 0.47776 0.77236 0.20598
 H501 H 0.46537 0.72171 0.28352
 H502 H 0.56867 0.55225 0.17106
 H503 H 0.57217 0.50757 0.25426
 H504 H 0.43067 0.66723 0.33459
 H505 H 0.42908 0.61570 0.41039
 H506 H 0.55214 0.50787 0.34663
 C507 C 0.58090 0.67485 0.88272
 C508 C 0.53534 0.65503 0.85963
 C509 C 0.48574 0.66834 0.88460
 C510 C 0.48357 0.69465 0.93477
 C511 C 0.52908 0.71546 0.95786
 C512 C 0.57737 0.70618 0.92933
 C513 C 0.43861 0.65673 0.85843
 C514 C 0.43997 0.63499 0.80664
 C515 C 0.48901 0.61970 0.78144
 C516 C 0.53713 0.62516 0.81070
 C517 C 0.58512 0.59948 0.79082
 C518 C 0.58585 0.57095 0.74251
 C519 C 0.53997 0.57134 0.71030
 C520 C 0.49176 0.59774 0.72849
 C521 C 0.44879 0.60256 0.69231
 C522 C 0.45397 0.58175 0.64031
 C523 C 0.50097 0.55227 0.62144
 C524 C 0.54227 0.54568 0.65985
 H525 H 0.61918 0.66964 0.86330
 H526 H 0.44551 0.70094 0.95466
 H527 H 0.61343 0.72291 0.94162
 H528 H 0.40026 0.66679 0.87706
 H529 H 0.40220 0.62814 0.78792
 H530 H 0.62206 0.59883 0.81340
 H531 H 0.62315 0.55049 0.72915
 H532 H 0.41141 0.62452 0.70243
 H533 H 0.41894 0.58863 0.61568
 H534 H 0.57656 0.51982 0.65279
 C535 C 0.54578 0.33669 0.10404
 C536 C 0.50235 0.35359 0.13722
 C537 C 0.45026 0.34622 0.11789
 C538 C 0.44308 0.31985 0.06866
 C539 C 0.48708 0.29226 0.04335
 C540 C 0.53820 0.30620 0.05827
 C541 C 0.40610 0.36083 0.14987
 C542 C 0.41301 0.37688 0.20289
 C543 C 0.46447 0.38083 0.22488
 C544 C 0.50929 0.37369 0.19023
 C545 C 0.55981 0.38481 0.21040
 C546 C 0.56678 0.39960 0.26345
 C547 C 0.52404 0.40301 0.29849
 C548 C 0.47275 0.39239 0.28024
 C549 C 0.43248 0.39197 0.31871
 C550 C 0.44186 0.40730 0.37175
 C551 C 0.49075 0.42574 0.38841
 C552 C 0.53232 0.41898 0.35150
 H553 H 0.58661 0.34210 0.11443
 H554 H 0.40306 0.31468 0.05414
 H555 H 0.57342 0.29022 0.03701
 H556 H 0.36605 0.35650 0.13495
 H557 H 0.37730 0.38621 0.22593
 H558 H 0.59480 0.38350 0.18596
 H559 H 0.60616 0.40832 0.27721
 H560 H 0.39359 0.37943 0.30909
 H561 H 0.40942 0.40577 0.39896
 H562 H 0.57137 0.42999 0.36190
 C563 C 0.42310 0.30656 0.86929
 C564 C 0.46960 0.32035 0.84414
 C565 C 0.51739 0.31783 0.87474
 C566 C 0.51927 0.29722 0.92586
 C567 C 0.47479 0.27621 0.94749
 C568 C 0.42560 0.28591 0.92040
 C569 C 0.56366 0.33467 0.85387
 C570 C 0.56384 0.35384 0.80279
 C571 C 0.51769 0.35586 0.76992
 C572 C 0.47021 0.33740 0.79033
 C573 C 0.42559 0.33516 0.75578
 C574 C 0.42660 0.35248 0.70377
 C575 C 0.47156 0.37372 0.68456
 C576 C 0.51739 0.37573 0.71725
 C577 C 0.56069 0.39878 0.69604
 C578 C 0.55701 0.42159 0.64631
 C579 C 0.51055 0.42365 0.61417
 C580 C 0.46995 0.39493 0.63338
 H581 H 0.38413 0.31194 0.85078
 H582 H 0.55678 0.29476 0.94762
 H583 H 0.38865 0.27709 0.93816
 H584 H 0.60036 0.33282 0.87725
 H585 H 0.60151 0.36550 0.78990
 H586 H 0.38951 0.31912 0.76755
 H587 H 0.39129 0.35036 0.67873
 H588 H 0.59772 0.40182 0.71747
 H589 H 0.59178 0.43838 0.63586
 H590 H 0.43408 0.39340 0.61182
 C591 C 0.74417 0.82099 0.49304
 C592 C 0.69145 0.81048 0.50270
 C593 C 0.65227 0.85402 0.50652
 C594 C 0.66656 0.90589 0.50514
 C595 C 0.71978 0.91665 0.49733
 C596 C 0.75720 0.87248 0.48810
 C597 C 0.59848 0.84560 0.50961
 C598 C 0.58267 0.79515 0.50544
 C599 C 0.62045 0.75105 0.50074
 C600 C 0.67555 0.75823 0.50423
 C601 C 0.71213 0.71298 0.50903
 C602 C 0.69444 0.66241 0.50980
 C603 C 0.64032 0.65518 0.50207
 C604 C 0.60424 0.69973 0.49372
 C605 C 0.55382 0.69145 0.47403
 C606 C 0.53703 0.64170 0.47203
 C607 C 0.56597 0.59778 0.49425
 C608 C 0.62121 0.60440 0.50167
 H609 H 0.77523 0.78986 0.48508
 H610 H 0.63484 0.93711 0.50691
 H611 H 0.79677 0.87727 0.47389
 H612 H 0.56812 0.87837 0.51327
 H613 H 0.54040 0.79123 0.50771
 H614 H 0.75436 0.71602 0.51465
 H615 H 0.72327 0.62889 0.51553
 H616 H 0.52672 0.72295 0.45889
 H617 H 0.49786 0.64085 0.45755
 H618 H 0.65003 0.57085 0.50421
 C619 C 0.62553 0.07752 0.53967
 C620 C 0.62482 0.11564 0.49978
 C621 C 0.65028 0.10018 0.45110
 C622 C 0.68120 0.05217 0.44571
 C623 C 0.68811 0.01666 0.48800
 C624 C 0.65609 0.02895 0.53357
 C625 C 0.64798 0.13411 0.40853
 C626 C 0.62609 0.18535 0.41495
 C627 C 0.60701 0.20515 0.46496
 C628 C 0.60284 0.16919 0.50706
 C629 C 0.57923 0.18881 0.55538
 C630 C 0.56274 0.24210 0.56300
 C631 C 0.57038 0.27810 0.52344
 C632 C 0.59265 0.25991 0.47419
 C633 C 0.60158 0.29769 0.43665
 C634 C 0.58608 0.35050 0.44636
 C635 C 0.56186 0.37038 0.49383
 C636 C 0.55532 0.33218 0.53266
 H637 H 0.60535 0.08511 0.57718
 H638 H 0.70357 0.04617 0.40934
 H639 H 0.65953 0.00336 0.56735
 H640 H 0.66512 0.12153 0.37021
 H641 H 0.62563 0.20877 0.37991
 H642 H 0.57349 0.16391 0.58837
 H643 H 0.54501 0.25544 0.60082
 H644 H 0.62146 0.28814 0.39931
 H645 H 0.59521 0.37529 0.41575
 H646 H 0.53591 0.34229 0.56932
 C647 C 0.26202 0.86134 0.47760
 C648 C 0.31406 0.84252 0.49290
 C649 C 0.34944 0.87989 0.51068
 C650 C 0.33390 0.93419 0.50960
 C651 C 0.28184 0.95245 0.49408
 C652 C 0.24614 0.91477 0.47952
 C653 C 0.39951 0.86273 0.53116
 C654 C 0.41440 0.80949 0.53624
 C655 C 0.38060 0.77103 0.51855
 C656 C 0.33119 0.78774 0.49341
 C657 C 0.30130 0.74924 0.46857
 C658 C 0.31925 0.69607 0.46872
 C659 C 0.36629 0.67901 0.49558
 C660 C 0.39588 0.71628 0.52288
 C661 C 0.44032 0.69733 0.55299
 C662 C 0.45904 0.64482 0.54965
 C663 C 0.43437 0.60727 0.51727
 C664 C 0.38538 0.62530 0.49311
 H665 H 0.23170 0.83558 0.46685
 H666 H 0.36137 0.96181 0.52400
 H667 H 0.20481 0.92702 0.47013
 H668 H 0.42701 0.89077 0.54469
 H669 H 0.45376 0.79957 0.55247
 H670 H 0.26507 0.75933 0.44626
 H671 H 0.29612 0.66810 0.44749
 H672 H 0.46261 0.72239 0.57851
 H673 H 0.49683 0.63524 0.56942
 H674 H 0.36489 0.59950 0.46667
 C675 C 0.37083 0.09797 0.46601
 C676 C 0.35558 0.14530 0.49521
 C677 C 0.31223 0.14470 0.53056
 C678 C 0.28450 0.09991 0.53460
 C679 C 0.29857 0.05329 0.50454
 C680 C 0.34255 0.05327 0.47028
 C681 C 0.29509 0.18948 0.56087
 C682 C 0.31852 0.23589 0.55563
 C683 C 0.36007 0.23987 0.51910
 C684 C 0.38028 0.19353 0.48961
 C685 C 0.42390 0.19745 0.45540
 C686 C 0.44643 0.24493 0.44980
 C687 C 0.42625 0.29065 0.47754
 C688 C 0.38239 0.28870 0.51175
 C689 C 0.36200 0.33622 0.53669
 C690 C 0.38683 0.38216 0.53169
 C691 C 0.43319 0.38481 0.50152
 C692 C 0.45004 0.33823 0.47175
 H693 H 0.40326 0.09479 0.43810
 H694 H 0.24945 0.10288 0.55950
 H695 H 0.35394 0.01925 0.44483
 H696 H 0.26256 0.18887 0.58875
 H697 H 0.30303 0.26802 0.58138
 H698 H 0.44187 0.16418 0.43259
 H699 H 0.48016 0.24581 0.42347
 H700 H 0.32689 0.33962 0.56108
 H701 H 0.36979 0.41490 0.55518
 H702 H 0.48229 0.33796 0.44401
   
