data_POSCAR
  _audit_creation_date              2014-09-24
  _audit_creation_method            'ToBaCCo'
  _symmetry_space_group_name_H-M    'P1'
  _symmetry_Int_Tables_number       1
  _symmetry_cell_setting            triclinic
  loop_
  _symmetry_equiv_pos_as_xyz
 x,y,z
_cell_length_a 24.2804
_cell_length_b 24.3558
_cell_length_c 24.3738
_cell_angle_alpha 86.225400
_cell_angle_beta 86.301800
_cell_angle_gamma 87.074200
loop_
  _atom_site_label
  _atom_site_type_symbol
  _atom_site_fract_x
  _atom_site_fract_y
  _atom_site_fract_z
C1 C 0.83118 0.64877 1.00965
 C2 C 0.84776 0.61263 0.96159
 C3 C 0.80815 0.57842 0.94970
 C4 C 0.75581 0.58203 0.98843
 C5 C 0.77614 0.67819 0.99320
 C6 C 0.73694 0.64302 0.98131
 C7 C 0.81490 0.60820 1.05770
 C8 C 0.77472 0.57417 1.04778
 H9 H 0.88132 0.62188 0.93159
 H10 H 0.72428 0.55287 0.97959
 H11 H 0.77117 0.72242 0.98565
 H12 H 0.82854 0.61185 1.09873
 C13 C 0.81066 0.31880 0.48756
 C14 C 0.82135 0.35384 0.53505
 C15 C 0.77953 0.39024 0.54887
 C16 C 0.72790 0.38585 0.51628
 C17 C 0.75801 0.28928 0.50814
 C18 C 0.71444 0.32420 0.52358
 C19 C 0.79240 0.35984 0.44119
 C20 C 0.74910 0.39435 0.45564
 H21 H 0.85978 0.35130 0.55554
 H22 H 0.69358 0.41525 0.52853
 H23 H 0.75580 0.24496 0.51131
 H24 H 0.80910 0.35807 0.39897
 C25 C 0.32568 -0.17895 -0.01922
 C26 C 0.33634 -0.14051 0.02121
 C27 C 0.29148 -0.10273 0.03404
 C28 C 0.24160 -0.11277 0.00594
 C29 C 0.27768 -0.20762 0.00554
 C30 C 0.23040 -0.17136 0.01972
 C31 C 0.30574 -0.14530 -0.06596
 C32 C 0.25929 -0.10902 -0.05303
 H33 H 0.37277 -0.14396 0.04501
 H34 H 0.20786 -0.08246 0.01688
 H35 H 0.27788 -0.25183 0.01289
 H36 H 0.32159 -0.15094 -0.10796
 C37 C 0.31813 0.14243 0.50945
 C38 C 0.33527 0.11409 0.45628
 C39 C 0.29698 0.08043 0.44044
 C40 C 0.24535 0.07671 0.48008
 C41 C 0.26139 0.17128 0.49809
 C42 C 0.22377 0.13673 0.48194
 C43 C 0.30517 0.09478 0.55172
 C44 C 0.26579 0.06163 0.53785
 H45 H 0.36965 0.12568 0.42839
 H46 H 0.21467 0.04835 0.46753
 H47 H 0.25415 0.21559 0.49648
 H48 H 0.31854 0.09361 0.59340
 C49 C 0.13827 0.51570 0.32678
 C50 C 0.10747 0.46329 0.34399
 C51 C 0.07613 0.44640 0.30455
 C52 C 0.07690 0.48429 0.25172
 C53 C 0.17065 0.50234 0.27213
 C54 C 0.13834 0.48506 0.23334
 C55 C 0.09246 0.55784 0.31003
 C56 C 0.06172 0.54286 0.26946
 H57 H 0.11586 0.43642 0.37976
 H58 H 0.05029 0.47086 0.22015
 H59 H 0.21534 0.50069 0.26715
 H60 H 0.09074 0.59975 0.32271
 C61 C -0.17425 -0.02269 0.31003
 C62 C -0.13867 0.02626 0.31588
 C63 C -0.10489 0.03893 0.27091
 C64 C -0.11120 0.00281 0.22237
 C65 C -0.20656 -0.00487 0.25861
 C66 C -0.17357 0.00941 0.21247
 C67 C -0.13575 -0.06683 0.29335
 C68 C -0.10183 -0.05383 0.24488
 H69 H -0.13882 0.04836 0.35307
 H70 H -0.08293 0.01451 0.18640
 H71 H -0.25109 -0.00007 0.25974
 H72 H -0.13712 -0.10827 0.31246
 C73 C 0.31960 0.48719 0.81555
 C74 C 0.35941 0.53247 0.82218
 C75 C 0.39359 0.54411 0.77729
 C76 C 0.38285 0.51160 0.72740
 C77 C 0.28745 0.50915 0.76565
 C78 C 0.32040 0.52218 0.71929
 C79 C 0.35595 0.43862 0.79489
 C80 C 0.38851 0.45096 0.74890
 H81 H 0.36094 0.55397 0.85953
 H82 H 0.41070 0.52201 0.69069
 H83 H 0.24294 0.51502 0.76730
 H84 H 0.35284 0.39688 0.81280
 C85 C 0.64111 1.01800 0.82123
 C86 C 0.61271 0.96395 0.83665
 C87 C 0.57920 0.94905 0.79809
 C88 C 0.57585 0.99093 0.74793
 C89 C 0.67071 1.00874 0.76400
 C90 C 0.63642 0.99336 0.72584
 C91 C 0.59587 1.05776 0.81114
 C92 C 0.56150 1.04524 0.76886
 H93 H 0.62464 0.93473 0.86947
 H94 H 0.54720 0.97839 0.71779
 H95 H 0.71527 1.00649 0.75720
 H96 H 0.59452 1.09806 0.82764
 C97 C -0.00635 0.31441 -0.17459
 C98 C 0.03724 0.32237 -0.13370
 C99 C 0.04757 0.27780 -0.09904
 C100 C 0.01507 0.22748 -0.10940
 C101 C 0.01694 0.26404 -0.20517
 C102 C 0.02804 0.21845 -0.17101
 C103 C -0.05651 0.29383 -0.13923
 C104 C -0.04554 0.24867 -0.10551
 H105 H 0.05922 0.35984 -0.13253
 H106 H 0.02422 0.19098 -0.08112
 H107 H 0.02549 0.26475 -0.24933
 H108 H -0.09808 0.31135 -0.14346
 C109 C 0.51577 0.32845 0.14954
 C110 C 0.46538 0.34585 0.11667
 C111 C 0.45132 0.30772 0.08240
 C112 C 0.49018 0.25616 0.08238
 C113 C 0.50100 0.27209 0.17836
 C114 C 0.48670 0.23447 0.14300
 C115 C 0.56147 0.31476 0.10575
 C116 C 0.54938 0.27586 0.07167
 H117 H 0.43611 0.37886 0.12746
 H118 H 0.47941 0.22634 0.05269
 H119 H 0.49646 0.26503 0.22271
 H120 H 0.60304 0.32845 0.10757
 C121 C 1.01148 0.82617 0.65854
 C122 C 0.96026 0.84189 0.63272
 C123 C 0.94463 0.80423 0.59461
 C124 C 0.98421 0.75707 0.58961
 C125 C 1.00209 0.77067 0.68416
 C126 C 0.98515 0.73238 0.64613
 C127 C 1.05248 0.81826 0.61336
 C128 C 1.03973 0.77793 0.57670
 H129 H 0.93151 0.87383 0.64754
 H130 H 0.97328 0.72933 0.55813
 H131 H 0.99801 0.76244 0.72840
 H132 H 1.09399 0.83235 0.61488
 C133 C 0.48286 0.81648 0.32629
 C134 C 0.52828 0.82576 0.36471
 C135 C 0.54070 0.78194 0.39973
 C136 C 0.50796 0.73094 0.39196
 C137 C 0.50509 0.76565 0.29592
 C138 C 0.51830 0.72074 0.33020
 C139 C 0.43443 0.79611 0.36417
 C140 C 0.44712 0.75156 0.39809
 H141 H 0.54929 0.86398 0.36440
 H142 H 0.51862 0.69522 0.42063
 H143 H 0.51175 0.76569 0.25162
 H144 H 0.39245 0.81294 0.36115
 C145 C 0.43557 -0.03515 0.28939
 H146 H 0.42889 0.00264 0.31026
 C147 C 0.46025 -0.08100 0.31663
 H148 H 0.47227 -0.07714 0.35813
 C149 C 0.41908 -0.08775 0.21436
 H150 H 0.40021 -0.09134 0.17598
 C151 C 0.44439 -0.13468 0.23990
 H152 H 0.44431 -0.17326 0.22037
 N153 N 0.41467 -0.03928 0.23958
 C154 C 0.39137 0.11627 0.14835
 H155 H 0.35630 0.10484 0.12720
 C156 C 0.41658 0.16524 0.13187
 H157 H 0.40060 0.19036 0.09770
 C158 C 0.45173 0.09917 0.22068
 H159 H 0.46497 0.07375 0.25573
 C160 C 0.47791 0.14844 0.20583
 H161 H 0.51155 0.15998 0.22910
 Zn162 Zn 0.36786 0.02075 0.21431
 N163 N 0.40939 0.08389 0.19174
 C164 C 0.31662 0.09241 0.28653
 N165 N 0.32023 0.03847 0.27521
 C166 C 0.30676 -0.00193 0.31443
 C167 C 0.29496 0.01106 0.36920
 C168 C 0.30555 0.10703 0.34037
 C169 C 0.36612 -0.00800 0.10941
 C170 C 0.35120 -0.03738 0.06654
 C171 C 0.26049 -0.04706 0.11213
 C172 C 0.27792 -0.01805 0.15557
 N173 N 0.33089 -0.00157 0.15416
 H174 H 0.32759 0.12378 0.25487
 H175 H 0.31109 -0.04464 0.30450
 H176 H 0.28844 -0.02150 0.40106
 H177 H 0.30632 0.14993 0.34945
 H178 H 0.40787 0.00554 0.10935
 H179 H 0.38165 -0.04479 0.03300
 H180 H 0.21993 -0.06400 0.11559
 H181 H 0.25070 -0.01249 0.19189
 C182 C 0.46043 0.18200 0.16068
 C183 C 0.46529 -0.13189 0.29203
 C184 C 0.29913 -0.06051 0.06903
 C185 C 0.29771 0.06576 0.38270
 C186 C 0.05804 1.06613 0.81302
 H187 H 0.04279 1.02727 0.82986
 C188 C 0.03395 1.11531 0.83184
 H189 H 0.00097 1.11359 0.86374
 C190 C 0.12095 1.11556 0.75275
 H191 H 0.15659 1.11564 0.72383
 C192 C 0.09658 1.16571 0.76881
 H193 H 0.11316 1.20391 0.75137
 N194 N 0.10099 1.06694 0.77433
 C195 C 0.09792 0.89183 0.75583
 H196 H 0.13227 0.87978 0.78078
 C197 C 0.06995 0.85128 0.73237
 H198 H 0.08330 0.80856 0.74034
 C199 C 0.04515 0.96238 0.70914
 H200 H 0.03762 1.00571 0.69816
 C201 C 0.01714 0.92354 0.68379
 H202 H -0.01059 0.93908 0.65283
 Zn203 Zn 0.13721 0.99893 0.75480
 N204 N 0.08592 0.94610 0.74284
 C205 C 0.14953 0.95679 0.86209
 N206 N 0.17960 0.97248 0.81516
 C207 C 0.23574 0.96890 0.81334
 C208 C 0.26314 0.94268 0.85718
 C209 C 0.17540 0.93337 0.90808
 C210 C 0.15145 1.04151 0.64621
 C211 C 0.17770 1.05460 0.59480
 C212 C 0.25632 0.99679 0.62149
 C213 C 0.22771 0.98345 0.67193
 N214 N 0.17789 1.00921 0.68504
 H215 H 0.10498 0.96046 0.86323
 H216 H 0.25963 0.98619 0.77824
 H217 H 0.30785 0.93876 0.85382
 H218 H 0.14981 0.91935 0.94326
 H219 H 0.11058 1.05924 0.65595
 H220 H 0.15733 1.08361 0.56630
 H221 H 0.29787 0.97969 0.61330
 H222 H 0.24574 0.95293 0.70032
 C223 C 0.02945 0.86642 0.69440
 C224 C 0.05271 1.16592 0.80915
 C225 C 0.23183 1.03425 0.58306
 C226 C 0.23283 0.92318 0.90520
 C227 C 0.55747 0.56893 0.31940
 H228 H 0.54889 0.52987 0.34118
 C229 C 0.53157 0.61757 0.33782
 H230 H 0.50275 0.61532 0.37353
 C231 C 0.60719 0.61930 0.24777
 H232 H 0.63831 0.62032 0.21409
 C233 C 0.58154 0.66872 0.26418
 H234 H 0.59305 0.70701 0.24239
 N235 N 0.59477 0.57060 0.27529
 C236 C 0.61005 0.39733 0.23906
 H237 H 0.64998 0.38778 0.25550
 C238 C 0.58332 0.35644 0.21533
 H239 H 0.60277 0.31545 0.21445
 C240 C 0.53909 0.46356 0.21617
 H241 H 0.52320 0.50591 0.21508
 C242 C 0.51188 0.42431 0.19006
 H243 H 0.47517 0.43820 0.16969
 Zn244 Zn 0.63473 0.50431 0.25731
 N245 N 0.58804 0.44980 0.23853
 C246 C 0.64269 0.44079 0.35578
 N247 N 0.67114 0.47705 0.32126
 C248 C 0.72151 0.49320 0.33369
 C249 C 0.74739 0.46817 0.37927
 C250 C 0.66663 0.41542 0.40188
 C251 C 0.65524 0.53657 0.14699
 C252 C 0.68473 0.55158 0.09763
 C253 C 0.76905 0.52272 0.14070
 C254 C 0.73782 0.50781 0.18922
 N255 N 0.68203 0.51742 0.19235
 H256 H 0.60168 0.43028 0.34673
 H257 H 0.74208 0.52465 0.30789
 H258 H 0.78872 0.47897 0.38729
 H259 H 0.64493 0.38381 0.42637
 H260 H 0.61072 0.54248 0.14989
 H261 H 0.66261 0.57010 0.06338
 H262 H 0.81365 0.51734 0.13969
 H263 H 0.75847 0.48944 0.22424
 C264 C 0.53506 0.37002 0.18759
 C265 C 0.54351 0.66836 0.31009
 C266 C 0.74254 0.54660 0.09468
 C267 C 0.71995 0.42820 0.41332
 C268 C 0.94805 0.46332 0.79037
 H269 H 0.94186 0.50057 0.81209
 C270 C 0.97416 0.41746 0.81605
 H271 H 0.98752 0.42121 0.85705
 C272 C 0.92804 0.41129 0.71607
 H273 H 0.90730 0.40807 0.67864
 C274 C 0.95470 0.36426 0.74008
 H275 H 0.95374 0.32573 0.72057
 N276 N 0.92416 0.45929 0.74208
 C277 C 0.89640 0.61144 0.64997
 H278 H 0.86356 0.59770 0.62722
 C279 C 0.92154 0.66000 0.63171
 H280 H 0.90669 0.68158 0.59502
 C281 C 0.94908 0.60289 0.72849
 H282 H 0.95934 0.58108 0.76664
 C283 C 0.97421 0.65246 0.71259
 H284 H 1.00437 0.66684 0.73846
 Zn285 Zn 0.87338 0.51761 0.72136
 N286 N 0.91122 0.58296 0.69695
 C287 C 0.81972 0.58679 0.79556
 N288 N 0.82908 0.53281 0.78564
 C289 C 0.82171 0.49234 0.82647
 C290 C 0.81052 0.50603 0.88111
 C291 C 0.80835 0.60217 0.84919
 C292 C 0.85950 0.49082 0.61508
 C293 C 0.83855 0.46272 0.57399
 C294 C 0.76006 0.43980 0.63577
 C295 C 0.78200 0.47001 0.67574
 N296 N 0.83182 0.49323 0.66515
 H297 H 0.82600 0.61819 0.76260
 H298 H 0.83005 0.44969 0.81756
 H299 H 0.80922 0.47392 0.91402
 H300 H 0.80469 0.64552 0.85708
 H301 H 0.90008 0.50725 0.60835
 H302 H 0.86289 0.45880 0.53545
 H303 H 0.72296 0.41743 0.64588
 H304 H 0.76153 0.47117 0.71642
 C305 C 0.96123 0.68169 0.66304
 C306 C 0.97764 0.36663 0.79132
 C307 C 0.78995 0.43425 0.58512
 C308 C 0.80685 0.56159 0.89282
 C309 C 0.28781 0.44297 -0.03372
 H310 H 0.30950 0.43903 0.00384
 C311 C 0.31277 0.46819 -0.08096
 H312 H 0.35382 0.48268 -0.07840
 C313 C 0.21256 0.41970 -0.08344
 H314 H 0.17485 0.39820 -0.08470
 C315 C 0.23567 0.44570 -0.13182
 H316 H 0.21534 0.44353 -0.16976
 N317 N 0.23954 0.41786 -0.03604
 C318 C 0.16216 0.38102 0.12597
 H319 H 0.15057 0.33970 0.11975
 C320 C 0.14327 0.40596 0.17377
 H321 H 0.11611 0.38391 0.20330
 C322 C 0.21211 0.45943 0.09512
 H323 H 0.23887 0.48023 0.06427
 C324 C 0.19538 0.48535 0.14354
 H325 H 0.20878 0.52617 0.14946
 Zn326 Zn 0.22023 0.36894 0.02455
 N327 N 0.19513 0.40817 0.08720
 C328 C 0.29693 0.32053 0.09509
 N329 N 0.28536 0.32736 0.04125
 C330 C 0.32498 0.31827 0.00018
 C331 C 0.38012 0.30776 0.01265
 C332 C 0.35107 0.30966 0.10929
 C333 C 0.11178 0.34323 0.01159
 C334 C 0.07047 0.32194 -0.01644
 C335 C 0.13885 0.26012 -0.05930
 C336 C 0.17908 0.28214 -0.02966
 N337 N 0.16510 0.32426 0.00340
 H338 H 0.26503 0.32790 0.12705
 H339 H 0.31477 0.32453 -0.04239
 H340 H 0.41215 0.30490 -0.02021
 H341 H 0.36027 0.30750 0.15231
 H342 H 0.10193 0.37845 0.03572
 H343 H 0.02905 0.34072 -0.01320
 H344 H 0.15101 0.23058 -0.08968
 H345 H 0.22203 0.26912 -0.03686
 C346 C 0.16012 0.45852 0.18318
 C347 C 0.28694 0.46999 -0.13127
 C348 C 0.08449 0.28210 -0.05444
 C349 C 0.39356 0.30659 0.06764
 C350 C 0.81631 0.05930 1.06204
 H351 H 0.84065 0.05705 1.02342
 C352 C 0.83570 0.03236 1.10982
 H353 H 0.87508 0.01031 1.10652
 C354 C 0.73781 0.09543 1.11253
 H355 H 0.70088 0.12200 1.11419
 C356 C 0.75490 0.06768 1.16111
 H357 H 0.73035 0.07348 1.19909
 N358 N 0.76847 0.09061 1.06414
 C359 C 0.72541 0.11517 0.89292
 H360 H 0.73846 0.15694 0.88539
 C361 C 0.70173 0.08963 0.85150
 H362 H 0.69729 0.11196 0.81198
 C363 C 0.71266 0.03717 0.95487
 H364 H 0.71596 0.01772 0.99580
 C365 C 0.68634 0.01088 0.91521
 H366 H 0.67039 -0.02886 0.92726
 Zn367 Zn 0.75154 0.13277 0.99840
 N368 N 0.73007 0.08897 0.94347
 C369 C 0.84618 0.14583 0.92836
 N370 N 0.81641 0.16872 0.97106
 C371 C 0.83384 0.21392 0.99373
 C372 C 0.88037 0.24042 0.97026
 C373 C 0.89272 0.17072 0.90396
 C374 C 0.64189 0.15575 1.02853
 C375 C 0.59408 0.18628 1.04442
 C376 C 0.64278 0.26940 1.02083
 C377 C 0.68986 0.23712 1.00550
 N378 N 0.68927 0.18127 1.01209
 H379 H 0.83360 0.10833 0.91258
 H380 H 0.81111 0.23003 1.02926
 H381 H 0.89282 0.27770 0.98692
 H382 H 0.91376 0.15387 0.86794
 H383 H 0.64204 0.11123 1.03180
 H384 H 0.55829 0.16468 1.06118
 H385 H 0.64459 0.31384 1.01767
 H386 H 0.72691 0.25682 0.98961
 C387 C 0.67873 0.03803 0.86296
 C388 C 0.80486 0.03572 1.16045
 C389 C 0.59474 0.24388 1.04270
 C390 C 0.90977 0.21875 0.92455
 C391 C 0.30630 0.56195 0.56746
 H392 H 0.32833 0.55521 0.52829
 C393 C 0.32601 0.53647 0.61593
 H394 H 0.36277 0.50959 0.61324
 C395 C 0.23291 0.60711 0.61815
 H396 H 0.19779 0.63617 0.61915
 C397 C 0.25079 0.58194 0.66754
 H398 H 0.22876 0.59196 0.70588
 N399 N 0.26091 0.59701 0.56940
 C400 C 0.21803 0.61740 0.39793
 H401 H 0.23079 0.65918 0.38948
 C402 C 0.19563 0.59021 0.35678
 H403 H 0.19196 0.61129 0.31655
 C404 C 0.20558 0.54061 0.46148
 H405 H 0.20875 0.52208 0.50279
 C406 C 0.18079 0.51257 0.42197
 H407 H 0.16620 0.47233 0.43431
 Zn408 Zn 0.24308 0.63799 0.50334
 N409 N 0.22211 0.59263 0.44918
 C410 C 0.33942 0.64855 0.43485
 N411 N 0.30840 0.67343 0.47559
 C412 C 0.32563 0.71939 0.49707
 C413 C 0.37263 0.74505 0.47358
 C414 C 0.38703 0.67214 0.41100
 C415 C 0.13172 0.66082 0.53018
 C416 C 0.08309 0.69083 0.54535
 C417 C 0.13323 0.77401 0.53077
 C418 C 0.18053 0.74241 0.51444
 N419 N 0.17976 0.68652 0.51715
 H420 H 0.32706 0.61038 0.42028
 H421 H 0.30257 0.73666 0.53177
 H422 H 0.38447 0.78325 0.48884
 H423 H 0.40945 0.65339 0.37667
 H424 H 0.13164 0.61637 0.53084
 H425 H 0.04694 0.66815 0.55861
 H426 H 0.13569 0.81833 0.52996
 H427 H 0.21789 0.76275 0.50098
 C428 C 0.17357 0.53827 0.36906
 C429 C 0.29841 0.54656 0.66699
 C430 C 0.08389 0.74826 0.54895
 C431 C 0.40328 0.72148 0.42962
 C432 C 0.79445 0.93422 0.46138
 H433 H 0.81625 0.93006 0.49887
 C434 C 0.82008 0.95753 0.41337
 H435 H 0.86184 0.97072 0.41479
 C436 C 0.71669 0.91518 0.41315
 H437 H 0.67732 0.89650 0.41278
 C438 C 0.74055 0.93899 0.36409
 H439 H 0.71908 0.93764 0.32677
 N440 N 0.74425 0.91252 0.46025
 C441 C 0.65476 0.88933 0.61780
 H442 H 0.64024 0.84912 0.61155
 C443 C 0.63483 0.91648 0.66385
 H444 H 0.60388 0.89718 0.69127
 C445 C 0.71452 0.96135 0.59052
 H446 H 0.74609 0.97829 0.56199
 C447 C 0.69707 0.98913 0.63778
 H448 H 0.71481 1.02768 0.64512
 Zn449 Zn 0.71997 0.86814 0.52260
 N450 N 0.69293 0.91238 0.58135
 C451 C 0.79308 0.82989 0.60018
 N452 N 0.78268 0.82552 0.54665
 C453 C 0.82215 0.80453 0.51039
 C454 C 0.87615 0.79213 0.52666
 C455 C 0.84618 0.81998 0.61744
 C456 C 0.61130 0.85131 0.50419
 C457 C 0.56861 0.83218 0.47666
 C458 C 0.63095 0.76003 0.44241
 C459 C 0.67273 0.78004 0.47188
 N460 N 0.66248 0.82588 0.50080
 H461 H 0.76131 0.84540 0.62889
 H462 H 0.81326 0.80220 0.46770
 H463 H 0.90802 0.77916 0.49646
 H464 H 0.85331 0.82610 0.65997
 H465 H 0.60460 0.88960 0.52408
 H466 H 0.52925 0.85531 0.47695
 H467 H 0.64049 0.72663 0.41562
 H468 H 0.71424 0.76181 0.46794
 C469 C 0.65638 0.96663 0.67490
 C470 C 0.79334 0.96027 0.36351
 C471 C 0.57897 0.78792 0.44311
 C472 C 0.88946 0.80408 0.57976
 C473 C -0.04110 0.28283 0.43860
 H474 H -0.00222 0.30295 0.43400
 C475 C -0.08670 0.30884 0.46466
 H476 H -0.08183 0.34929 0.47905
 C477 C -0.09529 0.20984 0.41725
 H478 H -0.09876 0.17251 0.39630
 C479 C -0.14220 0.23407 0.44424
 H480 H -0.18135 0.21501 0.44334
 N481 N -0.04635 0.23510 0.41424
 C482 C 0.11618 0.15929 0.37783
 H483 H 0.11153 0.15095 0.33538
 C484 C 0.16456 0.14196 0.40256
 H485 H 0.19602 0.11888 0.37929
 C486 C 0.08121 0.20082 0.45899
 H487 H 0.04865 0.22399 0.48078
 C488 C 0.13016 0.18570 0.48481
 H489 H 0.13481 0.19653 0.52660
 Zn490 Zn 0.01378 0.21447 0.36598
 N491 N 0.07528 0.18763 0.40623
 C492 C 0.08780 0.29265 0.32410
 N493 N 0.03389 0.27994 0.32523
 C494 C -0.00622 0.31881 0.31167
 C495 C 0.00688 0.37402 0.30127
 C496 C 0.10248 0.34690 0.31442
 C497 C 0.00493 0.10689 0.33417
 C498 C -0.02091 0.06528 0.31079
 C499 C -0.07383 0.13456 0.25841
 C500 C -0.04599 0.17515 0.28202
 N501 N -0.00890 0.16067 0.32064
 H502 H 0.11918 0.26168 0.33497
 H503 H -0.04901 0.30803 0.31415
 H504 H -0.02556 0.40535 0.29403
 H505 H 0.14527 0.35678 0.31650
 H506 H 0.03219 0.09593 0.36681
 H507 H -0.01302 0.02285 0.32562
 H508 H -0.10729 0.14641 0.23211
 H509 H -0.05737 0.21812 0.27300
 C510 C 0.17230 0.15576 0.45630
 C511 C -0.13844 0.28470 0.46811
 C512 C -0.06266 0.07912 0.27468
 C513 C 0.06138 0.38846 0.30560
 C514 C 1.08019 0.82231 0.06521
 H515 H 1.04306 0.84819 0.06237
 C516 C 1.13008 0.84268 0.04313
 H517 H 1.12836 0.88393 0.02477
 C518 C 1.12545 0.73906 0.09577
 H519 H 1.12480 0.69993 0.11908
 C520 C 1.17591 0.75653 0.07116
 H521 H 1.21206 0.72936 0.07618
 N522 N 1.07832 0.77152 0.09160
 C523 C 0.90125 0.74642 0.09463
 H524 H 0.89005 0.76834 0.13114
 C525 C 0.86014 0.72197 0.06869
 H526 H 0.81770 0.72658 0.08498
 C527 C 0.97062 0.70759 0.03420
 H528 H 1.01401 0.69997 0.02286
 C529 C 0.93089 0.68109 0.00792
 H530 H 0.94543 0.65354 -0.02331
 Zn531 Zn 1.00835 0.75250 0.12792
 N532 N 0.95537 0.73820 0.07772
 C533 C 0.95592 0.85600 0.13695
 N534 N 0.98108 0.81454 0.16770
 C535 C 0.98588 0.81888 0.22257
 C536 C 0.95879 0.86263 0.24934
 C537 C 0.93194 0.90223 0.16133
 C538 C 1.03885 0.64073 0.14716
 C539 C 1.05002 0.59112 0.17731
 C540 C 1.00406 0.63028 0.25735
 C541 C 0.99331 0.67892 0.22539
 N542 N 1.01473 0.68490 0.17242
 H543 H 0.95254 0.85231 0.09336
 H544 H 1.01019 0.78847 0.24591
 H545 H 0.96079 0.86393 0.29351
 H546 H 0.91010 0.93249 0.13590
 H547 H 1.05190 0.64475 0.10390
 H548 H 1.07358 0.55826 0.15740
 H549 H 0.99047 0.62761 0.30061
 H550 H 0.96821 0.71158 0.24338
 C551 C 0.87461 0.68666 0.02625
 C552 C 1.17939 0.80952 0.04428
 C553 C 1.03518 0.58668 0.23386
 C554 C 0.93074 0.90500 0.21859
 C555 C 0.56070 0.31740 0.56265
 H556 H 0.52301 0.34233 0.55750
 C557 C 0.61100 0.33629 0.53941
 H558 H 0.61102 0.37560 0.51619
 C559 C 0.60615 0.23749 0.60210
 H560 H 0.60470 0.20006 0.62832
 C561 C 0.65710 0.25422 0.57859
 H562 H 0.69390 0.22891 0.58697
 N563 N 0.55915 0.26899 0.59370
 C564 C 0.38584 0.22679 0.60904
 H565 H 0.37664 0.23933 0.65052
 C566 C 0.34557 0.20251 0.58203
 H567 H 0.30518 0.19739 0.60282
 C568 C 0.45104 0.21492 0.53373
 H569 H 0.49286 0.21839 0.51611
 C570 C 0.41239 0.18844 0.50587
 H571 H 0.42590 0.17284 0.46667
 Zn572 Zn 0.49109 0.25089 0.63212
 N573 N 0.43753 0.23192 0.58501
 C574 C 0.42357 0.34659 0.64419
 N575 N 0.46368 0.31452 0.66888
 C576 C 0.48487 0.32952 0.71578
 C577 C 0.46188 0.37539 0.74231
 C578 C 0.40027 0.39317 0.66867
 C579 C 0.51549 0.13907 0.65269
 C580 C 0.53040 0.08989 0.68206
 C581 C 0.51320 0.13666 0.76611
 C582 C 0.49765 0.18463 0.73509
 N583 N 0.50217 0.18591 0.67919
 H584 H 0.40917 0.33594 0.60543
 H585 H 0.51900 0.30557 0.73307
 H586 H 0.47710 0.38558 0.78102
 H587 H 0.36656 0.41653 0.64986
 H588 H 0.51730 0.14059 0.60817
 H589 H 0.54466 0.05492 0.65896
 H590 H 0.51095 0.13750 0.81055
 H591 H 0.48359 0.22097 0.75588
 C592 C 0.35912 0.18004 0.53101
 C593 C 0.66020 0.30448 0.54698
 C594 C 0.53292 0.08896 0.73962
 C595 C 0.41872 0.40726 0.71875
 C596 C 0.47171 0.78727 0.93118
 H597 H 0.50929 0.80913 0.92315
 C598 C 0.42627 0.81356 0.95697
 H599 H 0.43097 0.85533 0.96801
 C600 C 0.41889 0.71132 0.91602
 H601 H 0.41557 0.67280 0.89713
 C602 C 0.37196 0.73597 0.94263
 H603 H 0.33333 0.71568 0.94313
 N604 N 0.46723 0.73770 0.91020
 C605 C 0.62334 0.65054 0.88188
 H606 H 0.61350 0.63050 0.84574
 C607 C 0.67072 0.63306 0.90872
 H608 H 0.69582 0.59876 0.89345
 C609 C 0.60414 0.72088 0.94381
 H610 H 0.57840 0.75521 0.95758
 C611 C 0.65228 0.70573 0.97089
 H612 H 0.66272 0.72827 1.00533
 Zn613 Zn 0.52645 0.71657 0.86076
 N614 N 0.59023 0.69304 0.90031
 C615 C 0.59632 0.79505 0.81246
 N616 N 0.54275 0.78106 0.81655
 C617 C 0.50106 0.81877 0.80457
 C618 C 0.51217 0.87451 0.79429
 C619 C 0.60916 0.84987 0.80216
 C620 C 0.50390 0.60866 0.84492
 C621 C 0.47397 0.56751 0.82593
 C622 C 0.44139 0.63198 0.75420
 C623 C 0.47332 0.67201 0.77392
 N624 N 0.50229 0.66007 0.81964
 H625 H 0.62872 0.76456 0.82218
 H626 H 0.45866 0.80670 0.80905
 H627 H 0.47850 0.90499 0.78936
 H628 H 0.65181 0.86091 0.80237
 H629 H 0.52444 0.60078 0.88286
 H630 H 0.47271 0.52795 0.84900
 H631 H 0.41438 0.64309 0.72117
 H632 H 0.47111 0.71369 0.75570
 C633 C 0.68592 0.66095 0.95362
 C634 C 0.37481 0.78832 0.96377
 C635 C 0.43986 0.57989 0.78211
 C636 C 0.56645 0.89056 0.79642
   
