data_POSCAR
  _audit_creation_date              2014-09-24
  _audit_creation_method            'ToBaCCo'
  _symmetry_space_group_name_H-M    'P1'
  _symmetry_Int_Tables_number       1
  _symmetry_cell_setting            triclinic
  loop_
  _symmetry_equiv_pos_as_xyz
 x,y,z
_cell_length_a 28.2450
_cell_length_b 33.7106
_cell_length_c 31.5221
_cell_angle_alpha 90.368200
_cell_angle_beta 88.886200
_cell_angle_gamma 89.251000
loop_
  _atom_site_label
  _atom_site_type_symbol
  _atom_site_fract_x
  _atom_site_fract_y
  _atom_site_fract_z
N1 N 0.27958 0.21520 0.18604
 N2 N 0.26489 0.25235 0.18392
 C3 C 0.27859 0.26774 0.14636
 C4 C 0.30383 0.23874 0.12452
 C5 C 0.30427 0.20583 0.15033
 H6 H 0.27233 0.29800 0.13652
 H7 H 0.32112 0.17742 0.14365
 Cu8 Cu 0.23255 0.27764 0.23178
 Cu9 Cu 0.26402 0.18145 0.23433
 Cu10 Cu 0.19128 0.22327 0.31301
 N11 N 0.18634 0.29939 0.27199
 N12 N 0.16963 0.27777 0.30337
 C13 C 0.13340 0.29757 0.32259
 C14 C 0.12780 0.33344 0.30241
 C15 C 0.16166 0.33380 0.27030
 H16 H 0.11047 0.28550 0.34703
 H17 H 0.16498 0.35543 0.24525
 N18 N 0.21707 0.16856 0.31619
 N19 N 0.24393 0.15240 0.28569
 C20 C 0.25356 0.11432 0.29559
 C21 C 0.23214 0.10660 0.33415
 C22 C 0.20933 0.14132 0.34666
 H23 H 0.27421 0.09369 0.27618
 H24 H 0.18787 0.14601 0.37507
 H25 H 0.20223 0.21250 0.24903
 H26 H 0.25541 0.22492 0.28048
 N27 N 0.76310 -0.19164 0.14921
 N28 N 0.77651 -0.22870 0.14265
 C29 C 0.74743 -0.24559 0.11463
 C30 C 0.71445 -0.21744 0.10271
 C31 C 0.72527 -0.18359 0.12522
 H32 H 0.74646 -0.27709 0.10796
 H33 H 0.70336 -0.15714 0.12854
 Cu34 Cu 0.82336 -0.25395 0.17826
 Cu35 Cu 0.78782 -0.16061 0.19629
 Cu36 Cu 0.82285 -0.22093 0.27888
 N37 N 0.85532 -0.28310 0.22223
 N38 N 0.85414 -0.27066 0.26194
 C39 C 0.87211 -0.29926 0.28681
 C40 C 0.88576 -0.33058 0.26087
 C41 C 0.87426 -0.31990 0.22028
 H42 H 0.87174 -0.29850 0.32113
 H43 H 0.87530 -0.33868 0.19231
 N44 N 0.80556 -0.16427 0.28672
 N45 N 0.79427 -0.14112 0.25463
 C46 C 0.78564 -0.10413 0.26915
 C47 C 0.79156 -0.10423 0.31230
 C48 C 0.80434 -0.14251 0.32287
 H49 H 0.77517 -0.07922 0.24985
 H50 H 0.81257 -0.15351 0.35407
 H51 H 0.84181 -0.19670 0.22266
 H52 H 0.77871 -0.21185 0.22805
 N53 N 0.71327 0.22077 0.81508
 N54 N 0.74128 0.24936 0.82741
 C55 C 0.72643 0.26291 0.86578
 C56 C 0.68645 0.24222 0.87707
 C57 C 0.67884 0.21564 0.84455
 H58 H 0.74324 0.28608 0.88373
 H59 H 0.65147 0.19355 0.84310
 Cu60 Cu 0.79447 0.26657 0.79211
 Cu61 Cu 0.72684 0.19084 0.76348
 Cu62 Cu 0.79407 0.23223 0.68792
 N63 N 0.82975 0.29215 0.74528
 N64 N 0.82793 0.28020 0.70529
 C65 C 0.84996 0.30684 0.68033
 C66 C 0.86662 0.33636 0.70626
 C67 C 0.85294 0.32676 0.74697
 H68 H 0.85130 0.30591 0.64602
 H69 H 0.85623 0.34497 0.77512
 N70 N 0.77632 0.17642 0.68502
 N71 N 0.75148 0.15982 0.71575
 C72 C 0.74532 0.12120 0.70656
 C73 C 0.76691 0.11366 0.66782
 C74 C 0.78615 0.14910 0.65461
 H75 H 0.72590 0.10050 0.72611
 H76 H 0.80600 0.15456 0.62558
 H77 H 0.80440 0.21969 0.74910
 H78 H 0.75473 0.25550 0.74023
 N79 N 0.28215 -0.22058 0.82738
 N80 N 0.25905 -0.25236 0.83942
 C81 C 0.28099 -0.26886 0.87258
 C82 C 0.32011 -0.24647 0.88114
 C83 C 0.31998 -0.21580 0.85227
 H84 H 0.26841 -0.29422 0.89015
 H85 H 0.34348 -0.19073 0.85121
 Cu86 Cu 0.20065 -0.26779 0.81262
 Cu87 Cu 0.25659 -0.18544 0.78440
 Cu88 Cu 0.18531 -0.23441 0.71324
 N89 N 0.15589 -0.29210 0.77485
 N90 N 0.15125 -0.28046 0.73533
 C91 C 0.12514 -0.30729 0.71444
 C92 C 0.11220 -0.33646 0.74291
 C93 C 0.13265 -0.32627 0.78064
 H94 H 0.11973 -0.30742 0.68056
 H95 H 0.13513 -0.34461 0.80857
 N96 N 0.21206 -0.18113 0.70204
 N97 N 0.23829 -0.16245 0.72997
 C98 C 0.24821 -0.12596 0.71566
 C99 C 0.22759 -0.12161 0.67687
 C100 C 0.20478 -0.15685 0.66875
 H101 H 0.26802 -0.10389 0.73260
 H102 H 0.18303 -0.16359 0.64185
 H103 H 0.18860 -0.20758 0.77150
 H104 H 0.24244 -0.23646 0.75381
 N105 N 0.73944 -0.20654 0.82789
 N106 N 0.76840 -0.23498 0.84019
 C107 C 0.75261 -0.24939 0.87761
 C108 C 0.71138 -0.22918 0.88856
 C109 C 0.70376 -0.20221 0.85661
 H110 H 0.76943 -0.27299 0.89514
 H111 H 0.67511 -0.18073 0.85478
 Cu112 Cu 0.82314 -0.25149 0.80547
 Cu113 Cu 0.75140 -0.17591 0.77667
 Cu114 Cu 0.83429 -0.21549 0.70641
 N115 N 0.86602 -0.27587 0.76320
 N116 N 0.87072 -0.26136 0.72470
 C117 C 0.89652 -0.28689 0.70043
 C118 C 0.90892 -0.31882 0.72509
 C119 C 0.88856 -0.31132 0.76457
 H120 H 0.90089 -0.28479 0.66635
 H121 H 0.88561 -0.33199 0.79058
 N122 N 0.80001 -0.16563 0.69538
 N123 N 0.76898 -0.15004 0.72286
 C124 C 0.75366 -0.11481 0.70818
 C125 C 0.77570 -0.10858 0.66958
 C126 C 0.80496 -0.14101 0.66210
 H127 H 0.72912 -0.09489 0.72462
 H128 H 0.82922 -0.14550 0.63549
 H129 H 0.77677 -0.22628 0.74777
 H130 H 0.82212 -0.18992 0.76612
 N131 N 0.27153 0.21497 0.82050
 N132 N 0.24975 0.24919 0.82781
 C133 C 0.26637 0.26529 0.86380
 C134 C 0.30090 0.24007 0.87876
 C135 C 0.30354 0.20847 0.85084
 H136 H 0.25447 0.29307 0.87793
 H137 H 0.32571 0.18222 0.85329
 Cu138 Cu 0.20247 0.26946 0.78894
 Cu139 Cu 0.25411 0.17962 0.77450
 Cu140 Cu 0.16729 0.21334 0.70706
 N141 N 0.15378 0.28809 0.75053
 N142 N 0.13955 0.26539 0.71922
 C143 C 0.10412 0.28385 0.69896
 C144 C 0.09646 0.32009 0.71824
 C145 C 0.12823 0.32223 0.75090
 H146 H 0.08507 0.27172 0.67254
 H147 H 0.13137 0.34605 0.77377
 N148 N 0.19942 0.16149 0.69981
 N149 N 0.23161 0.14811 0.72624
 C150 C 0.24507 0.11110 0.71428
 C151 C 0.22061 0.10141 0.67845
 C152 C 0.19206 0.13370 0.66981
 H153 H 0.27074 0.09269 0.73018
 H154 H 0.16731 0.13635 0.64422
 H155 H 0.23210 0.22368 0.73398
 H156 H 0.18569 0.20116 0.76892
 N157 N 0.28548 -0.22753 0.18015
 N158 N 0.26504 -0.26168 0.17263
 C159 C 0.28189 -0.27665 0.13541
 C160 C 0.31510 -0.25071 0.11981
 C161 C 0.31683 -0.21993 0.14867
 H162 H 0.27136 -0.30432 0.12112
 H163 H 0.33832 -0.19369 0.14641
 Cu164 Cu 0.21943 -0.28365 0.21288
 Cu165 Cu 0.26780 -0.19398 0.22842
 Cu166 Cu 0.18324 -0.23012 0.29844
 N167 N 0.17177 -0.30333 0.25263
 N168 N 0.15696 -0.28171 0.28533
 C169 C 0.12076 -0.30008 0.30501
 C170 C 0.11333 -0.33521 0.28394
 C171 C 0.14589 -0.33662 0.25075
 H172 H 0.10015 -0.28808 0.33148
 H173 H 0.14835 -0.35872 0.22576
 N174 N 0.21393 -0.17855 0.30639
 N175 N 0.24528 -0.16428 0.27901
 C176 C 0.25745 -0.12753 0.29153
 C177 C 0.23304 -0.11892 0.32866
 C178 C 0.20580 -0.15158 0.33753
 H179 H 0.28191 -0.10843 0.27489
 H180 H 0.18112 -0.15490 0.36387
 H181 H 0.24795 -0.23947 0.26823
 H182 H 0.20022 -0.21611 0.23620
 N183 N 0.70446 0.22236 0.17969
 N184 N 0.72432 0.25705 0.17366
 C185 C 0.70955 0.27221 0.13660
 C186 C 0.67834 0.24575 0.11950
 C187 C 0.67559 0.21453 0.14735
 H188 H 0.72010 0.30036 0.12343
 H189 H 0.65504 0.18790 0.14389
 Cu190 Cu 0.76650 0.27949 0.21540
 Cu191 Cu 0.71943 0.18851 0.22731
 Cu192 Cu 0.79774 0.22543 0.30004
 N193 N 0.81164 0.29882 0.25642
 N194 N 0.82405 0.27705 0.28898
 C195 C 0.85928 0.29484 0.30958
 C196 C 0.86869 0.32976 0.28925
 C197 C 0.83826 0.33174 0.25553
 H198 H 0.87827 0.28237 0.33591
 H199 H 0.83798 0.35378 0.23076
 N200 N 0.76777 0.17374 0.30608
 N201 N 0.73913 0.15881 0.27763
 C202 C 0.72852 0.12129 0.28852
 C203 C 0.75124 0.11302 0.32569
 C204 C 0.77571 0.14655 0.33620
 H205 H 0.70698 0.10130 0.27042
 H206 H 0.79919 0.15006 0.36260
 H207 H 0.73479 0.23396 0.26828
 H208 H 0.78553 0.21192 0.23675
 C209 C 0.21081 -0.04695 0.59272
 C210 C 0.21090 -0.01089 0.61539
 C211 C 0.20901 0.02565 0.59445
 C212 C 0.20800 0.02649 0.54981
 C213 C 0.20907 -0.00952 0.52645
 C214 C 0.20957 -0.04633 0.54797
 C215 C 0.21009 -0.08170 0.52415
 C216 C 0.21139 -0.08087 0.47990
 C217 C 0.21243 -0.04464 0.45803
 C218 C 0.21069 -0.00868 0.48144
 C219 C 0.20729 0.06270 0.52795
 C220 C 0.20908 0.06351 0.48377
 C221 C 0.21149 0.02814 0.45997
 C222 C 0.21579 0.02888 0.41532
 C223 C 0.21859 -0.00704 0.39252
 C224 C 0.21635 -0.04369 0.41338
 H225 H 0.21016 -0.11031 0.53958
 H226 H 0.21243 -0.10891 0.46294
 H227 H 0.20619 0.09076 0.54489
 H228 H 0.20925 0.09214 0.46840
 H229 H 0.21134 -0.01123 0.64972
 H230 H 0.22129 -0.00648 0.35823
 C231 C 0.78462 -0.03528 0.40405
 C232 C 0.77834 0.00111 0.38321
 C233 C 0.77594 0.03697 0.40563
 C234 C 0.77985 0.03705 0.44995
 C235 C 0.78418 0.00068 0.47181
 C236 C 0.78671 -0.03567 0.44885
 C237 C 0.79085 -0.07136 0.47135
 C238 C 0.79129 -0.07133 0.51571
 C239 C 0.78815 -0.03557 0.53893
 C240 C 0.78539 0.00075 0.51675
 C241 C 0.77846 0.07287 0.47296
 C242 C 0.78024 0.07295 0.51698
 C243 C 0.78302 0.03720 0.53943
 C244 C 0.78233 0.03727 0.58406
 C245 C 0.78351 0.00114 0.60573
 C246 C 0.78654 -0.03523 0.58375
 H247 H 0.79302 -0.09959 0.45479
 H248 H 0.79371 -0.09958 0.53174
 H249 H 0.77551 0.10118 0.45710
 H250 H 0.77858 0.10131 0.53333
 H251 H 0.77641 0.00183 0.34897
 H252 H 0.78311 0.00135 0.64008
 C253 C 0.39134 0.22611 0.03742
 C254 C 0.36711 0.22872 -0.00086
 C255 C 0.39187 0.22859 -0.03991
 C256 C 0.44186 0.22758 -0.04067
 C257 C 0.46655 0.22688 -0.00203
 C258 C 0.44119 0.22521 0.03704
 C259 C 0.46625 0.22383 0.07508
 C260 C 0.51549 0.22538 0.07473
 C261 C 0.54123 0.22820 0.03631
 C262 C 0.51670 0.22825 -0.00241
 C263 C 0.46778 0.22822 -0.07918
 C264 C 0.51717 0.22937 -0.07956
 C265 C 0.54218 0.23004 -0.04144
 C266 C 0.59196 0.23313 -0.04146
 C267 C 0.61565 0.23494 -0.00277
 C268 C 0.59083 0.23192 0.03594
 H269 H 0.44792 0.22235 0.10552
 H270 H 0.53320 0.22500 0.10489
 H271 H 0.45000 0.22853 -0.10931
 H272 H 0.53559 0.23047 -0.10997
 H273 H 0.32875 0.22877 -0.00030
 H274 H 0.65390 0.23676 -0.00275
 C275 C 0.41257 0.76543 -0.03888
 C276 C 0.38654 0.76168 -0.00069
 C277 C 0.40882 0.76250 0.03851
 C278 C 0.45836 0.76539 0.03992
 C279 C 0.48535 0.76840 0.00177
 C280 C 0.46235 0.76929 -0.03777
 C281 C 0.48984 0.77322 -0.07513
 C282 C 0.53920 0.77562 -0.07359
 C283 C 0.56268 0.77390 -0.03465
 C284 C 0.53545 0.77039 0.00328
 C285 C 0.48155 0.76455 0.07887
 C286 C 0.53063 0.76575 0.08028
 C287 C 0.55820 0.76838 0.04282
 C288 C 0.60793 0.76921 0.04446
 C289 C 0.63480 0.77235 0.00676
 C290 C 0.61269 0.77473 -0.03279
 H291 H 0.47335 0.77413 -0.10585
 H292 H 0.55891 0.77832 -0.10321
 H293 H 0.46193 0.76226 0.10860
 H294 H 0.54679 0.76455 0.11112
 H295 H 0.34829 0.76003 -0.00133
 H296 H 0.67306 0.77295 0.00820
 C297 C -0.05576 0.57862 0.28251
 C298 C -0.01384 0.60036 0.28047
 C299 C 0.03068 0.58128 0.27907
 C300 C 0.03347 0.53944 0.28012
 C301 C -0.00874 0.51725 0.28226
 C302 C -0.05337 0.53693 0.28307
 C303 C -0.09491 0.51446 0.28381
 C304 C -0.09265 0.47325 0.28395
 C305 C -0.04881 0.45322 0.28429
 C306 C -0.00644 0.47527 0.28372
 C307 C 0.07737 0.51923 0.27989
 C308 C 0.07965 0.47785 0.28237
 C309 C 0.03811 0.45539 0.28450
 C310 C 0.03978 0.41364 0.28798
 C311 C -0.00259 0.39240 0.28868
 C312 C -0.04658 0.41163 0.28580
 H313 H -0.12957 0.52857 0.28405
 H314 H -0.12561 0.45718 0.28451
 H315 H 0.11026 0.53535 0.27839
 H316 H 0.11419 0.46353 0.28272
 H317 H -0.01585 0.63244 0.27961
 H318 H -0.00118 0.36030 0.28940
 C319 C 0.04611 0.57669 0.71816
 C320 C 0.00684 0.60206 0.71229
 C321 C -0.03762 0.58653 0.70254
 C322 C -0.04313 0.54515 0.69887
 C323 C -0.00446 0.51933 0.70661
 C324 C 0.04023 0.53512 0.71627
 C325 C 0.07814 0.50886 0.72420
 C326 C 0.07193 0.46785 0.72317
 C327 C 0.02777 0.45168 0.71362
 C328 C -0.01059 0.47762 0.70475
 C329 C -0.08704 0.52899 0.68831
 C330 C -0.09291 0.48811 0.68588
 C331 C -0.05519 0.46196 0.69427
 C332 C -0.06154 0.42057 0.69324
 C333 C -0.02335 0.39520 0.70217
 C334 C 0.02125 0.41024 0.71218
 H335 H 0.11286 0.51984 0.73175
 H336 H 0.10208 0.44887 0.72981
 H337 H -0.11741 0.54783 0.68204
 H338 H -0.12748 0.47716 0.67780
 H339 H 0.01116 0.63390 0.71390
 H340 H -0.02844 0.36343 0.70139
 N341 N 0.32836 0.24337 0.08492
 N342 N 0.36566 0.22302 0.07682
 N343 N 0.67143 0.77392 0.09186
 N344 N 0.62997 0.76565 0.08491
 N345 N 0.66018 0.24582 -0.08397
 N346 N 0.61840 0.23239 -0.08076
 N347 N 0.34797 0.75016 -0.08177
 N348 N 0.38788 0.76685 -0.07827
 N349 N 0.08645 0.35808 0.30550
 N350 N 0.08401 0.39214 0.28837
 N351 N 0.10068 0.62726 0.73297
 N352 N 0.09254 0.59221 0.72486
 N353 N -0.10681 0.63306 0.27323
 N354 N -0.10108 0.59837 0.28414
 N355 N -0.11925 0.37129 0.69406
 N356 N -0.10702 0.40475 0.68329
 N357 N 0.23211 0.06926 0.35540
 N358 N 0.21705 0.06622 0.39353
 N359 N 0.76794 0.07650 0.64589
 N360 N 0.78037 0.07423 0.60696
 N361 N 0.22658 -0.08570 0.65309
 N362 N 0.21241 -0.08403 0.61506
 N363 N 0.78617 -0.07029 0.33924
 N364 N 0.78950 -0.07130 0.37945
 N365 N 0.68337 0.76556 -0.07371
 N366 N 0.64078 0.77831 -0.07103
 N367 N 0.32643 0.24443 -0.08289
 N368 N 0.36644 0.22727 -0.07879
 N369 N 0.34188 0.74546 0.08112
 N370 N 0.38123 0.76309 0.07714
 N371 N 0.65386 0.24972 0.08058
 N372 N 0.61592 0.23067 0.07495
 N373 N -0.08246 0.64569 0.70979
 N374 N -0.07747 0.61207 0.69474
 N375 N -0.09114 0.35379 0.29630
 N376 N -0.08870 0.38878 0.28181
 N377 N 0.05976 0.34772 0.70811
 N378 N 0.05963 0.38344 0.72138
 N379 N 0.07353 0.63977 0.29018
 N380 N 0.07271 0.60458 0.27542
 N381 N 0.77240 -0.07329 0.64510
 N382 N 0.78815 -0.07165 0.60706
 N383 N 0.23414 -0.08245 0.35186
 N384 N 0.21731 -0.08010 0.38952
 N385 N 0.75327 0.07581 0.34675
 N386 N 0.77086 0.07366 0.38349
 N387 N 0.22375 0.06478 0.65555
 N388 N 0.20775 0.06211 0.61821
   
