data_POSCAR
  _audit_creation_date              2014-09-24
  _audit_creation_method            'ToBaCCo'
  _symmetry_space_group_name_H-M    'P1'
  _symmetry_Int_Tables_number       1
  _symmetry_cell_setting            triclinic
  loop_
  _symmetry_equiv_pos_as_xyz
 x,y,z
_cell_length_a 16.2271
_cell_length_b 15.4224
_cell_length_c 17.7470
_cell_angle_alpha 88.215600
_cell_angle_beta 90.654200
_cell_angle_gamma 89.554200
loop_
  _atom_site_label
  _atom_site_type_symbol
  _atom_site_fract_x
  _atom_site_fract_y
  _atom_site_fract_z
C1 C 1.23753 0.24139 0.25323
 C2 C 0.73043 -0.24527 0.24393
 C3 C 0.74649 0.26075 -0.24384
 C4 C 1.24676 -0.23926 -0.25524
 C5 C 0.24799 0.25021 0.75368
 C6 C 0.75330 0.73456 0.75223
 C7 C 0.76735 0.25475 0.24669
 C8 C 0.25860 0.76655 0.25446
 O9 O 1.17133 0.05677 0.04765
 O10 O 0.84002 -0.10246 0.05555
 O11 O 0.92591 0.15504 0.06022
 O12 O 1.07913 -0.19664 0.04379
 O13 O 0.86848 0.03659 0.09427
 O14 O 1.13601 -0.08631 0.08799
 O15 O 0.95295 -0.16169 0.08860
 O16 O 1.06855 0.11979 0.09561
 C17 C 1.14213 0.09869 0.10011
 C18 C 0.88148 -0.14725 0.10260
 C19 C 0.87714 0.11417 0.10268
 C20 C 1.11812 -0.16324 0.09602
 O21 O 1.14088 -0.13434 -0.05910
 O22 O 0.85308 0.10403 -0.04895
 O23 O 1.11224 0.13697 -0.05414
 O24 O 0.88543 -0.16509 -0.05322
 O25 O 0.85503 -0.03840 -0.09231
 O26 O 1.14292 0.01205 -0.09558
 O27 O 1.02062 -0.15933 -0.10018
 O28 O 0.96999 0.14862 -0.08700
 Co29 Co 1.13352 -0.03634 -0.00413
 Co30 Co 0.86825 -0.00214 0.00144
 Co31 Co 1.01767 0.12497 0.00361
 Co32 Co 0.98609 -0.15536 -0.00540
 O33 O 1.00131 -0.01639 -0.00154
 C34 C 1.09509 -0.16275 -0.10928
 C35 C 0.89453 0.14826 -0.09502
 C36 C 1.14545 0.09119 -0.10314
 C37 C 0.85165 -0.11622 -0.10168
 O38 O 1.17301 0.57258 0.53592
 O39 O 0.82991 0.42242 0.52898
 O40 O 0.92386 0.62252 0.60114
 O41 O 1.07455 0.39013 0.60678
 O42 O 0.82608 0.57880 0.52824
 O43 O 1.16891 0.41329 0.52717
 O44 O 0.92734 0.39866 0.60813
 O45 O 1.07702 0.64659 0.59201
 C46 C 1.15051 0.62296 0.58658
 C47 C 0.85228 0.39950 0.59438
 C48 C 0.84954 0.60701 0.59075
 C49 C 1.14867 0.39030 0.59197
 O50 O 1.10917 0.42831 0.38774
 O51 O 0.88686 0.58214 0.38448
 O52 O 1.06116 0.68984 0.44815
 O53 O 0.92095 0.32734 0.46928
 O54 O 0.89959 0.43014 0.38902
 O55 O 1.13131 0.58905 0.39243
 O56 O 1.06987 0.32523 0.46434
 O57 O 0.90807 0.68382 0.45968
 Co58 Co 1.13069 0.50086 0.46403
 Co59 Co 0.87232 0.50346 0.46110
 Co60 Co 0.99249 0.64536 0.52254
 Co61 Co 0.99818 0.37276 0.53336
 O62 O 0.99922 0.50676 0.49551
 C63 C 1.10000 0.34970 0.40188
 C64 C 0.88381 0.66020 0.39672
 C65 C 1.11085 0.66667 0.39791
 C66 C 0.89937 0.35184 0.40433
 O67 O 0.67278 0.07543 0.55553
 O68 O 0.36533 -0.07803 0.58449
 O69 O 0.42407 0.17854 0.54865
 O70 O 0.60351 -0.17556 0.53053
 O71 O 0.37499 0.06684 0.59963
 O72 O 0.65268 -0.06961 0.58177
 O73 O 0.48168 -0.14309 0.60725
 O74 O 0.56799 0.14586 0.59858
 C75 C 0.64172 0.12147 0.60519
 C76 C 0.41084 -0.12555 0.62701
 C77 C 0.38839 0.14519 0.60280
 C78 C 0.64112 -0.14822 0.58458
 O79 O 0.63969 -0.09694 0.42313
 O80 O 0.35808 0.10072 0.44418
 O81 O 0.61670 0.16489 0.46014
 O82 O 0.39302 -0.16364 0.48601
 O83 O 0.36101 -0.05358 0.42274
 O84 O 0.64242 0.05319 0.40091
 O85 O 0.51673 -0.14581 0.40878
 O86 O 0.47298 0.16305 0.41259
 Co87 Co 0.63977 -0.00910 0.49142
 Co88 Co 0.37722 0.00815 0.51105
 Co89 Co 0.51925 0.14626 0.50514
 Co90 Co 0.50006 -0.13967 0.50777
 O91 O 0.50915 0.00254 0.50381
 C92 C 0.58760 -0.13831 0.38547
 C93 C 0.39808 0.15060 0.40068
 C94 C 0.64092 0.13338 0.40165
 C95 C 0.35797 -0.13390 0.42956
 O96 O 0.66276 0.59051 0.02654
 O97 O 0.32063 0.43880 0.04726
 O98 O 0.42597 0.62550 0.10944
 O99 O 0.57254 0.38712 0.11250
 O100 O 0.32534 0.59822 0.03672
 O101 O 0.66686 0.43457 0.03634
 O102 O 0.41769 0.36233 0.10512
 O103 O 0.56775 0.60991 0.10450
 C104 C 0.64149 0.61080 0.09089
 C105 C 0.34384 0.38597 0.09858
 C106 C 0.35105 0.62592 0.09844
 C107 C 0.64675 0.40066 0.09906
 O108 O 0.59983 0.43066 -0.10669
 O109 O 0.37824 0.58488 -0.10616
 O110 O 0.56987 0.68440 -0.03913
 O111 O 0.43204 0.32348 -0.03835
 O112 O 0.35628 0.42475 -0.09555
 O113 O 0.58646 0.58045 -0.11217
 O114 O 0.58428 0.32865 -0.02606
 O115 O 0.41964 0.68826 -0.03658
 Co116 Co 0.61746 0.50888 -0.03511
 Co117 Co 0.35978 0.51195 -0.02667
 Co118 Co 0.49584 0.63956 0.03125
 Co119 Co 0.50109 0.36602 0.03518
 O120 O 0.49212 0.50520 0.00215
 C121 C 0.60653 0.35331 -0.09011
 C122 C 0.38743 0.66319 -0.09697
 C123 C 0.59073 0.65863 -0.10250
 C124 C 0.38263 0.34825 -0.09047
 C125 C 1.17500 0.19322 0.20590
 C126 C 1.19760 0.13117 0.15902
 H127 H 1.11184 0.21685 0.20343
 H128 H 1.26132 0.10955 0.15898
 C129 C 1.18841 0.71421 0.69188
 C130 C 1.21134 0.65542 0.64161
 H131 H 1.12572 0.73885 0.68795
 H132 H 1.27489 0.63373 0.63940
 C133 C 0.68115 0.21994 0.70634
 C134 C 0.69777 0.15208 0.66424
 H135 H 0.62199 0.25257 0.69870
 H136 H 0.75856 0.12251 0.66819
 C137 C 0.67181 0.70054 0.19812
 C138 C 0.69924 0.64689 0.14529
 H139 H 0.60661 0.71506 0.19860
 H140 H 0.76473 0.63705 0.13750
 C141 C 0.77057 -0.18603 0.18664
 C142 C 0.84819 -0.19406 0.16710
 H143 H 0.73131 -0.13946 0.15583
 H144 H 0.88863 -0.24059 0.19605
 C145 C 0.81030 0.30735 0.70542
 C146 C 0.79078 0.36570 0.64970
 H147 H 0.87435 0.28749 0.71083
 H148 H 0.72663 0.38295 0.63994
 C149 C 0.29384 -0.17644 0.69613
 C150 C 0.37552 -0.17507 0.68922
 H151 H 0.25611 -0.13209 0.66142
 H152 H 0.41561 -0.21915 0.72121
 C153 C 0.29928 0.28416 0.19927
 C154 C 0.28217 0.35214 0.15260
 H155 H 0.35853 0.25215 0.19344
 H156 H 0.22126 0.38140 0.15228
 C157 C 0.78926 0.19177 -0.19224
 C158 C 0.85609 0.20977 -0.15043
 H159 H 0.76047 0.12899 -0.18402
 H160 H 0.88546 0.27222 -0.15785
 C161 C 0.78824 0.69424 0.29063
 C162 C 0.84156 0.72162 0.34342
 H163 H 0.78144 0.62489 0.28451
 H164 H 0.84842 0.79028 0.35241
 C165 C 0.28362 0.17988 0.30868
 C166 C 0.35602 0.20185 0.34040
 H167 H 0.25361 0.12072 0.32779
 H168 H 0.38569 0.26170 0.32288
 C169 C 0.29996 0.69803 -0.20780
 C170 C 0.34980 0.72495 -0.15184
 H171 H 0.29178 0.62916 -0.21546
 H172 H 0.35701 0.79359 -0.14257
 C173 C 1.19900 -0.18493 -0.20161
 C174 C 1.12879 -0.21058 -0.17045
 H175 H 1.22804 -0.12660 -0.18139
 H176 H 1.09734 -0.26861 -0.18737
 C177 C 1.19277 0.30821 0.29958
 C178 C 1.13490 0.28596 0.35053
 H179 H 1.21220 0.37524 0.29478
 H180 H 1.11810 0.21849 0.35865
 C181 C 0.68943 -0.18451 0.29718
 C182 C 0.61318 -0.19114 0.32329
 H183 H 0.72820 -0.13347 0.31855
 H184 H 0.57147 -0.24105 0.30579
 C185 C 0.70221 0.32331 -0.19340
 C186 C 0.64885 0.29453 -0.14059
 H187 H 0.71294 0.39231 -0.20105
 H188 H 0.63934 0.22552 -0.13174
 C189 C 1.19501 0.20987 -0.18453
 C190 C 1.19656 0.12647 -0.16357
 H191 H 1.15474 0.25325 -0.15459
 H192 H 1.23679 0.08101 -0.19055
 C193 C 1.20894 0.70490 0.29769
 C194 C 1.14585 0.72824 0.34800
 H195 H 1.22565 0.63668 0.29574
 H196 H 1.12876 0.79594 0.35237
 C197 C 0.73099 0.17959 0.29466
 C198 C 0.66805 0.19350 0.34089
 H199 H 0.76273 0.11743 0.29836
 H200 H 0.64162 0.25826 0.34146
 C201 C 0.68481 0.68184 -0.21007
 C202 C 0.63460 0.71524 -0.15763
 H203 H 0.68482 0.61242 -0.21799
 H204 H 0.63623 0.78407 -0.14743
 C205 C 0.80510 -0.22970 -0.18426
 C206 C 0.80107 -0.14769 -0.16293
 H207 H 0.84552 -0.27478 -0.15313
 H208 H 0.75966 -0.10115 -0.19054
 C209 C 0.80790 0.31762 0.29915
 C210 C 0.86414 0.29120 0.35128
 H211 H 0.79075 0.38571 0.29436
 H212 H 0.87994 0.22302 0.35833
 C213 C 0.30145 -0.17350 0.30419
 C214 C 0.32298 -0.19221 0.37940
 H215 H 0.32062 -0.11043 0.28203
 H216 H 0.31790 -0.25891 0.39988
 C217 C 0.30620 0.31133 -0.20619
 C218 C 0.35294 0.28561 -0.14604
 H219 H 0.29933 0.38028 -0.21887
 H220 H 0.36110 0.21702 -0.13274
 C221 C 1.20723 -0.18017 0.20483
 C222 C 1.14539 -0.21208 0.15806
 H223 H 1.22706 -0.11418 0.19203
 H224 H 1.12286 -0.27756 0.16588
 C225 C 1.18777 0.30107 0.70285
 C226 C 1.21040 0.35329 0.64530
 H227 H 1.12233 0.28911 0.70979
 H228 H 1.27501 0.36362 0.63387
 C229 C 0.72154 -0.19371 0.69774
 C230 C 0.66040 -0.20702 0.64904
 H231 H 0.75925 -0.13679 0.68800
 H232 H 0.62654 -0.26721 0.65261
 C233 C 0.69884 0.29992 0.19969
 C234 C 0.71189 0.36741 0.15161
 H235 H 0.63769 0.27209 0.20124
 H236 H 0.77360 0.39279 0.14551
 C237 C 0.83278 0.22176 0.19394
 C238 C 0.81716 0.15493 0.15103
 H239 H 0.89231 0.25314 0.19033
 H240 H 0.75789 0.12326 0.15569
 C241 C 0.81151 0.67836 0.70728
 C242 C 0.78850 0.63329 0.64703
 H243 H 0.87713 0.68703 0.71681
 H244 H 0.72389 0.62418 0.63426
 C245 C 0.29151 0.18310 0.70486
 C246 C 0.35851 0.20093 0.66375
 H247 H 0.25836 0.12462 0.69183
 H248 H 0.38798 0.26322 0.66920
 C249 C 0.31857 0.71972 0.20856
 C250 C 0.29620 0.66251 0.14997
 H251 H 0.38378 0.73218 0.21664
 H252 H 0.23216 0.64913 0.13978
   
