data_POSCAR
  _audit_creation_date              2014-09-24
  _audit_creation_method            'ToBaCCo'
  _symmetry_space_group_name_H-M    'P1'
  _symmetry_Int_Tables_number       1
  _symmetry_cell_setting            triclinic
  loop_
  _symmetry_equiv_pos_as_xyz
 x,y,z
_cell_length_a 37.0745
_cell_length_b 37.9031
_cell_length_c 38.6737
_cell_angle_alpha 90.044500
_cell_angle_beta 90.014000
_cell_angle_gamma 90.025000
loop_
  _atom_site_label
  _atom_site_type_symbol
  _atom_site_fract_x
  _atom_site_fract_y
  _atom_site_fract_z
O1 O 0.32410 0.36698 0.03932
 O2 O 0.37227 0.32056 -0.02852
 O3 O 0.32483 0.36980 -0.02698
 O4 O 0.36999 0.31662 0.03799
 O5 O 0.32736 0.27601 0.03501
 O6 O 0.27969 0.33194 -0.03005
 O7 O 0.32913 0.28055 -0.03240
 O8 O 0.27933 0.32856 0.03712
 Cu9 Cu 0.35211 0.34724 0.00568
 Cu10 Cu 0.29938 0.30013 0.00209
 C11 C 0.29345 0.35650 0.04946
 C12 C 0.35966 0.29261 -0.04178
 C13 C 0.29430 0.36093 -0.03899
 C14 C 0.35704 0.28722 0.04738
 O15 O 0.67653 0.63309 0.02676
 O16 O 0.62732 0.67885 -0.04096
 O17 O 0.67384 0.62895 -0.03950
 O18 O 0.62897 0.68209 0.02560
 O19 O 0.67136 0.72294 0.02270
 O20 O 0.71871 0.66710 -0.04295
 O21 O 0.67011 0.71922 -0.04483
 O22 O 0.72099 0.67181 0.02409
 Cu23 Cu 0.64739 0.65196 -0.00672
 Cu24 Cu 0.69975 0.69944 -0.01064
 C25 C 0.70722 0.64387 0.03664
 C26 C 0.63969 0.70693 -0.05416
 C27 C 0.70417 0.63796 -0.05175
 C28 C 0.64175 0.71153 0.03511
 O29 O 0.62701 0.32085 1.03188
 O30 O 0.67729 0.36643 0.96472
 O31 O 0.62979 0.31717 0.96539
 O32 O 0.67329 0.37092 1.03090
 O33 O 0.71827 0.33305 1.03536
 O34 O 0.67204 0.27635 0.96975
 O35 O 0.72173 0.32783 0.96838
 O36 O 0.67007 0.28095 1.03712
 Cu37 Cu 0.64757 0.34761 0.99776
 Cu38 Cu 0.70001 0.30041 1.00303
 C39 C 0.63941 0.29314 1.04580
 C40 C 0.70819 0.35572 0.95548
 C41 C 0.64261 0.28750 0.95674
 C42 C 0.70338 0.36210 1.04379
 O43 O 0.32486 0.63271 0.96924
 O44 O 0.37203 0.67965 1.03743
 O45 O 0.32442 0.63043 1.03558
 O46 O 0.37072 0.68295 0.97083
 O47 O 0.32800 0.72352 0.97239
 O48 O 0.27937 0.66842 1.03756
 O49 O 0.32914 0.71999 1.03990
 O50 O 0.28012 0.67118 0.97035
 Cu51 Cu 0.35231 0.65269 1.00321
 Cu52 Cu 0.29966 0.69992 1.00540
 C53 C 0.29446 0.64318 0.95841
 C54 C 0.35946 0.70796 1.04992
 C55 C 0.29367 0.63942 1.04691
 C56 C 0.35783 0.71208 0.96060
 O57 O -0.03914 0.37298 0.31896
 O58 O 0.02929 0.32468 0.36695
 O59 O 0.03010 0.37223 0.31974
 O60 O -0.04016 0.32808 0.36816
 O61 O -0.04126 0.28384 0.33103
 O62 O 0.02863 0.33137 0.27900
 O63 O 0.02888 0.28173 0.32833
 O64 O -0.04156 0.33104 0.27934
 Cu65 Cu -0.00481 0.35357 0.34725
 Cu66 Cu -0.00649 0.30259 0.30037
 C67 C -0.05170 0.36086 0.29087
 C68 C 0.04051 0.29494 0.35645
 C69 C 0.04077 0.36041 0.29090
 C70 C -0.05214 0.29824 0.35895
 O71 O 0.03876 0.67276 0.63194
 O72 O -0.03156 0.62693 0.67953
 O73 O -0.03062 0.67306 0.63112
 O74 O 0.03770 0.62679 0.68037
 O75 O 0.03747 0.66814 0.72065
 O76 O -0.03099 0.71715 0.66842
 O77 O -0.03272 0.66876 0.71931
 O78 O 0.03918 0.71611 0.67014
 Cu79 Cu 0.00356 0.64576 0.65197
 Cu80 Cu 0.00310 0.69697 0.69869
 C81 C 0.05067 0.70229 0.64223
 C82 C -0.04369 0.63921 0.70769
 C83 C -0.04183 0.70323 0.64028
 C84 C 0.04884 0.63876 0.70902
 O85 O 0.96122 0.67141 0.37256
 O86 O 1.03145 0.62577 0.32444
 O87 O 1.03036 0.67131 0.37358
 O88 O 0.96173 0.62595 0.32358
 O89 O 0.96216 0.66796 0.28404
 O90 O 1.03118 0.71570 0.33668
 O91 O 1.03285 0.66813 0.28530
 O92 O 0.96127 0.71527 0.33496
 Cu93 Cu 0.99618 0.64433 0.35216
 Cu94 Cu 0.99704 0.69612 0.30615
 C95 C 0.94971 0.70124 0.36272
 C96 C 1.04394 0.63854 0.29665
 C97 C 1.04172 0.70154 0.36477
 C98 C 0.95032 0.63863 0.29534
 O99 O 0.97075 0.32797 0.62668
 O100 O 1.03987 0.37469 0.67568
 O101 O 1.03981 0.33098 0.62520
 O102 O 0.97004 0.37464 0.67495
 O103 O 0.97084 0.33259 0.71443
 O104 O 1.04082 0.28621 0.66168
 O105 O 1.04157 0.33197 0.71444
 O106 O 0.97100 0.28414 0.66428
 Cu107 Cu 1.00497 0.35638 0.64707
 Cu108 Cu 1.00623 0.30437 0.69277
 C109 C 0.95960 0.29791 0.63637
 C110 C 1.05244 0.36171 0.70338
 C111 C 1.05145 0.30084 0.63381
 C112 C 0.95872 0.36185 0.70314
 O113 O 0.37529 0.03219 0.32773
 O114 O 0.32628 -0.03790 0.37146
 O115 O 0.37527 -0.03539 0.32448
 O116 O 0.32608 0.03028 0.37423
 O117 O 0.28330 0.03271 0.33456
 O118 O 0.33428 -0.03405 0.28305
 O119 O 0.28324 -0.03645 0.33200
 O120 O 0.33427 0.03436 0.28633
 Cu121 Cu 0.35472 -0.00294 0.35350
 Cu122 Cu 0.30432 -0.00078 0.30489
 C123 C 0.36393 0.04477 0.29941
 C124 C 0.29636 -0.04888 0.35987
 C125 C 0.36406 -0.04535 0.29509
 C126 C 0.29645 0.04269 0.36336
 O127 O 0.62621 0.03631 0.67448
 O128 O 0.67536 -0.03283 0.62951
 O129 O 0.62646 -0.03131 0.67637
 O130 O 0.67561 0.03541 0.62808
 O131 O 0.71853 0.03680 0.66767
 O132 O 0.66727 -0.03062 0.71799
 O133 O 0.71819 -0.03238 0.66921
 O134 O 0.66722 0.03785 0.71591
 Cu135 Cu 0.64693 0.00179 0.64806
 Cu136 Cu 0.69725 0.00301 0.69680
 C137 C 0.63750 0.04836 0.70306
 C138 C 0.70507 -0.04432 0.64112
 C139 C 0.63762 -0.04185 0.70555
 C140 C 0.70538 0.04738 0.63910
 O141 O 0.36528 0.96761 0.67616
 O142 O 0.31857 1.03750 0.63019
 O143 O 0.36489 1.03569 0.67948
 O144 O 0.31904 0.97013 0.62701
 O145 O 0.27400 0.96713 0.66428
 O146 O 0.32170 1.03394 0.71876
 O147 O 0.27319 1.03554 0.66715
 O148 O 0.32211 0.96505 0.71544
 Cu149 Cu 0.34634 1.00299 0.64961
 Cu150 Cu 0.29323 1.00028 0.69547
 C151 C 0.35231 0.95459 0.70363
 C152 C 0.28764 1.04775 0.63981
 C153 C 0.35183 1.04579 0.70807
 C154 C 0.28862 0.95792 0.63589
 O155 O 0.63492 0.96369 0.32281
 O156 O 0.67933 1.03310 0.37150
 O157 O 0.63441 1.03190 0.32122
 O158 O 0.68015 0.96572 0.37294
 O159 O 0.72598 0.96437 0.33647
 O160 O 0.67872 1.03220 0.28305
 O161 O 0.72584 1.03268 0.33586
 O162 O 0.67882 0.96312 0.28423
 Cu163 Cu 0.65270 0.99864 0.35058
 Cu164 Cu 0.70691 0.99810 0.30589
 C165 C 0.64859 0.95178 0.29517
 C166 C 0.71051 1.04391 0.36322
 C167 C 0.64815 1.04327 0.29340
 C168 C 0.71102 0.95434 0.36441
 C169 C 0.89489 0.75788 0.50200
 C170 C 0.88157 0.77182 0.47129
 C171 C 0.85934 0.80157 0.47237
 C172 C 0.85054 0.81816 0.50431
 C173 C 0.86619 0.80411 0.53501
 C174 C 0.88721 0.77331 0.53397
 C175 C 0.82300 0.84764 0.50563
 C176 C 0.80657 0.85789 0.53736
 C177 C 0.77759 0.88161 0.53778
 C178 C 0.76428 0.89480 0.50668
 C179 C 0.78009 0.88602 0.47513
 C180 C 0.81031 0.86388 0.47476
 H181 H 0.91216 0.73483 0.50084
 H182 H 0.84808 0.81003 0.44809
 H183 H 0.86165 0.81593 0.55998
 H184 H 0.81451 0.84672 0.56182
 H185 H 0.74152 0.91276 0.50711
 H186 H 0.82252 0.85884 0.44997
 C187 C 0.10559 0.24272 0.49414
 C188 C 0.11391 0.22560 0.46322
 C189 C 0.13448 0.19453 0.46408
 C190 C 0.14919 0.18188 0.49576
 C191 C 0.13971 0.20006 0.52666
 C192 C 0.11772 0.23002 0.52588
 C193 C 0.17657 0.15224 0.49652
 C194 C 0.18820 0.13739 0.52843
 C195 C 0.21848 0.11544 0.52989
 C196 C 0.23538 0.10528 0.49931
 C197 C 0.22306 0.11692 0.46722
 C198 C 0.19403 0.14059 0.46577
 H199 H 0.08863 0.26601 0.49347
 H200 H 0.13951 0.18146 0.43979
 H201 H 0.15024 0.19262 0.55155
 H202 H 0.17519 0.14347 0.55262
 H203 H 0.25823 0.08746 0.50056
 H204 H 0.18685 0.15068 0.44065
 C205 C 0.10592 0.75690 0.50327
 C206 C 0.11968 0.77138 0.53362
 C207 C 0.14197 0.80110 0.53179
 C208 C 0.15019 0.81715 0.49948
 C209 C 0.13396 0.80270 0.46926
 C210 C 0.11302 0.77189 0.47100
 C211 C 0.17764 0.84662 0.49719
 C212 C 0.19409 0.85565 0.46513
 C213 C 0.22275 0.87970 0.46385
 C214 C 0.23579 0.89437 0.49442
 C215 C 0.22012 0.88659 0.52630
 C216 C 0.19015 0.86410 0.52747
 H217 H 0.08869 0.73385 0.50499
 H218 H 0.15371 0.81002 0.55574
 H219 H 0.13795 0.81432 0.44411
 H220 H 0.18644 0.84324 0.44114
 H221 H 0.25834 0.91258 0.49327
 H222 H 0.17793 0.85977 0.55240
 C223 C 0.89391 0.24299 0.49799
 C224 C 0.88648 0.22703 0.52964
 C225 C 0.86587 0.19600 0.53029
 C226 C 0.85001 0.18235 0.49950
 C227 C 0.85867 0.19931 0.46772
 C228 C 0.88079 0.22924 0.46698
 C229 C 0.82249 0.15282 0.50078
 C230 C 0.80951 0.13660 0.46994
 C231 C 0.77974 0.11379 0.47068
 C232 C 0.76466 0.10463 0.50247
 C233 C 0.77781 0.11838 0.53338
 C234 C 0.80636 0.14254 0.53264
 H235 H 0.91098 0.26622 0.49744
 H236 H 0.86177 0.18373 0.55510
 H237 H 0.84744 0.19089 0.44339
 H238 H 0.82117 0.14211 0.44501
 H239 H 0.74233 0.08616 0.50327
 H240 H 0.81410 0.15409 0.55700
 C241 C 0.49365 0.89599 0.76053
 C242 C 0.46120 0.88355 0.77401
 C243 C 0.46164 0.86198 0.80337
 C244 C 0.49466 0.85322 0.81999
 C245 C 0.52692 0.86861 0.80691
 C246 C 0.52653 0.88859 0.77644
 C247 C 0.49581 0.82574 0.84827
 C248 C 0.52869 0.80844 0.85673
 C249 C 0.52917 0.77969 0.87937
 C250 C 0.49689 0.76747 0.89333
 C251 C 0.46415 0.78391 0.88606
 C252 C 0.46371 0.81384 0.86479
 H253 H 0.49324 0.91243 0.73760
 H254 H 0.43617 0.85111 0.81159
 H255 H 0.55268 0.86445 0.81919
 H256 H 0.55395 0.81546 0.84477
 H257 H 0.49728 0.74488 0.91054
 H258 H 0.43803 0.82645 0.86049
 C259 C 0.50678 0.10497 0.24037
 C260 C 0.47325 0.11577 0.22803
 C261 C 0.47152 0.13699 0.19849
 C262 C 0.50333 0.14712 0.18049
 C263 C 0.53682 0.13341 0.19253
 C264 C 0.53857 0.11362 0.22310
 C265 C 0.50178 0.17420 0.15176
 C266 C 0.53352 0.19196 0.14058
 C267 C 0.53157 0.22054 0.11772
 C268 C 0.49796 0.23204 0.10621
 C269 C 0.46633 0.21498 0.11602
 C270 C 0.46823 0.18530 0.13748
 H271 H 0.50820 0.08875 0.26343
 H272 H 0.44521 0.14641 0.19117
 H273 H 0.56191 0.13866 0.17942
 H274 H 0.55984 0.18540 0.15046
 H275 H 0.49629 0.25452 0.08893
 H276 H 0.44315 0.17237 0.14361
 C277 C 0.49388 0.10595 0.76292
 C278 C 0.52728 0.11668 0.77570
 C279 C 0.52871 0.13728 0.80570
 C280 C 0.49673 0.14689 0.82371
 C281 C 0.46339 0.13324 0.81118
 C282 C 0.46193 0.11408 0.78018
 C283 C 0.49796 0.17349 0.85293
 C284 C 0.46606 0.19090 0.86422
 C285 C 0.46773 0.21928 0.88737
 C286 C 0.50123 0.23090 0.89916
 C287 C 0.53302 0.21412 0.88930
 C288 C 0.53137 0.18464 0.86751
 H289 H 0.49270 0.09023 0.73950
 H290 H 0.55493 0.14669 0.81336
 H291 H 0.43819 0.13811 0.82423
 H292 H 0.43982 0.18431 0.85411
 H293 H 0.50269 0.25335 0.91654
 H294 H 0.55656 0.17197 0.86129
 C295 C 0.50809 0.89455 0.23683
 C296 C 0.54030 0.88247 0.22255
 C297 C 0.53937 0.86166 0.19264
 C298 C 0.50606 0.85323 0.17630
 C299 C 0.47403 0.86827 0.19031
 C300 C 0.47493 0.88753 0.22127
 C301 C 0.50443 0.82640 0.14734
 C302 C 0.47128 0.80972 0.13853
 C303 C 0.47034 0.78138 0.11536
 C304 C 0.50241 0.76898 0.10110
 C305 C 0.53542 0.78484 0.10865
 C306 C 0.53632 0.81435 0.13053
 H307 H 0.50894 0.91038 0.26020
 H308 H 0.56472 0.85110 0.18377
 H309 H 0.44804 0.86438 0.17839
 H310 H 0.44613 0.81680 0.15064
 H311 H 0.50168 0.74658 0.08362
 H312 H 0.56223 0.82641 0.13508
 C313 C 0.76345 0.49547 0.89517
 C314 C 0.78026 0.46400 0.88598
 C315 C 0.81085 0.46488 0.86477
 C316 C 0.82320 0.49718 0.85015
 C317 C 0.80554 0.52881 0.86067
 C318 C 0.77598 0.52795 0.88324
 C319 C 0.85154 0.49757 0.82187
 C320 C 0.86547 0.52989 0.80865
 C321 C 0.88628 0.53050 0.77841
 C322 C 0.89578 0.49878 0.76261
 C323 C 0.88485 0.46644 0.77610
 C324 C 0.86272 0.46575 0.80542
 H325 H 0.74037 0.49456 0.91238
 H326 H 0.82350 0.43995 0.85915
 H327 H 0.81297 0.55427 0.85060
 H328 H 0.85958 0.55496 0.82050
 H329 H 0.91266 0.49925 0.73970
 H330 H 0.85342 0.44020 0.81365
 C331 C 0.23625 0.49726 0.10452
 C332 C 0.22192 0.46592 0.11718
 C333 C 0.19252 0.46704 0.13971
 C334 C 0.17669 0.49970 0.14973
 C335 C 0.19113 0.53114 0.13496
 C336 C 0.22161 0.52997 0.11339
 C337 C 0.14800 0.50085 0.17763
 C338 C 0.13856 0.53303 0.19439
 C339 C 0.11621 0.53310 0.22365
 C340 C 0.10359 0.50114 0.23676
 C341 C 0.11134 0.46922 0.22049
 C342 C 0.13197 0.46923 0.19021
 H343 H 0.25914 0.49599 0.08710
 H344 H 0.18395 0.44213 0.15025
 H345 H 0.18001 0.55675 0.14065
 H346 H 0.14936 0.55811 0.18634
 H347 H 0.08675 0.50113 0.25969
 H348 H 0.13610 0.44408 0.17787
 C349 C 0.76119 0.50453 0.09827
 C350 C 0.77760 0.53601 0.10810
 C351 C 0.80724 0.53520 0.13050
 C352 C 0.81890 0.50293 0.14568
 C353 C 0.80168 0.47128 0.13456
 C354 C 0.77315 0.47210 0.11081
 C355 C 0.84593 0.50262 0.17509
 C356 C 0.85940 0.47035 0.18882
 C357 C 0.87897 0.46982 0.21983
 C358 C 0.88768 0.50158 0.23598
 C359 C 0.87720 0.53386 0.22208
 C360 C 0.85628 0.53446 0.19196
 H361 H 0.73885 0.50541 0.08019
 H362 H 0.81963 0.56015 0.13658
 H363 H 0.80859 0.44587 0.14505
 H364 H 0.85418 0.44528 0.17667
 H365 H 0.90379 0.50121 0.25940
 H366 H 0.84729 0.55999 0.18336
 C367 C 0.23828 0.50289 0.90190
 C368 C 0.22469 0.53415 0.88840
 C369 C 0.19660 0.53293 0.86438
 C370 C 0.18131 0.50021 0.85372
 C371 C 0.19498 0.46884 0.86924
 C372 C 0.22423 0.47013 0.89231
 C373 C 0.15411 0.49894 0.82449
 C374 C 0.14552 0.46671 0.80738
 C375 C 0.12448 0.46656 0.77723
 C376 C 0.11239 0.49845 0.76360
 C377 C 0.11930 0.53040 0.78012
 C378 C 0.13858 0.53050 0.81122
 H379 H 0.26021 0.50423 0.92042
 H380 H 0.18868 0.55778 0.85326
 H381 H 0.18427 0.44318 0.86300
 H382 H 0.15592 0.44167 0.81596
 H383 H 0.09639 0.49835 0.74012
 H384 H 0.14200 0.55565 0.82378
 N385 N 0.29304 0.40553 0.08963
 C386 C 0.27426 0.37928 0.07403
 N387 N 0.23766 0.37936 0.07636
 N388 N 0.22058 0.40564 0.09261
 C389 C 0.23958 0.43267 0.10694
 N390 N 0.27609 0.43165 0.10572
 N391 N 0.70768 0.59690 0.07895
 C392 C 0.72667 0.62164 0.06146
 N393 N 0.76335 0.62052 0.06260
 N394 N 0.78022 0.59462 0.07962
 C395 C 0.76090 0.56906 0.09595
 N396 N 0.72441 0.57122 0.09584
 N397 N 0.76490 0.37920 0.93075
 C398 C 0.72820 0.37804 0.93110
 N399 N 0.70962 0.40291 0.91338
 N400 N 0.72674 0.42870 0.89700
 C401 C 0.76323 0.43089 0.89767
 N402 N 0.78217 0.40522 0.91424
 N403 N 0.29504 0.59433 0.91805
 C404 C 0.27587 0.62044 0.93338
 N405 N 0.23934 0.62040 0.93013
 N406 N 0.22269 0.59425 0.91325
 C407 C 0.24205 0.56736 0.89917
 N408 N 0.27852 0.56835 0.90133
 N409 N 0.08316 0.29445 0.40390
 C410 C 0.06584 0.27594 0.37896
 N411 N 0.06766 0.24007 0.37958
 N412 N 0.08512 0.22347 0.40512
 C413 C 0.10125 0.24227 0.43084
 N414 N 0.10052 0.27800 0.42918
 N415 N 0.09163 0.70207 0.59340
 C416 C 0.07619 0.72064 0.61944
 N417 N 0.07929 0.75640 0.61942
 N418 N 0.09596 0.77290 0.59338
 C419 C 0.11001 0.75416 0.56656
 N420 N 0.10817 0.71846 0.56755
 N421 N 0.92105 0.75546 0.38524
 C422 C 0.92468 0.71975 0.38587
 N423 N 0.91011 0.70156 0.41259
 N424 N 0.89388 0.71828 0.43843
 C425 C 0.89148 0.75397 0.43871
 N426 N 0.90467 0.77230 0.41125
 N427 N 0.93103 0.24333 0.61400
 C428 C 0.93487 0.27904 0.61311
 N429 N 0.91995 0.29714 0.58656
 N430 N 0.90287 0.28036 0.56127
 C431 C 0.90004 0.24468 0.56124
 N432 N 0.91380 0.22640 0.58849
 N433 N 0.38456 0.07585 0.24685
 C434 C 0.38752 0.06981 0.28139
 N435 N 0.41676 0.08242 0.29841
 N436 N 0.44277 0.09921 0.28153
 C437 C 0.44073 0.10411 0.24687
 N438 N 0.41074 0.09280 0.22987
 N439 N 0.61641 0.07798 0.75630
 C440 C 0.61372 0.07285 0.72159
 N441 N 0.58446 0.08564 0.70477
 N442 N 0.55820 0.10174 0.72194
 C443 C 0.55999 0.10573 0.75673
 N444 N 0.58999 0.09425 0.77359
 N445 N 0.40197 0.91316 0.70448
 C446 C 0.37460 0.92871 0.72198
 N447 N 0.37323 0.92516 0.75695
 N448 N 0.39937 0.90798 0.77378
 C449 C 0.42764 0.89383 0.75617
 N450 N 0.42790 0.89608 0.72119
 N451 N 0.62771 0.92480 0.24056
 C452 C 0.62699 0.92611 0.27569
 N453 N 0.60038 0.90877 0.29266
 N454 N 0.57454 0.89211 0.27539
 C455 C 0.57411 0.89208 0.24034
 N456 N 0.60165 0.90805 0.22315
 N457 N 0.41203 0.29118 0.92088
 C458 C 0.38273 0.27401 0.93335
 N459 N 0.37942 0.23881 0.92723
 N460 N 0.40533 0.22136 0.91031
 C461 C 0.43537 0.23855 0.89911
 N462 N 0.43775 0.27386 0.90413
 N463 N 0.58770 0.70803 0.90797
 C464 C 0.61641 0.72555 0.92122
 N465 N 0.61860 0.76106 0.91662
 N466 N 0.59206 0.77845 0.90060
 C467 C 0.56255 0.76087 0.88874
 N468 N 0.56136 0.72529 0.89208
 N469 N 0.41088 0.70964 0.08847
 C470 C 0.38253 0.72709 0.07444
 N471 N 0.38092 0.76277 0.07786
 N472 N 0.40760 0.78032 0.09355
 C473 C 0.43674 0.76274 0.10622
 N474 N 0.43738 0.72707 0.10401
 N475 N 0.61984 0.24000 0.07782
 C476 C 0.61612 0.27495 0.07071
 N477 N 0.58658 0.29214 0.08257
 N478 N 0.56100 0.27500 0.09968
 C479 C 0.56377 0.23987 0.10567
 N480 N 0.59406 0.22272 0.09507
 N481 N 0.28788 0.08818 0.59145
 C482 C 0.26858 0.07213 0.61668
 N483 N 0.23193 0.07346 0.61522
 N484 N 0.21538 0.08932 0.58871
 C485 C 0.23502 0.10410 0.56276
 N486 N 0.27148 0.10384 0.56513
 N487 N 0.76362 0.07427 0.38411
 C488 C 0.72782 0.06646 0.38637
 N489 N 0.70936 0.07725 0.41468
 N490 N 0.72594 0.09380 0.44035
 C491 C 0.76186 0.10027 0.43909
 N492 N 0.78039 0.09095 0.41009
 N493 N 0.70573 0.91317 0.59429
 C494 C 0.72425 0.92962 0.61985
 N495 N 0.76075 0.92616 0.62090
 N496 N 0.77806 0.90811 0.59624
 C497 C 0.75939 0.89291 0.56984
 N498 N 0.72291 0.89523 0.56983
 N499 N 0.29502 0.90845 0.40652
 C500 C 0.27678 0.92526 0.38103
 N501 N 0.24019 0.92275 0.38027
 N502 N 0.22257 0.90531 0.40513
 C503 C 0.24100 0.88976 0.43145
 N504 N 0.27754 0.89111 0.43119
 N505 N 0.09528 0.40997 0.70612
 C506 C 0.07843 0.38323 0.72281
 N507 N 0.08112 0.38133 0.75784
 N508 N 0.09867 0.40636 0.77552
 C509 C 0.11418 0.43399 0.75869
 N510 N 0.11279 0.43475 0.72366
 N511 N 0.07312 0.61866 0.24247
 C512 C 0.06999 0.61683 0.27748
 N513 N 0.08627 0.58988 0.29437
 N514 N 0.10368 0.56488 0.27706
 C515 C 0.10557 0.56564 0.24206
 N516 N 0.09062 0.59344 0.22504
 N517 N 0.92175 0.38335 0.23651
 C518 C 0.92336 0.38361 0.27167
 N519 N 0.90694 0.41013 0.28906
 N520 N 0.89069 0.43610 0.27219
 C521 C 0.89028 0.43689 0.23714
 N522 N 0.90539 0.40957 0.21949
 N523 N 0.92969 0.61678 0.76207
 C524 C 0.93100 0.61679 0.72690
 N525 N 0.91416 0.59053 0.70945
 N526 N 0.89781 0.56454 0.72624
 C527 C 0.89768 0.56350 0.76127
 N528 N 0.91320 0.59057 0.77901
 N529 N 0.70404 0.58364 0.91836
 C530 C 0.72154 0.61387 0.92670
 N531 N 0.75672 0.61748 0.91721
 N532 N 0.77397 0.59098 0.90140
 C533 C 0.75657 0.56010 0.89452
 N534 N 0.72112 0.55742 0.90264
 N535 N 0.29473 0.41489 0.93071
 C536 C 0.27696 0.38496 0.93940
 N537 N 0.24178 0.38145 0.92975
 N538 N 0.22485 0.40773 0.91326
 C539 C 0.24260 0.43829 0.90590
 N540 N 0.27799 0.44084 0.91432
 N541 N 0.29328 0.58555 0.07739
 C542 C 0.27574 0.61544 0.06817
 N543 N 0.24025 0.61882 0.07672
 N544 N 0.22283 0.59245 0.09263
 C545 C 0.24039 0.56193 0.10049
 N546 N 0.27606 0.55952 0.09321
 N547 N 0.75499 0.38267 0.07618
 C548 C 0.72012 0.38625 0.06571
 N549 N 0.70234 0.41643 0.07362
 N550 N 0.71892 0.44264 0.08987
 C551 C 0.75411 0.43997 0.09898
 N552 N 0.77174 0.40916 0.09251
 N553 N 0.92763 0.75586 0.62030
 C554 C 0.93543 0.72085 0.61737
 N555 N 0.92424 0.70336 0.58877
 N556 N 0.90733 0.72010 0.56346
 C557 C 0.90093 0.75524 0.56532
 N558 N 0.91066 0.77281 0.59463
 N559 N 0.91688 0.24622 0.37938
 C560 C 0.92448 0.28128 0.38172
 N561 N 0.91316 0.29924 0.41002
 N562 N 0.89671 0.28278 0.43582
 C563 C 0.89088 0.24753 0.43463
 N564 N 0.90044 0.22957 0.40551
 N565 N 0.08247 0.24887 0.61351
 C566 C 0.07406 0.28368 0.61049
 N567 N 0.08392 0.30100 0.58131
 N568 N 0.09990 0.28411 0.55548
 C569 C 0.10680 0.24909 0.55757
 N570 N 0.09857 0.23184 0.58742
 N571 N 0.07452 0.70182 0.41699
 C572 C 0.06423 0.71907 0.38796
 N573 N 0.07279 0.75386 0.38470
 N574 N 0.08978 0.77087 0.41034
 C575 C 0.09869 0.75359 0.44001
 N576 N 0.09140 0.71864 0.44231
 N577 N 0.61435 0.93209 0.75991
 C578 C 0.61390 0.93413 0.72478
 N579 N 0.58666 0.91832 0.70732
 N580 N 0.56023 0.90212 0.72409
 C581 C 0.55969 0.90109 0.75912
 N582 N 0.58768 0.91572 0.77684
 N583 N 0.38678 0.92958 0.23999
 C584 C 0.38793 0.93134 0.27514
 N585 N 0.41586 0.91594 0.29189
 N586 N 0.44223 0.90037 0.27444
 C587 C 0.44203 0.89961 0.23940
 N588 N 0.41338 0.91385 0.22238
 N589 N 0.62466 0.06717 0.23832
 C590 C 0.62647 0.06844 0.27346
 N591 N 0.60194 0.08813 0.29081
 N592 N 0.57578 0.10481 0.27408
 C593 C 0.57280 0.10243 0.23922
 N594 N 0.59822 0.08393 0.22145
 N595 N 0.39886 0.08985 0.71162
 C596 C 0.37392 0.07027 0.72854
 N597 N 0.37546 0.06852 0.76366
 N598 N 0.40200 0.08474 0.78094
 C599 C 0.42781 0.10314 0.76360
 N600 N 0.42514 0.10597 0.72875
 N601 N 0.59473 0.71438 0.07832
 C602 C 0.62003 0.73192 0.05983
 N603 N 0.61986 0.76784 0.06033
 N604 N 0.59435 0.78535 0.07782
 C605 C 0.56822 0.76745 0.09525
 N606 N 0.56947 0.73172 0.09566
 N607 N 0.38093 0.23068 0.06957
 C608 C 0.37867 0.26645 0.07176
 N609 N 0.40261 0.28390 0.09197
 N610 N 0.42865 0.26667 0.10834
 C611 C 0.43203 0.23122 0.10515
 N612 N 0.40724 0.21331 0.08601
 N613 N 0.61867 0.23061 0.93527
 C614 C 0.62095 0.26634 0.93262
 N615 N 0.59681 0.28348 0.91240
 N616 N 0.57060 0.26603 0.89647
 C617 C 0.56725 0.23062 0.90008
 N618 N 0.59221 0.21300 0.91922
 N619 N 0.37998 0.76798 0.93497
 C620 C 0.37949 0.73207 0.93562
 N621 N 0.40433 0.71419 0.91689
 N622 N 0.42953 0.73122 0.89920
 C623 C 0.43117 0.76694 0.89951
 N624 N 0.40547 0.78518 0.91716
 N625 N 0.76561 0.92572 0.38861
 C626 C 0.72932 0.93111 0.38919
 N627 N 0.71017 0.91928 0.41665
 N628 N 0.72650 0.90361 0.44300
 C629 C 0.76276 0.89913 0.44320
 N630 N 0.78206 0.90981 0.41515
 N631 N 0.28960 0.92338 0.58331
 C632 C 0.27054 0.93446 0.61113
 N633 N 0.23452 0.92766 0.61237
 N634 N 0.21821 0.91103 0.58613
 C635 C 0.23739 0.90103 0.55775
 N636 N 0.27343 0.90700 0.55728
 N637 N 0.29555 0.08088 0.41365
 C638 C 0.27753 0.06769 0.38605
 N639 N 0.24157 0.07420 0.38314
 N640 N 0.22419 0.09217 0.40781
 C641 C 0.24224 0.10419 0.43613
 N642 N 0.27831 0.09870 0.43813
 N643 N 0.70599 0.08753 0.59038
 C644 C 0.72452 0.07245 0.61670
 N645 N 0.76097 0.07644 0.61786
 N646 N 0.77823 0.09370 0.59265
 C647 C 0.75956 0.10755 0.56557
 N648 N 0.72312 0.10467 0.56538
 N649 N 0.92216 0.61858 0.24076
 C650 C 0.92446 0.61712 0.27582
 N651 N 0.90727 0.59070 0.29270
 N652 N 0.88975 0.56581 0.27536
 C653 C 0.88865 0.56618 0.24034
 N654 N 0.90452 0.59347 0.22328
 N655 N 0.91550 0.40964 0.70566
 C656 C 0.93266 0.38324 0.72261
 N657 N 0.93027 0.38184 0.75768
 N658 N 0.91250 0.40692 0.77507
 C659 C 0.89663 0.43417 0.75793
 N660 N 0.89789 0.43452 0.72291
 N661 N 0.07445 0.61600 0.76372
 C662 C 0.07368 0.61622 0.72855
 N663 N 0.09093 0.59021 0.71115
 N664 N 0.10727 0.56427 0.72798
 C665 C 0.10693 0.56303 0.76299
 N666 N 0.09095 0.58984 0.78071
 N667 N 0.08319 0.40875 0.28901
 C668 C 0.06580 0.38289 0.27146
 N669 N 0.06636 0.38350 0.23628
 N670 N 0.08282 0.40982 0.21947
 C671 C 0.09893 0.43646 0.23737
 N672 N 0.09944 0.43488 0.27236
   
