data_POSCAR
  _audit_creation_date              2014-09-24
  _audit_creation_method            'ToBaCCo'
  _symmetry_space_group_name_H-M    'P1'
  _symmetry_Int_Tables_number       1
  _symmetry_cell_setting            triclinic
  loop_
  _symmetry_equiv_pos_as_xyz
 x,y,z
_cell_length_a 54.8242
_cell_length_b 46.7104
_cell_length_c 29.5516
_cell_angle_alpha 90.229300
_cell_angle_beta 90.000800
_cell_angle_gamma 90.062100
loop_
  _atom_site_label
  _atom_site_type_symbol
  _atom_site_fract_x
  _atom_site_fract_y
  _atom_site_fract_z
O1 O 0.23479 0.27558 0.20850
 O2 O 0.27868 0.22072 0.24527
 O3 O 0.23537 0.21956 0.20922
 O4 O 0.27818 0.27620 0.24475
 O5 O 0.26169 0.27635 0.31283
 O6 O 0.21851 0.22035 0.27691
 O7 O 0.26208 0.22083 0.31326
 O8 O 0.21811 0.27548 0.27650
 Cu9 Cu 0.25836 0.24801 0.22007
 Cu10 Cu 0.23848 0.24828 0.30171
 C11 C 0.21877 0.28463 0.23611
 C12 C 0.27807 0.21162 0.28570
 C13 C 0.21936 0.21046 0.23680
 C14 C 0.27751 0.28566 0.28510
 O15 O 0.73537 0.22246 0.29112
 O16 O 0.77889 0.27813 0.25551
 O17 O 0.73533 0.27838 0.29099
 O18 O 0.77891 0.22260 0.25566
 O19 O 0.76267 0.22230 0.18737
 O20 O 0.71897 0.27776 0.22271
 O21 O 0.76278 0.27782 0.18721
 O22 O 0.71893 0.22265 0.22291
 Cu23 Cu 0.75872 0.25043 0.28019
 Cu24 Cu 0.73926 0.25012 0.19817
 C25 C 0.71950 0.21336 0.26322
 C26 C 0.77857 0.28726 0.21504
 C27 C 0.71948 0.28727 0.26302
 C28 C 0.77843 0.21314 0.21530
 O29 O 0.73546 0.77731 0.71001
 O30 O 0.77881 0.72167 0.74610
 O31 O 0.73526 0.72140 0.71058
 O32 O 0.77901 0.77720 0.74542
 O33 O 0.76289 0.77768 0.81372
 O34 O 0.71884 0.72236 0.77879
 O35 O 0.76259 0.72217 0.81440
 O36 O 0.71909 0.77747 0.77828
 Cu37 Cu 0.75873 0.74934 0.72116
 Cu38 Cu 0.73928 0.74998 0.80318
 C39 C 0.71965 0.78658 0.73787
 C40 C 0.77832 0.71265 0.78660
 C41 C 0.71935 0.71267 0.73859
 C42 C 0.77871 0.78676 0.78575
 O43 O 0.27869 0.77814 0.75610
 O44 O 0.23482 0.72316 0.79289
 O45 O 0.27820 0.72266 0.75664
 O46 O 0.23537 0.77917 0.79218
 O47 O 0.21851 0.77833 0.72449
 O48 O 0.26171 0.72246 0.68856
 O49 O 0.21814 0.72319 0.72488
 O50 O 0.26208 0.77798 0.68812
 Cu51 Cu 0.25838 0.75080 0.78131
 Cu52 Cu 0.23849 0.75046 0.69967
 C53 C 0.27808 0.78723 0.71566
 C54 C 0.21880 0.71405 0.76528
 C55 C 0.27752 0.71319 0.71630
 C56 C 0.21935 0.78822 0.76460
 C57 C 0.97944 -0.04725 -0.06148
 C58 C 1.00161 -0.05815 -0.07712
 C59 C 1.02402 -0.04721 -0.06217
 C60 C 1.02429 -0.02409 -0.03081
 C61 C 1.00187 -0.01246 -0.01515
 C62 C 0.97940 -0.02406 -0.03057
 C63 C 0.95746 -0.01200 -0.01506
 C64 C 0.95748 0.01049 0.01581
 C65 C 0.97944 0.02241 0.03156
 C66 C 1.00189 0.01071 0.01632
 C67 C 1.04622 -0.01253 -0.01416
 C68 C 1.04625 0.01061 0.01566
 C69 C 1.02433 0.02226 0.03214
 C70 C 1.02411 0.04539 0.06347
 C71 C 1.00172 0.05639 0.07830
 C72 C 0.97953 0.04558 0.06251
 H73 H 0.93994 -0.01973 -0.02672
 H74 H 0.93998 0.01834 0.02728
 H75 H 1.06373 -0.02117 -0.02387
 H76 H 1.06377 0.01917 0.02551
 H77 H 1.00140 -0.07589 -0.10093
 H78 H 1.00153 0.07414 0.10211
 C79 C 0.47882 0.45235 0.44039
 C80 C 0.50101 0.44121 0.42532
 C81 C 0.52339 0.45238 0.44001
 C82 C 0.52361 0.47597 0.47042
 C83 C 0.50117 0.48776 0.48567
 C84 C 0.47872 0.47590 0.47061
 C85 C 0.45675 0.48805 0.48581
 C86 C 0.45672 0.51092 0.51598
 C87 C 0.47867 0.52314 0.53127
 C88 C 0.50114 0.51135 0.51630
 C89 C 0.54553 0.48786 0.48655
 C90 C 0.54551 0.51140 0.51560
 C91 C 0.52356 0.52322 0.53164
 C92 C 0.52329 0.54681 0.56204
 C93 C 0.50089 0.55790 0.57664
 C94 C 0.47872 0.54669 0.56149
 H95 H 0.43925 0.48007 0.47447
 H96 H 0.43921 0.51884 0.52724
 H97 H 0.56304 0.47919 0.47696
 H98 H 0.56301 0.52013 0.52527
 H99 H 0.50086 0.42313 0.40215
 H100 H 0.50070 0.57598 0.59981
 C101 C -0.02071 0.45171 0.06027
 C102 C 0.00147 0.44034 0.07486
 C103 C 0.02386 0.45146 0.06033
 C104 C 0.02413 0.47526 0.03063
 C105 C 0.00172 0.48724 0.01579
 C106 C -0.02076 0.47540 0.03062
 C107 C -0.04270 0.48773 0.01581
 C108 C -0.04268 0.51073 -0.01383
 C109 C -0.02071 0.52294 -0.02886
 C110 C 0.00174 0.51101 -0.01419
 C111 C 0.04608 0.48718 0.01482
 C112 C 0.04611 0.51092 -0.01350
 C113 C 0.02418 0.52292 -0.02916
 C114 C 0.02396 0.54674 -0.05883
 C115 C 0.00159 0.55791 -0.07326
 C116 C -0.02061 0.54661 -0.05853
 H117 H -0.06021 0.47979 0.02700
 H118 H -0.06017 0.51879 -0.02484
 H119 H 0.06358 0.47837 0.02413
 H120 H 0.06362 0.51966 -0.02294
 H121 H 0.00128 0.42214 0.09756
 H122 H 0.00144 0.57611 -0.09595
 C123 C 0.47999 0.95224 0.56016
 C124 C 0.50219 0.94106 0.57500
 C125 C 0.52456 0.95223 0.56047
 C126 C 0.52478 0.97590 0.53050
 C127 C 0.50234 0.98772 0.51548
 C128 C 0.47989 0.97584 0.53033
 C129 C 0.45792 0.98801 0.51535
 C130 C 0.45790 1.01094 0.48558
 C131 C 0.47984 1.02319 0.47050
 C132 C 0.50232 1.01138 0.48527
 C133 C 0.54671 0.98782 0.51459
 C134 C 0.54668 1.01142 0.48597
 C135 C 0.52473 1.02328 0.47016
 C136 C 0.52446 1.04695 0.44019
 C137 C 0.50206 1.05804 0.42575
 C138 C 0.47989 1.04678 0.44067
 H139 H 0.44043 0.98001 0.52654
 H140 H 0.44039 1.01889 0.47447
 H141 H 0.56422 0.97912 0.52403
 H142 H 0.56418 1.02018 0.47645
 H143 H 0.50203 0.92295 0.59788
 H144 H 0.50187 1.07616 0.40288
 C145 C 1.16546 0.15208 0.19181
 C146 C 1.16359 0.16504 0.23452
 C147 C 1.18191 0.18336 0.25018
 C148 C 1.20213 0.18998 0.22267
 C149 C 1.20410 0.17649 0.18005
 C150 C 1.18610 0.15740 0.16511
 C151 C 1.14517 0.13464 0.17409
 N152 N 1.14940 0.11049 0.14955
 N153 N 1.13087 0.09539 0.13246
 C154 C 1.10751 0.10421 0.13871
 N155 N 1.10333 0.12838 0.16311
 N156 N 1.12180 0.14319 0.18075
 C157 C 1.08698 0.08863 0.11804
 C158 C 1.06867 0.10391 0.09556
 C159 C 1.04882 0.08958 0.07653
 C160 C 1.04655 0.05973 0.08058
 C161 C 1.06471 0.04446 0.10384
 C162 C 1.08509 0.05875 0.12155
 H163 H 1.14782 0.16112 0.25571
 H164 H 1.17967 0.19319 0.28318
 H165 H 1.21943 0.18081 0.15798
 H166 H 1.18783 0.14771 0.13191
 H167 H 1.06984 0.12697 0.09245
 H168 H 1.03497 0.10185 0.05911
 H169 H 1.06300 0.02157 0.10861
 H170 H 1.09893 0.04666 0.13929
 C171 C 0.66342 0.65547 0.69166
 C172 C 0.65884 0.67472 0.72724
 C173 C 0.67736 0.69249 0.74360
 C174 C 0.70065 0.69189 0.72387
 C175 C 0.70536 0.67240 0.68860
 C176 C 0.68696 0.65402 0.67305
 C177 C 0.64331 0.63821 0.67262
 N178 N 0.64730 0.61155 0.65559
 N179 N 0.62901 0.59639 0.63779
 C180 C 0.60615 0.60752 0.63577
 N181 N 0.60223 0.63418 0.65266
 N182 N 0.62041 0.64915 0.67096
 C183 C 0.58587 0.59136 0.61508
 C184 C 0.56781 0.60599 0.59078
 C185 C 0.54807 0.59118 0.57227
 C186 C 0.54570 0.56152 0.57839
 C187 C 0.56366 0.54685 0.60307
 C188 C 0.58386 0.56159 0.62053
 H189 H 0.64085 0.67614 0.74224
 H190 H 0.67322 0.70744 0.77064
 H191 H 0.72319 0.67154 0.67291
 H192 H 0.69088 0.63944 0.64541
 H193 H 0.56901 0.62893 0.58601
 H194 H 0.53435 0.60298 0.55368
 H195 H 0.56186 0.52411 0.60927
 H196 H 0.59746 0.54994 0.63960
 C197 C -0.16643 0.34441 0.17057
 C198 C -0.18446 0.33457 0.14048
 C199 C -0.20301 0.31634 0.15538
 C200 C -0.20389 0.30727 0.20076
 C201 C -0.18617 0.31781 0.23109
 C202 C -0.16774 0.33618 0.21619
 C203 C -0.14589 0.36226 0.15420
 N204 N -0.12954 0.37371 0.18371
 N205 N -0.11053 0.38877 0.16890
 C206 C -0.10699 0.39296 0.12391
 N207 N -0.12342 0.38165 0.09440
 N208 N -0.14246 0.36665 0.10922
 C209 C -0.08534 0.40884 0.10739
 C210 C -0.07983 0.40968 0.06090
 C211 C -0.05895 0.42380 0.04553
 C212 C -0.04339 0.43771 0.07624
 C213 C -0.04881 0.43698 0.12258
 C214 C -0.06960 0.42272 0.13804
 H215 H -0.18410 0.34065 0.10517
 H216 H -0.21632 0.30888 0.13093
 H217 H -0.18622 0.31153 0.26634
 H218 H -0.15419 0.34340 0.24034
 H219 H -0.09144 0.39905 0.03640
 H220 H -0.05480 0.42375 0.00969
 H221 H -0.03686 0.44739 0.14678
 H222 H -0.07326 0.42248 0.17404
 C223 C 0.33416 0.84480 0.66969
 C224 C 0.33203 0.83800 0.71583
 C225 C 0.31350 0.81981 0.73089
 C226 C 0.29659 0.80813 0.70021
 C227 C 0.29828 0.81556 0.65429
 C228 C 0.31689 0.83364 0.63918
 C229 C 0.35476 0.86257 0.65333
 N230 N 0.35870 0.86615 0.60832
 N231 N 0.37777 0.88114 0.59359
 C232 C 0.39372 0.89323 0.62323
 N233 N 0.38967 0.88983 0.66824
 N234 N 0.37063 0.87479 0.68297
 C235 C 0.41539 0.90913 0.60685
 C236 C 0.43091 0.92332 0.63757
 C237 C 0.45171 0.93763 0.62225
 C238 C 0.45734 0.93813 0.57599
 C239 C 0.44201 0.92393 0.54523
 C240 C 0.42114 0.90973 0.56045
 H241 H 0.34498 0.84624 0.74030
 H242 H 0.31267 0.81457 0.76652
 H243 H 0.28553 0.80692 0.62978
 H244 H 0.31790 0.83853 0.60345
 H245 H 0.42708 0.92327 0.67350
 H246 H 0.46348 0.94827 0.64649
 H247 H 0.44633 0.92373 0.50945
 H248 H 0.40970 0.89889 0.53590
 C249 C -0.16601 0.65454 -0.16787
 C250 C -0.16812 0.66143 -0.21398
 C251 C -0.18653 0.67978 -0.22893
 C252 C -0.20333 0.69155 -0.19815
 C253 C -0.20167 0.68401 -0.15227
 C254 C -0.18319 0.66577 -0.13728
 C255 C -0.14551 0.63664 -0.15157
 N256 N -0.14162 0.63294 -0.10657
 N257 N -0.12263 0.61785 -0.09187
 C258 C -0.10672 0.60576 -0.12153
 N259 N -0.11072 0.60926 -0.16653
 N260 N -0.12968 0.62441 -0.18123
 C261 C -0.08511 0.58978 -0.10516
 C262 C -0.06962 0.57561 -0.13589
 C263 C -0.04887 0.56126 -0.12059
 C264 C -0.04325 0.56070 -0.07432
 C265 C -0.05857 0.57486 -0.04354
 C266 C -0.07940 0.58911 -0.05875
 H267 H -0.15524 0.65314 -0.23850
 H268 H -0.18735 0.68511 -0.26453
 H269 H -0.21434 0.69270 -0.12769
 H270 H -0.18220 0.66081 -0.10157
 H271 H -0.07343 0.57572 -0.17184
 H272 H -0.03710 0.55065 -0.14484
 H273 H -0.05426 0.57503 -0.00776
 H274 H -0.09081 0.59993 -0.03418
 C275 C 0.33410 1.15409 0.33156
 C276 C 0.33196 1.16090 0.28543
 C277 C 0.31346 1.17908 0.27041
 C278 C 0.29658 1.19075 0.30112
 C279 C 0.29828 1.18332 0.34705
 C280 C 0.31686 1.16524 0.36211
 C281 C 0.35468 1.13632 0.34788
 N282 N 0.35864 1.13272 0.39288
 N283 N 0.37769 1.11773 0.40756
 C284 C 0.39360 1.10564 0.37788
 N285 N 0.38953 1.10905 0.33288
 N286 N 0.37051 1.12409 0.31820
 C287 C 0.41526 1.08975 0.39420
 C288 C 0.43074 1.07559 0.36344
 C289 C 0.45154 1.06131 0.37869
 C290 C 0.45722 1.06082 0.42493
 C291 C 0.44192 1.07498 0.45574
 C292 C 0.42104 1.08915 0.44058
 H293 H 0.34489 1.15266 0.26094
 H294 H 0.31261 1.18433 0.23478
 H295 H 0.28556 1.19195 0.37158
 H296 H 0.31789 1.16034 0.39784
 H297 H 0.42688 1.07564 0.32751
 H298 H 0.46329 1.05070 0.35441
 H299 H 0.44626 1.07519 0.49150
 H300 H 0.40963 1.09997 0.46517
 C301 C 1.16538 -0.15365 -0.19034
 C302 C 1.18604 -0.15888 -0.16366
 C303 C 1.20405 -0.17789 -0.17862
 C304 C 1.20210 -0.19137 -0.22125
 C305 C 1.18186 -0.18485 -0.24874
 C306 C 1.16351 -0.16661 -0.23306
 C307 C 1.14508 -0.13628 -0.17261
 N308 N 1.12171 -0.14491 -0.17926
 N309 N 1.10323 -0.13016 -0.16162
 C310 C 1.10740 -0.10596 -0.13725
 N311 N 1.13076 -0.09707 -0.13102
 N312 N 1.14929 -0.11211 -0.14809
 C313 C 1.08686 -0.09042 -0.11665
 C314 C 1.08504 -0.06053 -0.12003
 C315 C 1.06468 -0.04626 -0.10235
 C316 C 1.04644 -0.06155 -0.07926
 C317 C 1.04863 -0.09141 -0.07535
 C318 C 1.06848 -0.10573 -0.09434
 H319 H 1.18776 -0.14918 -0.13046
 H320 H 1.21940 -0.18215 -0.15657
 H321 H 1.17962 -0.19468 -0.28174
 H322 H 1.14773 -0.16275 -0.25424
 H323 H 1.09894 -0.04841 -0.13763
 H324 H 1.06303 -0.02336 -0.10702
 H325 H 1.03472 -0.10371 -0.05806
 H326 H 1.06958 -0.12880 -0.09133
 C327 C 0.66363 0.34431 0.31036
 C328 C 0.68715 0.34565 0.32910
 C329 C 0.70552 0.32733 0.31342
 C330 C 0.70082 0.30802 0.27789
 C331 C 0.67756 0.30754 0.25803
 C332 C 0.65906 0.32524 0.27452
 C333 C 0.64352 0.36148 0.32950
 N334 N 0.62061 0.35049 0.33102
 N335 N 0.60243 0.36538 0.34936
 C336 C 0.60635 0.39201 0.36644
 N337 N 0.62922 0.40318 0.36457
 N338 N 0.64752 0.38809 0.34673
 C339 C 0.58606 0.40808 0.38713
 C340 C 0.58404 0.43785 0.38173
 C341 C 0.56380 0.45251 0.39914
 C342 C 0.54582 0.43776 0.42372
 C343 C 0.54821 0.40810 0.42981
 C344 C 0.56799 0.39338 0.41134
 H345 H 0.69106 0.36009 0.35694
 H346 H 0.72334 0.32810 0.32922
 H347 H 0.67342 0.29272 0.23080
 H348 H 0.64109 0.32390 0.25942
 H349 H 0.59764 0.44956 0.36271
 H350 H 0.56200 0.47525 0.39297
 H351 H 0.53449 0.39625 0.44832
 H352 H 0.56919 0.37044 0.41607
 C353 C 0.83376 -0.15568 -0.17062
 C354 C 0.83245 -0.16440 -0.21612
 C355 C 0.81400 -0.18292 -0.23075
 C356 C 0.79628 -0.19312 -0.20026
 C357 C 0.79718 -0.18356 -0.15500
 C358 C 0.81574 -0.16519 -0.14038
 C359 C 0.85430 -0.13766 -0.15449
 N360 N 0.85783 -0.13300 -0.10956
 N361 N 0.87688 -0.11784 -0.09493
 C362 C 0.89319 -0.10663 -0.12461
 N363 N 0.88954 -0.11108 -0.16956
 N364 N 0.87053 -0.12630 -0.18418
 C365 C 0.91483 -0.09059 -0.10826
 C366 C 0.93030 -0.07648 -0.13896
 C367 C 0.95108 -0.06205 -0.12363
 C368 C 0.95676 -0.06139 -0.07737
 C369 C 0.94148 -0.07556 -0.04665
 C370 C 0.92061 -0.08983 -0.06188
 H371 H 0.84600 -0.15744 -0.24037
 H372 H 0.81394 -0.18958 -0.26590
 H373 H 0.78387 -0.19075 -0.13044
 H374 H 0.81610 -0.15873 -0.10516
 H375 H 0.92642 -0.07666 -0.17488
 H376 H 0.96281 -0.05146 -0.14786
 H377 H 0.94584 -0.07570 -0.01090
 H378 H 0.90923 -0.10064 -0.03735
 C379 C 0.33309 0.34426 0.33058
 C380 C 0.31583 0.33327 0.36112
 C381 C 0.29735 0.31490 0.34614
 C382 C 0.29577 0.30700 0.30029
 C383 C 0.31263 0.31857 0.26955
 C384 C 0.33104 0.33705 0.28449
 C385 C 0.35363 0.36222 0.34691
 N386 N 0.36952 0.37428 0.31728
 N387 N 0.38854 0.38943 0.33203
 C388 C 0.39255 0.39310 0.37704
 N389 N 0.37658 0.38119 0.40667
 N390 N 0.35753 0.36609 0.39192
 C391 C 0.41422 0.40908 0.39347
 C392 C 0.41999 0.40978 0.43987
 C393 C 0.44086 0.42403 0.45516
 C394 C 0.45617 0.43819 0.42448
 C395 C 0.45050 0.43758 0.37822
 C396 C 0.42970 0.42321 0.36283
 H397 H 0.31678 0.33849 0.39681
 H398 H 0.28464 0.30637 0.37070
 H399 H 0.31188 0.31296 0.23398
 H400 H 0.34398 0.34516 0.26000
 H401 H 0.40858 0.39897 0.46436
 H402 H 0.44520 0.42389 0.49092
 H403 H 0.46226 0.44818 0.35403
 H404 H 0.42585 0.42308 0.32690
 C405 C 0.16331 0.65689 -0.18657
 C406 C 0.15846 0.67594 -0.22206
 C407 C 0.17682 0.69374 -0.23873
 C408 C 0.20021 0.69340 -0.21939
 C409 C 0.20517 0.67417 -0.18415
 C410 C 0.18694 0.65573 -0.16830
 C411 C 0.14341 0.63946 -0.16742
 N412 N 0.14762 0.61278 -0.15102
 N413 N 0.12949 0.59740 -0.13332
 C414 C 0.10657 0.60834 -0.13075
 N415 N 0.10244 0.63504 -0.14697
 N416 N 0.12046 0.65022 -0.16519
 C417 C 0.08644 0.59191 -0.11032
 C418 C 0.06839 0.60625 -0.08543
 C419 C 0.04870 0.59122 -0.06737
 C420 C 0.04638 0.56161 -0.07454
 C421 C 0.06437 0.54721 -0.09973
 C422 C 0.08452 0.56218 -0.11675
 H423 H 0.14040 0.67714 -0.23680
 H424 H 0.17249 0.70849 -0.26576
 H425 H 0.22309 0.67349 -0.16877
 H426 H 0.19106 0.64131 -0.14074
 H427 H 0.06952 0.62916 -0.07990
 H428 H 0.03496 0.60281 -0.04836
 H429 H 0.06262 0.52453 -0.10673
 H430 H 0.09811 0.55074 -0.13630
 C431 C 0.66395 1.15609 0.31075
 C432 C 0.65918 1.17511 0.27519
 C433 C 0.67758 1.19291 0.25865
 C434 C 0.70092 1.19258 0.27819
 C435 C 0.70580 1.17333 0.31345
 C436 C 0.68754 1.15491 0.32917
 C437 C 0.64398 1.13877 0.32992
 N438 N 0.64814 1.11217 0.34671
 N439 N 0.62996 1.09693 0.36458
 C440 C 0.60707 1.10794 0.36693
 N441 N 0.60298 1.13454 0.35030
 N442 N 0.62104 1.14959 0.33192
 C443 C 0.58691 1.09169 0.38763
 C444 C 0.56888 1.10624 0.41231
 C445 C 0.54920 1.09136 0.43071
 C446 C 0.54686 1.06170 0.42410
 C447 C 0.56481 1.04710 0.39910
 C448 C 0.58496 1.06192 0.38175
 H449 H 0.64115 1.17633 0.26034
 H450 H 0.67331 1.20768 0.23162
 H451 H 0.72369 1.17267 0.32899
 H452 H 0.69160 1.14051 0.35679
 H453 H 0.57004 1.12917 0.41742
 H454 H 0.53549 1.10309 0.44955
 H455 H 0.56304 1.02437 0.39253
 H456 H 0.59853 1.05033 0.36238
 C457 C 0.16323 0.34157 0.18793
 C458 C 0.15840 0.32251 0.22343
 C459 C 0.17677 0.30478 0.24012
 C460 C 0.20015 0.30521 0.22077
 C461 C 0.20509 0.32444 0.18550
 C462 C 0.18685 0.34280 0.16964
 C463 C 0.14331 0.35893 0.16878
 N464 N 0.14752 0.38561 0.15233
 N465 N 0.12937 0.40094 0.13465
 C466 C 0.10645 0.38995 0.13216
 N467 N 0.10232 0.36325 0.14844
 N468 N 0.12035 0.34812 0.16664
 C469 C 0.08630 0.40634 0.11179
 C470 C 0.06818 0.39195 0.08706
 C471 C 0.04850 0.40696 0.06902
 C472 C 0.04626 0.43659 0.07604
 C473 C 0.06431 0.45102 0.10108
 C474 C 0.08445 0.43608 0.11808
 H475 H 0.14034 0.32126 0.23818
 H476 H 0.17246 0.29003 0.26716
 H477 H 0.22301 0.32518 0.17012
 H478 H 0.19095 0.35723 0.14207
 H479 H 0.06926 0.36904 0.08164
 H480 H 0.03471 0.39534 0.05014
 H481 H 0.06262 0.47372 0.10798
 H482 H 0.09810 0.44755 0.13751
 C483 C 0.66418 0.84368 0.68993
 C484 C 0.65942 0.82483 0.72574
 C485 C 0.67780 0.80710 0.74241
 C486 C 0.70111 0.80732 0.72274
 C487 C 0.70599 0.82639 0.68722
 C488 C 0.68774 0.84475 0.67137
 C489 C 0.64421 0.86090 0.67064
 N490 N 0.64837 0.88746 0.65367
 N491 N 0.63019 0.90262 0.63576
 C492 C 0.60728 0.89157 0.63356
 N493 N 0.60320 0.86500 0.65037
 N494 N 0.62126 0.85004 0.66879
 C495 C 0.58710 0.90774 0.61286
 C496 C 0.56906 0.89311 0.58828
 C497 C 0.54935 0.90791 0.56992
 C498 C 0.54699 0.93757 0.57650
 C499 C 0.56496 0.95224 0.60140
 C500 C 0.58514 0.93751 0.61870
 H501 H 0.64141 0.82370 0.74070
 H502 H 0.67353 0.79247 0.76964
 H503 H 0.72385 0.82695 0.67158
 H504 H 0.69179 0.85901 0.64355
 H505 H 0.57023 0.87018 0.58321
 H506 H 0.53563 0.89612 0.55115
 H507 H 0.56318 0.97497 0.60794
 H508 H 0.59872 0.94916 0.63801
 C509 C 0.83417 0.15463 0.17061
 C510 C 0.81702 0.16558 0.13984
 C511 C 0.79853 0.18396 0.15456
 C512 C 0.79682 0.19193 0.20035
 C513 C 0.81359 0.18045 0.23132
 C514 C 0.83202 0.16196 0.21664
 C515 C 0.85467 0.13656 0.15457
 N516 N 0.87036 0.12440 0.18440
 N517 N 0.88933 0.10910 0.16990
 C518 C 0.89346 0.10538 0.12494
 N519 N 0.87768 0.11739 0.09511
 N520 N 0.85869 0.13264 0.10961
 C521 C 0.91505 0.08922 0.10877
 C522 C 0.92105 0.08863 0.06247
 C523 C 0.94187 0.07424 0.04741
 C524 C 0.95689 0.05981 0.07821
 C525 C 0.95100 0.06030 0.12437
 C526 C 0.93026 0.07482 0.13954
 H527 H 0.81805 0.16028 0.10419
 H528 H 0.78589 0.19241 0.12984
 H529 H 0.81274 0.18612 0.26685
 H530 H 0.84488 0.15389 0.24129
 H531 H 0.90987 0.09965 0.03788
 H532 H 0.94639 0.07449 0.01173
 H533 H 0.96254 0.04950 0.14865
 H534 H 0.92622 0.07486 0.17540
 C535 C 0.33305 0.65463 0.67091
 C536 C 0.31582 0.66561 0.64033
 C537 C 0.29736 0.68397 0.65529
 C538 C 0.29577 0.69188 0.70113
 C539 C 0.31260 0.68032 0.73190
 C540 C 0.33099 0.66185 0.71699
 C541 C 0.35356 0.63667 0.65462
 N542 N 0.36940 0.62461 0.68429
 N543 N 0.38841 0.60946 0.66959
 C544 C 0.39244 0.60578 0.62458
 N545 N 0.37651 0.61769 0.59492
 N546 N 0.35748 0.63279 0.60962
 C547 C 0.41409 0.58981 0.60821
 C548 C 0.41989 0.58911 0.56183
 C549 C 0.44077 0.57489 0.54660
 C550 C 0.45604 0.56077 0.57733
 C551 C 0.45034 0.56137 0.62357
 C552 C 0.42954 0.57571 0.63889
 H553 H 0.31677 0.66039 0.60465
 H554 H 0.28467 0.69250 0.63070
 H555 H 0.31184 0.68593 0.76747
 H556 H 0.34390 0.65375 0.74151
 H557 H 0.40851 0.59989 0.53729
 H558 H 0.44514 0.57503 0.51085
 H559 H 0.46208 0.55080 0.64779
 H560 H 0.42566 0.57584 0.67481
   
