data_POSCAR
  _audit_creation_date              2014-09-24
  _audit_creation_method            'ToBaCCo'
  _symmetry_space_group_name_H-M    'P1'
  _symmetry_Int_Tables_number       1
  _symmetry_cell_setting            triclinic
  loop_
  _symmetry_equiv_pos_as_xyz
 x,y,z
_cell_length_a 32.2115
_cell_length_b 34.5524
_cell_length_c 34.0119
_cell_angle_alpha 89.716700
_cell_angle_beta 88.272400
_cell_angle_gamma 89.282000
loop_
  _atom_site_label
  _atom_site_type_symbol
  _atom_site_fract_x
  _atom_site_fract_y
  _atom_site_fract_z
C1 C 0.58964 0.64421 0.63258
 C2 C 0.59070 0.61872 0.66481
 C3 C 0.62278 0.59085 0.66796
 C4 C 0.65335 0.58849 0.63751
 C5 C 0.65321 0.61468 0.60590
 C6 C 0.62123 0.64229 0.60341
 H7 H 0.56587 0.62020 0.68701
 H8 H 0.67856 0.56752 0.63920
 H9 H 0.62113 0.66252 0.57894
 C10 C 0.91367 0.35215 0.12390
 C11 C 0.91649 0.38212 0.15165
 C12 C 0.88618 0.41171 0.15432
 C13 C 0.85225 0.41083 0.12947
 C14 C 0.84833 0.38069 0.10250
 C15 C 0.87877 0.35142 0.09999
 H16 H 0.94165 0.38185 0.17211
 H17 H 0.82876 0.43356 0.13117
 H18 H 0.87572 0.32864 0.07849
 C19 C 0.41423 0.14495 -0.13002
 C20 C 0.38491 0.13847 -0.09945
 C21 C 0.35561 0.10890 -0.10221
 C22 C 0.35607 0.08589 -0.13617
 C23 C 0.38644 0.09103 -0.16611
 C24 C 0.41576 0.12043 -0.16272
 H25 H 0.38433 0.15718 -0.07394
 H26 H 0.33258 0.06407 -0.13956
 H27 H 0.43899 0.12487 -0.18597
 C28 C 0.09192 0.84478 0.37013
 C29 C 0.08972 0.87616 0.34368
 C30 C 0.11487 0.90874 0.34763
 C31 C 0.14344 0.90951 0.37795
 C32 C 0.14591 0.87866 0.40467
 C33 C 0.12009 0.84663 0.40089
 H34 H 0.06897 0.87490 0.31922
 H35 H 0.16337 0.93428 0.38108
 H36 H 0.12123 0.82372 0.42274
 N37 N 0.07733 0.18235 0.10332
 N38 N 0.06187 0.17070 0.13754
 C39 C 0.03202 0.19592 0.14983
 C40 C 0.02934 0.22510 0.12213
 C41 C 0.05826 0.21554 0.09290
 H42 H 0.01400 0.19371 0.17707
 H43 H 0.06496 0.23169 0.06619
 Cu44 Cu 0.08294 0.12410 0.16275
 Cu45 Cu 0.12167 0.15434 0.07517
 Cu46 Cu 0.16086 0.07205 0.12028
 N47 N 0.10459 0.07739 0.18729
 N48 N 0.13405 0.05648 0.16987
 C49 C 0.14108 0.02451 0.19154
 C50 C 0.11442 0.02522 0.22423
 C51 C 0.09242 0.05973 0.22100
 H52 H 0.16354 0.00206 0.18388
 H53 H 0.06927 0.07108 0.24169
 N54 N 0.18344 0.09244 0.06992
 N55 N 0.16677 0.12229 0.05162
 C56 C 0.18816 0.12840 0.01761
 C57 C 0.22011 0.10131 0.01427
 C58 C 0.21652 0.07944 0.04846
 H59 H 0.18185 0.15168 -0.00279
 H60 H 0.23745 0.05674 0.05780
 H61 H 0.10932 0.10047 0.09926
 H62 H 0.14786 0.13069 0.12475
 N63 N 0.41748 0.80805 0.60710
 N64 N 0.43684 0.82525 0.63552
 C65 C 0.46746 0.80171 0.64796
 C66 C 0.46690 0.76783 0.62652
 C67 C 0.43518 0.77311 0.60043
 H68 H 0.48857 0.80848 0.67100
 H69 H 0.42594 0.75311 0.57804
 Cu70 Cu 0.42019 0.87662 0.65375
 Cu71 Cu 0.37024 0.83177 0.58153
 Cu72 Cu 0.33685 0.92145 0.61581
 N73 N 0.40035 0.92674 0.67291
 N74 N 0.36768 0.94396 0.65814
 C75 C 0.35989 0.97722 0.67757
 C76 C 0.38957 0.98137 0.70574
 C77 C 0.41441 0.94853 0.70231
 H78 H 0.33377 0.99639 0.67251
 H79 H 0.44026 0.94086 0.72048
 N80 N 0.30974 0.89417 0.57307
 N81 N 0.32290 0.86028 0.55955
 C82 C 0.29833 0.84941 0.53031
 C83 C 0.26796 0.87748 0.52570
 C84 C 0.27636 0.90564 0.55291
 H85 H 0.30184 0.82287 0.51376
 H86 H 0.25947 0.93258 0.55736
 H87 H 0.38538 0.88868 0.59200
 H88 H 0.35103 0.86446 0.62967
 N89 N 0.91347 0.69306 0.38282
 N90 N 0.93044 0.67753 0.35092
 C91 C 0.96549 0.69652 0.34104
 C92 C 0.97049 0.72555 0.36822
 C93 C 0.93669 0.72295 0.39402
 H94 H 0.98556 0.69003 0.31579
 H95 H 0.92978 0.74110 0.41926
 Cu96 Cu 0.90449 0.63476 0.32473
 Cu97 Cu 0.86292 0.67269 0.40730
 Cu98 Cu 0.84120 0.57841 0.38001
 N99 N 0.89078 0.58300 0.30859
 N100 N 0.86811 0.56013 0.33122
 C101 C 0.86520 0.52550 0.31357
 C102 C 0.88752 0.52670 0.27807
 C103 C 0.90258 0.56403 0.27563
 H104 H 0.84754 0.50142 0.32530
 H105 H 0.92022 0.57674 0.25140
 N106 N 0.81674 0.60319 0.42771
 N107 N 0.82450 0.63928 0.43744
 C108 C 0.80272 0.64824 0.47057
 C109 C 0.78030 0.61622 0.48244
 C110 C 0.78939 0.58835 0.45434
 H111 H 0.80277 0.67614 0.48486
 H112 H 0.77670 0.55956 0.45335
 H113 H 0.88571 0.61903 0.39251
 H114 H 0.83962 0.63554 0.36484
 N115 N 0.57871 0.31002 -0.10272
 N116 N 0.56409 0.32549 -0.13496
 C117 C 0.53316 0.30336 -0.14773
 C118 C 0.52788 0.27271 -0.12183
 C119 C 0.55769 0.27750 -0.09396
 H120 H 0.51533 0.30923 -0.17357
 H121 H 0.56288 0.25919 -0.06866
 Cu122 Cu 0.58532 0.37417 -0.15582
 Cu123 Cu 0.62251 0.33411 -0.07348
 Cu124 Cu 0.66029 0.42123 -0.10975
 N125 N 0.60710 0.42289 -0.17608
 N126 N 0.63576 0.44154 -0.15731
 C127 C 0.64430 0.47478 -0.17649
 C128 C 0.61950 0.47720 -0.20885
 C129 C 0.59665 0.44361 -0.20807
 H130 H 0.66708 0.49557 -0.16782
 H131 H 0.57387 0.43527 -0.22904
 N132 N 0.68122 0.39605 -0.06208
 N133 N 0.66676 0.36296 -0.04814
 C134 C 0.68760 0.35319 -0.01572
 C135 C 0.71624 0.38164 -0.00883
 C136 C 0.71172 0.40807 -0.03901
 H137 H 0.68312 0.32691 0.00118
 H138 H 0.72973 0.43395 -0.04385
 H139 H 0.60901 0.39018 -0.09052
 H140 H 0.64931 0.36345 -0.12063
 C141 C -0.04154 0.25268 0.12267
 C142 C -0.06965 0.28356 0.12148
 C143 C -0.05606 0.32213 0.12159
 C144 C -0.01246 0.32907 0.12073
 C145 C 0.01604 0.29745 0.12241
 C146 C 0.00117 0.25908 0.12312
 C147 C 0.05877 0.30535 0.12321
 N148 N 0.07208 0.34230 0.11988
 N149 N 0.04559 0.37178 0.11561
 C150 C 0.00398 0.36640 0.11548
 H151 H -0.05327 0.22341 0.12292
 H152 H -0.10249 0.27708 0.12219
 H153 H 0.08175 0.28257 0.12635
 H154 H -0.01567 0.39118 0.11006
 C155 C 0.53878 0.74279 0.63039
 C156 C 0.56838 0.71313 0.63104
 C157 C 0.55656 0.67429 0.63037
 C158 C 0.51383 0.66521 0.62888
 C159 C 0.48353 0.69545 0.62901
 C160 C 0.49634 0.73465 0.62896
 C161 C 0.44136 0.68519 0.63018
 N162 N 0.43059 0.64741 0.62903
 N163 N 0.45905 0.61917 0.62708
 C164 C 0.50024 0.62674 0.62690
 H165 H 0.54922 0.77248 0.63045
 H166 H 0.60089 0.72056 0.63236
 H167 H 0.41677 0.70663 0.63261
 H168 H 0.52189 0.60262 0.62507
 C169 C 0.99215 0.79340 0.36305
 C170 C 1.02185 0.82226 0.36204
 C171 C 1.06415 0.81357 0.36737
 C172 C 1.07650 0.77397 0.37147
 C173 C 1.04595 0.74461 0.37253
 C174 C 1.00356 0.75466 0.36837
 C175 C 1.05891 0.70596 0.37783
 N176 N 1.09992 0.69713 0.37967
 N177 N 1.12876 0.72429 0.37645
 C178 C 1.11856 0.76222 0.37205
 H179 H 0.95983 0.80141 0.35956
 H180 H 1.01116 0.85196 0.35902
 H181 H 1.03692 0.68264 0.38040
 H182 H 1.14353 0.78257 0.36816
 C183 C 0.51161 0.20302 -0.12110
 C184 C 0.48446 0.17212 -0.12377
 C185 C 0.44195 0.17868 -0.12853
 C186 C 0.42648 0.21719 -0.13092
 C187 C 0.45401 0.24867 -0.12770
 C188 C 0.49711 0.24136 -0.12344
 C189 C 0.43708 0.28644 -0.12787
 N190 N 0.39584 0.29206 -0.13286
 N191 N 0.37029 0.26254 -0.13741
 C192 C 0.38415 0.22535 -0.13665
 H193 H 0.54439 0.19693 -0.11768
 H194 H 0.49664 0.14282 -0.12185
 H195 H 0.45594 0.31158 -0.12355
 H196 H 0.36195 0.20260 -0.14061
 C197 C 0.14928 -0.02079 0.26869
 C198 C 0.14966 -0.04805 0.29893
 C199 C 0.11279 -0.05907 0.31854
 C200 C 0.07473 -0.04145 0.30770
 C201 C 0.07400 -0.01532 0.27533
 C202 C 0.11195 -0.00407 0.25635
 C203 C 0.03499 -0.00247 0.26249
 N204 N -0.00015 -0.01213 0.28297
 N205 N 0.00092 -0.03416 0.31514
 C206 C 0.03709 -0.04905 0.32825
 H207 H 0.17861 -0.01276 0.25473
 H208 H 0.17906 -0.06121 0.30658
 H209 H 0.03173 0.01438 0.23598
 H210 H 0.03604 -0.06650 0.35471
 C211 C 0.62777 0.49734 -0.27819
 C212 C 0.63022 0.52507 -0.30793
 C213 C 0.62346 0.56463 -0.29993
 C214 C 0.61615 0.57614 -0.26002
 C215 C 0.61312 0.54761 -0.22983
 C216 C 0.61935 0.50800 -0.23916
 C217 C 0.60380 0.55978 -0.19110
 N218 N 0.60074 0.59803 -0.18278
 N219 N 0.60644 0.62490 -0.21051
 C220 C 0.61443 0.61534 -0.24862
 H221 H 0.63286 0.46718 -0.28571
 H222 H 0.63572 0.51512 -0.33782
 H223 H 0.59887 0.53935 -0.16732
 H224 H 0.62027 0.63857 -0.26933
 C225 C 0.39603 0.99905 0.77551
 C226 C 0.39446 1.02532 0.80640
 C227 C 0.38779 1.06486 0.79950
 C228 C 0.38283 1.07821 0.76041
 C229 C 0.38524 1.05150 0.72877
 C230 C 0.39087 1.01140 0.73664
 C231 C 0.38267 1.06614 0.69022
 N232 N 0.37589 1.10449 0.68414
 N233 N 0.37175 1.12923 0.71392
 C234 C 0.37489 1.11743 0.75179
 H235 H 0.40035 0.96861 0.78221
 H236 H 0.39837 1.01466 0.83610
 H237 H 0.38658 1.04772 0.66480
 H238 H 0.37096 1.13883 0.77472
 C239 C 0.85506 0.47389 0.24137
 C240 C 0.85429 0.44707 0.21100
 C241 C 0.88842 0.44221 0.18488
 C242 C 0.92422 0.46498 0.18987
 C243 C 0.92604 0.49050 0.22236
 C244 C 0.89034 0.49623 0.24736
 C245 C 0.96402 0.50878 0.22895
 N246 N 0.99624 0.50472 0.20267
 N247 N 0.99322 0.48340 0.17043
 C248 C 0.95828 0.46358 0.16306
 H249 H 0.82743 0.47757 0.25998
 H250 H 0.82669 0.42989 0.20788
 H251 H 0.96886 0.52558 0.25504
 H252 H 0.95723 0.44742 0.13609
 C253 C 0.26718 0.13597 -0.03226
 C254 C 0.30006 0.13793 -0.05955
 C255 C 0.32224 0.10459 -0.07126
 C256 C 0.31046 0.06829 -0.05487
 C257 C 0.27502 0.06596 -0.02900
 C258 C 0.25413 0.10044 -0.01638
 C259 C 0.26134 0.02894 -0.01756
 N260 N 0.28392 -0.00295 -0.02801
 N261 N 0.31901 -0.00042 -0.04948
 C262 C 0.33313 0.03405 -0.06312
 H263 H 0.25207 0.16281 -0.02329
 H264 H 0.30810 0.16595 -0.07183
 H265 H 0.23251 0.02476 -0.00124
 H266 H 0.36206 0.03428 -0.08004
 C267 C 0.70990 0.60113 0.50850
 C268 C 0.67897 0.60150 0.53802
 C269 C 0.68743 0.61412 0.57595
 C270 C 0.72804 0.62623 0.58447
 C271 C 0.75964 0.62559 0.55449
 C272 C 0.75007 0.61376 0.51595
 C273 C 0.80000 0.63626 0.56445
 N274 N 0.80754 0.64818 0.60146
 N275 N 0.77756 0.64997 0.62922
 C276 C 0.73810 0.63948 0.62202
 H277 H 0.70207 0.59195 0.47925
 H278 H 0.64805 0.59212 0.53118
 H279 H 0.82579 0.63477 0.54345
 H280 H 0.71506 0.64163 0.64571
 C281 C 0.78954 0.38754 0.00892
 C282 C 0.82146 0.38668 0.03558
 C283 C 0.81304 0.38046 0.07570
 C284 C 0.77152 0.37484 0.08924
 C285 C 0.73888 0.37586 0.06209
 C286 C 0.74823 0.38179 0.02147
 C287 C 0.69788 0.37181 0.07684
 N288 N 0.69049 0.36570 0.11583
 N289 N 0.72123 0.36359 0.14109
 C290 C 0.76145 0.36791 0.12916
 H291 H 0.79727 0.39215 -0.02196
 H292 H 0.85306 0.39113 0.02486
 H293 H 0.67157 0.37390 0.05798
 H294 H 0.78512 0.36584 0.15098
 C295 C 0.24701 0.87228 0.45677
 C296 C 0.21777 0.87332 0.42745
 C297 C 0.17567 0.87973 0.43683
 C298 C 0.16273 0.88544 0.47655
 C299 C 0.19247 0.88431 0.50650
 C300 C 0.23507 0.87804 0.49629
 C301 C 0.17818 0.88844 0.54579
 N302 N 0.13719 0.89461 0.55408
 N303 N 0.10949 0.89669 0.52585
 C304 C 0.12082 0.89230 0.48741
 H305 H 0.27938 0.86734 0.44848
 H306 H 0.22799 0.86869 0.39717
 H307 H 0.19895 0.88634 0.57006
 H308 H 0.09699 0.89423 0.46573
   
