data_POSCAR
  _audit_creation_date              2014-09-24
  _audit_creation_method            'ToBaCCo'
  _symmetry_space_group_name_H-M    'P1'
  _symmetry_Int_Tables_number       1
  _symmetry_cell_setting            triclinic
  loop_
  _symmetry_equiv_pos_as_xyz
 x,y,z
_cell_length_a 20.0895
_cell_length_b 27.2740
_cell_length_c 23.3083
_cell_angle_alpha 89.999900
_cell_angle_beta 89.999700
_cell_angle_gamma 90.000100
loop_
  _atom_site_label
  _atom_site_type_symbol
  _atom_site_fract_x
  _atom_site_fract_y
  _atom_site_fract_z
O1 O 0.32977 0.19954 0.27203
 O2 O 0.27227 0.30370 0.18466
 O3 O 0.32953 0.29393 0.28394
 O4 O 0.27157 0.20848 0.17223
 O5 O 0.17306 0.20507 0.21413
 O6 O 0.23102 0.29038 0.32591
 O7 O 0.17340 0.29947 0.22593
 O8 O 0.23086 0.19521 0.31322
 Cu9 Cu 0.31064 0.25173 0.22389
 Cu10 Cu 0.19223 0.24719 0.27411
 C11 C 0.29019 0.17983 0.30764
 C12 C 0.21301 0.31917 0.19032
 C13 C 0.29025 0.30659 0.32392
 C14 C 0.21226 0.19231 0.17410
 O15 O 0.82952 0.29378 0.21592
 O16 O 0.77155 0.20833 0.32764
 O17 O 0.82985 0.19940 0.22788
 O18 O 0.77236 0.30354 0.31523
 O19 O 0.67348 0.29933 0.27398
 O20 O 0.73095 0.19505 0.18668
 O21 O 0.67305 0.20493 0.28574
 O22 O 0.73101 0.29023 0.17395
 Cu23 Cu 0.81068 0.25158 0.27599
 Cu24 Cu 0.69227 0.24704 0.22577
 C25 C 0.79023 0.30645 0.17594
 C26 C 0.71224 0.19218 0.32577
 C27 C 0.79028 0.17967 0.19227
 C28 C 0.71311 0.31902 0.30959
 O29 O 0.73150 0.80367 0.81541
 O30 O 0.67398 0.69951 0.72801
 O31 O 0.73189 0.70847 0.82795
 O32 O 0.67395 0.79393 0.71627
 O33 O 0.77242 0.79035 0.67424
 O34 O 0.83043 0.70509 0.78610
 O35 O 0.77291 0.69516 0.68688
 O36 O 0.83034 0.79946 0.77409
 Cu37 Cu 0.69297 0.75171 0.77624
 Cu38 Cu 0.81138 0.74717 0.72601
 C39 C 0.79076 0.81915 0.80973
 C40 C 0.71360 0.67978 0.69244
 C41 C 0.79121 0.69233 0.82611
 C42 C 0.71320 0.80658 0.67627
 O43 O 0.27243 0.69704 0.81538
 O44 O 0.32996 0.80120 0.72797
 O45 O 0.27207 0.79225 0.82792
 O46 O 0.33000 0.70679 0.71625
 O47 O 0.23153 0.71037 0.67421
 O48 O 0.17352 0.79562 0.78609
 O49 O 0.23102 0.80555 0.68685
 O50 O 0.17360 0.70125 0.77405
 Cu51 Cu 0.31097 0.74901 0.77621
 Cu52 Cu 0.19256 0.75355 0.72598
 C53 C 0.21318 0.68156 0.80968
 C54 C 0.29034 0.82093 0.69239
 C55 C 0.21275 0.80839 0.82610
 C56 C 0.29076 0.69414 0.67625
 C57 C 1.00285 0.10048 0.09845
 C58 C 1.06267 0.08715 0.07170
 C59 C 1.06260 0.04836 0.03195
 C60 C 1.00427 0.02101 0.02124
 C61 C 0.94538 0.03444 0.05025
 C62 C 0.94361 0.07527 0.08688
 C63 C 1.00433 -0.02113 -0.02021
 C64 C 0.94539 -0.03484 -0.04897
 C65 C 0.94376 -0.07568 -0.08560
 C66 C 1.00314 -0.10060 -0.09743
 C67 C 1.06300 -0.08700 -0.07093
 C68 C 1.06284 -0.04821 -0.03118
 H69 H 1.00215 0.13142 0.12762
 H70 H 1.10804 0.03957 0.00953
 H71 H 0.90074 0.01295 0.04482
 H72 H 0.90060 -0.01356 -0.04334
 H73 H 1.00254 -0.13154 -0.12659
 H74 H 1.10834 -0.03922 -0.00896
 C75 C 0.50127 0.60057 0.59832
 C76 C 0.56052 0.57536 0.58682
 C77 C 0.55879 0.53450 0.55022
 C78 C 0.49992 0.52104 0.52121
 C79 C 0.44157 0.54839 0.53187
 C80 C 0.44146 0.58721 0.57158
 C81 C 0.49985 0.47884 0.47984
 C82 C 0.44132 0.45177 0.46891
 C83 C 0.44111 0.41296 0.42919
 C84 C 0.50096 0.39930 0.40273
 C85 C 0.56036 0.42422 0.41451
 C86 C 0.55878 0.46508 0.45111
 H87 H 0.50195 0.63151 0.62748
 H88 H 0.60345 0.51302 0.54483
 H89 H 0.39617 0.53959 0.50941
 H90 H 0.39585 0.46080 0.49115
 H91 H 0.50154 0.36836 0.37358
 H92 H 0.60360 0.48634 0.45671
 C93 C 0.00081 0.39941 0.09729
 C94 C -0.05906 0.41307 0.07087
 C95 C -0.05892 0.45198 0.03128
 C96 C -0.00045 0.47916 0.02048
 C97 C 0.05849 0.46540 0.04920
 C98 C 0.06015 0.42442 0.08562
 C99 C -0.00045 0.52148 -0.02075
 C100 C 0.05849 0.53525 -0.04947
 C101 C 0.06016 0.57622 -0.08589
 C102 C 0.00081 0.60123 -0.09758
 C103 C -0.05905 0.58759 -0.07112
 C104 C -0.05891 0.54868 -0.03154
 H105 H 0.00144 0.36838 0.12632
 H106 H -0.10440 0.46099 0.00906
 H107 H 0.10327 0.48673 0.04375
 H108 H 0.10327 0.51391 -0.04401
 H109 H 0.00144 0.63227 -0.12659
 H110 H -0.10442 0.53967 -0.00934
 C111 C 0.50268 0.90007 0.59818
 C112 C 0.44340 0.92519 0.58653
 C113 C 0.44509 0.96591 0.54971
 C114 C 0.50396 0.97932 0.52068
 C115 C 0.56235 0.95207 0.53151
 C116 C 0.56249 0.91339 0.57140
 C117 C 0.50396 1.02134 0.47908
 C118 C 0.56236 1.04857 0.46824
 C119 C 0.56250 1.08726 0.42836
 C120 C 0.50269 1.10059 0.40157
 C121 C 0.44340 1.07548 0.41325
 C122 C 0.44509 1.03476 0.45006
 H123 H 0.50202 0.86922 0.62747
 H124 H 0.40040 0.98733 0.54415
 H125 H 0.60775 0.96087 0.50904
 H126 H 0.60778 1.03976 0.49067
 H127 H 0.50205 1.13144 0.37229
 H128 H 0.40040 1.01335 0.45564
 C129 C 1.18925 0.16024 0.13210
 C130 C 1.22625 0.14259 0.08671
 C131 C 1.18411 0.11249 0.05714
 C132 C 1.12438 0.11415 0.08665
 O133 O 1.12772 0.14317 0.13204
 H134 H 1.27766 0.15061 0.07645
 H135 H 1.19586 0.09227 0.01854
 C136 C 0.68969 0.63938 0.65638
 C137 C 0.72975 0.60973 0.62330
 C138 C 0.68710 0.57984 0.59415
 C139 C 0.62392 0.59369 0.61149
 O140 O 0.62575 0.62982 0.64937
 H141 H 0.78346 0.61061 0.61985
 H142 H 0.70087 0.55279 0.56238
 C143 C -0.18563 0.34035 0.13169
 C144 C -0.22314 0.35874 0.08713
 C145 C -0.18108 0.38878 0.05739
 C146 C -0.12087 0.38631 0.08608
 O147 O -0.12389 0.35685 0.13109
 H148 H -0.27488 0.35125 0.07760
 H149 H -0.19326 0.40954 0.01929
 C150 C 0.31425 0.86130 0.65629
 C151 C 0.27418 0.89092 0.62318
 C152 C 0.31682 0.92076 0.59396
 C153 C 0.38000 0.90691 0.61127
 O154 O 0.37819 0.87083 0.64922
 H155 H 0.22047 0.89004 0.61976
 H156 H 0.30303 0.94777 0.56216
 C157 C -0.18578 0.66031 -0.13184
 C158 C -0.22281 0.64263 -0.08649
 C159 C -0.18062 0.61262 -0.05681
 C160 C -0.12085 0.61439 -0.08623
 O161 O -0.12420 0.64337 -0.13165
 H162 H -0.27426 0.65056 -0.07631
 H163 H -0.19236 0.59243 -0.01820
 C164 C 0.31414 1.13946 0.34373
 C165 C 0.27412 1.10984 0.37688
 C166 C 0.31681 1.07998 0.40602
 C167 C 0.37997 1.09381 0.38861
 O168 O 0.37809 1.12990 0.35068
 H169 H 0.22042 1.11073 0.38038
 H170 H 0.30306 1.05296 0.43783
 C171 C 1.18974 -0.15961 -0.13183
 C172 C 1.22680 -0.14195 -0.08648
 C173 C 1.18462 -0.11198 -0.05675
 C174 C 1.12482 -0.11375 -0.08614
 O175 O 1.12815 -0.14269 -0.13160
 H176 H 1.27826 -0.14988 -0.07633
 H177 H 1.19638 -0.09182 -0.01812
 C178 C 0.68933 0.35952 0.34556
 C179 C 0.72947 0.38905 0.37872
 C180 C 0.68693 0.41916 0.40766
 C181 C 0.62373 0.40556 0.39013
 O182 O 0.62544 0.36937 0.35232
 H183 H 0.78316 0.38794 0.38234
 H184 H 0.70077 0.44620 0.43941
 C185 C 0.81462 -0.14035 -0.15434
 C186 C 0.77456 -0.11082 -0.12113
 C187 C 0.81718 -0.08071 -0.09226
 C188 C 0.88033 -0.09432 -0.10989
 O189 O 0.87853 -0.13052 -0.14769
 H190 H 0.72088 -0.11191 -0.11742
 H191 H 0.80341 -0.05366 -0.06049
 C192 C 0.31442 0.34045 0.36820
 C193 C 0.27692 0.35884 0.41277
 C194 C 0.31902 0.38881 0.44257
 C195 C 0.37925 0.38630 0.41389
 O196 O 0.37620 0.35689 0.36884
 H197 H 0.22517 0.35138 0.42228
 H198 H 0.30687 0.40953 0.48070
 C199 C 0.18932 0.64103 -0.15444
 C200 C 0.22938 0.61146 -0.12125
 C201 C 0.18675 0.58130 -0.09246
 C202 C 0.12360 0.59491 -0.11011
 O203 O 0.12542 0.63116 -0.14784
 H204 H 0.28305 0.61256 -0.11751
 H205 H 0.20050 0.55422 -0.06072
 C206 C 0.68919 1.16015 0.36780
 C207 C 0.72617 1.14252 0.41321
 C208 C 0.68399 1.11248 0.44284
 C209 C 0.62426 1.11417 0.41333
 O210 O 0.62764 1.14313 0.36790
 H211 H 0.77759 1.15051 0.42346
 H212 H 0.69572 1.09231 0.48147
 C213 C 0.18921 0.35969 0.15439
 C214 C 0.22931 0.38925 0.12123
 C215 C 0.18672 0.41938 0.09236
 C216 C 0.12355 0.40577 0.10994
 O217 O 0.12531 0.36954 0.14770
 H218 H 0.28299 0.38815 0.11757
 H219 H 0.20052 0.44645 0.06063
 C220 C 0.68901 0.84047 0.63202
 C221 C 0.72644 0.85875 0.58735
 C222 C 0.68438 0.88883 0.55767
 C223 C 0.62425 0.88651 0.58651
 O224 O 0.62732 0.85709 0.63156
 H225 H 0.77811 0.85115 0.57771
 H226 H 0.69652 0.90952 0.51951
 C227 C 0.81427 0.13929 0.15623
 C228 C 0.77429 0.10964 0.12308
 C229 C 0.81701 0.07976 0.09400
 C230 C 0.88015 0.09360 0.11145
 O231 O 0.87822 0.12973 0.14934
 H232 H 0.72059 0.11052 0.11953
 H233 H 0.80332 0.05271 0.06221
 C234 C 0.31495 0.66024 0.63202
 C235 C 0.27755 0.64195 0.58734
 C236 C 0.31962 0.61183 0.55771
 C237 C 0.37972 0.61415 0.58660
 O238 O 0.37664 0.64359 0.63162
 H239 H 0.22589 0.64956 0.57766
 H240 H 0.30750 0.59111 0.51957
   
