data_POSCAR
  _audit_creation_date              2014-09-24
  _audit_creation_method            'ToBaCCo'
  _symmetry_space_group_name_H-M    'P1'
  _symmetry_Int_Tables_number       1
  _symmetry_cell_setting            triclinic
  loop_
  _symmetry_equiv_pos_as_xyz
 x,y,z
_cell_length_a 35.9003
_cell_length_b 35.9001
_cell_length_c 35.9001
_cell_angle_alpha 77.758900
_cell_angle_beta 102.245600
_cell_angle_gamma 77.731600
loop_
  _atom_site_label
  _atom_site_type_symbol
  _atom_site_fract_x
  _atom_site_fract_y
  _atom_site_fract_z
O1 O 0.56511 0.49266 0.03365
 O2 O 0.45981 0.50342 0.02999
 O3 O 0.51917 0.44514 0.03453
 O4 O 0.50612 0.55053 0.03016
 O5 O 0.49087 0.56564 -0.03522
 O6 O 0.50382 0.46005 -0.03084
 O7 O 0.44458 0.51846 -0.03538
 O8 O 0.54971 0.50760 -0.03172
 Cu9 Cu 0.51406 0.49641 0.03867
 Cu10 Cu 0.49569 0.51441 -0.03988
 C11 C 0.57510 0.49868 0.00150
 C12 C 0.43445 0.51253 -0.00332
 C13 C 0.51344 0.43482 0.00258
 C14 C 0.49670 0.57582 -0.00317
 O15 O -0.03509 0.55548 0.48149
 O16 O -0.03151 0.45037 0.49232
 O17 O -0.03060 0.49627 0.53987
 O18 O -0.03492 0.50919 0.43430
 O19 O 0.03047 0.49387 0.44943
 O20 O 0.03478 0.48085 0.55480
 O21 O 0.03388 0.43491 0.50729
 O22 O 0.03028 0.54019 0.49657
 Cu23 Cu -0.03962 0.50439 0.48551
 Cu24 Cu 0.03895 0.48594 0.50355
 C25 C -0.00302 0.56558 0.48745
 C26 C 0.00171 0.42495 0.50125
 C27 C 0.00283 0.48661 0.56511
 C28 C -0.00286 0.50333 0.42413
 O29 O 0.49229 0.03154 0.55105
 O30 O 0.48141 0.03512 0.44594
 O31 O 0.43426 0.03493 0.49226
 O32 O 0.53982 0.03064 0.50512
 O33 O 0.55479 -0.03474 0.52053
 O34 O 0.44943 -0.03046 0.50756
 O35 O 0.49653 -0.03026 0.46121
 O36 O 0.50729 -0.03383 0.56650
 Cu37 Cu 0.48546 0.03965 0.49704
 Cu38 Cu 0.50354 -0.03891 0.51547
 C39 C 0.50124 -0.00166 0.57647
 C40 C 0.48737 0.00305 0.43584
 C41 C 0.42412 0.00287 0.49812
 C42 C 0.56508 -0.00278 0.51476
 C43 C 0.49820 -0.00923 0.01999
 C44 C 0.50128 0.01998 -0.00940
 C45 C 0.50156 0.01461 -0.04929
 C46 C 0.50466 0.05893 -0.00347
 C47 C 0.49554 -0.00338 0.05920
 C48 C 0.49737 -0.04894 0.01456
 C49 C 0.53296 0.02107 -0.06509
 C50 C 0.53334 0.01702 -0.10286
 C51 C 0.50223 0.00670 -0.12539
 C52 C 0.47068 0.00043 -0.10996
 C53 C 0.47024 0.00451 -0.07213
 C54 C 0.53514 0.06177 0.02678
 C55 C 0.53874 0.09890 0.03072
 C56 C 0.51209 0.13341 0.00431
 C57 C 0.48176 0.13069 -0.02585
 C58 C 0.47813 0.09369 -0.02980
 C59 C 0.46568 0.02718 0.06255
 C60 C 0.46268 0.03097 0.09990
 C61 C 0.48931 0.00412 0.13418
 C62 C 0.51906 -0.02632 0.13096
 C63 C 0.52209 -0.03012 0.09373
 C64 C 0.46573 -0.06428 0.02105
 C65 C 0.46476 -0.10182 0.01670
 C66 C 0.49553 -0.12453 0.00607
 C67 C 0.52734 -0.10956 -0.00018
 C68 C 0.52836 -0.07198 0.00420
 H69 H 0.55723 0.02913 -0.04805
 H70 H 0.55780 0.02213 -0.11457
 H71 H 0.44630 -0.00728 -0.12727
 H72 H 0.44538 0.00014 -0.06080
 H73 H 0.55637 0.03531 0.04690
 H74 H 0.56245 0.10070 0.05403
 H75 H 0.45462 0.09212 -0.05346
 H76 H 0.44442 0.04764 0.03631
 H77 H 0.43940 0.05451 0.10206
 H78 H 0.53975 -0.04732 0.15725
 H79 H 0.54514 -0.05402 0.09181
 H80 H 0.44172 -0.04704 0.02930
 H81 H 0.44013 -0.11322 0.02180
 H82 H 0.55145 -0.12704 -0.00812
 H83 H 0.55338 -0.06096 -0.00020
 H84 H 0.46107 0.15720 -0.04650
 C85 C -0.00862 0.49885 0.98006
 C86 C 0.02078 0.50191 1.00929
 C87 C 0.05999 0.50457 1.00343
 C88 C 0.01536 0.50270 1.04900
 C89 C -0.04850 0.49855 0.98544
 C90 C -0.00271 0.49550 0.94109
 C91 C 0.09453 0.47802 1.03016
 C92 C 0.13175 0.48102 1.02633
 C93 C 0.13496 0.51074 0.99588
 C94 C 0.10068 0.53739 0.96906
 C95 C 0.06332 0.53442 0.97288
 C96 C 0.00500 0.47170 1.07200
 C97 C 0.00060 0.47271 1.10959
 C98 C 0.00681 0.50451 1.12458
 C99 C 0.01746 0.53528 1.10192
 C100 C 0.02183 0.53433 1.06438
 C101 C -0.07136 0.52986 0.99557
 C102 C -0.10919 0.52940 0.99964
 C103 C -0.12460 0.49785 0.99333
 C104 C -0.10205 0.46675 0.98299
 C105 C -0.06427 0.46715 0.97895
 C106 C -0.02905 0.52205 0.90636
 C107 C -0.02514 0.51843 0.86935
 C108 C 0.00499 0.48808 0.86659
 C109 C 0.03142 0.46142 0.90107
 C110 C 0.02753 0.46501 0.93822
 H111 H 0.09262 0.45497 1.05406
 H112 H 0.15806 0.46032 1.04732
 H113 H 0.10283 0.56065 0.94552
 H114 H 0.03708 0.55568 0.95243
 H115 H 0.00062 0.44669 1.06095
 H116 H -0.00735 0.44860 1.12703
 H117 H 0.03009 0.55835 1.04718
 H118 H -0.06004 0.55471 0.99995
 H119 H -0.12651 0.55377 1.00736
 H120 H -0.11374 0.44229 0.97786
 H121 H -0.04722 0.44289 0.97087
 H122 H -0.05270 0.54557 0.90796
 H123 H -0.04581 0.53914 0.84285
 H124 H 0.05472 0.43770 0.89924
 H125 H 0.04766 0.44377 0.96466
 H126 H 0.02254 0.55991 1.11335
 C127 C 0.00912 -0.02079 0.49878
 C128 C -0.02014 0.00864 0.50175
 C129 C -0.05910 0.00273 0.50513
 C130 C -0.01479 0.04855 0.50196
 C131 C 0.04886 -0.01539 0.49807
 C132 C 0.00328 -0.06001 0.49612
 C133 C -0.09386 0.02907 0.47860
 C134 C -0.13086 0.02517 0.48226
 C135 C -0.13358 -0.00495 0.51263
 C136 C -0.09908 -0.03137 0.53927
 C137 C -0.06195 -0.02748 0.53563
 C138 C -0.00462 0.07131 0.47064
 C139 C -0.00053 0.10914 0.47101
 C140 C -0.00687 0.12467 0.50250
 C141 C -0.01726 0.10222 0.53361
 C142 C -0.02132 0.06444 0.53328
 C143 C 0.07178 -0.00498 0.52909
 C144 C 0.10938 -0.00057 0.52816
 C145 C 0.12447 -0.00684 0.49641
 C146 C 0.10188 -0.01754 0.46563
 C147 C 0.06433 -0.02192 0.46651
 C148 C 0.03003 -0.09455 0.52265
 C149 C 0.02623 -0.13177 0.51961
 C150 C -0.00418 -0.13499 0.48984
 C151 C -0.03102 -0.10070 0.46322
 C152 C -0.02725 -0.06335 0.46624
 H153 H -0.09228 0.05270 0.45507
 H154 H -0.15737 0.04584 0.46158
 H155 H -0.10089 -0.05465 0.56301
 H156 H -0.03549 -0.04761 0.55687
 H157 H -0.00020 0.05990 0.44583
 H158 H 0.00724 0.12638 0.44664
 H159 H -0.02944 0.04747 0.55756
 H160 H 0.06066 -0.00055 0.55405
 H161 H 0.12676 0.00742 0.55227
 H162 H 0.11338 -0.02266 0.44105
 H163 H 0.04719 -0.03022 0.44248
 H164 H 0.05391 -0.09264 0.54572
 H165 H 0.04724 -0.15808 0.54029
 H166 H -0.05454 -0.10285 0.43993
 H167 H -0.04771 -0.03710 0.44498
 H168 H -0.02242 0.11401 0.55801
 C169 C -0.26692 0.52989 1.00762
 C170 C -0.29920 0.52679 0.97305
 C171 C -0.30974 0.49544 1.00233
 C172 C -0.27807 0.49854 1.03693
 C173 C -0.23712 0.49647 1.00032
 C174 C -0.24760 0.46511 1.02961
 C175 C -0.26881 0.49338 0.96573
 C176 C -0.27993 0.46203 0.99502
 C177 C -0.35047 0.49549 1.00280
 C178 C -0.38428 0.49639 1.00255
 C179 C -0.19685 0.49716 0.99857
 C180 C -0.16386 0.49763 0.99650
 H181 H -0.26114 0.55780 1.01278
 H182 H -0.32085 0.55215 0.94978
 H183 H -0.28233 0.50063 1.06623
 H184 H -0.22592 0.43976 1.05287
 H185 H -0.26458 0.49130 0.93642
 H186 H -0.28571 0.43412 0.98985
 C187 C 0.28298 0.49563 1.02746
 C188 C 0.30584 0.47990 0.99947
 C189 C 0.32053 0.51735 0.99301
 C190 C 0.29825 0.53309 1.02101
 C191 C 0.24704 0.51699 0.99167
 C192 C 0.26168 0.55448 0.98520
 C193 C 0.26933 0.50125 0.96366
 C194 C 0.28464 0.53873 0.95718
 C195 C 0.36175 0.51665 0.99417
 C196 C 0.39587 0.51515 0.99534
 C197 C 0.20648 0.51587 0.99181
 C198 C 0.17360 0.51403 0.99300
 H199 H 0.28188 0.47787 1.05636
 H200 H 0.32442 0.44921 1.00538
 H201 H 0.31058 0.54617 1.04461
 H202 H 0.24305 0.58514 0.97930
 H203 H 0.25700 0.48815 0.94007
 H204 H 0.28579 0.55647 0.92829
 C205 C 0.01440 -0.28346 0.51824
 C206 C -0.02238 -0.29979 0.51190
 C207 C -0.00674 -0.32052 0.48280
 C208 C 0.03004 -0.30477 0.48915
 C209 C -0.00820 -0.24704 0.48333
 C210 C 0.00744 -0.26775 0.45421
 C211 C -0.04501 -0.26276 0.47699
 C212 C -0.02937 -0.28415 0.44785
 C213 C -0.00553 -0.36174 0.48343
 C214 C -0.00435 -0.39585 0.48487
 C215 C -0.00813 -0.20650 0.48455
 C216 C -0.00700 -0.17361 0.48647
 H217 H 0.03238 -0.28277 0.54722
 H218 H -0.03462 -0.31341 0.53565
 H219 H 0.06091 -0.32246 0.49415
 H220 H 0.01969 -0.25411 0.43048
 H221 H -0.07587 -0.24504 0.47200
 H222 H -0.04733 -0.28490 0.41890
 C223 C 0.03848 0.25038 0.51274
 C224 C 0.01920 0.28753 0.47711
 C225 C 0.00242 0.30978 0.50465
 C226 C 0.02171 0.27329 0.54029
 C227 C 0.00031 0.23717 0.50372
 C228 C -0.01647 0.25942 0.53126
 C229 C -0.01896 0.27367 0.46810
 C230 C -0.03572 0.29652 0.49564
 C231 C 0.00295 0.35052 0.50454
 C232 C 0.00273 0.38433 0.50359
 C233 C -0.00151 0.19690 0.50308
 C234 C -0.00363 0.16392 0.50266
 H235 H 0.06897 0.23096 0.51974
 H236 H 0.03390 0.29953 0.45485
 H237 H 0.03843 0.27358 0.56998
 H238 H -0.03117 0.24742 0.55352
 H239 H -0.03569 0.27341 0.43841
 H240 H -0.06623 0.31591 0.48863
 C241 C 0.54064 -0.01813 -0.24989
 C242 C 0.51611 -0.03920 -0.27514
 C243 C 0.50453 -0.00242 -0.31052
 C244 C 0.52905 0.01862 -0.28593
 C245 C 0.50357 -0.00037 -0.23790
 C246 C 0.49200 0.03637 -0.27331
 C247 C 0.47905 -0.02141 -0.26248
 C248 C 0.46749 0.01533 -0.29849
 C249 C 0.50441 -0.00290 -0.35127
 C250 C 0.50343 -0.00264 -0.38510
 C251 C 0.50290 0.00141 -0.19763
 C252 C 0.50244 0.00350 -0.16465
 H253 H 0.57072 -0.03188 -0.22944
 H254 H 0.52606 -0.07028 -0.27635
 H255 H 0.54962 0.03506 -0.29599
 H256 H 0.48204 0.06747 -0.27214
 H257 H 0.45847 -0.03784 -0.25241
 H258 H 0.43739 0.02910 -0.31891
 C259 C 0.52009 -0.00568 0.28147
 C260 C 0.50431 0.03088 0.29572
 C261 C 0.48248 0.00682 0.31974
 C262 C 0.49828 -0.02974 0.30606
 C263 C 0.48293 0.00821 0.24625
 C264 C 0.46110 -0.01586 0.27026
 C265 C 0.46712 0.04480 0.25989
 C266 C 0.44528 0.02072 0.28457
 C267 C 0.48313 0.00563 0.36096
 C268 C 0.48458 0.00446 0.39506
 C269 C 0.48409 0.00811 0.20570
 C270 C 0.48598 0.00696 0.17281
 H271 H 0.55088 -0.01651 0.27978
 H272 H 0.52210 0.05008 0.30664
 H273 H 0.51109 -0.06040 0.32546
 H274 H 0.44332 -0.03507 0.25934
 H275 H 0.45433 0.07545 0.24045
 H276 H 0.41451 0.03154 0.28632
 C277 C 0.51273 -0.27331 0.03328
 C278 C 0.47495 -0.28767 0.02376
 C279 C 0.49214 -0.30891 -0.00422
 C280 C 0.52992 -0.29513 0.00528
 C281 C 0.49313 -0.23642 -0.00186
 C282 C 0.51033 -0.25764 -0.02985
 C283 C 0.45532 -0.25015 -0.01137
 C284 C 0.47252 -0.27205 -0.03940
 C285 C 0.49242 -0.34961 -0.00478
 C286 C 0.49371 -0.38347 -0.00445
 C287 C 0.49398 -0.19632 0.00018
 C288 C 0.49476 -0.16351 0.00253
 H289 H 0.52930 -0.27340 0.06317
 H290 H 0.46039 -0.30047 0.04578
 H291 H 0.56060 -0.31409 0.01213
 H292 H 0.52490 -0.24483 -0.05185
 H293 H 0.42466 -0.23116 -0.01820
 H294 H 0.45597 -0.27202 -0.06927
 C295 C 0.55684 0.25969 0.01486
 C296 C 0.53528 0.29619 -0.02099
 C297 C 0.51969 0.31852 0.00705
 C298 C 0.54124 0.28272 0.04291
 C299 C 0.51938 0.24502 0.00866
 C300 C 0.50378 0.26735 0.03668
 C301 C 0.49785 0.28086 -0.02716
 C302 C 0.48227 0.30377 0.00085
 C303 C 0.51877 0.35976 0.00567
 C304 C 0.51691 0.39394 0.00429
 C305 C 0.51810 0.20455 0.00858
 C306 C 0.51593 0.17179 0.00733
 H307 H 0.58749 0.24108 0.02066
 H308 H 0.54822 0.30852 -0.04471
 H309 H 0.55908 0.28398 0.07170
 H310 H 0.49082 0.25503 0.06040
 H311 H 0.47998 0.27966 -0.05597
 H312 H 0.45159 0.32233 -0.00496
 C313 C -0.27452 0.02553 0.52641
 C314 C -0.30665 0.02275 0.49155
 C315 C -0.31865 -0.00731 0.52076
 C316 C -0.28713 -0.00454 0.55567
 C317 C -0.24517 -0.00905 0.52022
 C318 C -0.25709 -0.03916 0.54946
 C319 C -0.27674 -0.01182 0.48535
 C320 C -0.28932 -0.04190 0.51456
 C321 C -0.35988 -0.00588 0.51995
 C322 C -0.39406 -0.00447 0.51816
 C323 C -0.20472 -0.00905 0.51881
 C324 C -0.17197 -0.00788 0.51655
 H325 H -0.26796 0.05325 0.53128
 H326 H -0.32745 0.04823 0.46775
 H327 H -0.29189 -0.00151 0.58456
 H328 H -0.23623 -0.06463 0.57324
 H329 H -0.27203 -0.01484 0.45643
 H330 H -0.29589 -0.06962 0.50968
 C331 C 0.27287 -0.01807 0.52982
 C332 C 0.29573 -0.03446 0.50214
 C333 C 0.30884 0.00379 0.49341
 C334 C 0.28657 0.02021 0.52110
 C335 C 0.23635 0.00130 0.49425
 C336 C 0.24940 0.03958 0.48551
 C337 C 0.25862 -0.01513 0.46655
 C338 C 0.27235 0.02317 0.45781
 C339 C 0.34954 0.00440 0.49376
 C340 C 0.38341 0.00411 0.49510
 C341 C 0.19625 -0.00082 0.49502
 C342 C 0.16345 -0.00323 0.49572
 H343 H 0.27264 -0.03503 0.55943
 H344 H 0.31522 -0.06490 0.50894
 H345 H 0.29853 0.03477 0.54352
 H346 H 0.22987 0.06999 0.47871
 H347 H 0.24666 -0.02969 0.44414
 H348 H 0.27261 0.04012 0.42821
 C349 C 0.03529 0.49537 1.27198
 C350 C 0.01739 0.53243 1.28449
 C351 C -0.00380 0.50793 1.30887
 C352 C 0.01409 0.47087 1.29695
 C353 C -0.00130 0.50693 1.23643
 C354 C -0.02249 0.48242 1.26080
 C355 C -0.01921 0.54402 1.24830
 C356 C -0.04043 0.51950 1.27335
 C357 C -0.00441 0.50764 1.34957
 C358 C -0.00412 0.50633 1.38343
 C359 C 0.00081 0.50606 1.19634
 C360 C 0.00322 0.50528 1.16355
 H361 H 0.06644 0.48540 1.27098
 H362 H 0.03375 0.55301 1.29468
 H363 H 0.02779 0.44079 1.31742
 H364 H -0.03885 0.46184 1.25061
 H365 H -0.03289 0.57408 1.22779
 H366 H -0.07156 0.52945 1.27440
 C367 C 0.04564 0.46517 0.74112
 C368 C 0.02163 0.44315 0.71658
 C369 C 0.00738 0.48038 0.68143
 C370 C 0.03137 0.50237 0.70528
 C371 C 0.00912 0.48072 0.75495
 C372 C -0.00511 0.51789 0.71974
 C373 C -0.01487 0.45872 0.73111
 C374 C -0.02909 0.49591 0.69532
 C375 C 0.00595 0.48129 0.64017
 C376 C 0.00454 0.48314 0.60599
 C377 C 0.00912 0.48203 0.79542
 C378 C 0.00794 0.48422 0.82819
 H379 H 0.07636 0.45256 0.76042
 H380 H 0.03258 0.41243 0.71477
 H381 H 0.05035 0.52034 0.69419
 H382 H -0.01608 0.54864 0.72148
 H383 H -0.03386 0.44077 0.74221
 H384 H -0.05983 0.50855 0.67605
   
