data_POSCAR
  _audit_creation_date              2014-09-24
  _audit_creation_method            'ToBaCCo'
  _symmetry_space_group_name_H-M    'P1'
  _symmetry_Int_Tables_number       1
  _symmetry_cell_setting            triclinic
  loop_
  _symmetry_equiv_pos_as_xyz
 x,y,z
_cell_length_a 53.2769
_cell_length_b 52.8460
_cell_length_c 20.7223
_cell_angle_alpha 89.430200
_cell_angle_beta 90.456600
_cell_angle_gamma 119.685800
loop_
  _atom_site_label
  _atom_site_type_symbol
  _atom_site_fract_x
  _atom_site_fract_y
  _atom_site_fract_z
C1 C 0.28718 0.44711 0.52388
 C2 C 0.28401 0.44277 0.45861
 C3 C 0.26098 0.44642 0.44003
 N4 N 0.24966 0.45237 0.49209
 C5 C 0.26552 0.45263 0.54375
 C6 C 0.25263 0.44697 0.37526
 C7 C 0.22724 0.44745 0.35771
 C8 C 0.22188 0.45498 0.29696
 C9 C 0.19512 0.45279 0.29923
 C10 C 0.18461 0.44360 0.36129
 N11 N 0.20435 0.44026 0.39643
 C12 C 0.15746 0.43823 0.38471
 C13 C 0.15155 0.43419 0.45132
 C14 C 0.12451 0.41734 0.47862
 C15 C 0.12788 0.42278 0.54356
 C16 C 0.15685 0.44274 0.55332
 N17 N 0.17142 0.44928 0.49711
 C18 C 0.16929 0.45695 0.61187
 C19 C 0.19815 0.46444 0.62750
 C20 C 0.21411 0.48114 0.67961
 C21 C 0.24033 0.48198 0.67824
 C22 C 0.24006 0.46631 0.62464
 N23 N 0.21418 0.45544 0.59451
 C24 C 0.26270 0.46108 0.60685
 H25 H 0.30430 0.44717 0.55225
 H26 H 0.29773 0.43830 0.42812
 H27 H 0.20691 0.44053 0.55688
 H28 H 0.23605 0.46192 0.25551
 H29 H 0.18509 0.45797 0.25960
 H30 H 0.10444 0.40316 0.45393
 H31 H 0.11096 0.41360 0.57945
 H32 H 0.25763 0.49313 0.71281
 H33 H 0.20143 0.43151 0.44281
 H34 H 0.20785 0.49177 0.71522
 C35 C 0.54385 -0.15072 0.43926
 C36 C 0.53948 -0.15147 0.50462
 C37 C 0.55071 -0.16789 0.53176
 N38 N 0.56124 -0.17766 0.48487
 C39 C 0.55722 -0.16704 0.42841
 C40 C 0.55106 -0.17412 0.59844
 C41 C 0.55278 -0.19886 0.61939
 C42 C 0.55992 -0.20319 0.68162
 C43 C 0.55632 -0.23074 0.68391
 C44 C 0.54737 -0.24250 0.62299
 N45 N 0.54548 -0.22288 0.58368
 C46 C 0.53936 -0.27145 0.60697
 C47 C 0.53714 -0.28105 0.54268
 C48 C 0.52673 -0.30964 0.52430
 C49 C 0.53010 -0.30926 0.45871
 C50 C 0.54168 -0.28046 0.43842
 N51 N 0.54649 -0.26331 0.49040
 C52 C 0.55079 -0.26962 0.37463
 C53 C 0.56469 -0.23929 0.36088
 C54 C 0.58148 -0.22556 0.30685
 C55 C 0.58555 -0.19776 0.30492
 C56 C 0.57125 -0.19513 0.35765
 N57 N 0.55907 -0.22025 0.39208
 C58 C 0.56591 -0.17185 0.36762
 H59 H 0.53701 -0.14021 0.40379
 H60 H 0.52831 -0.14189 0.52883
 H61 H 0.54370 -0.22553 0.42806
 H62 H 0.56683 -0.18816 0.72161
 H63 H 0.55976 -0.24102 0.72587
 H64 H 0.51817 -0.32882 0.55482
 H65 H 0.52561 -0.32815 0.43057
 H66 H 0.59678 -0.18169 0.26749
 H67 H 0.53634 -0.22689 0.53775
 H68 H 0.58938 -0.23458 0.27095
 C69 C 1.34368 0.84382 0.46562
 C70 C 1.34269 0.84848 0.52995
 C71 C 1.31724 0.82561 0.55273
 N72 N 1.30234 0.80696 0.50453
 C73 C 1.31824 0.81846 0.45020
 C74 C 1.30998 0.82147 0.62412
 C75 C 1.28137 0.79423 0.64255
 C76 C 1.27649 0.78193 0.70342
 C77 C 1.24891 0.75883 0.70345
 C78 C 1.23732 0.75789 0.64253
 N79 N 1.25758 0.77951 0.60510
 C80 C 1.20829 0.73830 0.62411
 C81 C 1.19976 0.73477 0.55849
 C82 C 1.17227 0.72654 0.53548
 C83 C 1.17311 0.72408 0.46969
 C84 C 1.20110 0.73102 0.45483
 N85 N 1.21745 0.73792 0.50903
 C86 C 1.21131 0.72966 0.39302
 C87 C 1.24114 0.74371 0.37966
 C88 C 1.25330 0.73792 0.32711
 C89 C 1.28196 0.75893 0.32624
 C90 C 1.28663 0.77717 0.37842
 N91 N 1.26158 0.76730 0.41125
 C92 C 1.31172 0.80457 0.38878
 H93 H 1.36209 0.85702 0.43532
 H94 H 1.35951 0.86601 0.55767
 H95 H 1.25744 0.77854 0.44677
 H96 H 1.29156 0.78857 0.74337
 H97 H 1.23888 0.74433 0.74406
 H98 H 1.15367 0.72310 0.56311
 H99 H 1.15525 0.71825 0.43672
 H100 H 1.29713 0.76074 0.28968
 H101 H 1.25445 0.78558 0.55909
 H102 H 1.24246 0.72083 0.29186
 C103 C 0.65879 0.49381 0.45593
 C104 C 0.65641 0.48778 0.52052
 C105 C 0.67747 0.48049 0.53608
 N106 N 0.69281 0.48214 0.48294
 C107 C 0.68129 0.49022 0.43390
 C108 C 0.68143 0.47143 0.59802
 C109 C 0.70712 0.47106 0.61477
 C110 C 0.71007 0.45534 0.66546
 C111 C 0.73856 0.46223 0.66700
 C112 C 0.75214 0.48136 0.61617
 N113 N 0.73284 0.48650 0.58429
 C114 C 0.78199 0.49481 0.60279
 C115 C 0.79326 0.50601 0.54078
 C116 C 0.82226 0.52329 0.52556
 C117 C 0.82376 0.52663 0.45961
 C118 C 0.79562 0.51198 0.43692
 N119 N 0.77701 0.49937 0.48647
 C120 C 0.78750 0.50916 0.37119
 C121 C 0.75916 0.50089 0.35060
 C122 C 0.74895 0.49328 0.28791
 C123 C 0.72120 0.48877 0.28700
 C124 C 0.71529 0.49368 0.34913
 N125 N 0.73849 0.50110 0.38755
 C126 C 0.68950 0.49260 0.36865
 H127 H 0.64551 0.50027 0.42852
 H128 H 0.64108 0.48905 0.55238
 H129 H 0.74110 0.50884 0.43450
 H130 H 0.69342 0.44015 0.69767
 H131 H 0.74813 0.45379 0.70111
 H132 H 0.84052 0.53261 0.55824
 H133 H 0.84329 0.53878 0.43161
 H134 H 0.70705 0.48258 0.24537
 H135 H 0.73772 0.50207 0.54810
 H136 H 0.76033 0.49136 0.24689
 C137 C 0.46975 0.16377 0.52652
 C138 C 0.46542 0.16500 0.59108
 C139 C 0.44820 0.17780 0.59712
 N140 N 0.44292 0.18555 0.53849
 C141 C 0.45602 0.17686 0.49554
 C142 C 0.43618 0.18080 0.65535
 C143 C 0.42779 0.20228 0.66168
 C144 C 0.41095 0.20329 0.71104
 C145 C 0.40936 0.22825 0.70179
 C146 C 0.42513 0.24195 0.64649
 N147 N 0.43617 0.22577 0.62239
 C148 C 0.43226 0.27036 0.62444
 C149 C 0.44154 0.27990 0.55965
 C150 C 0.44769 0.30664 0.53291
 C151 C 0.45406 0.30629 0.46927
 C152 C 0.45010 0.27888 0.45719
 N153 N 0.44231 0.26275 0.51230
 C154 C 0.45196 0.26863 0.39537
 C155 C 0.44834 0.24072 0.38500
 C156 C 0.44201 0.22680 0.32581
 C157 C 0.44210 0.20103 0.33516
 C158 C 0.44900 0.20028 0.39951
 N159 N 0.45249 0.22440 0.42965
 C160 C 0.45427 0.17910 0.42839
 H161 H 0.48205 0.15481 0.50482
 H162 H 0.47410 0.15736 0.62910
 H163 H 0.46074 0.23105 0.47591
 H164 H 0.40095 0.18781 0.75011
 H165 H 0.39802 0.23533 0.73336
 H166 H 0.44654 0.32448 0.55474
 H167 H 0.45997 0.32413 0.43570
 H168 H 0.43801 0.18500 0.29849
 H169 H 0.45160 0.23220 0.58617
 H170 H 0.43781 0.23446 0.28057
 C171 C 0.87954 0.30338 0.54089
 C172 C 0.87844 0.30380 0.47481
 C173 C 0.84954 0.28744 0.45800
 N174 N 0.83299 0.27696 0.51116
 C175 C 0.85123 0.28688 0.56185
 C176 C 0.83830 0.28546 0.39543
 C177 C 0.81079 0.26257 0.37766
 C178 C 0.79694 0.26055 0.31938
 C179 C 0.77145 0.23435 0.32046
 C180 C 0.77036 0.22145 0.37974
 N181 N 0.79447 0.23854 0.41388
 C182 C 0.74840 0.19381 0.39981
 C183 C 0.74410 0.18482 0.46510
 C184 C 0.72744 0.15632 0.48594
 C185 C 0.72768 0.15707 0.55213
 C186 C 0.74371 0.18616 0.56965
 N187 N 0.75417 0.20306 0.51615
 C188 C 0.74775 0.19709 0.63364
 C189 C 0.77204 0.22437 0.65012
 C190 C 0.77497 0.23983 0.70633
 C191 C 0.80171 0.26454 0.70431
 C192 C 0.81436 0.26374 0.64688
 N193 N 0.79631 0.23913 0.61438
 C194 C 0.84205 0.28525 0.62596
 H195 H 0.89879 0.31484 0.57028
 H196 H 0.89667 0.31546 0.44282
 H197 H 0.80120 0.23174 0.57250
 H198 H 0.80444 0.27610 0.27990
 H199 H 0.75551 0.22582 0.28216
 H200 H 0.71660 0.13699 0.45650
 H201 H 0.71741 0.13823 0.58365
 H202 H 0.81058 0.28138 0.74058
 H203 H 0.80050 0.23259 0.45680
 H204 H 0.75938 0.23434 0.74458
 O205 O 0.97284 0.53634 -0.08789
 O206 O 1.01966 0.56742 0.10102
 O207 O 0.93754 0.49215 0.04271
 O208 O 1.06051 0.56330 -0.05857
 O209 O 0.96611 0.53670 0.07143
 O210 O 1.02424 0.56745 -0.08835
 O211 O 1.05727 0.56661 0.06107
 O212 O 0.94272 0.49145 -0.07239
 C213 C 0.94775 0.51600 -0.09177
 C214 C 1.04640 0.57884 0.09370
 C215 C 0.94116 0.51629 0.06226
 C216 C 1.05066 0.57828 -0.08354
 O217 O 1.03149 0.52252 -0.12806
 O218 O 0.96673 0.49106 0.12754
 O219 O 0.97457 0.46411 -0.05545
 O220 O 1.04834 0.51382 0.07652
 O221 O 1.01940 0.51997 0.14166
 O222 O 0.97938 0.49189 -0.13464
 O223 O 1.04607 0.50746 -0.04593
 O224 O 0.96719 0.46232 0.05746
 Co225 Co 1.00181 0.52857 -0.10054
 Co226 Co 0.99344 0.52786 0.09941
 Co227 Co 0.95919 0.48095 -0.00648
 Co228 Co 1.04796 0.53586 0.00677
 O229 O 1.00088 0.51876 0.00032
 C230 C 1.04264 0.50811 -0.10512
 C231 C 0.96410 0.46691 0.11408
 C232 C 0.97511 0.46774 -0.11427
 C233 C 1.03760 0.51176 0.13121
 O234 O 0.47097 0.45871 -0.12157
 O235 O 0.45868 0.49766 0.12717
 O236 O 0.50135 0.45093 0.06388
 O237 O 0.43571 0.48950 -0.06581
 O238 O 0.47146 0.45964 0.11307
 O239 O 0.46569 0.50222 -0.14103
 O240 O 0.43229 0.49470 0.04543
 O241 O 0.46839 0.43854 -0.02980
 C242 C 0.46010 0.43626 -0.08667
 C243 C 0.43510 0.49279 0.10433
 C244 C 0.48181 0.44347 0.10475
 C245 C 0.44020 0.49066 -0.12387
 O246 O 0.51879 0.53634 -0.10285
 O247 O 0.52757 0.50193 0.10564
 O248 O 0.52087 0.45460 -0.05618
 O249 O 0.48086 0.54664 0.04790
 O250 O 0.51066 0.53873 0.10916
 O251 O 0.52805 0.49509 -0.10269
 O252 O 0.48449 0.54471 -0.07179
 O253 O 0.53934 0.49972 0.00823
 Co254 Co 0.49473 0.49757 -0.10575
 Co255 Co 0.49181 0.49891 0.10289
 Co256 Co 0.50292 0.47014 -0.01138
 Co257 Co 0.46080 0.51712 -0.01144
 O258 O 0.48600 0.49637 -0.00140
 C259 C 0.50890 0.55333 -0.09777
 C260 C 0.54671 0.50699 0.06485
 C261 C 0.53201 0.47322 -0.10405
 C262 C 0.50074 0.55484 0.09043
 O263 O 0.55239 0.02686 -0.09686
 O264 O 0.53572 -0.00735 0.12921
 O265 O 0.55924 0.07823 0.05154
 O266 O 0.52708 -0.02552 -0.07388
 O267 O 0.56338 0.04699 0.11512
 O268 O 0.50846 -0.01226 -0.15188
 O269 O 0.54208 -0.02198 0.03761
 O270 O 0.55824 0.06856 -0.06548
 C271 C 0.56783 0.05393 -0.09371
 C272 C 0.54719 -0.01845 0.09636
 C273 C 0.57326 0.07226 0.09281
 C274 C 0.51762 -0.02939 -0.13166
 O275 O 0.47481 -0.00415 -0.07950
 O276 O 0.51649 0.04889 0.13336
 O277 O 0.49917 0.05013 -0.06183
 O278 O 0.48698 -0.04120 0.07851
 O279 O 0.48778 -0.00585 0.13461
 O280 O 0.51487 0.03857 -0.14067
 O281 O 0.47253 -0.04178 -0.03433
 O282 O 0.50138 0.05842 0.04575
 Co283 Co 0.51369 0.01090 -0.08441
 Co284 Co 0.52512 0.02020 0.11682
 Co285 Co 0.52892 0.06018 -0.00669
 Co286 Co 0.50815 -0.02821 0.00276
 O287 O 0.51915 0.01705 0.01145
 C288 C 0.46018 -0.03018 -0.06382
 C289 C 0.50319 0.05954 0.10495
 C290 C 0.50274 0.05170 -0.12082
 C291 C 0.47604 -0.03220 0.12031
 C292 C 1.13716 0.43889 0.34125
 C293 C 1.11700 0.44723 0.35954
 C294 C 1.10028 0.45426 0.31263
 C295 C 1.09136 0.47411 0.33067
 C296 C 1.07779 0.48343 0.28618
 C297 C 1.07258 0.47274 0.22280
 C298 C 1.08045 0.45200 0.20555
 C299 C 1.09397 0.44264 0.25009
 C300 C 1.06102 0.48409 0.17225
 C301 C 1.04629 0.49923 0.18450
 H302 H 1.11668 0.45345 0.40899
 H303 H 1.09587 0.48329 0.37870
 H304 H 1.07252 0.49979 0.30108
 H305 H 1.07648 0.44330 0.15709
 H306 H 1.09960 0.42655 0.23508
 H307 H 1.06428 0.48025 0.12252
 H308 H 1.13965 0.43676 0.29033
 H309 H 1.04025 0.50122 0.23308
 C310 C 0.54635 0.71119 0.32316
 C311 C 0.52027 0.68536 0.31378
 C312 C 0.51536 0.66508 0.26028
 C313 C 0.48702 0.64658 0.23893
 C314 C 0.48141 0.62580 0.19151
 C315 C 0.50396 0.62267 0.16565
 C316 C 0.53248 0.64169 0.18572
 C317 C 0.53813 0.66269 0.23271
 C318 C 0.49685 0.59846 0.12070
 C319 C 0.51232 0.58354 0.12047
 H320 H 0.50202 0.68069 0.34431
 H321 H 0.46913 0.64798 0.25955
 H322 H 0.45927 0.61142 0.17672
 H323 H 0.55041 0.64022 0.16573
 H324 H 0.56019 0.67631 0.24878
 H325 H 0.47653 0.58936 0.09463
 H326 H 0.56128 0.71846 0.28328
 H327 H 0.53124 0.59086 0.15092
 C328 C 0.33063 -0.18200 0.33607
 C329 C 0.34192 -0.15251 0.32109
 C330 C 0.36377 -0.13680 0.27052
 C331 C 0.36801 -0.10971 0.24924
 C332 C 0.39050 -0.09251 0.20715
 C333 C 0.40959 -0.10186 0.18619
 C334 C 0.40457 -0.12957 0.20484
 C335 C 0.38197 -0.14687 0.24708
 C336 C 0.43539 -0.08257 0.14731
 C337 C 0.44980 -0.05246 0.15548
 H338 H 0.33405 -0.14023 0.34749
 H339 H 0.35420 -0.10154 0.26624
 H340 H 0.39308 -0.07172 0.19178
 H341 H 0.41890 -0.13730 0.18897
 H342 H 0.37965 -0.16745 0.26323
 H343 H 0.44447 -0.09222 0.11590
 H344 H 0.33332 -0.19517 0.30031
 H345 H 0.44204 -0.04304 0.19087
 C346 C 0.80925 0.51456 0.32085
 C347 C 0.82312 0.49809 0.31923
 C348 C 0.84022 0.49786 0.26347
 C349 C 0.84321 0.47325 0.25400
 C350 C 0.85926 0.47210 0.20230
 C351 C 0.87317 0.49578 0.15956
 C352 C 0.86998 0.52039 0.16845
 C353 C 0.85370 0.52145 0.22001
 C354 C 0.89190 0.49441 0.10891
 C355 C 0.91679 0.51899 0.08675
 H356 H 0.81886 0.48254 0.35795
 H357 H 0.83304 0.45478 0.28669
 H358 H 0.86144 0.45292 0.19668
 H359 H 0.88003 0.53886 0.13587
 H360 H 0.85224 0.54097 0.22632
 H361 H 0.88910 0.47314 0.09798
 H362 H 0.81045 0.52782 0.27960
 H363 H 0.92113 0.54049 0.10043
 C364 C 0.45948 0.28814 0.33815
 C365 C 0.44392 0.30189 0.32011
 C366 C 0.45345 0.32468 0.26920
 C367 C 0.48186 0.33904 0.24485
 C368 C 0.49062 0.36215 0.20097
 C369 C 0.47147 0.37174 0.18145
 C370 C 0.44284 0.35678 0.20401
 C371 C 0.43403 0.33363 0.24765
 C372 C 0.48205 0.39779 0.13928
 C373 C 0.47084 0.41659 0.14303
 H374 H 0.42432 0.29639 0.34633
 H375 H 0.49778 0.33337 0.26099
 H376 H 0.51275 0.37327 0.18408
 H377 H 0.42719 0.36295 0.18829
 H378 H 0.41204 0.32292 0.26537
 H379 H 0.50054 0.40359 0.10866
 H380 H 0.47682 0.29010 0.30791
 H381 H 0.45384 0.41213 0.17716
 C382 C 0.72907 0.17365 0.34993
 C383 C 0.70021 0.16652 0.34632
 C384 C 0.68057 0.14796 0.29486
 C385 C 0.65790 0.15240 0.27426
 C386 C 0.63821 0.13435 0.22764
 C387 C 0.64060 0.11116 0.20164
 C388 C 0.66325 0.10670 0.22237
 C389 C 0.68324 0.12507 0.26813
 C390 C 0.61804 0.08948 0.15888
 C391 C 0.60063 0.09572 0.11869
 H392 H 0.69227 0.17637 0.38030
 H393 H 0.65528 0.16974 0.29472
 H394 H 0.62048 0.13784 0.21415
 H395 H 0.66518 0.08864 0.20387
 H396 H 0.70010 0.12067 0.28418
 H397 H 0.61406 0.06729 0.16163
 H398 H 0.73853 0.16724 0.31182
 H399 H 0.60598 0.11807 0.11004
 C400 C 0.43319 0.16263 -0.29114
 C401 C 0.42787 0.13406 -0.29871
 C402 C 0.43774 0.11896 -0.25326
 C403 C 0.43825 0.09418 -0.27543
 C404 C 0.45088 0.08121 -0.23845
 C405 C 0.46313 0.09268 -0.17807
 C406 C 0.46142 0.11658 -0.15436
 C407 C 0.44909 0.12982 -0.19174
 C408 C 0.47713 0.07983 -0.13817
 C409 C 0.49022 0.06484 -0.16372
 H410 H 0.42023 0.12398 -0.34543
 H411 H 0.42960 0.08528 -0.32255
 H412 H 0.45094 0.06221 -0.25723
 H413 H 0.47034 0.12550 -0.10742
 H414 H 0.44904 0.14874 -0.17260
 H415 H 0.47818 0.08332 -0.08652
 H416 H 0.43417 0.17072 -0.24295
 H417 H 0.49152 0.06287 -0.21534
 C418 C 0.65810 0.46185 -0.35852
 C419 C 0.66066 0.46646 -0.29186
 C420 C 0.63578 0.46269 -0.25305
 C421 C 0.63367 0.45464 -0.18776
 C422 C 0.61067 0.45187 -0.15022
 C423 C 0.58980 0.45780 -0.17699
 C424 C 0.59186 0.46570 -0.24244
 C425 C 0.61469 0.46837 -0.27983
 C426 C 0.56632 0.45591 -0.13594
 C427 C 0.55369 0.47322 -0.14723
 H428 H 0.68141 0.47521 -0.26801
 H429 H 0.64979 0.45043 -0.16591
 H430 H 0.60948 0.44568 -0.09987
 H431 H 0.57586 0.46982 -0.26514
 H432 H 0.61604 0.47560 -0.32935
 H433 H 0.56042 0.44228 -0.09308
 H434 H 0.63668 0.45331 -0.37895
 H435 H 0.56136 0.48902 -0.18623
 C436 C 0.86089 0.30933 -0.32997
 C437 C 0.87174 0.33820 -0.35023
 C438 C 0.89331 0.36406 -0.31475
 C439 C 0.89728 0.39142 -0.33302
 C440 C 0.91798 0.41664 -0.30236
 C441 C 0.93530 0.41512 -0.25286
 C442 C 0.93202 0.38775 -0.23597
 C443 C 0.91114 0.36244 -0.26648
 C444 C 0.95521 0.44230 -0.21843
 C445 C 0.96581 0.44258 -0.15661
 H446 H 0.86409 0.34203 -0.39595
 H447 H 0.88415 0.39330 -0.37090
 H448 H 0.92008 0.43739 -0.31663
 H449 H 0.94554 0.38560 -0.19969
 H450 H 0.90944 0.34183 -0.25292
 H451 H 0.95803 0.46262 -0.23819
 H452 H 0.86488 0.30425 -0.28158
 H453 H 0.96257 0.42265 -0.13414
 C454 C 0.54847 -0.15676 -0.35331
 C455 C 0.55808 -0.12695 -0.35924
 C456 C 0.55393 -0.11002 -0.30796
 C457 C 0.55237 -0.08516 -0.32564
 C458 C 0.54734 -0.06920 -0.27926
 C459 C 0.54382 -0.07776 -0.21389
 C460 C 0.54678 -0.10178 -0.19570
 C461 C 0.55172 -0.11783 -0.24218
 C462 C 0.53747 -0.06183 -0.16402
 C463 C 0.52288 -0.04674 -0.17878
 H464 H 0.56872 -0.11542 -0.40302
 H465 H 0.55461 -0.07832 -0.37573
 H466 H 0.54648 -0.05005 -0.29486
 H467 H 0.54483 -0.10839 -0.14550
 H468 H 0.55411 -0.13605 -0.22608
 H469 H 0.54338 -0.06294 -0.11434
 H470 H 0.53971 -0.16696 -0.30724
 H471 H 0.51504 -0.04726 -0.22733
 C472 C 0.28597 0.46788 -0.34503
 C473 C 0.29367 0.44736 -0.32492
 C474 C 0.31808 0.45492 -0.28036
 C475 C 0.33651 0.44348 -0.29073
 C476 C 0.36020 0.45093 -0.24994
 C477 C 0.36535 0.46942 -0.19721
 C478 C 0.34637 0.48009 -0.18577
 C479 C 0.32312 0.47319 -0.22734
 C480 C 0.38956 0.47709 -0.15193
 C481 C 0.41637 0.48100 -0.17072
 H482 H 0.28301 0.42591 -0.34637
 H483 H 0.33281 0.42912 -0.33103
 H484 H 0.37409 0.44181 -0.25894
 H485 H 0.34973 0.49406 -0.14489
 H486 H 0.30883 0.48176 -0.21740
 H487 H 0.38691 0.48214 -0.10273
 H488 H 0.29702 0.48951 -0.32459
 H489 H 0.42052 0.47889 -0.22088
 C490 C 1.18830 0.72211 -0.32648
 C491 C 1.16396 0.69459 -0.33463
 C492 C 1.14714 0.67637 -0.27925
 C493 C 1.16060 0.67600 -0.22078
 C494 C 1.14455 0.65678 -0.17102
 C495 C 1.11477 0.63801 -0.17830
 C496 C 1.10133 0.63851 -0.23670
 C497 C 1.11744 0.65734 -0.28681
 C498 C 1.09855 0.61636 -0.12717
 C499 C 1.06921 0.60588 -0.11724
 H500 H 1.15775 0.68492 -0.38193
 H501 H 1.18367 0.68970 -0.21429
 H502 H 1.15545 0.65635 -0.12702
 H503 H 1.07858 0.62360 -0.24478
 H504 H 1.10676 0.65687 -0.33185
 H505 H 1.10963 0.60742 -0.09915
 H506 H 1.19322 0.73003 -0.27753
 H507 H 1.05870 0.61638 -0.14160
 C508 C 0.80132 0.49685 -0.34275
 C509 C 0.82425 0.49137 -0.34882
 C510 C 0.84291 0.49367 -0.29353
 C511 C 0.87275 0.50621 -0.30294
 C512 C 0.89088 0.50834 -0.25165
 C513 C 0.87934 0.49728 -0.19030
 C514 C 0.84940 0.48417 -0.18119
 C515 C 0.83133 0.48273 -0.23215
 C516 C 0.89800 0.49709 -0.13736
 C517 C 0.92622 0.51977 -0.12894
 H518 H 0.82959 0.48654 -0.39572
 H519 H 0.88204 0.51449 -0.35004
 H520 H 0.91380 0.51780 -0.26053
 H521 H 0.84002 0.47504 -0.13461
 H522 H 0.80827 0.47236 -0.22404
 H523 H 0.88975 0.47807 -0.10620
 H524 H 0.79616 0.50129 -0.29521
 H525 H 0.93357 0.53988 -0.15588
 C526 C 0.42890 0.28887 -0.33161
 C527 C 0.44924 0.31837 -0.32497
 C528 C 0.44402 0.33904 -0.28791
 C529 C 0.42877 0.33151 -0.22928
 C530 C 0.42574 0.35251 -0.19459
 C531 C 0.43757 0.38114 -0.21862
 C532 C 0.45190 0.38817 -0.27814
 C533 C 0.45546 0.36749 -0.31188
 C534 C 0.43750 0.40494 -0.18184
 C535 C 0.44138 0.40742 -0.11503
 H536 H 0.46930 0.32735 -0.35158
 H537 H 0.42002 0.30980 -0.20921
 H538 H 0.41437 0.34639 -0.14905
 H539 H 0.46133 0.41010 -0.29757
 H540 H 0.46723 0.37375 -0.35700
 H541 H 0.44197 0.42436 -0.20904
 H542 H 0.41130 0.27972 -0.29761
 H543 H 0.43693 0.38850 -0.08607
 C544 C 0.72769 0.18111 -0.31678
 C545 C 0.69834 0.16137 -0.32720
 C546 C 0.67789 0.14499 -0.27464
 C547 C 0.68009 0.15697 -0.21312
 C548 C 0.65911 0.14148 -0.16616
 C549 C 0.63590 0.11363 -0.17938
 C550 C 0.63388 0.10164 -0.24079
 C551 C 0.65455 0.11729 -0.28796
 C552 C 0.61275 0.09861 -0.13093
 C553 C 0.59545 0.06837 -0.12846
 H554 H 0.68944 0.15771 -0.37549
 H555 H 0.69734 0.17866 -0.20190
 H556 H 0.66081 0.15138 -0.11962
 H557 H 0.61578 0.08066 -0.25345
 H558 H 0.65219 0.10781 -0.33529
 H559 H 0.60851 0.11184 -0.09798
 H560 H 0.73491 0.18551 -0.26716
 H561 H 0.60103 0.05488 -0.15719
 C562 C 1.15321 0.46437 -0.34564
 C563 C 1.13061 0.46894 -0.36682
 C564 C 1.11345 0.47717 -0.32472
 C565 C 1.11301 0.47427 -0.25720
 C566 C 1.09632 0.48220 -0.21973
 C567 C 1.07928 0.49276 -0.24894
 C568 C 1.07972 0.49555 -0.31632
 C569 C 1.09647 0.48771 -0.35376
 C570 C 1.06196 0.50226 -0.21081
 C571 C 1.05465 0.49436 -0.14645
 H572 H 1.12641 0.46856 -0.41811
 H573 H 1.12529 0.46574 -0.23283
 H574 H 1.09742 0.48045 -0.16793
 H575 H 1.06703 0.50382 -0.34013
 H576 H 1.09626 0.49005 -0.40573
 H577 H 1.05540 0.51661 -0.23372
 H578 H 1.16021 0.46947 -0.29616
 H579 H 1.05989 0.47916 -0.12322
 C580 C 0.53195 0.70745 -0.33882
 C581 C 0.54520 0.69055 -0.32999
 C582 C 0.53722 0.66867 -0.27740
 C583 C 0.55653 0.65893 -0.25991
 C584 C 0.54907 0.63719 -0.21284
 C585 C 0.52183 0.62443 -0.18282
 C586 C 0.50280 0.63463 -0.19949
 C587 C 0.51026 0.65633 -0.24641
 C588 C 0.51166 0.59965 -0.13659
 C589 C 0.52435 0.58213 -0.12927
 H590 H 0.56235 0.69379 -0.36263
 H591 H 0.57743 0.66808 -0.28301
 H592 H 0.56471 0.63054 -0.20071
 H593 H 0.48165 0.62516 -0.17745
 H594 H 0.49441 0.66260 -0.25952
 H595 H 0.49131 0.59290 -0.11245
 H596 H 0.51755 0.70739 -0.30223
 H597 H 0.54432 0.58764 -0.15349
 C598 C 0.33308 -0.15637 -0.32546
 C599 C 0.32626 -0.15071 -0.26465
 C600 C 0.34950 -0.13187 -0.21964
 C601 C 0.34654 -0.11202 -0.18028
 C602 C 0.36890 -0.09389 -0.13814
 C603 C 0.39398 -0.09624 -0.13342
 C604 C 0.39648 -0.11665 -0.17147
 C605 C 0.37468 -0.13400 -0.21488
 C606 C 0.41791 -0.07813 -0.08924
 C607 C 0.43001 -0.04794 -0.08553
 H608 H 0.30392 -0.15882 -0.25121
 H609 H 0.32716 -0.11023 -0.18299
 H610 H 0.36643 -0.07847 -0.10861
 H611 H 0.41563 -0.11885 -0.16833
 H612 H 0.37730 -0.14943 -0.24402
 H613 H 0.42993 -0.08801 -0.06930
 H614 H 0.32034 -0.16842 -0.34833
 H615 H 0.41957 -0.03730 -0.10955
 C616 C 0.56656 -0.15449 0.30999
 C617 C 0.57823 -0.12430 0.31080
 C618 C 0.57644 -0.10712 0.25548
 C619 C 0.59311 -0.07661 0.25717
 C620 C 0.59014 -0.05946 0.20913
 C621 C 0.57016 -0.07252 0.15850
 C622 C 0.55447 -0.10300 0.15507
 C623 C 0.55733 -0.12016 0.20321
 C624 C 0.56347 -0.05519 0.11183
 C625 C 0.56414 -0.02955 0.13015
 H626 H 0.58891 -0.11274 0.35448
 H627 H 0.60811 -0.06595 0.29652
 H628 H 0.60319 -0.03602 0.21237
 H629 H 0.53890 -0.11359 0.11665
 H630 H 0.54361 -0.14349 0.20020
 H631 H 0.55275 -0.06537 0.06702
 H632 H 0.55890 -0.16604 0.26495
 H633 H 0.57211 -0.02076 0.17762
 C634 C 0.27203 0.44863 0.32238
 C635 C 0.30073 0.47094 0.32016
 C636 C 0.32153 0.47373 0.26989
 C637 C 0.35110 0.49042 0.28385
 C638 C 0.37169 0.49343 0.23873
 C639 C 0.36314 0.47980 0.17830
 C640 C 0.33361 0.46398 0.16321
 C641 C 0.31291 0.46079 0.20869
 C642 C 0.38478 0.48258 0.13023
 C643 C 0.41134 0.48576 0.14919
 H644 H 0.30876 0.48638 0.35951
 H645 H 0.35832 0.50103 0.33016
 H646 H 0.39429 0.50680 0.25107
 H647 H 0.32655 0.45380 0.11647
 H648 H 0.29035 0.44855 0.19527
 H649 H 0.37961 0.48177 0.07935
 H650 H 0.26284 0.43308 0.28362
 H651 H 0.41554 0.48425 0.19988
 C652 C 1.19106 0.71424 0.33879
 C653 C 1.16616 0.68711 0.34528
 C654 C 1.14792 0.67093 0.28943
 C655 C 1.11819 0.65249 0.29846
 C656 C 1.10060 0.63585 0.24741
 C657 C 1.11253 0.63699 0.18635
 C658 C 1.14232 0.65527 0.17746
 C659 C 1.15984 0.67227 0.22828
 C660 C 1.09497 0.61714 0.13377
 C661 C 1.06520 0.60599 0.12849
 H662 H 1.15962 0.67737 0.39277
 H663 H 1.10859 0.65077 0.34534
 H664 H 1.07791 0.62126 0.25671
 H665 H 1.15211 0.65607 0.13131
 H666 H 1.18284 0.68558 0.22017
 H667 H 1.10555 0.60957 0.10095
 H668 H 1.19726 0.72383 0.29110
 H669 H 1.05488 0.61504 0.15784
 C670 C 0.45713 0.15743 0.38908
 C671 C 0.47549 0.16503 0.33621
 C672 C 0.48066 0.14345 0.30301
 C673 C 0.48660 0.14668 0.23678
 C674 C 0.49155 0.12654 0.20425
 C675 C 0.49092 0.10292 0.23774
 C676 C 0.48585 0.10022 0.30435
 C677 C 0.48063 0.12019 0.33674
 C678 C 0.49718 0.08192 0.20521
 C679 C 0.49181 0.07568 0.13979
 H680 H 0.48604 0.18721 0.31810
 H681 H 0.48725 0.16474 0.21013
 H682 H 0.49652 0.12995 0.15331
 H683 H 0.48590 0.08258 0.33136
 H684 H 0.47722 0.11771 0.38836
 H685 H 0.50655 0.07130 0.23352
 H686 H 0.44639 0.13515 0.40656
 H687 H 0.48067 0.08459 0.11197
 C688 C 0.66884 0.49221 0.31990
 C689 C 0.67651 0.51386 0.27295
 C690 C 0.65412 0.51828 0.24081
 C691 C 0.65630 0.52566 0.17509
 C692 C 0.63423 0.52846 0.14436
 C693 C 0.60999 0.52442 0.17958
 C694 C 0.60882 0.51869 0.24597
 C695 C 0.63053 0.51553 0.27621
 C696 C 0.58475 0.52447 0.14958
 C697 C 0.57680 0.51774 0.08508
 H698 H 0.69904 0.52850 0.26186
 H699 H 0.67465 0.52848 0.14728
 H700 H 0.63622 0.53365 0.09339
 H701 H 0.59059 0.51581 0.27439
 H702 H 0.62878 0.51091 0.32747
 H703 H 0.56931 0.52536 0.18193
 H704 H 0.64610 0.47715 0.32798
 H705 H 0.59142 0.51659 0.05086
 C706 C 0.85512 0.30931 0.34861
 C707 C 0.86714 0.33839 0.36754
 C708 C 0.88502 0.36405 0.32622
 C709 C 0.89519 0.36180 0.26540
 C710 C 0.91238 0.38678 0.22877
 C711 C 0.92013 0.41462 0.25251
 C712 C 0.90990 0.41678 0.31313
 C713 C 0.89267 0.39180 0.34970
 C714 C 0.93732 0.44154 0.21412
 C715 C 0.95347 0.44277 0.16048
 H716 H 0.86299 0.34262 0.41628
 H717 H 0.89013 0.34096 0.24563
 H718 H 0.91892 0.38389 0.18147
 H719 H 0.91526 0.43788 0.33230
 H720 H 0.88520 0.39419 0.39652
 H721 H 0.93614 0.46078 0.22683
 H722 H 0.85603 0.30376 0.29899
 H723 H 0.95591 0.42432 0.14774
   
