data_POSCAR
  _audit_creation_date              2014-09-24
  _audit_creation_method            'ToBaCCo'
  _symmetry_space_group_name_H-M    'P1'
  _symmetry_Int_Tables_number       1
  _symmetry_cell_setting            triclinic
  loop_
  _symmetry_equiv_pos_as_xyz
 x,y,z
_cell_length_a 27.1142
_cell_length_b 25.8377
_cell_length_c 25.8365
_cell_angle_alpha 89.870100
_cell_angle_beta 90.034300
_cell_angle_gamma 89.965700
loop_
  _atom_site_label
  _atom_site_type_symbol
  _atom_site_fract_x
  _atom_site_fract_y
  _atom_site_fract_z
C1 C 0.32475 0.32091 0.23037
 H2 H 0.32683 0.32162 0.27218
 C3 C 0.35666 0.35156 0.20100
 H4 H 0.38333 0.37616 0.22016
 C5 C 0.28781 0.28764 0.15414
 H6 H 0.26147 0.26216 0.13597
 C7 C 0.31905 0.31766 0.12333
 H8 H 0.31630 0.31559 0.08155
 N9 N 0.29075 0.29030 0.20667
 C10 C 0.17398 0.26902 0.32091
 H11 H 0.17175 0.22722 0.32179
 C12 C 0.14239 0.29855 0.35168
 H13 H 0.11579 0.27951 0.37653
 C14 C 0.21105 0.34507 0.28714
 H15 H 0.23733 0.36312 0.26145
 C16 C 0.18013 0.37603 0.31727
 H17 H 0.18307 0.41779 0.31506
 Zn18 Zn 0.24923 0.24968 0.24942
 N19 N 0.20792 0.29255 0.29001
 C20 C 0.28770 0.21195 0.34486
 N21 N 0.29058 0.20893 0.29235
 C22 C 0.32447 0.17801 0.26887
 C23 C 0.35636 0.14745 0.29845
 C24 C 0.31891 0.18204 0.37588
 C25 C 0.17390 0.23074 0.17784
 C26 C 0.14205 0.20139 0.14718
 C27 C 0.17945 0.12370 0.18167
 C28 C 0.21063 0.15449 0.21169
 N29 N 0.20777 0.20702 0.20875
 H30 H 0.26147 0.23768 0.36286
 H31 H 0.32652 0.17703 0.22706
 H32 H 0.38296 0.12264 0.27946
 H33 H 0.31623 0.18443 0.41764
 H34 H 0.17187 0.27255 0.17690
 H35 H 0.11549 0.22058 0.12235
 H36 H 0.18214 0.08192 0.18397
 H37 H 0.23686 0.13630 0.23739
 C38 C 0.14568 0.35253 0.34998
 C39 C 0.35362 0.35004 0.14700
 C40 C 0.14502 0.14739 0.14899
 C41 C 0.35340 0.14939 0.35244
 C42 C 0.82571 0.82291 0.22936
 H43 H 0.82791 0.82384 0.27116
 C44 C 0.85728 0.85373 0.19974
 H45 H 0.88377 0.87863 0.21882
 C46 C 0.78880 0.78894 0.15343
 H47 H 0.76261 0.76314 0.13548
 C48 C 0.81967 0.81909 0.12234
 H49 H 0.81670 0.81670 0.08057
 N50 N 0.79188 0.79189 0.20594
 C51 C 0.67528 0.77013 0.32034
 H52 H 0.67322 0.72832 0.32118
 C53 C 0.64354 0.79947 0.35114
 H54 H 0.61703 0.78027 0.37596
 C55 C 0.71204 0.84639 0.28669
 H56 H 0.73825 0.86459 0.26104
 C57 C 0.68098 0.87717 0.31685
 H58 H 0.68374 0.91895 0.31470
 Zn59 Zn 0.75065 0.75115 0.24894
 N60 N 0.70913 0.79385 0.28949
 C61 C 0.78905 0.71352 0.34446
 N62 N 0.79216 0.71065 0.29195
 C63 C 0.82611 0.67974 0.26855
 C64 C 0.85771 0.64891 0.29821
 C65 C 0.81996 0.68335 0.37555
 C66 C 0.67531 0.73148 0.17752
 C67 C 0.64360 0.70180 0.14702
 C68 C 0.68145 0.62449 0.18185
 C69 C 0.71248 0.65560 0.21169
 N70 N 0.70934 0.70811 0.20850
 H71 H 0.76277 0.73923 0.36240
 H72 H 0.82834 0.67884 0.22675
 H73 H 0.88429 0.62402 0.27929
 H74 H 0.81702 0.68555 0.41730
 H75 H 0.67305 0.77328 0.17639
 H76 H 0.61691 0.72071 0.12213
 H77 H 0.68437 0.58274 0.18435
 H78 H 0.73880 0.63768 0.23746
 C79 C 0.64661 0.85346 0.34952
 C80 C 0.85407 0.85196 0.14571
 C81 C 0.64687 0.64782 0.14909
 C82 C 0.85440 0.65058 0.35219
 C83 C 0.82641 0.32003 0.73179
 H84 H 0.82867 0.32089 0.77358
 C85 C 0.85797 0.35085 0.70216
 H86 H 0.88456 0.37571 0.72111
 C87 C 0.78931 0.28632 0.65584
 H88 H 0.76304 0.26063 0.63787
 C89 C 0.82019 0.31649 0.62478
 H90 H 0.81722 0.31432 0.58303
 N91 N 0.79247 0.28915 0.70835
 C92 C 0.67575 0.26817 0.82275
 H93 H 0.67356 0.22638 0.82384
 C94 C 0.64400 0.29782 0.85323
 H95 H 0.61734 0.27888 0.87809
 C96 C 0.71277 0.34410 0.78866
 H97 H 0.73906 0.36206 0.76292
 C98 C 0.68170 0.37517 0.81849
 H99 H 0.68454 0.41693 0.81602
 Zn100 Zn 0.75104 0.24860 0.75131
 N101 N 0.70972 0.29159 0.79181
 C102 C 0.78938 0.21071 0.84678
 N103 N 0.79237 0.20781 0.79427
 C104 C 0.82620 0.17681 0.77080
 C105 C 0.85788 0.14598 0.80037
 C106 C 0.82035 0.18057 0.87784
 C107 C 0.67559 0.22972 0.67991
 C108 C 0.64381 0.20044 0.64911
 C109 C 0.68134 0.12268 0.68330
 C110 C 0.71245 0.15340 0.71346
 N111 N 0.70951 0.20595 0.71071
 H112 H 0.76318 0.23650 0.86475
 H113 H 0.82833 0.17592 0.72900
 H114 H 0.88436 0.12113 0.78114
 H115 H 0.81736 0.18301 0.91962
 H116 H 0.67351 0.27153 0.67911
 H117 H 0.61723 0.21967 0.62434
 H118 H 0.68412 0.08090 0.68541
 H119 H 0.73872 0.13516 0.73908
 C120 C 0.64716 0.35180 0.85120
 C121 C 0.85463 0.34922 0.64818
 C122 C 0.64689 0.14644 0.65068
 C123 C 0.85479 0.14771 0.85444
 C124 C 0.32465 0.82202 0.73104
 H125 H 0.32670 0.82298 0.77285
 C126 C 0.35651 0.85258 0.70151
 H127 H 0.38311 0.87736 0.72054
 C128 C 0.28787 0.78816 0.65498
 H129 H 0.26165 0.76247 0.63694
 C130 C 0.31907 0.81807 0.62402
 H131 H 0.31637 0.81572 0.58225
 N132 N 0.29076 0.79115 0.70750
 C133 C 0.17408 0.76965 0.82188
 H134 H 0.17207 0.72784 0.82293
 C135 C 0.14221 0.79911 0.85240
 H136 H 0.11564 0.78002 0.87724
 C137 C 0.21078 0.84578 0.78787
 H138 H 0.23700 0.86388 0.76214
 C139 C 0.17958 0.87667 0.81773
 H140 H 0.18225 0.91844 0.81531
 Zn141 Zn 0.24942 0.75048 0.75040
 N142 N 0.20794 0.79325 0.79095
 C143 C 0.28798 0.71248 0.84577
 N144 N 0.29094 0.70985 0.79323
 C145 C 0.32495 0.67921 0.76958
 C146 C 0.35683 0.64848 0.79897
 C147 C 0.31919 0.68238 0.87661
 C148 C 0.17418 0.73106 0.67882
 C149 C 0.14256 0.70148 0.64812
 C150 C 0.18029 0.62406 0.68283
 C151 C 0.21123 0.65507 0.71287
 N152 N 0.20811 0.70758 0.70983
 H153 H 0.26162 0.73797 0.86391
 H154 H 0.32704 0.67852 0.72777
 H155 H 0.38350 0.62385 0.77983
 H156 H 0.31641 0.68440 0.91838
 H157 H 0.17195 0.77286 0.67780
 H158 H 0.11596 0.72047 0.62318
 H159 H 0.18321 0.58230 0.68519
 H160 H 0.23750 0.63706 0.73866
 C161 C 0.14514 0.85311 0.85042
 C162 C 0.35354 0.85069 0.64751
 C163 C 0.14583 0.64750 0.65001
 C164 C 0.35376 0.64995 0.85297
 C165 C -0.00182 0.00046 -0.00057
 C166 C -0.00008 0.49988 0.50021
 C167 C 0.50049 0.00007 0.50012
 C168 C 0.50063 0.49978 0.00003
 C169 C 0.11304 -0.11572 -0.11808
 C170 C 0.08641 -0.08947 -0.09156
 C171 C 0.05556 -0.05856 -0.06033
 C172 C 0.02948 -0.03200 -0.03346
 C173 C 0.11395 0.38375 0.38182
 C174 C 0.08762 0.41002 0.40863
 C175 C 0.05706 0.44093 0.44016
 C176 C 0.03116 0.46747 0.46722
 C177 C 0.61476 -0.11552 0.38144
 C178 C 0.58834 -0.08942 0.40833
 C179 C 0.55769 -0.05870 0.43995
 C180 C 0.53174 -0.03228 0.46707
 C181 C 0.61519 0.38316 -0.11734
 C182 C 0.58868 0.40956 -0.09086
 C183 C 0.55793 0.44063 -0.05968
 C184 C 0.53191 0.46728 -0.03284
 C185 C -0.11627 0.11878 -0.11712
 C186 C -0.08980 0.09199 -0.09077
 C187 C -0.05910 0.06050 -0.05976
 C188 C -0.03311 0.03347 -0.03312
 C189 C -0.11395 0.61862 0.38356
 C190 C -0.08770 0.59171 0.40999
 C191 C -0.05723 0.56007 0.44106
 C192 C -0.03136 0.53294 0.46772
 C193 C 0.38554 0.11790 0.38374
 C194 C 0.41220 0.09137 0.41009
 C195 C 0.44309 0.06010 0.44108
 C196 C 0.46919 0.03315 0.46768
 C197 C 0.38583 0.61816 -0.11596
 C198 C 0.41244 0.59137 -0.08981
 C199 C 0.44328 0.55985 -0.05903
 C200 C 0.46935 0.53279 -0.03251
 C201 C -0.11589 -0.11790 0.11604
 C202 C -0.08954 -0.09110 0.08966
 C203 C -0.05896 -0.05960 0.05862
 C204 C -0.03305 -0.03255 0.03197
 C205 C -0.11375 0.38117 0.61684
 C206 C -0.08752 0.40807 0.59044
 C207 C -0.05709 0.43969 0.55938
 C208 C -0.03127 0.46681 0.53272
 C209 C 0.38564 -0.11779 0.61628
 C210 C 0.41228 -0.09124 0.59000
 C211 C 0.44314 -0.05994 0.55908
 C212 C 0.46921 -0.03298 0.53254
 C213 C 0.38573 0.38173 0.11595
 C214 C 0.41238 0.40842 0.08981
 C215 C 0.44325 0.43983 0.05902
 C216 C 0.46933 0.46682 0.03251
 C217 C 0.11295 0.11634 0.11733
 C218 C 0.08635 0.09019 0.09068
 C219 C 0.05552 0.05939 0.05932
 C220 C 0.02947 0.03289 0.03237
 C221 C 0.11406 0.61622 0.61828
 C222 C 0.08770 0.58987 0.59157
 C223 C 0.05711 0.55889 0.56015
 C224 C 0.03118 0.53230 0.53316
 C225 C 0.61498 0.11548 0.61879
 C226 C 0.58849 0.08943 0.59191
 C227 C 0.55777 0.05877 0.56030
 C228 C 0.53177 0.03239 0.53318
 C229 C 0.61497 0.61643 0.11760
 C230 C 0.58852 0.58999 0.09107
 C231 C 0.55784 0.55891 0.05984
 C232 C 0.53188 0.53226 0.03295
   
