data_POSCAR
  _audit_creation_date              2014-09-24
  _audit_creation_method            'ToBaCCo'
  _symmetry_space_group_name_H-M    'P1'
  _symmetry_Int_Tables_number       1
  _symmetry_cell_setting            triclinic
  loop_
  _symmetry_equiv_pos_as_xyz
 x,y,z
_cell_length_a 47.6430
_cell_length_b 26.8425
_cell_length_c 18.8942
_cell_angle_alpha 89.957800
_cell_angle_beta 89.891300
_cell_angle_gamma 90.032800
loop_
  _atom_site_label
  _atom_site_type_symbol
  _atom_site_fract_x
  _atom_site_fract_y
  _atom_site_fract_z
O1 O 0.71424 0.23297 0.43271
 O2 O 0.76339 0.19056 0.57050
 O3 O 0.71403 0.23382 0.56941
 O4 O 0.76344 0.18989 0.43250
 O5 O 0.78414 0.26351 0.43282
 O6 O 0.73508 0.30692 0.56969
 O7 O 0.78424 0.26400 0.56840
 O8 O 0.73494 0.30651 0.43147
 Cu9 Cu 0.73673 0.20439 0.50143
 Cu10 Cu 0.76151 0.29274 0.50051
 C11 C 0.71600 0.27717 0.40908
 C12 C 0.78260 0.21976 0.59187
 C13 C 0.71588 0.27817 0.59255
 C14 C 0.78255 0.21905 0.41030
 O15 O 0.23422 0.80511 0.56863
 O16 O 0.28343 0.76103 0.43258
 O17 O 0.23429 0.80398 0.43032
 O18 O 0.28337 0.76212 0.56812
 O19 O 0.26254 0.68867 0.57070
 O20 O 0.21350 0.73050 0.43247
 O21 O 0.26270 0.68744 0.43269
 O22 O 0.21320 0.73199 0.56910
 Cu23 Cu 0.26074 0.79057 0.49980
 Cu24 Cu 0.23594 0.70222 0.50145
 C25 C 0.21502 0.77646 0.59176
 C26 C 0.28184 0.71651 0.41036
 C27 C 0.21534 0.77453 0.40827
 C28 C 0.28172 0.71797 0.59193
 O29 O 0.23579 0.19231 -0.57124
 O30 O 0.28472 0.23670 -0.43482
 O31 O 0.23576 0.19303 -0.43284
 O32 O 0.28482 0.23652 -0.57073
 O33 O 0.26333 0.30916 -0.57287
 O34 O 0.21484 0.26635 -0.43399
 O35 O 0.26384 0.31007 -0.43515
 O36 O 0.21434 0.26499 -0.57049
 Cu37 Cu 0.26224 0.20718 -0.50243
 Cu38 Cu 0.23702 0.29499 -0.50325
 C39 C 0.21636 0.22067 -0.59364
 C40 C 0.28301 0.28123 -0.41261
 C41 C 0.21676 0.22223 -0.41025
 C42 C 0.28284 0.28068 -0.59459
 O43 O -0.21583 0.73897 -0.43329
 O44 O -0.26470 0.69540 -0.57049
 O45 O -0.21555 0.73926 -0.56931
 O46 O -0.26486 0.69551 -0.43218
 O47 O -0.28576 0.76885 -0.43314
 O48 O -0.23668 0.81226 -0.57045
 O49 O -0.28572 0.76861 -0.56972
 O50 O -0.23668 0.81236 -0.43274
 Cu51 Cu -0.23826 0.70981 -0.50138
 Cu52 Cu -0.26326 0.79790 -0.50155
 C53 C -0.21758 0.78333 -0.41042
 C54 C -0.28380 0.72435 -0.59295
 C55 C -0.21731 0.78362 -0.59255
 C56 C -0.28391 0.72463 -0.40971
 O57 O -0.03898 0.91245 0.12830
 O58 O -0.06976 0.95905 0.06258
 C59 C -0.06415 0.92629 0.11106
 O60 O 0.04016 1.09011 0.12384
 O61 O 0.07097 1.04177 0.06056
 C62 C 0.06537 1.07626 0.10652
 O63 O -0.03836 1.08662 0.13016
 O64 O -0.06957 1.04256 0.06247
 C65 C -0.06371 1.07440 0.11195
 O66 O 0.03928 0.90704 0.12094
 O67 O 0.07052 0.95529 0.05897
 C68 C 0.06463 0.92018 0.10385
 Zr69 Zr 0.00028 0.93632 0.08790
 O70 O 0.00298 0.93336 0.19964
 O71 O -0.00135 0.85786 0.07934
 Zr72 Zr 0.00076 1.06220 0.09023
 O73 O 0.00382 1.06019 0.20201
 O74 O -0.00203 1.14090 0.09208
 O75 O -0.02456 0.99946 0.10308
 O76 O 0.02491 0.99885 0.10214
 O77 O 0.03945 0.90841 -0.12309
 O78 O 0.07060 0.95660 -0.06071
 C79 C 0.06476 0.92194 -0.10624
 O80 O -0.03812 1.08825 -0.12835
 O81 O -0.06940 1.04315 -0.06187
 C82 C -0.06348 1.07555 -0.11068
 O83 O 0.04041 1.09146 -0.12100
 O84 O 0.07128 1.04282 -0.05868
 C85 C 0.06567 1.07791 -0.10378
 O86 O -0.03925 0.91456 -0.12899
 O87 O -0.07024 0.95988 -0.06166
 C88 C -0.06453 0.92769 -0.11089
 Zr89 Zr 0.00031 0.93786 -0.09003
 O90 O 0.00342 0.93968 -0.20182
 O91 O -0.00258 0.85921 -0.09185
 Zr92 Zr 0.00089 1.06359 -0.08815
 O93 O 0.00414 1.06454 -0.19990
 O94 O -0.00197 1.14231 -0.08650
 Zr95 Zr -0.04147 1.00058 0.00001
 Zr96 Zr 0.04250 0.99964 -0.00007
 O97 O 0.02503 1.00053 -0.10227
 O98 O -0.02447 1.00113 -0.10314
 O99 O 0.02543 0.92724 -0.00119
 O100 O -0.02362 1.07232 0.00114
 O101 O -0.02435 0.92835 -0.00104
 O102 O 0.02598 1.07250 0.00115
 H103 H 0.03748 0.99825 0.14385
 H104 H -0.03613 1.10179 0.00138
 H105 H 0.03771 1.00065 -0.14390
 H106 H -0.03714 0.89923 -0.00124
 H107 H 0.01329 1.15408 0.06207
 H108 H 0.01403 1.15503 -0.05854
 H109 H -0.01119 1.04355 -0.21872
 H110 H -0.01300 0.95825 -0.21994
 H111 H 0.00987 0.84647 -0.05409
 H112 H -0.00133 0.84484 0.12843
 H113 H -0.01123 0.95663 0.21867
 H114 H -0.01261 1.04158 0.22018
 O115 O 0.46107 0.41167 0.12774
 O116 O 0.43008 0.45759 0.06164
 C117 C 0.43583 0.42504 0.11029
 O118 O 0.53951 0.59011 0.12271
 O119 O 0.57068 0.54254 0.05945
 C120 C 0.56485 0.57699 0.10530
 O121 O 0.46095 0.58564 0.12900
 O122 O 0.42988 0.54103 0.06156
 C123 C 0.43564 0.57303 0.11092
 O124 O 0.53947 0.40766 0.12102
 O125 O 0.57052 0.45632 0.05893
 C126 C 0.56477 0.42131 0.10410
 Zr127 Zr 0.50027 0.43610 0.08751
 O128 O 0.50285 0.43336 0.19928
 O129 O 0.49907 0.35760 0.07927
 Zr130 Zr 0.50020 0.56192 0.08903
 O131 O 0.50320 0.56091 0.20083
 O132 O 0.49702 0.64060 0.08996
 O133 O 0.47515 0.49888 0.10227
 O134 O 0.52460 0.49903 0.10153
 O135 O 0.53981 0.40828 -0.12310
 O136 O 0.57066 0.45711 -0.06080
 C137 C 0.56504 0.42224 -0.10615
 O138 O 0.46118 0.58703 -0.12911
 O139 O 0.43006 0.54158 -0.06259
 C140 C 0.43586 0.57406 -0.11137
 O141 O 0.53954 0.59170 -0.12237
 O142 O 0.57060 0.54374 -0.05975
 C143 C 0.56485 0.57862 -0.10504
 O144 O 0.46137 0.41290 -0.13043
 O145 O 0.43015 0.45802 -0.06375
 C146 C 0.43603 0.42587 -0.11287
 Zr147 Zr 0.50050 0.43709 -0.09030
 O148 O 0.50378 0.43833 -0.20207
 O149 O 0.49795 0.35837 -0.09075
 Zr150 Zr 0.50034 0.56282 -0.08927
 O151 O 0.50361 0.56264 -0.20106
 O152 O 0.49712 0.64149 -0.08896
 Zr153 Zr 0.45822 0.49947 -0.00079
 Zr154 Zr 0.54229 0.49986 -0.00057
 O155 O 0.52488 0.50014 -0.10283
 O156 O 0.47532 0.49992 -0.10386
 O157 O 0.52560 0.42717 -0.00131
 O158 O 0.47578 0.57144 -0.00007
 O159 O 0.47573 0.42752 -0.00147
 O160 O 0.52537 0.57241 0.00003
 H161 H 0.53713 0.49879 0.14333
 H162 H 0.46315 0.60076 0.00014
 H163 H 0.53759 0.50037 -0.14440
 H164 H 0.46306 0.39822 -0.00172
 H165 H 0.51275 0.65395 0.06145
 H166 H 0.51248 0.65454 -0.05908
 H167 H 0.48767 0.54305 -0.21971
 H168 H 0.48775 0.45783 -0.22041
 H169 H 0.51093 0.34603 -0.05386
 H170 H 0.49915 0.34469 0.12842
 H171 H 0.48847 0.45637 0.21813
 H172 H 0.48721 0.54121 0.21913
 C173 C 0.34524 0.33794 0.26955
 C174 C 0.34829 0.28984 0.29762
 C175 C 0.32686 0.27003 0.34017
 C176 C 0.30283 0.29863 0.35682
 C177 C 0.30006 0.34669 0.32705
 C178 C 0.32110 0.36633 0.28315
 C179 C 0.36808 0.35949 0.22650
 C180 C 0.36500 0.40757 0.19827
 C181 C 0.38697 0.42823 0.15842
 C182 C 0.41216 0.40176 0.14856
 C183 C 0.41491 0.35354 0.17716
 C184 C 0.39279 0.33202 0.21564
 C185 C 0.31873 0.41423 0.25368
 C186 C 0.34025 0.43436 0.21163
 C187 C 0.37304 0.26299 0.28413
 C188 C 0.39499 0.28383 0.24417
 H189 H 0.30017 0.43648 0.26357
 H190 H 0.33765 0.47147 0.19026
 H191 H 0.37567 0.22584 0.30557
 H192 H 0.41389 0.26215 0.23590
 H193 H 0.32950 0.23311 0.36250
 H194 H 0.28173 0.36920 0.33862
 H195 H 0.38480 0.46540 0.13692
 H196 H 0.43418 0.33280 0.16928
 C197 C -0.15483 0.84044 0.27137
 C198 C -0.15203 0.79212 0.29885
 C199 C -0.17346 0.77254 0.34161
 C200 C -0.19725 0.80155 0.35900
 C201 C -0.19976 0.84985 0.32989
 C202 C -0.17871 0.86929 0.28581
 C203 C -0.13199 0.86169 0.22800
 C204 C -0.13482 0.90999 0.20035
 C205 C -0.11285 0.93035 0.16018
 C206 C -0.08789 0.90334 0.14946
 C207 C -0.08540 0.85491 0.17748
 C208 C -0.10753 0.83371 0.21626
 C209 C -0.18084 0.91740 0.25692
 C210 C -0.15932 0.93728 0.21461
 C211 C -0.12752 0.76478 0.28451
 C212 C -0.10557 0.78533 0.24424
 H213 H -0.19920 0.94002 0.26747
 H214 H -0.16172 0.97457 0.19373
 H215 H -0.12508 0.72746 0.30549
 H216 H -0.08687 0.76327 0.23529
 H217 H -0.17101 0.73543 0.36342
 H218 H -0.21791 0.87268 0.34204
 H219 H -0.11480 0.96769 0.13917
 H220 H -0.06631 0.83378 0.16894
 C221 C 0.65393 0.66722 0.26570
 C222 C 0.64853 0.71106 0.30385
 C223 C 0.66944 0.73056 0.34794
 C224 C 0.69537 0.70591 0.35533
 C225 C 0.70057 0.66227 0.31602
 C226 C 0.67993 0.64289 0.27078
 C227 C 0.63164 0.64563 0.22115
 C228 C 0.63691 0.60155 0.18344
 C229 C 0.61530 0.58021 0.14317
 C230 C 0.58840 0.60206 0.14190
 C231 C 0.58370 0.64682 0.17903
 C232 C 0.60525 0.66881 0.21857
 C233 C 0.68457 0.59923 0.23145
 C234 C 0.66347 0.57909 0.18821
 C235 C 0.62208 0.73386 0.29849
 C236 C 0.60077 0.71299 0.25677
 H237 H 0.70459 0.58024 0.23454
 H238 H 0.66788 0.54530 0.15901
 H239 H 0.61767 0.76771 0.32766
 H240 H 0.58053 0.73133 0.25497
 H241 H 0.66516 0.76394 0.37837
 H242 H 0.72050 0.64318 0.32117
 H243 H 0.61916 0.54579 0.11487
 H244 H 0.56318 0.66424 0.17796
 C245 C 0.15508 1.16364 0.26752
 C246 C 0.15190 1.21181 0.29518
 C247 C 0.17289 1.23139 0.33911
 C248 C 0.19662 1.20256 0.35740
 C249 C 0.19951 1.15437 0.32817
 C250 C 0.17891 1.13493 0.28298
 C251 C 0.13268 1.14233 0.22299
 C252 C 0.13584 1.09409 0.19545
 C253 C 0.11416 1.07346 0.15479
 C254 C 0.08913 1.10016 0.14345
 C255 C 0.08639 1.14868 0.17098
 C256 C 0.10823 1.17011 0.21035
 C257 C 0.18142 1.08694 0.25394
 C258 C 0.16032 1.06699 0.21064
 C259 C 0.12745 1.23899 0.27978
 C260 C 0.10592 1.21839 0.23842
 H261 H 0.19975 1.06445 0.26523
 H262 H 0.16299 1.02976 0.18980
 H263 H 0.12472 1.27621 0.30084
 H264 H 0.08722 1.24030 0.22879
 H265 H 0.17015 1.26842 0.36095
 H266 H 0.21762 1.13167 0.34098
 H267 H 0.11632 1.03597 0.13432
 H268 H 0.06724 1.16954 0.16211
 C269 C 0.65475 0.33464 -0.26736
 C270 C 0.65155 0.28649 -0.29509
 C271 C 0.67251 0.26701 -0.33938
 C272 C 0.69620 0.29598 -0.35798
 C273 C 0.69911 0.34411 -0.32861
 C274 C 0.67857 0.36342 -0.28306
 C275 C 0.63237 0.35590 -0.22260
 C276 C 0.63555 0.40414 -0.19507
 C277 C 0.61387 0.42478 -0.15434
 C278 C 0.58880 0.39812 -0.14291
 C279 C 0.58604 0.34958 -0.17034
 C280 C 0.60788 0.32812 -0.20981
 C281 C 0.68112 0.41137 -0.25397
 C282 C 0.66004 0.43126 -0.21042
 C283 C 0.62709 0.25928 -0.27947
 C284 C 0.60556 0.27985 -0.23789
 H285 H 0.69945 0.43389 -0.26543
 H286 H 0.66272 0.46848 -0.18955
 H287 H 0.62435 0.22207 -0.30057
 H288 H 0.58684 0.25793 -0.22815
 H289 H 0.66978 0.23002 -0.36134
 H290 H 0.71720 0.36689 -0.34161
 H291 H 0.61605 0.46229 -0.13396
 H292 H 0.56685 0.32876 -0.16141
 C293 C 0.15402 0.83362 -0.26831
 C294 C 0.15072 0.78543 -0.29582
 C295 C 0.17162 0.76573 -0.34011
 C296 C 0.19534 0.79453 -0.35894
 C297 C 0.19834 0.84273 -0.32986
 C298 C 0.17787 0.86224 -0.28429
 C299 C 0.13173 0.85507 -0.22343
 C300 C 0.13504 0.90332 -0.19605
 C301 C 0.11347 0.92412 -0.15511
 C302 C 0.08838 0.89763 -0.14332
 C303 C 0.08547 0.84909 -0.17067
 C304 C 0.10722 0.82746 -0.21032
 C305 C 0.18053 0.91023 -0.25540
 C306 C 0.15954 0.93030 -0.21172
 C307 C 0.12622 0.75839 -0.27992
 C308 C 0.10477 0.77915 -0.23826
 H309 H 0.19889 0.93265 -0.26709
 H310 H 0.16231 0.96753 -0.19100
 H311 H 0.12339 0.72116 -0.30086
 H312 H 0.08603 0.75734 -0.22828
 H313 H 0.16882 0.72869 -0.36186
 H314 H 0.21646 0.86539 -0.34304
 H315 H 0.11576 0.96163 -0.13482
 H316 H 0.06625 0.82840 -0.16149
 C317 C 0.34572 0.66188 -0.27121
 C318 C 0.31892 0.64007 -0.26919
 C319 C 0.29771 0.65904 -0.31315
 C320 C 0.30314 0.70003 -0.35775
 C321 C 0.32991 0.72229 -0.35742
 C322 C 0.35138 0.70296 -0.31500
 C323 C 0.36848 0.64060 -0.22790
 C324 C 0.39552 0.66116 -0.23228
 C325 C 0.41734 0.63960 -0.19327
 C326 C 0.41228 0.59797 -0.14952
 C327 C 0.38479 0.57879 -0.14409
 C328 C 0.36288 0.59960 -0.18391
 C329 C 0.37857 0.72320 -0.31675
 C330 C 0.40031 0.70251 -0.27631
 C331 C 0.31404 0.59937 -0.22397
 C332 C 0.33558 0.57977 -0.18161
 H333 H 0.38318 0.75487 -0.35041
 H334 H 0.42107 0.71882 -0.27990
 H335 H 0.29342 0.58240 -0.22147
 H336 H 0.33090 0.54850 -0.14733
 H337 H 0.27712 0.64183 -0.31304
 H338 H 0.33434 0.75349 -0.39217
 H339 H 0.43829 0.65513 -0.19738
 H340 H 0.38056 0.54711 -0.11020
 C341 C -0.15343 1.16339 -0.27131
 C342 C -0.18024 1.14162 -0.26941
 C343 C -0.20142 1.16062 -0.31343
 C344 C -0.19596 1.20163 -0.35796
 C345 C -0.16916 1.22382 -0.35758
 C346 C -0.14772 1.20445 -0.31510
 C347 C -0.13071 1.14211 -0.22783
 C348 C -0.10365 1.16265 -0.23206
 C349 C -0.08187 1.14110 -0.19284
 C350 C -0.08700 1.09953 -0.14902
 C351 C -0.11450 1.08038 -0.14378
 C352 C -0.13637 1.10116 -0.18381
 C353 C -0.12052 1.22464 -0.31673
 C354 C -0.09882 1.20395 -0.27614
 C355 C -0.18517 1.10093 -0.22418
 C356 C -0.16367 1.08134 -0.18167
 H357 H -0.11586 1.25630 -0.35039
 H358 H -0.07805 1.22024 -0.27963
 H359 H -0.20580 1.08399 -0.22176
 H360 H -0.16838 1.05010 -0.14739
 H361 H -0.22202 1.14347 -0.31334
 H362 H -0.16470 1.25504 -0.39229
 H363 H -0.06091 1.15659 -0.19683
 H364 H -0.11879 1.04874 -0.10987
 C365 C 0.65383 0.66887 -0.26670
 C366 C 0.64790 0.71075 -0.30863
 C367 C 0.66879 0.72982 -0.35334
 C368 C 0.69522 0.70656 -0.35772
 C369 C 0.70095 0.66484 -0.31480
 C370 C 0.68034 0.64606 -0.26869
 C371 C 0.63159 0.64766 -0.22138
 C372 C 0.63739 0.60558 -0.17973
 C373 C 0.61579 0.58431 -0.13903
 C374 C 0.58841 0.60418 -0.14129
 C375 C 0.58325 0.64725 -0.18198
 C376 C 0.60474 0.66914 -0.22201
 C377 C 0.68552 0.60452 -0.22531
 C378 C 0.66448 0.58489 -0.18115
 C379 C 0.62098 0.73202 -0.30631
 C380 C 0.59973 0.71144 -0.26394
 H381 H 0.70596 0.58682 -0.22582
 H382 H 0.66935 0.55286 -0.14857
 H383 H 0.61617 0.76436 -0.33841
 H384 H 0.57911 0.72846 -0.26460
 H385 H 0.66413 0.76169 -0.38659
 H386 H 0.72130 0.64692 -0.31763
 H387 H 0.62010 0.55142 -0.10764
 H388 H 0.56238 0.66329 -0.18360
 C389 C 0.15472 1.16724 -0.26607
 C390 C 0.18113 1.14407 -0.26855
 C391 C 0.20169 1.16259 -0.31503
 C392 C 0.19601 1.20439 -0.35782
 C393 C 0.16969 1.22801 -0.35291
 C394 C 0.14886 1.20923 -0.30784
 C395 C 0.13251 1.14630 -0.22044
 C396 C 0.10575 1.16814 -0.22063
 C397 C 0.08426 1.14648 -0.18041
 C398 C 0.08931 1.10324 -0.13999
 C399 C 0.11662 1.08302 -0.13808
 C400 C 0.13822 1.10409 -0.17898
 C401 C 0.12205 1.23088 -0.30504
 C402 C 0.10082 1.21056 -0.26237
 C403 C 0.18625 1.10244 -0.22528
 C404 C 0.16523 1.08307 -0.18081
 H405 H 0.11730 1.26332 -0.33700
 H406 H 0.08027 1.22786 -0.26267
 H407 H 0.20660 1.08447 -0.22614
 H408 H 0.17005 1.05096 -0.14833
 H409 H 0.22195 1.14439 -0.31826
 H410 H 0.16507 1.25996 -0.38603
 H411 H 0.06346 1.16280 -0.18173
 H412 H 0.12084 1.05003 -0.10684
 C413 C 0.34642 0.33871 -0.27499
 C414 C 0.32032 0.36290 -0.27838
 C415 C 0.29931 0.34356 -0.32258
 C416 C 0.30423 0.30000 -0.36229
 C417 C 0.33030 0.27559 -0.35670
 C418 C 0.35158 0.29509 -0.31382
 C419 C 0.36901 0.36005 -0.23117
 C420 C 0.39541 0.33688 -0.23006
 C421 C 0.41713 0.35831 -0.19052
 C422 C 0.41254 0.40234 -0.15161
 C423 C 0.38567 0.42432 -0.15176
 C424 C 0.36391 0.40364 -0.19222
 C425 C 0.37810 0.27241 -0.31019
 C426 C 0.39969 0.29308 -0.26923
 C427 C 0.31594 0.40627 -0.23824
 C428 C 0.33731 0.42610 -0.19554
 H429 H 0.38232 0.23875 -0.33998
 H430 H 0.41995 0.27477 -0.26857
 H431 H 0.29587 0.42518 -0.24005
 H432 H 0.33306 0.45956 -0.16548
 H433 H 0.27928 0.36248 -0.32644
 H434 H 0.33438 0.24232 -0.38756
 H435 H 0.43761 0.34076 -0.19024
 H436 H 0.38189 0.45808 -0.12193
 C437 C -0.15431 0.84026 -0.27200
 C438 C -0.14913 0.79677 -0.31110
 C439 C -0.17037 0.77736 -0.35413
 C440 C -0.19644 0.80176 -0.35961
 C441 C -0.20142 0.84512 -0.31952
 C442 C -0.18044 0.86437 -0.27518
 C443 C -0.13172 0.86160 -0.22821
 C444 C -0.13683 0.90512 -0.18909
 C445 C -0.11503 0.92590 -0.14884
 C446 C -0.08813 0.90408 -0.14913
 C447 C -0.08355 0.86007 -0.18810
 C448 C -0.10529 0.83856 -0.22742
 C449 C -0.18486 0.90761 -0.23477
 C450 C -0.16348 0.92744 -0.19210
 C451 C -0.12258 0.77417 -0.30769
 C452 C -0.10098 0.79484 -0.26676
 H453 H -0.20495 0.92644 -0.23640
 H454 H -0.16775 0.96081 -0.16185
 H455 H -0.11834 0.74061 -0.33768
 H456 H -0.08069 0.77663 -0.26631
 H457 H -0.16626 0.74424 -0.38527
 H458 H -0.22146 0.86402 -0.32330
 H459 H -0.11881 0.95960 -0.11889
 H460 H -0.06304 0.84260 -0.18811
 C461 C 0.34585 0.66020 0.27339
 C462 C 0.31862 0.64038 0.26855
 C463 C 0.29744 0.65908 0.31306
 C464 C 0.30334 0.69807 0.36062
 C465 C 0.33057 0.71835 0.36323
 C466 C 0.35199 0.69909 0.32053
 C467 C 0.36851 0.63920 0.22934
 C468 C 0.39591 0.65768 0.23656
 C469 C 0.41759 0.63629 0.19685
 C470 C 0.41210 0.59691 0.14951
 C471 C 0.38426 0.58003 0.14102
 C472 C 0.36243 0.60061 0.18164
 C473 C 0.37956 0.71733 0.32509
 C474 C 0.40119 0.69679 0.28405
 C475 C 0.31326 0.60206 0.21972
 C476 C 0.33473 0.58289 0.17648
 H477 H 0.38453 0.74730 0.36136
 H478 H 0.42225 0.71147 0.28983
 H479 H 0.29232 0.58670 0.21493
 H480 H 0.32966 0.55356 0.13930
 H481 H 0.27646 0.64349 0.31073
 H482 H 0.33531 0.74798 0.40033
 H483 H 0.43880 0.65019 0.20333
 H484 H 0.37964 0.55037 0.10401
 C485 C -0.15345 1.16257 0.27349
 C486 C -0.18072 1.14299 0.26840
 C487 C -0.20191 1.16183 0.31276
 C488 C -0.19596 1.20074 0.36043
 C489 C -0.16869 1.22083 0.36323
 C490 C -0.14726 1.20141 0.32069
 C491 C -0.13078 1.14133 0.22968
 C492 C -0.10333 1.15953 0.23719
 C493 C -0.08164 1.13789 0.19775
 C494 C -0.08720 1.09856 0.15037
 C495 C -0.11508 1.08198 0.14160
 C496 C -0.13691 1.10278 0.18196
 C497 C -0.11964 1.21939 0.32551
 C498 C -0.09801 1.19861 0.28472
 C499 C -0.18612 1.10469 0.21956
 C500 C -0.16464 1.08532 0.17654
 H501 H -0.11464 1.24931 0.36183
 H502 H -0.07691 1.21308 0.29072
 H503 H -0.20710 1.08952 0.21460
 H504 H -0.16973 1.05599 0.13937
 H505 H -0.22291 1.14638 0.31029
 H506 H -0.16392 1.25038 0.40044
 H507 H -0.06040 1.15154 0.20444
 H508 H -0.11974 1.05236 0.10455
 C509 C 0.65388 0.33269 0.26603
 C510 C 0.67971 0.35760 0.27161
 C511 C 0.70029 0.33875 0.31743
 C512 C 0.69522 0.29507 0.35688
 C513 C 0.66948 0.26984 0.34899
 C514 C 0.64861 0.28880 0.30428
 C515 C 0.63162 0.35375 0.22086
 C516 C 0.60539 0.33001 0.21780
 C517 C 0.58383 0.35156 0.17779
 C518 C 0.58837 0.39644 0.14071
 C519 C 0.61515 0.41881 0.14241
 C520 C 0.63675 0.39791 0.18313
 C521 C 0.62233 0.26541 0.29839
 C522 C 0.60104 0.28577 0.25608
 C523 C 0.68421 0.40132 0.23220
 C524 C 0.66315 0.42096 0.18841
 H525 H 0.61802 0.23151 0.32763
 H526 H 0.58092 0.26701 0.25392
 H527 H 0.70410 0.42075 0.23567
 H528 H 0.66744 0.45483 0.15920
 H529 H 0.72008 0.35829 0.32294
 H530 H 0.66529 0.23641 0.37949
 H531 H 0.56340 0.33377 0.17643
 H532 H 0.61889 0.45333 0.11420
 C533 C 0.15337 0.82960 0.26477
 C534 C 0.14735 0.78780 0.30688
 C535 C 0.16817 0.76882 0.35165
 C536 C 0.19461 0.79213 0.35590
 C537 C 0.20043 0.83368 0.31268
 C538 C 0.17990 0.85238 0.26656
 C539 C 0.13118 0.85082 0.21958
 C540 C 0.13707 0.89288 0.17787
 C541 C 0.11552 0.91421 0.13737
 C542 C 0.08811 0.89446 0.13989
 C543 C 0.08285 0.85141 0.18062
 C544 C 0.10429 0.82944 0.22046
 C545 C 0.18517 0.89386 0.22308
 C546 C 0.16418 0.91350 0.17905
 C547 C 0.12041 0.76659 0.30478
 C548 C 0.09920 0.78719 0.26250
 H549 H 0.20562 0.91152 0.22346
 H550 H 0.16910 0.94553 0.14644
 H551 H 0.11553 0.73431 0.33701
 H552 H 0.07856 0.77024 0.26335
 H553 H 0.16345 0.73707 0.38513
 H554 H 0.22079 0.85163 0.31541
 H555 H 0.11990 0.94708 0.10594
 H556 H 0.06194 0.83549 0.18246
   
