data_POSCAR
  _audit_creation_date              2014-09-24
  _audit_creation_method            'ToBaCCo'
  _symmetry_space_group_name_H-M    'P1'
  _symmetry_Int_Tables_number       1
  _symmetry_cell_setting            triclinic
  loop_
  _symmetry_equiv_pos_as_xyz
 x,y,z
_cell_length_a 41.8041
_cell_length_b 41.7879
_cell_length_c 41.3869
_cell_angle_alpha 89.989400
_cell_angle_beta 89.990500
_cell_angle_gamma 90.792200
loop_
  _atom_site_label
  _atom_site_type_symbol
  _atom_site_fract_x
  _atom_site_fract_y
  _atom_site_fract_z
C1 C -0.06628 0.32397 0.02975
 C2 C -0.08200 0.32693 -0.00011
 C3 C -0.06585 0.32483 -0.02982
 C4 C -0.03180 0.32395 -0.02961
 C5 C -0.01507 0.32223 0.00022
 C6 C -0.03221 0.32296 0.02994
 C7 C -0.01454 0.32547 0.05883
 C8 C 0.01857 0.32378 0.05897
 C9 C 0.03583 0.32038 0.03016
 C10 C 0.01908 0.32076 0.00036
 C11 C -0.01378 0.32780 -0.05810
 C12 C 0.01936 0.32607 -0.05795
 C13 C 0.03641 0.32063 -0.02925
 C14 C 0.07044 0.31811 -0.02891
 C15 C 0.08621 0.31850 0.00110
 C16 C 0.06957 0.31867 0.03036
 H17 H -0.02573 0.33040 0.08175
 H18 H 0.03053 0.32646 0.08199
 H19 H -0.02478 0.33396 -0.08082
 H20 H 0.03131 0.33093 -0.08057
 H21 H -0.10792 0.32724 -0.00028
 H22 H 0.11199 0.31615 0.00203
 C23 C 0.43056 0.82026 0.52887
 C24 C 0.41417 0.82003 0.49939
 C25 C 0.43039 0.82014 0.46980
 C26 C 0.46427 0.82191 0.46953
 C27 C 0.48133 0.82225 0.49918
 C28 C 0.46444 0.82201 0.52894
 C29 C 0.48188 0.82451 0.55789
 C30 C 0.51515 0.82492 0.55779
 C31 C 0.53243 0.82286 0.52875
 C32 C 0.51538 0.82269 0.49909
 C33 C 0.48156 0.82432 0.44047
 C34 C 0.51483 0.82477 0.44038
 C35 C 0.53227 0.82281 0.46933
 C36 C 0.56615 0.82196 0.46941
 C37 C 0.58253 0.82222 0.49890
 C38 C 0.56630 0.82197 0.52848
 H39 H 0.47006 0.82679 0.58099
 H40 H 0.52710 0.82747 0.58082
 H41 H 0.46961 0.82652 0.41744
 H42 H 0.52666 0.82727 0.41727
 H43 H 0.38829 0.81773 0.49948
 H44 H 0.60841 0.82061 0.49883
 C45 C 0.93084 0.68378 -0.03027
 C46 C 0.91457 0.68481 -0.00078
 C47 C 0.93077 0.68345 0.02872
 C48 C 0.96443 0.68002 0.02890
 C49 C 0.98149 0.67927 -0.00073
 C50 C 0.96452 0.68039 -0.03040
 C51 C 0.98146 0.67632 -0.05930
 C52 C 1.01452 0.67344 -0.05930
 C53 C 1.03242 0.67552 -0.03048
 C54 C 1.01552 0.67685 -0.00070
 C55 C 0.98128 0.67557 0.05779
 C56 C 1.01433 0.67268 0.05785
 C57 C 1.03233 0.67514 0.02913
 C58 C 1.06635 0.67342 0.02916
 C59 C 1.08225 0.67053 -0.00063
 C60 C 1.06644 0.67378 -0.03043
 H61 H 0.96928 0.67419 -0.08226
 H62 H 1.02546 0.66813 -0.08225
 H63 H 0.96902 0.67314 0.08068
 H64 H 1.02519 0.66706 0.08077
 H65 H 0.88888 0.68819 -0.00079
 H66 H 1.10814 0.66957 -0.00061
 C67 C 0.43328 0.17791 0.47119
 C68 C 0.41697 0.17762 0.50072
 C69 C 0.43325 0.17791 0.53027
 C70 C 0.46713 0.17714 0.53046
 C71 C 0.48412 0.17732 0.50075
 C72 C 0.46716 0.17713 0.47103
 C73 C 0.48454 0.17516 0.44204
 C74 C 0.51781 0.17565 0.44204
 C75 C 0.53516 0.17812 0.47104
 C76 C 0.51818 0.17781 0.50075
 C77 C 0.48449 0.17520 0.55946
 C78 C 0.51777 0.17566 0.55946
 C79 C 0.53514 0.17809 0.53047
 C80 C 0.56903 0.17980 0.53029
 C81 C 0.58533 0.18001 0.50075
 C82 C 0.56904 0.17988 0.47121
 H83 H 0.47266 0.17261 0.41897
 H84 H 0.52970 0.17345 0.41897
 H85 H 0.47259 0.17267 0.58253
 H86 H 0.52965 0.17347 0.58254
 H87 H 0.39108 0.17916 0.50070
 H88 H 0.61121 0.18226 0.50075
 C89 C 0.68100 0.07023 -0.03001
 C90 C 0.68045 0.08597 0.00001
 C91 C 0.68039 0.06932 0.02926
 C92 C 0.67894 0.03551 0.02905
 C93 C 0.67877 0.01875 -0.00075
 C94 C 0.67880 0.03609 -0.03036
 C95 C 0.67359 0.01882 -0.05907
 C96 C 0.67220 -0.01440 -0.05922
 C97 C 0.67612 -0.03227 -0.03071
 C98 C 0.67762 -0.01547 -0.00088
 C99 C 0.67563 0.01813 0.05786
 C100 C 0.67426 -0.01505 0.05773
 C101 C 0.67699 -0.03262 0.02884
 C102 C 0.67630 -0.06672 0.02867
 C103 C 0.67349 -0.08258 -0.00117
 C104 C 0.67550 -0.06637 -0.03090
 H105 H 0.66867 0.03058 -0.08170
 H106 H 0.66623 -0.02564 -0.08195
 H107 H 0.67277 0.02999 0.08087
 H108 H 0.66940 -0.02643 0.08063
 H109 H 0.68258 0.11185 0.00096
 H110 H 0.67341 -0.10851 -0.00130
 C111 C 0.17878 0.42803 0.47155
 C112 C 0.17867 0.41180 0.50113
 C113 C 0.17852 0.42818 0.53062
 C114 C 0.17712 0.46205 0.53070
 C115 C 0.17708 0.47894 0.50094
 C116 C 0.17731 0.46188 0.47128
 C117 C 0.17506 0.47912 0.44222
 C118 C 0.17492 0.51239 0.44212
 C119 C 0.17705 0.52988 0.47106
 C120 C 0.17697 0.51300 0.50083
 C121 C 0.17478 0.47946 0.55964
 C122 C 0.17469 0.51274 0.55953
 C123 C 0.17693 0.53007 0.53048
 C124 C 0.17816 0.56398 0.53019
 C125 C 0.17813 0.58019 0.50059
 C126 C 0.17828 0.56378 0.47112
 H127 H 0.17278 0.46711 0.41919
 H128 H 0.17252 0.52416 0.41901
 H129 H 0.17240 0.46759 0.58273
 H130 H 0.17222 0.52466 0.58256
 H131 H 0.18072 0.38595 0.50120
 H132 H 0.18001 0.60611 0.50049
 C133 C 0.32118 0.93011 0.02958
 C134 C 0.32242 0.91368 0.00023
 C135 C 0.32195 0.92963 -0.02971
 C136 C 0.32332 0.96379 -0.02982
 C137 C 0.32223 0.98086 -0.00012
 C138 C 0.32160 0.96394 0.02962
 C139 C 0.32292 0.98129 0.05867
 C140 C 0.32307 1.01450 0.05870
 C141 C 0.32187 1.03188 0.02968
 C142 C 0.32236 1.01503 -0.00009
 C143 C 0.32850 0.98143 -0.05834
 C144 C 0.32864 1.01469 -0.05831
 C145 C 0.32358 1.03218 -0.02976
 C146 C 0.32244 1.06631 -0.02959
 C147 C 0.32304 1.08222 0.00036
 C148 C 0.32170 1.06572 0.02971
 H149 H 0.32479 0.96945 0.08180
 H150 H 0.32505 1.02631 0.08185
 H151 H 0.33418 0.96996 -0.08095
 H152 H 0.33443 1.02632 -0.08089
 H153 H 0.32098 0.88776 0.00097
 H154 H 0.32179 1.10811 0.00113
 C155 C 0.82147 0.43679 0.46999
 C156 C 0.82166 0.42048 0.49953
 C157 C 0.82164 0.43676 0.52907
 C158 C 0.82278 0.47068 0.52925
 C159 C 0.82270 0.48767 0.49954
 C160 C 0.82262 0.47070 0.46982
 C161 C 0.82470 0.48812 0.44082
 C162 C 0.82457 0.52139 0.44082
 C163 C 0.82238 0.53871 0.46983
 C164 C 0.82259 0.52173 0.49954
 C165 C 0.82501 0.48809 0.55824
 C166 C 0.82490 0.52137 0.55824
 C167 C 0.82256 0.53871 0.52925
 C168 C 0.82118 0.57258 0.52908
 C169 C 0.82108 0.58888 0.49954
 C170 C 0.82097 0.57258 0.47000
 H171 H 0.82706 0.47628 0.41774
 H172 H 0.82684 0.53333 0.41775
 H173 H 0.82748 0.47624 0.58130
 H174 H 0.82729 0.53330 0.58130
 H175 H 0.81986 0.39455 0.49952
 H176 H 0.81906 0.61473 0.49954
 O177 O 0.24742 0.19994 0.22989
 O178 O 0.21869 0.25815 0.28963
 O179 O 0.20371 0.24352 0.23017
 O180 O 0.26253 0.21470 0.28936
 O181 O 0.29780 0.25036 0.27147
 O182 O 0.23906 0.27912 0.21232
 O183 O 0.25400 0.29379 0.27177
 O184 O 0.28279 0.23552 0.21204
 Cu185 Cu 0.22955 0.22548 0.26155
 Cu186 Cu 0.27196 0.26827 0.24009
 C187 C 0.26980 0.20791 0.21063
 C188 C 0.23162 0.28579 0.29102
 C189 C 0.21148 0.26607 0.21103
 C190 C 0.29007 0.22785 0.29067
 O191 O 0.75155 0.80041 0.22796
 O192 O 0.78085 0.74252 0.28790
 O193 O 0.79584 0.75732 0.22844
 O194 O 0.73670 0.78567 0.28748
 O195 O 0.70172 0.74977 0.26952
 O196 O 0.76095 0.72118 0.21078
 O197 O 0.74579 0.70659 0.27016
 O198 O 0.71691 0.76421 0.20994
 Cu199 Cu 0.76975 0.77511 0.25973
 Cu200 Cu 0.72781 0.73184 0.23833
 C201 C 0.72949 0.79201 0.20851
 C202 C 0.76810 0.71479 0.28939
 C203 C 0.78837 0.73458 0.20941
 C204 C 0.70924 0.77236 0.28872
 O205 O 0.79842 0.24994 0.22918
 O206 O 0.73970 0.22039 0.28894
 O207 O 0.75451 0.20530 0.22958
 O208 O 0.78355 0.26506 0.28849
 O209 O 0.74841 0.29961 0.27009
 O210 O 0.71902 0.23971 0.21159
 O211 O 0.70451 0.25505 0.27084
 O212 O 0.76296 0.28410 0.21068
 Cu213 Cu 0.77259 0.23171 0.26088
 Cu214 Cu 0.73020 0.27311 0.23898
 C215 C 0.79053 0.27177 0.20951
 C216 C 0.71222 0.23291 0.29025
 C217 C 0.73198 0.21243 0.21041
 C218 C 0.77072 0.29241 0.28948
 O219 O 0.25971 0.77839 0.28786
 O220 O 0.20112 0.74815 0.22834
 O221 O 0.21593 0.73370 0.28781
 O222 O 0.24485 0.79299 0.22842
 O223 O 0.28050 0.75858 0.21074
 O224 O 0.25118 0.69908 0.26975
 O225 O 0.23672 0.71395 0.21015
 O226 O 0.29500 0.74368 0.27008
 Cu227 Cu 0.22684 0.76678 0.25989
 Cu228 Cu 0.26938 0.72532 0.23838
 C229 C 0.28722 0.76594 0.28929
 C230 C 0.20910 0.72616 0.20887
 C231 C 0.22884 0.70641 0.28908
 C232 C 0.26746 0.78582 0.20937
 O233 O 0.78465 0.26500 0.71110
 O234 O 0.75589 0.20556 0.77064
 O235 O 0.74068 0.22042 0.71135
 O236 O 0.79986 0.25035 0.77049
 O237 O 0.76465 0.28494 0.78869
 O238 O 0.70558 0.25506 0.72968
 O239 O 0.72104 0.24043 0.78897
 O240 O 0.74949 0.29962 0.72934
 Cu241 Cu 0.77381 0.23185 0.73907
 Cu242 Cu 0.73166 0.27349 0.76096
 C243 C 0.77174 0.29231 0.70991
 C244 C 0.73378 0.21305 0.79016
 C245 C 0.71314 0.23285 0.71030
 C246 C 0.79217 0.27253 0.78987
 O247 O 0.29593 0.74522 0.72977
 O248 O 0.23731 0.71549 0.78938
 O249 O 0.25190 0.70080 0.72991
 O250 O 0.28119 0.75980 0.78927
 O251 O 0.24632 0.79484 0.77129
 O252 O 0.21674 0.73559 0.71200
 O253 O 0.20211 0.75026 0.77150
 O254 O 0.26079 0.78001 0.71184
 Cu255 Cu 0.27012 0.72684 0.76135
 Cu256 Cu 0.22794 0.76868 0.73989
 C257 C 0.28825 0.76746 0.71048
 C258 C 0.20984 0.72800 0.79077
 C259 C 0.22953 0.70823 0.71068
 C260 C 0.26860 0.78725 0.79057
 O261 O 0.28254 0.23509 0.78921
 O262 O 0.25321 0.29342 0.73000
 O263 O 0.23879 0.27819 0.78949
 O264 O 0.29720 0.25013 0.72975
 O265 O 0.26199 0.21443 0.71186
 O266 O 0.20333 0.24271 0.77164
 O267 O 0.21796 0.25775 0.71213
 O268 O 0.24746 0.19924 0.77135
 Cu269 Cu 0.27147 0.26780 0.76136
 Cu270 Cu 0.22913 0.22493 0.73996
 C271 C 0.26982 0.20736 0.79057
 C272 C 0.23076 0.28545 0.71083
 C273 C 0.21126 0.26507 0.79095
 C274 C 0.28949 0.22767 0.71050
 O275 O 0.73704 0.78615 0.71047
 O276 O 0.79596 0.75836 0.77004
 O277 O 0.78131 0.74312 0.71058
 O278 O 0.75143 0.80131 0.76996
 O279 O 0.71685 0.76506 0.78801
 O280 O 0.74625 0.70720 0.72838
 O281 O 0.76110 0.72219 0.78771
 O282 O 0.70208 0.75025 0.72847
 Cu283 Cu 0.76995 0.77586 0.73848
 Cu284 Cu 0.72805 0.73257 0.75993
 C285 C 0.70963 0.77275 0.70918
 C286 C 0.78847 0.73567 0.78914
 C287 C 0.76863 0.71535 0.70920
 C288 C 0.72926 0.79294 0.78930
 C289 C 0.30480 0.12304 0.11099
 N290 N 0.32789 0.13130 0.08935
 N291 N 0.33385 0.11264 0.06400
 C292 C 0.31710 0.08492 0.05945
 N293 N 0.29387 0.07682 0.08101
 N294 N 0.28794 0.09543 0.10638
 C295 C 0.29700 0.14438 0.13797
 N296 N 0.27354 0.13624 0.15924
 N297 N 0.26529 0.15625 0.18277
 C298 C 0.28019 0.18515 0.18588
 N299 N 0.30382 0.19321 0.16476
 N300 N 0.31210 0.17317 0.14124
 C301 C 0.80457 0.63018 0.61017
 N302 N 0.82661 0.63906 0.58769
 N303 N 0.83254 0.62031 0.56241
 C304 C 0.81683 0.59186 0.55877
 N305 N 0.79467 0.58310 0.58122
 N306 N 0.78876 0.60182 0.60650
 C307 C 0.79663 0.65163 0.63702
 N308 N 0.77368 0.64315 0.65873
 N309 N 0.76520 0.66325 0.68209
 C310 C 0.77935 0.69259 0.68460
 N311 N 0.80248 0.70099 0.66306
 N312 N 0.81097 0.68087 0.63969
 C313 C 0.69398 0.87569 0.10798
 N314 N 0.70438 0.90657 0.10750
 N315 N 0.69807 0.92534 0.08234
 C316 C 0.68101 0.91419 0.05662
 N317 N 0.67100 0.88305 0.05718
 N318 N 0.67716 0.86427 0.08236
 C319 C 0.70198 0.85453 0.13506
 N320 N 0.69001 0.82419 0.13628
 N321 N 0.69831 0.80449 0.16006
 C322 C 0.71895 0.81437 0.18345
 N323 N 0.73080 0.84477 0.18234
 N324 N 0.72240 0.86452 0.15862
 C325 C 0.19499 0.37077 0.61188
 N326 N 0.21088 0.39907 0.60811
 N327 N 0.20501 0.41774 0.58277
 C328 C 0.18282 0.40898 0.56037
 N329 N 0.16702 0.38059 0.56412
 N330 N 0.17291 0.36190 0.58945
 C331 C 0.20289 0.34933 0.63875
 N332 N 0.18840 0.32017 0.64149
 N333 N 0.19686 0.30002 0.66484
 C334 C 0.22009 0.30831 0.68630
 N335 N 0.23438 0.33757 0.68373
 N336 N 0.22594 0.35771 0.66038
 C337 C 0.87544 0.30686 0.10904
 N338 N 0.90595 0.29626 0.10863
 N339 N 0.92496 0.30237 0.08347
 C340 C 0.91444 0.31945 0.05768
 N341 N 0.88365 0.32966 0.05817
 N342 N 0.86463 0.32369 0.08334
 C343 C 0.85398 0.29903 0.13611
 N344 N 0.82395 0.31095 0.13714
 N345 N 0.80396 0.30276 0.16091
 C346 C 0.81324 0.28229 0.18448
 N347 N 0.84333 0.27051 0.18357
 N348 N 0.86337 0.27879 0.15985
 C349 C 0.37328 0.80330 0.61045
 N350 N 0.40120 0.78759 0.60650
 N351 N 0.41980 0.79356 0.58101
 C352 C 0.41135 0.81568 0.55865
 N353 N 0.38331 0.83128 0.56255
 N354 N 0.36468 0.82528 0.58803
 C355 C 0.35195 0.79537 0.63758
 N356 N 0.32313 0.80967 0.64053
 N357 N 0.30306 0.80122 0.66415
 C358 C 0.31110 0.77817 0.68569
 N359 N 0.34003 0.76407 0.68290
 N360 N 0.36009 0.77251 0.65928
 C361 C 0.12429 0.68999 0.10877
 N362 N 0.09379 0.70064 0.10827
 N363 N 0.07487 0.69459 0.08304
 C364 C 0.08546 0.67755 0.05727
 N365 N 0.11621 0.66723 0.05787
 N366 N 0.13514 0.67313 0.08312
 C367 C 0.14570 0.69799 0.13581
 N368 N 0.17578 0.68622 0.13690
 N369 N 0.19576 0.69468 0.16058
 C370 C 0.18642 0.71532 0.18398
 N371 N 0.15626 0.72694 0.18301
 N372 N 0.13624 0.71838 0.15939
 C373 C 0.62696 0.19666 0.61142
 N374 N 0.59898 0.21235 0.60774
 N375 N 0.58014 0.20637 0.58244
 C376 C 0.58840 0.18426 0.55999
 N377 N 0.61647 0.16867 0.56363
 N378 N 0.63534 0.17467 0.58892
 C379 C 0.64860 0.20467 0.63827
 N380 N 0.67751 0.19046 0.64085
 N381 N 0.69785 0.19900 0.66419
 C382 C 0.69002 0.22205 0.68580
 N383 N 0.66101 0.23605 0.68338
 N384 N 0.64068 0.22752 0.66004
 C385 C 0.69864 0.12801 0.89049
 N386 N 0.68400 0.13971 0.91712
 N387 N 0.67793 0.12087 0.94238
 C388 C 0.68577 0.08937 0.94204
 N389 N 0.70059 0.07785 0.91527
 N390 N 0.70689 0.09672 0.89002
 C391 C 0.70652 0.14936 0.86336
 N392 N 0.72618 0.13974 0.83921
 N393 N 0.73453 0.15985 0.81555
 C394 C 0.72335 0.19021 0.81510
 N395 N 0.70343 0.19968 0.83905
 N396 N 0.69524 0.17966 0.86278
 C397 C 0.19443 0.62111 0.38938
 N398 N 0.17228 0.62941 0.41174
 N399 N 0.16658 0.61079 0.43729
 C400 C 0.18265 0.58304 0.44133
 N401 N 0.20496 0.57489 0.41904
 N402 N 0.21064 0.59349 0.39348
 C403 C 0.20199 0.64245 0.36215
 N404 N 0.22496 0.63461 0.34047
 N405 N 0.23306 0.65471 0.31676
 C406 C 0.21846 0.68339 0.31386
 N407 N 0.19529 0.69112 0.33538
 N408 N 0.18719 0.67101 0.35908
 C409 C 0.30499 0.87219 0.89046
 N410 N 0.31975 0.86046 0.91701
 N411 N 0.32573 0.87921 0.94235
 C412 C 0.31766 0.91065 0.94217
 N413 N 0.30280 0.92222 0.91544
 N414 N 0.29660 0.90343 0.89011
 C415 C 0.29692 0.85089 0.86336
 N416 N 0.27704 0.86056 0.83943
 N417 N 0.26836 0.84047 0.81589
 C418 C 0.27942 0.81006 0.81535
 N419 N 0.29956 0.80054 0.83908
 N420 N 0.30808 0.82055 0.86269
 C421 C 0.80542 0.37883 0.38870
 N422 N 0.82758 0.37074 0.41113
 N423 N 0.83328 0.38960 0.43649
 C424 C 0.81721 0.41738 0.44028
 N425 N 0.79491 0.42534 0.41791
 N426 N 0.78923 0.40650 0.39253
 C427 C 0.79780 0.35719 0.36173
 N428 N 0.77482 0.36481 0.33998
 N429 N 0.76665 0.34443 0.31654
 C430 C 0.78117 0.31568 0.31400
 N431 N 0.80434 0.30816 0.33558
 N432 N 0.81252 0.32855 0.35901
 C433 C 0.12749 0.30013 0.89153
 N434 N 0.09595 0.29202 0.89111
 N435 N 0.07733 0.29843 0.91639
 C436 C 0.08938 0.31321 0.94313
 N437 N 0.12112 0.32089 0.94342
 N438 N 0.13970 0.31472 0.91813
 C439 C 0.14852 0.29221 0.86434
 N440 N 0.13836 0.27238 0.84034
 N441 N 0.15817 0.26404 0.81662
 C442 C 0.18876 0.27540 0.81597
 N443 N 0.19877 0.29547 0.83979
 N444 N 0.17906 0.30364 0.86358
 C445 C 0.62361 0.80639 0.38800
 N446 N 0.63213 0.82868 0.41037
 N447 N 0.61343 0.83424 0.43577
 C448 C 0.58539 0.81788 0.43965
 N449 N 0.57699 0.79546 0.41734
 N450 N 0.59567 0.78992 0.39192
 C451 C 0.64506 0.79893 0.36101
 N452 N 0.63707 0.77571 0.33942
 N453 N 0.65727 0.76769 0.31597
 C454 C 0.68620 0.78259 0.31326
 N455 N 0.69410 0.80600 0.33469
 N456 N 0.67389 0.81403 0.35813
 C457 C 0.87381 0.70062 0.88833
 N458 N 0.86449 0.67903 0.91107
 N459 N 0.88305 0.67308 0.93647
 C460 C 0.91174 0.68831 0.93998
 N461 N 0.92102 0.70998 0.91724
 N462 N 0.90245 0.71595 0.89183
 C463 C 0.85245 0.70850 0.86139
 N464 N 0.86071 0.73161 0.83976
 N465 N 0.84055 0.73991 0.81636
 C466 C 0.81142 0.72537 0.81374
 N467 N 0.80327 0.70208 0.83521
 N468 N 0.82341 0.69381 0.85861
 C469 C 0.37561 0.19356 0.38995
 N470 N 0.36708 0.17132 0.41237
 N471 N 0.38585 0.16573 0.43772
 C472 C 0.41396 0.18200 0.44148
 N473 N 0.42235 0.20437 0.41911
 N474 N 0.40362 0.20994 0.39375
 C475 C 0.35412 0.20108 0.36300
 N476 N 0.36223 0.22418 0.34132
 N477 N 0.34205 0.23226 0.31788
 C478 C 0.31302 0.21753 0.31527
 N479 N 0.30500 0.19424 0.33679
 N480 N 0.32520 0.18615 0.36023
 C481 C 0.69238 0.87681 0.88909
 N482 N 0.67614 0.86505 0.91495
 N483 N 0.67012 0.88362 0.94030
 C484 C 0.67967 0.91489 0.94084
 N485 N 0.69600 0.92647 0.91481
 N486 N 0.70220 0.90788 0.88946
 C487 C 0.70058 0.85572 0.86204
 N488 N 0.72101 0.86579 0.83851
 N489 N 0.72979 0.84596 0.81499
 C490 C 0.71833 0.81541 0.81408
 N491 N 0.69765 0.80547 0.83742
 N492 N 0.68899 0.82523 0.86100
 C493 C 0.19600 0.37060 0.39048
 N494 N 0.17379 0.36167 0.41278
 N495 N 0.16772 0.38033 0.43808
 C496 C 0.18345 0.40874 0.44192
 N497 N 0.20579 0.41753 0.41968
 N498 N 0.21185 0.39889 0.39437
 C499 C 0.20398 0.34926 0.36355
 N500 N 0.22708 0.35772 0.34199
 N501 N 0.23549 0.33771 0.31851
 C502 C 0.22111 0.30852 0.31574
 N503 N 0.19784 0.30015 0.33715
 N504 N 0.18942 0.32016 0.36062
 C505 C 0.30578 0.12338 0.89058
 N506 N 0.32061 0.13545 0.91712
 N507 N 0.32648 0.11683 0.94247
 C508 C 0.31822 0.08521 0.94231
 N509 N 0.30327 0.07332 0.91560
 N510 N 0.29718 0.09196 0.89027
 C511 C 0.29784 0.14447 0.86345
 N512 N 0.27791 0.13432 0.83954
 N513 N 0.26934 0.15418 0.81596
 C514 C 0.28056 0.18483 0.81536
 N515 N 0.30076 0.19484 0.83908
 N516 N 0.30917 0.17506 0.86273
 C517 C 0.80390 0.63005 0.38889
 N518 N 0.82606 0.63898 0.41123
 N519 N 0.83211 0.62029 0.43653
 C520 C 0.81641 0.59185 0.44032
 N521 N 0.79413 0.58305 0.41803
 N522 N 0.78810 0.60172 0.39272
 C523 C 0.79591 0.65141 0.36197
 N524 N 0.77292 0.64287 0.34034
 N525 N 0.76448 0.66287 0.31687
 C526 C 0.77870 0.69215 0.31416
 N527 N 0.80186 0.70061 0.33564
 N528 N 0.81032 0.68060 0.35912
 C529 C 0.12463 0.69125 0.89033
 N530 N 0.09418 0.70200 0.89090
 N531 N 0.07517 0.69567 0.91601
 C532 C 0.08564 0.67824 0.94157
 N533 N 0.11635 0.66782 0.94090
 N534 N 0.13536 0.67400 0.91578
 C535 C 0.14614 0.69949 0.86344
 N536 N 0.17613 0.68750 0.86223
 N537 N 0.19620 0.69612 0.83869
 C538 C 0.18705 0.71713 0.81555
 N539 N 0.15700 0.72899 0.81664
 N540 N 0.13688 0.72027 0.84013
 C541 C 0.62678 0.19703 0.38996
 N542 N 0.59878 0.21266 0.39375
 N543 N 0.58003 0.20661 0.41910
 C544 C 0.58839 0.18449 0.44151
 N545 N 0.61650 0.16897 0.43777
 N546 N 0.63528 0.17504 0.41242
 C547 C 0.64827 0.20503 0.36297
 N548 N 0.67715 0.19080 0.36019
 N549 N 0.69732 0.19927 0.33666
 C550 C 0.68933 0.22226 0.31504
 N551 N 0.66035 0.23630 0.31767
 N552 N 0.64019 0.22784 0.34121
 C553 C 0.87698 0.30863 0.88996
 N554 N 0.90767 0.29855 0.89040
 N555 N 0.92638 0.30450 0.91583
 C556 C 0.91531 0.32084 0.94188
 N557 N 0.88439 0.33063 0.94128
 N558 N 0.86571 0.32485 0.91584
 C559 C 0.85571 0.30070 0.86279
 N560 N 0.82563 0.31246 0.86170
 N561 N 0.80565 0.30401 0.83804
 C562 C 0.81498 0.28338 0.81464
 N563 N 0.84514 0.27175 0.81558
 N564 N 0.86517 0.28032 0.83920
 C565 C 0.37257 0.80258 0.38874
 N566 N 0.40062 0.78704 0.39252
 N567 N 0.41940 0.79323 0.41783
 C568 C 0.41099 0.81538 0.44017
 N569 N 0.38283 0.83080 0.43643
 N570 N 0.36403 0.82460 0.41113
 C571 C 0.35109 0.79441 0.36181
 N572 N 0.32216 0.80852 0.35899
 N573 N 0.30201 0.79987 0.33551
 C574 C 0.31007 0.77682 0.31400
 N575 N 0.33910 0.76290 0.31667
 N576 N 0.35924 0.77154 0.34014
 C577 C 0.30361 0.87221 0.11062
 N578 N 0.28692 0.89945 0.10602
 N579 N 0.29308 0.91829 0.08075
 C580 C 0.31638 0.91077 0.05928
 N581 N 0.33297 0.88341 0.06384
 N582 N 0.32678 0.86454 0.08910
 C583 C 0.29550 0.85054 0.13742
 N584 N 0.31052 0.82212 0.14069
 N585 N 0.30197 0.80172 0.16399
 C586 C 0.27811 0.80902 0.18488
 N587 N 0.26328 0.83755 0.18179
 N588 N 0.27181 0.85793 0.15847
 C589 C 0.80594 0.37863 0.61034
 N590 N 0.78980 0.40636 0.60668
 N591 N 0.79539 0.42525 0.58132
 C592 C 0.81753 0.41731 0.55879
 N593 N 0.83356 0.38947 0.56242
 N594 N 0.82796 0.37055 0.58777
 C595 C 0.79842 0.35694 0.63732
 N596 N 0.81311 0.32828 0.63997
 N597 N 0.80505 0.30791 0.66347
 C598 C 0.78201 0.31547 0.68519
 N599 N 0.76752 0.34423 0.68270
 N600 N 0.77557 0.36459 0.65921
 C601 C 0.69655 0.12634 0.11119
 N602 N 0.67437 0.13469 0.08889
 N603 N 0.66859 0.11610 0.06335
 C604 C 0.68462 0.08834 0.05924
 N605 N 0.70689 0.08008 0.08153
 N606 N 0.71265 0.09866 0.10708
 C607 C 0.70434 0.14782 0.13824
 N608 N 0.72756 0.14016 0.15972
 N609 N 0.73593 0.16048 0.18315
 C610 C 0.72138 0.18919 0.18594
 N611 N 0.69797 0.19673 0.16464
 N612 N 0.68960 0.17641 0.14122
 C613 C 0.19441 0.62213 0.61131
 N614 N 0.17238 0.63032 0.58879
 N615 N 0.16660 0.61140 0.56348
 C616 C 0.18246 0.58347 0.55984
 N617 N 0.20462 0.57543 0.58230
 N618 N 0.21039 0.59431 0.60762
 C619 C 0.20214 0.64377 0.63825
 N620 N 0.22504 0.63598 0.66002
 N621 N 0.23331 0.65629 0.68348
 C622 C 0.21898 0.68513 0.68603
 N623 N 0.19589 0.69283 0.66443
 N624 N 0.18761 0.67251 0.64096
 C625 C 0.87375 0.69967 0.11026
 N626 N 0.86438 0.67831 0.08732
 N627 N 0.88292 0.67256 0.06186
 C628 C 0.91164 0.68777 0.05848
 N629 N 0.92097 0.70920 0.08141
 N630 N 0.90241 0.71497 0.10687
 C631 C 0.85241 0.70740 0.13724
 N632 N 0.86070 0.73040 0.15898
 N633 N 0.84054 0.73865 0.18238
 C634 C 0.81136 0.72418 0.18491
 N635 N 0.80319 0.70100 0.16336
 N636 N 0.82334 0.69277 0.13995
 C637 C 0.37529 0.19356 0.61133
 N638 N 0.36685 0.17131 0.58889
 N639 N 0.38572 0.16571 0.56362
 C640 C 0.41386 0.18196 0.55995
 N641 N 0.42218 0.20432 0.58235
 N642 N 0.40334 0.20991 0.60763
 C643 C 0.35369 0.20109 0.63819
 N644 N 0.36172 0.22419 0.65989
 N645 N 0.34147 0.23224 0.68328
 C646 C 0.31244 0.21749 0.68583
 N647 N 0.30449 0.19420 0.66428
 N648 N 0.32476 0.18615 0.64089
 C649 C 0.12626 0.30201 0.11208
 N650 N 0.13525 0.32423 0.08982
 N651 N 0.11677 0.33019 0.06437
 C652 C 0.08847 0.31432 0.06031
 N653 N 0.07955 0.29203 0.08257
 N654 N 0.09803 0.28607 0.10804
 C655 C 0.14759 0.29400 0.13900
 N656 N 0.13931 0.27069 0.16041
 N657 N 0.15943 0.26219 0.18375
 C658 C 0.18857 0.27669 0.18652
 N659 N 0.19674 0.30017 0.16528
 N660 N 0.17662 0.30868 0.14195
 C661 C 0.62406 0.80636 0.60967
 N662 N 0.59607 0.78994 0.60588
 N663 N 0.57732 0.79549 0.58053
 C664 C 0.58568 0.81786 0.55814
 N665 N 0.61378 0.83415 0.56188
 N666 N 0.63256 0.82860 0.58722
 C667 C 0.64555 0.79894 0.63664
 N668 N 0.67437 0.81406 0.63947
 N669 N 0.69456 0.80613 0.66296
 C670 C 0.68665 0.78281 0.68449
 N671 N 0.65772 0.76788 0.68183
 N672 N 0.63754 0.77580 0.65833
   
