data_POSCAR
  _audit_creation_date              2014-09-24
  _audit_creation_method            'ToBaCCo'
  _symmetry_space_group_name_H-M    'P1'
  _symmetry_Int_Tables_number       1
  _symmetry_cell_setting            triclinic
  loop_
  _symmetry_equiv_pos_as_xyz
 x,y,z
_cell_length_a 28.4119
_cell_length_b 28.0925
_cell_length_c 11.8896
_cell_angle_alpha 90.070200
_cell_angle_beta 89.897600
_cell_angle_gamma 120.222000
loop_
  _atom_site_label
  _atom_site_type_symbol
  _atom_site_fract_x
  _atom_site_fract_y
  _atom_site_fract_z
C1 C 0.48242 0.95046 0.56135
 C2 C 0.46879 0.95012 0.44714
 C3 C 0.48701 1.00021 0.39052
 C4 C 0.52174 1.05154 0.44190
 C5 C 0.53564 1.05216 0.55694
 C6 C 0.51834 1.00148 0.61195
 H7 H 0.52797 1.00201 0.70026
 H8 H 0.47767 0.99857 0.30169
 C9 C 0.04852 0.52655 0.55951
 C10 C 0.05008 0.51959 0.44283
 C11 C 0.00125 0.49179 0.38238
 C12 C -0.04991 0.47299 0.43410
 C13 C -0.05115 0.47995 0.55210
 C14 C -0.00202 0.50718 0.61252
 H15 H -0.00330 0.51113 0.70310
 H16 H 0.00390 0.48828 0.29204
 C17 C 0.46684 0.51742 0.56156
 C18 C 0.47847 0.52891 0.44578
 C19 C 0.50966 0.51006 0.39003
 C20 C 0.52893 0.47912 0.44565
 C21 C 0.51760 0.46733 0.56145
 C22 C 0.48411 0.48414 0.61535
 H23 H 0.47613 0.47606 0.70448
 H24 H 0.51649 0.51698 0.30023
 O25 O 0.41146 0.66853 -0.13272
 O26 O 0.41439 0.76196 -0.08975
 C27 C 0.38156 0.77012 -0.14698
 O28 O 0.33028 0.74292 -0.13248
 O29 O 0.23769 0.65206 -0.09037
 C30 C 0.22890 0.60989 -0.14611
 O31 O 0.25514 0.58483 -0.13015
 O32 O 0.34549 0.58319 -0.09061
 C33 C 0.38661 0.61669 -0.14796
 O34 O 0.41456 0.65265 0.08959
 O35 O 0.41179 0.74322 0.13148
 C36 C 0.38682 0.76958 0.14784
 O37 O 0.34594 0.76159 0.09022
 O38 O 0.25598 0.66828 0.13142
 C39 C 0.23020 0.61663 0.14913
 O40 O 0.23814 0.58301 0.09255
 O41 O 0.33041 0.58584 0.13163
 C42 C 0.38160 0.61112 0.14718
 Cr43 Cr 0.41012 0.70507 -0.00044
 Cr44 Cr 0.29394 0.70475 -0.00038
 Cr45 Cr 0.29375 0.58718 0.00071
 O46 O 0.33254 0.66562 0.00002
 O47 O 0.58513 0.34728 -0.09050
 O48 O 0.58933 0.25759 -0.13356
 C49 C 0.61408 0.23088 -0.14762
 O50 O 0.65447 0.23882 -0.08829
 O51 O 0.74395 0.33245 -0.13228
 C52 C 0.76972 0.38408 -0.15042
 O53 O 0.76170 0.41777 -0.09410
 O54 O 0.66902 0.41380 -0.13482
 C55 C 0.61777 0.38856 -0.14887
 O56 O 0.58802 0.33134 0.13060
 O57 O 0.58634 0.23823 0.08829
 C58 C 0.61949 0.23105 0.14695
 O59 O 0.67080 0.25921 0.13338
 O60 O 0.76311 0.35039 0.08857
 C61 C 0.77116 0.39234 0.14418
 O62 O 0.74392 0.41636 0.12892
 O63 O 0.65336 0.41701 0.08829
 C64 C 0.61252 0.38320 0.14625
 Cr65 Cr 0.59005 0.29505 -0.00126
 Cr66 Cr 0.70663 0.29662 0.00041
 Cr67 Cr 0.70559 0.41337 -0.00283
 O68 O 0.66749 0.33510 -0.00099
 N69 N 0.48068 0.90232 -0.27087
 C70 C 0.45770 0.90275 -0.37055
 N71 N 0.40828 0.85837 -0.39682
 N72 N 0.38299 0.81587 -0.32607
 C73 C 0.40655 0.81608 -0.22672
 N74 N 0.45601 0.85973 -0.20133
 N75 N 0.13458 0.53295 -0.37855
 C76 C 0.09810 0.55071 -0.37042
 N77 N 0.10549 0.58801 -0.28996
 N78 N 0.14785 0.60714 -0.22072
 C79 C 0.18409 0.58919 -0.22775
 N80 N 0.17683 0.55172 -0.30818
 N81 N 0.44741 0.59064 -0.39899
 C82 C 0.44306 0.54143 -0.37172
 N83 N 0.41988 0.51817 -0.27164
 N84 N 0.40175 0.54245 -0.20233
 C85 C 0.40711 0.59184 -0.22835
 N86 N 0.43002 0.61561 -0.32835
 N87 N 0.55002 0.14249 -0.39619
 C88 C 0.55937 0.10018 -0.37599
 N89 N 0.58681 0.10213 -0.28115
 N90 N 0.60456 0.14433 -0.21050
 C91 C 0.59456 0.18595 -0.22976
 N92 N 0.56712 0.18456 -0.32424
 N93 N 0.88869 0.48643 -0.30906
 C94 C 0.89814 0.45486 -0.38134
 N95 N 0.86420 0.39930 -0.37987
 N96 N 0.82233 0.37620 -0.30820
 C97 C 0.81308 0.40799 -0.23564
 N98 N 0.84674 0.46347 -0.23834
 N99 N 0.51915 0.42050 -0.27171
 C100 C 0.54190 0.44393 -0.37195
 N101 N 0.59081 0.44893 -0.39956
 N102 N 0.61596 0.43191 -0.32912
 C103 C 0.59270 0.40874 -0.22896
 N104 N 0.54362 0.40273 -0.20257
 N105 N 0.85695 0.45052 0.39705
 C106 C 0.90336 0.45114 0.36487
 N107 N 0.90527 0.43323 0.25977
 N108 N 0.86299 0.41491 0.19073
 C109 C 0.81719 0.41491 0.22231
 N110 N 0.81468 0.43296 0.32694
 N111 N 0.59656 0.14245 0.39468
 C112 C 0.54600 0.09887 0.37262
 N113 N 0.52106 0.09967 0.27597
 N114 N 0.54478 0.14216 0.20587
 C115 C 0.59515 0.18530 0.22755
 N116 N 0.62082 0.18482 0.32336
 N117 N 0.59318 0.48543 0.30028
 C118 C 0.55400 0.45416 0.37599
 N119 N 0.53436 0.39886 0.37779
 N120 N 0.55323 0.37572 0.30616
 C121 C 0.59250 0.40722 0.23039
 N122 N 0.61229 0.46245 0.22957
 N123 N 0.11037 0.51365 0.30397
 C124 C 0.10137 0.54469 0.37851
 N125 N 0.13612 0.60011 0.38032
 N126 N 0.17817 0.62363 0.30918
 C127 C 0.18681 0.59236 0.23404
 N128 N 0.15253 0.53699 0.23390
 N129 N 0.40378 0.88992 0.30419
 C130 C 0.44361 0.89933 0.37858
 N131 N 0.46435 0.86495 0.37894
 N132 N 0.44599 0.82278 0.30712
 C133 C 0.40617 0.81359 0.23251
 N134 N 0.38519 0.84765 0.23326
 N135 N 0.48375 0.59331 0.30042
 C136 C 0.45321 0.55360 0.37624
 N137 N 0.39841 0.53305 0.37827
 N138 N 0.37506 0.55156 0.30679
 C139 C 0.40584 0.59136 0.23093
 N140 N 0.46055 0.61206 0.22986
   
