data_POSCAR
  _audit_creation_date              2014-09-24
  _audit_creation_method            'ToBaCCo'
  _symmetry_space_group_name_H-M    'P1'
  _symmetry_Int_Tables_number       1
  _symmetry_cell_setting            triclinic
  loop_
  _symmetry_equiv_pos_as_xyz
 x,y,z
_cell_length_a 26.0048
_cell_length_b 25.8766
_cell_length_c 44.6099
_cell_angle_alpha 88.783600
_cell_angle_beta 89.253600
_cell_angle_gamma 89.951800
loop_
  _atom_site_label
  _atom_site_type_symbol
  _atom_site_fract_x
  _atom_site_fract_y
  _atom_site_fract_z
O1 O 0.04334 0.55019 1.02616
 O2 O 0.04099 0.45280 0.96715
 O3 O 0.04078 0.55357 0.96803
 O4 O 0.04372 0.44947 1.02545
 O5 O -0.04105 0.45004 1.02797
 O6 O -0.04394 0.55256 0.96941
 O7 O -0.04376 0.45167 0.96964
 O8 O -0.04146 0.55050 1.02773
 Cu9 Cu 0.05069 0.50149 0.99648
 Cu10 Cu -0.05105 0.50115 0.99884
 C11 C 0.00131 0.56726 1.03692
 C12 C -0.00181 0.43525 0.95846
 C13 C -0.00203 0.57114 0.95888
 C14 C 0.00186 0.43204 1.03663
 O15 O 0.44829 0.04101 0.52465
 O16 O 0.54967 0.03692 0.46634
 O17 O 0.44996 0.03688 0.46654
 O18 O 0.54881 0.04103 0.52479
 O19 O 0.54853 -0.04414 0.52802
 O20 O 0.45041 -0.04832 0.46936
 O21 O 0.55090 -0.04812 0.47012
 O22 O 0.44829 -0.04418 0.52767
 Cu23 Cu 0.49923 0.04750 0.49534
 Cu24 Cu 0.49945 -0.05472 0.49910
 C25 C 0.43061 -0.00091 0.53596
 C26 C 0.56796 -0.00629 0.45830
 C27 C 0.43326 -0.00641 0.45796
 C28 C 0.56581 -0.00088 0.53628
 Si29 Si 0.00323 -0.00778 0.24925
 Si30 Si -0.00637 0.00907 0.74709
 C31 C 0.00329 -0.31438 0.10340
 C32 C -0.04339 -0.33650 0.09463
 C33 C -0.04397 -0.37513 0.07322
 C34 C 0.00211 -0.39270 0.06014
 C35 C 0.04884 -0.37105 0.06915
 C36 C 0.04942 -0.33229 0.09050
 C37 C 0.00373 -0.27236 0.12549
 N38 N 0.04829 -0.24828 0.13243
 N39 N 0.04848 -0.20980 0.15180
 C40 C 0.00413 -0.19378 0.16510
 N41 N -0.04038 -0.21802 0.15826
 N42 N -0.04058 -0.25645 0.13887
 C43 C 0.00412 -0.15015 0.18612
 C44 C -0.04157 -0.13497 0.20069
 C45 C -0.04188 -0.09296 0.21987
 C46 C 0.00334 -0.06511 0.22471
 C47 C 0.04915 -0.08062 0.21065
 C48 C 0.04961 -0.12271 0.19154
 H49 H -0.07965 -0.32369 0.10408
 H50 H -0.08062 -0.39106 0.06681
 H51 H 0.08502 -0.38373 0.05951
 H52 H 0.08608 -0.31622 0.09676
 H53 H -0.07726 -0.15537 0.19720
 H54 H -0.07769 -0.08228 0.23059
 H55 H 0.08476 -0.06033 0.21450
 H56 H 0.08556 -0.13345 0.18086
 C57 C 0.00532 0.30909 0.10319
 C58 C 0.05018 0.32346 0.08719
 C59 C 0.04915 0.36374 0.06584
 C60 C 0.00314 0.39024 0.05978
 C61 C -0.04170 0.37603 0.07583
 C62 C -0.04057 0.33607 0.09740
 C63 C 0.00623 0.26565 0.12537
 N64 N -0.03415 0.25693 0.14443
 N65 N -0.03365 0.21727 0.16397
 C66 C 0.00718 0.18455 0.16519
 N67 N 0.04760 0.19335 0.14618
 N68 N 0.04719 0.23312 0.12674
 C69 C 0.00713 0.13948 0.18625
 C70 C 0.04375 0.09991 0.18313
 C71 C 0.04252 0.05645 0.20222
 C72 C 0.00479 0.05161 0.22482
 C73 C -0.03068 0.09183 0.22872
 C74 C -0.02986 0.13515 0.20944
 H75 H 0.08621 0.30362 0.09116
 H76 H 0.08434 0.37372 0.05383
 H77 H -0.07772 0.39581 0.07173
 H78 H -0.07584 0.32591 0.10926
 H79 H 0.07298 0.10210 0.16564
 H80 H 0.07108 0.02660 0.19917
 H81 H -0.05893 0.09025 0.24668
 H82 H -0.05809 0.16534 0.21279
 C83 C 0.30646 0.00319 0.60079
 C84 C 0.33143 -0.04360 0.59440
 C85 C 0.37194 -0.04488 0.57353
 C86 C 0.38866 0.00065 0.55870
 C87 C 0.36419 0.04755 0.56537
 C88 C 0.32346 0.04878 0.58610
 C89 C 0.26255 0.00432 0.62232
 N90 N 0.23399 0.04787 0.62555
 N91 N 0.19406 0.04866 0.64454
 C92 C 0.18103 0.00597 0.66118
 N93 N 0.20972 -0.03753 0.65803
 N94 N 0.24956 -0.03836 0.63897
 C95 C 0.13632 0.00670 0.68213
 C96 C 0.12647 -0.03541 0.70183
 C97 C 0.08418 -0.03480 0.72148
 C98 C 0.05107 0.00793 0.72186
 C99 C 0.06019 0.04962 0.70197
 C100 C 0.10264 0.04927 0.68244
 H101 H 0.31934 -0.07945 0.60527
 H102 H 0.39005 -0.08162 0.56893
 H103 H 0.37610 0.08330 0.55430
 H104 H 0.30524 0.08552 0.59054
 H105 H 0.15139 -0.06894 0.70208
 H106 H 0.07724 -0.06808 0.73603
 H107 H 0.03449 0.08259 0.70162
 H108 H 0.10876 0.08216 0.66742
 C109 C -0.31324 0.00296 0.60129
 C110 C -0.33762 0.04887 0.59178
 C111 C -0.37716 0.04767 0.57084
 C112 C -0.39344 0.00051 0.55913
 C113 C -0.36960 -0.04543 0.56898
 C114 C -0.32987 -0.04421 0.58973
 C115 C -0.27020 0.00414 0.62274
 N116 N -0.24156 -0.03886 0.62824
 N117 N -0.20238 -0.03780 0.64714
 C118 C -0.19019 0.00626 0.66143
 N119 N -0.21894 0.04926 0.65604
 N120 N -0.25805 0.04824 0.63705
 C121 C -0.14626 0.00734 0.68226
 C122 C -0.13797 0.05025 0.70044
 C123 C -0.09649 0.05099 0.72007
 C124 C -0.06267 0.00889 0.72186
 C125 C -0.07022 -0.03351 0.70345
 C126 C -0.11184 -0.03454 0.68401
 H127 H -0.32574 0.08587 0.60021
 H128 H -0.39482 0.08374 0.56374
 H129 H -0.38118 -0.08241 0.56038
 H130 H -0.31213 -0.08033 0.59663
 H131 H -0.16357 0.08325 0.69955
 H132 H -0.09076 0.08471 0.73354
 H133 H -0.04397 -0.06603 0.70421
 H134 H -0.11674 -0.06801 0.67017
 C135 C -0.00454 -0.30490 0.89522
 C136 C -0.05060 -0.32791 0.90548
 C137 C -0.04987 -0.36899 0.92635
 C138 C -0.00293 -0.38842 0.93732
 C139 C 0.04318 -0.36579 0.92657
 C140 C 0.04233 -0.32445 0.90593
 C141 C -0.00525 -0.26034 0.87378
 N142 N 0.03802 -0.23222 0.86815
 N143 N 0.03739 -0.19181 0.84917
 C144 C -0.00648 -0.17785 0.83493
 N145 N -0.04974 -0.20606 0.84049
 N146 N -0.04917 -0.24638 0.85956
 C147 C -0.00703 -0.13282 0.81385
 C148 C -0.04930 -0.12367 0.79509
 C149 C -0.04938 -0.08147 0.77498
 C150 C -0.00727 -0.04774 0.77330
 C151 C 0.03437 -0.05598 0.79241
 C152 C 0.03477 -0.09837 0.81231
 H153 H -0.08739 -0.31375 0.89771
 H154 H -0.08623 -0.38530 0.93395
 H155 H 0.08016 -0.37951 0.93433
 H156 H 0.07856 -0.30782 0.89837
 H157 H -0.08224 -0.14925 0.79582
 H158 H -0.08258 -0.07519 0.76103
 H159 H 0.06686 -0.02978 0.79176
 H160 H 0.06771 -0.10392 0.82662
 C161 C -0.00445 0.31595 0.89255
 C162 C 0.04192 0.34056 0.89959
 C163 C 0.04275 0.37950 0.92083
 C164 C -0.00281 0.39497 0.93538
 C165 C -0.04926 0.37088 0.92805
 C166 C -0.05006 0.33174 0.90696
 C167 C -0.00516 0.27354 0.87071
 N168 N -0.04844 0.24522 0.86683
 N169 N -0.04886 0.20647 0.84766
 C170 C -0.00607 0.19443 0.83147
 N171 N 0.03714 0.22291 0.83523
 N172 N 0.03761 0.26158 0.85447
 C173 C -0.00635 0.15069 0.81052
 C174 C 0.03601 0.14165 0.79139
 C175 C 0.03600 0.09987 0.77203
 C176 C -0.00635 0.06650 0.77140
 C177 C -0.04842 0.07501 0.79057
 C178 C -0.04867 0.11693 0.80980
 H179 H 0.07777 0.32935 0.88895
 H180 H 0.07917 0.39736 0.92593
 H181 H -0.08504 0.38186 0.93887
 H182 H -0.08648 0.31377 0.90202
 H183 H 0.06933 0.16670 0.79145
 H184 H 0.06948 0.09341 0.75798
 H185 H -0.08113 0.04911 0.79072
 H186 H -0.08177 0.12245 0.82436
 C187 C -0.31125 -0.01048 0.39385
 C188 C -0.33713 0.03597 0.39948
 C189 C -0.37687 0.03749 0.42085
 C190 C -0.39257 -0.00782 0.43650
 C191 C -0.36730 -0.05460 0.43013
 C192 C -0.32663 -0.05570 0.40936
 C193 C -0.26755 -0.01154 0.37243
 N194 N -0.22775 -0.04467 0.37692
 N195 N -0.18754 -0.04472 0.35813
 C196 C -0.18585 -0.01207 0.33390
 N197 N -0.22588 0.02073 0.32923
 N198 N -0.26582 0.02122 0.34824
 C199 C -0.14079 -0.01153 0.31345
 C200 C -0.14633 0.00039 0.28281
 C201 C -0.10343 0.00069 0.26358
 C202 C -0.05419 -0.00928 0.27481
 C203 C -0.04866 -0.02088 0.30546
 C204 C -0.09165 -0.02261 0.32454
 H205 H -0.32578 0.07143 0.38788
 H206 H -0.39539 0.07423 0.42495
 H207 H -0.37809 -0.09033 0.44163
 H208 H -0.30739 -0.09207 0.40528
 H209 H -0.18390 0.00870 0.27368
 H210 H -0.10866 0.00914 0.23993
 H211 H -0.01131 -0.02890 0.31482
 H212 H -0.08634 -0.03167 0.34812
 C213 C 0.31489 -0.00988 0.39133
 C214 C 0.33281 -0.05601 0.40478
 C215 C 0.37160 -0.05500 0.42619
 C216 C 0.39322 -0.00784 0.43468
 C217 C 0.37567 0.03820 0.42103
 C218 C 0.33704 0.03719 0.39959
 C219 C 0.27272 -0.01057 0.36927
 N220 N 0.25639 0.03395 0.35581
 N221 N 0.21766 0.03370 0.33659
 C222 C 0.19351 -0.01108 0.32999
 N223 N 0.20999 -0.05568 0.34332
 N224 N 0.24879 -0.05544 0.36254
 C225 C 0.14925 -0.01091 0.30935
 C226 C 0.12228 -0.05676 0.30374
 C227 C 0.07920 -0.05592 0.28531
 C228 C 0.06248 -0.00937 0.27211
 C229 C 0.08957 0.03626 0.27724
 C230 C 0.13259 0.03554 0.29566
 H231 H 0.31669 -0.09296 0.39892
 H232 H 0.38429 -0.09116 0.43628
 H233 H 0.39158 0.07519 0.42701
 H234 H 0.32424 0.07348 0.38971
 H235 H 0.13396 -0.09319 0.31391
 H236 H 0.05849 -0.09150 0.28170
 H237 H 0.07707 0.07273 0.26750
 H238 H 0.15235 0.07157 0.29946
   
