data_POSCAR
  _audit_creation_date              2014-09-24
  _audit_creation_method            'ToBaCCo'
  _symmetry_space_group_name_H-M    'P1'
  _symmetry_Int_Tables_number       1
  _symmetry_cell_setting            triclinic
  loop_
  _symmetry_equiv_pos_as_xyz
 x,y,z
_cell_length_a 18.3431
_cell_length_b 18.2595
_cell_length_c 18.0965
_cell_angle_alpha 90.340100
_cell_angle_beta 89.816200
_cell_angle_gamma 90.385800
loop_
  _atom_site_label
  _atom_site_type_symbol
  _atom_site_fract_x
  _atom_site_fract_y
  _atom_site_fract_z
C1 C 0.12696 0.55618 1.07429
 H2 H 0.11956 0.58480 1.02271
 C3 C 0.07019 0.55349 1.12554
 H4 H 0.01996 0.58173 1.11324
 C5 C 0.20047 0.48244 1.15085
 H6 H 0.25086 0.45345 1.15963
 C7 C 0.14575 0.48058 1.20499
 H8 H 0.15628 0.45344 1.25676
 N9 N 0.18918 0.51810 1.08608
 C10 C 0.37487 0.57372 0.94802
 H11 H 0.38079 0.52210 0.91904
 C12 C 0.43161 0.62481 0.94671
 H13 H 0.48030 0.61194 0.91543
 C14 C 0.30475 0.65101 1.02557
 H15 H 0.25550 0.66031 1.05716
 C16 C 0.35952 0.70488 1.02370
 H17 H 0.35010 0.75669 1.05117
 Zn18 Zn 0.25098 0.50474 1.00308
 N19 N 0.31435 0.58613 0.98961
 C20 C 0.20059 0.52910 0.85591
 N21 N 0.18986 0.49161 0.91987
 C22 C 0.12951 0.44920 0.93010
 C23 C 0.07414 0.44827 0.87764
 C24 C 0.14714 0.52785 0.80082
 C25 C 0.37148 0.43175 1.05750
 C26 C 0.42581 0.37887 1.05762
 C27 C 0.35000 0.30200 0.98034
 C28 C 0.29767 0.35743 0.97979
 N29 N 0.31035 0.42160 1.01636
 H30 H 0.24950 0.56161 0.84846
 H31 H 0.12250 0.41950 0.98121
 H32 H 0.02491 0.41700 0.88843
 H33 H 0.15684 0.55676 0.74980
 H34 H 0.37996 0.48300 1.08663
 H35 H 0.47576 0.38951 1.08768
 H36 H 0.33880 0.25087 0.95217
 H37 H 0.24814 0.34999 0.94839
 C38 C 0.42603 0.68982 0.98809
 C39 C 0.07772 0.51179 1.18996
 C40 C 0.41678 0.31480 1.01563
 C41 C 0.08127 0.49071 0.81380
 C42 C 0.86752 0.55386 -0.07433
 H43 H 0.87118 0.59035 -0.02715
 C44 C 0.92271 0.55374 -0.12735
 H45 H 0.96874 0.59068 -0.12092
 C46 C 0.80486 0.45872 -0.13788
 H47 H 0.75922 0.42110 -0.14103
 C48 C 0.85836 0.45801 -0.19324
 H49 H 0.85169 0.42192 -0.24018
 N50 N 0.81133 0.50523 -0.07917
 C51 C 0.64423 0.59581 0.06642
 H52 H 0.64883 0.56173 0.11479
 C53 C 0.59109 0.65014 0.06439
 H54 H 0.55684 0.65866 0.11253
 C55 C 0.67752 0.62018 -0.05752
 H56 H 0.70892 0.60568 -0.10603
 C57 C 0.62207 0.67182 -0.06328
 H58 H 0.61029 0.69365 -0.11719
 Zn59 Zn 0.74951 0.50060 0.00444
 N60 N 0.68753 0.58320 0.00662
 C61 C 0.80908 0.54352 0.14610
 N62 N 0.81216 0.49590 0.08795
 C63 C 0.86671 0.44614 0.08233
 C64 C 0.92299 0.44560 0.13391
 C65 C 0.86325 0.54322 0.20036
 C66 C 0.63065 0.42411 -0.04894
 C67 C 0.57507 0.37190 -0.04934
 C68 C 0.64033 0.30401 0.04310
 C69 C 0.69428 0.35861 0.04304
 N70 N 0.68755 0.41794 -0.00153
 H71 H 0.76627 0.58349 0.14973
 H72 H 0.86838 0.40916 0.03542
 H73 H 0.96753 0.40754 0.12635
 H74 H 0.85825 0.58011 0.24688
 H75 H 0.62681 0.47150 -0.08420
 H76 H 0.52854 0.37942 -0.08517
 H77 H 0.64722 0.25653 0.07750
 H78 H 0.74042 0.35436 0.07971
 C79 C 0.57960 0.68928 -0.00102
 C80 C 0.91986 0.50343 -0.18599
 C81 C 0.57809 0.31279 -0.00063
 C82 C 0.92322 0.49661 0.19218
 C83 C -0.05684 0.36435 0.41264
 H84 H -0.09427 0.36584 0.45894
 C85 C -0.05756 0.42026 0.36064
 H86 H -0.09633 0.46437 0.36728
 C87 C 0.04179 0.30722 0.35085
 H88 H 0.08142 0.26378 0.34811
 C89 C 0.04209 0.36170 0.29664
 H90 H 0.07983 0.35729 0.25097
 N91 N -0.00599 0.31074 0.40849
 C92 C -0.07884 0.13502 0.55349
 H93 H -0.03369 0.13403 0.59177
 C94 C -0.13256 0.08085 0.55691
 H95 H -0.12903 0.03853 0.59842
 C96 C -0.13528 0.18792 0.44904
 H97 H -0.13482 0.22854 0.40586
 C98 C -0.18976 0.13401 0.44995
 H99 H -0.23099 0.13362 0.40736
 Zn100 Zn 0.00087 0.24987 0.49275
 N101 N -0.08090 0.18697 0.50001
 C102 C -0.03045 0.30074 0.64010
 N103 N 0.00738 0.31271 0.57636
 C104 C 0.04843 0.37428 0.56732
 C105 C 0.04879 0.42883 0.62147
 C106 C -0.02979 0.35325 0.69673
 C107 C 0.08294 0.13603 0.43388
 C108 C 0.13543 0.08119 0.43414
 C109 C 0.18822 0.13639 0.54342
 C110 C 0.13487 0.19063 0.54089
 N111 N 0.08304 0.18870 0.48727
 H112 H -0.06218 0.25127 0.64691
 H113 H 0.07858 0.38232 0.51651
 H114 H 0.07965 0.47870 0.61204
 H115 H -0.05839 0.34208 0.74772
 H116 H 0.03996 0.13480 0.39309
 H117 H 0.13318 0.03798 0.39292
 H118 H 0.22703 0.13664 0.58827
 H119 H 0.13276 0.23206 0.58374
 C120 C -0.18786 0.07939 0.50392
 C121 C -0.00507 0.42151 0.30404
 C122 C 0.18787 0.08046 0.49012
 C123 C 0.00706 0.41970 0.68575
 C124 C 0.94135 0.63461 0.58350
 H125 H 0.90425 0.63138 0.53722
 C126 C 0.94145 0.57924 0.63606
 H127 H 0.90381 0.53360 0.63027
 C128 C 1.03890 0.69540 0.64436
 H129 H 1.07801 0.73983 0.64639
 C130 C 1.03966 0.64175 0.69923
 H131 H 1.07708 0.64744 0.74480
 N132 N 0.99139 0.68973 0.58692
 C133 C 0.91837 0.86313 0.44167
 H134 H 0.96311 0.86480 0.40265
 C135 C 0.86552 0.91755 0.44027
 H136 H 0.86903 0.96031 0.39916
 C137 C 0.86308 0.80950 0.54710
 H138 H 0.86389 0.76877 0.59015
 C139 C 0.80952 0.86357 0.54819
 H140 H 0.76935 0.86373 0.59203
 Zn141 Zn 0.99846 0.74941 0.50198
 N142 N 0.91652 0.81077 0.49477
 C143 C 0.97603 0.69885 0.35235
 N144 N 1.00668 0.68554 0.41934
 C145 C 1.04267 0.62212 0.43227
 C146 C 1.04338 0.56656 0.37937
 C147 C 0.97771 0.64529 0.29667
 C148 C 1.07935 0.86517 0.55983
 C149 C 1.13250 0.92002 0.55980
 C150 C 1.18679 0.86369 0.45181
 C151 C 1.13286 0.80940 0.45423
 N152 N 1.08008 0.81185 0.50711
 H153 H 0.94927 0.75023 0.34216
 H154 H 1.06868 0.61355 0.48503
 H155 H 1.07066 0.51578 0.39221
 H156 H 0.95478 0.65745 0.24317
 H157 H 1.03565 0.86662 0.60010
 H158 H 1.13013 0.96353 0.60066
 H159 H 1.22668 0.86282 0.40769
 H160 H 1.13132 0.76726 0.41204
 C161 C 0.81124 0.91869 0.49473
 C162 C 0.99327 0.58084 0.69269
 C163 C 1.18599 0.92013 0.50453
 C164 C 1.00716 0.57633 0.31202
 C165 C 0.41689 -0.06459 0.36305
 H166 H 0.46014 -0.10451 0.36509
 C167 C 0.36321 -0.06388 0.41767
 H168 H 0.36470 -0.10397 0.46150
 C169 C 0.36547 0.04006 0.30680
 H170 H 0.36812 0.08188 0.26487
 C171 C 0.31101 0.04304 0.36074
 H172 H 0.27191 0.08707 0.35969
 N173 N 0.41756 -0.01255 0.30969
 C174 C 0.55636 -0.08223 0.12882
 H175 H 0.59127 -0.03434 0.12584
 C176 C 0.55768 -0.13408 0.07210
 H177 H 0.59483 -0.12574 0.02631
 C178 C 0.46426 -0.14910 0.19150
 H179 H 0.42716 -0.15420 0.23767
 C180 C 0.46520 -0.20342 0.13659
 H181 H 0.43134 -0.25150 0.14353
 Zn182 Zn 0.50043 -0.00651 0.24874
 N183 N 0.50825 -0.08910 0.18559
 C184 C 0.63559 -0.05019 0.30961
 N185 N 0.58144 0.00034 0.31208
 C186 C 0.57923 0.05272 0.36572
 C187 C 0.63263 0.05542 0.42020
 C188 C 0.68972 -0.05001 0.36377
 C189 C 0.45010 0.06913 0.12773
 C190 C 0.44785 0.12385 0.07463
 C191 C 0.52978 0.19680 0.14934
 C192 C 0.53220 0.13966 0.20034
 N193 N 0.49369 0.07681 0.18787
 H194 H 0.63520 -0.09240 0.26750
 H195 H 0.53427 0.09074 0.36771
 H196 H 0.62911 0.09616 0.46380
 H197 H 0.73080 -0.09220 0.36287
 H198 H 0.41926 0.01903 0.11967
 H199 H 0.41511 0.11551 0.02556
 H200 H 0.55906 0.24708 0.16080
 H201 H 0.56567 0.14536 0.24897
 C202 C 0.50893 -0.19365 0.07354
 C203 C 0.31058 -0.00874 0.41741
 C204 C 0.49045 0.18714 0.08383
 C205 C 0.68777 0.00288 0.42009
 C206 C 0.58290 -0.05828 0.64046
 H207 H 0.54094 -0.10015 0.64241
 C208 C 0.63661 -0.06097 0.58593
 H209 H 0.63586 -0.10502 0.54559
 C210 C 0.63176 0.05316 0.68751
 H211 H 0.62810 0.09862 0.72584
 C212 C 0.68679 0.05240 0.63385
 H213 H 0.72528 0.09747 0.63121
 N214 N 0.58072 -0.00123 0.68897
 C215 C 0.43494 -0.09675 0.85258
 H216 H 0.38579 -0.06540 0.84470
 C217 C 0.43567 -0.15316 0.90434
 H218 H 0.38627 -0.16521 0.93496
 C219 C 0.56037 -0.11383 0.82739
 H220 H 0.60957 -0.09595 0.79964
 C221 C 0.56437 -0.16769 0.88156
 H222 H 0.61756 -0.18757 0.89652
 Zn223 Zn 0.49796 0.00276 0.75070
 N224 N 0.49625 -0.07968 0.81372
 C225 C 0.36709 -0.05118 0.68345
 N226 N 0.41654 0.00470 0.68666
 C227 C 0.41456 0.06079 0.63758
 C228 C 0.36139 0.06223 0.58272
 C229 C 0.31259 -0.05150 0.62981
 C230 C 0.55300 0.08440 0.86644
 C231 C 0.55399 0.13747 0.92192
 C232 C 0.45332 0.19757 0.86248
 C233 C 0.45310 0.14223 0.80865
 N234 N 0.50165 0.08631 0.81256
 H235 H 0.37167 -0.09745 0.71982
 H236 H 0.45609 0.10310 0.63950
 H237 H 0.36199 0.10582 0.54238
 H238 H 0.27535 -0.09758 0.62647
 H239 H 0.59121 0.03961 0.86809
 H240 H 0.59307 0.13309 0.96641
 H241 H 0.41526 0.24206 0.85795
 H242 H 0.41286 0.14307 0.76526
 C243 C 0.50090 -0.19004 0.91900
 C244 C 0.68852 -0.00465 0.58177
 C245 C 0.50177 0.19301 0.92191
 C246 C 0.31003 0.00541 0.57847
 Si247 Si 0.24846 -0.00012 0.49767
 Si248 Si 0.75001 -0.00104 0.50033
 Si249 Si 0.49614 0.25237 1.00563
 Si250 Si 0.50357 0.74859 -0.00550
 Si251 Si 1.00139 0.50166 0.24938
 Si252 Si 0.00080 0.49809 0.75172
   
