data_POSCAR
  _audit_creation_date              2014-09-24
  _audit_creation_method            'ToBaCCo'
  _symmetry_space_group_name_H-M    'P1'
  _symmetry_Int_Tables_number       1
  _symmetry_cell_setting            triclinic
  loop_
  _symmetry_equiv_pos_as_xyz
 x,y,z
_cell_length_a 40.9792
_cell_length_b 37.5397
_cell_length_c 37.6284
_cell_angle_alpha 92.815000
_cell_angle_beta 90.950800
_cell_angle_gamma 92.144100
loop_
  _atom_site_label
  _atom_site_type_symbol
  _atom_site_fract_x
  _atom_site_fract_y
  _atom_site_fract_z
C1 C 0.60391 0.64489 0.60674
 C2 C 0.63595 0.63597 0.59857
 C3 C 0.65185 0.61173 0.61858
 C4 C 0.63599 0.59618 0.64701
 C5 C 0.60444 0.60486 0.65503
 C6 C 0.58821 0.62933 0.63471
 C7 C 0.58310 0.66896 0.59311
 N8 N 0.55516 0.66812 0.61196
 C9 C 0.55812 0.64419 0.63763
 C10 C 0.59550 0.58609 0.68407
 N11 N 0.62116 0.56676 0.69458
 C12 C 0.64578 0.57246 0.67135
 C13 C 0.68245 0.60801 0.60470
 N14 N 0.68557 0.62970 0.57704
 C15 C 0.65719 0.64668 0.57285
 H16 H 0.58821 0.68659 0.57180
 H17 H 0.54017 0.63906 0.65772
 H18 H 0.57149 0.58557 0.69565
 H19 H 0.66966 0.56112 0.67263
 H20 H 0.70096 0.59050 0.61366
 H21 H 0.65236 0.66516 0.55237
 C22 C 0.90293 0.34617 0.10045
 C23 C 0.87412 0.35714 0.08441
 C24 C 0.85668 0.38401 0.10072
 C25 C 0.86746 0.39971 0.13359
 C26 C 0.89560 0.38849 0.14969
 C27 C 0.91371 0.36181 0.13271
 C28 C 0.92522 0.32144 0.09016
 N29 N 0.95010 0.32229 0.11475
 C30 C 0.94261 0.34652 0.14131
 C31 C 0.89979 0.40805 0.18149
 N32 N 0.87476 0.43064 0.18509
 C33 C 0.85531 0.42622 0.15548
 C34 C 0.83012 0.38947 0.07913
 N35 N 0.83126 0.36685 0.04996
 C36 C 0.85786 0.34664 0.05311
 H37 H 0.92265 0.30326 0.06697
 H38 H 0.95760 0.35359 0.16473
 H39 H 0.91956 0.40602 0.20064
 H40 H 0.83401 0.44145 0.15012
 H41 H 0.81124 0.40840 0.08421
 H42 H 0.86467 0.32575 0.03410
 C43 C 0.38914 0.15220 -0.10522
 C44 C 0.35934 0.13825 -0.09319
 C45 C 0.34591 0.10667 -0.10858
 C46 C 0.36225 0.08855 -0.13603
 C47 C 0.39149 0.10245 -0.14811
 C48 C 0.40514 0.13443 -0.13250
 C49 C 0.40825 0.18183 -0.09459
 N50 N 0.43572 0.18206 -0.11428
 C51 C 0.43385 0.15350 -0.13789
 C52 C 0.40165 0.07932 -0.17483
 N53 N 0.37976 0.05112 -0.17868
 C54 C 0.35529 0.05704 -0.15531
 C55 C 0.31735 0.09914 -0.09124
 N56 N 0.31326 0.12545 -0.06588
 C57 C 0.33885 0.14934 -0.06658
 H58 H 0.40284 0.20159 -0.07381
 H59 H 0.45233 0.14683 -0.15709
 H60 H 0.42387 0.08239 -0.18975
 H61 H 0.33332 0.04036 -0.15329
 H62 H 0.30091 0.07614 -0.09631
 H63 H 0.34227 0.17288 -0.04891
 C64 C 0.10331 0.85359 0.38882
 C65 C 0.13601 0.86241 0.39801
 C66 C 0.15211 0.89063 0.38259
 C67 C 0.13550 0.91067 0.35799
 C68 C 0.10333 0.90185 0.34894
 C69 C 0.08709 0.87320 0.36450
 C70 C 0.08165 0.82751 0.39944
 N71 N 0.05226 0.83136 0.38288
 C72 C 0.05570 0.85906 0.36102
 C73 C 0.09340 0.92563 0.32478
 N74 N 0.11838 0.94970 0.31950
 C75 C 0.14447 0.94006 0.33938
 C76 C 0.18328 0.89333 0.39703
 N77 N 0.18644 0.86738 0.42069
 C78 C 0.15741 0.84879 0.42185
 H79 H 0.08677 0.80760 0.41843
 H80 H 0.03715 0.86750 0.34275
 H81 H 0.06996 0.92432 0.31101
 H82 H 0.16812 0.95393 0.34112
 H83 H 0.20212 0.91308 0.39125
 H84 H 0.15197 0.82754 0.43952
 N85 N 0.10069 0.19887 0.11415
 N86 N 0.08578 0.18458 0.14091
 C87 C 0.05691 0.19996 0.14562
 C88 C 0.05349 0.22520 0.12030
 C89 C 0.08218 0.22432 0.10133
 H90 H 0.03971 0.19336 0.16601
 H91 H 0.08923 0.24104 0.07993
 Cu92 Cu 0.10609 0.14818 0.16771
 Cu93 Cu 0.14257 0.18261 0.09766
 Cu94 Cu 0.16151 0.09866 0.12525
 N95 N 0.11831 0.10255 0.18452
 N96 N 0.13867 0.08236 0.16690
 C97 C 0.14160 0.05169 0.18360
 C98 C 0.12178 0.05262 0.21310
 C99 C 0.10790 0.08570 0.21317
 H100 H 0.15731 0.03045 0.17524
 H101 H 0.09171 0.09689 0.23282
 N102 N 0.18212 0.12074 0.08422
 N103 N 0.17530 0.15295 0.07434
 C104 C 0.19329 0.16072 0.04595
 C105 C 0.21226 0.13198 0.03749
 C106 C 0.20497 0.10732 0.06254
 H107 H 0.19270 0.18545 0.03241
 H108 H 0.21558 0.08156 0.06466
 H109 H 0.12588 0.13243 0.10883
 H110 H 0.15946 0.15173 0.13866
 N111 N 0.41298 0.80306 0.59385
 N112 N 0.42577 0.81671 0.62402
 C113 C 0.45102 0.79709 0.63358
 C114 C 0.45387 0.76944 0.60836
 C115 C 0.42962 0.77428 0.58325
 H116 H 0.46601 0.80209 0.65735
 H117 H 0.42441 0.75793 0.55921
 Cu118 Cu 0.40779 0.85825 0.64833
 Cu119 Cu 0.37466 0.82247 0.57166
 Cu120 Cu 0.34038 0.89465 0.61619
 N121 N 0.38847 0.89891 0.67278
 N122 N 0.36241 0.91344 0.65977
 C123 C 0.35449 0.94131 0.68141
 C124 C 0.37658 0.94401 0.70956
 C125 C 0.39782 0.91683 0.70338
 H126 H 0.33405 0.95813 0.67726
 H127 H 0.41849 0.91076 0.71995
 N128 N 0.32177 0.87201 0.57165
 N129 N 0.33567 0.84568 0.55383
 C130 C 0.31767 0.83674 0.52423
 C131 C 0.29053 0.85762 0.52398
 C132 C 0.29428 0.88005 0.55417
 H133 H 0.32383 0.81651 0.50428
 H134 H 0.27791 0.90055 0.56281
 H135 H 0.38142 0.87403 0.59297
 H136 H 0.35554 0.84274 0.61860
 N137 N 0.90302 0.69714 0.39682
 N138 N 0.91510 0.68216 0.36783
 C139 C 0.94077 0.70234 0.35751
 C140 C 0.94453 0.73175 0.38093
 C141 C 0.92036 0.72753 0.40569
 H142 H 0.95604 0.69594 0.33511
 H143 H 0.91654 0.74462 0.42912
 Cu144 Cu 0.89683 0.63710 0.34723
 Cu145 Cu 0.86759 0.67467 0.42255
 Cu146 Cu 0.83710 0.59231 0.38838
 N147 N 0.87812 0.59200 0.32720
 N148 N 0.85607 0.57373 0.34447
 C149 C 0.84829 0.54305 0.32574
 C150 C 0.86559 0.54251 0.29441
 C151 C 0.88468 0.57380 0.29657
 H152 H 0.83137 0.52259 0.33439
 H153 H 0.90201 0.58255 0.27716
 N154 N 0.82085 0.61586 0.43220
 N155 N 0.83195 0.64754 0.44480
 C156 C 0.81479 0.65718 0.47371
 C157 C 0.79206 0.63012 0.47980
 C158 C 0.79631 0.60458 0.45275
 H159 H 0.81788 0.68242 0.48873
 H160 H 0.78201 0.57996 0.44807
 H161 H 0.87764 0.62304 0.40611
 H162 H 0.84637 0.64559 0.37946
 N163 N 0.58871 0.31580 -0.10357
 N164 N 0.57062 0.33643 -0.12235
 C165 C 0.54047 0.32112 -0.12673
 C166 C 0.53954 0.28948 -0.10929
 C167 C 0.57075 0.28671 -0.09541
 H168 H 0.52066 0.33208 -0.14150
 H169 H 0.57977 0.26493 -0.08075
 Cu170 Cu 0.58802 0.38121 -0.13961
 Cu171 Cu 0.63381 0.32851 -0.09016
 Cu172 Cu 0.66864 0.40148 -0.12936
 N173 N 0.60960 0.41845 -0.16592
 N174 N 0.64120 0.42552 -0.16248
 C175 C 0.64974 0.45194 -0.18375
 C176 C 0.62199 0.46226 -0.20108
 C177 C 0.59690 0.44038 -0.18941
 H178 H 0.67422 0.46327 -0.18610
 H179 H 0.57146 0.44038 -0.19751
 N180 N 0.69234 0.37382 -0.09494
 N181 N 0.67907 0.34587 -0.07996
 C182 C 0.70046 0.33419 -0.05601
 C183 C 0.72866 0.35562 -0.05618
 C184 C 0.72246 0.38070 -0.08089
 H185 H 0.69553 0.31257 -0.03867
 H186 H 0.73814 0.40341 -0.08673
 H187 H 0.63272 0.38299 -0.09586
 H188 H 0.64087 0.35434 -0.13677
 C189 C -0.00886 0.28796 0.08225
 C190 C -0.02337 0.30093 0.11441
 C191 C -0.01092 0.28967 0.14690
 C192 C 0.01343 0.26493 0.14797
 C193 C 0.02629 0.24993 0.11670
 C194 C 0.01434 0.26055 0.08336
 C195 C -0.01511 0.30301 0.04921
 C196 C -0.00304 0.28797 0.01772
 C197 C 0.01595 0.25811 0.01848
 C198 C 0.02474 0.24452 0.05093
 H199 H -0.02851 0.32710 0.04734
 H200 H -0.00860 0.29945 -0.00741
 H201 H 0.02453 0.24590 -0.00612
 H202 H 0.03944 0.22123 0.05017
 H203 H -0.02101 0.29884 0.17196
 H204 H 0.02232 0.25743 0.17373
 C205 C 0.49616 0.67979 0.60330
 C206 C 0.52898 0.69223 0.60879
 C207 C 0.53618 0.72891 0.61307
 C208 C 0.51145 0.75328 0.61286
 C209 C 0.47868 0.74178 0.60806
 C210 C 0.47067 0.70467 0.60351
 C211 C 0.48819 0.64309 0.59737
 C212 C 0.45573 0.63093 0.59322
 C213 C 0.43071 0.65499 0.59498
 C214 C 0.43797 0.69150 0.60017
 H215 H 0.50691 0.62355 0.59564
 H216 H 0.44993 0.60267 0.58885
 H217 H 0.40553 0.64533 0.59227
 H218 H 0.41769 0.70902 0.60194
 H219 H 0.56122 0.73863 0.61740
 H220 H 0.51798 0.78148 0.61644
 C221 C 0.99279 0.82136 0.38442
 C222 C 1.02529 0.80895 0.38511
 C223 C 1.02971 0.77209 0.38654
 C224 C 1.00328 0.74773 0.38453
 C225 C 0.97133 0.75921 0.38195
 C226 C 0.96573 0.79622 0.38190
 C227 C 0.98636 0.85805 0.38864
 C228 C 0.95451 0.86976 0.38690
 C229 C 0.92837 0.84527 0.38168
 C230 C 0.93377 0.80881 0.37942
 H231 H 1.00560 0.87804 0.39444
 H232 H 0.95008 0.89799 0.38983
 H233 H 0.90371 0.85454 0.38005
 H234 H 0.91270 0.79071 0.37583
 H235 H 1.05401 0.76173 0.38725
 H236 H 1.00784 0.71951 0.38503
 C237 C 0.47890 0.21725 -0.07885
 C238 C 0.46197 0.20862 -0.11146
 C239 C 0.47031 0.22692 -0.14171
 C240 C 0.49489 0.25359 -0.14016
 C241 C 0.51194 0.26289 -0.10826
 C242 C 0.50333 0.24540 -0.07690
 C243 C 0.47248 0.19810 -0.04822
 C244 C 0.48811 0.20794 -0.01585
 C245 C 0.51034 0.23692 -0.01336
 C246 C 0.51791 0.25558 -0.04347
 H247 H 0.45567 0.17519 -0.04898
 H248 H 0.48275 0.19318 0.00750
 H249 H 0.52190 0.24489 0.01201
 H250 H 0.53482 0.27829 -0.04002
 H251 H 0.45749 0.22049 -0.16674
 H252 H 0.50107 0.26664 -0.16434
 C253 C 0.08947 -0.00492 0.28758
 C254 C 0.11828 -0.02322 0.29620
 C255 C 0.14716 -0.01450 0.27831
 C256 C 0.14747 0.00951 0.25131
 C257 C 0.11893 0.02565 0.24061
 C258 C 0.08929 0.01753 0.25803
 C259 C 0.06137 -0.00646 0.30885
 C260 C 0.03255 0.00888 0.29828
 C261 C 0.03124 0.02656 0.26673
 C262 C 0.05930 0.03105 0.24678
 H263 H 0.06153 -0.01859 0.33429
 H264 H 0.01108 0.00683 0.31455
 H265 H 0.00857 0.03757 0.25808
 H266 H 0.05707 0.04486 0.22241
 H267 H 0.16964 -0.02749 0.28401
 H268 H 0.17043 0.01551 0.23863
 C269 C 0.60465 0.54940 -0.24579
 C270 C 0.62172 0.54358 -0.27829
 C271 C 0.63948 0.51233 -0.28278
 C272 C 0.63892 0.48648 -0.25762
 C273 C 0.62031 0.49039 -0.22706
 C274 C 0.60303 0.52199 -0.22070
 C275 C 0.59172 0.58280 -0.23592
 C276 C 0.57477 0.58781 -0.20436
 C277 C 0.57133 0.56024 -0.18123
 C278 C 0.58574 0.52781 -0.18890
 H279 H 0.59571 0.60594 -0.25142
 H280 H 0.56477 0.61349 -0.19750
 H281 H 0.55834 0.56440 -0.15664
 H282 H 0.58378 0.50779 -0.16929
 H283 H 0.65293 0.50686 -0.30682
 H284 H 0.65275 0.46271 -0.26241
 C285 C 0.37042 0.98786 0.80300
 C286 C 0.38080 1.02357 0.79614
 C287 C 0.39134 1.03094 0.76178
 C288 C 0.38933 1.00495 0.73411
 C289 C 0.37746 0.97042 0.73987
 C290 C 0.36807 0.96142 0.77440
 C291 C 0.36463 0.97705 0.83788
 C292 C 0.35392 0.94221 0.84394
 C293 C 0.34952 0.91716 0.81564
 C294 C 0.35677 0.92645 0.78118
 H295 H 0.36932 0.99485 0.86097
 H296 H 0.34932 0.93453 0.87081
 H297 H 0.34111 0.89019 0.82052
 H298 H 0.35373 0.90595 0.76003
 H299 H 0.39958 1.05765 0.75569
 H300 H 0.39699 1.01191 0.70783
 C301 C 0.84056 0.46337 0.22952
 C302 C 0.87119 0.45698 0.21383
 C303 C 0.89854 0.47827 0.22508
 C304 C 0.89601 0.50580 0.25087
 C305 C 0.86586 0.51369 0.26586
 C306 C 0.83747 0.49314 0.25416
 C307 C 0.81295 0.44057 0.22162
 C308 C 0.78240 0.44877 0.23479
 C309 C 0.77877 0.47972 0.25596
 C310 C 0.80593 0.50181 0.26553
 H311 H 0.81469 0.41602 0.20565
 H312 H 0.76137 0.43126 0.22815
 H313 H 0.75483 0.48654 0.26525
 H314 H 0.80165 0.52599 0.28119
 H315 H 0.92210 0.47377 0.21341
 H316 H 0.91801 0.52101 0.25929
 C317 C 0.25498 0.13445 -0.05222
 C318 C 0.28703 0.12693 -0.04119
 C319 C 0.29352 0.12047 -0.00556
 C320 C 0.26875 0.12138 0.01929
 C321 C 0.23683 0.12924 0.00927
 C322 C 0.22952 0.13533 -0.02690
 C323 C 0.24784 0.14145 -0.08793
 C324 C 0.21604 0.14819 -0.09873
 C325 C 0.19091 0.14797 -0.07429
 C326 C 0.19744 0.14153 -0.03871
 H327 H 0.26670 0.14185 -0.10771
 H328 H 0.21083 0.15339 -0.12625
 H329 H 0.16621 0.15280 -0.08293
 H330 H 0.17707 0.14103 -0.02084
 H331 H 0.31805 0.11462 0.00294
 H332 H 0.27469 0.11662 0.04678
 C333 C 0.74496 0.64088 0.56682
 C334 C 0.71299 0.63152 0.55382
 C335 C 0.70792 0.62227 0.51766
 C336 C 0.73393 0.62157 0.49439
 C337 C 0.76590 0.63029 0.50649
 C338 C 0.77177 0.63958 0.54315
 C339 C 0.75077 0.65192 0.60281
 C340 C 0.78244 0.65984 0.61565
 C341 C 0.80881 0.65689 0.59300
 C342 C 0.80367 0.64680 0.55712
 H343 H 0.73096 0.65483 0.62123
 H344 H 0.78658 0.66810 0.64338
 H345 H 0.83339 0.66253 0.60327
 H346 H 0.82494 0.64430 0.54075
 H347 H 0.68356 0.61500 0.50753
 H348 H 0.72896 0.61448 0.46652
 C349 C 0.81468 0.36660 -0.01422
 C350 C 0.80684 0.36322 0.02203
 C351 C 0.77441 0.35610 0.03125
 C352 C 0.74973 0.35253 0.00538
 C353 C 0.75663 0.35601 -0.03066
 C354 C 0.78951 0.36207 -0.04089
 C355 C 0.84687 0.37514 -0.02450
 C356 C 0.85450 0.37714 -0.06033
 C357 C 0.83030 0.37077 -0.08649
 C358 C 0.79811 0.36327 -0.07702
 H359 H 0.86636 0.38066 -0.00509
 H360 H 0.87935 0.38346 -0.06785
 H361 H 0.83649 0.37179 -0.11429
 H362 H 0.78027 0.35795 -0.09827
 H363 H 0.76821 0.35344 0.05889
 H364 H 0.72482 0.34798 0.01378
 C365 C 0.22597 0.82940 0.45143
 C366 C 0.21419 0.86338 0.44403
 C367 C 0.22825 0.89385 0.46197
 C368 C 0.25286 0.89119 0.48750
 C369 C 0.26394 0.85789 0.49664
 C370 C 0.24976 0.82642 0.47917
 C371 C 0.21476 0.79829 0.43166
 C372 C 0.22442 0.76474 0.44096
 C373 C 0.24526 0.76155 0.47007
 C374 C 0.25777 0.79196 0.48914
 H375 H 0.19879 0.79957 0.40865
 H376 H 0.21535 0.74108 0.42579
 H377 H 0.25194 0.73536 0.47782
 H378 H 0.27307 0.78792 0.51207
 H379 H 0.21957 0.91999 0.45670
 H380 H 0.26326 0.91556 0.50035
   
