data_POSCAR
  _audit_creation_date              2014-09-24
  _audit_creation_method            'ToBaCCo'
  _symmetry_space_group_name_H-M    'P1'
  _symmetry_Int_Tables_number       1
  _symmetry_cell_setting            triclinic
  loop_
  _symmetry_equiv_pos_as_xyz
 x,y,z
_cell_length_a 50.9143
_cell_length_b 51.1078
_cell_length_c 48.9851
_cell_angle_alpha 90.120100
_cell_angle_beta 88.570500
_cell_angle_gamma 90.047200
loop_
  _atom_site_label
  _atom_site_type_symbol
  _atom_site_fract_x
  _atom_site_fract_y
  _atom_site_fract_z
C1 C 0.26704 0.25484 0.24015
 N2 N 0.24813 0.27354 0.24059
 C3 C 0.22828 0.27281 0.25961
 N4 N 0.22737 0.25319 0.27828
 C5 C 0.24624 0.23439 0.27796
 N6 N 0.26603 0.23528 0.25886
 C7 C 0.73582 -0.25325 0.22130
 N8 N 0.75456 -0.27219 0.22112
 C9 C 0.77405 -0.27165 0.23959
 N10 N 0.77468 -0.25201 0.25830
 C11 C 0.75608 -0.23300 0.25861
 N12 N 0.73670 -0.23369 0.24010
 C13 C 0.73263 0.25453 0.76089
 N14 N 0.75147 0.27333 0.76040
 C15 C 0.77121 0.27276 0.74122
 N16 N 0.77201 0.25313 0.72244
 C17 C 0.75323 0.23421 0.72282
 N18 N 0.73358 0.23498 0.74208
 C19 C 0.26416 -0.25283 0.77754
 N20 N 0.24542 -0.27180 0.77764
 C21 C 0.22589 -0.27119 0.75926
 N22 N 0.22515 -0.25152 0.74071
 C23 C 0.24375 -0.23249 0.74047
 N24 N 0.26321 -0.23321 0.75890
 C25 C 0.73429 -0.25506 0.76367
 N26 N 0.75316 -0.27386 0.76346
 C27 C 0.77295 -0.27358 0.74431
 N28 N 0.77377 -0.25429 0.72522
 C29 C 0.75500 -0.23539 0.72529
 N30 N 0.73534 -0.23586 0.74454
 C31 C 0.26785 0.25419 0.77229
 N32 N 0.24922 0.27321 0.77214
 C33 C 0.22794 0.27068 0.75614
 N34 N 0.22550 0.24921 0.74001
 C35 C 0.24439 0.23046 0.73953
 N36 N 0.26544 0.23295 0.75583
 C37 C 0.26475 -0.25504 0.23490
 N38 N 0.26375 -0.23581 0.25409
 C39 C 0.24407 -0.23529 0.27331
 N40 N 0.22523 -0.25414 0.27330
 C41 C 0.22601 -0.27346 0.25415
 N42 N 0.24582 -0.27380 0.23502
 C43 C 0.73168 0.25472 0.22937
 N44 N 0.75027 0.27380 0.22969
 C45 C 0.77172 0.27123 0.24547
 N46 N 0.77427 0.24956 0.26125
 C47 C 0.75539 0.23076 0.26160
 N48 N 0.73424 0.23335 0.24550
 O49 O 0.21788 0.02379 0.48043
 O50 O 0.21778 -0.02762 0.53309
 O51 O 0.21752 0.02340 0.53353
 O52 O 0.21778 -0.02743 0.48003
 O53 O 0.26119 -0.02723 0.47899
 O54 O 0.26093 0.02338 0.53263
 O55 O 0.26120 -0.02733 0.53220
 O56 O 0.26129 0.02367 0.47938
 Cu57 Cu 0.21337 -0.00197 0.50682
 Cu58 Cu 0.26550 -0.00186 0.50566
 C59 C 0.23964 0.03250 0.47100
 C60 C 0.23951 -0.03614 0.54165
 C61 C 0.23919 0.03196 0.54224
 C62 C 0.23953 -0.03604 0.47048
 O63 O 0.78172 0.02375 0.51937
 O64 O 0.78190 -0.02770 0.46651
 O65 O 0.78221 0.02333 0.46626
 O66 O 0.78182 -0.02748 0.51956
 O67 O 0.73841 -0.02732 0.52052
 O68 O 0.73880 0.02327 0.46707
 O69 O 0.73849 -0.02745 0.46731
 O70 O 0.73831 0.02358 0.52033
 Cu71 Cu 0.78628 -0.00202 0.49288
 Cu72 Cu 0.73415 -0.00196 0.49394
 C73 C 0.75995 0.03243 0.52879
 C74 C 0.76019 -0.03626 0.45788
 C75 C 0.76057 0.03186 0.45753
 C76 C 0.76004 -0.03610 0.52903
 O77 O 0.47422 0.23831 0.02765
 O78 O 0.52566 0.23823 -0.02634
 O79 O 0.52520 0.23868 0.02693
 O80 O 0.47467 0.23858 -0.02562
 O81 O 0.47463 0.28181 -0.02554
 O82 O 0.52529 0.28191 0.02689
 O83 O 0.52593 0.28146 -0.02626
 O84 O 0.47401 0.28155 0.02760
 Cu85 Cu 0.49994 0.23412 0.00065
 Cu86 Cu 0.49997 0.28603 0.00067
 C87 C 0.46535 0.25990 0.03682
 C88 C 0.53456 0.25979 -0.03549
 C89 C 0.53382 0.26032 0.03587
 C90 C 0.46606 0.26018 -0.03453
 O91 O 0.52551 0.76397 0.02542
 O92 O 0.47417 0.76405 -0.02609
 O93 O 0.47445 0.76397 0.02712
 O94 O 0.52521 0.76402 -0.02779
 O95 O 0.52533 0.72078 -0.02779
 O96 O 0.47424 0.72074 0.02683
 O97 O 0.47396 0.72081 -0.02614
 O98 O 0.52563 0.72073 0.02518
 Cu99 Cu 0.49984 0.76834 -0.00032
 Cu100 Cu 0.49979 0.71642 -0.00049
 C101 C 0.53439 0.74236 0.03398
 C102 C 0.46526 0.74246 -0.03481
 C103 C 0.46563 0.74235 0.03622
 C104 C 0.53398 0.74241 -0.03705
 O105 O 0.02620 0.47351 0.22958
 O106 O -0.02589 0.52311 0.22523
 O107 O 0.02536 0.52415 0.22806
 O108 O -0.02452 0.47192 0.22683
 O109 O -0.02968 0.47500 0.27165
 O110 O 0.02264 0.52483 0.27314
 O111 O -0.02803 0.52568 0.27026
 O112 O 0.02165 0.47364 0.27456
 Cu113 Cu 0.00055 0.49809 0.22288
 Cu114 Cu -0.00365 0.49983 0.27695
 C115 C 0.03261 0.46497 0.25279
 C116 C -0.03557 0.53308 0.24702
 C117 C 0.03268 0.53318 0.25082
 C118 C -0.03578 0.46481 0.24902
 O119 O 0.02408 0.52312 0.77407
 O120 O -0.02801 0.47337 0.77006
 O121 O 0.02276 0.47193 0.77297
 O122 O -0.02713 0.52402 0.77115
 O123 O -0.02426 0.52421 0.72607
 O124 O 0.02787 0.47429 0.72811
 O125 O -0.02342 0.47299 0.72509
 O126 O 0.02643 0.52499 0.72901
 Cu127 Cu -0.00236 0.49807 0.77660
 Cu128 Cu 0.00195 0.49911 0.72253
 C129 C 0.03389 0.53274 0.75220
 C130 C -0.03441 0.46456 0.74692
 C131 C 0.03399 0.46448 0.75087
 C132 C -0.03436 0.53281 0.74830
 C133 C 0.32727 0.25708 0.18060
 N134 N 0.32441 0.23603 0.19728
 N135 N 0.30533 0.23537 0.21638
 C136 C 0.28832 0.25568 0.21938
 N137 N 0.29116 0.27671 0.20268
 N138 N 0.31033 0.27743 0.18369
 C139 C 0.34816 0.25772 0.15941
 N140 N 0.35295 0.27985 0.14482
 N141 N 0.37180 0.28036 0.12546
 C142 C 0.38643 0.25871 0.11989
 N143 N 0.38161 0.23658 0.13446
 N144 N 0.36287 0.23611 0.15392
 C145 C 0.40700 0.25913 0.09836
 N146 N 0.41923 0.23667 0.09045
 N147 N 0.43778 0.23695 0.07079
 C148 C 0.44486 0.25971 0.05841
 N149 N 0.43270 0.28219 0.06636
 N150 N 0.41404 0.28189 0.08593
 C151 C 0.67632 0.74482 0.16624
 N152 N 0.67835 0.76501 0.18410
 N153 N 0.69763 0.76559 0.20197
 C154 C 0.71573 0.74610 0.20253
 N155 N 0.71374 0.72594 0.18456
 N156 N 0.69434 0.72528 0.16680
 C157 C 0.65497 0.74422 0.14666
 N158 N 0.65048 0.72248 0.13149
 N159 N 0.63102 0.72198 0.11379
 C160 C 0.61547 0.74326 0.11053
 N161 N 0.62002 0.76501 0.12565
 N162 N 0.63936 0.76545 0.14346
 C163 C 0.59421 0.74290 0.09084
 N164 N 0.58137 0.76529 0.08460
 N165 N 0.56227 0.76508 0.06652
 C166 C 0.55519 0.74245 0.05415
 N167 N 0.56793 0.72002 0.06048
 N168 N 0.58715 0.72026 0.07845
 C169 C 0.67263 0.25667 -0.17930
 N170 N 0.67546 0.23559 -0.19603
 N171 N 0.69449 0.23495 -0.21520
 C172 C 0.71146 0.25530 -0.21821
 N173 N 0.70864 0.27636 -0.20145
 N174 N 0.68953 0.27706 -0.18239
 C175 C 0.65177 0.25732 -0.15807
 N176 N 0.64698 0.27948 -0.14346
 N177 N 0.62815 0.28003 -0.12408
 C178 C 0.61352 0.25838 -0.11853
 N179 N 0.61833 0.23621 -0.13312
 N180 N 0.63707 0.23570 -0.15259
 C181 C 0.59294 0.25884 -0.09700
 N182 N 0.58069 0.23641 -0.08912
 N183 N 0.56213 0.23674 -0.06947
 C184 C 0.55505 0.25954 -0.05708
 N185 N 0.56724 0.28200 -0.06501
 N186 N 0.58591 0.28165 -0.08457
 C187 C 0.32369 0.74517 -0.16745
 N188 N 0.30567 0.72560 -0.16816
 N189 N 0.28628 0.72629 -0.18592
 C190 C 0.28428 0.74649 -0.20373
 N191 N 0.30238 0.76601 -0.20303
 N192 N 0.32166 0.76541 -0.18517
 C193 C 0.34501 0.74454 -0.14785
 N194 N 0.36063 0.76578 -0.14445
 N195 N 0.37992 0.76532 -0.12659
 C196 C 0.38441 0.74354 -0.11161
 N197 N 0.36886 0.72225 -0.11507
 N198 N 0.34946 0.72277 -0.13282
 C199 C 0.40561 0.74314 -0.09185
 N200 N 0.41259 0.72047 -0.07959
 N201 N 0.43176 0.72020 -0.06156
 C202 C 0.44451 0.74261 -0.05503
 N203 N 0.43749 0.76527 -0.06726
 N204 N 0.41845 0.76552 -0.08541
 C205 C 0.16998 0.33036 0.25934
 N206 N 0.17105 0.31298 0.28022
 N207 N 0.18960 0.29459 0.28034
 C208 C 0.20782 0.29303 0.25968
 N209 N 0.20679 0.31048 0.23888
 N210 N 0.18817 0.32875 0.23868
 C211 C 0.14945 0.35047 0.25886
 N212 N 0.14644 0.36536 0.23625
 N213 N 0.12777 0.38355 0.23556
 C214 C 0.11150 0.38763 0.25752
 N215 N 0.11453 0.37281 0.28020
 N216 N 0.13314 0.35450 0.28083
 C217 C 0.09093 0.40769 0.25652
 N218 N 0.07673 0.41443 0.27930
 N219 N 0.05816 0.43275 0.27821
 C220 C 0.05305 0.44485 0.25427
 N221 N 0.06721 0.43805 0.23151
 N222 N 0.08585 0.41986 0.23264
 C223 C 0.16856 0.67024 0.75861
 N224 N 0.17049 0.68796 0.73807
 N225 N 0.18869 0.70667 0.73838
 C226 C 0.20576 0.70824 0.75916
 N227 N 0.20390 0.69048 0.77970
 N228 N 0.18557 0.67185 0.77947
 C229 C 0.14849 0.64964 0.75806
 N230 N 0.14383 0.63411 0.78012
 N231 N 0.12552 0.61548 0.77947
 C232 C 0.11136 0.61161 0.75668
 N233 N 0.11609 0.62710 0.73463
 N234 N 0.13426 0.64582 0.73533
 C235 C 0.09129 0.59104 0.75571
 N236 N 0.08004 0.58484 0.73172
 N237 N 0.06183 0.56619 0.73065
 C238 C 0.05406 0.55316 0.75357
 N239 N 0.06524 0.55938 0.77762
 N240 N 0.08360 0.57795 0.77865
 C241 C -0.16964 0.67088 0.24000
 N242 N -0.17015 0.68993 0.25933
 N243 N -0.18833 0.70863 0.25906
 C244 C -0.20683 0.70888 0.23957
 N245 N -0.20635 0.68976 0.22024
 N246 N -0.18802 0.67115 0.22040
 C247 C -0.14963 0.65025 0.24058
 N248 N -0.14608 0.63359 0.21917
 N249 N -0.12784 0.61492 0.21986
 C250 C -0.11267 0.61214 0.24208
 N251 N -0.11630 0.62875 0.26349
 N252 N -0.13438 0.64751 0.26271
 C253 C -0.09271 0.59150 0.24316
 N254 N -0.08090 0.58605 0.26701
 N255 N -0.06279 0.56735 0.26820
 C256 C -0.05566 0.55353 0.24552
 N257 N -0.06739 0.55902 0.22160
 N258 N -0.08567 0.57761 0.22046
 C259 C -0.17177 0.32965 0.74108
 N260 N -0.19099 0.32922 0.76077
 N261 N -0.20954 0.31085 0.76069
 C262 C -0.20948 0.29208 0.74102
 N263 N -0.19021 0.29250 0.72132
 N264 N -0.17174 0.31100 0.72130
 C265 C -0.15128 0.34986 0.74145
 N266 N -0.13420 0.35292 0.71996
 N267 N -0.11562 0.37129 0.72049
 C268 C -0.11337 0.38713 0.74260
 N269 N -0.13042 0.38401 0.76409
 N270 N -0.14908 0.36577 0.76349
 C271 C -0.09280 0.40722 0.74351
 N272 N -0.08814 0.42006 0.76718
 N273 N -0.06947 0.43826 0.76821
 C274 C -0.05488 0.44443 0.74557
 N275 N -0.05958 0.43167 0.72184
 N276 N -0.07816 0.41332 0.72085
 C277 C 0.24343 0.17365 0.33502
 N278 N 0.26472 0.17678 0.31810
 N279 N 0.26557 0.19611 0.29990
 C280 C 0.24523 0.21311 0.29806
 N281 N 0.22396 0.21004 0.31503
 N282 N 0.22305 0.19062 0.33314
 C283 C 0.24258 0.15233 0.35505
 N284 N 0.22023 0.14715 0.36978
 N285 N 0.21955 0.12779 0.38797
 C286 C 0.24121 0.11301 0.39218
 N287 N 0.26355 0.11822 0.37748
 N288 N 0.26420 0.13748 0.35920
 C289 C 0.24065 0.09188 0.41245
 N290 N 0.26316 0.07948 0.41912
 N291 N 0.26279 0.06052 0.43774
 C292 C 0.23988 0.05316 0.45025
 N293 N 0.21734 0.06548 0.44350
 N294 N 0.21773 0.08455 0.42498
 C295 C 0.75599 0.17351 0.66547
 N296 N 0.73477 0.17652 0.68251
 N297 N 0.73393 0.19583 0.70080
 C298 C 0.75421 0.21295 0.70262
 N299 N 0.77542 0.20999 0.68554
 N300 N 0.77632 0.19058 0.66733
 C301 C 0.75686 0.15220 0.64533
 N302 N 0.77918 0.14712 0.63053
 N303 N 0.77989 0.12777 0.61224
 C304 C 0.75826 0.11290 0.60801
 N305 N 0.73593 0.11801 0.62278
 N306 N 0.73527 0.13726 0.64116
 C307 C 0.75885 0.09179 0.58763
 N308 N 0.73636 0.07933 0.58089
 N309 N 0.73675 0.06038 0.56218
 C310 C 0.75967 0.05309 0.54963
 N311 N 0.78220 0.06547 0.55645
 N312 N 0.78178 0.08452 0.57507
 C313 C 0.24171 -0.17284 0.68231
 N314 N 0.22134 -0.18984 0.68528
 N315 N 0.22199 -0.20883 0.70384
 C316 C 0.24296 -0.21142 0.72020
 N317 N 0.26328 -0.19435 0.71731
 N318 N 0.26270 -0.17545 0.69864
 C319 C 0.24117 -0.15216 0.66159
 N320 N 0.26287 -0.13745 0.65609
 N321 N 0.26249 -0.11889 0.63706
 C322 C 0.24037 -0.11427 0.62294
 N323 N 0.21864 -0.12891 0.62851
 N324 N 0.21905 -0.14757 0.64745
 C325 C 0.24005 -0.09391 0.60187
 N326 N 0.21725 -0.08703 0.59002
 N327 N 0.21703 -0.06855 0.57088
 C328 C 0.23963 -0.05642 0.56279
 N329 N 0.26243 -0.06335 0.57459
 N330 N 0.26263 -0.08171 0.59384
 C331 C 0.75805 -0.17335 0.31704
 N332 N 0.77840 -0.19035 0.31406
 N333 N 0.77777 -0.20935 0.29543
 C334 C 0.75683 -0.21195 0.27900
 N335 N 0.73653 -0.19489 0.28190
 N336 N 0.73710 -0.17597 0.30064
 C337 C 0.75858 -0.15263 0.33780
 N338 N 0.73690 -0.13790 0.34327
 N339 N 0.73727 -0.11928 0.36232
 C340 C 0.75937 -0.11462 0.37649
 N341 N 0.78109 -0.12928 0.37095
 N342 N 0.78068 -0.14800 0.35200
 C343 C 0.75968 -0.09419 0.39757
 N344 N 0.78247 -0.08726 0.40948
 N345 N 0.78268 -0.06872 0.42864
 C346 C 0.76008 -0.05657 0.43670
 N347 N 0.73729 -0.06355 0.42484
 N348 N 0.73711 -0.08197 0.40558
 C349 C 0.67457 0.74377 -0.17833
 N350 N 0.69267 0.72429 -0.17953
 N351 N 0.71209 0.72470 -0.19828
 C352 C 0.71404 0.74453 -0.21666
 N353 N 0.69585 0.76397 -0.21548
 N354 N 0.67654 0.76364 -0.19662
 C355 C 0.65328 0.74343 -0.15754
 N356 N 0.63767 0.76469 -0.15357
 N357 N 0.61850 0.76446 -0.13455
 C358 C 0.61411 0.74289 -0.11895
 N359 N 0.62964 0.72159 -0.12301
 N360 N 0.64893 0.72188 -0.14190
 C361 C 0.59306 0.74270 -0.09790
 N362 N 0.58615 0.72013 -0.08500
 N363 N 0.56718 0.72000 -0.06577
 C364 C 0.55453 0.74246 -0.05861
 N365 N 0.56146 0.76503 -0.07147
 N366 N 0.58032 0.76513 -0.09083
 C367 C 0.32968 0.25817 -0.17318
 N368 N 0.32605 0.23649 -0.18870
 N369 N 0.30661 0.23544 -0.20637
 C370 C 0.29001 0.25599 -0.20913
 N371 N 0.29369 0.27772 -0.19368
 N372 N 0.31321 0.27882 -0.17608
 C373 C 0.35063 0.25889 -0.15309
 N374 N 0.35586 0.28119 -0.13910
 N375 N 0.37453 0.28159 -0.12051
 C376 C 0.38854 0.25967 -0.11512
 N377 N 0.38331 0.23740 -0.12912
 N378 N 0.36473 0.23703 -0.14780
 C379 C 0.40881 0.25990 -0.09429
 N380 N 0.42050 0.23729 -0.08665
 N381 N 0.43870 0.23739 -0.06757
 C382 C 0.44597 0.26012 -0.05551
 N383 N 0.43434 0.28275 -0.06320
 N384 N 0.41604 0.28264 -0.08219
 C385 C 0.32461 0.74369 0.17705
 N386 N 0.30645 0.72423 0.17812
 N387 N 0.28698 0.72467 0.19682
 C388 C 0.28505 0.74451 0.21527
 N389 N 0.30330 0.76392 0.21423
 N390 N 0.32265 0.76356 0.19542
 C391 C 0.34596 0.74332 0.15633
 N392 N 0.36164 0.76457 0.15252
 N393 N 0.38089 0.76433 0.13358
 C394 C 0.38527 0.74277 0.11789
 N395 N 0.36966 0.72148 0.12177
 N396 N 0.35031 0.72178 0.14059
 C397 C 0.40639 0.74258 0.09690
 N398 N 0.41328 0.72003 0.08390
 N399 N 0.43232 0.71991 0.06472
 C400 C 0.44504 0.74237 0.05774
 N401 N 0.43812 0.76493 0.07072
 N402 N 0.41921 0.76501 0.09002
 C403 C 0.66978 0.25873 0.17497
 N404 N 0.68621 0.27943 0.17803
 N405 N 0.70574 0.27834 0.19562
 C406 C 0.70945 0.25656 0.21089
 N407 N 0.69288 0.23598 0.20798
 N408 N 0.67344 0.23702 0.19032
 C409 C 0.64887 0.25942 0.15484
 N410 N 0.63481 0.23752 0.14940
 N411 N 0.61630 0.23784 0.13066
 C412 C 0.61108 0.26009 0.11673
 N413 N 0.62505 0.28204 0.12226
 N414 N 0.64366 0.28170 0.14092
 C415 C 0.59089 0.26025 0.09581
 N416 N 0.58370 0.28295 0.08374
 N417 N 0.56547 0.28299 0.06468
 C418 C 0.55387 0.26033 0.05690
 N419 N 0.56111 0.23763 0.06893
 N420 N 0.57924 0.23760 0.08807
 C421 C -0.17020 0.66937 0.74474
 N422 N -0.17018 0.68773 0.72474
 N423 N -0.18856 0.70628 0.72460
 C424 C -0.20777 0.70707 0.74436
 N425 N -0.20780 0.68862 0.76429
 N426 N -0.18932 0.67019 0.76453
 C427 C -0.14987 0.64900 0.74510
 N428 N -0.13317 0.64547 0.72335
 N429 N -0.11482 0.62690 0.72372
 C430 C -0.11238 0.61131 0.74593
 N431 N -0.12902 0.61490 0.76770
 N432 N -0.14748 0.63334 0.76725
 C433 C -0.09208 0.59090 0.74648
 N434 N -0.08696 0.57819 0.77006
 N435 N -0.06852 0.55974 0.77064
 C436 C -0.05464 0.55318 0.74761
 N437 N -0.05982 0.56582 0.72399
 N438 N -0.07815 0.58441 0.72346
 C439 C -0.17161 0.32848 0.24585
 N440 N -0.19486 0.33274 0.23366
 N441 N -0.21314 0.31407 0.23327
 C442 C -0.20905 0.29065 0.24554
 N443 N -0.18585 0.28654 0.25796
 N444 N -0.16737 0.30502 0.25788
 C445 C -0.15139 0.34890 0.24610
 N446 N -0.12558 0.34254 0.24331
 N447 N -0.10719 0.36111 0.24342
 C448 C -0.11394 0.38661 0.24690
 N449 N -0.13974 0.39294 0.24996
 N450 N -0.15816 0.37442 0.24930
 C451 C -0.09368 0.40696 0.24741
 N452 N -0.09614 0.42765 0.26471
 N453 N -0.07754 0.44598 0.26542
 C454 C -0.05609 0.44452 0.24847
 N455 N -0.05375 0.42397 0.23097
 N456 N -0.07210 0.40537 0.23065
 C457 C 0.17022 0.32873 0.75574
 N458 N 0.16380 0.30326 0.75169
 N459 N 0.18224 0.28478 0.75167
 C460 C 0.20767 0.29105 0.75619
 N461 N 0.21407 0.31650 0.76051
 N462 N 0.19569 0.33504 0.76005
 C463 C 0.14997 0.34910 0.75528
 N464 N 0.15595 0.37359 0.74641
 N465 N 0.13743 0.39197 0.74556
 C466 C 0.11241 0.38663 0.75401
 N467 N 0.10649 0.36222 0.76313
 N468 N 0.12490 0.34371 0.76352
 C469 C 0.09206 0.40689 0.75322
 N470 N 0.07182 0.40693 0.77179
 N471 N 0.05342 0.42543 0.77118
 C472 C 0.05435 0.44425 0.75166
 N473 N 0.07446 0.44408 0.73294
 N474 N 0.09311 0.42585 0.73385
 C475 C 0.16894 0.66961 0.25363
 N476 N 0.16900 0.68803 0.27366
 N477 N 0.18745 0.70654 0.27381
 C478 C 0.20665 0.70723 0.25404
 N479 N 0.20661 0.68872 0.23409
 N480 N 0.18806 0.67033 0.23384
 C481 C 0.14854 0.64927 0.25331
 N482 N 0.14606 0.63350 0.23119
 N483 N 0.12754 0.61508 0.23080
 C484 C 0.11092 0.61163 0.25261
 N485 N 0.11345 0.62734 0.27478
 N486 N 0.13187 0.64589 0.27509
 C487 C 0.09057 0.59125 0.25218
 N488 N 0.07667 0.58496 0.27526
 N489 N 0.05829 0.56639 0.27485
 C490 C 0.05301 0.55356 0.25131
 N491 N 0.06685 0.55991 0.22821
 N492 N 0.08535 0.57835 0.22866
 C493 C 0.75724 -0.17575 0.66691
 N494 N 0.73611 -0.17861 0.68408
 N495 N 0.73546 -0.19758 0.70269
 C496 C 0.75585 -0.21450 0.70472
 N497 N 0.77698 -0.21170 0.68749
 N498 N 0.77769 -0.19262 0.66897
 C499 C 0.75788 -0.15475 0.64645
 N500 N 0.78011 -0.14969 0.63150
 N501 N 0.78061 -0.13058 0.61300
 C502 C 0.75885 -0.11595 0.60870
 N503 N 0.73662 -0.12106 0.62362
 N504 N 0.73616 -0.14006 0.64220
 C505 C 0.75926 -0.09503 0.58816
 N506 N 0.73670 -0.08275 0.58141
 N507 N 0.73697 -0.06395 0.56260
 C508 C 0.75983 -0.05662 0.54998
 N509 N 0.78242 -0.06881 0.55680
 N510 N 0.78213 -0.08772 0.57550
 C511 C 0.24197 -0.17563 0.33194
 N512 N 0.26311 -0.17851 0.31476
 N513 N 0.26371 -0.19749 0.29607
 C514 C 0.24327 -0.21438 0.29397
 N515 N 0.22214 -0.21155 0.31120
 N516 N 0.22148 -0.19248 0.32980
 C517 C 0.24140 -0.15464 0.35249
 N518 N 0.21918 -0.14957 0.36749
 N519 N 0.21873 -0.13047 0.38607
 C520 C 0.24052 -0.11585 0.39044
 N521 N 0.26274 -0.12097 0.37548
 N522 N 0.26314 -0.13996 0.35680
 C523 C 0.24017 -0.09495 0.41108
 N524 N 0.26275 -0.08267 0.41786
 N525 N 0.26253 -0.06388 0.43676
 C526 C 0.23969 -0.05655 0.44945
 N527 N 0.21708 -0.06875 0.44260
 N528 N 0.21732 -0.08765 0.42380
 C529 C 0.75935 0.16825 0.31630
 N530 N 0.77999 0.18487 0.31293
 N531 N 0.77892 0.20459 0.29522
 C532 C 0.75722 0.20830 0.28014
 N533 N 0.73669 0.19153 0.28335
 N534 N 0.73771 0.17190 0.30113
 C535 C 0.76000 0.14718 0.33663
 N536 N 0.73807 0.13295 0.34255
 N537 N 0.73834 0.11435 0.36154
 C538 C 0.76060 0.10919 0.37524
 N539 N 0.78259 0.12331 0.36922
 N540 N 0.78228 0.14201 0.35031
 C541 C 0.76070 0.08895 0.39649
 N542 N 0.78344 0.08181 0.40831
 N543 N 0.78343 0.06356 0.42771
 C544 C 0.76065 0.05191 0.43610
 N545 N 0.73792 0.05908 0.42431
 N546 N 0.73795 0.07723 0.40483
 C547 C 0.24061 0.16823 0.68418
 N548 N 0.21995 0.18479 0.68768
 N549 N 0.22099 0.20443 0.70557
 C550 C 0.24266 0.20812 0.72073
 N551 N 0.26321 0.19141 0.71739
 N552 N 0.26223 0.17186 0.69942
 C553 C 0.23997 0.14721 0.66370
 N554 N 0.26190 0.13303 0.65768
 N555 N 0.26160 0.11445 0.63857
 C556 C 0.23934 0.10928 0.62486
 N557 N 0.21735 0.12336 0.63099
 N558 N 0.21768 0.14204 0.65001
 C559 C 0.23920 0.08905 0.60352
 N560 N 0.21643 0.08189 0.59171
 N561 N 0.21640 0.06364 0.57223
 C562 C 0.23916 0.05201 0.56375
 N563 N 0.26192 0.05921 0.57552
 N564 N 0.26193 0.07736 0.59509
   
