data_POSCAR
  _audit_creation_date              2014-09-24
  _audit_creation_method            'ToBaCCo'
  _symmetry_space_group_name_H-M    'P1'
  _symmetry_Int_Tables_number       1
  _symmetry_cell_setting            triclinic
  loop_
  _symmetry_equiv_pos_as_xyz
 x,y,z
_cell_length_a 26.4134
_cell_length_b 27.7711
_cell_length_c 27.1257
_cell_angle_alpha 84.404300
_cell_angle_beta 95.806000
_cell_angle_gamma 95.653900
loop_
  _atom_site_label
  _atom_site_type_symbol
  _atom_site_fract_x
  _atom_site_fract_y
  _atom_site_fract_z
C1 C 0.20670 0.28734 0.28896
 C2 C 0.23542 0.31877 0.24937
 C3 C 0.26376 0.29358 0.22338
 C4 C 0.26033 0.23873 0.23899
 C5 C 0.17482 0.24787 0.26058
 C6 C 0.20276 0.22266 0.23416
 C7 C 0.24776 0.26040 0.32123
 C8 C 0.27575 0.23472 0.29535
 H9 H 0.23412 0.35779 0.24330
 H10 H 0.28312 0.21802 0.21761
 H11 H 0.13368 0.24139 0.26018
 H12 H 0.25273 0.26033 0.36138
 C13 C 0.70546 0.78619 0.29080
 C14 C 0.73429 0.81780 0.25141
 C15 C 0.76278 0.79278 0.22544
 C16 C 0.75944 0.73791 0.24086
 C17 C 0.67372 0.74681 0.26218
 C18 C 0.70186 0.72177 0.23574
 C19 C 0.74642 0.75921 0.32311
 C20 C 0.77464 0.73372 0.29728
 H21 H 0.73282 0.85680 0.24538
 H22 H 0.78238 0.71733 0.21950
 H23 H 0.63256 0.74040 0.26151
 H24 H 0.75126 0.75910 0.36326
 C25 C 0.70852 0.29222 0.78703
 C26 C 0.73661 0.32243 0.75051
 C27 C 0.76751 0.29651 0.72387
 C28 C 0.76391 0.24436 0.73834
 C29 C 0.67739 0.25277 0.75789
 C30 C 0.70633 0.22784 0.73209
 C31 C 0.74867 0.26487 0.82033
 C32 C 0.77765 0.23947 0.79510
 H33 H 0.73489 0.36143 0.74453
 H34 H 0.78724 0.22345 0.71771
 H35 H 0.63624 0.24589 0.75682
 H36 H 0.75211 0.26413 0.86053
 C37 C 0.20475 0.78904 0.79013
 C38 C 0.23452 0.82170 0.75229
 C39 C 0.26365 0.79766 0.72596
 C40 C 0.26001 0.74244 0.73978
 C41 C 0.17367 0.75056 0.75986
 C42 C 0.20247 0.72629 0.73334
 C43 C 0.24507 0.76130 0.82244
 C44 C 0.27400 0.73669 0.79643
 H45 H 0.23295 0.86073 0.74741
 H46 H 0.28349 0.72250 0.71835
 H47 H 0.13254 0.74353 0.75896
 H48 H 0.24894 0.76003 0.86268
 C49 C 0.08592 0.05992 0.02323
 H50 H 0.09126 0.06488 -0.01602
 C51 C 0.11559 0.08921 0.05626
 H52 H 0.14397 0.11653 0.04218
 C53 C 0.04034 0.02015 0.08878
 H54 H 0.01015 -0.00589 0.10119
 C55 C 0.06835 0.04933 0.12282
 H56 H 0.05987 0.04484 0.16132
 N57 N 0.04923 0.02612 0.03993
 C58 C 0.01492 -0.07306 -0.07764
 H59 H -0.02630 -0.07379 -0.08289
 C60 C 0.04044 -0.10139 -0.10521
 H61 H 0.01852 -0.12355 -0.13195
 C62 C 0.09328 -0.04382 -0.03569
 H63 H 0.11376 -0.02227 -0.00783
 C64 C 0.12032 -0.07130 -0.06256
 H65 H 0.16148 -0.06991 -0.05529
 Zn66 Zn 0.00493 -0.00780 -0.00704
 N67 N 0.04159 -0.04458 -0.04412
 C68 C -0.03492 0.04166 -0.09898
 N69 N -0.02975 0.03979 -0.04841
 C70 C -0.04989 0.07275 -0.02398
 C71 C -0.07826 0.10822 -0.05019
 C72 C -0.06331 0.07663 -0.12683
 C73 C -0.02586 -0.08960 0.05611
 C74 C -0.05903 -0.11952 0.08534
 C75 C -0.12705 -0.07005 0.05235
 C76 C -0.09285 -0.04160 0.02329
 N77 N -0.04294 -0.05084 0.02679
 H78 H -0.01782 0.01571 -0.11778
 H79 H -0.04474 0.07076 0.01622
 H80 H -0.09469 0.13333 -0.02958
 H81 H -0.06800 0.07697 -0.16697
 H82 H 0.01398 -0.09631 0.05794
 H83 H -0.04442 -0.14924 0.10973
 H84 H -0.16627 -0.06115 0.05018
 H85 H -0.10610 -0.01137 -0.00098
 C86 C 0.09395 -0.10050 -0.09801
 C87 C 0.10619 0.08467 0.10658
 C88 C -0.11004 -0.10901 0.08459
 C89 C -0.08602 0.11011 -0.10231
 C90 C 0.09055 0.56115 0.52258
 H91 H 0.09553 0.56643 0.48326
 C92 C 0.11963 0.59102 0.55548
 H93 H 0.14723 0.61904 0.54125
 C94 C 0.04622 0.52020 0.58842
 H95 H 0.01675 0.49342 0.60101
 C96 C 0.07363 0.54990 0.62233
 H97 H 0.06540 0.54513 0.66090
 N98 N 0.05462 0.52663 0.53946
 C99 C 0.01917 0.42582 0.42344
 H100 H -0.02212 0.42423 0.41940
 C101 C 0.04437 0.39745 0.39564
 H102 H 0.02208 0.37438 0.36996
 C103 C 0.09809 0.45730 0.46256
 H104 H 0.11896 0.47988 0.48933
 C105 C 0.12482 0.42982 0.43536
 H106 H 0.16611 0.43212 0.44136
 Zn107 Zn 0.00997 0.49261 0.49281
 N108 N 0.04623 0.45543 0.45567
 C109 C -0.03334 0.53949 0.40096
 N110 N -0.02477 0.54009 0.45123
 C111 C -0.04220 0.57501 0.47521
 C112 C -0.07145 0.60982 0.44903
 C113 C -0.06269 0.57375 0.37316
 C114 C -0.02240 0.40961 0.55425
 C115 C -0.05581 0.38025 0.58379
 C116 C -0.12105 0.43462 0.55642
 C117 C -0.08688 0.46226 0.52673
 N118 N -0.03813 0.45024 0.52723
 H119 H -0.01851 0.51192 0.38243
 H120 H -0.03454 0.57491 0.51515
 H121 H -0.08583 0.63642 0.46938
 H122 H -0.07031 0.57197 0.33338
 H123 H 0.01655 0.40081 0.55392
 H124 H -0.04235 0.34883 0.60624
 H125 H -0.15921 0.44568 0.55672
 H126 H -0.09911 0.49412 0.50452
 C127 C 0.09799 0.39947 0.40121
 C128 C 0.11041 0.58623 0.60585
 C129 C -0.10539 0.39352 0.58601
 C130 C -0.08294 0.60901 0.39741
 C131 C 0.59087 0.06418 0.52157
 H132 H 0.59419 0.07034 0.48198
 C133 C 0.62061 0.09390 0.55419
 H134 H 0.64698 0.12280 0.53947
 C135 C 0.55043 0.02067 0.58862
 H136 H 0.52275 -0.00760 0.60194
 C137 C 0.57851 0.05017 0.62231
 H138 H 0.57222 0.04417 0.66136
 N139 N 0.55625 0.02873 0.53915
 C140 C 0.51896 -0.07516 0.42627
 H141 H 0.47766 -0.07759 0.42319
 C142 C 0.54395 -0.10403 0.39883
 H143 H 0.52146 -0.12813 0.37430
 C144 C 0.59815 -0.04157 0.46291
 H145 H 0.61924 -0.01773 0.48838
 C146 C 0.62467 -0.06955 0.43603
 H147 H 0.66602 -0.06649 0.44107
 Zn148 Zn 0.51056 -0.00558 0.49345
 N149 N 0.54622 -0.04429 0.45714
 C150 C 0.45982 0.03503 0.40205
 N151 N 0.47590 0.04131 0.45048
 C152 C 0.46570 0.08132 0.47158
 C153 C 0.43660 0.11587 0.44466
 C154 C 0.43059 0.06895 0.37357
 C155 C 0.46541 -0.09420 0.53929
 C156 C 0.43122 -0.12231 0.56902
 C157 C 0.39016 -0.04994 0.57732
 C158 C 0.42497 -0.02338 0.54762
 N159 N 0.46187 -0.04557 0.52947
 H160 H 0.46856 0.00334 0.38563
 H161 H 0.47908 0.08585 0.50999
 H162 H 0.42813 0.14675 0.46287
 H163 H 0.41701 0.06270 0.33551
 H164 H 0.49555 -0.11104 0.52518
 H165 H 0.43516 -0.16078 0.57714
 H166 H 0.36166 -0.03107 0.59175
 H167 H 0.42311 0.01530 0.54000
 C168 C 0.59758 -0.10119 0.40327
 C169 C 0.61357 0.08776 0.60509
 C170 C 0.39327 -0.10003 0.58891
 C171 C 0.41779 0.10955 0.39523
 C172 C 0.58718 0.56057 0.02257
 H173 H 0.59284 0.56587 -0.01660
 C174 C 0.61637 0.58981 0.05599
 H175 H 0.64472 0.61737 0.04230
 C176 C 0.54125 0.52011 0.08752
 H177 H 0.51109 0.49384 0.09958
 C178 C 0.56875 0.54922 0.12194
 H179 H 0.55993 0.54441 0.16034
 N180 N 0.55055 0.52643 0.03878
 C181 C 0.51737 0.42789 -0.07969
 H182 H 0.47612 0.42664 -0.08469
 C183 C 0.54319 0.40029 -0.10776
 H184 H 0.52142 0.37812 -0.13458
 C185 C 0.59557 0.45782 -0.03796
 H186 H 0.61590 0.47939 -0.01004
 C187 C 0.62290 0.43108 -0.06536
 H188 H 0.66411 0.43301 -0.05837
 Zn189 Zn 0.50669 0.49255 -0.00865
 N190 N 0.54380 0.45639 -0.04604
 C191 C 0.46583 0.54179 -0.10039
 N192 N 0.47170 0.54009 -0.04983
 C193 C 0.45164 0.57293 -0.02518
 C194 C 0.42258 0.60801 -0.05110
 C195 C 0.43670 0.57637 -0.12796
 C196 C 0.47577 0.41035 0.05425
 C197 C 0.44247 0.38049 0.08344
 C198 C 0.37452 0.42987 0.05005
 C199 C 0.40883 0.45826 0.02106
 N200 N 0.45878 0.44908 0.02480
 H201 H 0.48281 0.51590 -0.11939
 H202 H 0.45727 0.57105 0.01499
 H203 H 0.40618 0.63297 -0.03028
 H204 H 0.43137 0.57651 -0.16807
 H205 H 0.51563 0.40368 0.05631
 H206 H 0.45701 0.35084 0.10797
 H207 H 0.33530 0.43879 0.04770
 H208 H 0.39565 0.48846 -0.00330
 C209 C 0.59676 0.40192 -0.10097
 C210 C 0.60654 0.58487 0.10621
 C211 C 0.39144 0.39102 0.08249
 C212 C 0.41397 0.60962 -0.10317
 N213 N 0.12292 -0.18840 -0.18313
 C214 C 0.17478 -0.18263 -0.18019
 N215 N 0.19981 -0.14984 -0.15028
 N216 N 0.17410 -0.12399 -0.12416
 C217 C 0.12226 -0.12965 -0.12700
 N218 N 0.09718 -0.16239 -0.15707
 N219 N 0.20284 0.35045 0.34681
 C220 C 0.17739 0.31655 0.31842
 N221 N 0.12564 0.31005 0.31716
 N222 N 0.10040 0.33637 0.34334
 C223 C 0.12587 0.37017 0.37192
 N224 N 0.17761 0.37663 0.37306
 N225 N 0.70190 -0.15051 0.34840
 C226 C 0.67629 -0.18462 0.32038
 N227 N 0.62458 -0.19129 0.31962
 N228 N 0.59955 -0.16487 0.34591
 C229 C 0.62521 -0.13080 0.37407
 N230 N 0.67690 -0.12421 0.37473
 N231 N 0.62645 0.31475 -0.18655
 C232 C 0.67829 0.32102 -0.18387
 N233 N 0.70308 0.35409 -0.15409
 N234 N 0.67715 0.37966 -0.12788
 C235 C 0.62534 0.37340 -0.13041
 N236 N 0.60050 0.34046 -0.16040
 N237 N -0.16129 0.17753 -0.20442
 C238 C -0.18452 0.20768 -0.17918
 N239 N -0.17405 0.20657 -0.12910
 N240 N -0.14209 0.17624 -0.10509
 C241 C -0.11920 0.14563 -0.13005
 N242 N -0.12926 0.14706 -0.18032
 N243 N -0.16383 0.67237 0.29677
 C244 C -0.18615 0.70302 0.32223
 N245 N -0.17321 0.70362 0.37186
 N246 N -0.13973 0.67446 0.39527
 C247 C -0.11773 0.64336 0.37013
 N248 N -0.13031 0.64305 0.32028
 N249 N 0.33436 0.17081 0.29531
 C250 C 0.31484 0.20384 0.32015
 N251 N 0.33042 0.20661 0.36908
 N252 N 0.36383 0.17732 0.39241
 C253 C 0.38300 0.14385 0.36791
 N254 N 0.36770 0.14129 0.31876
 N255 N 0.32392 0.70439 -0.12857
 C256 C 0.31264 0.70538 -0.17854
 N257 N 0.33600 0.67571 -0.20426
 N258 N 0.36893 0.64582 -0.18066
 C259 C 0.37980 0.64453 -0.13047
 N260 N 0.35677 0.67466 -0.10508
 N261 N -0.21474 -0.13820 0.16564
 C262 C -0.20545 -0.18309 0.18703
 N263 N -0.16540 -0.20437 0.17361
 N264 N -0.13533 -0.18125 0.14055
 C265 C -0.14456 -0.13620 0.11928
 N266 N -0.18503 -0.11532 0.13232
 N267 N -0.20395 0.36793 0.67409
 C268 C -0.20134 0.31992 0.68832
 N269 N -0.16737 0.29576 0.66801
 N270 N -0.13688 0.31889 0.63530
 C271 C -0.13973 0.36691 0.62111
 N272 N -0.17399 0.39086 0.64103
 N273 N 0.29451 -0.12830 0.67692
 C274 C 0.29628 -0.17672 0.68886
 N275 N 0.32942 -0.20042 0.66700
 N276 N 0.35990 -0.17638 0.63476
 C277 C 0.35829 -0.12776 0.62307
 N278 N 0.32481 -0.10437 0.64473
 N279 N 0.28651 0.36239 0.16340
 C280 C 0.29564 0.31753 0.18496
 N281 N 0.33567 0.29607 0.17172
 N282 N 0.36587 0.31901 0.13866
 C283 C 0.35679 0.36403 0.11720
 N284 N 0.31635 0.38507 0.13008
 N285 N 0.20244 0.17385 0.16313
 C286 C 0.17913 0.18495 0.20241
 N287 N 0.13261 0.16201 0.21078
 N288 N 0.11010 0.12936 0.18093
 C289 C 0.13299 0.11866 0.14122
 N290 N 0.17965 0.14151 0.13291
 N291 N 0.20398 0.67775 0.66232
 C292 C 0.17989 0.68845 0.70126
 N293 N 0.13374 0.66455 0.70939
 N294 N 0.11235 0.63134 0.67964
 C295 C 0.13602 0.62100 0.64029
 N296 N 0.18230 0.64486 0.63218
 N297 N 0.70723 0.17969 0.66070
 C298 C 0.68382 0.18971 0.70036
 N299 N 0.63818 0.16517 0.70926
 N300 N 0.61662 0.13198 0.67958
 C301 C 0.63956 0.12235 0.63950
 N302 N 0.68533 0.14684 0.63061
 N303 N 0.70214 0.67368 0.16425
 C304 C 0.67845 0.68439 0.20344
 N305 N 0.63182 0.66137 0.21123
 N306 N 0.60961 0.62899 0.18091
 C307 C 0.63290 0.61868 0.14130
 N308 N 0.67966 0.64163 0.13357
   
