data_POSCAR
  _audit_creation_date              2014-09-24
  _audit_creation_method            'ToBaCCo'
  _symmetry_space_group_name_H-M    'P1'
  _symmetry_Int_Tables_number       1
  _symmetry_cell_setting            triclinic
  loop_
  _symmetry_equiv_pos_as_xyz
 x,y,z
_cell_length_a 43.6314
_cell_length_b 43.0645
_cell_length_c 43.6799
_cell_angle_alpha 89.867400
_cell_angle_beta 89.960200
_cell_angle_gamma 90.105900
loop_
  _atom_site_label
  _atom_site_type_symbol
  _atom_site_fract_x
  _atom_site_fract_y
  _atom_site_fract_z
N1 N 0.59190 0.67572 0.60680
 N2 N 0.58012 0.66378 0.63195
 C3 C 0.55522 0.68027 0.64001
 C4 C 0.55135 0.70365 0.61884
 C5 C 0.57486 0.70026 0.59801
 H6 H 0.54079 0.67557 0.65962
 H7 H 0.57912 0.71439 0.57794
 Cu8 Cu 0.59797 0.62759 0.65164
 Cu9 Cu 0.62818 0.65818 0.58737
 Cu10 Cu 0.65980 0.59277 0.62151
 N11 N 0.61558 0.59062 0.67013
 N12 N 0.63978 0.57699 0.65825
 C13 C 0.64722 0.55214 0.67551
 C14 C 0.62648 0.55031 0.69926
 C15 C 0.60673 0.57489 0.69533
 H16 H 0.66627 0.53671 0.67117
 H17 H 0.58750 0.58086 0.70979
 N18 N 0.67680 0.61212 0.58427
 N19 N 0.66486 0.63704 0.57124
 C20 C 0.68188 0.64472 0.54656
 C21 C 0.70542 0.62360 0.54415
 C22 C 0.70168 0.60330 0.56824
 H23 H 0.67765 0.66428 0.53159
 H24 H 0.71619 0.58375 0.57375
 H25 H 0.62117 0.61337 0.60288
 H26 H 0.64668 0.63867 0.62641
 N27 N 0.90927 0.32361 0.10651
 N28 N 0.92104 0.33557 0.13159
 C29 C 0.94594 0.31908 0.13973
 C30 C 0.94977 0.29569 0.11868
 C31 C 0.92628 0.29904 0.09782
 H32 H 0.96036 0.32382 0.15931
 H33 H 0.92202 0.28490 0.07782
 Cu34 Cu 0.90319 0.37179 0.15108
 Cu35 Cu 0.87300 0.34114 0.08701
 Cu36 Cu 0.84136 0.40659 0.12084
 N37 N 0.88556 0.40877 0.16940
 N38 N 0.86137 0.42237 0.15749
 C39 C 0.85392 0.44722 0.17465
 C40 C 0.87463 0.44909 0.19839
 C41 C 0.89437 0.42450 0.19452
 H42 H 0.83487 0.46264 0.17028
 H43 H 0.91358 0.41856 0.20901
 N44 N 0.82438 0.38722 0.08371
 N45 N 0.83633 0.36229 0.07080
 C46 C 0.81932 0.35460 0.04617
 C47 C 0.79578 0.37573 0.04368
 C48 C 0.79952 0.39603 0.06766
 H49 H 0.82355 0.33503 0.03130
 H50 H 0.78501 0.41559 0.07308
 H51 H 0.87999 0.38597 0.10228
 H52 H 0.85448 0.36069 0.12597
 N53 N 0.40966 0.17505 -0.11797
 N54 N 0.42106 0.16262 -0.14299
 C55 C 0.44590 0.17910 -0.15177
 C56 C 0.44999 0.20290 -0.13107
 C57 C 0.42674 0.19977 -0.10999
 H58 H 0.45983 0.17432 -0.17169
 H59 H 0.42250 0.21449 -0.09042
 Cu60 Cu 0.40202 0.12627 -0.16152
 Cu61 Cu 0.37343 0.15871 -0.09762
 Cu62 Cu 0.33977 0.09332 -0.12909
 N63 N 0.38332 0.08894 -0.17839
 N64 N 0.35898 0.07630 -0.16559
 C65 C 0.35087 0.05084 -0.18146
 C66 C 0.37118 0.04745 -0.20535
 C67 C 0.39153 0.07185 -0.20289
 H68 H 0.33177 0.03578 -0.17595
 H69 H 0.41087 0.07660 -0.21768
 N70 N 0.32373 0.11395 -0.09220
 N71 N 0.33665 0.13889 -0.08025
 C72 C 0.32075 0.14741 -0.05521
 C73 C 0.29686 0.12688 -0.05137
 C74 C 0.29924 0.10593 -0.07504
 H75 H 0.32618 0.16697 -0.04070
 H76 H 0.28436 0.08630 -0.07927
 H77 H 0.37925 0.11334 -0.11210
 H78 H 0.35383 0.13858 -0.13589
 N79 N 0.08930 0.82461 0.38321
 N80 N 0.07713 0.83781 0.35890
 C81 C 0.05241 0.82120 0.35008
 C82 C 0.04924 0.79655 0.37007
 C83 C 0.07286 0.79927 0.39075
 H84 H 0.03796 0.82652 0.33067
 H85 H 0.07776 0.78393 0.40976
 Cu86 Cu 0.09505 0.87530 0.34131
 Cu87 Cu 0.12560 0.84093 0.40337
 Cu88 Cu 0.15886 0.90670 0.37187
 N89 N 0.11445 0.91188 0.32345
 N90 N 0.13939 0.92393 0.33555
 C91 C 0.14789 0.94900 0.31915
 C92 C 0.12722 0.95274 0.29564
 C93 C 0.10625 0.92895 0.29887
 H94 H 0.16748 0.96357 0.32408
 H95 H 0.08651 0.92462 0.28454
 N96 N 0.17514 0.88585 0.40862
 N97 N 0.16239 0.86076 0.42058
 C98 C 0.17840 0.85215 0.44553
 C99 C 0.20220 0.87277 0.44930
 C100 C 0.19964 0.89387 0.42570
 H101 H 0.17309 0.83249 0.46004
 H102 H 0.21439 0.91363 0.42146
 H103 H 0.11987 0.88671 0.39008
 H104 H 0.14396 0.86178 0.36474
 N105 N 0.14468 0.14775 0.14170
 N106 N 0.35465 0.85200 0.64206
 N107 N 0.89829 0.60216 0.39163
 N108 N 0.60296 0.39769 -0.10864
 C109 C 0.06130 0.21884 0.09958
 C110 C 0.02741 0.20789 0.10045
 C111 C 0.01986 0.23512 0.12181
 C112 C 0.05329 0.24636 0.12087
 C113 C 0.06787 0.19879 0.12796
 C114 C 0.06024 0.22604 0.14926
 C115 C 0.03447 0.18748 0.12891
 C116 C 0.02646 0.21506 0.15017
 C117 C -0.00633 0.25622 0.11939
 C118 C -0.02727 0.27441 0.11851
 C119 C 0.09512 0.17943 0.13220
 C120 C 0.11800 0.16436 0.13638
 H121 H 0.07594 0.22016 0.07882
 H122 H 0.01360 0.20068 0.08034
 H123 H 0.06076 0.27079 0.11753
 H124 H 0.07400 0.23332 0.16938
 H125 H 0.02705 0.16304 0.13227
 H126 H 0.01186 0.21373 0.17096
 C127 C 0.44334 0.77879 0.65292
 C128 C 0.44707 0.75351 0.62812
 C129 C 0.47981 0.76521 0.62202
 C130 C 0.47643 0.79024 0.64680
 C131 C 0.43165 0.80132 0.62825
 C132 C 0.46436 0.81311 0.62216
 C133 C 0.43502 0.77630 0.60347
 C134 C 0.46819 0.78772 0.59730
 C135 C 0.50607 0.74422 0.61956
 C136 C 0.52708 0.72612 0.61862
 C137 C 0.40434 0.82056 0.63252
 C138 C 0.38139 0.83551 0.63673
 H139 H 0.43286 0.77531 0.67584
 H140 H 0.44022 0.72878 0.63053
 H141 H 0.49375 0.79576 0.66459
 H142 H 0.47113 0.83786 0.61977
 H143 H 0.41768 0.77078 0.58570
 H144 H 0.47872 0.79114 0.57439
 C145 C 0.98050 0.68326 0.39648
 C146 C 0.99692 0.69296 0.36655
 C147 C 0.98772 0.72682 0.37258
 C148 C 0.97157 0.71745 0.40249
 C149 C 0.95064 0.67893 0.37837
 C150 C 0.94139 0.71277 0.38441
 C151 C 0.96676 0.68826 0.34843
 C152 C 0.95787 0.72259 0.35441
 C153 C 1.00920 0.75291 0.37038
 C154 C 1.02767 0.77374 0.36968
 C155 C 0.93084 0.65172 0.38241
 C156 C 0.91538 0.62884 0.38646
 H157 H 0.98962 0.66683 0.41384
 H158 H 1.01998 0.68509 0.35917
 H159 H 0.97377 0.72974 0.42469
 H160 H 0.91832 0.72060 0.39180
 H161 H 0.96455 0.67593 0.32625
 H162 H 0.94882 0.73907 0.33707
 C163 C 0.55456 0.28980 -0.10572
 C164 C 0.52000 0.28988 -0.09764
 C165 C 0.51318 0.27346 -0.12808
 C166 C 0.54743 0.27294 -0.13625
 C167 C 0.55043 0.32114 -0.12205
 C168 C 0.54366 0.30478 -0.15253
 C169 C 0.51618 0.32157 -0.11391
 C170 C 0.50907 0.30481 -0.14440
 C171 C 0.49158 0.24749 -0.13045
 C172 C 0.47300 0.22678 -0.13134
 C173 C 0.57032 0.34825 -0.11790
 C174 C 0.58583 0.37106 -0.11382
 H175 H 0.57349 0.28393 -0.08976
 H176 H 0.51005 0.28349 -0.07509
 H177 H 0.56003 0.25264 -0.14548
 H178 H 0.55364 0.31123 -0.17505
 H179 H 0.50351 0.34183 -0.10467
 H180 H 0.49014 0.31071 -0.16035
 C181 C 0.13113 0.07431 0.23052
 C182 C 0.10538 0.04952 0.22984
 C183 C 0.12978 0.02405 0.23319
 C184 C 0.15546 0.04848 0.23417
 C185 C 0.13415 0.07165 0.19558
 C186 C 0.15853 0.04617 0.19894
 C187 C 0.10843 0.04726 0.19454
 C188 C 0.13279 0.02132 0.19825
 C189 C 0.12804 -0.00198 0.25478
 C190 C 0.12730 -0.02290 0.27314
 C191 C 0.13725 0.09864 0.17534
 C192 C 0.14046 0.12131 0.15940
 H193 H 0.13047 0.09638 0.24359
 H194 H 0.08351 0.05060 0.24278
 H195 H 0.17478 0.04872 0.25069
 H196 H 0.18041 0.04509 0.18601
 H197 H 0.08913 0.04707 0.17800
 H198 H 0.13345 -0.00077 0.18523
 C199 C 0.59120 0.47443 -0.19464
 C200 C 0.61611 0.49984 -0.19799
 C201 C 0.62180 0.48913 -0.23103
 C202 C 0.59692 0.46400 -0.22804
 C203 C 0.61593 0.45156 -0.18382
 C204 C 0.62162 0.44078 -0.21684
 C205 C 0.64081 0.47668 -0.18680
 C206 C 0.64657 0.46627 -0.22027
 C207 C 0.62434 0.51070 -0.25688
 C208 C 0.62569 0.52906 -0.27771
 C209 C 0.61196 0.43133 -0.15711
 C210 C 0.60802 0.41540 -0.13471
 H211 H 0.56839 0.47758 -0.18383
 H212 H 0.61386 0.52434 -0.19050
 H213 H 0.57891 0.45902 -0.24529
 H214 H 0.62385 0.41626 -0.22428
 H215 H 0.65881 0.48166 -0.16954
 H216 H 0.66937 0.46317 -0.23112
 C217 C 0.38917 0.95392 0.69290
 C218 C 0.36374 0.97848 0.69813
 C219 C 0.36902 0.97587 0.73282
 C220 C 0.39448 0.95177 0.72795
 C221 C 0.36488 0.92817 0.69553
 C222 C 0.37016 0.92562 0.73022
 C223 C 0.33945 0.95228 0.70042
 C224 C 0.34477 0.95008 0.73538
 C225 C 0.37062 1.00197 0.75421
 C226 C 0.37124 1.02297 0.77238
 C227 C 0.36190 0.90114 0.67545
 C228 C 0.35878 0.87845 0.65964
 H229 H 0.40739 0.95518 0.67519
 H230 H 0.36112 1.00053 0.68518
 H231 H 0.41713 0.95186 0.73951
 H232 H 0.37278 0.90359 0.74321
 H233 H 0.31679 0.95220 0.68887
 H234 H 0.32653 0.94877 0.75307
 C235 C 0.87724 0.55938 0.28387
 C236 C 0.90277 0.53799 0.27114
 C237 C 0.87945 0.51129 0.26926
 C238 C 0.85385 0.53231 0.28155
 C239 C 0.88536 0.54866 0.31644
 C240 C 0.86204 0.52196 0.31456
 C241 C 0.91091 0.52761 0.30411
 C242 C 0.88756 0.50064 0.30185
 C243 C 0.87687 0.48981 0.24344
 C244 C 0.87546 0.47153 0.22264
 C245 C 0.88933 0.56877 0.34315
 C246 C 0.89325 0.58459 0.36554
 H247 H 0.87305 0.58378 0.27680
 H248 H 0.91949 0.54434 0.25301
 H249 H 0.83035 0.53400 0.27196
 H250 H 0.84532 0.51560 0.33270
 H251 H 0.93442 0.52589 0.31365
 H252 H 0.89177 0.47626 0.30899
 C253 C 0.18967 0.14478 0.03365
 C254 C 0.22120 0.16110 0.03052
 C255 C 0.23515 0.13037 0.01946
 C256 C 0.20395 0.11397 0.02216
 C257 C 0.19800 0.13560 0.06662
 C258 C 0.21193 0.10484 0.05560
 C259 C 0.22920 0.15196 0.06384
 C260 C 0.24344 0.12119 0.05244
 C261 C 0.25647 0.12822 -0.00636
 C262 C 0.27460 0.12721 -0.02714
 C263 C 0.17800 0.13924 0.09330
 C264 C 0.16222 0.14294 0.11567
 H265 H 0.16733 0.15452 0.02624
 H266 H 0.22523 0.18421 0.01994
 H267 H 0.19382 0.09832 0.00472
 H268 H 0.20788 0.08175 0.06622
 H269 H 0.23939 0.16762 0.08126
 H270 H 0.26578 0.11147 0.05989
 C271 C 0.80849 0.64529 0.45414
 C272 C 0.77633 0.63085 0.44878
 C273 C 0.77605 0.61961 0.48219
 C274 C 0.80774 0.63409 0.48788
 C275 C 0.82314 0.61427 0.44494
 C276 C 0.82278 0.60305 0.47835
 C277 C 0.79145 0.59978 0.43923
 C278 C 0.79074 0.58861 0.47296
 C279 C 0.75029 0.62188 0.50359
 C280 C 0.72957 0.62303 0.52180
 C281 C 0.84981 0.61061 0.42490
 C282 C 0.87220 0.60693 0.40913
 H283 H 0.81609 0.66855 0.44616
 H284 H 0.75693 0.64232 0.43687
 H285 H 0.81417 0.64822 0.50811
 H286 H 0.84215 0.59157 0.49032
 H287 H 0.78506 0.58563 0.41900
 H288 H 0.78318 0.56533 0.48092
 C289 C 0.71173 0.38903 -0.06521
 C290 C 0.71746 0.40929 -0.03649
 C291 C 0.72518 0.37980 -0.01823
 C292 C 0.71988 0.35946 -0.04660
 C293 C 0.67810 0.38526 -0.05542
 C294 C 0.68579 0.35575 -0.03717
 C295 C 0.68346 0.40556 -0.02704
 C296 C 0.69153 0.37603 -0.00849
 C297 C 0.75094 0.37748 0.00315
 C298 C 0.77165 0.37630 0.02134
 C299 C 0.65142 0.38901 -0.07543
 C300 C 0.62904 0.39279 -0.09116
 H301 H 0.71972 0.39442 -0.08876
 H302 H 0.73075 0.43129 -0.03599
 H303 H 0.73517 0.34047 -0.05439
 H304 H 0.67246 0.33377 -0.03768
 H305 H 0.66821 0.42456 -0.01919
 H306 H 0.68349 0.37066 0.01505
 C307 C 0.27492 0.88763 0.56489
 C308 C 0.28493 0.89542 0.53168
 C309 C 0.26402 0.86927 0.51997
 C310 C 0.25372 0.86155 0.55276
 C311 C 0.30122 0.86406 0.56706
 C312 C 0.28030 0.83796 0.55530
 C313 C 0.31160 0.87178 0.53429
 C314 C 0.29033 0.84570 0.52215
 C315 C 0.24266 0.87142 0.49421
 C316 C 0.22449 0.87244 0.47347
 C317 C 0.32126 0.86044 0.59370
 C318 C 0.33706 0.85677 0.61604
 H319 H 0.26881 0.90483 0.58276
 H320 H 0.28658 0.91907 0.52165
 H321 H 0.22969 0.85736 0.56010
 H322 H 0.27860 0.81429 0.56529
 H323 H 0.33564 0.87595 0.52701
 H324 H 0.29643 0.82849 0.50428
   
