data_POSCAR
  _audit_creation_date              2014-09-24
  _audit_creation_method            'ToBaCCo'
  _symmetry_space_group_name_H-M    'P1'
  _symmetry_Int_Tables_number       1
  _symmetry_cell_setting            triclinic
  loop_
  _symmetry_equiv_pos_as_xyz
 x,y,z
_cell_length_a 25.5347
_cell_length_b 25.5336
_cell_length_c 25.5332
_cell_angle_alpha 89.752400
_cell_angle_beta 89.996500
_cell_angle_gamma 89.996300
loop_
  _atom_site_label
  _atom_site_type_symbol
  _atom_site_fract_x
  _atom_site_fract_y
  _atom_site_fract_z
N1 N 0.19392 0.19258 0.19261
 N2 N -0.19424 0.80557 0.19508
 N3 N -0.19310 0.19511 -0.19557
 N4 N 0.19444 0.80641 -0.19243
 N5 N 0.19421 1.19589 0.80460
 N6 N 0.80510 0.80572 0.80573
 N7 N 0.19527 0.80463 1.19481
 N8 N 0.80464 1.19418 1.19523
 N9 N 0.55658 1.09310 0.94293
 N10 N 0.59745 1.12421 0.93713
 N11 N 0.44518 1.05708 0.90686
 N12 N 0.40431 1.06293 0.87570
 N13 N 0.44635 1.09423 0.94228
 N14 N 0.40670 1.12681 0.93567
 N15 N 0.55540 1.05767 0.90581
 N16 N 0.59505 1.06417 0.87327
 C17 C 0.62087 1.10576 0.89339
 C18 C 0.38083 1.10672 0.89405
 N19 N 0.44595 0.90826 0.94351
 N20 N 0.40537 0.87673 0.93817
 N21 N 0.55585 0.94464 0.90595
 N22 N 0.59550 0.93807 0.87342
 N23 N 0.55666 0.90891 0.94309
 N24 N 0.59736 0.87757 0.93734
 N25 N 0.44608 0.94416 0.90654
 N26 N 0.40618 0.93748 0.87443
 Mn27 Mn 0.50056 1.00094 0.90563
 C28 C 0.38116 0.89534 0.89476
 C29 C 0.62108 0.89611 0.89361
 N30 N 0.44631 1.09414 1.05531
 N31 N 0.40644 1.12642 1.06152
 N32 N 0.55615 1.05660 1.09181
 N33 N 0.59648 1.06227 1.12367
 N34 N 0.55609 1.09353 1.05586
 N35 N 0.59578 1.12588 1.06283
 N36 N 0.44544 1.05702 1.09102
 N37 N 0.40447 1.06245 1.12200
 Mn38 Mn 0.50140 1.09441 0.99904
 C39 C 0.38073 1.10603 1.10325
 C40 C 0.62069 1.10579 1.10520
 N41 N 0.55654 0.90862 1.05555
 N42 N 0.59728 0.87739 1.06148
 N43 N 0.44507 0.94457 1.09145
 N44 N 0.40433 0.93858 1.12274
 N45 N 0.44631 0.90745 1.05608
 N46 N 0.40683 0.87470 1.06277
 N47 N 0.55530 0.94402 1.09264
 N48 N 0.59478 0.93743 1.12535
 Mn49 Mn 0.50143 0.90766 0.99951
 Mn50 Mn 0.50043 1.00060 1.09239
 Cl51 Cl 0.50096 1.00089 0.99915
 C52 C 0.62059 0.89577 1.10530
 C53 C 0.38097 0.89471 1.10445
 N54 N 0.05496 0.44451 0.09396
 N55 N 0.06147 0.40451 0.12621
 N56 N 0.09134 0.55466 0.05698
 N57 N 0.12306 0.59507 0.06268
 N58 N 0.05552 0.55427 0.09389
 N59 N 0.06248 0.59382 0.12629
 N60 N 0.09057 0.44399 0.05688
 N61 N 0.12177 0.40316 0.06231
 C62 C 0.10325 0.37910 0.10582
 C63 C 0.10470 0.61896 0.10622
 N64 N 0.05481 0.55646 -0.09097
 N65 N 0.06070 0.59756 -0.12191
 N66 N 0.09074 0.44466 -0.05549
 N67 N 0.12198 0.40394 -0.06150
 N68 N 0.05532 0.44621 -0.09269
 N69 N 0.06193 0.40696 -0.12555
 N70 N 0.09195 0.55484 -0.05549
 N71 N 0.12466 0.59438 -0.06172
 Mn72 Mn 0.09179 0.49947 0.00077
 C73 C 0.10456 0.62065 -0.10325
 C74 C 0.10362 0.38092 -0.10548
 N75 N -0.05740 0.55478 0.09329
 N76 N -0.06296 0.59545 0.12450
 N77 N -0.09361 0.44371 0.05669
 N78 N -0.12490 0.40291 0.06251
 N79 N -0.05805 0.44454 0.09386
 N80 N -0.06465 0.40473 0.12638
 N81 N -0.09461 0.55398 0.05779
 N82 N -0.12698 0.59372 0.06436
 Mn83 Mn -0.00129 0.49958 0.09441
 C84 C -0.10666 0.61918 0.10608
 C85 C -0.10645 0.37909 0.10627
 N86 N -0.05724 0.44589 -0.09215
 N87 N -0.06263 0.40566 -0.12396
 N88 N -0.09472 0.55547 -0.05531
 N89 N -0.12724 0.59521 -0.06181
 N90 N -0.05765 0.55658 -0.09095
 N91 N -0.06343 0.59754 -0.12214
 N92 N -0.09415 0.44565 -0.05635
 N93 N -0.12627 0.40582 -0.06338
 Mn94 Mn -0.00124 0.50136 -0.09235
 Mn95 Mn -0.09495 0.49963 0.00075
 Cl96 Cl -0.00143 0.50001 0.00089
 C97 C -0.10600 0.38125 -0.10564
 C98 C -0.10710 0.62114 -0.10362
 N99 N 0.90755 -0.05701 0.44549
 N100 N 0.87606 -0.06264 0.40491
 N101 N 0.94386 -0.09392 0.55575
 N102 N 0.93721 -0.12635 0.59563
 N103 N 0.90817 -0.05689 0.55626
 N104 N 0.87679 -0.06262 0.59699
 N105 N 0.94339 -0.09388 0.44600
 N106 N 0.93672 -0.12620 0.40639
 C107 C 0.89464 -0.10613 0.38113
 C108 C 0.89527 -0.10623 0.62105
 N109 N 1.09236 -0.05655 0.55616
 N110 N 1.12350 -0.06207 0.59703
 N111 N 1.05630 -0.09328 0.44509
 N112 N 1.06213 -0.12458 0.40448
 N113 N 1.09351 -0.05776 0.44598
 N114 N 1.12610 -0.06442 0.40642
 N115 N 1.05687 -0.09377 0.55535
 N116 N 1.06337 -0.12610 0.59528
 Mn117 Mn 1.00015 -0.09437 0.50049
 C118 C 1.10503 -0.10573 0.62088
 C119 C 1.10597 -0.10620 0.38088
 N120 N 0.90811 0.05566 0.55510
 N121 N 0.87711 0.06160 0.59600
 N122 N 0.94413 0.09109 0.44329
 N123 N 0.93813 0.12232 0.40238
 N124 N 0.90695 0.05562 0.44478
 N125 N 0.87418 0.06218 0.40528
 N126 N 0.94359 0.09280 0.55350
 N127 N 0.93729 0.12555 0.59284
 Mn128 Mn 0.90702 -0.00070 0.50048
 C129 C 0.89571 0.10550 0.61897
 C130 C 0.89422 0.10389 0.37914
 N131 N 1.09363 0.05519 0.44490
 N132 N 1.12607 0.06133 0.40512
 N133 N 1.05614 0.09216 0.55437
 N134 N 1.06180 0.12409 0.59453
 N135 N 1.09301 0.05630 0.55458
 N136 N 1.12533 0.06342 0.59426
 N137 N 1.05659 0.09084 0.44364
 N138 N 1.06226 0.12170 0.40247
 Mn139 Mn 1.09377 -0.00075 0.50047
 Mn140 Mn 1.00016 0.09238 0.49863
 Cl141 Cl 1.00025 -0.00085 0.50002
 C142 C 1.10588 0.10293 0.37903
 C143 C 1.10528 0.10578 0.61886
 C144 C 1.11704 0.16699 0.24622
 C145 C 1.17166 0.16877 0.23912
 C146 C 1.20426 0.14781 0.27838
 C147 C 1.18275 0.12523 0.32339
 C148 C 1.12838 0.12490 0.33081
 C149 C 1.09565 0.14611 0.29210
 H150 H 1.09097 0.18218 0.21637
 H151 H 1.24644 0.14929 0.27437
 H152 H 1.20863 0.10928 0.35306
 H153 H 1.05351 0.14579 0.29701
 C154 C 0.83026 -0.11743 0.24872
 C155 C 0.82891 -0.17206 0.24170
 C156 C 0.84980 -0.20459 0.28112
 C157 C 0.87212 -0.18300 0.32603
 C158 C 0.87221 -0.12863 0.33328
 C159 C 0.85085 -0.09597 0.29454
 H160 H 0.81512 -0.09139 0.21878
 H161 H 0.84862 -0.24677 0.27725
 H162 H 0.88820 -0.20883 0.35571
 H163 H 0.85102 -0.05383 0.29930
 C164 C 0.83167 0.11777 0.75145
 C165 C 0.83032 0.17244 0.75809
 C166 C 0.85138 0.20470 0.71853
 C167 C 0.87372 0.18280 0.67377
 C168 C 0.87370 0.12838 0.66684
 C169 C 0.85231 0.09600 0.70581
 H170 H 0.81641 0.09194 0.78151
 H171 H 0.85022 0.24690 0.72214
 H172 H 0.88981 0.20842 0.64392
 H173 H 0.85237 0.05383 0.70131
 C174 C 1.15020 -0.20396 0.72178
 C175 C 1.17129 -0.17132 0.76072
 C176 C 1.16986 -0.11673 0.75316
 C177 C 1.14894 -0.09539 0.70726
 C178 C 1.12738 -0.12815 0.66898
 C179 C 1.12759 -0.18250 0.67677
 H180 H 1.15142 -0.24613 0.72612
 H181 H 1.18517 -0.09064 0.78276
 H182 H 1.14875 -0.05326 0.70205
 H183 H 1.11143 -0.20841 0.64744
 C184 C 0.24826 1.11614 1.16767
 C185 C 0.24066 1.17069 1.16916
 C186 C 0.27957 1.20361 1.14802
 C187 C 0.32462 1.18248 1.12544
 C188 C 0.33249 1.12817 1.12530
 C189 C 0.29419 1.09513 1.14679
 H190 H 0.21871 1.08981 1.18298
 H191 H 0.27522 1.24576 1.14927
 H192 H 0.35396 1.20860 1.10931
 H193 H 0.29944 1.05303 1.14663
 C194 C 0.24884 0.83059 0.88426
 C195 C 0.24132 0.82938 0.82967
 C196 C 0.28041 0.85040 0.79691
 C197 C 0.32545 0.87279 0.81822
 C198 C 0.33318 0.87282 0.87255
 C199 C 0.29481 0.85127 0.90545
 H200 H 0.21916 0.81534 0.91048
 H201 H 0.27616 0.84932 0.75475
 H202 H 0.35485 0.88899 0.79221
 H203 H 0.29995 0.85136 0.94756
 C204 C 0.75264 0.83081 1.11767
 C205 C 0.75937 0.82908 1.17234
 C206 C 0.71999 0.85010 1.20457
 C207 C 0.67534 0.87288 1.18264
 C208 C 0.66835 0.87332 1.12822
 C209 C 0.70709 0.85189 1.09585
 H210 H 0.78259 0.81556 1.09188
 H211 H 0.72369 0.84864 1.24679
 H212 H 0.64564 0.88896 1.20824
 H213 H 0.70251 0.85228 1.05367
 C214 C 0.75324 1.17025 0.88159
 C215 C 0.76031 1.17179 0.82695
 C216 C 0.72105 1.15082 0.79456
 C217 C 0.67617 1.12829 0.81629
 C218 C 0.66884 1.12803 0.87068
 C219 C 0.70747 1.14941 0.90320
 H220 H 0.78309 1.18546 0.90751
 H221 H 0.72502 1.15212 0.75236
 H222 H 0.64657 1.11223 0.79056
 H223 H 0.70264 1.14916 0.94535
 C224 C 0.16853 0.24702 0.11607
 C225 C 0.17038 0.23936 0.17063
 C226 C 0.14930 0.27811 0.20351
 C227 C 0.12631 0.32305 0.18233
 C228 C 0.12572 0.33096 0.12801
 C229 C 0.14723 0.29287 0.09500
 H230 H 0.18380 0.21757 0.08980
 H231 H 0.15084 0.27367 0.24567
 H232 H 0.11020 0.35226 0.20841
 H233 H 0.14676 0.29819 0.05289
 C234 C -0.20379 0.28091 -0.15164
 C235 C -0.17101 0.24200 -0.17269
 C236 C -0.11644 0.24958 -0.17127
 C237 C -0.09529 0.29536 -0.15026
 C238 C -0.12820 0.33349 -0.12858
 C239 C -0.18252 0.32576 -0.12892
 H240 H -0.24595 0.27662 -0.15288
 H241 H -0.09020 0.22004 -0.18652
 H242 H -0.05318 0.30053 -0.14996
 H243 H -0.20855 0.35498 -0.11266
 C244 C 0.11701 0.75337 -0.16730
 C245 C 0.17169 0.76003 -0.16883
 C246 C 0.20389 0.72045 -0.14786
 C247 C 0.18192 0.67560 -0.12541
 C248 C 0.12749 0.66864 -0.12527
 C249 C 0.09515 0.70764 -0.14656
 H250 H 0.09124 0.78347 -0.18253
 H251 H 0.24610 0.72410 -0.14917
 H252 H 0.20750 0.64571 -0.10941
 H253 H 0.05297 0.70309 -0.14637
 C254 C -0.20474 0.71984 0.15095
 C255 C -0.17206 0.75876 0.17211
 C256 C -0.11749 0.75123 0.17086
 C257 C -0.09623 0.70541 0.15005
 C258 C -0.12904 0.66716 0.12841
 C259 C -0.18336 0.67491 0.12846
 H260 H -0.24690 0.72414 0.15202
 H261 H -0.09133 0.78080 0.18619
 H262 H -0.05412 0.70025 0.14999
 H263 H -0.20931 0.64561 0.11222
 C264 C 1.20404 0.15168 0.71868
 C265 C 1.17167 0.17284 0.75788
 C266 C 1.11702 0.17152 0.75065
 C267 C 1.09542 0.15060 0.70495
 C268 C 1.12793 0.12883 0.66651
 C269 C 1.18233 0.12903 0.67393
 H270 H 1.24623 0.15280 0.72263
 H271 H 1.09102 0.18683 0.78037
 H272 H 1.05327 0.15043 0.70012
 H273 H 1.20810 0.11268 0.64454
 C274 C 0.82761 -0.11803 0.75226
 C275 C 0.82769 -0.17278 0.76115
 C276 C 0.85127 -0.20484 0.72270
 C277 C 0.87412 -0.18308 0.67786
 C278 C 0.87257 -0.12891 0.66915
 C279 C 0.84892 -0.09659 0.70650
 H280 H 0.81153 -0.09154 0.78109
 H281 H 0.85110 -0.24707 0.72668
 H282 H 0.89179 -0.20880 0.64922
 H283 H 0.84786 -0.05453 0.70080
 C284 C 1.20497 -0.15099 0.28068
 C285 C 1.17268 -0.17225 0.24147
 C286 C 1.11802 -0.17111 0.24870
 C287 C 1.09636 -0.15039 0.29444
 C288 C 1.12878 -0.12865 0.33299
 C289 C 1.18317 -0.12856 0.32552
 H290 H 1.24716 -0.15194 0.27669
 H291 H 1.09209 -0.18649 0.21897
 H292 H 1.05421 -0.15044 0.29929
 H293 H 1.20889 -0.11224 0.35497
 C294 C 0.79480 0.14771 0.27843
 C295 C 0.82651 0.17157 0.23962
 C296 C 0.88131 0.17186 0.24793
 C297 C 0.90312 0.15044 0.29346
 C298 C 0.87113 0.12652 0.33119
 C299 C 0.81693 0.12477 0.32305
 H300 H 0.75255 0.14772 0.27489
 H301 H 0.90755 0.18817 0.21882
 H302 H 0.94520 0.15169 0.29873
 H303 H 0.79146 0.10692 0.35197
 C304 C 0.16937 0.24900 -0.11799
 C305 C 0.17072 0.24228 -0.17267
 C306 C 0.14917 0.28167 -0.20485
 C307 C 0.12627 0.32621 -0.18292
 C308 C 0.12617 0.33318 -0.12849
 C309 C 0.14816 0.29444 -0.09618
 H310 H 0.18496 0.21911 -0.09215
 H311 H 0.15027 0.27807 -0.24706
 H312 H 0.10980 0.35584 -0.20854
 H313 H 0.14811 0.29892 -0.05402
 C314 C -0.14950 0.27743 0.20533
 C315 C -0.17311 0.23882 0.17350
 C316 C -0.17360 0.24764 0.11873
 C317 C -0.15266 0.29347 0.09707
 C318 C -0.12897 0.33098 0.12917
 C319 C -0.12702 0.32235 0.18334
 H320 H -0.14936 0.27350 0.24756
 H321 H -0.18972 0.21869 0.09240
 H322 H -0.15401 0.29909 0.05501
 H323 H -0.10931 0.35109 0.20890
 C324 C -0.20559 0.72266 -0.14772
 C325 C -0.17347 0.76118 -0.17152
 C326 C -0.11874 0.75244 -0.17158
 C327 C -0.09738 0.70675 -0.15005
 C328 C -0.12976 0.66930 -0.12623
 C329 C -0.18390 0.67788 -0.12467
 H330 H -0.24780 0.72655 -0.14788
 H331 H -0.09221 0.78132 -0.18782
 H332 H -0.05535 0.70114 -0.15116
 H333 H -0.20966 0.64916 -0.10689
 C334 C 0.17071 0.75085 0.11774
 C335 C 0.17206 0.75796 0.17238
 C336 C 0.15068 0.71870 0.20483
 C337 C 0.12782 0.67400 0.18321
 C338 C 0.12763 0.66669 0.12883
 C339 C 0.14958 0.70521 0.09625
 H340 H 0.18617 0.78062 0.09169
 H341 H 0.15180 0.72257 0.24701
 H342 H 0.11138 0.64453 0.20904
 H343 H 0.14943 0.70046 0.05411
 C344 C 0.28011 1.20564 0.84925
 C345 C 0.24099 1.17333 0.82781
 C346 C 0.24841 1.11869 0.82893
 C347 C 0.29426 1.09708 0.84978
 C348 C 0.33273 1.12951 0.87165
 C349 C 0.32506 1.18388 0.87179
 H350 H 0.27597 1.24783 0.84834
 H351 H 0.21875 1.09274 0.81343
 H352 H 0.29925 1.05495 0.84967
 H353 H 0.35446 1.20962 0.88820
 C354 C 0.28108 0.79530 1.14989
 C355 C 0.24183 0.82743 1.17139
 C356 C 0.24889 0.88210 1.17010
 C357 C 0.29451 0.90395 1.14899
 C358 C 0.33309 0.87169 1.12705
 C359 C 0.32578 0.81728 1.12709
 H360 H 0.27723 0.75309 1.15094
 H361 H 0.21913 0.90792 1.18565
 H362 H 0.29923 0.94611 1.14897
 H363 H 0.35529 0.79169 1.11064
 C364 C 0.72131 1.20457 1.14952
 C365 C 0.76009 1.17258 1.17299
 C366 C 0.75161 1.11779 1.17323
 C367 C 0.70599 1.09625 1.15200
 C368 C 0.66841 1.12851 1.12828
 C369 C 0.67666 1.18272 1.12672
 H370 H 0.72495 1.24681 1.14963
 H371 H 0.78068 1.09136 1.18927
 H372 H 0.70063 1.05417 1.15307
 H373 H 0.64783 1.20838 1.10901
 C374 C 0.75210 0.82831 0.88194
 C375 C 0.76068 0.82836 0.82717
 C376 C 0.72210 0.85201 0.79505
 C377 C 0.67744 0.87497 0.81676
 C378 C 0.66904 0.87344 0.87094
 C379 C 0.70653 0.84972 0.90333
 H380 H 0.78105 0.81217 0.90845
 H381 H 0.72586 0.85182 0.75282
 H382 H 0.64869 0.89267 0.79101
 H383 H 0.70105 0.84866 0.94539
   
