data_POSCAR
  _audit_creation_date              2014-09-24
  _audit_creation_method            'ToBaCCo'
  _symmetry_space_group_name_H-M    'P1'
  _symmetry_Int_Tables_number       1
  _symmetry_cell_setting            triclinic
  loop_
  _symmetry_equiv_pos_as_xyz
 x,y,z
_cell_length_a 30.9331
_cell_length_b 30.9116
_cell_length_c 24.5203
_cell_angle_alpha 89.944100
_cell_angle_beta 89.948000
_cell_angle_gamma 90.159800
loop_
  _atom_site_label
  _atom_site_type_symbol
  _atom_site_fract_x
  _atom_site_fract_y
  _atom_site_fract_z
O1 O -0.04221 0.32106 0.05192
 O2 O 0.04321 0.32017 -0.05377
 O3 O -0.04172 0.32034 -0.05420
 O4 O 0.04276 0.32076 0.05244
 O5 O 0.04187 0.24921 0.05276
 O6 O -0.04167 0.24879 -0.05296
 O7 O 0.04237 0.24863 -0.05253
 O8 O -0.04220 0.24951 0.05225
 Cu9 Cu 0.00057 0.32789 -0.00097
 Cu10 Cu 0.00007 0.24188 -0.00003
 C11 C -0.05693 0.28523 0.06933
 C12 C 0.05745 0.28405 -0.07049
 C13 C -0.05624 0.28429 -0.07101
 C14 C 0.05684 0.28483 0.07006
 O15 O 0.45830 0.82080 0.55387
 O16 O 0.54298 0.82123 0.44726
 O17 O 0.45791 0.82124 0.44768
 O18 O 0.54323 0.82024 0.55343
 O19 O 0.54236 0.74870 0.55230
 O20 O 0.45796 0.74969 0.44742
 O21 O 0.54216 0.74968 0.44700
 O22 O 0.45827 0.74926 0.55275
 Cu23 Cu 0.50065 0.82817 0.50059
 Cu24 Cu 0.50014 0.74220 0.49976
 C25 C 0.44374 0.78477 0.57081
 C26 C 0.55721 0.78534 0.42975
 C27 C 0.44322 0.78542 0.43029
 C28 C 0.55744 0.78410 0.57021
 O29 O 0.95773 0.68032 -0.05553
 O30 O 1.04273 0.67925 0.05062
 O31 O 0.95767 0.67941 0.05062
 O32 O 1.04269 0.68025 -0.05561
 O33 O 1.04252 0.75177 -0.05421
 O34 O 0.95840 0.75095 0.05115
 O35 O 1.04258 0.75079 0.05113
 O36 O 0.95842 0.75184 -0.05413
 Cu37 Cu 1.00018 0.67252 -0.00254
 Cu38 Cu 1.00052 0.75848 -0.00140
 C39 C 0.94344 0.71645 -0.07222
 C40 C 1.05731 0.71505 0.06822
 C41 C 0.94336 0.71525 0.06821
 C42 C 1.05721 0.71636 -0.07234
 O43 O 0.45704 0.17823 0.44745
 O44 O 0.54145 0.17879 0.55421
 O45 O 0.45653 0.17884 0.55372
 O46 O 0.54201 0.17829 0.44812
 O47 O 0.54180 0.24984 0.44790
 O48 O 0.45718 0.25038 0.55259
 O49 O 0.54121 0.25034 0.55309
 O50 O 0.45773 0.24978 0.44724
 Cu51 Cu 0.49921 0.17123 0.50093
 Cu52 Cu 0.49947 0.25724 0.50012
 C53 C 0.44290 0.21413 0.42983
 C54 C 0.55586 0.21485 0.57111
 C55 C 0.44222 0.21491 0.57052
 C56 C 0.55664 0.21418 0.43078
 O57 O 0.67823 0.04160 -0.05168
 O58 O 0.67916 -0.04368 0.05428
 O59 O 0.67885 0.04127 0.05446
 O60 O 0.67847 -0.04348 -0.05185
 O61 O 0.74997 -0.04259 -0.05222
 O62 O 0.75035 0.04127 0.05320
 O63 O 0.75064 -0.04280 0.05301
 O64 O 0.74973 0.04158 -0.05204
 Cu65 Cu 0.67137 -0.00111 0.00135
 Cu66 Cu 0.75732 -0.00059 0.00038
 C67 C 0.71403 0.05630 -0.06915
 C68 C 0.71527 -0.05789 0.07102
 C69 C 0.71487 0.05582 0.07126
 C70 C 0.71436 -0.05766 -0.06937
 O71 O 0.17846 0.54202 0.44657
 O72 O 0.17778 0.45743 0.55346
 O73 O 0.17789 0.54255 0.55282
 O74 O 0.17849 0.45699 0.44736
 O75 O 0.24998 0.45754 0.44839
 O76 O 0.24938 0.54227 0.55299
 O77 O 0.24927 0.45802 0.55364
 O78 O 0.24995 0.54173 0.44761
 Cu79 Cu 0.17087 0.49976 0.50001
 Cu80 Cu 0.25678 0.49993 0.50074
 C81 C 0.21452 0.55640 0.42954
 C82 C 0.21361 0.44310 0.57095
 C83 C 0.21374 0.55714 0.57015
 C84 C 0.21452 0.44252 0.43065
 O85 O 0.32097 1.04425 0.05309
 O86 O 0.32117 0.95900 -0.05278
 O87 O 0.32095 1.04414 -0.05304
 O88 O 0.32096 0.95920 0.05342
 O89 O 0.24947 0.95939 0.05295
 O90 O 0.24946 1.04338 -0.05265
 O91 O 0.24968 0.95912 -0.05238
 O92 O 0.24949 1.04357 0.05262
 Cu93 Cu 0.32830 1.00166 0.00015
 Cu94 Cu 0.24239 1.00132 0.00011
 C95 C 0.28501 1.05861 0.07017
 C96 C 0.28527 0.94435 -0.06987
 C97 C 0.28499 1.05844 -0.07019
 C98 C 0.28500 0.94470 0.07063
 O99 O 0.82155 0.45782 0.44607
 O100 O 0.82281 0.54249 0.55248
 O101 O 0.82202 0.45738 0.55218
 O102 O 0.82177 0.54274 0.44630
 O103 O 0.75027 0.54247 0.44769
 O104 O 0.75052 0.45806 0.55266
 O105 O 0.75131 0.54226 0.55296
 O106 O 0.75005 0.45842 0.44744
 Cu107 Cu 0.82934 0.50010 0.49922
 Cu108 Cu 0.74339 0.50034 0.50033
 C109 C 0.78540 0.44359 0.42931
 C110 C 0.78707 0.55700 0.57007
 C111 C 0.78610 0.44297 0.56965
 C112 C 0.78576 0.55721 0.42958
 C113 C 0.17557 0.20692 0.11408
 C114 C 0.20770 0.17659 0.11252
 C115 C 0.23548 0.18581 0.15540
 N116 N 0.22125 0.22092 0.18285
 C117 C 0.18462 0.23398 0.15778
 C118 C 0.27222 0.16080 0.16904
 C119 C 0.30016 0.16922 0.21352
 C120 C 0.33243 0.14139 0.23101
 C121 C 0.35166 0.16045 0.27550
 C122 C 0.33067 0.19946 0.28416
 N123 N 0.29987 0.20486 0.24559
 C124 C 0.34044 0.22843 0.32714
 C125 C 0.31548 0.26506 0.34148
 C126 C 0.32464 0.29226 0.38500
 C127 C 0.29255 0.32263 0.38651
 C128 C 0.26468 0.31329 0.34377
 N129 N 0.27882 0.27807 0.31646
 C130 C 0.22789 0.33824 0.33018
 C131 C 0.19986 0.32974 0.28582
 C132 C 0.16745 0.35746 0.26847
 C133 C 0.14819 0.33837 0.22405
 C134 C 0.16930 0.29944 0.21527
 N135 N 0.20021 0.29412 0.25372
 C136 C 0.15957 0.27050 0.17227
 H137 H 0.14875 0.20887 0.08589
 H138 H 0.21007 0.15055 0.08320
 H139 H 0.21832 0.26648 0.26000
 H140 H 0.34092 0.11026 0.21396
 H141 H 0.37776 0.14677 0.29924
 H142 H 0.35152 0.29038 0.41312
 H143 H 0.29025 0.34877 0.41569
 H144 H 0.12199 0.35198 0.20041
 H145 H 0.28190 0.23257 0.23917
 H146 H 0.15889 0.38856 0.28557
 C147 C 0.67662 0.70773 0.38553
 C148 C 0.70698 0.67562 0.38428
 C149 C 0.73441 0.68484 0.34095
 N150 N 0.72157 0.72155 0.31580
 C151 C 0.68621 0.73568 0.34283
 C152 C 0.77111 0.65991 0.32691
 C153 C 0.80023 0.66973 0.28405
 C154 C 0.83933 0.64886 0.27571
 C155 C 0.85848 0.66806 0.23120
 C156 C 0.83062 0.70019 0.21336
 N157 N 0.79487 0.70044 0.24525
 C158 C 0.83909 0.72803 0.16871
 C159 C 0.81412 0.76474 0.15476
 C160 C 0.82341 0.79239 0.11166
 C161 C 0.79315 0.82459 0.11301
 C162 C 0.76606 0.81572 0.15680
 N163 N 0.77903 0.77912 0.18213
 C164 C 0.72963 0.84092 0.17119
 C165 C 0.70061 0.83126 0.21423
 C166 C 0.66178 0.85253 0.22300
 C167 C 0.64254 0.83323 0.26740
 C168 C 0.67008 0.80066 0.28476
 N169 N 0.70573 0.80024 0.25268
 C170 C 0.66139 0.77254 0.32907
 H171 H 0.65033 0.71000 0.41453
 H172 H 0.70870 0.64869 0.41243
 H173 H 0.73323 0.78195 0.25895
 H174 H 0.85299 0.62285 0.29968
 H175 H 0.88969 0.65963 0.21434
 H176 H 0.84947 0.78989 0.08235
 H177 H 0.79128 0.85136 0.08464
 H178 H 0.61147 0.84188 0.28448
 H179 H 0.76712 0.71827 0.23852
 H180 H 0.64832 0.87883 0.19936
 C181 C 0.79309 0.17510 0.11519
 C182 C 0.82332 0.20749 0.11354
 C183 C 0.81384 0.23539 0.15619
 N184 N 0.77868 0.22098 0.18358
 C185 C 0.76585 0.18412 0.15871
 C186 C 0.83866 0.27241 0.16970
 C187 C 0.83003 0.30050 0.21392
 C188 C 0.85773 0.33306 0.23131
 C189 C 0.83849 0.35234 0.27559
 C190 C 0.79951 0.33109 0.28424
 N191 N 0.79429 0.30008 0.24584
 C192 C 0.77042 0.34079 0.32708
 C193 C 0.73386 0.31557 0.34149
 C194 C 0.70656 0.32464 0.38493
 C195 C 0.67632 0.29226 0.38656
 C196 C 0.68585 0.26431 0.34397
 N197 N 0.72105 0.27869 0.31663
 C198 C 0.66107 0.22726 0.33050
 C199 C 0.66973 0.19912 0.28633
 C200 C 0.64210 0.16648 0.26905
 C201 C 0.66135 0.14718 0.22479
 C202 C 0.70027 0.16852 0.21605
 N203 N 0.70545 0.19959 0.25437
 C204 C 0.72935 0.15884 0.17319
 H205 H 0.79133 0.14811 0.08718
 H206 H 0.84946 0.20995 0.08433
 H207 H 0.73304 0.21789 0.26070
 H208 H 0.88889 0.34170 0.21433
 H209 H 0.85204 0.37863 0.29922
 H210 H 0.70830 0.35164 0.41291
 H211 H 0.65014 0.28982 0.41572
 H212 H 0.64784 0.12083 0.20123
 H213 H 0.76665 0.28187 0.23942
 H214 H 0.61097 0.15778 0.28607
 C215 C 0.17681 0.79276 0.11299
 C216 C 0.20703 0.82515 0.11463
 C217 C 0.23422 0.81609 0.15814
 N218 N 0.22134 0.77918 0.18304
 C219 C 0.18621 0.76479 0.15566
 C220 C 0.27070 0.84138 0.17261
 C221 C 0.29974 0.83162 0.21547
 C222 C 0.33863 0.85297 0.22423
 C223 C 0.35784 0.83359 0.26848
 C224 C 0.33022 0.80088 0.28575
 N225 N 0.29455 0.80046 0.25378
 C226 C 0.33884 0.77267 0.32993
 C227 C 0.31398 0.73563 0.34347
 C228 C 0.32342 0.70765 0.38610
 C229 C 0.29313 0.67532 0.38457
 C230 C 0.26587 0.68442 0.34114
 N231 N 0.27877 0.72130 0.31620
 C232 C 0.22929 0.65922 0.32680
 C233 C 0.20029 0.66895 0.28388
 C234 C 0.16136 0.64766 0.27515
 C235 C 0.14222 0.66697 0.23079
 C236 C 0.16991 0.69959 0.21344
 N237 N 0.20555 0.70002 0.24546
 C238 C 0.16136 0.72773 0.16915
 H239 H 0.15072 0.79033 0.08377
 H240 H 0.20883 0.85217 0.08660
 H241 H 0.23317 0.71830 0.23911
 H242 H 0.35215 0.87938 0.20069
 H243 H 0.38894 0.84227 0.28551
 H244 H 0.34958 0.71003 0.41524
 H245 H 0.29134 0.64830 0.41261
 H246 H 0.11111 0.65830 0.21375
 H247 H 0.26697 0.78211 0.26008
 H248 H 0.14778 0.62132 0.29877
 C249 C 0.79202 0.17582 0.88651
 C250 C 0.82447 0.20599 0.88489
 C251 C 0.81547 0.23335 0.84146
 N252 N 0.77857 0.22064 0.81661
 C253 C 0.76411 0.18545 0.84393
 C254 C 0.84079 0.26986 0.82704
 C255 C 0.83114 0.29902 0.78425
 C256 C 0.85251 0.33796 0.77560
 C257 C 0.83327 0.35729 0.73137
 C258 C 0.80063 0.32969 0.71401
 N259 N 0.80011 0.29392 0.74589
 C260 C 0.77256 0.33844 0.66981
 C261 C 0.73548 0.31373 0.65630
 C262 C 0.70761 0.32333 0.61368
 C263 C 0.67516 0.29316 0.61530
 C264 C 0.68411 0.26583 0.65876
 N265 N 0.72099 0.27855 0.68364
 C266 C 0.65878 0.22933 0.67319
 C267 C 0.66840 0.20018 0.71602
 C268 C 0.64701 0.16126 0.72471
 C269 C 0.66625 0.14193 0.76896
 C270 C 0.69892 0.16950 0.78628
 N271 N 0.69946 0.20527 0.75436
 C272 C 0.72702 0.16074 0.83045
 H273 H 0.78952 0.14962 0.91567
 H274 H 0.85147 0.20764 0.91286
 H275 H 0.71780 0.23284 0.76073
 H276 H 0.87885 0.35142 0.79921
 H277 H 0.84200 0.38846 0.71441
 H278 H 0.71013 0.34952 0.58451
 H279 H 0.64818 0.29150 0.58730
 H280 H 0.65750 0.11077 0.78594
 H281 H 0.78180 0.26632 0.73948
 H282 H 0.62065 0.14781 0.70113
 C283 C 0.29203 0.67650 0.61440
 C284 C 0.32449 0.70666 0.61586
 C285 C 0.31541 0.73415 0.65908
 N286 N 0.27844 0.72152 0.68396
 C287 C 0.26402 0.68625 0.65686
 C288 C 0.34071 0.77071 0.67323
 C289 C 0.33097 0.80003 0.71582
 C290 C 0.35232 0.83899 0.72424
 C291 C 0.33297 0.85847 0.76832
 C292 C 0.30027 0.83095 0.78583
 N293 N 0.29982 0.79507 0.75417
 C294 C 0.27210 0.83983 0.82996
 C295 C 0.23502 0.81509 0.84363
 C296 C 0.20710 0.82474 0.88623
 C297 C 0.17470 0.79451 0.88485
 C298 C 0.18372 0.76709 0.84154
 N299 N 0.22059 0.77982 0.81652
 C300 C 0.15841 0.73053 0.82737
 C301 C 0.16806 0.70130 0.78465
 C302 C 0.14661 0.66242 0.77609
 C303 C 0.16590 0.64300 0.73193
 C304 C 0.19867 0.67048 0.71452
 N305 N 0.19921 0.70627 0.74631
 C306 C 0.22686 0.66160 0.67041
 H307 H 0.28960 0.65022 0.58542
 H308 H 0.35155 0.70821 0.58792
 H309 H 0.21765 0.73377 0.73988
 H310 H 0.37873 0.85236 0.70058
 H311 H 0.34167 0.88968 0.78508
 H312 H 0.20957 0.85099 0.91525
 H313 H 0.14772 0.79288 0.91291
 H314 H 0.15712 0.61185 0.71506
 H315 H 0.28148 0.76752 0.76074
 H316 H 0.12016 0.64906 0.79970
 C317 C 0.17517 0.20638 0.88725
 C318 C 0.20746 0.17621 0.88849
 C319 C 0.23503 0.18568 0.84538
 N320 N 0.22052 0.22079 0.81813
 C321 C 0.18392 0.23360 0.84353
 C322 C 0.27181 0.16086 0.83134
 C323 C 0.29957 0.16950 0.78668
 C324 C 0.33179 0.14178 0.76878
 C325 C 0.35088 0.16108 0.72428
 C326 C 0.32984 0.20013 0.71602
 N327 N 0.29916 0.20531 0.75485
 C328 C 0.33951 0.22936 0.67320
 C329 C 0.31445 0.26601 0.65927
 C330 C 0.32350 0.29354 0.61597
 C331 C 0.29130 0.32381 0.61484
 C332 C 0.26346 0.31407 0.65758
 N333 N 0.27774 0.27870 0.68451
 C334 C 0.22657 0.33878 0.67147
 C335 C 0.19854 0.32992 0.71582
 C336 C 0.16593 0.35735 0.73330
 C337 C 0.14676 0.33796 0.77768
 C338 C 0.16813 0.29915 0.78631
 N339 N 0.19910 0.29419 0.74779
 C340 C 0.15860 0.27000 0.82928
 H341 H 0.14844 0.20812 0.91566
 H342 H 0.21007 0.15010 0.91773
 H343 H 0.21745 0.26673 0.74140
 H344 H 0.34036 0.11056 0.78558
 H345 H 0.37691 0.14755 0.70028
 H346 H 0.35038 0.29195 0.58777
 H347 H 0.28891 0.35014 0.58589
 H348 H 0.12047 0.35131 0.80141
 H349 H 0.28121 0.23299 0.76164
 H350 H 0.15718 0.38846 0.71633
 C351 C 0.67688 0.70570 0.61520
 C352 C 0.70933 0.67571 0.61396
 C353 C 0.73716 0.68564 0.65656
 N354 N 0.72263 0.72087 0.68351
 C355 C 0.68577 0.73326 0.65842
 C356 C 0.77426 0.66120 0.67034
 C357 C 0.80235 0.67021 0.71449
 C358 C 0.83519 0.64296 0.73180
 C359 C 0.85436 0.66244 0.77603
 C360 C 0.83277 0.70110 0.78475
 N361 N 0.80166 0.70590 0.74641
 C362 C 0.84219 0.73024 0.82767
 C363 C 0.81657 0.76640 0.84202
 C364 C 0.82515 0.79365 0.88567
 C365 C 0.79258 0.82351 0.88704
 C366 C 0.76502 0.81384 0.84408
 N367 N 0.77981 0.77889 0.81679
 C368 C 0.72801 0.83835 0.83018
 C369 C 0.70021 0.82959 0.78570
 C370 C 0.66775 0.85712 0.76799
 C371 C 0.64869 0.83776 0.72362
 C372 C 0.66997 0.79887 0.71523
 N373 N 0.70080 0.79384 0.75388
 C374 C 0.66042 0.76967 0.67244
 H375 H 0.64993 0.70710 0.58713
 H376 H 0.71189 0.64942 0.58503
 H377 H 0.71897 0.76629 0.76061
 H378 H 0.84408 0.61193 0.71480
 H379 H 0.88080 0.64924 0.79960
 H380 H 0.85195 0.79212 0.91394
 H381 H 0.78979 0.84957 0.91627
 H382 H 0.62251 0.85115 0.69977
 H383 H 0.78309 0.73322 0.74007
 H384 H 0.65901 0.88825 0.78484
 C385 C 0.28389 0.09197 0.10609
 C386 C 0.28014 0.12273 0.13594
 C387 C 0.78632 0.59217 0.60806
 C388 C 0.78248 0.62303 0.63765
 C389 C 0.71674 0.90895 0.10723
 C390 C 0.72096 0.87848 0.13745
 C391 C 0.21457 0.40789 0.60903
 C392 C 0.21846 0.37700 0.63868
 C393 C 0.90775 0.28434 0.10719
 C394 C 0.87684 0.28049 0.13680
 C395 C 0.40888 0.78344 0.60934
 C396 C 0.37839 0.77926 0.63957
 C397 C 0.09247 0.71587 0.10632
 C398 C 0.12326 0.71967 0.13610
 C399 C 0.59070 0.21630 0.60952
 C400 C 0.62118 0.22065 0.63962
 C401 C 0.71494 0.09162 0.89295
 C402 C 0.71885 0.12254 0.86334
 C403 C 0.21602 0.59120 0.39089
 C404 C 0.22043 0.62164 0.36057
 C405 C 0.28417 0.90903 0.89225
 C406 C 0.28023 0.87810 0.86270
 C407 C 0.78372 0.40877 0.39087
 C408 C 0.77924 0.37834 0.36071
 C409 C 0.09061 0.28263 0.89333
 C410 C 0.12107 0.27850 0.86309
 C411 C 0.59239 0.78434 0.39167
 C412 C 0.62323 0.78051 0.36198
 C413 C 0.91031 0.71789 0.89159
 C414 C 0.87982 0.72194 0.86139
 C415 C 0.40819 0.21525 0.39121
 C416 C 0.37785 0.21954 0.36089
 C417 C 0.71549 0.90719 0.89265
 C418 C 0.71960 0.87639 0.86303
 C419 C 0.21589 0.40719 0.39282
 C420 C 0.21990 0.37634 0.36320
 C421 C 0.28386 0.09184 0.89392
 C422 C 0.27997 0.12269 0.86421
 C423 C 0.78436 0.59210 0.39112
 C424 C 0.77996 0.62250 0.36082
 C425 C 0.09030 0.71778 0.89136
 C426 C 0.12077 0.72194 0.86108
 C427 C 0.59199 0.21520 0.39298
 C428 C 0.62290 0.21914 0.36341
 C429 C 0.90890 0.28288 0.89063
 C430 C 0.87841 0.27853 0.86057
 C431 C 0.40791 0.78453 0.39244
 C432 C 0.37701 0.78070 0.36284
 C433 C 0.28371 0.90971 0.10901
 C434 C 0.27943 0.87912 0.13909
 C435 C 0.78490 0.40758 0.60742
 C436 C 0.78081 0.37663 0.63694
 C437 C 0.71626 0.09071 0.10961
 C438 C 0.72061 0.12121 0.13968
 C439 C 0.21475 0.59247 0.60801
 C440 C 0.21868 0.62339 0.63759
 C441 C 0.90810 0.71617 0.10616
 C442 C 0.87723 0.72002 0.13580
 C443 C 0.40730 0.21636 0.60893
 C444 C 0.37691 0.22069 0.63922
 C445 C 0.09165 0.28365 0.10850
 C446 C 0.12207 0.27934 0.13866
 C447 C 0.59243 0.78250 0.60847
 C448 C 0.62290 0.77817 0.63862
   
