data_POSCAR
  _audit_creation_date              2014-09-24
  _audit_creation_method            'ToBaCCo'
  _symmetry_space_group_name_H-M    'P1'
  _symmetry_Int_Tables_number       1
  _symmetry_cell_setting            triclinic
  loop_
  _symmetry_equiv_pos_as_xyz
 x,y,z
_cell_length_a 44.1484
_cell_length_b 44.2004
_cell_length_c 25.1312
_cell_angle_alpha 89.871200
_cell_angle_beta 90.064500
_cell_angle_gamma 120.045000
loop_
  _atom_site_label
  _atom_site_type_symbol
  _atom_site_fract_x
  _atom_site_fract_y
  _atom_site_fract_z
O1 O 0.45813 0.96662 0.55052
 O2 O 0.49266 1.03474 0.44678
 O3 O 0.45862 0.96670 0.44687
 O4 O 0.49217 1.03465 0.55046
 O5 O 0.54225 1.03472 0.55121
 O6 O 0.50869 0.96677 0.44761
 O7 O 0.54271 1.03481 0.44753
 O8 O 0.50821 0.96668 0.55127
 Cu9 Cu 0.47037 1.00067 0.49858
 Cu10 Cu 0.53050 1.00076 0.49948
 C11 C 0.47732 0.95509 0.56858
 C12 C 0.52356 1.04636 0.42938
 C13 C 0.47796 0.95520 0.42959
 C14 C 0.52290 1.04620 0.56852
 O15 O 0.03278 0.54159 0.44840
 O16 O -0.03533 0.50713 0.55206
 O17 O 0.03278 0.54116 0.55204
 O18 O -0.03533 0.50751 0.44836
 O19 O -0.03534 0.45755 0.44795
 O20 O 0.03277 0.49117 0.55162
 O21 O -0.03535 0.45716 0.55165
 O22 O 0.03277 0.49160 0.44798
 Cu23 Cu -0.00128 0.52936 0.50026
 Cu24 Cu -0.00130 0.46935 0.49976
 C25 C 0.04434 0.52245 0.43052
 C26 C -0.04691 0.47629 0.56964
 C27 C 0.04433 0.52187 0.56950
 C28 C -0.04691 0.47681 0.43037
 O29 O 0.50869 0.54193 0.55240
 O30 O 0.54225 0.50754 0.44882
 O31 O 0.50821 0.54153 0.44875
 O32 O 0.54271 0.50792 0.55249
 O33 O 0.49266 0.45792 0.55324
 O34 O 0.45813 0.49151 0.44950
 O35 O 0.49218 0.45752 0.44956
 O36 O 0.45861 0.49191 0.55315
 Cu37 Cu 0.53049 0.52975 0.50054
 Cu38 Cu 0.47037 0.46969 0.50144
 C39 C 0.47795 0.52275 0.57043
 C40 C 0.52290 0.47671 0.43151
 C41 C 0.47731 0.52222 0.43144
 C42 C 0.52356 0.47720 0.57064
 O43 O 0.38438 0.66831 -0.06109
 O44 O 0.38591 0.72731 -0.04478
 C45 C 0.36404 0.73204 -0.07122
 O46 O 0.33154 0.71599 -0.06140
 O47 O 0.27244 0.65846 -0.04471
 C48 C 0.26768 0.63188 -0.07099
 O49 O 0.28374 0.61547 -0.06109
 O50 O 0.34130 0.61399 -0.04439
 C51 C 0.36793 0.63584 -0.07079
 O52 O 0.38591 0.65857 0.04480
 O53 O 0.38439 0.71606 0.06110
 C54 C 0.36794 0.73207 0.07080
 O55 O 0.34131 0.72729 0.04440
 O56 O 0.28374 0.66824 0.06111
 C57 C 0.26769 0.63577 0.07101
 O58 O 0.27244 0.61394 0.04473
 O59 O 0.33154 0.61552 0.06142
 C60 C 0.36404 0.63198 0.07123
 Cr61 Cr 0.38322 0.69160 0.00001
 Cr62 Cr 0.30822 0.69153 -0.00014
 Cr63 Cr 0.30822 0.61666 0.00016
 O64 O 0.33322 0.66660 0.00001
 O65 O 0.61422 0.34153 -0.04470
 O66 O 0.61576 0.28407 -0.06114
 C67 C 0.63222 0.26808 -0.07091
 O68 O 0.65883 0.27281 -0.04448
 O69 O 0.71640 0.33185 -0.06110
 C70 C 0.73241 0.36431 -0.07105
 O71 O 0.72768 0.38615 -0.04474
 O72 O 0.66859 0.38458 -0.06134
 C73 C 0.63608 0.36812 -0.07114
 O74 O 0.61576 0.33172 0.06116
 O75 O 0.61422 0.27272 0.04473
 C76 C 0.63608 0.26799 0.07116
 O77 O 0.66858 0.28404 0.06136
 O78 O 0.72768 0.34157 0.04475
 C79 C 0.73242 0.36814 0.07106
 O80 O 0.71640 0.38458 0.06111
 O81 O 0.65884 0.38605 0.04450
 C82 C 0.63223 0.36418 0.07093
 Cr83 Cr 0.61692 0.30847 0.00001
 Cr84 Cr 0.69191 0.30853 0.00013
 Cr85 Cr 0.69191 0.38341 -0.00012
 O86 O 0.66691 0.33347 0.00001
 N87 N 0.41844 0.89119 -0.33244
 C88 C 0.43861 0.87873 -0.31242
 N89 N 0.47145 0.89127 -0.33164
 N90 N 0.48377 0.91555 -0.36971
 C91 C 0.46365 0.92812 -0.38982
 N92 N 0.43075 0.91548 -0.37051
 C93 C 0.42548 0.85283 -0.27105
 C94 C 0.41452 0.83121 -0.23611
 C95 C 0.40156 0.80562 -0.19429
 N96 N 0.42387 0.79941 -0.16548
 N97 N 0.41189 0.77588 -0.12632
 C98 C 0.37720 0.75778 -0.11465
 N99 N 0.35492 0.76404 -0.14365
 N100 N 0.36691 0.78758 -0.18281
 N101 N 0.10823 0.52695 -0.33149
 C102 C 0.12076 0.55958 -0.31168
 N103 N 0.10826 0.57987 -0.33103
 N104 N 0.08394 0.56788 -0.36904
 C105 C 0.07132 0.53519 -0.38895
 N106 N 0.08392 0.51495 -0.36950
 C107 C 0.14669 0.57237 -0.27039
 C108 C 0.16835 0.58306 -0.23552
 C109 C 0.19398 0.59572 -0.19379
 N110 N 0.20023 0.62423 -0.16514
 N111 N 0.22380 0.63581 -0.12607
 C112 C 0.24190 0.61926 -0.11433
 N113 N 0.23560 0.59072 -0.14316
 N114 N 0.21202 0.57915 -0.18224
 N115 N 0.41994 0.52857 -0.33009
 C116 C 0.44027 0.56137 -0.31094
 N117 N 0.47295 0.58152 -0.33088
 N118 N 0.48494 0.56924 -0.36883
 C119 C 0.46465 0.53639 -0.38807
 N120 N 0.43193 0.51628 -0.36803
 C121 C 0.42748 0.57448 -0.26973
 C122 C 0.41679 0.58543 -0.23494
 C123 C 0.40412 0.59837 -0.19331
 N124 N 0.42073 0.63299 -0.18196
 N125 N 0.40914 0.64496 -0.14298
 C126 C 0.38056 0.62270 -0.11403
 N127 N 0.36397 0.58805 -0.12556
 N128 N 0.37556 0.57608 -0.16454
 N129 N 0.52776 0.10970 -0.33239
 C130 C 0.56040 0.12216 -0.31234
 N131 N 0.58077 0.10977 -0.33160
 N132 N 0.56885 0.08562 -0.36973
 C133 C 0.53616 0.07306 -0.38987
 N134 N 0.51584 0.08555 -0.37052
 C135 C 0.57310 0.14789 -0.27088
 C136 C 0.58371 0.16938 -0.23587
 C137 C 0.59627 0.19482 -0.19399
 N138 N 0.62477 0.20099 -0.16515
 N139 N 0.63628 0.22441 -0.12596
 C140 C 0.61965 0.24242 -0.11430
 N141 N 0.59113 0.23619 -0.14333
 N142 N 0.57963 0.21277 -0.18251
 N143 N 0.89081 0.41833 -0.33300
 C144 C 0.87839 0.43850 -0.31310
 N145 N 0.89083 0.47125 -0.33258
 N146 N 0.91501 0.48348 -0.37079
 C147 C 0.92758 0.46339 -0.39082
 N148 N 0.91498 0.43055 -0.37121
 C149 C 0.85264 0.42548 -0.27153
 C150 C 0.83115 0.41459 -0.23642
 C151 C 0.80571 0.40170 -0.19443
 N152 N 0.79956 0.42400 -0.16570
 N153 N 0.77614 0.41208 -0.12642
 C154 C 0.75809 0.37744 -0.11453
 N155 N 0.76430 0.35517 -0.14343
 N156 N 0.78772 0.36710 -0.18271
 N157 N 0.52872 0.41992 -0.33165
 C158 C 0.56155 0.44023 -0.31241
 N159 N 0.58172 0.47286 -0.33243
 N160 N 0.56942 0.48484 -0.37052
 C161 C 0.53651 0.46459 -0.38989
 N162 N 0.51641 0.43189 -0.36973
 C163 C 0.57467 0.42747 -0.27101
 C164 C 0.58562 0.41681 -0.23605
 C165 C 0.59857 0.40419 -0.19421
 N166 N 0.63322 0.42080 -0.18273
 N167 N 0.64521 0.40926 -0.14357
 C168 C 0.62293 0.38072 -0.11456
 N169 N 0.58823 0.36412 -0.12622
 N170 N 0.57626 0.37567 -0.16538
 N171 N 0.89083 0.47251 0.33301
 C172 C 0.87839 0.43992 0.31310
 N173 N 0.89082 0.41960 0.33258
 N174 N 0.91500 0.43154 0.37080
 C175 C 0.92759 0.46421 0.39083
 N176 N 0.91500 0.48446 0.37122
 C177 C 0.85265 0.42720 0.27153
 C178 C 0.83116 0.41660 0.23643
 C179 C 0.80572 0.40405 0.19443
 N180 N 0.79956 0.37560 0.16571
 N181 N 0.77614 0.36411 0.12642
 C182 C 0.75810 0.38070 0.11454
 N183 N 0.76431 0.40918 0.14344
 N184 N 0.78774 0.42066 0.18272
 N185 N 0.58172 0.10889 0.33245
 C186 C 0.56155 0.12134 0.31244
 N187 N 0.52872 0.10881 0.33167
 N188 N 0.51641 0.08453 0.36976
 C189 C 0.53651 0.07193 0.38991
 N190 N 0.56943 0.08461 0.37054
 C191 C 0.57466 0.14722 0.27104
 C192 C 0.58562 0.16883 0.23607
 C193 C 0.59857 0.19441 0.19424
 N194 N 0.57626 0.20061 0.16541
 N195 N 0.58823 0.22413 0.12625
 C196 C 0.62293 0.24224 0.11458
 N197 N 0.64521 0.23598 0.14359
 N198 N 0.63322 0.21245 0.18275
 N199 N 0.52778 0.41808 0.33241
 C200 C 0.56041 0.43826 0.31236
 N201 N 0.58078 0.47103 0.33162
 N202 N 0.56886 0.48325 0.36976
 C203 C 0.53617 0.46311 0.38989
 N204 N 0.51585 0.43029 0.37055
 C205 C 0.57312 0.42524 0.27091
 C206 C 0.58373 0.41436 0.23590
 C207 C 0.59629 0.40148 0.19402
 N208 N 0.62479 0.42381 0.16517
 N209 N 0.63629 0.41191 0.12599
 C210 C 0.61967 0.37727 0.11433
 N211 N 0.59114 0.35497 0.14335
 N212 N 0.57964 0.36689 0.18253
 N213 N 0.10825 0.52835 0.33105
 C214 C 0.12076 0.56115 0.31170
 N215 N 0.10825 0.58127 0.33152
 N216 N 0.08394 0.56896 0.36953
 C217 C 0.07133 0.53611 0.38897
 N218 N 0.08393 0.51604 0.36906
 C219 C 0.14669 0.57428 0.27041
 C220 C 0.16835 0.58525 0.23554
 C221 C 0.19398 0.59822 0.19382
 N222 N 0.21203 0.63284 0.18226
 N223 N 0.23561 0.64484 0.14319
 C224 C 0.24191 0.62261 0.11435
 N225 N 0.22380 0.58795 0.12610
 N226 N 0.20023 0.57596 0.16517
 N227 N 0.41995 0.89136 0.33010
 C228 C 0.44029 0.87890 0.31095
 N229 N 0.47296 0.89143 0.33089
 N230 N 0.48495 0.91570 0.36884
 C231 C 0.46466 0.92826 0.38809
 N232 N 0.43194 0.91563 0.36805
 C233 C 0.42750 0.85299 0.26974
 C234 C 0.41681 0.83135 0.23495
 C235 C 0.40414 0.80574 0.19332
 N236 N 0.42074 0.78773 0.18198
 N237 N 0.40915 0.76417 0.14300
 C238 C 0.38057 0.75784 0.11405
 N239 N 0.36398 0.77590 0.12557
 N240 N 0.37558 0.79946 0.16455
 N241 N 0.47145 0.58018 0.33165
 C242 C 0.43861 0.55986 0.31244
 N243 N 0.41844 0.52723 0.33245
 N244 N 0.43075 0.51525 0.37052
 C245 C 0.46364 0.53552 0.38984
 N246 N 0.48376 0.56821 0.36973
 C247 C 0.42548 0.57263 0.27106
 C248 C 0.41452 0.58329 0.23612
 C249 C 0.40156 0.59592 0.19431
 N250 N 0.36690 0.57930 0.18282
 N251 N 0.35491 0.59085 0.14367
 C252 C 0.37719 0.61939 0.11467
 N253 N 0.41189 0.63599 0.12633
 N254 N 0.42386 0.62444 0.16549
   
