data_POSCAR
  _audit_creation_date              2014-09-24
  _audit_creation_method            'ToBaCCo'
  _symmetry_space_group_name_H-M    'P1'
  _symmetry_Int_Tables_number       1
  _symmetry_cell_setting            triclinic
  loop_
  _symmetry_equiv_pos_as_xyz
 x,y,z
_cell_length_a 42.2637
_cell_length_b 39.9125
_cell_length_c 42.5781
_cell_angle_alpha 89.645600
_cell_angle_beta 91.009800
_cell_angle_gamma 90.386900
loop_
  _atom_site_label
  _atom_site_type_symbol
  _atom_site_fract_x
  _atom_site_fract_y
  _atom_site_fract_z
C1 C 0.20239 0.52623 1.04145
 H2 H 0.20200 0.54780 1.02593
 C3 C 0.18264 0.52506 1.06731
 H4 H 0.16673 0.54580 1.07058
 C5 C 0.22227 0.47236 1.05370
 H6 H 0.23743 0.45165 1.04807
 C7 C 0.20260 0.46985 1.07959
 H8 H 0.20424 0.44753 1.09403
 N9 N 0.22196 0.50033 1.03537
 C10 C 0.29193 0.54928 0.97629
 H11 H 0.29077 0.53358 0.95567
 C12 C 0.31307 0.57631 0.97752
 H13 H 0.32820 0.58130 0.95775
 C14 C 0.27486 0.56071 1.02782
 H15 H 0.26060 0.55408 1.04773
 C16 C 0.29587 0.58773 1.03018
 H17 H 0.29707 0.60208 1.05168
 Zn18 Zn 0.24680 0.50368 0.99905
 N19 N 0.27315 0.54219 1.00111
 C20 C 0.21760 0.53117 0.94337
 N21 N 0.21818 0.50543 0.96445
 C22 C 0.19671 0.47998 0.96272
 C23 C 0.17356 0.47958 0.93900
 C24 C 0.19499 0.53160 0.91900
 C25 C 0.29421 0.46044 1.02018
 C26 C 0.31496 0.43346 1.01927
 C27 C 0.29357 0.41931 0.96799
 C28 C 0.27279 0.44626 0.97012
 N29 N 0.27344 0.46608 0.99601
 H30 H 0.23441 0.55156 0.94551
 H31 H 0.19738 0.46015 0.98015
 H32 H 0.15629 0.45943 0.93863
 H33 H 0.19523 0.55203 0.90216
 H34 H 0.29459 0.47700 1.04021
 H35 H 0.33150 0.42940 1.03862
 H36 H 0.29306 0.40384 0.94717
 H37 H 0.25656 0.45162 0.95088
 C38 C 0.31537 0.59572 1.00486
 C39 C 0.18216 0.49641 1.08693
 C40 C 0.31487 0.41265 0.99286
 C41 C 0.17247 0.50559 0.91662
 C42 C 0.80251 0.53623 -0.04039
 H43 H 0.80446 0.55436 -0.02166
 C44 C 0.82401 0.53709 -0.06493
 H45 H 0.84249 0.55600 -0.06486
 C46 C 0.77717 0.48830 -0.06202
 H47 H 0.75933 0.46889 -0.06044
 C48 C 0.79821 0.48820 -0.08697
 H49 H 0.79589 0.46901 -0.10474
 N50 N 0.77978 0.51200 -0.03928
 C51 C 0.70716 0.54690 0.02382
 H52 H 0.70692 0.52585 0.03995
 C53 C 0.68446 0.57188 0.02610
 H54 H 0.66688 0.57009 0.04425
 C55 C 0.72952 0.57394 -0.02036
 H56 H 0.74654 0.57407 -0.03899
 C57 C 0.70733 0.59976 -0.01872
 H58 H 0.70743 0.61965 -0.03613
 Zn59 Zn 0.75453 0.50964 -0.00301
 N60 N 0.72877 0.54802 0.00058
 C61 C 0.78335 0.52893 0.05534
 N62 N 0.78249 0.50588 0.03191
 C63 C 0.80315 0.47999 0.03159
 C64 C 0.82574 0.47631 0.05556
 C65 C 0.80587 0.52641 0.07970
 C66 C 0.70293 0.47338 -0.02670
 C67 C 0.67978 0.44831 -0.02778
 C68 C 0.70675 0.42005 0.01518
 C69 C 0.72919 0.44596 0.01576
 N70 N 0.72687 0.47199 -0.00498
 H71 H 0.76711 0.54974 0.05478
 H72 H 0.80218 0.46227 0.01246
 H73 H 0.84170 0.45523 0.05492
 H74 H 0.80685 0.54551 0.09764
 H75 H 0.70142 0.49453 -0.04266
 H76 H 0.66051 0.45015 -0.04480
 H77 H 0.70842 0.39992 0.03229
 H78 H 0.74787 0.44560 0.03336
 C79 C 0.68399 0.59839 0.00430
 C80 C 0.82229 0.51258 -0.08845
 C81 C 0.68136 0.42143 -0.00642
 C82 C 0.82769 0.50000 0.07981
 C83 C -0.03157 0.29353 0.46286
 H84 H -0.04965 0.29709 0.48018
 C85 C -0.03184 0.31285 0.43537
 H86 H -0.05007 0.33157 0.43257
 C87 C 0.01518 0.26639 0.44745
 H88 H 0.03373 0.24855 0.45224
 C89 C 0.01607 0.28532 0.41990
 H90 H 0.03481 0.28023 0.40366
 N91 N -0.00852 0.27053 0.46818
 C92 C -0.04414 0.19304 0.53047
 H93 H -0.02394 0.19105 0.54631
 C94 C -0.06870 0.16965 0.53214
 H95 H -0.06738 0.14954 0.54931
 C96 C -0.06978 0.22066 0.48772
 H97 H -0.06974 0.23991 0.46984
 C98 C -0.09518 0.19812 0.48897
 H99 H -0.11450 0.20015 0.47202
 Zn100 Zn -0.00838 0.24515 0.50593
 N101 N -0.04489 0.21766 0.50827
 C102 C -0.02820 0.27309 0.56338
 N103 N -0.00676 0.27530 0.54000
 C104 C 0.01546 0.30008 0.53963
 C105 C 0.01665 0.32403 0.56340
 C106 C -0.02770 0.29634 0.58775
 C107 C 0.02756 0.19166 0.48510
 C108 C 0.05322 0.16996 0.48368
 C109 C 0.07706 0.19856 0.52811
 C110 C 0.05102 0.21998 0.52848
 N111 N 0.02714 0.21641 0.50689
 H112 H -0.04587 0.25342 0.56311
 H113 H 0.03196 0.30150 0.52051
 H114 H 0.03404 0.34401 0.56218
 H115 H -0.04472 0.29383 0.60634
 H116 H 0.00801 0.18909 0.46851
 H117 H 0.05318 0.15047 0.46610
 H118 H 0.09611 0.20195 0.54516
 H119 H 0.05000 0.23950 0.54589
 C120 C -0.09440 0.17194 0.51101
 C121 C -0.00755 0.30929 0.41329
 C122 C 0.07848 0.17338 0.50527
 C123 C -0.00519 0.32244 0.58790
 C124 C 0.98597 0.68865 0.52114
 H125 H 0.96956 0.68504 0.50165
 C126 C 0.98552 0.66667 0.54669
 H127 H 0.96898 0.64584 0.54639
 C128 C 1.02773 0.72005 0.54469
 H129 H 1.04416 0.74085 0.54379
 C130 C 1.02799 0.69870 0.57088
 H131 H 1.04441 0.70366 0.59012
 N132 N 1.00645 0.71504 0.52080
 C133 C 0.95479 0.78795 0.46383
 H134 H 0.97004 0.79129 0.44389
 C135 C 0.92658 0.80589 0.46547
 H136 H 0.92027 0.82332 0.44684
 C137 C 0.94516 0.76241 0.51320
 H138 H 0.95270 0.74601 0.53210
 C139 C 0.91704 0.78008 0.51595
 H140 H 0.90304 0.77687 0.53683
 Zn141 Zn 1.00264 0.74416 0.48569
 N142 N 0.96344 0.76665 0.48748
 C143 C 0.97913 0.71392 0.42933
 N144 N 1.00427 0.71699 0.44955
 C145 C 1.03073 0.69832 0.44616
 C146 C 1.03273 0.67550 0.42165
 C147 C 0.98000 0.69110 0.40460
 C148 C 1.03681 0.79906 0.50987
 C149 C 1.06070 0.82341 0.51132
 C150 C 1.08102 0.80224 0.46270
 C151 C 1.05671 0.77836 0.46216
 N152 N 1.03551 0.77682 0.48581
 H153 H 0.95791 0.72819 0.43295
 H154 H 1.05014 0.70082 0.46291
 H155 H 1.05411 0.66098 0.41939
 H156 H 0.95935 0.68811 0.38944
 H157 H 1.01926 0.79778 0.52805
 H158 H 1.06119 0.84096 0.53061
 H159 H 1.09805 0.80249 0.44400
 H160 H 1.05490 0.76112 0.44277
 C161 C 0.90761 0.80233 0.49202
 C162 C 1.00635 0.67184 0.57228
 C163 C 1.08338 0.82509 0.48760
 C164 C 1.00691 0.67117 0.40080
 C165 C 0.46834 -0.00974 0.30573
 H166 H 0.48663 -0.02857 0.30645
 C167 C 0.44366 -0.01129 0.32706
 H168 H 0.44335 -0.03133 0.34430
 C169 C 0.44752 0.03997 0.28305
 H170 H 0.44936 0.06008 0.26604
 C171 C 0.42236 0.03939 0.30401
 H172 H 0.40471 0.05890 0.30258
 N173 N 0.46982 0.01554 0.28426
 C174 C 0.53050 -0.02944 0.21439
 H175 H 0.55093 -0.01299 0.21556
 C176 C 0.53046 -0.05697 0.19431
 H177 H 0.55107 -0.06099 0.18011
 C178 C 0.47832 -0.04214 0.23006
 H179 H 0.45794 -0.03609 0.24386
 C180 C 0.47670 -0.06905 0.20926
 H181 H 0.45518 -0.08390 0.20827
 Zn182 Zn 0.50547 0.01588 0.25781
 N183 N 0.50495 -0.02295 0.23225
 C184 C 0.56318 -0.00856 0.28519
 N185 N 0.54192 0.01693 0.28448
 C186 C 0.54456 0.04296 0.30483
 C187 C 0.56921 0.04399 0.32707
 C188 C 0.58837 -0.00837 0.30687
 C189 C 0.48159 0.05239 0.20731
 C190 C 0.48114 0.07637 0.18336
 C191 C 0.52698 0.10285 0.20744
 C192 C 0.52690 0.07793 0.23075
 N193 N 0.50452 0.05322 0.23010
 H194 H 0.56010 -0.02979 0.26988
 H195 H 0.52698 0.06255 0.30426
 H196 H 0.57064 0.06461 0.34346
 H197 H 0.60449 -0.02934 0.30776
 H198 H 0.46429 0.03229 0.20717
 H199 H 0.46331 0.07476 0.16483
 H200 H 0.54540 0.12185 0.20762
 H201 H 0.54532 0.07782 0.24865
 C202 C 0.50306 -0.07708 0.19095
 C203 C 0.42022 0.01351 0.32646
 C204 C 0.50430 0.10168 0.18303
 C205 C 0.59129 0.01788 0.32847
 C206 C 0.53145 -0.01607 0.69199
 H207 H 0.50783 -0.02035 0.68278
 C208 C 0.55700 -0.02022 0.67225
 H209 H 0.55249 -0.02655 0.64787
 C210 C 0.56597 -0.00325 0.73468
 H211 H 0.56959 0.00269 0.75910
 C212 C 0.59232 -0.00718 0.71567
 H213 H 0.61585 -0.00401 0.72573
 N214 N 0.53614 -0.00724 0.72254
 C215 C 0.47511 -0.03624 0.79916
 H216 H 0.45916 -0.01516 0.79940
 C217 C 0.47450 -0.05991 0.82337
 H218 H 0.45772 -0.05714 0.84209
 C219 C 0.51716 -0.06476 0.77496
 H220 H 0.53413 -0.06610 0.75631
 C221 C 0.51719 -0.08922 0.79863
 H222 H 0.53436 -0.10922 0.79816
 Zn223 Zn 0.49940 -0.00244 0.74751
 N224 N 0.49663 -0.03869 0.77598
 C225 C 0.44085 -0.02585 0.72056
 N226 N 0.46347 -0.00145 0.72004
 C227 C 0.46247 0.02359 0.69823
 C228 C 0.43827 0.02464 0.67561
 C229 C 0.41615 -0.02581 0.69821
 C230 C 0.52415 0.04073 0.79432
 C231 C 0.52487 0.06843 0.81420
 C232 C 0.47703 0.08836 0.78877
 C233 C 0.47762 0.06068 0.76888
 N234 N 0.50105 0.03752 0.77183
 H235 H 0.44228 -0.04574 0.73787
 H236 H 0.48108 0.04234 0.69799
 H237 H 0.43851 0.04432 0.65799
 H238 H 0.39838 -0.04546 0.69883
 H239 H 0.54124 0.02109 0.79794
 H240 H 0.54305 0.07030 0.83237
 H241 H 0.45785 0.10614 0.78671
 H242 H 0.45860 0.05719 0.75198
 C243 C 0.49616 -0.08644 0.82362
 C244 C 0.58794 -0.01576 0.68398
 C245 C 0.50089 0.09237 0.81170
 C246 C 0.41479 -0.00039 0.67522
 C247 C 0.25456 0.00372 0.49552
 C248 C 0.74538 -0.01746 0.51014
 C249 C 0.49947 0.25459 0.99241
 C250 C 0.49886 0.75855 0.01300
 C251 C 1.00646 0.48228 0.24212
 C252 C -0.00329 0.50533 0.75176
 C253 C 0.15637 0.10539 0.50138
 C254 C 0.14479 0.12022 0.47354
 C255 C 0.11953 0.14275 0.47499
 C256 C 0.10594 0.15050 0.50404
 C257 C 0.11810 0.13567 0.53177
 C258 C 0.14316 0.11287 0.53054
 C259 C 0.18237 0.08099 0.49990
 C260 C 0.19306 0.06521 0.52755
 C261 C 0.21688 0.04112 0.52589
 C262 C 0.23123 0.03337 0.49702
 C263 C 0.21935 0.04911 0.46938
 C264 C 0.19524 0.07305 0.47074
 C265 C 0.15488 0.09691 0.55779
 C266 C 0.17930 0.07335 0.55630
 C267 C 0.15845 0.11188 0.44478
 C268 C 0.18323 0.08868 0.44341
 H269 H 0.14486 0.10239 0.58042
 H270 H 0.18741 0.06132 0.57783
 H271 H 0.14975 0.12317 0.42313
 H272 H 0.19291 0.08276 0.42073
 H273 H 0.11044 0.15429 0.45359
 H274 H 0.10749 0.14118 0.55413
 H275 H 0.22393 0.02791 0.54715
 H276 H 0.22810 0.04206 0.44663
 C277 C 0.60628 0.66675 0.00491
 C278 C 0.60064 0.63204 0.00553
 C279 C 0.62628 0.61011 0.00527
 C280 C 0.65747 0.62249 0.00407
 C281 C 0.66284 0.65738 0.00265
 C282 C 0.63719 0.67971 0.00335
 C283 C 0.57924 0.68989 0.00606
 C284 C 0.58459 0.72459 0.00576
 C285 C 0.55862 0.74638 0.00756
 C286 C 0.52728 0.73386 0.01062
 C287 C 0.52288 0.69859 0.00859
 C288 C 0.54850 0.67677 0.00720
 C289 C 0.64168 0.71466 0.00275
 C290 C 0.61585 0.73670 0.00395
 C291 C 0.56945 0.61988 0.00646
 C292 C 0.54380 0.64188 0.00708
 H293 H 0.66537 0.72508 0.00151
 H294 H 0.62042 0.76344 0.00364
 H295 H 0.56482 0.59315 0.00677
 H296 H 0.52008 0.63146 0.00789
 H297 H 0.62201 0.58329 0.00575
 H298 H 0.68684 0.66701 0.00166
 H299 H 0.56275 0.77321 0.00723
 H300 H 0.49969 0.68725 0.00763
 C301 C 0.83003 -0.13100 0.50352
 C302 C 0.83177 -0.14955 0.47569
 C303 C 0.85692 -0.17196 0.47204
 C304 C 0.87978 -0.17604 0.49623
 C305 C 0.87698 -0.15807 0.52434
 C306 C 0.85240 -0.13525 0.52799
 C307 C 0.80524 -0.10549 0.50654
 C308 C 0.80488 -0.08561 0.53350
 C309 C 0.78360 -0.05913 0.53487
 C310 C 0.76298 -0.05149 0.50922
 C311 C 0.76124 -0.07435 0.48393
 C312 C 0.78323 -0.10051 0.48191
 C313 C 0.85037 -0.11581 0.55521
 C314 C 0.82705 -0.09127 0.55788
 C315 C 0.80875 -0.14466 0.45189
 C316 C 0.78473 -0.12076 0.45506
 H317 H 0.86743 -0.11897 0.57427
 H318 H 0.82684 -0.07607 0.57887
 H319 H 0.80961 -0.15903 0.43042
 H320 H 0.76787 -0.11731 0.43587
 H321 H 0.85895 -0.18597 0.45044
 H322 H 0.89474 -0.16085 0.54285
 H323 H 0.78476 -0.04260 0.55498
 H324 H 0.74394 -0.07151 0.46520
 C325 C 0.38640 0.33771 0.98897
 C326 C 0.38179 0.35956 0.96333
 C327 C 0.35736 0.38308 0.96417
 C328 C 0.33817 0.38533 0.99072
 C329 C 0.34266 0.36281 1.01598
 C330 C 0.36669 0.33878 1.01514
 C331 C 0.41313 0.31416 0.98894
 C332 C 0.41813 0.29268 1.01474
 C333 C 0.44463 0.27163 1.01538
 C334 C 0.46732 0.27341 0.99131
 C335 C 0.46037 0.29377 0.96466
 C336 C 0.43371 0.31431 0.96352
 C337 C 0.37193 0.31633 1.04022
 C338 C 0.39708 0.29351 1.03992
 C339 C 0.40234 0.35816 0.93782
 C340 C 0.42793 0.33597 0.93795
 H341 H 0.35674 0.31672 1.06045
 H342 H 0.40057 0.27700 1.05997
 H343 H 0.39900 0.37484 0.91787
 H344 H 0.44366 0.33618 0.91813
 H345 H 0.35414 0.40061 0.94484
 H346 H 0.32773 0.36438 1.03636
 H347 H 0.44741 0.25468 1.03504
 H348 H 0.47690 0.29494 0.94550
 C349 C 0.83695 0.09305 0.50815
 C350 C 0.82667 0.12604 0.51264
 C351 C 0.84913 0.15219 0.51320
 C352 C 0.88151 0.14510 0.51000
 C353 C 0.89130 0.11197 0.50544
 C354 C 0.86913 0.08588 0.50417
 C355 C 0.81365 0.06541 0.50769
 C356 C 0.82401 0.03271 0.50252
 C357 C 0.80205 0.00649 0.50228
 C358 C 0.76975 0.01188 0.50926
 C359 C 0.75968 0.04547 0.51257
 C360 C 0.78154 0.07219 0.51219
 C361 C 0.87853 0.05277 0.49896
 C362 C 0.85629 0.02664 0.49788
 C363 C 0.79424 0.13201 0.51664
 C364 C 0.77207 0.10554 0.51650
 H365 H 0.90327 0.04702 0.49566
 H366 H 0.86450 0.00140 0.49383
 H367 H 0.78594 0.15732 0.52012
 H368 H 0.74734 0.11122 0.51993
 H369 H 0.84165 0.17782 0.51663
 H370 H 0.91621 0.10665 0.50251
 H371 H 0.81072 -0.01803 0.49640
 H372 H 0.73485 0.05062 0.51608
 C373 C 0.38717 0.67163 0.01141
 C374 C 0.36750 0.67031 -0.01548
 C375 C 0.34359 0.64581 -0.01733
 C376 C 0.33925 0.62294 0.00757
 C377 C 0.35865 0.62524 0.03471
 C378 C 0.38281 0.64939 0.03666
 C379 C 0.41351 0.69604 0.01273
 C380 C 0.43386 0.69647 0.03905
 C381 C 0.46009 0.71804 0.03924
 C382 C 0.46700 0.73861 0.01289
 C383 C 0.44446 0.73967 -0.01216
 C384 C 0.41831 0.71783 -0.01272
 C385 C 0.40319 0.65121 0.06303
 C386 C 0.42832 0.67435 0.06419
 C387 C 0.37253 0.69312 -0.04018
 C388 C 0.39741 0.71660 -0.03875
 H389 H 0.40001 0.63424 0.08270
 H390 H 0.44387 0.67452 0.08469
 H391 H 0.35738 0.69254 -0.06097
 H392 H 0.40076 0.73337 -0.05854
 H393 H 0.32850 0.64434 -0.03814
 H394 H 0.35565 0.60748 0.05382
 H395 H 0.47644 0.71743 0.05914
 H396 H 0.44706 0.75670 -0.03171
 C397 C 0.15821 -0.10158 0.49082
 C398 C 0.14347 -0.10927 0.46193
 C399 C 0.11902 -0.13320 0.46102
 C400 C 0.10925 -0.14946 0.48875
 C401 C 0.12434 -0.14133 0.51755
 C402 C 0.14875 -0.11733 0.51872
 C403 C 0.18374 -0.07617 0.49194
 C404 C 0.19795 -0.06788 0.52089
 C405 C 0.22151 -0.04297 0.52196
 C406 C 0.23186 -0.02687 0.49418
 C407 C 0.21636 -0.03519 0.46548
 C408 C 0.19273 -0.05995 0.46417
 C409 C 0.16377 -0.10861 0.54724
 C410 C 0.18786 -0.08420 0.54833
 C411 C 0.15329 -0.09263 0.43457
 C412 C 0.17746 -0.06834 0.43568
 H413 H 0.15670 -0.12056 0.56895
 H414 H 0.19862 -0.07802 0.57085
 H415 H 0.14208 -0.09830 0.41212
 H416 H 0.18417 -0.05594 0.41406
 H417 H 0.10727 -0.13878 0.43882
 H418 H 0.11732 -0.15391 0.53897
 H419 H 0.23101 -0.03551 0.54465
 H420 H 0.22228 -0.02181 0.44414
 C421 C 0.60517 0.35027 0.99671
 C422 C 0.59876 0.38476 0.99690
 C423 C 0.62388 0.40769 0.99571
 C424 C 0.65532 0.39647 0.99476
 C425 C 0.66151 0.36180 0.99531
 C426 C 0.63638 0.33851 0.99600
 C427 C 0.57862 0.32608 0.99706
 C428 C 0.58473 0.29160 0.99640
 C429 C 0.55916 0.26882 0.99572
 C430 C 0.52743 0.28021 0.99461
 C431 C 0.52241 0.31517 0.99790
 C432 C 0.54760 0.33799 0.99816
 C433 C 0.64168 0.30375 0.99579
 C434 C 0.61631 0.28071 0.99595
 C435 C 0.56733 0.39567 0.99828
 C436 C 0.54218 0.37266 0.99911
 H437 H 0.66562 0.29427 0.99528
 H438 H 0.62145 0.25417 0.99549
 H439 H 0.56212 0.42221 0.99865
 H440 H 0.51824 0.38213 1.00003
 H441 H 0.61906 0.43434 0.99588
 H442 H 0.68572 0.35308 0.99462
 H443 H 0.56381 0.24216 0.99503
 H444 H 0.49902 0.32536 1.00042
 C445 C 0.50770 0.16713 1.10316
 C446 C 0.50864 0.13227 1.09907
 C447 C 0.50765 0.11122 1.12543
 C448 C 0.50620 0.12473 1.15579
 C449 C 0.50621 0.15976 1.15970
 C450 C 0.50659 0.18116 1.13330
 C451 C 0.50740 0.18930 1.07528
 C452 C 0.50565 0.22410 1.07909
 C453 C 0.50403 0.24488 1.05230
 C454 C 0.50317 0.23114 1.02163
 C455 C 0.50757 0.19605 1.01887
 C456 C 0.50870 0.17516 1.04533
 C457 C 0.50546 0.21621 1.13626
 C458 C 0.50494 0.23729 1.10963
 C459 C 0.51032 0.11909 1.06867
 C460 C 0.51058 0.14019 1.04225
 H461 H 0.50464 0.22743 1.15933
 H462 H 0.50366 0.26413 1.11298
 H463 H 0.51127 0.09224 1.06525
 H464 H 0.51167 0.12899 1.01918
 H465 H 0.50808 0.08427 1.12244
 H466 H 0.50512 0.17018 1.18311
 H467 H 0.50229 0.27176 1.05519
 H468 H 0.51009 0.18427 0.99632
 C469 C 0.00231 0.60564 0.65196
 C470 C 0.03185 0.61723 0.64171
 C471 C 0.03312 0.63920 0.61588
 C472 C 0.00509 0.64948 0.60029
 C473 C -0.02434 0.63786 0.61124
 C474 C -0.02585 0.61576 0.63687
 C475 C 0.00086 0.58183 0.67854
 C476 C -0.02858 0.56936 0.68803
 C477 C -0.02975 0.54566 0.71239
 C478 C -0.00185 0.53497 0.72826
 C479 C 0.02757 0.54752 0.71767
 C480 C 0.02901 0.57106 0.69316
 C481 C -0.05495 0.60320 0.64742
 C482 C -0.05627 0.58025 0.67248
 C483 C 0.05953 0.60614 0.65717
 C484 C 0.05814 0.58342 0.68244
 H485 H -0.07685 0.61083 0.63597
 H486 H -0.07917 0.57082 0.67962
 H487 H 0.08249 0.61487 0.64952
 H488 H 0.08006 0.57526 0.69351
 H489 H 0.05590 0.64761 0.60747
 H490 H -0.04610 0.64601 0.59981
 H491 H -0.05243 0.53490 0.71854
 H492 H 0.04952 0.53817 0.72771
 C493 C 0.50151 0.84784 -0.09655
 C494 C 0.50178 0.83404 -0.12681
 C495 C 0.50033 0.85555 -0.15308
 C496 C 0.49817 0.89049 -0.14902
 C497 C 0.49823 0.90378 -0.11848
 C498 C 0.50000 0.88263 -0.09220
 C499 C 0.50249 0.82546 -0.06885
 C500 C 0.50221 0.83935 -0.03874
 C501 C 0.50223 0.81815 -0.01248
 C502 C 0.50113 0.78277 -0.01573
 C503 C 0.50327 0.76954 -0.04648
 C504 C 0.50348 0.79067 -0.07300
 C505 C 0.50018 0.89561 -0.06164
 C506 C 0.50139 0.87434 -0.03535
 C507 C 0.50323 0.79905 -0.13008
 C508 C 0.50404 0.77774 -0.10364
 H509 H 0.49920 0.92243 -0.05801
 H510 H 0.50125 0.88537 -0.01216
 H511 H 0.50351 0.78803 -0.15326
 H512 H 0.50485 0.75091 -0.10722
 H513 H 0.50028 0.84520 -0.17655
 H514 H 0.49721 0.93067 -0.11522
 H515 H 0.50293 0.82992 0.01026
 H516 H 0.50354 0.74263 -0.04970
 C517 C 0.99713 0.37327 0.33369
 C518 C 0.96754 0.36516 0.34610
 C519 C 0.96594 0.34355 0.37217
 C520 C 0.99376 0.32981 0.38596
 C521 C 1.02320 0.33787 0.37233
 C522 C 1.02500 0.35973 0.34659
 C523 C 0.99913 0.39763 0.30759
 C524 C 1.02883 0.40736 0.29666
 C525 C 1.03084 0.43284 0.27411
 C526 C 1.00341 0.44897 0.26158
 C527 C 0.97366 0.43730 0.27230
 C528 C 0.97145 0.41217 0.29538
 C529 C 1.05434 0.36923 0.33422
 C530 C 1.05623 0.39279 0.30978
 C531 C 0.94014 0.37937 0.33256
 C532 C 0.94206 0.40242 0.30760
 H533 H 1.07607 0.35894 0.34398
 H534 H 1.07938 0.40010 0.30147
 H535 H 0.91707 0.37313 0.34173
 H536 H 0.92041 0.41335 0.29834
 H537 H 0.94286 0.33704 0.38110
 H538 H 1.04517 0.32909 0.38279
 H539 H 1.05424 0.44210 0.26871
 H540 H 0.95192 0.44842 0.26424
 C541 C 0.49971 0.84713 0.12190
 C542 C 0.52793 0.85271 0.13892
 C543 C 0.52898 0.87778 0.16190
 C544 C 0.50168 0.89653 0.16885
 C545 C 0.47316 0.88923 0.15231
 C546 C 0.47230 0.86528 0.12835
 C547 C 0.49911 0.82251 0.09616
 C548 C 0.47160 0.81879 0.07771
 C549 C 0.47190 0.79742 0.05181
 C550 C 0.49928 0.77890 0.04418
 C551 C 0.52591 0.78128 0.06480
 C552 C 0.52630 0.80390 0.08998
 C553 C 0.44479 0.85990 0.11002
 C554 C 0.44454 0.83730 0.08491
 C555 C 0.55465 0.83335 0.13232
 C556 C 0.55373 0.80908 0.10853
 H557 H 0.42347 0.87381 0.11467
 H558 H 0.42306 0.83448 0.07088
 H559 H 0.57653 0.83713 0.14550
 H560 H 0.57495 0.79492 0.10408
 H561 H 0.55090 0.88197 0.17492
 H562 H 0.45207 0.90375 0.15637
 H563 H 0.45106 0.79619 0.03665
 H564 H 0.54681 0.76659 0.06134
 C565 C -0.00444 0.39764 0.65966
 C566 C 0.02434 0.38629 0.64783
 C567 C 0.02400 0.36140 0.62471
 C568 C -0.00490 0.34816 0.61306
 C569 C -0.03356 0.36003 0.62520
 C570 C -0.03345 0.38468 0.64853
 C571 C -0.00421 0.42398 0.68383
 C572 C -0.03296 0.43566 0.69536
 C573 C -0.03263 0.46113 0.71791
 C574 C -0.00373 0.47463 0.72972
 C575 C 0.02478 0.46330 0.71652
 C576 C 0.02472 0.43764 0.69423
 C577 C -0.06178 0.39695 0.66070
 C578 C -0.06154 0.42202 0.68370
 C579 C 0.05289 0.40031 0.65914
 C580 C 0.05306 0.42569 0.68181
 H581 H -0.08435 0.38720 0.65228
 H582 H -0.08393 0.43087 0.69236
 H583 H 0.07527 0.39181 0.65017
 H584 H 0.07558 0.43605 0.68969
 H585 H 0.04621 0.35224 0.61592
 H586 H -0.05597 0.35059 0.61607
 H587 H -0.05498 0.47095 0.72563
 H588 H 0.04713 0.47476 0.72338
 C589 C 0.49767 0.16713 0.88281
 C590 C 0.52373 0.16638 0.86281
 C591 C 0.52455 0.14217 0.83906
 C592 C 0.49919 0.11949 0.83496
 C593 C 0.47280 0.12131 0.85450
 C594 C 0.47211 0.14478 0.87879
 C595 C 0.49755 0.19107 0.90906
 C596 C 0.47229 0.19059 0.92989
 C597 C 0.47320 0.21186 0.95584
 C598 C 0.49924 0.23374 0.96162
 C599 C 0.52326 0.23545 0.93882
 C600 C 0.52299 0.21345 0.91317
 C601 C 0.44677 0.14577 0.89965
 C602 C 0.44694 0.16819 0.92489
 C603 C 0.54861 0.18947 0.86738
 C604 C 0.54811 0.21281 0.89195
 H605 H 0.42693 0.12867 0.89679
 H606 H 0.42723 0.16773 0.94082
 H607 H 0.56876 0.18933 0.85200
 H608 H 0.56791 0.22997 0.89478
 H609 H 0.54485 0.14071 0.82393
 H610 H 0.45345 0.10357 0.85150
 H611 H 0.45412 0.21054 0.97251
 H612 H 0.54247 0.25325 0.94073
 C613 C 1.00733 0.59259 0.33256
 C614 C 1.02109 0.58733 0.36242
 C615 C 1.02086 0.61318 0.38440
 C616 C 1.00733 0.64439 0.37675
 C617 C 0.99377 0.64938 0.34656
 C618 C 0.99371 0.62347 0.32435
 C619 C 1.00718 0.56517 0.30952
 C620 C 0.99354 0.57017 0.27965
 C621 C 0.99343 0.54379 0.25791
 C622 C 1.00613 0.51190 0.26598
 C623 C 1.02112 0.50866 0.29592
 C624 C 1.02114 0.53461 0.31773
 C625 C 0.98038 0.62770 0.29410
 C626 C 0.98034 0.60153 0.27212
 C627 C 1.03478 0.55627 0.36978
 C628 C 1.03495 0.53039 0.34775
 H629 H 0.96985 0.65142 0.28737
 H630 H 0.96977 0.60584 0.24909
 H631 H 1.04551 0.55196 0.39274
 H632 H 1.04581 0.50680 0.35434
 H633 H 1.03075 0.60874 0.40770
 H634 H 0.98354 0.67339 0.34032
 H635 H 0.98408 0.54847 0.23449
 H636 H 1.03313 0.48609 0.30288
 C637 C 1.11533 0.48953 0.15964
 C638 C 1.12598 0.46020 0.14541
 C639 C 1.14899 0.46247 0.12220
 C640 C 1.16096 0.49399 0.11234
 C641 C 1.15025 0.52310 0.12766
 C642 C 1.12752 0.52099 0.15116
 C643 C 1.08997 0.48739 0.18292
 C644 C 1.07858 0.51680 0.19637
 C645 C 1.05305 0.51491 0.21688
 C646 C 1.03831 0.48383 0.22410
 C647 C 1.05074 0.45456 0.21013
 C648 C 1.07648 0.45618 0.18997
 C649 C 1.11619 0.54985 0.16584
 C650 C 1.09214 0.54779 0.18808
 C651 C 1.11253 0.42921 0.15383
 C652 C 1.08807 0.42725 0.17561
 H653 H 1.12556 0.57431 0.15966
 H654 H 1.08364 0.57073 0.19837
 H655 H 1.12050 0.40634 0.14299
 H656 H 1.07785 0.40294 0.18093
 H657 H 1.15572 0.43968 0.11048
 H658 H 1.15985 0.54753 0.12182
 H659 H 1.04412 0.53811 0.22593
 H660 H 1.03894 0.43062 0.21322
 C661 C 0.66248 -0.02309 0.61779
 C662 C 0.66427 0.00184 0.64089
 C663 C 0.64055 0.00335 0.66351
 C664 C 0.61517 -0.01975 0.66287
 C665 C 0.61468 -0.04551 0.64042
 C666 C 0.63804 -0.04709 0.61764
 C667 C 0.68580 -0.02321 0.59247
 C668 C 0.68302 -0.04720 0.56869
 C669 C 0.70356 -0.04562 0.54342
 C670 C 0.72649 -0.01973 0.54099
 C671 C 0.73059 0.00243 0.56661
 C672 C 0.70972 0.00135 0.59193
 C673 C 0.63678 -0.07149 0.59404
 C674 C 0.65890 -0.07151 0.56991
 C675 C 0.68912 0.02541 0.64016
 C676 C 0.71155 0.02506 0.61619
 H677 H 0.61810 -0.09022 0.59378
 H678 H 0.65667 -0.09025 0.55168
 H679 H 0.69091 0.04466 0.65794
 H680 H 0.72997 0.04408 0.61618
 H681 H 0.64105 0.02335 0.68062
 H682 H 0.59561 -0.06382 0.64017
 H683 H 0.70068 -0.06350 0.52449
 H684 H 0.74932 0.02094 0.56695
 C685 C -0.10626 0.50952 0.84120
 C686 C -0.11695 0.47953 0.85490
 C687 C -0.14070 0.48067 0.87746
 C688 C -0.15364 0.51154 0.88653
 C689 C -0.14266 0.54138 0.87242
 C690 C -0.11893 0.54051 0.84978
 C691 C -0.08091 0.50849 0.81782
 C692 C -0.06977 0.53848 0.80458
 C693 C -0.04524 0.53743 0.78286
 C694 C -0.03228 0.50652 0.77337
 C695 C -0.04316 0.47685 0.78817
 C696 C -0.06770 0.47762 0.80986
 C697 C -0.10731 0.57001 0.83583
 C698 C -0.08310 0.56902 0.81368
 C699 C -0.10330 0.44905 0.84614
 C700 C -0.07903 0.44812 0.82407
 H701 H -0.11685 0.59410 0.84224
 H702 H -0.07470 0.59238 0.80364
 H703 H -0.11128 0.42573 0.85659
 H704 H -0.06901 0.42411 0.81812
 H705 H -0.14852 0.45762 0.88856
 H706 H -0.15259 0.56523 0.87904
 H707 H -0.03589 0.56082 0.77383
 H708 H -0.03226 0.45307 0.78296
 C709 C 0.34699 0.00998 0.39524
 C710 C 0.35673 -0.01976 0.38101
 C711 C 0.38017 -0.01834 0.35811
 C712 C 0.39414 0.01251 0.34955
 C713 C 0.38384 0.04217 0.36394
 C714 C 0.36034 0.04101 0.38687
 C715 C 0.32276 0.00852 0.41981
 C716 C 0.31354 0.03811 0.43458
 C717 C 0.29105 0.03645 0.45842
 C718 C 0.27687 0.00558 0.46712
 C719 C 0.28763 -0.02397 0.45259
 C720 C 0.31002 -0.02258 0.42869
 C721 C 0.35030 0.07017 0.40203
 C722 C 0.32735 0.06873 0.42550
 C723 C 0.34315 -0.05041 0.39031
 C724 C 0.32029 -0.05180 0.41382
 H725 H 0.36042 0.09428 0.39586
 H726 H 0.32046 0.09178 0.43673
 H727 H 0.35048 -0.07355 0.37953
 H728 H 0.31063 -0.07599 0.42046
 H729 H 0.38757 -0.04126 0.34696
 H730 H 0.39470 0.06598 0.35794
 H731 H 0.28480 0.05921 0.47050
 H732 H 0.27908 -0.04827 0.46023
 C733 C 0.09917 0.50560 0.84546
 C734 C 0.10926 0.53611 0.85859
 C735 C 0.13341 0.53605 0.88164
 C736 C 0.14758 0.50576 0.89145
 C737 C 0.13729 0.47543 0.87768
 C738 C 0.11292 0.47519 0.85493
 C739 C 0.07346 0.50546 0.82157
 C740 C 0.06282 0.47489 0.80907
 C741 C 0.03810 0.47483 0.78671
 C742 C 0.02491 0.50520 0.77539
 C743 C 0.03516 0.53550 0.78952
 C744 C 0.05959 0.53581 0.81221
 C745 C 0.10179 0.44509 0.84167
 C746 C 0.07702 0.44492 0.81928
 C747 C 0.09473 0.56602 0.84866
 C748 C 0.07033 0.56587 0.82585
 H749 H 0.11216 0.42143 0.84884
 H750 H 0.06902 0.42115 0.80978
 H751 H 0.10225 0.58974 0.85864
 H752 H 0.05976 0.58948 0.81886
 H753 H 0.14064 0.55949 0.89237
 H754 H 0.14826 0.45200 0.88460
 H755 H 0.02908 0.45100 0.77832
 H756 H 0.02406 0.55892 0.78281
 C757 C 0.65846 0.00840 0.40434
 C758 C 0.66867 0.00370 0.37349
 C759 C 0.64682 0.00742 0.34845
 C760 C 0.61521 0.01626 0.35427
 C761 C 0.60574 0.02176 0.38531
 C762 C 0.62716 0.01764 0.41041
 C763 C 0.68078 0.00297 0.43086
 C764 C 0.67021 0.00684 0.46157
 C765 C 0.69098 0.00060 0.48672
 C766 C 0.72233 -0.01072 0.48192
 C767 C 0.73312 -0.01146 0.45060
 C768 C 0.71219 -0.00586 0.42505
 C769 C 0.61768 0.02196 0.44153
 C770 C 0.63887 0.01666 0.46670
 C771 C 0.70038 -0.00497 0.36848
 C772 C 0.72184 -0.00939 0.39381
 H773 H 0.59361 0.02915 0.44649
 H774 H 0.63052 0.01989 0.49041
 H775 H 0.70866 -0.00849 0.34480
 H776 H 0.74602 -0.01620 0.38890
 H777 H 0.65425 0.00335 0.32455
 H778 H 0.58136 0.02808 0.38998
 H779 H 0.68233 0.00526 0.51001
 H780 H 0.75765 -0.01724 0.44617
 C781 C 0.90252 0.49283 0.14896
 C782 C 0.90830 0.48488 0.11753
 C783 C 0.88381 0.48766 0.09521
 C784 C 0.85340 0.49784 0.10402
 C785 C 0.84797 0.50590 0.13571
 C786 C 0.87255 0.50348 0.15830
 C787 C 0.92840 0.48996 0.17250
 C788 C 0.92297 0.49814 0.20387
 C789 C 0.94791 0.49558 0.22603
 C790 C 0.97853 0.48471 0.21738
 C791 C 0.98266 0.47631 0.18531
 C792 C 0.95812 0.47911 0.16307
 C793 C 0.86788 0.51137 0.19002
 C794 C 0.89267 0.50882 0.21240
 C795 C 0.93851 0.47424 0.10897
 C796 C 0.96298 0.47131 0.13138
 H797 H 0.84489 0.51963 0.19762
 H798 H 0.88805 0.51523 0.23657
 H799 H 0.94325 0.46803 0.08477
 H800 H 0.98595 0.46293 0.12381
 H801 H 0.88856 0.48219 0.07085
 H802 H 0.82463 0.51356 0.14284
 H803 H 0.94344 0.50228 0.25016
 H804 H 1.00486 0.46774 0.17663
 C805 C 0.34531 0.00081 0.60053
 C806 C 0.35385 0.03087 0.61549
 C807 C 0.37594 0.03015 0.64042
 C808 C 0.38975 -0.00029 0.65027
 C809 C 0.38067 -0.03028 0.63515
 C810 C 0.35853 -0.02983 0.61016
 C811 C 0.32242 0.00154 0.57397
 C812 C 0.31426 -0.02836 0.55861
 C813 C 0.29253 -0.02747 0.53332
 C814 C 0.27780 0.00285 0.52401
 C815 C 0.28803 0.03284 0.53875
 C816 C 0.30966 0.03223 0.56404
 C817 C 0.34973 -0.05930 0.59424
 C818 C 0.32803 -0.05856 0.56886
 C819 C 0.34046 0.06111 0.60494
 C820 C 0.31881 0.06180 0.57957
 H821 H 0.35981 -0.08311 0.60136
 H822 H 0.32195 -0.08184 0.55720
 H823 H 0.34690 0.08449 0.61625
 H824 H 0.30911 0.08567 0.57211
 H825 H 0.38250 0.05330 0.65209
 H826 H 0.39149 -0.05375 0.64221
 H827 H 0.28686 -0.05047 0.52100
 H828 H 0.27922 0.05682 0.53056
   
