data_POSCAR
  _audit_creation_date              2014-09-24
  _audit_creation_method            'ToBaCCo'
  _symmetry_space_group_name_H-M    'P1'
  _symmetry_Int_Tables_number       1
  _symmetry_cell_setting            triclinic
  loop_
  _symmetry_equiv_pos_as_xyz
 x,y,z
_cell_length_a 32.2245
_cell_length_b 32.0635
_cell_length_c 31.9400
_cell_angle_alpha 86.653600
_cell_angle_beta 90.819800
_cell_angle_gamma 105.983800
loop_
  _atom_site_label
  _atom_site_type_symbol
  _atom_site_fract_x
  _atom_site_fract_y
  _atom_site_fract_z
O1 O 0.50989 0.45747 0.07408
 O2 O 0.39391 0.44464 0.05638
 O3 O 0.44246 0.39123 0.06291
 O4 O 0.46033 0.50950 0.06718
 O5 O 0.47059 0.51729 -0.00139
 O6 O 0.45572 0.39940 -0.00517
 O7 O 0.40466 0.44997 -0.01205
 O8 O 0.52125 0.46593 0.00571
 Cu9 Cu 0.45060 0.44974 0.07201
 Cu10 Cu 0.46420 0.45899 -0.01008
 C11 C 0.53535 0.46402 0.04293
 C12 C 0.37950 0.44539 0.01917
 C13 C 0.44647 0.37524 0.02823
 C14 C 0.46782 0.53342 0.03354
 O15 O 0.00239 0.59061 0.51415
 O16 O -0.00795 0.47308 0.52450
 O17 O -0.00080 0.53350 0.57677
 O18 O -0.00596 0.52913 0.46183
 O19 O 0.06519 0.54515 0.45911
 O20 O 0.07008 0.54615 0.57450
 O21 O 0.06295 0.48691 0.52019
 O22 O 0.07338 0.60412 0.51351
 Cu23 Cu -0.01022 0.53033 0.51954
 Cu24 Cu 0.07502 0.54691 0.51654
 C25 C 0.03976 0.61741 0.51241
 C26 C 0.02580 0.46004 0.52381
 C27 C 0.03541 0.54005 0.59525
 C28 C 0.02877 0.53657 0.44089
 O29 O 0.53748 0.06800 0.53010
 O30 O 0.53402 0.06673 0.41493
 O31 O 0.47682 0.06097 0.47337
 O32 O 0.59369 0.07284 0.47080
 O33 O 0.58088 0.00144 0.47754
 O34 O 0.46410 -0.01046 0.47718
 O35 O 0.52219 -0.00461 0.41955
 O36 O 0.52251 -0.00357 0.53474
 Cu37 Cu 0.53668 0.07433 0.47198
 Cu38 Cu 0.52117 -0.01149 0.47771
 C39 C 0.53019 0.03244 0.55209
 C40 C 0.52808 0.03093 0.39765
 C41 C 0.45058 0.02319 0.47548
 C42 C 0.60712 0.03912 0.47367
 C43 C 0.49058 0.07977 -0.09978
 C44 C 0.49107 0.05168 -0.13037
 C45 C 0.48769 0.01135 -0.11021
 N46 N 0.48404 0.01386 -0.06834
 C47 C 0.48636 0.05575 -0.06181
 C48 C 0.48445 -0.02755 -0.13057
 C49 C 0.48045 -0.06822 -0.10875
 C50 C 0.46728 -0.10815 -0.12672
 C51 C 0.47085 -0.13910 -0.09635
 C52 C 0.48655 -0.11737 -0.06067
 N53 N 0.49233 -0.07417 -0.06851
 C54 C 0.49774 -0.13737 -0.02316
 C55 C 0.50670 -0.11575 0.01465
 C56 C 0.52620 -0.12983 0.04959
 C57 C 0.52629 -0.10140 0.08007
 C58 C 0.50726 -0.07062 0.06260
 N59 N 0.49524 -0.07947 0.02265
 C60 C 0.49924 -0.03649 0.08421
 C61 C 0.48599 -0.00189 0.06373
 C62 C 0.46893 0.02694 0.08368
 C63 C 0.46487 0.05815 0.05386
 C64 C 0.47818 0.04695 0.01598
 N65 N 0.49121 0.01036 0.02243
 C66 C 0.48132 0.07201 -0.02252
 H67 H 0.49179 0.11372 -0.10515
 H68 H 0.49238 0.06014 -0.16367
 H69 H 0.50787 -0.00234 0.00116
 H70 H 0.45656 -0.11462 -0.15852
 H71 H 0.46324 -0.17367 -0.10039
 H72 H 0.53925 -0.15753 0.05284
 H73 H 0.53918 -0.10307 0.11141
 H74 H 0.45383 0.08605 0.06014
 H75 H 0.50842 -0.04984 -0.04927
 H76 H 0.46088 0.02622 0.11652
 C77 C -0.10185 0.50180 0.91388
 C78 C -0.13354 0.49695 0.94334
 C79 C -0.11800 0.48253 0.98053
 N80 N -0.07791 0.47823 0.97470
 C81 C -0.06795 0.49004 0.93392
 C82 C -0.14187 0.47119 1.01824
 C83 C -0.12290 0.46325 1.05714
 C84 C -0.14560 0.44354 1.09288
 C85 C -0.11584 0.44514 1.12443
 C86 C -0.07554 0.46483 1.10696
 N87 N -0.08016 0.47591 1.06596
 C88 C -0.03622 0.47457 1.12944
 C89 C 0.00451 0.48108 1.10993
 C90 C 0.04350 0.48727 1.13101
 C91 C 0.07428 0.48852 1.10154
 C92 C 0.05335 0.48282 1.06320
 N93 N 0.01060 0.47769 1.06854
 C94 C 0.07345 0.47910 1.02496
 C95 C 0.05223 0.47597 0.98553
 C96 C 0.06905 0.46664 0.94853
 C97 C 0.03964 0.46844 0.91744
 C98 C 0.00602 0.48005 0.93575
 N99 N 0.01397 0.48462 0.97722
 C100 C -0.02986 0.48794 0.91378
 H101 H -0.10371 0.51267 0.88136
 H102 H -0.16448 0.50341 0.93793
 H103 H -0.00342 0.49754 0.99755
 H104 H -0.18008 0.42956 1.09617
 H105 H -0.12329 0.43284 1.15649
 H106 H 0.04935 0.48895 1.16436
 H107 H 0.10806 0.49195 1.10806
 H108 H 0.04305 0.46216 0.88495
 H109 H -0.05607 0.49552 1.04657
 H110 H 0.09956 0.45980 0.94369
 C111 C 0.11929 -0.01931 0.43910
 C112 C 0.08363 -0.05456 0.44236
 C113 C 0.05343 -0.04236 0.46569
 N114 N 0.06930 -0.00092 0.47665
 C115 C 0.10964 0.01314 0.46065
 C116 C 0.01311 -0.06994 0.47913
 C117 C -0.02067 -0.05366 0.49260
 C118 C -0.05837 -0.07852 0.51194
 C119 C -0.08427 -0.05141 0.51642
 C120 C -0.06149 -0.01056 0.50016
 N121 N -0.02285 -0.01229 0.48559
 C122 C -0.07800 0.02593 0.49539
 C123 C -0.05121 0.06890 0.48871
 C124 C -0.06552 0.10570 0.48129
 C125 C -0.02956 0.14056 0.47949
 C126 C 0.00559 0.12424 0.48713
 N127 N -0.00774 0.08045 0.49268
 C128 C 0.04878 0.14964 0.49152
 C129 C 0.08433 0.13184 0.49184
 C130 C 0.12587 0.15340 0.50390
 C131 C 0.15136 0.12635 0.49731
 C132 C 0.12470 0.08899 0.48139
 N133 N 0.08392 0.09263 0.47807
 C134 C 0.13871 0.05380 0.46823
 H135 H 0.14893 -0.01781 0.42282
 H136 H 0.08033 -0.08557 0.42903
 H137 H 0.05846 0.07166 0.46294
 H138 H -0.06679 -0.11283 0.52121
 H139 H -0.11645 -0.06103 0.52965
 H140 H -0.09830 0.10785 0.47816
 H141 H -0.02960 0.17411 0.47362
 H142 H 0.18564 0.13351 0.50346
 H143 H -0.00162 0.01194 0.46722
 H144 H 0.13680 0.18540 0.51607
 C145 C -0.41835 0.46925 1.05042
 C146 C -0.39035 0.46744 1.01813
 C147 C -0.34424 0.47118 1.02512
 N148 N -0.32068 0.46101 0.99441
 N149 N -0.27892 0.46417 1.00002
 C150 C -0.25900 0.47790 1.03648
 N151 N -0.28248 0.48839 1.06713
 N152 N -0.32437 0.48495 1.06162
 C153 C -0.21266 0.48200 1.04272
 C154 C -0.18935 0.46472 1.01522
 H155 H -0.40292 0.46149 0.98674
 H156 H -0.19656 0.49920 1.06919
 H157 H -0.40646 0.47284 1.08227
 H158 H -0.20578 0.44862 0.98830
 C159 C 0.33585 0.44182 1.01217
 C160 C 0.30803 0.44428 1.04447
 C161 C 0.26296 0.44421 1.03666
 N162 N 0.24352 0.46566 1.06203
 N163 N 0.20279 0.46623 1.05535
 C164 C 0.17978 0.44483 1.02337
 N165 N 0.19899 0.42278 0.99835
 N166 N 0.23999 0.42275 1.00466
 C167 C 0.13461 0.44486 1.01632
 C168 C 0.11973 0.47973 1.02709
 H169 H 0.32050 0.45040 1.07588
 H170 H 0.11291 0.41730 1.00214
 H171 H 0.32394 0.43988 0.98022
 H172 H 0.14197 0.50691 1.04135
 C173 C 0.04473 -0.33800 0.50937
 C174 C 0.01001 -0.31991 0.50579
 C175 C 0.01672 -0.27256 0.50321
 N176 N -0.01646 -0.25557 0.49266
 N177 N -0.01055 -0.21268 0.49014
 C178 C 0.02871 -0.18528 0.49832
 N179 N 0.06175 -0.20229 0.50915
 N180 N 0.05591 -0.24511 0.51145
 C181 C 0.03602 -0.13793 0.49599
 C182 C 0.00557 -0.11783 0.47972
 H183 H -0.02270 -0.34070 0.50393
 H184 H 0.06655 -0.11821 0.50737
 H185 H 0.07730 -0.31663 0.50932
 H186 H -0.02565 -0.13764 0.47005
 C187 C 0.02137 0.41315 0.52737
 C188 C 0.05572 0.39626 0.51926
 C189 C 0.05087 0.34927 0.52130
 N190 N 0.08114 0.33367 0.50356
 N191 N 0.07656 0.29106 0.50418
 C192 C 0.04173 0.26254 0.52294
 N193 N 0.01179 0.27818 0.54121
 N194 N 0.01620 0.32077 0.54031
 C195 C 0.03521 0.21541 0.52242
 C196 C 0.05810 0.19730 0.49531
 H197 H 0.08651 0.41793 0.50919
 H198 H 0.00989 0.19432 0.54194
 H199 H -0.01010 0.39138 0.53510
 H200 H 0.08465 0.21839 0.47719
 C201 C 0.53059 0.03341 -0.40435
 C202 C 0.51792 -0.00433 -0.37819
 C203 C 0.51770 -0.00301 -0.33230
 N204 N 0.49274 -0.03707 -0.30883
 N205 N 0.49213 -0.03634 -0.26719
 C206 C 0.51685 -0.00169 -0.24750
 N207 N 0.54223 0.03215 -0.27094
 N208 N 0.54248 0.03163 -0.31262
 C209 C 0.51692 -0.00073 -0.20158
 C210 C 0.48311 -0.02673 -0.17709
 H211 H 0.50563 -0.03565 -0.39158
 H212 H 0.54375 0.02161 -0.18671
 H213 H 0.53960 0.06474 -0.39054
 H214 H 0.45645 -0.04908 -0.19213
 C215 C 0.52870 0.03135 0.35166
 C216 C 0.52011 -0.00665 0.33012
 C217 C 0.52185 -0.00574 0.28409
 N218 N 0.50737 -0.04313 0.26399
 N219 N 0.50830 -0.04263 0.22226
 C220 C 0.52405 -0.00473 0.19915
 N221 N 0.53890 0.03258 0.21926
 N222 N 0.53778 0.03211 0.26096
 C223 C 0.52400 -0.00328 0.15308
 C224 C 0.50263 -0.03896 0.13069
 H225 H 0.51122 -0.03795 0.34735
 H226 H 0.53938 0.02731 0.13630
 H227 H 0.53623 0.06258 0.33433
 H228 H 0.48912 -0.07009 0.14734
 C229 C 0.47221 -0.41986 0.03563
 C230 C 0.48232 -0.39077 0.00068
 C231 C 0.48278 -0.34485 0.00254
 N232 N 0.49739 -0.31643 -0.03067
 N233 N 0.49716 -0.27499 -0.02963
 C234 C 0.48204 -0.26051 0.00459
 N235 N 0.46731 -0.28896 0.03772
 N236 N 0.46774 -0.33032 0.03675
 C237 C 0.48094 -0.21506 0.00623
 C238 C 0.50024 -0.18296 -0.02433
 H239 H 0.48969 -0.40196 -0.02894
 H240 H 0.46447 -0.20659 0.03241
 H241 H 0.46634 -0.40826 0.06556
 H242 H 0.51496 -0.19195 -0.05143
 C243 C 0.44056 0.32815 0.02706
 C244 C 0.45637 0.31056 -0.00611
 C245 C 0.45306 0.26395 -0.00695
 N246 N 0.47975 0.25051 -0.03218
 N247 N 0.47771 0.20851 -0.03301
 C248 C 0.44853 0.17830 -0.00898
 N249 N 0.42138 0.19166 0.01584
 N250 N 0.42373 0.23375 0.01700
 C251 C 0.44657 0.13190 -0.00917
 C252 C 0.48165 0.11839 -0.02218
 H253 H 0.47413 0.33202 -0.03118
 H254 H 0.41776 0.10809 0.00261
 H255 H 0.42574 0.30731 0.05380
 H256 H 0.50988 0.14237 -0.03494
 C257 C -0.34632 0.04422 0.47148
 C258 C -0.32829 0.01086 0.48444
 C259 C -0.28193 0.01571 0.47984
 N260 N -0.26243 -0.00934 0.50429
 N261 N -0.22030 -0.00494 0.50040
 C262 C -0.19635 0.02426 0.47151
 N263 N -0.21599 0.04882 0.44665
 N264 N -0.25798 0.04478 0.45087
 C265 C -0.14986 0.02994 0.46709
 C266 C -0.12526 0.01842 0.49960
 H267 H -0.34832 -0.01890 0.49946
 H268 H -0.13408 0.04592 0.43843
 H269 H -0.32562 0.07531 0.45986
 H270 H -0.14102 0.00196 0.52807
 C271 C 0.40385 0.01764 0.47650
 C272 C 0.38597 0.05241 0.47000
 C273 C 0.33914 0.04635 0.47231
 N274 N 0.32223 0.07953 0.46026
 N275 N 0.27983 0.07437 0.46242
 C276 C 0.25285 0.03591 0.47694
 N277 N 0.26979 0.00286 0.48918
 N278 N 0.31213 0.00794 0.48683
 C279 C 0.20607 0.02955 0.47991
 C280 C 0.18585 0.06009 0.46340
 H281 H 0.40671 0.08477 0.46257
 H282 H 0.18691 -0.00022 0.49566
 H283 H 0.38292 -0.01495 0.48222
 H284 H 0.20527 0.09077 0.44952
 C285 C 0.02727 0.53565 1.39493
 C286 C -0.01030 0.51536 1.37368
 C287 C -0.01170 0.51450 1.32767
 N288 N -0.04375 0.48490 1.30874
 N289 N -0.04519 0.48370 1.26707
 C290 C -0.01486 0.51243 1.24284
 N291 N 0.01687 0.54233 1.26177
 N292 N 0.01855 0.54326 1.30341
 C293 C -0.01553 0.51152 1.19688
 C294 C -0.03839 0.47534 1.17586
 H295 H -0.03900 0.49816 1.39129
 H296 H 0.00463 0.53931 1.17900
 H297 H 0.05689 0.54987 1.37752
 H298 H -0.05910 0.44776 1.19348
 C299 C 0.03755 0.54039 0.64127
 C300 C 0.00047 0.52698 0.66605
 C301 C 0.00195 0.52511 0.71215
 N302 N -0.03431 0.50509 0.73439
 N303 N -0.03361 0.50258 0.77614
 C304 C 0.00336 0.52024 0.79727
 N305 N 0.03957 0.54060 0.77504
 N306 N 0.03893 0.54290 0.73323
 C307 C 0.00453 0.51737 0.84342
 C308 C -0.02968 0.49082 0.86713
 H309 H -0.03079 0.51585 0.65123
 H310 H 0.03310 0.53603 0.85905
 H311 H 0.06902 0.54980 0.65595
 H312 H -0.05860 0.47334 0.85119
   
