data_POSCAR
  _audit_creation_date              2014-09-24
  _audit_creation_method            'ToBaCCo'
  _symmetry_space_group_name_H-M    'P1'
  _symmetry_Int_Tables_number       1
  _symmetry_cell_setting            triclinic
  loop_
  _symmetry_equiv_pos_as_xyz
 x,y,z
_cell_length_a 39.6535
_cell_length_b 39.6800
_cell_length_c 39.6362
_cell_angle_alpha 89.975500
_cell_angle_beta 90.001300
_cell_angle_gamma 89.950700
loop_
  _atom_site_label
  _atom_site_type_symbol
  _atom_site_fract_x
  _atom_site_fract_y
  _atom_site_fract_z
C1 C 0.16623 0.16614 0.21009
 C2 C 0.15152 0.19436 0.19421
 C3 C 0.16561 0.20842 0.16498
 C4 C 0.19458 0.19379 0.15091
 C5 C 0.21022 0.16561 0.16594
 C6 C 0.19564 0.15221 0.19556
 H7 H 0.13016 0.20700 0.20556
 H8 H 0.20545 0.20545 0.12878
 H9 H 0.20566 0.12903 0.20579
 C10 C -0.16629 0.83353 0.21121
 C11 C -0.15259 0.80402 0.19668
 C12 C -0.16675 0.78950 0.16764
 C13 C -0.19514 0.80452 0.15289
 C14 C -0.20948 0.83369 0.16676
 C15 C -0.19485 0.84812 0.19562
 H16 H -0.13027 0.79245 0.20726
 H17 H -0.20575 0.79381 0.13011
 H18 H -0.20727 0.86959 0.20694
 C19 C -0.16626 0.16643 -0.21038
 C20 C -0.15173 0.19502 -0.19489
 C21 C -0.16618 0.20972 -0.16606
 C22 C -0.19532 0.19539 -0.15211
 C23 C -0.21028 0.16695 -0.16674
 C24 C -0.19574 0.15275 -0.19576
 H25 H -0.13029 0.20743 -0.20628
 H26 H -0.20605 0.20604 -0.12934
 H27 H -0.20725 0.13041 -0.20627
 C28 C 0.16644 0.83351 -0.21090
 C29 C 0.15273 0.80405 -0.19627
 C30 C 0.16690 0.78956 -0.16720
 C31 C 0.19532 0.80453 -0.15252
 C32 C 0.20967 0.83365 -0.16647
 C33 C 0.19503 0.84805 -0.19536
 H34 H 0.13040 0.79253 -0.20681
 H35 H 0.20594 0.79384 -0.12971
 H36 H 0.20746 0.86947 -0.20674
 C37 C 0.16646 1.16666 0.78894
 C38 C 0.15276 1.19614 0.80354
 C39 C 0.16691 1.21058 0.83262
 C40 C 0.19531 1.19553 0.84734
 C41 C 0.20965 1.16639 0.83340
 C42 C 0.19501 1.15204 0.80450
 H43 H 0.13044 1.20773 0.79298
 H44 H 0.20591 1.20618 0.87015
 H45 H 0.20744 1.13059 0.79313
 C46 C 0.83426 0.83388 0.78972
 C47 C 0.84879 0.80512 0.80494
 C48 C 0.83480 0.79017 0.83414
 C49 C 0.80578 0.80509 0.84830
 C50 C 0.79072 0.83353 0.83364
 C51 C 0.80502 0.84765 0.80454
 H52 H 0.87110 0.79416 0.79388
 H53 H 0.79334 0.79352 0.86965
 H54 H 0.79406 0.87059 0.79465
 C55 C 0.16597 0.83365 1.21045
 C56 C 0.15148 0.80502 1.19500
 C57 C 0.16599 0.79028 1.16621
 C58 C 0.19520 0.80455 1.15232
 C59 C 0.21010 0.83304 1.16694
 C60 C 0.19543 0.84733 1.19584
 H61 H 0.13000 0.79264 1.20636
 H62 H 0.20650 0.79331 1.13013
 H63 H 0.20632 0.87028 1.20572
 C64 C 0.83348 1.16640 1.21068
 C65 C 0.80492 1.15179 1.19517
 C66 C 0.79025 1.16611 1.16626
 C67 C 0.80456 1.19521 1.15224
 C68 C 0.83298 1.21024 1.16688
 C69 C 0.84716 1.19583 1.19598
 H70 H 0.79252 1.13037 1.20661
 H71 H 0.79393 1.20585 1.12942
 H72 H 0.86948 1.20740 1.20649
 N73 N 0.46458 0.94008 0.96366
 N74 N 0.43836 0.91993 0.96006
 N75 N 0.53556 0.96351 0.94026
 N76 N 0.56173 0.95982 0.92000
 N77 N 0.53559 0.94011 0.96368
 N78 N 0.56178 0.91989 0.96000
 N79 N 0.46454 0.96350 0.94026
 N80 N 0.43829 0.95992 0.92011
 C81 C 0.42222 0.93257 0.93271
 C82 C 0.57783 0.93244 0.93258
 N83 N 0.53540 1.05944 0.96372
 N84 N 0.56144 1.07979 0.95997
 N85 N 0.46444 1.03602 0.94031
 N86 N 0.43821 1.03965 0.92012
 N87 N 0.46441 1.05939 0.96374
 N88 N 0.43817 1.07955 0.96013
 N89 N 0.53546 1.03607 0.94030
 N90 N 0.56156 1.03987 0.91998
 Mn91 Mn 0.50001 0.99977 0.93985
 C92 C 0.57751 1.06732 0.93252
 C93 C 0.42208 1.06698 0.93274
 N94 N 0.53558 0.94006 1.03629
 N95 N 0.56186 0.91994 1.03989
 N96 N 0.46456 0.96337 1.05971
 N97 N 0.43848 0.95959 1.08004
 N98 N 0.46457 0.94000 1.03628
 N99 N 0.43848 0.91971 1.04002
 N100 N 0.53555 0.96344 1.05970
 N101 N 0.56181 0.95988 1.07985
 Mn102 Mn 0.50008 0.93963 0.99997
 C103 C 0.57796 0.93256 1.06724
 C104 C 0.42245 0.93220 1.06749
 N105 N 0.46446 1.05938 1.03639
 N106 N 0.43836 1.07970 1.04019
 N107 N 0.53545 1.03595 1.05973
 N108 N 0.56170 1.03954 1.07990
 N109 N 0.53542 1.05936 1.03633
 N110 N 0.56163 1.07952 1.03993
 N111 N 0.46441 1.03587 1.05971
 N112 N 0.43822 1.03949 1.07993
 Mn113 Mn 0.49992 1.05982 1.00004
 Mn114 Mn 0.49999 0.99966 1.06014
 Cl115 Cl 0.50000 0.99972 1.00000
 C116 C 0.42223 1.06702 1.06751
 C117 C 0.57777 1.06690 1.06729
 N118 N -0.05982 0.46448 0.03629
 N119 N -0.08016 0.43843 0.04000
 N120 N -0.03642 0.53533 0.05987
 N121 N -0.04017 0.56135 0.08025
 N122 N -0.05983 0.53541 0.03645
 N123 N -0.08015 0.56149 0.04028
 N124 N -0.03641 0.46439 0.05971
 N125 N -0.04018 0.43826 0.07998
 C126 C -0.06764 0.42232 0.06741
 C127 C -0.06762 0.57742 0.06777
 N128 N 0.05958 0.53533 0.03650
 N129 N 0.07974 0.56152 0.04015
 N130 N 0.03616 0.46430 0.05973
 N131 N 0.03966 0.43791 0.07972
 N132 N 0.05958 0.46437 0.03632
 N133 N 0.07966 0.43805 0.03977
 N134 N 0.03616 0.53530 0.05990
 N135 N 0.03974 0.56149 0.08010
 Mn136 Mn -0.00012 0.49983 0.06023
 C137 C 0.06711 0.57759 0.06753
 C138 C 0.06699 0.42180 0.06702
 N139 N -0.05984 0.53559 -0.03620
 N140 N -0.08006 0.56179 -0.03982
 N141 N -0.03637 0.46469 -0.05972
 N142 N -0.03993 0.43848 -0.07990
 N143 N -0.05979 0.46466 -0.03632
 N144 N -0.07993 0.43845 -0.03995
 N145 N -0.03633 0.53571 -0.05952
 N146 N -0.03983 0.56206 -0.07954
 Mn147 Mn -0.06025 0.50004 0.00005
 C148 C -0.06731 0.57805 -0.06703
 C149 C -0.06729 0.42237 -0.06731
 N150 N 0.05963 0.46459 -0.03629
 N151 N 0.07996 0.43853 -0.04010
 N152 N 0.03621 0.53560 -0.05954
 N153 N 0.03998 0.56171 -0.07983
 N154 N 0.05962 0.53553 -0.03612
 N155 N 0.07996 0.56158 -0.03986
 N156 N 0.03621 0.46465 -0.05970
 N157 N 0.03998 0.43862 -0.08008
 Mn158 Mn 0.06003 0.49996 0.00011
 Mn159 Mn -0.00008 0.50016 -0.06005
 Cl160 Cl -0.00010 0.50000 0.00009
 C161 C 0.06744 0.42257 -0.06758
 C162 C 0.06744 0.57767 -0.06729
 N163 N 0.94008 -0.03596 0.46490
 N164 N 0.91963 -0.03972 0.43889
 N165 N 0.96387 -0.05932 0.53575
 N166 N 0.96020 -0.07964 0.56186
 N167 N 0.94056 -0.03582 0.53593
 N168 N 0.92047 -0.03943 0.56222
 N169 N 0.96359 -0.05928 0.46472
 N170 N 0.95985 -0.07945 0.43853
 C171 C 0.93225 -0.06702 0.42269
 C172 C 0.93297 -0.06695 0.57814
 N173 N 1.05998 -0.03604 0.53515
 N174 N 1.08045 -0.03982 0.56116
 N175 N 1.03616 -0.05946 0.46438
 N176 N 1.03977 -0.07981 0.43829
 N177 N 1.05946 -0.03599 0.46410
 N178 N 1.07948 -0.03965 0.43775
 N179 N 1.03646 -0.05930 0.53541
 N180 N 1.04020 -0.07945 0.56164
 Mn181 Mn 1.00002 -0.05976 0.50007
 C182 C 1.06782 -0.06706 0.57744
 C183 C 1.06695 -0.06717 0.42192
 N184 N 0.94058 0.03662 0.53586
 N185 N 0.92053 0.04027 0.56218
 N186 N 0.96359 0.05995 0.46458
 N187 N 0.95985 0.08008 0.43834
 N188 N 0.94009 0.03667 0.46483
 N189 N 0.91964 0.04041 0.43882
 N190 N 0.96389 0.06008 0.53562
 N191 N 0.96025 0.08042 0.56172
 Mn192 Mn 0.93990 0.00038 0.50037
 C193 C 0.93304 0.06778 0.57805
 C194 C 0.93225 0.06765 0.42253
 N195 N 1.05949 0.03648 0.46403
 N196 N 1.07961 0.04017 0.43778
 N197 N 1.03648 0.05991 0.53528
 N198 N 1.04023 0.08007 0.56148
 N199 N 1.05999 0.03659 0.53507
 N200 N 1.08045 0.04034 0.56107
 N201 N 1.03618 0.05999 0.46425
 N202 N 1.03989 0.08039 0.43821
 Mn203 Mn 1.06016 0.00026 0.49959
 Mn204 Mn 1.00004 0.06041 0.49993
 Cl205 Cl 1.00003 0.00032 0.49999
 C206 C 1.06714 0.06774 0.42192
 C207 C 1.06784 0.06762 0.57730
 C208 C 1.12348 0.12406 0.29951
 C209 C 1.15815 0.12124 0.29299
 C210 C 1.17215 0.13489 0.26368
 C211 C 1.15195 0.15215 0.23990
 C212 C 1.11709 0.15504 0.24683
 C213 C 1.10313 0.14109 0.27605
 C214 C 1.10868 0.10940 0.33072
 C215 C 1.08276 0.12627 0.34813
 C216 C 1.06912 0.11263 0.37765
 C217 C 1.08125 0.08196 0.39052
 C218 C 1.10702 0.06500 0.37316
 C219 C 1.12051 0.07850 0.34352
 H220 H 1.19921 0.13304 0.26070
 H221 H 1.09998 0.16676 0.22909
 H222 H 1.04930 0.12627 0.39057
 H223 H 1.11666 0.04116 0.38237
 H224 H 1.07617 0.14309 0.27990
 H225 H 1.07338 0.15032 0.33927
 H226 H 1.17473 0.10904 0.31094
 H227 H 1.13999 0.06454 0.33045
 C228 C 0.87616 -0.12348 0.30029
 C229 C 0.85903 -0.10323 0.27683
 C230 C 0.84503 -0.11727 0.24769
 C231 C 0.84796 -0.15211 0.24085
 C232 C 0.86541 -0.17220 0.26458
 C233 C 0.87910 -0.15813 0.29381
 C234 C 0.89076 -0.10862 0.33149
 C235 C 0.92170 -0.12035 0.34431
 C236 C 0.93514 -0.10685 0.37395
 C237 C 0.91806 -0.08116 0.39130
 C238 C 0.88735 -0.06912 0.37842
 C239 C 0.87377 -0.08279 0.34890
 H240 H 0.83321 -0.10023 0.22996
 H241 H 0.86732 -0.19923 0.26171
 H242 H 0.95901 -0.11641 0.38317
 H243 H 0.87362 -0.04937 0.39134
 H244 H 0.89140 -0.17463 0.31177
 H245 H 0.93576 -0.13977 0.33124
 H246 H 0.85696 -0.07629 0.28064
 H247 H 0.84968 -0.07350 0.34002
 C248 C 0.87679 0.12379 0.70063
 C249 C 0.84214 0.12084 0.70716
 C250 C 0.82804 0.13460 0.73637
 C251 C 0.84812 0.15213 0.76001
 C252 C 0.88298 0.15505 0.75312
 C253 C 0.89704 0.14099 0.72401
 C254 C 0.89166 0.10916 0.66943
 C255 C 0.91744 0.12613 0.65195
 C256 C 0.93106 0.11257 0.62238
 C257 C 0.91902 0.08189 0.60953
 C258 C 0.89341 0.06481 0.62699
 C259 C 0.87996 0.07822 0.65667
 H260 H 0.80100 0.13269 0.73927
 H261 H 0.90001 0.16693 0.77079
 H262 H 0.95076 0.12630 0.60939
 H263 H 0.88386 0.04095 0.61780
 H264 H 0.92399 0.14307 0.72016
 H265 H 0.92672 0.15021 0.66077
 H266 H 0.82563 0.10850 0.68926
 H267 H 0.86059 0.06418 0.66980
 C268 C 1.12397 -0.12353 0.69993
 C269 C 1.14115 -0.10329 0.72333
 C270 C 1.15515 -0.11732 0.75249
 C271 C 1.15219 -0.15214 0.75944
 C272 C 1.13468 -0.17222 0.73577
 C273 C 1.12098 -0.15815 0.70651
 C274 C 1.10936 -0.10867 0.66870
 C275 C 1.07840 -0.12034 0.65592
 C276 C 1.06495 -0.10683 0.62626
 C277 C 1.08203 -0.08120 0.60885
 C278 C 1.11276 -0.06923 0.62169
 C279 C 1.12635 -0.08290 0.65123
 H280 H 1.16701 -0.10029 0.77017
 H281 H 1.13273 -0.19924 0.73872
 H282 H 1.04107 -0.11635 0.61708
 H283 H 1.12650 -0.04952 0.60871
 H284 H 1.10865 -0.17465 0.68861
 H285 H 1.06434 -0.13971 0.66903
 H286 H 1.14325 -0.07636 0.71944
 H287 H 1.15046 -0.07365 0.66006
 C288 C 0.29945 1.12277 1.12358
 C289 C 0.29293 1.12031 1.15830
 C290 C 0.26361 1.13410 1.17215
 C291 C 0.23984 1.15113 1.15174
 C292 C 0.24668 1.15345 1.11681
 C293 C 0.27590 1.13938 1.10301
 C294 C 0.33081 1.10826 1.10894
 C295 C 0.34806 1.12508 1.08291
 C296 C 0.37767 1.11159 1.06934
 C297 C 0.39080 1.08111 1.08166
 C298 C 0.37363 1.06421 1.10760
 C299 C 0.34390 1.07758 1.12103
 H300 H 0.26066 1.13262 1.19924
 H301 H 0.22890 1.16485 1.09953
 H302 H 0.39045 1.12519 1.04940
 H303 H 0.38305 1.04052 1.11740
 H304 H 0.27973 1.14102 1.07601
 H305 H 0.33899 1.14899 1.07335
 H306 H 0.31093 1.10837 1.17502
 H307 H 0.33097 1.06367 1.14064
 C308 C 0.29950 0.87675 0.87704
 C309 C 0.27321 0.89763 0.86563
 C310 C 0.24402 0.88369 0.85162
 C311 C 0.24051 0.84857 0.84869
 C312 C 0.26680 0.82771 0.86013
 C313 C 0.29594 0.84164 0.87415
 C314 C 0.33066 0.89146 0.89167
 C315 C 0.34604 0.87662 0.91998
 C316 C 0.37571 0.89006 0.93339
 C317 C 0.39066 0.91859 0.91873
 C318 C 0.37523 0.93362 0.89060
 C319 C 0.34552 0.92020 0.87721
 H320 H 0.22400 0.90039 0.84346
 H321 H 0.26511 0.80059 0.85768
 H322 H 0.38695 0.87808 0.95522
 H323 H 0.38620 0.95566 0.87880
 H324 H 0.31599 0.82491 0.88217
 H325 H 0.33494 0.85475 0.93197
 H326 H 0.27502 0.92476 0.86795
 H327 H 0.33448 0.93198 0.85517
 C328 C 0.70072 0.87682 1.12306
 C329 C 0.70428 0.84171 1.12607
 C330 C 0.73341 0.82778 1.14017
 C331 C 0.75969 0.84862 1.15155
 C332 C 0.75617 0.88375 1.14850
 C333 C 0.72700 0.89769 1.13442
 C334 C 0.66957 0.89152 1.10836
 C335 C 0.65466 0.92028 1.12276
 C336 C 0.62493 0.93367 1.10934
 C337 C 0.60954 0.91861 1.08123
 C338 C 0.62456 0.89008 1.06662
 C339 C 0.65425 0.87666 1.08006
 H340 H 0.73510 0.80066 1.14272
 H341 H 0.77618 0.90043 1.15662
 H342 H 0.61391 0.95571 1.12110
 H343 H 0.61335 0.87808 1.04480
 H344 H 0.72518 0.92482 1.13201
 H345 H 0.66566 0.93207 1.14479
 H346 H 0.68424 0.82499 1.11809
 H347 H 0.66540 0.85478 1.06812
 C348 C 0.69972 1.12393 0.87648
 C349 C 0.72603 1.10304 0.86515
 C350 C 0.75526 1.11696 0.85123
 C351 C 0.75881 1.15208 0.84829
 C352 C 0.73254 1.17296 0.85969
 C353 C 0.70333 1.15905 0.87364
 C354 C 0.66856 1.10917 0.89107
 C355 C 0.65319 1.12389 0.91943
 C356 C 0.62366 1.11023 0.93295
 C357 C 0.60885 1.08160 0.91835
 C358 C 0.62424 1.06675 0.89012
 C359 C 0.65380 1.08038 0.87662
 H360 H 0.77530 1.10024 0.84319
 H361 H 0.73433 1.20009 0.85731
 H362 H 0.61244 1.12209 0.95485
 H363 H 0.61336 1.04466 0.87835
 H364 H 0.68330 1.17578 0.88166
 H365 H 0.66421 1.14579 0.93141
 H366 H 0.72421 1.07591 0.86749
 H367 H 0.66483 1.06870 0.85454
 C368 C 0.12256 0.29849 0.12179
 C369 C 0.15769 0.29491 0.12485
 C370 C 0.17161 0.26568 0.13872
 C371 C 0.15073 0.23930 0.14981
 C372 C 0.11559 0.24283 0.14672
 C373 C 0.10166 0.27212 0.13287
 C374 C 0.10788 0.32978 0.10736
 C375 C 0.07907 0.34456 0.12184
 C376 C 0.06573 0.37442 0.10869
 C377 C 0.08088 0.39009 0.08077
 C378 C 0.10946 0.37520 0.06607
 C379 C 0.12284 0.34538 0.07925
 H380 H 0.19874 0.26400 0.14137
 H381 H 0.09890 0.22277 0.15469
 H382 H 0.04365 0.38533 0.12050
 H383 H 0.12153 0.38661 0.04439
 H384 H 0.07452 0.27396 0.13044
 H385 H 0.06721 0.33334 0.14374
 H386 H 0.17443 0.31502 0.11709
 H387 H 0.14475 0.33435 0.06725
 C388 C -0.12309 0.29965 -0.12283
 C389 C -0.10218 0.27335 -0.13415
 C390 C -0.11612 0.24413 -0.14805
 C391 C -0.15127 0.24058 -0.15096
 C392 C -0.17215 0.26687 -0.13962
 C393 C -0.15823 0.29605 -0.12570
 C394 C -0.10839 0.33083 -0.10826
 C395 C -0.12324 0.34621 -0.07998
 C396 C -0.10980 0.37588 -0.06661
 C397 C -0.08127 0.39083 -0.08129
 C398 C -0.06623 0.37539 -0.10940
 C399 C -0.07964 0.34567 -0.12274
 H400 H -0.09940 0.22412 -0.15615
 H401 H -0.19929 0.26515 -0.14206
 H402 H -0.12179 0.38713 -0.04480
 H403 H -0.04418 0.38635 -0.12120
 H404 H -0.17498 0.31609 -0.11773
 H405 H -0.14511 0.33512 -0.06797
 H406 H -0.07504 0.27519 -0.13184
 H407 H -0.06786 0.33463 -0.14476
 C408 C 0.12390 0.69973 -0.12368
 C409 C 0.10298 0.72597 -0.13512
 C410 C 0.11689 0.75513 -0.14917
 C411 C 0.15203 0.75868 -0.15214
 C412 C 0.17294 0.73246 -0.14065
 C413 C 0.15904 0.70332 -0.12658
 C414 C 0.10916 0.66863 -0.10896
 C415 C 0.12397 0.65332 -0.08059
 C416 C 0.11034 0.62383 -0.06698
 C417 C 0.08167 0.60899 -0.08150
 C418 C 0.06672 0.62433 -0.10972
 C419 C 0.08031 0.65386 -0.12331
 H420 H 0.10015 0.77513 -0.15728
 H421 H 0.20008 0.73426 -0.14306
 H422 H 0.12227 0.61264 -0.04509
 H423 H 0.04458 0.61345 -0.12142
 H424 H 0.17580 0.68333 -0.11850
 H425 H 0.14591 0.66436 -0.06869
 H426 H 0.07584 0.72417 -0.13275
 H427 H 0.06856 0.66483 -0.14539
 C428 C -0.12389 0.69950 0.12433
 C429 C -0.10292 0.72569 0.13571
 C430 C -0.11679 0.75490 0.14971
 C431 C -0.15192 0.75855 0.15269
 C432 C -0.17287 0.73238 0.14129
 C433 C -0.15902 0.70319 0.12727
 C434 C -0.10921 0.66838 0.10959
 C435 C -0.12405 0.65319 0.08121
 C436 C -0.11047 0.62368 0.06757
 C437 C -0.08182 0.60873 0.08205
 C438 C -0.06684 0.62396 0.11030
 C439 C -0.08039 0.65349 0.12392
 H440 H -0.10002 0.77487 0.15777
 H441 H -0.20001 0.73426 0.14371
 H442 H -0.12242 0.61258 0.04566
 H443 H -0.04471 0.61297 0.12197
 H444 H -0.17580 0.68324 0.11923
 H445 H -0.14598 0.66432 0.06933
 H446 H -0.07578 0.72380 0.13332
 H447 H -0.06861 0.66439 0.14602
 C448 C 1.12399 0.12388 0.69977
 C449 C 1.14112 0.10357 0.72318
 C450 C 1.15513 0.11755 0.75235
 C451 C 1.15222 0.15237 0.75927
 C452 C 1.13476 0.17252 0.73558
 C453 C 1.12106 0.15851 0.70632
 C454 C 1.10938 0.10910 0.66854
 C455 C 1.07844 0.12086 0.65575
 C456 C 1.06499 0.10740 0.62609
 C457 C 1.08205 0.08173 0.60869
 C458 C 1.11276 0.06967 0.62155
 C459 C 1.12635 0.08329 0.65108
 H460 H 1.16695 0.10047 0.77004
 H461 H 1.13287 0.19955 0.73851
 H462 H 1.04111 0.11698 0.61689
 H463 H 1.12648 0.04993 0.60859
 H464 H 1.10877 0.17507 0.68841
 H465 H 1.06439 0.14026 0.66885
 H466 H 1.14318 0.07664 0.71931
 H467 H 1.15045 0.07397 0.65993
 C468 C 0.87692 -0.12285 0.70085
 C469 C 0.84224 -0.12018 0.70740
 C470 C 0.82830 -0.13408 0.73663
 C471 C 0.84858 -0.15148 0.76024
 C472 C 0.88349 -0.15395 0.75341
 C473 C 0.89737 -0.13976 0.72429
 C474 C 0.89163 -0.10826 0.66957
 C475 C 0.91754 -0.12516 0.65218
 C476 C 0.93112 -0.11163 0.62259
 C477 C 0.91892 -0.08105 0.60961
 C478 C 0.89315 -0.06404 0.62694
 C479 C 0.87972 -0.07744 0.65665
 H480 H 0.80124 -0.13241 0.73961
 H481 H 0.90070 -0.16553 0.77113
 H482 H 0.95093 -0.12531 0.60969
 H483 H 0.88346 -0.04026 0.61764
 H484 H 0.92435 -0.14154 0.72046
 H485 H 0.92697 -0.14917 0.66112
 H486 H 0.82560 -0.10799 0.68950
 H487 H 0.86023 -0.06346 0.66970
 C488 C 1.12296 -0.12340 0.29932
 C489 C 1.10271 -0.14078 0.27607
 C490 C 1.11674 -0.15495 0.24699
 C491 C 1.15156 -0.15194 0.23999
 C492 C 1.17164 -0.13422 0.26350
 C493 C 1.15758 -0.12036 0.29267
 C494 C 1.10814 -0.10869 0.33051
 C495 C 1.11981 -0.07770 0.34315
 C496 C 1.10642 -0.06423 0.37284
 C497 C 1.08091 -0.08132 0.39042
 C498 C 1.06889 -0.11206 0.37768
 C499 C 1.08245 -0.12567 0.34812
 H500 H 1.09971 -0.16699 0.22943
 H501 H 1.19867 -0.13221 0.26048
 H502 H 1.11595 -0.04033 0.38194
 H503 H 1.04927 -0.12580 0.39078
 H504 H 1.17410 -0.10788 0.31046
 H505 H 1.13911 -0.06364 0.32992
 H506 H 1.07578 -0.14294 0.28001
 H507 H 1.07320 -0.14980 0.33939
 C508 C 0.87605 0.12375 0.29992
 C509 C 0.85892 0.10341 0.27658
 C510 C 0.84488 0.11734 0.24739
 C511 C 0.84776 0.15215 0.24037
 C512 C 0.86521 0.17233 0.26399
 C513 C 0.87895 0.15836 0.29328
 C514 C 0.89068 0.10901 0.33119
 C515 C 0.92162 0.12076 0.34395
 C516 C 0.93508 0.10735 0.37364
 C517 C 0.91803 0.08173 0.39111
 C518 C 0.88732 0.06968 0.37829
 C519 C 0.87372 0.08326 0.34872
 H520 H 0.83305 0.10024 0.22975
 H521 H 0.86709 0.19935 0.26098
 H522 H 0.95895 0.11692 0.38281
 H523 H 0.87361 0.04999 0.39131
 H524 H 0.89124 0.17493 0.31114
 H525 H 0.93565 0.14012 0.33079
 H526 H 0.85688 0.07649 0.28053
 H527 H 0.84963 0.07395 0.33991
 C528 C 0.12391 0.30050 -0.12400
 C529 C 0.10299 0.27431 -0.13544
 C530 C 0.11690 0.24511 -0.14944
 C531 C 0.15204 0.24149 -0.15235
 C532 C 0.17295 0.26765 -0.14086
 C533 C 0.15905 0.29682 -0.12685
 C534 C 0.10918 0.33162 -0.10930
 C535 C 0.12394 0.34682 -0.08089
 C536 C 0.11031 0.37632 -0.06728
 C537 C 0.08168 0.39126 -0.08184
 C538 C 0.06678 0.37603 -0.11012
 C539 C 0.08038 0.34649 -0.12370
 H540 H 0.10016 0.22515 -0.15755
 H541 H 0.20010 0.26579 -0.14323
 H542 H 0.12220 0.38742 -0.04534
 H543 H 0.04468 0.38700 -0.12185
 H544 H 0.17581 0.31677 -0.11875
 H545 H 0.14584 0.33570 -0.06894
 H546 H 0.07584 0.27618 -0.13311
 H547 H 0.06867 0.33559 -0.14583
 C548 C -0.12408 0.30011 0.12344
 C549 C -0.10314 0.27386 0.13483
 C550 C -0.11704 0.24467 0.14883
 C551 C -0.15218 0.24111 0.15178
 C552 C -0.17311 0.26731 0.14031
 C553 C -0.15922 0.29648 0.12629
 C554 C -0.10935 0.33125 0.10882
 C555 C -0.12411 0.34659 0.08045
 C556 C -0.11049 0.37613 0.06694
 C557 C -0.08187 0.39097 0.08155
 C558 C -0.06697 0.37560 0.10978
 C559 C -0.08056 0.34603 0.12327
 H560 H -0.10029 0.22468 0.15693
 H561 H -0.20025 0.26549 0.14269
 H562 H -0.12238 0.38734 0.04504
 H563 H -0.04487 0.38649 0.12155
 H564 H -0.17598 0.31647 0.11823
 H565 H -0.14601 0.33555 0.06847
 H566 H -0.07600 0.27570 0.13249
 H567 H -0.06885 0.33503 0.14537
 C568 C -0.12264 0.70110 -0.12289
 C569 C -0.13987 0.72446 -0.10262
 C570 C -0.15387 0.75361 -0.11665
 C571 C -0.15084 0.76058 -0.15149
 C572 C -0.13327 0.73696 -0.17160
 C573 C -0.11958 0.70772 -0.15754
 C574 C -0.10815 0.66981 -0.10810
 C575 C -0.07723 0.65691 -0.11981
 C576 C -0.06399 0.62710 -0.10648
 C577 C -0.08124 0.60965 -0.08096
 C578 C -0.11190 0.62263 -0.06891
 C579 C -0.12528 0.65232 -0.08241
 H580 H -0.16584 0.77125 -0.09963
 H581 H -0.13135 0.73987 -0.19866
 H582 H -0.04015 0.61782 -0.11604
 H583 H -0.12575 0.60964 -0.04928
 H584 H -0.10723 0.68984 -0.17408
 H585 H -0.06306 0.67003 -0.13911
 H586 H -0.14205 0.72053 -0.07567
 H587 H -0.14936 0.66124 -0.07313
 C588 C 0.12297 0.70025 0.12313
 C589 C 0.10206 0.72665 0.13420
 C590 C 0.11598 0.75589 0.14807
 C591 C 0.15112 0.75936 0.15121
 C592 C 0.17200 0.73294 0.14015
 C593 C 0.15809 0.70375 0.12625
 C594 C 0.10828 0.66907 0.10856
 C595 C 0.12324 0.65359 0.08039
 C596 C 0.10978 0.62394 0.06700
 C597 C 0.08112 0.60910 0.08154
 C598 C 0.06598 0.62463 0.10954
 C599 C 0.07940 0.65433 0.12291
 H600 H 0.09927 0.77599 0.15596
 H601 H 0.19913 0.73458 0.14279
 H602 H 0.12186 0.61262 0.04526
 H603 H 0.04383 0.61375 0.12124
 H604 H 0.17484 0.68362 0.11848
 H605 H 0.14521 0.66459 0.06849
 H606 H 0.07492 0.72488 0.13171
 H607 H 0.06753 0.66546 0.14484
 C608 C 0.29943 1.12306 0.87695
 C609 C 0.27313 1.10224 0.86554
 C610 C 0.24396 1.11625 0.85152
 C611 C 0.24046 1.15139 0.84858
 C612 C 0.26677 1.17218 0.86001
 C613 C 0.29590 1.15818 0.87404
 C614 C 0.33058 1.10827 0.89161
 C615 C 0.34593 1.12308 0.91993
 C616 C 0.37559 1.10957 0.93336
 C617 C 0.39054 1.08102 0.91873
 C618 C 0.37512 1.06603 0.89060
 C619 C 0.34543 1.07950 0.87718
 H620 H 0.22393 1.09961 0.84336
 H621 H 0.26509 1.19931 0.85754
 H622 H 0.38682 1.12152 0.95520
 H623 H 0.38610 1.04397 0.87882
 H624 H 0.31595 1.17486 0.88206
 H625 H 0.33483 1.14496 0.93190
 H626 H 0.27492 1.07511 0.86788
 H627 H 0.33441 1.06776 0.85514
 C628 C 0.30022 0.87606 1.12393
 C629 C 0.27390 0.86487 1.10300
 C630 C 0.24465 0.85098 1.11691
 C631 C 0.24109 0.84794 1.15207
 C632 C 0.26742 0.85914 1.17298
 C633 C 0.29663 0.87306 1.15907
 C634 C 0.33137 0.89069 1.10919
 C635 C 0.34670 0.91897 1.12403
 C636 C 0.37624 0.93251 1.11041
 C637 C 0.39109 0.91802 1.08171
 C638 C 0.37574 0.88987 1.06674
 C639 C 0.34616 0.87636 1.08033
 H640 H 0.22460 0.84306 1.10016
 H641 H 0.26564 0.85664 1.20013
 H642 H 0.38743 0.95435 1.12236
 H643 H 0.38664 0.87819 1.04458
 H644 H 0.31669 0.88095 1.17583
 H645 H 0.33565 0.93086 1.14599
 H646 H 0.27572 0.86731 1.07585
 H647 H 0.33516 0.85434 1.06855
 C648 C 0.70043 1.12285 1.12291
 C649 C 0.70395 1.15797 1.12575
 C650 C 0.73309 1.17195 1.13972
 C651 C 0.75942 1.15114 1.15115
 C652 C 0.75594 1.11600 1.14828
 C653 C 0.72675 1.10201 1.13432
 C654 C 0.66928 1.10810 1.10830
 C655 C 0.65446 1.07935 1.12278
 C656 C 0.62475 1.06590 1.10941
 C657 C 0.60931 1.08090 1.08127
 C658 C 0.62424 1.10942 1.06658
 C659 C 0.65390 1.12290 1.07997
 H660 H 0.73476 1.19908 1.14213
 H661 H 0.77598 1.09934 1.15646
 H662 H 0.61380 1.04387 1.12122
 H663 H 0.61299 1.12137 1.04473
 H664 H 0.72497 1.07488 1.13204
 H665 H 0.66550 1.06761 1.14484
 H666 H 0.68388 1.17467 1.11771
 H667 H 0.66499 1.14476 1.06795
 C668 C 0.70042 0.87645 0.87655
 C669 C 0.70398 0.87330 0.84142
 C670 C 0.73323 0.85939 0.82755
 C671 C 0.75964 0.84835 0.84849
 C672 C 0.75609 0.85149 0.88363
 C673 C 0.72679 0.86537 0.89751
 C674 C 0.66921 0.89109 0.89122
 C675 C 0.65446 0.87684 0.92015
 C676 C 0.62479 0.89031 0.93362
 C677 C 0.60930 0.91834 0.91848
 C678 C 0.62414 0.93277 0.88974
 C679 C 0.65376 0.91927 0.87623
 H680 H 0.73497 0.85679 0.80041
 H681 H 0.77619 0.84364 0.90039
 H682 H 0.61391 0.87868 0.95581
 H683 H 0.61284 0.95451 0.87766
 H684 H 0.72498 0.86789 0.92465
 H685 H 0.66555 0.85490 0.93204
 H686 H 0.68388 0.88108 0.82464
 H687 H 0.66478 0.93109 0.85421
   
