data_POSCAR
  _audit_creation_date              2014-09-24
  _audit_creation_method            'ToBaCCo'
  _symmetry_space_group_name_H-M    'P1'
  _symmetry_Int_Tables_number       1
  _symmetry_cell_setting            triclinic
  loop_
  _symmetry_equiv_pos_as_xyz
 x,y,z
_cell_length_a 60.1587
_cell_length_b 59.9668
_cell_length_c 33.6418
_cell_angle_alpha 90.490700
_cell_angle_beta 90.143900
_cell_angle_gamma 90.559900
loop_
  _atom_site_label
  _atom_site_type_symbol
  _atom_site_fract_x
  _atom_site_fract_y
  _atom_site_fract_z
O1 O -0.00721 0.26876 0.09506
 O2 O 0.03453 0.27204 0.01403
 O3 O -0.00920 0.27536 0.01897
 O4 O 0.03659 0.26828 0.09059
 O5 O 0.03502 0.23184 0.08123
 O6 O -0.01178 0.23880 0.01154
 O7 O 0.03060 0.23579 0.00480
 O8 O -0.00804 0.23216 0.08757
 Cu9 Cu 0.01388 0.27480 0.05554
 Cu10 Cu 0.01122 0.23105 0.04563
 C11 C -0.01475 0.24968 0.10485
 C12 C 0.03961 0.25421 -0.00457
 C13 C -0.01843 0.25829 0.00328
 C14 C 0.04397 0.24893 0.09753
 O15 O 0.46472 0.78339 0.52656
 O16 O 0.51069 0.77663 0.45494
 O17 O 0.46729 0.77662 0.45040
 O18 O 0.50872 0.78234 0.53135
 O19 O 0.50730 0.74591 0.53988
 O20 O 0.46641 0.74023 0.45971
 O21 O 0.50906 0.74017 0.46340
 O22 O 0.46403 0.74700 0.53572
 Cu23 Cu 0.48795 0.78346 0.49019
 Cu24 Cu 0.48660 0.73973 0.50084
 C25 C 0.45627 0.76624 0.54279
 C26 C 0.51755 0.75716 0.44674
 C27 C 0.45984 0.75732 0.44127
 C28 C 0.51543 0.76491 0.54879
 O29 O 0.96385 0.73434 -0.05309
 O30 O 1.00882 0.72986 0.02216
 O31 O 0.96530 0.73195 0.02400
 O32 O 1.00771 0.72993 -0.05514
 O33 O 1.00974 0.76657 -0.05347
 O34 O 0.96879 0.76860 0.02743
 O35 O 1.01017 0.76664 0.02626
 O36 O 0.96549 0.77088 -0.04596
 Cu37 Cu 0.98621 0.72779 -0.01609
 Cu38 Cu 0.98956 0.77165 -0.01271
 C39 C 0.95626 0.75360 -0.06078
 C40 C 1.01689 0.74771 0.03731
 C41 C 0.95973 0.75059 0.03914
 C42 C 1.01624 0.74801 -0.06755
 O43 O 0.53503 0.23446 0.59483
 O44 O 0.49312 0.22775 0.51505
 O45 O 0.53721 0.22836 0.51873
 O46 O 0.49138 0.23375 0.59161
 O47 O 0.49139 0.27012 0.58218
 O48 O 0.53766 0.26501 0.51277
 O49 O 0.49407 0.26411 0.50558
 O50 O 0.53410 0.27099 0.58756
 Cu51 Cu 0.51408 0.22737 0.55569
 Cu52 Cu 0.51413 0.27116 0.54577
 C53 C 0.54191 0.25390 0.60447
 C54 C 0.48623 0.24490 0.49705
 C55 C 0.54598 0.24610 0.50516
 C56 C 0.48357 0.25296 0.59917
 O57 O 0.72461 -0.02898 -0.01528
 O58 O 0.72529 0.02033 -0.08170
 O59 O 0.72508 -0.02342 -0.09166
 O60 O 0.72200 0.01504 -0.00557
 O61 O 0.75859 0.01603 -0.00302
 O62 O 0.76175 -0.02210 -0.08935
 O63 O 0.76190 0.01940 -0.08211
 O64 O 0.76130 -0.02858 -0.01650
 Cu65 Cu 0.72054 -0.00430 -0.04857
 Cu66 Cu 0.76431 -0.00307 -0.04578
 C67 C 0.74312 -0.03779 -0.00641
 C68 C 0.74390 0.02824 -0.09336
 C69 C 0.74386 -0.02960 -0.10487
 C70 C 0.73987 0.02261 0.00970
 O71 O 0.22664 0.47837 0.54257
 O72 O 0.22417 0.52322 0.46769
 O73 O 0.22511 0.47945 0.46546
 O74 O 0.22450 0.52208 0.54504
 O75 O 0.26117 0.52366 0.54357
 O76 O 0.26178 0.48113 0.46463
 O77 O 0.26087 0.52409 0.46629
 O78 O 0.26328 0.48078 0.54160
 Cu79 Cu 0.22137 0.50064 0.50530
 Cu80 Cu 0.26542 0.50262 0.50389
 C81 C 0.24555 0.47200 0.55479
 C82 C 0.24228 0.53117 0.45415
 C83 C 0.24360 0.47289 0.45170
 C84 C 0.24279 0.53016 0.55783
 O85 O 0.27451 1.02558 0.05241
 O86 O 0.27040 0.98179 -0.02491
 O87 O 0.26881 1.02552 -0.02386
 O88 O 0.27511 0.98160 0.05188
 O89 O 0.23865 0.98046 0.05874
 O90 O 0.23251 1.02408 -0.01551
 O91 O 0.23390 0.98126 -0.01789
 O92 O 0.23826 1.02344 0.06114
 Cu93 Cu 0.27592 1.00373 0.01318
 Cu94 Cu 0.23221 1.00220 0.02246
 C95 C 0.25701 1.03210 0.06995
 C96 C 0.25137 0.97421 -0.03472
 C97 C 0.24946 1.03240 -0.03249
 C98 C 0.25777 0.97341 0.06793
 O99 O 0.77728 0.51705 0.49464
 O100 O 0.77083 0.47142 0.42022
 O101 O 0.77349 0.51539 0.41813
 O102 O 0.77604 0.47303 0.49709
 O103 O 0.73961 0.47469 0.50365
 O104 O 0.73705 0.51675 0.42476
 O105 O 0.73443 0.47329 0.42686
 O106 O 0.74080 0.51782 0.50139
 Cu107 Cu 0.77807 0.49401 0.45680
 Cu108 Cu 0.73437 0.49571 0.46468
 C109 C 0.75997 0.52535 0.51035
 C110 C 0.75140 0.46444 0.41117
 C111 C 0.75488 0.52368 0.40862
 C112 C 0.75821 0.46661 0.51381
 C113 C 0.23664 0.21675 0.22603
 C114 C 0.25902 0.21078 0.22927
 C115 C 0.27465 0.22671 0.24248
 C116 C 0.26791 0.24813 0.25505
 C117 C 0.24494 0.25313 0.25371
 C118 C 0.22934 0.23782 0.23805
 C119 C 0.28463 0.26532 0.26891
 C120 C 0.27958 0.28823 0.26706
 C121 C 0.29430 0.30451 0.28198
 C122 C 0.31513 0.29801 0.29604
 C123 C 0.32124 0.27553 0.29643
 C124 C 0.30568 0.25921 0.28412
 H125 H 0.22494 0.20500 0.21279
 H126 H 0.29198 0.22219 0.24272
 H127 H 0.23889 0.26885 0.26498
 H128 H 0.26417 0.29375 0.25404
 H129 H 0.32642 0.31046 0.30835
 H130 H 0.31019 0.24188 0.28655
 C131 C 0.77197 0.77924 0.16994
 C132 C 0.74938 0.78478 0.16855
 C133 C 0.73383 0.77069 0.18713
 C134 C 0.74071 0.75126 0.20710
 C135 C 0.76355 0.74606 0.20747
 C136 C 0.77915 0.75976 0.18842
 C137 C 0.72418 0.73626 0.22705
 C138 C 0.72807 0.71312 0.23020
 C139 C 0.71300 0.69911 0.25004
 C140 C 0.69355 0.70825 0.26577
 C141 C 0.68891 0.73099 0.26214
 C142 C 0.70448 0.74499 0.24350
 H143 H 0.78410 0.78990 0.15555
 H144 H 0.71635 0.77458 0.18479
 H145 H 0.76945 0.73149 0.22286
 H146 H 0.74264 0.70578 0.21683
 H147 H 0.68219 0.69765 0.28217
 H148 H 0.70117 0.76266 0.24201
 C149 C 0.79484 0.19595 0.21246
 C150 C 0.80061 0.21734 0.22611
 C151 C 0.78422 0.23075 0.24297
 C152 C 0.76183 0.22371 0.24433
 C153 C 0.75629 0.20206 0.23034
 C154 C 0.77286 0.18791 0.21497
 C155 C 0.74475 0.23927 0.26059
 C156 C 0.72639 0.23137 0.28262
 C157 C 0.71202 0.24646 0.30152
 C158 C 0.71598 0.26947 0.29800
 C159 C 0.73415 0.27769 0.27661
 C160 C 0.74791 0.26254 0.25683
 H161 H 0.80744 0.18575 0.19853
 H162 H 0.78917 0.24677 0.25530
 H163 H 0.73922 0.19622 0.23132
 H164 H 0.72392 0.21366 0.28700
 H165 H 0.70533 0.28107 0.31361
 H166 H 0.76147 0.26908 0.23920
 C167 C 0.19854 0.78890 0.20366
 C168 C 0.19395 0.76595 0.20361
 C169 C 0.20983 0.75127 0.21863
 C170 C 0.22973 0.75940 0.23591
 C171 C 0.23372 0.78263 0.23634
 C172 C 0.21853 0.79735 0.21932
 C173 C 0.24616 0.74383 0.25382
 C174 C 0.26892 0.74963 0.25592
 C175 C 0.28422 0.73576 0.27488
 C176 C 0.27692 0.71516 0.28958
 C177 C 0.25454 0.70865 0.28669
 C178 C 0.23918 0.72326 0.26982
 H179 H 0.18677 0.80014 0.19016
 H180 H 0.20641 0.73355 0.21694
 H181 H 0.24849 0.78956 0.25028
 H182 H 0.27497 0.76495 0.24292
 H183 H 0.28850 0.70449 0.30491
 H184 H 0.22182 0.71844 0.26948
 C185 C 0.73471 0.29294 0.71587
 C186 C 0.72753 0.27300 0.73321
 C187 C 0.74334 0.25887 0.75002
 C188 C 0.76630 0.26367 0.74747
 C189 C 0.77313 0.28385 0.72960
 C190 C 0.75734 0.29877 0.71445
 C191 C 0.78282 0.24707 0.76208
 C192 C 0.80376 0.25384 0.77738
 C193 C 0.81909 0.23791 0.79044
 C194 C 0.81304 0.21530 0.78989
 C195 C 0.79234 0.20814 0.77534
 C196 C 0.77756 0.22403 0.76071
 H197 H 0.72265 0.30358 0.70167
 H198 H 0.73756 0.24397 0.76485
 H199 H 0.79062 0.28790 0.72693
 H200 H 0.80824 0.27134 0.77919
 H201 H 0.82440 0.20320 0.80207
 H202 H 0.76205 0.21821 0.74776
 C203 C 0.27199 0.71369 0.70742
 C204 C 0.27972 0.73573 0.71003
 C205 C 0.26518 0.75240 0.72312
 C206 C 0.24345 0.74699 0.73629
 C207 C 0.23639 0.72447 0.73424
 C208 C 0.25039 0.70791 0.71906
 C209 C 0.22843 0.76462 0.75288
 C210 C 0.20503 0.76177 0.75274
 C211 C 0.19112 0.77787 0.76995
 C212 C 0.20064 0.79741 0.78578
 C213 C 0.22364 0.80102 0.78519
 C214 C 0.23744 0.78437 0.76983
 H215 H 0.28274 0.70101 0.69506
 H216 H 0.27111 0.76945 0.72323
 H217 H 0.22020 0.71944 0.74495
 H218 H 0.19737 0.74723 0.73909
 H219 H 0.19012 0.80963 0.80008
 H220 H 0.25520 0.78700 0.77147
 C221 C 0.29185 0.28986 0.72104
 C222 C 0.26936 0.29555 0.72355
 C223 C 0.25445 0.28101 0.74244
 C224 C 0.26200 0.26144 0.76089
 C225 C 0.28484 0.25643 0.75885
 C226 C 0.29969 0.27021 0.73812
 C227 C 0.24615 0.24630 0.78207
 C228 C 0.25062 0.22332 0.78536
 C229 C 0.23628 0.20909 0.80627
 C230 C 0.21660 0.21772 0.82210
 C231 C 0.21129 0.24026 0.81788
 C232 C 0.22643 0.25460 0.79911
 H233 H 0.30315 0.30048 0.70457
 H234 H 0.23702 0.28518 0.74276
 H235 H 0.29136 0.24195 0.77367
 H236 H 0.26512 0.21623 0.77137
 H237 H 0.20553 0.20699 0.83882
 H238 H 0.22257 0.27215 0.79775
 C239 C 0.69815 0.70167 0.68977
 C240 C 0.72078 0.69632 0.69133
 C241 C 0.73626 0.71279 0.70334
 C242 C 0.72911 0.73415 0.71564
 C243 C 0.70615 0.73866 0.71521
 C244 C 0.69068 0.72280 0.70127
 C245 C 0.74534 0.75177 0.72896
 C246 C 0.74042 0.77459 0.72420
 C247 C 0.75479 0.79130 0.73885
 C248 C 0.77505 0.78508 0.75582
 C249 C 0.78035 0.76256 0.76160
 C250 C 0.76532 0.74601 0.74822
 H251 H 0.68634 0.68947 0.67823
 H252 H 0.75377 0.70886 0.70313
 H253 H 0.70005 0.75449 0.72604
 H254 H 0.72531 0.77961 0.70943
 H255 H 0.78637 0.79799 0.76618
 H256 H 0.76880 0.72872 0.75434
 C257 C 0.23969 0.07256 0.14763
 C258 C 0.25845 0.08686 0.15058
 C259 C 0.27723 0.08187 0.12692
 C260 C 0.27730 0.06279 0.10236
 C261 C 0.25813 0.04934 0.09835
 C262 C 0.23947 0.05441 0.12157
 C263 C 0.29543 0.09651 0.12651
 C264 C 0.29468 0.11682 0.14673
 C265 C 0.27599 0.12278 0.16962
 C266 C 0.25852 0.10670 0.17424
 C267 C 0.24152 0.11112 0.20189
 C268 C 0.24025 0.13157 0.22113
 C269 C 0.25553 0.14850 0.21285
 C270 C 0.27386 0.14437 0.18750
 C271 C 0.28845 0.16245 0.17929
 C272 C 0.28423 0.18387 0.19409
 C273 C 0.26561 0.18783 0.21792
 C274 C 0.25196 0.16982 0.22855
 H275 H 0.22442 0.07568 0.16332
 H276 H 0.29181 0.05935 0.08433
 H277 H 0.22439 0.04443 0.11939
 H278 H 0.31000 0.09269 0.10892
 H279 H 0.30912 0.12749 0.14421
 H280 H 0.22899 0.09893 0.20954
 H281 H 0.22658 0.13448 0.24142
 H282 H 0.30252 0.16085 0.15974
 H283 H 0.29499 0.19754 0.18530
 H284 H 0.23777 0.17266 0.24774
 C285 C 0.77802 0.58045 0.55632
 C286 C 0.76041 0.58491 0.58312
 C287 C 0.74437 0.56776 0.58895
 C288 C 0.74499 0.54800 0.56636
 C289 C 0.76167 0.54453 0.53813
 C290 C 0.77860 0.56053 0.53429
 C291 C 0.72732 0.57062 0.61635
 C292 C 0.72519 0.59048 0.63728
 C293 C 0.73983 0.60866 0.63096
 C294 C 0.75775 0.60586 0.60343
 C295 C 0.77170 0.62441 0.59573
 C296 C 0.76778 0.64518 0.61294
 C297 C 0.75017 0.64827 0.63923
 C298 C 0.73646 0.62988 0.64979
 C299 C 0.71950 0.63368 0.67807
 C300 C 0.71523 0.65506 0.69247
 C301 C 0.72774 0.67345 0.67970
 C302 C 0.74575 0.66982 0.65412
 H303 H 0.79146 0.59207 0.55131
 H304 H 0.73205 0.53546 0.57004
 H305 H 0.79179 0.55811 0.51287
 H306 H 0.71519 0.55744 0.62125
 H307 H 0.71121 0.59128 0.65711
 H308 H 0.78538 0.62368 0.57519
 H309 H 0.77849 0.65909 0.60504
 H310 H 0.70904 0.62059 0.68956
 H311 H 0.70173 0.65729 0.71334
 H312 H 0.75569 0.68391 0.64433
 C313 C 0.76258 0.90446 0.01764
 C314 C 0.74610 0.89627 0.04370
 C315 C 0.72902 0.91100 0.05566
 C316 C 0.72767 0.93254 0.03918
 C317 C 0.74401 0.94010 0.01266
 C318 C 0.76156 0.92597 0.00272
 C319 C 0.71363 0.90415 0.08423
 C320 C 0.71529 0.88331 0.10209
 C321 C 0.73183 0.86800 0.09055
 C322 C 0.74655 0.87417 0.05911
 C323 C 0.76101 0.85795 0.04348
 C324 C 0.76237 0.83695 0.05997
 C325 C 0.74979 0.83140 0.09320
 C326 C 0.73425 0.84669 0.10909
 C327 C 0.72245 0.84019 0.14363
 C328 C 0.72667 0.81979 0.16219
 C329 C 0.74251 0.80511 0.14667
 C330 C 0.75327 0.81076 0.11122
 H331 H 0.77690 0.89488 0.00909
 H332 H 0.71424 0.94354 0.04755
 H333 H 0.77446 0.93141 -0.01752
 H334 H 0.70048 0.91524 0.09362
 H335 H 0.70297 0.87938 0.12422
 H336 H 0.77120 0.86085 0.01769
 H337 H 0.77391 0.82511 0.04721
 H338 H 0.71063 0.85095 0.15803
 H339 H 0.71817 0.81591 0.18965
 H340 H 0.76509 0.79930 0.09820
 C341 C 0.26988 0.43459 0.63251
 C342 C 0.25451 0.41658 0.63357
 C343 C 0.23511 0.41801 0.60966
 C344 C 0.23148 0.43679 0.58579
 C345 C 0.24741 0.45392 0.58399
 C346 C 0.26640 0.45277 0.60791
 C347 C 0.21987 0.40035 0.60856
 C348 C 0.22397 0.38075 0.62898
 C349 C 0.24341 0.37820 0.65206
 C350 C 0.25830 0.39685 0.65608
 C351 C 0.27665 0.39508 0.68205
 C352 C 0.28129 0.37530 0.70118
 C353 C 0.26796 0.35646 0.69513
 C354 C 0.24866 0.35758 0.67096
 C355 C 0.23589 0.33775 0.66580
 C356 C 0.24236 0.31777 0.68332
 C357 C 0.26168 0.31685 0.70650
 C358 C 0.27415 0.33638 0.71279
 H359 H 0.28526 0.43481 0.64892
 H360 H 0.21685 0.43748 0.56696
 H361 H 0.27893 0.46586 0.60704
 H362 H 0.20488 0.40142 0.59076
 H363 H 0.21146 0.36786 0.62611
 H364 H 0.28782 0.40877 0.68853
 H365 H 0.29580 0.37463 0.72031
 H366 H 0.22118 0.33692 0.64752
 H367 H 0.23253 0.30283 0.67779
 H368 H 0.28894 0.33587 0.73127
 C369 C 0.94578 0.22270 0.17663
 C370 C 0.92815 0.23814 0.17818
 C371 C 0.93148 0.25910 0.15969
 C372 C 0.95123 0.26374 0.13891
 C373 C 0.96754 0.24740 0.13481
 C374 C 0.96497 0.22723 0.15493
 C375 C 0.91460 0.27485 0.16008
 C376 C 0.89383 0.26969 0.17561
 C377 C 0.88913 0.24846 0.19163
 C378 C 0.90694 0.23294 0.19513
 C379 C 0.90270 0.21241 0.21408
 C380 C 0.88144 0.20636 0.22596
 C381 C 0.86355 0.22045 0.21948
 C382 C 0.86712 0.24193 0.20316
 C383 C 0.84828 0.25551 0.19732
 C384 C 0.82692 0.24770 0.20590
 C385 C 0.82351 0.22618 0.22070
 C386 C 0.84198 0.21284 0.22828
 H387 H 0.94490 0.20646 0.18996
 H388 H 0.95310 0.27937 0.12323
 H389 H 0.97749 0.21443 0.15248
 H390 H 0.91719 0.29108 0.14682
 H391 H 0.88166 0.28270 0.17407
 H392 H 0.91546 0.20040 0.21986
 H393 H 0.87889 0.19015 0.23933
 H394 H 0.84931 0.27197 0.18488
 H395 H 0.81289 0.25829 0.19950
 H396 H 0.83950 0.19629 0.24033
 C397 C 0.40184 0.78656 0.58531
 C398 C 0.39540 0.76868 0.61023
 C399 C 0.41094 0.75135 0.61593
 C400 C 0.43113 0.75120 0.59515
 C401 C 0.43658 0.76830 0.56876
 C402 C 0.42211 0.78631 0.56499
 C403 C 0.40605 0.73383 0.64142
 C404 C 0.38574 0.73260 0.66064
 C405 C 0.36916 0.74875 0.65454
 C406 C 0.37402 0.76707 0.62884
 C407 C 0.35702 0.78258 0.62123
 C408 C 0.33581 0.77989 0.63696
 C409 C 0.33074 0.76197 0.66158
 C410 C 0.34753 0.74658 0.67187
 C411 C 0.34179 0.72931 0.69846
 C412 C 0.32002 0.72649 0.71158
 C413 C 0.30315 0.74079 0.69915
 C414 C 0.30877 0.75898 0.67515
 H415 H 0.39153 0.80087 0.58048
 H416 H 0.44243 0.73738 0.59881
 H417 H 0.42604 0.79985 0.54501
 H418 H 0.41796 0.72064 0.64612
 H419 H 0.38331 0.71818 0.67900
 H420 H 0.35931 0.79664 0.60195
 H421 H 0.32314 0.79185 0.62927
 H422 H 0.35362 0.71758 0.70969
 H423 H 0.31628 0.71278 0.73132
 H424 H 0.29589 0.77030 0.66568
 C425 C 0.05355 0.76536 0.12264
 C426 C 0.07166 0.75057 0.11941
 C427 C 0.07029 0.73333 0.09029
 C428 C 0.05153 0.73131 0.06540
 C429 C 0.03447 0.74695 0.06773
 C430 C 0.03546 0.76365 0.09692
 C431 C 0.08808 0.71888 0.08492
 C432 C 0.10783 0.72205 0.10586
 C433 C 0.11039 0.73963 0.13376
 C434 C 0.09153 0.75317 0.14243
 C435 C 0.09331 0.76923 0.17322
 C436 C 0.11335 0.77344 0.19232
 C437 C 0.13239 0.76189 0.18154
 C438 C 0.13123 0.74448 0.15277
 C439 C 0.15124 0.73337 0.14313
 C440 C 0.17148 0.73988 0.16042
 C441 C 0.17243 0.75759 0.18773
 C442 C 0.15274 0.76813 0.19884
 H443 H 0.05328 0.77918 0.14326
 H444 H 0.05091 0.71850 0.04246
 H445 H 0.02237 0.77589 0.09920
 H446 H 0.08704 0.70545 0.06319
 H447 H 0.12087 0.71041 0.09939
 H448 H 0.07944 0.77893 0.18340
 H449 H 0.11405 0.78634 0.21509
 H450 H 0.15200 0.72012 0.12137
 H451 H 0.18655 0.73155 0.15132
 H452 H 0.15336 0.78161 0.22053
 C453 C 0.58448 0.28178 0.67145
 C454 C 0.59974 0.26441 0.67848
 C455 C 0.59406 0.24277 0.66411
 C456 C 0.57427 0.23907 0.64261
 C457 C 0.56017 0.25681 0.63369
 C458 C 0.56518 0.27801 0.64921
 C459 C 0.60862 0.22512 0.66966
 C460 C 0.62947 0.22871 0.68649
 C461 C 0.63652 0.25020 0.69888
 C462 C 0.62091 0.26803 0.69714
 C463 C 0.62724 0.28902 0.71304
 C464 C 0.64869 0.29307 0.72675
 C465 C 0.66473 0.27649 0.72491
 C466 C 0.65884 0.25466 0.71186
 C467 C 0.67591 0.23856 0.71032
 C468 C 0.69793 0.24431 0.71920
 C469 C 0.70374 0.26617 0.73032
 C470 C 0.68686 0.28194 0.73454
 H471 H 0.58740 0.29874 0.68100
 H472 H 0.57060 0.22259 0.63063
 H473 H 0.55450 0.29200 0.64299
 H474 H 0.60418 0.20844 0.65957
 H475 H 0.63978 0.21422 0.68911
 H476 H 0.61600 0.30284 0.71507
 H477 H 0.65296 0.30964 0.73762
 H478 H 0.67306 0.22163 0.70052
 H479 H 0.71063 0.23180 0.71534
 H480 H 0.69111 0.29882 0.74383
 C481 C 0.72812 0.08097 0.85644
 C482 C 0.74896 0.08882 0.84244
 C483 C 0.76733 0.07435 0.84587
 C484 C 0.76528 0.05409 0.86604
 C485 C 0.74490 0.04723 0.88240
 C486 C 0.72614 0.06045 0.87578
 C487 C 0.78791 0.08039 0.83025
 C488 C 0.79104 0.10091 0.81240
 C489 C 0.77376 0.11663 0.81054
 C490 C 0.75240 0.11060 0.82610
 C491 C 0.73566 0.12694 0.82694
 C492 C 0.73990 0.14869 0.81481
 C493 C 0.76072 0.15487 0.80015
 C494 C 0.77758 0.13867 0.79592
 C495 C 0.79787 0.14547 0.77836
 C496 C 0.80204 0.16778 0.76961
 C497 C 0.78614 0.18412 0.77758
 C498 C 0.76510 0.17738 0.79116
 H499 H 0.71304 0.09034 0.85306
 H500 H 0.77988 0.04380 0.86951
 H501 H 0.71002 0.05547 0.88712
 H502 H 0.80194 0.06925 0.83240
 H503 H 0.80765 0.10436 0.80217
 H504 H 0.71933 0.12375 0.83878
 H505 H 0.72683 0.16091 0.81763
 H506 H 0.81100 0.13401 0.77132
 H507 H 0.81808 0.17239 0.75747
 H508 H 0.75253 0.18981 0.79694
 C509 C 0.26182 0.56937 0.37305
 C510 C 0.24571 0.58641 0.37348
 C511 C 0.22737 0.58396 0.39959
 C512 C 0.22547 0.56516 0.42414
 C513 C 0.24218 0.54908 0.42445
 C514 C 0.26012 0.55121 0.39836
 C515 C 0.21150 0.60070 0.40222
 C516 C 0.21406 0.62045 0.38131
 C517 C 0.23250 0.62406 0.35617
 C518 C 0.24785 0.60624 0.35046
 C519 C 0.26508 0.60897 0.32247
 C520 C 0.26845 0.62906 0.30329
 C521 C 0.25487 0.64721 0.31118
 C522 C 0.23641 0.64499 0.33706
 C523 C 0.22324 0.66413 0.34382
 C524 C 0.22873 0.68460 0.32665
 C525 C 0.24741 0.68668 0.30221
 C526 C 0.26006 0.66777 0.29388
 H527 H 0.27652 0.56997 0.35489
 H528 H 0.21166 0.56370 0.44465
 H529 H 0.27321 0.53892 0.39806
 H530 H 0.19729 0.59884 0.42171
 H531 H 0.20124 0.63264 0.38556
 H532 H 0.27635 0.59584 0.31455
 H533 H 0.28223 0.63053 0.28273
 H534 H 0.20903 0.66408 0.36322
 H535 H 0.21876 0.69905 0.33366
 H536 H 0.27433 0.66921 0.27439
 C537 C 0.22706 0.93834 0.88350
 C538 C 0.24250 0.92073 0.88062
 C539 C 0.26160 0.92171 0.90541
 C540 C 0.26515 0.93994 0.93125
 C541 C 0.24926 0.95673 0.93455
 C542 C 0.23034 0.95585 0.91038
 C543 C 0.27658 0.90411 0.90540
 C544 C 0.27231 0.88486 0.88325
 C545 C 0.25315 0.88281 0.85914
 C546 C 0.23893 0.90167 0.85563
 C547 C 0.22148 0.90077 0.82755
 C548 C 0.21677 0.88142 0.80625
 C549 C 0.22896 0.86214 0.81260
 C550 C 0.24749 0.86250 0.83874
 C551 C 0.25885 0.84220 0.84476
 C552 C 0.25157 0.82239 0.82654
 C553 C 0.23294 0.82220 0.80150
 C554 C 0.22220 0.84231 0.79374
 H555 H 0.21173 0.93853 0.86691
 H556 H 0.27965 0.94040 0.95048
 H557 H 0.21782 0.96867 0.91268
 H558 H 0.29138 0.90487 0.92384
 H559 H 0.28451 0.87188 0.88532
 H560 H 0.21123 0.91492 0.82103
 H561 H 0.20294 0.88136 0.78553
 H562 H 0.27277 0.84085 0.86479
 H563 H 0.26004 0.80703 0.83334
 H564 H 0.20801 0.84239 0.77379
 C565 C 0.72303 0.42035 0.34745
 C566 C 0.74041 0.40527 0.33913
 C567 C 0.76212 0.41129 0.35217
 C568 C 0.76591 0.43122 0.37369
 C569 C 0.74823 0.44527 0.38352
 C570 C 0.72692 0.43985 0.36939
 C571 C 0.77984 0.39702 0.34493
 C572 C 0.77639 0.37629 0.32710
 C573 C 0.75492 0.36894 0.31553
 C574 C 0.73681 0.38407 0.32002
 C575 C 0.71557 0.37724 0.30631
 C576 C 0.71172 0.35582 0.29180
 C577 C 0.72880 0.34032 0.29016
 C578 C 0.75079 0.34675 0.30085
 C579 C 0.76748 0.33029 0.29809
 C580 C 0.76219 0.30824 0.28785
 C581 C 0.74020 0.30177 0.27963
 C582 C 0.72375 0.31815 0.27935
 H583 H 0.70604 0.41731 0.33871
 H584 H 0.78250 0.43523 0.38443
 H585 H 0.71295 0.45048 0.37616
 H586 H 0.79654 0.40166 0.35419
 H587 H 0.79097 0.36625 0.32329
 H588 H 0.70135 0.38797 0.30684
 H589 H 0.69498 0.35114 0.28282
 H590 H 0.78466 0.33361 0.30522
 H591 H 0.77526 0.29594 0.28853
 H592 H 0.70673 0.31341 0.27234
 C593 C 0.07524 0.23364 0.91365
 C594 C 0.09125 0.25087 0.90999
 C595 C 0.08887 0.27016 0.93424
 C596 C 0.07071 0.27211 0.96040
 C597 C 0.05568 0.25423 0.96520
 C598 C 0.05808 0.23521 0.94102
 C599 C 0.10524 0.28684 0.93361
 C600 C 0.12464 0.28405 0.91167
 C601 C 0.12800 0.26475 0.88815
 C602 C 0.11025 0.24881 0.88498
 C603 C 0.11222 0.23109 0.85741
 C604 C 0.13180 0.22757 0.83688
 C605 C 0.15019 0.24142 0.84323
 C606 C 0.14857 0.26051 0.86823
 C607 C 0.16798 0.27382 0.87365
 C608 C 0.18821 0.26775 0.85631
 C609 C 0.18967 0.24838 0.83296
 C610 C 0.17041 0.23577 0.82553
 H611 H 0.07621 0.21808 0.89753
 H612 H 0.06930 0.28686 0.97909
 H613 H 0.04676 0.22112 0.94354
 H614 H 0.10349 0.30178 0.95165
 H615 H 0.13673 0.29740 0.91355
 H616 H 0.09877 0.21963 0.85082
 H617 H 0.13276 0.21338 0.81679
 H618 H 0.16831 0.28845 0.89247
 H619 H 0.20293 0.27775 0.86248
 H620 H 0.17135 0.22100 0.80679
 C621 C 0.55451 0.73011 0.37028
 C622 C 0.57152 0.74627 0.36484
 C623 C 0.57022 0.76644 0.38701
 C624 C 0.55211 0.77037 0.41243
 C625 C 0.53564 0.75398 0.41776
 C626 C 0.53704 0.73391 0.39650
 C627 C 0.58727 0.78230 0.38447
 C628 C 0.60615 0.77817 0.36189
 C629 C 0.60840 0.75818 0.33982
 C630 C 0.59019 0.74264 0.33946
 C631 C 0.59121 0.72397 0.31376
 C632 C 0.61006 0.71961 0.29155
 C633 C 0.62874 0.73342 0.29448
 C634 C 0.62824 0.75305 0.31826
 C635 C 0.64797 0.76616 0.32057
 C636 C 0.66743 0.75950 0.30125
 C637 C 0.66783 0.73974 0.27878
 C638 C 0.64816 0.72725 0.27452
 H639 H 0.55463 0.71399 0.35594
 H640 H 0.55131 0.78582 0.42935
 H641 H 0.52455 0.72096 0.40029
 H642 H 0.58631 0.79785 0.40103
 H643 H 0.61866 0.79115 0.36191
 H644 H 0.57751 0.71246 0.30970
 H645 H 0.61021 0.70485 0.27269
 H646 H 0.64921 0.78112 0.33844
 H647 H 0.68244 0.76939 0.30528
 H648 H 0.64817 0.71216 0.25651
 C649 C 0.90613 0.77971 0.89687
 C650 C 0.89468 0.76135 0.87987
 C651 C 0.90574 0.74064 0.87776
 C652 C 0.92638 0.73794 0.89696
 C653 C 0.93690 0.75611 0.91629
 C654 C 0.92688 0.77716 0.91429
 C655 C 0.89597 0.72286 0.85676
 C656 C 0.87563 0.72539 0.83736
 C657 C 0.86362 0.74546 0.84048
 C658 C 0.87276 0.76313 0.86429
 C659 C 0.85941 0.78168 0.87330
 C660 C 0.83823 0.78355 0.85765
 C661 C 0.82994 0.76756 0.83111
 C662 C 0.84255 0.74843 0.82149
 C663 C 0.83376 0.73351 0.79247
 C664 C 0.81351 0.73782 0.77341
 C665 C 0.80111 0.75676 0.78341
 C666 C 0.80919 0.77099 0.81354
 H667 H 0.89961 0.79641 0.89641
 H668 H 0.93417 0.72170 0.89688
 H669 H 0.93465 0.79178 0.92766
 H670 H 0.90431 0.70695 0.85472
 H671 H 0.86918 0.71100 0.82154
 H672 H 0.86462 0.79465 0.89379
 H673 H 0.82849 0.79804 0.86555
 H674 H 0.84268 0.71899 0.78253
 H675 H 0.80792 0.72660 0.75000
 H676 H 0.79953 0.78523 0.82299
 C677 C 0.43392 0.22464 0.44497
 C678 C 0.42950 0.24222 0.41829
 C679 C 0.44588 0.25927 0.41472
 C680 C 0.46475 0.25958 0.43940
 C681 C 0.46810 0.24281 0.46740
 C682 C 0.45292 0.22498 0.46902
 C683 C 0.44309 0.27631 0.38736
 C684 C 0.42409 0.27728 0.36405
 C685 C 0.40668 0.26147 0.36789
 C686 C 0.40930 0.24378 0.39578
 C687 C 0.39122 0.22896 0.40170
 C688 C 0.37105 0.23175 0.38217
 C689 C 0.36821 0.24896 0.35505
 C690 C 0.38627 0.26348 0.34628
 C691 C 0.38294 0.27978 0.31676
 C692 C 0.36211 0.28280 0.29961
 C693 C 0.34382 0.26967 0.31084
 C694 C 0.34719 0.25218 0.33753
 H695 H 0.42298 0.21044 0.44818
 H696 H 0.47665 0.27323 0.43738
 H697 H 0.45527 0.21166 0.49011
 H698 H 0.45564 0.28928 0.38428
 H699 H 0.42316 0.29135 0.34448
 H700 H 0.39178 0.21552 0.42270
 H701 H 0.35741 0.22044 0.38877
 H702 H 0.39605 0.29056 0.30628
 H703 H 0.36018 0.29585 0.27783
 H704 H 0.33324 0.24171 0.34611
 C705 C 0.76763 0.93133 0.81772
 C706 C 0.74971 0.91636 0.81023
 C707 C 0.72906 0.92100 0.82866
 C708 C 0.72681 0.93956 0.85414
 C709 C 0.74511 0.95339 0.86301
 C710 C 0.76534 0.94936 0.84386
 C711 C 0.71100 0.90656 0.82296
 C712 C 0.71334 0.88672 0.80179
 C713 C 0.73391 0.88063 0.78497
 C714 C 0.75196 0.89634 0.78708
 C715 C 0.77186 0.89117 0.76698
 C716 C 0.77489 0.87051 0.74901
 C717 C 0.75833 0.85412 0.75053
 C718 C 0.73735 0.85907 0.76740
 C719 C 0.72120 0.84171 0.76815
 C720 C 0.72641 0.82006 0.75587
 C721 C 0.74769 0.81498 0.74185
 C722 C 0.76314 0.83243 0.73721
 H723 H 0.78395 0.92906 0.80539
 H724 H 0.71109 0.94244 0.86893
 H725 H 0.77973 0.95984 0.84999
 H726 H 0.69504 0.91023 0.83626
 H727 H 0.69866 0.87637 0.79946
 H728 H 0.78562 0.90272 0.76493
 H729 H 0.79075 0.86702 0.73519
 H730 H 0.70480 0.84392 0.78024
 H731 H 0.71413 0.80696 0.75996
 H732 H 0.77951 0.82882 0.72553
 C733 C 0.22808 0.42135 0.39216
 C734 C 0.24796 0.41690 0.37110
 C735 C 0.26533 0.43301 0.37368
 C736 C 0.26337 0.45172 0.39866
 C737 C 0.24420 0.45497 0.42139
 C738 C 0.22632 0.44008 0.41688
 C739 C 0.28493 0.43003 0.35247
 C740 C 0.28840 0.41071 0.33055
 C741 C 0.27242 0.39330 0.32950
 C742 C 0.25159 0.39670 0.34914
 C743 C 0.23558 0.37933 0.34789
 C744 C 0.24033 0.35876 0.33096
 C745 C 0.26103 0.35473 0.31405
 C746 C 0.27705 0.37216 0.31142
 C747 C 0.29749 0.36725 0.29259
 C748 C 0.30251 0.34554 0.28070
 C749 C 0.28732 0.32806 0.28665
 C750 C 0.26620 0.33300 0.30158
 H751 H 0.21373 0.41049 0.39102
 H752 H 0.27713 0.46347 0.40133
 H753 H 0.21120 0.44239 0.43378
 H754 H 0.29806 0.44254 0.35369
 H755 H 0.30423 0.40966 0.31590
 H756 H 0.21938 0.38074 0.36112
 H757 H 0.22786 0.34561 0.33227
 H758 H 0.31027 0.37957 0.28761
 H759 H 0.31869 0.34227 0.26798
 H760 H 0.25424 0.31962 0.30619
 C761 C 0.22175 0.07355 0.90263
 C762 C 0.23984 0.08648 0.88870
 C763 C 0.26154 0.08033 0.90062
 C764 C 0.26480 0.06166 0.92492
 C765 C 0.24657 0.04954 0.93981
 C766 C 0.22509 0.05563 0.92792
 C767 C 0.27981 0.09333 0.88944
 C768 C 0.27689 0.11319 0.86910
 C769 C 0.25551 0.12045 0.85804
 C770 C 0.23694 0.10602 0.86533
 C771 C 0.21603 0.11177 0.84955
 C772 C 0.21283 0.13203 0.83094
 C773 C 0.23020 0.14746 0.82794
 C774 C 0.25191 0.14184 0.84073
 C775 C 0.26877 0.15838 0.83774
 C776 C 0.26389 0.17986 0.82472
 C777 C 0.24219 0.18548 0.81369
 C778 C 0.22567 0.16886 0.81377
 H779 H 0.20469 0.07747 0.89617
 H780 H 0.28154 0.05736 0.93388
 H781 H 0.21057 0.04668 0.93857
 H782 H 0.29650 0.08857 0.89783
 H783 H 0.29179 0.12247 0.86220
 H784 H 0.20173 0.10085 0.85097
 H785 H 0.19634 0.13600 0.82021
 H786 H 0.28562 0.15568 0.84733
 H787 H 0.27696 0.19241 0.82527
 H788 H 0.20893 0.17288 0.80444
 C789 C 0.77160 0.57472 0.34996
 C790 C 0.75097 0.58214 0.33486
 C791 C 0.73211 0.56817 0.34065
 C792 C 0.73368 0.54866 0.36327
 C793 C 0.75396 0.54237 0.38015
 C794 C 0.77299 0.55519 0.37221
 C795 C 0.71157 0.57404 0.32489
 C796 C 0.70901 0.59390 0.30462
 C797 C 0.72690 0.60908 0.29995
 C798 C 0.74825 0.60311 0.31529
 C799 C 0.76586 0.61876 0.31228
 C800 C 0.76257 0.63983 0.29655
 C801 C 0.74178 0.64607 0.28231
 C802 C 0.72386 0.63051 0.28231
 C803 C 0.70341 0.63738 0.26571
 C804 C 0.70041 0.65928 0.25328
 C805 C 0.71763 0.67508 0.25645
 C806 C 0.73858 0.66810 0.26947
 H807 H 0.78697 0.58371 0.34557
 H808 H 0.71891 0.53863 0.36862
 H809 H 0.78895 0.55059 0.38450
 H810 H 0.69715 0.56330 0.32887
 H811 H 0.69242 0.59723 0.29434
 H812 H 0.78233 0.61560 0.32333
 H813 H 0.77641 0.65155 0.29623
 H814 H 0.68926 0.62640 0.26236
 H815 H 0.68427 0.66404 0.24201
 H816 H 0.75210 0.68014 0.27175
 C817 C 0.06290 0.72735 0.87013
 C818 C 0.07236 0.74745 0.85589
 C819 C 0.06070 0.76745 0.86353
 C820 C 0.04179 0.76745 0.88792
 C821 C 0.03353 0.74757 0.90433
 C822 C 0.04377 0.72745 0.89366
 C823 C 0.06829 0.78753 0.84777
 C824 C 0.08770 0.78844 0.82564
 C825 C 0.10080 0.76931 0.81949
 C826 C 0.09316 0.74851 0.83526
 C827 C 0.10719 0.72982 0.83205
 C828 C 0.12836 0.73162 0.81583
 C829 C 0.13614 0.75185 0.80087
 C830 C 0.12203 0.77065 0.80049
 C831 C 0.13013 0.79029 0.78230
 C832 C 0.15213 0.79195 0.76966
 C833 C 0.16677 0.77413 0.77434
 C834 C 0.15834 0.75371 0.78802
 H835 H 0.06990 0.71125 0.86367
 H836 H 0.03374 0.78314 0.89462
 H837 H 0.03758 0.71168 0.90486
 H838 H 0.05929 0.80284 0.85309
 H839 H 0.09260 0.80476 0.81558
 H840 H 0.10276 0.71375 0.84387
 H841 H 0.13894 0.71708 0.81574
 H842 H 0.12001 0.80479 0.77791
 H843 H 0.15797 0.80761 0.75752
 H844 H 0.16941 0.73967 0.79120
 C845 C 0.60384 0.26179 0.47418
 C846 C 0.60962 0.24478 0.44691
 C847 C 0.59322 0.22853 0.43683
 C848 C 0.57241 0.22848 0.45617
 C849 C 0.56724 0.24541 0.48353
 C850 C 0.58300 0.26212 0.49178
 C851 C 0.59764 0.21277 0.40711
 C852 C 0.61761 0.21341 0.38609
 C853 C 0.63444 0.22920 0.39549
 C854 C 0.63085 0.24405 0.42827
 C855 C 0.64867 0.25759 0.44174
 C856 C 0.66865 0.25831 0.42154
 C857 C 0.67152 0.24592 0.38679
 C858 C 0.65470 0.23092 0.37330
 C859 C 0.65857 0.21915 0.33723
 C860 C 0.67776 0.22322 0.31467
 C861 C 0.69369 0.23884 0.32767
 C862 C 0.69089 0.24924 0.36467
 H863 H 0.61480 0.27555 0.48150
 H864 H 0.56010 0.21570 0.44921
 H865 H 0.57932 0.27542 0.51270
 H866 H 0.58527 0.20023 0.39916
 H867 H 0.61962 0.20098 0.36307
 H868 H 0.64778 0.26763 0.46842
 H869 H 0.68174 0.26932 0.43251
 H870 H 0.64656 0.20762 0.32466
 H871 H 0.67961 0.21497 0.28612
 H872 H 0.70344 0.26097 0.37535
 C873 C 0.92895 0.28004 0.95605
 C874 C 0.92469 0.26411 0.92552
 C875 C 0.94076 0.24727 0.91936
 C876 C 0.95925 0.24558 0.94467
 C877 C 0.96270 0.26097 0.97559
 C878 C 0.94774 0.27851 0.98044
 C879 C 0.93819 0.23195 0.88832
 C880 C 0.91983 0.23265 0.86339
 C881 C 0.90282 0.24841 0.86920
 C882 C 0.90503 0.26411 0.90129
 C883 C 0.88710 0.27854 0.90917
 C884 C 0.86742 0.27718 0.88740
 C885 C 0.86503 0.26196 0.85605
 C886 C 0.88308 0.24810 0.84535
 C887 C 0.88038 0.23403 0.81169
 C888 C 0.85992 0.23202 0.79250
 C889 C 0.84151 0.24409 0.80566
 C890 C 0.84440 0.25985 0.83629
 H891 H 0.91819 0.29397 0.96167
 H892 H 0.97107 0.23225 0.94022
 H893 H 0.95025 0.29075 1.00392
 H894 H 0.95049 0.21913 0.88334
 H895 H 0.91901 0.21983 0.84081
 H896 H 0.88734 0.29043 0.93335
 H897 H 0.85380 0.28798 0.89558
 H898 H 0.89365 0.22414 0.79965
 H899 H 0.85823 0.22028 0.76797
 H900 H 0.83029 0.26948 0.84629
 C901 C 0.42180 0.72975 0.36593
 C902 C 0.40686 0.74700 0.35643
 C903 C 0.41090 0.76841 0.37340
 C904 C 0.42904 0.77209 0.39914
 C905 C 0.44289 0.75447 0.40977
 C906 C 0.43934 0.73345 0.39236
 C907 C 0.39630 0.78580 0.36594
 C908 C 0.37686 0.78208 0.34444
 C909 C 0.37142 0.76075 0.32892
 C910 C 0.38739 0.74336 0.33268
 C911 C 0.38306 0.72275 0.31346
 C912 C 0.36287 0.71843 0.29482
 C913 C 0.34618 0.73436 0.29479
 C914 C 0.35032 0.75597 0.31084
 C915 C 0.33267 0.77142 0.31016
 C916 C 0.31158 0.76515 0.29645
 C917 C 0.30738 0.74342 0.28257
 C918 C 0.32503 0.72842 0.28031
 H919 H 0.41986 0.71291 0.35502
 H920 H 0.43160 0.78840 0.41268
 H921 H 0.44992 0.71959 0.39990
 H922 H 0.39951 0.80232 0.37813
 H923 H 0.36631 0.79632 0.34067
 H924 H 0.39495 0.70945 0.31246
 H925 H 0.36001 0.70210 0.28157
 H926 H 0.33423 0.78813 0.32188
 H927 H 0.29821 0.77705 0.29877
 H928 H 0.32204 0.71169 0.26889
 C929 C 0.27720 0.92093 0.11820
 C930 C 0.25848 0.91509 0.14164
 C931 C 0.24087 0.93059 0.14387
 C932 C 0.24151 0.95024 0.12166
 C933 C 0.25939 0.95490 0.09641
 C934 C 0.27756 0.94053 0.09594
 C935 C 0.22221 0.92606 0.16695
 C936 C 0.21971 0.90567 0.18555
 C937 C 0.23582 0.88885 0.18156
 C938 C 0.25607 0.89405 0.16111
 C939 C 0.27278 0.87771 0.15951
 C940 C 0.26917 0.85643 0.17422
 C941 C 0.24880 0.85053 0.19099
 C942 C 0.23202 0.86676 0.19595
 C943 C 0.21163 0.85979 0.21311
 C944 C 0.20771 0.83748 0.22239
 C945 C 0.22396 0.82140 0.21548
 C946 C 0.24478 0.82819 0.20118
 H947 H 0.29147 0.91037 0.11510
 H948 H 0.22753 0.96151 0.12274
 H949 H 0.29163 0.94386 0.07679
 H950 H 0.20899 0.93814 0.16961
 H951 H 0.20464 0.90350 0.20231
 H952 H 0.28881 0.88070 0.14633
 H953 H 0.28223 0.84421 0.17114
 H954 H 0.19798 0.87089 0.21833
 H955 H 0.19162 0.83266 0.23409
 H956 H 0.25744 0.81580 0.19557
 C957 C 0.74114 0.43084 0.60073
 C958 C 0.75797 0.41451 0.60193
 C959 C 0.77532 0.41601 0.57358
 C960 C 0.77589 0.43356 0.54602
 C961 C 0.75882 0.44932 0.54493
 C962 C 0.74155 0.44777 0.57256
 C963 C 0.79168 0.39968 0.57221
 C964 C 0.79071 0.38130 0.59714
 C965 C 0.77355 0.37880 0.62537
 C966 C 0.75765 0.39631 0.62921
 C967 C 0.74189 0.39502 0.66013
 C968 C 0.74054 0.37654 0.68451
 C969 C 0.75461 0.35848 0.67888
 C970 C 0.77153 0.35932 0.64966
 C971 C 0.78508 0.34023 0.64509
 C972 C 0.78122 0.32094 0.66737
 C973 C 0.76392 0.32007 0.69511
 C974 C 0.75126 0.33925 0.70161
 H975 H 0.72693 0.43058 0.62015
 H976 H 0.78916 0.43442 0.52431
 H977 H 0.72811 0.45967 0.57224
 H978 H 0.80512 0.40082 0.55087
 H979 H 0.80385 0.36937 0.59381
 H980 H 0.73038 0.40820 0.66657
 H981 H 0.72788 0.37615 0.70740
 H982 H 0.79816 0.33929 0.62336
 H983 H 0.79116 0.30632 0.66151
 H984 H 0.73808 0.33890 0.72354
 C985 C 0.72033 0.07250 0.06922
 C986 C 0.73937 0.07830 0.09208
 C987 C 0.75763 0.06351 0.09079
 C988 C 0.75742 0.04492 0.06500
 C989 C 0.73894 0.04024 0.04080
 C990 C 0.72018 0.05379 0.04414
 C991 C 0.77628 0.06764 0.11444
 C992 C 0.77755 0.08641 0.13880
 C993 C 0.76035 0.10228 0.13972
 C994 C 0.74109 0.09836 0.11548
 C995 C 0.72476 0.11511 0.11392
 C996 C 0.72742 0.13525 0.13431
 C997 C 0.74606 0.13930 0.15810
 C998 C 0.76232 0.12251 0.16249
 C999 C 0.78015 0.12689 0.18901
 C1000 C 0.78274 0.14770 0.20731
 C1001 C 0.76771 0.16494 0.20015
 C1002 C 0.74890 0.16033 0.17663
 H1003 H 0.70530 0.08212 0.06989
 H1004 H 0.77188 0.03431 0.06318
 H1005 H 0.70557 0.05042 0.02611
 H1006 H 0.79023 0.05632 0.11381
 H1007 H 0.79281 0.08848 0.15527
 H1008 H 0.71007 0.11360 0.09568
 H1009 H 0.71480 0.14790 0.13106
 H1010 H 0.79244 0.11463 0.19627
 H1011 H 0.79692 0.15046 0.22672
 H1012 H 0.73697 0.17340 0.17121
 C1013 C 0.26317 0.56943 0.63848
 C1014 C 0.24507 0.58411 0.64325
 C1015 C 0.22554 0.57975 0.62066
 C1016 C 0.22439 0.56135 0.59454
 C1017 C 0.24287 0.54765 0.58896
 C1018 C 0.26208 0.55167 0.61152
 C1019 C 0.20762 0.59428 0.62300
 C1020 C 0.20925 0.61400 0.64484
 C1021 C 0.22881 0.61969 0.66605
 C1022 C 0.24628 0.60371 0.66766
 C1023 C 0.26464 0.60813 0.69279
 C1024 C 0.26718 0.62856 0.71193
 C1025 C 0.25168 0.64537 0.70650
 C1026 C 0.23191 0.64108 0.68456
 C1027 C 0.21684 0.65890 0.67988
 C1028 C 0.22217 0.68037 0.69361
 C1029 C 0.24243 0.68467 0.71285
 C1030 C 0.25651 0.66683 0.72109
 H1031 H 0.27883 0.57179 0.65360
 H1032 H 0.20951 0.55845 0.57690
 H1033 H 0.27656 0.54126 0.60781
 H1034 H 0.19247 0.59082 0.60644
 H1035 H 0.19486 0.62455 0.64440
 H1036 H 0.27749 0.59612 0.69810
 H1037 H 0.28198 0.63155 0.72974
 H1038 H 0.20146 0.65718 0.66365
 H1039 H 0.21101 0.69391 0.68692
 H1040 H 0.27202 0.66998 0.73675
 C1041 C 0.91939 0.77395 0.11428
 C1042 C 0.90417 0.75606 0.11963
 C1043 C 0.90894 0.73549 0.10046
 C1044 C 0.92779 0.73337 0.07609
 C1045 C 0.94191 0.75168 0.06939
 C1046 C 0.93778 0.77176 0.08945
 C1047 C 0.89443 0.71738 0.10445
 C1048 C 0.87450 0.71956 0.12483
 C1049 C 0.86830 0.74005 0.14236
 C1050 C 0.88390 0.75824 0.14151
 C1051 C 0.87838 0.77824 0.16146
 C1052 C 0.85758 0.78120 0.17826
 C1053 C 0.84147 0.76439 0.17605
 C1054 C 0.84673 0.74329 0.15936
 C1055 C 0.82968 0.72679 0.15850
 C1056 C 0.80806 0.73173 0.17065
 C1057 C 0.80274 0.75312 0.18435
 C1058 C 0.81979 0.76902 0.18874
 H1059 H 0.91720 0.79017 0.12755
 H1060 H 0.93082 0.71772 0.06075
 H1061 H 0.94851 0.78614 0.08515
 H1062 H 0.89818 0.70149 0.09052
 H1063 H 0.86413 0.70484 0.12577
 H1064 H 0.88967 0.79221 0.16413
 H1065 H 0.85382 0.79715 0.19193
 H1066 H 0.83216 0.71022 0.14689
 H1067 H 0.79516 0.71914 0.16701
 H1068 H 0.81586 0.78550 0.20008
 C1069 C 0.44108 0.28040 0.66515
 C1070 C 0.42567 0.26291 0.67234
 C1071 C 0.43080 0.24138 0.65730
 C1072 C 0.45037 0.23785 0.63541
 C1073 C 0.46476 0.25567 0.62692
 C1074 C 0.46013 0.27680 0.64265
 C1075 C 0.41598 0.22368 0.66288
 C1076 C 0.39552 0.22706 0.68088
 C1077 C 0.38911 0.24840 0.69449
 C1078 C 0.40493 0.26633 0.69210
 C1079 C 0.39925 0.28722 0.70866
 C1080 C 0.37821 0.29109 0.72377
 C1081 C 0.36198 0.27438 0.72305
 C1082 C 0.36725 0.25262 0.70940
 C1083 C 0.35002 0.23632 0.70956
 C1084 C 0.32839 0.24184 0.72066
 C1085 C 0.32318 0.26365 0.73223
 C1086 C 0.34026 0.27963 0.73466
 H1087 H 0.43856 0.29730 0.67503
 H1088 H 0.45379 0.22144 0.62321
 H1089 H 0.47107 0.29084 0.63680
 H1090 H 0.41995 0.20710 0.65207
 H1091 H 0.38498 0.21253 0.68341
 H1092 H 0.41067 0.30113 0.71018
 H1093 H 0.37442 0.30761 0.73509
 H1094 H 0.35243 0.21938 0.69976
 H1095 H 0.31545 0.22920 0.71838
 H1096 H 0.33645 0.29646 0.74434
 C1097 C 0.08867 0.22254 0.16060
 C1098 C 0.10346 0.24064 0.16819
 C1099 C 0.09765 0.26180 0.15307
 C1100 C 0.07774 0.26457 0.13178
 C1101 C 0.06363 0.24634 0.12365
 C1102 C 0.06923 0.22539 0.13849
 C1103 C 0.11202 0.27999 0.15824
 C1104 C 0.13266 0.27746 0.17617
 C1105 C 0.13958 0.25659 0.19055
 C1106 C 0.12420 0.23824 0.18866
 C1107 C 0.13014 0.21807 0.20701
 C1108 C 0.15102 0.21530 0.22379
 C1109 C 0.16695 0.23231 0.22237
 C1110 C 0.16148 0.25332 0.20624
 C1111 C 0.17852 0.26978 0.20482
 C1112 C 0.20021 0.26509 0.21699
 C1113 C 0.20566 0.24401 0.23153
 C1114 C 0.18863 0.22804 0.23566
 H1115 H 0.09204 0.20578 0.16994
 H1116 H 0.07372 0.28083 0.12004
 H1117 H 0.05868 0.21100 0.13252
 H1118 H 0.10753 0.29629 0.14725
 H1119 H 0.14280 0.29231 0.17858
 H1120 H 0.11889 0.20404 0.20913
 H1121 H 0.15497 0.19935 0.23686
 H1122 H 0.17596 0.28610 0.19259
 H1123 H 0.21299 0.27773 0.21306
 H1124 H 0.19246 0.21182 0.24774
 C1125 C 0.56840 0.78362 0.60006
 C1126 C 0.57403 0.76450 0.62237
 C1127 C 0.55801 0.74705 0.62446
 C1128 C 0.53819 0.74806 0.60256
 C1129 C 0.53382 0.76624 0.57797
 C1130 C 0.54864 0.78436 0.57818
 C1131 C 0.56222 0.72817 0.64697
 C1132 C 0.58262 0.72537 0.66539
 C1133 C 0.59988 0.74134 0.66157
 C1134 C 0.59525 0.76161 0.64098
 C1135 C 0.61235 0.77782 0.63809
 C1136 C 0.63362 0.77377 0.65216
 C1137 C 0.63875 0.75355 0.66993
 C1138 C 0.62186 0.73729 0.67610
 C1139 C 0.62802 0.71722 0.69496
 C1140 C 0.65014 0.71300 0.70465
 C1141 C 0.66689 0.72861 0.69628
 C1142 C 0.66093 0.74918 0.68013
 H1143 H 0.57918 0.79798 0.59771
 H1144 H 0.52659 0.73411 0.60320
 H1145 H 0.54554 0.79873 0.55974
 H1146 H 0.54980 0.71502 0.64941
 H1147 H 0.58449 0.71009 0.68154
 H1148 H 0.61004 0.79369 0.62404
 H1149 H 0.64639 0.78643 0.64804
 H1150 H 0.61633 0.70411 0.70176
 H1151 H 0.65422 0.69720 0.71808
 H1152 H 0.67376 0.76140 0.67341
   
