data_POSCAR
  _audit_creation_date              2014-09-24
  _audit_creation_method            'ToBaCCo'
  _symmetry_space_group_name_H-M    'P1'
  _symmetry_Int_Tables_number       1
  _symmetry_cell_setting            triclinic
  loop_
  _symmetry_equiv_pos_as_xyz
 x,y,z
_cell_length_a 34.6693
_cell_length_b 34.6466
_cell_length_c 34.6920
_cell_angle_alpha 89.962200
_cell_angle_beta 90.000400
_cell_angle_gamma 89.924400
loop_
  _atom_site_label
  _atom_site_type_symbol
  _atom_site_fract_x
  _atom_site_fract_y
  _atom_site_fract_z
O1 O 0.28207 1.03783 0.46297
 O2 O 0.28187 0.96270 0.53801
 O3 O 0.28190 0.96266 0.46291
 O4 O 0.28200 1.03788 0.53810
 O5 O 0.21845 1.03812 0.53804
 O6 O 0.21829 0.96286 0.46291
 O7 O 0.21826 0.96291 0.53798
 O8 O 0.21846 1.03805 0.46295
 Cu9 Cu 0.28832 1.00025 0.50051
 Cu10 Cu 0.21201 1.00051 0.50047
 C11 C 0.25030 1.05080 0.45008
 C12 C 0.25003 0.94992 0.55085
 C13 C 0.25007 0.94987 0.45002
 C14 C 0.25024 1.05097 0.55104
 O15 O 0.78144 -0.03817 0.46311
 O16 O 0.78160 0.03687 0.53804
 O17 O 0.78149 -0.03830 0.53816
 O18 O 0.78153 0.03697 0.46302
 O19 O 0.71792 0.03710 0.46305
 O20 O 0.71793 -0.03812 0.53824
 O21 O 0.71799 0.03702 0.53810
 O22 O 0.71783 -0.03802 0.46316
 Cu23 Cu 0.78788 -0.00068 0.50058
 Cu24 Cu 0.71155 -0.00050 0.50065
 C25 C 0.74961 -0.05093 0.45027
 C26 C 0.74982 0.04982 0.55089
 C27 C 0.74971 -0.05118 0.55117
 C28 C 0.74973 0.04994 0.45015
 O29 O 0.21829 0.46156 0.96298
 O30 O 0.21829 0.53660 1.03801
 O31 O 0.21826 0.53667 0.96296
 O32 O 0.21841 0.46146 1.03806
 O33 O 0.28197 0.46142 1.03799
 O34 O 0.28187 0.53666 0.96293
 O35 O 0.28191 0.53659 1.03794
 O36 O 0.28190 0.46151 0.96295
 Cu37 Cu 0.21195 0.49907 1.00052
 Cu38 Cu 0.28828 0.49903 1.00045
 C39 C 0.25009 0.44869 0.95009
 C40 C 0.25010 0.54947 1.05082
 C41 C 0.25005 0.54956 0.95008
 C42 C 0.25021 0.44848 1.05098
 O43 O 0.46328 0.28167 1.03781
 O44 O 0.53834 0.28164 0.96291
 O45 O 0.46323 0.28153 0.96277
 O46 O 0.53842 0.28165 1.03797
 O47 O 0.53853 0.21806 1.03810
 O48 O 0.46338 0.21788 0.96286
 O49 O 0.53847 0.21798 0.96300
 O50 O 0.46343 0.21801 1.03794
 Cu51 Cu 0.50081 0.28799 1.00036
 Cu52 Cu 0.50097 0.21162 1.00049
 C53 C 0.45048 0.24985 1.05070
 C54 C 0.55125 0.24981 0.95009
 C55 C 0.45042 0.24968 0.94992
 C56 C 0.55144 0.24988 1.05102
 O57 O 0.46295 0.78178 -0.03814
 O58 O 0.53797 0.78198 0.03681
 O59 O 0.53807 0.78191 -0.03829
 O60 O 0.46289 0.78182 0.03693
 O61 O 0.46307 0.71817 0.03698
 O62 O 0.53830 0.71832 -0.03819
 O63 O 0.53819 0.71833 0.03688
 O64 O 0.46315 0.71812 -0.03806
 Cu65 Cu 0.50046 0.78824 -0.00069
 Cu66 Cu 0.50071 0.71187 -0.00060
 C67 C 0.45017 0.74992 -0.05092
 C68 C 0.55092 0.75019 0.04971
 C69 C 0.55115 0.75013 -0.05121
 C70 C 0.45008 0.74998 0.04984
 O71 O 1.03807 0.46300 0.28156
 O72 O 0.96300 0.53810 0.28161
 O73 O 0.96298 0.46292 0.28161
 O74 O 1.03811 0.53818 0.28159
 O75 O 1.03811 0.53823 0.21808
 O76 O 0.96295 0.46299 0.21804
 O77 O 0.96297 0.53814 0.21804
 O78 O 1.03808 0.46309 0.21799
 Cu79 Cu 1.00054 0.50055 0.28795
 Cu80 Cu 1.00053 0.50063 0.21168
 C81 C 1.05094 0.45017 0.24977
 C82 C 0.95010 0.55098 0.24983
 C83 C 0.95008 0.45005 0.24982
 C84 C 1.05108 0.55117 0.24984
 O85 O -0.03818 0.46294 0.78173
 O86 O 0.03679 0.53794 0.78193
 O87 O -0.03836 0.53811 0.78180
 O88 O 0.03694 0.46280 0.78181
 O89 O 0.03697 0.46291 0.71824
 O90 O -0.03827 0.53826 0.71829
 O91 O 0.03685 0.53807 0.71835
 O92 O -0.03812 0.46306 0.71816
 Cu93 Cu -0.00072 0.50044 0.78817
 Cu94 Cu -0.00064 0.50059 0.71190
 C95 C -0.05098 0.45012 0.74992
 C96 C 0.04969 0.55084 0.75017
 C97 C -0.05130 0.55117 0.75005
 C98 C 0.04986 0.44994 0.75002
 O99 O 0.46172 0.96307 0.21811
 O100 O 0.53672 1.03814 0.21821
 O101 O 0.53677 0.96302 0.21817
 O102 O 0.46167 1.03822 0.21820
 O103 O 0.46161 1.03813 0.28171
 O104 O 0.53675 0.96296 0.28175
 O105 O 0.53670 1.03805 0.28178
 O106 O 0.46167 0.96301 0.28169
 Cu107 Cu 0.49922 1.00062 0.21180
 Cu108 Cu 0.49917 1.00053 0.28810
 C109 C 0.44886 0.95015 0.24988
 C110 C 0.54959 1.05094 0.25001
 C111 C 0.54964 0.95011 0.24996
 C112 C 0.44869 1.05115 0.24995
 O113 O 1.03770 0.28173 0.53728
 O114 O 0.96263 0.28176 0.46226
 O115 O 0.96265 0.28175 0.53729
 O116 O 1.03770 0.28184 0.46224
 O117 O 1.03780 0.21818 0.46221
 O118 O 0.96275 0.21809 0.53728
 O119 O 0.96271 0.21810 0.46229
 O120 O 1.03783 0.21807 0.53723
 Cu121 Cu 1.00016 0.28816 0.49977
 Cu122 Cu 1.00029 0.21172 0.49975
 C123 C 1.05063 0.24988 0.55011
 C124 C 0.94980 0.24994 0.44943
 C125 C 0.94984 0.24991 0.55015
 C126 C 1.05061 0.25003 0.44936
 O127 O -0.03764 0.78185 0.53748
 O128 O 0.03745 0.78175 0.46251
 O129 O -0.03763 0.78184 0.46248
 O130 O 0.03743 0.78179 0.53752
 O131 O 0.03747 0.71813 0.53756
 O132 O -0.03762 0.71818 0.46255
 O133 O 0.03743 0.71809 0.46252
 O134 O -0.03758 0.71819 0.53758
 Cu135 Cu -0.00009 0.78819 0.49999
 Cu136 Cu -0.00007 0.71176 0.50006
 C137 C -0.05048 0.75003 0.55038
 C138 C 0.05030 0.74990 0.44965
 C139 C -0.05050 0.75002 0.44966
 C140 C 0.05031 0.74995 0.55041
 O141 O 0.71823 0.46254 1.03740
 O142 O 0.71822 0.53768 0.96248
 O143 O 0.71827 0.46257 0.96242
 O144 O 0.71824 0.53764 1.03745
 O145 O 0.78186 0.53759 1.03745
 O146 O 0.78189 0.46250 0.96245
 O147 O 0.78184 0.53757 0.96244
 O148 O 0.78185 0.46251 1.03746
 Cu149 Cu 0.71185 0.50011 0.99994
 Cu150 Cu 0.78825 0.50004 0.99995
 C151 C 0.75004 0.44965 1.05027
 C152 C 0.75002 0.55049 0.94961
 C153 C 0.75009 0.44967 0.94957
 C154 C 0.75004 0.55049 1.05031
 O155 O 0.46172 1.03803 0.71819
 O156 O 0.53691 0.96297 0.71821
 O157 O 0.46184 0.96292 0.71828
 O158 O 0.53682 1.03805 0.71818
 O159 O 0.53686 1.03804 0.78176
 O160 O 0.46184 0.96297 0.78185
 O161 O 0.53688 0.96292 0.78178
 O162 O 0.46179 1.03812 0.78170
 Cu163 Cu 0.49931 1.00050 0.71184
 Cu164 Cu 0.49933 1.00052 0.78814
 C165 C 0.44880 1.05103 0.74993
 C166 C 0.54977 0.95007 0.75000
 C167 C 0.44900 0.95005 0.75009
 C168 C 0.54972 1.05089 0.74996
 C169 C 0.25049 0.22139 0.27857
 C170 C 0.22174 0.25017 0.27850
 C171 C 0.22176 0.27889 0.24972
 C172 C 0.25049 0.27885 0.22098
 C173 C 0.27922 0.25004 0.22108
 C174 C 0.27923 0.22131 0.24985
 C175 C 0.74964 0.77892 0.27875
 C176 C 0.77846 0.75021 0.27874
 C177 C 0.77857 0.72155 0.24994
 C178 C 0.74988 0.72158 0.22118
 C179 C 0.72110 0.75033 0.22119
 C180 C 0.72096 0.77900 0.24998
 C181 C 0.75009 0.22119 0.72118
 C182 C 0.77882 0.24991 0.72111
 C183 C 0.77881 0.27868 0.74981
 C184 C 0.75014 0.27868 0.77859
 C185 C 0.72144 0.24994 0.77864
 C186 C 0.72137 0.22121 0.74991
 C187 C 0.24980 0.77857 0.72159
 C188 C 0.27855 0.77853 0.75030
 C189 C 0.27859 0.74972 0.77901
 C190 C 0.24985 0.72099 0.77907
 C191 C 0.22110 0.72108 0.75037
 C192 C 0.22108 0.74983 0.72161
 C193 C 0.22152 0.24963 0.72110
 C194 C 0.22143 0.27837 0.74988
 C195 C 0.25020 0.27827 0.77863
 C196 C 0.27904 0.24950 0.77862
 C197 C 0.27905 0.22079 0.74982
 C198 C 0.25031 0.22081 0.72104
 C199 C 0.77856 0.75021 0.72128
 C200 C 0.74978 0.77902 0.72124
 C201 C 0.72104 0.77903 0.75002
 C202 C 0.72104 0.75028 0.77881
 C203 C 0.74986 0.72150 0.77877
 C204 C 0.77864 0.72143 0.75004
 C205 C 0.22115 0.74976 0.27863
 C206 C 0.24986 0.77856 0.27864
 C207 C 0.27858 0.77855 0.24985
 C208 C 0.27867 0.74977 0.22112
 C209 C 0.24994 0.72098 0.22119
 C210 C 0.22114 0.72096 0.24991
 C211 C 0.77863 0.24998 0.27871
 C212 C 0.77872 0.27873 0.24993
 C213 C 0.74994 0.27871 0.22119
 C214 C 0.72112 0.25002 0.22119
 C215 C 0.72108 0.22132 0.25002
 C216 C 0.74983 0.22126 0.27879
 C217 C 0.25047 0.13814 0.36225
 C218 C 0.21553 0.12460 0.37718
 C219 C 0.21543 0.09618 0.40578
 C220 C 0.25036 0.08094 0.41984
 C221 C 0.28535 0.09478 0.40463
 C222 C 0.28536 0.12320 0.37601
 C223 C 0.25051 0.16737 0.33284
 C224 C 0.25051 0.19188 0.30820
 H225 H 0.18837 0.13597 0.36668
 H226 H 0.18801 0.08616 0.41688
 H227 H 0.31273 0.08365 0.41479
 H228 H 0.31256 0.13353 0.36465
 C229 C 0.74948 0.86193 0.36245
 C230 C 0.78442 0.87558 0.37724
 C231 C 0.78451 0.90393 0.40586
 C232 C 0.74956 0.91898 0.42004
 C233 C 0.71457 0.90502 0.40497
 C234 C 0.71457 0.87667 0.37634
 C235 C 0.74946 0.83279 0.33302
 C236 C 0.74951 0.80835 0.30837
 H237 H 0.81159 0.86434 0.36662
 H238 H 0.81192 0.91405 0.41685
 H239 H 0.68718 0.91601 0.41524
 H240 H 0.68738 0.86623 0.36507
 C241 C 0.75000 0.13761 0.63807
 C242 C 0.78489 0.12370 0.62332
 C243 C 0.78488 0.09510 0.59494
 C244 C 0.74989 0.08006 0.58097
 C245 C 0.71494 0.09426 0.59602
 C246 C 0.71505 0.12286 0.62439
 C247 C 0.75005 0.16699 0.66724
 C248 C 0.75008 0.19161 0.69171
 H249 H 0.81210 0.13494 0.63376
 H250 H 0.81226 0.08481 0.58395
 H251 H 0.68753 0.08329 0.58589
 H252 H 0.68789 0.13348 0.63564
 C253 C 0.24984 0.86215 0.63825
 C254 C 0.28479 0.87683 0.62447
 C255 C 0.28489 0.90541 0.59602
 C256 C 0.24996 0.91967 0.58099
 C257 C 0.21496 0.90470 0.59506
 C258 C 0.21495 0.87612 0.62351
 C259 C 0.24979 0.83278 0.66752
 C260 C 0.24978 0.80816 0.69206
 H261 H 0.31195 0.86617 0.63569
 H262 H 0.31232 0.91633 0.58583
 H263 H 0.18759 0.91503 0.58409
 H264 H 0.18774 0.86494 0.63403
 C265 C 0.36275 0.24992 0.13792
 C266 C 0.37779 0.21497 0.12444
 C267 C 0.40637 0.21490 0.09604
 C268 C 0.42025 0.24987 0.08079
 C269 C 0.40493 0.28487 0.09457
 C270 C 0.37634 0.28485 0.12297
 C271 C 0.33339 0.24996 0.16712
 C272 C 0.30879 0.24999 0.19160
 H273 H 0.36741 0.18779 0.13585
 H274 H 0.41757 0.18748 0.08606
 H275 H 0.41497 0.31227 0.08342
 H276 H 0.36487 0.31205 0.13326
 C277 C 0.36227 0.74971 0.86202
 C278 C 0.37620 0.71479 0.87678
 C279 C 0.40484 0.71481 0.90511
 C280 C 0.41990 0.74984 0.91903
 C281 C 0.40569 0.78480 0.90396
 C282 C 0.37704 0.78468 0.87563
 C283 C 0.33284 0.74966 0.83289
 C284 C 0.30819 0.74966 0.80845
 H285 H 0.36494 0.68757 0.86638
 H286 H 0.41515 0.68742 0.91612
 H287 H 0.41667 0.81224 0.91405
 H288 H 0.36641 0.81186 0.86437
 C289 C 0.63806 0.75038 0.13753
 C290 C 0.62332 0.78530 0.12359
 C291 C 0.59496 0.78528 0.09497
 C292 C 0.58100 0.75026 0.07995
 C293 C 0.59605 0.71530 0.09417
 C294 C 0.62440 0.71540 0.12279
 C295 C 0.66720 0.75042 0.16694
 C296 C 0.69166 0.75040 0.19159
 H297 H 0.63375 0.81252 0.13482
 H298 H 0.58397 0.81268 0.08466
 H299 H 0.58593 0.68786 0.08321
 H300 H 0.63564 0.68822 0.13344
 C301 C 0.63843 0.24985 0.86233
 C302 C 0.62385 0.21489 0.87625
 C303 C 0.59548 0.21483 0.90485
 C304 C 0.58135 0.24982 0.91988
 C305 C 0.59624 0.28482 0.90568
 C306 C 0.62461 0.28479 0.87708
 C307 C 0.66758 0.24987 0.83291
 C308 C 0.69202 0.24990 0.80826
 H309 H 0.63442 0.18770 0.86501
 H310 H 0.58461 0.18741 0.91515
 H311 H 0.58599 0.31223 0.91665
 H312 H 0.63573 0.31199 0.86645
 C313 C 0.13845 0.36249 0.24970
 C314 C 0.12483 0.37750 0.21481
 C315 C 0.09634 0.40606 0.21479
 C316 C 0.08112 0.41996 0.24974
 C317 C 0.09505 0.40467 0.28467
 C318 C 0.12353 0.37610 0.28460
 C319 C 0.16771 0.33312 0.24968
 C320 C 0.19224 0.30850 0.24969
 H321 H 0.13621 0.36711 0.18765
 H322 H 0.08626 0.41724 0.18742
 H323 H 0.08393 0.41473 0.31206
 H324 H 0.13393 0.36466 0.31175
 C325 C 0.86189 0.36230 0.74974
 C326 C 0.87558 0.37706 0.78467
 C327 C 0.90393 0.40568 0.78477
 C328 C 0.91895 0.41988 0.74985
 C329 C 0.90496 0.40483 0.71487
 C330 C 0.87660 0.37621 0.71487
 C331 C 0.83274 0.33289 0.74970
 C332 C 0.80828 0.30826 0.74972
 H333 H 0.86436 0.36643 0.81181
 H334 H 0.91407 0.41665 0.81217
 H335 H 0.91593 0.41513 0.68751
 H336 H 0.86615 0.36496 0.68768
 C337 C 0.13749 0.63799 0.75036
 C338 C 0.12272 0.62432 0.71543
 C339 C 0.09411 0.59596 0.71533
 C340 C 0.07992 0.58092 0.75024
 C341 C 0.09498 0.59489 0.78522
 C342 C 0.12359 0.62325 0.78523
 C343 C 0.16689 0.66715 0.75041
 C344 C 0.19152 0.69162 0.75041
 H345 H 0.13334 0.63555 0.68829
 H346 H 0.08313 0.58584 0.68792
 H347 H 0.08470 0.58390 0.81258
 H348 H 0.13485 0.63370 0.81242
 C349 C 0.86228 0.63834 0.24987
 C350 C 0.87712 0.62458 0.28476
 C351 C 0.90574 0.59614 0.28479
 C352 C 0.91985 0.58112 0.24984
 C353 C 0.90472 0.59519 0.21490
 C354 C 0.87610 0.62363 0.21496
 C355 C 0.83286 0.66756 0.24988
 C356 C 0.80821 0.69206 0.24991
 H357 H 0.86656 0.63580 0.31193
 H358 H 0.91679 0.58594 0.31217
 H359 H 0.91495 0.58423 0.18752
 H360 H 0.86479 0.63414 0.18780
 C361 C 0.13816 0.24978 0.63765
 C362 C 0.12454 0.21486 0.62273
 C363 C 0.09605 0.21485 0.59423
 C364 C 0.08082 0.24985 0.58028
 C365 C 0.09474 0.28482 0.59548
 C366 C 0.12323 0.28474 0.62399
 C367 C 0.16744 0.24974 0.66697
 C368 C 0.19199 0.24969 0.69155
 H369 H 0.13591 0.18765 0.63315
 H370 H 0.08597 0.18745 0.58314
 H371 H 0.08363 0.31224 0.58538
 H372 H 0.13362 0.31192 0.63534
 C373 C 0.86195 0.75012 0.63787
 C374 C 0.87696 0.71517 0.62433
 C375 C 0.90546 0.71510 0.59584
 C376 C 0.91933 0.75007 0.58055
 C377 C 0.90404 0.78506 0.59439
 C378 C 0.87553 0.78504 0.62287
 C379 C 0.83264 0.75014 0.66716
 C380 C 0.80808 0.75017 0.69172
 H381 H 0.86661 0.68799 0.63576
 H382 H 0.91663 0.68768 0.58583
 H383 H 0.91407 0.81246 0.58322
 H384 H 0.86409 0.81225 0.63320
 C385 C 0.13777 0.74979 0.36206
 C386 C 0.12283 0.71487 0.37571
 C387 C 0.09436 0.71486 0.40423
 C388 C 0.08046 0.74986 0.41946
 C389 C 0.09569 0.78483 0.40552
 C390 C 0.12417 0.78474 0.37700
 C391 C 0.16706 0.74976 0.33274
 C392 C 0.19161 0.74975 0.30818
 H393 H 0.13320 0.68766 0.36432
 H394 H 0.08324 0.68747 0.41432
 H395 H 0.08564 0.81225 0.41663
 H396 H 0.13555 0.81193 0.36659
 C397 C 0.86211 0.24993 0.36205
 C398 C 0.87595 0.21499 0.37685
 C399 C 0.90450 0.21495 0.40529
 C400 C 0.91957 0.24994 0.41930
 C401 C 0.90543 0.28492 0.40421
 C402 C 0.87688 0.28487 0.37577
 C403 C 0.83276 0.24993 0.33279
 C404 C 0.80818 0.24994 0.30825
 H405 H 0.86470 0.18779 0.36639
 H406 H 0.91474 0.18754 0.41630
 H407 H 0.91642 0.31234 0.41435
 H408 H 0.86632 0.31207 0.36450
 C409 C 0.25009 0.36142 0.86228
 C410 C 0.21517 0.37618 0.87614
 C411 C 0.21513 0.40457 0.90475
 C412 C 0.25009 0.41857 0.91985
 C413 C 0.28506 0.40352 0.90570
 C414 C 0.28501 0.37513 0.87710
 C415 C 0.25010 0.33223 0.83287
 C416 C 0.25014 0.30774 0.80823
 H417 H 0.18799 0.36572 0.86486
 H418 H 0.18773 0.41555 0.91499
 H419 H 0.31245 0.41366 0.91671
 H420 H 0.31219 0.36390 0.86652
 C421 C 0.75002 0.36205 0.13775
 C422 C 0.78494 0.37695 0.12414
 C423 C 0.78499 0.40547 0.09565
 C424 C 0.75003 0.41945 0.08042
 C425 C 0.71506 0.40425 0.09432
 C426 C 0.71510 0.37572 0.12281
 C427 C 0.75001 0.33276 0.16705
 C428 C 0.74999 0.30821 0.19162
 H429 H 0.81211 0.36650 0.13553
 H430 H 0.81239 0.41657 0.08558
 H431 H 0.68767 0.41437 0.08320
 H432 H 0.68793 0.36436 0.13320
 C433 C 0.74996 0.63808 0.86213
 C434 C 0.71506 0.62452 0.87711
 C435 C 0.71503 0.59600 0.90560
 C436 C 0.75001 0.58069 0.91946
 C437 C 0.78496 0.59455 0.90419
 C438 C 0.78489 0.62307 0.87569
 C439 C 0.74993 0.66739 0.83285
 C440 C 0.74989 0.69196 0.80830
 H441 H 0.68787 0.63597 0.86676
 H442 H 0.68765 0.58597 0.91676
 H443 H 0.81236 0.58336 0.91422
 H444 H 0.81206 0.63342 0.86427
 C445 C 0.25007 0.63729 0.13807
 C446 C 0.28499 0.62360 0.12316
 C447 C 0.28504 0.59499 0.09478
 C448 C 0.25009 0.57972 0.08093
 C449 C 0.21513 0.59370 0.09613
 C450 C 0.21516 0.62230 0.12453
 C451 C 0.25005 0.66671 0.16726
 C452 C 0.25001 0.69136 0.19173
 H453 H 0.31216 0.63501 0.13349
 H454 H 0.31244 0.58487 0.08367
 H455 H 0.18774 0.58255 0.08612
 H456 H 0.18798 0.63274 0.13589
 C457 C 0.36255 0.13726 0.74984
 C458 C 0.37660 0.12271 0.71497
 C459 C 0.40515 0.09419 0.71492
 C460 C 0.42010 0.07972 0.74990
 C461 C 0.40561 0.09468 0.78485
 C462 C 0.37708 0.12322 0.78473
 C463 C 0.33321 0.16661 0.74981
 C464 C 0.30862 0.19121 0.74980
 H465 H 0.36552 0.13344 0.68780
 H466 H 0.41541 0.08354 0.68742
 H467 H 0.41625 0.08443 0.81237
 H468 H 0.36634 0.13431 0.81189
 C469 C 0.36167 0.86227 0.24979
 C470 C 0.37535 0.87711 0.28470
 C471 C 0.40371 0.90573 0.28478
 C472 C 0.41877 0.91989 0.24985
 C473 C 0.40479 0.90477 0.21489
 C474 C 0.37642 0.87615 0.21491
 C475 C 0.33250 0.83283 0.24978
 C476 C 0.30804 0.80818 0.24979
 H477 H 0.36411 0.86653 0.31186
 H478 H 0.41383 0.91675 0.31217
 H479 H 0.41577 0.91503 0.18752
 H480 H 0.36599 0.86486 0.18774
 C481 C 0.63739 0.13821 0.25009
 C482 C 0.62361 0.12337 0.28497
 C483 C 0.59500 0.09497 0.28499
 C484 C 0.57982 0.08107 0.25004
 C485 C 0.59388 0.09621 0.21511
 C486 C 0.62248 0.12461 0.21518
 C487 C 0.66681 0.16739 0.25011
 C488 C 0.69146 0.19186 0.25009
 H489 H 0.63495 0.13374 0.31214
 H490 H 0.58483 0.08392 0.31236
 H491 H 0.58280 0.08615 0.18772
 H492 H 0.63298 0.13592 0.18803
 C493 C 0.63749 0.86250 0.75000
 C494 C 0.62391 0.87755 0.71511
 C495 C 0.59535 0.90605 0.71507
 C496 C 0.58001 0.91987 0.75000
 C497 C 0.59388 0.90453 0.78494
 C498 C 0.62243 0.87601 0.78489
 C499 C 0.66685 0.83318 0.74999
 C500 C 0.69146 0.80860 0.74999
 H501 H 0.63538 0.86725 0.68795
 H502 H 0.58532 0.91727 0.68770
 H503 H 0.58267 0.91452 0.81231
 H504 H 0.63278 0.86454 0.81204
 C505 C 0.74970 0.86258 0.63756
 C506 C 0.78460 0.87666 0.62304
 C507 C 0.78468 0.90517 0.59448
 C508 C 0.74971 0.92012 0.57990
 C509 C 0.71473 0.90562 0.59483
 C510 C 0.71481 0.87711 0.62340
 C511 C 0.74971 0.83322 0.66697
 C512 C 0.74973 0.80863 0.69160
 H513 H 0.81178 0.86562 0.63383
 H514 H 0.81221 0.91542 0.58388
 H515 H 0.68720 0.91624 0.58452
 H516 H 0.68762 0.86638 0.63442
 C517 C 0.25037 0.36227 0.13729
 C518 C 0.28524 0.37641 0.12280
 C519 C 0.28527 0.40491 0.09425
 C520 C 0.25026 0.41978 0.07968
 C521 C 0.21531 0.40521 0.09458
 C522 C 0.21544 0.37671 0.12313
 C523 C 0.25041 0.33295 0.16668
 C524 C 0.25046 0.30840 0.19133
 H525 H 0.31244 0.36542 0.13360
 H526 H 0.31278 0.41523 0.08367
 H527 H 0.18776 0.41577 0.08426
 H528 H 0.18828 0.36592 0.13414
 C529 C 0.25034 0.13724 0.63738
 C530 C 0.28521 0.12262 0.62327
 C531 C 0.28526 0.09412 0.59471
 C532 C 0.25028 0.07968 0.57976
 C533 C 0.21533 0.09470 0.59430
 C534 C 0.21544 0.12321 0.62283
 C535 C 0.25035 0.16661 0.66678
 C536 C 0.25034 0.19121 0.69140
 H537 H 0.31241 0.13327 0.63431
 H538 H 0.31278 0.08344 0.58444
 H539 H 0.18779 0.08450 0.58368
 H540 H 0.18826 0.13430 0.63357
 C541 C 0.24992 0.86215 0.36228
 C542 C 0.21504 0.87614 0.37706
 C543 C 0.21504 0.90466 0.40560
 C544 C 0.25002 0.91962 0.41978
 C545 C 0.28494 0.90534 0.40471
 C546 C 0.28485 0.87682 0.37618
 C547 C 0.24987 0.83278 0.33289
 C548 C 0.24985 0.80818 0.30827
 H549 H 0.18783 0.86503 0.36651
 H550 H 0.18766 0.91498 0.41655
 H551 H 0.31236 0.91621 0.41495
 H552 H 0.31202 0.86619 0.36498
 C553 C 0.74975 0.13770 0.36245
 C554 C 0.71484 0.12286 0.37622
 C555 C 0.71479 0.09432 0.40475
 C556 C 0.74974 0.08020 0.41992
 C557 C 0.78469 0.09532 0.40587
 C558 C 0.78465 0.12387 0.37733
 C559 C 0.74976 0.16707 0.33306
 C560 C 0.74978 0.19167 0.30844
 H561 H 0.68766 0.13337 0.36492
 H562 H 0.68739 0.08331 0.41490
 H563 H 0.81208 0.08512 0.41691
 H564 H 0.81185 0.13513 0.36687
 C565 C 0.63743 0.75024 0.86245
 C566 C 0.62336 0.71531 0.87696
 C567 C 0.59484 0.71520 0.90550
 C568 C 0.57986 0.75017 0.92006
 C569 C 0.59435 0.78518 0.90514
 C570 C 0.62286 0.78513 0.87660
 C571 C 0.66680 0.75027 0.83305
 C572 C 0.69141 0.75028 0.80843
 H573 H 0.63440 0.68812 0.86619
 H574 H 0.58460 0.68763 0.91608
 H575 H 0.58372 0.81272 0.91544
 H576 H 0.63357 0.81236 0.86559
 C577 C 0.13820 0.25017 0.36184
 C578 C 0.12427 0.21520 0.37641
 C579 C 0.09576 0.21511 0.40490
 C580 C 0.08080 0.25008 0.41918
 C581 C 0.09501 0.28509 0.40430
 C582 C 0.12353 0.28509 0.37582
 C583 C 0.16754 0.25021 0.33256
 C584 C 0.19214 0.25021 0.30802
 H585 H 0.13542 0.18801 0.36573
 H586 H 0.08546 0.18767 0.41572
 H587 H 0.08411 0.31249 0.41466
 H588 H 0.13415 0.31231 0.36474
 C589 C 0.63762 0.25000 0.13744
 C590 C 0.62324 0.21507 0.12329
 C591 C 0.59476 0.21495 0.09472
 C592 C 0.58012 0.24992 0.07976
 C593 C 0.59492 0.28493 0.09432
 C594 C 0.62341 0.28489 0.12289
 C595 C 0.66696 0.25003 0.16688
 C596 C 0.69153 0.25004 0.19152
 H597 H 0.63405 0.18788 0.13432
 H598 H 0.58426 0.18739 0.08442
 H599 H 0.58457 0.31247 0.08370
 H600 H 0.63432 0.31212 0.13365
 C601 C 0.36271 0.24952 0.86218
 C602 C 0.37642 0.28447 0.87700
 C603 C 0.40495 0.28456 0.90553
 C604 C 0.42018 0.24962 0.91966
 C605 C 0.40619 0.21463 0.90455
 C606 C 0.37766 0.21462 0.87602
 C607 C 0.33331 0.24948 0.83281
 C608 C 0.30868 0.24947 0.80822
 H609 H 0.36509 0.31166 0.86648
 H610 H 0.41505 0.31200 0.91651
 H611 H 0.41728 0.18723 0.91476
 H612 H 0.36726 0.18739 0.86478
 C613 C 0.36232 0.74984 0.13753
 C614 C 0.37620 0.71494 0.12267
 C615 C 0.40475 0.71494 0.09416
 C616 C 0.41982 0.74993 0.08008
 C617 C 0.40565 0.78488 0.09522
 C618 C 0.37711 0.78479 0.12374
 C619 C 0.33292 0.74979 0.16690
 C620 C 0.30830 0.74977 0.19150
 H621 H 0.36499 0.68771 0.13314
 H622 H 0.41498 0.68754 0.08314
 H623 H 0.41662 0.81231 0.08506
 H624 H 0.36657 0.81198 0.13501
 C625 C 0.86232 0.63764 0.75006
 C626 C 0.87684 0.62349 0.71519
 C627 C 0.90539 0.59491 0.71511
 C628 C 0.91996 0.57994 0.75005
 C629 C 0.90504 0.59450 0.78500
 C630 C 0.87648 0.62308 0.78492
 C631 C 0.83291 0.66708 0.75006
 C632 C 0.80829 0.69175 0.75005
 H633 H 0.86607 0.63454 0.68802
 H634 H 0.91598 0.58462 0.68759
 H635 H 0.91534 0.58388 0.81251
 H636 H 0.86548 0.63385 0.81210
 C637 C 0.36260 0.13758 0.24992
 C638 C 0.37702 0.12341 0.21505
 C639 C 0.40549 0.09481 0.21498
 C640 C 0.42003 0.07989 0.24994
 C641 C 0.40517 0.09447 0.28490
 C642 C 0.37670 0.12307 0.28481
 C643 C 0.33332 0.16701 0.24991
 C644 C 0.30878 0.19166 0.24989
 H645 H 0.36624 0.13445 0.18788
 H646 H 0.41605 0.08447 0.18747
 H647 H 0.41548 0.08385 0.31242
 H648 H 0.36571 0.13389 0.31197
 C649 C 0.13746 0.63740 0.24988
 C650 C 0.12326 0.62298 0.21500
 C651 C 0.09470 0.59449 0.21491
 C652 C 0.07980 0.57988 0.24985
 C653 C 0.09441 0.59471 0.28480
 C654 C 0.12296 0.62321 0.28474
 C655 C 0.16688 0.66675 0.24989
 C656 C 0.19151 0.69134 0.24990
 H657 H 0.13426 0.63378 0.18784
 H658 H 0.08437 0.58397 0.18739
 H659 H 0.08384 0.58438 0.31231
 H660 H 0.13376 0.63415 0.31191
 C661 C 0.86239 0.36229 0.24985
 C662 C 0.87626 0.37710 0.21496
 C663 C 0.90478 0.40564 0.21491
 C664 C 0.91985 0.41979 0.24983
 C665 C 0.90571 0.40468 0.28476
 C666 C 0.87719 0.37615 0.28472
 C667 C 0.83300 0.33291 0.24986
 C668 C 0.80838 0.30832 0.24988
 H669 H 0.86505 0.36658 0.18779
 H670 H 0.91499 0.41662 0.18752
 H671 H 0.91667 0.41490 0.31214
 H672 H 0.86666 0.36492 0.31190
 C673 C 0.13770 0.36209 0.74997
 C674 C 0.12283 0.37597 0.71510
 C675 C 0.09426 0.40454 0.71507
 C676 C 0.08015 0.41965 0.75001
 C677 C 0.09531 0.40549 0.78492
 C678 C 0.12388 0.37693 0.78486
 C679 C 0.16713 0.33267 0.74994
 C680 C 0.19177 0.30803 0.74990
 H681 H 0.13332 0.36473 0.68792
 H682 H 0.08324 0.41476 0.68770
 H683 H 0.08512 0.41648 0.81231
 H684 H 0.13516 0.36640 0.81202
 C685 C 0.86188 0.75011 0.36218
 C686 C 0.87657 0.71515 0.37610
 C687 C 0.90509 0.71507 0.40458
 C688 C 0.91930 0.75005 0.41950
 C689 C 0.90432 0.78505 0.40529
 C690 C 0.87580 0.78503 0.37681
 C691 C 0.83256 0.75014 0.33288
 C692 C 0.80800 0.75017 0.30831
 H693 H 0.86596 0.68795 0.36498
 H694 H 0.91601 0.68764 0.41488
 H695 H 0.91461 0.81246 0.41615
 H696 H 0.86463 0.81225 0.36618
 C697 C 0.86225 0.24986 0.63768
 C698 C 0.87605 0.21493 0.62286
 C699 C 0.90456 0.21490 0.59437
 C700 C 0.91964 0.24989 0.58033
 C701 C 0.90555 0.28486 0.59544
 C702 C 0.87704 0.28481 0.62393
 C703 C 0.83293 0.24986 0.66698
 C704 C 0.80837 0.24988 0.69154
 H705 H 0.86479 0.18773 0.63334
 H706 H 0.91476 0.18749 0.58335
 H707 H 0.91655 0.31228 0.58528
 H708 H 0.86653 0.31200 0.63520
 C709 C 0.13775 0.74988 0.63808
 C710 C 0.12392 0.78483 0.62329
 C711 C 0.09547 0.78490 0.59474
 C712 C 0.08047 0.74992 0.58062
 C713 C 0.09459 0.71493 0.59569
 C714 C 0.12305 0.71495 0.62424
 C715 C 0.16700 0.74986 0.66744
 C716 C 0.19154 0.74985 0.69204
 H717 H 0.13511 0.81203 0.63383
 H718 H 0.08524 0.81233 0.58375
 H719 H 0.08367 0.68752 0.58547
 H720 H 0.13360 0.68774 0.63548
 C721 C 0.75001 0.63812 0.13778
 C722 C 0.78494 0.62338 0.12392
 C723 C 0.78499 0.59485 0.09545
 C724 C 0.75003 0.58070 0.08047
 C725 C 0.71506 0.59574 0.09462
 C726 C 0.71510 0.62426 0.12310
 C727 C 0.74999 0.66746 0.16706
 C728 C 0.74996 0.69203 0.19162
 H729 H 0.81212 0.63395 0.13509
 H730 H 0.81240 0.58389 0.08519
 H731 H 0.68767 0.58549 0.08371
 H732 H 0.68791 0.63547 0.13368
 C733 C 0.24993 0.63736 0.86253
 C734 C 0.21504 0.62246 0.87626
 C735 C 0.21503 0.59389 0.90475
 C736 C 0.25000 0.57983 0.91989
 C737 C 0.28494 0.59501 0.90587
 C738 C 0.28485 0.62359 0.87739
 C739 C 0.24988 0.66675 0.83322
 C740 C 0.24987 0.69138 0.80865
 H741 H 0.18784 0.63294 0.86497
 H742 H 0.18765 0.58283 0.91489
 H743 H 0.31235 0.58485 0.91691
 H744 H 0.31202 0.63491 0.86694
 C745 C 0.75015 0.36213 0.86201
 C746 C 0.78506 0.37679 0.87591
 C747 C 0.78508 0.40528 0.90441
 C748 C 0.75011 0.41949 0.91939
 C749 C 0.71515 0.40454 0.90520
 C750 C 0.71522 0.37605 0.87669
 C751 C 0.75016 0.33283 0.83269
 C752 C 0.75017 0.30826 0.80813
 H753 H 0.81225 0.36617 0.86474
 H754 H 0.81248 0.41617 0.91469
 H755 H 0.68775 0.41483 0.91611
 H756 H 0.68804 0.36490 0.86609
 C757 C 0.63734 0.86247 0.24996
 C758 C 0.62245 0.87622 0.21507
 C759 C 0.59390 0.90474 0.21503
 C760 C 0.57986 0.91988 0.24996
 C761 C 0.59504 0.90584 0.28490
 C762 C 0.62360 0.87732 0.28485
 C763 C 0.66671 0.83314 0.24996
 C764 C 0.69133 0.80857 0.24997
 H765 H 0.63292 0.86491 0.18791
 H766 H 0.58282 0.91490 0.18765
 H767 H 0.58489 0.91689 0.31228
 H768 H 0.63493 0.86684 0.31202
 C769 C 0.63761 0.13811 0.74991
 C770 C 0.62369 0.12345 0.71502
 C771 C 0.59506 0.09508 0.71499
 C772 C 0.57998 0.08101 0.74993
 C773 C 0.59417 0.09597 0.78487
 C774 C 0.62281 0.12433 0.78481
 C775 C 0.66706 0.16727 0.74990
 C776 C 0.69173 0.19174 0.74990
 H777 H 0.63494 0.13396 0.68785
 H778 H 0.58478 0.08417 0.68761
 H779 H 0.58318 0.08577 0.81226
 H780 H 0.63341 0.13549 0.81197
 C781 C 0.36176 0.86218 0.75023
 C782 C 0.37638 0.87618 0.78511
 C783 C 0.40477 0.90480 0.78510
 C784 C 0.41890 0.91978 0.75014
 C785 C 0.40399 0.90550 0.71522
 C786 C 0.37560 0.87688 0.71531
 C787 C 0.33256 0.83276 0.75028
 C788 C 0.30806 0.80813 0.75030
 H789 H 0.36582 0.86501 0.81229
 H790 H 0.41563 0.91515 0.81247
 H791 H 0.41423 0.91641 0.68782
 H792 H 0.36449 0.86620 0.68816
   
