data_POSCAR
  _audit_creation_date              2014-09-24
  _audit_creation_method            'ToBaCCo'
  _symmetry_space_group_name_H-M    'P1'
  _symmetry_Int_Tables_number       1
  _symmetry_cell_setting            triclinic
  loop_
  _symmetry_equiv_pos_as_xyz
 x,y,z
_cell_length_a 33.6045
_cell_length_b 33.0612
_cell_length_c 33.9495
_cell_angle_alpha 90.047700
_cell_angle_beta 90.003700
_cell_angle_gamma 89.903400
loop_
  _atom_site_label
  _atom_site_type_symbol
  _atom_site_fract_x
  _atom_site_fract_y
  _atom_site_fract_z
N1 N 0.57451 0.68438 0.60493
 N2 N 0.55871 0.66737 0.63620
 C3 C 0.52673 0.68906 0.64756
 C4 C 0.52193 0.72089 0.62160
 C5 C 0.55267 0.71692 0.59482
 H6 H 0.50803 0.68208 0.67255
 H7 H 0.55915 0.73683 0.57039
 Cu8 Cu 0.58067 0.61815 0.65896
 Cu9 Cu 0.62315 0.66426 0.58088
 Cu10 Cu 0.66736 0.58086 0.62423
 N11 N 0.60705 0.57207 0.68331
 N12 N 0.64189 0.55915 0.67106
 C13 C 0.65429 0.52889 0.69456
 C14 C 0.62528 0.52180 0.72284
 C15 C 0.59564 0.54985 0.71453
 H16 H 0.68184 0.51252 0.69047
 H17 H 0.56835 0.55468 0.73070
 N18 N 0.68861 0.60693 0.57657
 N19 N 0.67245 0.63953 0.56081
 C20 C 0.69434 0.65092 0.52950
 C21 C 0.72531 0.62379 0.52500
 C22 C 0.72073 0.59621 0.55520
 H23 H 0.68785 0.67652 0.51076
 H24 H 0.73975 0.57057 0.56134
 H25 H 0.61691 0.60456 0.59801
 H26 H 0.64485 0.63863 0.63222
 N27 N 0.92714 0.31728 0.10327
 N28 N 0.93739 0.32841 0.13899
 C29 C 0.96688 0.30417 0.15186
 C30 C 0.97627 0.27673 0.12224
 C31 C 0.95035 0.28626 0.09174
 H32 H 0.98128 0.30726 0.18016
 H33 H 0.94769 0.27126 0.06357
 Cu34 Cu 0.91280 0.37510 0.16409
 Cu35 Cu 0.88387 0.34325 0.07471
 Cu36 Cu 0.83232 0.41921 0.12357
 N37 N 0.88882 0.42321 0.18701
 N38 N 0.85617 0.43904 0.17219
 C39 C 0.84492 0.47075 0.19449
 C40 C 0.87235 0.47540 0.22450
 C41 C 0.89989 0.44483 0.21880
 H42 H 0.81937 0.48976 0.18868
 H43 H 0.92573 0.43862 0.23680
 N44 N 0.81385 0.39511 0.07374
 N45 N 0.83308 0.36566 0.05557
 C46 C 0.81231 0.35464 0.02337
 C47 C 0.77893 0.37893 0.02077
 C48 C 0.78089 0.40434 0.05301
 H49 H 0.82097 0.33101 0.00305
 H50 H 0.75944 0.42732 0.06105
 H51 H 0.88575 0.40006 0.10202
 H52 H 0.85403 0.36020 0.12526
 N53 N 0.42520 0.18603 -0.10444
 N54 N 0.44002 0.16998 -0.13671
 C55 C 0.47175 0.19181 -0.14825
 C56 C 0.47742 0.22274 -0.12141
 C57 C 0.44744 0.21810 -0.09391
 H58 H 0.48977 0.18549 -0.17392
 H59 H 0.44175 0.23721 -0.06866
 Cu60 Cu 0.41702 0.12161 -0.16006
 Cu61 Cu 0.37717 0.16531 -0.07960
 Cu62 Cu 0.33356 0.08107 -0.12236
 N63 N 0.39195 0.07454 -0.18380
 N64 N 0.35856 0.05973 -0.16975
 C65 C 0.34681 0.02858 -0.19248
 C66 C 0.37464 0.02324 -0.22203
 C67 C 0.40294 0.05281 -0.21559
 H68 H 0.32039 0.01067 -0.18753
 H69 H 0.42914 0.05844 -0.23323
 N70 N 0.31270 0.10698 -0.07433
 N71 N 0.32849 0.13990 -0.05885
 C72 C 0.30660 0.15128 -0.02749
 C73 C 0.27603 0.12384 -0.02268
 C74 C 0.28085 0.09609 -0.05273
 H75 H 0.31271 0.17720 -0.00903
 H76 H 0.26203 0.07033 -0.05875
 H77 H 0.38417 0.10607 -0.09781
 H78 H 0.35355 0.13970 -0.13002
 N79 N 0.07475 0.81393 0.39428
 N80 N 0.06162 0.82807 0.36055
 C81 C 0.03051 0.80553 0.34860
 C82 C 0.02318 0.77605 0.37680
 C83 C 0.05192 0.78260 0.40547
 H84 H 0.01380 0.81099 0.32194
 H85 H 0.05684 0.76515 0.43193
 Cu86 Cu 0.08534 0.87581 0.33672
 Cu87 Cu 0.12195 0.83555 0.41999
 Cu88 Cu 0.16618 0.91927 0.37687
 N89 N 0.10962 0.92355 0.31350
 N90 N 0.14203 0.93953 0.32858
 C91 C 0.15328 0.97122 0.30635
 C92 C 0.12609 0.97570 0.27610
 C93 C 0.09871 0.94506 0.28158
 H94 H 0.17878 0.99019 0.31222
 H95 H 0.07309 0.93873 0.26333
 N96 N 0.18608 0.89427 0.42577
 N97 N 0.16995 0.86165 0.44146
 C98 C 0.19138 0.85061 0.47321
 C99 C 0.22203 0.87794 0.47807
 C100 C 0.21771 0.90532 0.44765
 H101 H 0.18509 0.82482 0.49173
 H102 H 0.23688 0.93076 0.44144
 H103 H 0.11499 0.89414 0.39979
 H104 H 0.14769 0.86008 0.37010
 C105 C 0.09657 0.15454 0.12465
 N106 N 0.12514 0.15394 0.09636
 C107 C 0.15404 0.12517 0.09684
 N108 N 0.15416 0.09682 0.12579
 C109 C 0.12568 0.09716 0.15419
 N110 N 0.09697 0.12614 0.15352
 C111 C 0.40127 0.84510 0.62499
 N112 N 0.37251 0.84611 0.59690
 C113 C 0.34408 0.87536 0.59749
 N114 N 0.34454 0.90375 0.62644
 C115 C 0.37318 0.90300 0.65469
 N116 N 0.40146 0.87360 0.65384
 C117 C 0.90257 0.65474 0.37538
 N118 N 0.87453 0.65398 0.40416
 C119 C 0.84582 0.62512 0.40407
 N120 N 0.84540 0.59680 0.37505
 C121 C 0.87340 0.59729 0.34617
 N122 N 0.90189 0.62640 0.34642
 C123 C 0.59887 0.34582 -0.12503
 N124 N 0.59849 0.37439 -0.15377
 C125 C 0.62710 0.40330 -0.15499
 N126 N 0.65617 0.40369 -0.12722
 C127 C 0.65673 0.37534 -0.09829
 N128 N 0.62806 0.34642 -0.09734
 C129 C 0.01784 0.22691 0.08785
 C130 C 0.00577 0.24637 0.12287
 C131 C 0.02409 0.23479 0.15852
 C132 C 0.05304 0.20438 0.15913
 C133 C 0.06538 0.18587 0.12406
 C134 C 0.04781 0.19755 0.08840
 H135 H 0.00508 0.23496 0.05967
 H136 H 0.01558 0.24835 0.18627
 H137 H 0.06631 0.19581 0.18698
 H138 H 0.05688 0.18351 0.06099
 C139 C 0.47668 0.76738 0.65858
 C140 C 0.49098 0.75256 0.62250
 C141 C 0.47560 0.76831 0.58725
 C142 C 0.44596 0.79801 0.58807
 C143 C 0.43208 0.81329 0.62415
 C144 C 0.44788 0.79794 0.65941
 H145 H 0.48828 0.75583 0.68614
 H146 H 0.48606 0.75718 0.55907
 H147 H 0.43433 0.80950 0.56050
 H148 H 0.43751 0.80915 0.68759
 C149 C 0.98392 0.72435 0.41087
 C150 C 0.99335 0.74613 0.37641
 C151 C 0.97222 0.73719 0.34158
 C152 C 0.94323 0.70691 0.34111
 C153 C 0.93363 0.68602 0.37569
 C154 C 0.95387 0.69519 0.41062
 H155 H 0.99885 0.73039 0.43847
 H156 H 0.97863 0.75265 0.31425
 H157 H 0.92782 0.70024 0.31385
 H158 H 0.94685 0.67928 0.43762
 C159 C 0.52477 0.26912 -0.08705
 C160 C 0.50849 0.25421 -0.12227
 C161 C 0.52211 0.26958 -0.15835
 C162 C 0.55114 0.29979 -0.15920
 C163 C 0.56784 0.31431 -0.12402
 C164 C 0.55463 0.29851 -0.08794
 H165 H 0.51486 0.25755 -0.05888
 H166 H 0.50983 0.25871 -0.18588
 H167 H 0.56096 0.31139 -0.18740
 H168 H 0.56696 0.30935 -0.06042
 C169 C 0.16200 0.02112 0.22932
 C170 C 0.12602 0.00680 0.24495
 C171 C 0.08995 0.02241 0.23063
 C172 C 0.08986 0.05228 0.20152
 C173 C 0.12582 0.06618 0.18544
 C174 C 0.16189 0.05015 0.19939
 H175 H 0.19018 0.00936 0.23978
 H176 H 0.06183 0.01199 0.24242
 H177 H 0.06166 0.06406 0.19112
 H178 H 0.19001 0.06050 0.18754
 C179 C 0.66130 0.47248 -0.23662
 C180 C 0.62576 0.49265 -0.24689
 C181 C 0.59071 0.48287 -0.22615
 C182 C 0.59107 0.45331 -0.19674
 C183 C 0.62667 0.43398 -0.18634
 C184 C 0.66183 0.44404 -0.20619
 H185 H 0.68909 0.47922 -0.25125
 H186 H 0.56258 0.49707 -0.23318
 H187 H 0.56361 0.44595 -0.18167
 H188 H 0.68961 0.42933 -0.19858
 C189 C 0.41005 0.97606 0.73231
 C190 C 0.37425 0.99255 0.74638
 C191 C 0.33808 0.97948 0.73009
 C192 C 0.33776 0.95078 0.69983
 C193 C 0.37354 0.93384 0.68614
 C194 C 0.40967 0.94654 0.70281
 H195 H 0.43829 0.98550 0.74459
 H196 H 0.31011 0.99194 0.74032
 H197 H 0.30951 0.94136 0.68754
 H198 H 0.43766 0.93404 0.69265
 C199 C 0.83667 0.52092 0.27155
 C200 C 0.87256 0.50665 0.25555
 C201 C 0.90870 0.52243 0.26942
 C202 C 0.90892 0.55241 0.29847
 C203 C 0.87306 0.56625 0.31493
 C204 C 0.83693 0.55006 0.30142
 H205 H 0.80845 0.50903 0.26143
 H206 H 0.93674 0.51205 0.25734
 H207 H 0.93716 0.56431 0.30854
 H208 H 0.80889 0.56037 0.31358
 C209 C 0.22912 0.16095 0.02160
 C210 C 0.24483 0.12417 0.00789
 C211 C 0.23049 0.08772 0.02356
 C212 C 0.20132 0.08805 0.05291
 C213 C 0.18518 0.12481 0.06622
 C214 C 0.19911 0.16124 0.05012
 H215 H 0.23958 0.18942 0.00978
 H216 H 0.24234 0.05900 0.01356
 H217 H 0.19094 0.05957 0.06481
 H218 H 0.18723 0.18997 0.06004
 C219 C 0.77155 0.66084 0.48024
 C220 C 0.75634 0.62406 0.49428
 C221 C 0.77082 0.58759 0.47861
 C222 C 0.79958 0.58792 0.44885
 C223 C 0.81518 0.62470 0.43517
 C224 C 0.80116 0.66114 0.45134
 H225 H 0.76096 0.68933 0.49205
 H226 H 0.75934 0.55887 0.48885
 H227 H 0.81005 0.55944 0.43691
 H228 H 0.81263 0.68988 0.44113
 C229 C 0.73094 0.41408 -0.02369
 C230 C 0.74779 0.37794 -0.00980
 C231 C 0.73462 0.34090 -0.02521
 C232 C 0.70449 0.33999 -0.05362
 C233 C 0.68808 0.37617 -0.06796
 C234 C 0.70176 0.41323 -0.05302
 H235 H 0.74082 0.44298 -0.01231
 H236 H 0.74711 0.31266 -0.01475
 H237 H 0.69445 0.31108 -0.06485
 H238 H 0.68938 0.44149 -0.06356
 C239 C 0.26843 0.84045 0.52243
 C240 C 0.25321 0.87738 0.50866
 C241 C 0.26801 0.91369 0.52426
 C242 C 0.29717 0.91305 0.55364
 C243 C 0.31282 0.87612 0.56700
 C244 C 0.29840 0.83983 0.55095
 H245 H 0.25762 0.81207 0.51064
 H246 H 0.25656 0.94252 0.51418
 H247 H 0.30795 0.94143 0.56548
 H248 H 0.30991 0.81098 0.56090
   
