data_POSCAR
  _audit_creation_date              2014-09-24
  _audit_creation_method            'ToBaCCo'
  _symmetry_space_group_name_H-M    'P1'
  _symmetry_Int_Tables_number       1
  _symmetry_cell_setting            triclinic
  loop_
  _symmetry_equiv_pos_as_xyz
 x,y,z
_cell_length_a 41.0730
_cell_length_b 38.6691
_cell_length_c 39.1959
_cell_angle_alpha 89.761900
_cell_angle_beta 90.018800
_cell_angle_gamma 90.102100
loop_
  _atom_site_label
  _atom_site_type_symbol
  _atom_site_fract_x
  _atom_site_fract_y
  _atom_site_fract_z
C1 C 0.29964 0.29596 0.23730
 H2 H 0.30095 0.29642 0.26487
 C3 C 0.32096 0.31625 0.21798
 H4 H 0.33857 0.33237 0.23099
 C5 C 0.27518 0.27395 0.18712
 H6 H 0.25764 0.25707 0.17516
 C7 C 0.29604 0.29380 0.16680
 H8 H 0.29399 0.29212 0.13932
 N9 N 0.27705 0.27570 0.22172
 C10 C 0.19977 0.26202 0.29689
 H11 H 0.19803 0.23410 0.29738
 C12 C 0.17912 0.28178 0.31727
 H13 H 0.16158 0.26874 0.33346
 C14 C 0.22471 0.31267 0.27483
 H15 H 0.24219 0.32466 0.25794
 C16 C 0.20454 0.33344 0.29478
 H17 H 0.20704 0.36127 0.29314
 Zn18 Zn 0.24937 0.24878 0.24996
 N19 N 0.22231 0.27763 0.27660
 C20 C 0.27451 0.22382 0.31303
 N21 N 0.27640 0.22151 0.27847
 C22 C 0.29858 0.20057 0.26324
 C23 C 0.31947 0.18019 0.28293
 C24 C 0.29493 0.20390 0.33370
 C25 C 0.19957 0.23614 0.20284
 C26 C 0.17817 0.21655 0.18304
 C27 C 0.20227 0.16466 0.20640
 C28 C 0.22321 0.18526 0.22574
 N29 N 0.22177 0.22032 0.22334
 H30 H 0.25735 0.24125 0.32471
 H31 H 0.29995 0.19969 0.23569
 H32 H 0.33678 0.16356 0.27022
 H33 H 0.29289 0.20608 0.36114
 H34 H 0.19855 0.26408 0.20187
 H35 H 0.16085 0.22974 0.16676
 H36 H 0.20397 0.13681 0.20864
 H37 H 0.24041 0.17312 0.24281
 C38 C 0.18147 0.31803 0.31654
 C39 C 0.31925 0.31546 0.18219
 C40 C 0.17941 0.18026 0.18458
 C41 C 0.31774 0.18160 0.31870
 C42 C 0.80030 0.79701 0.23673
 H43 H 0.80165 0.79754 0.26429
 C44 C 0.82152 0.81736 0.21734
 H45 H 0.83901 0.83352 0.23049
 C46 C 0.77588 0.77476 0.18667
 H47 H 0.75839 0.75776 0.17479
 C48 C 0.79661 0.79465 0.16624
 H49 H 0.79436 0.79273 0.13879
 N50 N 0.77778 0.77662 0.22124
 C51 C 0.70057 0.76278 0.29648
 H52 H 0.69890 0.73485 0.29697
 C53 C 0.67987 0.78247 0.31687
 H54 H 0.66237 0.76938 0.33306
 C55 C 0.72538 0.81350 0.27443
 H56 H 0.74283 0.82554 0.25754
 C57 C 0.70516 0.83421 0.29438
 H58 H 0.70759 0.86205 0.29274
 Zn59 Zn 0.75021 0.74966 0.24958
 N60 N 0.72307 0.77845 0.27620
 C61 C 0.77536 0.72479 0.31267
 N62 N 0.77730 0.72249 0.27811
 C63 C 0.79951 0.70156 0.26292
 C64 C 0.82032 0.68112 0.28264
 C65 C 0.79570 0.70482 0.33337
 C66 C 0.70040 0.73674 0.20252
 C67 C 0.67904 0.71702 0.18279
 C68 C 0.70331 0.66528 0.20628
 C69 C 0.72420 0.68600 0.22554
 N70 N 0.72266 0.72105 0.22304
 H71 H 0.75819 0.74222 0.32433
 H72 H 0.80092 0.70069 0.23537
 H73 H 0.83763 0.66446 0.26996
 H74 H 0.79359 0.70695 0.36081
 H75 H 0.69930 0.76468 0.20147
 H76 H 0.66167 0.73011 0.16648
 H77 H 0.70508 0.63744 0.20859
 H78 H 0.74144 0.67396 0.24264
 C79 C 0.68213 0.81873 0.31614
 C80 C 0.81985 0.81656 0.18146
 C81 C 0.68039 0.68075 0.18443
 C82 C 0.81849 0.68247 0.31841
 C83 C 0.79956 0.29856 0.73757
 H84 H 0.80104 0.29949 0.76511
 C85 C 0.82031 0.31905 0.71777
 H86 H 0.83765 0.33580 0.73038
 C87 C 0.77531 0.27513 0.68791
 H88 H 0.75813 0.25759 0.67632
 C89 C 0.79558 0.29514 0.66713
 H90 H 0.79342 0.29292 0.63970
 N91 N 0.77734 0.27749 0.72246
 C92 C 0.70067 0.26269 0.79823
 H93 H 0.69963 0.23475 0.79921
 C94 C 0.67929 0.28223 0.81800
 H95 H 0.66196 0.26900 0.83428
 C96 C 0.72433 0.31363 0.77529
 H97 H 0.74152 0.32581 0.75820
 C98 C 0.70341 0.33417 0.79460
 H99 H 0.70510 0.36203 0.79233
 Zn100 Zn 0.75037 0.25016 0.75105
 N101 N 0.72286 0.27856 0.77771
 C102 C 0.77629 0.22513 0.81383
 N103 N 0.77806 0.22330 0.77926
 C104 C 0.80056 0.20308 0.76369
 C105 C 0.82193 0.18287 0.78297
 C106 C 0.79715 0.20539 0.83419
 C107 C 0.70059 0.23695 0.70430
 C108 C 0.67990 0.21725 0.68383
 C109 C 0.70536 0.16554 0.70596
 C110 C 0.72558 0.18625 0.72600
 N111 N 0.72319 0.22130 0.72444
 H112 H 0.75880 0.24201 0.82577
 H113 H 0.80180 0.20258 0.73612
 H114 H 0.83935 0.16690 0.76958
 H115 H 0.79488 0.20743 0.86164
 H116 H 0.69887 0.26487 0.70396
 H117 H 0.66234 0.23033 0.66775
 H118 H 0.70787 0.13770 0.70741
 H119 H 0.74311 0.17423 0.74277
 C120 C 0.68053 0.31852 0.81642
 C121 C 0.81841 0.31760 0.68201
 C122 C 0.68226 0.18101 0.68432
 C123 C 0.82048 0.18357 0.81895
 C124 C 0.29856 0.79976 0.73693
 H125 H 0.29999 0.80070 0.76447
 C126 C 0.31939 0.82020 0.71716
 H127 H 0.33673 0.83693 0.72980
 C128 C 0.27440 0.77631 0.68723
 H129 H 0.25724 0.75876 0.67561
 C130 C 0.29475 0.79627 0.66648
 H131 H 0.29266 0.79401 0.63905
 N132 N 0.27636 0.77869 0.72178
 C133 C 0.19973 0.76365 0.79755
 H134 H 0.19877 0.73570 0.79852
 C135 C 0.17831 0.78311 0.81735
 H136 H 0.16102 0.76982 0.83363
 C137 C 0.22326 0.81467 0.77463
 H138 H 0.24041 0.82690 0.75755
 C139 C 0.20229 0.83514 0.79397
 H140 H 0.20391 0.86300 0.79172
 Zn141 Zn 0.24944 0.75128 0.75035
 N142 N 0.22188 0.77959 0.77704
 C143 C 0.27544 0.72623 0.81312
 N144 N 0.27721 0.72450 0.77852
 C145 C 0.29980 0.70439 0.76287
 C146 C 0.32123 0.68423 0.78213
 C147 C 0.29642 0.70651 0.83339
 C148 C 0.19973 0.73787 0.70355
 C149 C 0.17910 0.71807 0.68311
 C150 C 0.20467 0.66648 0.70539
 C151 C 0.22482 0.68730 0.72539
 N152 N 0.22235 0.72234 0.72375
 H153 H 0.25791 0.74300 0.82514
 H154 H 0.30103 0.70395 0.73530
 H155 H 0.33883 0.66823 0.76907
 H156 H 0.29445 0.70817 0.86088
 H157 H 0.19795 0.76578 0.70315
 H158 H 0.16151 0.73106 0.66699
 H159 H 0.20724 0.63866 0.70692
 H160 H 0.24237 0.67536 0.74222
 C161 C 0.17946 0.81940 0.81579
 C162 C 0.31758 0.81869 0.68140
 C163 C 0.18154 0.68183 0.68370
 C164 C 0.31964 0.68501 0.81793
 C165 C -0.00140 0.00027 -0.00070
 C166 C 0.00126 0.49988 0.49983
 C167 C 0.50173 0.00004 0.49976
 C168 C 0.49988 0.49993 -0.00037
 N169 N 0.13822 -0.10512 -0.14597
 C170 C 0.11631 -0.12042 -0.12490
 N171 N 0.11500 -0.15541 -0.12328
 N172 N 0.13499 -0.17452 -0.14217
 C173 C 0.15705 -0.15935 -0.16335
 N174 N 0.15820 -0.12423 -0.16486
 C175 C 0.09512 -0.09982 -0.10419
 C176 C 0.07756 -0.08243 -0.08660
 C177 C 0.05697 -0.06166 -0.06540
 N178 N 0.03636 -0.07675 -0.04279
 N179 N 0.01783 -0.05744 -0.02253
 C180 C 0.01930 -0.02231 -0.02399
 N181 N 0.03983 -0.00738 -0.04700
 N182 N 0.05836 -0.02669 -0.06726
 N183 N 0.11882 0.34394 0.37917
 C184 C 0.12132 0.37889 0.37847
 N185 N 0.14341 0.39394 0.35745
 N186 N 0.16247 0.37461 0.33773
 C187 C 0.16011 0.33954 0.33831
 N188 N 0.13788 0.32463 0.35945
 C189 C 0.10081 0.39968 0.39971
 C190 C 0.08353 0.41715 0.41751
 C191 C 0.06288 0.43795 0.43860
 N192 N 0.06464 0.47291 0.43710
 N193 N 0.04523 0.49223 0.45643
 C194 C 0.02324 0.47731 0.47790
 N195 N 0.02182 0.44217 0.47945
 N196 N 0.04124 0.42286 0.46012
 N197 N 0.61945 -0.15557 0.37882
 C198 C 0.62186 -0.12062 0.37815
 N199 N 0.64391 -0.10549 0.35711
 N200 N 0.66300 -0.12475 0.33737
 C201 C 0.66073 -0.15983 0.33793
 N202 N 0.63854 -0.17482 0.35908
 C203 C 0.60132 -0.09989 0.39942
 C204 C 0.58402 -0.08248 0.41726
 C205 C 0.56335 -0.06174 0.43839
 N206 N 0.56511 -0.02678 0.43697
 N207 N 0.54570 -0.00751 0.45634
 C208 C 0.52371 -0.02248 0.47777
 N209 N 0.52229 -0.05762 0.47924
 N210 N 0.54171 -0.07688 0.45986
 N211 N 0.63946 0.39414 -0.14542
 C212 C 0.61751 0.37892 -0.12435
 N213 N 0.61610 0.34393 -0.12271
 N214 N 0.63606 0.32475 -0.14157
 C215 C 0.65816 0.33985 -0.16275
 N216 N 0.65941 0.37496 -0.16428
 C217 C 0.59635 0.39960 -0.10367
 C218 C 0.57881 0.41704 -0.08611
 C219 C 0.55824 0.43787 -0.06494
 N220 N 0.53759 0.42283 -0.04235
 N221 N 0.51907 0.44217 -0.02212
 C222 C 0.52059 0.47731 -0.02361
 N223 N 0.54116 0.49219 -0.04660
 N224 N 0.55969 0.47283 -0.06683
 N225 N -0.11697 0.12343 -0.15763
 C226 C -0.11875 0.12432 -0.12314
 N227 N -0.14092 0.14522 -0.10815
 N228 N -0.16073 0.16465 -0.12709
 C229 C -0.15921 0.16397 -0.16179
 N230 N -0.13679 0.14287 -0.17656
 C231 C -0.09767 0.10312 -0.10270
 C232 C -0.08018 0.08525 -0.08534
 C233 C -0.05968 0.06391 -0.06441
 N234 N -0.03907 0.07839 -0.04153
 N235 N -0.02058 0.05856 -0.02156
 C236 C -0.02210 0.02346 -0.02360
 N237 N -0.04263 0.00915 -0.04688
 N238 N -0.06112 0.02900 -0.06685
 N239 N -0.14226 0.64269 0.39388
 C240 C -0.12033 0.62116 0.37933
 N241 N -0.11837 0.61972 0.34485
 N242 N -0.13777 0.63921 0.32551
 C243 C -0.15984 0.66086 0.33992
 N244 N -0.16165 0.66217 0.37453
 C245 C -0.09945 0.60017 0.40017
 C246 C -0.08187 0.58254 0.41764
 C247 C -0.06087 0.56155 0.43834
 N248 N -0.03926 0.53980 0.42361
 N249 N -0.01964 0.52042 0.44280
 C250 C -0.02079 0.52214 0.47745
 N251 N -0.04274 0.54387 0.49202
 N252 N -0.06236 0.56326 0.47283
 N253 N 0.35749 0.14226 0.39411
 C254 C 0.37948 0.12083 0.37953
 N255 N 0.38130 0.11929 0.34504
 N256 N 0.36170 0.13859 0.32573
 C257 C 0.33958 0.16015 0.34018
 N258 N 0.33790 0.16156 0.37479
 C259 C 0.40056 0.10003 0.40033
 C260 C 0.41830 0.08254 0.41776
 C261 C 0.43946 0.06169 0.43841
 N262 N 0.46107 0.03997 0.42364
 N263 N 0.48077 0.02063 0.44278
 C264 C 0.47970 0.02237 0.47743
 N265 N 0.45777 0.04408 0.49206
 N266 N 0.43807 0.06342 0.47290
 N267 N 0.38421 0.62324 -0.15715
 C268 C 0.38245 0.62403 -0.12264
 N269 N 0.36023 0.64484 -0.10757
 N270 N 0.34036 0.66427 -0.12644
 C271 C 0.34195 0.66360 -0.16108
 N272 N 0.36433 0.64268 -0.17602
 C273 C 0.40359 0.60283 -0.10228
 C274 C 0.42112 0.58495 -0.08498
 C275 C 0.44166 0.56360 -0.06410
 N276 N 0.46225 0.57807 -0.04120
 N277 N 0.48074 0.55822 -0.02124
 C278 C 0.47924 0.52313 -0.02332
 N279 N 0.45873 0.50883 -0.04662
 N280 N 0.44024 0.52869 -0.06658
 N281 N -0.11725 -0.12198 0.15704
 C282 C -0.11921 -0.12286 0.12255
 N283 N -0.14136 -0.14397 0.10767
 N284 N -0.16097 -0.16360 0.12670
 C285 C -0.15923 -0.16288 0.16136
 N286 N -0.13687 -0.14162 0.17607
 C287 C -0.09838 -0.10143 0.10200
 C288 C -0.08114 -0.08340 0.08447
 C289 C -0.06099 -0.06192 0.06324
 N290 N -0.07470 -0.03962 0.04071
 N291 N -0.05609 -0.02000 0.02062
 C292 C -0.02305 -0.02201 0.02217
 N293 N -0.00948 -0.04425 0.04509
 N294 N -0.02810 -0.06389 0.06520
 N295 N -0.11842 0.38041 0.65526
 C296 C -0.12044 0.37883 0.62079
 N297 N -0.14243 0.35722 0.60635
 N298 N -0.16183 0.33777 0.62580
 C299 C -0.15994 0.33921 0.66039
 N300 N -0.13782 0.36095 0.67470
 C301 C -0.09955 0.39977 0.59985
 C302 C -0.08196 0.41735 0.58230
 C303 C -0.06093 0.43829 0.56152
 N304 N -0.06250 0.43653 0.52704
 N305 N -0.04286 0.45589 0.50777
 C306 C -0.02080 0.47763 0.52227
 N307 N -0.01956 0.47941 0.55692
 N308 N -0.03920 0.46006 0.57617
 N309 N 0.35722 -0.14207 0.60582
 C310 C 0.37925 -0.12053 0.62031
 N311 N 0.38113 -0.11887 0.65479
 N312 N 0.36156 -0.13817 0.67418
 C313 C 0.33939 -0.15984 0.65983
 N314 N 0.33765 -0.16136 0.62522
 C315 C 0.40034 -0.09976 0.59942
 C316 C 0.41809 -0.08230 0.58193
 C317 C 0.43929 -0.06148 0.56122
 N318 N 0.46102 -0.03978 0.57595
 N319 N 0.48077 -0.02048 0.55677
 C320 C 0.47963 -0.02224 0.52212
 N321 N 0.45757 -0.04394 0.50754
 N322 N 0.43782 -0.06324 0.52674
 N323 N 0.38351 0.37775 0.15704
 C324 C 0.38161 0.37695 0.12253
 N325 N 0.35941 0.35595 0.10754
 N326 N 0.33969 0.33636 0.12649
 C327 C 0.34143 0.33704 0.16112
 N328 N 0.36378 0.35815 0.17598
 C329 C 0.40255 0.39834 0.10207
 C330 C 0.41986 0.41636 0.08461
 C331 C 0.44009 0.43783 0.06345
 N332 N 0.42646 0.46013 0.04088
 N333 N 0.44513 0.47974 0.02083
 C334 C 0.47816 0.47770 0.02248
 N335 N 0.49166 0.45545 0.04543
 N336 N 0.47297 0.43583 0.06549
 N337 N 0.13855 0.10454 0.14603
 C338 C 0.11666 0.11971 0.12489
 N339 N 0.11521 0.15470 0.12335
 N340 N 0.13505 0.17392 0.14240
 C341 C 0.15709 0.15888 0.16364
 N342 N 0.15838 0.12377 0.16506
 C343 C 0.09574 0.09899 0.10390
 C344 C 0.07845 0.08152 0.08602
 C345 C 0.05826 0.06068 0.06437
 N346 N 0.02538 0.06265 0.06632
 N347 N 0.00673 0.04359 0.04586
 C348 C 0.02028 0.02194 0.02256
 N349 N 0.05332 0.01992 0.02100
 N350 N 0.07194 0.03897 0.04146
 N351 N 0.14367 0.60587 0.64242
 C352 C 0.12154 0.62087 0.62145
 N353 N 0.11895 0.65580 0.62092
 N354 N 0.13795 0.67514 0.64074
 C355 C 0.16023 0.66028 0.66184
 N356 N 0.16268 0.62522 0.66224
 C357 C 0.10107 0.60005 0.60011
 C358 C 0.08381 0.58258 0.58222
 C359 C 0.06314 0.56179 0.56106
 N360 N 0.04150 0.57689 0.53958
 N361 N 0.02203 0.55758 0.52023
 C362 C 0.02337 0.52245 0.52171
 N363 N 0.04537 0.50752 0.54313
 N364 N 0.06484 0.52683 0.56248
 N365 N 0.64422 0.10528 0.64278
 C366 C 0.62212 0.12042 0.62186
 N367 N 0.61961 0.15535 0.62145
 N368 N 0.63865 0.17457 0.64134
 C369 C 0.66089 0.15958 0.66239
 N370 N 0.66326 0.12452 0.66267
 C371 C 0.60161 0.09972 0.60043
 C372 C 0.58433 0.08235 0.58248
 C373 C 0.56364 0.06167 0.56123
 N374 N 0.54204 0.07686 0.53978
 N375 N 0.52256 0.05765 0.52035
 C376 C 0.52386 0.02251 0.52173
 N377 N 0.54581 0.00748 0.54313
 N378 N 0.56529 0.02670 0.56255
 N379 N 0.61622 0.65478 0.12333
 C380 C 0.61778 0.61981 0.12497
 N381 N 0.63972 0.60477 0.14613
 N382 N 0.65951 0.62413 0.16509
 C383 C 0.65812 0.65923 0.16357
 N384 N 0.63601 0.67413 0.14230
 C385 C 0.59690 0.59895 0.10406
 C386 C 0.57964 0.58138 0.08624
 C387 C 0.55948 0.56044 0.06466
 N388 N 0.57318 0.53871 0.04178
 N389 N 0.55458 0.51960 0.02136
 C390 C 0.52153 0.52159 0.02291
 N391 N 0.50796 0.54326 0.04618
 N392 N 0.52659 0.56238 0.06661
   
