data_POSCAR
  _audit_creation_date              2014-09-24
  _audit_creation_method            'ToBaCCo'
  _symmetry_space_group_name_H-M    'P1'
  _symmetry_Int_Tables_number       1
  _symmetry_cell_setting            triclinic
  loop_
  _symmetry_equiv_pos_as_xyz
 x,y,z
_cell_length_a 43.7815
_cell_length_b 45.3913
_cell_length_c 46.5668
_cell_angle_alpha 90.264800
_cell_angle_beta 89.894600
_cell_angle_gamma 89.660100
loop_
  _atom_site_label
  _atom_site_type_symbol
  _atom_site_fract_x
  _atom_site_fract_y
  _atom_site_fract_z
O1 O 0.31459 0.35838 0.04438
 O2 O 0.35450 0.33121 -0.01935
 O3 O 0.30640 0.36549 -0.00843
 O4 O 0.35920 0.32347 0.03600
 O5 O 0.32746 0.28593 0.03580
 O6 O 0.27934 0.32576 -0.01767
 O7 O 0.32666 0.29087 -0.01993
 O8 O 0.27995 0.32361 0.03902
 Cu9 Cu 0.33705 0.34819 0.01280
 Cu10 Cu 0.30005 0.30260 0.00938
 C11 C 0.28949 0.34682 0.05158
 C12 C 0.34855 0.30605 -0.02985
 C13 C 0.28398 0.35319 -0.02077
 C14 C 0.35218 0.29778 0.04420
 O15 O 0.67284 0.63095 0.00775
 O16 O 0.63532 0.67541 -0.04666
 O17 O 0.67728 0.63533 -0.04727
 O18 O 0.63184 0.67162 0.00857
 O19 O 0.66708 0.70574 0.01404
 O20 O 0.71344 0.66863 -0.04245
 O21 O 0.67004 0.71014 -0.04183
 O22 O 0.70928 0.66400 0.01284
 Cu23 Cu 0.65081 0.65004 -0.01997
 Cu24 Cu 0.69357 0.69070 -0.01401
 C25 C 0.69741 0.63942 0.01945
 C26 C 0.64566 0.70049 -0.05327
 C27 C 0.70346 0.64507 -0.05388
 C28 C 0.64142 0.69480 0.02086
 O29 O 0.63712 0.31622 1.03592
 O30 O 0.67615 0.35778 0.98032
 O31 O 0.63232 0.32081 0.98112
 O32 O 0.68070 0.35411 1.03573
 O33 O 0.71530 0.31906 1.02989
 O34 O 0.66493 0.28396 0.97534
 O35 O 0.71014 0.32209 0.97439
 O36 O 0.66996 0.27946 1.03086
 Cu37 Cu 0.65339 0.34082 1.00895
 Cu38 Cu 0.69355 0.29738 1.00231
 C39 C 0.64619 0.29056 1.04247
 C40 C 0.69951 0.34726 0.96771
 C41 C 0.63993 0.29680 0.96898
 C42 C 0.70658 0.34307 1.04167
 O43 O 0.34040 0.63807 0.97043
 O44 O 0.37394 0.68039 1.02882
 O45 O 0.33715 0.63673 1.02587
 O46 O 0.37651 0.68222 0.97354
 O47 O 0.33801 0.71385 0.97281
 O48 O 0.29686 0.66604 1.02515
 O49 O 0.33513 0.71171 1.02850
 O50 O 0.30080 0.66834 0.96896
 Cu51 Cu 0.36081 0.65634 0.99977
 Cu52 Cu 0.31357 0.69306 0.99888
 C53 C 0.31501 0.64569 0.95965
 C54 C 0.36080 0.70336 1.03839
 C55 C 0.31031 0.64299 1.03437
 C56 C 0.36444 0.70581 0.96435
 O57 O 0.03038 0.33701 0.36613
 O58 O -0.02518 0.38110 0.32652
 O59 O -0.02812 0.34440 0.36817
 O60 O 0.03342 0.37521 0.32542
 O61 O 0.02805 0.34036 0.29260
 O62 O -0.03273 0.30710 0.33801
 O63 O -0.03104 0.34523 0.29485
 O64 O 0.02622 0.30067 0.33474
 Cu65 Cu 0.00317 0.36294 0.34964
 Cu66 Cu -0.00285 0.31962 0.31181
 C67 C 0.03761 0.31129 0.35763
 C68 C -0.03748 0.37100 0.30391
 C69 C -0.04056 0.32027 0.36111
 C70 C 0.04083 0.36379 0.30151
 O71 O 0.02635 0.65590 0.63219
 O72 O -0.03150 0.62196 0.67737
 O73 O -0.03252 0.65810 0.63557
 O74 O 0.02727 0.61935 0.67447
 O75 O 0.03003 0.65551 0.70622
 O76 O -0.02874 0.69661 0.66435
 O77 O -0.02925 0.65898 0.70824
 O78 O 0.03059 0.69310 0.66258
 Cu79 Cu -0.00281 0.63519 0.65191
 Cu80 Cu 0.00099 0.67988 0.68849
 C81 C 0.03816 0.68033 0.63924
 C82 C -0.04026 0.63435 0.70042
 C83 C -0.04063 0.68402 0.64261
 C84 C 0.03844 0.63021 0.69724
 O85 O 1.01043 0.62773 0.33036
 O86 O 0.95353 0.67453 0.36632
 O87 O 0.95171 0.63409 0.32718
 O88 O 1.01156 0.66584 0.37115
 O89 O 1.01792 0.70220 0.34052
 O90 O 0.95962 0.66701 0.29328
 O91 O 0.95969 0.70888 0.33343
 O92 O 1.01907 0.66242 0.29836
 Cu93 Cu 0.98102 0.64714 0.35184
 Cu94 Cu 0.98979 0.68857 0.31296
 C95 C 1.02464 0.63697 0.30841
 C96 C 0.94725 0.69986 0.35643
 C97 C 0.94571 0.64440 0.30260
 C98 C 1.02445 0.68971 0.36420
 O99 O 0.98563 0.34198 0.62440
 O100 O 1.04551 0.37684 0.66702
 O101 O 1.04436 0.34143 0.62378
 O102 O 0.98632 0.37970 0.66581
 O103 O 0.98455 0.34338 0.69710
 O104 O 1.04270 0.30338 0.65301
 O105 O 1.04451 0.34019 0.69798
 O106 O 0.98377 0.30468 0.65462
 Cu107 Cu 1.01562 0.36370 0.64240
 Cu108 Cu 1.01394 0.31923 0.67896
 C109 C 0.97475 0.31727 0.63181
 C110 C 1.05520 0.36473 0.68978
 C111 C 1.05275 0.31555 0.63029
 C112 C 0.97539 0.36849 0.68844
 O113 O 0.34132 -0.03814 0.37716
 O114 O 0.37764 0.01914 0.33455
 O115 O 0.33801 0.01869 0.37536
 O116 O 0.38208 -0.03745 0.33726
 O117 O 0.34609 -0.04132 0.30432
 O118 O 0.30087 0.01575 0.34352
 O119 O 0.34173 0.01567 0.30148
 O120 O 0.30419 -0.04190 0.34539
 Cu121 Cu 0.36332 -0.00910 0.35929
 Cu122 Cu 0.31939 -0.01334 0.32043
 C123 C 0.31653 -0.04972 0.36888
 C124 C 0.36636 0.02699 0.31067
 C125 C 0.31203 0.02685 0.36633
 C126 C 0.37212 -0.04871 0.31417
 O127 O 0.62762 0.03352 0.66745
 O128 O 0.67748 -0.02329 0.63649
 O129 O 0.63423 -0.02241 0.67435
 O130 O 0.67018 0.03295 0.62942
 O131 O 0.70496 0.04162 0.66261
 O132 O 0.66713 -0.01382 0.70923
 O133 O 0.71185 -0.01520 0.67021
 O134 O 0.66129 0.04246 0.70160
 Cu135 Cu 0.64913 0.00427 0.64855
 Cu136 Cu 0.68991 0.01447 0.68933
 C137 C 0.63561 0.04751 0.68985
 C138 C 0.70327 -0.02878 0.64769
 C139 C 0.64375 -0.02714 0.69961
 C140 C 0.69351 0.04681 0.63804
 O141 O 0.32394 1.02728 0.62699
 O142 O 0.36752 0.97436 0.66886
 O143 O 0.32748 0.97066 0.62876
 O144 O 0.36298 1.03108 0.66794
 O145 O 0.32664 1.02996 0.70085
 O146 O 0.28966 0.96925 0.66015
 O147 O 0.33106 0.97263 0.70160
 O148 O 0.28612 1.02642 0.65840
 Cu149 Cu 0.34913 1.00097 0.64501
 Cu150 Cu 0.30457 0.99945 0.68359
 C151 C 0.29762 1.03570 0.63503
 C152 C 0.35721 0.96457 0.69237
 C153 C 0.30243 0.95986 0.63731
 C154 C 0.35133 1.04070 0.69113
 O155 O 0.63734 0.97051 0.32734
 O156 O 0.67142 1.02685 0.37287
 O157 O 0.63348 1.02735 0.33086
 O158 O 0.67370 0.97021 0.37030
 O159 O 0.71328 0.97289 0.34099
 O160 O 0.67169 1.03110 0.30013
 O161 O 0.71104 1.03010 0.34378
 O162 O 0.67549 0.97368 0.29644
 Cu163 Cu 0.65014 0.99848 0.35322
 Cu164 Cu 0.69683 1.00236 0.31719
 C165 C 0.65030 0.96241 0.30421
 C166 C 0.69726 1.03772 0.36675
 C167 C 0.64523 1.03890 0.30878
 C168 C 0.70022 0.96183 0.36285
 C169 C 0.87971 0.76850 0.50977
 C170 C 0.86726 0.77797 0.48386
 C171 C 0.85006 0.80400 0.48328
 C172 C 0.84534 0.82094 0.50859
 C173 C 0.85884 0.81103 0.53453
 C174 C 0.87533 0.78437 0.53529
 C175 C 0.82445 0.84732 0.50810
 C176 C 0.80767 0.85585 0.53290
 C177 C 0.78512 0.87784 0.53131
 C178 C 0.77884 0.89108 0.50496
 C179 C 0.79522 0.88340 0.48030
 C180 C 0.81876 0.86248 0.48207
 H181 H 0.89330 0.74845 0.50996
 H182 H 0.83938 0.80996 0.46321
 H183 H 0.85600 0.82341 0.55424
 H184 H 0.81061 0.84454 0.55309
 H185 H 0.76067 0.90737 0.50356
 H186 H 0.83142 0.85725 0.46274
 C187 C 0.10479 0.21701 0.49291
 C188 C 0.10931 0.20207 0.46692
 C189 C 0.12489 0.17491 0.46686
 C190 C 0.13804 0.16370 0.49246
 C191 C 0.13312 0.17967 0.51831
 C192 C 0.11601 0.20580 0.51870
 C193 C 0.15903 0.13724 0.49210
 C194 C 0.16695 0.12274 0.51801
 C195 C 0.19133 0.10268 0.51883
 C196 C 0.20597 0.09462 0.49335
 C197 C 0.19712 0.10663 0.46711
 C198 C 0.17404 0.12817 0.46647
 H199 H 0.09200 0.23754 0.49308
 H200 H 0.12745 0.16341 0.44665
 H201 H 0.14362 0.17306 0.53821
 H202 H 0.15559 0.12785 0.53803
 H203 H 0.22471 0.07890 0.49404
 H204 H 0.16951 0.13873 0.44618
 C205 C 0.10399 0.77143 0.50151
 C206 C 0.11691 0.78103 0.52722
 C207 C 0.13798 0.80410 0.52675
 C208 C 0.14549 0.81852 0.50074
 C209 C 0.13100 0.80891 0.47514
 C210 C 0.11109 0.78474 0.47530
 C211 C 0.16974 0.84194 0.50023
 C212 C 0.18568 0.84865 0.47453
 C213 C 0.21008 0.86854 0.47465
 C214 C 0.21951 0.88091 0.50063
 C215 C 0.20422 0.87500 0.52626
 C216 C 0.17866 0.85657 0.52585
 H217 H 0.08789 0.75338 0.50201
 H218 H 0.14920 0.80953 0.54667
 H219 H 0.13561 0.81945 0.45490
 H220 H 0.18040 0.83783 0.45449
 H221 H 0.23869 0.89592 0.50086
 H222 H 0.16664 0.85321 0.54581
 C223 C 0.89224 0.23233 0.49644
 C224 C 0.88716 0.21842 0.52268
 C225 C 0.86882 0.19318 0.52343
 C226 C 0.85357 0.18304 0.49841
 C227 C 0.85917 0.19794 0.47220
 C228 C 0.87897 0.22206 0.47108
 C229 C 0.83073 0.15833 0.49991
 C230 C 0.82097 0.14345 0.47467
 C231 C 0.79697 0.12309 0.47562
 C232 C 0.78425 0.11585 0.50218
 C233 C 0.79412 0.12910 0.52757
 C234 C 0.81691 0.15058 0.52641
 H235 H 0.90733 0.25116 0.49569
 H236 H 0.86607 0.18221 0.54376
 H237 H 0.84754 0.19193 0.45266
 H238 H 0.83111 0.14804 0.45407
 H239 H 0.76637 0.09945 0.50317
 H240 H 0.82247 0.16184 0.54616
 C241 C 0.49915 0.91315 0.79249
 C242 C 0.47185 0.90128 0.80262
 C243 C 0.47234 0.88295 0.82675
 C244 C 0.50002 0.87702 0.84148
 C245 C 0.52686 0.89145 0.83195
 C246 C 0.52665 0.90826 0.80680
 C247 C 0.50159 0.85341 0.86410
 C248 C 0.52971 0.83905 0.87012
 C249 C 0.53084 0.81434 0.88788
 C250 C 0.50388 0.80315 0.89929
 C251 C 0.47578 0.81683 0.89414
 C252 C 0.47477 0.84257 0.87754
 H253 H 0.49903 0.92645 0.77319
 H254 H 0.45129 0.87223 0.83253
 H255 H 0.54840 0.88869 0.84288
 H256 H 0.55077 0.84548 0.85992
 H257 H 0.50482 0.78346 0.91238
 H258 H 0.45283 0.85300 0.87432
 C259 C 0.50249 0.09752 0.21548
 C260 C 0.47440 0.10257 0.20219
 C261 C 0.47335 0.11862 0.17651
 C262 C 0.50017 0.13161 0.16512
 C263 C 0.52832 0.12580 0.17922
 C264 C 0.52952 0.10843 0.20395
 C265 C 0.49866 0.15312 0.14054
 C266 C 0.52564 0.16179 0.12603
 C267 C 0.52554 0.18612 0.10772
 C268 C 0.49802 0.20024 0.10136
 C269 C 0.47051 0.19071 0.11326
 C270 C 0.47089 0.16756 0.13317
 H271 H 0.50338 0.08448 0.23493
 H272 H 0.45142 0.12157 0.16636
 H273 H 0.54943 0.13565 0.17232
 H274 H 0.54725 0.15093 0.12973
 H275 H 0.49810 0.21888 0.08687
 H276 H 0.44967 0.16237 0.14375
 C277 C 0.49000 0.11749 0.77714
 C278 C 0.51766 0.12872 0.78708
 C279 C 0.51757 0.14742 0.81114
 C280 C 0.49020 0.15369 0.82642
 C281 C 0.46284 0.14031 0.81670
 C282 C 0.46259 0.12326 0.79150
 C283 C 0.49001 0.17536 0.85108
 C284 C 0.46262 0.18977 0.85967
 C285 C 0.46280 0.21175 0.88092
 C286 C 0.49054 0.22036 0.89294
 C287 C 0.51795 0.20654 0.88522
 C288 C 0.51749 0.18337 0.86519
 H289 H 0.48979 0.10337 0.75830
 H290 H 0.53887 0.15767 0.81692
 H291 H 0.44147 0.14348 0.82792
 H292 H 0.44110 0.18514 0.84938
 H293 H 0.49074 0.23768 0.90906
 H294 H 0.53885 0.17247 0.86028
 C295 C 0.51313 0.89141 0.21476
 C296 C 0.53999 0.88607 0.19933
 C297 C 0.53876 0.87011 0.17346
 C298 C 0.51089 0.85755 0.16401
 C299 C 0.48415 0.86337 0.18039
 C300 C 0.48510 0.88078 0.20523
 C301 C 0.50977 0.83663 0.13882
 C302 C 0.48148 0.82949 0.12580
 C303 C 0.47933 0.80584 0.10661
 C304 C 0.50571 0.79097 0.09795
 C305 C 0.53438 0.79893 0.10847
 C306 C 0.53634 0.82136 0.12927
 H307 H 0.51406 0.90448 0.23430
 H308 H 0.55974 0.86695 0.16157
 H309 H 0.46253 0.85351 0.17504
 H310 H 0.46064 0.84108 0.13123
 H311 H 0.50376 0.77297 0.08267
 H312 H 0.55839 0.82548 0.13875
 C313 C 0.77604 0.48700 0.88719
 C314 C 0.79437 0.46193 0.88369
 C315 C 0.82159 0.46396 0.86785
 C316 C 0.82951 0.49059 0.85395
 C317 C 0.81017 0.51546 0.85780
 C318 C 0.78369 0.51376 0.87451
 C319 C 0.85620 0.49200 0.83370
 C320 C 0.86932 0.51947 0.82641
 C321 C 0.89001 0.52151 0.80359
 C322 C 0.89969 0.49600 0.78943
 C323 C 0.88874 0.46836 0.79730
 C324 C 0.86680 0.46636 0.81917
 H325 H 0.75569 0.48577 0.90042
 H326 H 0.83588 0.44456 0.86586
 H327 H 0.81458 0.53602 0.84699
 H328 H 0.86264 0.53958 0.83729
 H329 H 0.91581 0.49781 0.77180
 H330 H 0.85694 0.44503 0.82333
 C331 C 0.22553 0.50583 0.11433
 C332 C 0.21598 0.47990 0.12738
 C333 C 0.19021 0.48038 0.14499
 C334 C 0.17315 0.50665 0.14942
 C335 C 0.18313 0.53273 0.13552
 C336 C 0.20983 0.53253 0.11848
 C337 C 0.14659 0.50667 0.17003
 C338 C 0.13740 0.53265 0.18487
 C339 C 0.11551 0.53144 0.20702
 C340 C 0.10363 0.50411 0.21494
 C341 C 0.11183 0.47839 0.20039
 C342 C 0.13198 0.47985 0.17716
 H343 H 0.24548 0.50503 0.10052
 H344 H 0.18469 0.46024 0.15605
 H345 H 0.17080 0.55321 0.13834
 H346 H 0.14810 0.55354 0.18049
 H347 H 0.08759 0.50267 0.23265
 H348 H 0.13706 0.45960 0.16579
 C349 C 0.78049 0.49738 0.09718
 C350 C 0.79634 0.52373 0.10080
 C351 C 0.82144 0.52449 0.11941
 C352 C 0.82911 0.49973 0.13647
 C353 C 0.81227 0.47340 0.13248
 C354 C 0.78820 0.47223 0.11275
 C355 C 0.85228 0.50229 0.16015
 C356 C 0.86606 0.47687 0.17224
 C357 C 0.88409 0.47899 0.19708
 C358 C 0.89004 0.50679 0.20879
 C359 C 0.87814 0.53230 0.19644
 C360 C 0.85901 0.53009 0.17254
 H361 H 0.76143 0.49655 0.08236
 H362 H 0.83386 0.54488 0.12133
 H363 H 0.81634 0.45420 0.14558
 H364 H 0.86210 0.45530 0.16316
 H365 H 0.90435 0.50872 0.22769
 H366 H 0.84847 0.55014 0.16491
 C367 C 0.22308 0.50892 0.89984
 C368 C 0.21454 0.53254 0.88265
 C369 C 0.19090 0.52906 0.86295
 C370 C 0.17502 0.50206 0.86073
 C371 C 0.18309 0.47877 0.87958
 C372 C 0.20693 0.48233 0.89957
 C373 C 0.15115 0.49840 0.83801
 C374 C 0.14615 0.47071 0.82475
 C375 C 0.12722 0.46854 0.80054
 C376 C 0.11360 0.49395 0.78941
 C377 C 0.11761 0.52141 0.80240
 C378 C 0.13533 0.52338 0.82732
 H379 H 0.24229 0.51176 0.91418
 H380 H 0.18593 0.54730 0.84882
 H381 H 0.17067 0.45823 0.87917
 H382 H 0.15806 0.45118 0.83204
 H383 H 0.09950 0.49228 0.77035
 H384 H 0.13781 0.54472 0.83742
 C385 C 0.26782 0.40606 0.10162
 C386 C 0.23582 0.40501 0.10069
 N387 N 0.22204 0.38200 0.08721
 C388 C 0.23883 0.36067 0.07363
 C389 C 0.27084 0.36296 0.07283
 N390 N 0.28439 0.38534 0.08748
 N391 N 0.28187 0.42940 0.11401
 C392 C 0.26539 0.45242 0.12459
 C393 C 0.23341 0.45245 0.12211
 N394 N 0.21926 0.42835 0.11077
 H395 H 0.22726 0.34346 0.06183
 H396 H 0.27720 0.47120 0.13358
 C397 C 0.75701 0.59741 0.05892
 C398 C 0.73904 0.57576 0.07199
 N399 N 0.70825 0.57691 0.06975
 C400 C 0.69442 0.59837 0.05430
 C401 C 0.71218 0.61954 0.04012
 N402 N 0.74320 0.61884 0.04308
 N403 N 0.78797 0.59558 0.06103
 C404 C 0.80169 0.57282 0.07522
 C405 C 0.78358 0.55057 0.08735
 N406 N 0.75268 0.55304 0.08561
 H407 H 0.66978 0.59834 0.05241
 H408 H 0.82636 0.57156 0.07607
 C409 C 0.75831 0.38773 0.92629
 C410 C 0.73966 0.40695 0.91050
 N411 N 0.70891 0.40432 0.91163
 C412 C 0.69571 0.38382 0.92859
 C413 C 0.71405 0.36527 0.94547
 N414 N 0.74510 0.36727 0.94360
 N415 N 0.78915 0.39138 0.92563
 C416 C 0.80203 0.41388 0.91054
 C417 C 0.78310 0.43399 0.89597
 N418 N 0.75243 0.42947 0.89603
 H419 H 0.67103 0.38272 0.92965
 H420 H 0.82651 0.41691 0.91122
 C421 C 0.25770 0.60817 0.91388
 C422 C 0.27494 0.58410 0.90371
 N423 N 0.30529 0.58269 0.90908
 C424 C 0.31911 0.60368 0.92518
 C425 C 0.30163 0.62676 0.93723
 N426 N 0.27134 0.62885 0.93069
 N427 N 0.22710 0.60894 0.90901
 C428 C 0.21282 0.58612 0.89558
 C429 C 0.22979 0.56099 0.88755
 N430 N 0.26058 0.56103 0.89129
 H431 H 0.34326 0.60147 0.92970
 H432 H 0.18821 0.58653 0.89341
 C433 C 0.07233 0.24744 0.39563
 C434 C 0.08938 0.26203 0.41675
 N435 N 0.09158 0.29177 0.41634
 C436 C 0.07671 0.30784 0.39622
 C437 C 0.05831 0.29362 0.37573
 N438 N 0.05694 0.26355 0.37563
 N439 N 0.06985 0.21757 0.39673
 C440 C 0.08304 0.20182 0.41838
 C441 C 0.09883 0.21671 0.44031
 N442 N 0.10187 0.24646 0.43850
 H443 H 0.07835 0.33162 0.39690
 H444 H 0.07993 0.17821 0.41923
 C445 C 0.08200 0.73759 0.60023
 C446 C 0.09109 0.72180 0.57565
 N447 N 0.08544 0.69256 0.57374
 C448 C 0.07022 0.67841 0.59493
 C449 C 0.05953 0.69431 0.61899
 N450 N 0.06616 0.72358 0.62129
 N451 N 0.08739 0.76704 0.60166
 C452 C 0.10068 0.78149 0.57931
 C453 C 0.10822 0.76588 0.55407
 N454 N 0.10357 0.73628 0.55322
 H455 H 0.06549 0.65517 0.59241
 H456 H 0.10373 0.80510 0.58061
 C457 C 0.89582 0.72445 0.41478
 C458 C 0.89744 0.75525 0.41255
 N459 N 0.91247 0.76730 0.38994
 C460 C 0.92676 0.74997 0.37000
 C461 C 0.92676 0.71916 0.37327
 N462 N 0.91077 0.70727 0.39541
 N463 N 0.88143 0.71219 0.43752
 C464 C 0.86958 0.72928 0.45881
 C465 C 0.87293 0.76007 0.45777
 N466 N 0.88624 0.77241 0.43424
 H467 H 0.93946 0.76019 0.35279
 H468 H 0.85903 0.71886 0.47717
 C469 C 0.93129 0.25915 0.59327
 C470 C 0.91766 0.27573 0.57138
 N471 N 0.92083 0.30539 0.57105
 C472 C 0.93772 0.31933 0.59128
 C473 C 0.95251 0.30286 0.61272
 N474 N 0.94857 0.27304 0.61344
 N475 N 0.92843 0.22931 0.59294
 C476 C 0.91307 0.21533 0.57138
 C477 C 0.90049 0.23195 0.54881
 N478 N 0.90289 0.26181 0.54981
 H479 H 0.94031 0.34300 0.59009
 H480 H 0.91193 0.19152 0.57124
 C481 C 0.40165 0.06402 0.24799
 C482 C 0.42362 0.08141 0.26180
 N483 N 0.42419 0.08302 0.29083
 C484 C 0.40438 0.06723 0.30690
 C485 C 0.38329 0.04851 0.29338
 N486 N 0.38202 0.04774 0.26408
 N487 N 0.40194 0.06204 0.21880
 C488 C 0.42374 0.07597 0.20295
 C489 C 0.44672 0.09199 0.21703
 N490 N 0.44557 0.09462 0.24611
 H491 H 0.40592 0.06838 0.33008
 H492 H 0.42413 0.07318 0.17986
 C493 C 0.59485 0.09322 0.74425
 C494 C 0.56826 0.10080 0.72917
 N495 N 0.56549 0.09322 0.70113
 C496 C 0.58778 0.07759 0.68757
 C497 C 0.61391 0.06865 0.70284
 N498 N 0.61705 0.07716 0.73083
 N499 N 0.59701 0.10026 0.77258
 C500 C 0.57343 0.11377 0.78668
 C501 C 0.54612 0.11997 0.77189
 N502 N 0.54465 0.11366 0.74332
 H503 H 0.58458 0.07133 0.66532
 H504 H 0.57536 0.11799 0.80949
 C505 C 0.39552 0.92917 0.75453
 C506 C 0.42155 0.91726 0.74106
 N507 N 0.42413 0.91809 0.71211
 C508 C 0.40235 0.93126 0.69591
 C509 C 0.37706 0.94489 0.70926
 N510 N 0.37391 0.94301 0.73836
 N511 N 0.39352 0.92865 0.78368
 C512 C 0.41678 0.91759 0.79992
 C513 C 0.44359 0.90736 0.78639
 N514 N 0.44493 0.90707 0.75722
 H515 H 0.40549 0.93222 0.67287
 H516 H 0.41512 0.91841 0.82310
 C517 C 0.61423 0.92575 0.24153
 C518 C 0.59524 0.90561 0.25562
 N519 N 0.59735 0.90218 0.28441
 C520 C 0.61687 0.91876 0.30009
 C521 C 0.63479 0.94018 0.28649
 N522 N 0.63354 0.94282 0.25731
 N523 N 0.61103 0.92966 0.21271
 C524 C 0.58901 0.91510 0.19763
 C525 C 0.56881 0.89639 0.21221
 N526 N 0.57298 0.89181 0.24076
 H527 H 0.61739 0.91618 0.32319
 H528 H 0.58604 0.91954 0.17499
 C529 C 0.38727 0.25244 0.92152
 C530 C 0.41232 0.26904 0.91223
 N531 N 0.41435 0.29786 0.91963
 C532 C 0.39291 0.31075 0.93669
 C533 C 0.36861 0.29389 0.94748
 N534 N 0.36611 0.26513 0.93918
 N535 N 0.38573 0.22342 0.91436
 C536 C 0.40858 0.21007 0.89909
 C537 C 0.43455 0.22633 0.89132
 N538 N 0.43538 0.25558 0.89778
 H539 H 0.39561 0.33364 0.94273
 H540 H 0.40735 0.18668 0.89466
 C541 C 0.60769 0.76578 0.91486
 C542 C 0.58376 0.75220 0.89987
 N543 N 0.58309 0.72249 0.89738
 C544 C 0.60463 0.70552 0.91021
 C545 C 0.62749 0.71878 0.92700
 N546 N 0.62889 0.74877 0.92842
 N547 N 0.60777 0.79562 0.91765
 C548 C 0.58448 0.81232 0.90694
 C549 C 0.55958 0.79844 0.89365
 N550 N 0.56019 0.76871 0.89008
 H551 H 0.60292 0.68179 0.90855
 H552 H 0.58445 0.83593 0.91035
 C553 C 0.40084 0.76577 0.07248
 C554 C 0.42060 0.75047 0.09095
 N555 N 0.41719 0.72112 0.09479
 C556 C 0.39566 0.70598 0.08006
 C557 C 0.37708 0.72071 0.06011
 N558 N 0.37965 0.75050 0.05719
 N559 N 0.40519 0.79509 0.06814
 C560 C 0.42897 0.80950 0.08072
 C561 C 0.44975 0.79364 0.09772
 N562 N 0.44463 0.76462 0.10273
 H563 H 0.39427 0.68233 0.08264
 H564 H 0.43266 0.83256 0.07614
 C565 C 0.60338 0.22823 0.07385
 C566 C 0.58181 0.24360 0.09059
 N567 N 0.58419 0.27313 0.09403
 C568 C 0.60658 0.28832 0.08062
 C569 C 0.62722 0.27344 0.06238
 N570 N 0.62549 0.24352 0.05982
 N571 N 0.60043 0.19860 0.07030
 C572 C 0.57650 0.18386 0.08220
 C573 C 0.55411 0.19964 0.09766
 N574 N 0.55770 0.22908 0.10172
 H575 H 0.60731 0.31203 0.08308
 H576 H 0.57422 0.16041 0.07857
 C577 C 0.23394 0.06868 0.59312
 C578 C 0.25047 0.08392 0.57210
 N579 N 0.28124 0.08572 0.57396
 C580 C 0.29655 0.07213 0.59545
 C581 C 0.28046 0.05543 0.61580
 N582 N 0.24932 0.05449 0.61447
 N583 N 0.20302 0.06680 0.59068
 C584 C 0.18809 0.07889 0.56782
 C585 C 0.20497 0.09280 0.54610
 N586 N 0.23572 0.09523 0.54915
 H587 H 0.32123 0.07337 0.59593
 H588 H 0.16359 0.07652 0.56596
 C589 C 0.75467 0.08149 0.40433
 C590 C 0.73815 0.08992 0.42885
 N591 N 0.70833 0.08277 0.43135
 C592 C 0.69420 0.06681 0.41070
 C593 C 0.71071 0.05721 0.38631
 N594 N 0.74062 0.06530 0.38351
 N595 N 0.78486 0.08832 0.40258
 C596 C 0.79927 0.10274 0.42447
 C597 C 0.78279 0.11029 0.44949
 N598 N 0.75251 0.10390 0.45057
 H599 H 0.67043 0.06117 0.41376
 H600 H 0.82345 0.10717 0.42278
 C601 C 0.72901 0.91504 0.59522
 C602 C 0.76089 0.91596 0.59820
 N603 N 0.77325 0.93277 0.61940
 C604 C 0.75520 0.94933 0.63720
 C605 C 0.72337 0.94970 0.63309
 N606 N 0.71117 0.93211 0.61239
 N607 N 0.71645 0.89888 0.57378
 C608 C 0.73434 0.88436 0.55449
 C609 C 0.76629 0.88655 0.55628
 N610 N 0.77890 0.90198 0.57845
 H611 H 0.76570 0.96319 0.65332
 H612 H 0.72376 0.87255 0.53691
 C613 C 0.25680 0.90497 0.40407
 C614 C 0.27261 0.89512 0.42842
 N615 N 0.30272 0.90103 0.43135
 C616 C 0.31770 0.91719 0.41145
 C617 C 0.30173 0.92856 0.38771
 N618 N 0.27163 0.92169 0.38430
 N619 N 0.22640 0.89944 0.40172
 C620 C 0.21097 0.88535 0.42306
 C621 C 0.22652 0.87711 0.44823
 N622 N 0.25712 0.88182 0.44986
 H623 H 0.34162 0.92203 0.41476
 H624 H 0.18655 0.88233 0.42119
 C625 C 0.09531 0.39653 0.75279
 C626 C 0.11170 0.41926 0.73959
 N627 N 0.11224 0.42126 0.71059
 C628 C 0.09613 0.40226 0.69405
 C629 C 0.07802 0.38058 0.70708
 N630 N 0.07859 0.37777 0.73626
 N631 N 0.09404 0.39546 0.78198
 C632 C 0.10733 0.41676 0.79844
 C633 C 0.12176 0.44065 0.78506
 N634 N 0.12407 0.44080 0.75593
 H635 H 0.09629 0.40498 0.67097
 H636 H 0.10459 0.41629 0.82154
 C637 C 0.07432 0.60210 0.25259
 C638 C 0.08266 0.57587 0.26638
 N639 N 0.07401 0.57122 0.29391
 C640 C 0.05664 0.59131 0.30822
 C641 C 0.04699 0.61716 0.29427
 N642 N 0.05651 0.62218 0.26677
 N643 N 0.08259 0.60611 0.22469
 C644 C 0.09804 0.58472 0.20980
 C645 C 0.10495 0.55780 0.22326
 N646 N 0.09742 0.55449 0.25143
 H647 H 0.04970 0.58666 0.33005
 H648 H 0.10325 0.58805 0.18733
 C649 C 0.92271 0.40774 0.24329
 C650 C 0.91033 0.43249 0.25732
 N651 N 0.91290 0.43524 0.28618
 C652 C 0.92807 0.41469 0.30174
 C653 C 0.94167 0.39037 0.28782
 N654 N 0.93829 0.38722 0.25882
 N655 N 0.92048 0.40564 0.21421
 C656 C 0.90695 0.42744 0.19855
 C657 C 0.89564 0.45278 0.21260
 N658 N 0.89738 0.45426 0.24174
 H659 H 0.93030 0.41784 0.32470
 H660 H 0.90624 0.42554 0.17539
 C661 C 0.92564 0.59633 0.76278
 C662 C 0.90517 0.57750 0.74868
 N663 N 0.90014 0.58055 0.72017
 C664 C 0.91557 0.60087 0.70472
 C665 C 0.93751 0.61862 0.71824
 N666 N 0.94164 0.61637 0.74720
 N667 N 0.93122 0.59233 0.79126
 C668 C 0.91799 0.56978 0.80596
 C669 C 0.89899 0.54997 0.79128
 N670 N 0.89276 0.55472 0.76310
 H671 H 0.91194 0.60208 0.68176
 H672 H 0.92367 0.56631 0.82830
 C673 C 0.72669 0.58358 0.90128
 C674 C 0.75832 0.58785 0.89917
 N675 N 0.77065 0.61307 0.90978
 C676 C 0.75293 0.63367 0.92335
 C677 C 0.72156 0.62823 0.92747
 N678 N 0.70930 0.60354 0.91560
 N679 N 0.71413 0.55844 0.89105
 C680 C 0.73194 0.53668 0.87990
 C681 C 0.76390 0.53975 0.87976
 N682 N 0.77633 0.56570 0.88874
 H683 H 0.76360 0.65307 0.93236
 H684 H 0.72134 0.51654 0.87252
 C685 C 0.24574 0.41924 0.95496
 C686 C 0.23023 0.40960 0.93037
 N687 N 0.23061 0.38032 0.92373
 C688 C 0.24648 0.36060 0.94019
 C689 C 0.26438 0.37098 0.96321
 N690 N 0.26303 0.40008 0.97003
 N691 N 0.24376 0.44772 0.96328
 C692 C 0.22837 0.46758 0.94720
 C693 C 0.21607 0.45911 0.92043
 N694 N 0.21633 0.42987 0.91307
 H695 H 0.24664 0.33750 0.93430
 H696 H 0.22708 0.49013 0.95474
 C697 C 0.25117 0.60487 0.07584
 C698 C 0.26828 0.58125 0.08667
 N699 N 0.29860 0.57947 0.08143
 C700 C 0.31279 0.59995 0.06524
 C701 C 0.29591 0.62353 0.05340
 N702 N 0.26533 0.62567 0.05944
 N703 N 0.22047 0.60567 0.08078
 C704 C 0.20620 0.58364 0.09554
 C705 C 0.22341 0.55943 0.10553
 N706 N 0.25411 0.55945 0.10102
 H707 H 0.33706 0.59744 0.06136
 H708 H 0.18169 0.58449 0.09836
 C709 C 0.73155 0.40257 0.08777
 C710 C 0.76331 0.39834 0.08808
 N711 N 0.77534 0.37352 0.07594
 C712 C 0.75714 0.35337 0.06256
 C713 C 0.72556 0.35901 0.06010
 N714 N 0.71370 0.38323 0.07349
 N715 N 0.71919 0.42722 0.09957
 C716 C 0.73724 0.44861 0.11060
 C717 C 0.76918 0.44574 0.10888
 N718 N 0.78157 0.42025 0.09823
 H719 H 0.76752 0.33433 0.05230
 H720 H 0.72680 0.46859 0.11893
 C721 C 0.91714 0.74303 0.60670
 C722 C 0.90277 0.72687 0.58491
 N723 N 0.90528 0.69719 0.58419
 C724 C 0.92240 0.68271 0.60379
 C725 C 0.93813 0.69862 0.62519
 N726 N 0.93450 0.72857 0.62653
 N727 N 0.91524 0.77301 0.60629
 C728 C 0.90035 0.78741 0.58465
 C729 C 0.88721 0.77104 0.56212
 N730 N 0.88840 0.74116 0.56344
 H731 H 0.92426 0.65897 0.60212
 H732 H 0.90016 0.81124 0.58433
 C733 C 0.91297 0.26548 0.39774
 C734 C 0.90507 0.28110 0.42276
 N735 N 0.91253 0.30986 0.42539
 C736 C 0.92862 0.32363 0.40459
 C737 C 0.93832 0.30779 0.38003
 N738 N 0.92949 0.27912 0.37689
 N739 N 0.90618 0.23632 0.39587
 C740 C 0.89280 0.22196 0.41826
 C741 C 0.88658 0.23734 0.44396
 N742 N 0.89239 0.26671 0.44511
 H743 H 0.93472 0.34648 0.40783
 H744 H 0.88889 0.19849 0.41663
 C745 C 0.08914 0.25429 0.59236
 C746 C 0.09869 0.26846 0.56721
 N747 N 0.09596 0.29806 0.56499
 C748 C 0.08299 0.31421 0.58635
 C749 C 0.07149 0.30006 0.61101
 N750 N 0.07561 0.27035 0.61370
 N751 N 0.09138 0.22446 0.59402
 C752 C 0.10192 0.20817 0.57136
 C753 C 0.10991 0.22234 0.54560
 N754 N 0.10849 0.25225 0.54453
 H755 H 0.08055 0.33775 0.58343
 H756 H 0.10243 0.18440 0.57292
 C757 C 0.06988 0.74456 0.40256
 C758 C 0.07800 0.72844 0.42701
 N759 N 0.07041 0.69972 0.42907
 C760 C 0.05419 0.68632 0.40809
 C761 C 0.04481 0.70242 0.38376
 N762 N 0.05348 0.73121 0.38132
 N763 N 0.07694 0.77371 0.40139
 C764 C 0.09125 0.78745 0.42377
 C765 C 0.09848 0.77133 0.44868
 N766 N 0.09191 0.74211 0.44916
 H767 H 0.04814 0.66341 0.41083
 H768 H 0.09577 0.81080 0.42249
 C769 C 0.60287 0.94293 0.76293
 C770 C 0.58230 0.92383 0.74933
 N771 N 0.58476 0.91859 0.72078
 C772 C 0.60624 0.93238 0.70483
 C773 C 0.62584 0.95290 0.71786
 N774 N 0.62407 0.95733 0.74686
 N775 N 0.59976 0.94832 0.79158
 C776 C 0.57655 0.93606 0.80699
 C777 C 0.55505 0.91825 0.79290
 N778 N 0.55887 0.91234 0.76447
 H779 H 0.60703 0.92837 0.68191
 H780 H 0.57403 0.94130 0.82957
 C781 C 0.40979 0.91181 0.25368
 C782 C 0.43641 0.90148 0.26714
 N783 N 0.43977 0.90477 0.29587
 C784 C 0.41815 0.91885 0.31176
 C785 C 0.39218 0.93080 0.29825
 N786 N 0.38833 0.92648 0.26947
 N787 N 0.40698 0.90893 0.22473
 C788 C 0.42996 0.89697 0.20860
 C789 C 0.45733 0.88817 0.22196
 N790 N 0.45950 0.89029 0.25103
 H791 H 0.42188 0.92178 0.33457
 H792 H 0.42756 0.89595 0.18549
 C793 C 0.60699 0.07746 0.24850
 C794 C 0.58248 0.09089 0.26312
 N795 N 0.58137 0.09019 0.29215
 C796 C 0.60305 0.07566 0.30736
 C797 C 0.62663 0.06047 0.29289
 N798 N 0.62844 0.06225 0.26368
 N799 N 0.60740 0.07773 0.21929
 C800 C 0.58393 0.08993 0.20412
 C801 C 0.55848 0.10160 0.21883
 N802 N 0.55881 0.10219 0.24803
 H803 H 0.60101 0.07474 0.33051
 H804 H 0.58422 0.08879 0.18090
 C805 C 0.38824 0.08158 0.75085
 C806 C 0.40882 0.09905 0.73541
 N807 N 0.40768 0.09956 0.70636
 C808 C 0.38755 0.08256 0.69182
 C809 C 0.36795 0.06372 0.70695
 N810 N 0.36832 0.06406 0.73628
 N811 N 0.39029 0.08068 0.78000
 C812 C 0.41256 0.09574 0.79425
 C813 C 0.43422 0.11181 0.77853
 N814 N 0.43129 0.11337 0.74951
 H815 H 0.38779 0.08279 0.66857
 H816 H 0.41442 0.09377 0.81734
 C817 C 0.60650 0.75232 0.06800
 C818 C 0.57982 0.73800 0.07688
 N819 N 0.57509 0.70956 0.06933
 C820 C 0.59547 0.69483 0.05258
 C821 C 0.62166 0.70932 0.04242
 N822 N 0.62681 0.73774 0.05080
 N823 N 0.61060 0.78110 0.07526
 C824 C 0.58883 0.79636 0.09027
 C825 C 0.56137 0.78237 0.09780
 N826 N 0.55799 0.75334 0.09121
 H827 H 0.59072 0.67226 0.04654
 H828 H 0.59217 0.81952 0.09480
 C829 C 0.39361 0.23699 0.08153
 C830 C 0.41980 0.25185 0.09093
 N831 N 0.42212 0.28128 0.08707
 C832 C 0.39978 0.29660 0.07352
 C833 C 0.37403 0.28178 0.06271
 N834 N 0.37134 0.25221 0.06738
 N835 N 0.39179 0.20734 0.08533
 C836 C 0.41529 0.19188 0.09741
 C837 C 0.44216 0.20666 0.10541
 N838 N 0.44337 0.23640 0.10223
 H839 H 0.40267 0.32003 0.07040
 H840 H 0.41368 0.16819 0.09932
 C841 C 0.59579 0.24209 0.92635
 C842 C 0.57255 0.26018 0.91534
 N843 N 0.57327 0.28962 0.91996
 C844 C 0.59580 0.30190 0.93583
 C845 C 0.61855 0.28391 0.94805
 N846 N 0.61829 0.25430 0.94265
 N847 N 0.59441 0.21247 0.92186
 C848 C 0.57052 0.20016 0.90739
 C849 C 0.54661 0.21829 0.89748
 N850 N 0.54866 0.24790 0.90149
 H851 H 0.59539 0.32545 0.93955
 H852 H 0.56956 0.17649 0.90480
 C853 C 0.40168 0.77026 0.93015
 C854 C 0.42450 0.75595 0.91403
 N855 N 0.42511 0.72618 0.91236
 C856 C 0.40447 0.70982 0.92686
 C857 C 0.38240 0.72377 0.94427
 N858 N 0.38115 0.75385 0.94516
 N859 N 0.40187 0.80021 0.93208
 C860 C 0.42428 0.81633 0.91921
 C861 C 0.44797 0.80174 0.90435
 N862 N 0.44700 0.77190 0.90187
 H863 H 0.40603 0.68603 0.92567
 H864 H 0.42446 0.84003 0.92179
 C865 C 0.75991 0.92382 0.40585
 C866 C 0.74154 0.90650 0.42375
 N867 N 0.71107 0.90510 0.41917
 C868 C 0.69778 0.92107 0.39806
 C869 C 0.71563 0.93984 0.38101
 N870 N 0.74654 0.94039 0.38495
 N871 N 0.79045 0.92535 0.41110
 C872 C 0.80319 0.91097 0.43386
 C873 C 0.78437 0.89501 0.45260
 N874 N 0.75408 0.89293 0.44670
 H875 H 0.67324 0.92008 0.39543
 H876 H 0.82737 0.91319 0.43812
 C877 C 0.24318 0.91738 0.59833
 C878 C 0.26128 0.90254 0.57794
 N879 N 0.29210 0.90428 0.57930
 C880 C 0.30581 0.92101 0.59965
 C881 C 0.28791 0.93720 0.61932
 N882 N 0.25687 0.93460 0.61853
 N883 N 0.21222 0.91593 0.59626
 C884 C 0.19863 0.90094 0.57430
 C885 C 0.21689 0.88737 0.55310
 N886 N 0.24778 0.88824 0.55589
 H887 H 0.33048 0.92256 0.59973
 H888 H 0.17398 0.90089 0.57264
 C889 C 0.24732 0.06894 0.39884
 C890 C 0.26201 0.08225 0.42228
 N891 N 0.29264 0.07959 0.42524
 C892 C 0.30933 0.06341 0.40631
 C893 C 0.29469 0.04855 0.38363
 N894 N 0.26393 0.05213 0.38011
 N895 N 0.21644 0.07140 0.39645
 C896 C 0.19959 0.08576 0.41692
 C897 C 0.21425 0.09746 0.44123
 N898 N 0.24520 0.09573 0.44293
 H899 H 0.33370 0.06128 0.40966
 H900 H 0.17495 0.08643 0.41514
 C901 C 0.75115 0.09259 0.60026
 C902 C 0.73425 0.10162 0.57625
 N903 N 0.70422 0.09499 0.57435
 C904 C 0.69035 0.07889 0.59497
 C905 C 0.70738 0.06838 0.61844
 N906 N 0.73741 0.07597 0.62083
 N907 N 0.78148 0.09885 0.60149
 C908 C 0.79577 0.11289 0.57940
 C909 C 0.77908 0.12033 0.55465
 N910 N 0.74859 0.11488 0.55412
 H911 H 0.66645 0.07349 0.59251
 H912 H 0.82015 0.11655 0.58041
 C913 C 0.91090 0.60716 0.23971
 C914 C 0.89186 0.58690 0.25364
 N915 N 0.88769 0.58879 0.28240
 C916 C 0.90269 0.60925 0.29818
 C917 C 0.92357 0.62825 0.28478
 N918 N 0.92668 0.62721 0.25562
 N919 N 0.91541 0.60461 0.21090
 C920 C 0.90260 0.58215 0.19565
 C921 C 0.88531 0.56078 0.21004
 N922 N 0.88004 0.56405 0.23865
 H923 H 0.89963 0.60955 0.32126
 H924 H 0.90755 0.57985 0.17296
 C925 C 0.92989 0.39994 0.74901
 C926 C 0.91688 0.42466 0.73566
 N927 N 0.92081 0.42882 0.70715
 C928 C 0.93801 0.40985 0.69135
 C929 C 0.95256 0.38584 0.70471
 N930 N 0.94770 0.38109 0.73329
 N931 N 0.92617 0.39640 0.77782
 C932 C 0.91082 0.41693 0.79390
 C933 C 0.89939 0.44249 0.78065
 N934 N 0.90238 0.44531 0.75174
 H935 H 0.94115 0.41415 0.66869
 H936 H 0.90914 0.41417 0.81692
 C937 C 0.07720 0.59300 0.75810
 C938 C 0.09250 0.57017 0.74349
 N939 N 0.09242 0.56934 0.71443
 C940 C 0.07690 0.58985 0.69914
 C941 C 0.06026 0.61205 0.71352
 N942 N 0.06118 0.61341 0.74281
 N943 N 0.07705 0.59318 0.78733
 C944 C 0.09100 0.57126 0.80252
 C945 C 0.10516 0.54773 0.78776
 N946 N 0.10578 0.54820 0.75857
 H947 H 0.07659 0.58816 0.67595
 H948 H 0.08992 0.57156 0.82573
 C949 C 0.07466 0.40331 0.23990
 C950 C 0.09558 0.42143 0.25429
 N951 N 0.10106 0.41730 0.28260
 C952 C 0.08568 0.39659 0.29760
 C953 C 0.06324 0.37958 0.28386
 N954 N 0.05865 0.38293 0.25506
 N955 N 0.06878 0.40825 0.21162
 C956 C 0.08221 0.43101 0.19740
 C957 C 0.10172 0.45011 0.21239
 N958 N 0.10819 0.44447 0.24037
 H959 H 0.08968 0.39456 0.32044
 H960 H 0.07642 0.43514 0.17519
   
