data_POSCAR
  _audit_creation_date              2014-09-24
  _audit_creation_method            'ToBaCCo'
  _symmetry_space_group_name_H-M    'P1'
  _symmetry_Int_Tables_number       1
  _symmetry_cell_setting            triclinic
  loop_
  _symmetry_equiv_pos_as_xyz
 x,y,z
_cell_length_a 24.1608
_cell_length_b 29.2122
_cell_length_c 18.3469
_cell_angle_alpha 92.003500
_cell_angle_beta 91.314100
_cell_angle_gamma 91.427300
loop_
  _atom_site_label
  _atom_site_type_symbol
  _atom_site_fract_x
  _atom_site_fract_y
  _atom_site_fract_z
O1 O 0.27502 0.29969 0.11408
 O2 O 0.34927 0.20296 0.19058
 O3 O 0.28221 0.21385 0.07658
 O4 O 0.33520 0.28912 0.22900
 O5 O 0.25618 0.27912 0.28545
 O6 O 0.20932 0.19580 0.14131
 O7 O 0.27845 0.18999 0.26138
 O8 O 0.19932 0.27919 0.17160
 Cu9 Cu 0.31822 0.25235 0.14627
 Cu10 Cu 0.23005 0.23204 0.22269
 C11 C 0.22466 0.30570 0.12931
 C12 C 0.32730 0.18141 0.24163
 C13 C 0.23571 0.19328 0.08239
 C14 C 0.30313 0.29907 0.28093
 O15 O 0.80482 0.29296 0.24485
 O16 O 0.74431 0.19008 0.32676
 O17 O 0.81573 0.20597 0.22804
 O18 O 0.73590 0.28019 0.35019
 O19 O 0.66902 0.28176 0.26634
 O20 O 0.74656 0.20331 0.14687
 O21 O 0.67439 0.19036 0.24719
 O22 O 0.73727 0.29030 0.16135
 Cu23 Cu 0.78138 0.24256 0.29672
 Cu24 Cu 0.69902 0.24122 0.19833
 C25 C 0.78200 0.30820 0.18773
 C26 C 0.70056 0.17150 0.29825
 C27 C 0.79490 0.19204 0.16678
 C28 C 0.69037 0.29559 0.32742
 O29 O 0.74922 0.81163 0.70958
 O30 O 0.80861 0.71470 0.80397
 O31 O 0.74772 0.72186 0.68771
 O32 O 0.80919 0.80246 0.82974
 O33 O 0.73116 0.79810 0.88985
 O34 O 0.67447 0.71268 0.75610
 O35 O 0.73487 0.71017 0.87274
 O36 O 0.67112 0.80163 0.76788
 Cu37 Cu 0.78614 0.76384 0.75091
 Cu38 Cu 0.69507 0.75558 0.82790
 C39 C 0.69956 0.82226 0.72106
 C40 C 0.78218 0.69623 0.85479
 C41 C 0.70145 0.70218 0.69968
 C42 C 0.78049 0.81314 0.88462
 O43 O 0.31379 0.80404 0.75044
 O44 O 0.26197 0.69990 0.83774
 O45 O 0.31720 0.71508 0.72174
 O46 O 0.25429 0.78644 0.86536
 O47 O 0.17686 0.78850 0.79908
 O48 O 0.23609 0.70914 0.66369
 O49 O 0.18184 0.70493 0.77806
 O50 O 0.23872 0.80235 0.67964
 Cu51 Cu 0.29505 0.75190 0.79976
 Cu52 Cu 0.20203 0.75336 0.72117
 C53 C 0.28527 0.82036 0.69905
 C54 C 0.21248 0.68574 0.82456
 C55 C 0.28618 0.69761 0.67068
 C56 C 0.20425 0.79801 0.85773
 C57 C 0.98518 0.00425 -0.00229
 C58 C 1.03959 -0.00007 -0.01737
 C59 C 1.07761 0.04027 -0.01925
 C60 C 1.06523 -0.04542 -0.02538
 C61 C 0.94624 -0.03591 -0.00412
 C62 C 0.96241 0.04823 0.02518
 C63 C 1.07396 0.07061 -0.07655
 C64 C 1.11183 0.10741 -0.07984
 C65 C 1.15258 0.11503 -0.02491
 C66 C 1.15596 0.08483 0.03284
 C67 C 1.11925 0.04723 0.03491
 C68 C 1.09579 -0.05657 -0.08742
 C69 C 1.12490 -0.09736 -0.09148
 C70 C 1.12444 -0.12701 -0.03276
 C71 C 1.09367 -0.11593 0.02878
 C72 C 1.06419 -0.07550 0.03255
 C73 C 0.91723 -0.04609 0.05888
 C74 C 0.87677 -0.08093 0.05698
 C75 C 0.86401 -0.10589 -0.00787
 C76 C 0.89356 -0.09652 -0.07107
 C77 C 0.93469 -0.06172 -0.06904
 C78 C 0.98463 0.06997 0.08922
 C79 C 0.95663 0.10558 0.12377
 C80 C 0.90563 0.11948 0.09581
 C81 C 0.88430 0.09915 0.03016
 C82 C 0.91254 0.06374 -0.00480
 H83 H 1.04245 0.06530 -0.11916
 H84 H 1.10901 0.13042 -0.12471
 H85 H 1.18751 0.08990 0.07542
 H86 H 1.12281 0.02378 0.07912
 H87 H 1.09766 -0.03338 -0.13214
 H88 H 1.14862 -0.10517 -0.13947
 H89 H 1.04201 -0.06694 0.08161
 H90 H 0.92552 -0.02659 0.10944
 H91 H 0.85442 -0.08801 0.10600
 H92 H 0.88447 -0.11558 -0.12176
 H93 H 0.95636 -0.05402 -0.11834
 H94 H 1.02175 0.05753 0.11509
 H95 H 0.97322 0.12072 0.17465
 H96 H 0.84489 0.10929 0.00753
 H97 H 0.89421 0.04694 -0.05343
 H98 H 1.09324 -0.13845 0.07443
 C99 C 0.46712 0.50364 0.48952
 C100 C 0.52386 0.50368 0.49249
 C101 C 0.55651 0.53782 0.53884
 C102 C 0.55512 0.46800 0.45204
 C103 C 0.43506 0.46238 0.46041
 C104 C 0.43542 0.54419 0.51558
 C105 C 0.60069 0.56295 0.50980
 C106 C 0.62875 0.59731 0.55232
 C107 C 0.61301 0.60658 0.62450
 C108 C 0.57037 0.58041 0.65405
 C109 C 0.54265 0.54602 0.61196
 C110 C 0.54384 0.45850 0.37747
 C111 C 0.56808 0.42140 0.34164
 C112 C 0.60467 0.39370 0.37916
 C113 C 0.61794 0.40424 0.45300
 C114 C 0.59339 0.44124 0.48909
 C115 C 0.44896 0.41833 0.48244
 C116 C 0.42629 0.37941 0.44570
 C117 C 0.38660 0.38382 0.39006
 C118 C 0.36855 0.42747 0.37257
 C119 C 0.39302 0.46662 0.40711
 C120 C 0.38719 0.53806 0.55598
 C121 C 0.35979 0.57593 0.58509
 C122 C 0.38080 0.62049 0.57542
 C123 C 0.42757 0.62686 0.53315
 C124 C 0.45361 0.58916 0.50149
 H125 H 0.61229 0.55687 0.45369
 H126 H 0.66184 0.61704 0.52858
 H127 H 0.55826 0.58704 0.70982
 H128 H 0.50954 0.52639 0.63595
 H129 H 0.51501 0.47909 0.34761
 H130 H 0.55814 0.41403 0.28452
 H131 H 0.60271 0.44799 0.54654
 H132 H 0.47974 0.41414 0.52534
 H133 H 0.44033 0.34584 0.45969
 H134 H 0.33811 0.43123 0.32908
 H135 H 0.38113 0.50013 0.38980
 H136 H 0.37176 0.50395 0.56712
 H137 H 0.32394 0.57041 0.61834
 H138 H 0.44405 0.66107 0.52513
 H139 H 0.48914 0.59515 0.46790
 H140 H 0.64661 0.38361 0.48295
 C141 C 0.02288 0.49942 0.00846
 C142 C -0.03343 0.50090 0.01393
 C143 C -0.06494 0.46751 0.05746
 C144 C -0.06631 0.53543 -0.02484
 C145 C 0.05551 0.53816 -0.02175
 C146 C 0.05434 0.45874 0.03104
 C147 C -0.11200 0.44455 0.02660
 C148 C -0.14056 0.41173 0.06568
 C149 C -0.12252 0.40138 0.13650
 C150 C -0.07651 0.42513 0.16814
 C151 C -0.04818 0.45831 0.12928
 C152 C -0.05803 0.54311 -0.09906
 C153 C -0.08673 0.57727 -0.13404
 C154 C -0.12538 0.60325 -0.09630
 C155 C -0.13560 0.59441 -0.02296
 C156 C -0.10617 0.56075 0.01250
 C157 C 0.04516 0.58383 -0.00043
 C158 C 0.07322 0.61992 -0.03261
 C159 C 0.11425 0.61105 -0.08330
 C160 C 0.12706 0.56563 -0.10193
 C161 C 0.09745 0.52943 -0.07196
 C162 C 0.10487 0.46483 0.07011
 C163 C 0.13534 0.42700 0.08979
 C164 C 0.11513 0.38246 0.07209
 C165 C 0.06487 0.37615 0.03340
 C166 C 0.03541 0.41395 0.01122
 H167 H -0.12585 0.45124 -0.02849
 H168 H -0.17601 0.39384 0.03994
 H169 H -0.06232 0.41759 0.22273
 H170 H -0.01267 0.47632 0.15474
 H171 H -0.02862 0.52318 -0.12955
 H172 H -0.07879 0.58363 -0.19069
 H173 H -0.11357 0.55513 0.06954
 H174 H 0.01452 0.59159 0.04003
 H175 H 0.06325 0.65490 -0.01774
 H176 H 0.15841 0.55830 -0.14162
 H177 H 0.10656 0.49461 -0.08899
 H178 H 0.12063 0.49890 0.08563
 H179 H 0.17392 0.43241 0.12042
 H180 H 0.04907 0.34189 0.01930
 H181 H -0.00227 0.40819 -0.02122
 H182 H -0.16529 0.61417 0.00726
 C183 C 0.52181 1.00008 0.50579
 C184 C 0.46659 1.00863 0.51119
 C185 C 0.43074 0.98134 0.55956
 C186 C 0.43791 1.04276 0.46612
 C187 C 0.55894 1.02530 0.45639
 C188 C 0.54834 0.96277 0.54679
 C189 C 0.38533 0.95593 0.52895
 C190 C 0.35635 0.92457 0.57050
 C191 C 0.37238 0.91815 0.64349
 C192 C 0.41545 0.94551 0.67536
 C193 C 0.44399 0.97740 0.63407
 C194 C 0.44363 1.04350 0.38997
 C195 C 0.41425 1.07471 0.34877
 C196 C 0.37730 1.10459 0.38285
 C197 C 0.37048 1.10302 0.45819
 C198 C 0.40072 1.07268 0.49956
 C199 C 0.56540 1.07342 0.45965
 C200 C 0.60382 1.09532 0.41511
 C201 C 0.63639 1.06905 0.36773
 C202 C 0.62940 1.02141 0.36440
 C203 C 0.59112 0.99974 0.40793
 C204 C 0.59683 0.97246 0.58886
 C205 C 0.62236 0.93797 0.62741
 C206 C 0.59925 0.89334 0.62535
 C207 C 0.55125 0.88345 0.58303
 C208 C 0.52682 0.91752 0.54243
 H209 H 0.37417 0.95862 0.47177
 H210 H 0.32314 0.90392 0.54461
 H211 H 0.42805 0.94108 0.73164
 H212 H 0.47825 0.99727 0.65911
 H213 H 0.47015 1.01957 0.36220
 H214 H 0.41956 1.07490 0.29036
 H215 H 0.39487 1.07236 0.55791
 H216 H 0.54156 1.09379 0.49742
 H217 H 0.60885 1.13226 0.41870
 H218 H 0.65429 1.00087 0.32811
 H219 H 0.58699 0.96271 0.40434
 H220 H 0.61469 1.00687 0.59223
 H221 H 0.65947 0.94628 0.65986
 H222 H 0.53342 0.84904 0.58035
 H223 H 0.49081 0.90865 0.50816
 H224 H 0.34200 1.12576 0.48503
 N225 N 1.21294 0.17182 0.02532
 N226 N 1.19018 0.15340 -0.02928
 N227 N 0.67978 0.66698 0.65027
 N228 N 0.63847 0.64265 0.66919
 N229 N -0.19284 0.34524 0.15107
 N230 N -0.14895 0.36576 0.17580
 N231 N 0.30617 0.85859 0.66075
 N232 N 0.34854 0.88187 0.68418
 N233 N -0.19401 0.65936 -0.10755
 N234 N -0.15215 0.63929 -0.13305
 N235 N 0.35888 1.14836 0.27883
 N236 N 0.34625 1.13686 0.34271
 N237 N 1.17938 -0.18328 -0.08679
 N238 N 1.15574 -0.16795 -0.03277
 N239 N 0.66497 0.33102 0.36932
 N240 N 0.62883 0.35607 0.34034
 N241 N 0.80233 -0.16184 -0.06131
 N242 N 0.82038 -0.13989 -0.00695
 N243 N 0.31885 0.33493 0.33245
 N244 N 0.36968 0.34457 0.34594
 N245 N 0.19044 0.64839 -0.13655
 N246 N 0.13996 0.64853 -0.11849
 N247 N 0.68689 1.12957 0.31439
 N248 N 0.67831 1.08841 0.32337
 N249 N 0.19665 0.34350 0.10007
 N250 N 0.14407 0.34340 0.09562
 N251 N 0.67562 0.85764 0.67993
 N252 N 0.62385 0.85765 0.66562
 N253 N 0.82555 0.16233 0.12034
 N254 N 0.87445 0.15125 0.13841
 N255 N 0.30684 0.66241 0.62354
 N256 N 0.35859 0.65885 0.61435
   
