data_POSCAR
  _audit_creation_date              2014-09-24
  _audit_creation_method            'ToBaCCo'
  _symmetry_space_group_name_H-M    'P1'
  _symmetry_Int_Tables_number       1
  _symmetry_cell_setting            triclinic
  loop_
  _symmetry_equiv_pos_as_xyz
 x,y,z
_cell_length_a 63.6054
_cell_length_b 66.7095
_cell_length_c 54.9622
_cell_angle_alpha 91.484800
_cell_angle_beta 91.055400
_cell_angle_gamma 90.492900
loop_
  _atom_site_label
  _atom_site_type_symbol
  _atom_site_fract_x
  _atom_site_fract_y
  _atom_site_fract_z
N1 N 0.59728 0.65946 0.62250
 N2 N 0.58425 0.64699 0.63282
 C3 C 0.56643 0.65674 0.63835
 C4 C 0.56857 0.67639 0.63132
 C5 C 0.58831 0.67763 0.62140
 H6 H 0.55301 0.65011 0.64700
 H7 H 0.59539 0.69065 0.61342
 Cu8 Cu 0.59182 0.61932 0.63874
 Cu9 Cu 0.62408 0.65089 0.60944
 Cu10 Cu 0.64092 0.60418 0.62602
 N11 N 0.60376 0.59535 0.65280
 N12 N 0.62312 0.58987 0.64817
 C13 C 0.62785 0.57362 0.66107
 C14 C 0.61051 0.56855 0.67446
 C15 C 0.59540 0.58260 0.66873
 H16 H 0.64288 0.56615 0.66091
 H17 H 0.57979 0.58379 0.67607
 N18 N 0.65665 0.62105 0.60381
 N19 N 0.65055 0.63917 0.59790
 C20 C 0.66434 0.64675 0.58214
 C21 C 0.67969 0.63262 0.57789
 C22 C 0.67435 0.61654 0.59189
 H23 H 0.66294 0.66116 0.57370
 H24 H 0.68258 0.60246 0.59293
 H25 H 0.61817 0.62046 0.60723
 H26 H 0.62782 0.63122 0.63738
 N27 N 0.90063 0.33094 0.12987
 N28 N 0.91426 0.34212 0.14251
 C29 C 0.93160 0.33136 0.14709
 C30 C 0.92854 0.31230 0.13707
 C31 C 0.90861 0.31246 0.12648
 H32 H 0.94546 0.33701 0.15679
 H33 H 0.90087 0.30038 0.11619
 Cu34 Cu 0.90808 0.36971 0.15155
 Cu35 Cu 0.87445 0.34204 0.11711
 Cu36 Cu 0.87581 0.39403 0.11430
 N37 N 0.89927 0.39688 0.15932
 N38 N 0.88760 0.40685 0.14388
 C39 C 0.88480 0.42560 0.15280
 C40 C 0.89488 0.42725 0.17527
 C41 C 0.90388 0.40875 0.17891
 H42 H 0.87551 0.43693 0.14399
 H43 H 0.91318 0.40434 0.19451
 N44 N 0.85680 0.37696 0.09392
 N45 N 0.85540 0.35731 0.09596
 C46 C 0.84003 0.35020 0.08082
 C47 C 0.83142 0.36618 0.06872
 C48 C 0.84242 0.38289 0.07743
 H49 H 0.83555 0.33457 0.07863
 H50 H 0.83981 0.39829 0.07255
 H51 H 0.89194 0.36673 0.11095
 H52 H 0.87214 0.36994 0.13534
 N53 N 0.40142 0.16603 -0.11847
 N54 N 0.41373 0.15454 -0.13171
 C55 C 0.43122 0.16499 -0.13697
 C56 C 0.42962 0.18402 -0.12670
 C57 C 0.41052 0.18421 -0.11514
 H58 H 0.44408 0.15932 -0.14767
 H59 H 0.40398 0.19652 -0.10467
 Cu60 Cu 0.40518 0.12744 -0.14178
 Cu61 Cu 0.37524 0.15619 -0.10504
 Cu62 Cu 0.36041 0.10755 -0.12140
 N63 N 0.39617 0.10036 -0.15153
 N64 N 0.37831 0.09299 -0.14386
 C65 C 0.37471 0.07495 -0.15466
 C66 C 0.39120 0.07071 -0.16987
 C67 C 0.40463 0.08709 -0.16743
 H68 H 0.36085 0.06579 -0.15217
 H69 H 0.41894 0.08950 -0.17732
 N70 N 0.34427 0.12454 -0.09891
 N71 N 0.34948 0.14329 -0.09315
 C72 C 0.33547 0.15069 -0.07718
 C73 C 0.32096 0.13578 -0.07262
 C74 C 0.32698 0.11946 -0.08666
 H75 H 0.33617 0.16553 -0.06879
 H76 H 0.31946 0.10486 -0.08751
 H77 H 0.38342 0.12639 -0.10580
 H78 H 0.36879 0.13578 -0.13294
 N79 N 0.09473 0.83923 0.37824
 N80 N 0.08256 0.85123 0.36575
 C81 C 0.06389 0.84204 0.36121
 C82 C 0.06458 0.82320 0.37113
 C83 C 0.08438 0.82190 0.38175
 H84 H 0.05096 0.84831 0.35098
 H85 H 0.09067 0.80938 0.39158
 Cu86 Cu 0.09299 0.87696 0.35493
 Cu87 Cu 0.12258 0.84735 0.39034
 Cu88 Cu 0.14086 0.89377 0.37285
 N89 N 0.10388 0.90263 0.34440
 N90 N 0.12287 0.90878 0.35105
 C91 C 0.12740 0.92587 0.33972
 C92 C 0.11034 0.93072 0.32523
 C93 C 0.09562 0.91573 0.32865
 H94 H 0.14222 0.93389 0.34134
 H95 H 0.08048 0.91407 0.31950
 N96 N 0.15680 0.87644 0.39480
 N97 N 0.15019 0.85848 0.40094
 C98 C 0.16433 0.85067 0.41655
 C99 C 0.18044 0.86447 0.42048
 C100 C 0.17519 0.88058 0.40643
 H101 H 0.16265 0.83640 0.42524
 H102 H 0.18394 0.89448 0.40528
 H103 H 0.11732 0.87777 0.38970
 H104 H 0.12900 0.86591 0.36198
 C105 C 0.10585 0.14409 0.11745
 C106 C 0.12524 0.13707 0.10912
 C107 C 0.13266 0.11877 0.11665
 C108 C 0.12098 0.10737 0.13273
 C109 C 0.10175 0.11414 0.14075
 C110 C 0.09408 0.13260 0.13294
 C111 C 0.09491 0.16146 0.11358
 N112 N 0.07677 0.16068 0.12616
 C113 C 0.07607 0.14309 0.13800
 C114 C 0.09435 0.10032 0.15680
 N115 N 0.10876 0.08551 0.15881
 C116 C 0.12503 0.08966 0.14406
 C117 C 0.15145 0.11545 0.10536
 N118 N 0.15563 0.13126 0.09111
 C119 C 0.13978 0.14466 0.09340
 H120 H 0.09977 0.17377 0.10245
 H121 H 0.06355 0.13845 0.14976
 H122 H 0.07994 0.10132 0.16694
 H123 H 0.13905 0.08070 0.14222
 H124 H 0.16120 0.10232 0.10705
 H125 H 0.13863 0.15860 0.08383
 C126 C 0.39301 0.84797 0.62264
 C127 C 0.37446 0.85587 0.61270
 C128 C 0.36793 0.87473 0.62012
 C129 C 0.37963 0.88584 0.63765
 C130 C 0.39805 0.87823 0.64730
 C131 C 0.40484 0.85915 0.63964
 C132 C 0.40315 0.83004 0.61895
 N133 N 0.42086 0.83014 0.63311
 C134 C 0.42207 0.84786 0.64580
 C135 C 0.40572 0.89217 0.66428
 N136 N 0.39220 0.90782 0.66524
 C137 C 0.37628 0.90410 0.64895
 C138 C 0.34995 0.87892 0.60707
 N139 N 0.34537 0.86307 0.59187
 C140 C 0.36018 0.84880 0.59527
 H141 H 0.39812 0.81788 0.60670
 H142 H 0.43451 0.85216 0.65866
 H143 H 0.41967 0.89073 0.67568
 H144 H 0.36297 0.91379 0.64592
 H145 H 0.34104 0.89265 0.60824
 H146 H 0.36083 0.83461 0.58531
 C147 C 0.88464 0.65424 0.37471
 C148 C 0.86766 0.64489 0.38595
 C149 C 0.86228 0.62527 0.37960
 C150 C 0.87354 0.61484 0.36169
 C151 C 0.89011 0.62414 0.35041
 C152 C 0.89588 0.64384 0.35721
 C153 C 0.89423 0.67273 0.37819
 N154 N 0.91115 0.67355 0.36353
 C155 C 0.91225 0.65601 0.35059
 C156 C 0.89777 0.61073 0.33339
 N157 N 0.88631 0.59351 0.33421
 C158 C 0.87157 0.59579 0.35159
 C159 C 0.84571 0.61986 0.39380
 N160 N 0.84085 0.63572 0.40856
 C161 C 0.85416 0.65112 0.40389
 H162 H 0.88981 0.68435 0.39118
 H163 H 0.92441 0.65219 0.33779
 H164 H 0.91059 0.61334 0.32114
 H165 H 0.85991 0.58462 0.35605
 H166 H 0.83779 0.60542 0.39349
 H167 H 0.85418 0.66567 0.41309
 C168 C 0.60806 0.35634 -0.11771
 C169 C 0.62774 0.36374 -0.10957
 C170 C 0.63500 0.38195 -0.11758
 C171 C 0.62280 0.39297 -0.13385
 C172 C 0.60326 0.38586 -0.14170
 C173 C 0.59579 0.36739 -0.13348
 C174 C 0.59732 0.33884 -0.11350
 N175 N 0.57880 0.33905 -0.12615
 C176 C 0.57766 0.35646 -0.13837
 C177 C 0.59540 0.39942 -0.15802
 N178 N 0.60985 0.41435 -0.16030
 C179 C 0.62658 0.41055 -0.14552
 C180 C 0.65434 0.38554 -0.10668
 N181 N 0.65897 0.36998 -0.09215
 C182 C 0.64286 0.35649 -0.09388
 H183 H 0.60259 0.32679 -0.10213
 H184 H 0.56477 0.36066 -0.15027
 H185 H 0.58065 0.39815 -0.16811
 H186 H 0.64071 0.41967 -0.14383
 H187 H 0.66419 0.39866 -0.10890
 H188 H 0.64203 0.34261 -0.08414
 C189 C -0.02857 0.26665 0.13513
 N190 N -0.02312 0.28502 0.14448
 N191 N -0.03714 0.29972 0.14541
 C192 C -0.05707 0.29668 0.13674
 N193 N -0.06252 0.27828 0.12735
 N194 N -0.04856 0.26349 0.12669
 C195 C -0.01296 0.25062 0.13381
 N196 N -0.01905 0.23112 0.13109
 N197 N -0.00478 0.21662 0.12992
 C198 C 0.01608 0.22115 0.13109
 N199 N 0.02215 0.24065 0.13366
 N200 N 0.00789 0.25511 0.13513
 C201 C 0.03186 0.20527 0.12960
 N202 N 0.05197 0.20969 0.12371
 N203 N 0.06635 0.19532 0.12239
 C204 C 0.06120 0.17606 0.12720
 N205 N 0.04109 0.17165 0.13321
 N206 N 0.02665 0.18598 0.13424
 C207 C 0.52420 0.72218 0.63554
 N208 N 0.54476 0.72647 0.63169
 N209 N 0.55888 0.71187 0.63042
 C210 C 0.55301 0.69247 0.63319
 N211 N 0.53248 0.68817 0.63724
 N212 N 0.51831 0.70276 0.63827
 C213 C 0.50858 0.73825 0.63623
 N214 N 0.48775 0.73393 0.63373
 N215 N 0.47363 0.74858 0.63368
 C216 C 0.47982 0.76805 0.63637
 N217 N 0.50065 0.77235 0.63908
 N218 N 0.51478 0.75772 0.63888
 C219 C 0.46431 0.78421 0.63592
 N220 N 0.46963 0.80305 0.64386
 N221 N 0.45562 0.81777 0.64317
 C222 C 0.43584 0.81423 0.63428
 N223 N 0.43054 0.79539 0.62628
 N224 N 0.44449 0.78063 0.62720
 C225 C 1.01836 0.77979 0.36849
 N226 N 1.01440 0.79844 0.36033
 N227 N 1.02941 0.81252 0.36110
 C228 C 1.04884 0.80854 0.37033
 N229 N 1.05272 0.78992 0.37867
 N230 N 1.03780 0.77577 0.37761
 C231 C 1.00203 0.76412 0.36729
 N232 N 1.00741 0.74450 0.36775
 N233 N 0.99266 0.73019 0.36656
 C234 C 0.97199 0.73500 0.36518
 N235 N 0.96659 0.75464 0.36487
 N236 N 0.98136 0.76895 0.36574
 C237 C 0.95586 0.71914 0.36419
 N238 N 0.93581 0.72302 0.37083
 N239 N 0.92138 0.70839 0.37056
 C240 C 0.92643 0.68945 0.36331
 N241 N 0.94643 0.68565 0.35645
 N242 N 0.96091 0.70020 0.35702
 C243 C 0.47380 0.23071 -0.12846
 N244 N 0.45362 0.23444 -0.12226
 N245 N 0.43954 0.21956 -0.12165
 C246 C 0.44509 0.20045 -0.12748
 N247 N 0.46523 0.19674 -0.13385
 N248 N 0.47936 0.21158 -0.13420
 C249 C 0.48944 0.24701 -0.12864
 N250 N 0.51030 0.24288 -0.12841
 N251 N 0.52453 0.25766 -0.12816
 C252 C 0.51842 0.27710 -0.12841
 N253 N 0.49755 0.28124 -0.12881
 N254 N 0.48332 0.26646 -0.12879
 C255 C 0.53416 0.29334 -0.12796
 N256 N 0.52879 0.31220 -0.13420
 N257 N 0.54315 0.32689 -0.13378
 C258 C 0.56334 0.32328 -0.12683
 N259 N 0.56865 0.30442 -0.12048
 N260 N 0.55436 0.28971 -0.12116
 C261 C 0.10770 -0.02273 0.27579
 N262 N 0.09002 -0.03322 0.28103
 N263 N 0.09076 -0.04802 0.29687
 C264 C 0.10917 -0.05271 0.30818
 N265 N 0.12677 -0.04212 0.30306
 N266 N 0.12606 -0.02746 0.28711
 C267 C 0.10725 -0.00676 0.25793
 N268 N 0.12552 0.00072 0.24942
 N269 N 0.12536 0.01514 0.23313
 C270 C 0.10693 0.02274 0.22487
 N271 N 0.08861 0.01533 0.23343
 N272 N 0.08877 0.00076 0.24960
 C273 C 0.10703 0.03881 0.20711
 N274 N 0.08940 0.04944 0.20222
 N275 N 0.08986 0.06438 0.18657
 C276 C 0.10794 0.06910 0.17512
 N277 N 0.12548 0.05834 0.17990
 N278 N 0.12505 0.04353 0.19566
 C279 C 0.60742 0.52287 -0.27697
 N280 N 0.59013 0.53403 -0.28181
 N281 N 0.59103 0.54887 -0.29759
 C282 C 0.60919 0.55295 -0.30923
 N283 N 0.62636 0.54166 -0.30448
 N284 N 0.62551 0.52698 -0.28860
 C285 C 0.60696 0.50683 -0.25919
 N286 N 0.62526 0.49894 -0.25098
 N287 N 0.62521 0.48442 -0.23484
 C288 C 0.60684 0.47709 -0.22644
 N289 N 0.58846 0.48489 -0.23470
 N290 N 0.58852 0.49958 -0.25072
 C291 C 0.60717 0.46097 -0.20874
 N292 N 0.58951 0.45035 -0.20374
 N293 N 0.59027 0.43538 -0.18811
 C294 C 0.60868 0.43064 -0.17678
 N295 N 0.62624 0.44139 -0.18169
 N296 N 0.62552 0.45620 -0.19743
 C297 C 0.39451 1.02153 0.78166
 N298 N 0.37644 1.02587 0.79333
 N299 N 0.37558 1.04139 0.80897
 C300 C 0.39269 1.05329 0.81337
 N301 N 0.41082 1.04900 0.80170
 N302 N 0.41174 1.03332 0.78619
 C303 C 0.39498 1.00460 0.76407
 N304 N 0.41343 0.99702 0.75602
 N305 N 0.41351 0.98158 0.74010
 C306 C 0.39513 0.97333 0.73151
 N307 N 0.37674 0.98099 0.73950
 N308 N 0.37667 0.99626 0.75556
 C309 C 0.39483 0.95644 0.71384
 N310 N 0.37674 0.95152 0.70157
 N311 N 0.37604 0.93605 0.68580
 C312 C 0.39336 0.92478 0.68181
 N313 N 0.41151 0.92966 0.69411
 N314 N 0.41226 0.94529 0.70976
 C315 C 0.89529 0.47687 0.22328
 N316 N 0.89097 0.47908 0.19922
 N317 N 0.89083 0.46326 0.18392
 C318 C 0.89528 0.44471 0.19207
 N319 N 0.89978 0.44253 0.21609
 N320 N 0.89966 0.45831 0.23145
 C321 C 0.89490 0.49423 0.24021
 N322 N 0.89256 0.49166 0.26444
 N323 N 0.89166 0.50745 0.27972
 C324 C 0.89334 0.52636 0.27136
 N325 N 0.89587 0.52891 0.24716
 N326 N 0.89650 0.51314 0.23184
 C327 C 0.89202 0.54378 0.28809
 N328 N 0.89927 0.56201 0.28148
 N329 N 0.89773 0.57792 0.29647
 C330 C 0.88865 0.57623 0.31850
 N331 N 0.88136 0.55800 0.32509
 N332 N 0.88313 0.54204 0.31022
 C333 C 0.27185 0.13667 -0.02306
 N334 N 0.27810 0.11921 -0.03375
 N335 N 0.29362 0.11905 -0.04966
 C336 C 0.30360 0.13631 -0.05536
 N337 N 0.29740 0.15381 -0.04465
 N338 N 0.28173 0.15400 -0.02884
 C339 C 0.25480 0.13653 -0.00542
 N340 N 0.24569 0.15381 0.00242
 N341 N 0.23004 0.15339 0.01824
 C342 C 0.22309 0.13569 0.02691
 N343 N 0.23229 0.11846 0.01915
 N344 N 0.24779 0.11886 0.00323
 C345 C 0.20579 0.13493 0.04420
 N346 N 0.20130 0.11756 0.05540
 N347 N 0.18536 0.11651 0.07068
 C348 C 0.17320 0.13275 0.07524
 N349 N 0.17769 0.15016 0.06405
 N350 N 0.19376 0.15125 0.04886
 C351 C 0.72903 0.63505 0.52879
 N352 N 0.72419 0.61772 0.53989
 N353 N 0.70861 0.61706 0.55570
 C354 C 0.69720 0.63367 0.56089
 N355 N 0.70202 0.65103 0.54980
 N356 N 0.71771 0.65173 0.53408
 C357 C 0.74601 0.63552 0.51106
 N358 N 0.75305 0.65314 0.50227
 N359 N 0.76838 0.65339 0.48605
 C360 C 0.77711 0.63600 0.47794
 N361 N 0.77003 0.61840 0.48671
 N362 N 0.75482 0.61817 0.50302
 C363 C 0.79380 0.63608 0.45984
 N364 N 0.80000 0.61863 0.44907
 N365 N 0.81505 0.61855 0.43256
 C366 C 0.82459 0.63591 0.42630
 N367 N 0.81845 0.65338 0.43714
 N368 N 0.80327 0.65347 0.45356
 C369 C 0.78136 0.36539 0.01830
 N370 N 0.79242 0.38253 0.02334
 N371 N 0.80839 0.38272 0.03934
 C372 C 0.81397 0.36576 0.05083
 N373 N 0.80299 0.34857 0.04573
 N374 N 0.78693 0.34839 0.02977
 C375 C 0.76350 0.36543 0.00097
 N376 N 0.75103 0.34894 -0.00255
 N377 N 0.73458 0.34925 -0.01792
 C378 C 0.73007 0.36605 -0.03037
 N379 N 0.74261 0.38248 -0.02692
 N380 N 0.75899 0.38219 -0.01151
 C381 C 0.71174 0.36671 -0.04697
 N382 N 0.70813 0.38323 -0.06026
 N383 N 0.69130 0.38416 -0.07493
 C384 C 0.67739 0.36863 -0.07683
 N385 N 0.68102 0.35205 -0.06358
 N386 N 0.69791 0.35110 -0.04894
 C387 C 0.23090 0.86181 0.47011
 N388 N 0.21915 0.84515 0.46461
 N389 N 0.20312 0.84589 0.44868
 C390 C 0.19840 0.86328 0.43756
 N391 N 0.21026 0.87986 0.44293
 N392 N 0.22616 0.87915 0.45896
 C393 C 0.24815 0.86141 0.48821
 N394 N 0.25691 0.87884 0.49687
 N395 N 0.27235 0.87874 0.51354
 C396 C 0.27974 0.86119 0.52206
 N397 N 0.27107 0.84370 0.51333
 N398 N 0.25548 0.84381 0.49676
 C399 C 0.29673 0.86137 0.54051
 N400 N 0.30711 0.84433 0.54613
 N401 N 0.32274 0.84481 0.56266
 C402 C 0.32841 0.86230 0.57429
 N403 N 0.31793 0.87927 0.56873
 N404 N 0.30245 0.87882 0.55211
   
