data_POSCAR
  _audit_creation_date              2014-09-24
  _audit_creation_method            'ToBaCCo'
  _symmetry_space_group_name_H-M    'P1'
  _symmetry_Int_Tables_number       1
  _symmetry_cell_setting            triclinic
  loop_
  _symmetry_equiv_pos_as_xyz
 x,y,z
_cell_length_a 47.7908
_cell_length_b 48.1887
_cell_length_c 41.4811
_cell_angle_alpha 90.002300
_cell_angle_beta 89.889800
_cell_angle_gamma 96.708600
loop_
  _atom_site_label
  _atom_site_type_symbol
  _atom_site_fract_x
  _atom_site_fract_y
  _atom_site_fract_z
C1 C -0.09316 0.32333 -0.00560
 C2 C -0.09334 0.32126 0.02734
 C3 C -0.07017 0.30796 0.03579
 N4 N -0.05548 0.30249 0.00908
 C5 C -0.06952 0.31189 -0.01622
 C6 C -0.06350 0.30000 0.06754
 C7 C -0.03654 0.29259 0.07574
 C8 C -0.03053 0.27847 0.10363
 C9 C -0.00239 0.27526 0.10260
 C10 C 0.00814 0.28732 0.07405
 N11 N -0.01275 0.29805 0.05792
 C12 C 0.03680 0.29002 0.06483
 C13 C 0.04591 0.29770 0.03337
 C14 C 0.07340 0.30679 0.02448
 C15 C 0.07346 0.30951 -0.00840
 C16 C 0.04631 0.30062 -0.01881
 N17 N 0.02939 0.29395 0.00690
 C18 C 0.03757 0.29731 -0.05145
 C19 C 0.00871 0.29629 -0.06033
 C20 C -0.00222 0.28838 -0.09044
 C21 C -0.03033 0.29158 -0.08981
 C22 C -0.03632 0.30057 -0.05909
 N23 N -0.01234 0.30373 -0.04139
 C24 C -0.06292 0.30755 -0.04883
 H25 H -0.10876 0.33217 -0.02001
 H26 H -0.10887 0.32869 0.04317
 H27 H -0.01000 0.31307 -0.01881
 H28 H -0.04493 0.27089 0.12268
 H29 H 0.00898 0.26532 0.12101
 H30 H 0.09162 0.31125 0.03979
 H31 H 0.09157 0.31719 -0.02287
 H32 H -0.04443 0.28785 -0.11007
 H33 H -0.01031 0.31057 0.03744
 H34 H 0.00866 0.28098 -0.11104
 C35 C 0.42435 0.81283 0.48549
 C36 C 0.42393 0.81078 0.51843
 C37 C 0.45171 0.81558 0.52853
 N38 N 0.46907 0.82069 0.50289
 C39 C 0.45237 0.81886 0.47652
 C40 C 0.46052 0.81603 0.56100
 C41 C 0.48915 0.81713 0.57005
 C42 C 0.49962 0.82426 0.60047
 C43 C 0.52762 0.82019 0.60025
 C44 C 0.53354 0.81089 0.56962
 N45 N 0.51001 0.80920 0.55131
 C46 C 0.55955 0.80225 0.56008
 C47 C 0.56690 0.79891 0.52738
 C48 C 0.58958 0.78595 0.51655
 C49 C 0.59024 0.78879 0.48365
 C50 C 0.56771 0.80302 0.47543
 N51 N 0.55351 0.80927 0.50218
 C52 C 0.56137 0.81113 0.44384
 C53 C 0.53540 0.82068 0.43568
 C54 C 0.53014 0.83453 0.40741
 C55 C 0.50193 0.83789 0.40757
 C56 C 0.49082 0.82621 0.43604
 N57 N 0.51135 0.81587 0.45309
 C58 C 0.46199 0.82351 0.44456
 H59 H 0.40607 0.80996 0.46998
 H60 H 0.40528 0.80604 0.53317
 H61 H 0.50834 0.80322 0.47341
 H62 H 0.48820 0.83130 0.62087
 H63 H 0.54193 0.82346 0.62045
 H64 H 0.60409 0.77539 0.53072
 H65 H 0.60539 0.78095 0.46761
 H66 H 0.49083 0.84767 0.38878
 H67 H 0.50749 0.79978 0.52879
 H68 H 0.54497 0.84128 0.38846
 C69 C 1.07671 0.69741 -0.00625
 C70 C 1.07519 0.69649 0.02679
 C71 C 1.05850 0.71676 0.03611
 N72 N 1.04926 0.72961 0.00986
 C73 C 1.06091 0.71823 -0.01604
 C74 C 1.05234 0.72390 0.06828
 C75 C 1.02607 0.73337 0.07600
 C76 C 1.01937 0.74536 0.10508
 C77 C 0.99126 0.74876 0.10390
 C78 C 0.98152 0.73938 0.07392
 N79 N 1.00285 0.73006 0.05704
 C80 C 0.95315 0.73798 0.06377
 C81 C 0.94518 0.73664 0.03093
 C82 C 0.91791 0.73692 0.01961
 C83 C 0.91968 0.73875 -0.01328
 C84 C 0.94797 0.73956 -0.02115
 N85 N 0.96349 0.73859 0.00594
 C86 C 0.95934 0.74436 -0.05240
 C87 C 0.98850 0.74616 -0.05902
 C88 C 1.00127 0.75793 -0.08663
 C89 C 1.02907 0.75345 -0.08536
 C90 C 1.03255 0.73857 -0.05723
 N91 N 1.00773 0.73453 -0.04113
 C92 C 1.05738 0.72708 -0.04820
 H93 H 1.08747 0.68369 -0.02132
 H94 H 1.08468 0.68204 0.04215
 H95 H 1.00352 0.72157 -0.02120
 H96 H 1.03304 0.75108 0.12534
 H97 H 0.97947 0.75724 0.12308
 H98 H 0.89874 0.73723 0.03338
 H99 H 0.90214 0.74067 -0.02922
 H100 H 1.04475 0.76028 -0.10340
 H101 H 1.00101 0.71918 0.03532
 H102 H 0.99165 0.76851 -0.10595
 C103 C 0.56029 0.18387 0.49992
 C104 C 0.55856 0.18302 0.53292
 C105 C 0.53235 0.19060 0.54099
 N106 N 0.51789 0.19572 0.51412
 C107 C 0.53499 0.19177 0.48899
 C108 C 0.52298 0.19535 0.57257
 C109 C 0.49412 0.19526 0.57994
 C110 C 0.48357 0.20424 0.60880
 C111 C 0.45469 0.19915 0.60693
 C112 C 0.44840 0.18728 0.57693
 N113 N 0.47254 0.18493 0.56069
 C114 C 0.42106 0.17748 0.56592
 C115 C 0.41526 0.17221 0.53296
 C116 C 0.39121 0.15702 0.52075
 C117 C 0.39288 0.15938 0.48776
 C118 C 0.41788 0.17598 0.48100
 N119 N 0.43163 0.18356 0.50863
 C120 C 0.42697 0.18586 0.45021
 C121 C 0.45544 0.19597 0.44407
 C122 C 0.46512 0.21199 0.41766
 C123 C 0.49408 0.21559 0.41950
 C124 C 0.50128 0.20138 0.44676
 N125 N 0.47760 0.18975 0.46176
 C126 C 0.52899 0.19815 0.45675
 H127 H 0.57824 0.17945 0.48567
 H128 H 0.57486 0.17775 0.54912
 H129 H 0.47672 0.17581 0.48105
 H130 H 0.49540 0.21340 0.62915
 H131 H 0.44004 0.20375 0.62557
 H132 H 0.37423 0.14547 0.53418
 H133 H 0.37746 0.14996 0.47076
 H134 H 0.50810 0.22748 0.40273
 H135 H 0.47420 0.17424 0.53908
 H136 H 0.45265 0.22033 0.39904
 C137 C 0.68707 -0.08093 -0.04426
 C138 C 0.68283 -0.08423 -0.01177
 C139 C 0.69521 -0.05992 0.00270
 N140 N 0.70644 -0.04164 -0.01993
 C141 C 0.70184 -0.05468 -0.04862
 C142 C 0.69689 -0.05510 0.03635
 C143 C 0.70186 -0.02773 0.04907
 C144 C 0.71073 -0.02119 0.08029
 C145 C 0.71254 0.00732 0.08315
 C146 C 0.70485 0.01755 0.05359
 N147 N 0.69824 -0.00398 0.03297
 C148 C 0.70201 0.04587 0.04726
 C149 C 0.69861 0.05639 0.01589
 C150 C 0.69135 0.08272 0.00891
 C151 C 0.69276 0.08561 -0.02385
 C152 C 0.70187 0.06132 -0.03604
 N153 N 0.70515 0.04337 -0.01160
 C154 C 0.70939 0.05696 -0.06866
 C155 C 0.71644 0.03059 -0.07923
 C156 C 0.73453 0.02643 -0.10456
 C157 C 0.73498 -0.00188 -0.10754
 C158 C 0.71773 -0.01437 -0.08344
 N159 N 0.70676 0.00556 -0.06599
 C160 C 0.71210 -0.04353 -0.07849
 H161 H 0.67979 -0.09602 -0.06261
 H162 H 0.67157 -0.10234 -0.00020
 H163 H 0.69161 0.00208 -0.04787
 H164 H 0.71566 -0.03539 0.09910
 H165 H 0.71855 0.01908 0.10477
 H166 H 0.68583 0.09855 0.02539
 H167 H 0.68789 0.10390 -0.03682
 H168 H 0.74731 -0.01204 -0.12490
 H169 H 0.68920 -0.00284 0.01027
 H170 H 0.74691 0.04212 -0.11891
 C171 C 0.24725 0.40510 0.49349
 C172 C 0.24690 0.40488 0.52654
 C173 C 0.24808 0.43250 0.53634
 N174 N 0.24949 0.44950 0.51036
 C175 C 0.24861 0.43285 0.48411
 C176 C 0.25046 0.44183 0.56863
 C177 C 0.25186 0.47028 0.57744
 C178 C 0.26070 0.48093 0.60726
 C179 C 0.25658 0.50866 0.60732
 C180 C 0.24506 0.51421 0.57765
 N181 N 0.24237 0.49072 0.55953
 C182 C 0.23508 0.53974 0.56919
 C183 C 0.22896 0.54655 0.53698
 C184 C 0.21361 0.56782 0.52750
 C185 C 0.21379 0.56801 0.49435
 C186 C 0.22927 0.54686 0.48471
 N187 N 0.23845 0.53376 0.51080
 C188 C 0.23573 0.54039 0.45247
 C189 C 0.24597 0.51502 0.44382
 C190 C 0.25786 0.50983 0.41419
 C191 C 0.26215 0.48214 0.41398
 C192 C 0.25302 0.47115 0.44359
 N193 N 0.24321 0.49135 0.46165
 C194 C 0.25160 0.44260 0.45202
 H195 H 0.24745 0.38687 0.47831
 H196 H 0.24678 0.38646 0.54147
 H197 H 0.23185 0.48833 0.48300
 H198 H 0.26891 0.46986 0.62716
 H199 H 0.26114 0.52296 0.62725
 H200 H 0.20302 0.58151 0.54279
 H201 H 0.20336 0.58187 0.47918
 H202 H 0.27061 0.47132 0.39400
 H203 H 0.23126 0.48796 0.53803
 H204 H 0.26254 0.52433 0.39446
 C205 C 0.29119 0.91859 0.02501
 C206 C 0.29234 0.91810 -0.00801
 C207 C 0.30730 0.94318 -0.01755
 N208 N 0.31472 0.95921 0.00847
 C209 C 0.30512 0.94409 0.03447
 C210 C 0.31428 0.95136 -0.04959
 C211 C 0.31886 0.98005 -0.05790
 C212 C 0.33177 0.99071 -0.08596
 C213 C 0.32879 1.01870 -0.08669
 C214 C 0.31432 1.02461 -0.05887
 N215 N 0.30874 1.00093 -0.04126
 C216 C 0.30330 1.05011 -0.05221
 C217 C 0.29833 1.05866 -0.02004
 C218 C 0.29327 1.08534 -0.01096
 C219 C 0.29361 1.08610 0.02198
 C220 C 0.29878 1.05983 0.03254
 N221 N 0.30241 1.04346 0.00666
 C222 C 0.30383 1.05258 0.06519
 C223 C 0.31295 1.02650 0.07376
 C224 C 0.32413 1.02009 0.10348
 C225 C 0.32565 0.99178 0.10385
 C226 C 0.31544 0.98154 0.07448
 N227 N 0.30805 1.00273 0.05619
 C228 C 0.30984 0.95298 0.06656
 H229 H 0.28062 0.90235 0.04019
 H230 H 0.28250 0.90148 -0.02316
 H231 H 0.29631 1.00016 0.03510
 H232 H 0.34193 0.97948 -0.10436
 H233 H 0.33636 1.03278 -0.10590
 H234 H 0.29184 1.10335 -0.02611
 H235 H 0.29234 1.10478 0.03605
 H236 H 0.33266 0.97998 0.12388
 H237 H 0.29525 0.99827 -0.02147
 H238 H 0.32990 1.03391 0.12350
 C239 C 0.81342 0.43127 0.50168
 C240 C 0.81202 0.42963 0.46869
 C241 C 0.80016 0.45294 0.45827
 N242 N 0.79454 0.46890 0.48378
 C243 C 0.80271 0.45576 0.51036
 C244 C 0.79311 0.45845 0.42595
 C245 C 0.78719 0.48510 0.41544
 C246 C 0.77650 0.49072 0.38536
 C247 C 0.77595 0.51914 0.38363
 C248 C 0.78581 0.53013 0.41292
 N249 N 0.79288 0.50928 0.43201
 C250 C 0.79007 0.55891 0.42059
 C251 C 0.79469 0.56899 0.45230
 C252 C 0.80150 0.59686 0.46041
 C253 C 0.80111 0.59820 0.49339
 C254 C 0.79394 0.57111 0.50440
 N255 N 0.78998 0.55331 0.47922
 C256 C 0.78895 0.56362 0.53703
 C257 C 0.78620 0.53548 0.54776
 C258 C 0.77588 0.52617 0.57760
 C259 C 0.77892 0.49817 0.57940
 C260 C 0.79011 0.49079 0.55017
 N261 N 0.79470 0.51372 0.53118
 C262 C 0.79785 0.46410 0.54234
 H263 H 0.82111 0.41595 0.51742
 H264 H 0.81886 0.41305 0.45411
 H265 H 0.80594 0.51499 0.50962
 H266 H 0.77009 0.47601 0.36631
 H267 H 0.76931 0.53026 0.36290
 H268 H 0.80577 0.61453 0.44432
 H269 H 0.80536 0.61706 0.50758
 H270 H 0.77351 0.48501 0.60011
 H271 H 0.80397 0.51183 0.45353
 H272 H 0.76717 0.53817 0.59637
 O273 O 0.22605 0.26295 0.21773
 O274 O 0.27205 0.23421 0.27731
 O275 O 0.25370 0.21900 0.22033
 O276 O 0.24435 0.27731 0.27522
 O277 O 0.20686 0.25276 0.29641
 O278 O 0.21647 0.19435 0.24193
 O279 O 0.23486 0.20996 0.29950
 O280 O 0.18907 0.23780 0.23915
 Cu281 Cu 0.25273 0.25082 0.24532
 Cu282 Cu 0.20811 0.22113 0.27135
 C283 C 0.19972 0.25530 0.21834
 C284 C 0.26121 0.21755 0.29886
 C285 C 0.23669 0.19672 0.22189
 C286 C 0.22410 0.27486 0.29529
 O287 O 0.73943 0.78690 0.21172
 O288 O 0.74383 0.72600 0.26425
 O289 O 0.77112 0.74735 0.21452
 O290 O 0.71179 0.76648 0.26298
 O291 O 0.68178 0.74067 0.23172
 O292 O 0.74132 0.72170 0.18282
 O293 O 0.71362 0.70042 0.23296
 O294 O 0.70865 0.76152 0.18088
 Cu295 Cu 0.74437 0.75932 0.24170
 Cu296 Cu 0.70831 0.72853 0.20393
 C297 C 0.72354 0.78446 0.18717
 C298 C 0.72972 0.70277 0.25733
 C299 C 0.76634 0.73140 0.19030
 C300 C 0.68672 0.75673 0.25579
 O301 O 0.70343 0.23226 0.20583
 O302 O 0.72932 0.28593 0.26558
 O303 O 0.74963 0.26622 0.21306
 O304 O 0.68274 0.25215 0.25771
 O305 O 0.70117 0.22069 0.28713
 O306 O 0.76723 0.23327 0.24097
 O307 O 0.74761 0.25384 0.29414
 O308 O 0.72117 0.20025 0.23508
 Cu309 Cu 0.71451 0.26245 0.23272
 Cu310 Cu 0.73618 0.22391 0.26734
 C311 C 0.70804 0.20712 0.21028
 C312 C 0.74279 0.27894 0.29009
 C313 C 0.76954 0.25167 0.21894
 C314 C 0.68062 0.23404 0.28006
 O315 O 0.22634 0.74243 0.23453
 O316 O 0.29024 0.76464 0.28252
 O317 O 0.26951 0.78014 0.22897
 O318 O 0.24596 0.72853 0.29107
 O319 O 0.26786 0.69686 0.26599
 O320 O 0.29241 0.74925 0.20381
 O321 O 0.31224 0.73287 0.25769
 O322 O 0.24923 0.71150 0.20946
 Cu323 Cu 0.25554 0.75688 0.26186
 Cu324 Cu 0.28249 0.71931 0.23177
 C325 C 0.22733 0.72365 0.21313
 C326 C 0.31221 0.75258 0.27791
 C327 C 0.28520 0.77375 0.20608
 C328 C 0.25328 0.70413 0.28956
 O329 O 0.75447 0.21353 0.73366
 O330 O 0.77022 0.28349 0.69697
 O331 O 0.79303 0.25549 0.74228
 O332 O 0.73222 0.24125 0.68838
 O333 O 0.70460 0.25685 0.72535
 O334 O 0.76656 0.27455 0.77780
 O335 O 0.74176 0.30037 0.73204
 O336 O 0.72892 0.23154 0.77095
 Cu337 Cu 0.76529 0.24677 0.71172
 Cu338 Cu 0.73283 0.26768 0.75520
 C339 C 0.73929 0.21077 0.75888
 C340 C 0.75799 0.30363 0.70776
 C341 C 0.79020 0.26727 0.76924
 C342 C 0.70806 0.24635 0.69772
 O343 O 0.31739 0.73041 0.76051
 O344 O 0.25585 0.71137 0.81237
 O345 O 0.27186 0.69549 0.75513
 O346 O 0.30005 0.74801 0.81547
 O347 O 0.27755 0.77943 0.79083
 O348 O 0.24992 0.72755 0.73091
 O349 O 0.23316 0.74284 0.78811
 O350 O 0.29533 0.76234 0.73617
 Cu351 Cu 0.28838 0.71801 0.78827
 Cu352 Cu 0.26157 0.75609 0.75908
 C353 C 0.31699 0.74961 0.73968
 C354 C 0.23428 0.72418 0.80962
 C355 C 0.25661 0.70290 0.73230
 C356 C 0.29356 0.77278 0.81320
 O357 O 0.23962 0.27189 0.73979
 O358 O 0.24901 0.21079 0.79001
 O359 O 0.26528 0.22755 0.73321
 O360 O 0.22301 0.25479 0.79756
 O361 O 0.18431 0.23298 0.77597
 O362 O 0.22674 0.20503 0.71204
 O363 O 0.20990 0.18843 0.76996
 O364 O 0.20110 0.24926 0.71871
 Cu365 Cu 0.24805 0.24363 0.76726
 Cu366 Cu 0.20163 0.21659 0.74209
 C367 C 0.21897 0.27086 0.72041
 C368 C 0.23102 0.18925 0.78861
 C369 C 0.25324 0.21166 0.71170
 C370 C 0.19648 0.24847 0.79775
 O371 O 0.75180 0.71310 0.73207
 O372 O 0.74388 0.77772 0.77698
 O373 O 0.72318 0.75576 0.72368
 O374 O 0.77247 0.73541 0.78508
 O375 O 0.80812 0.75671 0.75715
 O376 O 0.75863 0.77916 0.69741
 O377 O 0.78079 0.79933 0.75140
 O378 O 0.78628 0.73576 0.70354
 Cu379 Cu 0.74419 0.74324 0.75707
 Cu380 Cu 0.78696 0.76992 0.72445
 C381 C 0.77033 0.71348 0.71008
 C382 C 0.76138 0.79929 0.77233
 C383 C 0.73248 0.77126 0.70034
 C384 C 0.79869 0.74271 0.78159
 C385 C 0.30056 0.07201 0.09008
 C386 C 0.27697 0.08651 0.09226
 C387 C 0.27407 0.10750 0.11735
 N388 N 0.24826 0.11496 0.12446
 N389 N 0.24539 0.13469 0.14632
 C390 C 0.26829 0.14791 0.16158
 N391 N 0.29414 0.14062 0.15427
 N392 N 0.29698 0.12067 0.13266
 C393 C 0.26548 0.17045 0.18482
 C394 C 0.23996 0.17339 0.19997
 H395 H 0.25957 0.08165 0.07571
 H396 H 0.28403 0.18468 0.19066
 H397 H 0.31443 0.07329 0.11071
 H398 H 0.22204 0.15774 0.19635
 C399 C 0.78433 0.58672 0.55953
 C400 C 0.79583 0.58985 0.59035
 C401 C 0.79325 0.61532 0.60915
 N402 N 0.79288 0.61456 0.64186
 N403 N 0.79025 0.63764 0.65882
 C404 C 0.78832 0.66234 0.64365
 N405 N 0.78918 0.66316 0.61100
 N406 N 0.79141 0.64005 0.59406
 C407 C 0.78571 0.68806 0.66188
 C408 C 0.77334 0.68761 0.69230
 H409 H 0.80693 0.57370 0.60077
 H410 H 0.79203 0.70792 0.65018
 H411 H 0.77318 0.60335 0.55025
 H412 H 0.76446 0.66789 0.70269
 C413 C 0.69394 0.92228 0.05824
 C414 C 0.70500 0.89718 0.05247
 C415 C 0.70352 0.87515 0.07700
 N416 N 0.72599 0.86092 0.08199
 N417 N 0.72499 0.84106 0.10443
 C418 C 0.70131 0.83441 0.12228
 N419 N 0.67865 0.84829 0.11690
 N420 N 0.67982 0.86853 0.09485
 C421 C 0.69999 0.81207 0.14644
 C422 C 0.72331 0.80830 0.16524
 H423 H 0.71796 0.89501 0.03138
 H424 H 0.68022 0.79903 0.15027
 H425 H 0.68630 0.92558 0.08240
 H426 H 0.74189 0.82349 0.16412
 C427 C 0.25277 0.42109 0.59455
 C428 C 0.23036 0.40083 0.60155
 C429 C 0.23182 0.37973 0.62687
 N430 N 0.20993 0.35947 0.63111
 N431 N 0.21112 0.33976 0.65341
 C432 C 0.23424 0.33963 0.67237
 N433 N 0.25607 0.36001 0.66828
 N434 N 0.25490 0.37970 0.64593
 C435 C 0.23626 0.31744 0.69631
 C436 C 0.21565 0.29457 0.69906
 H437 H 0.21125 0.40009 0.58740
 H438 H 0.25503 0.31850 0.71107
 H439 H 0.27162 0.42283 0.60921
 H440 H 0.19713 0.29324 0.68386
 C441 C 0.91580 0.29866 0.09204
 C442 C 0.88787 0.28760 0.08685
 C443 C 0.86701 0.28544 0.11293
 N444 N 0.84783 0.26246 0.11524
 N445 N 0.82834 0.26053 0.13837
 C446 C 0.82704 0.28174 0.15967
 N447 N 0.84598 0.30491 0.15710
 N448 N 0.86582 0.30663 0.13431
 C449 C 0.80458 0.28020 0.18398
 C450 C 0.79511 0.25507 0.19905
 H451 H 0.88180 0.27780 0.06401
 H452 H 0.79543 0.29904 0.19016
 H453 H 0.92229 0.30252 0.11682
 H454 H 0.80658 0.23716 0.19575
 C455 C 0.43851 0.81542 0.58638
 C456 C 0.43716 0.79619 0.61159
 C457 C 0.41321 0.79219 0.63407
 N458 N 0.41260 0.77233 0.65730
 N459 N 0.39063 0.76770 0.67717
 C460 C 0.36841 0.78274 0.67452
 N461 N 0.36907 0.80270 0.65138
 N462 N 0.39106 0.80735 0.63150
 C463 C 0.34364 0.77722 0.69572
 C464 C 0.34206 0.75661 0.71943
 H465 H 0.45357 0.78258 0.61394
 H466 H 0.32611 0.78924 0.69214
 H467 H 0.42137 0.82799 0.58303
 H468 H 0.35971 0.74475 0.72306
 C469 C 0.07189 0.72155 0.09358
 C470 C 0.10096 0.72142 0.08943
 C471 C 0.12042 0.72179 0.11696
 N472 N 0.14713 0.71578 0.11222
 N473 N 0.16539 0.71713 0.13654
 C474 C 0.15772 0.72481 0.16650
 N475 N 0.13103 0.73098 0.17125
 N476 N 0.11267 0.72936 0.14696
 C477 C 0.17836 0.72800 0.19296
 C478 C 0.20368 0.71643 0.19091
 H479 H 0.11035 0.72272 0.06569
 H480 H 0.17400 0.74038 0.21377
 H481 H 0.06452 0.72164 0.11823
 H482 H 0.20709 0.70275 0.17090
 C483 C 0.54400 0.20147 0.59881
 C484 C 0.56874 0.21938 0.59387
 C485 C 0.59097 0.22452 0.61823
 N486 N 0.61710 0.23561 0.60891
 N487 N 0.63785 0.24003 0.63030
 C488 C 0.63321 0.23375 0.66190
 N489 N 0.60695 0.22299 0.67136
 N490 N 0.58620 0.21829 0.64987
 C491 C 0.65624 0.23855 0.68544
 C492 C 0.68426 0.24050 0.67550
 H493 H 0.57271 0.22906 0.57048
 H494 H 0.65116 0.23966 0.71084
 H495 H 0.53939 0.19268 0.62252
 H496 H 0.68906 0.23698 0.65040
 C497 C 0.71214 0.08050 0.91050
 C498 C 0.71023 0.07980 0.87681
 C499 C 0.71303 0.10588 0.85787
 N500 N 0.71793 0.10542 0.82562
 N501 N 0.72097 0.12910 0.80862
 C502 C 0.71896 0.15403 0.82327
 N503 N 0.71370 0.15439 0.85537
 N504 N 0.71089 0.13081 0.87235
 C505 C 0.72244 0.18053 0.80540
 C506 C 0.73406 0.18324 0.77456
 H507 H 0.70590 0.06025 0.86396
 H508 H 0.71710 0.19896 0.81787
 H509 H 0.71479 0.10106 0.92122
 H510 H 0.74082 0.16523 0.76249
 C511 C 0.23141 0.56010 0.42582
 C512 C 0.24046 0.58863 0.42716
 C513 C 0.24139 0.60626 0.39808
 N514 N 0.24415 0.63449 0.40085
 N515 N 0.24623 0.65062 0.37464
 C516 C 0.24594 0.63912 0.34471
 N517 N 0.24337 0.61089 0.34195
 N518 N 0.24099 0.59476 0.36814
 C519 C 0.24980 0.65678 0.31571
 C520 C 0.24554 0.68485 0.31644
 H521 H 0.24825 0.59808 0.44958
 H522 H 0.25643 0.64760 0.29354
 H523 H 0.22389 0.55123 0.40298
 H524 H 0.23705 0.69338 0.33804
 C525 C 0.31535 0.93141 0.92553
 C526 C 0.32108 0.90388 0.93022
 C527 C 0.31737 0.88296 0.90427
 N528 N 0.32286 0.85636 0.90981
 N529 N 0.31790 0.83683 0.88711
 C530 C 0.30723 0.84323 0.85807
 N531 N 0.30195 0.86985 0.85249
 N532 N 0.30691 0.88935 0.87515
 C533 C 0.29993 0.82184 0.83331
 C534 C 0.30433 0.79393 0.83708
 H535 H 0.32812 0.89724 0.95345
 H536 H 0.28975 0.82826 0.81168
 H537 H 0.31263 0.93800 0.90089
 H538 H 0.31527 0.78738 0.85810
 C539 C 0.79164 0.43569 0.40151
 C540 C 0.77773 0.40905 0.40726
 C541 C 0.77277 0.38801 0.38158
 N542 N 0.76488 0.36085 0.38929
 N543 N 0.75931 0.34173 0.36628
 C544 C 0.76114 0.34911 0.33466
 N545 N 0.76886 0.37629 0.32694
 N546 N 0.77470 0.39537 0.34996
 C547 C 0.75378 0.32842 0.30906
 C548 C 0.75246 0.29980 0.31473
 H549 H 0.76954 0.40362 0.43107
 H550 H 0.74952 0.33590 0.28514
 H551 H 0.79930 0.44086 0.37741
 H552 H 0.75880 0.29238 0.33795
 C553 C 0.05739 0.29451 0.92358
 C554 C 0.08241 0.28236 0.92726
 C555 C 0.10054 0.27746 0.89962
 N556 N 0.12715 0.27126 0.90466
 N557 N 0.14345 0.26578 0.87991
 C558 C 0.13361 0.26604 0.84923
 N559 N 0.10695 0.27208 0.84420
 N560 N 0.09075 0.27783 0.86892
 C561 C 0.15077 0.25853 0.82187
 C562 C 0.17987 0.25879 0.82407
 H563 H 0.08825 0.27440 0.95035
 H564 H 0.14020 0.25269 0.79937
 H565 H 0.05198 0.29979 0.89921
 H566 H 0.19079 0.26676 0.84561
 C567 C 0.58364 0.81042 0.41895
 C568 C 0.57851 0.79725 0.38926
 C569 C 0.60141 0.79362 0.36639
 N570 N 0.59587 0.77869 0.33893
 N571 N 0.61658 0.77452 0.31856
 C572 C 0.64361 0.78517 0.32490
 N573 N 0.64909 0.80025 0.35224
 N574 N 0.62840 0.80440 0.37261
 C575 C 0.66695 0.78003 0.30333
 C576 C 0.66294 0.76362 0.27567
 H577 H 0.55732 0.78823 0.38329
 H578 H 0.68805 0.78875 0.31005
 H579 H 0.60512 0.81781 0.42566
 H580 H 0.64189 0.75480 0.26889
 C581 C 0.94029 0.74959 0.92067
 C582 C 0.91870 0.72941 0.91094
 C583 C 0.90003 0.73406 0.88389
 N584 N 0.87596 0.71661 0.87934
 N585 N 0.85864 0.72084 0.85517
 C586 C 0.86489 0.74257 0.83453
 N587 N 0.88910 0.75983 0.83888
 N588 N 0.90632 0.75572 0.86317
 C589 C 0.84585 0.74789 0.80808
 C590 C 0.81819 0.73513 0.80654
 H591 H 0.91496 0.70992 0.92413
 H592 H 0.85335 0.76355 0.79035
 H593 H 0.94435 0.76894 0.90731
 H594 H 0.81011 0.72059 0.82518
 C595 C 0.40664 0.18615 0.42311
 C596 C 0.37948 0.19362 0.42695
 C597 C 0.36086 0.19681 0.39934
 N598 N 0.33305 0.19854 0.40431
 N599 N 0.31612 0.20245 0.37965
 C600 C 0.32644 0.20501 0.34912
 N601 N 0.35427 0.20339 0.34417
 N602 N 0.37115 0.19922 0.36879
 C603 C 0.30838 0.21112 0.32197
 C604 C 0.27908 0.20754 0.32414
 H605 H 0.37178 0.19800 0.45075
 H606 H 0.31846 0.21907 0.29988
 H607 H 0.41415 0.18266 0.39896
 H608 H 0.26894 0.19776 0.34531
 C609 C 0.71696 0.93842 0.89574
 C610 C 0.72698 0.91263 0.90038
 C611 C 0.72992 0.89316 0.87376
 N612 N 0.75128 0.87694 0.87397
 N613 N 0.75320 0.85791 0.85103
 C614 C 0.73350 0.85406 0.82741
 N615 N 0.71196 0.87008 0.82737
 N616 N 0.71033 0.88948 0.85000
 C617 C 0.73444 0.83167 0.80357
 C618 C 0.75993 0.82426 0.79219
 H619 H 0.73427 0.90708 0.92397
 H620 H 0.71478 0.82091 0.79471
 H621 H 0.71578 0.94583 0.87116
 H622 H 0.77937 0.83720 0.79791
 C623 C 0.25453 0.42222 0.42586
 C624 C 0.23241 0.40188 0.41820
 C625 C 0.23446 0.38131 0.39242
 N626 N 0.21305 0.36062 0.38783
 N627 N 0.21477 0.34146 0.36500
 C628 C 0.23794 0.34232 0.34585
 N629 N 0.25928 0.36312 0.35031
 N630 N 0.25760 0.38226 0.37320
 C631 C 0.24045 0.32087 0.32114
 C632 C 0.22048 0.29754 0.31802
 H633 H 0.21309 0.40068 0.43210
 H634 H 0.25904 0.32295 0.30595
 H635 H 0.27360 0.42435 0.41148
 H636 H 0.20220 0.29514 0.33369
 C637 C 0.29854 0.06770 0.92154
 C638 C 0.27476 0.08194 0.91945
 C639 C 0.27085 0.10132 0.89295
 N640 N 0.24486 0.10867 0.88664
 N641 N 0.24128 0.12726 0.86368
 C642 C 0.26363 0.13938 0.84644
 N643 N 0.28963 0.13212 0.85286
 N644 N 0.29317 0.11332 0.87559
 C645 C 0.26034 0.16130 0.82263
 C646 C 0.23433 0.16514 0.80933
 H647 H 0.25810 0.07819 0.93722
 H648 H 0.27897 0.17490 0.81544
 H649 H 0.31115 0.06747 0.89992
 H650 H 0.21606 0.15019 0.81417
 C651 C 0.78906 0.57985 0.39465
 C652 C 0.76383 0.58399 0.37966
 C653 C 0.76153 0.60790 0.35821
 N654 N 0.73764 0.60935 0.34098
 N655 N 0.73502 0.63132 0.32217
 C656 C 0.75613 0.65273 0.32013
 N657 N 0.77995 0.65132 0.33746
 N658 N 0.78264 0.62929 0.35610
 C659 C 0.75344 0.67740 0.30003
 C660 C 0.73189 0.67811 0.27759
 H661 H 0.74506 0.56973 0.38458
 H662 H 0.76936 0.69522 0.30238
 H663 H 0.80768 0.59452 0.39052
 H664 H 0.71684 0.65977 0.27388
 C665 C 0.07790 0.72446 0.92757
 C666 C 0.10656 0.72278 0.93290
 C667 C 0.12676 0.72337 0.90590
 N668 N 0.15319 0.71668 0.91100
 N669 N 0.17190 0.71807 0.88701
 C670 C 0.16495 0.72643 0.85707
 N671 N 0.13857 0.73326 0.85201
 N672 N 0.11980 0.73164 0.87593
 C673 C 0.18589 0.72951 0.83083
 C674 C 0.21111 0.71779 0.83281
 H675 H 0.11506 0.72290 0.95702
 H676 H 0.18158 0.74170 0.80986
 H677 H 0.07158 0.72571 0.90264
 H678 H 0.21460 0.70433 0.85297
 C679 C 0.55338 0.20412 0.43449
 C680 C 0.55301 0.19687 0.40195
 C681 C 0.57885 0.20152 0.38244
 N682 N 0.57741 0.20468 0.34999
 N683 N 0.60088 0.20929 0.33240
 C684 C 0.62659 0.21053 0.34664
 N685 N 0.62799 0.20693 0.37897
 N686 N 0.60457 0.20267 0.39657
 C687 C 0.65273 0.21539 0.32780
 C688 C 0.65395 0.22857 0.29789
 H689 H 0.53373 0.18777 0.39058
 H690 H 0.67193 0.20992 0.33871
 H691 H 0.57315 0.21328 0.44478
 H692 H 0.63530 0.23620 0.28807
 C693 C 0.91447 0.30945 0.92705
 C694 C 0.90295 0.28600 0.90993
 C695 C 0.88027 0.28688 0.88622
 N696 N 0.87562 0.26617 0.86407
 N697 N 0.85509 0.26641 0.84246
 C698 C 0.83826 0.28725 0.84235
 N699 N 0.84272 0.30785 0.86472
 N700 N 0.86348 0.30777 0.88616
 C701 C 0.81498 0.28703 0.81912
 C702 C 0.81461 0.27127 0.79092
 H703 H 0.91162 0.26639 0.91323
 H704 H 0.79792 0.29930 0.82431
 H705 H 0.90556 0.32898 0.92451
 H706 H 0.83273 0.26073 0.78482
 C707 C 0.44056 0.82530 0.41909
 C708 C 0.43953 0.80785 0.39224
 C709 C 0.41445 0.80298 0.37164
 N710 N 0.41326 0.78307 0.34844
 N711 N 0.38998 0.77694 0.33103
 C712 C 0.36699 0.79047 0.33619
 N713 N 0.36827 0.81062 0.35916
 N714 N 0.39156 0.81673 0.37663
 C715 C 0.34079 0.78303 0.31797
 C716 C 0.33822 0.76110 0.29589
 H717 H 0.45651 0.79520 0.38811
 H718 H 0.32307 0.79460 0.32251
 H719 H 0.42295 0.83690 0.42412
 H720 H 0.35600 0.74959 0.29146
 C721 C 0.30689 0.93232 0.09329
 C722 C 0.31706 0.90638 0.09134
 C723 C 0.31084 0.88491 0.11635
 N724 N 0.31903 0.85908 0.11229
 N725 N 0.31232 0.83907 0.13411
 C726 C 0.29717 0.84422 0.16074
 N727 N 0.28918 0.87007 0.16486
 N728 N 0.29584 0.89004 0.14307
 C729 C 0.28871 0.82240 0.18471
 C730 C 0.29512 0.79500 0.18188
 H731 H 0.32878 0.90121 0.07022
 H732 H 0.27650 0.82816 0.20516
 H733 H 0.29676 0.93804 0.11530
 H734 H 0.30752 0.78902 0.16170
 C735 C 0.80065 0.44346 0.56831
 C736 C 0.77737 0.43118 0.58549
 C737 C 0.77906 0.40758 0.60761
 N738 N 0.75737 0.39962 0.62799
 N739 N 0.75807 0.37759 0.64724
 C740 C 0.78040 0.36254 0.64666
 N741 N 0.80206 0.37044 0.62620
 N742 N 0.80147 0.39263 0.60713
 C743 C 0.78056 0.33714 0.66636
 C744 C 0.76145 0.33092 0.69146
 H745 H 0.75707 0.43865 0.58200
 H746 H 0.79556 0.32272 0.66040
 H747 H 0.82076 0.43545 0.57107
 H748 H 0.74761 0.34612 0.69857
 C749 C 0.70611 0.06572 0.07462
 C750 C 0.68513 0.08113 0.08572
 C751 C 0.69051 0.10108 0.11244
 N752 N 0.67412 0.12201 0.11646
 N753 N 0.67961 0.14079 0.13989
 C754 C 0.70157 0.13913 0.16030
 N755 N 0.71765 0.11797 0.15657
 N756 N 0.71232 0.09937 0.13300
 C757 C 0.70850 0.15987 0.18587
 C758 C 0.69840 0.18585 0.18606
 H759 H 0.66493 0.07944 0.07366
 H760 H 0.72363 0.15521 0.20393
 H761 H 0.72613 0.06726 0.08707
 H762 H 0.68461 0.19134 0.16698
 C763 C 0.23079 0.55934 0.59596
 C764 C 0.24022 0.58780 0.59478
 C765 C 0.24147 0.60526 0.62397
 N766 N 0.24436 0.63351 0.62138
 N767 N 0.24687 0.64950 0.64766
 C768 C 0.24690 0.63785 0.67750
 N769 N 0.24420 0.60961 0.68008
 N770 N 0.24138 0.59361 0.65382
 C771 C 0.25144 0.65539 0.70649
 C772 C 0.24745 0.68353 0.70601
 H773 H 0.24816 0.59727 0.57240
 H774 H 0.25861 0.64614 0.72833
 H775 H 0.22307 0.55044 0.61873
 H776 H 0.23840 0.69211 0.68481
 C777 C 0.93127 0.74082 0.08862
 C778 C 0.90818 0.72057 0.09261
 C779 C 0.88495 0.72444 0.11484
 N780 N 0.86039 0.70725 0.11305
 N781 N 0.83876 0.71120 0.13217
 C782 C 0.84098 0.73244 0.15388
 N783 N 0.86564 0.74942 0.15590
 N784 N 0.88720 0.74557 0.13667
 C785 C 0.81724 0.73762 0.17474
 C786 C 0.79000 0.72427 0.17039
 H787 H 0.90629 0.70213 0.07744
 H788 H 0.82115 0.75346 0.19324
 H789 H 0.93360 0.75902 0.10411
 H790 H 0.78569 0.70915 0.15119
 C791 C 0.39810 0.17372 0.59028
 C792 C 0.37195 0.18324 0.58555
 C793 C 0.35233 0.18577 0.61245
 N794 N 0.32551 0.19096 0.60654
 N795 N 0.30815 0.19513 0.63081
 C796 C 0.31712 0.19451 0.66183
 N797 N 0.34392 0.18934 0.66771
 N798 N 0.36117 0.18493 0.64349
 C799 C 0.29909 0.20124 0.68875
 C800 C 0.27009 0.20128 0.68565
 H801 H 0.36645 0.19087 0.56213
 H802 H 0.30908 0.20666 0.71169
 H803 H 0.40324 0.16662 0.61409
 H804 H 0.25957 0.19371 0.66371
 C805 C 0.05724 0.28030 0.08787
 C806 C 0.07935 0.29783 0.10144
 C807 C 0.09863 0.28712 0.12482
 N808 N 0.12357 0.30225 0.13215
 N809 N 0.14123 0.29244 0.15300
 C810 C 0.13445 0.26722 0.16742
 N811 N 0.10941 0.25226 0.16032
 N812 N 0.09189 0.26196 0.13933
 C813 C 0.15335 0.25601 0.19077
 C814 C 0.18143 0.26702 0.19467
 H815 H 0.08280 0.31962 0.09449
 H816 H 0.14500 0.23789 0.20471
 H817 H 0.05357 0.25871 0.09558
 H818 H 0.19036 0.28419 0.17962
 C819 C 0.57921 0.79572 0.58593
 C820 C 0.60774 0.80587 0.58565
 C821 C 0.62736 0.79784 0.61030
 N822 N 0.65528 0.80672 0.60779
 N823 N 0.67340 0.79894 0.62943
 C824 C 0.66425 0.78197 0.65438
 N825 N 0.63631 0.77319 0.65695
 N826 N 0.61820 0.78094 0.63530
 C827 C 0.68394 0.77288 0.67830
 C828 C 0.71295 0.78040 0.67628
 H829 H 0.61609 0.81946 0.56624
 H830 H 0.67531 0.75973 0.69795
 H831 H 0.57053 0.78365 0.60640
 H832 H 0.72167 0.79347 0.65661
   
