data_POSCAR
  _audit_creation_date              2014-09-24
  _audit_creation_method            'ToBaCCo'
  _symmetry_space_group_name_H-M    'P1'
  _symmetry_Int_Tables_number       1
  _symmetry_cell_setting            triclinic
  loop_
  _symmetry_equiv_pos_as_xyz
 x,y,z
_cell_length_a 34.3336
_cell_length_b 35.0547
_cell_length_c 32.5606
_cell_angle_alpha 87.500900
_cell_angle_beta 90.026000
_cell_angle_gamma 86.938400
loop_
  _atom_site_label
  _atom_site_type_symbol
  _atom_site_fract_x
  _atom_site_fract_y
  _atom_site_fract_z
C1 C 0.22046 0.22442 0.26773
 C2 C 0.21393 0.24653 0.23130
 C3 C 0.23957 0.24292 0.19881
 C4 C 0.27274 0.21802 0.20289
 C5 C 0.28023 0.19747 0.23958
 C6 C 0.25368 0.20045 0.27222
 C7 C 0.19520 0.21428 0.29849
 N8 N 0.21203 0.18470 0.32169
 C9 C 0.24833 0.17674 0.30640
 C10 C 0.31037 0.17109 0.23248
 N11 N 0.32072 0.17451 0.19218
 C12 C 0.29791 0.20339 0.17409
 C13 C 0.22303 0.26338 0.16553
 N14 N 0.18849 0.27983 0.17756
 C15 C 0.18257 0.26962 0.21759
 H16 H 0.16520 0.22511 0.30117
 H17 H 0.26722 0.15211 0.31546
 H18 H 0.32066 0.14847 0.25410
 H19 H 0.29764 0.21141 0.14157
 H20 H 0.23503 0.26593 0.13485
 H21 H 0.15673 0.27750 0.23500
 C22 C -0.17572 0.78971 0.25670
 C23 C -0.17983 0.75907 0.23099
 C24 C -0.21128 0.75911 0.20424
 C25 C -0.23994 0.78940 0.20409
 C26 C -0.23597 0.81923 0.22993
 C27 C -0.20323 0.81988 0.25553
 C28 C -0.14634 0.79891 0.28279
 N29 N -0.15492 0.83452 0.29665
 C30 C -0.18978 0.84740 0.28000
 C31 C -0.26728 0.84474 0.22326
 N32 N -0.29057 0.83148 0.19375
 C33 C -0.27366 0.79775 0.18155
 C34 C -0.20549 0.72752 0.18056
 N35 N -0.17176 0.70829 0.19285
 C36 C -0.15596 0.72743 0.22360
 H37 H -0.11962 0.78180 0.28877
 H38 H -0.20406 0.87518 0.28464
 H39 H -0.27163 0.87153 0.23825
 H40 H -0.28504 0.78042 0.15805
 H41 H -0.22394 0.71954 0.15572
 H42 H -0.12811 0.71988 0.23821
 C43 C -0.19784 0.22026 -0.23845
 C44 C -0.19417 0.24151 -0.20331
 C45 C -0.21718 0.23417 -0.16945
 C46 C -0.24479 0.20642 -0.17063
 C47 C -0.24888 0.18551 -0.20525
 C48 C -0.22457 0.19209 -0.23946
 C49 C -0.17518 0.21769 -0.27296
 N50 N -0.18661 0.18812 -0.29510
 C51 C -0.21719 0.17258 -0.27486
 C52 C -0.27662 0.15930 -0.19593
 N53 N -0.28904 0.16385 -0.15653
 C54 C -0.26933 0.19269 -0.14108
 C55 C -0.20405 0.25494 -0.13792
 N56 N -0.17380 0.27498 -0.15205
 C57 C -0.16757 0.26726 -0.19203
 H58 H -0.15015 0.23445 -0.27909
 H59 H -0.23147 0.14739 -0.28378
 H60 H -0.28632 0.13790 -0.21607
 H61 H -0.27228 0.20357 -0.11064
 H62 H -0.21462 0.25442 -0.10659
 H63 H -0.14397 0.27778 -0.21064
 C64 C 0.17457 0.77160 -0.23085
 C65 C 0.18488 0.73705 -0.20882
 C66 C 0.21863 0.73398 -0.18513
 C67 C 0.24247 0.76504 -0.18317
 C68 C 0.23154 0.79914 -0.20369
 C69 C 0.19757 0.80246 -0.22740
 C70 C 0.14282 0.78419 -0.25495
 N71 N 0.14618 0.82199 -0.26555
 C72 C 0.17940 0.83320 -0.24816
 C73 C 0.25707 0.82563 -0.19265
 N74 N 0.28382 0.80849 -0.16613
 C75 C 0.27508 0.77120 -0.16017
 C76 C 0.21807 0.70050 -0.16171
 N77 N 0.18464 0.68325 -0.16993
 C78 C 0.16455 0.70497 -0.19930
 H79 H 0.11876 0.76723 -0.26299
 H80 H 0.19010 0.86172 -0.25092
 H81 H 0.25570 0.85556 -0.20262
 H82 H 0.28972 0.75049 -0.13904
 H83 H 0.23894 0.69110 -0.13798
 H84 H 0.13534 0.69996 -0.20961
 C85 C 0.23431 1.21379 0.74050
 C86 C 0.26037 1.21378 0.77367
 C87 C 0.25488 1.24021 0.80376
 C88 C 0.22362 1.26775 0.80041
 C89 C 0.19837 1.26808 0.76725
 C90 C 0.20328 1.24046 0.73755
 C91 C 0.22901 1.18758 0.71106
 N92 N 0.19490 1.19707 0.69072
 C93 C 0.17925 1.22971 0.70667
 C94 C 0.16923 1.29559 0.77343
 N95 N 0.17574 1.31205 0.80978
 C96 C 0.20890 1.29484 0.82656
 C97 C 0.28135 1.23004 0.83477
 N98 N 0.30267 1.19816 0.82405
 C99 C 0.29007 1.18827 0.78666
 H100 H 0.24710 1.16169 0.70780
 H101 H 0.15114 1.24335 0.69831
 H102 H 0.14410 1.30131 0.75366
 H103 H 0.22106 1.30093 0.85612
 H104 H 0.28380 1.24406 0.86354
 H105 H 0.30021 1.16294 0.77110
 C106 C 0.79175 0.79748 0.72586
 C107 C 0.76024 0.79894 0.75292
 C108 C 0.75084 0.76664 0.77586
 C109 C 0.77370 0.73252 0.77254
 C110 C 0.80567 0.73144 0.74642
 C111 C 0.81419 0.76396 0.72196
 C112 C 0.81018 0.82603 0.70506
 N113 N 0.84297 0.81091 0.68738
 C114 C 0.84573 0.77274 0.69750
 C115 C 0.82857 0.69943 0.75815
 N116 N 0.81144 0.68101 0.79048
 C117 C 0.77727 0.70061 0.79864
 C118 C 0.72382 0.77828 0.80474
 N119 N 0.71727 0.81672 0.79991
 C120 C 0.73921 0.82954 0.76816
 H121 H 0.80075 0.85605 0.70380
 H122 H 0.87006 0.75330 0.69024
 H123 H 0.85763 0.69242 0.74682
 H124 H 0.75931 0.69568 0.82547
 H125 H 0.71237 0.76071 0.82961
 H126 H 0.74155 0.85929 0.75856
 C127 C 0.19904 0.81839 1.24630
 C128 C 0.23157 0.81912 1.22013
 C129 C 0.23384 0.79592 1.18680
 C130 C 0.20382 0.77130 1.17945
 C131 C 0.17214 0.77032 1.20571
 C132 C 0.16937 0.79452 1.23878
 C133 C 0.18733 0.84008 1.27877
 N134 N 0.15077 0.83079 1.29038
 C135 C 0.13975 0.80263 1.26604
 C136 C 0.14720 0.74472 1.19102
 N137 N 0.16260 0.73051 1.15620
 C138 C 0.19708 0.74671 1.14854
 C139 C 0.26674 0.80498 1.16504
 N140 N 0.28452 0.83314 1.18414
 C141 C 0.26306 0.84190 1.21795
 H142 H 0.20345 0.86258 1.29144
 H143 H 0.11211 0.78921 1.26728
 H144 H 0.11938 0.73759 1.20410
 H145 H 0.21579 0.74095 1.12253
 H146 H 0.27622 0.79292 1.13643
 H147 H 0.26859 0.86441 1.23852
 C148 C 0.76673 1.18648 1.23357
 C149 C 0.74456 1.18219 1.19803
 C150 C 0.74896 1.20653 1.16400
 C151 C 0.77465 1.23621 1.16554
 C152 C 0.79670 1.24048 1.20049
 C153 C 0.79319 1.21485 1.23465
 C154 C 0.77182 1.16379 1.26881
 N155 N 0.80144 1.17688 1.29126
 C156 C 0.81451 1.20831 1.27050
 C157 C 0.82048 1.27039 1.19194
 N158 N 0.81329 1.28423 1.15281
 C159 C 0.78531 1.26329 1.13657
 C160 C 0.72785 1.19272 1.13237
 N161 N 0.71058 1.16081 1.14661
 C162 C 0.72033 1.15431 1.18679
 H163 H 0.75709 1.13771 1.27532
 H164 H 0.83903 1.22418 1.27972
 H165 H 0.84200 1.28081 1.21239
 H166 H 0.77329 1.26726 1.10588
 H167 H 0.72626 1.20421 1.10097
 H168 H 0.71225 1.12980 1.20567
 O169 O 0.53007 0.92861 0.92727
 O170 O 0.45760 0.96194 1.06934
 O171 O 0.55403 0.92996 1.01985
 O172 O 0.41169 0.97459 0.94886
 O173 O 0.52922 0.95559 1.07206
 O174 O 0.45794 0.93748 0.92536
 O175 O 0.43145 0.94453 1.01466
 O176 O 0.58036 0.95268 0.95466
 C177 C 0.56623 0.92840 0.93255
 C178 C 0.43650 0.93946 1.05195
 C179 C 0.54839 0.92829 1.05713
 C180 C 0.42239 0.94681 0.92805
 O181 O 0.46261 1.01322 0.90721
 O182 O 0.53555 1.02725 1.04277
 O183 O 0.56334 1.02222 0.96626
 O184 O 0.40240 1.01335 1.02283
 O185 O 0.45989 1.03507 1.04054
 O186 O 0.53763 1.00340 0.90895
 O187 O 0.43794 1.03811 0.96327
 O188 O 0.59048 0.99253 1.02965
 Co189 Co 0.49696 0.97137 0.92262
 Co190 Co 0.49551 0.99384 1.05022
 Co191 Co 0.55408 0.97714 0.99539
 Co192 Co 0.43903 0.99111 0.99174
 O193 O 0.49637 0.97956 0.98617
 C194 C 0.44319 1.04004 0.92478
 C195 C 0.57239 1.02015 1.04926
 C196 C 0.56011 1.02485 0.92754
 C197 C 0.42255 1.03596 1.04471
 O198 O 0.04406 0.46773 0.07712
 O199 O 0.02053 0.52693 -0.07553
 O200 O 0.04398 0.43456 -0.01323
 O201 O 0.02017 0.59294 0.02834
 O202 O 0.02228 0.45806 -0.07021
 O203 O 0.03978 0.54092 0.06786
 O204 O 0.04894 0.54971 -0.02301
 O205 O 0.01700 0.41839 0.05329
 C206 C 0.04214 0.43217 0.07559
 C207 C 0.04921 0.54271 -0.06036
 C208 C 0.04824 0.43889 -0.05063
 C209 C 0.03943 0.57738 0.05986
 O210 O -0.03697 0.53925 0.08127
 O211 O -0.05235 0.45701 -0.04685
 O212 O -0.05273 0.44002 0.03202
 O213 O -0.02008 0.57720 -0.04566
 O214 O -0.05595 0.52955 -0.05262
 O215 O -0.03313 0.46631 0.08795
 O216 O -0.04675 0.56852 0.02228
 O217 O -0.02164 0.40314 -0.02177
 Co218 Co 0.00268 0.50305 0.07235
 Co219 Co -0.01576 0.49362 -0.05597
 Co220 Co -0.00510 0.44149 0.00702
 Co221 Co 0.00130 0.55509 0.00147
 O222 O -0.00385 0.49852 0.00713
 C223 C -0.05558 0.56422 0.05929
 C224 C -0.04697 0.42036 -0.04749
 C225 C -0.05613 0.44497 0.06991
 C226 C -0.04907 0.56362 -0.06200
 O227 O 1.07893 0.05439 0.48007
 O228 O 0.91622 0.02883 0.53909
 O229 O 0.97609 0.06913 0.44374
 O230 O 1.02008 0.08241 0.56339
 O231 O 0.92510 0.04334 0.46526
 O232 O 1.07431 0.05020 0.55692
 O233 O 0.95441 0.07234 0.54671
 O234 O 1.04232 0.04330 0.42670
 C235 C 1.06998 0.05975 0.44271
 C236 C 0.92095 0.06181 0.54971
 C237 C 0.94030 0.07092 0.44707
 C238 C 1.05615 0.08028 0.56650
 O239 O 1.06797 -0.02321 0.55704
 O240 O 0.95721 -0.02741 0.45645
 O241 O 1.02557 -0.02651 0.44376
 O242 O 0.96262 -0.00079 0.58462
 O243 O 0.95485 -0.03801 0.53362
 O244 O 1.07840 -0.01930 0.47851
 O245 O 1.02987 0.01015 0.59805
 O246 O 0.97462 0.00842 0.40260
 Co247 Co 1.06816 0.01573 0.51729
 Co248 Co 0.94440 0.00350 0.49948
 Co249 Co 0.99963 0.02107 0.44842
 Co250 Co 0.99207 0.03966 0.56845
 O251 O 1.00439 0.02131 0.51028
 C252 C 1.05329 -0.01826 0.59175
 C253 C 0.95266 -0.01839 0.41808
 C254 C 1.06069 -0.03548 0.45122
 C255 C 0.95434 -0.03284 0.57144
 C256 C 1.13206 0.13905 0.37150
 C257 C 1.15177 0.11240 0.39855
 N258 N 1.19129 0.11132 0.40060
 C259 C 1.21213 0.13530 0.37630
 C260 C 1.19249 0.16222 0.34903
 N261 N 1.15273 0.16356 0.34803
 N262 N 1.09270 0.13889 0.36774
 C263 C 1.07208 0.11315 0.38986
 C264 C 1.09165 0.08690 0.41754
 N265 N 1.13111 0.08733 0.42147
 H266 H 1.24359 0.13351 0.37867
 H267 H 1.04068 0.11357 0.38643
 C268 C 0.88339 -0.08424 0.34469
 C269 C 0.91397 -0.10171 0.36849
 N270 N 0.92132 -0.14008 0.36754
 C271 C 0.89951 -0.16189 0.34385
 C272 C 0.86800 -0.14471 0.32062
 N273 N 0.86085 -0.10610 0.32203
 N274 N 0.87705 -0.04565 0.34418
 C275 C 0.89982 -0.02372 0.36667
 C276 C 0.92958 -0.04126 0.39156
 N277 N 0.93595 -0.07996 0.39198
 H278 H 0.90617 -0.19238 0.34430
 H279 H 0.89411 0.00699 0.36602
 C280 C 0.84320 0.12158 0.62737
 C281 C 0.87613 0.13869 0.61106
 N282 N 0.88548 0.17332 0.62374
 C283 C 0.86421 0.19126 0.65304
 C284 C 0.83228 0.17334 0.67161
 N285 N 0.82220 0.13912 0.65727
 N286 N 0.83416 0.08667 0.61476
 C287 C 0.85720 0.06771 0.58740
 C288 C 0.89129 0.08408 0.57258
 N289 N 0.89952 0.11950 0.58451
 H290 H 0.87296 0.21884 0.66187
 H291 H 0.84998 0.03942 0.57889
 C292 C 1.10556 -0.09139 0.68372
 C293 C 1.08011 -0.10579 0.65528
 N294 N 1.07483 -0.14396 0.65596
 C295 C 1.09453 -0.16853 0.68324
 C296 C 1.12212 -0.15444 0.71007
 N297 N 1.12632 -0.11594 0.70964
 N298 N 1.11033 -0.05322 0.68394
 C299 C 1.09138 -0.02874 0.65624
 C300 C 1.06764 -0.04324 0.62620
 N301 N 1.06237 -0.08153 0.62647
 H302 H 1.09014 -0.19877 0.68220
 H303 H 1.09639 0.00150 0.65627
 C304 C 0.36254 1.12266 1.10830
 C305 C 0.38861 1.09631 1.12906
 N306 N 0.39268 1.09749 1.17042
 C307 C 0.37134 1.12341 1.19218
 C308 C 0.34483 1.14985 1.17153
 N309 N 0.34179 1.14893 1.12984
 N310 N 0.35697 1.12042 1.06722
 C311 C 0.37617 1.09274 1.04596
 C312 C 0.40248 1.06658 1.06663
 N313 N 0.40836 1.06910 1.10772
 H314 H 0.37544 1.12341 1.22508
 H315 H 0.37109 1.09123 1.01326
 C316 C 0.33810 0.88607 0.86871
 C317 C 0.36923 0.86646 0.88981
 N318 N 0.37122 0.82764 0.89215
 C319 C 0.34340 0.80748 0.87440
 C320 C 0.31240 0.82709 0.85247
 N321 N 0.31099 0.86604 0.85023
 N322 N 0.33497 0.92482 0.86771
 C323 C 0.36171 0.94498 0.88693
 C324 C 0.39339 0.92550 0.90729
 N325 N 0.39655 0.88659 0.90819
 H326 H 0.34620 0.77662 0.87671
 H327 H 0.35861 0.97591 0.88586
 C328 C 0.62866 0.85557 1.12418
 C329 C 0.61233 0.88887 1.14111
 N330 N 0.62723 0.90113 1.17643
 C331 C 0.65840 0.88225 1.19519
 C332 C 0.67609 0.84943 1.17766
 N333 N 0.65990 0.83661 1.14284
 N334 N 0.61477 0.84428 1.08785
 C335 C 0.58614 0.86546 1.06707
 C336 C 0.57077 0.89966 1.08323
 N337 N 0.58393 0.91011 1.12031
 H338 H 0.66901 0.89317 1.22334
 H339 H 0.57683 0.85672 1.03729
 C340 C 0.63619 1.09625 0.86246
 C341 C 0.63038 1.09919 0.90486
 N342 N 0.65091 1.12393 0.92580
 C343 C 0.67720 1.14594 0.90644
 C344 C 0.68399 1.14279 0.86381
 N345 N 0.66299 1.11776 0.84304
 N346 N 0.61528 1.07157 0.84156
 C347 C 0.58919 1.04934 0.86132
 C348 C 0.58423 1.05148 0.90408
 N349 N 0.60497 1.07658 0.92468
 H350 H 0.69305 1.16476 0.92484
 H351 H 0.57344 1.02942 0.84404
 C352 C 0.12040 0.35992 0.14655
 C353 C 0.11053 0.35071 0.10643
 N354 N 0.12724 0.31879 0.09017
 C355 C 0.15329 0.29558 0.11232
 C356 C 0.16239 0.30429 0.15281
 N357 N 0.14559 0.33630 0.16894
 N358 N 0.10497 0.39253 0.16235
 C359 C 0.07998 0.41643 0.13985
 C360 C 0.06928 0.40687 0.10010
 N361 N 0.08479 0.37411 0.08428
 H362 H 0.16613 0.27018 0.09889
 H363 H 0.06808 0.44233 0.15309
 C364 C -0.11933 0.35526 -0.11845
 C365 C -0.10292 0.33996 -0.08135
 N366 N -0.11081 0.30399 -0.06798
 C367 C -0.13429 0.28255 -0.09014
 C368 C -0.14993 0.29745 -0.12774
 N369 N -0.14199 0.33352 -0.14108
 N370 N -0.11263 0.39172 -0.13102
 C371 C -0.09005 0.41356 -0.10830
 C372 C -0.07267 0.39796 -0.07180
 N373 N -0.07957 0.36143 -0.05919
 H374 H -0.14015 0.25389 -0.07902
 H375 H -0.08520 0.44255 -0.11902
 C376 C 0.12250 0.60509 -0.13840
 C377 C 0.12954 0.60194 -0.09586
 N378 N 0.15696 0.62311 -0.07928
 C379 C 0.17708 0.64798 -0.10312
 C380 C 0.16869 0.65276 -0.14547
 N381 N 0.14173 0.63076 -0.16207
 N382 N 0.09485 0.58412 -0.15492
 C383 C 0.07303 0.56106 -0.13068
 C384 C 0.07829 0.55973 -0.08773
 N385 N 0.10696 0.57985 -0.07149
 H386 H 0.19777 0.66533 -0.08863
 H387 H 0.05032 0.54567 -0.14464
 C388 C -0.13406 0.64370 0.11412
 C389 C -0.11083 0.61716 0.13815
 N390 N -0.11008 0.61974 0.17957
 C391 C -0.13089 0.64817 0.19812
 C392 C -0.15344 0.67552 0.17423
 N393 N -0.15490 0.67224 0.13265
 N394 N -0.13352 0.64182 0.07252
 C395 C -0.11018 0.61514 0.05383
 C396 C -0.08608 0.58917 0.07783
 N397 N -0.08748 0.59069 0.11952
 H398 H -0.12935 0.64985 0.23118
 H399 H -0.10955 0.61499 0.02059
 C400 C 1.11823 0.16081 0.62944
 C401 C 1.13704 0.12777 0.61460
 N402 N 1.17529 0.11973 0.62318
 C403 C 1.19558 0.14271 0.64689
 C404 C 1.17666 0.17539 0.66337
 N405 N 1.13840 0.18383 0.65330
 N406 N 1.07963 0.16827 0.62145
 C407 C 1.05888 0.14376 0.59985
 C408 C 1.07756 0.11010 0.58583
 N409 N 1.11638 0.10331 0.59332
 H410 H 1.22601 0.13510 0.65275
 H411 H 1.02802 0.15001 0.59460
 C412 C 0.89029 -0.10628 0.64760
 C413 C 0.91639 -0.12197 0.61897
 N414 N 0.91915 -0.16056 0.61540
 C415 C 0.89656 -0.18396 0.63872
 C416 C 0.86871 -0.16783 0.66573
 N417 N 0.86681 -0.12928 0.66932
 N418 N 0.88817 -0.06818 0.65284
 C419 C 0.91053 -0.04467 0.63013
 C420 C 0.93527 -0.05972 0.59973
 N421 N 0.93778 -0.09826 0.59478
 H422 H 0.89910 -0.21444 0.63466
 H423 H 0.90751 -0.01419 0.63443
 C424 C 1.12605 -0.10768 0.37351
 C425 C 1.08536 -0.10955 0.37538
 N426 N 1.06742 -0.13314 0.35030
 C427 C 1.08821 -0.15449 0.32306
 C428 C 1.12899 -0.15118 0.31963
 N429 N 1.14659 -0.12784 0.34547
 N430 N 1.14441 -0.08502 0.39906
 C431 C 1.12389 -0.06343 0.42596
 C432 C 1.08286 -0.06358 0.42670
 N433 N 1.06448 -0.08693 0.40136
 H434 H 1.07258 -0.17233 0.30324
 H435 H 1.13948 -0.04502 0.44530
 C436 C 0.87439 0.14813 0.36839
 C437 C 0.85735 0.11679 0.38805
 N438 N 0.82088 0.10802 0.37730
 C439 C 0.80098 0.12835 0.34682
 C440 C 0.81849 0.15890 0.32540
 N441 N 0.85461 0.16848 0.33776
 N442 N 0.91151 0.15595 0.37818
 C443 C 0.93273 0.13317 0.40587
 C444 C 0.91618 0.10086 0.42445
 N445 N 0.87855 0.09394 0.41543
 H446 H 0.77198 0.12025 0.33945
 H447 H 0.96271 0.13927 0.41197
 C448 C 0.13341 0.37157 -0.11202
 C449 C 0.10178 0.39001 -0.13336
 N450 N 0.09630 0.38334 -0.17356
 C451 C 0.12056 0.35846 -0.19342
 C452 C 0.15208 0.33902 -0.17206
 N453 N 0.15787 0.34680 -0.13182
 N454 N 0.13804 0.37734 -0.07135
 C455 C 0.11202 0.40023 -0.05093
 C456 C 0.07992 0.41824 -0.07218
 N457 N 0.07592 0.41288 -0.11308
 H458 H 0.11506 0.35432 -0.22551
 H459 H 0.11586 0.40363 -0.01831
 C460 C -0.12712 0.36799 0.13430
 C461 C -0.12746 0.37152 0.09126
 N462 N -0.14772 0.34716 0.06942
 C463 C -0.16764 0.31912 0.08859
 C464 C -0.16709 0.31481 0.13184
 N465 N -0.14674 0.33964 0.15365
 N466 N -0.10611 0.39220 0.15588
 C467 C -0.08481 0.41923 0.13627
 C468 C -0.08411 0.42188 0.09303
 N469 N -0.10588 0.39800 0.07180
 H470 H -0.18277 0.29987 0.06995
 H471 H -0.06741 0.43731 0.15419
 C472 C -0.11039 0.62745 -0.15597
 C473 C -0.13075 0.60698 -0.12563
 N474 N -0.17032 0.60977 -0.12554
 C475 C -0.19047 0.63285 -0.15376
 C476 C -0.17010 0.65398 -0.18394
 N477 N -0.13044 0.64984 -0.18452
 N478 N -0.07089 0.62651 -0.15496
 C479 C -0.05073 0.60622 -0.12472
 C480 C -0.07093 0.58550 -0.09445
 N481 N -0.11059 0.58595 -0.09581
 H482 H -0.22197 0.63460 -0.15250
 H483 H -0.01917 0.60596 -0.12448
 C484 C 0.10757 0.64841 0.12867
 C485 C 0.10309 0.65502 0.08605
 N486 N 0.12022 0.68506 0.06709
 C487 C 0.14122 0.70911 0.08893
 C488 C 0.14435 0.70346 0.13181
 N489 N 0.12745 0.67308 0.15061
 N490 N 0.09140 0.61780 0.14751
 C491 C 0.07052 0.59367 0.12574
 C492 C 0.06462 0.60107 0.08339
 N493 N 0.08121 0.63162 0.06450
 H494 H 0.15410 0.73321 0.07331
 H495 H 0.05758 0.56969 0.14155
 C496 C 0.37993 1.12528 0.85294
 C497 C 0.37908 1.12560 0.89598
 N498 N 0.35495 1.15150 0.91454
 C499 C 0.33110 1.17671 0.89203
 C500 C 0.33078 1.17552 0.84884
 N501 N 0.35563 1.14986 0.83052
 N502 N 0.40371 1.09921 0.83426
 C503 C 0.42614 1.07280 0.85670
 C504 C 0.42423 1.07194 0.89989
 N505 N 0.40092 1.09877 0.91847
 H506 H 0.31155 1.19626 0.90785
 H507 H 0.44414 1.05185 0.84089
 C508 C 0.35965 0.86554 1.11183
 C509 C 0.37668 0.89413 1.13355
 N510 N 0.36462 0.90068 1.17244
 C511 C 0.33579 0.88054 1.19031
 C512 C 0.31760 0.85272 1.16807
 N513 N 0.33065 0.84572 1.12945
 N514 N 0.37093 0.85939 1.07266
 C515 C 0.39775 0.88119 1.05376
 C516 C 0.41391 0.91087 1.07478
 N517 N 0.40328 0.91629 1.11455
 H518 H 0.32697 0.88674 1.22125
 H519 H 0.40530 0.87632 1.02206
 C520 C 0.63528 1.09630 1.11738
 C521 C 0.64835 1.08548 1.07848
 N522 N 0.68087 1.10059 1.06230
 C523 C 0.70104 1.12587 1.08335
 C524 C 0.68862 1.13596 1.12277
 N525 N 0.65597 1.12075 1.13885
 N526 N 0.60195 1.08241 1.13290
 C527 C 0.58107 1.05810 1.11135
 C528 C 0.59457 1.04640 1.07294
 N529 N 0.62804 1.06040 1.05737
 H530 H 0.72707 1.13726 1.06998
 H531 H 0.55456 1.04755 1.12440
 C532 C 0.63738 0.85196 0.86543
 C533 C 0.65092 0.88718 0.87670
 N534 N 0.68610 0.89812 0.86309
 C535 C 0.70828 0.87560 0.83834
 C536 C 0.69480 0.84039 0.82686
 N537 N 0.65974 0.82922 0.84109
 N538 N 0.60150 0.84176 0.87774
 C539 C 0.57832 0.86540 0.90040
 C540 C 0.59177 0.90070 0.91158
 N541 N 0.62797 0.91058 0.89967
 H542 H 0.73625 0.88496 0.82789
 H543 H 0.54956 0.85691 0.90929
   
