data_POSCAR
  _audit_creation_date              2014-09-24
  _audit_creation_method            'ToBaCCo'
  _symmetry_space_group_name_H-M    'P1'
  _symmetry_Int_Tables_number       1
  _symmetry_cell_setting            triclinic
  loop_
  _symmetry_equiv_pos_as_xyz
 x,y,z
_cell_length_a 20.5643
_cell_length_b 20.2776
_cell_length_c 17.8015
_cell_angle_alpha 89.069000
_cell_angle_beta 89.825500
_cell_angle_gamma 90.428800
loop_
  _atom_site_label
  _atom_site_type_symbol
  _atom_site_fract_x
  _atom_site_fract_y
  _atom_site_fract_z
C1 C 0.34644 0.35437 0.24454
 H2 H 0.34500 0.34804 0.30499
 C3 C 0.38806 0.40146 0.21184
 H4 H 0.41872 0.43118 0.24753
 C5 C 0.30807 0.32313 0.12487
 H6 H 0.27699 0.29234 0.09116
 C7 C 0.34932 0.36950 0.08971
 H8 H 0.34792 0.37457 0.02918
 N9 N 0.30704 0.31679 0.20107
 C10 C 0.15703 0.26636 0.36712
 H11 H 0.16041 0.21318 0.37025
 C12 C 0.11373 0.29916 0.41407
 H13 H 0.08453 0.27113 0.45422
 C14 C 0.19025 0.36775 0.31058
 H15 H 0.21950 0.39436 0.26954
 C16 C 0.14657 0.40229 0.35517
 H17 H 0.14421 0.45546 0.34952
 Zn18 Zn 0.25223 0.25512 0.25293
 N19 N 0.19527 0.30103 0.31777
 C20 C 0.30635 0.18820 0.38242
 N21 N 0.30779 0.19626 0.30637
 C22 C 0.34996 0.16165 0.26353
 C23 C 0.39097 0.11495 0.29640
 C24 C 0.34686 0.14206 0.41780
 C25 C 0.15817 0.23981 0.13934
 C26 C 0.11677 0.20554 0.09125
 C27 C 0.15885 0.10315 0.14141
 C28 C 0.19964 0.13934 0.18820
 N29 N 0.19915 0.20647 0.18594
 H30 H 0.27359 0.21706 0.41587
 H31 H 0.35071 0.16950 0.20327
 H32 H 0.42340 0.08717 0.26101
 H33 H 0.34310 0.13528 0.47801
 H34 H 0.15768 0.29316 0.13960
 H35 H 0.08489 0.23287 0.05397
 H36 H 0.16181 0.04993 0.14315
 H37 H 0.23116 0.11347 0.22685
 C38 C 0.10775 0.36783 0.40781
 C39 C 0.39038 0.40928 0.13350
 C40 C 0.11629 0.13632 0.09232
 C41 C 0.38987 0.10447 0.37443
 C42 C 0.84243 0.86265 0.24128
 H43 H 0.83811 0.85823 0.30174
 C44 C 0.88736 0.90688 0.20955
 H45 H 0.91698 0.93659 0.24644
 C46 C 0.80965 0.82777 0.12087
 H47 H 0.77964 0.79629 0.08666
 C48 C 0.85522 0.87024 0.08659
 H49 H 0.85710 0.87154 0.02599
 N50 N 0.80421 0.82472 0.19694
 C51 C 0.65182 0.77094 0.35928
 H52 H 0.65284 0.71766 0.35726
 C53 C 0.60883 0.80209 0.40806
 H54 H 0.57729 0.77239 0.44407
 C55 C 0.69079 0.87434 0.31401
 H56 H 0.72183 0.90261 0.27636
 C57 C 0.64845 0.90748 0.36163
 H58 H 0.64984 0.96078 0.36144
 Zn59 Zn 0.74909 0.76287 0.24734
 N60 N 0.69252 0.80724 0.31433
 C61 C 0.80311 0.69071 0.37300
 N62 N 0.80605 0.70415 0.29795
 C63 C 0.85329 0.67792 0.25414
 C64 C 0.90014 0.63639 0.28535
 C65 C 0.84843 0.64834 0.40636
 C66 C 0.65537 0.74767 0.13307
 C67 C 0.61347 0.71304 0.08582
 C68 C 0.65563 0.61095 0.13678
 C69 C 0.69718 0.64747 0.18242
 N70 N 0.69645 0.71459 0.17977
 H71 H 0.76636 0.71335 0.40729
 H72 H 0.85496 0.69008 0.19477
 H73 H 0.93787 0.61657 0.24983
 H74 H 0.84611 0.63912 0.46637
 H75 H 0.65501 0.80102 0.13279
 H76 H 0.58136 0.74008 0.04854
 H77 H 0.65817 0.55769 0.13902
 H78 H 0.72940 0.62198 0.22070
 C79 C 0.60644 0.87122 0.40944
 C80 C 0.89556 0.91046 0.13122
 C81 C 0.61259 0.64383 0.08805
 C82 C 0.89767 0.62059 0.36210
 C83 C 0.85234 0.33491 0.72330
 H84 H 0.85876 0.33939 0.78330
 C85 C 0.89194 0.37128 0.67362
 H86 H 0.92905 0.40295 0.69672
 C87 C 0.79814 0.28503 0.62144
 H88 H 0.76286 0.25019 0.60082
 C89 C 0.83626 0.32048 0.56998
 H90 H 0.82885 0.31331 0.51042
 N91 N 0.80566 0.29380 0.69654
 C92 C 0.65806 0.26900 0.87151
 H93 H 0.65349 0.21582 0.87104
 C94 C 0.61977 0.30545 0.92015
 H95 H 0.58522 0.28020 0.95680
 C96 C 0.70854 0.36655 0.82378
 H97 H 0.74316 0.39009 0.78610
 C98 C 0.67055 0.40507 0.87095
 H99 H 0.67713 0.45808 0.86977
 Zn100 Zn 0.75262 0.24458 0.76438
 N101 N 0.70202 0.29975 0.82544
 C102 C 0.80430 0.19749 0.90186
 N103 N 0.80719 0.19208 0.82592
 C104 C 0.85093 0.15181 0.79293
 C105 C 0.89331 0.11392 0.83677
 C106 C 0.84491 0.16004 0.94788
 C107 C 0.64911 0.22769 0.66824
 C108 C 0.60791 0.19559 0.61857
 C109 C 0.65774 0.09221 0.65446
 C110 C 0.69859 0.12652 0.70312
 N111 N 0.69423 0.19319 0.70798
 H112 H 0.77090 0.23126 0.92738
 H113 H 0.85290 0.14920 0.73231
 H114 H 0.92608 0.08174 0.80763
 H115 H 0.84088 0.16516 1.00826
 H116 H 0.64685 0.28072 0.67331
 H117 H 0.57320 0.22402 0.58609
 H118 H 0.66349 0.03949 0.64938
 H119 H 0.73473 0.10011 0.73537
 C120 C 0.62532 0.37427 0.91972
 C121 C 0.88317 0.36505 0.59556
 C122 C 0.61198 0.12716 0.61104
 C123 C 0.89067 0.11751 0.91603
 C124 C 0.36069 0.79026 0.67937
 H125 H 0.38386 0.75984 0.72164
 C126 C 0.39875 0.83080 0.63274
 H127 H 0.45112 0.83028 0.63882
 C128 C 0.26456 0.82874 0.62054
 H129 H 0.21203 0.82839 0.61724
 C130 C 0.30091 0.86947 0.57199
 H131 H 0.27632 0.90051 0.53111
 N132 N 0.29486 0.78986 0.67249
 C133 C 0.11942 0.78121 0.78216
 H134 H 0.10159 0.73947 0.75122
 C135 C 0.07527 0.82295 0.81666
 H136 H 0.02365 0.81261 0.81259
 C137 C 0.20794 0.84652 0.82375
 H138 H 0.25982 0.85572 0.82504
 C139 C 0.16549 0.88946 0.85934
 H140 H 0.18537 0.93211 0.88713
 Zn141 Zn 0.24370 0.73749 0.73891
 N142 N 0.18440 0.79318 0.78711
 C143 C 0.29577 0.70777 0.88435
 N144 N 0.29694 0.69381 0.80984
 C145 C 0.33444 0.64466 0.78288
 C146 C 0.37370 0.60788 0.83111
 C147 C 0.33489 0.67247 0.93470
 C148 C 0.19272 0.67374 0.61029
 C149 C 0.15506 0.62670 0.57379
 C150 C 0.13247 0.57421 0.69408
 C151 C 0.16942 0.62304 0.72845
 N152 N 0.19778 0.67202 0.68646
 H153 H 0.26434 0.74588 0.90501
 H154 H 0.33307 0.63355 0.72366
 H155 H 0.40112 0.56775 0.80787
 H156 H 0.33371 0.68417 0.99385
 H157 H 0.21694 0.71192 0.57767
 H158 H 0.15058 0.62910 0.51321
 H159 H 0.10920 0.53602 0.72812
 H160 H 0.17485 0.62258 0.78888
 C161 C 0.09813 0.87724 0.85674
 C162 C 0.36867 0.87161 0.57890
 C163 C 0.12366 0.57693 0.61620
 C164 C 0.37512 0.62234 0.90819
 C165 C 0.01340 -0.00155 -0.00644
 C166 C -0.00929 0.49759 0.49268
 C167 C 0.49835 0.00000 0.51323
 C168 C 0.50679 0.50676 -0.00537
 C169 C 0.05030 -0.07958 -0.10677
 C170 C 0.06419 -0.04260 -0.04685
 H171 H 0.00094 -0.08047 -0.12792
 H172 H 0.11248 -0.04546 -0.02282
 C173 C 0.06373 0.40278 0.45926
 C174 C 0.02905 0.45570 0.43769
 H175 H 0.05971 0.38392 0.51635
 H176 H 0.03286 0.47261 0.37982
 C177 C 0.56168 -0.09676 0.46314
 C178 C 0.53963 -0.03471 0.45460
 H179 H 0.54601 -0.12613 0.51129
 H180 H 0.55606 -0.00516 0.40703
 C181 C 0.58235 0.41204 -0.03050
 C182 C 0.55725 0.47035 -0.05136
 H183 H 0.56614 0.38829 0.02128
 H184 H 0.57396 0.49309 -0.10350
 C185 C -0.07134 0.08152 -0.03725
 C186 C -0.02037 0.04041 -0.05956
 H187 H -0.08038 0.08419 0.02277
 H188 H -0.00393 0.04169 -0.11730
 C189 C -0.05100 0.57846 0.39509
 C190 C -0.06253 0.53632 0.45252
 H191 H -0.00255 0.58224 0.37129
 H192 H -0.11193 0.53194 0.47372
 C193 C 0.43300 0.05306 0.40712
 C194 C 0.45216 0.05139 0.47926
 H195 H 0.45073 0.01618 0.36904
 H196 H 0.43400 0.08808 0.51732
 C197 C 0.41549 0.58430 -0.03777
 C198 C 0.46766 0.54991 -0.05906
 H199 H 0.40207 0.58456 0.02114
 H200 H 0.48357 0.55373 -0.11695
 C201 C -0.05655 -0.04618 0.10150
 C202 C -0.03385 -0.04687 0.02689
 H203 H -0.03502 -0.01158 0.13998
 H204 H -0.05421 -0.08308 -0.01036
 C205 C -0.07848 0.40287 0.53875
 C206 C -0.04264 0.45637 0.55414
 H207 H -0.08195 0.38773 0.48075
 H208 H -0.04267 0.47559 0.61045
 C209 C 0.40709 -0.08230 0.53126
 C210 C 0.45722 -0.04830 0.55950
 H211 H 0.39193 -0.07346 0.47378
 H212 H 0.46898 -0.05578 0.61837
 C213 C 0.43519 0.45985 0.10036
 C214 C 0.45923 0.45673 0.03024
 H215 H 0.45021 0.49968 0.13628
 H216 H 0.44409 0.41656 -0.00516
 C217 C 0.07327 0.10083 0.03946
 C218 C 0.05122 0.03877 0.05156
 H219 H 0.05936 0.12745 -0.01111
 H220 H 0.06669 0.01265 0.10179
 C221 C 0.08071 0.52830 0.58072
 C222 C 0.03773 0.54612 0.52783
 H223 H 0.08063 0.47823 0.60287
 H224 H 0.03712 0.59716 0.50871
 C225 C 0.56878 0.09470 0.55644
 C226 C 0.54617 0.03295 0.56622
 H227 H 0.55201 0.12430 0.50925
 H228 H 0.56366 0.00402 0.61359
 C229 C 0.56886 0.60778 0.03654
 C230 C 0.54465 0.54712 0.05168
 H231 H 0.55608 0.63266 -0.01557
 H232 H 0.55807 0.52246 0.10367
   
