data_POSCAR
  _audit_creation_date              2014-09-24
  _audit_creation_method            'ToBaCCo'
  _symmetry_space_group_name_H-M    'P1'
  _symmetry_Int_Tables_number       1
  _symmetry_cell_setting            triclinic
  loop_
  _symmetry_equiv_pos_as_xyz
 x,y,z
_cell_length_a 29.8815
_cell_length_b 29.9327
_cell_length_c 48.0965
_cell_angle_alpha 88.605400
_cell_angle_beta 91.843400
_cell_angle_gamma 120.067500
loop_
  _atom_site_label
  _atom_site_type_symbol
  _atom_site_fract_x
  _atom_site_fract_y
  _atom_site_fract_z
C1 C 0.03440 0.08814 0.53854
 H2 H 0.06999 0.08701 0.53800
 C3 C 0.03221 0.12560 0.55419
 H4 H 0.06612 0.15330 0.56587
 C5 C -0.05248 0.05515 0.52276
 H6 H -0.08480 0.02861 0.50983
 C7 C -0.05627 0.09217 0.53811
 H8 H -0.09170 0.09379 0.53717
 N9 N -0.00745 0.05408 0.52315
 C10 C 0.02642 -0.06782 0.50573
 H11 H 0.02604 -0.06612 0.48323
 C12 C 0.03164 -0.10654 0.51954
 H13 H 0.03572 -0.13457 0.50769
 C14 C 0.01830 -0.03536 0.54865
 H15 H 0.01130 -0.00867 0.55984
 C16 C 0.02336 -0.07357 0.56330
 H17 H 0.02091 -0.07581 0.58577
 Zn18 Zn 0.00290 0.01076 0.49952
 N19 N 0.01952 -0.03349 0.52036
 C20 C 0.10345 0.05660 0.47651
 N21 N 0.05718 0.05520 0.47598
 C22 C 0.04969 0.08976 0.46062
 C23 C 0.08984 0.12814 0.44518
 C24 C 0.14477 0.09455 0.46138
 C25 C -0.09921 -0.06779 0.49330
 C26 C -0.14305 -0.10610 0.47952
 C27 C -0.10102 -0.07139 0.43570
 C28 C -0.05790 -0.03364 0.45036
 N29 N -0.05769 -0.03284 0.47866
 H30 H 0.10896 0.02962 0.48942
 H31 H 0.01282 0.08834 0.46107
 H32 H 0.08388 0.15625 0.43355
 H33 H 0.18195 0.09644 0.46246
 H34 H -0.09746 -0.06689 0.51580
 H35 H -0.17532 -0.13451 0.49151
 H36 H -0.10025 -0.07257 0.41321
 H37 H -0.02397 -0.00644 0.43918
 C38 C 0.02940 -0.10985 0.54856
 C39 C -0.01331 0.12801 0.55371
 C40 C -0.14372 -0.10839 0.45046
 C41 C 0.13797 0.13095 0.44585
 C42 C 1.08741 0.02841 0.12836
 H43 H 1.08643 0.06405 0.12859
 C44 C 1.12425 0.02521 0.11279
 H45 H 1.15164 0.05838 0.10084
 C46 C 1.05456 -0.05757 0.14480
 H47 H 1.02827 -0.08915 0.15792
 C48 C 1.09100 -0.06236 0.12955
 H49 H 1.09244 -0.09780 0.13075
 N50 N 1.05367 -0.01253 0.14401
 C51 C 0.93245 0.02311 0.16009
 H52 H 0.93466 0.02415 0.18258
 C53 C 0.89361 0.02792 0.14587
 H54 H 0.86601 0.03312 0.15740
 C55 C 0.96372 0.01187 0.11761
 H56 H 0.98997 0.00383 0.10677
 C57 C 0.92534 0.01639 0.10257
 H58 H 0.92253 0.01245 0.08016
 Zn59 Zn 1.01090 -0.00077 0.16722
 N60 N 0.96627 0.01489 0.14588
 C61 C 1.05723 0.10068 0.18964
 N62 N 1.05596 0.05457 0.19047
 C63 C 1.09082 0.04772 0.20614
 C64 C 1.12924 0.08835 0.22168
 C65 C 1.09520 0.14245 0.20486
 C66 C 0.93221 -0.10238 0.17419
 C67 C 0.89428 -0.14535 0.18832
 C68 C 0.93025 -0.10089 0.23173
 C69 C 0.96761 -0.05867 0.21678
 N70 N 0.96763 -0.06008 0.18850
 H71 H 1.03001 0.10566 0.17649
 H72 H 1.08949 0.01094 0.20595
 H73 H 1.15750 0.08285 0.23363
 H74 H 1.09689 0.17944 0.20360
 H75 H 0.93244 -0.10195 0.15169
 H76 H 0.86539 -0.17835 0.17671
 H77 H 0.92950 -0.09905 0.25417
 H78 H 0.99514 -0.02416 0.22770
 C79 C 0.88961 0.02382 0.11690
 C80 C 1.12642 -0.02036 0.11363
 C81 C 0.89291 -0.14431 0.21731
 C82 C 1.13179 0.13626 0.22079
 C83 C 0.03859 0.96060 0.87169
 H84 H 0.00172 0.92507 0.87144
 C85 C 0.08022 0.96345 0.88715
 H86 H 0.07542 0.93014 0.89900
 C87 C 0.09067 1.04661 0.85537
 H88 H 0.09488 1.07830 0.84230
 C89 C 0.13345 1.05104 0.87051
 H90 H 0.17046 1.08636 0.86929
 N91 N 0.04452 1.00170 0.85613
 C92 C -0.11404 0.96624 0.83976
 H93 H -0.11496 0.96540 0.81727
 C94 C -0.15642 0.96128 0.85386
 H95 H -0.19027 0.95614 0.84217
 C96 C -0.06753 0.97712 0.88235
 H97 H -0.03218 0.98508 0.89328
 C98 C -0.10905 0.97246 0.89730
 H99 H -0.10570 0.97620 0.91974
 Zn100 Zn -0.01228 0.99029 0.83286
 N101 N -0.07065 0.97435 0.85408
 C102 C -0.06982 0.88905 0.81013
 N103 N -0.02496 0.93525 0.80942
 C104 C 0.01530 0.94233 0.79382
 C105 C 0.01166 0.90183 0.77830
 C106 C -0.07504 0.84741 0.79491
 C107 C 0.01077 1.09211 0.82628
 C108 C 0.01463 1.13528 0.81234
 C109 C 0.00089 1.09112 0.76876
 C110 C -0.00263 1.04870 0.78354
 N111 N 0.00195 1.04987 0.81181
 H112 H -0.10081 0.88388 0.82323
 H113 H 0.05085 0.97917 0.79411
 H114 H 0.04438 0.90749 0.76646
 H115 H -0.11027 0.81033 0.79611
 H116 H 0.01306 1.09148 0.84877
 H117 H 0.02037 1.16826 0.82408
 H118 H -0.00422 1.08947 0.74634
 H119 H -0.01110 1.01424 0.77249
 C120 C -0.15362 0.96514 0.88287
 C121 C 0.12820 1.00885 0.88630
 C122 C 0.00895 1.13449 0.78336
 C123 C -0.03367 0.85380 0.77911
 C124 C 0.45789 -0.00705 -0.01541
 C125 C 0.45994 -0.00605 0.01389
 C126 C 0.50190 -0.00488 0.02838
 C127 C 0.54154 -0.00533 0.01385
 C128 C 0.53886 -0.00761 -0.01543
 C129 C 0.49719 -0.00816 -0.02994
 H130 H 0.49536 -0.00942 -0.05248
 H131 H 0.50372 -0.00360 0.05093
 C132 C -0.00402 0.46113 0.65185
 C133 C -0.01176 0.45662 0.68076
 C134 C -0.01663 0.49443 0.69472
 C135 C -0.01279 0.53723 0.68012
 C136 C -0.00286 0.54283 0.65143
 C137 C 0.00084 0.50443 0.63736
 H138 H 0.00756 0.50826 0.61517
 H139 H -0.02318 0.49065 0.71692
 C140 C 0.55087 0.54572 0.32070
 C141 C 0.54571 0.55123 0.34925
 C142 C 0.50308 0.51273 0.36343
 C143 C 0.46501 0.46939 0.34918
 C144 C 0.46913 0.46496 0.32040
 C145 C 0.51225 0.50289 0.30634
 H146 H 0.51572 0.49912 0.28426
 H147 H 0.49957 0.51645 0.38552
 C148 C -0.00353 0.34094 0.61330
 C149 C 0.02112 0.31645 0.62708
 C150 C 0.01638 0.27065 0.61600
 C151 C -0.01169 0.25048 0.59076
 C152 C -0.03607 0.27517 0.57689
 C153 C -0.03208 0.32046 0.58823
 C154 C -0.05695 0.34434 0.57406
 C155 C -0.08495 0.32406 0.54937
 C156 C -0.08884 0.27979 0.53826
 C157 C -0.06476 0.25546 0.55176
 C158 C 0.03985 0.24587 0.63065
 C159 C 0.06741 0.26588 0.65550
 C160 C 0.07274 0.31112 0.66612
 C161 C 0.05019 0.33643 0.65208
 C162 C -0.01373 0.20570 0.57842
 C163 C -0.01433 0.16955 0.56752
 C164 C -0.00203 0.38534 0.62576
 C165 C -0.00213 0.42084 0.63699
 H166 H -0.05491 0.37895 0.58185
 H167 H -0.10371 0.34283 0.53879
 H168 H -0.11066 0.26417 0.51907
 H169 H -0.06904 0.22103 0.54234
 H170 H 0.03684 0.21063 0.62319
 H171 H 0.08479 0.24623 0.66656
 H172 H 0.09417 0.32653 0.68543
 H173 H 0.05524 0.37138 0.66122
 C174 C 0.68046 0.65547 0.28135
 C175 C 0.72688 0.68342 0.29722
 C176 C 0.77122 0.72478 0.28473
 C177 C 0.76939 0.73676 0.25621
 C178 C 0.72330 0.70800 0.24019
 C179 C 0.67864 0.66739 0.25284
 C180 C 0.63287 0.63952 0.23649
 C181 C 0.63130 0.65136 0.20841
 C182 C 0.67498 0.69100 0.19601
 C183 C 0.72055 0.71912 0.21161
 C184 C 0.81651 0.75350 0.30127
 C185 C 0.81809 0.74144 0.32933
 C186 C 0.77508 0.70035 0.34141
 C187 C 0.73002 0.67132 0.32559
 C188 C 0.81455 0.77884 0.24326
 C189 C 0.85101 0.81381 0.23183
 C190 C 0.63415 0.61579 0.29461
 C191 C 0.59587 0.58354 0.30607
 H192 H 0.59793 0.60824 0.24519
 H193 H 0.59599 0.62962 0.19620
 H194 H 0.67357 0.70004 0.17418
 H195 H 0.75347 0.74961 0.20100
 H196 H 0.85104 0.78561 0.29275
 H197 H 0.85295 0.76399 0.34174
 H198 H 0.77650 0.69105 0.36320
 H199 H 0.69753 0.63980 0.33592
 C200 C 0.33662 -0.00177 -0.05424
 C201 C 0.28774 -0.02851 -0.04159
 C202 C 0.24598 -0.02302 -0.05251
 C203 C 0.25284 0.00775 -0.07658
 C204 C 0.30168 0.03438 -0.08926
 C205 C 0.34375 0.02975 -0.07799
 C206 C 0.39227 0.05692 -0.09094
 C207 C 0.39902 0.08775 -0.11439
 C208 C 0.35787 0.09222 -0.12544
 C209 C 0.30967 0.06592 -0.11311
 C210 C 0.19804 -0.04858 -0.03889
 C211 C 0.19148 -0.07891 -0.01524
 C212 C 0.23203 -0.08505 -0.00486
 C213 C 0.27958 -0.06049 -0.01791
 C214 C 0.20911 0.00999 -0.08906
 C215 C 0.17244 0.01042 -0.09998
 C216 C 0.38010 -0.00458 -0.04188
 C217 C 0.41588 -0.00614 -0.03057
 H218 H 0.42539 0.05453 -0.08314
 H219 H 0.43639 0.10825 -0.12404
 H220 H 0.36332 0.11622 -0.14366
 H221 H 0.27888 0.07077 -0.12241
 H222 H 0.16531 -0.04508 -0.04624
 H223 H 0.15468 -0.09787 -0.00496
 H224 H 0.22676 -0.10869 0.01349
 H225 H 0.31000 -0.06633 -0.00900
 C226 C 0.01719 0.67399 0.61163
 C227 C 0.00228 0.67357 0.58338
 C228 C 0.00635 0.71894 0.57087
 C229 C 0.02487 0.76432 0.58679
 C230 C 0.03985 0.76475 0.61504
 C231 C 0.03686 0.71971 0.62736
 C232 C 0.05325 0.72143 0.65546
 C233 C 0.07043 0.76580 0.67121
 C234 C 0.07236 0.80949 0.65931
 C235 C 0.05760 0.80930 0.63151
 C236 C -0.00871 0.71759 0.54255
 C237 C -0.02735 0.67270 0.52707
 C238 C -0.03143 0.62833 0.53933
 C239 C -0.01685 0.62853 0.56716
 C240 C 0.02796 0.81022 0.57403
 C241 C 0.02944 0.84737 0.56279
 C242 C 0.01041 0.62696 0.62484
 C243 C 0.00432 0.58821 0.63643
 H244 H 0.05232 0.68837 0.66565
 H245 H 0.08203 0.76614 0.69279
 H246 H 0.08556 0.84380 0.67166
 H247 H 0.06008 0.84433 0.62311
 H248 H -0.00631 0.75109 0.53206
 H249 H -0.03870 0.67236 0.50544
 H250 H -0.04592 0.59356 0.52722
 H251 H -0.02058 0.59310 0.57576
 C252 C 0.34777 0.34242 0.28104
 C253 C 0.32676 0.34916 0.25556
 C254 C 0.28091 0.30733 0.24400
 C255 C 0.25620 0.25908 0.25808
 C256 C 0.27692 0.25251 0.28373
 C257 C 0.32328 0.29408 0.29503
 C258 C 0.34380 0.28631 0.32044
 C259 C 0.31849 0.23928 0.33467
 C260 C 0.27270 0.19891 0.32384
 C261 C 0.25213 0.20513 0.29859
 C262 C 0.26067 0.31497 0.21846
 C263 C 0.28501 0.36260 0.20476
 C264 C 0.32982 0.40351 0.21608
 C265 C 0.35063 0.39710 0.24118
 C266 C 0.21078 0.21574 0.24559
 C267 C 0.17407 0.17961 0.23462
 C268 C 0.39265 0.38596 0.29374
 C269 C 0.42850 0.42211 0.30521
 H270 H 0.37920 0.31662 0.32975
 H271 H 0.33433 0.23428 0.35428
 H272 H 0.25304 0.16254 0.33504
 H273 H 0.21648 0.17257 0.29098
 H274 H 0.22581 0.28437 0.20886
 H275 H 0.26898 0.36778 0.18525
 H276 H 0.34859 0.44043 0.20535
 H277 H 0.38565 0.43002 0.24912
 C278 C 0.65293 -0.01735 -0.05505
 C279 C 0.70405 0.00999 -0.04391
 C280 C 0.74352 0.00335 -0.05543
 C281 C 0.73203 -0.02923 -0.07861
 C282 C 0.68096 -0.05644 -0.08980
 C283 C 0.64125 -0.05062 -0.07792
 C284 C 0.59045 -0.07836 -0.08938
 C285 C 0.57920 -0.11089 -0.11197
 C286 C 0.61803 -0.11654 -0.12361
 C287 C 0.66840 -0.08972 -0.11275
 C288 C 0.79390 0.02966 -0.04331
 C289 C 0.80503 0.06185 -0.02057
 C290 C 0.76666 0.06911 -0.00964
 C291 C 0.71678 0.04384 -0.02121
 C292 C 0.77314 -0.03281 -0.09180
 C293 C 0.80742 -0.03454 -0.10338
 C294 C 0.61203 -0.01305 -0.04215
 C295 C 0.57837 -0.01020 -0.03060
 H296 H 0.55897 -0.07510 -0.08109
 H297 H 0.54014 -0.13179 -0.12050
 H298 H 0.60909 -0.14188 -0.14116
 H299 H 0.69724 -0.09551 -0.12246
 H300 H 0.82506 0.02535 -0.05115
 H301 H 0.84367 0.08139 -0.01144
 H302 H 0.77549 0.09420 0.00801
 H303 H 0.68821 0.05058 -0.01192
 C304 C 0.33774 -0.01118 0.05303
 C305 C 0.31434 0.01563 0.04053
 C306 C 0.26845 0.01035 0.05168
 C307 C 0.24722 -0.02029 0.07582
 C308 C 0.27065 -0.04704 0.08834
 C309 C 0.31596 -0.04260 0.07685
 C310 C 0.33859 -0.06986 0.08965
 C311 C 0.31709 -0.10060 0.11316
 C312 C 0.27282 -0.10489 0.12442
 C313 C 0.24971 -0.07850 0.11225
 C314 C 0.24470 0.03599 0.03822
 C315 C 0.26585 0.06621 0.01450
 C316 C 0.31125 0.07214 0.00389
 C317 C 0.33556 0.04750 0.01678
 C318 C 0.20290 -0.02221 0.08857
 C319 C 0.16726 -0.02234 0.09970
 C320 C 0.38258 -0.00846 0.04050
 C321 C 0.41864 -0.00695 0.02909
 H322 H 0.37313 -0.06761 0.08169
 H323 H 0.33491 -0.12116 0.12270
 H324 H 0.25626 -0.12884 0.14268
 H325 H 0.21520 -0.08322 0.12170
 H326 H 0.20940 0.03265 0.04574
 H327 H 0.24698 0.08524 0.00434
 H328 H 0.32759 0.09570 -0.01452
 H329 H 0.37071 0.05317 0.00770
 C330 C 0.65642 0.68165 0.38865
 C331 C 0.66952 0.68068 0.41710
 C332 C 0.71075 0.72563 0.42959
 C333 C 0.73896 0.77114 0.41347
 C334 C 0.72575 0.77214 0.38503
 C335 C 0.68377 0.72753 0.37270
 C336 C 0.67048 0.72984 0.34440
 C337 C 0.69892 0.77435 0.32848
 C338 C 0.74062 0.81762 0.34039
 C339 C 0.75386 0.81686 0.36838
 C340 C 0.72307 0.72372 0.45811
 C341 C 0.69551 0.67870 0.47380
 C342 C 0.65526 0.63474 0.46156
 C343 C 0.64224 0.63549 0.43354
 C344 C 0.78180 0.81653 0.42623
 C345 C 0.81747 0.85318 0.43752
 C346 C 0.61627 0.63498 0.37549
 C347 C 0.58374 0.59645 0.36402
 H348 H 0.63845 0.69712 0.33419
 H349 H 0.68870 0.77514 0.30674
 H350 H 0.76271 0.85205 0.32791
 H351 H 0.78641 0.85157 0.37679
 H352 H 0.75407 0.75689 0.46860
 H353 H 0.70546 0.67794 0.49558
 H354 H 0.63396 0.59987 0.47383
 H355 H 0.61052 0.60037 0.42496
 C356 C -0.00987 0.33560 0.72117
 C357 C 0.01819 0.34318 0.74656
 C358 C 0.02370 0.30227 0.75852
 C359 C 0.00139 0.25410 0.74491
 C360 C -0.02638 0.24664 0.71941
 C361 C -0.03273 0.28725 0.70773
 C362 C -0.06157 0.27854 0.68252
 C363 C -0.08232 0.23154 0.66883
 C364 C -0.07533 0.19215 0.68000
 C365 C -0.04797 0.19928 0.70508
 C366 C 0.05184 0.31074 0.78396
 C367 C 0.07395 0.35830 0.79719
 C368 C 0.06860 0.39832 0.78547
 C369 C 0.04109 0.39107 0.76045
 C370 C 0.00537 0.21178 0.75773
 C371 C 0.00772 0.17660 0.76904
 C372 C -0.01249 0.37838 0.70800
 C373 C -0.01309 0.41408 0.69622
 H374 H -0.06785 0.30809 0.67296
 H375 H -0.10361 0.22583 0.64935
 H376 H -0.09129 0.15581 0.66921
 H377 H -0.04366 0.16746 0.71299
 H378 H 0.05719 0.28084 0.79387
 H379 H 0.09537 0.36412 0.81662
 H380 H 0.08583 0.43518 0.79583
 H381 H 0.03783 0.42331 0.75220
 C382 C 0.66967 0.00506 0.05361
 C383 C 0.69344 0.03832 0.07650
 C384 C 0.74022 0.04436 0.08851
 C385 C 0.76317 0.01742 0.07738
 C386 C 0.73987 -0.01514 0.05416
 C387 C 0.69250 -0.02205 0.04255
 C388 C 0.66919 -0.05591 0.01983
 C389 C 0.69285 -0.08091 0.00832
 C390 C 0.73968 -0.07335 0.01933
 C391 C 0.76294 -0.04115 0.04210
 C392 C 0.76310 0.07757 0.11151
 C393 C 0.74047 0.10416 0.12230
 C394 C 0.69479 0.09835 0.11052
 C395 C 0.67137 0.06585 0.08788
 C396 C 0.80931 0.02131 0.09065
 C397 C 0.84661 0.02330 0.10228
 C398 C 0.62307 0.00049 0.04061
 C399 C 0.58530 -0.00256 0.02901
 H400 H 0.63287 -0.06287 0.01047
 H401 H 0.67488 -0.10602 -0.00934
 H402 H 0.75803 -0.09267 0.01024
 H403 H 0.79930 -0.03661 0.05000
 H404 H 0.79873 0.08348 0.12134
 H405 H 0.75851 0.12945 0.13989
 H406 H 0.67737 0.11909 0.11897
 H407 H 0.63577 0.06246 0.07948
 C408 C 0.34297 0.34796 0.38764
 C409 C 0.29453 0.32313 0.37330
 C410 C 0.25319 0.27660 0.38414
 C411 C 0.26006 0.25602 0.40969
 C412 C 0.30838 0.28109 0.42413
 C413 C 0.35000 0.32712 0.41303
 C414 C 0.39802 0.35133 0.42776
 C415 C 0.40472 0.33069 0.45277
 C416 C 0.36402 0.28571 0.46365
 C417 C 0.31632 0.26103 0.44959
 C418 C 0.20573 0.25149 0.36893
 C419 C 0.19922 0.27191 0.34378
 C420 C 0.23936 0.31786 0.33341
 C421 C 0.28645 0.34349 0.34798
 C422 C 0.21693 0.21035 0.42171
 C423 C 0.18102 0.17344 0.43234
 C424 C 0.38637 0.39295 0.37534
 C425 C 0.42238 0.42883 0.36415
 H426 H 0.43077 0.38650 0.42017
 H427 H 0.44170 0.34973 0.46377
 H428 H 0.36943 0.26981 0.48308
 H429 H 0.28589 0.22604 0.45885
 H430 H 0.17335 0.21570 0.37619
 H431 H 0.16280 0.25201 0.33231
 H432 H 0.23413 0.33359 0.31387
 H433 H 0.31658 0.37901 0.33902
 C434 C -0.03033 0.64794 0.71863
 C435 C -0.01518 0.66082 0.74681
 C436 C -0.01773 0.70237 0.75882
 C437 C -0.03499 0.73110 0.74249
 C438 C -0.05038 0.71805 0.71434
 C439 C -0.04890 0.67577 0.70251
 C440 C -0.06559 0.66269 0.67450
 C441 C -0.08165 0.69160 0.65836
 C442 C -0.08213 0.73357 0.66977
 C443 C -0.06702 0.74663 0.69748
 C444 C -0.00239 0.71449 0.78707
 C445 C 0.01502 0.68641 0.80296
 C446 C 0.01760 0.64585 0.79117
 C447 C 0.00273 0.63303 0.76343
 C448 C -0.03614 0.77441 0.75469
 C449 C -0.03589 0.81050 0.76545
 C450 C -0.02468 0.60766 0.70586
 C451 C -0.01933 0.57512 0.69465
 H452 H -0.06578 0.63046 0.66468
 H453 H -0.09352 0.68153 0.63684
 H454 H -0.09446 0.75602 0.65712
 H455 H -0.06835 0.77940 0.70549
 H456 H -0.00366 0.74571 0.79719
 H457 H 0.02660 0.69622 0.82452
 H458 H 0.03116 0.62416 0.80360
 H459 H 0.00528 0.60106 0.75521
   
