data_POSCAR
  _audit_creation_date              2014-09-24
  _audit_creation_method            'ToBaCCo'
  _symmetry_space_group_name_H-M    'P1'
  _symmetry_Int_Tables_number       1
  _symmetry_cell_setting            triclinic
  loop_
  _symmetry_equiv_pos_as_xyz
 x,y,z
_cell_length_a 50.4104
_cell_length_b 48.4710
_cell_length_c 50.1683
_cell_angle_alpha 91.522300
_cell_angle_beta 90.642100
_cell_angle_gamma 92.254300
loop_
  _atom_site_label
  _atom_site_type_symbol
  _atom_site_fract_x
  _atom_site_fract_y
  _atom_site_fract_z
C1 C 0.59645 0.61943 0.63839
 C2 C 0.57510 0.63714 0.63715
 C3 C 0.57310 0.65590 0.61637
 C4 C 0.59274 0.65676 0.59670
 C5 C 0.61422 0.63931 0.59774
 C6 C 0.61611 0.62059 0.61868
 C7 C 0.59855 0.60087 0.65925
 C8 C 0.62023 0.58328 0.66103
 C9 C 0.63965 0.58474 0.64090
 C10 C 0.63775 0.60316 0.61996
 C11 C 0.65734 0.60450 0.60032
 C12 C 0.65569 0.62320 0.57946
 C13 C 0.63398 0.64048 0.57830
 H14 H 0.55990 0.63616 0.65224
 H15 H 0.59159 0.67145 0.58085
 H16 H 0.58373 0.60127 0.67467
 H17 H 0.65596 0.57088 0.64071
 H18 H 0.67421 0.59139 0.60159
 H19 H 0.63234 0.65472 0.56212
 C20 C 0.89932 0.36925 0.14334
 C21 C 0.91934 0.35006 0.14110
 C22 C 0.92108 0.33242 0.11830
 C23 C 0.90195 0.33472 0.09768
 C24 C 0.88180 0.35380 0.09971
 C25 C 0.88048 0.37114 0.12260
 C26 C 0.89797 0.38671 0.16604
 C27 C 0.87787 0.40591 0.16836
 C28 C 0.85910 0.40759 0.14758
 C29 C 0.86030 0.39041 0.12475
 C30 C 0.84166 0.39225 0.10401
 C31 C 0.84279 0.37503 0.08110
 C32 C 0.86287 0.35576 0.07916
 H33 H 0.93414 0.34991 0.15688
 H34 H 0.90181 0.32096 0.08034
 H35 H 0.91234 0.38509 0.18210
 H36 H 0.84378 0.42262 0.14901
 H37 H 0.82602 0.40689 0.10584
 H38 H 0.86401 0.34261 0.06142
 C39 C 0.39864 0.12386 -0.14103
 C40 C 0.41751 0.14594 -0.14027
 C41 C 0.41610 0.16737 -0.12097
 C42 C 0.39566 0.16644 -0.10215
 C43 C 0.37675 0.14441 -0.10255
 C44 C 0.37815 0.12311 -0.12217
 C45 C 0.39985 0.10270 -0.16056
 C46 C 0.38068 0.08056 -0.16188
 C47 C 0.36035 0.08018 -0.14267
 C48 C 0.35907 0.10109 -0.12291
 C49 C 0.33901 0.10019 -0.10374
 C50 C 0.33768 0.12110 -0.08387
 C51 C 0.35656 0.14325 -0.08355
 H52 H 0.43310 0.14671 -0.15498
 H53 H 0.39468 0.18272 -0.08700
 H54 H 0.41518 0.10443 -0.17541
 H55 H 0.34594 0.06305 -0.14218
 H56 H 0.32425 0.08330 -0.10443
 H57 H 0.35586 0.15934 -0.06818
 C58 C 0.10266 0.87937 0.35302
 C59 C 0.08222 0.85893 0.35367
 C60 C 0.08263 0.83765 0.37239
 C61 C 0.10430 0.83746 0.39052
 C62 C 0.12462 0.85809 0.39037
 C63 C 0.12388 0.87906 0.37150
 C64 C 0.10216 0.90016 0.33411
 C65 C 0.12251 0.92081 0.33351
 C66 C 0.14350 0.92050 0.35219
 C67 C 0.14426 0.89985 0.37122
 C68 C 0.16491 0.89986 0.39019
 C69 C 0.16550 0.87936 0.40949
 C70 C 0.14540 0.85838 0.40924
 H71 H 0.06653 0.85920 0.33877
 H72 H 0.10487 0.82211 0.40579
 H73 H 0.08603 0.90008 0.31963
 H74 H 0.15903 0.93662 0.35218
 H75 H 0.18056 0.91583 0.38992
 H76 H 0.14553 0.84267 0.42421
 N77 N 0.09882 0.16988 0.10765
 N78 N 0.08853 0.16093 0.12991
 C79 C 0.06723 0.17570 0.13592
 C80 C 0.06395 0.19502 0.11640
 C81 C 0.08443 0.19065 0.09875
 H82 H 0.05487 0.17240 0.15308
 H83 H 0.08872 0.20181 0.08084
 Cu84 Cu 0.10357 0.13063 0.14887
 Cu85 Cu 0.13007 0.15391 0.09194
 Cu86 Cu 0.15658 0.09884 0.12431
 N87 N 0.11822 0.09904 0.16613
 N88 N 0.13890 0.08670 0.15647
 C89 C 0.14459 0.06544 0.17199
 C90 C 0.12647 0.06428 0.19257
 C91 C 0.11003 0.08601 0.18811
 H92 H 0.16059 0.05169 0.16832
 H93 H 0.09326 0.09189 0.19990
 N94 N 0.17170 0.11408 0.09152
 N95 N 0.16164 0.13503 0.07918
 C96 C 0.17633 0.14055 0.05756
 C97 C 0.19668 0.12216 0.05615
 C98 C 0.19304 0.10570 0.07808
 H99 H 0.17239 0.15667 0.04377
 H100 H 0.20512 0.08894 0.08396
 H101 H 0.12324 0.11509 0.10720
 H102 H 0.14587 0.13958 0.12688
 N103 N 0.39873 0.82339 0.60860
 N104 N 0.41052 0.83376 0.63030
 C105 C 0.43087 0.81792 0.63673
 C106 C 0.43196 0.79642 0.61801
 C107 C 0.41116 0.80066 0.60046
 H108 H 0.44401 0.82191 0.65366
 H109 H 0.40544 0.78823 0.58298
 Cu110 Cu 0.39830 0.86708 0.64800
 Cu111 Cu 0.36835 0.84026 0.59227
 Cu112 Cu 0.34489 0.89846 0.62428
 N113 N 0.38443 0.89944 0.66599
 N114 N 0.36335 0.91134 0.65682
 C115 C 0.35794 0.93297 0.67294
 C116 C 0.37670 0.93486 0.69335
 C117 C 0.39322 0.91320 0.68826
 H118 H 0.34181 0.94661 0.66975
 H119 H 0.41024 0.90776 0.70001
 N120 N 0.32892 0.88238 0.59110
 N121 N 0.33786 0.86025 0.57887
 C122 C 0.32312 0.85470 0.55666
 C123 C 0.30395 0.87430 0.55474
 C124 C 0.30829 0.89149 0.57700
 H125 H 0.32636 0.83781 0.54275
 H126 H 0.29728 0.90937 0.58257
 H127 H 0.37683 0.88004 0.60660
 H128 H 0.35478 0.85763 0.62736
 N129 N 0.90427 0.66481 0.39260
 N130 N 0.91681 0.65059 0.37434
 C131 C 0.93899 0.66502 0.36751
 C132 C 0.94022 0.68968 0.38210
 C133 C 0.91784 0.68884 0.39780
 H134 H 0.95284 0.65851 0.35252
 H135 H 0.91196 0.70448 0.41208
 Cu136 Cu 0.90189 0.61553 0.36010
 Cu137 Cu 0.87154 0.65101 0.40864
 Cu138 Cu 0.84525 0.58793 0.38452
 N139 N 0.88654 0.58050 0.34623
 N140 N 0.86436 0.56990 0.35583
 C141 C 0.85738 0.54657 0.34193
 C142 C 0.87612 0.54226 0.32238
 C143 C 0.89438 0.56427 0.32582
 H144 H 0.83958 0.53412 0.34545
 H145 H 0.91164 0.56866 0.31386
 N146 N 0.82884 0.60939 0.41344
 N147 N 0.83872 0.63352 0.42241
 C148 C 0.82313 0.64299 0.44197
 C149 C 0.80237 0.62393 0.44556
 C150 C 0.80669 0.60289 0.42707
 H151 H 0.82685 0.66222 0.45300
 H152 H 0.79455 0.58424 0.42367
 H153 H 0.87763 0.60957 0.40143
 H154 H 0.85811 0.62760 0.37578
 N155 N 0.59531 0.34224 -0.11050
 N156 N 0.58203 0.35675 -0.12750
 C157 C 0.55883 0.34326 -0.13368
 C158 C 0.55751 0.31890 -0.11984
 C159 C 0.58107 0.31896 -0.10535
 H160 H 0.54420 0.35051 -0.14748
 H161 H 0.58723 0.30346 -0.09174
 Cu162 Cu 0.59619 0.39174 -0.14033
 Cu163 Cu 0.62963 0.35509 -0.09568
 Cu164 Cu 0.65889 0.41275 -0.12403
 N165 N 0.61502 0.42051 -0.15967
 N166 N 0.63947 0.42862 -0.15325
 C167 C 0.64770 0.44846 -0.16984
 C168 C 0.62732 0.45310 -0.18778
 C169 C 0.60685 0.43489 -0.18063
 H170 H 0.66717 0.45860 -0.16888
 H171 H 0.58753 0.43201 -0.19006
 N172 N 0.67523 0.39367 -0.09423
 N173 N 0.66420 0.37155 -0.08351
 C174 C 0.67982 0.36367 -0.06336
 C175 C 0.70178 0.38176 -0.06122
 C176 C 0.69813 0.40049 -0.08120
 H177 H 0.67520 0.34645 -0.05075
 H178 H 0.71110 0.41793 -0.08585
 H179 H 0.62710 0.39676 -0.10261
 H180 H 0.63969 0.37455 -0.13049
 C181 C -0.01795 0.27473 0.11287
 C182 C -0.02947 0.28435 0.08949
 C183 C -0.04957 0.30330 0.09121
 C184 C -0.05854 0.31296 0.11621
 C185 C -0.04643 0.30237 0.13911
 N186 N -0.02701 0.28385 0.13682
 C187 C 0.00326 0.25438 0.11258
 N188 N 0.00741 0.23974 0.13492
 C189 C 0.02648 0.22081 0.13657
 C190 C 0.04307 0.21570 0.11482
 C191 C 0.03936 0.23079 0.09165
 C192 C 0.01959 0.25013 0.09045
 H193 H -0.05720 0.31097 0.07272
 H194 H -0.05295 0.30772 0.15895
 H195 H 0.02869 0.21005 0.15499
 H196 H 0.05164 0.22770 0.07437
 H197 H -0.02340 0.27724 0.06997
 H198 H 0.01759 0.26180 0.07252
 C199 C 0.50993 0.71241 0.61394
 C200 C 0.51794 0.69920 0.59025
 C201 C 0.53828 0.68052 0.59109
 C202 C 0.55078 0.67496 0.61538
 C203 C 0.54215 0.68850 0.63860
 N204 N 0.52238 0.70672 0.63727
 C205 C 0.48918 0.73325 0.61428
 N206 N 0.48872 0.75170 0.63519
 C207 C 0.47068 0.77176 0.63691
 C208 C 0.45143 0.77418 0.61672
 C209 C 0.45124 0.75503 0.59520
 C210 C 0.46994 0.73456 0.59394
 H211 H 0.54424 0.67043 0.57272
 H212 H 0.55151 0.68514 0.65769
 H213 H 0.47157 0.78572 0.65407
 H214 H 0.43675 0.75576 0.57921
 H215 H 0.50921 0.70360 0.57113
 H216 H 0.46895 0.71986 0.57734
 C217 C 1.02038 0.77679 0.37579
 C218 C 1.01501 0.80309 0.36674
 C219 C 1.03556 0.82308 0.36527
 C220 C 1.06166 0.81725 0.37319
 C221 C 1.06600 0.79037 0.38206
 N222 N 1.04567 0.77114 0.38283
 C223 C 0.99928 0.75494 0.37747
 N224 N 1.00518 0.72823 0.37200
 C225 C 0.98665 0.70714 0.37316
 C226 C 0.96056 0.71238 0.38068
 C227 C 0.95419 0.73971 0.38685
 C228 C 0.97342 0.76105 0.38510
 H229 H 1.03051 0.84342 0.35900
 H230 H 1.08565 0.78409 0.38744
 H231 H 0.99243 0.68630 0.36856
 H232 H 0.93428 0.74465 0.39269
 H233 H 0.99516 0.80814 0.36060
 H234 H 0.96822 0.78199 0.39011
 C235 C 0.47377 0.23457 -0.12054
 C236 C 0.44681 0.24001 -0.11732
 C237 C 0.42800 0.21810 -0.11730
 C238 C 0.43593 0.19080 -0.12057
 C239 C 0.46307 0.18624 -0.12351
 N240 N 0.48105 0.20790 -0.12327
 C241 C 0.49462 0.25693 -0.12049
 N242 N 0.51967 0.25128 -0.11247
 C243 C 0.53992 0.27066 -0.11199
 C244 C 0.53561 0.29758 -0.12026
 C245 C 0.51002 0.30376 -0.12897
 C246 C 0.48950 0.28356 -0.12908
 H247 H 0.40724 0.22248 -0.11503
 H248 H 0.47003 0.16547 -0.12568
 H249 H 0.55939 0.26484 -0.10546
 H250 H 0.50574 0.32423 -0.13551
 H251 H 0.44027 0.26085 -0.11439
 H252 H 0.47005 0.28871 -0.13628
 C253 C 0.12083 -0.01623 0.27522
 C254 C 0.09723 -0.02466 0.28784
 C255 C 0.09781 -0.04505 0.30693
 C256 C 0.12174 -0.05724 0.31345
 C257 C 0.14484 -0.04836 0.30029
 N258 N 0.14378 -0.02850 0.28172
 C259 C 0.12149 0.00497 0.25445
 N260 N 0.14200 0.00557 0.23703
 C261 C 0.14406 0.02421 0.21732
 C262 C 0.12470 0.04400 0.21424
 C263 C 0.10357 0.04400 0.23226
 C264 C 0.10193 0.02468 0.25236
 H265 H 0.07954 -0.05117 0.31669
 H266 H 0.16364 -0.05751 0.30440
 H267 H 0.16089 0.02345 0.20421
 H268 H 0.08820 0.05886 0.23096
 H269 H 0.07838 -0.01613 0.28283
 H270 H 0.08571 0.02561 0.26622
 C271 C 0.62680 0.52877 -0.27467
 C272 C 0.64969 0.53786 -0.28800
 C273 C 0.64755 0.55576 -0.30914
 C274 C 0.62259 0.56485 -0.31750
 C275 C 0.60014 0.55484 -0.30357
 N276 N 0.60282 0.53732 -0.28308
 C277 C 0.62782 0.50966 -0.25213
 N278 N 0.60561 0.49425 -0.24620
 C279 C 0.60493 0.47623 -0.22589
 C280 C 0.62760 0.47290 -0.20991
 C281 C 0.65061 0.48891 -0.21547
 C282 C 0.65079 0.50729 -0.23640
 H283 H 0.66582 0.56312 -0.31807
 H284 H 0.58025 0.55986 -0.30942
 H285 H 0.58662 0.46463 -0.22235
 H286 H 0.66857 0.48740 -0.20372
 H287 H 0.66914 0.53111 -0.28250
 H288 H 0.66865 0.51973 -0.23975
 C289 C 0.38302 1.01770 0.77792
 C290 C 0.40660 1.03185 0.78616
 C291 C 0.40590 1.05255 0.80598
 C292 C 0.38173 1.05940 0.81798
 C293 C 0.35857 1.04451 0.80891
 N294 N 0.35982 1.02466 0.78937
 C295 C 0.38235 0.99609 0.75649
 N296 N 0.35944 0.99119 0.74223
 C297 C 0.35719 0.97185 0.72215
 C298 C 0.37883 0.95578 0.71545
 C299 C 0.40253 0.96013 0.73019
 C300 C 0.40439 0.98022 0.75066
 H301 H 0.42462 1.06235 0.81237
 H302 H 0.33918 1.04928 0.81629
 H303 H 0.33839 0.96897 0.71165
 H304 H 0.41975 0.94825 0.72580
 H305 H 0.42543 1.02741 0.77719
 H306 H 0.42275 0.98289 0.76196
 C307 C 0.87436 0.46020 0.23690
 C308 C 0.85082 0.44770 0.22617
 C309 C 0.85200 0.42981 0.20401
 C310 C 0.87648 0.42433 0.19238
 C311 C 0.89954 0.43716 0.20371
 N312 N 0.89789 0.45463 0.22523
 C313 C 0.87433 0.48024 0.25973
 N314 N 0.89526 0.49867 0.26300
 C315 C 0.89649 0.51821 0.28296
 C316 C 0.87569 0.52015 0.30125
 C317 C 0.85421 0.50086 0.29864
 C318 C 0.85348 0.48091 0.27804
 H319 H 0.83374 0.42023 0.19599
 H320 H 0.91879 0.43382 0.19514
 H321 H 0.91366 0.53225 0.28424
 H322 H 0.83780 0.50116 0.31230
 H323 H 0.83159 0.45208 0.23424
 H324 H 0.83685 0.46615 0.27679
 C325 C 0.27789 0.11746 -0.02384
 C326 C 0.29012 0.09318 -0.03215
 C327 C 0.30954 0.09437 -0.05172
 C328 C 0.31678 0.11959 -0.06325
 C329 C 0.30383 0.14330 -0.05468
 N330 N 0.28497 0.14164 -0.03556
 C331 C 0.25719 0.11763 -0.00308
 N332 N 0.24043 0.13897 -0.00199
 C333 C 0.22105 0.14083 0.01653
 C334 C 0.21771 0.12042 0.03572
 C335 C 0.23498 0.09837 0.03513
 C336 C 0.25470 0.09694 0.01591
 H337 H 0.31911 0.07558 -0.05762
 H338 H 0.30846 0.16310 -0.06335
 H339 H 0.20851 0.15839 0.01625
 H340 H 0.23337 0.08213 0.04945
 H341 H 0.28464 0.07335 -0.02403
 H342 H 0.26803 0.08002 0.01642
 C343 C 0.71766 0.62785 0.52179
 C344 C 0.70644 0.65223 0.53137
 C345 C 0.68620 0.65071 0.55007
 C346 C 0.67690 0.62502 0.55920
 C347 C 0.68832 0.60113 0.54880
 N348 N 0.70805 0.60313 0.53063
 C349 C 0.73939 0.62802 0.50212
 N350 N 0.74358 0.60448 0.48763
 C351 C 0.76329 0.60273 0.46947
 C352 C 0.78054 0.62560 0.46511
 C353 C 0.77670 0.65003 0.48000
 C354 C 0.75630 0.65132 0.49850
 H355 H 0.67805 0.66968 0.55764
 H356 H 0.68144 0.58087 0.55492
 H357 H 0.76552 0.58334 0.45876
 H358 H 0.78941 0.66824 0.47748
 H359 H 0.71284 0.67230 0.52440
 H360 H 0.75433 0.67023 0.51009
 C361 C 0.78499 0.38112 0.01853
 C362 C 0.79629 0.40528 0.03076
 C363 C 0.81526 0.40328 0.05100
 C364 C 0.82302 0.37732 0.05921
 C365 C 0.81125 0.35367 0.04652
 N366 N 0.79270 0.35613 0.02692
 C367 C 0.76424 0.38196 -0.00254
 N368 N 0.74712 0.35974 -0.00634
 C369 C 0.72727 0.35911 -0.02496
 C370 C 0.72376 0.38182 -0.04127
 C371 C 0.74154 0.40473 -0.03803
 C372 C 0.76176 0.40487 -0.01881
 H373 H 0.82393 0.42205 0.06018
 H374 H 0.81639 0.33325 0.05251
 H375 H 0.71438 0.34080 -0.02693
 H376 H 0.73980 0.42273 -0.05011
 H377 H 0.79025 0.42556 0.02532
 H378 H 0.77538 0.42264 -0.01707
 C379 C 0.22514 0.88140 0.47115
 C380 C 0.21447 0.90619 0.46289
 C381 C 0.19522 0.90552 0.44267
 C382 C 0.18663 0.88032 0.43042
 C383 C 0.19817 0.85610 0.43885
 N384 N 0.21685 0.85725 0.45865
 C385 C 0.24532 0.88064 0.49281
 N386 N 0.26074 0.85828 0.49420
 C387 C 0.27948 0.85581 0.51360
 C388 C 0.28354 0.87665 0.53341
 C389 C 0.26764 0.89976 0.53250
 C390 C 0.24854 0.90181 0.51239
 H391 H 0.18677 0.92470 0.43692
 H392 H 0.19248 0.83627 0.42965
 H393 H 0.29097 0.83746 0.51350
 H394 H 0.26982 0.91637 0.54727
 H395 H 0.22096 0.92597 0.47163
 H396 H 0.23622 0.91956 0.51267
   
