data_POSCAR
  _audit_creation_date              2014-09-24
  _audit_creation_method            'ToBaCCo'
  _symmetry_space_group_name_H-M    'P1'
  _symmetry_Int_Tables_number       1
  _symmetry_cell_setting            triclinic
  loop_
  _symmetry_equiv_pos_as_xyz
 x,y,z
_cell_length_a 48.4118
_cell_length_b 48.4118
_cell_length_c 44.1978
_cell_angle_alpha 90.019300
_cell_angle_beta 90.017700
_cell_angle_gamma 119.977900
loop_
  _atom_site_label
  _atom_site_type_symbol
  _atom_site_fract_x
  _atom_site_fract_y
  _atom_site_fract_z
O1 O -0.03990 0.45372 -0.00825
 O2 O -0.00160 0.52652 0.03833
 O3 O -0.03993 0.50730 -0.00829
 O4 O -0.00158 0.47292 0.03836
 O5 O 0.03988 0.49363 0.00768
 O6 O 0.00149 0.52799 -0.03895
 O7 O 0.03985 0.54723 0.00764
 O8 O 0.00156 0.47443 -0.03893
 Cu9 Cu -0.02490 0.48805 0.01811
 Cu10 Cu 0.02484 0.51290 -0.01871
 C11 C -0.02587 0.45173 -0.03174
 C12 C 0.02583 0.54922 0.03114
 C13 C -0.02600 0.52326 -0.03186
 C14 C 0.02586 0.47765 0.03118
 O15 O 0.54646 0.50599 -0.00793
 O16 O 0.47367 0.47162 0.03857
 O17 O 0.49288 0.45240 -0.00796
 O18 O 0.52724 0.52523 0.03855
 O19 O 0.50651 0.54589 0.00775
 O20 O 0.47216 0.47304 -0.03872
 O21 O 0.45293 0.49228 0.00778
 O22 O 0.52572 0.52664 -0.03873
 Cu23 Cu 0.51213 0.48674 0.01839
 Cu24 Cu 0.48725 0.51152 -0.01856
 C25 C 0.54844 0.52194 -0.03147
 C26 C 0.45096 0.47635 0.03133
 C27 C 0.47691 0.45031 -0.03155
 C28 C 0.52250 0.54792 0.03129
 O29 O 0.45308 0.96060 0.00756
 O30 O 0.52587 0.99873 -0.03896
 O31 O 0.50657 0.96035 0.00756
 O32 O 0.47238 0.99894 -0.03900
 O33 O 0.49319 1.04035 -0.00830
 O34 O 0.52739 1.00179 0.03832
 O35 O 0.54670 1.04016 -0.00821
 O36 O 0.47391 1.00205 0.03829
 Cu37 Cu 0.48739 0.97551 -0.01878
 Cu38 Cu 0.51238 1.02523 0.01810
 C39 C 0.45116 0.97464 0.03108
 C40 C 0.54863 1.02612 -0.03173
 C41 C 0.52258 0.97432 0.03109
 C42 C 0.47720 1.02645 -0.03188
 O43 O 1.04040 0.54663 0.49187
 O44 O 1.00211 0.47369 0.53816
 O45 O 1.04045 0.49305 0.49160
 O46 O 1.00207 0.52728 0.53842
 O47 O 0.96062 0.50665 0.50768
 O48 O 0.99905 0.47245 0.46088
 O49 O 0.96067 0.45306 0.50742
 O50 O 0.99896 0.52600 0.46113
 Cu51 Cu 1.02540 0.51222 0.51809
 Cu52 Cu 0.97568 0.48747 0.48120
 C53 C 1.02638 0.54868 0.46840
 C54 C 0.97468 0.45101 0.53090
 C55 C 1.02653 0.47716 0.46798
 C56 C 0.97463 0.52256 0.53124
 O57 O 0.52755 0.52591 0.46152
 O58 O 0.49323 0.45327 0.50824
 O59 O 0.47395 0.47234 0.46166
 O60 O 0.54685 0.50683 0.50807
 O61 O 0.52625 0.52767 0.53880
 O62 O 0.45335 0.49320 0.49238
 O63 O 0.47262 0.47413 0.53896
 O64 O 0.50696 0.54676 0.49225
 Cu65 Cu 0.51246 0.48750 0.48180
 Cu66 Cu 0.48773 0.51253 0.51868
 C67 C 0.52286 0.54865 0.46870
 C68 C 0.47731 0.45138 0.53178
 C69 C 0.45129 0.47713 0.46889
 C70 C 0.54891 0.52288 0.53156
 O71 O 0.50618 -0.04003 0.49175
 O72 O 0.47162 -0.00180 0.53831
 O73 O 0.45255 -0.04008 0.49165
 O74 O 0.52528 -0.00169 0.53832
 O75 O 0.54596 0.03976 0.50763
 O76 O 0.47321 0.00135 0.46101
 O77 O 0.49230 0.03967 0.50765
 O78 O 0.52685 0.00142 0.46106
 Cu79 Cu 0.48683 -0.02505 0.51808
 Cu80 Cu 0.51164 0.02470 0.48127
 C81 C 0.52217 -0.02600 0.46826
 C82 C 0.47633 0.02564 0.53114
 C83 C 0.45050 -0.02615 0.46808
 C84 C 0.54797 0.02576 0.53113
 C85 C 0.30183 0.43321 0.23467
 C86 C 0.30183 0.43324 0.26572
 C87 C 0.27131 0.42542 0.27468
 N88 N 0.25266 0.42026 0.25015
 C89 C 0.27132 0.42537 0.22566
 C90 C 0.26091 0.42192 0.30501
 C91 C 0.23063 0.41676 0.31382
 C92 C 0.21797 0.40809 0.34270
 C93 C 0.18957 0.40816 0.34268
 C94 C 0.18565 0.41688 0.31379
 N95 N 0.21082 0.42215 0.29642
 C96 C 0.16063 0.42219 0.30493
 C97 C 0.15380 0.42573 0.27458
 C98 C 0.13122 0.43370 0.26556
 C99 C 0.13123 0.43368 0.23452
 C100 C 0.15381 0.42570 0.22556
 N101 N 0.16727 0.42049 0.25008
 C102 C 0.16066 0.42212 0.19522
 C103 C 0.18568 0.41679 0.18641
 C104 C 0.18960 0.40803 0.15754
 C105 C 0.21799 0.40795 0.15756
 C106 C 0.23066 0.41667 0.18645
 N107 N 0.21085 0.42208 0.20382
 C108 C 0.26093 0.42183 0.19531
 H109 H 0.32199 0.43830 0.22039
 H110 H 0.32198 0.43835 0.28004
 H111 H 0.21622 0.43282 0.22494
 H112 H 0.22836 0.40279 0.36195
 H113 H 0.17388 0.40293 0.36190
 H114 H 0.11623 0.43891 0.27985
 H115 H 0.11625 0.43888 0.22020
 H116 H 0.22838 0.40262 0.13834
 H117 H 0.21620 0.43285 0.27529
 H118 H 0.17391 0.40277 0.13829
 C119 C 0.56643 0.69772 0.26524
 C120 C 0.56641 0.69770 0.23420
 C121 C 0.57429 0.72822 0.22520
 N122 N 0.57947 0.74691 0.24971
 C123 C 0.57432 0.72825 0.27422
 C124 C 0.57780 0.73859 0.19486
 C125 C 0.58301 0.76887 0.18600
 C126 C 0.59168 0.78150 0.15711
 C127 C 0.59165 0.80991 0.15710
 C128 C 0.58296 0.81389 0.18598
 N129 N 0.57766 0.78873 0.20338
 C130 C 0.57772 0.83896 0.19481
 C131 C 0.57420 0.84584 0.22515
 C132 C 0.56629 0.86847 0.23414
 C133 C 0.56632 0.86850 0.26518
 C134 C 0.57425 0.84589 0.27417
 N135 N 0.57941 0.83238 0.24966
 C136 C 0.57782 0.83906 0.30452
 C137 C 0.58308 0.81402 0.31336
 C138 C 0.59182 0.81010 0.34225
 C139 C 0.59183 0.78168 0.34226
 C140 C 0.58310 0.76899 0.31338
 N141 N 0.57774 0.78882 0.29599
 C142 C 0.57787 0.73868 0.30456
 H143 H 0.56130 0.67757 0.27955
 H144 H 0.56126 0.67752 0.21990
 H145 H 0.56701 0.78343 0.27486
 H146 H 0.59696 0.77106 0.13788
 H147 H 0.59691 0.82559 0.13786
 H148 H 0.56111 0.88347 0.21983
 H149 H 0.56116 0.88352 0.27948
 H150 H 0.59713 0.77128 0.36150
 H151 H 0.56697 0.78339 0.22451
 H152 H 0.59711 0.82582 0.36148
 C153 C 0.13155 0.69849 0.23452
 C154 C 0.13160 0.69848 0.26557
 C155 C 0.15421 0.72900 0.27457
 N156 N 0.16764 0.74770 0.25007
 C157 C 0.15413 0.72903 0.22555
 C158 C 0.16112 0.73939 0.30492
 C159 C 0.18617 0.76969 0.31377
 C160 C 0.19015 0.78232 0.34268
 C161 C 0.21856 0.81075 0.34269
 C162 C 0.23117 0.81473 0.31379
 N163 N 0.21131 0.78956 0.29638
 C164 C 0.26145 0.83981 0.30495
 C165 C 0.27179 0.84671 0.27460
 C166 C 0.30229 0.86935 0.26559
 C167 C 0.30223 0.86937 0.23455
 C168 C 0.27169 0.84674 0.22558
 N169 N 0.25307 0.83322 0.25010
 C170 C 0.26124 0.83990 0.19524
 C171 C 0.23093 0.81483 0.18642
 C172 C 0.21822 0.81090 0.15755
 C173 C 0.18982 0.78246 0.15754
 C174 C 0.18594 0.76977 0.18640
 N175 N 0.21114 0.78962 0.20378
 C176 C 0.16092 0.73945 0.19522
 H177 H 0.11653 0.67833 0.22021
 H178 H 0.11663 0.67830 0.27986
 H179 H 0.21655 0.78426 0.22489
 H180 H 0.17448 0.77188 0.36192
 H181 H 0.22900 0.82644 0.36194
 H182 H 0.32248 0.88436 0.27988
 H183 H 0.32236 0.88441 0.22023
 H184 H 0.17410 0.77204 0.13831
 H185 H 0.21665 0.78422 0.27523
 H186 H 0.22859 0.82661 0.13833
 C187 C 0.86923 0.56646 0.73476
 C188 C 0.86924 0.56649 0.76580
 C189 C 0.84659 0.57438 0.77477
 N190 N 0.83308 0.57953 0.75024
 C191 C 0.84659 0.57434 0.72575
 C192 C 0.83971 0.57793 0.80510
 C193 C 0.81460 0.58310 0.81392
 C194 C 0.81060 0.59178 0.84281
 C195 C 0.78214 0.59171 0.84279
 C196 C 0.76950 0.58299 0.81389
 N197 N 0.78940 0.57772 0.79652
 C198 C 0.73918 0.57770 0.80503
 C199 C 0.72882 0.57420 0.77467
 C200 C 0.69830 0.56629 0.76564
 C201 C 0.69834 0.56635 0.73460
 C202 C 0.72889 0.57429 0.72565
 N203 N 0.74753 0.57944 0.75019
 C204 C 0.73933 0.57789 0.69532
 C205 C 0.76964 0.58313 0.68651
 C206 C 0.78231 0.59185 0.65764
 C207 C 0.81073 0.59183 0.65766
 C208 C 0.81466 0.58310 0.68654
 N209 N 0.78947 0.57777 0.70391
 C210 C 0.83972 0.57785 0.69540
 H211 H 0.88426 0.56132 0.72047
 H212 H 0.88426 0.56137 0.78012
 H213 H 0.78410 0.56704 0.72503
 H214 H 0.82630 0.59708 0.86206
 H215 H 0.77168 0.59694 0.86202
 H216 H 0.67811 0.56109 0.77992
 H217 H 0.67819 0.56120 0.72027
 H218 H 0.82644 0.59711 0.63844
 H219 H 0.78408 0.56702 0.77538
 H220 H 0.77190 0.59715 0.63841
 C221 C 0.43351 0.30214 0.73528
 C222 C 0.43353 0.30211 0.76632
 C223 C 0.42560 0.27156 0.77526
 N224 N 0.42038 0.25290 0.75072
 C225 C 0.42556 0.27160 0.72624
 C226 C 0.42208 0.26113 0.80559
 C227 C 0.41686 0.23082 0.81438
 C228 C 0.40820 0.21816 0.84326
 C229 C 0.40821 0.18973 0.84321
 C230 C 0.41687 0.18579 0.81430
 N231 N 0.42216 0.21097 0.79695
 C232 C 0.42209 0.16072 0.80541
 C233 C 0.42552 0.15384 0.77504
 C234 C 0.43337 0.13119 0.76598
 C235 C 0.43327 0.13118 0.73493
 C236 C 0.42537 0.15383 0.72602
 N237 N 0.42028 0.16735 0.75057
 C238 C 0.42175 0.16070 0.69570
 C239 C 0.41654 0.18580 0.68693
 C240 C 0.40778 0.18978 0.65807
 C241 C 0.40786 0.21825 0.65812
 C242 C 0.41665 0.23090 0.68701
 N243 N 0.42198 0.21101 0.70435
 C244 C 0.42198 0.26123 0.69588
 H245 H 0.43867 0.32232 0.72101
 H246 H 0.43871 0.32226 0.78066
 H247 H 0.43275 0.21634 0.72546
 H248 H 0.40296 0.22857 0.86252
 H249 H 0.40297 0.17403 0.86243
 H250 H 0.43855 0.11616 0.78024
 H251 H 0.43835 0.11614 0.72058
 H252 H 0.40257 0.22870 0.63892
 H253 H 0.43284 0.21634 0.77580
 H254 H 0.40243 0.17408 0.63882
 C255 C 0.69795 0.13134 0.76516
 C256 C 0.69791 0.13131 0.73411
 C257 C 0.72843 0.15387 0.72510
 N258 N 0.74715 0.16736 0.74959
 C259 C 0.72851 0.15393 0.77412
 C260 C 0.73879 0.16067 0.69475
 C261 C 0.76911 0.18565 0.68589
 C262 C 0.78174 0.18951 0.65701
 C263 C 0.81022 0.21788 0.65699
 C264 C 0.81423 0.23059 0.68586
 N265 N 0.78903 0.21083 0.70326
 C266 C 0.83935 0.26087 0.69467
 C267 C 0.84624 0.27134 0.72500
 C268 C 0.86890 0.30187 0.73395
 C269 C 0.86890 0.30195 0.76499
 C270 C 0.84624 0.27147 0.77402
 N271 N 0.83272 0.25274 0.74953
 C272 C 0.83937 0.26115 0.80438
 C273 C 0.81431 0.23087 0.81324
 C274 C 0.81037 0.21827 0.84214
 C275 C 0.78195 0.18985 0.84216
 C276 C 0.76927 0.18586 0.81327
 N277 N 0.78911 0.21101 0.79586
 C278 C 0.73895 0.16081 0.80445
 H279 H 0.67780 0.11638 0.77948
 H280 H 0.67771 0.11631 0.71983
 H281 H 0.78374 0.21634 0.77473
 H282 H 0.77127 0.17379 0.63779
 H283 H 0.82591 0.22822 0.63775
 H284 H 0.88393 0.32199 0.71962
 H285 H 0.88393 0.32214 0.77927
 H286 H 0.77154 0.17419 0.86141
 H287 H 0.78372 0.21626 0.72438
 H288 H 0.82608 0.22871 0.86137
 C289 C 0.08909 0.46171 0.06357
 C290 C 0.07459 0.44583 0.09046
 C291 C 0.04357 0.43897 0.09724
 C292 C 0.02734 0.44856 0.07755
 C293 C 0.04201 0.46525 0.05082
 C294 C 0.07292 0.47133 0.04384
 C295 C 0.09225 0.43835 0.11194
 C296 C 0.10739 0.43310 0.13037
 C297 C 0.12551 0.42810 0.15244
 C298 C 0.14130 0.42483 0.17168
 H299 H 0.11316 0.46726 0.05816
 H300 H 0.03217 0.42681 0.11806
 H301 H 0.00359 0.44351 0.08360
 H302 H 0.08489 0.48413 0.02346
 C303 C 0.53842 0.62717 0.06341
 C304 C 0.55428 0.62863 0.09035
 C305 C 0.56114 0.60448 0.09726
 C306 C 0.55156 0.57861 0.07764
 C307 C 0.53489 0.57652 0.05085
 C308 C 0.52881 0.60133 0.04375
 C309 C 0.56173 0.65382 0.11176
 C310 C 0.56696 0.67426 0.13014
 C311 C 0.57191 0.69742 0.15215
 C312 C 0.57514 0.71650 0.17135
 H313 H 0.53287 0.64568 0.05791
 H314 H 0.57329 0.60531 0.11812
 H315 H 0.55661 0.55992 0.08378
 H316 H 0.51603 0.60045 0.02333
 C317 C 0.39488 0.95705 0.09718
 C318 C 0.37069 0.92604 0.09039
 C319 C 0.37201 0.91153 0.06346
 C320 C 0.39776 0.92767 0.04371
 C321 C 0.42262 0.95856 0.05070
 C322 C 0.42066 0.97325 0.07747
 C323 C 0.34563 0.90840 0.11190
 C324 C 0.32529 0.89326 0.13037
 C325 C 0.30225 0.87512 0.15246
 C326 C 0.28325 0.85931 0.17171
 H327 H 0.39417 0.96846 0.11803
 H328 H 0.35348 0.88747 0.05804
 H329 H 0.39854 0.91569 0.02331
 H330 H 0.43939 0.99699 0.08353
 C331 C 0.91137 0.53840 0.56372
 C332 C 0.92585 0.55421 0.59067
 C333 C 0.95687 0.56103 0.59747
 C334 C 0.97311 0.55149 0.57774
 C335 C 0.95846 0.53489 0.55094
 C336 C 0.92756 0.52884 0.54394
 C337 C 0.90819 0.56165 0.61216
 C338 C 0.89304 0.56690 0.63060
 C339 C 0.87491 0.57188 0.65266
 C340 C 0.85911 0.57515 0.67188
 H341 H 0.88732 0.53288 0.55829
 H342 H 0.96825 0.57313 0.61834
 H343 H 0.99685 0.55652 0.58381
 H344 H 0.91561 0.51611 0.52352
 C345 C 0.46142 0.37228 0.56425
 C346 C 0.44562 0.37098 0.59118
 C347 C 0.43881 0.39519 0.59797
 C348 C 0.44835 0.42096 0.57825
 C349 C 0.46495 0.42289 0.55146
 C350 C 0.47099 0.39803 0.54448
 C351 C 0.43817 0.34589 0.61268
 C352 C 0.43293 0.32551 0.63112
 C353 C 0.42795 0.30240 0.65317
 C354 C 0.42468 0.28333 0.67239
 H355 H 0.46693 0.35374 0.55883
 H356 H 0.42671 0.39449 0.61882
 H357 H 0.44334 0.43969 0.58430
 H358 H 0.48372 0.39878 0.52407
 C359 C 0.60447 0.04353 0.59714
 C360 C 0.62864 0.07452 0.59028
 C361 C 0.62720 0.08898 0.56337
 C362 C 0.60136 0.07279 0.54369
 C363 C 0.57654 0.04191 0.55074
 C364 C 0.57860 0.02729 0.57750
 C365 C 0.65385 0.09219 0.61169
 C366 C 0.67432 0.10735 0.63006
 C367 C 0.69753 0.12549 0.65206
 C368 C 0.71665 0.14130 0.67125
 H369 H 0.60528 0.03217 0.61797
 H370 H 0.64572 0.11302 0.55790
 H371 H 0.60051 0.08473 0.52330
 H372 H 0.55990 0.00356 0.58360
 C373 C 0.43900 0.04351 0.90310
 C374 C 0.44593 0.07454 0.90992
 C375 C 0.46187 0.08900 0.93680
 C376 C 0.47152 0.07283 0.95649
 C377 C 0.46550 0.04186 0.94949
 C378 C 0.44861 0.02723 0.92271
 C379 C 0.43843 0.09222 0.88850
 C380 C 0.43315 0.10738 0.87011
 C381 C 0.42813 0.12552 0.84809
 C382 C 0.42483 0.14133 0.82889
 H383 H 0.42675 0.03212 0.88229
 H384 H 0.46743 0.11307 0.94226
 H385 H 0.48432 0.08494 0.97685
 H386 H 0.44337 0.00345 0.91647
 C387 C 0.62770 0.53794 0.93640
 C388 C 0.62911 0.55379 0.90947
 C389 C 0.60492 0.56059 0.90256
 C390 C 0.57905 0.55098 0.92218
 C391 C 0.57702 0.53434 0.94896
 C392 C 0.60186 0.52831 0.95605
 C393 C 0.65431 0.56130 0.88807
 C394 C 0.67477 0.56659 0.86971
 C395 C 0.69795 0.57164 0.84772
 C396 C 0.71706 0.57495 0.82853
 H397 H 0.64623 0.53244 0.94190
 H398 H 0.60571 0.57272 0.88171
 H399 H 0.56034 0.55599 0.91604
 H400 H 0.60103 0.51555 0.97647
 C401 C 0.95646 0.39528 0.90222
 C402 C 0.92544 0.37112 0.90902
 C403 C 0.91095 0.37253 0.93591
 C404 C 0.92711 0.39834 0.95563
 C405 C 0.95800 0.42316 0.94864
 C406 C 0.97267 0.42112 0.92190
 C407 C 0.90780 0.34596 0.88756
 C408 C 0.89267 0.32553 0.86914
 C409 C 0.87455 0.30237 0.84710
 C410 C 0.85875 0.28327 0.82789
 H411 H 0.96785 0.39450 0.88140
 H412 H 0.88689 0.35402 0.94133
 H413 H 0.91513 0.39918 0.97600
 H414 H 0.99641 0.43982 0.91584
 C415 C 0.53832 0.91086 0.43602
 C416 C 0.55415 0.92532 0.40909
 C417 C 0.56090 0.95629 0.40224
 C418 C 0.55126 0.97252 0.42189
 C419 C 0.53463 0.95788 0.44866
 C420 C 0.52866 0.92702 0.45571
 C421 C 0.56165 0.90765 0.38766
 C422 C 0.56692 0.89248 0.36926
 C423 C 0.57190 0.87431 0.34724
 C424 C 0.57515 0.85848 0.32803
 H425 H 0.53285 0.88683 0.44148
 H426 H 0.57302 0.96766 0.38139
 H427 H 0.55623 0.99623 0.41579
 H428 H 0.51591 0.91508 0.47611
 C429 C 0.39473 0.43839 0.40294
 C430 C 0.37063 0.44535 0.40975
 C431 C 0.37211 0.46130 0.43663
 C432 C 0.39793 0.47090 0.45633
 C433 C 0.42269 0.46472 0.44932
 C434 C 0.42058 0.44795 0.42259
 C435 C 0.34550 0.43792 0.38829
 C436 C 0.32510 0.43271 0.36986
 C437 C 0.30200 0.42778 0.34780
 C438 C 0.28296 0.42456 0.32856
 H439 H 0.39389 0.42617 0.38212
 H440 H 0.35365 0.46694 0.44207
 H441 H 0.39883 0.48376 0.47670
 H442 H 0.43923 0.44283 0.41652
 C443 C 0.04407 0.60531 0.40258
 C444 C 0.07509 0.62944 0.40943
 C445 C 0.08958 0.62795 0.43630
 C446 C 0.07341 0.60210 0.45594
 C447 C 0.04251 0.57730 0.44888
 C448 C 0.02784 0.57942 0.42217
 C449 C 0.09274 0.65462 0.38803
 C450 C 0.10788 0.67506 0.36965
 C451 C 0.12599 0.69821 0.34764
 C452 C 0.14177 0.71730 0.32844
 H453 H 0.03267 0.60615 0.38177
 H454 H 0.11364 0.64644 0.44177
 H455 H 0.08539 0.60119 0.47630
 H456 H 0.00409 0.56075 0.41606
 C457 C 0.95703 0.56142 0.90306
 C458 C 0.92603 0.55457 0.90986
 C459 C 0.91156 0.53872 0.93675
 C460 C 0.92771 0.52906 0.95647
 C461 C 0.95865 0.53500 0.94949
 C462 C 0.97328 0.55182 0.92271
 C463 C 0.90834 0.56201 0.88838
 C464 C 0.89316 0.56721 0.86994
 C465 C 0.87498 0.57213 0.84788
 C466 C 0.85914 0.57532 0.82864
 H467 H 0.96841 0.57361 0.88224
 H468 H 0.88752 0.53321 0.94218
 H469 H 0.91560 0.51632 0.97683
 H470 H 0.99704 0.55699 0.91649
 C471 C 0.46148 0.37236 0.93721
 C472 C 0.44560 0.37091 0.91030
 C473 C 0.43872 0.39503 0.90344
 C474 C 0.44833 0.42093 0.92304
 C475 C 0.46518 0.42318 0.94984
 C476 C 0.47114 0.39821 0.95688
 C477 C 0.43815 0.34575 0.88886
 C478 C 0.43293 0.32533 0.87045
 C479 C 0.42798 0.30222 0.84839
 C480 C 0.42475 0.28318 0.82915
 H481 H 0.46701 0.35384 0.94269
 H482 H 0.42651 0.39418 0.88261
 H483 H 0.44313 0.43949 0.91677
 H484 H 0.48390 0.39888 0.97726
 C485 C 0.60499 0.04375 0.90223
 C486 C 0.62922 0.07472 0.90911
 C487 C 0.62789 0.08919 0.93606
 C488 C 0.60209 0.07305 0.95575
 C489 C 0.57719 0.04220 0.94868
 C490 C 0.57916 0.02755 0.92189
 C491 C 0.65436 0.09237 0.88766
 C492 C 0.67476 0.10752 0.86925
 C493 C 0.69787 0.12565 0.84721
 C494 C 0.71691 0.14145 0.82799
 H495 H 0.60572 0.03238 0.88137
 H496 H 0.64645 0.11321 0.94154
 H497 H 0.60130 0.08500 0.97618
 H498 H 0.56041 0.00385 0.91577
 C499 C 0.04350 0.43911 0.40277
 C500 C 0.07449 0.44592 0.40959
 C501 C 0.08896 0.46172 0.43652
 C502 C 0.07282 0.47137 0.45626
 C503 C 0.04189 0.46546 0.44927
 C504 C 0.02726 0.44870 0.42244
 C505 C 0.09215 0.43843 0.38811
 C506 C 0.10730 0.43318 0.36969
 C507 C 0.12544 0.42818 0.34765
 C508 C 0.14124 0.42491 0.32844
 H509 H 0.03211 0.42696 0.38192
 H510 H 0.11299 0.46719 0.44197
 H511 H 0.08493 0.48406 0.47666
 H512 H 0.00351 0.44356 0.41621
 C513 C 0.53875 0.62777 0.43628
 C514 C 0.55449 0.62906 0.40932
 C515 C 0.56128 0.60484 0.40249
 C516 C 0.55176 0.57907 0.42221
 C517 C 0.53521 0.57715 0.44903
 C518 C 0.52920 0.60202 0.45605
 C519 C 0.56190 0.65414 0.38782
 C520 C 0.56709 0.67451 0.36939
 C521 C 0.57202 0.69760 0.34733
 C522 C 0.57523 0.71663 0.32809
 H523 H 0.53325 0.64632 0.44173
 H524 H 0.57334 0.60554 0.38162
 H525 H 0.55676 0.56033 0.41613
 H526 H 0.51651 0.60128 0.47648
 C527 C 0.37266 0.91139 0.43660
 C528 C 0.37125 0.92589 0.40973
 C529 C 0.39536 0.95691 0.40297
 C530 C 0.42121 0.97315 0.42264
 C531 C 0.42342 0.95849 0.44941
 C532 C 0.39846 0.92754 0.45634
 C533 C 0.34612 0.90824 0.38824
 C534 C 0.32573 0.89310 0.36979
 C535 C 0.30262 0.87498 0.34772
 C536 C 0.28355 0.85919 0.32848
 H537 H 0.35415 0.88734 0.44201
 H538 H 0.39454 0.96832 0.38218
 H539 H 0.43976 0.99693 0.41645
 H540 H 0.39910 0.91540 0.47669
 C541 C 0.56110 0.95635 0.09713
 C542 C 0.55418 0.92532 0.09026
 C543 C 0.53831 0.91090 0.06332
 C544 C 0.52875 0.92716 0.04363
 C545 C 0.53490 0.95808 0.05070
 C546 C 0.55158 0.97267 0.07748
 C547 C 0.56161 0.90758 0.11168
 C548 C 0.56683 0.89237 0.13007
 C549 C 0.57178 0.87418 0.15208
 C550 C 0.57503 0.85835 0.17129
 H551 H 0.57326 0.96768 0.11799
 H552 H 0.53271 0.88683 0.05784
 H553 H 0.51596 0.91525 0.02322
 H554 H 0.55668 0.99642 0.08360
 C555 C 0.37187 0.46064 0.06365
 C556 C 0.37050 0.44486 0.09061
 C557 C 0.39464 0.43796 0.09745
 C558 C 0.42042 0.44743 0.07776
 C559 C 0.42243 0.46402 0.05095
 C560 C 0.39762 0.47013 0.04391
 C561 C 0.34543 0.43753 0.11209
 C562 C 0.32507 0.43240 0.13053
 C563 C 0.30200 0.42756 0.15258
 C564 C 0.28298 0.42441 0.17180
 H565 H 0.35338 0.46621 0.05818
 H566 H 0.39389 0.42588 0.11833
 H567 H 0.43911 0.44236 0.08386
 H568 H 0.39844 0.48286 0.02348
 C569 C 0.08908 0.62836 0.06353
 C570 C 0.07462 0.62975 0.09045
 C571 C 0.04360 0.60560 0.09725
 C572 C 0.02734 0.57980 0.07754
 C573 C 0.04198 0.57777 0.05078
 C574 C 0.07288 0.60258 0.04378
 C575 C 0.09231 0.65486 0.11194
 C576 C 0.10750 0.67525 0.13038
 C577 C 0.12567 0.69835 0.15245
 C578 C 0.14150 0.71739 0.17168
 H579 H 0.11314 0.64686 0.05810
 H580 H 0.03223 0.60637 0.11810
 H581 H 0.00360 0.56111 0.08361
 H582 H 0.08483 0.60175 0.02338
 C583 C 0.43779 0.04334 0.59733
 C584 C 0.44471 0.07440 0.59061
 C585 C 0.46053 0.08890 0.56370
 C586 C 0.47006 0.07270 0.54389
 C587 C 0.46394 0.04177 0.55081
 C588 C 0.44729 0.02709 0.57756
 C589 C 0.43738 0.09209 0.61218
 C590 C 0.43225 0.10726 0.63069
 C591 C 0.42742 0.12543 0.65283
 C592 C 0.42429 0.14126 0.67212
 H593 H 0.42567 0.03194 0.61816
 H594 H 0.46613 0.11299 0.55833
 H595 H 0.48283 0.08468 0.52350
 H596 H 0.44221 0.00332 0.58357
 C597 C 0.62812 0.53872 0.56375
 C598 C 0.62959 0.55463 0.59067
 C599 C 0.60548 0.56155 0.59753
 C600 C 0.57962 0.55200 0.57789
 C601 C 0.57751 0.53529 0.55113
 C602 C 0.60229 0.52914 0.54407
 C603 C 0.65473 0.56203 0.61211
 C604 C 0.67514 0.56721 0.63052
 C605 C 0.69825 0.57210 0.65256
 C606 C 0.71729 0.57528 0.67179
 H607 H 0.64659 0.53312 0.55828
 H608 H 0.60631 0.57373 0.61838
 H609 H 0.56096 0.55710 0.58400
 H610 H 0.60139 0.51632 0.52367
 C611 C 0.95685 0.39448 0.59684
 C612 C 0.92582 0.37037 0.58998
 C613 C 0.91138 0.37182 0.56305
 C614 C 0.92761 0.39763 0.54337
 C615 C 0.95852 0.42241 0.55044
 C616 C 0.97314 0.42031 0.57720
 C617 C 0.90809 0.34527 0.61143
 C618 C 0.89287 0.32490 0.62985
 C619 C 0.87466 0.30185 0.65190
 C620 C 0.85879 0.28285 0.67113
 H621 H 0.96820 0.39367 0.61769
 H622 H 0.88731 0.35335 0.55758
 H623 H 0.91568 0.39851 0.52298
 H624 H 0.99688 0.43898 0.58331
   
