data_POSCAR
  _audit_creation_date              2014-09-24
  _audit_creation_method            'ToBaCCo'
  _symmetry_space_group_name_H-M    'P1'
  _symmetry_Int_Tables_number       1
  _symmetry_cell_setting            triclinic
  loop_
  _symmetry_equiv_pos_as_xyz
 x,y,z
_cell_length_a 20.1140
_cell_length_b 20.0995
_cell_length_c 20.0289
_cell_angle_alpha 90.234600
_cell_angle_beta 90.477600
_cell_angle_gamma 90.057000
loop_
  _atom_site_label
  _atom_site_type_symbol
  _atom_site_fract_x
  _atom_site_fract_y
  _atom_site_fract_z
O1 O 0.60168 0.15870 0.00832
 O2 O 0.67057 0.06771 0.00658
 C3 C 0.66014 0.13151 0.00733
 O4 O 0.41318 0.00041 0.17995
 O5 O 0.33671 0.00220 0.09427
 C6 C 0.35268 0.00217 0.15717
 O7 O 0.59927 0.00385 0.17303
 O8 O 0.66842 -0.01222 0.08540
 C9 C 0.65857 -0.00466 0.14857
 O10 O 0.41589 0.16939 0.00570
 O11 O 0.33827 0.08600 0.01054
 C12 C 0.35485 0.14832 0.00836
 Zr13 Zr 0.50604 0.11461 0.00799
 O14 O 0.50727 0.18847 0.08377
 O15 O 0.50425 0.18921 -0.06655
 Zr16 Zr 0.50396 -0.00359 0.12760
 O17 O 0.50604 0.06368 0.20887
 O18 O 0.51042 -0.08263 0.19704
 O19 O 0.56488 0.06176 0.07556
 O20 O 0.44798 0.06750 0.07797
 O21 O 0.40306 0.00557 -0.15792
 O22 O 0.33184 0.00533 -0.06882
 C23 C 0.34421 0.00791 -0.13214
 O24 O 0.58134 -0.17737 0.00046
 O25 O 0.66038 -0.09488 0.00516
 C26 C 0.64246 -0.15684 0.00070
 O27 O 0.39634 -0.16543 0.01161
 O28 O 0.32829 -0.07430 0.01554
 C29 C 0.33782 -0.13808 0.01411
 O30 O 0.58719 -0.01472 -0.16271
 O31 O 0.66294 -0.01652 -0.07676
 C32 C 0.64770 -0.01866 -0.13990
 Zr33 Zr 0.49645 -0.00501 -0.11023
 O34 O 0.48287 -0.07990 -0.18381
 O35 O 0.50464 0.06900 -0.18460
 Zr36 Zr 0.49271 -0.12237 0.01015
 O37 O 0.48238 -0.20380 -0.05616
 O38 O 0.49757 -0.19010 0.09086
 Zr39 Zr 0.59916 -0.00972 0.00639
 Zr40 Zr 0.40046 0.00155 0.01112
 O41 O 0.43618 -0.06910 -0.05769
 O42 O 0.55280 -0.07664 -0.06081
 O43 O 0.44214 0.06702 -0.05899
 O44 O 0.55652 -0.07480 0.07613
 O45 O 0.55965 0.05997 -0.06109
 O46 O 0.43834 -0.06864 0.07961
 H47 H 0.42059 0.09712 0.10615
 H48 H 0.58646 -0.10333 0.10317
 H49 H 0.40404 -0.09497 -0.08513
 H50 H 0.59098 0.08458 -0.08977
 H51 H 0.46687 -0.10557 0.19742
 H52 H 0.45444 -0.18868 0.11424
 H53 H 0.48085 -0.18516 -0.10167
 H54 H 0.51942 -0.11245 -0.17855
 H55 H 0.47637 0.10680 -0.17074
 H56 H 0.54208 0.18214 -0.09696
 H57 H 0.54726 0.18123 0.11193
 H58 H 0.51064 0.10858 0.18969
 O59 O -0.00942 0.59293 -0.16242
 O60 O -0.01035 0.66497 -0.07327
 C61 C -0.01191 0.65216 -0.13677
 O62 O -0.16544 0.39572 0.00214
 O63 O -0.07474 0.32690 -0.00286
 C64 C -0.13844 0.33721 -0.00031
 O65 O -0.17472 0.58021 -0.00652
 O66 O -0.09206 0.65848 0.00285
 C67 C -0.15394 0.64121 -0.00415
 O68 O -0.00151 0.40828 -0.16743
 O69 O 0.01049 0.33310 -0.08263
 C70 C 0.00290 0.34771 -0.14546
 Zr71 Zr 0.00058 0.49974 -0.11503
 O72 O -0.06099 0.49997 -0.20097
 O73 O 0.08536 0.50391 -0.17636
 Zr74 Zr -0.12055 0.49079 0.00154
 O75 O -0.20019 0.48231 -0.06747
 O76 O -0.18784 0.48956 0.08199
 O77 O -0.07247 0.55366 -0.06528
 O78 O -0.06610 0.43784 -0.06721
 O79 O 0.17065 0.41289 0.00274
 O80 O 0.08714 0.33465 0.00013
 C81 C 0.14954 0.35175 0.00185
 O82 O -0.00629 0.58744 0.17355
 O83 O -0.00990 0.66284 0.08760
 C84 C -0.00857 0.64777 0.15047
 O85 O -0.00929 0.40052 0.16958
 O86 O 0.00136 0.32907 0.08097
 C87 C -0.00583 0.34095 0.14435
 O88 O 0.15906 0.60001 0.01480
 O89 O 0.06804 0.66794 0.01424
 C90 C 0.13156 0.65874 0.01653
 Zr91 Zr 0.11634 0.50329 0.00690
 O92 O 0.18953 0.49894 0.08331
 O93 O 0.19112 0.51534 -0.06584
 Zr94 Zr -0.00435 0.49461 0.12272
 O95 O 0.07065 0.48871 0.19730
 O96 O -0.07840 0.49619 0.19712
 Zr97 Zr -0.00742 0.59625 0.00623
 Zr98 Zr 0.00308 0.39758 0.00102
 O99 O 0.06726 0.44112 0.07235
 O100 O 0.06200 0.55841 0.07585
 O101 O 0.07085 0.44232 -0.06489
 O102 O -0.07435 0.55048 0.07175
 O103 O 0.06405 0.56049 -0.06109
 O104 O -0.06845 0.43241 0.06916
 H105 H -0.09362 0.40817 -0.09565
 H106 H -0.10398 0.57902 0.09875
 H107 H 0.09521 0.41167 0.10044
 H108 H 0.09041 0.59287 -0.08709
 H109 H -0.23293 0.48834 0.06173
 H110 H -0.11429 0.46580 0.18212
 H111 H 0.09764 0.52977 0.19477
 H112 H 0.17973 0.53483 0.11569
 H113 H 0.18508 0.47950 -0.09939
 H114 H 0.06833 0.50556 -0.22285
 H115 H -0.10568 0.51366 -0.18629
 H116 H -0.18156 0.49086 -0.11201
 O117 O 0.17127 0.00144 0.41816
 O118 O 0.08530 -0.00448 0.34202
 C119 C 0.14806 -0.00001 0.35751
 O120 O -0.00091 -0.16983 0.60290
 O121 O 0.00339 -0.08167 0.67604
 C122 C -0.00103 -0.14472 0.66256
 O123 O 0.00687 -0.17406 0.41764
 O124 O 0.00785 -0.08863 0.34187
 C125 C 0.00591 -0.15139 0.35703
 O126 O 0.16855 0.01101 0.60431
 O127 O 0.08078 0.00480 0.67669
 C128 C 0.14347 0.01024 0.66376
 Zr129 Zr 0.12072 0.00104 0.51028
 O130 O 0.19459 -0.07352 0.51927
 O131 O 0.19519 0.07522 0.50617
 Zr132 Zr 0.00848 -0.12217 0.51006
 O133 O 0.09289 -0.18464 0.51848
 O134 O -0.05270 -0.20760 0.50806
 O135 O 0.07485 -0.07083 0.44994
 O136 O 0.07261 -0.06744 0.56941
 O137 O -0.00219 0.16595 0.59744
 O138 O -0.00113 0.08114 0.67385
 C139 C -0.00277 0.14375 0.65823
 O140 O -0.16508 -0.01276 0.41262
 O141 O -0.07770 -0.01128 0.34007
 C142 C -0.14093 -0.01344 0.35270
 O143 O -0.16582 -0.01442 0.59920
 O144 O -0.08020 -0.00336 0.67449
 C145 C -0.14276 -0.01118 0.65997
 O146 O -0.00942 0.16087 0.41039
 O147 O -0.00012 0.07261 0.33851
 C148 C -0.00681 0.13575 0.35052
 Zr149 Zr -0.00266 0.11444 0.50511
 O150 O -0.07840 0.18729 0.50663
 O151 O 0.07010 0.19028 0.49741
 Zr152 Zr -0.11601 -0.00897 0.50634
 O153 O -0.19119 0.06466 0.51064
 O154 O -0.18861 -0.08519 0.50055
 Zr155 Zr 0.00338 -0.00635 0.40781
 Zr156 Zr 0.00117 -0.00155 0.60821
 O157 O -0.06896 0.06249 0.56364
 O158 O -0.06857 0.05992 0.44538
 O159 O 0.06709 0.06896 0.56743
 O160 O -0.06172 -0.07570 0.45084
 O161 O 0.06775 0.06546 0.44971
 O162 O -0.06346 -0.07412 0.56754
 H163 H 0.10060 -0.09315 0.60104
 H164 H -0.08921 -0.10492 0.42215
 H165 H -0.09829 0.08949 0.59251
 H166 H 0.09394 0.09447 0.42003
 H167 H -0.09897 -0.19151 0.51082
 H168 H -0.17892 -0.11725 0.53670
 H169 H -0.19028 0.08983 0.46831
 H170 H -0.11334 0.17304 0.47464
 H171 H 0.09826 0.18885 0.53811
 H172 H 0.18070 0.11248 0.53491
 H173 H 0.19277 -0.10122 0.47833
 H174 H 0.11222 -0.18955 0.47345
 C175 C -0.23161 0.17449 -0.04248
 C176 C -0.28231 0.17764 0.00635
 C177 C -0.28236 0.23055 0.05205
 C178 C -0.23440 0.28035 0.04962
 C179 C -0.18432 0.27929 0.00146
 C180 C -0.18211 0.22553 -0.04475
 C181 C -0.23077 0.12379 -0.09141
 C182 C -0.18162 0.12179 -0.13979
 C183 C -0.13334 0.17094 -0.14163
 C184 C -0.13392 0.22281 -0.09535
 H185 H -0.26836 0.08595 -0.09385
 H186 H -0.18149 0.08251 -0.17673
 H187 H -0.09598 0.16922 -0.17986
 H188 H -0.09708 0.26101 -0.10045
 H189 H -0.32086 0.23405 0.08944
 H190 H -0.23693 0.32080 0.08546
 C191 C 0.21498 0.83065 -0.01045
 C192 C 0.27935 0.81604 0.01630
 C193 C 0.28977 0.75417 0.04647
 C194 C 0.24033 0.70620 0.04792
 C195 C 0.17687 0.71786 0.02102
 C196 C 0.16229 0.78274 -0.00483
 C197 C 0.20191 0.89057 -0.04493
 C198 C 0.13846 0.90629 -0.06778
 C199 C 0.08636 0.86269 -0.05742
 C200 C 0.09781 0.80161 -0.02696
 H201 H 0.24003 0.92565 -0.05661
 H202 H 0.12973 0.95272 -0.09365
 H203 H 0.03680 0.87562 -0.07439
 H204 H 0.05447 0.77125 -0.02159
 H205 H 0.33760 0.74185 0.06840
 H206 H 0.25259 0.65859 0.07001
 C207 C 0.24724 0.19650 0.05542
 C208 C 0.30080 0.19888 0.00950
 C209 C 0.30385 0.25176 -0.03585
 C210 C 0.25430 0.30033 -0.03802
 C211 C 0.20033 0.29829 0.00571
 C212 C 0.19748 0.24703 0.05413
 C213 C 0.24334 0.14685 0.10487
 C214 C 0.19110 0.14531 0.14999
 C215 C 0.14419 0.19561 0.15012
 C216 C 0.14802 0.24671 0.10372
 H217 H 0.28109 0.10982 0.11054
 H218 H 0.18770 0.10590 0.18621
 H219 H 0.10559 0.19560 0.18728
 H220 H 0.11316 0.28671 0.10852
 H221 H 0.34457 0.25496 -0.07076
 H222 H 0.25795 0.33976 -0.07454
 C223 C -0.30421 0.74551 -0.05811
 C224 C -0.30503 0.79234 -0.00503
 C225 C -0.25524 0.79043 0.04406
 C226 C -0.20519 0.74270 0.04194
 C227 C -0.20460 0.69417 -0.00842
 C228 C -0.25426 0.69532 -0.05929
 C229 C -0.35122 0.74830 -0.11087
 C230 C -0.35123 0.70075 -0.16163
 C231 C -0.30377 0.65057 -0.16174
 C232 C -0.25484 0.64854 -0.11211
 H233 H -0.38797 0.78738 -0.11392
 H234 H -0.38808 0.70303 -0.20125
 H235 H -0.30426 0.61355 -0.20113
 H236 H -0.21739 0.61042 -0.11624
 H237 H -0.25635 0.82500 0.08551
 H238 H -0.16801 0.74209 0.08144
 C239 C -0.06143 -0.29421 0.24839
 C240 C -0.01092 -0.29758 0.19974
 C241 C 0.04010 -0.25010 0.20027
 C242 C 0.04409 -0.20219 0.25081
 C243 C -0.00262 -0.20056 0.30225
 C244 C -0.05730 -0.24556 0.30015
 C245 C -0.11700 -0.33727 0.24566
 C246 C -0.16699 -0.33315 0.29315
 C247 C -0.16304 -0.28588 0.34380
 C248 C -0.10914 -0.24236 0.34723
 H249 H -0.12312 -0.37359 0.20622
 H250 H -0.20929 -0.36640 0.29026
 H251 H -0.20228 -0.28243 0.38032
 H252 H -0.10952 -0.20591 0.38650
 H253 H 0.07849 -0.25164 0.16263
 H254 H 0.08520 -0.16754 0.25098
 C255 C -0.05103 0.30032 0.75559
 C256 C -0.00413 0.29734 0.80976
 C257 C 0.03299 0.23849 0.81819
 C258 C 0.03231 0.18857 0.76938
 C259 C -0.00812 0.19401 0.71236
 C260 C -0.05338 0.24786 0.70750
 C261 C -0.10172 0.34937 0.75287
 C262 C -0.14960 0.34955 0.70233
 C263 C -0.15094 0.29896 0.65519
 C264 C -0.10459 0.24782 0.65861
 H265 H -0.10821 0.38570 0.79171
 H266 H -0.18757 0.38769 0.70145
 H267 H -0.18975 0.29782 0.61742
 H268 H -0.11187 0.20662 0.62482
 H269 H 0.06662 0.23297 0.86039
 H270 H 0.06479 0.14605 0.77549
 C271 C -0.03671 0.22048 0.17861
 C272 C -0.00813 0.28415 0.19257
 C273 C 0.01914 0.29560 0.25623
 C274 C 0.01888 0.24686 0.30519
 C275 C -0.00881 0.18378 0.29350
 C276 C -0.03717 0.17013 0.22929
 C277 C -0.06679 0.20578 0.11632
 C278 C -0.09429 0.14382 0.10261
 C279 C -0.09456 0.09542 0.15135
 C280 C -0.06796 0.10858 0.21430
 H281 H -0.07068 0.24128 0.07736
 H282 H -0.11631 0.13359 0.05414
 H283 H -0.11626 0.04764 0.14041
 H284 H -0.07329 0.06996 0.25033
 H285 H 0.04191 0.34304 0.26844
 H286 H 0.04149 0.25882 0.35305
 C287 C -0.06831 -0.28527 0.76949
 C288 C -0.01548 -0.29175 0.81621
 C289 C 0.03791 -0.24702 0.81451
 C290 C 0.04066 -0.19730 0.76625
 C291 C -0.00961 -0.19177 0.71793
 C292 C -0.06571 -0.23437 0.72045
 C293 C -0.12383 -0.32820 0.77047
 C294 C -0.17542 -0.32117 0.72411
 C295 C -0.17382 -0.27020 0.67743
 C296 C -0.11984 -0.22683 0.67568
 H297 H -0.12796 -0.36724 0.80706
 H298 H -0.21704 -0.35519 0.72453
 H299 H -0.21463 -0.26424 0.64239
 H300 H -0.12132 -0.18710 0.63946
 H301 H 0.07940 -0.25277 0.84869
 H302 H 0.08367 -0.16485 0.76482
 C303 C 0.26620 0.07408 0.79489
 C304 C 0.28786 0.01251 0.82129
 C305 C 0.25892 -0.04685 0.79886
 C306 C 0.21019 -0.04624 0.74923
 C307 C 0.18990 0.01370 0.72036
 C308 C 0.21679 0.07466 0.74363
 C309 C 0.29296 0.13502 0.81785
 C310 C 0.27096 0.19519 0.79109
 C311 C 0.22261 0.19571 0.74088
 C312 C 0.19588 0.13608 0.71690
 H313 H 0.33064 0.13657 0.85672
 H314 H 0.29160 0.24166 0.80927
 H315 H 0.20575 0.24256 0.72039
 H316 H 0.15839 0.13848 0.67787
 H317 H 0.27550 -0.09417 0.81867
 H318 H 0.18967 -0.09307 0.73164
 C319 C -0.22339 -0.03300 0.17781
 C320 C -0.28862 -0.00637 0.19226
 C321 C -0.30025 0.01593 0.25813
 C322 C -0.25187 0.01356 0.30751
 C323 C -0.18987 -0.01520 0.29611
 C324 C -0.17682 -0.04248 0.23190
 C325 C -0.20266 -0.05367 0.11304
 C326 C -0.14336 -0.08808 0.10349
 C327 C -0.10294 -0.10358 0.15741
 C328 C -0.11933 -0.08110 0.22078
 H329 H -0.22933 -0.04386 0.06767
 H330 H -0.12941 -0.10403 0.05382
 H331 H -0.05830 -0.13266 0.15006
 H332 H -0.08748 -0.09641 0.26104
 H333 H -0.34726 0.03803 0.27223
 H334 H -0.26371 0.03468 0.35584
 C335 C 0.29698 0.05784 0.25534
 C336 C 0.29870 0.00659 0.20647
 C337 C 0.24771 -0.04091 0.20417
 C338 C 0.19776 -0.04102 0.25210
 C339 C 0.19712 0.00660 0.30329
 C340 C 0.24541 0.05825 0.30363
 C341 C 0.34329 0.11080 0.25505
 C342 C 0.33927 0.16249 0.30136
 C343 C 0.28856 0.16327 0.34802
 C344 C 0.24173 0.11219 0.34892
 H345 H 0.38179 0.11407 0.21806
 H346 H 0.37497 0.20280 0.30020
 H347 H 0.28483 0.20424 0.38304
 H348 H 0.20166 0.11675 0.38399
 H349 H 0.24774 -0.07947 0.16619
 H350 H 0.16059 -0.07986 0.25050
 C351 C -0.23693 -0.05760 0.82137
 C352 C -0.29726 -0.02221 0.81036
 C353 C -0.30457 0.01400 0.75111
 C354 C -0.25383 0.01683 0.70425
 C355 C -0.19253 -0.01488 0.71504
 C356 C -0.18334 -0.05176 0.77517
 C357 C -0.22940 -0.10085 0.87610
 C358 C -0.16967 -0.13328 0.88898
 C359 C -0.11629 -0.12424 0.84680
 C360 C -0.12317 -0.08472 0.79024
 H361 H -0.27011 -0.11191 0.90800
 H362 H -0.16486 -0.16581 0.93164
 H363 H -0.06969 -0.14911 0.85717
 H364 H -0.08064 -0.08089 0.75926
 H365 H -0.34990 0.04142 0.74114
 H366 H -0.26235 0.04535 0.65920
   
