data_POSCAR
  _audit_creation_date              2014-09-24
  _audit_creation_method            'ToBaCCo'
  _symmetry_space_group_name_H-M    'P1'
  _symmetry_Int_Tables_number       1
  _symmetry_cell_setting            triclinic
  loop_
  _symmetry_equiv_pos_as_xyz
 x,y,z
_cell_length_a 39.3270
_cell_length_b 39.3895
_cell_length_c 39.4618
_cell_angle_alpha 90.192900
_cell_angle_beta 90.003000
_cell_angle_gamma 90.005300
loop_
  _atom_site_label
  _atom_site_type_symbol
  _atom_site_fract_x
  _atom_site_fract_y
  _atom_site_fract_z
C1 C 0.27582 0.24930 0.22522
 C2 C 0.25046 0.27442 0.22552
 C3 C 0.22510 0.27469 0.25060
 C4 C 0.22533 0.24939 0.27561
 C5 C 0.25046 0.22403 0.27576
 C6 C 0.27559 0.22421 0.25045
 H7 H 0.25045 0.29383 0.20616
 H8 H 0.20588 0.24943 0.29503
 H9 H 0.29505 0.20476 0.25039
 C10 C 0.72447 -0.25047 0.22357
 C11 C 0.74975 -0.27597 0.22440
 C12 C 0.77498 -0.27684 0.24991
 C13 C 0.77421 -0.25142 0.27516
 C14 C 0.74961 -0.22566 0.27484
 C15 C 0.72508 -0.22530 0.24906
 H16 H 0.74981 -0.29532 0.20500
 H17 H 0.79342 -0.25071 0.29476
 H18 H 0.70582 -0.20572 0.24979
 C19 C 0.72514 0.25007 0.77516
 C20 C 0.75056 0.27513 0.77507
 C21 C 0.77572 0.27616 0.74952
 C22 C 0.77469 0.25094 0.72398
 C23 C 0.74969 0.22544 0.72394
 C24 C 0.72499 0.22530 0.74956
 H25 H 0.74982 0.29442 0.79461
 H26 H 0.79393 0.25018 0.70443
 H27 H 0.70556 0.20581 0.74958
 C28 C 0.27435 -0.24857 0.77586
 C29 C 0.27444 -0.22391 0.75032
 C30 C 0.24966 -0.22413 0.72478
 C31 C 0.22462 -0.24958 0.72485
 C32 C 0.22363 -0.27469 0.75034
 C33 C 0.24887 -0.27358 0.77582
 H34 H 0.29392 -0.20447 0.75030
 H35 H 0.20532 -0.24891 0.70535
 H36 H 0.24965 -0.29279 0.79530
 C37 C 0.72536 -0.24892 0.77529
 C38 C 0.75083 -0.27392 0.77524
 C39 C 0.77602 -0.27504 0.74973
 C40 C 0.77499 -0.24998 0.72421
 C41 C 0.74995 -0.22455 0.72416
 C42 C 0.72521 -0.22430 0.74973
 H43 H 0.75007 -0.29312 0.79475
 H44 H 0.79427 -0.24932 0.70469
 H45 H 0.70573 -0.20486 0.74973
 C46 C 0.27533 0.24996 0.77554
 C47 C 0.27512 0.22485 0.75017
 C48 C 0.25006 0.22469 0.72480
 C49 C 0.22499 0.25010 0.72502
 C50 C 0.22476 0.27544 0.75015
 C51 C 0.25004 0.27514 0.77530
 H52 H 0.29453 0.20535 0.75017
 H53 H 0.20559 0.25014 0.70554
 H54 H 0.25003 0.29459 0.79477
 C55 C 0.27618 -0.25005 0.22354
 C56 C 0.27522 -0.22457 0.24882
 C57 C 0.25029 -0.22463 0.27430
 C58 C 0.22560 -0.25030 0.27441
 C59 C 0.22570 -0.27586 0.24961
 C60 C 0.25105 -0.27567 0.22452
 H61 H 0.29447 -0.20499 0.24961
 H62 H 0.20621 -0.25038 0.29390
 H63 H 0.25026 -0.29518 0.20519
 C64 C 0.72442 0.24947 0.22550
 C65 C 0.74981 0.27456 0.22584
 C66 C 0.77511 0.27481 0.25097
 C67 C 0.77479 0.24955 0.27600
 C68 C 0.74963 0.22422 0.27611
 C69 C 0.72456 0.22441 0.25075
 H70 H 0.74988 0.29395 0.20645
 H71 H 0.79421 0.24957 0.29546
 H72 H 0.70508 0.20496 0.25064
 O73 O 0.22220 0.03262 0.46696
 O74 O 0.22211 -0.03331 0.53290
 O75 O 0.22210 0.03272 0.53298
 O76 O 0.22208 -0.03340 0.46685
 O77 O 0.27816 -0.03350 0.46695
 O78 O 0.27818 0.03273 0.53298
 O79 O 0.27819 -0.03342 0.53289
 O80 O 0.27828 0.03264 0.46706
 Cu81 Cu 0.21651 -0.00035 0.49992
 Cu82 Cu 0.28382 -0.00040 0.49997
 C83 C 0.25026 0.04394 0.45571
 C84 C 0.25013 -0.04466 0.54420
 C85 C 0.25014 0.04407 0.54430
 C86 C 0.25012 -0.04478 0.45556
 O87 O 0.72119 0.03267 0.53277
 O88 O 0.72122 -0.03370 0.46679
 O89 O 0.72122 -0.03351 0.53272
 O90 O 0.72121 0.03247 0.46686
 O91 O 0.77729 0.03243 0.46682
 O92 O 0.77730 -0.03341 0.53276
 O93 O 0.77730 -0.03359 0.46674
 O94 O 0.77726 0.03262 0.53282
 Cu95 Cu 0.71559 -0.00053 0.49979
 Cu96 Cu 0.78290 -0.00049 0.49979
 C97 C 0.74923 0.04402 0.54410
 C98 C 0.74927 -0.04500 0.45543
 C99 C 0.74927 -0.04475 0.54405
 C100 C 0.74925 0.04376 0.45555
 O101 O 0.46722 0.22132 0.03291
 O102 O 0.53349 0.22140 -0.03304
 O103 O 0.53346 0.22136 0.03290
 O104 O 0.46721 0.22145 -0.03301
 O105 O 0.46728 0.27743 -0.03280
 O106 O 0.53339 0.27735 0.03320
 O107 O 0.53341 0.27739 -0.03283
 O108 O 0.46729 0.27731 0.03322
 Cu109 Cu 0.50035 0.21577 -0.00009
 Cu110 Cu 0.50034 0.28298 0.00022
 C111 C 0.45593 0.24930 0.04440
 C112 C 0.54479 0.24942 -0.04426
 C113 C 0.54475 0.24935 0.04438
 C114 C 0.45589 0.24946 -0.04421
 O115 O 0.53339 0.72309 0.03233
 O116 O 0.46714 0.72350 -0.03357
 O117 O 0.53321 0.72344 -0.03363
 O118 O 0.46713 0.72309 0.03237
 O119 O 0.46723 0.77907 0.03300
 O120 O 0.53337 0.77942 -0.03304
 O121 O 0.46705 0.77949 -0.03298
 O122 O 0.53338 0.77908 0.03294
 Cu123 Cu 0.50021 0.71767 -0.00065
 Cu124 Cu 0.50026 0.78488 0.00001
 C125 C 0.54475 0.75100 0.04394
 C126 C 0.45573 0.75156 -0.04457
 C127 C 0.54462 0.75147 -0.04466
 C128 C 0.45584 0.75101 0.04400
 O129 O 0.03319 0.46660 0.22284
 O130 O -0.03321 0.53248 0.22277
 O131 O 0.03301 0.53275 0.22266
 O132 O -0.03289 0.46642 0.22296
 O133 O -0.03304 0.46700 0.27884
 O134 O 0.03338 0.53287 0.27854
 O135 O -0.03286 0.53312 0.27865
 O136 O 0.03322 0.46686 0.27873
 Cu137 Cu 0.00003 0.49955 0.21721
 Cu138 Cu 0.00018 0.50000 0.28429
 C139 C 0.04455 0.45539 0.25079
 C140 C -0.04441 0.54410 0.25069
 C141 C 0.04457 0.54412 0.25054
 C142 C -0.04429 0.45536 0.25094
 O143 O 0.03294 0.53365 0.72203
 O144 O -0.03300 0.46727 0.72180
 O145 O -0.03317 0.53344 0.72187
 O146 O 0.03323 0.46757 0.72196
 O147 O 0.03280 0.46741 0.77785
 O148 O -0.03320 0.53365 0.77776
 O149 O -0.03337 0.46762 0.77768
 O150 O 0.03304 0.53353 0.77791
 Cu151 Cu 0.00000 0.50045 0.71631
 Cu152 Cu -0.00019 0.50057 0.78340
 C153 C 0.04432 0.54495 0.75001
 C154 C -0.04454 0.45610 0.74970
 C155 C -0.04453 0.54488 0.74980
 C156 C 0.04436 0.45616 0.74992
 C157 C 0.35276 0.24926 0.14809
 C158 C 0.33809 0.21840 0.15815
 C159 C 0.31294 0.21855 0.18334
 C160 C 0.30251 0.24927 0.19855
 C161 C 0.31762 0.27998 0.18816
 C162 C 0.34269 0.28013 0.16289
 C163 C 0.37915 0.24927 0.12153
 C164 C 0.39373 0.28014 0.11139
 C165 C 0.41877 0.28002 0.08608
 C166 C 0.42936 0.24928 0.07103
 C167 C 0.41446 0.21853 0.08161
 C168 C 0.38929 0.21840 0.10680
 C169 C 0.35794 0.31050 0.15214
 C170 C 0.38299 0.31052 0.12680
 C171 C 0.34885 0.18802 0.14275
 C172 C 0.37404 0.18802 0.11754
 H173 H 0.35040 0.33449 0.16338
 H174 H 0.39406 0.33451 0.11923
 H175 H 0.33772 0.16404 0.15028
 H176 H 0.38162 0.16403 0.10636
 H177 H 0.30117 0.19484 0.19079
 H178 H 0.31016 0.30370 0.20001
 H179 H 0.43007 0.30383 0.07824
 H180 H 0.42233 0.19473 0.07019
 C181 C 0.64839 0.75018 0.14721
 C182 C 0.65899 0.78093 0.16174
 C183 C 0.68411 0.78060 0.18698
 C184 C 0.69902 0.74974 0.19790
 C185 C 0.68775 0.71911 0.18262
 C186 C 0.66255 0.71923 0.15747
 C187 C 0.62188 0.75040 0.12074
 C188 C 0.61106 0.71958 0.10640
 C189 C 0.58579 0.71990 0.08132
 C190 C 0.57142 0.75081 0.07046
 C191 C 0.58268 0.78151 0.08513
 C192 C 0.60785 0.78143 0.11032
 C193 C 0.65106 0.68887 0.14253
 C194 C 0.62575 0.68904 0.11744
 C195 C 0.64438 0.81150 0.15061
 C196 C 0.61926 0.81175 0.12533
 H197 H 0.66172 0.66476 0.15029
 H198 H 0.61763 0.66507 0.10660
 H199 H 0.65241 0.83545 0.16156
 H200 H 0.60866 0.83587 0.11752
 H201 H 0.69285 0.80472 0.19691
 H202 H 0.69725 0.69481 0.19115
 H203 H 0.57741 0.69612 0.07022
 H204 H 0.57181 0.80544 0.07706
 C205 C 0.64821 0.24975 -0.14770
 C206 C 0.66310 0.21895 -0.15784
 C207 C 0.68830 0.21920 -0.18300
 C208 C 0.69852 0.24994 -0.19809
 C209 C 0.68317 0.28058 -0.18763
 C210 C 0.65808 0.28063 -0.16239
 C211 C 0.62175 0.24965 -0.12120
 C212 C 0.60693 0.28046 -0.11100
 C213 C 0.58184 0.28025 -0.08575
 C214 C 0.57140 0.24948 -0.07083
 C215 C 0.58653 0.21880 -0.08149
 C216 C 0.61177 0.21876 -0.10661
 C217 C 0.64260 0.31094 -0.15157
 C218 C 0.61750 0.31086 -0.12628
 C219 C 0.65252 0.18855 -0.14258
 C220 C 0.62726 0.18845 -0.11743
 H221 H 0.64999 0.33493 -0.16272
 H222 H 0.60624 0.33480 -0.11865
 H223 H 0.66382 0.16462 -0.15018
 H224 H 0.61981 0.16444 -0.10635
 H225 H 0.70022 0.19555 -0.19056
 H226 H 0.69045 0.30430 -0.19942
 H227 H 0.57036 0.30400 -0.07785
 H228 H 0.57880 0.19498 -0.07018
 C229 C 0.35181 0.75161 -0.14753
 C230 C 0.33694 0.78244 -0.15738
 C231 C 0.31158 0.78226 -0.18238
 C232 C 0.30114 0.75153 -0.19758
 C233 C 0.31648 0.72086 -0.18740
 C234 C 0.34174 0.72075 -0.16234
 C235 C 0.37843 0.75163 -0.12120
 C236 C 0.39321 0.72078 -0.11128
 C237 C 0.41844 0.72091 -0.08617
 C238 C 0.42904 0.75164 -0.07108
 C239 C 0.41396 0.78237 -0.08146
 C240 C 0.38859 0.78249 -0.10645
 C241 C 0.35720 0.69040 -0.15182
 C242 C 0.38246 0.69041 -0.12669
 C243 C 0.34772 0.81281 -0.14200
 C244 C 0.37313 0.81284 -0.11699
 H245 H 0.34966 0.66642 -0.16307
 H246 H 0.39368 0.66643 -0.11927
 H247 H 0.33645 0.83678 -0.14937
 H248 H 0.38072 0.83683 -0.10580
 H249 H 0.29968 0.80593 -0.18974
 H250 H 0.30905 0.69715 -0.19929
 H251 H 0.42987 0.69711 -0.07848
 H252 H 0.42184 0.80616 -0.07002
 C253 C 0.14801 0.35180 0.25071
 C254 C 0.15811 0.33703 0.21989
 C255 C 0.18325 0.31178 0.22001
 C256 C 0.19838 0.30138 0.25065
 C257 C 0.18793 0.31657 0.28133
 C258 C 0.16270 0.34174 0.28151
 C259 C 0.12153 0.37832 0.25074
 C260 C 0.11135 0.39302 0.28157
 C261 C 0.08611 0.41818 0.28147
 C262 C 0.07117 0.42877 0.25079
 C263 C 0.08180 0.41374 0.22009
 C264 C 0.10691 0.38846 0.21994
 C265 C 0.15192 0.35710 0.31184
 C266 C 0.12664 0.38228 0.31188
 C267 C 0.14282 0.34778 0.18958
 C268 C 0.11769 0.37309 0.18960
 H269 H 0.16307 0.34957 0.33577
 H270 H 0.11903 0.39344 0.33584
 H271 H 0.15039 0.33656 0.16563
 H272 H 0.10659 0.38066 0.16566
 H273 H 0.19073 0.29995 0.19632
 H274 H 0.19972 0.30911 0.30499
 H275 H 0.07821 0.42958 0.30524
 H276 H 0.07047 0.42159 0.19633
 C277 C 0.14755 0.64882 0.75022
 C278 C 0.15786 0.66324 0.71947
 C279 C 0.18293 0.68856 0.71962
 C280 C 0.19809 0.69969 0.75031
 C281 C 0.18711 0.68453 0.78096
 C282 C 0.16195 0.65929 0.78102
 C283 C 0.12113 0.62221 0.75018
 C284 C 0.11062 0.60795 0.78101
 C285 C 0.08545 0.58272 0.78084
 C286 C 0.07089 0.57162 0.75008
 C287 C 0.08185 0.58620 0.71938
 C288 C 0.10690 0.61154 0.71930
 C289 C 0.15075 0.64445 0.81139
 C290 C 0.12552 0.61923 0.81138
 C291 C 0.14304 0.65188 0.68906
 C292 C 0.11801 0.62647 0.68897
 H293 H 0.16160 0.65237 0.83538
 H294 H 0.11764 0.60845 0.83536
 H295 H 0.15084 0.66274 0.66509
 H296 H 0.10725 0.61847 0.66496
 H297 H 0.19146 0.69834 0.69547
 H298 H 0.19689 0.69316 0.80513
 H299 H 0.07730 0.57169 0.80462
 H300 H 0.07083 0.57795 0.69556
 C301 C -0.14852 0.64708 0.25029
 C302 C -0.16272 0.65743 0.21943
 C303 C -0.18805 0.68248 0.21941
 C304 C -0.19944 0.69757 0.25005
 C305 C -0.18450 0.68656 0.28081
 C306 C -0.15923 0.66143 0.28104
 C307 C -0.12186 0.62072 0.25041
 C308 C -0.10779 0.61021 0.28134
 C309 C -0.08249 0.58511 0.28132
 C310 C -0.07115 0.57061 0.25061
 C311 C -0.08556 0.58156 0.21981
 C312 C -0.11095 0.60656 0.21958
 C313 C -0.14458 0.65023 0.31151
 C314 C -0.11931 0.62505 0.31166
 C315 C -0.15112 0.64268 0.18907
 C316 C -0.12567 0.61769 0.18914
 H317 H -0.15269 0.66103 0.33547
 H318 H -0.10868 0.61717 0.33571
 H319 H -0.16181 0.65050 0.16503
 H320 H -0.11748 0.60697 0.16517
 H321 H -0.19757 0.69109 0.19518
 H322 H -0.19332 0.69634 0.30492
 H323 H -0.07160 0.57696 0.30518
 H324 H -0.07712 0.57060 0.19603
 C325 C -0.14804 0.35250 0.74956
 C326 C -0.16245 0.34218 0.78033
 C327 C -0.18766 0.31700 0.78021
 C328 C -0.19871 0.30175 0.74953
 C329 C -0.18355 0.31274 0.71886
 C330 C -0.15841 0.33800 0.71877
 C331 C -0.12154 0.37904 0.74958
 C332 C -0.10730 0.38956 0.71874
 C333 C -0.08217 0.41483 0.71889
 C334 C -0.07116 0.42948 0.74964
 C335 C -0.08574 0.41853 0.78036
 C336 C -0.11098 0.39336 0.78046
 C337 C -0.14358 0.34921 0.68838
 C338 C -0.11848 0.37456 0.68836
 C339 C -0.15119 0.35709 0.81074
 C340 C -0.12589 0.38224 0.81080
 H341 H -0.15143 0.33829 0.66439
 H342 H -0.10770 0.38244 0.66438
 H343 H -0.16204 0.34928 0.83472
 H344 H -0.11796 0.39308 0.83481
 H345 H -0.19742 0.30847 0.80437
 H346 H -0.19213 0.30289 0.69469
 H347 H -0.07113 0.42298 0.69509
 H348 H -0.07756 0.42961 0.80418
 C349 C 0.25039 0.14712 0.35254
 C350 C 0.28132 0.16174 0.34245
 C351 C 0.28120 0.18690 0.31739
 C352 C 0.25044 0.19738 0.30233
 C353 C 0.21966 0.18232 0.31276
 C354 C 0.21949 0.15724 0.33790
 C355 C 0.25036 0.12071 0.37895
 C356 C 0.21942 0.10617 0.38912
 C357 C 0.21951 0.08112 0.41430
 C358 C 0.25029 0.07048 0.42919
 C359 C 0.28111 0.08534 0.41858
 C360 C 0.28127 0.11052 0.39353
 C361 C 0.18905 0.14203 0.34867
 C362 C 0.18901 0.11696 0.37387
 C363 C 0.31173 0.15094 0.35768
 C364 C 0.31171 0.12573 0.38276
 H365 H 0.16503 0.14961 0.33756
 H366 H 0.16496 0.10592 0.38147
 H367 H 0.33577 0.16203 0.35013
 H368 H 0.33573 0.11811 0.39382
 H369 H 0.30496 0.19863 0.30992
 H370 H 0.19592 0.18982 0.30102
 H371 H 0.19565 0.06985 0.42217
 H372 H 0.30494 0.07744 0.42987
 C373 C 0.74945 0.14806 0.64711
 C374 C 0.78038 0.15816 0.66177
 C375 C 0.78031 0.18342 0.68688
 C376 C 0.74960 0.19871 0.69727
 C377 C 0.71880 0.18826 0.68221
 C378 C 0.71858 0.16290 0.65716
 C379 C 0.74937 0.12141 0.62076
 C380 C 0.71843 0.11122 0.60619
 C381 C 0.71849 0.08582 0.58119
 C382 C 0.74925 0.07074 0.57062
 C383 C 0.78007 0.08138 0.58552
 C384 C 0.78026 0.10665 0.61065
 C385 C 0.68813 0.15209 0.64194
 C386 C 0.68805 0.12666 0.61691
 C387 C 0.81076 0.14272 0.65105
 C388 C 0.81071 0.11744 0.62589
 H389 H 0.66414 0.16335 0.64946
 H390 H 0.66400 0.11905 0.60585
 H391 H 0.83480 0.15028 0.66217
 H392 H 0.83470 0.10622 0.61833
 H393 H 0.80407 0.19087 0.69866
 H394 H 0.69509 0.20013 0.68971
 H395 H 0.69464 0.07792 0.56989
 H396 H 0.80389 0.06995 0.57768
 C397 C 0.24990 -0.14754 0.64768
 C398 C 0.21898 -0.15740 0.66245
 C399 C 0.21906 -0.18237 0.68769
 C400 C 0.24976 -0.19760 0.69807
 C401 C 0.28055 -0.18738 0.68291
 C402 C 0.28076 -0.16232 0.65775
 C403 C 0.24997 -0.12123 0.62117
 C404 C 0.28090 -0.11127 0.60649
 C405 C 0.28083 -0.08617 0.58135
 C406 C 0.25008 -0.07116 0.57077
 C407 C 0.21928 -0.08157 0.58577
 C408 C 0.21909 -0.10653 0.61103
 C409 C 0.31120 -0.15176 0.64240
 C410 C 0.31128 -0.12664 0.61724
 C411 C 0.18860 -0.14204 0.65170
 C412 C 0.18865 -0.11707 0.62640
 H413 H 0.33519 -0.16297 0.64994
 H414 H 0.33532 -0.11920 0.60609
 H415 H 0.16457 -0.14942 0.66291
 H416 H 0.16466 -0.10591 0.61882
 H417 H 0.19530 -0.18964 0.69954
 H418 H 0.30425 -0.19922 0.69041
 H419 H 0.30469 -0.07845 0.56998
 H420 H 0.19547 -0.07018 0.57792
 C421 C 0.74945 -0.14858 0.35196
 C422 C 0.71859 -0.16345 0.34194
 C423 C 0.71879 -0.18869 0.31678
 C424 C 0.74955 -0.19897 0.30156
 C425 C 0.78027 -0.18369 0.31193
 C426 C 0.78037 -0.15854 0.33717
 C427 C 0.74940 -0.12208 0.37846
 C428 C 0.78028 -0.10729 0.38856
 C429 C 0.78011 -0.08215 0.41382
 C430 C 0.74931 -0.07165 0.42884
 C431 C 0.71856 -0.08675 0.41829
 C432 C 0.71848 -0.11203 0.39317
 C433 C 0.81075 -0.14309 0.34789
 C434 C 0.81071 -0.11794 0.37318
 C435 C 0.68816 -0.15280 0.35731
 C436 C 0.68810 -0.12749 0.38246
 H437 H 0.83477 -0.15054 0.33666
 H438 H 0.83471 -0.10671 0.38073
 H439 H 0.66417 -0.16408 0.34980
 H440 H 0.66407 -0.11999 0.39362
 H441 H 0.69508 -0.20060 0.30932
 H442 H 0.80401 -0.19107 0.30007
 H443 H 0.80392 -0.07069 0.42164
 H444 H 0.69471 -0.07897 0.42968
 C445 C 0.64816 0.75137 -0.14791
 C446 C 0.65810 0.72049 -0.16277
 C447 C 0.68328 0.72057 -0.18791
 C448 C 0.69864 0.75121 -0.19810
 C449 C 0.68834 0.78196 -0.18287
 C450 C 0.66306 0.78218 -0.15779
 C451 C 0.62163 0.75143 -0.12150
 C452 C 0.61160 0.78231 -0.10671
 C453 C 0.58632 0.78223 -0.08163
 C454 C 0.57121 0.75151 -0.07123
 C455 C 0.58169 0.72077 -0.08636
 C456 C 0.60683 0.72060 -0.11155
 C457 C 0.65240 0.81257 -0.14236
 C458 C 0.62708 0.81264 -0.11727
 C459 C 0.64262 0.69017 -0.15222
 C460 C 0.61745 0.69022 -0.12701
 H461 H 0.66371 0.83651 -0.14976
 H462 H 0.61958 0.83663 -0.10604
 H463 H 0.65007 0.66618 -0.16350
 H464 H 0.60619 0.66626 -0.11957
 H465 H 0.69062 0.69685 -0.19983
 H466 H 0.70027 0.80561 -0.19025
 H467 H 0.57853 0.80603 -0.07015
 H468 H 0.57023 0.69699 -0.07865
 C469 C 0.35233 0.24975 -0.14745
 C470 C 0.34234 0.28063 -0.16204
 C471 C 0.31720 0.28056 -0.18724
 C472 C 0.30197 0.24989 -0.19777
 C473 C 0.31229 0.21915 -0.18274
 C474 C 0.33751 0.21893 -0.15763
 C475 C 0.37884 0.24967 -0.12101
 C476 C 0.38892 0.21877 -0.10650
 C477 C 0.41420 0.21882 -0.08143
 C478 C 0.42926 0.24952 -0.07074
 C479 C 0.41873 0.28030 -0.08556
 C480 C 0.39358 0.28050 -0.11076
 C481 C 0.34820 0.18852 -0.14245
 C482 C 0.37350 0.18844 -0.11735
 C483 C 0.35775 0.31096 -0.15118
 C484 C 0.38290 0.31090 -0.12594
 H485 H 0.33695 0.16458 -0.15008
 H486 H 0.38103 0.16443 -0.10634
 H487 H 0.35026 0.33496 -0.16226
 H488 H 0.39410 0.33486 -0.11827
 H489 H 0.30981 0.30428 -0.19895
 H490 H 0.30041 0.19547 -0.19030
 H491 H 0.42202 0.19500 -0.07019
 H492 H 0.43016 0.30407 -0.07762
 C493 C 0.35229 0.75040 0.14728
 C494 C 0.33796 0.71949 0.15745
 C495 C 0.31275 0.71944 0.18259
 C496 C 0.30166 0.75010 0.19793
 C497 C 0.31670 0.78091 0.18706
 C498 C 0.34183 0.78116 0.16186
 C499 C 0.37880 0.75055 0.12082
 C500 C 0.39296 0.78154 0.11046
 C501 C 0.41812 0.78157 0.08527
 C502 C 0.42922 0.75085 0.07055
 C503 C 0.41472 0.71998 0.08133
 C504 C 0.38946 0.71971 0.10641
 C505 C 0.35657 0.81169 0.15080
 C506 C 0.38169 0.81188 0.12553
 C507 C 0.34931 0.68911 0.14246
 C508 C 0.37463 0.68922 0.11738
 H509 H 0.34865 0.83566 0.16179
 H510 H 0.39241 0.83597 0.11776
 H511 H 0.33852 0.66503 0.15015
 H512 H 0.38263 0.66523 0.10648
 H513 H 0.30304 0.69518 0.19101
 H514 H 0.30806 0.80506 0.19698
 H515 H 0.42909 0.80547 0.07725
 H516 H 0.42299 0.69619 0.07018
 C517 C 0.64772 0.24939 0.14820
 C518 C 0.65772 0.28026 0.16304
 C519 C 0.68272 0.28013 0.18837
 C520 C 0.69783 0.24942 0.19877
 C521 C 0.68748 0.21870 0.18352
 C522 C 0.66239 0.21854 0.15827
 C523 C 0.62139 0.24938 0.12159
 C524 C 0.61132 0.21850 0.10682
 C525 C 0.58620 0.21861 0.08159
 C526 C 0.57128 0.24935 0.07101
 C527 C 0.58182 0.28010 0.08609
 C528 C 0.60680 0.28024 0.11144
 C529 C 0.65171 0.18815 0.14284
 C530 C 0.62658 0.18813 0.11757
 C531 C 0.64247 0.31063 0.15228
 C532 C 0.61747 0.31062 0.12689
 H533 H 0.66285 0.16418 0.15038
 H534 H 0.61904 0.16414 0.10636
 H535 H 0.64996 0.33461 0.16355
 H536 H 0.60639 0.33460 0.11930
 H537 H 0.69014 0.30384 0.20025
 H538 H 0.69926 0.19500 0.19099
 H539 H 0.57837 0.19481 0.07015
 H540 H 0.57050 0.30390 0.07824
 C541 C -0.14782 0.64860 0.74975
 C542 C -0.15819 0.66290 0.71896
 C543 C -0.18329 0.68819 0.71906
 C544 C -0.19841 0.69939 0.74974
 C545 C -0.18736 0.68436 0.78042
 C546 C -0.16218 0.65916 0.78053
 C547 C -0.12138 0.62202 0.74976
 C548 C -0.11082 0.60790 0.78063
 C549 C -0.08563 0.58270 0.78051
 C550 C -0.07111 0.57151 0.74978
 C551 C -0.08212 0.58596 0.71903
 C552 C -0.10719 0.61127 0.71890
 C553 C -0.15093 0.64444 0.81094
 C554 C -0.12568 0.61926 0.81099
 C555 C -0.14341 0.65146 0.68857
 C556 C -0.11836 0.62607 0.68853
 H557 H -0.16175 0.65243 0.83492
 H558 H -0.11775 0.60857 0.83499
 H559 H -0.15126 0.66223 0.66458
 H560 H -0.10762 0.61800 0.66454
 H561 H -0.19187 0.69788 0.69490
 H562 H -0.19711 0.69307 0.80458
 H563 H -0.07744 0.57176 0.80433
 H564 H -0.07112 0.57763 0.69523
 C565 C -0.14770 0.35178 0.25104
 C566 C -0.15773 0.33690 0.22024
 C567 C -0.18289 0.31168 0.22038
 C568 C -0.19813 0.30143 0.25102
 C569 C -0.18774 0.31671 0.28168
 C570 C -0.16249 0.34185 0.28183
 C571 C -0.12121 0.37829 0.25104
 C572 C -0.11111 0.39311 0.28184
 C573 C -0.08587 0.41827 0.28170
 C574 C -0.07087 0.42872 0.25101
 C575 C -0.08141 0.41357 0.22034
 C576 C -0.10652 0.38830 0.22023
 C577 C -0.15177 0.35732 0.31214
 C578 C -0.12649 0.38249 0.31215
 C579 C -0.14236 0.34751 0.18993
 C580 C -0.11722 0.37281 0.18992
 H581 H -0.16300 0.34989 0.33607
 H582 H -0.11894 0.39374 0.33608
 H583 H -0.14987 0.33621 0.16601
 H584 H -0.10605 0.38029 0.16598
 H585 H -0.19033 0.29977 0.19672
 H586 H -0.19961 0.30934 0.30533
 H587 H -0.07804 0.42977 0.30544
 H588 H -0.07003 0.42133 0.19658
 C589 C 0.14783 0.35265 0.75007
 C590 C 0.16268 0.34253 0.71930
 C591 C 0.18787 0.31735 0.71948
 C592 C 0.19814 0.30219 0.75013
 C593 C 0.18287 0.31265 0.78075
 C594 C 0.15775 0.33792 0.78087
 C595 C 0.12135 0.37917 0.75003
 C596 C 0.10657 0.38935 0.78081
 C597 C 0.08145 0.41461 0.78065
 C598 C 0.07098 0.42957 0.74996
 C599 C 0.08610 0.41895 0.71931
 C600 C 0.11134 0.39381 0.71922
 C601 C 0.14232 0.34872 0.81115
 C602 C 0.11718 0.37403 0.81113
 C603 C 0.15206 0.35785 0.68898
 C604 C 0.12680 0.38302 0.68893
 H605 H 0.14975 0.33754 0.83508
 H606 H 0.10595 0.38164 0.83504
 H607 H 0.16334 0.35027 0.66507
 H608 H 0.11931 0.39415 0.66499
 H609 H 0.19978 0.30984 0.69584
 H610 H 0.19022 0.30084 0.80441
 H611 H 0.06999 0.42250 0.80438
 H612 H 0.07833 0.43030 0.69555
 C613 C 0.14854 0.64715 0.24999
 C614 C 0.16364 0.65712 0.28068
 C615 C 0.18895 0.68219 0.28040
 C616 C 0.19908 0.69738 0.24972
 C617 C 0.18356 0.68706 0.21918
 C618 C 0.15834 0.66190 0.21916
 C619 C 0.12191 0.62077 0.25013
 C620 C 0.10688 0.61074 0.21942
 C621 C 0.08162 0.58560 0.21968
 C622 C 0.07127 0.57064 0.25040
 C623 C 0.08661 0.58113 0.28098
 C624 C 0.11200 0.60613 0.28097
 C625 C 0.14264 0.65126 0.18895
 C626 C 0.11738 0.62607 0.18907
 C627 C 0.15312 0.64180 0.31103
 C628 C 0.12771 0.61677 0.31118
 H629 H 0.14998 0.66246 0.16500
 H630 H 0.10596 0.61857 0.16521
 H631 H 0.16459 0.64927 0.33489
 H632 H 0.12031 0.60564 0.33515
 H633 H 0.20102 0.68964 0.30398
 H634 H 0.19077 0.69894 0.19551
 H635 H 0.06998 0.57782 0.19601
 H636 H 0.07894 0.56977 0.30477
 C637 C 0.74961 -0.14785 0.64723
 C638 C 0.71877 -0.16271 0.65724
 C639 C 0.71902 -0.18784 0.68234
 C640 C 0.74982 -0.19803 0.69748
 C641 C 0.78050 -0.18273 0.68715
 C642 C 0.78055 -0.15769 0.66198
 C643 C 0.74951 -0.12146 0.62081
 C644 C 0.78037 -0.10668 0.61074
 C645 C 0.78015 -0.08165 0.58555
 C646 C 0.74933 -0.07126 0.57057
 C647 C 0.71860 -0.08634 0.58110
 C648 C 0.71856 -0.11151 0.60615
 C649 C 0.81091 -0.14226 0.65130
 C650 C 0.81082 -0.11721 0.62607
 C651 C 0.68831 -0.15216 0.64193
 C652 C 0.68821 -0.12696 0.61684
 H653 H 0.83494 -0.14963 0.66250
 H654 H 0.83480 -0.10598 0.61854
 H655 H 0.66435 -0.16343 0.64942
 H656 H 0.66416 -0.11953 0.60571
 H657 H 0.69534 -0.19973 0.68981
 H658 H 0.80427 -0.18999 0.69900
 H659 H 0.80395 -0.07020 0.57775
 H660 H 0.69474 -0.07863 0.56973
 C661 C 0.25018 -0.14788 0.35168
 C662 C 0.21929 -0.15786 0.33684
 C663 C 0.21947 -0.18289 0.31149
 C664 C 0.25024 -0.19801 0.30105
 C665 C 0.28097 -0.18771 0.31634
 C666 C 0.28109 -0.16259 0.34160
 C667 C 0.25015 -0.12151 0.37830
 C668 C 0.28105 -0.11146 0.39306
 C669 C 0.28091 -0.08631 0.41830
 C670 C 0.25012 -0.07134 0.42890
 C671 C 0.21934 -0.08185 0.41384
 C672 C 0.21923 -0.10687 0.38847
 C673 C 0.31149 -0.15194 0.35703
 C674 C 0.31148 -0.12677 0.38230
 C675 C 0.18887 -0.14257 0.34763
 C676 C 0.18883 -0.11753 0.37304
 H677 H 0.33551 -0.16312 0.34948
 H678 H 0.33549 -0.11925 0.39351
 H679 H 0.16487 -0.15004 0.33637
 H680 H 0.16480 -0.10641 0.38064
 H681 H 0.19575 -0.19034 0.29961
 H682 H 0.30472 -0.19954 0.30888
 H683 H 0.30473 -0.07850 0.42973
 H684 H 0.19550 -0.07049 0.42171
 C685 C 0.74944 0.14718 0.35269
 C686 C 0.78038 0.15726 0.33811
 C687 C 0.78029 0.18241 0.31305
 C688 C 0.74956 0.19757 0.30265
 C689 C 0.71877 0.18715 0.31766
 C690 C 0.71856 0.16192 0.34264
 C691 C 0.74938 0.12068 0.37901
 C692 C 0.71843 0.11052 0.39352
 C693 C 0.71851 0.08527 0.41849
 C694 C 0.74928 0.07031 0.42907
 C695 C 0.78010 0.08091 0.41423
 C696 C 0.78028 0.10603 0.38914
 C697 C 0.68811 0.15115 0.35781
 C698 C 0.68804 0.12586 0.38279
 C699 C 0.81078 0.14194 0.34884
 C700 C 0.81073 0.11679 0.37396
 H701 H 0.66411 0.16233 0.35027
 H702 H 0.66399 0.11826 0.39381
 H703 H 0.83482 0.14950 0.33777
 H704 H 0.83474 0.10566 0.38154
 H705 H 0.80406 0.18988 0.30134
 H706 H 0.69504 0.19896 0.31019
 H707 H 0.69465 0.07740 0.42975
 H708 H 0.80392 0.06956 0.42209
 C709 C 0.25009 0.14762 0.64773
 C710 C 0.28101 0.16229 0.65790
 C711 C 0.28085 0.18753 0.68305
 C712 C 0.25007 0.19802 0.69811
 C713 C 0.21930 0.18293 0.68759
 C714 C 0.21917 0.15777 0.66237
 C715 C 0.25011 0.12112 0.62125
 C716 C 0.21918 0.10652 0.61101
 C717 C 0.21932 0.08138 0.58577
 C718 C 0.25013 0.07070 0.57089
 C719 C 0.28092 0.08562 0.58157
 C720 C 0.28104 0.11089 0.60669
 C721 C 0.18874 0.14252 0.65152
 C722 C 0.18875 0.11735 0.62624
 C723 C 0.31144 0.15146 0.64268
 C724 C 0.31146 0.12616 0.61753
 H725 H 0.16472 0.15012 0.66263
 H726 H 0.16472 0.10627 0.61858
 H727 H 0.33546 0.16259 0.65030
 H728 H 0.33550 0.11851 0.60648
 H729 H 0.30460 0.19929 0.69060
 H730 H 0.19555 0.19046 0.69933
 H731 H 0.19548 0.07006 0.57783
 H732 H 0.30478 0.07769 0.57028
   
