data_POSCAR
  _audit_creation_date              2014-09-24
  _audit_creation_method            'ToBaCCo'
  _symmetry_space_group_name_H-M    'P1'
  _symmetry_Int_Tables_number       1
  _symmetry_cell_setting            triclinic
  loop_
  _symmetry_equiv_pos_as_xyz
 x,y,z
_cell_length_a 11.5618
_cell_length_b 12.9398
_cell_length_c 35.8962
_cell_angle_alpha 84.207600
_cell_angle_beta 91.842600
_cell_angle_gamma 120.922300
loop_
  _atom_site_label
  _atom_site_type_symbol
  _atom_site_fract_x
  _atom_site_fract_y
  _atom_site_fract_z
C1 C -0.05096 0.03035 0.50531
 C2 C 1.13788 0.04871 0.17188
 C3 C 0.06333 0.99347 0.82161
 O4 O 0.61811 -0.17408 0.03505
 O5 O 0.37219 -0.19455 -0.03362
 O6 O 0.62578 -0.12631 -0.03783
 O7 O 0.37664 -0.20580 0.03919
 O8 O 0.45270 -0.01077 0.03961
 O9 O 0.70121 0.06728 -0.03355
 O10 O 0.44855 0.00109 -0.03412
 O11 O 0.69368 0.01973 0.03882
 Cu12 Cu 0.49128 -0.19409 0.00058
 Cu13 Cu 0.58063 0.03815 0.00302
 C14 C 0.69653 -0.07621 0.04904
 C15 C 0.36924 -0.10133 -0.04629
 C16 C 0.70569 -0.01463 -0.04864
 C17 C 0.37402 -0.11947 0.05258
 O18 O -0.00490 0.60779 0.70599
 O19 O 0.06771 0.47120 0.63428
 O20 O -0.01988 0.62325 0.63270
 O21 O 0.00867 0.40973 0.70563
 O22 O -0.21089 0.28635 0.70147
 O23 O -0.23648 0.48751 0.62913
 O24 O -0.14867 0.33640 0.62964
 O25 O -0.22400 0.48396 0.70183
 Cu26 Cu 0.03273 0.54020 0.67014
 Cu27 Cu -0.22478 0.38634 0.66526
 C28 C -0.12421 0.57352 0.71586
 C29 C -0.02525 0.38058 0.61988
 C30 C -0.13577 0.58955 0.61867
 C31 C -0.09958 0.30975 0.71549
 O32 O 0.30198 0.53928 0.36466
 O33 O 0.55856 0.74704 0.29592
 O34 O 0.32816 0.54369 0.29245
 O35 O 0.55637 0.70827 0.36883
 O36 O 0.64073 0.58885 0.36958
 O37 O 0.41782 0.42835 0.29618
 O38 O 0.64966 0.63289 0.29696
 O39 O 0.38652 0.41955 0.36885
 Cu40 Cu 0.42835 0.64577 0.33024
 Cu41 Cu 0.53123 0.50587 0.33298
 C42 C 0.29907 0.44464 0.37872
 C43 C 0.64760 0.72802 0.28459
 C44 C 0.33585 0.45666 0.28140
 C45 C 0.63848 0.67579 0.38182
 C46 C -0.09874 0.09270 0.52914
 C47 C -0.01587 0.18373 0.54899
 C48 C -0.06914 0.23301 0.57445
 C49 C 0.01605 0.32804 0.59239
 H50 H 0.09201 0.22077 0.54685
 H51 H -0.17704 0.19095 0.57888
 H52 H -0.20647 0.05447 0.53290
 H53 H 0.12356 0.36925 0.58724
 C54 C 1.04878 0.93605 0.19842
 C55 C 0.94280 0.92582 0.21614
 C56 C 0.85218 0.82157 0.24265
 C57 C 0.74684 0.82102 0.25707
 H58 H 0.92115 0.99806 0.21049
 H59 H 0.87098 0.74841 0.25028
 H60 H 1.07456 0.86657 0.20430
 H61 H 0.73205 0.89628 0.24855
 C62 C 0.17488 0.02545 -0.15325
 C63 C 0.17887 -0.05853 -0.12900
 C64 C 0.27954 -0.02787 -0.09945
 C65 C 0.27136 -0.11715 -0.07546
 H66 H 0.10131 -0.15292 -0.13007
 H67 H 0.35930 0.06510 -0.09754
 H68 H 0.25116 0.11974 -0.15116
 H69 H 0.19238 -0.20961 -0.07874
 C70 C -0.01419 0.95233 0.53172
 C71 C -0.10607 0.84686 0.54957
 C72 C -0.06641 0.77695 0.57639
 C73 C -0.16027 0.66667 0.59061
 H74 H -0.21213 0.81150 0.54423
 H75 H 0.03779 0.81516 0.58450
 H76 H 0.09098 0.98797 0.53850
 H77 H -0.26346 0.63029 0.58161
 C78 C 0.22237 0.15060 0.19628
 C79 C 0.18701 0.22496 0.20898
 C80 C 0.27367 0.30782 0.23649
 C81 C 0.24915 0.38588 0.25139
 H82 H 0.09436 0.22138 0.20055
 H83 H 0.36066 0.30205 0.24568
 H84 H 0.31360 0.15514 0.20709
 H85 H 0.16505 0.39590 0.24210
 C86 C 0.93570 -0.06174 -0.15347
 C87 C 0.91830 0.00538 -0.13083
 C88 C 0.81123 -0.04766 -0.10166
 C89 C 0.80647 0.02518 -0.07882
 H90 H 0.99010 0.10204 -0.13272
 H91 H 0.73880 -0.14410 -0.09861
 H92 H 0.86834 -0.15904 -0.14999
 H93 H 0.87935 0.12156 -0.08294
 C94 C 0.23668 0.03437 0.14917
 C95 C 0.20596 -0.06342 0.13175
 C96 C 0.30260 -0.05360 0.10381
 C97 C 0.27961 -0.14347 0.08351
 H98 H 0.10864 -0.14579 0.13610
 H99 H 0.39456 0.03362 0.09843
 H100 H 0.33410 0.11568 0.14254
 H101 H 0.19117 -0.23279 0.08911
 C102 C 0.83559 0.95628 0.47926
 C103 C 0.84004 0.88055 0.45756
 C104 C 0.73528 0.82102 0.42979
 C105 C 0.73576 0.73818 0.41077
 H106 H 0.92331 0.86437 0.45992
 H107 H 0.65858 0.84498 0.42483
 H108 H 0.75299 0.97324 0.47569
 H109 H 0.81152 0.71352 0.41682
 C110 C 0.08469 0.10002 0.79811
 C111 C -0.01593 0.10523 0.78018
 C112 C 0.00534 0.21327 0.75600
 C113 C -0.10250 0.21530 0.74261
 H114 H -0.11775 0.02786 0.78374
 H115 H 0.10629 0.28805 0.74876
 H116 H 0.18643 0.17661 0.79282
 H117 H -0.20187 0.13846 0.75047
 C118 C 1.05452 0.07838 0.14373
 C119 C 0.95620 -0.00857 0.12514
 C120 C 0.87654 0.01337 0.09601
 C121 C 0.78800 -0.07990 0.07771
 H122 H 0.93350 -0.10083 0.13166
 H123 H 0.88888 0.10226 0.08988
 H124 H 1.08179 0.17165 0.13646
 H125 H 0.77957 -0.16721 0.08452
 C126 C 0.07290 0.11991 0.48107
 C127 C 0.07401 0.20382 0.45598
 C128 C 0.18883 0.27801 0.42948
 C129 C 0.19004 0.36531 0.40616
 H130 H -0.01290 0.21489 0.45427
 H131 H 0.27172 0.26155 0.42905
 H132 H 0.15988 0.10885 0.48179
 H133 H 0.10804 0.38261 0.40788
 C134 C 0.05967 0.90505 0.79576
 C135 C -0.05213 0.81406 0.78207
 C136 C -0.03928 0.73746 0.75669
 C137 C -0.14529 0.64146 0.74304
 H138 H -0.15128 0.79709 0.78892
 H139 H 0.06195 0.76202 0.74860
 H140 H 0.15673 0.92096 0.78667
 H141 H -0.24713 0.61526 0.75094
   
