data_POSCAR
  _audit_creation_date              2014-09-24
  _audit_creation_method            'ToBaCCo'
  _symmetry_space_group_name_H-M    'P1'
  _symmetry_Int_Tables_number       1
  _symmetry_cell_setting            triclinic
  loop_
  _symmetry_equiv_pos_as_xyz
 x,y,z
_cell_length_a 40.3026
_cell_length_b 41.3197
_cell_length_c 40.0296
_cell_angle_alpha 90.140200
_cell_angle_beta 89.748400
_cell_angle_gamma 90.143300
loop_
  _atom_site_label
  _atom_site_type_symbol
  _atom_site_fract_x
  _atom_site_fract_y
  _atom_site_fract_z
O1 O 0.37001 0.32626 -0.03224
 O2 O 0.32215 0.36072 0.03748
 O3 O 0.36599 0.31560 0.03160
 O4 O 0.32613 0.37284 -0.02520
 O5 O 0.28688 0.33706 -0.03624
 O6 O 0.32592 0.28004 0.02308
 O7 O 0.28155 0.32605 0.02756
 O8 O 0.33049 0.29015 -0.04094
 Cu9 Cu 0.35020 0.34732 0.00362
 Cu10 Cu 0.30220 0.30473 -0.00767
 C11 C 0.35879 0.30191 -0.04799
 C12 C 0.29345 0.34963 0.04404
 C13 C 0.35278 0.28824 0.03737
 C14 C 0.29944 0.36514 -0.03992
 O15 O 0.62377 0.66415 -0.03202
 O16 O 0.67633 0.62853 0.03256
 O17 O 0.62742 0.66999 0.03214
 O18 O 0.67380 0.62482 -0.03202
 O19 O 0.70856 0.66582 -0.03782
 O20 O 0.66345 0.71020 0.02857
 O21 O 0.71247 0.66841 0.02714
 O22 O 0.65815 0.70567 -0.03624
 Cu23 Cu 0.64688 0.64280 0.00076
 Cu24 Cu 0.68921 0.69166 -0.00503
 C25 C 0.63167 0.69110 -0.04485
 C26 C 0.70359 0.64188 0.04049
 C27 C 0.63735 0.69783 0.04116
 C28 C 0.69901 0.63754 -0.04597
 O29 O 0.64016 0.31611 1.04135
 O30 O 0.68531 0.36352 0.97807
 O31 O 0.63918 0.31991 0.97714
 O32 O 0.68505 0.36189 1.04313
 O33 O 0.72442 0.32495 1.04101
 O34 O 0.67780 0.28212 0.97462
 O35 O 0.72431 0.32613 0.97590
 O36 O 0.67918 0.27873 1.03949
 Cu37 Cu 0.65866 0.34418 1.01032
 Cu38 Cu 0.70538 0.29923 1.00771
 C39 C 0.65160 0.28896 1.05065
 C40 C 0.71238 0.35280 0.96599
 C41 C 0.65038 0.29387 0.96475
 C42 C 0.71275 0.35106 1.05310
 O43 O 0.32229 0.62744 0.96329
 O44 O 0.36452 0.67141 1.03039
 O45 O 0.31922 0.62652 1.02804
 O46 O 0.36406 0.67587 0.96579
 O47 O 0.32300 0.71114 0.96616
 O48 O 0.27932 0.66299 1.02985
 O49 O 0.32486 0.70821 1.03094
 O50 O 0.28100 0.66246 0.96499
 Cu51 Cu 0.34654 0.64674 0.99671
 Cu52 Cu 0.29799 0.68981 0.99803
 C53 C 0.29421 0.63690 0.95317
 C54 C 0.35234 0.69745 1.04177
 C55 C 0.29152 0.63631 1.03951
 C56 C 0.35121 0.70213 0.95560
 O57 O 0.02676 0.30945 0.35823
 O58 O -0.03591 0.34878 0.30570
 O59 O -0.03728 0.30751 0.35463
 O60 O 0.02792 0.35317 0.31188
 O61 O 0.03199 0.31495 0.27339
 O62 O -0.03267 0.26775 0.31796
 O63 O -0.03183 0.30924 0.26871
 O64 O 0.03208 0.27059 0.32063
 Cu65 Cu -0.00513 0.33361 0.33631
 Cu66 Cu 0.00046 0.28659 0.29148
 C67 C 0.04000 0.28323 0.34845
 C68 C -0.04439 0.33586 0.27814
 C69 C -0.04593 0.27983 0.34409
 C70 C 0.04063 0.34235 0.28513
 O71 O -0.04473 0.65373 0.69362
 O72 O 0.02717 0.68758 0.64820
 O73 O 0.01842 0.64199 0.69206
 O74 O -0.03620 0.69588 0.64573
 O75 O -0.03074 0.73366 0.68436
 O76 O 0.02486 0.67894 0.73149
 O77 O 0.03282 0.72494 0.68733
 O78 O -0.03871 0.69103 0.73272
 Cu79 Cu -0.00951 0.66607 0.66609
 Cu80 Cu -0.00250 0.71083 0.71298
 C81 C -0.05363 0.66639 0.72124
 C82 C 0.04193 0.71236 0.65984
 C83 C 0.03097 0.65099 0.71950
 C84 C -0.04228 0.72418 0.65643
 O85 O 1.04821 0.63640 0.32451
 O86 O 0.98909 0.67671 0.38016
 O87 O 0.98505 0.63043 0.33634
 O88 O 1.05136 0.68495 0.36525
 O89 O 1.03924 0.71958 0.32525
 O90 O 0.97292 0.66500 0.29625
 O91 O 0.97696 0.71181 0.34054
 O92 O 1.03612 0.67026 0.28374
 Cu93 Cu 1.01963 0.65370 0.35555
 Cu94 Cu 1.00507 0.69514 0.30739
 C95 C 1.05215 0.64605 0.29475
 C96 C 0.97319 0.70122 0.37017
 C97 C 0.96785 0.63834 0.31116
 C98 C 1.05648 0.71170 0.35038
 O99 O 0.96078 0.31733 0.62831
 O100 O 1.02255 0.36121 0.67811
 O101 O 1.02493 0.31831 0.63070
 O102 O 0.95812 0.35965 0.67655
 O103 O 0.95737 0.32055 0.71403
 O104 O 1.02490 0.27921 0.66818
 O105 O 1.02186 0.32243 0.71596
 O106 O 0.96021 0.27780 0.66534
 Cu107 Cu 0.99159 0.34305 0.64974
 Cu108 Cu 0.99096 0.29602 0.69462
 C109 C 0.95025 0.28996 0.63800
 C110 C 1.03271 0.34949 0.70551
 C111 C 1.03629 0.29169 0.64144
 C112 C 0.94650 0.34736 0.70323
 O113 O 0.36251 0.02677 0.32067
 O114 O 0.31591 -0.03421 0.36850
 O115 O 0.36315 -0.03584 0.32395
 O116 O 0.31611 0.02869 0.36592
 O117 O 0.27786 0.02658 0.32666
 O118 O 0.32588 -0.03732 0.28369
 O119 O 0.27818 -0.03654 0.32876
 O120 O 0.32454 0.02550 0.28107
 Cu121 Cu 0.34313 -0.00348 0.34877
 Cu122 Cu 0.29777 -0.00572 0.30108
 C123 C 0.35165 0.03642 0.29271
 C124 C 0.28904 -0.04572 0.35692
 C125 C 0.35290 -0.04717 0.29639
 C126 C 0.28897 0.03859 0.35363
 O127 O 0.64401 0.03028 0.69253
 O128 O 0.69270 -0.03227 0.65058
 O129 O 0.65119 -0.03145 0.70008
 O130 O 0.68900 0.03012 0.64572
 O131 O 0.72865 0.03782 0.68283
 O132 O 0.69177 -0.02506 0.73639
 O133 O 0.73398 -0.02460 0.68590
 O134 O 0.68356 0.03725 0.72992
 Cu135 Cu 0.66520 -0.00151 0.66861
 Cu136 Cu 0.71353 0.00698 0.71253
 C137 C 0.65505 0.04418 0.71844
 C138 C 0.72172 -0.03873 0.66047
 C139 C 0.66496 -0.03867 0.72757
 C140 C 0.71543 0.04435 0.65498
 O141 O 0.35714 0.97381 0.69100
 O142 O 0.31796 1.03856 0.64248
 O143 O 0.36511 1.03624 0.68694
 O144 O 0.31267 0.97640 0.64513
 O145 O 0.27441 0.98147 0.68443
 O146 O 0.32723 1.04285 0.72637
 O147 O 0.27962 1.04421 0.68164
 O148 O 0.31979 0.98004 0.73100
 Cu149 Cu 0.34210 1.00584 0.66256
 Cu150 Cu 0.29649 1.01283 0.70991
 C151 C 0.34509 0.96573 0.71917
 C152 C 0.29172 1.05193 0.65339
 C153 C 0.35541 1.04970 0.71371
 C154 C 0.28471 0.96860 0.65742
 O155 O 0.63242 0.95854 0.31274
 O156 O 0.67914 1.02198 0.35652
 O157 O 0.63143 1.02101 0.31324
 O158 O 0.67931 0.95933 0.35748
 O159 O 0.71769 0.96047 0.31792
 O160 O 0.66819 1.02104 0.27215
 O161 O 0.71618 1.02296 0.31576
 O162 O 0.67027 0.95765 0.27268
 Cu163 Cu 0.65186 0.99010 0.33902
 Cu164 Cu 0.69677 0.99040 0.29041
 C165 C 0.64317 0.94743 0.28520
 C166 C 0.70571 1.03327 0.34378
 C167 C 0.64139 1.03142 0.28516
 C168 C 0.70703 0.95007 0.34587
 C169 C 0.93147 0.79696 0.51719
 C170 C 0.93160 0.79722 0.48290
 C171 C 0.90063 0.80815 0.47311
 N172 N 0.88179 0.81497 0.50025
 C173 C 0.90059 0.80810 0.52719
 C174 C 0.88904 0.80929 0.43981
 C175 C 0.85943 0.82524 0.43104
 C176 C 0.84217 0.82021 0.40160
 C177 C 0.81565 0.84110 0.40211
 C178 C 0.81778 0.85870 0.43159
 N179 N 0.84449 0.84875 0.44915
 C180 C 0.79645 0.88436 0.44094
 C181 C 0.79473 0.89646 0.47394
 C182 C 0.77862 0.92469 0.48329
 C183 C 0.78033 0.92646 0.51743
 C184 C 0.79728 0.89915 0.52788
 N185 N 0.80613 0.88086 0.50123
 C186 C 0.80179 0.89012 0.56158
 C187 C 0.82214 0.86389 0.57096
 C188 C 0.82042 0.84780 0.60129
 C189 C 0.84519 0.82499 0.60097
 C190 C 0.86121 0.82766 0.57037
 N191 N 0.84707 0.85146 0.55225
 C192 C 0.88917 0.80944 0.56059
 H193 H 0.95175 0.78939 0.53297
 H194 H 0.95209 0.78989 0.46706
 H195 H 0.85601 0.86086 0.52984
 H196 H 0.84792 0.80308 0.38193
 H197 H 0.79702 0.84303 0.38285
 H198 H 0.76675 0.94218 0.46722
 H199 H 0.76996 0.94555 0.53276
 H200 H 0.85071 0.80830 0.62098
 H201 H 0.85403 0.85970 0.47050
 H202 H 0.80301 0.85183 0.62152
 C203 C 0.09479 0.24109 0.51526
 C204 C 0.09488 0.23950 0.48110
 C205 C 0.12257 0.22167 0.47193
 N206 N 0.13953 0.21245 0.49940
 C207 C 0.12249 0.22425 0.52594
 C208 C 0.13248 0.21576 0.43857
 C209 C 0.15816 0.19408 0.42958
 C210 C 0.17302 0.19246 0.39830
 C211 C 0.19558 0.16755 0.39937
 C212 C 0.19405 0.15477 0.43133
 N213 N 0.17102 0.17092 0.44951
 C214 C 0.21281 0.12810 0.44251
 C215 C 0.21591 0.11996 0.47667
 C216 C 0.22946 0.09140 0.48852
 C217 C 0.23084 0.09424 0.52257
 C218 C 0.21762 0.12423 0.53052
 N219 N 0.20854 0.13997 0.50244
 C220 C 0.21620 0.13727 0.56310
 C221 C 0.19689 0.16462 0.57168
 C222 C 0.19910 0.18159 0.60153
 C223 C 0.17515 0.20527 0.60067
 C224 C 0.15917 0.20226 0.57022
 N225 N 0.17239 0.17730 0.55282
 C226 C 0.13245 0.22174 0.55964
 H227 H 0.07646 0.25341 0.53046
 H228 H 0.07659 0.25030 0.46486
 H229 H 0.16301 0.16749 0.53085
 H230 H 0.16818 0.20764 0.37689
 H231 H 0.21142 0.15984 0.37896
 H232 H 0.23773 0.07069 0.47417
 H233 H 0.24042 0.07624 0.53958
 H234 H 0.17026 0.22286 0.62014
 H235 H 0.16221 0.16436 0.47298
 H236 H 0.21615 0.17739 0.62186
 C237 C 0.11190 0.74577 0.49906
 C238 C 0.10944 0.74876 0.53301
 C239 C 0.13378 0.77058 0.54267
 N240 N 0.15108 0.78102 0.51570
 C241 C 0.13763 0.76591 0.48897
 C242 C 0.14069 0.77906 0.57611
 C243 C 0.16295 0.80409 0.58496
 C244 C 0.17696 0.80812 0.61626
 C245 C 0.19604 0.83577 0.61481
 C246 C 0.19305 0.84787 0.58267
 N247 N 0.17269 0.82850 0.56471
 C248 C 0.20776 0.87682 0.57110
 C249 C 0.20850 0.88557 0.53697
 C250 C 0.21557 0.91631 0.52509
 C251 C 0.21720 0.91388 0.49096
 C252 C 0.21120 0.88170 0.48311
 N253 N 0.20572 0.86446 0.51128
 C254 C 0.21359 0.86817 0.45069
 C255 C 0.20054 0.83734 0.44265
 C256 C 0.20695 0.82054 0.41330
 C257 C 0.18878 0.79230 0.41476
 C258 C 0.17176 0.79266 0.44494
 N259 N 0.17887 0.82029 0.46165
 C260 C 0.14924 0.76853 0.45574
 H261 H 0.09641 0.73051 0.48357
 H262 H 0.09171 0.73623 0.54875
 H263 H 0.16706 0.82846 0.48319
 H264 H 0.17390 0.79269 0.63787
 H265 H 0.21040 0.84581 0.63515
 H266 H 0.21942 0.93815 0.53955
 H267 H 0.22249 0.93353 0.47392
 H268 H 0.18821 0.77362 0.39576
 H269 H 0.16331 0.83344 0.54112
 H270 H 0.22307 0.82781 0.39295
 C271 C 0.77512 0.07891 0.51133
 C272 C 0.77474 0.07747 0.47713
 C273 C 0.78452 0.10771 0.46580
 N274 N 0.79090 0.12756 0.49189
 C275 C 0.78504 0.11001 0.51976
 C276 C 0.78518 0.11728 0.43193
 C277 C 0.80264 0.14487 0.42067
 C278 C 0.80010 0.15803 0.38894
 C279 C 0.82204 0.18356 0.38756
 C280 C 0.83731 0.18532 0.41849
 N281 N 0.82555 0.16151 0.43841
 C282 C 0.86230 0.20780 0.42716
 C283 C 0.87222 0.21416 0.46036
 C284 C 0.89897 0.23354 0.46909
 C285 C 0.89929 0.23505 0.50328
 C286 C 0.87268 0.21660 0.51439
 N287 N 0.85607 0.20393 0.48809
 C288 C 0.86326 0.21319 0.54825
 C289 C 0.83796 0.19182 0.55902
 C290 C 0.82237 0.19310 0.58995
 C291 C 0.80057 0.16746 0.59115
 C292 C 0.80336 0.15130 0.56087
 N293 N 0.82628 0.16621 0.54149
 C294 C 0.78638 0.12247 0.55262
 H295 H 0.76876 0.05929 0.52804
 H296 H 0.76802 0.05653 0.46231
 H297 H 0.83598 0.15735 0.51918
 H298 H 0.78416 0.15004 0.36883
 H299 H 0.82621 0.19910 0.36622
 H300 H 0.91645 0.24544 0.45256
 H301 H 0.91707 0.24832 0.51820
 H302 H 0.78455 0.16139 0.61199
 H303 H 0.83504 0.15500 0.46153
 H304 H 0.82625 0.21068 0.60964
 C305 C 0.50713 0.91405 0.76926
 C306 C 0.47337 0.91461 0.77314
 C307 C 0.46447 0.88551 0.78794
 N308 N 0.49173 0.86741 0.79368
 C309 C 0.51781 0.88487 0.78230
 C310 C 0.43147 0.87492 0.79331
 C311 C 0.42353 0.84801 0.81353
 C312 C 0.39300 0.83251 0.81426
 C313 C 0.39529 0.80822 0.83766
 C314 C 0.42710 0.80973 0.85072
 N315 N 0.44403 0.83420 0.83602
 C316 C 0.43910 0.79011 0.87690
 C317 C 0.47280 0.78989 0.88659
 C318 C 0.48440 0.77894 0.91707
 C319 C 0.51834 0.78091 0.91569
 C320 C 0.52639 0.79272 0.88428
 N321 N 0.49848 0.79835 0.86659
 C322 C 0.55896 0.79598 0.87140
 C323 C 0.56599 0.81332 0.84192
 C324 C 0.59505 0.81081 0.82345
 C325 C 0.59258 0.83259 0.79762
 C326 C 0.56229 0.84810 0.80139
 N327 N 0.54625 0.83615 0.82843
 C328 C 0.55089 0.87394 0.78148
 H329 H 0.52213 0.93300 0.75820
 H330 H 0.45724 0.93416 0.76561
 H331 H 0.52478 0.84547 0.83926
 H332 H 0.37136 0.83805 0.79943
 H333 H 0.37566 0.79153 0.84441
 H334 H 0.46990 0.77058 0.93818
 H335 H 0.53511 0.77428 0.93554
 H336 H 0.61113 0.83666 0.77847
 H337 H 0.46706 0.84306 0.84327
 H338 H 0.61579 0.79487 0.82804
 C339 C 0.48134 0.21610 0.08073
 C340 C 0.51531 0.21689 0.08178
 C341 C 0.52430 0.20514 0.11283
 N342 N 0.49699 0.19716 0.13077
 C343 C 0.47066 0.20399 0.11122
 C344 C 0.55713 0.20414 0.12507
 C345 C 0.56644 0.18528 0.15285
 C346 C 0.59697 0.18702 0.16863
 C347 C 0.59669 0.16390 0.19330
 C348 C 0.56599 0.14876 0.19196
 N349 N 0.54781 0.16174 0.16708
 C350 C 0.55585 0.12302 0.21283
 C351 C 0.52235 0.11368 0.21719
 C352 C 0.51200 0.08711 0.23563
 C353 C 0.47804 0.08760 0.23574
 C354 C 0.46865 0.11437 0.21724
 N355 N 0.49580 0.13038 0.20600
 C356 C 0.43547 0.12441 0.21283
 C357 C 0.42593 0.14910 0.19043
 C358 C 0.39511 0.16396 0.19022
 C359 C 0.39555 0.18592 0.16441
 C360 C 0.42665 0.18392 0.14961
 N361 N 0.44486 0.16117 0.16539
 C362 C 0.43713 0.20218 0.12167
 H363 H 0.46621 0.22385 0.05997
 H364 H 0.53153 0.22528 0.06198
 H365 H 0.46775 0.15235 0.15758
 H366 H 0.61737 0.20321 0.16296
 H367 H 0.61676 0.15898 0.21042
 H368 H 0.52730 0.06932 0.24797
 H369 H 0.46207 0.07023 0.24812
 H370 H 0.37532 0.20168 0.15749
 H371 H 0.52536 0.15284 0.15821
 H372 H 0.37448 0.15960 0.20703
 C373 C 0.49011 0.10104 0.76465
 C374 C 0.52407 0.10048 0.76558
 C375 C 0.53405 0.12904 0.78083
 N376 N 0.50728 0.14710 0.78912
 C377 C 0.48037 0.12996 0.77928
 C378 C 0.56745 0.13869 0.78487
 C379 C 0.57724 0.16585 0.80400
 C380 C 0.60838 0.18019 0.80273
 C381 C 0.60832 0.20479 0.82592
 C382 C 0.57710 0.20489 0.84058
 N383 N 0.55835 0.18100 0.82721
 C384 C 0.56701 0.22609 0.86639
 C385 C 0.53342 0.23171 0.87466
 C386 C 0.52279 0.24993 0.90178
 C387 C 0.48892 0.25136 0.89988
 C388 C 0.47990 0.23394 0.87168
 N389 N 0.50716 0.22200 0.85621
 C390 C 0.44706 0.23088 0.85988
 C391 C 0.43786 0.20966 0.83372
 C392 C 0.40807 0.21096 0.81657
 C393 C 0.40801 0.18538 0.79451
 C394 C 0.43779 0.16921 0.79874
 N395 N 0.45580 0.18410 0.82275
 C396 C 0.44721 0.14087 0.78130
 H397 H 0.47442 0.08234 0.75415
 H398 H 0.53965 0.08126 0.75596
 H399 H 0.47745 0.17537 0.83346
 H400 H 0.62902 0.17373 0.78670
 H401 H 0.62885 0.22093 0.83115
 H402 H 0.53786 0.26118 0.92090
 H403 H 0.47281 0.26388 0.91730
 H404 H 0.38834 0.17954 0.77718
 H405 H 0.53524 0.17343 0.83582
 H406 H 0.38841 0.22853 0.81955
 C407 C 0.47539 0.73653 0.11413
 C408 C 0.50904 0.73909 0.10985
 C409 C 0.51842 0.76854 0.12362
 N410 N 0.49160 0.78390 0.13637
 C411 C 0.46524 0.76431 0.13074
 C412 C 0.55066 0.78200 0.12155
 C413 C 0.55964 0.81074 0.13869
 C414 C 0.58623 0.83055 0.13038
 C415 C 0.58708 0.85503 0.15373
 C416 C 0.56097 0.84957 0.17570
 N417 N 0.54426 0.82261 0.16627
 C418 C 0.55374 0.86866 0.20424
 C419 C 0.52212 0.86892 0.21972
 C420 C 0.51466 0.88468 0.24945
 C421 C 0.48104 0.88207 0.25398
 C422 C 0.46900 0.86449 0.22708
 N423 N 0.49416 0.85662 0.20610
 C424 C 0.43501 0.85851 0.22090
 C425 C 0.42347 0.83687 0.19599
 C426 C 0.39043 0.83231 0.18752
 C427 C 0.38955 0.80806 0.16401
 C428 C 0.42205 0.79830 0.15865
 N429 N 0.44243 0.81562 0.17867
 C430 C 0.43180 0.77235 0.13763
 H431 H 0.46017 0.71660 0.10555
 H432 H 0.52465 0.72141 0.09752
 H433 H 0.46731 0.81087 0.18283
 H434 H 0.60304 0.82799 0.10940
 H435 H 0.60471 0.87482 0.15416
 H436 H 0.53155 0.89720 0.26602
 H437 H 0.46709 0.89234 0.27456
 H438 H 0.36723 0.79822 0.15300
 H439 H 0.52551 0.81118 0.17981
 H440 H 0.36890 0.84440 0.19778
 C441 C 0.89907 0.48202 0.75747
 C442 C 0.89640 0.51484 0.75379
 C443 C 0.86682 0.52380 0.76896
 N444 N 0.85121 0.49750 0.78161
 C445 C 0.87088 0.47188 0.77449
 C446 C 0.85389 0.55555 0.76903
 C447 C 0.82717 0.56525 0.78975
 C448 C 0.80908 0.59353 0.78612
 C449 C 0.78653 0.59447 0.81209
 C450 C 0.79143 0.56670 0.83077
 N451 N 0.81638 0.54918 0.81713
 C452 C 0.77403 0.55872 0.86036
 C453 C 0.77471 0.52766 0.87489
 C454 C 0.76283 0.52050 0.90656
 C455 C 0.76586 0.48772 0.91043
 C456 C 0.77904 0.47582 0.88080
 N457 N 0.78458 0.50034 0.85913
 C458 C 0.78354 0.44262 0.87331
 C459 C 0.80254 0.43161 0.84579
 C460 C 0.80307 0.39995 0.83419
 C461 C 0.82545 0.39898 0.80813
 C462 C 0.83797 0.43007 0.80453
 N463 N 0.82408 0.44973 0.82774
 C464 C 0.86274 0.43919 0.78128
 H465 H 0.91949 0.46734 0.74858
 H466 H 0.91431 0.53034 0.74145
 H467 H 0.83140 0.47328 0.83317
 H468 H 0.81178 0.61161 0.76678
 H469 H 0.76858 0.61342 0.81666
 H470 H 0.75299 0.53718 0.92498
 H471 H 0.75893 0.47423 0.93253
 H472 H 0.83180 0.37777 0.79356
 H473 H 0.82760 0.52907 0.82776
 H474 H 0.78884 0.37961 0.84352
 C475 C 0.23007 0.47668 0.08712
 C476 C 0.23081 0.50982 0.08694
 C477 C 0.21483 0.51989 0.11586
 N478 N 0.20453 0.49408 0.13382
 C479 C 0.21398 0.46761 0.11633
 C480 C 0.21242 0.55231 0.12655
 C481 C 0.19132 0.56209 0.15297
 C482 C 0.19380 0.59111 0.17021
 C483 C 0.16819 0.59157 0.19307
 C484 C 0.15065 0.56290 0.18899
 N485 N 0.16491 0.54511 0.16444
 C486 C 0.12168 0.55408 0.20693
 C487 C 0.10976 0.52192 0.20827
 C488 C 0.07919 0.51285 0.22131
 C489 C 0.07853 0.47970 0.22143
 C490 C 0.10875 0.46953 0.20853
 N491 N 0.12779 0.49539 0.20040
 C492 C 0.11938 0.43699 0.20718
 C493 C 0.14850 0.42749 0.19000
 C494 C 0.16508 0.39842 0.19443
 C495 C 0.19073 0.39791 0.17168
 C496 C 0.18938 0.42687 0.15438
 N497 N 0.16358 0.44473 0.16558
 C498 C 0.21067 0.43548 0.12786
 H499 H 0.24054 0.46108 0.06807
 H500 H 0.24200 0.52480 0.06779
 H501 H 0.15470 0.46586 0.15474
 H502 H 0.21231 0.60986 0.16692
 H503 H 0.16334 0.61077 0.21085
 H504 H 0.05952 0.52850 0.23017
 H505 H 0.05823 0.46483 0.23037
 H506 H 0.20848 0.37853 0.16840
 H507 H 0.15537 0.52396 0.15400
 H508 H 0.15945 0.37950 0.21223
 C509 C 0.77741 0.51408 0.08629
 C510 C 0.77736 0.48101 0.08903
 C511 C 0.78897 0.47393 0.12073
 N512 N 0.79637 0.50154 0.13732
 C513 C 0.78925 0.52611 0.11631
 C514 C 0.79010 0.44264 0.13494
 C515 C 0.80787 0.43598 0.16443
 C516 C 0.80410 0.40840 0.18371
 C517 C 0.82669 0.41077 0.20934
 C518 C 0.84390 0.43955 0.20470
 N519 N 0.83224 0.45474 0.17728
 C520 C 0.87098 0.45032 0.22420
 C521 C 0.88337 0.48225 0.22273
 C522 C 0.91388 0.49200 0.23505
 C523 C 0.91573 0.52481 0.23054
 C524 C 0.88600 0.53416 0.21620
 N525 N 0.86631 0.50802 0.21124
 C526 C 0.87644 0.56651 0.20985
 C527 C 0.84923 0.57431 0.18930
 C528 C 0.83445 0.60453 0.18753
 C529 C 0.81014 0.60243 0.16357
 C530 C 0.81088 0.57103 0.15125
 N531 N 0.83486 0.55412 0.16697
 C532 C 0.79105 0.55928 0.12485
 H533 H 0.76960 0.52771 0.06467
 H534 H 0.76946 0.46415 0.06990
 H535 H 0.84333 0.53123 0.16035
 H536 H 0.78680 0.38868 0.17980
 H537 H 0.83011 0.39316 0.22897
 H538 H 0.93296 0.47697 0.24589
 H539 H 0.93665 0.53994 0.23713
 H540 H 0.79399 0.62191 0.15591
 H541 H 0.84269 0.47500 0.16596
 H542 H 0.84055 0.62589 0.20198
 C543 C 0.25521 0.50940 0.87662
 C544 C 0.25413 0.47632 0.87477
 C545 C 0.22346 0.46812 0.86159
 N546 N 0.20638 0.49532 0.85419
 C547 C 0.22566 0.52063 0.86340
 C548 C 0.21099 0.43606 0.85836
 C549 C 0.18177 0.42828 0.84035
 C550 C 0.16660 0.39807 0.84061
 C551 C 0.14011 0.39965 0.81927
 C552 C 0.13932 0.43090 0.80678
 N553 N 0.16502 0.44814 0.81946
 C554 C 0.11561 0.44204 0.78350
 C555 C 0.10924 0.47516 0.77709
 C556 C 0.08328 0.48641 0.75769
 C557 C 0.08444 0.51947 0.75909
 C558 C 0.11103 0.52758 0.77935
 N559 N 0.12599 0.50042 0.79048
 C560 C 0.12105 0.55972 0.78646
 C561 C 0.14834 0.56818 0.80699
 C562 C 0.16150 0.59915 0.80922
 C563 C 0.18819 0.59750 0.83022
 C564 C 0.19093 0.56552 0.84031
 N565 N 0.16627 0.54784 0.82633
 C566 C 0.21717 0.55375 0.86041
 H567 H 0.27585 0.52339 0.88609
 H568 H 0.27390 0.46030 0.88229
 H569 H 0.16091 0.52378 0.83121
 H570 H 0.17373 0.37691 0.85471
 H571 H 0.12321 0.37995 0.81389
 H572 H 0.06477 0.47241 0.74450
 H573 H 0.06734 0.53564 0.74677
 H574 H 0.20457 0.61747 0.83615
 H575 H 0.17258 0.47099 0.81176
 H576 H 0.15348 0.62067 0.79625
 C577 C 0.27288 0.36521 0.06986
 C578 C 0.28411 0.39060 0.08745
 C579 C 0.26329 0.41201 0.10833
 C580 C 0.23028 0.40954 0.11157
 H581 H 0.30977 0.39803 0.08462
 H582 H 0.27573 0.43265 0.11945
 H583 H 0.24759 0.35685 0.07237
 H584 H 0.21685 0.38875 0.10229
 C585 C 0.72571 0.62592 0.06460
 C586 C 0.71693 0.59807 0.07940
 C587 C 0.73854 0.57810 0.10072
 C588 C 0.77111 0.58286 0.10545
 H589 H 0.69238 0.58825 0.07501
 H590 H 0.72696 0.55696 0.11179
 H591 H 0.74972 0.63679 0.06903
 H592 H 0.78353 0.60411 0.09583
 C593 C 0.73060 0.37151 0.94053
 C594 C 0.71772 0.39818 0.92674
 C595 C 0.73509 0.41941 0.90263
 C596 C 0.76754 0.41799 0.89516
 H597 H 0.69281 0.40550 0.93361
 H598 H 0.72037 0.43863 0.89187
 H599 H 0.75489 0.36288 0.93330
 H600 H 0.78298 0.39874 0.90457
 C601 C 0.27683 0.61695 0.92826
 C602 C 0.24494 0.62168 0.92043
 C603 C 0.22540 0.59918 0.89948
 C604 C 0.23851 0.57774 0.87796
 H605 H 0.23147 0.64135 0.93214
 H606 H 0.19867 0.60023 0.90235
 H607 H 0.29014 0.59629 0.91844
 H608 H 0.26503 0.57654 0.87411
 C609 C 0.06421 0.26746 0.37046
 C610 C 0.07798 0.23870 0.36339
 C611 C 0.09953 0.22090 0.38690
 C612 C 0.11576 0.23493 0.41227
 H613 H 0.07132 0.22630 0.34050
 H614 H 0.10137 0.19494 0.38351
 H615 H 0.06909 0.27937 0.39401
 H616 H 0.11452 0.26082 0.41607
 C617 C 0.06904 0.72703 0.64027
 C618 C 0.08281 0.75553 0.64863
 C619 C 0.10572 0.77360 0.62650
 C620 C 0.12418 0.75969 0.60261
 H621 H 0.07437 0.76799 0.67093
 H622 H 0.10609 0.79970 0.62916
 H623 H 0.07559 0.71523 0.61701
 H624 H 0.12430 0.73364 0.59979
 C625 C 0.95070 0.71723 0.39401
 C626 C 0.93751 0.74638 0.38877
 C627 C 0.91781 0.76209 0.41528
 C628 C 0.90790 0.79280 0.41269
 H629 H 0.94247 0.75919 0.36567
 H630 H 0.91203 0.74860 0.43779
 H631 H 0.94630 0.70520 0.41768
 H632 H 0.91227 0.80585 0.38962
 C633 C 0.92687 0.27240 0.61633
 C634 C 0.91573 0.24251 0.62316
 C635 C 0.89510 0.22293 0.60005
 C636 C 0.87979 0.23466 0.57297
 H637 H 0.92368 0.23072 0.64588
 H638 H 0.89326 0.19728 0.60532
 H639 H 0.92036 0.28425 0.59326
 H640 H 0.88120 0.26007 0.56684
 C641 C 0.37167 0.05999 0.27380
 C642 C 0.36313 0.07096 0.24350
 C643 C 0.38495 0.09175 0.22268
 C644 C 0.41021 0.10925 0.23486
 H645 H 0.34037 0.06243 0.23215
 H646 H 0.38061 0.09166 0.19599
 H647 H 0.39508 0.06689 0.28485
 H648 H 0.41501 0.10999 0.26140
 C649 C 0.63354 0.06804 0.73495
 C650 C 0.64182 0.08395 0.76292
 C651 C 0.61878 0.10612 0.78056
 C652 C 0.59282 0.12034 0.76580
 H653 H 0.66545 0.07911 0.77466
 H654 H 0.62318 0.11041 0.80688
 H655 H 0.60929 0.07122 0.72401
 H656 H 0.58813 0.11683 0.73947
 C657 C 0.36107 0.94000 0.73876
 C658 C 0.38389 0.92051 0.72494
 C659 C 0.40521 0.89774 0.74338
 C660 C 0.40414 0.89248 0.77642
 H661 H 0.38930 0.92275 0.69851
 H662 H 0.42496 0.88661 0.72894
 H663 H 0.35456 0.93809 0.76490
 H664 H 0.38398 0.90149 0.79168
 C665 C 0.62273 0.92336 0.26761
 C666 C 0.63301 0.90688 0.24063
 C667 C 0.61056 0.88429 0.22301
 C668 C 0.57875 0.89190 0.21742
 H669 H 0.65850 0.90878 0.23220
 H670 H 0.62040 0.86125 0.21476
 H671 H 0.59794 0.91922 0.27732
 H672 H 0.56989 0.91549 0.22525
 C673 C 0.37980 0.28673 0.92627
 C674 C 0.37142 0.25884 0.91122
 C675 C 0.39424 0.23995 0.88973
 C676 C 0.42167 0.25210 0.87545
 H677 H 0.34789 0.24750 0.91729
 H678 H 0.38875 0.21442 0.88680
 H679 H 0.40383 0.29765 0.92200
 H680 H 0.42775 0.27748 0.87791
 C681 C 0.60889 0.70539 0.93076
 C682 C 0.61254 0.73532 0.91879
 C683 C 0.58627 0.74956 0.89814
 C684 C 0.58711 0.78063 0.88912
 H685 H 0.63377 0.74993 0.92585
 H686 H 0.56491 0.73485 0.89160
 H687 H 0.58715 0.69136 0.92396
 H688 H 0.60898 0.79512 0.89421
 C689 C 0.37127 0.71525 0.06718
 C690 C 0.36447 0.74589 0.07568
 C691 C 0.38655 0.76537 0.09719
 C692 C 0.40592 0.75266 0.12089
 H693 H 0.34408 0.75833 0.06378
 H694 H 0.38731 0.79122 0.09273
 H695 H 0.39316 0.70349 0.07690
 H696 H 0.40524 0.72698 0.12605
 C697 C 0.63224 0.26829 0.07354
 C698 C 0.60181 0.27673 0.08400
 C699 C 0.57888 0.25565 0.10304
 C700 C 0.58313 0.22386 0.10821
 H701 H 0.59219 0.30032 0.07743
 H702 H 0.55609 0.26684 0.11164
 H703 H 0.64280 0.24520 0.08025
 H704 H 0.60576 0.21180 0.10080
 C705 C 0.27506 0.07578 0.63201
 C706 C 0.24563 0.08900 0.63987
 C707 C 0.22600 0.10937 0.61678
 C708 C 0.23795 0.12212 0.58841
 H709 H 0.23390 0.08277 0.66339
 H710 H 0.20005 0.11285 0.62295
 H711 H 0.28674 0.08048 0.60818
 H712 H 0.26362 0.11893 0.58133
 C713 C 0.72422 0.05660 0.36090
 C714 C 0.71470 0.06816 0.39083
 C715 C 0.73453 0.09013 0.41205
 C716 C 0.76655 0.09772 0.40705
 H717 H 0.69111 0.06065 0.40139
 H718 H 0.72230 0.09901 0.43442
 H719 H 0.74716 0.06467 0.34954
 H720 H 0.77957 0.09013 0.38473
 C721 C 0.74091 0.93768 0.64096
 C722 C 0.77413 0.93704 0.64066
 C723 C 0.79366 0.91759 0.61645
 C724 C 0.78141 0.90709 0.58720
 H725 H 0.78783 0.95210 0.65800
 H726 H 0.81967 0.91390 0.62189
 H727 H 0.72684 0.92224 0.62438
 H728 H 0.75635 0.91321 0.58014
 C729 C 0.26969 0.93061 0.37663
 C730 C 0.28072 0.91953 0.40603
 C731 C 0.26180 0.89866 0.42933
 C732 C 0.23128 0.88665 0.42410
 H733 H 0.30487 0.92726 0.41479
 H734 H 0.27370 0.89379 0.45301
 H735 H 0.24574 0.92336 0.36711
 H736 H 0.21923 0.88925 0.40020
 C737 C 0.05684 0.36770 0.72580
 C738 C 0.07233 0.39396 0.71372
 C739 C 0.09503 0.41481 0.73306
 C740 C 0.09466 0.41746 0.76642
 H741 H 0.06856 0.40080 0.68790
 H742 H 0.11092 0.43091 0.71879
 H743 H 0.06177 0.35928 0.75086
 H744 H 0.07866 0.40230 0.78152
 C745 C 0.07528 0.62784 0.27342
 C746 C 0.07583 0.62990 0.24001
 C747 C 0.09554 0.60764 0.21865
 C748 C 0.10472 0.57805 0.22878
 H749 H 0.06085 0.64794 0.22762
 H750 H 0.10040 0.61490 0.19312
 H751 H 0.09111 0.61076 0.28609
 H752 H 0.09706 0.56943 0.25311
 C753 C 0.93182 0.35225 0.25614
 C754 C 0.91822 0.38062 0.26438
 C755 C 0.89803 0.39896 0.24047
 C756 C 0.88678 0.42831 0.24865
 H757 H 0.92337 0.39133 0.28858
 H758 H 0.89410 0.38944 0.21553
 H759 H 0.92668 0.34155 0.23195
 H760 H 0.89251 0.43813 0.27312
 C761 C 0.91954 0.65170 0.74126
 C762 C 0.90332 0.62521 0.73121
 C763 C 0.88152 0.60710 0.75421
 C764 C 0.86876 0.57865 0.74484
 H765 H 0.90814 0.61529 0.70656
 H766 H 0.87847 0.61540 0.77975
 H767 H 0.91473 0.66154 0.76594
 H768 H 0.87355 0.56991 0.71970
 C769 C 0.71617 0.61944 0.93008
 C770 C 0.74357 0.63003 0.91415
 C771 C 0.76361 0.60940 0.89139
 C772 C 0.75183 0.58281 0.87629
 H773 H 0.75347 0.65380 0.91987
 H774 H 0.78952 0.61575 0.88812
 H775 H 0.70710 0.59516 0.92560
 H776 H 0.72604 0.57598 0.87886
 C777 C 0.28366 0.38870 0.94102
 C778 C 0.25712 0.38298 0.92192
 C779 C 0.23993 0.41029 0.90615
 C780 C 0.22873 0.40866 0.87480
 H781 H 0.24812 0.35855 0.91781
 H782 H 0.23717 0.43239 0.92049
 H783 H 0.29341 0.41318 0.94224
 H784 H 0.23135 0.38610 0.86117
 C785 C 0.27442 0.61682 0.06228
 C786 C 0.24449 0.62473 0.07489
 C787 C 0.22396 0.60308 0.09609
 C788 C 0.23510 0.57599 0.11048
 H789 H 0.23304 0.64735 0.06772
 H790 H 0.19799 0.60933 0.09885
 H791 H 0.28577 0.59397 0.06845
 H792 H 0.26076 0.56890 0.10805
 C793 C 0.73116 0.36844 0.07672
 C794 C 0.71993 0.39629 0.09003
 C795 C 0.73944 0.41895 0.11084
 C796 C 0.77160 0.41576 0.11860
 H797 H 0.69519 0.40456 0.08394
 H798 H 0.72679 0.44096 0.11826
 H799 H 0.75547 0.35942 0.08310
 H800 H 0.78493 0.39369 0.11316
 C801 C 0.93910 0.74546 0.63692
 C802 C 0.92796 0.73686 0.60650
 C803 C 0.91101 0.75836 0.58260
 C804 C 0.90641 0.79023 0.58655
 H805 H 0.93199 0.71242 0.59751
 H806 H 0.90247 0.74701 0.55975
 H807 H 0.93492 0.76959 0.64652
 H808 H 0.91334 0.80237 0.60943
 C809 C 0.93027 0.26295 0.36247
 C810 C 0.91954 0.23308 0.35475
 C811 C 0.89726 0.21416 0.37692
 C812 C 0.87803 0.22751 0.40062
 H813 H 0.92947 0.22074 0.33300
 H814 H 0.89800 0.18805 0.37457
 H815 H 0.92158 0.27470 0.38502
 H816 H 0.87637 0.25348 0.40339
 C817 C 0.06103 0.27626 0.62285
 C818 C 0.07443 0.24773 0.63150
 C819 C 0.09797 0.22945 0.61007
 C820 C 0.11479 0.24231 0.58433
 H821 H 0.06611 0.23574 0.65409
 H822 H 0.10043 0.20380 0.61503
 H823 H 0.06833 0.28785 0.59977
 H824 H 0.11306 0.26781 0.57871
 C825 C 0.08039 0.73332 0.36226
 C826 C 0.10000 0.72619 0.38808
 C827 C 0.12024 0.75114 0.40466
 C828 C 0.13748 0.74355 0.43192
 H829 H 0.09927 0.70217 0.39897
 H830 H 0.11808 0.77621 0.39703
 H831 H 0.08201 0.75711 0.35096
 H832 H 0.13804 0.71855 0.44012
 C833 C 0.64919 0.93771 0.75010
 C834 C 0.62115 0.92253 0.74172
 C835 C 0.60275 0.90240 0.76575
 C836 C 0.57345 0.88982 0.75717
 H837 H 0.61055 0.92630 0.71718
 H838 H 0.61197 0.89958 0.79098
 H839 H 0.65992 0.93394 0.77456
 H840 H 0.56384 0.89440 0.73235
 C841 C 0.37340 0.92855 0.27902
 C842 C 0.36819 0.92018 0.24711
 C843 C 0.39078 0.89904 0.22778
 C844 C 0.41052 0.87666 0.24144
 H845 H 0.34814 0.93139 0.23346
 H846 H 0.39094 0.90207 0.20090
 H847 H 0.39475 0.91937 0.29225
 H848 H 0.41067 0.87288 0.26817
 C849 C 0.62065 0.05527 0.26789
 C850 C 0.62864 0.06816 0.23821
 C851 C 0.60635 0.08995 0.21943
 C852 C 0.58091 0.10605 0.23331
 H853 H 0.65143 0.06087 0.22591
 H854 H 0.61063 0.09203 0.19278
 H855 H 0.59731 0.06106 0.27985
 H856 H 0.57616 0.10476 0.25986
 C857 C 0.37801 0.07299 0.72979
 C858 C 0.37070 0.08887 0.75813
 C859 C 0.39438 0.11055 0.77567
 C860 C 0.42202 0.12276 0.76169
 H861 H 0.34702 0.08457 0.77024
 H862 H 0.38893 0.11618 0.80157
 H863 H 0.40201 0.07586 0.71803
 H864 H 0.42811 0.11779 0.73588
 C865 C 0.61725 0.71593 0.06564
 C866 C 0.62791 0.74279 0.08111
 C867 C 0.60635 0.76107 0.10440
 C868 C 0.57426 0.76642 0.09770
 H869 H 0.65333 0.75079 0.07794
 H870 H 0.61732 0.77060 0.12703
 H871 H 0.59264 0.70664 0.07113
 H872 H 0.56421 0.75725 0.07445
 C873 C 0.36923 0.26550 0.06032
 C874 C 0.39585 0.27472 0.07801
 C875 C 0.41674 0.25337 0.09861
 C876 C 0.41203 0.22157 0.10340
 H877 H 0.40433 0.29957 0.07634
 H878 H 0.43853 0.26466 0.10940
 H879 H 0.35982 0.24102 0.06166
 H880 H 0.38983 0.20952 0.09474
 C881 C 0.63033 0.27745 0.93920
 C882 C 0.63896 0.24934 0.92484
 C883 C 0.61698 0.23146 0.90161
 C884 C 0.59227 0.24536 0.88455
 H885 H 0.66180 0.23762 0.93217
 H886 H 0.62080 0.20560 0.89933
 H887 H 0.60675 0.28854 0.93356
 H888 H 0.58823 0.27118 0.88603
 C889 C 0.36935 0.72324 0.93215
 C890 C 0.40009 0.71625 0.92150
 C891 C 0.42112 0.73796 0.90101
 C892 C 0.41500 0.76940 0.89535
 H893 H 0.41120 0.69346 0.92863
 H894 H 0.44403 0.72764 0.89161
 H895 H 0.35730 0.74540 0.92472
 H896 H 0.39219 0.78051 0.90374
 C897 C 0.72705 0.92797 0.36623
 C898 C 0.75994 0.92492 0.36209
 C899 C 0.78199 0.90758 0.38558
 C900 C 0.77282 0.89812 0.41634
 H901 H 0.77191 0.93684 0.34117
 H902 H 0.80761 0.90463 0.37792
 H903 H 0.71435 0.91615 0.38665
 H904 H 0.74811 0.90312 0.42548
 C905 C 0.26385 0.94474 0.63974
 C906 C 0.27520 0.92970 0.61223
 C907 C 0.25606 0.90745 0.59077
 C908 C 0.22453 0.89824 0.59572
 H909 H 0.30026 0.93456 0.60370
 H910 H 0.26899 0.89861 0.56878
 H911 H 0.23907 0.94033 0.64912
 H912 H 0.21119 0.90494 0.61817
 C913 C 0.26962 0.06374 0.37114
 C914 C 0.28157 0.07897 0.39818
 C915 C 0.26284 0.10188 0.41948
 C916 C 0.23028 0.10805 0.41705
 H917 H 0.30661 0.07379 0.40627
 H918 H 0.27654 0.11271 0.43990
 H919 H 0.24511 0.06901 0.36179
 H920 H 0.21581 0.09874 0.39647
 C921 C 0.73188 0.06799 0.63302
 C922 C 0.72038 0.07476 0.60247
 C923 C 0.73780 0.09526 0.57776
 C924 C 0.76965 0.10450 0.58000
 H925 H 0.69714 0.06417 0.59441
 H926 H 0.72404 0.10135 0.55545
 H927 H 0.75447 0.07897 0.64213
 H928 H 0.78413 0.09942 0.60201
 C929 C 0.94231 0.61572 0.29907
 C930 C 0.92732 0.61939 0.26960
 C931 C 0.90500 0.59411 0.25667
 C932 C 0.89580 0.59369 0.22460
 H933 H 0.93318 0.64005 0.25398
 H934 H 0.89750 0.57454 0.27307
 H935 H 0.93718 0.59437 0.31394
 H936 H 0.90232 0.61388 0.20860
 C937 C 0.92094 0.36480 0.72259
 C938 C 0.90684 0.39183 0.71088
 C939 C 0.88448 0.41326 0.73013
 C940 C 0.88124 0.41315 0.76351
 H941 H 0.91256 0.39966 0.68569
 H942 H 0.87237 0.43220 0.71607
 H943 H 0.91455 0.35559 0.74705
 H944 H 0.89249 0.39443 0.77846
 C945 C 0.05250 0.62794 0.73693
 C946 C 0.06642 0.63378 0.76668
 C947 C 0.08692 0.60951 0.78424
 C948 C 0.10342 0.58582 0.76837
 H949 H 0.06121 0.65627 0.77959
 H950 H 0.08854 0.61137 0.81118
 H951 H 0.05585 0.60471 0.72486
 H952 H 0.10283 0.58397 0.74142
 C953 C 0.06500 0.36282 0.26779
 C954 C 0.07141 0.36014 0.23502
 C955 C 0.09208 0.38352 0.21601
 C956 C 0.10052 0.41299 0.22742
 H957 H 0.06039 0.34043 0.22100
 H958 H 0.09898 0.37670 0.19078
 H959 H 0.07599 0.38198 0.28247
 H960 H 0.09154 0.42127 0.25141
   
