data_POSCAR
  _audit_creation_date              2014-09-24
  _audit_creation_method            'ToBaCCo'
  _symmetry_space_group_name_H-M    'P1'
  _symmetry_Int_Tables_number       1
  _symmetry_cell_setting            triclinic
  loop_
  _symmetry_equiv_pos_as_xyz
 x,y,z
_cell_length_a 27.5241
_cell_length_b 27.8102
_cell_length_c 27.3393
_cell_angle_alpha 89.856200
_cell_angle_beta 89.414000
_cell_angle_gamma 90.180600
loop_
  _atom_site_label
  _atom_site_type_symbol
  _atom_site_fract_x
  _atom_site_fract_y
  _atom_site_fract_z
C1 C 0.75911 0.61419 1.00793
 C2 C 0.75579 0.35893 0.50085
 C3 C 0.24563 -0.13793 -0.02384
 C4 C 0.26917 0.11201 0.47239
 C5 C 0.12294 0.49744 0.25710
 C6 C -0.13209 -0.00378 0.26404
 C7 C 0.38031 0.50945 0.75093
 C8 C 0.61505 1.01270 0.76765
 C9 C -0.00097 0.24020 -0.13746
 C10 C 0.49507 0.26242 0.11789
 C11 C 0.98246 0.75613 0.62395
 C12 C 0.48912 0.74973 0.36478
 C13 C 0.46612 -0.04772 0.26622
 H14 H 0.47670 -0.01088 0.27266
 C15 C 0.48887 -0.08477 0.29193
 H16 H 0.51733 -0.07597 0.31751
 C17 C 0.41406 -0.10383 0.22802
 H18 H 0.38358 -0.11130 0.20469
 C19 C 0.43598 -0.14188 0.25262
 H20 H 0.42310 -0.17790 0.24557
 N21 N 0.42864 -0.05768 0.23579
 C22 C 0.41800 0.05308 0.13256
 H23 H 0.39643 0.02967 0.11023
 C24 C 0.43647 0.09508 0.11160
 H25 H 0.42985 0.10247 0.07332
 C26 C 0.45004 0.07433 0.20962
 H27 H 0.45361 0.06698 0.24825
 C28 C 0.46855 0.11732 0.19021
 H29 H 0.48806 0.14164 0.21385
 Zn30 Zn 0.38880 -0.00728 0.21145
 N31 N 0.42463 0.04345 0.18090
 C32 C 0.33538 0.06449 0.25922
 N33 N 0.35559 0.02038 0.26527
 C34 C 0.35821 -0.00046 0.31025
 C35 C 0.34153 0.02393 0.35171
 C36 C 0.31851 0.09025 0.29969
 C37 C 0.36540 -0.05571 0.12599
 C38 C 0.33630 -0.07545 0.08987
 C39 C 0.26537 -0.05153 0.13654
 C40 C 0.29602 -0.03112 0.17145
 N41 N 0.34508 -0.03350 0.16544
 H42 H 0.33439 0.08054 0.22315
 H43 H 0.37476 -0.03540 0.31434
 H44 H 0.34586 0.00730 0.38718
 H45 H 0.30362 0.12588 0.29440
 H46 H 0.40454 -0.05803 0.12272
 H47 H 0.35333 -0.09375 0.05929
 H48 H 0.22636 -0.05044 0.14198
 H49 H 0.28070 -0.01392 0.20348
 C50 C 0.46067 0.12847 0.14075
 C51 C 0.47272 -0.13241 0.28663
 C52 C 0.28561 -0.07331 0.09486
 C53 C 0.32192 0.07026 0.34669
 C54 C 0.07573 1.03851 0.79785
 H55 H 0.07627 1.00213 0.81176
 C56 C 0.05325 1.07446 0.82527
 H57 H 0.03551 1.06509 0.85957
 C58 C 0.10176 1.09564 0.73871
 H59 H 0.12244 1.10430 0.70614
 C60 C 0.07937 1.13278 0.76488
 H61 H 0.08313 1.16930 0.75167
 N62 N 0.09954 1.04948 0.75546
 C63 C 0.10523 0.93732 0.65157
 H64 H 0.13529 0.95292 0.63149
 C65 C 0.07732 0.90208 0.62906
 H66 H 0.08579 0.89181 0.59173
 C67 C 0.05918 0.92942 0.72479
 H68 H 0.05236 0.93990 0.76219
 C69 C 0.03093 0.89297 0.70388
 H70 H 0.00219 0.87621 0.72527
 Zn71 Zn 0.13645 0.99933 0.72633
 N72 N 0.09560 0.95092 0.69847
 C73 C 0.17168 0.92484 0.78686
 N74 N 0.17425 0.97264 0.77674
 C75 C 0.20092 1.00307 0.80474
 C76 C 0.22526 0.98586 0.84580
 C77 C 0.19510 0.90621 0.82771
 C78 C 0.15537 1.04494 0.63710
 C79 C 0.18294 1.06176 0.59767
 C80 C 0.25568 1.03788 0.64002
 C81 C 0.22655 1.02082 0.67855
 N82 N 0.17733 1.02466 0.67637
 H83 H 0.15070 0.90125 0.76383
 H84 H 0.20215 1.04099 0.79586
 H85 H 0.24553 1.01058 0.86842
 H86 H 0.19255 0.86805 0.83519
 H87 H 0.11616 1.04738 0.63623
 H88 H 0.16460 1.07858 0.56728
 H89 H 0.29484 1.03513 0.64224
 H90 H 0.24329 1.00426 0.70991
 C91 C 0.04009 0.87908 0.65531
 C92 C 0.05509 1.12229 0.80908
 C93 C 0.23378 1.05782 0.59866
 C94 C 0.22122 0.93719 0.85849
 C95 C 0.55929 0.54028 0.32142
 H96 H 0.55545 0.50424 0.33597
 C97 C 0.53656 0.57869 0.34490
 H98 H 0.51475 0.57207 0.37745
 C99 C 0.59492 0.59320 0.26302
 H100 H 0.61925 0.59897 0.23233
 C101 C 0.57229 0.63260 0.28498
 H102 H 0.57958 0.66829 0.27079
 N103 N 0.58830 0.54822 0.28170
 C104 C 0.60671 0.40783 0.21450
 H105 H 0.64519 0.40291 0.22036
 C106 C 0.58054 0.37333 0.18896
 H107 H 0.59894 0.34156 0.17546
 C108 C 0.53670 0.45691 0.22202
 H109 H 0.52029 0.49020 0.23398
 C110 C 0.50945 0.42391 0.19504
 H111 H 0.47187 0.43152 0.18668
 Zn112 Zn 0.62491 0.49567 0.25861
 N113 N 0.58448 0.44834 0.23093
 C114 C 0.65241 0.42546 0.32862
 N115 N 0.65940 0.47141 0.31287
 C116 C 0.68762 0.50269 0.33830
 C117 C 0.71043 0.48798 0.38124
 C118 C 0.67502 0.40911 0.37088
 C119 C 0.64470 0.52949 0.16612
 C120 C 0.67173 0.54685 0.12657
 C121 C 0.74481 0.53473 0.17327
 C122 C 0.71622 0.51736 0.21207
 N123 N 0.66703 0.51606 0.20803
 H124 H 0.62807 0.40175 0.30949
 H125 H 0.69142 0.53945 0.32576
 H126 H 0.73217 0.51340 0.40158
 H127 H 0.66776 0.37283 0.38346
 H128 H 0.60550 0.52790 0.16401
 H129 H 0.65248 0.55955 0.09481
 H130 H 0.78385 0.53708 0.17735
 H131 H 0.73323 0.50582 0.24552
 C132 C 0.53148 0.38152 0.17862
 C133 C 0.54318 0.62549 0.32687
 C134 C 0.72258 0.54993 0.12993
 C135 C 0.70458 0.44056 0.39768
 C136 C 0.96588 0.43660 0.75346
 H137 H 0.98208 0.46119 0.72736
 C138 C 0.99211 0.39628 0.76902
 H139 H 1.02855 0.39032 0.75503
 C140 C 0.89925 0.41406 0.80409
 H141 H 0.86316 0.42130 0.81812
 C142 C 0.92382 0.37347 0.82020
 H143 H 0.90651 0.35059 0.84736
 N144 N 0.91991 0.44423 0.77059
 C145 C 0.90361 0.59182 0.73825
 H146 H 0.88078 0.59635 0.77023
 C147 C 0.92155 0.63260 0.71417
 H148 H 0.91203 0.66764 0.72833
 C149 C 0.93944 0.54098 0.67873
 H150 H 0.94455 0.50532 0.66391
 C151 C 0.95780 0.58084 0.65328
 H152 H 0.97793 0.57542 0.61949
 Zn153 Zn 0.87814 0.49377 0.74813
 N154 N 0.91215 0.54708 0.72001
 C155 C 0.79238 0.51836 0.80157
 N156 N 0.84163 0.51545 0.80260
 C157 C 0.86704 0.52923 0.84260
 C158 C 0.84303 0.54806 0.88337
 C159 C 0.76682 0.53699 0.84166
 C160 C 0.81566 0.42328 0.71042
 C161 C 0.79204 0.39773 0.67384
 C162 C 0.80873 0.46305 0.61778
 C163 C 0.83224 0.48733 0.65552
 N164 N 0.83680 0.46645 0.70032
 H165 H 0.77303 0.50729 0.76925
 H166 H 0.90626 0.52671 0.84218
 H167 H 0.86458 0.56074 0.91358
 H168 H 0.72766 0.54022 0.83993
 H169 H 0.81866 0.40762 0.74638
 H170 H 0.77716 0.36252 0.68227
 H171 H 0.80671 0.48037 0.58247
 H172 H 0.84792 0.52233 0.64846
 C173 C 0.94847 0.62739 0.67061
 C174 C 0.97049 0.36348 0.80179
 C175 C 0.78976 0.41669 0.62634
 C176 C 0.79212 0.55232 0.88319
 C177 C 0.29540 0.45790 -0.04114
 H178 H 0.30113 0.46566 -0.00300
 C179 C 0.32183 0.48338 -0.07671
 H180 H 0.34719 0.51099 -0.06545
 C181 C 0.25877 0.41018 -0.10220
 H182 H 0.23615 0.38004 -0.11214
 C183 C 0.28425 0.43487 -0.13892
 H184 H 0.28039 0.42299 -0.17630
 N185 N 0.26504 0.42152 -0.05425
 C186 C 0.15698 0.40640 0.05326
 H187 H 0.13671 0.38290 0.02981
 C188 C 0.13290 0.42753 0.09271
 H189 H 0.09444 0.42068 0.09808
 C190 C 0.23151 0.44129 0.07726
 H191 H 0.27027 0.44526 0.07209
 C192 C 0.20883 0.46282 0.11771
 H193 H 0.23035 0.48460 0.14208
 Zn194 Zn 0.23786 0.37955 -0.00564
 N195 N 0.20544 0.41373 0.04578
 C196 C 0.28140 0.32063 0.06568
 N197 N 0.28944 0.34432 0.02280
 C198 C 0.33475 0.34709 0.00260
 C199 C 0.37450 0.32693 0.02645
 C200 C 0.32014 0.29993 0.09079
 C201 C 0.15423 0.35926 -0.05897
 C202 C 0.11780 0.33154 -0.08006
 C203 C 0.16154 0.26003 -0.05666
 C204 C 0.19673 0.28924 -0.03484
 N205 N 0.19222 0.33795 -0.03604
 H206 H 0.24512 0.31933 0.08125
 H207 H 0.34048 0.36614 -0.03147
 H208 H 0.41013 0.33165 0.01020
 H209 H 0.31323 0.28230 0.12556
 H210 H 0.15197 0.39808 -0.06020
 H211 H 0.08806 0.34931 -0.09829
 H212 H 0.16562 0.22132 -0.05599
 H213 H 0.22754 0.27305 -0.01702
 C214 C 0.15883 0.45545 0.12601
 C215 C 0.31689 0.47167 -0.12629
 C216 C 0.12104 0.28124 -0.07868
 C217 C 0.36757 0.30337 0.07161
 C218 C 0.77262 0.04334 1.06154
 H219 H 0.75278 0.02722 1.03184
 C220 C 0.79205 0.01416 1.09827
 H221 H 0.78712 -0.02446 1.09672
 C222 C 0.80483 0.11296 1.09930
 H223 H 0.81012 0.15153 1.09903
 C224 C 0.82381 0.08543 1.13710
 H225 H 0.84430 0.10313 1.16544
 N226 N 0.77872 0.09190 1.06322
 C227 C 0.67987 0.07633 0.97693
 H228 H 0.66796 0.07408 1.01470
 C229 C 0.65173 0.05575 0.94019
 H230 H 0.61837 0.03716 0.94998
 C231 C 0.73656 0.10544 0.91807
 H232 H 0.76874 0.12624 0.90943
 C233 C 0.70961 0.08531 0.88020
 H234 H 0.72169 0.09129 0.84292
 Zn235 Zn 0.75321 0.13445 1.01584
 N236 N 0.72128 0.10076 0.96532
 C237 C 0.84490 0.14196 0.97516
 N238 N 0.80669 0.16940 0.98979
 C239 C 0.80856 0.21822 0.98701
 C240 C 0.84976 0.24113 0.96717
 C241 C 0.88668 0.16324 0.95560
 C242 C 0.69611 0.16890 1.09429
 C243 C 0.65714 0.19257 1.11610
 C244 C 0.63823 0.22812 1.03794
 C245 C 0.67834 0.20416 1.01759
 N246 N 0.70593 0.17468 1.04578
 H247 H 0.84280 0.10326 0.97881
 H248 H 0.77808 0.23937 0.99972
 H249 H 0.85054 0.27997 0.96422
 H250 H 0.91670 0.14034 0.94513
 H251 H 0.71704 0.14435 1.11607
 H252 H 0.64943 0.18647 1.15457
 H253 H 0.61632 0.25080 1.01480
 H254 H 0.68636 0.20757 0.97891
 C255 C 0.66638 0.06017 0.89109
 C256 C 0.81700 0.03539 1.13719
 C257 C 0.62681 0.22151 1.08777
 C258 C 0.88910 0.21349 0.95025
 C259 C 0.31263 0.60540 0.57149
 H260 H 0.33710 0.62541 0.54806
 C261 C 0.33031 0.58593 0.61485
 H262 H 0.36818 0.59138 0.62352
 C263 C 0.23300 0.57880 0.59120
 H264 H 0.19470 0.57812 0.58298
 C265 C 0.24914 0.55898 0.63516
 H266 H 0.22326 0.54189 0.65979
 N267 N 0.26474 0.60130 0.56018
 C268 C 0.22361 0.60372 0.40936
 H269 H 0.24679 0.63381 0.40005
 C270 C 0.20134 0.57833 0.37186
 H271 H 0.20811 0.58942 0.33443
 C272 C 0.18240 0.55678 0.46920
 H273 H 0.17401 0.54939 0.50711
 C274 C 0.15880 0.53074 0.43267
 H275 H 0.13268 0.50317 0.44283
 Zn276 Zn 0.23948 0.63495 0.50534
 N277 N 0.21390 0.59283 0.45704
 C278 C 0.32655 0.64735 0.45523
 N279 N 0.28930 0.67247 0.47569
 C280 C 0.28727 0.72126 0.47231
 C281 C 0.32418 0.74665 0.44766
 C282 C 0.36401 0.67112 0.43061
 C283 C 0.14369 0.67028 0.50959
 C284 C 0.10376 0.69117 0.53300
 C285 C 0.15755 0.72071 0.59555
 C286 C 0.19645 0.69926 0.57091
 N287 N 0.18866 0.67371 0.52943
 H288 H 0.32658 0.60850 0.45742
 H289 H 0.25682 0.74039 0.48812
 H290 H 0.32217 0.78544 0.44480
 H291 H 0.39235 0.64995 0.41347
 H292 H 0.13827 0.64947 0.47677
 H293 H 0.06816 0.68547 0.51771
 H294 H 0.16403 0.73940 0.62959
 H295 H 0.23252 0.70079 0.58620
 C296 C 0.16815 0.54149 0.38334
 C297 C 0.29838 0.56222 0.64736
 C298 C 0.11036 0.71603 0.57719
 C299 C 0.36344 0.72153 0.42699
 C300 C 0.80145 0.93517 0.47557
 H301 H 0.81565 0.93162 0.51214
 C302 C 0.83080 0.95444 0.43828
 H303 H 0.86730 0.96634 0.44659
 C304 C 0.73857 0.92001 0.41913
 H305 H 0.70365 0.90471 0.41084
 C306 C 0.76635 0.93957 0.38100
 H307 H 0.75197 0.93866 0.34434
 N308 N 0.75663 0.91735 0.46526
 C309 C 0.64817 0.89868 0.57776
 H310 H 0.63203 0.86709 0.56174
 C311 C 0.62397 0.92151 0.61607
 H312 H 0.58891 0.90797 0.62823
 C313 C 0.71457 0.95269 0.58392
 H314 H 0.75017 0.96421 0.57148
 C315 C 0.69195 0.97606 0.62334
 H316 H 0.71000 1.00615 0.64051
 Zn317 Zn 0.72489 0.87805 0.51302
 N318 N 0.69245 0.91466 0.56204
 C319 C 0.77530 0.83956 0.59328
 N320 N 0.77311 0.84015 0.54361
 C321 C 0.80760 0.81805 0.51576
 C322 C 0.84736 0.79583 0.53780
 C323 C 0.81427 0.81778 0.61676
 C324 C 0.63805 0.86227 0.46448
 C325 C 0.60287 0.83739 0.43849
 C326 C 0.65114 0.76535 0.44603
 C327 C 0.68533 0.79163 0.47256
 N328 N 0.67839 0.83935 0.48079
 H329 H 0.74749 0.85715 0.61484
 H330 H 0.80506 0.81911 0.47630
 H331 H 0.87430 0.77879 0.51468
 H332 H 0.81596 0.81879 0.65632
 H333 H 0.63372 0.90038 0.47102
 H334 H 0.57196 0.85693 0.42461
 H335 H 0.65735 0.72758 0.43878
 H336 H 0.71773 0.77417 0.48567
 C337 C 0.64613 0.96004 0.63992
 C338 C 0.81359 0.95606 0.39017
 C339 C 0.60922 0.78826 0.42899
 C340 C 0.85169 0.79675 0.58908
 C341 C -0.03029 0.30875 0.44018
 H342 H 0.00575 0.32428 0.43980
 C343 C -0.06856 0.33351 0.46270
 H344 H -0.06145 0.36763 0.48030
 C345 C -0.08444 0.24798 0.41390
 H346 H -0.09134 0.21591 0.39303
 C347 C -0.12356 0.27126 0.43620
 H348 H -0.15958 0.25637 0.43173
 N349 N -0.03883 0.26692 0.41599
 C350 C 0.08241 0.17180 0.39964
 H351 H 0.06738 0.15347 0.36852
 C352 C 0.12434 0.15380 0.42052
 H353 H 0.13912 0.12042 0.40668
 C354 C 0.08229 0.23797 0.45409
 H355 H 0.06642 0.27139 0.46616
 C356 C 0.12474 0.22115 0.47610
 H357 H 0.14099 0.24140 0.50554
 Zn358 Zn 0.01184 0.23913 0.37765
 N359 N 0.06230 0.21335 0.41625
 C360 C 0.08893 0.28793 0.33177
 N361 N 0.03984 0.28775 0.33786
 C362 C 0.01216 0.32459 0.32112
 C363 C 0.03413 0.36474 0.29915
 C364 C 0.11230 0.32719 0.31007
 C365 C -0.03006 0.14924 0.36529
 C366 C -0.05079 0.11040 0.34115
 C367 C -0.03762 0.15217 0.26450
 C368 C -0.01691 0.19039 0.29027
 N369 N -0.01419 0.18842 0.33985
 H370 H 0.11030 0.25828 0.34521
 H371 H -0.02683 0.32358 0.32646
 H372 H 0.01123 0.39362 0.28652
 H373 H 0.15156 0.32719 0.30684
 H374 H -0.02739 0.14871 0.40475
 H375 H -0.06516 0.08101 0.36290
 H376 H -0.04095 0.15467 0.22514
 H377 H -0.00387 0.22189 0.27086
 C378 C 0.14699 0.17941 0.45814
 C379 C -0.11595 0.31496 0.46059
 C380 C -0.05497 0.11155 0.28998
 C381 C 0.08514 0.36693 0.29483
 C382 C 1.04262 0.81636 0.06948
 H383 H 1.00711 0.83267 0.07279
 C384 C 1.07879 0.83859 0.04146
 H385 H 1.07080 0.87216 0.02307
 C386 C 1.09648 0.75355 0.09088
 H387 H 1.10321 0.72057 0.11062
 C388 C 1.13386 0.77463 0.06319
 H389 H 1.16913 0.75768 0.06277
 N390 N 1.05220 0.77503 0.09400
 C391 C 0.91265 0.70624 0.12178
 H392 H 0.91134 0.70685 0.16134
 C393 C 0.87523 0.68441 0.09592
 H394 H 0.84577 0.66774 0.11628
 C395 C 0.95502 0.72422 0.04804
 H396 H 0.98663 0.73899 0.02961
 C397 C 0.91840 0.70252 0.02068
 H398 H 0.92204 0.70088 -0.01877
 Zn399 Zn 1.00287 0.75110 0.13568
 N400 N 0.95159 0.72552 0.09770
 C401 C 0.93248 0.81788 0.16894
 N402 N 0.97968 0.80425 0.17328
 C403 C 1.01180 0.83195 0.19833
 C404 C 0.99671 0.87485 0.22039
 C405 C 0.91591 0.86032 0.19034
 C406 C 1.01513 0.65478 0.16494
 C407 C 1.03833 0.61594 0.18688
 C408 C 1.09024 0.67187 0.22911
 C409 C 1.06571 0.70979 0.20662
 N410 N 1.02923 0.70072 0.17466
 H411 H 0.90781 0.79726 0.14689
 H412 H 1.04968 0.82210 0.19929
 H413 H 1.02297 0.89691 0.23933
 H414 H 0.87873 0.87092 0.18406
 H415 H 0.98766 0.64775 0.13801
 H416 H 1.02787 0.57993 0.17634
 H417 H 1.12033 0.67962 0.25312
 H418 H 1.07755 0.74625 0.21287
 C419 C 0.87784 0.68238 0.04457
 C420 C 1.12525 0.81813 0.03847
 C421 C 1.07686 0.62425 0.21905
 C422 C 0.94819 0.88954 0.21662
 C423 C 0.58074 0.25379 0.57311
 H424 H 0.57779 0.21512 0.57650
 C425 C 0.62186 0.27437 0.55095
 H426 H 0.64967 0.25085 0.53656
 C427 C 0.54727 0.33089 0.58773
 H428 H 0.51821 0.35283 0.60224
 C429 C 0.58758 0.35291 0.56594
 H430 H 0.58915 0.39180 0.56396
 N431 N 0.54478 0.28220 0.59135
 C432 C 0.46227 0.21460 0.53433
 H433 H 0.49716 0.22667 0.52055
 C434 C 0.43089 0.18945 0.50353
 H435 H 0.44185 0.18206 0.46614
 C436 C 0.40585 0.20768 0.60008
 H437 H 0.39680 0.21406 0.63812
 C438 C 0.37303 0.18363 0.57036
 H439 H 0.33898 0.17126 0.58609
 Zn440 Zn 0.49209 0.25398 0.62579
 N441 N 0.44944 0.22280 0.58180
 C442 C 0.47769 0.32576 0.69889
 N443 N 0.45791 0.30363 0.65938
 C444 C 0.41555 0.31950 0.63992
 C445 C 0.39115 0.35847 0.66042
 C446 C 0.45478 0.36561 0.72011
 C447 C 0.55846 0.21878 0.69499
 C448 C 0.58361 0.18316 0.72043
 C449 C 0.52403 0.12505 0.69425
 C450 C 0.50024 0.16165 0.66909
 N451 N 0.51792 0.20742 0.66938
 H452 H 0.51178 0.31323 0.71332
 H453 H 0.40130 0.30313 0.60731
 H454 H 0.35773 0.37079 0.64402
 H455 H 0.47107 0.38275 0.75145
 H456 H 0.57291 0.25496 0.69340
 H457 H 0.61689 0.19246 0.73905
 H458 H 0.51039 0.08871 0.69107
 H459 H 0.46895 0.15270 0.64749
 C460 C 0.38552 0.17410 0.52143
 C461 C 0.62595 0.32477 0.54797
 C462 C 0.56682 0.13549 0.71980
 C463 C 0.41111 0.38260 0.70034
 C464 C 0.44322 0.81694 0.92889
 H465 H 0.46553 0.84312 0.90991
 C466 C 0.39863 0.83092 0.94871
 H467 H 0.38720 0.86802 0.94540
 C468 C 0.42964 0.73652 0.95481
 H469 H 0.44130 0.69941 0.95531
 C470 C 0.38502 0.74924 0.97609
 H471 H 0.36262 0.72205 0.99369
 N472 N 0.45717 0.77014 0.93096
 C473 C 0.59836 0.70407 0.90341
 H474 H 0.59925 0.70811 0.86404
 C475 C 0.63708 0.68235 0.92704
 H476 H 0.66680 0.66861 0.90506
 C477 C 0.55676 0.71554 0.97881
 H478 H 0.52540 0.72878 0.99867
 C479 C 0.59490 0.69386 1.00407
 H480 H 0.59245 0.69000 1.04346
 Zn481 Zn 0.51007 0.74957 0.89170
 N482 N 0.55915 0.71995 0.92929
 C483 C 0.58302 0.81876 0.87633
 N484 N 0.53921 0.80389 0.85909
 C485 C 0.51659 0.82899 0.82302
 C486 C 0.53815 0.87057 0.80316
 C487 C 0.60616 0.85918 0.85686
 C488 C 0.49864 0.65633 0.85166
 C489 C 0.47343 0.61968 0.82799
 C490 C 0.41767 0.67901 0.79728
 C491 C 0.44404 0.71464 0.82156
 N492 N 0.48362 0.70284 0.84842
 H493 H 0.59993 0.80008 0.90625
 H494 H 0.48150 0.81743 0.81020
 H495 H 0.51982 0.88997 0.77440
 H496 H 0.64105 0.87015 0.87116
 H497 H 0.52836 0.64673 0.87506
 H498 H 0.48512 0.58303 0.83362
 H499 H 0.38539 0.68892 0.77734
 H500 H 0.43108 0.75126 0.82135
 C501 C 0.63587 0.67732 0.97817
 C502 C 0.36845 0.79653 0.97133
 C503 C 0.43191 0.63071 0.80074
 C504 C 0.58356 0.88602 0.82039
 C505 C 0.47108 -0.21247 0.32850
 C506 C 0.49341 -0.17024 0.31872
 H507 H 0.43813 -0.22157 0.30943
 H508 H 0.52683 -0.16127 0.33713
 C509 C 0.97497 0.28045 0.83379
 C510 C 0.99774 0.32093 0.81911
 H511 H 0.93656 0.27656 0.82614
 H512 H 1.03685 0.32389 0.82202
 C513 C 0.02063 1.20390 0.82654
 C514 C 0.03453 1.15988 0.84131
 H515 H 0.02475 1.21418 0.78850
 H516 H 0.02977 1.15043 0.87957
 C517 C 0.50905 0.70783 0.33473
 C518 C 0.52293 0.66607 0.35504
 H519 H 0.51228 0.71211 0.29540
 H520 H 0.51958 0.66102 0.39417
 C521 C 0.50552 0.30049 0.15629
 C522 C 0.50523 0.34779 0.14695
 H523 H 0.52164 0.28853 0.19028
 H524 H 0.48940 0.36174 0.11374
 C525 C -0.00187 0.79996 0.65337
 C526 C 0.01287 0.84038 0.63071
 H527 H 0.00316 0.79640 0.69247
 H528 H 0.01079 0.84209 0.59115
 C529 C 0.97016 0.71388 0.65762
 C530 C 0.96351 0.66917 0.64022
 H531 H 0.96487 0.72081 0.69623
 H532 H 0.96967 0.66270 0.60157
 C533 C 0.48062 0.21560 0.14314
 C534 C 0.47638 0.17436 0.11821
 H535 H 0.47134 0.21632 0.18174
 H536 H 0.48225 0.17491 0.07893
 C537 C 0.34126 0.49647 -0.21098
 C538 C 0.35022 0.49428 -0.16274
 H539 H 0.30738 0.48200 -0.22423
 H540 H 0.38438 0.50799 -0.14916
 C541 C 0.83291 0.98770 0.30675
 C542 C 0.84736 0.96955 0.34988
 H543 H 0.79465 0.99497 0.30147
 H544 H 0.88561 0.96300 0.35576
 C545 C 0.83911 0.01975 1.22288
 C546 C 0.83825 0.00517 1.17601
 H547 H 0.82022 0.05269 1.23234
 H548 H 0.85420 -0.02871 1.16512
 C549 C 0.36036 0.52824 0.70264
 C550 C 0.31470 0.54331 0.69517
 H551 H 0.38611 0.52942 0.67241
 H552 H 0.28801 0.54172 0.72441
 C553 C 0.15596 0.51164 0.29900
 C554 C 0.13926 0.51787 0.34486
 H555 H 0.19305 0.52191 0.29026
 H556 H 0.10248 0.50693 0.35416
 C557 C 0.64973 0.02981 0.80718
 C558 C 0.63425 0.04101 0.85245
 H559 H 0.68781 0.03391 0.79786
 H560 H 0.59628 0.03529 0.86178
 C561 C 0.64332 0.99805 0.72188
 C562 C 0.62049 0.98159 0.68216
 H563 H 0.68266 0.99734 0.72270
 H564 H 0.58114 0.97937 0.68288
 C565 C 0.15322 0.48536 0.21177
 C566 C 0.13227 0.47474 0.16902
 H567 H 0.19199 0.48049 0.21569
 H568 H 0.09299 0.47645 0.16688
 C569 C -0.20075 0.32651 0.49132
 C570 C -0.15693 0.34451 0.47881
 H571 H -0.20642 0.28798 0.49072
 H572 H -0.15125 0.38305 0.48025
 C573 C 0.28954 0.83391 0.95839
 C574 C 0.31942 0.81021 0.98842
 H575 H 0.30109 0.83839 0.92054
 H576 H 0.30925 0.80380 1.02626
 C577 C 1.20794 0.82869 -0.00015
 C578 C 1.16368 0.84544 0.01225
 H579 H 1.21774 0.79186 0.00763
 H580 H 1.15544 0.88258 0.00352
 C581 C 0.71234 0.32928 0.51859
 C582 C 0.66892 0.34982 0.52685
 H583 H 0.71780 0.29187 0.52779
 H584 H 0.66541 0.38804 0.51996
 C585 C 0.30481 0.14863 0.49310
 C586 C 0.35337 0.14480 0.49038
 H587 H 0.28948 0.17653 0.51614
 H588 H 0.37030 0.11820 0.46702
 C589 C 0.79575 0.64792 0.03166
 C590 C 0.84144 0.65572 0.01567
 H591 H 0.78321 0.66654 0.06417
 H592 H 0.85336 0.64158 -0.01927
 C593 C 0.72016 0.64682 0.98657
 C594 C 0.67474 0.65172 1.00462
 H595 H 0.73071 0.66718 0.95433
 H596 H 0.66494 0.63579 1.03950
 C597 C 0.22587 0.13850 0.45132
 C598 C 0.19325 0.16240 0.47884
 H599 H 0.21949 0.13575 0.41239
 H600 H 0.19983 0.16809 0.51741
 C601 C 0.58080 0.05345 0.75414
 C602 C 0.59747 0.09717 0.74110
 H603 H 0.54238 0.04565 0.75153
 H604 H 0.63590 0.10482 0.74479
 C605 C 1.08978 0.53946 0.24492
 C606 C 1.10673 0.58439 0.23824
 H607 H 1.05193 0.53181 0.23767
 H608 H 1.14442 0.59218 0.24624
 C609 C 0.88686 0.94708 0.24842
 C610 C 0.93323 0.93684 0.23686
 H611 H 0.85953 0.91922 0.24501
 H612 H 0.96121 0.96382 0.24160
 C613 C 0.40798 0.46347 0.73922
 C614 C 0.38547 0.42542 0.71931
 H615 H 0.44702 0.46259 0.74364
 H616 H 0.34684 0.42784 0.71233
 C617 C 0.41497 0.54768 0.77022
 C618 C 0.40043 0.59294 0.77926
 H619 H 0.45210 0.53754 0.77746
 H620 H 0.36343 0.60278 0.77056
 C621 C -0.09188 0.03013 0.28171
 C622 C -0.08269 0.07428 0.26336
 H623 H -0.07159 0.01856 0.31324
 H624 H -0.09858 0.08542 0.22921
 C625 C 0.09253 0.45378 0.27205
 C626 C 0.11178 0.40964 0.27583
 H627 H 0.05553 0.45986 0.28415
 H628 H 0.14998 0.40513 0.26698
 C629 C 0.58652 0.96898 0.78618
 C630 C 0.60916 0.92890 0.80084
 H631 H 0.54721 0.97043 0.78790
 H632 H 0.64855 0.92861 0.80122
 C633 C 0.73716 0.57925 0.04521
 C634 C 0.75227 0.57388 0.09153
 H635 H 0.70576 0.55907 0.03319
 H636 H 0.78625 0.58975 0.10294
 C637 C 0.24890 1.07910 0.51234
 C638 C 0.26412 1.07815 0.55884
 H639 H 0.21686 1.05835 0.50300
 H640 H 0.29809 1.09484 0.56890
 C641 C 0.22255 0.88532 0.93150
 C642 C 0.24387 0.91950 0.90393
 H643 H 0.18814 0.87082 0.91929
 H644 H 0.27779 0.93557 0.91529
 C645 C 0.74182 0.38037 0.45170
 C646 C 0.72620 0.42546 0.44452
 H647 H 0.74075 0.35548 0.42123
 H648 H 0.72739 0.45166 0.47366
 C649 C 0.76995 0.39612 0.53932
 C650 C 0.76936 0.38573 0.58741
 H651 H 0.78683 0.42897 0.52656
 H652 H 0.75554 0.35094 0.59894
 C653 C 0.26465 -0.10008 0.01174
 C654 C 0.25426 -0.09877 0.05994
 H655 H 0.29360 -0.07694 -0.00181
 H656 H 0.22495 -0.11981 0.07563
 C657 C 0.29134 0.08080 0.43223
 C658 C 0.30612 0.09945 0.38917
 H659 H 0.29205 0.04223 0.43771
 H660 H 0.30347 0.13800 0.38382
 C661 C 0.78275 0.58308 0.96839
 C662 C 0.76496 0.57653 0.92320
 H663 H 0.81594 0.56495 0.97846
 H664 H 0.72938 0.59027 0.91428
 C665 C 0.02430 0.74166 0.59009
 C666 C 0.06913 0.73375 0.60724
 H667 H 0.01685 0.73615 0.55175
 H668 H 0.07590 0.74037 0.64564
 C669 C 0.54196 0.25375 1.08887
 C670 C 0.58315 0.24180 1.11191
 H671 H 0.54021 0.25077 1.04946
 H672 H 0.58291 0.24163 1.15155
 C673 C 0.95893 0.21545 0.89243
 C674 C 0.93161 0.23752 0.92663
 H675 H 0.94819 0.17967 0.88128
 H676 H 0.93832 0.27506 0.93468
 C677 C 0.44773 0.73073 0.39719
 C678 C 0.40203 0.74759 0.39946
 H679 H 0.45643 0.70107 0.42116
 H680 H 0.39219 0.78052 0.38094
 C681 C 0.52656 0.77133 0.39913
 C682 C 0.57434 0.76146 0.39863
 H683 H 0.51298 0.79823 0.42439
 H684 H 0.58907 0.73387 0.37504
 C685 C 0.03712 0.26177 -0.10334
 C686 C 0.08480 0.25110 -0.10386
 H687 H 0.02497 0.29095 -0.08003
 H688 H 0.09871 0.22110 -0.12466
 C689 C 0.45406 0.27817 0.08435
 C690 C 0.40851 0.28487 0.10129
 H691 H 0.46266 0.28511 0.04633
 H692 H 0.40091 0.27667 0.13940
 C693 C 0.93796 0.76938 0.59414
 C694 C 0.89450 0.77753 0.61528
 H695 H 0.94316 0.77723 0.55567
 H696 H 0.89108 0.77287 0.65455
   
