data_POSCAR
  _audit_creation_date              2014-09-24
  _audit_creation_method            'ToBaCCo'
  _symmetry_space_group_name_H-M    'P1'
  _symmetry_Int_Tables_number       1
  _symmetry_cell_setting            triclinic
  loop_
  _symmetry_equiv_pos_as_xyz
 x,y,z
_cell_length_a 28.9694
_cell_length_b 28.0951
_cell_length_c 29.2891
_cell_angle_alpha 87.958100
_cell_angle_beta 89.151100
_cell_angle_gamma 89.543500
loop_
  _atom_site_label
  _atom_site_type_symbol
  _atom_site_fract_x
  _atom_site_fract_y
  _atom_site_fract_z
N1 N 0.57776 0.70990 0.60109
 N2 N 0.56805 0.69544 0.64331
 C3 C 0.52998 0.71801 0.65803
 C4 C 0.51471 0.74811 0.62325
 C5 C 0.54576 0.74241 0.58741
 H6 H 0.51364 0.71187 0.69116
 H7 H 0.54472 0.75978 0.55388
 Cu8 Cu 0.60339 0.64606 0.67493
 Cu9 Cu 0.63149 0.68398 0.56881
 Cu10 Cu 0.65723 0.56863 0.60761
 N11 N 0.62371 0.58437 0.69831
 N12 N 0.64295 0.55283 0.67178
 C13 C 0.64858 0.51149 0.69605
 C14 C 0.63211 0.51805 0.74004
 C15 C 0.61675 0.56468 0.74024
 H16 H 0.66255 0.47898 0.68253
 H17 H 0.59981 0.58244 0.76808
 N18 N 0.68263 0.59736 0.54996
 N19 N 0.67418 0.64178 0.53596
 C20 C 0.70236 0.65313 0.50028
 C21 C 0.72968 0.61392 0.49151
 C22 C 0.71615 0.57920 0.52331
 H23 H 0.70491 0.68813 0.48389
 H24 H 0.73235 0.54472 0.52904
 H25 H 0.60811 0.62218 0.59604
 H26 H 0.66525 0.64029 0.61855
 N27 N 0.93493 0.30801 0.09725
 N28 N 0.95653 0.33487 0.12582
 C29 C 0.99464 0.31220 0.14074
 C30 C 0.99735 0.26873 0.12046
 C31 C 0.95917 0.26714 0.09265
 H32 H 1.01881 0.32667 0.16427
 H33 H 0.94982 0.23856 0.07087
 Cu34 Cu 0.93379 0.39686 0.14196
 Cu35 Cu 0.87699 0.32919 0.06913
 Cu36 Cu 0.82678 0.43058 0.11374
 N37 N 0.90165 0.44649 0.17383
 N38 N 0.85911 0.45909 0.16384
 C39 C 0.84411 0.49128 0.19390
 C40 C 0.87938 0.49885 0.22402
 C41 C 0.91532 0.47010 0.21027
 H42 H 0.80981 0.50673 0.19473
 H43 H 0.94818 0.46508 0.22691
 N44 N 0.80009 0.39645 0.06293
 N45 N 0.81858 0.35748 0.04615
 C46 C 0.79224 0.34326 0.01160
 C47 C 0.75598 0.37511 0.00651
 C48 C 0.76199 0.40826 0.03935
 H49 H 0.79926 0.31264 -0.00882
 H50 H 0.74017 0.43888 0.04531
 H51 H 0.88226 0.40158 0.07731
 H52 H 0.85853 0.36484 0.12674
 N53 N 0.43932 0.18656 -0.11081
 N54 N 0.45208 0.17257 -0.15147
 C55 C 0.48892 0.19852 -0.16611
 C56 C 0.49937 0.22986 -0.13239
 C57 C 0.46756 0.22100 -0.09793
 H58 H 0.50557 0.19622 -0.19925
 H59 H 0.46357 0.24064 -0.06701
 Cu60 Cu 0.41716 0.12347 -0.18130
 Cu61 Cu 0.38293 0.16588 -0.08035
 Cu62 Cu 0.31971 0.07889 -0.13027
 N63 N 0.38384 0.07016 -0.20577
 N64 N 0.34533 0.05424 -0.18655
 C65 C 0.33038 0.01690 -0.20952
 C66 C 0.36132 0.00860 -0.24455
 C67 C 0.39491 0.04289 -0.24138
 H68 H 0.30049 -0.00428 -0.20012
 H69 H 0.42572 0.04665 -0.26245
 N70 N 0.30017 0.10846 -0.07298
 N71 N 0.32496 0.14143 -0.05408
 C72 C 0.30352 0.15510 -0.01572
 C73 C 0.26347 0.12945 -0.00990
 C74 C 0.26228 0.09992 -0.04659
 H75 H 0.31620 0.18166 0.00664
 H76 H 0.23582 0.07430 -0.05344
 H77 H 0.38316 0.09814 -0.10796
 H78 H 0.34786 0.14532 -0.13816
 N79 N 0.06118 0.79952 0.40009
 N80 N 0.04789 0.81675 0.36001
 C81 C 0.01246 0.79042 0.34562
 C82 C 0.00329 0.75538 0.37882
 C83 C 0.03454 0.76234 0.41285
 H84 H -0.00448 0.79548 0.31314
 H85 H 0.03896 0.74037 0.44358
 Cu86 Cu 0.07955 0.87091 0.33039
 Cu87 Cu 0.11515 0.82226 0.43085
 Cu88 Cu 0.17179 0.91862 0.38066
 N89 N 0.11007 0.92764 0.30456
 N90 N 0.14627 0.94533 0.32436
 C91 C 0.16051 0.98426 0.30045
 C92 C 0.13175 0.99164 0.26377
 C93 C 0.09998 0.95518 0.26723
 H94 H 0.18920 1.00614 0.30960
 H95 H 0.07152 0.94961 0.24462
 N96 N 0.19238 0.88677 0.43776
 N97 N 0.17055 0.84997 0.45687
 C98 C 0.19256 0.83589 0.49521
 C99 C 0.22969 0.86540 0.50056
 C100 C 0.22876 0.89729 0.46369
 H101 H 0.18237 0.80647 0.51784
 H102 H 0.25274 0.92598 0.45651
 H103 H 0.10971 0.89127 0.40442
 H104 H 0.14892 0.84986 0.37326
 N105 N 0.14804 0.14964 0.14305
 N106 N 0.34943 0.84829 0.64839
 N107 N 0.89101 0.59766 0.38559
 N108 N 0.60851 0.39041 -0.11410
 C109 C 0.06603 0.18303 0.17192
 C110 C 0.06882 0.23762 0.16449
 C111 C 0.03388 0.23512 0.12554
 C112 C 0.03047 0.18075 0.13283
 C113 C 0.07315 0.22951 0.09027
 C114 C 0.10843 0.23188 0.12936
 C115 C 0.10525 0.17759 0.13643
 C116 C 0.07060 0.17451 0.09747
 H117 H 0.06150 0.16484 0.20583
 H118 H 0.06857 0.26326 0.19246
 H119 H -0.00207 0.16012 0.13429
 H120 H 0.07578 0.24907 0.05675
 H121 H 0.14082 0.25275 0.12846
 H122 H 0.07178 0.14808 0.07020
 C123 C 0.40054 0.78480 0.60252
 C124 C 0.44738 0.80777 0.58782
 C125 C 0.47145 0.77729 0.62522
 C126 C 0.42530 0.75417 0.63968
 C127 C 0.46397 0.81656 0.65987
 C128 C 0.43926 0.84770 0.62266
 C129 C 0.39343 0.82416 0.63731
 C130 C 0.41748 0.79351 0.67445
 H131 H 0.37563 0.77039 0.57835
 H132 H 0.46010 0.81328 0.55212
 H133 H 0.41986 0.71551 0.64667
 H134 H 0.49051 0.82922 0.68344
 H135 H 0.44457 0.88635 0.61561
 H136 H 0.40467 0.78763 0.71009
 C137 C 0.90179 0.69232 0.37094
 C138 C 0.93178 0.70877 0.41094
 C139 C 0.97254 0.71655 0.37739
 C140 C 0.94329 0.70079 0.33732
 C141 C 0.98959 0.66518 0.38654
 C142 C 0.94862 0.65689 0.42011
 C143 C 0.91921 0.64112 0.38024
 C144 C 0.96012 0.64872 0.34662
 H145 H 0.86550 0.70309 0.36436
 H146 H 0.92053 0.73385 0.43743
 H147 H 0.94138 0.71912 0.30319
 H148 H 1.02590 0.65424 0.39299
 H149 H 0.95081 0.63827 0.45408
 H150 H 0.97359 0.62536 0.31977
 C151 C 0.54662 0.34178 -0.16134
 C152 C 0.56554 0.29090 -0.17021
 C153 C 0.53218 0.27065 -0.13316
 C154 C 0.51315 0.32088 -0.12451
 C155 C 0.56879 0.27607 -0.09627
 C156 C 0.60284 0.29702 -0.13305
 C157 C 0.58315 0.34684 -0.12419
 C158 C 0.54973 0.32650 -0.08749
 H159 H 0.53626 0.36752 -0.18888
 H160 H 0.57166 0.27577 -0.20427
 H161 H 0.47606 0.33054 -0.12095
 H162 H 0.57747 0.24860 -0.06952
 H163 H 0.64002 0.28782 -0.13660
 H164 H 0.54338 0.34161 -0.05344
 C165 C 0.13689 0.10931 0.22376
 C166 C 0.09784 0.07196 0.22322
 C167 C 0.13428 0.03221 0.22933
 C168 C 0.17312 0.06922 0.23005
 C169 C 0.13980 0.02876 0.17723
 C170 C 0.10330 0.06930 0.17048
 C171 C 0.14233 0.10587 0.17175
 C172 C 0.17888 0.06619 0.17779
 H173 H 0.13613 0.14285 0.24269
 H174 H 0.06459 0.07397 0.24240
 H175 H 0.20213 0.06987 0.25432
 H176 H 0.14105 -0.00486 0.15845
 H177 H 0.07484 0.06985 0.14551
 H178 H 0.21267 0.06168 0.16029
 C179 C 0.57815 0.45187 -0.17571
 C180 C 0.60897 0.49642 -0.17593
 C181 C 0.62793 0.48376 -0.22339
 C182 C 0.59716 0.43941 -0.22365
 C183 C 0.66746 0.45449 -0.20157
 C184 C 0.64833 0.46695 -0.15361
 C185 C 0.61759 0.42256 -0.15400
 C186 C 0.63656 0.40934 -0.20113
 H187 H 0.54141 0.45083 -0.16445
 H188 H 0.59741 0.53195 -0.16474
 H189 H 0.57602 0.42857 -0.25277
 H190 H 0.70428 0.45601 -0.21250
 H191 H 0.66979 0.48002 -0.12578
 H192 H 0.64780 0.37315 -0.21075
 C193 C 0.36212 0.94265 0.65509
 C194 C 0.32377 0.95988 0.68841
 C195 C 0.36049 0.96729 0.72477
 C196 C 0.39893 0.95063 0.69213
 C197 C 0.35390 0.91611 0.74397
 C198 C 0.31715 0.90818 0.70741
 C199 C 0.35546 0.89166 0.67464
 C200 C 0.39222 0.89881 0.71118
 H201 H 0.36569 0.95323 0.61836
 H202 H 0.29558 0.98538 0.67949
 H203 H 0.43266 0.96840 0.68612
 H204 H 0.35046 0.90554 0.78074
 H205 H 0.28362 0.89010 0.71377
 H206 H 0.42079 0.87487 0.72222
 C207 C 0.87350 0.59740 0.29552
 C208 C 0.91310 0.56757 0.27414
 C209 C 0.87875 0.52745 0.26600
 C210 C 0.83902 0.55663 0.28677
 C211 C 0.88929 0.50409 0.31300
 C212 C 0.92372 0.54430 0.32157
 C213 C 0.88420 0.57365 0.34225
 C214 C 0.84973 0.53341 0.33443
 H215 H 0.86694 0.63598 0.28885
 H216 H 0.93918 0.58120 0.24889
 H217 H 0.80413 0.56134 0.27206
 H218 H 0.89583 0.46551 0.31980
 H219 H 0.95850 0.53912 0.33643
 H220 H 0.82322 0.51802 0.35812
 C221 C 0.18026 0.18028 0.06116
 C222 C 0.23311 0.17361 0.06304
 C223 C 0.22996 0.13313 0.02918
 C224 C 0.17726 0.13961 0.02684
 C225 C 0.22474 0.09611 0.06882
 C226 C 0.22775 0.13680 0.10300
 C227 C 0.17514 0.14307 0.10072
 C228 C 0.17143 0.10248 0.06725
 H229 H 0.16313 0.21540 0.05615
 H230 H 0.25822 0.20326 0.06184
 H231 H 0.15684 0.14080 -0.00495
 H232 H 0.24349 0.06155 0.07162
 H233 H 0.24846 0.13633 0.13460
 H234 H 0.14561 0.07349 0.06947
 C235 C 0.82502 0.56312 0.43864
 C236 C 0.81855 0.59533 0.47992
 C237 C 0.77154 0.61184 0.46115
 C238 C 0.77749 0.57968 0.42006
 C239 C 0.79449 0.65363 0.43437
 C240 C 0.84205 0.63695 0.45300
 C241 C 0.84774 0.60485 0.41174
 C242 C 0.80101 0.62144 0.39261
 H243 H 0.83824 0.52593 0.44055
 H244 H 0.82542 0.58453 0.51603
 H245 H 0.75056 0.55609 0.40690
 H246 H 0.78171 0.69099 0.43285
 H247 H 0.86747 0.66078 0.46814
 H248 H 0.79431 0.63233 0.35650
 C249 C 0.69913 0.37609 -0.09913
 C250 C 0.71276 0.41455 -0.06512
 C251 C 0.71796 0.37554 -0.02736
 C252 C 0.70484 0.33692 -0.06067
 C253 C 0.66716 0.38179 -0.01274
 C254 C 0.66155 0.42085 -0.05069
 C255 C 0.64852 0.38246 -0.08414
 C256 C 0.65335 0.34333 -0.04629
 H257 H 0.71188 0.37363 -0.13489
 H258 H 0.73754 0.44389 -0.07235
 H259 H 0.72297 0.30228 -0.06433
 H260 H 0.65432 0.38418 0.02301
 H261 H 0.64317 0.45529 -0.04664
 H262 H 0.62979 0.31362 -0.03694
 C263 C 0.29236 0.81404 0.58973
 C264 C 0.24869 0.84587 0.58760
 C265 C 0.26296 0.86314 0.53905
 C266 C 0.30639 0.83137 0.54069
 C267 C 0.28972 0.90491 0.55816
 C268 C 0.27566 0.88748 0.60726
 C269 C 0.31923 0.85574 0.60863
 C270 C 0.33387 0.87309 0.56031
 H271 H 0.29342 0.77666 0.60332
 H272 H 0.21347 0.83468 0.59862
 H273 H 0.31854 0.80827 0.51292
 H274 H 0.28823 0.94238 0.54486
 H275 H 0.26140 0.91093 0.63367
 H276 H 0.36915 0.88434 0.54960
   
