data_POSCAR
  _audit_creation_date              2014-09-24
  _audit_creation_method            'ToBaCCo'
  _symmetry_space_group_name_H-M    'P1'
  _symmetry_Int_Tables_number       1
  _symmetry_cell_setting            triclinic
  loop_
  _symmetry_equiv_pos_as_xyz
 x,y,z
_cell_length_a 19.0258
_cell_length_b 35.3082
_cell_length_c 17.0709
_cell_angle_alpha 90.028000
_cell_angle_beta 90.018000
_cell_angle_gamma 89.603000
loop_
  _atom_site_label
  _atom_site_type_symbol
  _atom_site_fract_x
  _atom_site_fract_y
  _atom_site_fract_z
C1 C 0.75156 0.35333 0.51102
 C2 C 0.75583 0.33460 0.58340
 C3 C 0.76079 0.29490 0.58366
 C4 C 0.75434 0.27361 0.51367
 C5 C 0.74259 0.29354 0.44284
 C6 C 0.74203 0.33333 0.44091
 C7 C 0.75763 0.23094 0.51498
 C8 C 0.77470 0.21004 0.44655
 C9 C 0.77832 0.17014 0.44743
 C10 C 0.76639 0.15129 0.51867
 C11 C 0.75372 0.17124 0.58808
 C12 C 0.74661 0.21067 0.58538
 H13 H 0.74911 0.38396 0.50977
 H14 H 0.76977 0.28110 0.63915
 H15 H 0.73187 0.27841 0.38918
 H16 H 0.78754 0.22466 0.39291
 H17 H 0.77176 0.12077 0.52162
 H18 H 0.73297 0.22494 0.63921
 C19 C 0.23223 0.84852 0.48317
 C20 C 0.22075 0.82966 0.55452
 C21 C 0.22456 0.78974 0.55544
 C22 C 0.24107 0.76894 0.48679
 C23 C 0.25164 0.78919 0.41631
 C24 C 0.24456 0.82861 0.41365
 C25 C 0.24476 0.72634 0.48772
 C26 C 0.23549 0.70540 0.41785
 C27 C 0.24308 0.66599 0.41677
 C28 C 0.25368 0.64675 0.48742
 C29 C 0.26399 0.66631 0.55827
 C30 C 0.26026 0.70623 0.55752
 H31 H 0.22680 0.87904 0.48023
 H32 H 0.21248 0.77499 0.60918
 H33 H 0.26505 0.77484 0.36245
 H34 H 0.22310 0.71926 0.36317
 H35 H 0.25920 0.61622 0.48585
 H36 H 0.27153 0.72149 0.61090
 C37 C 0.26511 0.34859 -0.51371
 C38 C 0.25509 0.32940 -0.58444
 C39 C 0.24692 0.29005 -0.58337
 C40 C 0.25438 0.26911 -0.51306
 C41 C 0.26875 0.28924 -0.44307
 C42 C 0.27293 0.32901 -0.44279
 C43 C 0.24948 0.22656 -0.51356
 C44 C 0.23200 0.20618 -0.44482
 C45 C 0.22691 0.16633 -0.44544
 C46 C 0.23803 0.14713 -0.51661
 C47 C 0.25128 0.16668 -0.58619
 C48 C 0.25975 0.20595 -0.58377
 H49 H 0.27177 0.37901 -0.51482
 H50 H 0.23514 0.27631 -0.63826
 H51 H 0.27855 0.27425 -0.38896
 H52 H 0.22011 0.22121 -0.39124
 H53 H 0.23158 0.11671 -0.51938
 H54 H 0.27387 0.21991 -0.63768
 C55 C -0.23926 0.85294 -0.48263
 C56 C -0.22825 0.83382 -0.55391
 C57 C -0.23308 0.79397 -0.55472
 C58 C -0.25014 0.77348 -0.48604
 C59 C -0.26025 0.79398 -0.41563
 C60 C -0.25208 0.83328 -0.41305
 C61 C -0.25462 0.73092 -0.48686
 C62 C -0.24653 0.70991 -0.41677
 C63 C -0.25428 0.67054 -0.41590
 C64 C -0.26442 0.65141 -0.48668
 C65 C -0.27282 0.67107 -0.55745
 C66 C -0.26913 0.71086 -0.55691
 H67 H -0.23301 0.88336 -0.47977
 H68 H -0.22126 0.77902 -0.60842
 H69 H -0.27401 0.77991 -0.36173
 H70 H -0.23464 0.72361 -0.36187
 H71 H -0.27072 0.62097 -0.48571
 H72 H -0.27939 0.72590 -0.61085
 N73 N 0.05604 0.95881 -0.14601
 N74 N 0.09091 0.95008 -0.21023
 N75 N -0.08454 0.93252 -0.07381
 N76 N -0.12655 0.90429 -0.09347
 N77 N -0.09096 0.96045 -0.12423
 N78 N -0.13853 0.95238 -0.17755
 N79 N 0.06116 0.93127 -0.09449
 N80 N 0.09873 0.90280 -0.12332
 C81 C 0.11817 0.91545 -0.19496
 C82 C -0.16137 0.91769 -0.15714
 N83 N -0.05856 0.95973 0.14695
 N84 N -0.09384 0.95165 0.21108
 N85 N 0.08095 0.93091 0.07460
 N86 N 0.12186 0.90189 0.09411
 N87 N 0.08846 0.95868 0.12513
 N88 N 0.13572 0.94970 0.17839
 N89 N -0.06474 0.93234 0.09530
 N90 N -0.10349 0.90459 0.12395
 Mn91 Mn -0.00180 0.93145 0.00039
 C92 C -0.12247 0.91758 0.19563
 C93 C 0.15720 0.91461 0.15782
 N94 N -0.08947 1.04136 -0.12393
 N95 N -0.13689 1.05029 -0.17704
 N96 N 0.06365 1.06776 -0.09417
 N97 N 0.10212 1.09560 -0.12298
 N98 N 0.05755 1.04034 -0.14579
 N99 N 0.09261 1.04850 -0.21004
 N100 N -0.08203 1.06911 -0.07332
 N101 N -0.12315 1.09807 -0.09265
 Mn102 Mn -0.01664 1.00024 -0.13513
 C103 C -0.15854 1.08533 -0.15631
 C104 C 0.12103 1.08264 -0.19472
 N105 N 0.08998 1.03957 0.12537
 N106 N 0.13770 1.04759 0.17855
 N107 N -0.06216 1.06878 0.09584
 N108 N -0.09963 1.09725 0.12486
 N109 N -0.05700 1.04120 0.14728
 N110 N -0.09174 1.04990 0.21161
 N111 N 0.08354 1.06751 0.07496
 N112 N 0.12572 1.09569 0.09448
 Mn113 Mn 0.01567 0.99980 0.13632
 Mn114 Mn 0.00076 1.06860 0.00083
 Cl115 Cl -0.00051 1.00002 0.00060
 C116 C 0.16062 1.08225 0.15805
 C117 C -0.11896 1.08455 0.19653
 N118 N 0.57637 0.56912 -0.07859
 N119 N 0.61762 0.59760 -0.09854
 N120 N 0.43431 0.54009 -0.14334
 N121 N 0.39685 0.54829 -0.20600
 N122 N 0.42996 0.56767 -0.09179
 N123 N 0.39040 0.59569 -0.11925
 N124 N 0.58207 0.54146 -0.12975
 N125 N 0.62833 0.54994 -0.18415
 C126 C 0.65109 0.58464 -0.16348
 C127 C 0.36883 0.58263 -0.18987
 N128 N 0.43684 0.43103 -0.09209
 N129 N 0.39923 0.40241 -0.11903
 N130 N 0.58612 0.46062 -0.13011
 N131 N 0.63232 0.45310 -0.18533
 N132 N 0.58331 0.43269 -0.07940
 N133 N 0.62668 0.40497 -0.10058
 N134 N 0.43839 0.45867 -0.14358
 N135 N 0.40088 0.44991 -0.20576
 Mn136 Mn 0.51014 0.50021 -0.13684
 C137 C 0.37584 0.41512 -0.18929
 C138 C 0.65822 0.41875 -0.16581
 N139 N 0.41756 0.56728 0.07812
 N140 N 0.37382 0.59494 0.09834
 N141 N 0.56236 0.54136 0.14280
 N142 N 0.59967 0.55017 0.20509
 N143 N 0.56394 0.56899 0.09128
 N144 N 0.60137 0.59765 0.11835
 N145 N 0.41459 0.53952 0.12922
 N146 N 0.36780 0.54713 0.18388
 Mn147 Mn 0.49694 0.56859 -0.00023
 C148 C 0.34179 0.58137 0.16338
 C149 C 0.62462 0.58498 0.18870
 N150 N 0.57103 0.43245 0.09051
 N151 N 0.61182 0.40473 0.11690
 N152 N 0.41878 0.45853 0.12891
 N153 N 0.37269 0.44997 0.18344
 N154 N 0.42461 0.43085 0.07780
 N155 N 0.38362 0.40228 0.09795
 N156 N 0.56661 0.45989 0.14237
 N157 N 0.60530 0.45191 0.20426
 Mn158 Mn 0.50397 0.43142 -0.00078
 Mn159 Mn 0.49063 0.49982 0.13605
 Cl160 Cl 0.50041 0.50001 -0.00044
 C161 C 0.63407 0.41782 0.18719
 C162 C 0.35017 0.41521 0.16294
 N163 N 0.25647 0.38867 0.34054
 C164 C 0.26349 0.35040 0.34102
 N165 N 0.29122 0.33311 0.27668
 N166 N 0.31408 0.35350 0.21607
 C167 C 0.30984 0.39190 0.21770
 N168 N 0.27925 0.40897 0.28025
 N169 N -0.20057 0.89280 0.38406
 C170 C -0.20784 0.85460 0.37925
 N171 N -0.19132 0.83735 0.31018
 N172 N -0.16680 0.85739 0.24979
 C173 C -0.15817 0.89544 0.25621
 N174 N -0.17605 0.91272 0.32417
 N175 N 0.68553 0.66674 0.30436
 C176 C 0.70838 0.64936 0.37093
 N177 N 0.70842 0.61092 0.37338
 N178 N 0.68470 0.59068 0.31349
 C179 C 0.66039 0.60793 0.24800
 N180 N 0.66188 0.64638 0.24393
 N181 N 0.25341 1.10802 0.33664
 C182 C 0.24531 1.14622 0.33833
 N183 N 0.21792 1.16379 0.27416
 N184 N 0.19613 1.14370 0.21261
 C185 C 0.20120 1.10532 0.21305
 N186 N 0.23173 1.08801 0.27536
 N187 N 0.74413 0.39384 -0.34926
 C188 C 0.74630 0.35542 -0.34676
 N189 N 0.72833 0.33804 -0.27839
 N190 N 0.70484 0.35819 -0.21737
 C191 C 0.69947 0.39650 -0.22221
 N192 N 0.72127 0.41389 -0.28848
 N193 N 0.18410 0.83395 -0.30952
 C194 C 0.20102 0.85084 -0.37869
 N195 N 0.19491 0.88914 -0.38360
 N196 N 0.17114 0.90954 -0.32372
 C197 C 0.15289 0.89264 -0.25565
 N198 N 0.16034 0.85446 -0.24914
 N199 N 0.28819 0.60737 -0.37713
 C200 C 0.28315 0.64575 -0.37392
 N201 N 0.30126 0.66327 -0.30574
 N202 N 0.32555 0.64326 -0.24489
 C203 C 0.33219 0.60497 -0.24990
 N204 N 0.31238 0.58748 -0.31679
 N205 N -0.21268 1.16789 -0.27236
 C206 C -0.24112 1.15081 -0.33633
 N207 N -0.25095 1.11280 -0.33443
 N208 N -0.22993 1.09243 -0.27320
 C209 C -0.19836 1.10917 -0.21111
 N210 N -0.19156 1.14743 -0.21084
 N211 N 0.71020 0.66673 -0.27690
 C212 C 0.73767 0.64948 -0.34142
 N213 N 0.74460 0.61121 -0.34111
 N214 N 0.72192 0.59087 -0.28083
 C215 C 0.69154 0.60791 -0.21813
 N216 N 0.68745 0.64631 -0.21631
 N217 N 0.19895 1.10741 -0.38329
 C218 C 0.20626 1.14561 -0.37857
 N219 N 0.18971 1.16290 -0.30953
 N220 N 0.16517 1.14288 -0.24911
 C221 C 0.15654 1.10482 -0.25544
 N222 N 0.17441 1.08752 -0.32338
 N223 N 0.31449 0.33339 -0.30461
 C224 C 0.29168 0.35075 -0.37121
 N225 N 0.29175 0.38918 -0.37377
 N226 N 0.31558 0.40944 -0.31396
 C227 C 0.33989 0.39220 -0.24846
 N228 N 0.33825 0.35376 -0.24427
 N229 N -0.21838 0.83612 -0.27346
 C230 C -0.24598 0.85370 -0.33752
 N231 N -0.25424 0.89189 -0.33569
 N232 N -0.23254 0.91189 -0.27442
 C233 C -0.20183 0.89459 -0.21221
 N234 N -0.19658 0.85621 -0.21190
 N235 N 0.27725 0.66258 0.27728
 C236 C 0.25148 0.64500 0.34203
 N237 N 0.24725 0.60665 0.34169
 N238 N 0.27101 0.58660 0.28122
 C239 C 0.29978 0.60402 0.21831
 N240 N 0.30103 0.64245 0.21648
 N241 N -0.19552 1.11068 0.38545
 C242 C -0.20172 1.14898 0.38065
 N243 N -0.18483 1.16593 0.31152
 N244 N -0.16108 1.14548 0.25105
 C245 C -0.15358 1.10730 0.25741
 N246 N -0.17175 1.09035 0.32546
 N247 N 0.72177 0.39323 0.37069
 C248 C 0.72347 0.35478 0.36870
 N249 N 0.70090 0.33707 0.30256
 N250 N 0.67581 0.35708 0.24218
 C251 C 0.67237 0.39550 0.24589
 N252 N 0.69652 0.41314 0.31085
 N253 N 0.21089 0.83201 0.27408
 C254 C 0.23927 0.84907 0.33810
 N255 N 0.24914 0.88708 0.33624
 N256 N 0.22825 0.90746 0.27496
 C257 C 0.19677 0.89073 0.21280
 N258 N 0.18989 0.85248 0.21253
   
