data_POSCAR
  _audit_creation_date              2014-09-24
  _audit_creation_method            'ToBaCCo'
  _symmetry_space_group_name_H-M    'P1'
  _symmetry_Int_Tables_number       1
  _symmetry_cell_setting            triclinic
  loop_
  _symmetry_equiv_pos_as_xyz
 x,y,z
_cell_length_a 34.9709
_cell_length_b 34.9041
_cell_length_c 34.8457
_cell_angle_alpha 90.002500
_cell_angle_beta 90.551100
_cell_angle_gamma 89.924100
loop_
  _atom_site_label
  _atom_site_type_symbol
  _atom_site_fract_x
  _atom_site_fract_y
  _atom_site_fract_z
C1 C 0.71496 0.68418 0.94875
 H2 H 0.74091 0.68390 0.93209
 C3 C 0.68286 0.70407 0.93514
 H4 H 0.68459 0.71888 0.90792
 C5 C 0.68026 0.66198 1.00233
 H6 H 0.67868 0.64465 1.02789
 C7 C 0.64778 0.68190 0.99014
 H8 H 0.62211 0.68030 1.00718
 N9 N 0.71276 0.66260 0.98117
 C10 C 0.82667 0.63337 1.02463
 H11 H 0.82111 0.60388 1.03206
 C12 C 0.86122 0.64996 1.03573
 H13 H 0.88213 0.63282 1.05115
 C14 C 0.80469 0.69233 0.99892
 H15 H 0.78237 0.70886 0.98509
 C16 C 0.83884 0.71030 1.01004
 H17 H 0.84263 0.74057 1.00446
 Zn18 Zn 0.75312 0.62820 0.99448
 N19 N 0.79935 0.65440 1.00620
 C20 C 0.79229 0.56991 0.95431
 N21 N 0.76147 0.59368 0.95287
 C22 C 0.73871 0.59522 0.92095
 C23 C 0.74841 0.57479 0.88792
 C24 C 0.80303 0.54904 0.92202
 C25 C 0.73908 0.62256 1.07215
 C26 C 0.72512 0.60705 1.10604
 C27 C 0.71307 0.54786 1.07220
 C28 C 0.72728 0.56476 1.03886
 N29 N 0.73902 0.60174 1.03932
 H30 H 0.80961 0.56816 0.97997
 H31 H 0.71351 0.61310 0.92053
 H32 H 0.73059 0.57736 0.86247
 H33 H 0.82903 0.53221 0.92333
 H34 H 0.74844 0.65209 1.07153
 H35 H 0.72351 0.62641 1.13009
 H36 H 0.70510 0.51807 1.07017
 H37 H 0.72808 0.54859 1.01240
 C38 C 0.86761 0.68892 1.02866
 C39 C 0.64827 0.70217 0.95536
 C40 C 0.71046 0.56917 1.10686
 C41 C 0.78165 0.55221 0.88782
 C42 C 0.71542 0.32317 0.52523
 H43 H 0.74398 0.31535 0.53455
 C44 C 0.68382 0.30412 0.54012
 H45 H 0.68814 0.28132 0.56080
 C46 C 0.67483 0.36396 0.48864
 H47 H 0.67141 0.38837 0.46985
 C48 C 0.64246 0.34535 0.50242
 H49 H 0.61432 0.35543 0.49395
 N50 N 0.71036 0.35291 0.50053
 C51 C 0.79337 0.32485 0.44559
 H52 H 0.76740 0.32269 0.42893
 C53 C 0.82523 0.30356 0.43456
 H54 H 0.82340 0.28637 0.40875
 C55 C 0.82750 0.35017 0.49872
 H56 H 0.82832 0.36779 0.52412
 C57 C 0.86003 0.32925 0.48880
 H58 H 0.88551 0.33145 0.50656
 Zn59 Zn 0.75339 0.38225 0.48688
 N60 N 0.79541 0.34889 0.47627
 C61 C 0.79821 0.43698 0.52681
 N62 N 0.76647 0.41462 0.52893
 C63 C 0.74598 0.41238 0.56188
 C64 C 0.75884 0.43074 0.59518
 C65 C 0.81223 0.45559 0.55948
 C66 C 0.72528 0.39221 0.41229
 C67 C 0.71277 0.41166 0.37967
 C68 C 0.73172 0.47117 0.40954
 C69 C 0.74411 0.45044 0.44173
 N70 N 0.74064 0.41159 0.44257
 H71 H 0.81397 0.43842 0.50028
 H72 H 0.72056 0.39490 0.56298
 H73 H 0.74340 0.42677 0.62167
 H74 H 0.83856 0.47176 0.55776
 H75 H 0.72060 0.36176 0.41419
 H76 H 0.69928 0.39559 0.35667
 H77 H 0.73421 0.50209 0.40946
 H78 H 0.75558 0.46556 0.46629
 C79 C 0.85953 0.30640 0.45565
 C80 C 0.64681 0.31572 0.52922
 C81 C 0.71560 0.45168 0.37806
 C82 C 0.79314 0.45149 0.59453
 C83 C 0.21895 -0.17623 0.03290
 H84 H 0.24659 -0.17996 0.04663
 C85 C 0.18729 -0.19582 0.04693
 H86 H 0.19094 -0.21507 0.07106
 C87 C 0.18032 -0.14537 -0.01400
 H88 H 0.17747 -0.12522 -0.03735
 C89 C 0.14786 -0.16442 -0.00090
 H90 H 0.12034 -0.15831 -0.01405
 N91 N 0.21471 -0.15034 0.00400
 C92 C 0.33233 -0.12594 -0.03091
 H93 H 0.33156 -0.09508 -0.03139
 C94 C 0.36542 -0.14480 -0.04244
 H95 H 0.38957 -0.12789 -0.05168
 C96 C 0.30065 -0.18506 -0.02180
 H97 H 0.27511 -0.20075 -0.01467
 C98 C 0.33336 -0.20518 -0.03292
 H99 H 0.33269 -0.23618 -0.03342
 Zn100 Zn 0.25620 -0.11731 -0.00810
 N101 N 0.30067 -0.14606 -0.02095
 C102 C 0.29256 -0.05584 0.03078
 N103 N 0.26741 -0.08522 0.03489
 C104 C 0.25163 -0.09287 0.06963
 C105 C 0.26366 -0.07316 0.10238
 C106 C 0.30524 -0.03517 0.06280
 C107 C 0.25516 -0.09603 -0.08585
 C108 C 0.24138 -0.07727 -0.11846
 C109 C 0.20154 -0.03837 -0.07783
 C110 C 0.21645 -0.05781 -0.04597
 N111 N 0.24194 -0.08671 -0.05062
 H112 H 0.30330 -0.04870 0.00274
 H113 H 0.23055 -0.11508 0.07255
 H114 H 0.25235 -0.08153 0.12994
 H115 H 0.32599 -0.01253 0.05898
 H116 H 0.27568 -0.11897 -0.08894
 H117 H 0.25406 -0.08539 -0.14537
 H118 H 0.17932 -0.01773 -0.07212
 H119 H 0.20622 -0.05113 -0.01753
 C120 C 0.36629 -0.18499 -0.04377
 C121 C 0.15093 -0.18888 0.03091
 C122 C 0.21266 -0.04869 -0.11556
 C123 C 0.29173 -0.04467 0.09944
 C124 C 0.21219 0.18729 0.45615
 H125 H 0.23819 0.18748 0.43957
 C126 C 0.17979 0.20656 0.44238
 H127 H 0.18141 0.22136 0.41516
 C128 C 0.17769 0.16431 0.50954
 H129 H 0.17654 0.14704 0.53522
 C130 C 0.14485 0.18361 0.49717
 H131 H 0.11912 0.18147 0.51405
 N132 N 0.21010 0.16526 0.48826
 C133 C 0.32459 0.13464 0.52983
 H134 H 0.31966 0.10474 0.53594
 C135 C 0.35923 0.15122 0.54078
 H136 H 0.38079 0.13369 0.55478
 C137 C 0.30121 0.19440 0.50747
 H138 H 0.27837 0.21121 0.49491
 C139 C 0.33541 0.21231 0.51843
 H140 H 0.33869 0.24283 0.51399
 Zn141 Zn 0.25024 0.13029 0.50045
 N142 N 0.29651 0.15611 0.51315
 C143 C 0.28895 0.07298 0.45823
 N144 N 0.25856 0.09735 0.45759
 C145 C 0.23581 0.10031 0.42577
 C146 C 0.24546 0.08130 0.39194
 C147 C 0.29952 0.05328 0.42513
 C148 C 0.24159 0.11679 0.57888
 C149 C 0.22681 0.09909 0.61138
 C150 C 0.19979 0.04991 0.57051
 C151 C 0.21536 0.06843 0.53875
 N152 N 0.23537 0.10147 0.54349
 H153 H 0.30606 0.06987 0.48390
 H154 H 0.21068 0.11824 0.42603
 H155 H 0.22791 0.08528 0.36648
 H156 H 0.32520 0.03592 0.42572
 H157 H 0.25685 0.14359 0.58170
 H158 H 0.23088 0.11243 0.63918
 H159 H 0.18322 0.02404 0.56628
 H160 H 0.21035 0.05724 0.51020
 C161 C 0.36495 0.19055 0.53527
 C162 C 0.14507 0.20370 0.46225
 C163 C 0.20496 0.06563 0.60732
 C164 C 0.27845 0.05845 0.39103
 C165 C 0.17595 0.44594 0.21194
 H166 H 0.17493 0.43075 0.23896
 C167 C 0.19643 0.43045 0.18140
 H168 H 0.21181 0.40379 0.18548
 C169 C 0.15490 0.49751 0.17286
 H170 H 0.13758 0.52287 0.16904
 C171 C 0.17514 0.48314 0.14166
 H172 H 0.17306 0.49769 0.11427
 N173 N 0.15488 0.47838 0.20692
 C174 C 0.12483 0.52922 0.31640
 H175 H 0.09604 0.53766 0.30860
 C176 C 0.14092 0.54274 0.35044
 H177 H 0.12415 0.56109 0.36888
 C178 C 0.18220 0.49674 0.30097
 H179 H 0.19847 0.47952 0.28124
 C180 C 0.19942 0.50946 0.33516
 H181 H 0.22891 0.50207 0.34143
 Zn182 Zn 0.12004 0.49382 0.24561
 N183 N 0.14549 0.50687 0.29226
 C184 C 0.06357 0.45437 0.28713
 N185 N 0.08545 0.45302 0.25512
 C186 C 0.08600 0.42122 0.23249
 C187 C 0.06659 0.38810 0.24351
 C188 C 0.04370 0.42196 0.29918
 C189 C 0.11563 0.57069 0.22823
 C190 C 0.10067 0.60463 0.21351
 C191 C 0.04106 0.57186 0.20065
 C192 C 0.05722 0.53832 0.21592
 N193 N 0.09416 0.53830 0.22855
 H194 H 0.06306 0.47990 0.30455
 H195 H 0.10264 0.42092 0.20655
 H196 H 0.06854 0.36264 0.22588
 H197 H 0.02853 0.42304 0.32610
 H198 H 0.14487 0.56981 0.23863
 H199 H 0.11852 0.62996 0.21312
 H200 H 0.01217 0.57122 0.18921
 H201 H 0.04077 0.51211 0.21652
 C202 C 0.17880 0.53331 0.35995
 C203 C 0.19525 0.44854 0.14539
 C204 C 0.06327 0.60534 0.19854
 C205 C 0.04616 0.38782 0.27798
 C206 C -0.17834 0.02924 0.22299
 H207 H -0.17960 0.04450 0.24998
 C208 C -0.19910 0.04274 0.19133
 H209 H -0.21554 0.06865 0.19523
 C210 C -0.15154 -0.02031 0.18558
 H211 H -0.13268 -0.04472 0.18328
 C212 C -0.17162 -0.00773 0.15309
 H213 H -0.16854 -0.02399 0.12690
 N214 N -0.15439 -0.00116 0.21942
 C215 C -0.12629 -0.04655 0.33336
 H216 H -0.09609 -0.05152 0.32931
 C217 C -0.14358 -0.05932 0.36688
 H218 H -0.12628 -0.07382 0.38834
 C219 C -0.18576 -0.02460 0.30883
 H220 H -0.20223 -0.01150 0.28600
 C221 C -0.20429 -0.03699 0.34203
 H222 H -0.23486 -0.03284 0.34449
 Zn223 Zn -0.12039 -0.01365 0.26054
 N224 N -0.14730 -0.02926 0.30522
 C225 C -0.06882 0.03126 0.30508
 N226 N -0.08993 0.03026 0.27211
 C227 C -0.09117 0.06106 0.24812
 C228 C -0.07276 0.09518 0.25813
 C229 C -0.05000 0.06479 0.31621
 C230 C -0.10113 -0.09104 0.25053
 C231 C -0.08167 -0.12186 0.23429
 C232 C -0.03738 -0.07705 0.20613
 C233 C -0.05750 -0.04706 0.22322
 N234 N -0.08902 -0.05454 0.24447
 H235 H -0.06747 0.00654 0.32356
 H236 H -0.10693 0.05953 0.22138
 H237 H -0.07476 0.11954 0.23898
 H238 H -0.03499 0.06539 0.34352
 H239 H -0.12691 -0.09615 0.26662
 H240 H -0.09262 -0.15059 0.23815
 H241 H -0.01293 -0.07064 0.18842
 H242 H -0.04894 -0.01772 0.21829
 C243 C -0.18310 -0.05459 0.37166
 C244 C -0.19518 0.02508 0.15501
 C245 C -0.04989 -0.11497 0.21103
 C246 C -0.05257 0.09765 0.29304
 C247 C 0.32562 0.53699 0.71225
 H248 H 0.32326 0.55300 0.73871
 C249 C 0.30601 0.54942 0.67942
 H250 H 0.28860 0.57502 0.68114
 C251 C 0.35376 0.48619 0.67736
 H252 H 0.37288 0.46189 0.67641
 C253 C 0.33457 0.49755 0.64388
 H254 H 0.33874 0.48141 0.61771
 N255 N 0.34974 0.50647 0.71047
 C256 C 0.37435 0.46500 0.82687
 H257 H 0.40476 0.46055 0.82412
 C258 C 0.35611 0.45239 0.85990
 H259 H 0.37293 0.43886 0.88237
 C260 C 0.31527 0.48435 0.79933
 H261 H 0.29936 0.49628 0.77545
 C262 C 0.29573 0.47184 0.83194
 H263 H 0.26492 0.47464 0.83294
 Zn264 Zn 0.38234 0.49519 0.75315
 N265 N 0.35399 0.48088 0.79743
 C266 C 0.43466 0.53984 0.79690
 N267 N 0.41282 0.53924 0.76441
 C268 C 0.41113 0.57035 0.74083
 C269 C 0.42969 0.60439 0.75092
 C270 C 0.45359 0.57323 0.80812
 C271 C 0.40185 0.41742 0.74752
 C272 C 0.42140 0.38580 0.73303
 C273 C 0.46577 0.42908 0.70273
 C274 C 0.44559 0.45993 0.71815
 N275 N 0.41393 0.45356 0.73955
 H276 H 0.43665 0.51484 0.81491
 H277 H 0.39497 0.56916 0.71432
 H278 H 0.42733 0.62898 0.73211
 H279 H 0.46913 0.57342 0.83514
 H280 H 0.37596 0.41310 0.76364
 H281 H 0.41041 0.35730 0.73825
 H282 H 0.49020 0.43454 0.68467
 H283 H 0.45414 0.48897 0.71170
 C284 C 0.31627 0.45558 0.86278
 C285 C 0.31097 0.53011 0.64437
 C286 C 0.45319 0.39149 0.70950
 C287 C 0.45055 0.60642 0.78547
 C288 C 0.68380 0.95138 0.72191
 H289 H 0.68123 0.93719 0.74934
 C290 C 0.70378 0.93350 0.69235
 H291 H 0.71741 0.90611 0.69769
 C292 C 0.66644 1.00253 0.68057
 H293 H 0.65054 1.02856 0.67539
 C294 C 0.68622 0.98573 0.65029
 H295 H 0.68526 0.99924 0.62232
 N296 N 0.66482 0.98483 0.71533
 C297 C 0.63483 1.04541 0.81899
 H298 H 0.60771 1.05615 0.80837
 C299 C 0.64983 1.05980 0.85315
 H300 H 0.63306 1.08088 0.86832
 C301 C 0.68715 1.00299 0.81262
 H302 H 0.70181 0.98113 0.79652
 C303 C 0.70301 1.01613 0.84732
 H304 H 0.73021 1.00439 0.85661
 Zn305 Zn 0.62943 1.00259 0.75248
 N306 N 0.65372 1.01798 0.79906
 C307 C 0.57714 0.96181 0.79750
 N308 N 0.59497 0.96237 0.76303
 C309 C 0.59148 0.93271 0.73789
 C310 C 0.57125 0.89982 0.74805
 C311 C 0.55650 0.92961 0.80874
 C312 C 0.62422 1.07807 0.72878
 C313 C 0.60796 1.11100 0.71314
 C314 C 0.54786 1.07736 0.70673
 C315 C 0.56538 1.04484 0.72266
 N316 N 0.60309 1.04569 0.73263
 H317 H 0.58034 0.98566 0.81702
 H318 H 0.60548 0.93397 0.71040
 H319 H 0.56974 0.87599 0.72821
 H320 H 0.54421 0.92897 0.83714
 H321 H 0.65402 1.07800 0.73739
 H322 H 0.62546 1.13636 0.70995
 H323 H 0.51819 1.07603 0.69767
 H324 H 0.54915 1.01876 0.72628
 C325 C 0.68480 1.04570 0.86796
 C326 C 0.70416 0.95014 0.65564
 C327 C 0.56952 1.11074 0.70116
 C328 C 0.55426 0.89764 0.78431
 C329 C 0.03378 0.20783 -0.16865
 H330 H 0.04975 0.23432 -0.16828
 C331 C 0.04743 0.17659 -0.18939
 H332 H 0.07422 0.17940 -0.20444
 C333 C -0.01924 0.17163 -0.14748
 H334 H -0.04518 0.16982 -0.13100
 C335 C -0.00667 0.13963 -0.16797
 H336 H -0.02325 0.11348 -0.16716
 N337 N 0.00149 0.20460 -0.14755
 C338 C -0.03338 0.32207 -0.12592
 H339 H -0.02726 0.32341 -0.09546
 C340 C -0.04564 0.35479 -0.14533
 H341 H -0.04948 0.38118 -0.12947
 C342 C -0.03649 0.28555 -0.18326
 H343 H -0.03274 0.25845 -0.19778
 C344 C -0.04927 0.31764 -0.20380
 H345 H -0.05531 0.31508 -0.23423
 Zn346 Zn -0.01132 0.24629 -0.11538
 N347 N -0.02905 0.28835 -0.14498
 C348 C 0.05389 0.29062 -0.10820
 N349 N 0.03418 0.26266 -0.08973
 C350 C 0.04780 0.24718 -0.05639
 C351 C 0.08207 0.26061 -0.04004
 C352 C 0.08761 0.30518 -0.09268
 C353 C -0.08519 0.24933 -0.08398
 C354 C -0.11678 0.23592 -0.06396
 C355 C -0.07703 0.18626 -0.03669
 C356 C -0.04619 0.20065 -0.05751
 N357 N -0.05086 0.23127 -0.08116
 H358 H 0.04356 0.30167 -0.13534
 H359 H 0.03226 0.22459 -0.04234
 H360 H 0.09249 0.24855 -0.01329
 H361 H 0.10259 0.32772 -0.10771
 H362 H -0.08876 0.27358 -0.10286
 H363 H -0.14286 0.25233 -0.06683
 H364 H -0.07190 0.16028 -0.02062
 H365 H -0.01910 0.18573 -0.05662
 C366 C -0.05388 0.35282 -0.18474
 C367 C 0.02752 0.14163 -0.18872
 C368 C -0.11396 0.20285 -0.04056
 C369 C 0.10194 0.29038 -0.05811
 C370 C 0.45410 0.22424 0.18813
 H371 H 0.43921 0.25141 0.18725
 C372 C 0.43786 0.19319 0.20724
 H373 H 0.41084 0.19694 0.22171
 C374 C 0.50572 0.18544 0.16771
 H375 H 0.53142 0.18209 0.15108
 C376 C 0.49059 0.15370 0.18664
 H377 H 0.50484 0.12625 0.18429
 N378 N 0.48667 0.21949 0.16763
 C379 C 0.53142 0.33197 0.13588
 H380 H 0.53830 0.32589 0.10635
 C381 C 0.54206 0.36703 0.15178
 H382 H 0.55661 0.38784 0.13409
 C383 C 0.50731 0.31095 0.19557
 H384 H 0.49423 0.28884 0.21266
 C385 C 0.51808 0.34557 0.21286
 H386 H 0.51301 0.34993 0.24316
 Zn387 Zn 0.50125 0.25823 0.13235
 N388 N 0.51384 0.30494 0.15757
 C389 C 0.45942 0.29784 0.07418
 N390 N 0.45970 0.26642 0.09728
 C391 C 0.42941 0.24192 0.09757
 C392 C 0.39620 0.25025 0.07656
 C393 C 0.42685 0.30724 0.05269
 C394 C 0.57956 0.24543 0.12352
 C395 C 0.61228 0.22958 0.10727
 C396 C 0.57310 0.20565 0.05500
 C397 C 0.54116 0.22232 0.07207
 N398 N 0.54491 0.24125 0.10598
 H399 H 0.48378 0.31665 0.07344
 H400 H 0.43046 0.21625 0.11481
 H401 H 0.37201 0.23102 0.07818
 H402 H 0.42660 0.33362 0.03635
 H403 H 0.58157 0.26008 0.15082
 H404 H 0.63943 0.23206 0.12225
 H405 H 0.56961 0.18987 0.02844
 H406 H 0.51318 0.21903 0.05900
 C407 C 0.53550 0.37417 0.19074
 C408 C 0.45542 0.15702 0.20537
 C409 C 0.60911 0.20871 0.07299
 C410 C 0.39422 0.28393 0.05465
 C411 C 0.95879 0.70638 0.69065
 H412 H 0.94233 0.73265 0.69037
 C413 C 0.94500 0.67436 0.71023
 H414 H 0.91794 0.67653 0.72490
 C415 C 1.01164 0.67065 0.66815
 H416 H 1.03697 0.66878 0.65078
 C417 C 0.99922 0.63818 0.68771
 H418 H 1.01575 0.61202 0.68572
 N419 N 0.99064 0.70348 0.66872
 C420 C 1.03523 0.81437 0.63439
 H421 H 1.04138 0.80698 0.60498
 C422 C 1.04873 0.84879 0.64923
 H423 H 1.06435 0.86802 0.63071
 C424 C 1.00896 0.79747 0.69449
 H425 H 0.99400 0.77704 0.71212
 C426 C 1.02198 0.83194 0.71061
 H427 H 1.01714 0.83776 0.74070
 Zn428 Zn 1.00230 0.74261 0.63273
 N429 N 1.01588 0.78939 0.65694
 C430 C 0.95909 0.78181 0.57622
 N431 N 0.95912 0.75093 0.60000
 C432 C 0.92792 0.72777 0.60236
 C433 C 0.89411 0.73714 0.58282
 C434 C 0.92600 0.79215 0.55607
 C435 C 1.07999 0.73007 0.62014
 C436 C 1.11226 0.71667 0.60114
 C437 C 1.07141 0.69674 0.54845
 C438 C 1.03991 0.71104 0.56826
 N439 N 1.04473 0.72678 0.60365
 H440 H 0.98420 0.79950 0.57397
 H441 H 0.92873 0.70247 0.62015
 H442 H 0.86917 0.71913 0.58613
 H443 H 0.92607 0.81815 0.53913
 H444 H 1.08288 0.74238 0.64850
 H445 H 1.13998 0.71847 0.61513
 H446 H 1.06717 0.68339 0.52069
 H447 H 1.01152 0.70858 0.55593
 C448 C 1.04270 0.85773 0.68791
 C449 C 0.96450 0.63920 0.70761
 C450 C 1.10806 0.69916 0.56515
 C451 C 0.89256 0.77037 0.56020
 C452 C 0.53740 0.72332 0.32876
 H453 H 0.55297 0.75006 0.33012
 C454 C 0.55234 0.69233 0.30835
 H455 H 0.57961 0.69558 0.29429
 C456 C 0.48442 0.68599 0.34803
 H457 H 0.45839 0.68327 0.36419
 C458 C 0.49812 0.65443 0.32771
 H459 H 0.48189 0.62805 0.32794
 N460 N 0.50435 0.71944 0.34859
 C461 C 0.45887 0.83295 0.37423
 H462 H 0.45804 0.83058 0.40517
 C463 C 0.44712 0.86677 0.35644
 H464 H 0.43616 0.88943 0.37446
 C465 C 0.47267 0.80471 0.31420
 H466 H 0.48303 0.78048 0.29798
 C467 C 0.46023 0.83777 0.29501
 H468 H 0.46210 0.83838 0.26405
 Zn469 Zn 0.48911 0.75982 0.38141
 N470 N 0.47203 0.80310 0.35314
 C471 C 0.54669 0.81004 0.40605
 N472 N 0.53252 0.77419 0.41145
 C473 C 0.55110 0.74859 0.43454
 C474 C 0.58470 0.75924 0.45409
 C475 C 0.57983 0.82178 0.42489
 C476 C 0.41330 0.74238 0.39185
 C477 C 0.38110 0.72603 0.40826
 C478 C 0.41846 0.71237 0.46530
 C479 C 0.45015 0.72937 0.44776
 N480 N 0.44721 0.74294 0.41121
 H481 H 0.53313 0.82948 0.38612
 H482 H 0.54027 0.71972 0.43722
 H483 H 0.59906 0.73871 0.47254
 H484 H 0.59075 0.85025 0.41936
 H485 H 0.41167 0.75335 0.36285
 H486 H 0.35466 0.72518 0.39185
 H487 H 0.42165 0.69992 0.49361
 H488 H 0.47728 0.73024 0.46279
 C489 C 0.44751 0.86990 0.31608
 C490 C 0.53299 0.65701 0.30821
 C491 C 0.38368 0.70954 0.44493
 C492 C 0.59926 0.79645 0.44949
 Si493 Si 0.36816 0.01031 0.24906
 Si494 Si 0.11843 1.00555 0.74775
 Si495 Si 0.62036 0.51742 0.24569
 Si496 Si 0.87006 0.49635 0.74785
 Si497 Si 0.24980 0.36676 -0.00105
 Si498 Si 0.74745 0.11615 1.01661
 Si499 Si 0.24737 0.61327 0.50187
 Si500 Si 0.75100 0.86090 0.51087
 Si501 Si 0.00001 0.24670 0.37074
 Si502 Si 1.00861 0.75082 0.11356
 Si503 Si 0.50829 0.25333 0.61589
 Si504 Si 0.50334 0.75268 0.86773
 C505 C 0.43597 -0.06031 0.31631
 C506 C 0.43414 -0.09626 0.29766
 C507 C 0.41668 -0.09768 0.26098
 C508 C 0.39893 -0.06530 0.24525
 C509 C 0.39913 -0.03039 0.26512
 C510 C 0.41898 -0.02783 0.30006
 H511 H 0.45063 -0.05693 0.34358
 H512 H 0.41372 -0.12438 0.24548
 H513 H 0.38349 -0.06837 0.21843
 H514 H 0.41955 -0.00111 0.31587
 C515 C 0.89889 0.38380 0.77067
 C516 C 0.93100 0.38700 0.79494
 C517 C 0.94664 0.42349 0.80200
 C518 C 0.92970 0.45621 0.78610
 C519 C 0.89693 0.45291 0.76296
 C520 C 0.88180 0.41654 0.75510
 H521 H 0.88590 0.35615 0.76525
 H522 H 0.97150 0.42672 0.82048
 H523 H 0.94139 0.48412 0.79296
 H524 H 0.85594 0.41345 0.73806
 C525 C 0.06428 1.11057 0.75811
 C526 C 0.04393 1.10711 0.79252
 C527 C 0.04236 1.07104 0.81052
 C528 C 0.06252 1.03984 0.79560
 C529 C 0.08483 1.04422 0.76270
 C530 C 0.08470 1.07953 0.74351
 H531 H 0.06540 1.13766 0.74304
 H532 H 0.02732 1.06740 0.83728
 H533 H 0.06253 1.01294 0.81109
 H534 H 0.10149 1.08389 0.71801
 C535 C 0.54727 0.58634 0.30779
 C536 C 0.55042 0.62251 0.29022
 C537 C 0.57212 0.62567 0.25657
 C538 C 0.59173 0.59395 0.24207
 C539 C 0.59012 0.55855 0.26099
 C540 C 0.56664 0.55462 0.29305
 H541 H 0.53113 0.58276 0.33390
 H542 H 0.57435 0.65280 0.24170
 H543 H 0.60863 0.59751 0.21652
 H544 H 0.56463 0.52735 0.30774
 C545 C 0.54449 0.44543 0.18950
 C546 C 0.54981 0.41014 0.20828
 C547 C 0.57225 0.40889 0.24187
 C548 C 0.59149 0.44163 0.25464
 C549 C 0.58859 0.47607 0.23402
 C550 C 0.56332 0.47829 0.20266
 H551 H 0.52679 0.44726 0.16389
 H552 H 0.57669 0.38213 0.25699
 H553 H 0.60961 0.43939 0.27983
 H554 H 0.55999 0.50487 0.18694
 C555 C 0.09815 0.90185 0.69504
 C556 C 0.06030 0.89273 0.70438
 C557 C 0.03967 0.91775 0.72814
 C558 C 0.05653 0.95177 0.74152
 C559 C 0.09430 0.96074 0.73170
 C560 C 0.11486 0.93546 0.70845
 H561 H 0.11490 0.88292 0.67717
 H562 H 0.01034 0.91145 0.73553
 H563 H 0.03998 0.97094 0.75918
 H564 H 0.14385 0.94188 0.70000
 C565 C 0.92368 0.60261 0.75429
 C566 C 0.94648 0.60313 0.72129
 C567 C 0.94934 0.56944 0.69931
 C568 C 0.92835 0.53688 0.70885
 C569 C 0.90348 0.53737 0.74008
 C570 C 0.90251 0.56997 0.76367
 H571 H 0.92159 0.62768 0.77245
 H572 H 0.96635 0.56867 0.67353
 H573 H 0.93073 0.51194 0.69078
 H574 H 0.88493 0.57077 0.78897
 C575 C 0.39612 0.11768 0.20856
 C576 C 0.43486 0.12229 0.21840
 C577 C 0.45391 0.09245 0.23791
 C578 C 0.43433 0.05884 0.24769
 C579 C 0.39555 0.05463 0.23795
 C580 C 0.37685 0.08411 0.21791
 H581 H 0.38101 0.13956 0.19240
 H582 H 0.48389 0.09512 0.24549
 H583 H 0.44963 0.03622 0.26245
 H584 H 0.34742 0.08092 0.20858
 C585 C 0.26353 0.41688 -0.10816
 C586 C 0.29653 0.43933 -0.10332
 C587 C 0.31257 0.44304 -0.06632
 C588 C 0.29708 0.42320 -0.03529
 C589 C 0.26522 0.39937 -0.04058
 C590 C 0.24816 0.39694 -0.07713
 H591 H 0.25084 0.41297 -0.13636
 H592 H 0.33785 0.46035 -0.06163
 H593 H 0.31118 0.42495 -0.00754
 H594 H 0.22409 0.37821 -0.08241
 C595 C 0.81628 0.93203 0.44256
 C596 C 0.79801 0.92999 0.40645
 C597 C 0.76296 0.91049 0.40340
 C598 C 0.74760 0.89181 0.43521
 C599 C 0.76689 0.89237 0.47070
 C600 C 0.80089 0.91332 0.47432
 H601 H 0.84305 0.94725 0.44601
 H602 H 0.74838 0.90797 0.37597
 H603 H 0.72156 0.87554 0.43136
 H604 H 0.81653 0.91371 0.50130
 C605 C 0.80361 0.03564 1.08463
 C606 C 0.78771 0.04133 1.12146
 C607 C 0.75574 0.06593 1.12402
 C608 C 0.74237 0.08622 1.09211
 C609 C 0.76013 0.08242 1.05646
 C610 C 0.79001 0.05603 1.05268
 H611 H 0.82856 0.01789 1.08048
 H612 H 0.74068 0.06989 1.15067
 H613 H 0.71890 0.10594 1.09608
 H614 H 0.80456 0.05298 1.02557
 C615 C 0.25711 0.56255 0.60896
 C616 C 0.29342 0.54533 0.60835
 C617 C 0.31381 0.54521 0.57365
 C618 C 0.29892 0.56347 0.54095
 C619 C 0.26357 0.58227 0.54243
 C620 C 0.24248 0.58100 0.57646
 H621 H 0.24029 0.56252 0.63488
 H622 H 0.34205 0.53259 0.57222
 H623 H 0.31578 0.56439 0.51505
 H624 H 0.21509 0.59513 0.57862
 C625 C 0.19339 0.59095 0.39911
 C626 C 0.19710 0.55129 0.39390
 C627 C 0.21734 0.52962 0.42147
 C628 C 0.23272 0.54747 0.45429
 C629 C 0.22848 0.58710 0.45928
 C630 C 0.20901 0.60863 0.43136
 H631 H 0.17841 0.60835 0.37806
 H632 H 0.22047 0.49895 0.41799
 H633 H 0.24776 0.53046 0.47559
 H634 H 0.20572 0.63933 0.43458
 C635 C 0.69299 0.09960 0.91257
 C636 C 0.70082 0.06133 0.90217
 C637 C 0.72466 0.03957 0.92698
 C638 C 0.73872 0.05524 0.96146
 C639 C 0.73022 0.09318 0.97131
 C640 C 0.70760 0.11518 0.94637
 H641 H 0.67658 0.11845 0.89406
 H642 H 0.73107 0.00987 0.92096
 H643 H 0.75591 0.03753 0.98033
 H644 H 0.70068 0.14464 0.95309
 C645 C 0.71040 0.88952 0.61810
 C646 C 0.71904 0.92859 0.62220
 C647 C 0.73885 0.94722 0.59262
 C648 C 0.74943 0.92717 0.55953
 C649 C 0.74054 0.88819 0.55560
 C650 C 0.72077 0.86969 0.58507
 H651 H 0.69408 0.87462 0.63972
 H652 H 0.74570 0.97738 0.59488
 H653 H 0.76380 0.94247 0.53693
 H654 H 0.71192 0.84015 0.58202
 C655 C 0.20441 0.39009 0.10534
 C656 C 0.21107 0.42933 0.11102
 C657 C 0.23010 0.45012 0.08237
 C658 C 0.24235 0.43185 0.04882
 C659 C 0.23581 0.39256 0.04353
 C660 C 0.21633 0.37207 0.07186
 H661 H 0.18866 0.37357 0.12620
 H662 H 0.23530 0.48051 0.08584
 H663 H 0.25635 0.44863 0.02705
 H664 H 0.20917 0.34220 0.06771
 C665 C -0.10628 0.25260 0.42230
 C666 C -0.10494 0.28816 0.44125
 C667 C -0.06990 0.30787 0.44323
 C668 C -0.03779 0.29367 0.42435
 C669 C -0.04034 0.26001 0.40260
 C670 C -0.07420 0.23860 0.40322
 H671 H -0.13247 0.23611 0.42128
 H672 H -0.06778 0.33536 0.45745
 H673 H -0.01163 0.31024 0.42476
 H674 H -0.07647 0.21166 0.38811
 C675 C 0.43735 0.80963 0.94696
 C676 C 0.40036 0.79493 0.94065
 C677 C 0.39597 0.76294 0.91644
 C678 C 0.42730 0.74796 0.89682
 C679 C 0.46335 0.76514 0.90047
 C680 C 0.46853 0.79486 0.92701
 H681 H 0.44199 0.83350 0.96628
 H682 H 0.36802 0.75074 0.91093
 H683 H 0.42265 0.72410 0.87767
 H684 H 0.49634 0.80802 0.93080
 C685 C 1.11359 0.79745 0.08988
 C686 C 1.11622 0.79603 0.04972
 C687 C 1.08506 0.78177 0.02821
 C688 C 1.05222 0.76850 0.04674
 C689 C 1.05024 0.76955 0.08686
 C690 C 1.08089 0.78447 0.10820
 H691 H 1.13666 0.80916 0.10718
 H692 H 1.08631 0.78050 -0.00280
 H693 H 1.02871 0.75722 0.02981
 H694 H 1.07969 0.78572 0.13924
 C695 C 0.58049 0.28785 0.52825
 C696 C 0.61310 0.29991 0.54888
 C697 C 0.61299 0.29849 0.58908
 C698 C 0.58105 0.28510 0.60838
 C699 C 0.54894 0.27214 0.58789
 C700 C 0.54856 0.27374 0.54772
 H701 H 0.57993 0.28902 0.49720
 H702 H 0.63743 0.30839 0.60563
 H703 H 0.58161 0.28440 0.63947
 H704 H 0.52381 0.26418 0.53151
 C705 C 0.43623 0.19112 0.54488
 C706 C 0.40046 0.20884 0.54989
 C707 C 0.39838 0.24239 0.57198
 C708 C 0.43100 0.25684 0.59028
 C709 C 0.46638 0.23833 0.58635
 C710 C 0.46897 0.20588 0.56288
 H711 H 0.43866 0.16534 0.52779
 H712 H 0.37115 0.25633 0.57676
 H713 H 0.42797 0.28163 0.60857
 H714 H 0.49602 0.19112 0.55967
 C715 C 0.93852 0.68900 0.04037
 C716 C 0.90285 0.70731 0.04372
 C717 C 0.90043 0.74132 0.06505
 C718 C 0.93255 0.75556 0.08442
 C719 C 0.96774 0.73637 0.08229
 C720 C 0.97076 0.70355 0.05940
 H721 H 0.94118 0.66282 0.02392
 H722 H 0.87323 0.75572 0.06853
 H723 H 0.92921 0.78069 0.10217
 H724 H 0.99765 0.68826 0.05757
 C725 C 0.61254 0.75131 0.91594
 C726 C 0.61225 0.71792 0.93853
 C727 C 0.57750 0.69804 0.94273
 C728 C 0.54453 0.71013 0.92332
 C729 C 0.54579 0.74165 0.89856
 C730 C 0.57957 0.76310 0.89620
 H731 H 0.63843 0.76796 0.91295
 H732 H 0.57608 0.67202 0.95954
 H733 H 0.51850 0.69359 0.92604
 H734 H 0.58098 0.78852 0.87860
 C735 C 0.10819 0.25074 0.42121
 C736 C 0.10872 0.21790 0.44463
 C737 C 0.07469 0.19677 0.44857
 C738 C 0.04172 0.20704 0.42808
 C739 C 0.04232 0.23791 0.40248
 C740 C 0.07525 0.26067 0.40038
 H741 H 0.13345 0.26836 0.41838
 H742 H 0.07389 0.17113 0.46599
 H743 H 0.01629 0.18959 0.43072
 H744 H 0.07600 0.28574 0.38223
 C745 C 0.51665 0.15866 0.68845
 C746 C 0.55347 0.14448 0.68073
 C747 C 0.57560 0.16283 0.65289
 C748 C 0.56189 0.19513 0.63389
 C749 C 0.52582 0.21028 0.64249
 C750 C 0.50288 0.19137 0.66931
 H751 H 0.49885 0.14485 0.70958
 H752 H 0.60354 0.15185 0.64538
 H753 H 0.57966 0.20766 0.61206
 H754 H 0.47445 0.20188 0.67547
 C755 C 1.01152 0.65373 0.18304
 C756 C 1.04912 0.64018 0.17848
 C757 C 1.07378 0.66010 0.15400
 C758 C 1.06162 0.69312 0.13514
 C759 C 1.02453 0.70731 0.14040
 C760 C 0.99931 0.68708 0.16402
 H761 H 0.99182 0.63883 0.20158
 H762 H 1.10251 0.64977 0.14890
 H763 H 1.08140 0.70697 0.11602
 H764 H 0.97023 0.69703 0.16768
 C765 C 0.97496 0.85794 0.14982
 C766 C 0.96756 0.85324 0.18907
 C767 C 0.97444 0.81735 0.20621
 C768 C 0.98778 0.78659 0.18426
 C769 C 0.99375 0.79120 0.14483
 C770 C 0.98784 0.82718 0.12793
 H771 H 0.96943 0.88506 0.13572
 H772 H 0.96921 0.81308 0.23649
 H773 H 0.99270 0.75925 0.19801
 H774 H 0.99243 0.83128 0.09751
 C775 C 0.47616 0.36171 0.64899
 C776 C 0.47009 0.35874 0.68862
 C777 C 0.47740 0.32358 0.70709
 C778 C 0.48996 0.29183 0.68606
 C779 C 0.49458 0.29475 0.64628
 C780 C 0.48814 0.32998 0.62805
 H781 H 0.47020 0.38821 0.63391
 H782 H 0.47306 0.32066 0.73768
 H783 H 0.49530 0.26507 0.70078
 H784 H 0.49162 0.33279 0.59732
 C785 C 0.44647 0.67779 0.79483
 C786 C 0.46689 0.64327 0.79937
 C787 C 0.50153 0.64379 0.82014
 C788 C 0.51379 0.67715 0.83857
 C789 C 0.49154 0.71057 0.83685
 C790 C 0.45902 0.71127 0.81307
 H791 H 0.41974 0.67853 0.77894
 H792 H 0.51869 0.61808 0.82301
 H793 H 0.54017 0.67622 0.85491
 H794 H 0.44208 0.73716 0.81040
 C795 C -0.05719 0.16901 0.30146
 C796 C -0.03655 0.13473 0.30668
 C797 C -0.00195 0.13584 0.32754
 C798 C 0.01036 0.16980 0.34489
 C799 C -0.01186 0.20316 0.34204
 C800 C -0.04473 0.20298 0.31874
 H801 H -0.08399 0.16923 0.28565
 H802 H 0.01521 0.11022 0.33111
 H803 H 0.03679 0.16948 0.36119
 H804 H -0.06188 0.22868 0.31558
 C805 C 0.05247 0.31755 0.29216
 C806 C 0.03087 0.35156 0.29401
 C807 C -0.00336 0.35148 0.31479
 C808 C -0.01410 0.31922 0.33576
 C809 C 0.00936 0.28661 0.33660
 C810 C 0.04154 0.28522 0.31304
 H811 H 0.07902 0.31659 0.27648
 H812 H -0.02122 0.37682 0.31583
 H813 H -0.04017 0.32046 0.35210
 H814 H 0.05954 0.25995 0.31264
 C815 C 0.55624 0.82622 0.79209
 C816 C 0.53741 0.86130 0.79828
 C817 C 0.50459 0.86181 0.82118
 C818 C 0.49259 0.82862 0.83985
 C819 C 0.51345 0.79449 0.83628
 C820 C 0.54414 0.79300 0.81080
 H821 H 0.58167 0.82488 0.77467
 H822 H 0.48892 0.88819 0.82564
 H823 H 0.46782 0.83030 0.85806
 H824 H 0.56020 0.76670 0.80721
 C825 C 0.69772 0.57224 0.17564
 C826 C 0.69305 0.55479 0.13903
 C827 C 0.66816 0.52271 0.13708
 C828 C 0.64738 0.51079 0.16895
 C829 C 0.65035 0.53042 0.20379
 C830 C 0.67667 0.56024 0.20728
 H831 H 0.71825 0.59473 0.18096
 H832 H 0.66214 0.50766 0.11068
 H833 H 0.62847 0.48656 0.16576
 H834 H 0.68058 0.57475 0.23452
 C835 C 0.20401 1.04606 0.67671
 C836 C 0.18528 1.04908 0.64093
 C837 C 0.14672 1.03818 0.63785
 C838 C 0.12715 1.02512 0.66997
 C839 C 0.14579 1.02244 0.70562
 C840 C 0.18441 1.03265 0.70884
 H841 H 0.23377 1.05414 0.67982
 H842 H 0.13138 1.04081 0.61083
 H843 H 0.09726 1.01744 0.66705
 H844 H 0.19929 1.03079 0.73615
 C845 C 0.19698 0.94822 0.81612
 C846 C 0.19507 0.96661 0.85244
 C847 C 0.17257 1.00046 0.85427
 C848 C 0.15118 1.01323 0.82266
 C849 C 0.15142 0.99286 0.78814
 C850 C 0.17558 0.96123 0.78474
 H851 H 0.21249 0.92190 0.81161
 H852 H 0.17163 1.01816 0.87965
 H853 H 0.13427 1.03898 0.82559
 H854 H 0.17704 0.94544 0.75814
 C855 C 0.67543 0.50491 0.35097
 C856 C 0.69850 0.47250 0.34500
 C857 C 0.70162 0.45761 0.30767
 C858 C 0.67984 0.47293 0.27761
 C859 C 0.65444 0.50317 0.28441
 C860 C 0.65368 0.52026 0.32081
 H861 H 0.67247 0.51707 0.37938
 H862 H 0.71981 0.43315 0.30204
 H863 H 0.68138 0.45988 0.24947
 H864 H 0.63530 0.54443 0.32655
 C865 C 0.78961 0.48233 0.65986
 C866 C 0.81117 0.46484 0.63080
 C867 C 0.85009 0.45739 0.63758
 C868 C 0.86708 0.46701 0.67256
 C869 C 0.84583 0.48492 0.70137
 C870 C 0.80688 0.49238 0.69492
 H871 H 0.75945 0.48811 0.65546
 H872 H 0.86713 0.44279 0.61629
 H873 H 0.89667 0.45920 0.67743
 H874 H 0.78968 0.50555 0.71690
 C875 C 0.28672 -0.02050 0.16742
 C876 C 0.30890 -0.02740 0.13459
 C877 C 0.34848 -0.02051 0.13652
 C878 C 0.36558 -0.00821 0.17065
 C879 C 0.34361 -0.00293 0.20359
 C880 C 0.30399 -0.00839 0.20172
 H881 H 0.25609 -0.02495 0.16676
 H882 H 0.36657 -0.02608 0.11210
 H883 H 0.39625 -0.00393 0.17165
 H884 H 0.28652 -0.00405 0.22681
 C885 C 0.31050 0.00711 0.35242
 C886 C 0.29324 0.04340 0.35423
 C887 C 0.29383 0.06701 0.32157
 C888 C 0.31382 0.05581 0.28891
 C889 C 0.33372 0.02094 0.28836
 C890 C 0.33031 -0.00412 0.31965
 H891 H 0.30971 -0.01208 0.37682
 H892 H 0.28082 0.09518 0.32204
 H893 H 0.31503 0.07536 0.26499
 H894 H 0.34396 -0.03192 0.31954
 C895 C 0.81545 0.49950 0.85266
 C896 C 0.79611 0.53481 0.85178
 C897 C 0.79443 0.55531 0.81701
 C898 C 0.81404 0.54213 0.78477
 C899 C 0.83598 0.50855 0.78690
 C900 C 0.83528 0.48657 0.82058
 H901 H 0.81650 0.48254 0.87867
 H902 H 0.78004 0.58275 0.81534
 H903 H 0.81421 0.55952 0.75904
 H904 H 0.85137 0.46020 0.82297
 C905 C 0.17686 0.69905 0.54485
 C906 C 0.14125 0.68048 0.54690
 C907 C 0.13799 0.64265 0.53373
 C908 C 0.16987 0.62336 0.51983
 C909 C 0.20551 0.64164 0.51828
 C910 C 0.20876 0.67981 0.53027
 H911 H 0.17999 0.72828 0.55478
 H912 H 0.11106 0.62750 0.53554
 H913 H 0.16681 0.59377 0.51098
 H914 H 0.23589 0.69454 0.52918
 C915 C 0.63855 0.14925 1.04663
 C916 C 0.64254 0.18768 1.05784
 C917 C 0.67884 0.20492 1.05625
 C918 C 0.71053 0.18403 1.04357
 C919 C 0.70630 0.14559 1.03281
 C920 C 0.67019 0.12837 1.03448
 H921 H 0.61110 0.13504 1.04824
 H922 H 0.68263 0.23452 1.06477
 H923 H 0.73824 0.19773 1.04268
 H924 H 0.66649 0.09859 1.02653
 C925 C 0.81691 0.19406 0.96136
 C926 C 0.85433 0.18655 0.97575
 C927 C 0.85737 0.16011 1.00656
 C928 C 0.82532 0.14077 1.02040
 C929 C 0.78923 0.14665 1.00376
 C930 C 0.78516 0.17426 0.97503
 H931 H 0.81156 0.21287 0.93732
 H932 H 0.88421 0.15461 1.02116
 H933 H 0.82920 0.12082 1.04379
 H934 H 0.75749 0.17981 0.96207
 C935 C 0.34001 0.68840 0.49847
 C936 C 0.35113 0.68676 0.45979
 C937 C 0.33108 0.66240 0.43465
 C938 C 0.30027 0.64088 0.44741
 C939 C 0.28841 0.64320 0.48565
 C940 C 0.30884 0.66669 0.51130
 H941 H 0.35510 0.70671 0.51859
 H942 H 0.33963 0.65948 0.40500
 H943 H 0.28620 0.62216 0.42706
 H944 H 0.30078 0.66814 0.54119
 C945 C 0.63749 0.84698 0.48293
 C946 C 0.63497 0.80930 0.46893
 C947 C 0.66760 0.78566 0.47083
 C948 C 0.70245 0.80018 0.48478
 C949 C 0.70494 0.83841 0.49681
 C950 C 0.67217 0.86144 0.49640
 H951 H 0.61275 0.86568 0.48258
 H952 H 0.66658 0.75660 0.46000
 H953 H 0.72760 0.78206 0.48486
 H954 H 0.67354 0.89102 0.50571
 C955 C 0.13917 0.34715 -0.03666
 C956 C 0.13692 0.30727 -0.04111
 C957 C 0.16891 0.28456 -0.03179
 C958 C 0.20314 0.30181 -0.01956
 C959 C 0.20536 0.34178 -0.01620
 C960 C 0.17298 0.36418 -0.02401
 H961 H 0.11477 0.36517 -0.04341
 H962 H 0.16776 0.25374 -0.03520
 H963 H 0.22782 0.28407 -0.01324
 H964 H 0.17408 0.39506 -0.02107
 C965 C 0.32319 0.29340 0.05735
 C966 C 0.35756 0.29685 0.03702
 C967 C 0.35707 0.31623 0.00169
 C968 C 0.32379 0.33438 -0.01140
 C969 C 0.29046 0.33380 0.01071
 C970 C 0.28993 0.31156 0.04419
 H971 H 0.32250 0.27865 0.08467
 H972 H 0.38281 0.31849 -0.01520
 H973 H 0.32482 0.35001 -0.03814
 H974 H 0.26453 0.30963 0.06136
 C975 C 0.82259 0.78412 0.56677
 C976 C 0.85573 0.78471 0.54425
 C977 C 0.85430 0.80301 0.50836
 C978 C 0.82156 0.82301 0.49678
 C979 C 0.78981 0.82540 0.52099
 C980 C 0.78987 0.80418 0.55512
 H981 H 0.82270 0.77026 0.59456
 H982 H 0.87904 0.80309 0.48991
 H983 H 0.82190 0.83780 0.46953
 H984 H 0.76557 0.80460 0.57394
   
