data_POSCAR
  _audit_creation_date              2014-09-24
  _audit_creation_method            'ToBaCCo'
  _symmetry_space_group_name_H-M    'P1'
  _symmetry_Int_Tables_number       1
  _symmetry_cell_setting            triclinic
  loop_
  _symmetry_equiv_pos_as_xyz
 x,y,z
_cell_length_a 25.1368
_cell_length_b 25.8013
_cell_length_c 52.1822
_cell_angle_alpha 89.143800
_cell_angle_beta 90.928900
_cell_angle_gamma 120.794900
loop_
  _atom_site_label
  _atom_site_type_symbol
  _atom_site_fract_x
  _atom_site_fract_y
  _atom_site_fract_z
C1 C 0.04952 0.09680 0.53937
 H2 H 0.09206 0.09633 0.54199
 C3 C 0.04153 0.13943 0.55206
 H4 H 0.07893 0.17175 0.56409
 C5 C -0.04811 0.05736 0.51869
 H6 H -0.08209 0.02637 0.50514
 C7 C -0.05813 0.09932 0.53106
 H8 H -0.10035 0.09976 0.52714
 N9 N 0.00506 0.05682 0.52313
 C10 C 0.04881 -0.08573 0.51856
 H11 H 0.05796 -0.08449 0.49830
 C12 C 0.04822 -0.13039 0.53425
 H13 H 0.05704 -0.16296 0.52557
 C14 C 0.02169 -0.04675 0.55357
 H15 H 0.00934 -0.01540 0.56088
 C16 C 0.02074 -0.09046 0.56994
 H17 H 0.00860 -0.09156 0.58985
 Zn18 Zn 0.02628 0.00685 0.50529
 N19 N 0.03531 -0.04533 0.52836
 C20 C 0.15468 0.06059 0.49177
 N21 N 0.10060 0.05991 0.48822
 C22 C 0.09726 0.10107 0.47282
 C23 C 0.14934 0.14488 0.45993
 C24 C 0.20827 0.10391 0.47915
 C25 C -0.09327 -0.08218 0.48914
 C26 C -0.13788 -0.12353 0.47212
 C27 C -0.06122 -0.08287 0.43870
 C28 C -0.01851 -0.04205 0.45629
 N29 N -0.03503 -0.04247 0.48099
 H30 H 0.15653 0.02823 0.50457
 H31 H 0.05389 0.10020 0.47087
 H32 H 0.14532 0.17805 0.44851
 H33 H 0.25125 0.10439 0.48217
 H34 H -0.10468 -0.08265 0.50908
 H35 H -0.18303 -0.15473 0.47976
 H36 H -0.04619 -0.08195 0.41925
 H37 H 0.02850 -0.01145 0.45032
 C38 C 0.03347 -0.13346 0.56037
 C39 C -0.01308 0.14102 0.54804
 C40 C -0.12199 -0.12495 0.44637
 C41 C 0.20583 0.14640 0.46279
 C42 C 1.03977 0.01674 0.11689
 H43 H 1.00331 0.02416 0.11020
 C44 C 1.07720 0.01091 0.09909
 H45 H 1.06848 0.01299 0.07881
 C46 C 1.09785 0.00854 0.15127
 H47 H 1.10650 0.00935 0.17168
 C48 C 1.13640 0.00248 0.13413
 H49 H 1.17478 -0.00085 0.14176
 N50 N 1.05061 0.01538 0.14245
 C51 C 0.94212 0.09204 0.15031
 H52 H 0.97757 0.13082 0.16052
 C53 C 0.89417 0.09517 0.13782
 H54 H 0.89343 0.13675 0.13830
 C55 C 0.89848 -0.00990 0.13788
 H56 H 0.90017 -0.05097 0.13836
 C57 C 0.84991 -0.00876 0.12517
 H58 H 0.81402 -0.04975 0.11634
 Zn59 Zn 1.00561 0.03116 0.16667
 N60 N 0.94374 0.04017 0.14980
 C61 C 1.09705 0.15312 0.16951
 N62 N 1.06373 0.10235 0.18390
 C63 C 1.07566 0.10134 0.20937
 C64 C 1.12311 0.15284 0.22128
 C65 C 1.14447 0.20575 0.18070
 C66 C 0.96483 -0.08583 0.18778
 C67 C 0.92786 -0.13534 0.20360
 C68 C 0.89012 -0.07684 0.22381
 C69 C 0.92772 -0.02855 0.20763
 N70 N 0.96374 -0.03392 0.18997
 H71 H 1.08738 0.15233 0.14920
 H72 H 1.04946 0.06023 0.22037
 H73 H 1.13144 0.15106 0.24159
 H74 H 1.17084 0.24570 0.16893
 H75 H 0.99285 -0.08960 0.17330
 H76 H 0.92834 -0.17676 0.20133
 H77 H 0.86250 -0.07087 0.23781
 H78 H 0.92744 0.01314 0.20879
 C79 C 0.84777 0.04464 0.12474
 C80 C 1.12625 0.00371 0.10757
 C81 C 0.88882 -0.13173 0.22150
 C82 C 1.15883 0.20571 0.20676
 C83 C 0.01732 0.95256 0.86979
 H84 H -0.02818 0.91375 0.87318
 C85 C 0.06714 0.96262 0.88549
 H86 H 0.05889 0.93200 0.90134
 C87 C 0.08243 1.03937 0.84484
 H88 H 0.08823 1.06833 0.82863
 C89 C 0.13359 1.05124 0.86013
 H90 H 0.17862 1.08981 0.85570
 N91 N 0.02600 0.99003 0.84965
 C92 C -0.10518 0.98754 0.86536
 H93 H -0.05965 1.02566 0.86935
 C94 C -0.15574 0.98014 0.87914
 H95 H -0.14697 1.01353 0.89340
 C96 C -0.16881 0.89703 0.84285
 H97 H -0.17393 0.86444 0.82885
 C98 C -0.22079 0.88758 0.85628
 H99 H -0.26528 0.84778 0.85217
 Zn100 Zn -0.04181 0.96740 0.82704
 N101 N -0.11268 0.94750 0.84698
 C102 C -0.10013 0.87378 0.78976
 N103 N -0.05333 0.90062 0.80734
 C104 C -0.01131 0.88261 0.81043
 C105 C -0.01509 0.83642 0.79554
 C106 C -0.10590 0.82693 0.77454
 C107 C -0.01876 1.08419 0.81503
 C108 C -0.01357 1.13070 0.79926
 C109 C -0.02000 1.07233 0.76239
 C110 C -0.02512 1.02689 0.77890
 N111 N -0.02589 1.03285 0.80474
 H112 H -0.13225 0.88961 0.78714
 H113 H 0.02605 0.90458 0.82419
 H114 H 0.01850 0.82258 0.79873
 H115 H -0.14316 0.80622 0.76054
 H116 H -0.01828 1.08883 0.83554
 H117 H -0.01070 1.16954 0.80822
 H118 H -0.02091 1.06613 0.74187
 H119 H -0.02950 0.98652 0.77092
 C120 C -0.21530 0.93028 0.87421
 C121 C 0.12666 1.01166 0.88028
 C122 C -0.01484 1.12482 0.77246
 C123 C -0.06238 0.80850 0.77704
 C124 C 0.46835 -0.03014 0.00952
 C125 C 0.46500 -0.02925 -0.01657
 C126 C 0.40952 -0.03638 -0.03036
 C127 C 0.51719 -0.02129 -0.03245
 C128 C 0.52214 -0.02760 0.02297
 C129 C 0.41932 -0.03312 0.02608
 C130 C 0.35043 -0.08631 -0.02564
 C131 C 0.29845 -0.09167 -0.03833
 C132 C 0.30446 -0.04733 -0.05594
 C133 C 0.36404 0.00181 -0.06118
 C134 C 0.41599 0.00707 -0.04852
 C135 C 0.50849 -0.06673 -0.04935
 C136 C 0.55856 -0.06204 -0.06274
 C137 C 0.61859 -0.01116 -0.05961
 C138 C 0.62615 0.03531 -0.04337
 C139 C 0.57609 0.03034 -0.02997
 C140 C 0.55798 0.01950 0.04000
 C141 C 0.60916 0.02289 0.05258
 C142 C 0.62491 -0.02152 0.04858
 C143 C 0.58845 -0.06883 0.03160
 C144 C 0.53740 -0.07205 0.01900
 C145 C 0.39991 0.00894 0.02339
 C146 C 0.35538 0.00682 0.03980
 C147 C 0.32981 -0.03728 0.05934
 C148 C 0.35008 -0.07860 0.06218
 C149 C 0.39426 -0.07665 0.04570
 H150 H 0.34457 -0.12103 -0.01211
 H151 H 0.25329 -0.13043 -0.03423
 H152 H 0.37107 0.03583 -0.07528
 H153 H 0.46132 0.04550 -0.05267
 H154 H 0.46313 -0.10674 -0.05160
 H155 H 0.54930 -0.09879 -0.07521
 H156 H 0.58349 0.06629 -0.01725
 H157 H 0.54681 0.05422 0.04325
 H158 H 0.63620 0.06080 0.06504
 H159 H 0.59936 -0.10364 0.02812
 H160 H 0.50974 -0.10921 0.00616
 H161 H 0.42004 0.04408 0.00889
 H162 H 0.34267 0.04084 0.03756
 H163 H 0.33167 -0.11253 0.07722
 H164 H 0.40907 -0.10913 0.04828
 H165 H 0.67127 0.07539 -0.04061
 C166 C 0.02161 0.50497 0.68033
 C167 C 0.02686 0.50212 0.65449
 C168 C 0.02951 0.45156 0.64267
 C169 C 0.03189 0.54996 0.63672
 C170 C 0.02147 0.55657 0.69243
 C171 C 0.01840 0.45787 0.69810
 C172 C 0.07686 0.44002 0.64912
 C173 C 0.07764 0.39119 0.63833
 C174 C 0.03159 0.35336 0.62067
 C175 C -0.01553 0.36559 0.61407
 C176 C -0.01613 0.41454 0.62485
 C177 C 0.08139 0.57736 0.61953
 C178 C 0.08789 0.62327 0.60301
 C179 C 0.04535 0.64309 0.60348
 C180 C -0.00539 0.61441 0.62018
 C181 C -0.01220 0.56800 0.63654
 C182 C -0.02896 0.54597 0.70743
 C183 C -0.02926 0.59366 0.71960
 C184 C 0.02128 0.65297 0.71709
 C185 C 0.07210 0.66325 0.70234
 C186 C 0.07220 0.61552 0.69005
 C187 C -0.02657 0.39662 0.69503
 C188 C -0.02686 0.35294 0.71133
 C189 C 0.01736 0.36999 0.73124
 C190 C 0.06048 0.43141 0.73489
 C191 C 0.06120 0.47490 0.71843
 H192 H 0.11293 0.46861 0.66263
 H193 H 0.11448 0.38298 0.64378
 H194 H -0.05267 0.33736 0.60100
 H195 H -0.05303 0.42287 0.61969
 H196 H 0.11560 0.56374 0.61915
 H197 H 0.12686 0.64406 0.59010
 H198 H -0.05185 0.54615 0.64905
 H199 H -0.06806 0.50058 0.70977
 H200 H -0.06831 0.58352 0.73150
 H201 H 0.11196 0.70834 0.70041
 H202 H 0.11209 0.62436 0.67896
 H203 H -0.06123 0.38265 0.67996
 H204 H -0.06225 0.30618 0.70855
 H205 H 0.09445 0.44573 0.75027
 H206 H 0.09593 0.52193 0.72130
 H207 H -0.04040 0.62692 0.62037
 C208 C 0.51581 0.51708 0.35019
 C209 C 0.52023 0.52133 0.32412
 C210 C 0.56661 0.57732 0.31077
 C211 C 0.47619 0.47039 0.30761
 C212 C 0.46464 0.46270 0.36277
 C213 C 0.55959 0.56662 0.36745
 C214 C 0.56995 0.63249 0.31504
 C215 C 0.61399 0.68482 0.30233
 C216 C 0.65549 0.68303 0.28517
 C217 C 0.65095 0.62729 0.28046
 C218 C 0.60681 0.57500 0.29313
 C219 C 0.43710 0.47808 0.29054
 C220 C 0.39068 0.42897 0.27698
 C221 C 0.38309 0.37117 0.28002
 C222 C 0.42390 0.36429 0.29648
 C223 C 0.47025 0.41344 0.31003
 C224 C 0.47793 0.42803 0.37970
 C225 C 0.42995 0.37607 0.39121
 C226 C 0.36770 0.35843 0.38618
 C227 C 0.35485 0.39378 0.36937
 C228 C 0.40277 0.44563 0.35794
 C229 C 0.62401 0.59496 0.36461
 C230 C 0.66415 0.64209 0.38080
 C231 C 0.64061 0.66091 0.40072
 C232 C 0.57613 0.63060 0.40406
 C233 C 0.53619 0.58448 0.38754
 H234 H 0.53839 0.63496 0.32816
 H235 H 0.61582 0.72692 0.30600
 H236 H 0.68042 0.62345 0.26670
 H237 H 0.60421 0.53261 0.28929
 H238 H 0.44085 0.52168 0.28854
 H239 H 0.35982 0.43649 0.26498
 H240 H 0.50040 0.40677 0.32296
 H241 H 0.52552 0.44070 0.38364
 H242 H 0.44211 0.34972 0.40360
 H243 H 0.30745 0.38139 0.36516
 H244 H 0.39167 0.47239 0.34521
 H245 H 0.64336 0.58045 0.34991
 H246 H 0.71326 0.66193 0.37788
 H247 H 0.55624 0.64326 0.41927
 H248 H 0.48670 0.56299 0.39034
 H249 H 0.41925 0.32045 0.29921
 C250 C -0.02277 0.18754 0.55982
 C251 C 0.00883 0.21967 0.58039
 C252 C 0.00056 0.26836 0.59014
 C253 C 0.03445 0.30172 0.61008
 H254 H 0.04151 0.21067 0.59021
 H255 H -0.03181 0.27766 0.58027
 H256 H -0.05725 0.19580 0.55112
 H257 H 0.06767 0.29166 0.61878
 C258 C 0.84719 0.81399 0.23700
 C259 C 0.79505 0.80504 0.24774
 C260 C 0.75328 0.74843 0.26148
 C261 C 0.70071 0.73945 0.27177
 H262 H 0.78132 0.83837 0.24563
 H263 H 0.76605 0.71432 0.26317
 H264 H 0.85811 0.77845 0.23842
 H265 H 0.69077 0.77569 0.27080
 C266 C 0.18224 0.02228 -0.10495
 C267 C 0.18629 -0.02198 -0.09308
 C268 C 0.24390 -0.01012 -0.08006
 C269 C 0.24795 -0.05522 -0.06903
 H270 H 0.14778 -0.06802 -0.09372
 H271 H 0.28266 0.03576 -0.07947
 H272 H 0.22259 0.06743 -0.10521
 H273 H 0.20726 -0.10017 -0.06904
 C274 C 0.02699 0.81781 0.57792
 C275 C 0.04545 0.77890 0.57253
 C276 C 0.03437 0.73019 0.59071
 C277 C 0.05458 0.69245 0.58584
 H278 H 0.06885 0.78242 0.55483
 H279 H 0.01029 0.72593 0.60835
 H280 H 0.00550 0.81362 0.59630
 H281 H 0.08140 0.69960 0.56869
 C282 C 0.21079 0.26133 0.21807
 C283 C 0.24448 0.26086 0.23810
 C284 C 0.29644 0.31746 0.24836
 C285 C 0.33159 0.31650 0.26772
 H286 H 0.23457 0.21852 0.24682
 H287 H 0.30562 0.35963 0.23979
 H288 H 0.22365 0.30399 0.20878
 H289 H 0.32213 0.27304 0.27505
 C290 C 0.73078 -0.07838 -0.11382
 C291 C 0.72848 -0.03645 -0.09782
 C292 C 0.67281 -0.04773 -0.08727
 C293 C 0.67145 -0.00470 -0.07166
 H294 H 0.76969 0.00630 -0.09371
 H295 H 0.63130 -0.09030 -0.09132
 H296 H 0.68743 -0.11958 -0.11800
 H297 H 0.71516 0.03675 -0.06822
 C298 C 0.16771 0.00165 0.08824
 C299 C 0.20546 -0.01969 0.09303
 C300 C 0.24776 -0.01738 0.07324
 C301 C 0.28463 -0.03976 0.07794
 H302 H 0.20562 -0.03897 0.11156
 H303 H 0.24842 0.00268 0.05479
 H304 H 0.16676 0.01817 0.06909
 H305 H 0.28075 -0.06213 0.09618
 C306 C 0.83882 0.83440 0.42900
 C307 C 0.77642 0.79119 0.43313
 C308 C 0.74194 0.74808 0.41454
 C309 C 0.67856 0.70771 0.41774
 H310 H 0.75351 0.79052 0.45057
 H311 H 0.76501 0.74741 0.39735
 H312 H 0.85687 0.83490 0.41015
 H313 H 0.65674 0.71428 0.43416
 C314 C -0.01423 0.17029 0.75449
 C315 C 0.00296 0.22673 0.76109
 C316 C -0.00055 0.26848 0.74252
 C317 C 0.01896 0.32550 0.74899
 H318 H 0.02007 0.24296 0.78020
 H319 H -0.01840 0.25254 0.72342
 H320 H -0.02864 0.15654 0.73483
 H321 H 0.03957 0.34114 0.76780
 C322 C 0.79686 0.04830 0.11177
 C323 C 0.76323 0.01216 0.09246
 C324 C 0.71175 0.01603 0.08066
 C325 C 0.67877 -0.02044 0.06130
 H326 H 0.77374 -0.02049 0.08501
 H327 H 0.70054 0.04783 0.08842
 H328 H 0.78762 0.08282 0.11800
 H329 H 0.69109 -0.05257 0.05470
 C330 C 0.26302 0.19364 0.45014
 C331 C 0.26186 0.22232 0.42873
 C332 C 0.31858 0.27334 0.41788
 C333 C 0.31465 0.30369 0.39760
 H334 H 0.21825 0.20893 0.41912
 H335 H 0.36244 0.28732 0.42733
 H336 H 0.30727 0.20536 0.45879
 H337 H 0.26917 0.28904 0.38944
 C338 C -0.06787 0.75958 0.76064
 C339 C -0.01869 0.75621 0.75371
 C340 C -0.02562 0.70542 0.73853
 C341 C 0.02435 0.70426 0.73086
 H342 H 0.02752 0.79117 0.75935
 H343 H -0.07177 0.66887 0.73386
 H344 H -0.11349 0.72624 0.75360
 H345 H 0.06990 0.74299 0.73470
   
