data_POSCAR
  _audit_creation_date              2014-09-24
  _audit_creation_method            'ToBaCCo'
  _symmetry_space_group_name_H-M    'P1'
  _symmetry_Int_Tables_number       1
  _symmetry_cell_setting            triclinic
  loop_
  _symmetry_equiv_pos_as_xyz
 x,y,z
_cell_length_a 38.7537
_cell_length_b 40.0004
_cell_length_c 39.2389
_cell_angle_alpha 88.533200
_cell_angle_beta 88.301800
_cell_angle_gamma 90.320500
loop_
  _atom_site_label
  _atom_site_type_symbol
  _atom_site_fract_x
  _atom_site_fract_y
  _atom_site_fract_z
C1 C 0.22622 0.52954 1.09657
 H2 H 0.25302 0.53680 1.09836
 C3 C 0.20373 0.53239 1.12473
 H4 H 0.21368 0.54207 1.14805
 C5 C 0.18135 0.50769 1.06381
 H6 H 0.17296 0.49773 1.04006
 C7 C 0.15788 0.51008 1.09140
 H8 H 0.13152 0.50205 1.08816
 N9 N 0.21481 0.51716 1.06701
 C10 C 0.25542 0.58210 1.02131
 H11 H 0.22760 0.58157 1.02096
 C12 C 0.27283 0.61267 1.01728
 H13 H 0.25813 0.63525 1.01298
 C14 C 0.30814 0.55375 1.02910
 H15 H 0.32192 0.53094 1.03439
 C16 C 0.32658 0.58381 1.02543
 H17 H 0.35436 0.58337 1.02730
 Zn18 Zn 0.24778 0.51239 1.03112
 N19 N 0.27321 0.55325 1.02628
 C20 C 0.20344 0.52505 0.97530
 N21 N 0.22530 0.50262 0.98976
 C22 C 0.23156 0.47270 0.97509
 C23 C 0.21700 0.46505 0.94417
 C24 C 0.18805 0.51828 0.94438
 C25 C 0.30403 0.46850 1.02034
 C26 C 0.32464 0.44064 1.02677
 C27 C 0.29135 0.42980 1.07891
 C28 C 0.27126 0.45774 1.07140
 N29 N 0.27771 0.47637 1.04239
 H30 H 0.19774 0.54821 0.98766
 H31 H 0.24777 0.45445 0.98729
 H32 H 0.22273 0.44121 0.93290
 H33 H 0.17116 0.53669 0.93317
 H34 H 0.30843 0.48344 0.99722
 H35 H 0.34511 0.43475 1.00862
 H36 H 0.28545 0.41507 1.10191
 H37 H 0.25002 0.46400 1.08845
 C38 C 0.30891 0.61376 1.01904
 C39 C 0.16902 0.52235 1.12260
 C40 C 0.31816 0.42068 1.05626
 C41 C 0.19516 0.48807 0.92825
 C42 C 0.81585 0.48718 -0.06088
 H43 H 0.82540 0.49099 -0.03571
 C44 C 0.83906 0.48692 -0.08889
 H45 H 0.86626 0.49075 -0.08479
 C46 C 0.76898 0.47721 -0.09675
 H47 H 0.74155 0.47347 -0.09958
 C48 C 0.79117 0.47675 -0.12532
 H49 H 0.78051 0.47261 -0.15007
 N50 N 0.78143 0.48305 -0.06541
 C51 C 0.69764 0.53148 -0.00880
 H52 H 0.69624 0.51632 0.01444
 C53 C 0.67468 0.55799 -0.01334
 H54 H 0.65559 0.56309 0.00652
 C55 C 0.72338 0.54245 -0.06350
 H56 H 0.74237 0.53656 -0.08304
 C57 C 0.70060 0.56867 -0.06933
 H58 H 0.70228 0.58254 -0.09340
 Zn59 Zn 0.74791 0.48465 -0.02927
 N60 N 0.72080 0.52373 -0.03410
 C61 C 0.79076 0.50819 0.02327
 N62 N 0.76830 0.48390 0.01421
 C63 C 0.75878 0.45867 0.03646
 C64 C 0.77274 0.45647 0.06870
 C65 C 0.80570 0.50676 0.05539
 C66 C 0.73559 0.41617 -0.03477
 C67 C 0.71629 0.38668 -0.03590
 C68 C 0.66421 0.41957 -0.03366
 C69 C 0.68453 0.44847 -0.03281
 N70 N 0.71954 0.44622 -0.03270
 H71 H 0.79724 0.52854 0.00550
 H72 H 0.74014 0.44015 0.02944
 H73 H 0.76488 0.43592 0.08574
 H74 H 0.82381 0.52605 0.06203
 H75 H 0.76349 0.41514 -0.03494
 H76 H 0.72957 0.36296 -0.03691
 H77 H 0.63641 0.42193 -0.03333
 H78 H 0.67223 0.47258 -0.03179
 C79 C 0.67549 0.57630 -0.04435
 C80 C 0.82667 0.48204 -0.12171
 C81 C 0.68011 0.38812 -0.03479
 C82 C 0.79680 0.48044 0.07845
 C83 C -0.02718 0.29542 0.47590
 H84 H -0.04013 0.28653 0.49924
 C85 C -0.04212 0.32052 0.45608
 H86 H -0.06679 0.33051 0.46443
 C87 C 0.02118 0.29349 0.43771
 H88 H 0.04625 0.28347 0.43110
 C89 C 0.00734 0.31887 0.41720
 H90 H 0.02196 0.32742 0.39472
 N91 N 0.00363 0.28209 0.46624
 C92 C 0.00197 0.18770 0.52421
 H93 H 0.02722 0.18929 0.53512
 C94 C -0.01984 0.16089 0.53318
 H95 H -0.01110 0.14184 0.55098
 C96 C -0.04011 0.21104 0.48819
 H97 H -0.04786 0.23057 0.47058
 C98 C -0.06270 0.18439 0.49623
 H99 H -0.08786 0.18403 0.48500
 Zn100 Zn 0.02186 0.24946 0.49635
 N101 N -0.00886 0.21268 0.50304
 C102 C 0.01121 0.25935 0.56727
 N103 N 0.02806 0.27078 0.53833
 C104 C 0.04769 0.29910 0.53818
 C105 C 0.05069 0.31730 0.56794
 C106 C 0.01406 0.27634 0.59762
 C107 C 0.06482 0.21886 0.44783
 C108 C 0.09367 0.20127 0.43621
 C109 C 0.11983 0.20959 0.49052
 C110 C 0.09092 0.22796 0.50073
 N111 N 0.06398 0.23183 0.47954
 H112 H -0.00515 0.23748 0.56685
 H113 H 0.06044 0.30790 0.51471
 H114 H 0.06613 0.33995 0.56731
 H115 H 0.00020 0.26695 0.62029
 H116 H 0.04256 0.22126 0.43197
 H117 H 0.09364 0.19049 0.41117
 H118 H 0.14059 0.20567 0.50803
 H119 H 0.08925 0.23763 0.52619
 C120 C -0.05287 0.15931 0.51963
 C121 C -0.02485 0.33279 0.42626
 C122 C 0.12117 0.19574 0.45803
 C123 C 0.03360 0.30591 0.59810
 C124 C 1.00458 0.74138 0.56863
 H125 H 0.99916 0.76759 0.57175
 C126 C 1.01678 0.72244 0.59609
 H127 H 1.02035 0.73427 0.62026
 C128 C 1.00701 0.69425 0.53335
 H129 H 1.00391 0.68340 0.50873
 C130 C 1.01859 0.67421 0.56036
 H131 H 1.02404 0.64810 0.55618
 N132 N 0.99974 0.72711 0.53802
 C133 C 0.93905 0.79876 0.53673
 H134 H 0.96321 0.80766 0.54629
 C135 C 0.90862 0.81577 0.54459
 H136 H 0.90964 0.83726 0.56076
 C137 C 0.90876 0.76120 0.50257
 H138 H 0.90885 0.74058 0.48543
 C139 C 0.87761 0.77719 0.51022
 H140 H 0.85413 0.76854 0.49891
 Zn141 Zn 0.98235 0.75453 0.50207
 N142 N 0.93877 0.77229 0.51565
 C143 C 0.95875 0.70165 0.46093
 N144 N 0.97832 0.73002 0.46120
 C145 C 0.99492 0.74188 0.43227
 C146 C 0.99147 0.72567 0.40149
 C147 C 0.95500 0.68436 0.43072
 C148 C 1.04468 0.79266 0.50571
 C149 C 1.06624 0.82022 0.49822
 C150 C 1.02088 0.84476 0.46505
 C151 C 1.00018 0.81694 0.47333
 N152 N 1.01239 0.79149 0.49309
 H153 H 0.94593 0.69247 0.48421
 H154 H 1.01084 0.76405 0.43281
 H155 H 1.00477 0.73569 0.37877
 H156 H 0.93911 0.66202 0.43106
 H157 H 1.05393 0.77205 0.52122
 H158 H 1.09197 0.82049 0.50817
 H159 H 1.01071 0.86459 0.44902
 H160 H 0.97437 0.81539 0.46370
 C161 C 0.87748 0.80533 0.53080
 C162 C 1.02350 0.68832 0.59224
 C163 C 1.05441 0.84664 0.47744
 C164 C 0.97132 0.69655 0.40045
 C165 C 0.49121 -0.05839 0.28939
 H166 H 0.51110 -0.07689 0.28551
 C167 C 0.46191 -0.06636 0.30959
 H168 H 0.45928 -0.09117 0.32110
 C169 C 0.47083 -0.00332 0.27958
 H170 H 0.47461 0.02132 0.26810
 C171 C 0.44147 -0.01001 0.30022
 H172 H 0.42258 0.00949 0.30400
 N173 N 0.49486 -0.02749 0.27441
 C174 C 0.56993 -0.04414 0.19162
 H175 H 0.58763 -0.02382 0.19612
 C176 C 0.57674 -0.06579 0.16501
 H177 H 0.59991 -0.06178 0.14928
 C178 C 0.51818 -0.07332 0.20673
 H179 H 0.49512 -0.07588 0.22274
 C180 C 0.52372 -0.09539 0.18006
 H181 H 0.50482 -0.11487 0.17643
 Zn182 Zn 0.53564 -0.01807 0.24813
 N183 N 0.54151 -0.04867 0.21234
 C184 C 0.60032 -0.04141 0.27185
 N185 N 0.57327 -0.02063 0.27790
 C186 C 0.57228 -0.00082 0.30556
 C187 C 0.59986 -0.00036 0.32767
 C188 C 0.62853 -0.04159 0.29316
 C189 C 0.50928 0.03068 0.20378
 C190 C 0.50782 0.06143 0.18619
 C191 C 0.55641 0.08037 0.21786
 C192 C 0.55712 0.04920 0.23462
 N193 N 0.53365 0.02515 0.22747
 H194 H 0.60028 -0.05780 0.25045
 H195 H 0.55024 0.01513 0.31006
 H196 H 0.59874 0.01613 0.34908
 H197 H 0.65001 -0.05799 0.28765
 H198 H 0.49119 0.01097 0.19830
 H199 H 0.48823 0.06521 0.16743
 H200 H 0.57546 0.09909 0.22376
 H201 H 0.57684 0.04415 0.25288
 C202 C 0.55358 -0.09202 0.15889
 C203 C 0.43672 -0.04194 0.31535
 C204 C 0.53173 0.08671 0.19308
 C205 C 0.62867 -0.02068 0.32132
 C206 C 0.51497 0.01080 0.69572
 H207 H 0.50199 -0.01310 0.69406
 C208 C 0.54299 0.01864 0.67380
 H209 H 0.55116 0.00070 0.65509
 C210 C 0.51983 0.06303 0.72240
 H211 H 0.51073 0.08024 0.74138
 C212 C 0.54775 0.07209 0.70067
 H213 H 0.56006 0.09621 0.70330
 N214 N 0.50465 0.03246 0.72009
 C215 C 0.46273 -0.03388 0.80107
 H216 H 0.43722 -0.02364 0.80525
 C217 C 0.47310 -0.06184 0.82019
 H218 H 0.45525 -0.07305 0.83893
 C219 C 0.51687 -0.03154 0.77143
 H220 H 0.53424 -0.01939 0.75299
 C221 C 0.52819 -0.05946 0.78977
 H222 H 0.55404 -0.06863 0.78478
 Zn223 Zn 0.46886 0.01760 0.75077
 N224 N 0.48436 -0.01974 0.77676
 C225 C 0.41921 -0.02675 0.72506
 N226 N 0.43104 0.00534 0.72415
 C227 C 0.41828 0.02854 0.70201
 C228 C 0.39277 0.01973 0.67938
 C229 C 0.39372 -0.03661 0.70298
 C230 C 0.48133 0.06046 0.80374
 C231 C 0.47429 0.08453 0.82805
 C232 C 0.41651 0.08917 0.80702
 C233 C 0.42469 0.06497 0.78304
 N234 N 0.45677 0.05137 0.78170
 H235 H 0.43020 -0.04509 0.74215
 H236 H 0.42858 0.05375 0.70140
 H237 H 0.38341 0.03851 0.66169
 H238 H 0.38514 -0.06244 0.70376
 H239 H 0.50647 0.04885 0.80243
 H240 H 0.49439 0.09124 0.84518
 H241 H 0.39085 0.09974 0.80773
 H242 H 0.40531 0.05690 0.76575
 C243 C 0.50615 -0.07516 0.81431
 C244 C 0.56011 0.04942 0.67653
 C245 C 0.44149 0.09926 0.82993
 C246 C 0.38050 -0.01339 0.67940
 C247 C 0.31235 0.00239 0.43703
 H248 H 0.31581 0.02422 0.45231
 C249 C 0.33810 -0.00664 0.41340
 H250 H 0.36139 0.00835 0.41070
 C251 C 0.27834 -0.04450 0.42317
 H252 H 0.25533 -0.05955 0.42753
 C253 C 0.30369 -0.05474 0.39971
 H254 H 0.29978 -0.07742 0.38580
 N255 N 0.28306 -0.01634 0.44123
 C256 C 0.21201 0.05227 0.49171
 H257 H 0.20476 0.03721 0.51411
 C258 C 0.19650 0.08327 0.48616
 H259 H 0.17735 0.09170 0.50454
 C260 C 0.24404 0.05804 0.43950
 H261 H 0.26166 0.04764 0.42082
 C262 C 0.22892 0.08905 0.43279
 H263 H 0.23552 0.10249 0.40917
 Zn264 Zn 0.25028 -0.00431 0.47542
 N265 N 0.23519 0.04024 0.46849
 C266 C 0.27770 0.01608 0.53850
 N267 N 0.27171 -0.01004 0.51787
 C268 C 0.28243 -0.04143 0.52616
 C269 C 0.29889 -0.04778 0.55675
 C270 C 0.29459 0.01092 0.56918
 C271 C 0.19225 -0.02861 0.44436
 C272 C 0.16197 -0.04699 0.44066
 C273 C 0.16946 -0.07172 0.49674
 C274 C 0.19949 -0.05256 0.49952
 N275 N 0.21045 -0.03179 0.47333
 H276 H 0.26977 0.04100 0.53105
 H277 H 0.27806 -0.06160 0.50891
 H278 H 0.30709 -0.07296 0.56301
 H279 H 0.29895 0.03190 0.58542
 H280 H 0.20130 -0.01158 0.42412
 H281 H 0.14786 -0.04412 0.41738
 H282 H 0.16098 -0.08785 0.51794
 H283 H 0.21368 -0.05404 0.52277
 C284 C 0.20447 0.10186 0.45604
 C285 C 0.33397 -0.03570 0.39456
 C286 C 0.15029 -0.06901 0.46697
 C287 C 0.30529 -0.02142 0.57863
 C288 C 0.70809 0.05394 0.55533
 H289 H 0.72087 0.07103 0.53718
 C290 C 0.68169 0.06538 0.57689
 H291 H 0.67415 0.09138 0.57524
 C292 C 0.70236 -0.00086 0.57936
 H293 H 0.71071 -0.02657 0.58039
 C294 C 0.67554 0.00946 0.60116
 H295 H 0.66367 -0.00852 0.61900
 N296 N 0.71767 0.02129 0.55672
 C297 C 0.80350 0.05562 0.49986
 H298 H 0.79261 0.05196 0.47519
 C299 C 0.83252 0.07625 0.50257
 H300 H 0.84395 0.08807 0.47980
 C301 C 0.80246 0.04407 0.55944
 H302 H 0.79066 0.03119 0.58144
 C303 C 0.83161 0.06402 0.56322
 H304 H 0.84211 0.06660 0.58828
 Zn305 Zn 0.75296 0.00830 0.52565
 N306 N 0.78969 0.03941 0.52802
 C307 C 0.75595 -0.00552 0.45605
 N308 N 0.73547 0.00710 0.48126
 C309 C 0.70199 0.01511 0.47583
 C310 C 0.68770 0.00996 0.44415
 C311 C 0.74269 -0.01115 0.42398
 C312 C 0.80272 -0.03979 0.54463
 C313 C 0.81635 -0.07184 0.54782
 C314 C 0.76092 -0.09456 0.53361
 C315 C 0.74822 -0.06197 0.53095
 N316 N 0.76928 -0.03534 0.53604
 H317 H 0.78231 -0.01226 0.46125
 H318 H 0.68590 0.02443 0.49638
 H319 H 0.66079 0.01578 0.44093
 H320 H 0.75920 -0.02187 0.40446
 H321 H 0.81943 -0.01854 0.54784
 H322 H 0.84315 -0.07431 0.55419
 H323 H 0.74405 -0.11537 0.52844
 H324 H 0.72190 -0.05780 0.52350
 C325 C 0.84731 0.08000 0.53452
 C326 C 0.66476 0.04295 0.59988
 C327 C 0.79567 -0.09982 0.54140
 C328 C 0.70796 -0.00389 0.41782
 C329 C 0.48422 0.18638 1.05411
 H330 H 0.46939 0.17593 1.03400
 C331 C 0.49321 0.16617 1.08201
 H332 H 0.48533 0.14021 1.08272
 C333 C 0.51257 0.23295 1.07713
 H334 H 0.52004 0.25903 1.07491
 C335 C 0.52215 0.21368 1.10540
 H336 H 0.53702 0.22520 1.12491
 N337 N 0.49403 0.21907 1.05219
 C338 C 0.43544 0.29943 1.00420
 H339 H 0.44499 0.29908 0.97802
 C340 C 0.41069 0.32291 1.01385
 H341 H 0.40134 0.34026 0.99475
 C342 C 0.43583 0.27666 1.06049
 H343 H 0.44554 0.25856 1.07864
 C344 C 0.41104 0.29959 1.07121
 H345 H 0.40210 0.29894 1.09761
 Zn346 Zn 0.48299 0.24665 1.01427
 N347 N 0.44788 0.27721 1.02756
 C348 C 0.43490 0.22232 0.96698
 N349 N 0.46766 0.21962 0.97831
 C350 C 0.49008 0.19732 0.96451
 C351 C 0.48024 0.17725 0.93786
 C352 C 0.42397 0.20273 0.94030
 C353 C 0.52409 0.30411 0.99514
 C354 C 0.55464 0.32115 0.98589
 C355 C 0.58475 0.26852 0.98760
 C356 C 0.55365 0.25252 0.99684
 N357 N 0.52396 0.27030 1.00009
 H358 H 0.41704 0.23950 0.97870
 H359 H 0.51565 0.19480 0.97431
 H360 H 0.49881 0.15989 0.92757
 H361 H 0.39787 0.20541 0.93158
 H362 H 0.50068 0.31817 0.99868
 H363 H 0.55385 0.34795 0.98188
 H364 H 0.60808 0.25388 0.98545
 H365 H 0.55348 0.22595 1.00241
 C366 C 0.39840 0.32340 1.04791
 C367 C 0.51256 0.17979 1.10814
 C368 C 0.58560 0.30332 0.98211
 C369 C 0.44680 0.17992 0.92518
 C370 C 0.49202 0.80885 -0.05001
 H371 H 0.47512 0.81323 -0.02815
 C372 C 0.49464 0.83268 -0.07665
 H373 H 0.47954 0.85526 -0.07502
 C374 C 0.53371 0.77490 -0.07744
 H375 H 0.54983 0.75301 -0.07727
 C376 C 0.53727 0.79809 -0.10445
 H377 H 0.55557 0.79330 -0.12511
 N378 N 0.51114 0.78045 -0.05101
 C379 C 0.45974 0.70909 0.02012
 H380 H 0.48138 0.70175 0.03535
 C381 C 0.42796 0.69272 0.02493
 H382 H 0.42513 0.67307 0.04431
 C383 C 0.43746 0.74303 -0.02438
 H384 H 0.44147 0.76185 -0.04432
 C385 C 0.40511 0.72774 -0.02000
 H386 H 0.38439 0.73521 -0.03640
 Zn387 Zn 0.50912 0.75083 -0.01246
 N388 N 0.46400 0.73350 -0.00444
 C389 C 0.50343 0.78249 0.05205
 N390 N 0.52399 0.77610 0.02431
 C391 C 0.55544 0.79091 0.01960
 C392 C 0.56722 0.81363 0.04295
 C393 C 0.51420 0.80528 0.07614
 C394 C 0.53200 0.69499 -0.04720
 C395 C 0.55450 0.66953 -0.05656
 C396 C 0.58875 0.68164 -0.00785
 C397 C 0.56592 0.70742 0.00021
 N398 N 0.53874 0.71412 -0.02001
 H399 H 0.47824 0.77085 0.05490
 H400 H 0.57096 0.78576 -0.00302
 H401 H 0.59208 0.82559 0.03823
 H402 H 0.49715 0.81047 0.09761
 H403 H 0.50985 0.70052 -0.06247
 H404 H 0.54960 0.65536 -0.07907
 H405 H 0.61094 0.67727 0.00773
 H406 H 0.57035 0.72242 0.02218
 C407 C 0.40027 0.70183 0.00446
 C408 C 0.51767 0.82746 -0.10430
 C409 C 0.58353 0.66296 -0.03707
 C410 C 0.54631 0.82167 0.07137
 C411 C 1.00727 0.50284 0.20080
 H412 H 0.98523 0.49528 0.18654
 C413 C 1.03966 0.50627 0.18436
 H414 H 1.04199 0.50126 0.15747
 C415 C 1.03051 0.51916 0.25307
 H416 H 1.02654 0.52448 0.27980
 C417 C 1.06324 0.52291 0.23772
 H418 H 1.08445 0.53096 0.25294
 N419 N 1.00335 0.50940 0.23452
 C420 C 0.92749 0.46760 0.30822
 H421 H 0.90554 0.48325 0.30279
 C422 C 0.92472 0.44293 0.33388
 H423 H 0.90051 0.43979 0.34809
 C424 C 0.98563 0.45293 0.29618
 H425 H 1.00931 0.45690 0.28138
 C426 C 0.98399 0.42786 0.32170
 H427 H 1.00673 0.41310 0.32629
 Zn428 Zn 0.95956 0.50790 0.25691
 N429 N 0.95774 0.47252 0.29028
 C430 C 0.90860 0.47032 0.22564
 N431 N 0.92454 0.50072 0.22471
 C432 C 0.91620 0.52463 0.20105
 C433 C 0.89036 0.51856 0.17770
 C434 C 0.88250 0.46340 0.20320
 C435 C 0.94779 0.55004 0.31332
 C436 C 0.94851 0.58014 0.33046
 C437 C 0.96183 0.60885 0.27682
 C438 C 0.96072 0.57815 0.26066
 N439 N 0.95399 0.54943 0.27902
 H440 H 0.91629 0.45106 0.24356
 H441 H 0.92950 0.54842 0.20019
 H442 H 0.88374 0.53796 0.15937
 H443 H 0.87010 0.43906 0.20458
 H444 H 0.94367 0.52714 0.32795
 H445 H 0.94419 0.57951 0.35779
 H446 H 0.96817 0.63126 0.26184
 H447 H 0.96701 0.57710 0.23370
 C448 C 0.95326 0.42282 0.34119
 C449 C 1.06821 0.51668 0.20285
 C450 C 0.95628 0.61009 0.31231
 C451 C 0.87300 0.48762 0.17888
 C452 C -0.00897 0.49337 0.80044
 H453 H 0.01372 0.49198 0.81566
 C454 C -0.04155 0.49095 0.81663
 H455 H -0.04320 0.48824 0.84410
 C456 C -0.03427 0.49615 0.74629
 H457 H -0.03143 0.49706 0.71888
 C458 C -0.06725 0.49373 0.76137
 H459 H -0.08942 0.49354 0.74524
 N460 N -0.00586 0.49612 0.76581
 C461 C 0.05001 0.45602 0.68354
 H462 H 0.05887 0.47870 0.67040
 C463 C 0.04987 0.42580 0.66628
 H464 H 0.05852 0.42570 0.63984
 C465 C 0.02869 0.42860 0.73418
 H466 H 0.02056 0.42994 0.76072
 C467 C 0.02821 0.39803 0.71805
 H468 H 0.01945 0.37597 0.73241
 Zn469 Zn 0.03808 0.49609 0.74270
 N470 N 0.03930 0.45682 0.71684
 C471 C 0.09685 0.46801 0.77217
 N472 N 0.07405 0.49361 0.77477
 C473 C 0.07632 0.51609 0.80010
 C474 C 0.10139 0.51246 0.82485
 C475 C 0.12226 0.46351 0.79622
 C476 C 0.02311 0.53867 0.68619
 C477 C 0.02401 0.56823 0.66642
 C478 C 0.06676 0.59007 0.70353
 C479 C 0.06529 0.55998 0.72240
 N480 N 0.04308 0.53523 0.71402
 H481 H 0.09522 0.45071 0.75160
 H482 H 0.05811 0.53644 0.80155
 H483 H 0.10219 0.53032 0.84501
 H484 H 0.13969 0.44260 0.79385
 H485 H 0.00625 0.51852 0.67930
 H486 H 0.00716 0.57059 0.64503
 H487 H 0.08399 0.60976 0.71110
 H488 H 0.08141 0.55683 0.74418
 C489 C 0.03866 0.39626 0.68360
 C490 C -0.07129 0.49097 0.79699
 C491 C 0.04563 0.59469 0.67539
 C492 C 0.12451 0.48551 0.82336
 N493 N 0.18251 0.14366 0.41594
 N494 N 0.16036 0.16877 0.41526
 C495 C 0.14953 0.17338 0.44775
 C496 C 0.16567 0.15020 0.46836
 N497 N 0.18592 0.13193 0.44754
 H498 H 0.16145 0.14600 0.49551
 N499 N 0.61517 0.63284 -0.08092
 N500 N 0.63996 0.61039 -0.08387
 C501 C 0.64929 0.60183 -0.05199
 C502 C 0.62938 0.61991 -0.02927
 N503 N 0.60847 0.63895 -0.04840
 H504 H 0.62993 0.61921 -0.00171
 N505 N 0.79254 -0.16023 0.53310
 N506 N 0.81345 -0.18617 0.52998
 C507 C 0.84561 -0.17502 0.53573
 C508 C 0.84366 -0.14141 0.54242
 N509 N 0.81014 -0.13297 0.54048
 H510 H 0.86504 -0.12453 0.54600
 N511 N 0.35688 0.34604 1.08918
 N512 N 0.33546 0.37152 1.09242
 C513 C 0.33842 0.39013 1.06332
 C514 C 0.36240 0.37503 1.04205
 N515 N 0.37328 0.34754 1.05908
 H516 H 0.37101 0.38327 1.01676
 N517 N 0.90062 0.09276 0.56292
 N518 N 0.92768 0.11302 0.55953
 C519 C 0.92305 0.13233 0.53137
 C520 C 0.89210 0.12313 0.51752
 N521 N 0.87894 0.09837 0.53799
 H522 H 0.88017 0.13359 0.49510
 N523 N 0.33790 0.69714 -0.00163
 N524 N 0.31299 0.67440 0.00199
 C525 C 0.32762 0.64594 0.01362
 C526 C 0.36244 0.65217 0.01724
 N527 N 0.36777 0.68434 0.00749
 H528 H 0.38219 0.63481 0.02501
 N529 N 0.09471 -0.07937 0.44152
 N530 N 0.06879 -0.10108 0.44369
 C531 C 0.07664 -0.12419 0.46783
 C532 C 0.10838 -0.11576 0.48051
 N533 N 0.11875 -0.08763 0.46343
 H534 H 0.12267 -0.12896 0.49985
 N535 N 0.64690 0.30451 0.96555
 N536 N 0.67263 0.32622 0.96079
 C537 C 0.65945 0.35687 0.96597
 C538 C 0.62470 0.35315 0.97411
 N539 N 0.61783 0.32011 0.97359
 H540 H 0.60665 0.37248 0.98112
 N541 N 0.54491 0.17006 1.15991
 N542 N 0.55066 0.14608 1.18290
 C543 C 0.53173 0.11933 1.17439
 C544 C 0.51418 0.12779 1.14528
 N545 N 0.52313 0.15966 1.13698
 H546 H 0.49703 0.11209 1.13139
 N547 N 0.05581 0.65492 0.67036
 N548 N 0.05013 0.68046 0.64914
 C549 C 0.03538 0.66786 0.62151
 C550 C 0.03216 0.63365 0.62655
 N551 N 0.04511 0.62655 0.65740
 H552 H 0.02084 0.61592 0.60971
 N553 N 0.54927 0.85254 -0.15325
 N554 N 0.54722 0.87814 -0.17510
 C555 C 0.51799 0.89465 -0.16700
 C556 C 0.50214 0.87821 -0.13928
 N557 N 0.52251 0.85208 -0.13145
 H558 H 0.47816 0.88454 -0.12628
 N559 N 0.92425 0.39609 0.39079
 N560 N 0.92934 0.37225 0.41407
 C561 C 0.96039 0.35865 0.40673
 C562 C 0.97412 0.37512 0.37788
 N563 N 0.95080 0.39836 0.36881
 H564 H 0.99866 0.37083 0.36501
 N565 N 0.58685 0.86411 0.08926
 N566 N 0.58947 0.88770 0.11207
 C567 C 0.56054 0.88617 0.13204
 C568 C 0.54007 0.86046 0.12060
 N569 N 0.55741 0.84739 0.09379
 H570 H 0.51480 0.85270 0.13022
 N571 N 0.02831 0.33613 0.68283
 N572 N 0.02672 0.31151 0.66104
 C573 C 0.03502 0.32474 0.62993
 C574 C 0.04178 0.35844 0.63340
 N575 N 0.03719 0.36461 0.66687
 H576 H 0.04777 0.37674 0.61331
 N577 N 0.40448 0.16055 0.88486
 N578 N 0.40206 0.13950 0.85948
 C579 C 0.43308 0.12471 0.85566
 C580 C 0.45458 0.13750 0.87965
 N581 N 0.43584 0.15978 0.89742
 H582 H 0.48125 0.13122 0.88359
 N583 N 0.97174 0.66930 0.31436
 N584 N 0.97632 0.69284 0.33696
 C585 C 0.96792 0.67917 0.36788
 C586 C 0.95796 0.64643 0.36343
 N587 N 0.96077 0.64112 0.32965
 H588 H 0.95070 0.62813 0.38312
 N589 N 1.12877 0.53369 0.20262
 N590 N 1.15622 0.53567 0.18178
 C591 C 1.14661 0.52441 0.15133
 C592 C 1.11204 0.51541 0.15438
 N593 N 1.10189 0.52158 0.18679
 H594 H 1.09602 0.50522 0.13507
 N595 N 0.63209 0.08596 0.62979
 N596 N 0.60441 0.08872 0.65015
 C597 C 0.59100 0.05770 0.65488
 C598 C 0.61156 0.03579 0.63690
 N599 N 0.63695 0.05435 0.62166
 H600 H 0.60837 0.00903 0.63508
 N601 N -0.13344 0.48171 0.79496
 N602 N -0.16096 0.47900 0.81564
 C603 C -0.15007 0.48276 0.84764
 C604 C -0.11472 0.48793 0.84580
 N605 N -0.10533 0.48708 0.81246
 H606 H -0.09773 0.49227 0.86660
 N607 N 0.36596 -0.07845 0.36382
 N608 N 0.39329 -0.08117 0.34302
 C609 C 0.40587 -0.04998 0.33708
 C610 C 0.38537 -0.02802 0.35509
 N611 N 0.36082 -0.04677 0.37149
 H612 H 0.38822 -0.00116 0.35634
 N613 N 0.17142 0.45419 0.84883
 N614 N 0.19043 0.45388 0.87629
 C615 C 0.18041 0.48007 0.89504
 C616 C 0.15451 0.49656 0.87797
 N617 N 0.14962 0.47958 0.84921
 H618 H 0.14028 0.51823 0.88613
 N619 N 0.70956 -0.02981 0.36208
 N620 N 0.68923 -0.03507 0.33618
 C621 C 0.65885 -0.02024 0.34356
 C622 C 0.66133 -0.00561 0.37490
 N623 N 0.69335 -0.01218 0.38571
 H624 H 0.64154 0.00798 0.38857
 N625 N 0.82261 0.45625 0.16209
 N626 N 0.80193 0.45368 0.13608
 C627 C 0.81219 0.47701 0.11244
 C628 C 0.84000 0.49419 0.12505
 N629 N 0.84570 0.48035 0.15607
 H630 H 0.85545 0.51366 0.11236
 N631 N 0.32419 -0.05754 0.62541
 N632 N 0.34378 -0.05630 0.65242
 C633 C 0.35540 -0.02455 0.65423
 C634 C 0.34204 -0.00628 0.62731
 N635 N 0.32277 -0.02779 0.60995
 H636 H 0.34704 0.01962 0.62012
   
