data_POSCAR
  _audit_creation_date              2014-09-24
  _audit_creation_method            'ToBaCCo'
  _symmetry_space_group_name_H-M    'P1'
  _symmetry_Int_Tables_number       1
  _symmetry_cell_setting            triclinic
  loop_
  _symmetry_equiv_pos_as_xyz
 x,y,z
_cell_length_a 16.4046
_cell_length_b 17.8067
_cell_length_c 30.8471
_cell_angle_alpha 89.128000
_cell_angle_beta 90.681600
_cell_angle_gamma 122.274700
loop_
  _atom_site_label
  _atom_site_type_symbol
  _atom_site_fract_x
  _atom_site_fract_y
  _atom_site_fract_z
Zn1 Zn 0.95146 0.04906 1.02934
 Zn2 Zn 1.13448 0.06867 1.00902
 Zn3 Zn 0.96266 -0.11062 1.01682
 Zn4 Zn 0.97776 -0.00561 0.94470
 O5 O 1.00725 0.00132 1.00055
 O6 O 1.03442 0.12996 1.06770
 O7 O 1.17294 0.01827 1.04889
 O8 O 0.85261 -0.15430 1.04542
 O9 O 1.16750 0.17522 1.03002
 O10 O 0.84311 -0.03593 1.05659
 O11 O 1.04329 -0.11827 1.05336
 O12 O 0.88266 -0.11458 0.93056
 O13 O 1.19962 0.08482 0.95948
 O14 O 0.93671 -0.18237 0.97086
 O15 O 1.07885 0.02041 0.91195
 O16 O 0.94129 0.06847 0.92927
 O17 O 0.91999 0.11050 0.99322
 C18 C 1.12224 0.18831 1.05917
 C19 C 1.12809 -0.05945 1.06558
 C20 C 0.80897 -0.11909 1.06030
 C21 C 0.88731 -0.18209 0.93879
 C22 C 1.16798 0.05927 0.92110
 C23 C 0.92032 0.11457 0.95205
 Zn24 Zn 0.04767 0.93252 0.51255
 Zn25 Zn -0.13641 0.92787 0.51798
 Zn26 Zn 0.05087 1.10054 0.52859
 Zn27 Zn -0.00891 1.01233 0.44201
 O28 O -0.01120 0.99367 0.50036
 O29 O -0.02775 0.83330 0.54423
 O30 O -0.16415 0.98146 0.55757
 O31 O 0.15702 1.12004 0.55774
 O32 O -0.16689 0.82591 0.54300
 O33 O 0.15587 0.99752 0.54380
 O34 O -0.02638 1.10969 0.56679
 O35 O 0.05424 1.12805 0.42762
 O36 O -0.22170 0.90265 0.47565
 O37 O 0.09115 1.19302 0.49178
 O38 O -0.12665 0.96543 0.41894
 O39 O 0.04154 0.96095 0.41275
 O40 O 0.07957 0.89689 0.46438
 C41 C -0.11624 0.79474 0.55433
 C42 C -0.11500 1.05605 0.57569
 C43 C 0.19445 1.07328 0.56132
 C44 C 0.08961 1.19734 0.45068
 C45 C -0.20993 0.92153 0.43563
 C46 C 0.07264 0.91208 0.42449
 O47 O 0.18870 0.51476 0.30414
 O48 O 0.16878 0.65347 0.30358
 C49 C 0.23594 0.72212 0.32241
 O50 O 0.32072 0.76696 0.30795
 O51 O 0.47483 0.78600 0.27477
 C52 C 0.50067 0.73272 0.28631
 O53 O 0.45678 0.65212 0.27503
 O54 O 0.29512 0.49690 0.26852
 C55 C 0.23462 0.47630 0.29886
 O56 O 0.14193 0.48896 0.21934
 O57 O 0.13513 0.63285 0.21775
 C58 C 0.17600 0.71532 0.20953
 O59 O 0.25502 0.77440 0.22720
 O60 O 0.40882 0.79053 0.19478
 C61 C 0.45308 0.75841 0.17770
 O62 O 0.44622 0.68761 0.19147
 O63 O 0.28035 0.53528 0.18543
 C64 C 0.18989 0.48309 0.18895
 Cr65 Cr 0.16372 0.57544 0.26081
 Cr66 Cr 0.36212 0.77457 0.25112
 Cr67 Cr 0.36688 0.59505 0.23072
 O68 O 0.29795 0.64866 0.24756
 O69 O 0.84370 0.45849 0.81387
 O70 O 0.82782 0.31162 0.79148
 C71 C 0.75618 0.23793 0.80453
 O72 O 0.67087 0.20703 0.79158
 O73 O 0.52861 0.23081 0.78017
 C74 C 0.52820 0.28611 0.80613
 O75 O 0.58294 0.36974 0.80200
 O76 O 0.75420 0.51318 0.79566
 C77 C 0.81206 0.50780 0.82130
 O78 O 0.87555 0.51656 0.72995
 O79 O 0.85165 0.36550 0.70811
 C80 C 0.79902 0.28826 0.69286
 O81 O 0.71413 0.23164 0.70656
 O82 O 0.57113 0.25619 0.69376
 C83 C 0.53501 0.30345 0.69059
 O84 O 0.55844 0.36731 0.71591
 O85 O 0.73702 0.50197 0.70873
 C86 C 0.82739 0.53690 0.70514
 Cr87 Cr 0.84461 0.41122 0.76057
 Cr88 Cr 0.62429 0.23619 0.74326
 Cr89 Cr 0.65999 0.43539 0.75540
 O90 O 0.70954 0.36025 0.75295
 C91 C 0.17369 0.27249 0.08312
 C92 C 0.12820 0.29955 0.10805
 C93 C 0.18266 0.38286 0.13264
 C94 C 0.13746 0.40873 0.15855
 H95 H 0.05037 0.25921 0.11101
 H96 H 0.26077 0.42074 0.13132
 H97 H 0.25129 0.31412 0.07953
 H98 H 0.05943 0.36920 0.16042
 C99 C 0.71905 0.82208 0.08391
 C100 C 0.66062 0.84712 0.09797
 C101 C 0.57873 0.78635 0.12594
 C102 C 0.52037 0.80956 0.14224
 H103 H 0.67590 0.91322 0.09083
 H104 H 0.57063 0.72405 0.13596
 H105 H 0.70152 0.75516 0.09094
 H106 H 0.52883 0.87207 0.13242
 C107 C 0.17581 0.91867 0.09987
 C108 C 0.12831 0.84253 0.12263
 C109 C 0.17584 0.82163 0.15738
 C110 C 0.12874 0.74272 0.17778
 H111 H 0.05306 0.79444 0.11550
 H112 H 0.25070 0.86971 0.16520
 H113 H 0.25071 0.96716 0.10737
 H114 H 0.05497 0.69399 0.16856
 C115 C 0.83721 0.71361 0.58103
 C116 C 0.88636 0.69312 0.60829
 C117 C 0.83404 0.62077 0.64013
 C118 C 0.88012 0.60580 0.67173
 H119 H 0.96447 0.73363 0.60930
 H120 H 0.75591 0.58101 0.63857
 H121 H 0.75902 0.67494 0.58188
 H122 H 0.95825 0.64455 0.67298
 C123 C 0.28353 0.10483 0.58697
 C124 C 0.33122 0.18321 0.60704
 C125 C 0.41559 0.20739 0.63500
 C126 C 0.45968 0.28273 0.65769
 H127 H 0.30606 0.22834 0.60413
 H128 H 0.43863 0.16079 0.63878
 H129 H 0.30954 0.06038 0.59026
 H130 H 0.43473 0.32798 0.65442
 C131 C 0.83522 0.07868 0.60722
 C132 C 0.86691 0.16197 0.61821
 C133 C 0.81169 0.18111 0.64851
 C134 C 0.84272 0.26471 0.65862
 H135 H 0.93330 0.21632 0.60443
 H136 H 0.74774 0.12668 0.66387
 H137 H 0.76698 0.02503 0.61993
 H138 H 0.90830 0.31826 0.64384
 C139 C 0.23506 0.07705 0.88554
 C140 C 0.32597 0.14591 0.88638
 C141 C 0.38850 0.17048 0.84816
 C142 C 0.46228 0.25410 0.84328
 H143 H 0.35241 0.18887 0.91439
 H144 H 0.37188 0.12171 0.82338
 H145 H 0.20663 0.03793 0.85635
 H146 H 0.47438 0.30261 0.86752
 C147 C 0.83659 0.74227 0.90945
 C148 C 0.85869 0.68064 0.90578
 C149 C 0.81536 0.61618 0.87040
 C150 C 0.84768 0.56409 0.86003
 H151 H 0.91332 0.68200 0.92649
 H152 H 0.75937 0.61508 0.85082
 H153 H 0.78487 0.74207 0.88713
 H154 H 0.90377 0.56510 0.87945
 C155 C 0.89530 0.17334 0.92997
 C156 C 0.85829 0.15494 0.88997
 C157 C 0.83935 0.21503 0.86517
 C158 C 0.77226 0.18201 0.83411
 H159 H 0.84094 0.09339 0.87489
 H160 H 0.88083 0.28565 0.87169
 H161 H 0.90666 0.23141 0.94658
 H162 H 0.72660 0.11063 0.83021
 C163 C 0.70486 0.89171 0.40826
 C164 C 0.70084 0.86377 0.36803
 C165 C 0.61376 0.83125 0.34155
 C166 C 0.58740 0.76641 0.31315
 H167 H 0.76034 0.86069 0.35529
 H168 H 0.56876 0.85799 0.34663
 H169 H 0.64208 0.88716 0.42231
 H170 H 0.62832 0.73487 0.31081
 C171 C 0.12620 0.28458 0.42962
 C172 C 0.14439 0.29715 0.38716
 C173 C 0.17161 0.38136 0.36500
 C174 C 0.21383 0.39969 0.32625
 H175 H 0.13826 0.24379 0.36798
 H176 H 0.15568 0.42692 0.37978
 H177 H 0.13662 0.33902 0.44928
 H178 H 0.23356 0.35523 0.31331
 C179 C 0.09607 0.87000 0.39009
 C180 C 0.13540 0.82164 0.39719
 C181 C 0.14902 0.77697 0.36054
 C182 C 0.21458 0.75430 0.36167
 H183 H 0.15814 0.81570 0.42951
 H184 H 0.10870 0.76752 0.33081
 H185 H 0.07752 0.87761 0.35713
 H186 H 0.26159 0.77086 0.38963
   
