data_POSCAR
  _audit_creation_date              2014-09-24
  _audit_creation_method            'ToBaCCo'
  _symmetry_space_group_name_H-M    'P1'
  _symmetry_Int_Tables_number       1
  _symmetry_cell_setting            triclinic
  loop_
  _symmetry_equiv_pos_as_xyz
 x,y,z
_cell_length_a 31.8170
_cell_length_b 31.8170
_cell_length_c 31.8169
_cell_angle_alpha 90.000400
_cell_angle_beta 89.999900
_cell_angle_gamma 90.000500
loop_
  _atom_site_label
  _atom_site_type_symbol
  _atom_site_fract_x
  _atom_site_fract_y
  _atom_site_fract_z
O1 O 0.55732 0.50005 0.03460
 O2 O 0.44142 0.50005 0.03460
 O3 O 0.49938 0.44222 0.03458
 O4 O 0.49938 0.55787 0.03458
 O5 O 0.49938 0.55786 -0.03494
 O6 O 0.49938 0.44222 -0.03494
 O7 O 0.44142 0.50005 -0.03490
 O8 O 0.55733 0.50005 -0.03490
 Cu9 Cu 0.49937 0.50004 0.04160
 Cu10 Cu 0.49938 0.50004 -0.04193
 C11 C 0.57689 0.50006 -0.00015
 C12 C 0.42184 0.50006 -0.00015
 C13 C 0.49939 0.42271 -0.00018
 C14 C 0.49938 0.57737 -0.00018
 O15 O -0.03473 0.55863 0.50003
 O16 O -0.03472 0.44273 0.50003
 O17 O -0.03470 0.50067 0.55785
 O18 O -0.03470 0.50067 0.44220
 O19 O 0.03481 0.50068 0.44221
 O20 O 0.03482 0.50068 0.55784
 O21 O 0.03478 0.44273 0.50003
 O22 O 0.03477 0.55864 0.50003
 Cu23 Cu -0.04172 0.50068 0.50002
 Cu24 Cu 0.04181 0.50069 0.50002
 C25 C 0.00002 0.57821 0.50004
 C26 C 0.00003 0.42316 0.50004
 C27 C 0.00006 0.50067 0.57735
 C28 C 0.00006 0.50067 0.42269
 O29 O 0.50001 0.03465 0.55860
 O30 O 0.50001 0.03465 0.44270
 O31 O 0.44220 0.03463 0.50065
 O32 O 0.55785 0.03463 0.50065
 O33 O 0.55784 -0.03488 0.50065
 O34 O 0.44221 -0.03488 0.50065
 O35 O 0.50001 -0.03485 0.44270
 O36 O 0.50001 -0.03485 0.55860
 Cu37 Cu 0.50003 0.04165 0.50065
 Cu38 Cu 0.50003 -0.04188 0.50065
 C39 C 0.50000 -0.00010 0.57818
 C40 C 0.50000 -0.00010 0.42313
 C41 C 0.42270 -0.00013 0.50064
 C42 C 0.57736 -0.00013 0.50064
 O43 O 0.46497 0.00004 -0.05849
 O44 O 0.46497 0.00004 0.05738
 O45 O 0.46492 0.05783 -0.00055
 O46 O 0.46492 -0.05775 -0.00055
 O47 O 0.53424 -0.05776 -0.00055
 O48 O 0.53424 0.05784 -0.00055
 O49 O 0.53429 0.00004 0.05737
 O50 O 0.53428 0.00004 -0.05848
 Cu51 Cu 0.45800 0.00004 -0.00056
 Cu52 Cu 0.54121 0.00004 -0.00056
 C53 C 0.49963 0.00004 -0.07835
 C54 C 0.49963 0.00004 0.07723
 C55 C 0.49958 0.07765 -0.00054
 C56 C 0.49958 -0.07757 -0.00054
 O57 O -0.05735 0.53505 1.00002
 O58 O 0.05852 0.53505 1.00002
 O59 O 0.00057 0.53510 0.94223
 O60 O 0.00057 0.53510 1.05781
 O61 O 0.00057 0.46578 1.05782
 O62 O 0.00057 0.46578 0.94222
 O63 O 0.05850 0.46573 1.00002
 O64 O -0.05734 0.46573 1.00002
 Cu65 Cu 0.00058 0.54202 1.00002
 Cu66 Cu 0.00058 0.45881 1.00002
 C67 C -0.07721 0.50039 1.00002
 C68 C 0.07837 0.50038 1.00002
 C69 C 0.00055 0.50044 0.92241
 C70 C 0.00055 0.50045 1.07763
 O71 O 0.00003 -0.05845 0.46570
 O72 O 0.00003 0.05740 0.46569
 O73 O 0.05784 -0.00051 0.46574
 O74 O -0.05777 -0.00052 0.46574
 O75 O -0.05776 -0.00052 0.53506
 O76 O 0.05783 -0.00051 0.53506
 O77 O 0.00003 0.05741 0.53501
 O78 O 0.00003 -0.05846 0.53501
 Cu79 Cu 0.00003 -0.00053 0.45877
 Cu80 Cu 0.00003 -0.00052 0.54198
 C81 C 0.00003 -0.07832 0.50035
 C82 C 0.00003 0.07727 0.50034
 C83 C 0.07764 -0.00050 0.50040
 C84 C -0.07758 -0.00051 0.50041
 C85 C -0.19032 0.53837 1.00001
 C86 C -0.21239 0.50031 1.00000
 C87 C -0.19028 0.46228 1.00001
 C88 C -0.14631 0.46227 1.00002
 C89 C -0.37796 0.50011 0.99985
 C90 C -0.14635 0.53844 1.00002
 C91 C -0.25769 0.50027 0.99996
 C92 C -0.29562 0.50023 0.99991
 C93 C -0.34004 0.50016 0.99987
 C94 C -0.12381 0.50037 1.00002
 H95 H -0.20710 0.56800 1.00000
 H96 H -0.20702 0.43263 1.00000
 H97 H -0.12996 0.43242 1.00002
 H98 H -0.13003 0.56831 1.00002
 C99 C 0.19149 0.53836 1.00000
 C100 C 0.21356 0.50030 0.99999
 C101 C 0.19144 0.46228 1.00000
 C102 C 0.14747 0.46226 1.00001
 C103 C 0.37913 0.50010 0.99985
 C104 C 0.14751 0.53844 1.00001
 C105 C 0.25886 0.50026 0.99995
 C106 C 0.29678 0.50022 0.99990
 C107 C 0.34120 0.50015 0.99986
 C108 C 0.12497 0.50036 1.00002
 H109 H 0.20826 0.56800 0.99999
 H110 H 0.20817 0.43262 0.99999
 H111 H 0.13112 0.43241 1.00002
 H112 H 0.13120 0.56830 1.00002
 C113 C 0.00002 -0.19143 0.53834
 C114 C 0.00001 -0.21350 0.50029
 C115 C 0.00002 -0.19139 0.46226
 C116 C 0.00003 -0.14742 0.46223
 C117 C 0.00001 -0.37907 0.50008
 C118 C 0.00003 -0.14745 0.53841
 C119 C -0.00001 -0.25880 0.50026
 C120 C -0.00002 -0.29673 0.50021
 C121 C -0.00001 -0.34115 0.50013
 C122 C 0.00003 -0.12492 0.50033
 H123 H 0.00001 -0.20820 0.56798
 H124 H 0.00001 -0.20813 0.43260
 H125 H 0.00003 -0.13107 0.43238
 H126 H 0.00003 -0.13113 0.56828
 C127 C 0.00000 0.19038 0.53833
 C128 C -0.00000 0.21245 0.50028
 C129 C 0.00000 0.19033 0.46225
 C130 C 0.00002 0.14636 0.46223
 C131 C 0.00002 0.37801 0.50008
 C132 C 0.00001 0.14640 0.53840
 C133 C -0.00002 0.25775 0.50024
 C134 C -0.00002 0.29567 0.50020
 C135 C -0.00001 0.34009 0.50012
 C136 C 0.00002 0.12387 0.50033
 H137 H -0.00000 0.20715 0.56797
 H138 H -0.00000 0.20707 0.43259
 H139 H 0.00002 0.13002 0.43238
 H140 H 0.00002 0.13009 0.56827
 C141 C 0.46165 0.00003 -0.19146
 C142 C 0.49971 0.00002 -0.21353
 C143 C 0.53774 0.00003 -0.19141
 C144 C 0.53775 0.00004 -0.14744
 C145 C 0.49995 -0.00010 -0.37911
 C146 C 0.46158 0.00004 -0.14749
 C147 C 0.49975 -0.00001 -0.25883
 C148 C 0.49980 -0.00005 -0.29676
 C149 C 0.49989 -0.00009 -0.34118
 C150 C 0.49965 0.00004 -0.12495
 H151 H 0.43202 0.00002 -0.20824
 H152 H 0.56739 0.00002 -0.20815
 H153 H 0.56760 0.00004 -0.13109
 H154 H 0.43171 0.00004 -0.13118
 C155 C 0.53774 0.00002 0.19030
 C156 C 0.49971 0.00001 0.21242
 C157 C 0.46165 0.00002 0.19035
 C158 C 0.46158 0.00004 0.14638
 C159 C 0.49995 -0.00010 0.37798
 C160 C 0.53775 0.00004 0.14633
 C161 C 0.49975 -0.00003 0.25772
 C162 C 0.49980 -0.00006 0.29564
 C163 C 0.49989 -0.00010 0.34006
 C164 C 0.49965 0.00004 0.12384
 H165 H 0.56739 0.00002 0.20704
 H166 H 0.43202 0.00001 0.20713
 H167 H 0.43171 0.00004 0.13006
 H168 H 0.56760 0.00004 0.12998
 C169 C 0.53758 -0.19046 -0.00040
 C170 C 0.49951 -0.21245 -0.00036
 C171 C 0.46146 -0.19041 -0.00040
 C172 C 0.46144 -0.14650 -0.00047
 C173 C 0.49940 -0.37761 -0.00019
 C174 C 0.53765 -0.14654 -0.00046
 C175 C 0.49947 -0.25763 -0.00029
 C176 C 0.49945 -0.29547 -0.00025
 C177 C 0.49943 -0.33977 -0.00022
 C178 C 0.49956 -0.12406 -0.00050
 H179 H 0.56721 -0.20725 -0.00037
 H180 H 0.43182 -0.20717 -0.00038
 H181 H 0.43159 -0.13014 -0.00049
 H182 H 0.56752 -0.13022 -0.00048
 C183 C 0.46146 0.19049 -0.00040
 C184 C 0.49951 0.21253 -0.00036
 C185 C 0.53758 0.19054 -0.00039
 C186 C 0.53766 0.14662 -0.00046
 C187 C 0.49941 0.37769 -0.00019
 C188 C 0.46144 0.14657 -0.00047
 C189 C 0.49948 0.25771 -0.00029
 C190 C 0.49945 0.29555 -0.00025
 C191 C 0.49944 0.33985 -0.00022
 C192 C 0.49956 0.12414 -0.00050
 H193 H 0.43182 0.20725 -0.00037
 H194 H 0.56721 0.20733 -0.00037
 H195 H 0.56752 0.13030 -0.00048
 H196 H 0.43159 0.13022 -0.00049
 C197 C -0.19046 -0.00037 0.46239
 C198 C -0.21246 -0.00034 0.50047
 C199 C -0.19043 -0.00037 0.53851
 C200 C -0.14651 -0.00044 0.53854
 C201 C -0.37762 -0.00014 0.50061
 C202 C -0.14654 -0.00043 0.46232
 C203 C -0.25764 -0.00028 0.50049
 C204 C -0.29548 -0.00025 0.50053
 C205 C -0.33978 -0.00018 0.50058
 C206 C -0.12407 -0.00046 0.50042
 H207 H -0.20725 -0.00035 0.43277
 H208 H -0.20719 -0.00035 0.56816
 H209 H -0.13016 -0.00045 0.56839
 H210 H -0.13022 -0.00045 0.43246
 C211 C 0.19049 -0.00038 0.53851
 C212 C 0.21252 -0.00034 0.50046
 C213 C 0.19053 -0.00038 0.46239
 C214 C 0.14661 -0.00043 0.46232
 C215 C 0.37768 -0.00014 0.50061
 C216 C 0.14657 -0.00044 0.53854
 C217 C 0.25770 -0.00029 0.50049
 C218 C 0.29554 -0.00025 0.50053
 C219 C 0.33984 -0.00018 0.50058
 C220 C 0.12414 -0.00046 0.50042
 H221 H 0.20725 -0.00036 0.56815
 H222 H 0.20732 -0.00035 0.43276
 H223 H 0.13028 -0.00045 0.43246
 H224 H 0.13022 -0.00046 0.56839
 C225 C 0.00037 0.46242 1.19051
 C226 C 0.00033 0.50049 1.21251
 C227 C 0.00037 0.53854 1.19048
 C228 C 0.00046 0.53857 1.14656
 C229 C 0.00007 0.50064 1.37767
 C230 C 0.00046 0.46236 1.14659
 C231 C 0.00023 0.50051 1.25769
 C232 C 0.00016 0.50054 1.29553
 C233 C 0.00010 0.50060 1.33983
 C234 C 0.00050 0.50046 1.12412
 H235 H 0.00033 0.43279 1.20730
 H236 H 0.00034 0.56818 1.20725
 H237 H 0.00049 0.56843 1.13022
 H238 H 0.00048 0.43250 1.13026
 C239 C 0.00038 0.53854 0.80956
 C240 C 0.00033 0.50048 0.78753
 C241 C 0.00037 0.46242 0.80953
 C242 C 0.00046 0.46235 0.85345
 C243 C 0.00007 0.50064 0.62237
 C244 C 0.00046 0.53857 0.85348
 C245 C 0.00024 0.50050 0.74236
 C246 C 0.00017 0.50054 0.70451
 C247 C 0.00010 0.50059 0.66021
 C248 C 0.00050 0.50046 0.87592
 H249 H 0.00034 0.56818 0.79279
 H250 H 0.00034 0.43279 0.79274
 H251 H 0.00048 0.43249 0.86978
 H252 H 0.00049 0.56842 0.86982
   
