data_POSCAR
  _audit_creation_date              2014-09-24
  _audit_creation_method            'ToBaCCo'
  _symmetry_space_group_name_H-M    'P1'
  _symmetry_Int_Tables_number       1
  _symmetry_cell_setting            triclinic
  loop_
  _symmetry_equiv_pos_as_xyz
 x,y,z
_cell_length_a 37.0139
_cell_length_b 36.8432
_cell_length_c 36.9711
_cell_angle_alpha 89.931000
_cell_angle_beta 89.931100
_cell_angle_gamma 89.996800
loop_
  _atom_site_label
  _atom_site_type_symbol
  _atom_site_fract_x
  _atom_site_fract_y
  _atom_site_fract_z
C1 C 0.18873 1.23620 0.18918
 C2 C 0.21977 1.22049 0.17408
 C3 C 0.23503 1.18950 0.18987
 C4 C 0.21934 1.17425 0.22086
 C5 C 0.18830 1.18989 0.23604
 C6 C 0.17305 1.22092 0.22021
 H7 H 0.23164 1.23188 0.14973
 H8 H 0.23089 1.14990 0.23267
 H9 H 0.14869 1.23271 0.23160
 C10 C 0.81159 0.76278 0.18914
 C11 C 0.78050 0.77811 0.17377
 C12 C 0.76485 0.80905 0.18926
 C13 C 0.78020 0.82460 0.22020
 C14 C 0.81125 0.80933 0.23560
 C15 C 0.82690 0.77839 0.22011
 H16 H 0.76890 0.76648 0.14947
 H17 H 0.76844 0.84890 0.23183
 H18 H 0.85129 0.76697 0.23175
 C19 C 0.81075 1.23685 -0.18865
 C20 C 0.77975 1.22140 -0.17315
 C21 C 0.76412 1.19047 -0.18862
 C22 C 0.77941 1.17503 -0.21968
 C23 C 0.81037 1.19042 -0.23523
 C24 C 0.82600 1.22136 -0.21975
 H25 H 0.76819 1.23295 -0.14875
 H26 H 0.76767 1.15074 -0.23131
 H27 H 0.85032 1.23286 -0.23149
 C28 C 0.18911 0.76379 -0.18963
 C29 C 0.17381 0.77944 -0.22063
 C30 C 0.18937 0.81049 -0.23605
 C31 C 0.22032 0.82583 -0.22056
 C32 C 0.23566 0.81024 -0.18959
 C33 C 0.22009 0.77920 -0.17417
 H34 H 0.14949 0.76796 -0.23234
 H35 H 0.23201 0.85021 -0.23214
 H36 H 0.23168 0.76753 -0.14984
 C37 C 0.55505 1.04977 -0.01003
 H38 H 0.55573 1.04955 0.01922
 C39 C 0.57984 1.07076 -0.02938
 H40 H 0.59963 1.08689 -0.01502
 C41 C 0.52920 1.02808 -0.06458
 H42 H 0.50998 1.01081 -0.07819
 C43 C 0.55355 1.04867 -0.08497
 H44 H 0.55279 1.04746 -0.11424
 N45 N 0.53032 1.02909 -0.02778
 C46 C 0.44465 1.01010 0.05105
 H47 H 0.44398 0.98074 0.05090
 C48 C 0.41982 1.02947 0.07191
 H49 H 0.40000 1.01504 0.08802
 C50 C 0.47048 1.06488 0.02928
 H51 H 0.48971 1.07856 0.01202
 C52 C 0.44608 1.08530 0.04974
 H53 H 0.44681 1.11467 0.04843
 Zn54 Zn 0.49986 0.99937 0.00078
 N55 N 0.46939 1.02795 0.03039
 C56 C 0.52924 0.97068 0.06606
 N57 N 0.53034 0.96966 0.02926
 C58 C 0.55509 0.94901 0.01144
 C59 C 0.57992 0.92807 0.03072
 C60 C 0.55364 0.95014 0.08639
 C61 C 0.44467 0.98864 -0.04936
 C62 C 0.41988 0.96929 -0.07022
 C63 C 0.44619 0.91344 -0.04820
 C64 C 0.47053 0.93385 -0.02773
 N65 N 0.46941 0.97078 -0.02877
 H66 H 0.51000 0.98793 0.07972
 H67 H 0.55576 0.94922 -0.01781
 H68 H 0.59974 0.91196 0.01631
 H69 H 0.55290 0.95137 0.11565
 H70 H 0.44397 1.01800 -0.04916
 H71 H 0.40008 0.98373 -0.08629
 H72 H 0.44696 0.88407 -0.04697
 H73 H 0.48977 0.92015 -0.01053
 C74 C 0.42046 1.06741 0.07113
 C75 C 0.57916 1.07009 -0.06718
 C76 C 0.42057 0.93135 -0.06953
 C77 C 0.57928 0.92876 0.06852
 C78 C -0.01032 0.55525 1.04972
 H79 H 0.01890 0.55598 1.04957
 C80 C -0.02969 0.58011 1.07060
 H81 H -0.01539 0.59999 1.08671
 C82 C -0.06475 0.52924 1.02799
 H83 H -0.07830 0.50992 1.01076
 C84 C -0.08517 0.55365 1.04848
 H85 H -0.11440 0.55284 1.04721
 N86 N -0.02800 0.53040 1.02909
 C87 C 0.05073 0.44437 1.01046
 H88 H 0.05064 0.44368 0.98120
 C89 C 0.07153 0.41946 1.02985
 H90 H 0.08766 0.39957 1.01553
 C91 C 0.02888 0.47033 1.06495
 H92 H 0.01163 0.48965 1.07853
 C93 C 0.04929 0.44587 1.08539
 H94 H 0.04793 0.44663 1.11466
 Zn95 Zn 0.00059 0.49983 0.99956
 N96 N 0.03007 0.46922 1.02816
 C97 C 0.06590 0.52934 0.97112
 N98 N 0.02915 0.53046 0.97001
 C99 C 0.01145 0.55534 0.94936
 C100 C 0.03080 0.58027 0.92850
 C101 C 0.08630 0.55383 0.95065
 C102 C -0.04951 0.44437 0.98877
 C103 C -0.07036 0.41951 0.96943
 C104 C -0.04822 0.44601 0.91383
 C105 C -0.02776 0.47042 0.93421
 N106 N -0.02888 0.46925 0.97101
 H107 H 0.07948 0.51000 0.98836
 H108 H -0.01777 0.55603 0.94951
 H109 H 0.01647 0.60018 0.91238
 H110 H 0.11553 0.55306 0.95194
 H111 H -0.04937 0.44363 1.01802
 H112 H -0.08647 0.39961 0.98379
 H113 H -0.04693 0.44683 0.88456
 H114 H -0.01053 0.48977 0.92060
 C115 C 0.07069 0.42014 1.06765
 C116 C -0.06745 0.57937 1.06986
 C117 C -0.06960 0.42027 0.93163
 C118 C 0.06855 0.57959 0.92926
 C119 C 1.04981 -0.01001 0.55481
 H120 H 1.04965 0.01935 0.55548
 C121 C 1.07065 -0.02943 0.57961
 H122 H 1.08673 -0.01504 0.59941
 C123 C 1.02810 -0.06473 0.52897
 H124 H 1.01089 -0.07838 0.50975
 C125 C 1.04856 -0.08521 0.55334
 H126 H 1.04728 -0.11457 0.55259
 N127 N 1.02919 -0.02781 0.53007
 C128 C 1.01044 0.05126 0.44428
 H129 H 0.98122 0.05112 0.44363
 C130 C 1.02976 0.07219 0.41940
 H131 H 1.01542 0.08835 0.39957
 C132 C 1.06493 0.02943 0.47011
 H133 H 1.07852 0.01212 0.48936
 C134 C 1.08529 0.04995 0.44567
 H135 H 1.11452 0.04865 0.44639
 Zn136 Zn 0.99966 0.00086 0.49959
 N137 N 1.02817 0.03054 0.46904
 C138 C 0.97122 0.06640 0.52899
 N139 N 0.97013 0.02948 0.53011
 C140 C 0.94953 0.01163 0.55492
 C141 C 0.92872 0.03101 0.57979
 C142 C 0.95080 0.08684 0.55341
 C143 C 0.98892 -0.04947 0.44437
 C144 C 0.96963 -0.07044 0.41960
 C145 C 0.91407 -0.04833 0.44599
 C146 C 0.93441 -0.02775 0.47032
 N147 N 0.97116 -0.02880 0.46915
 H148 H 0.98843 0.08008 0.50970
 H149 H 0.94969 -0.01772 0.55562
 H150 H 0.91265 0.01658 0.59965
 H151 H 0.95209 0.11620 0.55265
 H152 H 1.01814 -0.04928 0.44364
 H153 H 0.98400 -0.08658 0.39978
 H154 H 0.88483 -0.04709 0.44680
 H155 H 0.92079 -0.01049 0.48958
 C156 C 1.06752 0.07141 0.42002
 C157 C 1.06991 -0.06736 0.57895
 C158 C 0.93187 -0.06975 0.42034
 C159 C 0.92947 0.06895 0.57911
 C160 C 0.17279 0.26516 1.17270
 C161 C 0.15827 0.29029 1.15770
 C162 C 0.14074 0.31908 1.13962
 C163 C 0.12535 0.34312 1.12376
 C164 C 0.10682 0.37062 1.10470
 C165 C 0.09058 0.39352 1.08803
 C166 C -0.17207 0.73389 1.17296
 C167 C -0.15718 0.70883 1.15824
 C168 C -0.13921 0.68011 1.14050
 C169 C -0.12343 0.65614 1.12494
 C170 C -0.10444 0.62873 1.10624
 C171 C -0.08780 0.60590 1.08988
 C172 C -0.17296 0.26574 0.82753
 C173 C -0.15814 0.29081 0.84229
 C174 C -0.14033 0.31953 0.86013
 C175 C -0.12472 0.34350 0.87582
 C176 C -0.10599 0.37090 0.89473
 C177 C -0.08961 0.39373 0.91131
 C178 C 0.17285 0.73478 0.82648
 C179 C 0.15803 0.70960 0.84115
 C180 C 0.14013 0.68076 0.85882
 C181 C 0.12440 0.65668 0.87433
 C182 C 0.10547 0.62915 0.89297
 C183 C 0.08887 0.60623 0.90929
 C184 C 1.17195 0.17392 0.26500
 C185 C 1.15706 0.15935 0.29015
 C186 C 1.13911 0.14177 0.31896
 C187 C 1.12336 0.12632 0.34301
 C188 C 1.10441 0.10771 0.37051
 C189 C 1.08781 0.09140 0.39341
 C190 C 1.17246 -0.17226 0.73339
 C191 C 1.15784 -0.15733 0.70834
 C192 C 1.14022 -0.13932 0.67963
 C193 C 1.12475 -0.12350 0.65567
 C194 C 1.10615 -0.10446 0.62828
 C195 C 1.08985 -0.08777 0.60546
 C196 C 0.82819 -0.17347 0.26613
 C197 C 0.84288 -0.15863 0.29115
 C198 C 0.86063 -0.14076 0.31983
 C199 C 0.87625 -0.12510 0.34375
 C200 C 0.89508 -0.10630 0.37111
 C201 C 0.91161 -0.08985 0.39389
 C202 C 0.82724 0.17332 0.73411
 C203 C 0.84181 0.15850 0.70896
 C204 C 0.85937 0.14061 0.68014
 C205 C 0.87479 0.12487 0.65609
 C206 C 0.89333 0.10592 0.62860
 C207 C 0.90958 0.08930 0.60570
 C208 C 0.26565 1.17221 0.17314
 C209 C 0.29076 1.15726 0.15865
 C210 C 0.31954 1.13924 0.14117
 C211 C 0.34355 1.12343 0.12579
 C212 C 0.37102 1.10441 0.10728
 C213 C 0.39389 1.08777 0.09103
 C214 C 0.73356 1.17343 -0.17149
 C215 C 0.70851 1.15870 -0.15667
 C216 C 0.67980 1.14094 -0.13877
 C217 C 0.65585 1.12535 -0.12304
 C218 C 0.62846 1.10660 -0.10410
 C219 C 0.60565 1.09018 -0.08750
 C220 C 0.26621 0.82725 -0.17253
 C221 C 0.29126 0.84200 -0.15780
 C222 C 0.31995 0.85983 -0.14007
 C223 C 0.34390 0.87552 -0.12452
 C224 C 0.37129 0.89442 -0.10585
 C225 C 0.39409 0.91102 -0.08951
 C226 C 0.73419 0.82598 0.17226
 C227 C 0.70905 0.84061 0.15754
 C228 C 0.68025 0.85826 0.13976
 C229 C 0.65621 0.87376 0.12413
 C230 C 0.62873 0.89241 0.10529
 C231 C 0.60585 0.90875 0.08877
   
