data_POSCAR
  _audit_creation_date              2014-09-24
  _audit_creation_method            'ToBaCCo'
  _symmetry_space_group_name_H-M    'P1'
  _symmetry_Int_Tables_number       1
  _symmetry_cell_setting            triclinic
  loop_
  _symmetry_equiv_pos_as_xyz
 x,y,z
_cell_length_a 49.9348
_cell_length_b 49.9140
_cell_length_c 49.9692
_cell_angle_alpha 89.956900
_cell_angle_beta 89.958900
_cell_angle_gamma 90.101400
loop_
  _atom_site_label
  _atom_site_type_symbol
  _atom_site_fract_x
  _atom_site_fract_y
  _atom_site_fract_z
N1 N 0.16402 0.22747 0.23452
 N2 N 0.17107 0.20598 0.24805
 C3 C 0.15392 0.20251 0.26863
 C4 C 0.13532 0.22288 0.26772
 C5 C 0.14219 0.23836 0.24595
 H6 H 0.15485 0.18649 0.28318
 H7 H 0.13208 0.25620 0.23899
 Cu8 Cu 0.20227 0.18524 0.23732
 Cu9 Cu 0.18359 0.23986 0.20312
 Cu10 Cu 0.23940 0.20294 0.18423
 N11 N 0.23362 0.16455 0.22691
 N12 N 0.24813 0.17175 0.20610
 C13 C 0.26865 0.15451 0.20323
 C14 C 0.26681 0.13564 0.22329
 C15 C 0.24447 0.14247 0.23801
 H16 H 0.28376 0.15561 0.18775
 H17 H 0.23681 0.13213 0.25543
 N18 N 0.22721 0.23508 0.16476
 N19 N 0.20597 0.24910 0.17197
 C20 C 0.20278 0.26964 0.15477
 C21 C 0.22291 0.26835 0.13602
 C22 C 0.23807 0.24635 0.14277
 H23 H 0.18700 0.28442 0.15571
 H24 H 0.25563 0.23914 0.13236
 H25 H 0.19884 0.20310 0.19207
 H26 H 0.22031 0.22426 0.21410
 N27 N 0.66588 0.72929 0.73572
 N28 N 0.67353 0.70826 0.74965
 C29 C 0.65645 0.70463 0.77025
 C30 C 0.63731 0.72445 0.76901
 C31 C 0.64374 0.73975 0.74696
 H32 H 0.65772 0.68879 0.78497
 H33 H 0.63309 0.75713 0.73965
 Cu34 Cu 0.70485 0.68777 0.73896
 Cu35 Cu 0.68513 0.74158 0.70404
 Cu36 Cu 0.74095 0.70477 0.68495
 N37 N 0.73603 0.66706 0.72825
 N38 N 0.74999 0.67383 0.70694
 C39 C 0.77024 0.65634 0.70370
 C40 C 0.76877 0.63777 0.72405
 C41 C 0.74693 0.64498 0.73929
 H42 H 0.78488 0.65704 0.68775
 H43 H 0.73957 0.63483 0.75696
 N44 N 0.72853 0.73673 0.66540
 N45 N 0.70730 0.75073 0.67266
 C46 C 0.70418 0.77137 0.65557
 C47 C 0.72437 0.77017 0.63686
 C48 C 0.73947 0.74810 0.64350
 H49 H 0.68850 0.78625 0.65664
 H50 H 0.75711 0.74100 0.63317
 H51 H 0.70038 0.70461 0.69338
 H52 H 0.72204 0.72643 0.71458
 N53 N 0.33423 0.77122 0.73583
 N54 N 0.32661 0.79226 0.74974
 C55 C 0.34367 0.79580 0.77036
 C56 C 0.36278 0.77590 0.76917
 C57 C 0.35632 0.76066 0.74711
 H58 H 0.34238 0.81158 0.78512
 H59 H 0.36688 0.74322 0.73985
 Cu60 Cu 0.29523 0.81281 0.73902
 Cu61 Cu 0.31496 0.75895 0.70417
 Cu62 Cu 0.25921 0.79580 0.68500
 N63 N 0.26401 0.83361 0.72827
 N64 N 0.25009 0.82683 0.70695
 C65 C 0.22984 0.84433 0.70365
 C66 C 0.23126 0.86293 0.72398
 C67 C 0.25309 0.85572 0.73927
 H68 H 0.21525 0.84361 0.68767
 H69 H 0.26043 0.86586 0.75692
 N70 N 0.27163 0.76375 0.66545
 N71 N 0.29284 0.74975 0.67279
 C72 C 0.29607 0.72913 0.65570
 C73 C 0.27600 0.73031 0.63687
 C74 C 0.26083 0.75237 0.64348
 H75 H 0.31179 0.71431 0.65681
 H76 H 0.24326 0.75950 0.63306
 H77 H 0.29977 0.79590 0.69346
 H78 H 0.27806 0.77412 0.71468
 N79 N 0.83573 0.27137 0.23561
 N80 N 0.82810 0.29234 0.24961
 C81 C 0.84523 0.29593 0.27016
 C82 C 0.86437 0.27611 0.26876
 C83 C 0.85791 0.26085 0.24673
 H84 H 0.84397 0.31170 0.28493
 H85 H 0.86852 0.24349 0.23934
 Cu86 Cu 0.79671 0.31284 0.23906
 Cu87 Cu 0.81641 0.25915 0.20399
 Cu88 Cu 0.76052 0.29590 0.18513
 N89 N 0.76545 0.33352 0.22849
 N90 N 0.75147 0.32677 0.20720
 C91 C 0.73118 0.34421 0.20403
 C92 C 0.73262 0.36274 0.22437
 C93 C 0.75450 0.35555 0.23956
 H94 H 0.71653 0.34352 0.18811
 H95 H 0.76186 0.36568 0.25721
 N96 N 0.77295 0.26402 0.16550
 N97 N 0.79422 0.25003 0.17269
 C98 C 0.79737 0.22945 0.15554
 C99 C 0.77716 0.23069 0.13688
 C100 C 0.76203 0.25270 0.14360
 H101 H 0.81310 0.21463 0.15652
 H102 H 0.74438 0.25983 0.13330
 H103 H 0.80105 0.29616 0.19342
 H104 H 0.77947 0.27425 0.21468
 N105 N 0.83512 0.72903 0.26521
 N106 N 0.82774 0.70772 0.25157
 C107 C 0.84480 0.70419 0.23096
 C108 C 0.86366 0.72435 0.23193
 C109 C 0.85707 0.73978 0.25379
 H110 H 0.84363 0.68827 0.21634
 H111 H 0.86745 0.75746 0.26082
 Cu112 Cu 0.79647 0.68705 0.26226
 Cu113 Cu 0.81568 0.74144 0.29665
 Cu114 Cu 0.75984 0.70455 0.31573
 N115 N 0.76519 0.66639 0.27296
 N116 N 0.75097 0.67343 0.29397
 C117 C 0.73048 0.65612 0.29705
 C118 C 0.73208 0.63739 0.27691
 C119 C 0.75422 0.64432 0.26193
 H120 H 0.71555 0.65709 0.31271
 H121 H 0.76163 0.63410 0.24436
 N122 N 0.77214 0.73666 0.33508
 N123 N 0.79340 0.75070 0.32782
 C124 C 0.79658 0.77132 0.34493
 C125 C 0.77639 0.77004 0.36363
 C126 C 0.76125 0.74797 0.35699
 H127 H 0.81238 0.78613 0.34394
 H128 H 0.74367 0.74074 0.36741
 H129 H 0.80034 0.70455 0.30756
 H130 H 0.77881 0.72594 0.28579
 N131 N 0.33542 0.22869 -0.23578
 N132 N 0.32823 0.20721 -0.24927
 C133 C 0.34530 0.20370 -0.26991
 C134 C 0.36400 0.22406 -0.26913
 C135 C 0.35728 0.23958 -0.24733
 H136 H 0.34426 0.18763 -0.28437
 H137 H 0.36750 0.25739 -0.24040
 Cu138 Cu 0.29722 0.18598 -0.23843
 Cu139 Cu 0.31591 0.24094 -0.20426
 Cu140 Cu 0.26019 0.20407 -0.18513
 N141 N 0.26552 0.16574 -0.22774
 N142 N 0.25119 0.17298 -0.20686
 C143 C 0.23061 0.15578 -0.20378
 C144 C 0.23219 0.13687 -0.22376
 C145 C 0.25447 0.14363 -0.23867
 H146 H 0.21562 0.15689 -0.18818
 H147 H 0.26199 0.13320 -0.25607
 N148 N 0.27246 0.23613 -0.16567
 N149 N 0.29369 0.25020 -0.17295
 C150 C 0.29690 0.27076 -0.15576
 C151 C 0.27676 0.26944 -0.13696
 C152 C 0.26161 0.24737 -0.14368
 H153 H 0.31267 0.28559 -0.15676
 H154 H 0.24404 0.24010 -0.13328
 H155 H 0.30072 0.20394 -0.19316
 H156 H 0.27922 0.22501 -0.21529
 N157 N 0.66513 0.27102 -0.23609
 N158 N 0.67253 0.29227 -0.24986
 C159 C 0.65548 0.29573 -0.27050
 C160 C 0.63658 0.27557 -0.26941
 C161 C 0.64314 0.26024 -0.24743
 H162 H 0.65664 0.31166 -0.28513
 H163 H 0.63272 0.24264 -0.24022
 Cu164 Cu 0.70361 0.31338 -0.23919
 Cu165 Cu 0.68458 0.25889 -0.20451
 Cu166 Cu 0.74035 0.29583 -0.18561
 N167 N 0.73517 0.33378 -0.22862
 N168 N 0.74934 0.32682 -0.20755
 C169 C 0.76983 0.34413 -0.20452
 C170 C 0.76834 0.36279 -0.22478
 C171 C 0.74622 0.35580 -0.23974
 H172 H 0.78468 0.34324 -0.18880
 H173 H 0.73881 0.36601 -0.25733
 N174 N 0.72803 0.26385 -0.16604
 N175 N 0.70679 0.24976 -0.17321
 C176 C 0.70365 0.22919 -0.15600
 C177 C 0.72385 0.23054 -0.13731
 C178 C 0.73895 0.25262 -0.14410
 H179 H 0.68789 0.21433 -0.15691
 H180 H 0.75654 0.25990 -0.13377
 H181 H 0.69986 0.29599 -0.19370
 H182 H 0.72140 0.27463 -0.21550
 N183 N 0.16447 0.77181 0.26467
 N184 N 0.17215 0.79286 0.25073
 C185 C 0.15506 0.79644 0.23015
 C186 C 0.13587 0.77657 0.23143
 C187 C 0.14231 0.76129 0.25346
 H188 H 0.15636 0.81225 0.21540
 H189 H 0.13168 0.74386 0.26076
 Cu190 Cu 0.20358 0.81340 0.26144
 Cu191 Cu 0.18374 0.75951 0.29629
 Cu192 Cu 0.23958 0.79639 0.31546
 N193 N 0.23477 0.83427 0.27219
 N194 N 0.24870 0.82752 0.29351
 C195 C 0.26893 0.84511 0.29681
 C196 C 0.26746 0.86374 0.27648
 C197 C 0.24567 0.85644 0.26119
 H198 H 0.28354 0.84441 0.31276
 H199 H 0.23834 0.86654 0.24350
 N200 N 0.22710 0.76423 0.33497
 N201 N 0.20584 0.75024 0.32762
 C202 C 0.20258 0.72953 0.34464
 C203 C 0.22270 0.73061 0.36342
 C204 C 0.23790 0.75275 0.35688
 H205 H 0.18680 0.71472 0.34353
 H206 H 0.25548 0.75988 0.36732
 H207 H 0.19907 0.79650 0.30703
 H208 H 0.22073 0.77475 0.28581
 N209 N 0.47822 0.41501 0.48487
 N210 N 0.45702 0.42243 0.49865
 C211 C 0.45341 0.40529 0.51920
 C212 C 0.47337 0.38627 0.51811
 C213 C 0.48880 0.39292 0.49619
 H214 H 0.43755 0.40649 0.53389
 H215 H 0.50638 0.38250 0.48906
 Cu216 Cu 0.43645 0.45393 0.48839
 Cu217 Cu 0.49049 0.43456 0.45331
 Cu218 Cu 0.45372 0.49038 0.43443
 N219 N 0.41574 0.48509 0.47744
 N220 N 0.42269 0.49929 0.45634
 C221 C 0.40534 0.51970 0.45330
 C222 C 0.38666 0.51810 0.47353
 C223 C 0.39370 0.49602 0.48853
 H224 H 0.40627 0.53463 0.43762
 H225 H 0.38355 0.48860 0.50617
 N226 N 0.48573 0.47815 0.41484
 N227 N 0.49974 0.45689 0.42202
 C228 C 0.52024 0.45372 0.40474
 C229 C 0.51894 0.47390 0.38597
 C230 C 0.49695 0.48904 0.39282
 H231 H 0.53502 0.43794 0.40566
 H232 H 0.48972 0.50663 0.38248
 H233 H 0.47519 0.47150 0.46424
 H234 H 0.45347 0.44990 0.44283
 N235 N -0.02174 -0.08452 0.98481
 N236 N -0.04300 -0.07715 0.99852
 C237 C -0.04662 -0.09426 1.01910
 C238 C -0.02653 -0.11310 1.01809
 C239 C -0.01109 -0.10649 0.99620
 H240 H -0.06260 -0.09318 1.03368
 H241 H 0.00653 -0.11689 0.98913
 Cu242 Cu -0.06368 -0.04603 0.98784
 Cu243 Cu -0.00942 -0.06512 0.95323
 Cu244 Cu -0.04639 -0.00945 0.93415
 N245 N -0.08438 -0.01492 0.97715
 N246 N -0.07745 -0.00069 0.95606
 C247 C -0.09491 0.01959 0.95295
 C248 C -0.11363 0.01783 0.97311
 C249 C -0.10654 -0.00418 0.98815
 H250 H -0.09406 0.03449 0.93725
 H251 H -0.11678 -0.01170 1.00570
 N252 N -0.01432 -0.02164 0.91467
 N253 N -0.00025 -0.04284 0.92191
 C254 C 0.02032 -0.04595 0.90473
 C255 C 0.01900 -0.02580 0.88596
 C256 C -0.00306 -0.01072 0.89268
 H257 H 0.03517 -0.06165 0.90573
 H258 H -0.01030 0.00685 0.88232
 H259 H -0.02490 -0.02829 0.96395
 H260 H -0.04638 -0.04997 0.94241
 N261 N 1.02184 0.58462 0.98502
 N262 N 1.04279 0.57695 0.99901
 C263 C 1.04636 0.59400 1.01960
 C264 C 1.02659 0.61316 1.01829
 C265 C 1.01135 0.60676 0.99623
 H266 H 1.06203 0.59261 1.03446
 H267 H 0.99395 0.61738 0.98894
 Cu268 Cu 1.06318 0.54536 0.98901
 Cu269 Cu 1.00967 0.56530 0.95346
 Cu270 Cu 1.04630 0.50952 0.93452
 N271 N 1.08385 0.51437 0.97780
 N272 N 1.07711 0.50045 0.95649
 C273 C 1.09452 0.48013 0.95330
 C274 C 1.11299 0.48154 0.97368
 C275 C 1.10583 0.50338 0.98890
 H276 H 1.09380 0.46546 0.93740
 H277 H 1.11588 0.51062 1.00665
 N278 N 1.01448 0.52195 0.91492
 N279 N 1.00051 0.54320 0.92214
 C280 C 0.98004 0.54648 0.90490
 C281 C 0.98136 0.52637 0.88612
 C282 C 1.00329 0.51115 0.89289
 H283 H 0.96527 0.56226 0.90587
 H284 H 1.01047 0.49355 0.88254
 H285 H 1.02471 0.52819 0.96434
 H286 H 1.04683 0.54990 0.94331
 N287 N 0.52168 0.08486 0.48464
 N288 N 0.54292 0.07751 0.49836
 C289 C 0.54637 0.09447 0.51906
 C290 C 0.52624 0.11331 0.51811
 C291 C 0.51092 0.10677 0.49611
 H292 H 0.56230 0.09334 0.53366
 H293 H 0.49335 0.11720 0.48898
 Cu294 Cu 0.56403 0.04663 0.48761
 Cu295 Cu 0.50962 0.06548 0.45296
 Cu296 Cu 0.54655 0.00989 0.43393
 N297 N 0.58433 0.01520 0.47699
 N298 N 0.57741 0.00100 0.45591
 C299 C 0.59478 -0.01936 0.45285
 C300 C 0.61340 -0.01772 0.47307
 C301 C 0.60636 0.00430 0.48809
 H302 H 0.59399 -0.03420 0.43710
 H303 H 0.61657 0.01176 0.50565
 N304 N 0.51464 0.02215 0.41432
 N305 N 0.50055 0.04334 0.42153
 C306 C 0.48008 0.04649 0.40423
 C307 C 0.48151 0.02638 0.38543
 C308 C 0.50353 0.01129 0.39227
 H309 H 0.46523 0.06219 0.40520
 H310 H 0.51083 -0.00627 0.38194
 H311 H 0.52539 0.02862 0.46389
 H312 H 0.54676 0.05030 0.44212
 N313 N -0.02181 0.08547 0.51517
 N314 N -0.04285 0.07787 0.50125
 C315 C -0.04646 0.09502 0.48073
 C316 C -0.02661 0.11417 0.48201
 C317 C -0.01128 0.10766 0.50397
 H318 H -0.06230 0.09379 0.46604
 H319 H 0.00614 0.11828 0.51125
 Cu320 Cu -0.06345 0.04657 0.51183
 Cu321 Cu -0.00959 0.06605 0.54675
 Cu322 Cu -0.04655 0.01017 0.56567
 N323 N -0.08422 0.01540 0.52243
 N324 N -0.07749 0.00134 0.54367
 C325 C -0.09504 -0.01889 0.54688
 C326 C -0.11362 -0.01728 0.52662
 C327 C -0.10636 0.00458 0.51141
 H328 H -0.09439 -0.03363 0.56273
 H329 H -0.11647 0.01199 0.49378
 N330 N -0.01456 0.02247 0.58521
 N331 N -0.00048 0.04374 0.57803
 C332 C 0.02014 0.04678 0.59515
 C333 C 0.01882 0.02650 0.61379
 C334 C -0.00328 0.01144 0.60707
 H335 H 0.03504 0.06249 0.59417
 H336 H -0.01050 -0.00624 0.61733
 H337 H -0.02496 0.02906 0.53607
 H338 H -0.04668 0.05065 0.55743
 N339 N 0.47838 0.58485 0.01529
 N340 N 0.45717 0.57740 0.00153
 C341 C 0.45364 0.59448 -0.01906
 C342 C 0.47368 0.61345 -0.01802
 C343 C 0.48906 0.60690 0.00392
 H344 H 0.43776 0.59328 -0.03371
 H345 H 0.50663 0.61738 0.01105
 Cu346 Cu 0.43633 0.54619 0.01211
 Cu347 Cu 0.49056 0.56542 0.04688
 Cu348 Cu 0.45357 0.50953 0.06573
 N349 N 0.41575 0.51481 0.02266
 N350 N 0.42261 0.50057 0.04374
 C351 C 0.40524 0.48011 0.04669
 C352 C 0.38666 0.48173 0.02639
 C353 C 0.39375 0.50387 0.01148
 H354 H 0.40605 0.46518 0.06236
 H355 H 0.38365 0.51134 -0.00614
 N356 N 0.48554 0.52185 0.08536
 N357 N 0.49962 0.54312 0.07819
 C358 C 0.52013 0.54629 0.09544
 C359 C 0.51875 0.52608 0.11417
 C360 C 0.49672 0.51094 0.10735
 H361 H 0.53497 0.56206 0.09451
 H362 H 0.48946 0.49332 0.11767
 H363 H 0.47511 0.52860 0.03598
 H364 H 0.45361 0.55011 0.05761
 N365 N 0.52224 -0.08498 0.01562
 N366 N 0.54348 -0.07755 0.00188
 C367 C 0.54704 -0.09463 -0.01872
 C368 C 0.52699 -0.11360 -0.01763
 C369 C 0.51159 -0.10702 0.00428
 H370 H 0.56296 -0.09346 -0.03335
 H371 H 0.49399 -0.11749 0.01142
 Cu372 Cu 0.56423 -0.04629 0.01239
 Cu373 Cu 0.51003 -0.06560 0.04723
 Cu374 Cu 0.54713 -0.00987 0.06619
 N375 N 0.58503 -0.01514 0.02311
 N376 N 0.57819 -0.00095 0.04421
 C377 C 0.59574 0.01933 0.04729
 C378 C 0.61441 0.01764 0.02706
 C379 C 0.60718 -0.00433 0.01203
 H380 H 0.59501 0.03415 0.06305
 H381 H 0.61734 -0.01183 -0.00555
 N382 N 0.51505 -0.02214 0.08579
 N383 N 0.50093 -0.04336 0.07858
 C384 C 0.48039 -0.04654 0.09582
 C385 C 0.48178 -0.02641 0.11461
 C386 C 0.50386 -0.01129 0.10781
 H387 H 0.46551 -0.06227 0.09484
 H388 H 0.51115 0.00628 0.11816
 H389 H 0.52557 -0.02878 0.03646
 H390 H 0.54706 -0.05044 0.05796
 N391 N 1.02150 0.41481 0.51476
 N392 N 1.04291 0.42204 0.50116
 C393 C 1.04643 0.40493 0.48060
 C394 C 1.02617 0.38616 0.48157
 C395 C 1.01070 0.39288 0.50337
 H396 H 1.06239 0.40601 0.46600
 H397 H 0.99293 0.38261 0.51037
 Cu398 Cu 1.06350 0.45340 0.51174
 Cu399 Cu 1.00914 0.43434 0.54620
 Cu400 Cu 1.04587 0.49044 0.56486
 N401 N 1.08402 0.48488 0.52204
 N402 N 1.07684 0.49934 0.54285
 C403 C 1.09388 0.52009 0.54554
 C404 C 1.11255 0.51846 0.52533
 C405 C 1.10590 0.49600 0.51075
 H406 H 1.09276 0.53523 0.56097
 H407 H 1.11620 0.48846 0.49327
 N408 N 1.01391 0.47806 0.58448
 N409 N 0.99992 0.45672 0.57738
 C410 C 0.97947 0.45346 0.59468
 C411 C 0.98078 0.47366 0.61336
 C412 C 1.00272 0.48892 0.60648
 H413 H 0.96472 0.43759 0.59385
 H414 H 1.00994 0.50655 0.61677
 H415 H 1.02459 0.47126 0.53510
 H416 H 1.04592 0.44993 0.55709
 Si417 Si 0.37359 -0.00073 0.25013
 Si418 Si 0.12637 -0.00046 0.74956
 Si419 Si 0.62650 0.50004 0.25001
 Si420 Si 0.87426 0.50020 0.74995
 Si421 Si 0.24984 0.37561 -0.00004
 Si422 Si 0.75046 0.12480 0.00010
 Si423 Si 0.24996 0.62420 0.50004
 Si424 Si 0.74990 0.87622 0.50019
 Si425 Si -0.00066 0.25010 0.37466
 Si426 Si -0.00019 0.74988 0.12435
 Si427 Si 0.50026 0.24995 0.62523
 Si428 Si 0.49999 0.75020 0.87508
 C429 C 0.07217 0.23528 0.31804
 C430 C 0.06463 0.21554 0.33649
 C431 C 0.04281 0.21978 0.35350
 C432 C 0.11322 0.22713 0.28561
 C433 C 0.03588 0.26348 0.33356
 C434 C 0.05770 0.25924 0.31656
 C435 C 0.09455 0.23083 0.30045
 C436 C 0.02848 0.24391 0.35233
 H437 H 0.07558 0.19685 0.33767
 H438 H 0.03719 0.20411 0.36736
 H439 H 0.02483 0.28208 0.33216
 H440 H 0.06327 0.27460 0.30227
 C441 C 0.57374 0.73618 0.81897
 C442 C 0.54859 0.74173 0.80799
 C443 C 0.52658 0.74607 0.82471
 C444 C 0.61510 0.72836 0.78685
 C445 C 0.55481 0.73942 0.86353
 C446 C 0.57683 0.73511 0.84679
 C447 C 0.59634 0.73184 0.80163
 C448 C 0.52944 0.74473 0.85263
 H449 H 0.54600 0.74276 0.78648
 H450 H 0.50745 0.75054 0.81565
 H451 H 0.55754 0.73860 0.88502
 H452 H 0.59624 0.73096 0.85553
 C453 C 0.42559 0.76376 0.82012
 C454 C 0.43569 0.78498 0.83543
 C455 C 0.45768 0.78097 0.85228
 C456 C 0.38482 0.77174 0.78721
 C457 C 0.45933 0.73434 0.83894
 C458 C 0.43744 0.73841 0.82196
 C459 C 0.40336 0.76811 0.80226
 C460 C 0.46968 0.75563 0.85407
 H461 H 0.42675 0.80470 0.83412
 H462 H 0.46549 0.79779 0.86346
 H463 H 0.46848 0.71471 0.83992
 H464 H 0.42992 0.72186 0.81012
 C465 C -0.07346 0.26456 0.31798
 C466 C -0.06597 0.28440 0.33631
 C467 C -0.04417 0.28025 0.35335
 C468 C -0.11458 0.27234 0.28558
 C469 C -0.03719 0.23645 0.33371
 C470 C -0.05898 0.24060 0.31667
 C471 C -0.09586 0.26885 0.30039
 C472 C -0.02982 0.25613 0.35234
 H473 H -0.07693 0.30308 0.33737
 H474 H -0.03859 0.29598 0.36713
 H475 H -0.02614 0.21784 0.33244
 H476 H -0.06453 0.22515 0.30249
 C477 C -0.07332 0.73607 0.18130
 C478 C -0.05795 0.75944 0.18329
 C479 C -0.03607 0.76338 0.16627
 C480 C -0.11427 0.72841 0.21397
 C481 C -0.04474 0.72053 0.14533
 C482 C -0.06658 0.71655 0.16240
 C483 C -0.09565 0.73188 0.19902
 C484 C -0.02958 0.74422 0.14678
 H485 H -0.06273 0.77449 0.19814
 H486 H -0.02398 0.78115 0.16883
 H487 H -0.03973 0.70485 0.13136
 H488 H -0.07809 0.69819 0.16097
 C489 C 0.42562 0.23611 0.68063
 C490 C 0.43859 0.26098 0.68008
 C491 C 0.46050 0.26514 0.66309
 C492 C 0.38485 0.22805 0.71370
 C493 C 0.45633 0.21973 0.64672
 C494 C 0.43440 0.21558 0.66370
 C495 C 0.40338 0.23168 0.69856
 C496 C 0.46998 0.24437 0.64670
 H497 H 0.43180 0.27717 0.69281
 H498 H 0.46980 0.28468 0.66268
 H499 H 0.46243 0.20358 0.63375
 H500 H 0.42434 0.19632 0.66368
 C501 C 0.57445 0.26418 0.68103
 C502 C 0.57447 0.24283 0.66288
 C503 C 0.55253 0.23869 0.64595
 C504 C 0.61559 0.27174 0.71363
 C505 C 0.53052 0.27732 0.66512
 C506 C 0.55248 0.28152 0.68196
 C507 C 0.59689 0.26830 0.69871
 C508 C 0.53016 0.25567 0.64718
 H509 H 0.59144 0.22938 0.66182
 H510 H 0.55329 0.22223 0.63197
 H511 H 0.51406 0.29128 0.66593
 H512 H 0.55233 0.29832 0.69568
 C513 C 0.07269 0.76450 0.18096
 C514 C 0.06656 0.78332 0.16110
 C515 C 0.04490 0.77900 0.14389
 C516 C 0.11368 0.77252 0.21355
 C517 C 0.03528 0.73709 0.16646
 C518 C 0.05702 0.74134 0.18356
 C519 C 0.09501 0.76893 0.19866
 C520 C 0.02910 0.75587 0.14652
 H521 H 0.07853 0.80131 0.15891
 H522 H 0.04063 0.79373 0.12861
 H523 H 0.02329 0.71913 0.16876
 H524 H 0.06158 0.72661 0.19882
 C525 C 0.31693 0.07232 0.23602
 C526 C 0.33528 0.07285 0.25719
 C527 C 0.35231 0.05106 0.26159
 C528 C 0.28449 0.11339 0.22784
 C529 C 0.33266 0.02807 0.22369
 C530 C 0.31565 0.04986 0.21930
 C531 C 0.29930 0.09470 0.23159
 C532 C 0.35128 0.02863 0.24469
 H533 H 0.33637 0.09006 0.27035
 H534 H 0.36608 0.05182 0.27824
 H535 H 0.33138 0.01081 0.21062
 H536 H 0.30148 0.04917 0.20289
 C537 C 0.81822 0.57399 0.73636
 C538 C 0.84606 0.57714 0.73533
 C539 C 0.86279 0.55509 0.73951
 C540 C 0.78628 0.61541 0.72837
 C541 C 0.82389 0.52674 0.74591
 C542 C 0.80719 0.54877 0.74171
 C543 C 0.80092 0.59659 0.73200
 C544 C 0.85184 0.52967 0.74464
 H545 H 0.85483 0.59660 0.73131
 H546 H 0.88429 0.55786 0.73871
 H547 H 0.81481 0.50755 0.75022
 H548 H 0.78567 0.54612 0.74265
 C549 C 0.81914 0.42577 0.76301
 C550 C 0.82110 0.43775 0.73774
 C551 C 0.83814 0.45967 0.73383
 C552 C 0.78618 0.38495 0.77076
 C553 C 0.85130 0.45773 0.78046
 C554 C 0.83440 0.43571 0.78432
 C555 C 0.80122 0.40354 0.76717
 C556 C 0.85321 0.46988 0.75520
 H557 H 0.80929 0.43032 0.72114
 H558 H 0.83921 0.46895 0.71427
 H559 H 0.86244 0.46545 0.79734
 H560 H 0.83300 0.42663 0.80397
 C561 C 0.31658 -0.07376 0.26427
 C562 C 0.31536 -0.05129 0.28099
 C563 C 0.33251 -0.02952 0.27662
 C564 C 0.28411 -0.11501 0.27238
 C565 C 0.35214 -0.05253 0.23874
 C566 C 0.33497 -0.07429 0.24311
 C567 C 0.29889 -0.09620 0.26871
 C568 C 0.35118 -0.03011 0.25563
 H569 H 0.30116 -0.05058 0.29737
 H570 H 0.33129 -0.01225 0.28967
 H571 H 0.36595 -0.05331 0.22210
 H572 H 0.33601 -0.09150 0.22994
 C573 C 0.18257 -0.07428 0.73549
 C574 C 0.19353 -0.04881 0.73972
 C575 C 0.17678 -0.02675 0.74375
 C576 C 0.21465 -0.11583 0.72795
 C577 C 0.13794 -0.05548 0.73925
 C578 C 0.15471 -0.07755 0.73518
 C579 C 0.19996 -0.09695 0.73139
 C580 C 0.14883 -0.02992 0.74377
 H581 H 0.21505 -0.04598 0.73990
 H582 H 0.18584 -0.00732 0.74678
 H583 H 0.11644 -0.05835 0.73891
 H584 H 0.14595 -0.09713 0.73181
 C585 C 0.68287 0.42634 0.23645
 C586 C 0.69368 0.45126 0.24332
 C587 C 0.67685 0.47319 0.24749
 C588 C 0.71504 0.38505 0.22869
 C589 C 0.63826 0.44539 0.23796
 C590 C 0.65512 0.42341 0.23390
 C591 C 0.70031 0.40382 0.23223
 C592 C 0.64897 0.47057 0.24451
 H593 H 0.71512 0.45372 0.24559
 H594 H 0.68583 0.49199 0.25330
 H595 H 0.61692 0.44247 0.23634
 H596 H 0.64650 0.40412 0.22887
 C597 C 0.68180 0.57423 0.26431
 C598 C 0.68250 0.56056 0.23989
 C599 C 0.66567 0.53860 0.23566
 C600 C 0.71433 0.61522 0.27247
 C601 C 0.64729 0.54391 0.28024
 C602 C 0.66415 0.56590 0.28446
 C603 C 0.69945 0.59657 0.26877
 C604 C 0.64788 0.53016 0.25576
 H605 H 0.69619 0.56674 0.22422
 H606 H 0.66669 0.52801 0.21678
 H607 H 0.63414 0.53757 0.29623
 H608 H 0.66358 0.57626 0.30349
 C609 C 0.18129 0.07384 0.76447
 C610 C 0.16606 0.07227 0.74100
 C611 C 0.14925 0.05028 0.73658
 C612 C 0.21431 0.11467 0.77201
 C613 C 0.16237 0.03158 0.77936
 C614 C 0.17931 0.05349 0.78370
 C615 C 0.19924 0.09607 0.76859
 C616 C 0.14739 0.02974 0.75569
 H617 H 0.16741 0.08789 0.72599
 H618 H 0.13815 0.04922 0.71804
 H619 H 0.16127 0.01584 0.79426
 H620 H 0.19103 0.05445 0.80191
 C621 C 0.23531 0.31920 0.07336
 C622 C 0.25968 0.31857 0.05959
 C623 C 0.26400 0.33566 0.03787
 C624 C 0.22719 0.28629 0.11399
 C625 C 0.21977 0.35450 0.04392
 C626 C 0.21541 0.33730 0.06558
 C627 C 0.23082 0.30134 0.09549
 C628 C 0.24396 0.35352 0.02958
 H629 H 0.27537 0.30489 0.06567
 H630 H 0.28317 0.33511 0.02792
 H631 H 0.20419 0.36848 0.03860
 H632 H 0.19653 0.33812 0.07626
 C633 C 0.73681 0.82149 0.57460
 C634 C 0.76215 0.82354 0.56276
 C635 C 0.76607 0.84049 0.54084
 C636 C 0.72886 0.78830 0.61503
 C637 C 0.71932 0.85341 0.54253
 C638 C 0.71546 0.83659 0.56456
 C639 C 0.73255 0.80349 0.59665
 C640 C 0.74464 0.85536 0.53050
 H641 H 0.77878 0.81184 0.57030
 H642 H 0.78569 0.84164 0.53165
 H643 H 0.70241 0.86442 0.53472
 H644 H 0.69576 0.83510 0.57355
 C645 C 0.76393 0.82007 0.42677
 C646 C 0.76501 0.84790 0.42357
 C647 C 0.76069 0.86467 0.44553
 C648 C 0.77209 0.78789 0.38567
 C649 C 0.75406 0.82582 0.47387
 C650 C 0.75840 0.80907 0.45193
 C651 C 0.76840 0.80270 0.40431
 C652 C 0.75538 0.85375 0.47089
 H653 H 0.76919 0.85663 0.40414
 H654 H 0.76153 0.88618 0.44275
 H655 H 0.74962 0.81677 0.49303
 H656 H 0.75741 0.78754 0.45458
 C657 C 0.26478 0.32022 -0.07408
 C658 C 0.28312 0.32090 -0.05294
 C659 C 0.27885 0.33797 -0.03118
 C660 C 0.27250 0.28734 -0.11486
 C661 C 0.23813 0.35412 -0.05181
 C662 C 0.24241 0.33706 -0.07358
 C663 C 0.26897 0.30235 -0.09629
 C664 C 0.25600 0.35426 -0.03011
 H665 H 0.30071 0.30823 -0.05325
 H666 H 0.29359 0.33852 -0.01539
 H667 H 0.22085 0.36705 -0.05216
 H668 H 0.22823 0.33696 -0.08998
 C669 C 0.73625 0.18074 -0.07380
 C670 C 0.73910 0.19172 -0.04822
 C671 C 0.74319 0.17502 -0.02617
 C672 C 0.72819 0.21278 -0.11514
 C673 C 0.74157 0.13623 -0.05516
 C674 C 0.73739 0.15295 -0.07722
 C675 C 0.73187 0.19805 -0.09639
 C676 C 0.74480 0.14711 -0.02945
 H677 H 0.73802 0.21320 -0.04530
 H678 H 0.74477 0.18412 -0.00664
 H679 H 0.74184 0.11486 -0.05828
 H680 H 0.73493 0.14421 -0.09690
 C681 C 0.23388 0.68014 0.42677
 C682 C 0.23844 0.69119 0.45209
 C683 C 0.24287 0.67451 0.47409
 C684 C 0.22669 0.71257 0.38548
 C685 C 0.23767 0.63553 0.44572
 C686 C 0.23327 0.65225 0.42365
 C687 C 0.22993 0.69758 0.40415
 C688 C 0.24305 0.64657 0.47098
 H689 H 0.23865 0.71272 0.45481
 H690 H 0.24613 0.68363 0.49341
 H691 H 0.23722 0.61400 0.44303
 H692 H 0.22953 0.64345 0.40419
 C693 C 0.26470 0.67878 0.57443
 C694 C 0.24268 0.66137 0.57414
 C695 C 0.23851 0.64432 0.55233
 C696 C 0.27186 0.71218 0.61491
 C697 C 0.27864 0.66168 0.53122
 C698 C 0.28283 0.67869 0.55304
 C699 C 0.26856 0.69692 0.59650
 C700 C 0.25618 0.64479 0.53048
 H701 H 0.22862 0.66114 0.59066
 H702 H 0.22135 0.63112 0.55256
 H703 H 0.29262 0.66212 0.51465
 H704 H 0.30001 0.69197 0.55309
 C705 C 0.76497 0.18001 0.07411
 C706 C 0.78254 0.18069 0.05230
 C707 C 0.77820 0.16392 0.03037
 C708 C 0.77279 0.21272 0.11491
 C709 C 0.73878 0.14558 0.05202
 C710 C 0.74312 0.16240 0.07396
 C711 C 0.76918 0.19772 0.09639
 C712 C 0.75634 0.14620 0.03009
 H713 H 0.79946 0.19431 0.05215
 H714 H 0.79179 0.16491 0.01349
 H715 H 0.72156 0.13242 0.05216
 H716 H 0.72934 0.16182 0.09071
 C717 C 0.48507 0.32367 0.56960
 C718 C 0.46595 0.30321 0.57171
 C719 C 0.47032 0.28155 0.58896
 C720 C 0.47740 0.36422 0.53624
 C721 C 0.51297 0.30067 0.60204
 C722 C 0.50851 0.32240 0.58492
 C723 C 0.48084 0.34575 0.55147
 C724 C 0.49392 0.28006 0.60411
 H725 H 0.44782 0.30385 0.55984
 H726 H 0.45553 0.26570 0.59009
 H727 H 0.53150 0.29982 0.61319
 H728 H 0.52350 0.33805 0.58339
 C729 C -0.01468 0.82362 0.06826
 C730 C -0.00778 0.79879 0.05735
 C731 C -0.00331 0.77685 0.07410
 C732 C -0.02254 0.86482 0.03602
 C733 C -0.01257 0.80448 0.11279
 C734 C -0.01694 0.82648 0.09601
 C735 C -0.01904 0.84615 0.05088
 C736 C -0.00600 0.77937 0.10198
 H737 H -0.00571 0.79642 0.03590
 H738 H 0.00253 0.75812 0.06503
 H739 H -0.01394 0.80734 0.13413
 H740 H -0.02195 0.84571 0.10469
 C741 C 0.01444 0.67591 0.06904
 C742 C 0.03457 0.68429 0.08666
 C743 C 0.03024 0.70621 0.10353
 C744 C 0.02254 0.63516 0.03630
 C745 C -0.01438 0.71132 0.08523
 C746 C -0.01005 0.68944 0.06839
 C747 C 0.01897 0.65369 0.05132
 C748 C 0.00569 0.71983 0.10298
 H749 H 0.05366 0.67403 0.08720
 H750 H 0.04621 0.71260 0.11667
 H751 H -0.03333 0.72181 0.08424
 H752 H -0.02571 0.68322 0.05474
 C753 C 0.51483 0.17660 0.56859
 C754 C 0.51503 0.17313 0.59641
 C755 C 0.51078 0.19506 0.61331
 C756 C 0.52228 0.13541 0.53610
 C757 C 0.50639 0.22402 0.57467
 C758 C 0.51058 0.20211 0.55780
 C759 C 0.51893 0.15408 0.55105
 C760 C 0.50620 0.22067 0.60259
 H761 H 0.51844 0.15350 0.60501
 H762 H 0.51105 0.19206 0.63477
 H763 H 0.50340 0.24349 0.56572
 H764 H 0.51050 0.20507 0.53632
 C765 C -0.01514 0.17749 0.43168
 C766 C 0.00879 0.19207 0.43293
 C767 C 0.01291 0.21383 0.41581
 C768 C -0.02272 0.13641 0.46421
 C769 C -0.03088 0.20662 0.39620
 C770 C -0.03500 0.18485 0.41335
 C771 C -0.01934 0.15511 0.44934
 C772 C -0.00675 0.22105 0.39714
 H773 H 0.02424 0.18662 0.44713
 H774 H 0.03152 0.22496 0.41703
 H775 H -0.04660 0.21211 0.38241
 H776 H -0.05367 0.17381 0.41235
 C777 C 0.48508 0.67620 0.93079
 C778 C 0.46678 0.69738 0.93016
 C779 C 0.47101 0.71911 0.91299
 C780 C 0.47766 0.63553 0.96395
 C781 C 0.51159 0.69836 0.89663
 C782 C 0.50735 0.67661 0.91378
 C783 C 0.48101 0.65405 0.94881
 C784 C 0.49379 0.72012 0.89654
 H785 H 0.44927 0.69713 0.94298
 H786 H 0.45631 0.73494 0.91250
 H787 H 0.52882 0.69794 0.88361
 H788 H 0.52148 0.66017 0.91385
 C789 C 0.51479 0.82370 0.93143
 C790 C 0.49039 0.80991 0.93218
 C791 C 0.48599 0.78819 0.91511
 C792 C 0.52292 0.86437 0.96435
 C793 C 0.53017 0.79422 0.89609
 C794 C 0.53462 0.81590 0.91325
 C795 C 0.51933 0.84586 0.94927
 C796 C 0.50595 0.77989 0.89715
 H797 H 0.47475 0.81597 0.94593
 H798 H 0.46680 0.77824 0.91577
 H799 H 0.54573 0.78888 0.88207
 H800 H 0.55351 0.82658 0.91234
 C801 C 0.01409 0.32297 0.43123
 C802 C -0.00990 0.30848 0.43261
 C803 C -0.01412 0.28665 0.41562
 C804 C 0.02204 0.36404 0.46367
 C805 C 0.02968 0.29361 0.39588
 C806 C 0.03390 0.31544 0.41289
 C807 C 0.01846 0.34537 0.44881
 C808 C 0.00551 0.27928 0.39694
 H809 H -0.02531 0.31403 0.44682
 H810 H -0.03274 0.27556 0.41697
 H811 H 0.04540 0.28798 0.38212
 H812 H 0.05263 0.32639 0.41180
 C813 C 0.32426 0.56922 0.48650
 C814 C 0.31090 0.56929 0.51114
 C815 C 0.28916 0.58643 0.51525
 C816 C 0.36466 0.53602 0.47820
 C817 C 0.29428 0.60379 0.47024
 C818 C 0.31603 0.58666 0.46614
 C819 C 0.34625 0.55115 0.48203
 C820 C 0.28041 0.60342 0.49466
 H821 H 0.31709 0.55592 0.52705
 H822 H 0.27878 0.58599 0.53429
 H823 H 0.28827 0.61700 0.45421
 H824 H 0.32629 0.58685 0.44703
 C825 C 0.82316 0.06772 -0.01420
 C826 C 0.80028 0.06576 -0.03021
 C827 C 0.77858 0.08282 -0.02576
 C828 C 0.86411 0.03536 -0.02242
 C829 C 0.80249 0.10370 0.01085
 C830 C 0.82416 0.08659 0.00645
 C831 C 0.84544 0.05011 -0.01868
 C832 C 0.77972 0.10234 -0.00559
 H833 H 0.79914 0.05092 -0.04598
 H834 H 0.76079 0.08028 -0.03777
 H835 H 0.80366 0.11763 0.02730
 H836 H 0.84162 0.08797 0.01924
 C837 C 0.67780 0.06773 0.01429
 C838 C 0.67631 0.08751 -0.00554
 C839 C 0.69790 0.10487 -0.00979
 C840 C 0.63677 0.03519 0.02256
 C841 C 0.72263 0.08260 0.02549
 C842 C 0.70099 0.06534 0.02982
 C843 C 0.65550 0.04999 0.01878
 C844 C 0.72119 0.10248 0.00570
 H845 H 0.65846 0.08951 -0.01769
 H846 H 0.69627 0.12010 -0.02511
 H847 H 0.74048 0.08048 0.03761
 H848 H 0.70235 0.05014 0.04525
 C849 C 0.17571 0.56856 0.51207
 C850 C 0.20087 0.55739 0.50702
 C851 C 0.22305 0.57397 0.50302
 C852 C 0.13452 0.53639 0.52058
 C853 C 0.19494 0.61307 0.50869
 C854 C 0.17272 0.59644 0.51274
 C855 C 0.15313 0.55126 0.51666
 C856 C 0.22034 0.60193 0.50431
 H857 H 0.20336 0.53584 0.50627
 H858 H 0.24218 0.56476 0.49896
 H859 H 0.19239 0.63461 0.50934
 H860 H 0.15329 0.60529 0.51653
 C861 C 0.17633 0.43182 -0.01366
 C862 C 0.17313 0.40399 -0.01482
 C863 C 0.19511 0.38721 -0.01063
 C864 C 0.13516 0.46390 -0.02187
 C865 C 0.22346 0.42605 -0.00387
 C866 C 0.20150 0.44280 -0.00810
 C867 C 0.15386 0.44917 -0.01812
 C868 C 0.22049 0.39811 -0.00535
 H869 H 0.15369 0.39528 -0.01898
 H870 H 0.19231 0.36571 -0.01153
 H871 H 0.24260 0.43510 0.00061
 H872 H 0.20415 0.46433 -0.00704
 C873 C 0.67655 0.93236 0.48562
 C874 C 0.69027 0.93312 0.50998
 C875 C 0.71197 0.91608 0.51433
 C876 C 0.63563 0.96473 0.47748
 C877 C 0.70606 0.89717 0.47012
 C878 C 0.68440 0.91429 0.46574
 C879 C 0.65429 0.94997 0.48116
 C880 C 0.72030 0.89820 0.49433
 H881 H 0.68414 0.94681 0.52564
 H882 H 0.72184 0.91668 0.53352
 H883 H 0.71144 0.88320 0.45455
 H884 H 0.67375 0.91341 0.44687
 C885 C 0.82344 0.93220 0.51474
 C886 C 0.82321 0.91510 0.49259
 C887 C 0.80159 0.89780 0.48847
 C888 C 0.86413 0.96512 0.52230
 C889 C 0.78070 0.91421 0.52898
 C890 C 0.80229 0.93155 0.53308
 C891 C 0.84554 0.95016 0.51882
 C892 C 0.77982 0.89772 0.50627
 H893 H 0.83971 0.91516 0.47850
 H894 H 0.80213 0.88463 0.47137
 H895 H 0.76492 0.91361 0.54375
 H896 H 0.80249 0.94442 0.55053
 C897 C 0.32385 0.43102 0.01354
 C898 C 0.31380 0.41569 0.03477
 C899 C 0.29193 0.39865 0.03075
 C900 C 0.36454 0.46394 0.02171
 C901 C 0.29033 0.41190 -0.01589
 C902 C 0.31209 0.42907 -0.01182
 C903 C 0.34600 0.44895 0.01790
 C904 C 0.28005 0.39671 0.00540
 H905 H 0.32269 0.41712 0.05450
 H906 H 0.28412 0.38747 0.04758
 H907 H 0.28120 0.41084 -0.03552
 H908 H 0.31958 0.44099 -0.02835
 C909 C 0.56957 0.48608 0.32286
 C910 C 0.58937 0.46716 0.31688
 C911 C 0.60667 0.47127 0.29522
 C912 C 0.53678 0.47821 0.36378
 C913 C 0.58434 0.51319 0.28534
 C914 C 0.56714 0.50914 0.30708
 C915 C 0.55174 0.48181 0.34514
 C916 C 0.60420 0.49430 0.27930
 H917 H 0.59143 0.44924 0.32894
 H918 H 0.62189 0.45648 0.29105
 H919 H 0.58218 0.53108 0.27327
 H920 H 0.55195 0.52395 0.31154
 C921 C 0.07026 -0.01354 0.82350
 C922 C 0.07128 0.01136 0.81067
 C923 C 0.08864 0.01534 0.78906
 C924 C 0.03699 -0.02140 0.86396
 C925 C 0.10432 -0.03031 0.79326
 C926 C 0.08702 -0.03427 0.81493
 C927 C 0.05216 -0.01777 0.84552
 C928 C 0.10482 -0.00565 0.77972
 H929 H 0.05866 0.02768 0.81734
 H930 H 0.08948 0.03492 0.77990
 H931 H 0.11713 -0.04662 0.78727
 H932 H 0.08666 -0.05352 0.82495
 C933 C 0.06968 0.01383 0.67635
 C934 C 0.06932 0.03134 0.69817
 C935 C 0.08648 0.02712 0.71981
 C936 C 0.03681 0.02195 0.63572
 C937 C 0.10478 -0.01195 0.69777
 C938 C 0.08752 -0.00775 0.67613
 C939 C 0.05185 0.01818 0.65418
 C940 C 0.10415 0.00526 0.71999
 H941 H 0.05581 0.04831 0.69843
 H942 H 0.08616 0.04128 0.73610
 H943 H 0.11852 -0.02859 0.69692
 H944 H 0.08811 -0.02133 0.65923
 C945 C 0.56931 0.51383 0.17712
 C946 C 0.58823 0.53338 0.18389
 C947 C 0.60540 0.52936 0.20560
 C948 C 0.53657 0.52172 0.13629
 C949 C 0.58457 0.48638 0.21411
 C950 C 0.56743 0.49037 0.19235
 C951 C 0.55151 0.51809 0.15488
 C952 C 0.60406 0.50558 0.22062
 H953 H 0.58959 0.55181 0.17250
 H954 H 0.61935 0.54509 0.21066
 H955 H 0.58211 0.46853 0.22610
 H956 H 0.55258 0.47527 0.18756
 C957 C 0.43113 -0.01430 0.17767
 C958 C 0.43222 -0.03113 0.20007
 C959 C 0.41485 -0.02697 0.22163
 C960 C 0.46395 -0.02215 0.13681
 C961 C 0.39532 0.01096 0.19857
 C962 C 0.41269 0.00679 0.17701
 C963 C 0.44900 -0.01858 0.15543
 C964 C 0.39610 -0.00608 0.22091
 H965 H 0.44650 -0.04743 0.20090
 H966 H 0.41600 -0.04007 0.23888
 H967 H 0.38150 0.02758 0.19773
 H968 H 0.41180 0.02006 0.15986
 C969 C 0.92999 0.48554 0.67616
 C970 C 0.92917 0.46708 0.69721
 C971 C 0.91196 0.47124 0.71887
 C972 C 0.96294 0.47791 0.63547
 C973 C 0.89600 0.51212 0.69832
 C974 C 0.91318 0.50793 0.67663
 C975 C 0.94791 0.48141 0.65402
 C976 C 0.89571 0.49413 0.71995
 H977 H 0.94183 0.44947 0.69689
 H978 H 0.91127 0.45639 0.73457
 H979 H 0.88311 0.52943 0.69797
 H980 H 0.91340 0.52218 0.66026
 C981 C 0.93071 0.51418 0.82333
 C982 C 0.91267 0.53417 0.81565
 C983 C 0.89547 0.52996 0.79398
 C984 C 0.96350 0.52212 0.86404
 C985 C 0.91421 0.48571 0.78775
 C986 C 0.93131 0.48988 0.80946
 C987 C 0.94852 0.51853 0.84550
 C988 C 0.89637 0.50583 0.77958
 H989 H 0.91189 0.55299 0.82641
 H990 H 0.88156 0.54562 0.78872
 H991 H 0.91472 0.46658 0.77774
 H992 H 0.94497 0.47413 0.81543
 C993 C 0.43098 0.01358 0.32249
 C994 C 0.41260 -0.00764 0.32327
 C995 C 0.39530 -0.01207 0.30172
 C996 C 0.46369 0.02194 0.36329
 C997 C 0.41479 0.02582 0.27842
 C998 C 0.43207 0.03026 0.29997
 C999 C 0.44877 0.01814 0.34470
 C1000 C 0.39611 0.00481 0.27927
 H1001 H 0.41171 -0.02080 0.34051
 H1002 H 0.38150 -0.02875 0.30266
 H1003 H 0.41593 0.03883 0.26110
 H1004 H 0.44629 0.04666 0.29907
   
