data_POSCAR
  _audit_creation_date              2014-09-24
  _audit_creation_method            'ToBaCCo'
  _symmetry_space_group_name_H-M    'P1'
  _symmetry_Int_Tables_number       1
  _symmetry_cell_setting            triclinic
  loop_
  _symmetry_equiv_pos_as_xyz
 x,y,z
_cell_length_a 27.2686
_cell_length_b 27.2658
_cell_length_c 27.2792
_cell_angle_alpha 90.024100
_cell_angle_beta 90.024200
_cell_angle_gamma 90.034200
loop_
  _atom_site_label
  _atom_site_type_symbol
  _atom_site_fract_x
  _atom_site_fract_y
  _atom_site_fract_z
C1 C -0.06711 0.51127 0.27038
 C2 C -0.02098 0.52072 0.24957
 C3 C -0.01149 0.56679 0.22864
 C4 C -0.04799 0.60295 0.22804
 C5 C -0.09378 0.59350 0.24935
 C6 C -0.10328 0.54776 0.27076
 C7 C 0.01735 0.48252 0.24984
 C8 C 0.00806 0.43629 0.22909
 C9 C 0.04463 0.40024 0.22892
 C10 C 0.09026 0.40991 0.25041
 C11 C 0.09956 0.45574 0.27163
 C12 C 0.06337 0.49215 0.27088
 H13 H -0.07438 0.47587 0.28701
 H14 H 0.02398 0.57406 0.21215
 H15 H -0.02723 0.42874 0.21239
 H16 H 0.07063 0.52761 0.28739
 H17 H -0.12192 0.62166 0.24930
 H18 H 0.11844 0.38185 0.25063
 C19 C -0.06515 0.49019 0.73207
 C20 C -0.01900 0.48078 0.75286
 C21 C -0.00944 0.43462 0.77359
 C22 C -0.04590 0.39837 0.77397
 C23 C -0.09170 0.40785 0.75269
 C24 C -0.10123 0.45363 0.73152
 C25 C 0.01928 0.51907 0.75265
 C26 C 0.00993 0.56529 0.77337
 C27 C 0.04638 0.60155 0.77336
 C28 C 0.09197 0.59202 0.75168
 C29 C 0.10129 0.54618 0.73050
 C30 C 0.06523 0.50962 0.73146
 H31 H -0.07259 0.52557 0.71553
 H32 H 0.02606 0.42734 0.79002
 H33 H -0.02540 0.57260 0.79013
 H34 H 0.07250 0.47419 0.71493
 H35 H -0.11987 0.37971 0.75249
 H36 H 0.12015 0.62015 0.75119
 C37 C 0.27095 -0.06664 0.50837
 C38 C 0.25004 -0.02053 0.51778
 C39 C 0.22936 -0.01099 0.56394
 C40 C 0.22912 -0.04735 0.60017
 C41 C 0.25048 -0.09308 0.59078
 C42 C 0.27165 -0.10270 0.54498
 C43 C 0.24996 0.01771 0.47949
 C44 C 0.22908 0.00820 0.43337
 C45 C 0.22856 0.04473 0.39723
 C46 C 0.24989 0.09052 0.40676
 C47 C 0.27121 0.10000 0.45249
 C48 C 0.27079 0.06386 0.48895
 H49 H 0.28741 -0.07399 0.47292
 H50 H 0.21277 0.02439 0.57131
 H51 H 0.21253 -0.02726 0.42609
 H52 H 0.28737 0.07129 0.52432
 H53 H 0.25060 -0.12104 0.61908
 H54 H 0.24993 0.11876 0.37874
 C55 C 0.72955 -0.06641 0.49148
 C56 C 0.75037 -0.02026 0.48199
 C57 C 0.77102 -0.01076 0.43581
 C58 C 0.77131 -0.04720 0.39963
 C59 C 0.75006 -0.09298 0.40911
 C60 C 0.72892 -0.10256 0.45494
 C61 C 0.75045 0.01805 0.52024
 C62 C 0.77123 0.00860 0.56641
 C63 C 0.77177 0.04519 0.60252
 C64 C 0.75056 0.09099 0.59292
 C65 C 0.72935 0.10042 0.54714
 C66 C 0.72976 0.06423 0.51071
 H67 H 0.71312 -0.07372 0.52695
 H68 H 0.78756 0.02465 0.42838
 H69 H 0.78767 -0.02686 0.57375
 H70 H 0.71327 0.07162 0.47530
 H71 H 0.74999 -0.12101 0.38085
 H72 H 0.75054 0.11927 0.62093
 C73 C 0.49061 0.26838 1.06475
 C74 C 0.48110 0.24729 1.01874
 C75 C 0.43490 0.22649 1.00936
 C76 C 0.39872 0.22632 1.04585
 C77 C 0.40830 0.24790 1.09149
 C78 C 0.45412 0.26915 1.10085
 C79 C 0.51935 0.24717 0.98046
 C80 C 0.56553 0.22644 0.98996
 C81 C 0.60172 0.22607 0.95348
 C82 C 0.59217 0.24738 0.90774
 C83 C 0.54638 0.26856 0.89826
 C84 C 0.50987 0.26798 0.93434
 H85 H 0.52602 0.28496 1.07206
 H86 H 0.42755 0.20979 0.97400
 H87 H 0.57285 0.20997 1.02541
 H88 H 0.47447 0.28450 0.92693
 H89 H 0.38024 0.24824 1.11968
 H90 H 0.62025 0.24758 0.87956
 C91 C 0.50970 0.73194 1.06531
 C92 C 0.51911 0.75271 1.01916
 C93 C 0.56531 0.77339 1.00958
 C94 C 0.60159 0.77375 1.04599
 C95 C 0.59210 0.75247 1.09177
 C96 C 0.54629 0.73135 1.10133
 C97 C 0.48077 0.75261 0.98095
 C98 C 0.43460 0.77335 0.99044
 C99 C 0.39832 0.77351 0.95403
 C100 C 0.40777 0.75199 0.90835
 C101 C 0.45356 0.73081 0.89888
 C102 C 0.49015 0.73158 0.93491
 H103 H 0.47428 0.71546 1.07278
 H104 H 0.57259 0.78984 0.97411
 H105 H 0.42736 0.79000 1.02583
 H106 H 0.52554 0.71505 0.92751
 H107 H 0.62025 0.75227 1.11991
 H108 H 0.37963 0.75165 0.88021
 B109 B 1.00005 1.04985 0.03072
 B110 B 1.03091 0.99987 0.04983
 B111 B 0.96914 0.99991 0.04971
 B112 B 0.95015 1.03077 -0.00024
 B113 B 1.00019 1.04985 -0.03102
 B114 B 1.05008 1.03078 -0.00008
 B115 B 1.00010 0.94992 -0.03106
 B116 B 0.96929 0.99986 -0.05018
 B117 B 1.03106 0.99991 -0.05005
 B118 B 1.05004 0.96901 -0.00006
 B119 B 1.00005 0.94993 0.03068
 B120 B 0.95013 0.96900 -0.00031
 B121 B 0.55024 0.50020 0.46905
 B122 B 0.50029 0.53115 0.45004
 B123 B 0.50029 0.46938 0.44983
 B124 B 0.53112 0.45018 0.49973
 B125 B 0.55020 0.50008 0.53080
 B126 B 0.53118 0.55010 0.50008
 B127 B 0.45030 0.50004 0.53069
 B128 B 0.50019 0.46912 0.54972
 B129 B 0.50027 0.53089 0.54991
 B130 B 0.46943 0.55010 0.49998
 B131 B 0.45033 0.50024 0.46897
 B132 B 0.46936 0.45017 0.49971
 C133 C 1.03580 1.35366 0.20572
 C134 C 1.02903 1.31482 0.18572
 C135 C 1.02170 1.26867 0.16120
 C136 C 0.97988 1.26112 0.13228
 C137 C 0.97370 1.21686 0.10705
 C138 C 1.00931 1.18005 0.11071
 C139 C 1.05093 1.18743 0.13992
 C140 C 1.05711 1.23166 0.16512
 C141 C 1.00411 1.13527 0.08344
 C142 C 1.00115 1.09777 0.06037
 H143 H 0.95237 1.28956 0.12887
 H144 H 0.94149 1.21154 0.08439
 H145 H 1.07877 1.15922 0.14281
 H146 H 1.08966 1.23718 0.18724
 C147 C 0.96067 0.64690 0.20595
 C148 C 0.96789 0.68561 0.18586
 C149 C 0.97586 0.73159 0.16126
 C150 C 1.01755 0.73829 0.13197
 C151 C 1.02438 0.78240 0.10671
 C152 C 0.98955 0.81993 0.11069
 C153 C 0.94807 0.81338 0.14025
 C154 C 0.94124 0.76929 0.16549
 C155 C 0.99536 0.86458 0.08339
 C156 C 0.99871 0.90203 0.06030
 H157 H 1.04446 0.70930 0.12832
 H158 H 1.05648 0.78707 0.08377
 H159 H 0.92084 0.84214 0.14339
 H160 H 0.90880 0.76444 0.18789
 C161 C 0.96276 1.35427 -0.20424
 C162 C 0.96984 1.31537 -0.18448
 C163 C 0.97751 1.26912 -0.16031
 C164 C 0.94247 1.23176 -0.16470
 C165 C 0.94896 1.18742 -0.13982
 C166 C 0.99050 1.18026 -0.11047
 C167 C 1.02575 1.21743 -0.10636
 C168 C 1.01926 1.26180 -0.13126
 C169 C 0.99595 1.13538 -0.08347
 C170 C 0.99905 1.09781 -0.06057
 H171 H 0.90997 1.23709 -0.18692
 H172 H 0.92139 1.15894 -0.14307
 H173 H 1.05790 1.21229 -0.08357
 H174 H 1.04649 1.29051 -0.12748
 C175 C 1.03790 0.64568 -0.20482
 C176 C 1.03087 0.68458 -0.18501
 C177 C 1.02316 0.73080 -0.16074
 C178 C 0.98142 0.73800 -0.13166
 C179 C 0.97486 0.78233 -0.10667
 C180 C 1.01002 0.81958 -0.11073
 C181 C 1.05155 0.81254 -0.14011
 C182 C 1.05810 0.76824 -0.16507
 C183 C 1.00450 0.86442 -0.08363
 C184 C 1.00133 0.90197 -0.06066
 H185 H 0.95426 0.70922 -0.12793
 H186 H 0.94273 0.78737 -0.08387
 H187 H 1.07904 0.84109 -0.14331
 H188 H 1.09058 0.76300 -0.18732
 C189 C 1.20642 1.03622 0.35326
 C190 C 1.18630 1.02932 0.31450
 C191 C 1.16167 1.02189 0.26843
 C192 C 1.13258 0.98013 0.26108
 C193 C 1.10725 0.97386 0.21690
 C194 C 1.11095 1.00934 0.17997
 C195 C 1.14032 1.05090 0.18716
 C196 C 1.16563 1.05716 0.23130
 C197 C 1.08361 1.00405 0.13525
 C198 C 1.06051 1.00103 0.09777
 H199 H 1.12913 0.95272 0.28961
 H200 H 1.08448 0.94169 0.21173
 H201 H 1.14326 1.07863 0.15885
 H202 H 1.18787 1.08967 0.23666
 C203 C 1.20603 0.96181 -0.35330
 C204 C 1.18612 0.96892 -0.31450
 C205 C 1.16168 0.97670 -0.26841
 C206 C 1.16581 0.94177 -0.23098
 C207 C 1.14064 0.94837 -0.18684
 C208 C 1.11123 0.98992 -0.17996
 C209 C 1.10739 1.02506 -0.21719
 C210 C 1.13259 1.01847 -0.26136
 C211 C 1.08392 0.99548 -0.13529
 C212 C 1.06078 0.99868 -0.09788
 H213 H 1.18807 0.90926 -0.23610
 H214 H 1.14368 0.92089 -0.15830
 H215 H 1.08458 1.05722 -0.21226
 H216 H 1.12901 1.04561 -0.29013
 C217 C 0.79435 0.96194 0.35307
 C218 C 0.81423 0.96905 0.31426
 C219 C 0.83862 0.97684 0.26815
 C220 C 0.83409 0.94210 0.23055
 C221 C 0.85923 0.94868 0.18639
 C222 C 0.88900 0.99002 0.17965
 C223 C 0.89324 1.02498 0.21705
 C224 C 0.86807 1.01840 0.26124
 C225 C 0.91629 0.99553 0.13496
 C226 C 0.93941 0.99870 0.09754
 H227 H 0.81155 0.90975 0.23557
 H228 H 0.85588 0.92134 0.15773
 H229 H 0.91634 1.05697 0.21223
 H230 H 0.87195 1.04540 0.29013
 C231 C 0.79383 1.03670 -0.35348
 C232 C 0.81390 1.02976 -0.31471
 C233 C 0.83852 1.02224 -0.26867
 C234 C 0.83451 1.05738 -0.23139
 C235 C 0.85982 1.05103 -0.18728
 C236 C 0.88924 1.00952 -0.18026
 C237 C 0.89299 0.97417 -0.21735
 C238 C 0.86766 0.98053 -0.26149
 C239 C 0.91658 1.00413 -0.13557
 C240 C 0.93969 1.00104 -0.09810
 H241 H 0.81223 1.08985 -0.23662
 H242 H 0.85685 1.07866 -0.15886
 H243 H 0.91581 0.94205 -0.21231
 H244 H 0.87114 0.95323 -0.29014
 C245 C 1.35461 1.20440 0.03737
 C246 C 1.31570 1.18453 0.03041
 C247 C 1.26946 1.16023 0.02283
 C248 C 1.23222 1.16443 0.05795
 C249 C 1.18786 1.13951 0.05148
 C250 C 1.18057 1.11029 0.00986
 C251 C 1.21763 1.10634 -0.02547
 C252 C 1.26201 1.13129 -0.01900
 C253 C 1.13565 1.08328 0.00438
 C254 C 1.09805 1.06037 0.00121
 H255 H 1.23765 1.18657 0.09050
 H256 H 1.15947 1.14264 0.07910
 H257 H 1.21238 1.08366 -0.05768
 H258 H 1.29063 1.12766 -0.04630
 C259 C 0.64581 1.20421 -0.03794
 C260 C 0.68469 1.18439 -0.03092
 C261 C 0.73091 1.16012 -0.02328
 C262 C 0.73818 1.13096 0.01839
 C263 C 0.78253 1.10603 0.02488
 C264 C 0.81974 1.11022 -0.01025
 C265 C 0.81262 1.13965 -0.05173
 C266 C 0.76830 1.16456 -0.05823
 C267 C 0.86463 1.08323 -0.00474
 C268 C 0.90221 1.06033 -0.00154
 H269 H 0.70945 1.12715 0.04554
 H270 H 0.78764 1.08317 0.05697
 H271 H 0.84112 1.14294 -0.07922
 H272 H 0.76300 1.18686 -0.09066
 C273 C 1.35424 0.79535 -0.03738
 C274 C 1.31536 0.81517 -0.03034
 C275 C 1.26915 0.83943 -0.02269
 C276 C 1.26192 0.86865 0.01897
 C277 C 1.21760 0.89362 0.02545
 C278 C 1.18038 0.88943 -0.00971
 C279 C 1.18744 0.85992 -0.05116
 C280 C 1.23174 0.83497 -0.05763
 C281 C 1.13553 0.91648 -0.00427
 C282 C 1.09797 0.93942 -0.00118
 H283 H 1.29068 0.87247 0.04613
 H284 H 1.21253 0.91653 0.05751
 H285 H 1.15892 0.85662 -0.07865
 H286 H 1.23700 0.81262 -0.09005
 C287 C 0.64569 0.79554 0.03732
 C288 C 0.68460 0.81533 0.03022
 C289 C 0.73084 0.83955 0.02250
 C290 C 0.76835 0.83494 0.05731
 C291 C 0.81269 0.85984 0.05078
 C292 C 0.81970 0.88945 0.00940
 C293 C 0.78237 0.89380 -0.02561
 C294 C 0.73800 0.86886 -0.01908
 C295 C 0.86458 0.91648 0.00392
 C296 C 0.90217 0.93941 0.00081
 H297 H 0.76314 0.81251 0.08967
 H298 H 0.84129 0.85643 0.07816
 H299 H 0.78739 0.91678 -0.05761
 H300 H 0.70916 0.87281 -0.04612
 C301 C 0.85278 0.53921 0.29290
 C302 C 0.81409 0.53208 0.31306
 C303 C 0.76819 0.52420 0.33782
 C304 C 0.76141 0.48236 0.36687
 C305 C 0.71740 0.47561 0.39232
 C306 C 0.68005 0.51068 0.38877
 C307 C 0.68667 0.55231 0.35942
 C308 C 0.73066 0.55906 0.33400
 C309 C 0.63549 0.50490 0.41622
 C310 C 0.59811 0.50155 0.43940
 H311 H 0.79026 0.45526 0.37020
 H312 H 0.71266 0.44339 0.41508
 H313 H 0.65804 0.57972 0.35659
 H314 H 0.73557 0.59161 0.31177
 C315 C 0.14588 0.46497 0.29515
 C316 C 0.18450 0.47215 0.31543
 C317 C 0.23038 0.48005 0.34027
 C318 C 0.27423 0.46342 0.31931
 C319 C 0.31860 0.46957 0.34431
 C320 C 0.31925 0.49241 0.39031
 C321 C 0.27547 0.50933 0.41115
 C322 C 0.23111 0.50318 0.38615
 C323 C 0.36451 0.49682 0.41689
 C324 C 0.40230 0.49934 0.43952
 H325 H 0.27405 0.44531 0.28396
 H326 H 0.35226 0.45607 0.32807
 H327 H 0.27559 0.52674 0.44687
 H328 H 0.19739 0.51598 0.40278
 C329 C 0.85238 0.46258 0.70804
 C330 C 0.81375 0.46953 0.68773
 C331 C 0.76789 0.47713 0.66279
 C332 C 0.76105 0.51885 0.63358
 C333 C 0.71710 0.52531 0.60793
 C334 C 0.67987 0.49007 0.61145
 C335 C 0.68655 0.44856 0.64094
 C336 C 0.73047 0.44210 0.66656
 C337 C 0.63536 0.49559 0.58385
 C338 C 0.59802 0.49879 0.56056
 H339 H 0.78982 0.54607 0.63028
 H340 H 0.71232 0.55743 0.58507
 H341 H 0.65801 0.42102 0.64374
 H342 H 0.73544 0.40963 0.68890
 C343 C 0.14747 0.53709 0.70668
 C344 C 0.18591 0.52990 0.68611
 C345 C 0.23153 0.52188 0.66089
 C346 C 0.27515 0.54167 0.67957
 C347 C 0.31921 0.53520 0.65418
 C348 C 0.31981 0.50886 0.61008
 C349 C 0.27628 0.48885 0.59152
 C350 C 0.23222 0.49532 0.61690
 C351 C 0.36473 0.50395 0.58306
 C352 C 0.40233 0.50111 0.56019
 H353 H 0.27499 0.56244 0.71343
 H354 H 0.35267 0.55110 0.66864
 H355 H 0.27635 0.46872 0.55726
 H356 H 0.19867 0.48005 0.60204
 C357 C 0.53732 0.70794 0.14773
 C358 C 0.53041 0.68771 0.18639
 C359 C 0.52287 0.66289 0.23230
 C360 C 0.55806 0.66665 0.26955
 C361 C 0.55167 0.64114 0.31353
 C362 C 0.51007 0.61178 0.32042
 C363 C 0.47468 0.60827 0.28336
 C364 C 0.48107 0.63381 0.23935
 C365 C 0.50464 0.58424 0.36495
 C366 C 0.50151 0.56097 0.40228
 H367 H 0.59060 0.68888 0.26441
 H368 H 0.57933 0.64393 0.34194
 H369 H 0.44248 0.58550 0.28830
 H370 H 0.45372 0.63052 0.21071
 C371 C 0.46254 0.70723 0.85256
 C372 C 0.46949 0.68689 0.81395
 C373 C 0.47709 0.66198 0.76808
 C374 C 0.44204 0.66577 0.73071
 C375 C 0.44855 0.64028 0.68672
 C376 C 0.49014 0.61093 0.67993
 C377 C 0.52537 0.60735 0.71713
 C378 C 0.51886 0.63285 0.76115
 C379 C 0.49575 0.58354 0.63530
 C380 C 0.49900 0.56045 0.59785
 H381 H 0.40954 0.68804 0.73575
 H382 H 0.42100 0.64310 0.65821
 H383 H 0.55755 0.58458 0.71226
 H384 H 0.54609 0.62953 0.78989
 C385 C 0.46323 0.29279 0.14714
 C386 C 0.47029 0.31316 0.18573
 C387 C 0.47802 0.33811 0.23158
 C388 C 0.51661 0.37173 0.23652
 C389 C 0.52302 0.39727 0.28055
 C390 C 0.49086 0.38923 0.31976
 C391 C 0.45250 0.35536 0.31496
 C392 C 0.44610 0.32984 0.27096
 C393 C 0.49612 0.41668 0.36442
 C394 C 0.49913 0.43981 0.40187
 H395 H 0.54139 0.37852 0.20624
 H396 H 0.55266 0.42354 0.28386
 H397 H 0.42732 0.34906 0.34504
 H398 H 0.41605 0.30406 0.26748
 C399 C 0.53736 0.29202 0.85188
 C400 C 0.53040 0.31229 0.81324
 C401 C 0.52281 0.33718 0.76737
 C402 C 0.55792 0.33346 0.73007
 C403 C 0.55149 0.35903 0.68613
 C404 C 0.50992 0.38842 0.67932
 C405 C 0.47461 0.39189 0.71643
 C406 C 0.48104 0.36629 0.76040
 C407 C 0.50446 0.41601 0.63481
 C408 C 0.50135 0.43930 0.59749
 H409 H 0.59043 0.31120 0.73514
 H410 H 0.57909 0.35626 0.65769
 H411 H 0.44244 0.41468 0.71155
 H412 H 0.45376 0.36956 0.78907
 C413 C 0.70686 0.85344 0.46348
 C414 C 0.68680 0.81465 0.47046
 C415 C 0.66221 0.76856 0.47801
 C416 C 0.66633 0.73123 0.44295
 C417 C 0.64101 0.68709 0.44929
 C418 C 0.61148 0.68012 0.49071
 C419 C 0.60764 0.71725 0.52599
 C420 C 0.63298 0.76142 0.51965
 C421 C 0.58407 0.63544 0.49604
 C422 C 0.56089 0.59799 0.49905
 H423 H 0.68869 0.73643 0.41054
 H424 H 0.64407 0.65862 0.42171
 H425 H 0.58474 0.71224 0.55805
 H426 H 0.62942 0.79012 0.54689
 C427 C 0.70618 0.14692 0.53798
 C428 C 0.68618 0.18568 0.53085
 C429 C 0.66166 0.23173 0.52303
 C430 C 0.66592 0.26931 0.55783
 C431 C 0.64072 0.31344 0.55118
 C432 C 0.61117 0.32016 0.50971
 C433 C 0.60718 0.28278 0.47470
 C434 C 0.63240 0.23862 0.48135
 C435 C 0.58386 0.36484 0.50409
 C436 C 0.56076 0.40229 0.50089
 H437 H 0.68831 0.26430 0.59027
 H438 H 0.64388 0.34209 0.57855
 H439 H 0.58424 0.28760 0.44262
 H440 H 0.62873 0.20974 0.45431
 C441 C 0.29384 0.85336 0.53652
 C442 C 0.31400 0.81464 0.52960
 C443 C 0.33869 0.76862 0.52210
 C444 C 0.36920 0.76206 0.48130
 C445 C 0.39454 0.71791 0.47500
 C446 C 0.38943 0.68022 0.50950
 C447 C 0.35865 0.68664 0.55011
 C448 C 0.33333 0.73075 0.55639
 C449 C 0.41674 0.63550 0.50424
 C450 C 0.43982 0.59802 0.50121
 H451 H 0.37373 0.79118 0.45467
 H452 H 0.41842 0.71334 0.44359
 H453 H 0.35463 0.65774 0.57709
 H454 H 0.30997 0.73551 0.58816
 C455 C 0.29447 0.14651 0.46159
 C456 C 0.31451 0.18529 0.46866
 C457 C 0.33906 0.23136 0.47639
 C458 C 0.36876 0.23820 0.51778
 C459 C 0.39397 0.28242 0.52436
 C460 C 0.38951 0.31992 0.48957
 C461 C 0.35954 0.31323 0.44837
 C462 C 0.33436 0.26904 0.44180
 C463 C 0.41671 0.36471 0.49513
 C464 C 0.43973 0.40223 0.49836
 H465 H 0.37278 0.20923 0.54466
 H466 H 0.41723 0.28720 0.55622
 H467 H 0.35604 0.34198 0.42116
 H468 H 0.31164 0.26408 0.40959
   
