data_POSCAR
  _audit_creation_date              2014-09-24
  _audit_creation_method            'ToBaCCo'
  _symmetry_space_group_name_H-M    'P1'
  _symmetry_Int_Tables_number       1
  _symmetry_cell_setting            triclinic
  loop_
  _symmetry_equiv_pos_as_xyz
 x,y,z
_cell_length_a 15.1466
_cell_length_b 25.0827
_cell_length_c 21.6992
_cell_angle_alpha 90.458200
_cell_angle_beta 88.692100
_cell_angle_gamma 89.682800
loop_
  _atom_site_label
  _atom_site_type_symbol
  _atom_site_fract_x
  _atom_site_fract_y
  _atom_site_fract_z
B1 B -0.04062 -0.05848 0.02288
 B2 B 0.06382 -0.03761 0.02687
 B3 B 0.02441 -0.05984 -0.03982
 B4 B -0.08190 -0.04094 -0.04537
 B5 B -0.10812 -0.00566 0.02022
 B6 B -0.01678 -0.00430 0.06542
 B7 B 0.02410 0.04677 -0.04167
 B8 B -0.08022 0.02568 -0.04540
 B9 B -0.04160 0.04800 0.02154
 B10 B 0.06527 0.02928 0.02683
 B11 B 0.09169 -0.00642 -0.03883
 B12 B 0.00070 -0.00784 -0.08411
 B13 B 0.53425 0.47006 0.56638
 B14 B 0.43094 0.47921 0.54283
 B15 B 0.49154 0.53132 0.56547
 B16 B 0.59731 0.52150 0.54262
 B17 B 0.60196 0.46167 0.50464
 B18 B 0.49803 0.43534 0.50547
 B19 B 0.49292 0.52851 0.44170
 B20 B 0.59682 0.51911 0.46522
 B21 B 0.53673 0.46666 0.44278
 B22 B 0.43031 0.47690 0.46546
 B23 B 0.42575 0.53685 0.50408
 B24 B 0.52981 0.56294 0.50269
 B25 B 0.58827 0.03358 0.52094
 B26 B 0.48658 0.02715 0.55074
 B27 B 0.50095 0.04599 0.47727
 B28 B 0.58970 0.01336 0.44653
 B29 B 0.62892 -0.02698 0.50302
 B30 B 0.56450 -0.01790 0.56794
 B31 B 0.46044 -0.05779 0.47841
 B32 B 0.56288 -0.05167 0.44825
 B33 B 0.54750 -0.06998 0.52143
 B34 B 0.45934 -0.03732 0.55245
 B35 B 0.41987 0.00283 0.49597
 B36 B 0.48454 -0.00681 0.43073
 B37 B -0.03981 0.51218 0.06244
 B38 B 0.06202 0.53263 0.04278
 B39 B 0.04445 0.46872 0.06221
 B40 B -0.05448 0.45003 0.03520
 B41 B -0.09792 0.50366 -0.00194
 B42 B -0.02539 0.55521 0.00358
 B43 B 0.05591 0.47506 -0.06148
 B44 B -0.04553 0.45475 -0.04155
 B45 B -0.02792 0.51835 -0.06098
 B46 B 0.07094 0.53735 -0.03428
 B47 B 0.11477 0.48360 0.00289
 B48 B 0.04206 0.43213 -0.00262
 B49 B 0.08122 0.44951 0.46273
 B50 B -0.02440 0.44060 0.44503
 B51 B 0.00748 0.43306 0.51751
 B52 B 0.08649 0.47803 0.53283
 B53 B 0.10203 0.51494 0.46710
 B54 B 0.03272 0.49050 0.41238
 B55 B -0.06872 0.52909 0.50815
 B56 B 0.03727 0.53782 0.52581
 B57 B 0.00482 0.54545 0.45278
 B58 B -0.07397 0.50024 0.43801
 B59 B -0.08933 0.46359 0.50350
 B60 B -0.02011 0.48779 0.55827
 B61 B 0.45688 -0.01789 -0.07288
 B62 B 0.55570 -0.04327 -0.05663
 B63 B 0.54472 0.02166 -0.07277
 B64 B 0.44737 0.04369 -0.04281
 B65 B 0.39813 -0.00937 -0.00698
 B66 B 0.46591 -0.06339 -0.01601
 B67 B 0.55364 0.01126 0.05023
 B68 B 0.45400 0.03617 0.03344
 B69 B 0.46539 -0.02876 0.05014
 B70 B 0.56309 -0.05068 0.01999
 B71 B 0.61216 0.00225 -0.01610
 B72 B 0.54430 0.05654 -0.00658
 B73 B 0.46032 0.54570 -0.03532
 B74 B 0.56558 0.52526 -0.03937
 B75 B 0.52163 0.54585 0.02806
 B76 B 0.41507 0.52662 0.03249
 B77 B 0.39408 0.49234 -0.03416
 B78 B 0.48831 0.49239 -0.07938
 B79 B 0.52332 0.43925 0.02579
 B80 B 0.41838 0.45988 0.03051
 B81 B 0.46246 0.43919 -0.03700
 B82 B 0.56880 0.45843 -0.04178
 B83 B 0.58973 0.49222 0.02491
 B84 B 0.49560 0.49263 0.07009
 B85 B 0.00658 0.02370 0.43120
 B86 B -0.09483 0.01723 0.46266
 B87 B -0.04116 -0.03623 0.43331
 B88 B 0.06738 -0.03033 0.44755
 B89 B 0.08064 0.02794 0.48748
 B90 B -0.02090 0.05739 0.49603
 B91 B -0.02581 -0.03751 0.55621
 B92 B 0.07562 -0.03075 0.52423
 B93 B 0.02169 0.02275 0.55411
 B94 B -0.08693 0.01689 0.53987
 B95 B -0.10020 -0.04134 0.49985
 B96 B 0.00135 -0.07099 0.49107
 B97 B 0.73680 0.27924 0.28913
 B98 B 0.62811 0.27218 0.29891
 B99 B 0.67166 0.28147 0.22832
 B100 B 0.76959 0.24998 0.22231
 B101 B 0.78598 0.21908 0.29124
 B102 B 0.69748 0.23347 0.33911
 B103 B 0.63734 0.17755 0.24046
 B104 B 0.74669 0.18506 0.23029
 B105 B 0.70271 0.17486 0.30127
 B106 B 0.60491 0.20725 0.30748
 B107 B 0.58856 0.23792 0.23866
 B108 B 0.67694 0.22313 0.19067
 B109 B 0.71436 0.77934 0.77351
 B110 B 0.67235 0.76321 0.70549
 B111 B 0.77440 0.78772 0.70921
 B112 B 0.82279 0.76406 0.77264
 B113 B 0.74719 0.72378 0.80829
 B114 B 0.65310 0.72371 0.76614
 B115 B 0.78624 0.68163 0.69418
 B116 B 0.82839 0.69738 0.76280
 B117 B 0.72538 0.67353 0.75849
 B118 B 0.67774 0.69745 0.69505
 B119 B 0.75391 0.73759 0.65955
 B120 B 0.84799 0.73724 0.70163
 B121 B 0.25490 0.20777 0.69088
 B122 B 0.14879 0.22580 0.69838
 B123 B 0.20378 0.20576 0.76027
 B124 B 0.30888 0.22715 0.75433
 B125 B 0.31806 0.26242 0.68720
 B126 B 0.21794 0.26102 0.65232
 B127 B 0.19624 0.31262 0.76256
 B128 B 0.30255 0.29374 0.75552
 B129 B 0.24751 0.31466 0.69377
 B130 B 0.14233 0.29294 0.69920
 B131 B 0.13279 0.25787 0.76602
 B132 B 0.23258 0.25912 0.80130
 B133 B 0.19987 0.79874 0.22656
 B134 B 0.30651 0.78096 0.21921
 B135 B 0.26335 0.79787 0.28854
 B136 B 0.15862 0.77621 0.29405
 B137 B 0.13662 0.74412 0.22635
 B138 B 0.22916 0.74732 0.17961
 B139 B 0.27057 0.69095 0.28198
 B140 B 0.16463 0.70984 0.28924
 B141 B 0.20755 0.69215 0.22027
 B142 B 0.31278 0.71377 0.21454
 B143 B 0.33478 0.74584 0.28220
 B144 B 0.24226 0.74232 0.32865
 B145 B 0.28710 0.70010 0.76627
 B146 B 0.34911 0.72657 0.70916
 B147 B 0.24700 0.70488 0.69516
 B148 B 0.18069 0.71773 0.75687
 B149 B 0.24457 0.74873 0.80996
 B150 B 0.34997 0.75418 0.78018
 B151 B 0.24018 0.81140 0.70822
 B152 B 0.17834 0.78395 0.76419
 B153 B 0.27986 0.80580 0.77859
 B154 B 0.34663 0.79355 0.71655
 B155 B 0.28281 0.76233 0.66313
 B156 B 0.17767 0.75756 0.69303
 B157 B 0.22304 0.18269 0.27849
 B158 B 0.32770 0.20200 0.28405
 B159 B 0.28539 0.18797 0.21511
 B160 B 0.17948 0.20866 0.21439
 B161 B 0.15630 0.23648 0.28498
 B162 B 0.24884 0.23167 0.32846
 B163 B 0.28850 0.29376 0.22914
 B164 B 0.18280 0.27524 0.22398
 B165 B 0.22500 0.28878 0.29281
 B166 B 0.33116 0.26798 0.29364
 B167 B 0.35414 0.23997 0.22290
 B168 B 0.26142 0.24485 0.17950
 B169 B 0.85184 0.67875 0.23892
 B170 B 0.74308 0.68242 0.22620
 B171 B 0.77998 0.67341 0.29826
 B172 B 0.87363 0.70886 0.30644
 B173 B 0.89361 0.74036 0.23800
 B174 B 0.81216 0.72318 0.18847
 B175 B 0.73590 0.77665 0.28595
 B176 B 0.84441 0.77270 0.29743
 B177 B 0.80706 0.78138 0.22648
 B178 B 0.71348 0.74671 0.21824
 B179 B 0.69313 0.71472 0.28661
 B180 B 0.77499 0.73197 0.33623
 B181 B 0.73496 0.19774 0.69246
 B182 B 0.68798 0.20849 0.76211
 B183 B 0.79217 0.18552 0.75593
 B184 B 0.84313 0.21391 0.69471
 B185 B 0.76794 0.25619 0.66304
 B186 B 0.67109 0.25237 0.70497
 B187 B 0.79839 0.28994 0.78065
 B188 B 0.84537 0.27915 0.71135
 B189 B 0.74213 0.30256 0.71723
 B190 B 0.69052 0.27435 0.77819
 B191 B 0.76508 0.23195 0.80984
 B192 B 0.86223 0.23558 0.76805
 C193 C 0.09564 0.45414 0.87514
 C194 C 0.18073 0.44171 0.86578
 C195 C 0.20963 0.40542 0.81534
 C196 C 0.16161 0.36247 0.80099
 H197 H 0.22960 0.45425 0.89845
 H198 H 0.27564 0.41030 0.79660
 H199 H 0.04846 0.44353 0.84037
 H200 H 0.09726 0.35726 0.82290
 C201 C 0.47510 0.56273 0.38204
 C202 C 0.39429 0.57334 0.36211
 C203 C 0.37881 0.61984 0.32221
 C204 C 0.29647 0.63552 0.31139
 H205 H 0.33808 0.55192 0.38119
 H206 H 0.43406 0.64402 0.30679
 H207 H 0.52895 0.58655 0.36430
 H208 H 0.24258 0.61074 0.32771
 C209 C 0.96045 0.92784 0.61616
 C210 C 0.88072 0.91520 0.63844
 C211 C 0.86983 0.86725 0.67651
 C212 C 0.79034 0.84554 0.68326
 H213 H 0.82255 0.93521 0.62142
 H214 H 0.92760 0.84637 0.69270
 H215 H 1.01611 0.90497 0.63173
 H216 H 0.73370 0.86654 0.66559
 C217 C 0.60609 0.02805 0.10972
 C218 C 0.56669 0.04423 0.16242
 C219 C 0.61398 0.07981 0.20421
 C220 C 0.58382 0.12959 0.21253
 H221 H 0.49605 0.04049 0.16917
 H222 H 0.67774 0.06769 0.22047
 H223 H 0.67638 0.03468 0.10317
 H224 H 0.52235 0.14072 0.19163
 C225 C 0.82369 0.04699 0.43281
 C226 C 0.81163 0.04695 0.37197
 C227 C 0.79430 0.09748 0.34077
 C228 C 0.71552 0.12116 0.33851
 H229 H 0.84559 0.01755 0.34347
 H230 H 0.85034 0.11516 0.31717
 H231 H 0.79519 0.07943 0.46001
 H232 H 0.65900 0.10342 0.36159
 C233 C 0.35146 0.45668 0.58375
 C234 C 0.30001 0.41729 0.56318
 C235 C 0.24988 0.38025 0.60332
 C236 C 0.27379 0.36878 0.66092
 H237 H 0.30176 0.40713 0.51461
 H238 H 0.20290 0.35483 0.58053
 H239 H 0.34834 0.46824 0.63183
 H240 H 0.32361 0.39238 0.68292
 C241 C 0.60366 0.91575 0.89761
 C242 C 0.56126 0.87217 0.87770
 C243 C 0.59811 0.82996 0.83734
 C244 C 0.68013 0.82862 0.81322
 H245 H 0.49352 0.86538 0.89238
 H246 H 0.55332 0.79752 0.82797
 H247 H 0.67139 0.92358 0.88404
 H248 H 0.72615 0.86051 0.82153
 C249 C 0.10931 0.57474 0.08446
 C250 C 0.18976 0.56903 0.10780
 C251 C 0.22733 0.61117 0.14711
 C252 C 0.17642 0.64003 0.18643
 H253 H 0.23042 0.53482 0.09531
 H254 H 0.29738 0.61896 0.14237
 H255 H 0.07202 0.61100 0.09378
 H256 H 0.10803 0.62945 0.19362
 C257 C 0.42206 0.94530 0.11056
 C258 C 0.43291 0.89363 0.12517
 C259 C 0.37769 0.86771 0.17359
 C260 C 0.37835 0.81444 0.18061
 H261 H 0.47787 0.86891 0.09769
 H262 H 0.33059 0.89210 0.19920
 H263 H 0.37564 0.96960 0.13729
 H264 H 0.42571 0.79104 0.15356
 C265 C 0.56377 0.42847 0.38704
 C266 C 0.50638 0.40557 0.34912
 C267 C 0.53216 0.35818 0.31160
 C268 C 0.57615 0.31741 0.33662
 H269 H 0.44023 0.42142 0.34596
 H270 H 0.51552 0.35728 0.26346
 H271 H 0.63145 0.41413 0.38650
 H272 H 0.58727 0.31823 0.38580
 C273 C 0.93395 0.54224 0.87725
 C274 C 0.95742 0.58977 0.85444
 C275 C 0.90808 0.61371 0.80347
 C276 C 0.90577 0.66667 0.79628
 H277 H 1.00687 0.61340 0.87728
 H278 H 0.86444 0.58853 0.77745
 H279 H 0.88182 0.52030 0.85528
 H280 H 0.94957 0.69118 0.82319
 C281 C 0.05250 0.05515 0.61265
 C282 C 0.02519 0.10523 0.62521
 C283 C 0.07301 0.13773 0.66984
 C284 C 0.07398 0.19113 0.66720
 H285 H -0.02505 0.12414 0.59801
 H286 H 0.11866 0.11684 0.69846
 H287 H 0.10583 0.03885 0.63880
 H288 H 0.03081 0.21134 0.63576
 C289 C 0.15089 0.40750 0.43876
 C290 C 0.20906 0.41806 0.39338
 C291 C 0.24559 0.37447 0.35530
 C292 C 0.19186 0.33772 0.33203
 H293 H 0.22320 0.45864 0.37980
 H294 H 0.31521 0.37403 0.34390
 H295 H 0.14075 0.36654 0.45266
 H296 H 0.12135 0.34045 0.34105
 C297 C 0.42967 0.59817 0.93230
 C298 C 0.37881 0.59690 0.88267
 C299 C 0.35541 0.64621 0.85160
 C300 C 0.30777 0.64633 0.80034
 H301 H 0.35580 0.55936 0.86400
 H302 H 0.37921 0.68326 0.87101
 H303 H 0.45288 0.63590 0.95011
 H304 H 0.28356 0.60934 0.78111
 C305 C 0.64732 0.08025 0.54587
 C306 C 0.71160 0.07140 0.58604
 C307 C 0.74976 0.11422 0.62354
 C308 C 0.69922 0.15310 0.64832
 H309 H 0.73434 0.03117 0.59449
 H310 H 0.81832 0.11048 0.63585
 H311 H 0.62681 0.12067 0.53602
 H312 H 0.62921 0.15436 0.63919
 C313 C 0.92991 0.88822 0.05427
 C314 C 0.88254 0.88760 0.10678
 C315 C 0.86471 0.83701 0.13737
 C316 C 0.82054 0.83535 0.19116
 H317 H 0.85972 0.92447 0.12837
 H318 H 0.89078 0.80069 0.11628
 H319 H 0.95281 0.85109 0.03345
 H320 H 0.79552 0.87181 0.21237
 C321 C 0.84893 0.05904 0.92021
 C322 C 0.85467 0.06740 0.85967
 C323 C 0.80543 0.11147 0.83357
 C324 C 0.82293 0.12854 0.77655
 H325 H 0.90352 0.04667 0.83097
 H326 H 0.76114 0.13393 0.86409
 H327 H 0.80066 0.08078 0.94842
 H328 H 0.86907 0.10678 0.74672
 C329 C 0.06141 0.58678 0.56783
 C330 C 0.14024 0.59454 0.59226
 C331 C 0.15379 0.64218 0.63072
 C332 C 0.23213 0.65339 0.65419
 H333 H 0.19384 0.56637 0.58387
 H334 H 0.09812 0.66871 0.63978
 H335 H 0.01002 0.61621 0.57631
 H336 H 0.28711 0.62657 0.64516
 C337 C 0.60610 0.90664 0.40077
 C338 C 0.56260 0.88057 0.35646
 C339 C 0.60079 0.83355 0.32328
 C340 C 0.68737 0.82886 0.31120
 H341 H 0.49457 0.89024 0.34800
 H342 H 0.55650 0.80198 0.30984
 H343 H 0.67332 0.89516 0.41052
 H344 H 0.72950 0.86239 0.32113
 C345 C 0.34712 0.42496 0.06455
 C346 C 0.35573 0.41149 0.12341
 C347 C 0.30949 0.36523 0.14795
 C348 C 0.32416 0.34857 0.20501
 H349 H 0.40514 0.43021 0.15161
 H350 H 0.26805 0.34243 0.11746
 H351 H 0.29748 0.40592 0.03683
 H352 H 0.36610 0.37150 0.23486
 C353 C 0.55274 0.59862 0.06237
 C354 C 0.60742 0.59591 0.11001
 C355 C 0.63872 0.64308 0.14397
 C356 C 0.69900 0.63629 0.18747
 H357 H 0.63091 0.55725 0.12478
 H358 H 0.61386 0.68241 0.13318
 H359 H 0.52887 0.63694 0.04709
 H360 H 0.72428 0.59650 0.19468
 C361 C 0.05804 0.88548 0.93247
 C362 C 0.03473 0.86685 0.87748
 C363 C 0.08152 0.82022 0.85188
 C364 C 0.09492 0.81501 0.79122
 H365 H -0.01037 0.88905 0.84912
 H366 H 0.11886 0.79591 0.88325
 H367 H 0.10557 0.86337 0.95887
 H368 H 0.05879 0.84022 0.76017
 C369 C 0.47204 0.10358 0.45542
 C370 C 0.46774 0.11524 0.39551
 C371 C 0.41452 0.16023 0.37323
 C372 C 0.39865 0.16361 0.31297
 H373 H 0.49553 0.08759 0.36152
 H374 H 0.38249 0.18727 0.40601
 H375 H 0.44310 0.13067 0.48943
 H376 H 0.43044 0.13513 0.28227
 C377 C 1.00343 0.37570 0.54709
 C378 C 0.99254 0.36848 0.60755
 C379 C 0.94902 0.32001 0.63037
 C380 C 0.92169 0.31747 0.68906
 H381 H 1.00209 0.40143 0.63932
 H382 H 0.92799 0.29012 0.59751
 H383 H 0.99295 0.34226 0.51634
 H384 H 0.94242 0.34795 0.72123
 C385 C 0.90836 0.53248 0.12208
 C386 C 0.94683 0.54453 0.17517
 C387 C 0.90111 0.58104 0.21817
 C388 C 0.91295 0.63332 0.21079
 H389 H 1.01612 0.53646 0.18190
 H390 H 0.84982 0.56554 0.24815
 H391 H 0.83981 0.54370 0.11615
 H392 H 0.96171 0.64650 0.17702
 C393 C 0.54936 0.43804 0.62757
 C394 C 0.62968 0.42672 0.64759
 C395 C 0.64276 0.38082 0.68820
 C396 C 0.72379 0.36127 0.69516
 H397 H 0.68697 0.44582 0.62678
 H398 H 0.58583 0.35869 0.70489
 H399 H 0.49300 0.41752 0.64762
 H400 H 0.77968 0.38346 0.67706
 C401 C 0.02103 0.05801 0.37177
 C402 C 0.09734 0.05952 0.34056
 C403 C 0.11724 0.10668 0.30349
 C404 C 0.19870 0.12589 0.30327
 H405 H 0.14992 0.03167 0.35089
 H406 H 0.06375 0.12969 0.28426
 H407 H -0.02608 0.08963 0.36475
 H408 H 0.25028 0.10334 0.32531
 C409 C 0.41419 0.96638 0.86413
 C410 C 0.34198 0.93660 0.86343
 C411 C 0.32743 0.89970 0.81210
 C412 C 0.28971 0.85331 0.82510
 H413 H 0.30351 0.93111 0.90572
 H414 H 0.35553 0.90740 0.76666
 H415 H 0.45473 0.97001 0.82257
 H416 H 0.26654 0.84593 0.87193
 C417 C 0.16147 0.94020 0.54818
 C418 C 0.17778 0.93307 0.60754
 C419 C 0.22661 0.88557 0.62740
 C420 C 0.21372 0.86851 0.68489
 H421 H 0.14061 0.95525 0.64224
 H422 H 0.26225 0.86106 0.59368
 H423 H 0.19807 0.91631 0.51433
 H424 H 0.17680 0.89352 0.71739
 C425 C 0.67711 0.54449 0.42763
 C426 C 0.68461 0.53922 0.36635
 C427 C 0.70623 0.58481 0.32684
 C428 C 0.76835 0.62097 0.33818
 H429 H 0.64845 0.50826 0.34338
 H430 H 0.66288 0.58979 0.28870
 H431 H 0.70896 0.57775 0.44998
 H432 H 0.81075 0.61587 0.37723
 C433 C 0.40505 0.07764 0.07652
 C434 C 0.31748 0.07883 0.08659
 C435 C 0.27642 0.12004 0.12654
 C436 C 0.31689 0.13778 0.17678
 H437 H 0.27472 0.05148 0.06274
 H438 H 0.21317 0.13628 0.11357
 H439 H 0.44604 0.10827 0.09630
 H440 H 0.37663 0.11827 0.19068
 C441 C 0.90106 0.41567 0.91594
 C442 C 0.91277 0.36281 0.91842
 C443 C 0.87121 0.32385 0.87754
 C444 C 0.83140 0.33560 0.82474
 H445 H 0.95602 0.34599 0.95232
 H446 H 0.87943 0.28255 0.89061
 H447 H 0.85520 0.43293 0.88430
 H448 H 0.82521 0.37625 0.80925
 C449 C 0.58501 0.04688 0.86572
 C450 C 0.55845 0.09422 0.84398
 C451 C 0.60865 0.12141 0.79437
 C452 C 0.60953 0.17483 0.79219
 H453 H 0.50542 0.11598 0.86746
 H454 H 0.65463 0.09822 0.76608
 H455 H 0.64049 0.02636 0.84362
 H456 H 0.56347 0.19710 0.82160
 C457 C 0.47005 0.56373 0.62671
 C458 C 0.49221 0.61506 0.63401
 C459 C 0.45138 0.64649 0.68437
 C460 C 0.43143 0.69795 0.67621
 H461 H 0.53038 0.63558 0.59874
 H462 H 0.42326 0.62460 0.72224
 H463 H 0.42938 0.54449 0.66157
 H464 H 0.45906 0.71810 0.63629
 C465 C 0.08206 0.44224 0.12298
 C466 C 0.06141 0.39231 0.14011
 C467 C 0.11046 0.36403 0.18834
 C468 C 0.11057 0.31048 0.19029
 H469 H 0.01383 0.36987 0.11401
 H470 H 0.15461 0.38665 0.21692
 H471 H 0.13186 0.46386 0.14782
 H472 H 0.06666 0.28881 0.16046
 C473 C 0.92630 0.92951 0.37719
 C474 C 0.98115 0.89890 0.34259
 C475 C 0.94818 0.85296 0.30768
 C476 C 0.89098 0.81892 0.33375
 H477 H 1.05187 0.90498 0.34277
 H478 H 0.97381 0.84596 0.26138
 H479 H 0.85565 0.92343 0.37471
 H480 H 0.87004 0.82480 0.38144
 C481 C 0.86121 0.57052 0.53452
 C482 C 0.80798 0.55873 0.58251
 C483 C 0.76973 0.60079 0.62215
 C484 C 0.82227 0.63386 0.65320
 H485 H 0.79882 0.51786 0.59691
 H486 H 0.69867 0.60236 0.62841
 H487 H 0.86818 0.61168 0.52043
 H488 H 0.89326 0.62948 0.64884
 C489 C 0.55167 0.38555 0.05601
 C490 C 0.59756 0.38490 0.10757
 C491 C 0.61413 0.33477 0.13888
 C492 C 0.65755 0.33431 0.19154
 H493 H 0.62009 0.42177 0.12825
 H494 H 0.58823 0.29820 0.11956
 H495 H 0.52878 0.34859 0.03590
 H496 H 0.68246 0.37125 0.21027
 C497 C 0.39872 0.89531 0.45876
 C498 C 0.34526 0.89930 0.41105
 C499 C 0.31151 0.85084 0.38239
 C500 C 0.28805 0.85077 0.32348
 H501 H 0.33686 0.93707 0.38786
 H502 H 0.31416 0.81397 0.40802
 H503 H 0.40872 0.85698 0.48031
 H504 H 0.28667 0.88789 0.29854
 C505 C 0.05335 0.09993 0.92545
 C506 C 0.10853 0.10042 0.87643
 C507 C 0.12794 0.15054 0.84444
 C508 C 0.18458 0.15232 0.79625
 H509 H 0.13787 0.06365 0.85887
 H510 H 0.09427 0.18650 0.86039
 H511 H 0.02432 0.13696 0.94231
 H512 H 0.21931 0.11650 0.78109
 C513 C 0.13476 0.92811 0.06098
 C514 C 0.12244 0.91255 0.11911
 C515 C 0.17256 0.86752 0.14305
 C516 C 0.16063 0.85222 0.20128
 H517 H 0.06870 0.92903 0.14725
 H518 H 0.21503 0.84465 0.11167
 H519 H 0.18921 0.91166 0.03352
 H520 H 0.11868 0.87569 0.23225
 C521 C 0.94994 0.38962 0.40639
 C522 C 0.87706 0.38640 0.37368
 C523 C 0.85208 0.33556 0.34488
 C524 C 0.77818 0.33283 0.31324
 H525 H 0.83348 0.42068 0.37036
 H526 H 0.89150 0.30003 0.35215
 H527 H 0.99237 0.35489 0.40913
 H528 H 0.73971 0.36891 0.30752
 C529 C 0.45588 0.06672 0.60395
 C530 C 0.37586 0.08872 0.60730
 C531 C 0.35472 0.13015 0.65376
 C532 C 0.27934 0.15724 0.65028
 H533 H 0.32712 0.07835 0.57342
 H534 H 0.40256 0.14051 0.68824
 H535 H 0.50438 0.07771 0.63771
 H536 H 0.23452 0.14731 0.61375
 C537 C 0.63879 0.55965 0.92872
 C538 C 0.64958 0.56166 0.86778
 C539 C 0.70245 0.60441 0.84116
 C540 C 0.69471 0.61754 0.78222
 H541 H 0.61165 0.53621 0.83778
 H542 H 0.73983 0.62945 0.87197
 H543 H 0.67591 0.58619 0.95798
 H544 H 0.65557 0.59314 0.75184
 C545 C 0.43050 0.38556 0.93254
 C546 C 0.44047 0.37468 0.87240
 C547 C 0.39051 0.33080 0.84507
 C548 C 0.37956 0.32763 0.78419
 H549 H 0.47719 0.40140 0.84243
 H550 H 0.35279 0.30528 0.87581
 H551 H 0.39235 0.35878 0.96147
 H552 H 0.41705 0.35358 0.75388
 C553 C 0.92072 0.10120 0.05284
 C554 C 0.88865 0.10111 0.11087
 C555 C 0.84160 0.14683 0.13939
 C556 C 0.80542 0.14131 0.19580
 H557 H 0.89305 0.06509 0.13793
 H558 H 0.83389 0.18352 0.11398
 H559 H 0.91501 0.13671 0.02517
 H560 H 0.81404 0.10370 0.21871
 C561 C 0.57293 0.87216 0.54166
 C562 C 0.54368 0.85103 0.59439
 C563 C 0.58807 0.80381 0.61783
 C564 C 0.59536 0.79750 0.67838
 H565 H 0.49667 0.87239 0.62401
 H566 H 0.62758 0.77974 0.58582
 H567 H 0.62307 0.85137 0.51414
 H568 H 0.55768 0.82300 0.70988
 C569 C 0.00421 0.59863 0.41381
 C570 C 0.04835 0.64247 0.42942
 C571 C 0.07464 0.68420 0.38538
 C572 C 0.09682 0.67347 0.32623
 H573 H 0.07441 0.64686 0.47489
 H574 H 0.09364 0.72190 0.40567
 H575 H -0.02358 0.59581 0.36834
 H576 H 0.08276 0.63480 0.30647
   
