data_POSCAR
  _audit_creation_date              2014-09-24
  _audit_creation_method            'ToBaCCo'
  _symmetry_space_group_name_H-M    'P1'
  _symmetry_Int_Tables_number       1
  _symmetry_cell_setting            triclinic
  loop_
  _symmetry_equiv_pos_as_xyz
 x,y,z
_cell_length_a 53.1813
_cell_length_b 53.0807
_cell_length_c 53.2071
_cell_angle_alpha 89.942700
_cell_angle_beta 90.013200
_cell_angle_gamma 89.975300
loop_
  _atom_site_label
  _atom_site_type_symbol
  _atom_site_fract_x
  _atom_site_fract_y
  _atom_site_fract_z
C1 C 0.60690 0.64301 0.62545
 N2 N 0.60707 0.62481 0.64342
 C3 C 0.62506 0.60660 0.64364
 N4 N 0.64306 0.60683 0.62547
 C5 C 0.64320 0.62488 0.60733
 N6 N 0.62504 0.64290 0.60747
 C7 C 0.89392 0.35647 0.12527
 N8 N 0.89373 0.37470 0.14322
 C9 C 0.87577 0.39291 0.14335
 N10 N 0.85779 0.39281 0.12520
 C11 C 0.85763 0.37478 0.10708
 N12 N 0.87574 0.35672 0.10727
 C13 C 0.39319 0.14328 -0.12510
 N14 N 0.39301 0.12513 -0.14308
 C15 C 0.37503 0.10697 -0.14322
 N16 N 0.35705 0.10710 -0.12508
 C17 C 0.35692 0.12510 -0.10694
 N18 N 0.37506 0.14313 -0.10709
 C19 C 0.10618 0.85688 0.37449
 N20 N 0.12436 0.85710 0.39249
 C21 C 0.14247 0.87514 0.39262
 N22 N 0.14231 0.89316 0.37447
 C23 C 0.12434 0.89333 0.35628
 N24 N 0.10638 0.87510 0.35650
 N25 N 0.09459 0.16471 0.11460
 N26 N 0.08438 0.15408 0.13443
 C27 C 0.06400 0.16746 0.14133
 C28 C 0.06126 0.18765 0.12496
 C29 C 0.08110 0.18519 0.10823
 H30 H 0.05214 0.16285 0.15716
 H31 H 0.08557 0.19735 0.09257
 Cu32 Cu 0.09929 0.12413 0.14938
 Cu33 Cu 0.12464 0.15132 0.09846
 Cu34 Cu 0.15124 0.09786 0.12510
 N35 N 0.11419 0.09415 0.16429
 N36 N 0.13466 0.08415 0.15476
 C37 C 0.14137 0.06404 0.16862
 C38 C 0.12417 0.06116 0.18801
 C39 C 0.10715 0.08069 0.18458
 H40 H 0.15764 0.05248 0.16480
 H41 H 0.09092 0.08491 0.19601
 N42 N 0.16511 0.11459 0.09506
 N43 N 0.15500 0.13490 0.08494
 C44 C 0.16857 0.14160 0.06466
 C45 C 0.18824 0.12470 0.06177
 C46 C 0.18538 0.10785 0.08148
 H47 H 0.16434 0.15760 0.05284
 H48 H 0.19711 0.09178 0.08565
 H49 H 0.11972 0.11439 0.10961
 H50 H 0.13959 0.13463 0.13025
 N51 N 0.40475 0.83500 0.61448
 N52 N 0.41494 0.84565 0.63429
 C53 C 0.43532 0.83230 0.64125
 C54 C 0.43810 0.81211 0.62493
 C55 C 0.41826 0.81454 0.60817
 H56 H 0.44717 0.83693 0.65707
 H57 H 0.41382 0.80237 0.59254
 Cu58 Cu 0.40001 0.87557 0.64918
 Cu59 Cu 0.37467 0.84834 0.59829
 Cu60 Cu 0.34802 0.90176 0.62487
 N61 N 0.38507 0.90549 0.66407
 N62 N 0.36458 0.91548 0.65452
 C63 C 0.35786 0.93556 0.66837
 C64 C 0.37505 0.93843 0.68776
 C65 C 0.39208 0.91892 0.68435
 H66 H 0.34158 0.94712 0.66453
 H67 H 0.40833 0.91472 0.69579
 N68 N 0.33416 0.88505 0.59486
 N69 N 0.34428 0.86475 0.58475
 C70 C 0.33069 0.85804 0.56449
 C71 C 0.31100 0.87493 0.56160
 C72 C 0.31388 0.89177 0.58128
 H73 H 0.33492 0.84206 0.55270
 H74 H 0.30215 0.90784 0.58543
 H75 H 0.37956 0.88528 0.60938
 H76 H 0.35972 0.86499 0.63007
 N77 N 0.90547 0.66530 0.38547
 N78 N 0.91568 0.65467 0.36567
 C79 C 0.93604 0.66807 0.35871
 C80 C 0.93876 0.68827 0.37503
 C81 C 0.91892 0.68579 0.39179
 H82 H 0.94789 0.66346 0.34289
 H83 H 0.91445 0.69795 0.40742
 Cu84 Cu 0.90081 0.62470 0.35078
 Cu85 Cu 0.87543 0.65192 0.40166
 Cu86 Cu 0.84890 0.59844 0.37513
 N87 N 0.88593 0.59472 0.33592
 N88 N 0.86547 0.58470 0.34548
 C89 C 0.85880 0.56459 0.33165
 C90 C 0.87598 0.56172 0.31225
 C91 C 0.89297 0.58127 0.31564
 H92 H 0.84254 0.55302 0.33551
 H93 H 0.90921 0.58550 0.30420
 N94 N 0.83500 0.61516 0.40515
 N95 N 0.84508 0.63548 0.41523
 C96 C 0.83149 0.64219 0.43549
 C97 C 0.81184 0.62528 0.43842
 C98 C 0.81473 0.60842 0.41875
 H99 H 0.83570 0.65818 0.44728
 H100 H 0.80303 0.59233 0.41462
 H101 H 0.88041 0.61501 0.39061
 H102 H 0.86051 0.63524 0.36993
 N103 N 0.59536 0.33505 -0.11490
 N104 N 0.58515 0.34574 -0.13470
 C105 C 0.56476 0.33240 -0.14164
 C106 C 0.56204 0.31216 -0.12532
 C107 C 0.58189 0.31457 -0.10858
 H108 H 0.55291 0.33705 -0.15746
 H109 H 0.58635 0.30238 -0.09293
 Cu110 Cu 0.60007 0.37567 -0.14962
 Cu111 Cu 0.62545 0.34834 -0.09874
 Cu112 Cu 0.65208 0.40178 -0.12534
 N113 N 0.61499 0.40563 -0.16450
 N114 N 0.63549 0.41559 -0.15498
 C115 C 0.64220 0.43568 -0.16884
 C116 C 0.62499 0.43860 -0.18823
 C117 C 0.60795 0.41910 -0.18478
 H118 H 0.65849 0.44722 -0.16501
 H119 H 0.59170 0.41491 -0.19620
 N120 N 0.66597 0.38498 -0.09531
 N121 N 0.65585 0.36468 -0.08521
 C122 C 0.66946 0.35790 -0.06496
 C123 C 0.68916 0.37474 -0.06207
 C124 C 0.68628 0.39164 -0.08174
 H125 H 0.66522 0.34189 -0.05317
 H126 H 0.69802 0.40770 -0.08589
 H127 H 0.62055 0.38528 -0.10981
 H128 H 0.64037 0.36502 -0.13050
 C129 C -0.05006 0.29980 0.12558
 C130 C -0.05004 0.31851 0.14406
 C131 C -0.06850 0.33727 0.14397
 C132 C -0.08740 0.33764 0.12533
 C133 C -0.08711 0.31864 0.10677
 C134 C -0.06860 0.29992 0.10695
 C135 C -0.03100 0.28052 0.12571
 C136 C -0.01499 0.26442 0.12579
 C137 C 0.00418 0.24525 0.12573
 C138 C 0.02295 0.24553 0.10735
 C139 C 0.04150 0.22686 0.10711
 C140 C 0.04157 0.20757 0.12531
 C141 C 0.02260 0.20755 0.14379
 C142 C 0.00407 0.22626 0.14398
 H143 H -0.03573 0.31861 0.15856
 H144 H -0.06788 0.35145 0.15858
 H145 H -0.10117 0.31813 0.09205
 H146 H -0.06877 0.28553 0.09251
 H147 H 0.02326 0.26017 0.09315
 H148 H 0.05569 0.22768 0.09260
 H149 H 0.02195 0.19316 0.15816
 H150 H -0.01036 0.22589 0.15835
 C151 C 0.54978 0.70040 0.62578
 C152 C 0.56833 0.70039 0.60713
 C153 C 0.58689 0.68172 0.60697
 C154 C 0.58716 0.66278 0.62551
 C155 C 0.56837 0.66295 0.64415
 C156 C 0.54983 0.68164 0.64426
 C157 C 0.53064 0.71958 0.62590
 C158 C 0.51457 0.73561 0.62596
 C159 C 0.49532 0.75468 0.62589
 C160 C 0.49536 0.77366 0.64410
 C161 C 0.47677 0.79231 0.64387
 C162 C 0.45782 0.79224 0.62535
 C163 C 0.45796 0.77295 0.60719
 C164 C 0.47656 0.75435 0.60749
 H165 H 0.56843 0.71481 0.59270
 H166 H 0.60102 0.68216 0.59232
 H167 H 0.56795 0.64866 0.65868
 H168 H 0.53553 0.68145 0.65876
 H169 H 0.50979 0.77408 0.65848
 H170 H 0.47737 0.80670 0.65821
 H171 H 0.44377 0.77210 0.59267
 H172 H 0.47632 0.73971 0.59331
 C173 C 1.05009 0.80032 0.37426
 C174 C 1.05011 0.81904 0.35575
 C175 C 1.06859 0.83776 0.35581
 C176 C 1.08748 0.83808 0.37446
 C177 C 1.08717 0.81909 0.39305
 C178 C 1.06863 0.80040 0.39290
 C179 C 1.03100 0.78109 0.37415
 C180 C 1.01497 0.76502 0.37409
 C181 C 0.99580 0.74587 0.37416
 C182 C 0.97702 0.74615 0.39254
 C183 C 0.95848 0.72749 0.39280
 C184 C 0.95842 0.70820 0.37464
 C185 C 0.97738 0.70820 0.35614
 C186 C 0.99591 0.72690 0.35594
 H187 H 1.03580 0.81917 0.34125
 H188 H 1.06799 0.85194 0.34117
 H189 H 1.10122 0.81855 0.40777
 H190 H 1.06878 0.78601 0.40736
 H191 H 0.97671 0.76078 0.40671
 H192 H 0.94429 0.72830 0.40731
 H193 H 0.97805 0.69381 0.34180
 H194 H 1.01034 0.72653 0.34157
 C195 C 0.45027 0.20064 -0.12558
 C196 C 0.45019 0.18191 -0.14405
 C197 C 0.43166 0.16323 -0.14388
 C198 C 0.41291 0.16304 -0.12520
 C199 C 0.41321 0.18196 -0.10667
 C200 C 0.43177 0.20062 -0.10688
 C201 C 0.46941 0.21981 -0.12579
 C202 C 0.48550 0.23580 -0.12595
 C203 C 0.50477 0.25483 -0.12600
 C204 C 0.52361 0.25444 -0.10767
 C205 C 0.54224 0.27300 -0.10749
 C206 C 0.54232 0.29230 -0.12568
 C207 C 0.52332 0.29239 -0.14414
 C208 C 0.50471 0.27379 -0.14427
 H209 H 0.46446 0.18173 -0.15858
 H210 H 0.43206 0.14897 -0.15840
 H211 H 0.39912 0.18238 -0.09199
 H212 H 0.43167 0.21500 -0.09245
 H213 H 0.52389 0.23980 -0.09348
 H214 H 0.55646 0.27211 -0.09301
 H215 H 0.52269 0.30678 -0.15852
 H216 H 0.49024 0.27421 -0.15861
 C217 C 0.12410 -0.05012 0.30015
 C218 C 0.10561 -0.06884 0.30014
 C219 C 0.10566 -0.08757 0.31864
 C220 C 0.12429 -0.08788 0.33755
 C221 C 0.14286 -0.06888 0.33724
 C222 C 0.14272 -0.05020 0.31870
 C223 C 0.12401 -0.03085 0.28109
 C224 C 0.12398 -0.01475 0.26508
 C225 C 0.12406 0.00438 0.24589
 C226 C 0.10528 0.02283 0.24541
 C227 C 0.10528 0.04130 0.22665
 C228 C 0.12413 0.04160 0.20804
 C229 C 0.14296 0.02294 0.20880
 C230 C 0.14290 0.00451 0.22757
 H231 H 0.09113 -0.06897 0.28581
 H232 H 0.09105 -0.10175 0.31804
 H233 H 0.15757 -0.06834 0.35131
 H234 H 0.15716 -0.03581 0.31885
 H235 H 0.09060 0.02292 0.25953
 H236 H 0.09049 0.05527 0.22684
 H237 H 0.15781 0.02243 0.19495
 H238 H 0.15756 -0.00967 0.22777
 C239 C 0.62480 0.55000 -0.30027
 C240 C 0.64345 0.55011 -0.31878
 C241 C 0.64361 0.56880 -0.33731
 C242 C 0.62502 0.58779 -0.33764
 C243 C 0.60636 0.58746 -0.31877
 C244 C 0.60629 0.56871 -0.30028
 C245 C 0.62471 0.53071 -0.28122
 C246 C 0.62471 0.51459 -0.26524
 C247 C 0.62481 0.49544 -0.24606
 C248 C 0.64369 0.49525 -0.22778
 C249 C 0.64378 0.47679 -0.20903
 C250 C 0.62493 0.45817 -0.20826
 C251 C 0.60606 0.45850 -0.22685
 C252 C 0.60602 0.47701 -0.24558
 H253 H 0.65791 0.53572 -0.31891
 H254 H 0.65834 0.56828 -0.35135
 H255 H 0.59172 0.60164 -0.31818
 H256 H 0.59179 0.56884 -0.28599
 H257 H 0.65836 0.50940 -0.22799
 H258 H 0.65866 0.47726 -0.19520
 H259 H 0.59125 0.44457 -0.22703
 H260 H 0.59132 0.47695 -0.25969
 C261 C 0.37519 1.04957 0.79978
 C262 C 0.35657 1.04964 0.81834
 C263 C 0.35647 1.06831 0.83686
 C264 C 0.37505 1.08721 0.83707
 C265 C 0.39366 1.08698 0.81825
 C266 C 0.39371 1.06828 0.79975
 C267 C 0.37526 1.03033 0.78073
 C268 C 0.37526 1.01424 0.76476
 C269 C 0.37516 0.99512 0.74560
 C270 C 0.35629 0.99500 0.72730
 C271 C 0.35622 0.97659 0.70854
 C272 C 0.37508 0.95795 0.70779
 C273 C 0.39393 0.95822 0.72640
 C274 C 0.39394 0.97668 0.74514
 H275 H 0.34212 1.03526 0.81848
 H276 H 0.34183 1.06791 0.85100
 H277 H 0.40822 1.10123 0.81778
 H278 H 0.40818 1.06840 0.78542
 H279 H 0.34163 1.00917 0.72750
 H280 H 0.34136 0.97710 0.69470
 H281 H 0.40874 0.94427 0.72661
 H282 H 0.40862 0.97658 0.75926
 C283 C 0.87612 0.45040 0.20030
 C284 C 0.89459 0.43163 0.20034
 C285 C 0.89448 0.41290 0.18186
 C286 C 0.87585 0.41270 0.16305
 C287 C 0.85731 0.43165 0.16325
 C288 C 0.85747 0.45035 0.18175
 C289 C 0.87623 0.46967 0.21934
 C290 C 0.87626 0.48578 0.23531
 C291 C 0.87618 0.50491 0.25448
 C292 C 0.89493 0.52338 0.25491
 C293 C 0.89489 0.54187 0.27363
 C294 C 0.87606 0.54215 0.29225
 C295 C 0.85725 0.52349 0.29153
 C296 C 0.85734 0.50504 0.27280
 H297 H 0.90909 0.43146 0.21465
 H298 H 0.90901 0.39861 0.18234
 H299 H 0.84266 0.43207 0.14912
 H300 H 0.84304 0.46476 0.18158
 H301 H 0.90960 0.52349 0.24078
 H302 H 0.90967 0.55584 0.27341
 H303 H 0.84240 0.52296 0.30539
 H304 H 0.84270 0.49086 0.27263
 C305 C 0.29972 0.12487 -0.04980
 C306 C 0.29982 0.10630 -0.06843
 C307 C 0.31839 0.10635 -0.08702
 C308 C 0.33719 0.12504 -0.08722
 C309 C 0.33690 0.14364 -0.06838
 C310 C 0.31830 0.14354 -0.04982
 C311 C 0.28056 0.12478 -0.03069
 C312 C 0.26449 0.12468 -0.01471
 C313 C 0.24531 0.12458 0.00437
 C314 C 0.24525 0.10593 0.02294
 C315 C 0.22671 0.10591 0.04157
 C316 C 0.20790 0.12461 0.04190
 C317 C 0.20813 0.14323 0.02302
 C318 C 0.22670 0.14319 0.00443
 H319 H 0.28552 0.09176 -0.06859
 H320 H 0.31801 0.09175 -0.10120
 H321 H 0.35104 0.15830 -0.06795
 H322 H 0.31841 0.15803 -0.03548
 H323 H 0.25955 0.09139 0.02305
 H324 H 0.22725 0.09121 0.05563
 H325 H 0.19406 0.15791 0.02248
 H326 H 0.22654 0.15772 -0.00990
 C327 C 0.70047 0.62498 0.55022
 C328 C 0.68183 0.64360 0.55026
 C329 C 0.66321 0.64359 0.56881
 C330 C 0.66296 0.62491 0.58762
 C331 C 0.68180 0.60626 0.58739
 C332 C 0.70040 0.60632 0.56881
 C333 C 0.71963 0.62501 0.53110
 C334 C 0.73568 0.62502 0.51508
 C335 C 0.75482 0.62503 0.49593
 C336 C 0.77338 0.64369 0.49580
 C337 C 0.79191 0.64378 0.47717
 C338 C 0.79217 0.62517 0.45831
 C339 C 0.77340 0.60645 0.45869
 C340 C 0.75489 0.60642 0.47735
 H341 H 0.68170 0.65813 0.53595
 H342 H 0.64902 0.65822 0.56839
 H343 H 0.68221 0.59160 0.60154
 H344 H 0.71474 0.59181 0.56895
 H345 H 0.77353 0.65820 0.51011
 H346 H 0.80595 0.65849 0.47766
 H347 H 0.77286 0.59178 0.44463
 H348 H 0.74062 0.59185 0.47727
 C349 C 0.80049 0.37480 0.04981
 C350 C 0.81908 0.35615 0.04994
 C351 C 0.83767 0.35612 0.06854
 C352 C 0.83791 0.37480 0.08733
 C353 C 0.81910 0.39347 0.08701
 C354 C 0.80054 0.39345 0.06837
 C355 C 0.78136 0.37479 0.03064
 C356 C 0.76534 0.37480 0.01459
 C357 C 0.74624 0.37481 -0.00460
 C358 C 0.74621 0.39342 -0.02322
 C359 C 0.72769 0.39343 -0.04188
 C360 C 0.70887 0.37476 -0.04222
 C361 C 0.70910 0.35614 -0.02333
 C362 C 0.72764 0.35619 -0.00469
 H363 H 0.81922 0.34162 0.03565
 H364 H 0.85182 0.34146 0.06818
 H365 H 0.81868 0.40813 0.10114
 H366 H 0.78622 0.40798 0.06845
 H367 H 0.76051 0.40795 -0.02333
 H368 H 0.72826 0.40810 -0.05597
 H369 H 0.69503 0.34147 -0.02281
 H370 H 0.72746 0.34168 0.00964
 C371 C 0.19965 0.87526 0.44982
 C372 C 0.18107 0.85660 0.44979
 C373 C 0.16247 0.85654 0.43121
 C374 C 0.16220 0.87518 0.41236
 C375 C 0.18099 0.89386 0.41258
 C376 C 0.19956 0.89388 0.43119
 C377 C 0.21879 0.87528 0.46896
 C378 C 0.23482 0.87528 0.48499
 C379 C 0.25395 0.87524 0.50413
 C380 C 0.27254 0.85660 0.50421
 C381 C 0.29108 0.85648 0.52285
 C382 C 0.29131 0.87505 0.54174
 C383 C 0.27251 0.89375 0.54141
 C384 C 0.25400 0.89382 0.52275
 H385 H 0.18096 0.84210 0.46413
 H386 H 0.14833 0.84188 0.43163
 H387 H 0.18139 0.90849 0.39839
 H388 H 0.21387 0.90841 0.43105
 H389 H 0.27270 0.84212 0.48988
 H390 H 0.30514 0.84178 0.52232
 H391 H 0.27195 0.90840 0.55549
 H392 H 0.23970 0.90837 0.52287
   
