data_POSCAR
  _audit_creation_date              2014-09-24
  _audit_creation_method            'ToBaCCo'
  _symmetry_space_group_name_H-M    'P1'
  _symmetry_Int_Tables_number       1
  _symmetry_cell_setting            triclinic
  loop_
  _symmetry_equiv_pos_as_xyz
 x,y,z
_cell_length_a 32.6848
_cell_length_b 32.5591
_cell_length_c 32.5579
_cell_angle_alpha 90.002700
_cell_angle_beta 90.031700
_cell_angle_gamma 89.988400
loop_
  _atom_site_label
  _atom_site_type_symbol
  _atom_site_fract_x
  _atom_site_fract_y
  _atom_site_fract_z
C1 C 0.20918 1.23976 0.17955
 C2 C 0.23954 1.20933 0.18054
 C3 C 0.23901 1.17971 0.21102
 C4 C 0.20827 1.18025 0.24105
 C5 C 0.17832 1.21028 0.24006
 C6 C 0.17888 1.24034 0.20921
 C7 C 0.20017 1.27025 0.15168
 N8 N 0.16523 1.28940 0.16381
 C9 C 0.15212 1.27140 0.19911
 C10 C 0.15061 1.20122 0.27055
 N11 N 0.16307 1.16648 0.29008
 C12 C 0.19847 1.15359 0.27235
 C13 C 0.26982 1.15222 0.20239
 N14 N 0.28908 1.16456 0.16757
 C15 C 0.27086 1.19951 0.15404
 H16 H 0.21721 1.27718 0.12402
 H17 H 0.12436 1.27926 0.21547
 H18 H 0.12277 1.21801 0.27717
 H19 H 0.21506 1.12597 0.28050
 H20 H 0.27689 1.12457 0.21946
 H21 H 0.27875 1.21568 0.12608
 C22 C 0.79495 0.75876 0.17770
 C23 C 0.76257 0.78696 0.17948
 C24 C 0.76159 0.81638 0.21015
 C25 C 0.79315 0.81816 0.23930
 C26 C 0.82534 0.79062 0.23725
 C27 C 0.82622 0.76069 0.20628
 C28 C 0.80491 0.72838 0.15004
 N29 N 0.84156 0.71197 0.16105
 C30 C 0.85482 0.73162 0.19543
 C31 C 0.85300 0.80153 0.26721
 N32 N 0.83838 0.83501 0.28740
 C33 C 0.80169 0.84529 0.27059
 C34 C 0.72877 0.84169 0.20221
 N35 N 0.71012 0.82852 0.16734
 C36 C 0.73048 0.79498 0.15331
 H37 H 0.78724 0.71964 0.12328
 H38 H 0.88353 0.72577 0.21101
 H39 H 0.88214 0.78681 0.27309
 H40 H 0.78316 0.87139 0.27951
 H41 H 0.72038 0.86893 0.21933
 H42 H 0.72355 0.77874 0.12513
 C43 C 0.79199 1.23776 -0.17570
 C44 C 0.76223 1.20675 -0.17480
 C45 C 0.76085 1.17767 -0.20577
 C46 C 0.78942 1.17904 -0.23787
 C47 C 0.81859 1.20982 -0.23891
 C48 C 0.81983 1.23944 -0.20765
 C49 C 0.80248 1.26805 -0.14815
 N50 N 0.83602 1.28805 -0.16260
 C51 C 0.84672 1.27085 -0.19910
 C52 C 0.84417 1.20163 -0.27147
 N53 N 0.83153 1.16635 -0.28987
 C54 C 0.79787 1.15249 -0.26964
 C55 C 0.73051 1.15010 -0.19579
 N56 N 0.71360 1.16173 -0.15952
 C57 C 0.73286 1.19627 -0.14639
 H58 H 0.78748 1.27422 -0.11914
 H59 H 0.87300 1.27950 -0.21741
 H60 H 0.87115 1.21902 -0.27987
 H61 H 0.78168 1.12428 -0.27644
 H62 H 0.72208 1.12299 -0.21308
 H63 H 0.72648 1.21217 -0.11790
 C64 C 0.20862 0.76106 -0.18298
 C65 C 0.23824 0.79222 -0.18202
 C66 C 0.23639 0.82418 -0.20998
 C67 C 0.20516 0.82522 -0.23952
 C68 C 0.17613 0.79434 -0.24066
 C69 C 0.17770 0.76221 -0.21201
 C70 C 0.20060 0.72852 -0.15722
 N71 N 0.16529 0.71023 -0.16961
 C72 C 0.15124 0.73052 -0.20329
 C73 C 0.14838 0.80440 -0.27086
 N74 N 0.15978 0.84077 -0.28790
 C75 C 0.19448 0.85373 -0.26884
 C76 C 0.26678 0.85159 -0.19976
 N77 N 0.28700 0.83699 -0.16636
 C78 C 0.26982 0.80067 -0.15533
 H79 H 0.21815 0.72006 -0.13028
 H80 H 0.12296 0.72382 -0.21930
 H81 H 0.12132 0.78704 -0.27904
 H82 H 0.21042 0.88216 -0.27528
 H83 H 0.27293 0.88063 -0.21474
 H84 H 0.27867 0.78250 -0.12892
 C85 C 0.56011 1.05586 -0.00859
 H86 H 0.55788 1.05868 0.02445
 C87 C 0.58860 1.07939 -0.03015
 H88 H 0.60810 1.10039 -0.01337
 C89 C 0.53806 1.02396 -0.07015
 H90 H 0.51895 1.00166 -0.08550
 C91 C 0.56648 1.04655 -0.09290
 H92 H 0.56840 1.04181 -0.12575
 N93 N 0.53529 1.02913 -0.02879
 C94 C 0.44048 1.01062 0.06353
 H95 H 0.44194 0.97755 0.06651
 C96 C 0.41281 1.03302 0.08725
 H97 H 0.39312 1.01685 0.10855
 C98 C 0.46358 1.07142 0.03097
 H99 H 0.48277 1.08614 0.00833
 C100 C 0.43595 1.09499 0.05370
 H101 H 0.43467 1.12784 0.04872
 Zn102 Zn 0.49969 0.99666 0.00353
 N103 N 0.46544 1.03003 0.03637
 C104 C 0.53574 0.96783 0.07789
 N105 N 0.53336 0.96277 0.03648
 C106 C 0.55743 0.93510 0.01665
 C107 C 0.58475 0.91056 0.03862
 C108 C 0.56304 0.94424 0.10104
 C109 C 0.44078 0.98528 -0.05732
 C110 C 0.41273 0.96410 -0.08171
 C111 C 0.43346 0.90099 -0.04866
 C112 C 0.46145 0.92337 -0.02516
 N113 N 0.46471 0.96474 -0.03002
 H114 H 0.51729 0.99087 0.09295
 H115 H 0.55558 0.93238 -0.01642
 H116 H 0.60377 0.88891 0.02210
 H117 H 0.56479 0.94900 0.13391
 H118 H 0.44338 1.01831 -0.05990
 H119 H 0.39392 0.98116 -0.10312
 H120 H 0.43112 0.86813 -0.04412
 H121 H 0.47982 0.90775 -0.00242
 C122 C 0.41005 1.07577 0.08227
 C123 C 0.59224 1.07471 -0.07287
 C124 C 0.40859 0.92138 -0.07737
 C125 C 0.58807 0.91519 0.08137
 C126 C -0.00890 0.55935 1.05682
 H127 H 0.02388 0.55648 1.06050
 C128 C -0.03056 0.58774 1.08043
 H129 H -0.01414 0.60655 1.10236
 C130 C -0.06967 0.53902 1.02271
 H131 H -0.08463 0.52063 0.99952
 C132 C -0.09247 0.56744 1.04530
 H133 H -0.12502 0.57008 1.03969
 N134 N -0.02868 0.53537 1.02899
 C135 C 0.06457 0.44131 1.01114
 H136 H 0.06861 0.44361 0.97825
 C137 C 0.08809 0.41354 1.03371
 H138 H 0.11032 0.39464 1.01787
 C139 C 0.02952 0.46227 1.07130
 H140 H 0.00599 0.48061 1.08565
 C141 C 0.05194 0.43441 1.09497
 H142 H 0.04586 0.43216 1.12758
 Zn143 Zn 0.00377 0.49974 0.99664
 N144 N 0.03631 0.46530 1.03019
 C145 C 0.07773 0.53714 0.96925
 N146 N 0.03671 0.53369 0.96306
 C147 C 0.01717 0.55695 0.93446
 C148 C 0.03908 0.58443 0.91005
 C149 C 0.10079 0.56470 0.94587
 C150 C -0.05752 0.44146 0.98464
 C151 C -0.08179 0.41342 0.96326
 C152 C -0.04677 0.43243 0.90076
 C153 C -0.02348 0.46051 0.92329
 N154 N -0.02939 0.46463 0.96444
 H155 H 0.09250 0.51939 0.99305
 H156 H -0.01564 0.55432 0.93088
 H157 H 0.02281 0.60279 0.88763
 H158 H 0.13333 0.56733 0.95152
 H159 H -0.06090 0.44468 1.01754
 H160 H -0.10391 0.39523 0.98004
 H161 H -0.04142 0.42937 0.86808
 H162 H -0.00006 0.47822 0.90800
 C163 C 0.08167 0.40958 1.07616
 C164 C -0.07290 0.59225 1.07465
 C165 C -0.07639 0.40842 0.92077
 C166 C 0.08143 0.58883 0.91583
 C167 C 1.05625 -0.00918 0.55918
 H168 H 1.05999 0.02371 0.55628
 C169 C 1.07972 -0.03096 0.58762
 H170 H 1.10159 -0.01452 0.60643
 C171 C 1.02215 -0.07011 0.53889
 H172 H 0.99904 -0.08508 0.52048
 C173 C 1.04457 -0.09302 0.56738
 H174 H 1.03890 -0.12568 0.57007
 N175 N 1.02851 -0.02899 0.53518
 C176 C 1.01088 0.06462 0.44111
 H177 H 0.97809 0.06858 0.44327
 C178 C 1.03338 0.08835 0.41350
 H179 H 1.01759 0.11064 0.39457
 C180 C 1.07085 0.02961 0.46231
 H181 H 1.08517 0.00601 0.48069
 C182 C 1.09447 0.05226 0.43462
 H183 H 1.12699 0.04627 0.43253
 Zn184 Zn 0.99638 0.00362 0.49948
 N185 N 1.02986 0.03628 0.46515
 C186 C 0.96924 0.07789 0.53686
 N187 N 0.96289 0.03675 0.53334
 C188 C 0.93427 0.01726 0.55652
 C189 C 0.91002 0.03935 0.58400
 C190 C 0.94603 0.10112 0.56442
 C191 C 0.98464 -0.05781 0.44109
 C192 C 0.96347 -0.08215 0.41293
 C193 C 0.90108 -0.04714 0.43184
 C194 C 0.92341 -0.02377 0.46003
 N195 N 0.96441 -0.02964 0.46425
 H196 H 0.99305 0.09261 0.51919
 H197 H 0.93057 -0.01565 0.55385
 H198 H 0.88760 0.02312 0.60231
 H199 H 0.95182 0.13375 0.56712
 H200 H 1.01741 -0.06117 0.44440
 H201 H 0.98028 -0.10430 0.39475
 H202 H 0.86853 -0.04182 0.42871
 H203 H 0.90809 -0.00032 0.47774
 C204 C 1.07572 0.08209 0.40976
 C205 C 1.07384 -0.07343 0.59218
 C206 C 0.92114 -0.07681 0.40782
 C207 C 0.91600 0.08182 0.58849
 N208 N 0.11096 0.33710 1.15842
 C209 C 0.14558 0.31984 1.14305
 N210 N 0.15958 0.33292 1.10600
 N211 N 0.13951 0.36166 1.08497
 C212 C 0.10479 0.37876 1.10023
 N213 N 0.09105 0.36605 1.13749
 N214 N -0.10004 0.66997 1.15277
 C215 C -0.13790 0.68204 1.14043
 N216 N -0.15456 0.66397 1.10671
 N217 N -0.13414 0.63516 1.08612
 C218 C -0.09614 0.62335 1.09826
 N219 N -0.07956 0.64133 1.13204
 N220 N -0.11003 0.33637 0.83975
 C221 C -0.14337 0.31852 0.85716
 N222 N -0.15508 0.33103 0.89519
 N223 N -0.13405 0.35981 0.91517
 C224 C -0.10057 0.37748 0.89789
 N225 N -0.08913 0.36531 0.85967
 N226 N 0.16239 0.66138 0.88405
 C227 C 0.14573 0.67907 0.85012
 N228 N 0.10839 0.66603 0.83722
 N229 N 0.08827 0.63700 0.85775
 C230 C 0.10473 0.61960 0.89188
 N231 N 0.14234 0.63218 0.90444
 N232 N 1.15798 0.11215 0.33798
 C233 C 1.14242 0.14669 0.32048
 N234 N 1.10526 0.16041 0.33320
 N235 N 1.08431 0.14013 0.36182
 C236 C 1.09974 0.10547 0.37913
 N237 N 1.13711 0.09204 0.36679
 N238 N 1.10523 -0.15506 0.66455
 C239 C 1.13924 -0.13866 0.68212
 N240 N 1.15199 -0.10100 0.66949
 N241 N 1.13136 -0.08044 0.64080
 C242 C 1.09730 -0.09677 0.62333
 N243 N 1.08475 -0.13458 0.63569
 N244 N 0.84045 -0.11097 0.33590
 C245 C 0.85805 -0.14417 0.31779
 N246 N 0.89614 -0.15559 0.33004
 N247 N 0.91596 -0.13443 0.35885
 C248 C 0.89848 -0.10110 0.37679
 N249 N 0.86022 -0.08993 0.36485
 N250 N 0.88492 0.16314 0.66127
 C251 C 0.85102 0.14664 0.67891
 N252 N 0.83789 0.10929 0.66575
 N253 N 0.85819 0.08901 0.63666
 C254 C 0.89230 0.10532 0.61931
 N255 N 0.90508 0.14294 0.63201
 N256 N 0.34058 1.15952 0.11414
 C257 C 0.32105 1.14263 0.14684
 N258 N 0.33145 1.10406 0.15877
 N259 N 0.35999 1.08303 0.13852
 C260 C 0.37944 1.09978 0.10567
 N261 N 0.36928 1.13854 0.09403
 N262 N 0.66216 1.10813 -0.15563
 C263 C 0.68202 1.14015 -0.13783
 N264 N 0.67192 1.15096 -0.09887
 N265 N 0.64326 1.13034 -0.07838
 C266 C 0.62340 1.09823 -0.09607
 N267 N 0.63336 1.08765 -0.13518
 N268 N 0.32933 0.89702 -0.15465
 C269 C 0.31902 0.85789 -0.14464
 N270 N 0.33877 0.83938 -0.11295
 N271 N 0.36759 0.85932 -0.09195
 C272 C 0.37769 0.89862 -0.10169
 N273 N 0.35802 0.91699 -0.13354
 N274 N 0.65797 0.88150 0.16410
 C275 C 0.67742 0.84917 0.14640
 N276 N 0.66665 0.83794 0.10773
 N277 N 0.63788 0.85854 0.08735
 C278 C 0.61859 0.89109 0.10485
 N279 N 0.62905 0.90198 0.14376
   
