data_POSCAR
  _audit_creation_date              2014-09-24
  _audit_creation_method            'ToBaCCo'
  _symmetry_space_group_name_H-M    'P1'
  _symmetry_Int_Tables_number       1
  _symmetry_cell_setting            triclinic
  loop_
  _symmetry_equiv_pos_as_xyz
 x,y,z
_cell_length_a 40.9182
_cell_length_b 40.9984
_cell_length_c 13.0675
_cell_angle_alpha 89.870800
_cell_angle_beta 90.137700
_cell_angle_gamma 119.892600
loop_
  _atom_site_label
  _atom_site_type_symbol
  _atom_site_fract_x
  _atom_site_fract_y
  _atom_site_fract_z
C1 C 0.17926 0.49848 0.39584
 C2 C 0.16142 0.49761 0.48854
 C3 C 0.17845 0.49974 0.58369
 C4 C 0.21191 0.49721 0.58684
 C5 C 0.22842 0.49431 0.49440
 C6 C 0.21222 0.49515 0.39877
 C7 C 0.22798 0.48999 0.30887
 C8 C 0.26043 0.48729 0.31168
 C9 C 0.27737 0.48715 0.40503
 C10 C 0.26102 0.49006 0.49755
 C11 C 0.22826 0.49540 0.68007
 C12 C 0.26111 0.49338 0.68282
 C13 C 0.27714 0.48872 0.59304
 C14 C 0.30978 0.48459 0.59525
 C15 C 0.32679 0.48466 0.50202
 C16 C 0.31044 0.48446 0.40805
 H17 H 0.21497 0.48703 0.23487
 H18 H 0.27194 0.48515 0.23925
 H19 H 0.21572 0.49492 0.75302
 H20 H 0.27384 0.49608 0.75699
 H21 H 0.13659 0.50066 0.48653
 H22 H 0.35126 0.48099 0.50153
 C23 C 0.49893 -0.32141 0.40069
 C24 C 0.49730 -0.33967 0.49254
 C25 C 0.49431 -0.32540 0.58724
 C26 C 0.49702 -0.28942 0.59071
 C27 C 0.50147 -0.26921 0.49849
 C28 C 0.50182 -0.28555 0.40309
 C29 C 0.50587 -0.26525 0.31278
 C30 C 0.50891 -0.22994 0.31564
 C31 C 0.50944 -0.21278 0.40919
 C32 C 0.50573 -0.23248 0.50165
 C33 C 0.49722 -0.27222 0.68383
 C34 C 0.49958 -0.23729 0.68639
 C35 C 0.50616 -0.21567 0.59714
 C36 C 0.51123 -0.17863 0.60000
 C37 C 0.51238 -0.16087 0.50670
 C38 C 0.51283 -0.17674 0.41235
 H39 H 0.50716 -0.27625 0.23870
 H40 H 0.51075 -0.21631 0.24323
 H41 H 0.49613 -0.28506 0.75684
 H42 H 0.49555 -0.22797 0.75998
 H43 H 0.49416 -0.36751 0.48903
 H44 H 0.51663 -0.13258 0.50675
 C45 C 1.17633 0.69494 0.59204
 C46 C 1.16112 0.67717 0.49801
 C47 C 1.17992 0.69165 0.40527
 C48 C 1.21683 0.72298 0.40642
 C49 C 1.23287 0.74190 0.49958
 C50 C 1.21281 0.72778 0.59292
 C51 C 1.23102 0.74562 0.68445
 C52 C 1.26630 0.77783 0.68403
 C53 C 1.28680 0.79224 0.59284
 C54 C 1.26945 0.77466 0.49931
 C55 C 1.23904 0.73460 0.31765
 C56 C 1.27433 0.76678 0.31742
 C57 C 1.28875 0.78929 0.40541
 C58 C 1.32311 0.82444 0.40374
 C59 C 1.34001 0.84092 0.49794
 C60 C 1.32356 0.82439 0.59232
 H61 H 1.21892 0.73470 0.75852
 H62 H 1.27691 0.79147 0.75687
 H63 H 1.22975 0.71836 0.24778
 H64 H 1.29062 0.77301 0.24789
 H65 H 1.13269 0.65337 0.49582
 H66 H 1.36692 0.86670 0.49819
 C67 C 0.68256 0.50823 0.40031
 C68 C 0.66445 0.50638 0.49268
 C69 C 0.67834 0.50200 0.58738
 C70 C 0.70929 0.49521 0.58683
 C71 C 0.72923 0.49929 0.49469
 C72 C 0.71557 0.50537 0.40097
 C73 C 0.73448 0.50695 0.30993
 C74 C 0.76710 0.50437 0.31146
 C75 C 0.78250 0.50068 0.40425
 C76 C 0.76281 0.49693 0.49634
 C77 C 0.71914 0.48139 0.67320
 C78 C 0.75195 0.47910 0.67477
 C79 C 0.77637 0.49058 0.59014
 C80 C 0.81241 0.49307 0.59416
 C81 C 0.83064 0.49545 0.50082
 C82 C 0.81645 0.49952 0.40696
 H83 H 0.72401 0.50976 0.23624
 H84 H 0.77982 0.50489 0.23862
 H85 H 0.70105 0.47119 0.73961
 H86 H 0.75744 0.46727 0.74226
 H87 H 0.64082 0.51133 0.49008
 H88 H 0.85803 0.49748 0.50046
 C89 C 0.49031 0.31004 0.59581
 C90 C 0.49322 0.32867 0.50353
 C91 C 0.49293 0.31249 0.40911
 C92 C 0.48845 0.27600 0.40600
 C93 C 0.48579 0.25685 0.49870
 C94 C 0.48568 0.27346 0.59372
 C95 C 0.47962 0.25247 0.68370
 C96 C 0.47720 0.21743 0.68123
 C97 C 0.48210 0.20251 0.58927
 C98 C 0.48375 0.22120 0.49645
 C99 C 0.48551 0.25770 0.31276
 C100 C 0.48311 0.22266 0.31060
 C101 C 0.48403 0.20472 0.40148
 C102 C 0.48439 0.17039 0.39984
 C103 C 0.48250 0.15212 0.49214
 C104 C 0.48354 0.16856 0.58715
 H105 H 0.47615 0.26270 0.75682
 H106 H 0.47102 0.20197 0.75239
 H107 H 0.48458 0.27006 0.24038
 H108 H 0.48016 0.20963 0.23672
 H109 H 0.49799 0.35717 0.50538
 H110 H 0.48483 0.12694 0.48945
 C111 C 0.69139 0.18291 0.40352
 C112 C 0.67463 0.16595 0.49647
 C113 C 0.68965 0.18355 0.59013
 C114 C 0.72177 0.22005 0.59056
 C115 C 0.74103 0.23617 0.49773
 C116 C 0.72596 0.21737 0.40380
 C117 C 0.74595 0.23340 0.31298
 C118 C 0.77934 0.26780 0.31390
 C119 C 0.79464 0.28717 0.40603
 C120 C 0.77523 0.27134 0.49886
 C121 C 0.73410 0.24169 0.68011
 C122 C 0.76682 0.27666 0.68049
 C123 C 0.78970 0.29062 0.59281
 C124 C 0.82528 0.32446 0.59469
 C125 C 0.84273 0.34057 0.50082
 C126 C 0.82840 0.32227 0.40755
 H127 H 0.73627 0.21933 0.24011
 H128 H 0.79285 0.27912 0.24116
 H129 H 0.71792 0.23235 0.75010
 H130 H 0.77337 0.29296 0.75003
 H131 H 0.64906 0.13879 0.49573
 H132 H 0.86985 0.36616 0.49969
 O133 O 0.94197 0.53188 -0.18459
 O134 O 0.90459 0.48180 -0.08032
 C135 C 0.90939 0.50534 -0.15288
 O136 O 1.05822 0.48255 -0.19224
 O137 O 1.09786 0.53493 -0.09851
 C138 C 1.09154 0.50967 -0.16695
 O139 O 0.95184 0.42563 -0.18910
 O140 O 0.90956 0.42968 -0.08170
 C141 C 0.91795 0.41427 -0.15577
 O142 O 1.04703 0.59558 -0.18279
 O143 O 1.09254 0.58919 -0.09662
 C144 C 1.08182 0.60643 -0.15996
 Zr145 Zr 0.99703 0.54788 -0.13097
 O146 O 0.99959 0.54958 -0.29290
 O147 O 0.98789 0.59435 -0.12957
 Zr148 Zr 1.00436 0.46951 -0.13459
 O149 O 1.00610 0.47026 -0.29648
 O150 O 1.00487 0.41812 -0.13242
 O151 O 0.96679 0.48971 -0.14895
 O152 O 1.03316 0.52715 -0.15447
 O153 O 1.05301 0.59521 0.17509
 O154 O 1.09564 0.58869 0.07562
 C155 C 1.08703 0.60562 0.14500
 O156 O 0.95734 0.42440 0.18219
 O157 O 0.91189 0.43040 0.09455
 C158 C 0.92254 0.41373 0.15996
 O159 O 1.06209 0.48224 0.16989
 O160 O 1.09988 0.53437 0.07265
 C161 C 1.09478 0.50913 0.14069
 O162 O 0.94801 0.53618 0.18690
 O163 O 0.90740 0.48341 0.09553
 C164 C 0.91459 0.50944 0.16262
 Zr165 Zr 1.00099 0.54882 0.12773
 O166 O 1.00620 0.55011 0.28916
 O167 O 0.99384 0.59653 0.13027
 Zr168 Zr 1.00764 0.47000 0.12387
 O169 O 1.01288 0.47299 0.28534
 O170 O 1.00891 0.41902 0.12199
 Zr171 Zr 0.94648 0.47766 0.00284
 Zr172 Zr 1.05858 0.54059 -0.00876
 O173 O 1.03717 0.52769 0.14122
 O174 O 0.97090 0.49060 0.14974
 O175 O 1.03200 0.57335 -0.00459
 O176 O 0.97390 0.44577 -0.00263
 O177 O 0.96599 0.53586 0.00167
 O178 O 1.04018 0.48254 -0.00875
 H179 H 1.04920 0.53672 -0.21629
 H180 H 0.95876 0.41793 -0.00247
 H181 H 1.05471 0.53710 0.20024
 H182 H 0.94763 0.54492 0.00263
 H183 H 1.02900 0.42311 -0.10132
 H184 H 1.02935 0.42253 0.07508
 H185 H 0.98999 0.47203 0.31343
 H186 H 0.98543 0.52614 0.31603
 H187 H 1.01435 0.61647 0.08911
 H188 H 1.00727 0.61368 -0.08448
 H189 H 0.97895 0.52533 -0.31864
 H190 H 0.98487 0.47326 -0.32106
 O191 O 0.41307 0.45813 0.18919
 O192 O 0.41596 0.50576 0.08961
 C193 C 0.40098 0.48059 0.16085
 O194 O 0.58515 0.53899 0.16572
 O195 O 0.57809 0.48669 0.08165
 C196 C 0.59593 0.51500 0.14309
 O197 O 0.52016 0.57868 0.17652
 O198 O 0.46715 0.56327 0.08165
 C199 C 0.49222 0.58341 0.14964
 O200 O 0.47349 0.41311 0.18408
 O201 O 0.52545 0.42736 0.08615
 C202 C 0.50093 0.40787 0.15584
 Zr203 Zr 0.45887 0.45324 0.13266
 O204 O 0.46429 0.45536 0.29408
 O205 O 0.40868 0.40052 0.14210
 Zr206 Zr 0.53605 0.54009 0.12009
 O207 O 0.54210 0.54290 0.28123
 O208 O 0.58280 0.59472 0.10100
 O209 O 0.47799 0.51067 0.14662
 O210 O 0.51687 0.48360 0.14552
 O211 O 0.46885 0.40824 -0.17386
 O212 O 0.52310 0.42485 -0.08331
 C213 C 0.49694 0.40366 -0.14782
 O214 O 0.51448 0.57288 -0.19797
 O215 O 0.46418 0.56012 -0.09458
 C216 C 0.48708 0.57813 -0.16865
 O217 O 0.57947 0.53210 -0.19007
 O218 O 0.57639 0.48459 -0.08920
 C219 C 0.59175 0.50987 -0.16005
 O220 O 0.40922 0.45439 -0.18247
 O221 O 0.41353 0.50331 -0.08670
 C222 C 0.39759 0.47734 -0.15538
 Zr223 Zr 0.45525 0.44940 -0.12604
 O224 O 0.45503 0.44495 -0.28744
 O225 O 0.40470 0.39694 -0.11668
 Zr226 Zr 0.53237 0.53602 -0.13787
 O227 O 0.53281 0.53247 -0.29942
 O228 O 0.57872 0.59154 -0.14277
 Zr229 Zr 0.46268 0.51753 -0.00257
 Zr230 Zr 0.52836 0.47160 -0.00210
 O231 O 0.51274 0.47902 -0.15025
 O232 O 0.47381 0.50617 -0.15191
 O233 O 0.47069 0.43076 0.00431
 O234 O 0.52043 0.55771 -0.00978
 O235 O 0.43231 0.45837 0.00393
 O236 O 0.55979 0.53077 -0.00948
 H237 H 0.52768 0.47762 0.20581
 H238 H 0.52828 0.58479 -0.01268
 H239 H 0.52190 0.47120 -0.21033
 H240 H 0.40440 0.44504 0.00588
 H241 H 0.59154 0.60464 0.17087
 H242 H 0.59796 0.59260 -0.09474
 H243 H 0.50748 0.52616 -0.32431
 H244 H 0.45587 0.46767 -0.31629
 H245 H 0.41027 0.37961 -0.07747
 H246 H 0.41188 0.38283 0.09767
 H247 H 0.46179 0.47686 0.31834
 H248 H 0.51673 0.53372 0.31051
 O249 O 0.47586 0.05363 0.17777
 O250 O 0.52526 0.09484 0.07699
 C251 C 0.50048 0.08737 0.14801
 O252 O 0.54590 -0.04710 0.18153
 O253 O 0.49331 -0.09078 0.09502
 C254 C 0.52082 -0.08139 0.15903
 O255 O 0.59133 0.05841 0.18454
 O256 O 0.57994 0.09687 0.08096
 C257 C 0.59810 0.09135 0.15348
 O258 O 0.42264 -0.05215 0.17548
 O259 O 0.43475 -0.09351 0.08747
 C260 C 0.41522 -0.08583 0.15115
 Zr261 Zr 0.46616 0.00069 0.12349
 O262 O 0.46157 -0.00137 0.28491
 O263 O 0.41466 0.00042 0.10649
 Zr264 Zr 0.55051 0.00402 0.13084
 O265 O 0.54642 0.00090 0.29249
 O266 O 0.60506 0.01048 0.13960
 O267 O 0.52400 0.03594 0.14476
 O268 O 0.49292 -0.03014 0.14875
 O269 O 0.42448 -0.05568 -0.18371
 O270 O 0.43639 -0.09475 -0.08358
 C271 C 0.41757 -0.08879 -0.15387
 O272 O 0.59275 0.05418 -0.18663
 O273 O 0.58135 0.09515 -0.09482
 C274 C 0.60003 0.08775 -0.16161
 O275 O 0.54430 -0.05122 -0.17419
 O276 O 0.49351 -0.09284 -0.07774
 C277 C 0.51970 -0.08493 -0.14497
 O278 O 0.47630 0.05031 -0.19731
 O279 O 0.52578 0.09288 -0.09933
 C280 C 0.50087 0.08445 -0.17040
 Zr281 Zr 0.46709 -0.00163 -0.13454
 O282 O 0.46550 -0.00662 -0.29594
 O283 O 0.41586 -0.00063 -0.13557
 Zr284 Zr 0.55125 0.00135 -0.12781
 O285 O 0.55018 -0.00362 -0.28919
 O286 O 0.60547 0.00678 -0.12121
 Zr287 Zr 0.53510 0.05686 -0.00625
 Zr288 Zr 0.48239 -0.05489 0.00276
 O289 O 0.49388 -0.03283 -0.14696
 O290 O 0.52508 0.03320 -0.15391
 O291 O 0.44437 -0.03438 -0.00343
 O292 O 0.57232 0.03544 -0.00048
 O293 O 0.47606 0.03209 -0.00825
 O294 O 0.54155 -0.03064 0.00459
 H295 H 0.48470 -0.04666 0.20994
 H296 H 0.59988 0.05303 0.00029
 H297 H 0.48625 -0.05006 -0.20645
 H298 H 0.46465 0.04847 -0.01079
 H299 H 0.60603 -0.00691 0.08904
 H300 H 0.60312 -0.01533 -0.08397
 H301 H 0.54663 0.01673 -0.31801
 H302 H 0.48951 0.01412 -0.32273
 H303 H 0.39847 -0.02037 -0.08765
 H304 H 0.40600 0.00120 0.17672
 H305 H 0.48687 0.01628 0.31237
 H306 H 0.54614 0.02360 0.31675
 N307 N 1.16359 0.53208 0.15705
 N308 N 1.18707 0.52834 0.22797
 C309 C 1.16527 0.50561 0.30430
 C310 C 1.12786 0.49484 0.28367
 C311 C 1.12802 0.51158 0.19120
 H312 H 1.10347 0.47738 0.33052
 H313 H 1.17266 0.54871 0.09116
 H314 H 1.21647 0.54415 0.22618
 N315 N 0.46396 0.62457 0.17045
 N316 N 0.46660 0.65060 0.23481
 C317 C 0.49346 0.65717 0.30479
 C318 C 0.50843 0.63407 0.28404
 C319 C 0.48886 0.61382 0.19862
 H320 H 0.52894 0.63077 0.32861
 H321 H 0.44449 0.61355 0.11055
 H322 H 0.44869 0.66192 0.23411
 N323 N 0.34780 -0.13431 0.15219
 N324 N 0.32176 -0.15854 0.22379
 C325 C 0.34045 -0.15621 0.31151
 C326 C 0.37849 -0.12948 0.29771
 C327 C 0.38176 -0.11716 0.19746
 H328 H 0.40118 -0.11981 0.35292
 H329 H 0.34117 -0.12882 0.07927
 H330 H 0.29262 -0.17196 0.21294
 N331 N 0.87752 0.54074 0.19182
 N332 N 0.85175 0.53840 0.25645
 C333 C 0.84053 0.50763 0.31538
 C334 C 0.86029 0.48963 0.28720
 C335 C 0.88317 0.51152 0.20808
 H336 H 0.86007 0.46583 0.32390
 H337 H 0.89229 0.56300 0.14084
 H338 H 0.84379 0.55885 0.26392
 N339 N 0.53033 0.36798 0.18167
 N340 N 0.52790 0.34245 0.24779
 C341 C 0.50077 0.33598 0.31645
 C342 C 0.48549 0.35858 0.29362
 C343 C 0.50495 0.37832 0.20753
 H344 H 0.46427 0.36130 0.33597
 H345 H 0.54971 0.37870 0.12164
 H346 H 0.54559 0.33088 0.24796
 N347 N 0.63860 0.16039 0.17042
 N348 N 0.66372 0.18461 0.23505
 C349 C 0.67019 0.16540 0.30850
 C350 C 0.64789 0.12709 0.28998
 C351 C 0.62828 0.12525 0.20190
 H352 H 0.64466 0.10394 0.33716
 H353 H 0.62765 0.16796 0.10830
 H354 H 0.67437 0.21364 0.23192
 N355 N 0.51970 0.15162 -0.18216
 N356 N 0.51403 0.17501 -0.24804
 C357 C 0.49129 0.15362 -0.32466
 C358 C 0.48239 0.11633 -0.30929
 C359 C 0.50056 0.11644 -0.21959
 H360 H 0.46544 0.09230 -0.35768
 H361 H 0.53671 0.16064 -0.11688
 H362 H 0.52919 0.20434 -0.24382
 N363 N 0.65722 0.52174 -0.16066
 N364 N 0.68130 0.51899 -0.23096
 C365 C 0.66277 0.50722 -0.32124
 C366 C 0.62729 0.50397 -0.31063
 C367 C 0.62508 0.51299 -0.20992
 H368 H 0.60500 0.49456 -0.36699
 H369 H 0.66357 0.52939 -0.08390
 H370 H 0.70971 0.52842 -0.21626
 N371 N 0.86802 0.34753 -0.15570
 N372 N 0.84215 0.32220 -0.22578
 C373 C 0.84524 0.34110 -0.31362
 C374 C 0.87404 0.37832 -0.30170
 C375 C 0.88705 0.38096 -0.20279
 H376 H 0.88425 0.40101 -0.35689
 H377 H 0.87271 0.34077 -0.08203
 H378 H 0.82721 0.29314 -0.21408
 N379 N 0.53764 -0.13436 -0.15260
 N380 N 0.53570 -0.16029 -0.22475
 C381 C 0.51724 -0.15796 -0.30806
 C382 C 0.50850 -0.12956 -0.29159
 C383 C 0.52112 -0.11620 -0.19386
 H384 H 0.49444 -0.11987 -0.34337
 H385 H 0.55115 -0.12916 -0.08168
 H386 H 0.55032 -0.17503 -0.21805
 N387 N 0.32929 0.45568 -0.16312
 N388 N 0.30464 0.45817 -0.23246
 C389 C 0.32499 0.47828 -0.31422
 C390 C 0.36251 0.48783 -0.29942
 C391 C 0.36384 0.47348 -0.20482
 H392 H 0.38617 0.50374 -0.35004
 H393 H 0.32163 0.44166 -0.09288
 H394 H 0.27533 0.44287 -0.22567
 N395 N 1.12349 0.67547 -0.17466
 N396 N 1.15028 0.70038 -0.24387
 C397 C 1.15374 0.67987 -0.31955
 C398 C 1.12869 0.64186 -0.30113
 C399 C 1.11100 0.64046 -0.20982
 H400 H 1.12407 0.61812 -0.34775
 H401 H 1.11436 0.68318 -0.10924
 H402 H 1.16177 0.72953 -0.24165
 N403 N 0.85316 0.51299 -0.15291
 N404 N 0.82626 0.50999 -0.22376
 C405 C 0.83212 0.49674 -0.31264
 C406 C 0.86368 0.49230 -0.29988
 C407 C 0.87560 0.50257 -0.19991
 H408 H 0.87688 0.48309 -0.35554
 H409 H 0.85642 0.52389 -0.07905
 H410 H 0.80890 0.52152 -0.21173
 N411 N 0.52389 0.36127 -0.16878
 N412 N 0.52157 0.33602 -0.23554
 C413 C 0.49598 0.33126 -0.30783
 C414 C 0.48143 0.35457 -0.28603
 C415 C 0.49986 0.37310 -0.19738
 H416 H 0.46187 0.35905 -0.33159
 H417 H 0.54251 0.37101 -0.10679
 H418 H 0.53871 0.32383 -0.23430
 N419 N 0.66790 0.13505 -0.16843
 N420 N 0.69164 0.16058 -0.23332
 C421 C 0.67208 0.16204 -0.31480
 C422 C 0.63418 0.13581 -0.30131
 C423 C 0.63293 0.11957 -0.20775
 H424 H 0.61102 0.12844 -0.35377
 H425 H 0.67579 0.12741 -0.10038
 H426 H 0.72089 0.17513 -0.22404
 N427 N 1.16030 0.53547 -0.18650
 N428 N 1.18455 0.53236 -0.25522
 C429 C 1.16339 0.50766 -0.32868
 C430 C 1.12542 0.49527 -0.30929
 C431 C 1.12480 0.51287 -0.21921
 H432 H 1.10134 0.47603 -0.35483
 H433 H 1.16887 0.55302 -0.12245
 H434 H 1.21382 0.54962 -0.25417
 N435 N 0.45819 0.61854 -0.18673
 N436 N 0.46094 0.64633 -0.25348
 C437 C 0.48632 0.65120 -0.32633
 C438 C 0.49953 0.62624 -0.30868
 C439 C 0.48170 0.60686 -0.22044
 H440 H 0.51976 0.62280 -0.35380
 H441 H 0.44065 0.60881 -0.12268
 H442 H 0.44311 0.65773 -0.25181
 N443 N 0.37213 -0.15719 -0.16758
 N444 N 0.34557 -0.18138 -0.23818
 C445 C 0.34484 -0.16045 -0.31722
 C446 C 0.37117 -0.12277 -0.29898
 C447 C 0.38712 -0.12200 -0.20458
 H448 H 0.37810 -0.09890 -0.34813
 H449 H 0.37933 -0.16559 -0.09972
 H450 H 0.33211 -0.21068 -0.23374
 N451 N 0.55287 -0.11812 0.19126
 N452 N 0.55066 -0.14345 0.25777
 C453 C 0.52087 -0.15309 0.31959
 C454 C 0.50338 -0.13285 0.29130
 C455 C 0.52441 -0.11137 0.20907
 H456 H 0.48016 -0.13222 0.32886
 H457 H 0.57426 -0.10480 0.13706
 H458 H 0.57034 -0.15252 0.26371
 N459 N 0.33207 0.44732 0.18704
 N460 N 0.30794 0.44858 0.25151
 C461 C 0.32701 0.47784 0.31556
 C462 C 0.36503 0.49584 0.29135
 C463 C 0.36680 0.47568 0.20922
 H464 H 0.38821 0.51889 0.33131
 H465 H 0.32500 0.42662 0.13133
 H466 H 0.27928 0.42856 0.25468
 N467 N 1.13501 0.67325 0.15793
 N468 N 1.15950 0.69597 0.22660
 C469 C 1.15879 0.67545 0.30852
 C470 C 1.13196 0.63810 0.29172
 C471 C 1.11791 0.63806 0.19547
 H472 H 1.12322 0.61442 0.34301
 H473 H 1.12930 0.68198 0.08832
 H474 H 1.17513 0.72519 0.21882
 N475 N 0.52525 0.15571 0.17431
 N476 N 0.52067 0.17761 0.23962
 C477 C 0.49287 0.15590 0.30553
 C478 C 0.47951 0.11838 0.28149
 C479 C 0.50085 0.11958 0.19800
 H480 H 0.45881 0.09376 0.32255
 H481 H 0.54589 0.16549 0.11739
 H482 H 0.53796 0.20681 0.24238
 N483 N 0.66443 0.55025 0.18247
 N484 N 0.68745 0.54822 0.25005
 C485 C 0.66794 0.51665 0.30604
 C486 C 0.63088 0.49765 0.27227
 C487 C 0.63001 0.51979 0.19345
 H488 H 0.60737 0.47281 0.30525
 H489 H 0.67188 0.57281 0.13257
 H490 H 0.71546 0.56917 0.26123
 N491 N 0.89096 0.34538 0.19424
 N492 N 0.86570 0.32102 0.25854
 C493 C 0.85197 0.33887 0.31528
 C494 C 0.86939 0.37641 0.28572
 C495 C 0.89368 0.37913 0.20845
 H496 H 0.86677 0.39895 0.32039
 H497 H 0.90705 0.33925 0.14423
 H498 H 0.85968 0.29323 0.26726
   
