data_POSCAR
  _audit_creation_date              2014-09-24
  _audit_creation_method            'ToBaCCo'
  _symmetry_space_group_name_H-M    'P1'
  _symmetry_Int_Tables_number       1
  _symmetry_cell_setting            triclinic
  loop_
  _symmetry_equiv_pos_as_xyz
 x,y,z
_cell_length_a 46.4083
_cell_length_b 46.4083
_cell_length_c 46.4083
_cell_angle_alpha 88.860200
_cell_angle_beta 88.860800
_cell_angle_gamma 88.860500
loop_
  _atom_site_label
  _atom_site_type_symbol
  _atom_site_fract_x
  _atom_site_fract_y
  _atom_site_fract_z
Si1 Si 0.75599 0.61801 0.99938
 Si2 Si 0.74962 0.37864 0.50349
 Si3 Si 0.24962 -0.12137 0.00350
 Si4 Si 0.25600 0.11800 0.49938
 Si5 Si 0.11800 0.49937 0.25600
 Si6 Si -0.12137 0.00349 0.24962
 Si7 Si 0.37863 0.50349 0.74962
 Si8 Si 0.61800 0.99938 0.75599
 Si9 Si 0.00349 0.24963 -0.12137
 Si10 Si 0.49938 0.25600 0.11800
 Si11 Si 0.99938 0.75600 0.61801
 Si12 Si 0.50349 0.74962 0.37864
 C13 C 0.42283 -0.02750 0.27956
 H14 H 0.42409 -0.00673 0.28959
 C15 C 0.43799 -0.05129 0.29102
 H16 H 0.45114 -0.04882 0.30980
 C17 C 0.40283 -0.05664 0.24392
 H18 H 0.38842 -0.05896 0.22619
 C19 C 0.41763 -0.08090 0.25465
 H20 H 0.41476 -0.10165 0.24491
 N21 N 0.40553 -0.03061 0.25652
 C22 C 0.38763 0.05436 0.21828
 H23 H 0.36446 0.05269 0.21721
 C24 C 0.40108 0.07904 0.20762
 H25 H 0.38825 0.09644 0.19821
 C26 C 0.43262 0.03366 0.23192
 H27 H 0.44476 0.01585 0.24131
 C28 C 0.44700 0.05810 0.22145
 H29 H 0.47023 0.05913 0.22282
 Zn30 Zn 0.38174 0.00094 0.24462
 N31 N 0.40340 0.03246 0.23045
 C32 C 0.36190 0.03989 0.28684
 N33 N 0.35941 0.01258 0.27714
 C34 C 0.34290 -0.00707 0.29166
 C35 C 0.32794 0.00060 0.31694
 C36 C 0.34733 0.04842 0.31189
 C37 C 0.37232 -0.01596 0.18880
 C38 C 0.35713 -0.02492 0.16508
 C39 C 0.31305 -0.02141 0.19354
 C40 C 0.32911 -0.01243 0.21682
 N41 N 0.35827 -0.01035 0.21414
 H42 H 0.37571 0.05499 0.27561
 H43 H 0.34177 -0.02882 0.28384
 H44 H 0.31508 -0.01518 0.32857
 H45 H 0.34973 0.07013 0.31955
 H46 H 0.39547 -0.01380 0.18722
 H47 H 0.36860 -0.02981 0.14516
 H48 H 0.28991 -0.02352 0.19588
 H49 H 0.31832 -0.00739 0.23699
 C50 C 0.43098 0.08103 0.20934
 C51 C 0.43509 -0.07829 0.27860
 C52 C 0.32728 -0.02788 0.16752
 C53 C 0.33033 0.02861 0.32716
 C54 C 0.08240 1.02627 0.78508
 H55 H 0.08029 1.00546 0.79574
 C56 C 0.06774 1.05039 0.79613
 H57 H 0.05416 1.04814 0.81527
 C58 C 0.10391 1.05511 0.74810
 H59 H 0.11870 1.05714 0.72997
 C60 C 0.08965 1.07969 0.75841
 H61 H 0.09330 1.10042 0.74795
 N62 N 0.10019 1.02906 0.76156
 C63 C 0.11554 0.94360 0.72618
 H64 H 0.13884 0.94401 0.72520
 C65 C 0.10120 0.92003 0.71569
 H66 H 0.11346 0.90218 0.70659
 C67 C 0.07110 0.96666 0.73879
 H68 H 0.05954 0.98506 0.74750
 C69 C 0.05583 0.94340 0.72845
 H70 H 0.03249 0.94384 0.72929
 Zn71 Zn 0.12307 0.99689 0.74999
 N72 N 0.10045 0.96619 0.73762
 C73 C 0.14200 0.95747 0.79312
 N74 N 0.14509 0.98465 0.78207
 C75 C 0.16224 1.00392 0.79486
 C76 C 0.17736 0.99598 0.81967
 C77 C 0.15671 0.94867 0.81778
 C78 C 0.13298 1.01381 0.69328
 C79 C 0.14841 1.02239 0.66863
 C80 C 0.19246 1.01710 0.69534
 C81 C 0.17615 1.00855 0.71960
 N82 N 0.14690 1.00754 0.71821
 H83 H 0.12769 0.94269 0.78324
 H84 H 0.16385 1.02558 0.78599
 H85 H 0.19080 1.01146 0.82988
 H86 H 0.15390 0.92707 0.82653
 H87 H 0.10975 1.01250 0.69274
 H88 H 0.13706 1.02783 0.64902
 H89 H 0.21568 1.01838 0.69663
 H90 H 0.18682 1.00296 0.73947
 C91 C 0.07110 0.91989 0.71681
 C92 C 0.07167 1.07739 0.78281
 C93 C 0.17838 1.02426 0.66971
 C94 C 0.17445 0.96809 0.83123
 C95 C 0.58238 0.52627 0.28507
 H96 H 0.58028 0.50545 0.29574
 C97 C 0.56773 0.55038 0.29613
 H98 H 0.55415 0.54813 0.31526
 C99 C 0.60390 0.55510 0.24810
 H100 H 0.61869 0.55714 0.22996
 C101 C 0.58964 0.57969 0.25840
 H102 H 0.59329 0.60041 0.24795
 N103 N 0.60017 0.52906 0.26155
 C104 C 0.61553 0.44360 0.22617
 H105 H 0.63884 0.44400 0.22519
 C106 C 0.60119 0.42002 0.21568
 H107 H 0.61346 0.40217 0.20658
 C108 C 0.57109 0.46665 0.23878
 H109 H 0.55953 0.48506 0.24749
 C110 C 0.55582 0.44339 0.22844
 H111 H 0.53248 0.44384 0.22929
 Zn112 Zn 0.62305 0.49688 0.24999
 N113 N 0.60044 0.46619 0.23761
 C114 C 0.64199 0.45746 0.29311
 N115 N 0.64508 0.48464 0.28206
 C116 C 0.66223 0.50392 0.29486
 C117 C 0.67734 0.49598 0.31966
 C118 C 0.65670 0.44867 0.31778
 C119 C 0.63297 0.51381 0.19327
 C120 C 0.64840 0.52239 0.16862
 C121 C 0.69245 0.51710 0.19534
 C122 C 0.67613 0.50854 0.21960
 N123 N 0.64689 0.50754 0.21821
 H124 H 0.62768 0.44269 0.28323
 H125 H 0.66383 0.52558 0.28599
 H126 H 0.69078 0.51146 0.32987
 H127 H 0.65390 0.42707 0.32653
 H128 H 0.60974 0.51250 0.19274
 H129 H 0.63705 0.52783 0.14901
 H130 H 0.71567 0.51837 0.19663
 H131 H 0.68681 0.50295 0.23947
 C132 C 0.57109 0.41988 0.21680
 C133 C 0.57166 0.57738 0.28280
 C134 C 0.67837 0.52426 0.16971
 C135 C 0.67444 0.46809 0.33123
 C136 C 0.92282 0.47250 0.77956
 H137 H 0.92409 0.49328 0.78959
 C138 C 0.93799 0.44871 0.79101
 H139 H 0.95113 0.45119 0.80980
 C140 C 0.90283 0.44336 0.74392
 H141 H 0.88842 0.44104 0.72618
 C142 C 0.91762 0.41910 0.75465
 H143 H 0.91476 0.39835 0.74490
 N144 N 0.90552 0.46940 0.75652
 C145 C 0.88763 0.55436 0.71828
 H146 H 0.86446 0.55269 0.71721
 C147 C 0.90107 0.57904 0.70762
 H148 H 0.88825 0.59644 0.69821
 C149 C 0.93262 0.53367 0.73192
 H150 H 0.94475 0.51585 0.74131
 C151 C 0.94699 0.55811 0.72145
 H152 H 0.97022 0.55913 0.72283
 Zn153 Zn 0.88173 0.50094 0.74462
 N154 N 0.90339 0.53247 0.73045
 C155 C 0.86190 0.53989 0.78684
 N156 N 0.85940 0.51258 0.77714
 C157 C 0.84289 0.49293 0.79166
 C158 C 0.82793 0.50061 0.81694
 C159 C 0.84733 0.54842 0.81189
 C160 C 0.87232 0.48405 0.68880
 C161 C 0.85713 0.47509 0.66508
 C162 C 0.81304 0.47860 0.69354
 C163 C 0.82911 0.48757 0.71682
 N164 N 0.85827 0.48966 0.71413
 H165 H 0.87571 0.55500 0.77561
 H166 H 0.84176 0.47119 0.78384
 H167 H 0.81507 0.48482 0.82857
 H168 H 0.84972 0.57013 0.81955
 H169 H 0.89547 0.48620 0.68721
 H170 H 0.86860 0.47020 0.64515
 H171 H 0.78991 0.47649 0.69587
 H172 H 0.81832 0.49262 0.73699
 C173 C 0.93098 0.58104 0.70935
 C174 C 0.93508 0.42171 0.77860
 C175 C 0.82727 0.47213 0.66751
 C176 C 0.83033 0.52861 0.82716
 C177 C 0.27955 0.42283 -0.02750
 H178 H 0.28958 0.42409 -0.00673
 C179 C 0.29101 0.43799 -0.05129
 H180 H 0.30979 0.45114 -0.04882
 C181 C 0.24391 0.40283 -0.05665
 H182 H 0.22618 0.38842 -0.05897
 C183 C 0.25464 0.41763 -0.08091
 H184 H 0.24490 0.41476 -0.10165
 N185 N 0.25652 0.40553 -0.03061
 C186 C 0.21828 0.38763 0.05435
 H187 H 0.21720 0.36446 0.05269
 C188 C 0.20761 0.40108 0.07903
 H189 H 0.19820 0.38825 0.09643
 C190 C 0.23191 0.43263 0.03366
 H191 H 0.24131 0.44476 0.01585
 C192 C 0.22144 0.44700 0.05810
 H193 H 0.22282 0.47023 0.05912
 Zn194 Zn 0.24462 0.38174 0.00093
 N195 N 0.23044 0.40340 0.03246
 C196 C 0.28683 0.36190 0.03989
 N197 N 0.27714 0.35941 0.01257
 C198 C 0.29165 0.34290 -0.00707
 C199 C 0.31694 0.32794 0.00060
 C200 C 0.31188 0.34733 0.04841
 C201 C 0.18879 0.37232 -0.01596
 C202 C 0.16507 0.35713 -0.02492
 C203 C 0.19353 0.31305 -0.02141
 C204 C 0.21682 0.32911 -0.01243
 N205 N 0.21413 0.35827 -0.01035
 H206 H 0.27560 0.37572 0.05499
 H207 H 0.28384 0.34177 -0.02882
 H208 H 0.32856 0.31508 -0.01518
 H209 H 0.31955 0.34973 0.07012
 H210 H 0.18721 0.39547 -0.01380
 H211 H 0.14515 0.36861 -0.02981
 H212 H 0.19587 0.28991 -0.02352
 H213 H 0.23698 0.31832 -0.00739
 C214 C 0.20934 0.43098 0.08103
 C215 C 0.27859 0.43509 -0.07830
 C216 C 0.16751 0.32728 -0.02788
 C217 C 0.32715 0.33033 0.02860
 C218 C 0.78507 0.08239 1.02626
 H219 H 0.79574 0.08029 1.00545
 C220 C 0.79613 0.06774 1.05038
 H221 H 0.81526 0.05415 1.04813
 C222 C 0.74809 0.10390 1.05510
 H223 H 0.72996 0.11869 1.05713
 C224 C 0.75840 0.08965 1.07968
 H225 H 0.74795 0.09330 1.10041
 N226 N 0.76155 0.10018 1.02905
 C227 C 0.72617 0.11554 0.94359
 H228 H 0.72519 0.13884 0.94400
 C229 C 0.71568 0.10119 0.92002
 H230 H 0.70658 0.11346 0.90217
 C231 C 0.73878 0.07109 0.96665
 H232 H 0.74749 0.05953 0.98505
 C233 C 0.72844 0.05583 0.94339
 H234 H 0.72929 0.03248 0.94383
 Zn235 Zn 0.74999 0.12306 0.99688
 N236 N 0.73761 0.10044 0.96618
 C237 C 0.79311 0.14200 0.95746
 N238 N 0.78206 0.14508 0.98464
 C239 C 0.79485 0.16224 1.00391
 C240 C 0.81965 0.17735 0.99597
 C241 C 0.81777 0.15670 0.94867
 C242 C 0.69327 0.13297 1.01380
 C243 C 0.66862 0.14841 1.02238
 C244 C 0.69533 0.19246 1.01709
 C245 C 0.71959 0.17614 1.00854
 N246 N 0.71820 0.14689 1.00753
 H247 H 0.78323 0.12768 0.94268
 H248 H 0.78598 0.16384 1.02557
 H249 H 0.82986 0.19079 1.01146
 H250 H 0.82652 0.15390 0.92706
 H251 H 0.69273 0.10974 1.01249
 H252 H 0.64901 0.13705 1.02783
 H253 H 0.69662 0.21567 1.01837
 H254 H 0.73946 0.18681 1.00295
 C255 C 0.71680 0.07109 0.91988
 C256 C 0.78280 0.07166 1.07738
 C257 C 0.66970 0.17837 1.02425
 C258 C 0.83122 0.17444 0.96809
 C259 C 0.28507 0.58240 0.52626
 H260 H 0.29573 0.58030 0.50545
 C261 C 0.29612 0.56774 0.55038
 H262 H 0.31526 0.55416 0.54813
 C263 C 0.24809 0.60391 0.55510
 H264 H 0.22996 0.61870 0.55714
 C265 C 0.25839 0.58965 0.57968
 H266 H 0.24794 0.59330 0.60041
 N267 N 0.26154 0.60019 0.52906
 C268 C 0.22617 0.61554 0.44359
 H269 H 0.22518 0.63884 0.44400
 C270 C 0.21567 0.60120 0.42002
 H271 H 0.20657 0.61347 0.40217
 C272 C 0.23878 0.57110 0.46665
 H273 H 0.24749 0.55954 0.48506
 C274 C 0.22843 0.55583 0.44339
 H275 H 0.22928 0.53249 0.44384
 Zn276 Zn 0.24998 0.62307 0.49688
 N277 N 0.23761 0.60045 0.46619
 C278 C 0.29311 0.64200 0.45746
 N279 N 0.28206 0.64509 0.48464
 C280 C 0.29485 0.66224 0.50392
 C281 C 0.31965 0.67735 0.49597
 C282 C 0.31777 0.65671 0.44867
 C283 C 0.19326 0.63298 0.51381
 C284 C 0.16861 0.64841 0.52238
 C285 C 0.19533 0.69246 0.51710
 C286 C 0.21959 0.67615 0.50854
 N287 N 0.21820 0.64690 0.50753
 H288 H 0.28323 0.62769 0.44269
 H289 H 0.28598 0.66384 0.52557
 H290 H 0.32986 0.69080 0.51146
 H291 H 0.32652 0.65391 0.42706
 H292 H 0.19273 0.60975 0.51249
 H293 H 0.14901 0.63706 0.52783
 H294 H 0.19662 0.71568 0.51837
 H295 H 0.23946 0.68682 0.50295
 C296 C 0.21680 0.57110 0.41988
 C297 C 0.28280 0.57167 0.57738
 C298 C 0.16970 0.67838 0.52426
 C299 C 0.33122 0.67445 0.46809
 C300 C 0.77955 0.92283 0.47250
 H301 H 0.78958 0.92409 0.49327
 C302 C 0.79101 0.93799 0.44870
 H303 H 0.80980 0.95114 0.45118
 C304 C 0.74392 0.90283 0.44335
 H305 H 0.72618 0.88842 0.44103
 C306 C 0.75464 0.91763 0.41909
 H307 H 0.74490 0.91476 0.39834
 N308 N 0.75652 0.90553 0.46939
 C309 C 0.71828 0.88763 0.55435
 H310 H 0.71720 0.86446 0.55268
 C311 C 0.70761 0.90108 0.57903
 H312 H 0.69820 0.88825 0.59643
 C313 C 0.73191 0.93262 0.53366
 H314 H 0.74131 0.94476 0.51584
 C315 C 0.72144 0.94700 0.55810
 H316 H 0.72282 0.97023 0.55912
 Zn317 Zn 0.74462 0.88174 0.50093
 N318 N 0.73044 0.90340 0.53246
 C319 C 0.78683 0.86191 0.53989
 N320 N 0.77714 0.85941 0.51257
 C321 C 0.79165 0.84290 0.49293
 C322 C 0.81694 0.82794 0.50060
 C323 C 0.81188 0.84734 0.54841
 C324 C 0.68879 0.87232 0.48404
 C325 C 0.66508 0.85713 0.47508
 C326 C 0.69354 0.81304 0.47859
 C327 C 0.71682 0.82911 0.48757
 N328 N 0.71413 0.85827 0.48965
 H329 H 0.77560 0.87572 0.55499
 H330 H 0.78384 0.84177 0.47118
 H331 H 0.82857 0.81507 0.48482
 H332 H 0.81955 0.84973 0.57012
 H333 H 0.68721 0.89547 0.48619
 H334 H 0.64515 0.86860 0.47019
 H335 H 0.69587 0.78991 0.47648
 H336 H 0.73699 0.81832 0.49261
 C337 C 0.70934 0.93098 0.58103
 C338 C 0.77859 0.93509 0.42170
 C339 C 0.66751 0.82728 0.47212
 C340 C 0.82715 0.83033 0.52861
 C341 C -0.02750 0.27956 0.42283
 H342 H -0.00673 0.28958 0.42410
 C343 C -0.05129 0.29101 0.43800
 H344 H -0.04882 0.30980 0.45114
 C345 C -0.05665 0.24392 0.40284
 H346 H -0.05897 0.22618 0.38843
 C347 C -0.08091 0.25465 0.41763
 H348 H -0.10166 0.24491 0.41477
 N349 N -0.03061 0.25652 0.40553
 C350 C 0.05435 0.21828 0.38764
 H351 H 0.05268 0.21720 0.36447
 C352 C 0.07903 0.20761 0.40108
 H353 H 0.09643 0.19820 0.38826
 C354 C 0.03366 0.23191 0.43263
 H355 H 0.01584 0.24131 0.44476
 C356 C 0.05810 0.22144 0.44700
 H357 H 0.05912 0.22282 0.47023
 Zn358 Zn 0.00093 0.24462 0.38175
 N359 N 0.03246 0.23044 0.40340
 C360 C 0.03988 0.28683 0.36191
 N361 N 0.01257 0.27714 0.35941
 C362 C -0.00708 0.29165 0.34290
 C363 C 0.00060 0.31694 0.32795
 C364 C 0.04841 0.31188 0.34734
 C365 C -0.01596 0.18879 0.37232
 C366 C -0.02493 0.16508 0.35714
 C367 C -0.02141 0.19354 0.31305
 C368 C -0.01244 0.21682 0.32912
 N369 N -0.01035 0.21413 0.35828
 H370 H 0.05499 0.27560 0.37572
 H371 H -0.02882 0.28384 0.34177
 H372 H -0.01518 0.32857 0.31508
 H373 H 0.07012 0.31954 0.34973
 H374 H -0.01381 0.18721 0.39548
 H375 H -0.02982 0.14515 0.36861
 H376 H -0.02352 0.19587 0.28992
 H377 H -0.00739 0.23698 0.31833
 C378 C 0.08103 0.20934 0.43099
 C379 C -0.07830 0.27860 0.43509
 C380 C -0.02788 0.16751 0.32728
 C381 C 0.02860 0.32715 0.33034
 C382 C 1.02627 0.78507 0.08240
 H383 H 1.00545 0.79574 0.08030
 C384 C 1.05038 0.79613 0.06774
 H385 H 1.04813 0.81526 0.05416
 C386 C 1.05510 0.74809 0.10391
 H387 H 1.05714 0.72996 0.11870
 C388 C 1.07968 0.75840 0.08965
 H389 H 1.10041 0.74795 0.09330
 N390 N 1.02906 0.76155 0.10019
 C391 C 0.94359 0.72617 0.11554
 H392 H 0.94400 0.72519 0.13884
 C393 C 0.92002 0.71568 0.10120
 H394 H 0.90217 0.70658 0.11346
 C395 C 0.96665 0.73879 0.07110
 H396 H 0.98505 0.74749 0.05954
 C397 C 0.94339 0.72844 0.05583
 H398 H 0.94384 0.72929 0.03249
 Zn399 Zn 0.99688 0.74999 0.12307
 N400 N 0.96619 0.73762 0.10045
 C401 C 0.95746 0.79311 0.14200
 N402 N 0.98464 0.78206 0.14509
 C403 C 1.00392 0.79485 0.16224
 C404 C 0.99597 0.81966 0.17736
 C405 C 0.94867 0.81778 0.15671
 C406 C 1.01381 0.69327 0.13298
 C407 C 1.02238 0.66862 0.14841
 C408 C 1.01710 0.69534 0.19246
 C409 C 1.00854 0.71960 0.17614
 N410 N 1.00753 0.71820 0.14690
 H411 H 0.94269 0.78323 0.12769
 H412 H 1.02557 0.78598 0.16384
 H413 H 1.01146 0.82987 0.19080
 H414 H 0.92706 0.82653 0.15390
 H415 H 1.01249 0.69274 0.10975
 H416 H 1.02783 0.64901 0.13706
 H417 H 1.01837 0.69663 0.21568
 H418 H 1.00295 0.73947 0.18682
 C419 C 0.91988 0.71681 0.07110
 C420 C 1.07738 0.78280 0.07167
 C421 C 1.02425 0.66970 0.17838
 C422 C 0.96809 0.83123 0.17445
 C423 C 0.52627 0.28508 0.58239
 H424 H 0.50545 0.29574 0.58029
 C425 C 0.55038 0.29613 0.56774
 H426 H 0.54814 0.31527 0.55416
 C427 C 0.55510 0.24810 0.60390
 H428 H 0.55714 0.22997 0.61870
 C429 C 0.57969 0.25841 0.58965
 H430 H 0.60041 0.24795 0.59330
 N431 N 0.52906 0.26156 0.60018
 C432 C 0.44360 0.22617 0.61554
 H433 H 0.44400 0.22519 0.63884
 C434 C 0.42002 0.21568 0.60119
 H435 H 0.40218 0.20658 0.61346
 C436 C 0.46665 0.23879 0.57109
 H437 H 0.48506 0.24750 0.55953
 C438 C 0.44339 0.22844 0.55583
 H439 H 0.44384 0.22929 0.53248
 Zn440 Zn 0.49688 0.24999 0.62306
 N441 N 0.46619 0.23762 0.60044
 C442 C 0.45746 0.29311 0.64200
 N443 N 0.48464 0.28207 0.64508
 C444 C 0.50392 0.29486 0.66224
 C445 C 0.49597 0.31966 0.67735
 C446 C 0.44867 0.31778 0.65670
 C447 C 0.51381 0.19327 0.63297
 C448 C 0.52239 0.16862 0.64841
 C449 C 0.51710 0.19534 0.69246
 C450 C 0.50854 0.21960 0.67614
 N451 N 0.50754 0.21821 0.64690
 H452 H 0.44269 0.28323 0.62768
 H453 H 0.52557 0.28599 0.66384
 H454 H 0.51146 0.32987 0.69079
 H455 H 0.42706 0.32653 0.65390
 H456 H 0.51250 0.19274 0.60974
 H457 H 0.52783 0.14902 0.63705
 H458 H 0.51837 0.19663 0.71567
 H459 H 0.50295 0.23947 0.68681
 C460 C 0.41988 0.21681 0.57110
 C461 C 0.57738 0.28281 0.57166
 C462 C 0.52426 0.16971 0.67837
 C463 C 0.46809 0.33123 0.67444
 C464 C 0.47249 0.77955 0.92282
 H465 H 0.49327 0.78958 0.92409
 C466 C 0.44870 0.79101 0.93799
 H467 H 0.45118 0.80980 0.95113
 C468 C 0.44335 0.74392 0.90283
 H469 H 0.44103 0.72618 0.88842
 C470 C 0.41909 0.75464 0.91763
 H471 H 0.39834 0.74490 0.91476
 N472 N 0.46939 0.75652 0.90552
 C473 C 0.55435 0.71828 0.88763
 H474 H 0.55268 0.71720 0.86446
 C475 C 0.57903 0.70761 0.90107
 H476 H 0.59643 0.69820 0.88825
 C477 C 0.53366 0.73192 0.93262
 H478 H 0.51584 0.74131 0.94475
 C479 C 0.55809 0.72144 0.94699
 H480 H 0.55912 0.72282 0.97022
 Zn481 Zn 0.50093 0.74462 0.88174
 N482 N 0.53246 0.73045 0.90339
 C483 C 0.53988 0.78683 0.86190
 N484 N 0.51257 0.77714 0.85940
 C485 C 0.49292 0.79165 0.84289
 C486 C 0.50060 0.81694 0.82794
 C487 C 0.54841 0.81188 0.84733
 C488 C 0.48404 0.68879 0.87232
 C489 C 0.47507 0.66508 0.85713
 C490 C 0.47859 0.69354 0.81304
 C491 C 0.48756 0.71682 0.82911
 N492 N 0.48965 0.71413 0.85827
 H493 H 0.55499 0.77560 0.87571
 H494 H 0.47117 0.78384 0.84176
 H495 H 0.48481 0.82857 0.81507
 H496 H 0.57012 0.81955 0.84972
 H497 H 0.48619 0.68721 0.89547
 H498 H 0.47018 0.64515 0.86860
 H499 H 0.47648 0.69587 0.78991
 H500 H 0.49261 0.73698 0.81832
 C501 C 0.58103 0.70934 0.93098
 C502 C 0.42170 0.77859 0.93509
 C503 C 0.47212 0.66751 0.82727
 C504 C 0.52860 0.82715 0.83033
 C505 C 0.49299 -0.21946 0.35637
 C506 C 0.48570 -0.19818 0.34285
 C507 C 0.47669 -0.17281 0.32802
 C508 C 0.46844 -0.15096 0.31604
 C509 C 0.45795 -0.12536 0.30263
 C510 C 0.44811 -0.10370 0.29155
 C511 C 0.99299 0.28055 0.85636
 C512 C 0.98570 0.30182 0.84285
 C513 C 0.97669 0.32720 0.82802
 C514 C 0.96844 0.34904 0.81604
 C515 C 0.95795 0.37464 0.80263
 C516 C 0.94810 0.39630 0.79154
 C517 C 0.01457 1.21893 0.85714
 C518 C 0.02204 1.19773 0.84416
 C519 C 0.03108 1.17238 0.82997
 C520 C 0.03923 1.15051 0.81853
 C521 C 0.04949 1.12481 0.80575
 C522 C 0.05906 1.10302 0.79518
 C523 C 0.51457 0.71892 0.35714
 C524 C 0.52204 0.69773 0.34416
 C525 C 0.53108 0.67237 0.32997
 C526 C 0.53923 0.65050 0.31853
 C527 C 0.54948 0.62481 0.30575
 C528 C 0.55905 0.60301 0.29518
 C529 C 0.50907 0.28566 0.14056
 C530 C 0.51618 0.30597 0.15435
 C531 C 0.52533 0.33015 0.16946
 C532 C 0.53402 0.35094 0.18152
 C533 C 0.54542 0.37527 0.19470
 C534 C 0.55637 0.39583 0.20519
 C535 C 0.00907 0.78566 0.64057
 C536 C 0.01618 0.80598 0.65436
 C537 C 0.02533 0.83015 0.66947
 C538 C 0.03403 0.85094 0.68153
 C539 C 0.04543 0.87527 0.69471
 C540 C 0.05638 0.89583 0.70520
 C541 C 0.98922 0.72447 0.63932
 C542 C 0.98221 0.70278 0.65210
 C543 C 0.97351 0.67693 0.66593
 C544 C 0.96540 0.65469 0.67690
 C545 C 0.95487 0.62867 0.68888
 C546 C 0.94472 0.60670 0.69850
 C547 C 0.48922 0.22446 0.13931
 C548 C 0.48221 0.20278 0.15209
 C549 C 0.47351 0.17692 0.16592
 C550 C 0.46540 0.15468 0.17689
 C551 C 0.45487 0.12866 0.18887
 C552 C 0.44472 0.10669 0.19849
 C553 C 0.35635 0.49300 -0.21946
 C554 C 0.34284 0.48570 -0.19819
 C555 C 0.32801 0.47669 -0.17281
 C556 C 0.31603 0.46844 -0.15097
 C557 C 0.30262 0.45795 -0.12537
 C558 C 0.29154 0.44811 -0.10370
 C559 C 0.85636 0.99300 0.28054
 C560 C 0.84284 0.98570 0.30181
 C561 C 0.82802 0.97669 0.32719
 C562 C 0.81604 0.96844 0.34903
 C563 C 0.80262 0.95795 0.37463
 C564 C 0.79154 0.94811 0.39629
 C565 C 0.85714 0.01457 1.21892
 C566 C 0.84416 0.02204 1.19772
 C567 C 0.82996 0.03108 1.17237
 C568 C 0.81853 0.03923 1.15050
 C569 C 0.80575 0.04949 1.12481
 C570 C 0.79518 0.05905 1.10301
 C571 C 0.35713 0.51457 0.71892
 C572 C 0.34415 0.52204 0.69772
 C573 C 0.32996 0.53108 0.67237
 C574 C 0.31852 0.53923 0.65050
 C575 C 0.30574 0.54949 0.62481
 C576 C 0.29517 0.55906 0.60301
 C577 C 0.14056 0.50907 0.28566
 C578 C 0.15435 0.51618 0.30597
 C579 C 0.16946 0.52533 0.33015
 C580 C 0.18152 0.53403 0.35093
 C581 C 0.19470 0.54543 0.37527
 C582 C 0.20519 0.55638 0.39583
 C583 C 0.64056 0.00906 0.78565
 C584 C 0.65435 0.01618 0.80597
 C585 C 0.66946 0.02533 0.83014
 C586 C 0.68152 0.03402 0.85093
 C587 C 0.69470 0.04542 0.87526
 C588 C 0.70519 0.05637 0.89582
 C589 C 0.63931 0.98922 0.72446
 C590 C 0.65209 0.98221 0.70277
 C591 C 0.66592 0.97351 0.67692
 C592 C 0.67688 0.96541 0.65468
 C593 C 0.68887 0.95487 0.62866
 C594 C 0.69849 0.94472 0.60668
 C595 C 0.13931 0.48921 0.22446
 C596 C 0.15209 0.48221 0.20278
 C597 C 0.16592 0.47351 0.17692
 C598 C 0.17689 0.46540 0.15468
 C599 C 0.18887 0.45487 0.12866
 C600 C 0.19849 0.44472 0.10669
 C601 C -0.21946 0.35637 0.49300
 C602 C -0.19818 0.34285 0.48570
 C603 C -0.17281 0.32802 0.47669
 C604 C -0.15097 0.31604 0.46844
 C605 C -0.12537 0.30263 0.45795
 C606 C -0.10371 0.29154 0.44811
 C607 C 0.28054 0.85636 0.99300
 C608 C 0.30182 0.84284 0.98570
 C609 C 0.32719 0.82802 0.97669
 C610 C 0.34903 0.81604 0.96844
 C611 C 0.37463 0.80263 0.95795
 C612 C 0.39629 0.79154 0.94811
 C613 C 1.21892 0.85714 0.01458
 C614 C 1.19773 0.84415 0.02205
 C615 C 1.17237 0.82996 0.03109
 C616 C 1.15050 0.81853 0.03924
 C617 C 1.12481 0.80575 0.04949
 C618 C 1.10301 0.79518 0.05906
 C619 C 0.71893 0.35715 0.51457
 C620 C 0.69773 0.34416 0.52204
 C621 C 0.67238 0.32997 0.53108
 C622 C 0.65050 0.31854 0.53923
 C623 C 0.62481 0.30576 0.54949
 C624 C 0.60301 0.29518 0.55905
 C625 C 0.28566 0.14057 0.50907
 C626 C 0.30597 0.15436 0.51618
 C627 C 0.33015 0.16947 0.52533
 C628 C 0.35094 0.18153 0.53403
 C629 C 0.37527 0.19471 0.54542
 C630 C 0.39583 0.20520 0.55637
 C631 C 0.78565 0.64057 0.00907
 C632 C 0.80597 0.65436 0.01619
 C633 C 0.83014 0.66947 0.02533
 C634 C 0.85093 0.68153 0.03403
 C635 C 0.87526 0.69471 0.04543
 C636 C 0.89583 0.70520 0.05638
 C637 C 0.72446 0.63931 0.98922
 C638 C 0.70277 0.65210 0.98221
 C639 C 0.67692 0.66592 0.97351
 C640 C 0.65468 0.67689 0.96540
 C641 C 0.62866 0.68887 0.95487
 C642 C 0.60668 0.69849 0.94472
 C643 C 0.22446 0.13931 0.48922
 C644 C 0.20277 0.15209 0.48221
 C645 C 0.17692 0.16592 0.47351
 C646 C 0.15468 0.17689 0.46541
 C647 C 0.12866 0.18887 0.45487
 C648 C 0.10668 0.19849 0.44473
 C649 C 0.59581 0.03043 0.74599
 C650 C 0.58239 0.05159 0.73832
 C651 C 0.56787 0.07669 0.72825
 C652 C 0.55646 0.09824 0.71862
 C653 C 0.54421 0.12343 0.70605
 C654 C 0.53464 0.14473 0.69412
 C655 C 1.09581 0.53042 0.24600
 C656 C 1.08238 0.55159 0.23832
 C657 C 1.06787 0.57669 0.22825
 C658 C 1.05645 0.59824 0.21863
 C659 C 1.04420 0.62342 0.20606
 C660 C 1.03464 0.64472 0.19412
 C661 C 0.90083 0.97274 0.23900
 C662 C 0.91414 0.95169 0.23110
 C663 C 0.92836 0.92659 0.22102
 C664 C 0.93932 0.90487 0.21164
 C665 C 0.95076 0.87925 0.19972
 C666 C 0.95932 0.85732 0.18869
 C667 C 0.40083 0.47274 0.73900
 C668 C 0.41413 0.45169 0.73110
 C669 C 0.42835 0.42659 0.72101
 C670 C 0.43931 0.40487 0.71164
 C671 C 0.45075 0.37925 0.69972
 C672 C 0.45932 0.35732 0.68868
 C673 C 0.40041 0.53345 0.75999
 C674 C 0.41363 0.55386 0.76782
 C675 C 0.42800 0.57805 0.77797
 C676 C 0.43938 0.59880 0.78758
 C677 C 0.45170 0.62304 0.80004
 C678 C 0.46142 0.64352 0.81180
 C679 C -0.09958 0.03346 0.25999
 C680 C -0.08636 0.05386 0.26782
 C681 C -0.07199 0.07806 0.27797
 C682 C -0.06062 0.09881 0.28759
 C683 C -0.04830 0.12304 0.30005
 C684 C -0.03858 0.14352 0.31181
 C685 C 0.09610 0.46909 0.26734
 C686 C 0.08280 0.44828 0.27531
 C687 C 0.06845 0.42335 0.28521
 C688 C 0.05734 0.40165 0.29428
 C689 C 0.04575 0.37589 0.30577
 C690 C 0.03717 0.35371 0.31644
 C691 C 0.59610 0.96910 0.76733
 C692 C 0.58280 0.94829 0.77531
 C693 C 0.56845 0.92335 0.78520
 C694 C 0.55734 0.90166 0.79427
 C695 C 0.54575 0.87590 0.80576
 C696 C 0.53717 0.85371 0.81643
 C697 C 0.74599 0.59582 0.03043
 C698 C 0.73831 0.58239 0.05159
 C699 C 0.72825 0.56788 0.07670
 C700 C 0.71862 0.55646 0.09824
 C701 C 0.70605 0.54421 0.12343
 C702 C 0.69412 0.53464 0.14473
 C703 C 0.24600 1.09581 0.53043
 C704 C 0.23832 1.08239 0.55159
 C705 C 0.22825 1.06787 0.57670
 C706 C 0.21863 1.05646 0.59825
 C707 C 0.20606 1.04421 0.62343
 C708 C 0.19413 1.03465 0.64473
 C709 C 0.23900 0.90083 0.97275
 C710 C 0.23110 0.91414 0.95170
 C711 C 0.22102 0.92836 0.92659
 C712 C 0.21164 0.93932 0.90488
 C713 C 0.19972 0.95076 0.87926
 C714 C 0.18868 0.95933 0.85733
 C715 C 0.73900 0.40084 0.47274
 C716 C 0.73110 0.41414 0.45169
 C717 C 0.72101 0.42836 0.42659
 C718 C 0.71164 0.43932 0.40487
 C719 C 0.69971 0.45076 0.37925
 C720 C 0.68868 0.45933 0.35732
 C721 C 0.75999 0.40043 0.53345
 C722 C 0.76782 0.41365 0.55386
 C723 C 0.77797 0.42802 0.57805
 C724 C 0.78758 0.43939 0.59881
 C725 C 0.80004 0.45171 0.62304
 C726 C 0.81180 0.46144 0.64352
 C727 C 0.25999 -0.09958 0.03346
 C728 C 0.26782 -0.08636 0.05387
 C729 C 0.27797 -0.07199 0.07806
 C730 C 0.28759 -0.06062 0.09881
 C731 C 0.30004 -0.04830 0.12305
 C732 C 0.31180 -0.03857 0.14353
 C733 C 0.26734 0.09611 0.46910
 C734 C 0.27531 0.08280 0.44829
 C735 C 0.28521 0.06845 0.42335
 C736 C 0.29428 0.05734 0.40166
 C737 C 0.30577 0.04575 0.37590
 C738 C 0.31644 0.03717 0.35371
 C739 C 0.76733 0.59611 0.96910
 C740 C 0.77531 0.58280 0.94829
 C741 C 0.78520 0.56846 0.92335
 C742 C 0.79427 0.55734 0.90166
 C743 C 0.80576 0.54576 0.87590
 C744 C 0.81643 0.53717 0.85371
 C745 C 0.03043 0.74600 0.59582
 C746 C 0.05159 0.73832 0.58240
 C747 C 0.07669 0.72826 0.56788
 C748 C 0.09824 0.71863 0.55646
 C749 C 0.12342 0.70606 0.54421
 C750 C 0.14472 0.69413 0.53464
 C751 C 0.53043 0.24600 1.09581
 C752 C 0.55159 0.23832 1.08238
 C753 C 0.57669 0.22825 1.06787
 C754 C 0.59824 0.21862 1.05645
 C755 C 0.62342 0.20605 1.04420
 C756 C 0.64472 0.19412 1.03464
 C757 C 0.97274 0.23900 0.90083
 C758 C 0.95169 0.23110 0.91414
 C759 C 0.92658 0.22102 0.92835
 C760 C 0.90487 0.21164 0.93931
 C761 C 0.87925 0.19972 0.95075
 C762 C 0.85732 0.18868 0.95932
 C763 C 0.47274 0.73900 0.40084
 C764 C 0.45169 0.73110 0.41414
 C765 C 0.42658 0.72102 0.42836
 C766 C 0.40487 0.71164 0.43932
 C767 C 0.37925 0.69972 0.45076
 C768 C 0.35732 0.68869 0.45932
 C769 C 0.53345 0.75999 0.40042
 C770 C 0.55386 0.76782 0.41364
 C771 C 0.57805 0.77797 0.42801
 C772 C 0.59880 0.78758 0.43938
 C773 C 0.62304 0.80004 0.45170
 C774 C 0.64352 0.81180 0.46143
 C775 C 0.03345 0.25999 -0.09958
 C776 C 0.05386 0.26783 -0.08636
 C777 C 0.07805 0.27798 -0.07199
 C778 C 0.09880 0.28759 -0.06062
 C779 C 0.12304 0.30005 -0.04830
 C780 C 0.14352 0.31181 -0.03857
 C781 C 0.46910 0.26734 0.09610
 C782 C 0.44829 0.27531 0.08280
 C783 C 0.42335 0.28521 0.06845
 C784 C 0.40166 0.29428 0.05734
 C785 C 0.37590 0.30577 0.04575
 C786 C 0.35371 0.31644 0.03717
 C787 C 0.96910 0.76734 0.59611
 C788 C 0.94829 0.77532 0.58281
 C789 C 0.92335 0.78521 0.56846
 C790 C 0.90166 0.79428 0.55735
 C791 C 0.87590 0.80577 0.54576
 C792 C 0.85371 0.81644 0.53717
   
