data_POSCAR
  _audit_creation_date              2014-09-24
  _audit_creation_method            'ToBaCCo'
  _symmetry_space_group_name_H-M    'P1'
  _symmetry_Int_Tables_number       1
  _symmetry_cell_setting            triclinic
  loop_
  _symmetry_equiv_pos_as_xyz
 x,y,z
_cell_length_a 52.8137
_cell_length_b 52.0499
_cell_length_c 24.3786
_cell_angle_alpha 90.188600
_cell_angle_beta 89.616800
_cell_angle_gamma 120.154700
loop_
  _atom_site_label
  _atom_site_type_symbol
  _atom_site_fract_x
  _atom_site_fract_y
  _atom_site_fract_z
C1 C 0.14938 0.42392 0.47553
 C2 C 0.16638 0.42984 0.42766
 C3 C 0.19620 0.43917 0.43446
 C4 C 0.20835 0.44037 0.48658
 C5 C 0.19110 0.43750 0.53336
 C6 C 0.16202 0.43168 0.52796
 C7 C 0.23930 0.44602 0.49060
 C8 C 0.25592 0.45594 0.53946
 C9 C 0.28506 0.46197 0.54077
 C10 C 0.29810 0.45907 0.49257
 C11 C 0.28226 0.44943 0.44384
 C12 C 0.25277 0.44160 0.44399
 H13 H 0.12587 0.41302 0.47253
 H14 H 0.21048 0.44703 0.39927
 H15 H 0.20069 0.44110 0.57336
 H16 H 0.24702 0.45989 0.57641
 H17 H 0.32083 0.46469 0.49285
 H18 H 0.24064 0.43198 0.40680
 C19 C 0.57628 -0.27915 0.50393
 C20 C 0.56950 -0.27023 0.45407
 C21 C 0.56960 -0.24305 0.45319
 C22 C 0.57645 -0.22508 0.50048
 C23 C 0.58351 -0.23471 0.54897
 C24 C 0.58219 -0.26228 0.55229
 C25 C 0.57499 -0.19700 0.50069
 C26 C 0.56918 -0.18654 0.55006
 C27 C 0.56900 -0.15975 0.55182
 C28 C 0.57271 -0.14410 0.50320
 C29 C 0.57705 -0.15457 0.45300
 C30 C 0.57890 -0.18061 0.45214
 H31 H 0.57628 -0.29983 0.50542
 H32 H 0.56246 -0.23686 0.41670
 H33 H 0.59086 -0.22030 0.58440
 H34 H 0.56475 -0.19903 0.58771
 H35 H 0.57078 -0.12433 0.50427
 H36 H 0.58353 -0.18776 0.41354
 C37 C 1.27379 0.84891 0.49515
 C38 C 1.25788 0.83319 0.44868
 C39 C 1.23234 0.80547 0.45644
 C40 C 1.22328 0.79275 0.50917
 C41 C 1.24044 0.80887 0.55460
 C42 C 1.26537 0.83711 0.54806
 C43 C 1.19619 0.76279 0.51651
 C44 C 1.18099 0.75433 0.56716
 C45 C 1.15549 0.72641 0.57411
 C46 C 1.14467 0.70721 0.52865
 C47 C 1.15930 0.71484 0.47802
 C48 C 1.18523 0.74233 0.47269
 H49 H 1.29431 0.86953 0.49005
 H50 H 1.21897 0.79458 0.42108
 H51 H 1.23473 0.79958 0.59536
 H52 H 1.18805 0.76987 0.60088
 H53 H 1.12590 0.68514 0.53350
 H54 H 1.19673 0.74755 0.43394
 C55 C 0.84736 0.55239 0.49843
 C56 C 0.83546 0.54996 0.44621
 C57 C 0.81067 0.55306 0.44053
 C58 C 0.79819 0.55961 0.48633
 C59 C 0.81122 0.56250 0.53813
 C60 C 0.83493 0.55783 0.54457
 C61 C 0.77119 0.56224 0.48052
 C62 C 0.75265 0.55793 0.52600
 C63 C 0.72739 0.56062 0.52149
 C64 C 0.71990 0.56561 0.46872
 C65 C 0.73742 0.56916 0.42271
 C66 C 0.76340 0.56852 0.42925
 H67 H 0.86596 0.54920 0.50351
 H68 H 0.80075 0.54917 0.40051
 H69 H 0.80331 0.56834 0.57429
 H70 H 0.75825 0.55307 0.56534
 H71 H 0.69927 0.56476 0.46205
 H72 H 0.77731 0.57294 0.39369
 C73 C 0.43039 0.28834 0.51893
 C74 C 0.44214 0.28270 0.47184
 C75 C 0.44719 0.25876 0.47167
 C76 C 0.43978 0.23968 0.51739
 C77 C 0.42857 0.24626 0.56477
 C78 C 0.42452 0.27108 0.56678
 C79 C 0.44385 0.21313 0.51537
 C80 C 0.44812 0.20073 0.56356
 C81 C 0.45144 0.17536 0.56178
 C82 C 0.45156 0.16345 0.50962
 C83 C 0.44860 0.17618 0.46145
 C84 C 0.44385 0.20019 0.46462
 H85 H 0.42778 0.30767 0.51891
 H86 H 0.45782 0.25583 0.43610
 H87 H 0.42196 0.23151 0.59970
 H88 H 0.45038 0.21186 0.60217
 H89 H 0.45343 0.14379 0.50540
 H90 H 0.43981 0.20833 0.42683
 C91 C 0.70272 0.15510 0.51610
 C92 C 0.71432 0.16594 0.46378
 C93 C 0.74017 0.19363 0.45954
 C94 C 0.75288 0.21170 0.50626
 C95 C 0.73871 0.20136 0.55741
 C96 C 0.71410 0.17280 0.56313
 C97 C 0.78069 0.24120 0.50165
 C98 C 0.79995 0.25344 0.54669
 C99 C 0.82652 0.28099 0.54284
 C100 C 0.83449 0.29443 0.49049
 C101 C 0.81566 0.28285 0.44558
 C102 C 0.78848 0.25705 0.45190
 H103 H 0.68441 0.13270 0.51987
 H104 H 0.74996 0.20112 0.41953
 H105 H 0.74634 0.21574 0.59283
 H106 H 0.79367 0.24159 0.58495
 H107 H 0.85565 0.31389 0.48334
 H108 H 0.77389 0.24921 0.41715
 O109 O 0.97623 0.51834 -0.07104
 O110 O 1.02573 0.50679 0.11517
 O111 O 0.96295 0.50843 0.02596
 O112 O 1.06604 0.55186 -0.03892
 O113 O 0.97453 0.49160 0.09750
 O114 O 1.02674 0.55117 -0.06145
 O115 O 1.05727 0.54373 0.06351
 O116 O 0.93502 0.47810 -0.05692
 C117 C 0.94976 0.50226 -0.08525
 C118 C 1.04580 0.53375 0.10952
 C119 C 0.96457 0.50714 0.07718
 C120 C 1.05362 0.56516 -0.05677
 O121 O 1.03967 0.51148 -0.11008
 O122 O 0.96864 0.44107 0.04645
 O123 O 0.96036 0.44747 -0.05257
 O124 O 1.05904 0.49532 0.05527
 O125 O 1.01708 0.45640 0.06222
 O126 O 0.98714 0.47679 -0.11640
 O127 O 1.06109 0.49955 -0.04678
 O128 O 0.93686 0.45258 0.03476
 Co129 Co 1.00740 0.51285 -0.08259
 Co130 Co 0.99713 0.47562 0.07422
 Co131 Co 0.96364 0.47915 -0.01467
 Co132 Co 1.05571 0.52013 0.00709
 O133 O 1.00761 0.49670 -0.00172
 C134 C 1.05601 0.50123 -0.09619
 C135 C 0.94294 0.43449 0.05433
 C136 C 0.96951 0.45096 -0.10060
 C137 C 1.04387 0.46850 0.06689
 O138 O 0.47820 0.46234 -0.09665
 O139 O 0.47212 0.48048 0.09045
 O140 O 0.50206 0.44922 0.03514
 O141 O 0.45333 0.49948 -0.04368
 O142 O 0.51695 0.47738 0.10228
 O143 O 0.47762 0.50880 -0.11578
 O144 O 0.46043 0.51015 0.05010
 O145 O 0.50834 0.45119 -0.05866
 C146 C 0.48498 0.44330 -0.08490
 C147 C 0.45371 0.48824 0.08162
 C148 C 0.50361 0.45167 0.08525
 C149 C 0.45341 0.49933 -0.09406
 O150 O 0.53409 0.53927 -0.10655
 O151 O 0.54890 0.53409 0.08190
 O152 O 0.56142 0.50657 -0.04690
 O153 O 0.51529 0.56170 0.02442
 O154 O 0.50454 0.53778 0.09713
 O155 O 0.53464 0.49226 -0.11537
 O156 O 0.50591 0.55354 -0.06875
 O157 O 0.55833 0.50156 0.04701
 Co158 Co 0.50633 0.50095 -0.09776
 Co159 Co 0.51041 0.50706 0.08230
 Co160 Co 0.53047 0.47940 -0.00601
 Co161 Co 0.48581 0.52883 -0.00928
 O162 O 0.50830 0.50409 -0.00770
 C163 C 0.52792 0.55915 -0.09845
 C164 C 0.56677 0.52566 0.07274
 C165 C 0.55970 0.50504 -0.09708
 C166 C 0.51664 0.56225 0.07466
 O167 O 0.54021 0.01761 -0.04616
 O168 O 0.48158 -0.04080 0.12020
 O169 O 0.54113 0.03724 0.05723
 O170 O 0.46714 -0.08229 -0.03807
 O171 O 0.50949 0.01539 0.12444
 O172 O 0.50960 -0.04042 -0.04962
 O173 O 0.49180 -0.05947 0.04813
 O174 O 0.54288 0.06112 -0.03076
 C175 C 0.55301 0.04581 -0.05546
 C176 C 0.49221 -0.05588 0.09929
 C177 C 0.53578 0.03155 0.10782
 C178 C 0.49287 -0.06804 -0.06193
 O179 O 0.46705 -0.03544 -0.09974
 O180 O 0.46254 0.01633 0.08566
 O181 O 0.48690 0.03952 -0.03232
 O182 O 0.43807 -0.07590 0.05603
 O183 O 0.43476 -0.03813 0.08088
 O184 O 0.49604 0.01804 -0.09741
 O185 O 0.43684 -0.05590 -0.03389
 O186 O 0.50403 0.05440 0.06206
 Co187 Co 0.50208 -0.01012 -0.06602
 Co188 Co 0.47301 -0.01182 0.09611
 Co189 Co 0.51255 0.03458 0.00966
 Co190 Co 0.46631 -0.05460 0.00464
 O191 O 0.48604 -0.01028 0.01494
 C192 C 0.44107 -0.04998 -0.08321
 C193 C 0.47972 0.04385 0.08630
 C194 C 0.48606 0.03409 -0.08196
 C195 C 0.42387 -0.06567 0.07957
 C196 C 1.16809 0.42689 0.32568
 C197 C 1.15676 0.42740 0.27414
 C198 C 1.13060 0.42777 0.27008
 C199 C 1.11589 0.42778 0.31797
 C200 C 1.12753 0.42835 0.36924
 C201 C 1.15403 0.42797 0.37475
 N202 N 1.12045 0.43121 0.21790
 N203 N 1.09334 0.42179 0.21086
 C204 C 1.08214 0.42908 0.16396
 C205 C 1.05180 0.41445 0.15694
 C206 C 1.03933 0.42592 0.12143
 C207 C 1.05715 0.45261 0.09313
 C208 C 1.08775 0.46589 0.09668
 C209 C 1.10020 0.45412 0.13174
 H210 H 1.18772 0.42533 0.32615
 H211 H 1.16839 0.42746 0.23734
 H212 H 1.09604 0.42900 0.31576
 H213 H 1.11612 0.43087 0.40389
 H214 H 1.03768 0.39525 0.18186
 H215 H 1.01568 0.41513 0.11942
 H216 H 1.10199 0.48636 0.07501
 H217 H 1.12373 0.46590 0.13687
 C218 C 0.54904 0.68007 0.41271
 C219 C 0.54371 0.66183 0.36735
 C220 C 0.55055 0.67368 0.31462
 C221 C 0.56205 0.70429 0.30717
 C222 C 0.56754 0.72288 0.35289
 C223 C 0.56195 0.71117 0.40688
 N224 N 0.54636 0.65371 0.27065
 N225 N 0.54960 0.66017 0.21978
 C226 C 0.54514 0.63750 0.18080
 C227 C 0.53958 0.64008 0.12542
 C228 C 0.53170 0.61620 0.08907
 C229 C 0.52941 0.58961 0.10806
 C230 C 0.53691 0.58803 0.16252
 C231 C 0.54468 0.61159 0.19837
 H232 H 0.54218 0.66928 0.45223
 H233 H 0.53429 0.63813 0.37338
 H234 H 0.56747 0.71387 0.26645
 H235 H 0.57769 0.74652 0.34571
 H236 H 0.54009 0.66000 0.11105
 H237 H 0.52608 0.61796 0.04715
 H238 H 0.53592 0.56808 0.17807
 H239 H 0.54954 0.60915 0.24047
 C240 C 0.28437 -0.12457 0.38604
 C241 C 0.29862 -0.11316 0.33617
 C242 C 0.29819 -0.13211 0.29512
 C243 C 0.28120 -0.16296 0.30247
 C244 C 0.26599 -0.17458 0.35185
 C245 C 0.26858 -0.15549 0.39554
 N246 N 0.31724 -0.11909 0.24898
 N247 N 0.32475 -0.13345 0.21682
 C248 C 0.34604 -0.11818 0.17442
 C249 C 0.36043 -0.13176 0.14988
 C250 C 0.38503 -0.11523 0.11624
 C251 C 0.39537 -0.08492 0.10673
 C252 C 0.37952 -0.07206 0.12816
 C253 C 0.35516 -0.08848 0.16164
 H254 H 0.28587 -0.10902 0.41724
 H255 H 0.31136 -0.08930 0.33055
 H256 H 0.28046 -0.17799 0.27089
 H257 H 0.25432 -0.19847 0.35713
 H258 H 0.35364 -0.15465 0.15936
 H259 H 0.39676 -0.12571 0.10004
 H260 H 0.38670 -0.04886 0.12105
 H261 H 0.34425 -0.07752 0.17947
 C262 C 0.85790 0.52223 0.40370
 C263 C 0.87318 0.51788 0.36133
 C264 C 0.87938 0.53404 0.31261
 C265 C 0.86925 0.55416 0.30577
 C266 C 0.85394 0.55867 0.34849
 C267 C 0.84870 0.54317 0.39837
 N268 N 0.89693 0.53009 0.27229
 N269 N 0.90252 0.54167 0.22465
 C270 C 0.92091 0.53660 0.18787
 C271 C 0.92016 0.54095 0.13131
 C272 C 0.93557 0.53282 0.09469
 C273 C 0.95218 0.52055 0.11449
 C274 C 0.95427 0.51805 0.17145
 C275 C 0.93877 0.52586 0.20766
 H276 H 0.85365 0.50948 0.44108
 H277 H 0.88070 0.50216 0.36681
 H278 H 0.87382 0.56687 0.26828
 H279 H 0.84716 0.57499 0.34335
 H280 H 0.90662 0.54937 0.11547
 H281 H 0.93351 0.53497 0.05101
 H282 H 0.96697 0.50885 0.18817
 H283 H 0.94019 0.52277 0.25120
 C284 C 0.46544 0.33394 0.43246
 C285 C 0.47248 0.35333 0.38830
 C286 C 0.46504 0.34243 0.33485
 C287 C 0.45078 0.31164 0.32563
 C288 C 0.44369 0.29206 0.37006
 C289 C 0.45065 0.30308 0.42402
 N290 N 0.47201 0.36350 0.29162
 N291 N 0.46693 0.35697 0.24097
 C292 C 0.47472 0.38020 0.20139
 C293 C 0.47223 0.37390 0.14497
 C294 C 0.48102 0.39688 0.10631
 C295 C 0.49238 0.42641 0.12392
 C296 C 0.49408 0.43235 0.18042
 C297 C 0.48540 0.40964 0.21858
 H298 H 0.47164 0.34314 0.47334
 H299 H 0.48365 0.37705 0.39575
 H300 H 0.44488 0.30278 0.28450
 H301 H 0.43222 0.26836 0.36245
 H302 H 0.46394 0.35131 0.13102
 H303 H 0.47945 0.39171 0.06297
 H304 H 0.50253 0.45478 0.19545
 H305 H 0.48735 0.41527 0.26173
 C306 C 0.71208 0.14925 0.36483
 C307 C 0.69579 0.13434 0.31814
 C308 C 0.66510 0.11876 0.32006
 C309 C 0.65092 0.11859 0.36912
 C310 C 0.66703 0.13375 0.41515
 C311 C 0.69784 0.14915 0.41404
 N312 N 0.64841 0.10385 0.27213
 N313 N 0.62127 0.08485 0.27693
 C314 C 0.60192 0.06998 0.23219
 C315 C 0.57351 0.04755 0.24490
 C316 C 0.55254 0.03448 0.20401
 C317 C 0.55949 0.04371 0.14911
 C318 C 0.58843 0.06555 0.13579
 C319 C 0.60960 0.07867 0.17719
 H320 H 0.73574 0.16067 0.36236
 H321 H 0.70707 0.13477 0.28061
 H322 H 0.62726 0.10723 0.37164
 H323 H 0.65514 0.13391 0.45138
 H324 H 0.56736 0.04073 0.28712
 H325 H 0.53058 0.01764 0.21585
 H326 H 0.59442 0.07312 0.09388
 H327 H 0.63148 0.09615 0.16659
 C328 C 0.44386 0.16537 -0.33795
 C329 C 0.44559 0.15079 -0.29103
 C330 C 0.45778 0.13240 -0.29412
 C331 C 0.46932 0.12969 -0.34435
 C332 C 0.46797 0.14440 -0.39095
 C333 C 0.45457 0.16207 -0.38943
 N334 N 0.45837 0.11656 -0.24643
 N335 N 0.46319 0.09503 -0.25162
 C336 C 0.46547 0.07856 -0.20691
 C337 C 0.46631 0.08696 -0.15174
 C338 C 0.47168 0.07169 -0.11010
 C339 C 0.47632 0.04801 -0.12335
 C340 C 0.47419 0.03914 -0.17844
 C341 C 0.46886 0.05427 -0.21959
 H342 H 0.43274 0.17794 -0.33375
 H343 H 0.43666 0.15319 -0.25250
 H344 H 0.47968 0.11631 -0.34763
 H345 H 0.47840 0.14230 -0.42761
 H346 H 0.46379 0.10576 -0.14110
 H347 H 0.47331 0.07909 -0.06803
 H348 H 0.47764 0.02103 -0.19014
 H349 H 0.46822 0.04760 -0.26192
 C350 C 0.69174 0.57109 -0.43208
 C351 C 0.67378 0.56808 -0.38743
 C352 C 0.67348 0.55261 -0.34063
 C353 C 0.69163 0.54018 -0.33861
 C354 C 0.70942 0.54275 -0.38360
 C355 C 0.70973 0.55810 -0.43183
 N356 N 0.65309 0.54827 -0.29768
 N357 N 0.65359 0.53823 -0.25037
 C358 C 0.63116 0.53241 -0.21060
 C359 C 0.63429 0.52586 -0.15613
 C360 C 0.61159 0.51813 -0.11788
 C361 C 0.58523 0.51621 -0.13426
 C362 C 0.58245 0.52334 -0.18853
 C363 C 0.60520 0.53158 -0.22616
 H364 H 0.69185 0.58446 -0.46601
 H365 H 0.65994 0.57790 -0.38932
 H366 H 0.69135 0.52764 -0.30303
 H367 H 0.72161 0.53125 -0.38074
 H368 H 0.65414 0.52631 -0.14356
 H369 H 0.61415 0.51258 -0.07629
 H370 H 0.56244 0.52221 -0.20217
 H371 H 0.60209 0.53641 -0.26792
 C372 C 0.84193 0.27964 -0.36089
 C373 C 0.85843 0.29443 -0.31443
 C374 C 0.87839 0.32493 -0.31594
 C375 C 0.88158 0.34058 -0.36453
 C376 C 0.86475 0.32616 -0.41046
 C377 C 0.84441 0.29521 -0.41020
 N378 N 0.89409 0.34016 -0.26740
 N379 N 0.91692 0.36575 -0.27087
 C380 C 0.93220 0.38373 -0.22449
 C381 C 0.95860 0.41004 -0.23398
 C382 C 0.97183 0.43094 -0.19228
 C383 C 0.95871 0.42603 -0.14009
 C384 C 0.93315 0.39871 -0.12942
 C385 C 0.91992 0.37765 -0.17144
 H386 H 0.82784 0.25590 -0.35747
 H387 H 0.85575 0.28200 -0.27719
 H388 H 0.89635 0.36436 -0.36645
 H389 H 0.86700 0.34019 -0.44484
 H390 H 0.96825 0.41499 -0.27467
 H391 H 0.99158 0.45166 -0.20178
 H392 H 0.92249 0.39438 -0.08967
 H393 H 0.89940 0.35748 -0.16328
 C394 C 0.58239 -0.11788 -0.38265
 C395 C 0.57737 -0.10629 -0.33479
 C396 C 0.55433 -0.12453 -0.29948
 C397 C 0.53672 -0.15491 -0.31172
 C398 C 0.54186 -0.16661 -0.35947
 C399 C 0.56448 -0.14808 -0.39578
 N400 N 0.54841 -0.11127 -0.25335
 N401 N 0.52634 -0.12580 -0.22205
 C402 C 0.51988 -0.11177 -0.17787
 C403 C 0.49338 -0.12791 -0.14943
 C404 C 0.48496 -0.11396 -0.11019
 C405 C 0.50315 -0.08360 -0.09856
 C406 C 0.53036 -0.06776 -0.12540
 C407 C 0.53864 -0.08168 -0.16488
 H408 H 0.60016 -0.10321 -0.40967
 H409 H 0.59106 -0.08286 -0.32578
 H410 H 0.51874 -0.16944 -0.28499
 H411 H 0.52762 -0.18991 -0.36886
 H412 H 0.47874 -0.15110 -0.15910
 H413 H 0.46387 -0.12676 -0.09015
 H414 H 0.54487 -0.04437 -0.11717
 H415 H 0.55933 -0.06874 -0.18616
 C416 C 0.33135 0.49605 -0.41011
 C417 C 0.34995 0.50256 -0.36546
 C418 C 0.34033 0.48516 -0.31799
 C419 C 0.31110 0.46193 -0.31436
 C420 C 0.29229 0.45538 -0.35930
 C421 C 0.30263 0.47182 -0.40823
 N422 N 0.36177 0.48999 -0.27744
 N423 N 0.35634 0.47694 -0.23111
 C424 C 0.38022 0.48199 -0.19611
 C425 C 0.37554 0.47474 -0.14009
 C426 C 0.39913 0.48011 -0.10603
 C427 C 0.42756 0.49225 -0.12807
 C428 C 0.43184 0.49874 -0.18443
 C429 C 0.40860 0.49385 -0.21785
 H430 H 0.33975 0.50929 -0.44703
 H431 H 0.37242 0.52052 -0.36870
 H432 H 0.30326 0.44812 -0.27805
 H433 H 0.27027 0.43650 -0.35698
 H434 H 0.35375 0.46537 -0.12271
 H435 H 0.39522 0.47488 -0.06275
 H436 H 0.45339 0.50809 -0.20290
 H437 H 0.41288 0.49924 -0.26102
 C438 C 1.11117 0.69737 -0.37004
 C439 C 1.09808 0.68433 -0.32012
 C440 C 1.11508 0.68969 -0.27329
 C441 C 1.14516 0.71046 -0.27556
 C442 C 1.15826 0.72444 -0.32525
 C443 C 1.14168 0.71687 -0.37400
 N444 N 1.10158 0.67132 -0.22633
 N445 N 1.11602 0.66800 -0.18817
 C446 C 1.10118 0.64672 -0.14537
 C447 C 1.11645 0.63580 -0.11582
 C448 C 1.10122 0.61024 -0.08344
 C449 C 1.07050 0.59552 -0.07979
 C450 C 1.05561 0.60828 -0.10526
 C451 C 1.07076 0.63351 -0.13799
 H452 H 1.09725 0.69195 -0.40567
 H453 H 1.07479 0.66858 -0.31864
 H454 H 1.15866 0.71503 -0.23956
 H455 H 1.18176 0.73911 -0.32606
 H456 H 1.13990 0.64577 -0.12111
 H457 H 1.11330 0.60101 -0.06410
 H458 H 1.03197 0.59768 -0.10284
 H459 H 1.05848 0.64171 -0.15989
 C460 C 0.82487 0.53652 -0.36087
 C461 C 0.83460 0.53011 -0.31241
 C462 C 0.86459 0.54299 -0.30225
 C463 C 0.88484 0.56349 -0.34008
 C464 C 0.87515 0.56965 -0.38875
 C465 C 0.84511 0.55565 -0.40018
 N466 N 0.87405 0.53320 -0.25595
 N467 N 0.90100 0.54552 -0.24350
 C468 C 0.91168 0.53502 -0.20038
 C469 C 0.94113 0.55209 -0.18609
 C470 C 0.95319 0.54161 -0.14768
 C471 C 0.93600 0.51357 -0.12327
 C472 C 0.90620 0.49660 -0.13674
 C473 C 0.89404 0.50729 -0.17502
 H474 H 0.80159 0.52523 -0.36906
 H475 H 0.81879 0.51426 -0.28367
 H476 H 0.90816 0.57377 -0.33319
 H477 H 0.89113 0.58458 -0.41836
 H478 H 0.95492 0.57341 -0.20551
 H479 H 0.97616 0.55535 -0.13780
 H480 H 0.89248 0.47494 -0.11847
 H481 H 0.87120 0.49364 -0.18584
 C482 C 0.40271 0.29678 -0.38398
 C483 C 0.40134 0.31139 -0.33697
 C484 C 0.41463 0.31019 -0.28856
 C485 C 0.42673 0.29159 -0.28586
 C486 C 0.42765 0.27640 -0.33265
 C487 C 0.41733 0.28030 -0.38353
 N488 N 0.41925 0.33123 -0.24628
 N489 N 0.43565 0.33539 -0.20524
 C490 C 0.44326 0.35935 -0.16760
 C491 C 0.46463 0.36544 -0.12803
 C492 C 0.47706 0.39205 -0.09844
 C493 C 0.46822 0.41301 -0.10809
 C494 C 0.44516 0.40580 -0.14478
 C495 C 0.43283 0.37924 -0.17440
 H496 H 0.39282 0.29906 -0.42101
 H497 H 0.39157 0.32534 -0.33933
 H498 H 0.43702 0.29019 -0.24862
 H499 H 0.43917 0.26417 -0.32969
 H500 H 0.47292 0.35036 -0.12248
 H501 H 0.49460 0.39686 -0.07010
 H502 H 0.43771 0.42138 -0.15285
 H503 H 0.41626 0.37503 -0.20463
 C504 C 0.66929 0.14151 -0.37891
 C505 C 0.65585 0.12978 -0.32855
 C506 C 0.67217 0.13858 -0.28009
 C507 C 0.70210 0.15943 -0.28252
 C508 C 0.71590 0.17045 -0.33327
 C509 C 0.69966 0.16158 -0.38233
 N510 N 0.65815 0.12687 -0.22844
 N511 N 0.63812 0.09976 -0.22466
 C512 C 0.62097 0.08738 -0.17608
 C513 C 0.60646 0.05659 -0.16873
 C514 C 0.58589 0.04322 -0.12661
 C515 C 0.57875 0.06045 -0.09234
 C516 C 0.59437 0.09154 -0.09813
 C517 C 0.61556 0.10496 -0.13944
 H518 H 0.65566 0.13494 -0.41504
 H519 H 0.63251 0.11423 -0.32721
 H520 H 0.71488 0.16651 -0.24526
 H521 H 0.73932 0.18550 -0.33395
 H522 H 0.61043 0.04282 -0.19685
 H523 H 0.57455 0.01927 -0.12280
 H524 H 0.58942 0.10540 -0.07222
 H525 H 0.62638 0.12881 -0.14482
 C526 C 1.12322 0.44138 -0.43991
 C527 C 1.10905 0.44792 -0.39865
 C528 C 1.11731 0.44940 -0.34424
 C529 C 1.13957 0.44324 -0.33090
 C530 C 1.15383 0.43638 -0.37230
 C531 C 1.14619 0.43559 -0.42812
 N532 N 1.10341 0.45844 -0.30426
 N533 N 1.11030 0.46199 -0.25383
 C534 C 1.09635 0.47187 -0.21543
 C535 C 1.10384 0.47409 -0.16013
 C536 C 1.09081 0.48378 -0.12164
 C537 C 1.07008 0.49169 -0.13789
 C538 C 1.06267 0.48964 -0.19358
 C539 C 1.07565 0.47975 -0.23209
 H540 H 1.11699 0.44288 -0.48139
 H541 H 1.09212 0.45292 -0.40942
 H542 H 1.14615 0.44405 -0.28867
 H543 H 1.17049 0.43144 -0.35976
 H544 H 1.11979 0.46819 -0.14681
 H545 H 1.09701 0.48506 -0.07902
 H546 H 1.04670 0.49542 -0.20727
 H547 H 1.06955 0.47832 -0.27476
 C548 C 0.57430 0.73289 -0.34755
 C549 C 0.57152 0.71754 -0.29883
 C550 C 0.57935 0.69562 -0.29707
 C551 C 0.59165 0.69035 -0.34394
 C552 C 0.59411 0.70533 -0.39288
 C553 C 0.58440 0.72609 -0.39636
 N554 N 0.57181 0.67692 -0.24964
 N555 N 0.57959 0.65752 -0.24511
 C556 C 0.56964 0.63625 -0.20146
 C557 C 0.58035 0.61661 -0.19899
 C558 C 0.56785 0.59247 -0.16309
 C559 C 0.54412 0.58741 -0.12916
 C560 C 0.53450 0.60817 -0.12929
 C561 C 0.54715 0.63243 -0.16526
 H562 H 0.56606 0.74819 -0.34751
 H563 H 0.56194 0.72178 -0.26301
 H564 H 0.59827 0.67375 -0.34349
 H565 H 0.60366 0.70042 -0.42789
 H566 H 0.59762 0.61927 -0.22673
 H567 H 0.57597 0.57707 -0.16367
 H568 H 0.51634 0.60491 -0.10350
 H569 H 0.53843 0.64732 -0.16659
 C570 C 0.29793 -0.11470 -0.40337
 C571 C 0.31774 -0.09848 -0.36192
 C572 C 0.32326 -0.11309 -0.31980
 C573 C 0.30838 -0.14431 -0.31903
 C574 C 0.28901 -0.16060 -0.36113
 C575 C 0.28383 -0.14597 -0.40431
 N576 N 0.34523 -0.09587 -0.28018
 N577 N 0.34671 -0.10691 -0.23468
 C578 C 0.36977 -0.09055 -0.19644
 C579 C 0.36626 -0.10075 -0.14244
 C580 C 0.38911 -0.08666 -0.10505
 C581 C 0.41620 -0.06250 -0.12155
 C582 C 0.41961 -0.05199 -0.17563
 C583 C 0.39644 -0.06574 -0.21274
 H584 H 0.29401 -0.10269 -0.43522
 H585 H 0.32900 -0.07444 -0.36285
 H586 H 0.31258 -0.15607 -0.28707
 H587 H 0.27901 -0.18454 -0.36086
 H588 H 0.34587 -0.11993 -0.12954
 H589 H 0.38592 -0.09538 -0.06372
 H590 H 0.44028 -0.03352 -0.18939
 H591 H 0.39969 -0.05767 -0.25453
 C592 C 0.59070 -0.10815 0.40011
 C593 C 0.58510 -0.09399 0.35733
 C594 C 0.56607 -0.11060 0.31510
 C595 C 0.55411 -0.14159 0.31412
 C596 C 0.55952 -0.15585 0.35720
 C597 C 0.57696 -0.13934 0.40171
 N598 N 0.55691 -0.09589 0.27738
 N599 N 0.54109 -0.10895 0.23592
 C600 C 0.53004 -0.09463 0.20147
 C601 C 0.51895 -0.10668 0.14986
 C602 C 0.50692 -0.09387 0.11634
 C603 C 0.50514 -0.06917 0.13465
 C604 C 0.51605 -0.05723 0.18666
 C605 C 0.52866 -0.06968 0.21965
 H606 H 0.60462 -0.09483 0.43342
 H607 H 0.59455 -0.07009 0.35839
 H608 H 0.53929 -0.15490 0.28184
 H609 H 0.54847 -0.17989 0.35750
 H610 H 0.51965 -0.12605 0.13562
 H611 H 0.49854 -0.10357 0.07647
 H612 H 0.51503 -0.03815 0.20159
 H613 H 0.53679 -0.06019 0.25973
 C614 C 0.29281 0.46240 0.34439
 C615 C 0.30830 0.46487 0.29615
 C616 C 0.32789 0.45423 0.29395
 C617 C 0.33149 0.44055 0.34059
 C618 C 0.31625 0.43838 0.38915
 C619 C 0.29694 0.44953 0.39165
 N620 N 0.34536 0.45953 0.24552
 N621 N 0.36153 0.44808 0.23886
 C622 C 0.38099 0.45518 0.19294
 C623 C 0.39757 0.44115 0.18856
 C624 C 0.41998 0.45062 0.14963
 C625 C 0.42634 0.47454 0.11443
 C626 C 0.40843 0.48735 0.11644
 C627 C 0.38590 0.47777 0.15550
 H628 H 0.27834 0.47151 0.34535
 H629 H 0.30551 0.47566 0.26070
 H630 H 0.34666 0.43230 0.34001
 H631 H 0.31971 0.42824 0.42487
 H632 H 0.39398 0.42371 0.21708
 H633 H 0.43327 0.44015 0.14897
 H634 H 0.41280 0.50580 0.08990
 H635 H 0.37332 0.48894 0.15808
 C636 C 1.16668 0.69063 0.39443
 C637 C 1.15556 0.67060 0.35072
 C638 C 1.12533 0.65279 0.34348
 C639 C 1.10616 0.65553 0.37996
 C640 C 1.11722 0.67593 0.42310
 C641 C 1.14765 0.69363 0.43117
 N642 N 1.11470 0.63254 0.29826
 N643 N 1.08817 0.61169 0.29501
 C644 C 1.07782 0.59227 0.24852
 C645 C 1.05093 0.56571 0.25179
 C646 C 1.04051 0.54634 0.20689
 C647 C 1.05664 0.55368 0.15763
 C648 C 1.08345 0.58056 0.15438
 C649 C 1.09404 0.59957 0.19946
 H650 H 1.19017 0.70338 0.39983
 H651 H 1.17054 0.66865 0.32278
 H652 H 1.08269 0.64224 0.37467
 H653 H 1.10190 0.67801 0.44983
 H654 H 1.03817 0.55989 0.28935
 H655 H 1.01978 0.52582 0.21053
 H656 H 1.09640 0.58685 0.11702
 H657 H 1.11475 0.62010 0.19578
 C658 C 0.47226 0.18467 0.36910
 C659 C 0.47699 0.17395 0.31970
 C660 C 0.46081 0.14363 0.30740
 C661 C 0.43958 0.12406 0.34502
 C662 C 0.43521 0.13467 0.39480
 C663 C 0.45164 0.16504 0.40737
 N664 N 0.46747 0.13282 0.25846
 N665 N 0.45038 0.10659 0.24129
 C666 C 0.45719 0.09380 0.19558
 C667 C 0.43596 0.06549 0.17833
 C668 C 0.44290 0.05008 0.13993
 C669 C 0.47143 0.06271 0.11821
 C670 C 0.49235 0.09191 0.13304
 C671 C 0.48528 0.10741 0.17160
 H672 H 0.48537 0.20815 0.37829
 H673 H 0.49355 0.18922 0.29131
 H674 H 0.42697 0.10046 0.33667
 H675 H 0.41921 0.11918 0.42374
 H676 H 0.41428 0.05480 0.19656
 H677 H 0.42623 0.02768 0.12920
 H678 H 0.51451 0.10212 0.11716
 H679 H 0.50209 0.12930 0.18457
 C680 C 0.72771 0.55322 0.32432
 C681 C 0.71371 0.55119 0.27468
 C682 C 0.69901 0.56698 0.26694
 C683 C 0.69984 0.58621 0.30844
 C684 C 0.71375 0.58820 0.35813
 C685 C 0.72706 0.57103 0.36719
 N686 N 0.68068 0.56047 0.21985
 N687 N 0.66609 0.57345 0.21131
 C688 C 0.64507 0.56467 0.16816
 C689 C 0.62855 0.57877 0.16408
 C690 C 0.60411 0.56722 0.12998
 C691 C 0.59579 0.54125 0.09933
 C692 C 0.61371 0.52843 0.10030
 C693 C 0.63815 0.54000 0.13459
 H694 H 0.73756 0.53954 0.33027
 H695 H 0.71308 0.53616 0.24319
 H696 H 0.68863 0.59866 0.30348
 H697 H 0.71325 0.60237 0.39023
 H698 H 0.63364 0.59777 0.18974
 H699 H 0.59086 0.57773 0.12988
 H700 H 0.60791 0.50848 0.07703
 H701 H 0.65065 0.52875 0.13695
 C702 C 0.80740 0.30574 0.36207
 C703 C 0.81721 0.32083 0.31203
 C704 C 0.84440 0.32733 0.29026
 C705 C 0.86169 0.31841 0.31903
 C706 C 0.85214 0.30378 0.36925
 C707 C 0.82503 0.29749 0.39140
 N708 N 0.85491 0.34439 0.24077
 N709 N 0.87768 0.34751 0.21645
 C710 C 0.89059 0.36624 0.16964
 C711 C 0.91546 0.36766 0.14613
 C712 C 0.93146 0.38878 0.10599
 C713 C 0.92283 0.40893 0.08868
 C714 C 0.89687 0.40641 0.10990
 C715 C 0.88081 0.38519 0.15030
 H716 H 0.78646 0.30119 0.37857
 H717 H 0.80376 0.32773 0.29048
 H718 H 0.88289 0.32333 0.30336
 H719 H 0.86596 0.29740 0.39098
 H720 H 0.92320 0.35322 0.16078
 H721 H 0.95138 0.39022 0.09032
 H722 H 0.88985 0.42181 0.09742
 H723 H 0.86164 0.38449 0.16806
   
