data_POSCAR
  _audit_creation_date              2014-09-24
  _audit_creation_method            'ToBaCCo'
  _symmetry_space_group_name_H-M    'P1'
  _symmetry_Int_Tables_number       1
  _symmetry_cell_setting            triclinic
  loop_
  _symmetry_equiv_pos_as_xyz
 x,y,z
_cell_length_a 31.9040
_cell_length_b 36.8207
_cell_length_c 27.7504
_cell_angle_alpha 89.964800
_cell_angle_beta 89.568100
_cell_angle_gamma 89.962600
loop_
  _atom_site_label
  _atom_site_type_symbol
  _atom_site_fract_x
  _atom_site_fract_y
  _atom_site_fract_z
C1 C 0.28136 0.28777 0.22425
 C2 C 0.25025 0.26869 0.24979
 C3 C 0.21922 0.28787 0.27533
 C4 C 0.21956 0.32590 0.27572
 C5 C 0.25040 0.34481 0.24980
 C6 C 0.28117 0.32580 0.22387
 C7 C 0.25017 0.22873 0.24980
 C8 C 0.28155 0.20954 0.27419
 C9 C 0.28120 0.17150 0.27467
 C10 C 0.24996 0.15260 0.24992
 C11 C 0.21882 0.17164 0.22512
 C12 C 0.21868 0.20968 0.22547
 H13 H 0.30520 0.27302 0.20423
 H14 H 0.19532 0.27319 0.29535
 H15 H 0.30575 0.22420 0.29331
 H16 H 0.19455 0.22446 0.20633
 H17 H 0.25046 0.37427 0.24981
 H18 H 0.24988 0.12314 0.24998
 C19 C 0.78081 0.78943 0.22413
 C20 C 0.74995 0.77026 0.24992
 C21 C 0.71903 0.78930 0.27578
 C22 C 0.71919 0.82736 0.27626
 C23 C 0.74981 0.84640 0.25006
 C24 C 0.78050 0.82749 0.22379
 C25 C 0.75005 0.73030 0.24989
 C26 C 0.78135 0.71120 0.27457
 C27 C 0.78120 0.67317 0.27494
 C28 C 0.75025 0.65417 0.24985
 C29 C 0.71920 0.67312 0.22478
 C30 C 0.71886 0.71115 0.22519
 H31 H 0.80454 0.77466 0.20392
 H32 H 0.69536 0.77444 0.29596
 H33 H 0.80533 0.72594 0.29395
 H34 H 0.69480 0.72585 0.20584
 H35 H 0.74976 0.87590 0.25011
 H36 H 0.75033 0.62471 0.24984
 C37 C 0.78089 0.28780 0.72560
 C38 C 0.74988 0.26873 0.75129
 C39 C 0.71888 0.28789 0.77689
 C40 C 0.71914 0.32596 0.77720
 C41 C 0.74993 0.34486 0.75109
 C42 C 0.78065 0.32583 0.72512
 C43 C 0.74988 0.22877 0.75136
 C44 C 0.78120 0.20964 0.77595
 C45 C 0.78099 0.17157 0.77637
 C46 C 0.74990 0.15262 0.75136
 C47 C 0.71884 0.17163 0.72639
 C48 C 0.71858 0.20967 0.72679
 H49 H 0.80470 0.27305 0.70554
 H50 H 0.69508 0.27313 0.79699
 H51 H 0.80524 0.22444 0.79518
 H52 H 0.69452 0.22440 0.70749
 H53 H 0.75004 0.37434 0.75093
 H54 H 0.74982 0.12315 0.75127
 C55 C 0.28169 0.78890 0.72413
 C56 C 0.25061 0.76976 0.74964
 C57 C 0.21948 0.78886 0.77509
 C58 C 0.21966 0.82689 0.77545
 C59 C 0.25046 0.84590 0.74956
 C60 C 0.28137 0.82696 0.72368
 C61 C 0.25065 0.72980 0.74965
 C62 C 0.28213 0.71067 0.77398
 C63 C 0.28190 0.67263 0.77440
 C64 C 0.25070 0.65366 0.74967
 C65 C 0.21948 0.67265 0.72494
 C66 C 0.21921 0.71068 0.72533
 H67 H 0.30557 0.77411 0.70419
 H68 H 0.19561 0.77413 0.79507
 H69 H 0.30630 0.72538 0.79308
 H70 H 0.19502 0.72541 0.70623
 H71 H 0.25030 0.87538 0.74961
 H72 H 0.25072 0.62421 0.74968
 C73 C 0.05617 0.05634 0.01854
 H74 H 0.05668 0.05832 -0.02036
 C75 C 0.08188 0.07885 0.04595
 H76 H 0.10238 0.09819 0.02817
 C77 C 0.02911 0.02852 0.08934
 H78 H 0.00829 0.00912 0.10616
 C79 C 0.05433 0.05054 0.11811
 H80 H 0.05316 0.04774 0.15696
 N81 N 0.03109 0.03130 0.04044
 C82 C 0.01666 -0.05428 -0.06707
 H83 H -0.01712 -0.05607 -0.06919
 C84 C 0.04180 -0.07713 -0.09527
 H85 H 0.02742 -0.09652 -0.11938
 C86 C 0.07686 -0.02708 -0.03282
 H87 H 0.09050 -0.00799 -0.00796
 C88 C 0.10308 -0.04940 -0.06030
 H89 H 0.13678 -0.04709 -0.05689
 Zn90 Zn -0.00120 0.00088 0.00008
 N91 N 0.03447 -0.02947 -0.03717
 C92 C -0.03147 0.02882 -0.08908
 N93 N -0.03352 0.03143 -0.04017
 C94 C -0.05865 0.05641 -0.01821
 C95 C -0.08431 0.07905 -0.04556
 C96 C -0.05664 0.05097 -0.11780
 C97 C -0.01892 -0.05447 0.06702
 C98 C -0.04399 -0.07740 0.09521
 C99 C -0.10536 -0.04955 0.06047
 C100 C -0.07920 -0.02716 0.03300
 N101 N -0.03681 -0.02958 0.03725
 H102 H -0.01061 0.00947 -0.10595
 H103 H -0.05921 0.05825 0.02070
 H104 H -0.10484 0.09834 -0.02774
 H105 H -0.05540 0.04832 -0.15666
 H106 H 0.01487 -0.05629 0.06907
 H107 H -0.02954 -0.09685 0.11923
 H108 H -0.13907 -0.04721 0.05716
 H109 H -0.09290 -0.00799 0.00825
 C110 C 0.08542 -0.07449 -0.09199
 C111 C 0.08122 0.07567 0.09616
 C112 C -0.08761 -0.07473 0.09204
 C113 C -0.08356 0.07606 -0.09579
 C114 C 0.05741 0.55648 0.51861
 H115 H 0.05791 0.55838 0.47970
 C116 C 0.08306 0.57909 0.54594
 H117 H 0.10351 0.59843 0.52809
 C118 C 0.03039 0.52877 0.58950
 H119 H 0.00959 0.50938 0.60638
 C120 C 0.05554 0.55089 0.61819
 H121 H 0.05436 0.54819 0.65705
 N122 N 0.03236 0.53146 0.54059
 C123 C 0.01756 0.44576 0.43338
 H124 H -0.01624 0.44402 0.43142
 C125 C 0.04254 0.42276 0.40521
 H126 H 0.02803 0.40332 0.38128
 C127 C 0.07794 0.47295 0.46722
 H128 H 0.09171 0.49209 0.49191
 C129 C 0.10402 0.45048 0.43976
 H130 H 0.13774 0.45273 0.44301
 Zn131 Zn 0.00000 0.50101 0.50037
 N132 N 0.03554 0.47061 0.46307
 C133 C -0.03029 0.52896 0.41125
 N134 N -0.03237 0.53154 0.46016
 C135 C -0.05748 0.55653 0.48213
 C136 C -0.08307 0.57922 0.45477
 C137 C -0.05538 0.55116 0.38253
 C138 C -0.01748 0.44565 0.56728
 C139 C -0.04243 0.42260 0.59542
 C140 C -0.10395 0.45040 0.56093
 C141 C -0.07791 0.47292 0.53350
 N142 N -0.03550 0.47057 0.53764
 H143 H -0.00943 0.50959 0.39438
 H144 H -0.05806 0.55835 0.52104
 H145 H -0.10357 0.59855 0.47259
 H146 H -0.05410 0.54855 0.34367
 H147 H 0.01631 0.44390 0.56924
 H148 H -0.02789 0.40312 0.61931
 H149 H -0.13767 0.45266 0.55769
 H150 H -0.09170 0.49211 0.50885
 C151 C 0.08617 0.42531 0.40830
 C152 C 0.08237 0.57603 0.59616
 C153 C -0.08607 0.42516 0.59233
 C154 C -0.08227 0.57628 0.40454
 C155 C 0.55772 0.05548 0.51892
 H156 H 0.55840 0.05737 0.48001
 C157 C 0.58326 0.07811 0.54638
 H158 H 0.60380 0.09744 0.52863
 C159 C 0.53039 0.02782 0.58969
 H160 H 0.50951 0.00845 0.60648
 C161 C 0.55542 0.04996 0.61850
 H162 H 0.55406 0.04728 0.65736
 N163 N 0.53258 0.03047 0.54079
 C164 C 0.51830 -0.05527 0.43347
 H165 H 0.48452 -0.05708 0.43137
 C166 C 0.54344 -0.07811 0.40525
 H167 H 0.52905 -0.09751 0.38116
 C168 C 0.57850 -0.02799 0.46761
 H169 H 0.59214 -0.00886 0.49241
 C170 C 0.60472 -0.05031 0.44011
 H171 H 0.63843 -0.04796 0.44345
 Zn172 Zn 0.50039 -0.00003 0.50042
 N173 N 0.53611 -0.03042 0.46330
 C174 C 0.47029 0.02777 0.41111
 N175 N 0.46814 0.03045 0.46000
 C176 C 0.44296 0.05545 0.48184
 C177 C 0.41732 0.07803 0.45435
 C178 C 0.44515 0.04986 0.38227
 C179 C 0.48254 -0.05526 0.56749
 C180 C 0.45741 -0.07813 0.59568
 C181 C 0.39612 -0.05037 0.56065
 C182 C 0.42233 -0.02803 0.53318
 N183 N 0.46472 -0.03043 0.53758
 H184 H 0.49119 0.00840 0.39434
 H185 H 0.44232 0.05736 0.52074
 H186 H 0.39675 0.09735 0.47208
 H187 H 0.44647 0.04715 0.34341
 H188 H 0.51632 -0.05706 0.56966
 H189 H 0.47180 -0.09753 0.61982
 H190 H 0.36241 -0.04804 0.55722
 H191 H 0.40869 -0.00891 0.50831
 C192 C 0.58705 -0.07543 0.40845
 C193 C 0.58236 0.07508 0.59660
 C194 C 0.41379 -0.07548 0.59237
 C195 C 0.41817 0.07496 0.40414
 C196 C 0.55856 0.55611 0.01762
 H197 H 0.55920 0.55791 -0.02129
 C198 C 0.58408 0.57883 0.04497
 H199 H 0.60457 0.59814 0.02713
 C200 C 0.53129 0.52860 0.08853
 H201 H 0.51043 0.50926 0.10541
 C202 C 0.55630 0.55084 0.11723
 H203 H 0.55496 0.54826 0.15610
 N204 N 0.53344 0.53115 0.03962
 C205 C 0.51871 0.44523 -0.06734
 H206 H 0.48492 0.44353 -0.06936
 C207 C 0.54370 0.42212 -0.09534
 H208 H 0.52919 0.40263 -0.11921
 C209 C 0.57909 0.47243 -0.03349
 H210 H 0.59284 0.49162 -0.00886
 C211 C 0.60517 0.44985 -0.06079
 H212 H 0.63889 0.45206 -0.05747
 Zn213 Zn 0.50113 0.50064 -0.00058
 N214 N 0.53668 0.47014 -0.03772
 C215 C 0.47084 0.52842 -0.08982
 N216 N 0.46882 0.53111 -0.04092
 C217 C 0.44377 0.55617 -0.01900
 C218 C 0.41817 0.57883 -0.04640
 C219 C 0.44574 0.55059 -0.11858
 C220 C 0.48349 0.44542 0.06650
 C221 C 0.45846 0.42244 0.09465
 C222 C 0.39704 0.45020 0.05990
 C223 C 0.42315 0.47265 0.03247
 N224 N 0.46555 0.47028 0.03672
 H225 H 0.49164 0.50899 -0.10664
 H226 H 0.44323 0.55807 0.01990
 H227 H 0.39771 0.59821 -0.02861
 H228 H 0.44695 0.54789 -0.15744
 H229 H 0.51728 0.44365 0.06855
 H230 H 0.47294 0.40299 0.11865
 H231 H 0.36332 0.45247 0.05656
 H232 H 0.40942 0.49180 0.00771
 C233 C 0.58733 0.42461 -0.09215
 C234 C 0.58318 0.57594 0.09520
 C235 C 0.41484 0.42501 0.09144
 C236 C 0.41890 0.57578 -0.09662
 C237 C 0.18889 -0.15339 -0.19681
 C238 C 0.16391 -0.13626 -0.17324
 C239 C 0.13559 -0.11549 -0.14529
 C240 C 0.11224 -0.09714 -0.12114
 C241 C 0.18894 0.34573 0.30354
 C242 C 0.16411 0.36299 0.32713
 C243 C 0.13600 0.38396 0.35509
 C244 C 0.11282 0.40248 0.37921
 C245 C 0.69026 -0.15402 0.30287
 C246 C 0.66537 -0.13698 0.32669
 C247 C 0.63715 -0.11629 0.35488
 C248 C 0.61385 -0.09801 0.37919
 C249 C 0.69018 0.34475 -0.19647
 C250 C 0.66531 0.36203 -0.17292
 C251 C 0.63717 0.38305 -0.14508
 C252 C 0.61398 0.40166 -0.12107
 C253 C -0.18964 0.15292 -0.19820
 C254 C -0.16426 0.13599 -0.17533
 C255 C -0.13534 0.11566 -0.14810
 C256 C -0.11134 0.09785 -0.12446
 C257 C -0.18782 0.65347 0.30189
 C258 C -0.16256 0.63650 0.32486
 C259 C -0.13379 0.61607 0.35217
 C260 C -0.10992 0.59818 0.37585
 C261 C 0.31225 0.15175 0.30144
 C262 C 0.33758 0.13480 0.32432
 C263 C 0.36646 0.11447 0.35162
 C264 C 0.39043 0.09669 0.37535
 C265 C 0.31303 0.65291 -0.19891
 C266 C 0.33840 0.63592 -0.17612
 C267 C 0.36727 0.61550 -0.14894
 C268 C 0.39121 0.59763 -0.12532
 C269 C -0.19062 -0.15377 0.19727
 C270 C -0.16577 -0.13661 0.17354
 C271 C -0.13759 -0.11581 0.14546
 C272 C -0.11435 -0.09742 0.12123
 C273 C -0.18873 0.34556 0.69719
 C274 C -0.16391 0.36279 0.67353
 C275 C -0.13583 0.38375 0.64554
 C276 C -0.11268 0.40229 0.62141
 C277 C 0.31040 -0.15433 0.69734
 C278 C 0.33537 -0.13721 0.67372
 C279 C 0.36366 -0.11646 0.64573
 C280 C 0.38699 -0.09812 0.62154
 C281 C 0.31186 0.34555 0.19608
 C282 C 0.33675 0.36277 0.17250
 C283 C 0.36492 0.38369 0.14459
 C284 C 0.38815 0.40219 0.12049
 C285 C 0.18764 0.15203 0.19845
 C286 C 0.16218 0.13519 0.17567
 C287 C 0.13317 0.11498 0.14849
 C288 C 0.10909 0.09730 0.12486
 C289 C 0.18836 0.65295 0.69828
 C290 C 0.16299 0.63601 0.67551
 C291 C 0.13409 0.61565 0.64837
 C292 C 0.11012 0.59782 0.62479
 C293 C 0.68786 0.15196 0.69946
 C294 C 0.66261 0.13503 0.67649
 C295 C 0.63385 0.11469 0.64913
 C296 C 0.60998 0.09687 0.62539
 C297 C 0.68833 0.65337 0.19782
 C298 C 0.66316 0.63634 0.17486
 C299 C 0.63450 0.61584 0.14756
 C300 C 0.61072 0.59789 0.12388
   
