data_POSCAR
  _audit_creation_date              2014-09-24
  _audit_creation_method            'ToBaCCo'
  _symmetry_space_group_name_H-M    'P1'
  _symmetry_Int_Tables_number       1
  _symmetry_cell_setting            triclinic
  loop_
  _symmetry_equiv_pos_as_xyz
 x,y,z
_cell_length_a 53.4288
_cell_length_b 53.3876
_cell_length_c 53.6429
_cell_angle_alpha 89.980000
_cell_angle_beta 90.007400
_cell_angle_gamma 89.983700
loop_
  _atom_site_label
  _atom_site_type_symbol
  _atom_site_fract_x
  _atom_site_fract_y
  _atom_site_fract_z
C1 C 0.16361 0.18240 0.19904
 C2 C 0.16343 0.20071 0.18026
 C3 C 0.18183 0.20066 0.16216
 C4 C 0.20061 0.18232 0.16254
 C5 C 0.20076 0.16435 0.18097
 C6 C 0.18208 0.16437 0.19936
 C7 C 0.14794 0.17764 0.21881
 N8 N 0.15629 0.15698 0.23138
 C9 C 0.17732 0.14889 0.21929
 C10 C 0.22071 0.14875 0.17631
 N11 N 0.23287 0.15666 0.15531
 C12 C 0.22040 0.17738 0.14695
 C13 C 0.17679 0.22014 0.14615
 N14 N 0.15571 0.23206 0.15400
 C15 C 0.14746 0.22022 0.17492
 H16 H 0.13140 0.18846 0.22306
 H17 H 0.18883 0.13308 0.22440
 H18 H 0.22531 0.13251 0.18742
 H19 H 0.22503 0.18847 0.13076
 H20 H 0.18787 0.22528 0.13006
 H21 H 0.13074 0.22501 0.18525
 C22 C -0.16130 0.81917 0.20190
 C23 C -0.16136 0.80075 0.18327
 C24 C -0.17956 0.80105 0.16497
 C25 C -0.19799 0.81977 0.16507
 C26 C -0.19787 0.83790 0.18335
 C27 C -0.17935 0.83761 0.20191
 C28 C -0.14560 0.82382 0.22166
 N29 N -0.15349 0.84483 0.23391
 C30 C -0.17432 0.85321 0.22167
 C31 C -0.21757 0.85376 0.17860
 N32 N -0.22997 0.84581 0.15777
 C33 C -0.21781 0.82486 0.14952
 C34 C -0.17474 0.78132 0.14918
 N35 N -0.15403 0.76900 0.15743
 C36 C -0.14579 0.78083 0.17834
 H37 H -0.12929 0.81271 0.22605
 H38 H -0.18543 0.86940 0.22647
 H39 H -0.22232 0.86974 0.19000
 H40 H -0.22239 0.81400 0.13317
 H41 H -0.18528 0.77670 0.13258
 H42 H -0.12973 0.77534 0.18935
 C43 C -0.16472 0.17950 -0.20156
 C44 C -0.16488 0.19813 -0.18312
 C45 C -0.18286 0.19772 -0.16461
 C46 C -0.20098 0.17870 -0.16432
 C47 C -0.20076 0.16040 -0.18243
 C48 C -0.18246 0.16079 -0.20118
 C49 C -0.14915 0.17486 -0.22143
 N50 N -0.15685 0.15359 -0.23338
 C51 C -0.17741 0.14505 -0.22082
 C52 C -0.22013 0.14427 -0.17732
 N53 N -0.23243 0.15222 -0.15643
 C54 C -0.22054 0.17344 -0.14851
 C55 C -0.17817 0.21765 -0.14905
 N56 N -0.15776 0.23022 -0.15763
 C57 C -0.14958 0.21833 -0.17854
 H58 H -0.13310 0.18620 -0.22615
 H59 H -0.18831 0.12862 -0.22528
 H60 H -0.22475 0.12812 -0.18852
 H61 H -0.22512 0.18438 -0.13220
 H62 H -0.18858 0.22222 -0.13236
 H63 H -0.13374 0.22395 -0.18978
 C64 C 0.16493 0.81885 -0.20141
 C65 C 0.16415 0.80014 -0.18307
 C66 C 0.18179 0.79986 -0.16423
 C67 C 0.20050 0.81829 -0.16350
 C68 C 0.20120 0.83668 -0.18151
 C69 C 0.18325 0.83698 -0.20061
 C70 C 0.14989 0.82409 -0.22154
 N71 N 0.15848 0.84516 -0.23323
 C72 C 0.17906 0.85298 -0.22025
 C73 C 0.22095 0.85217 -0.17594
 N74 N 0.23258 0.84374 -0.15484
 C75 C 0.21989 0.82285 -0.14728
 C76 C 0.17617 0.77999 -0.14888
 N77 N 0.15553 0.76814 -0.15793
 C78 C 0.14812 0.78042 -0.17891
 H79 H 0.13356 0.81331 -0.22659
 H80 H 0.19056 0.86908 -0.22444
 H81 H 0.22624 0.86826 -0.18695
 H82 H 0.22382 0.81169 -0.13094
 H83 H 0.18612 0.77495 -0.13204
 H84 H 0.13233 0.77537 -0.19048
 C85 C 0.18313 1.16345 0.80047
 C86 C 0.20138 1.16349 0.81928
 C87 C 0.20114 1.18195 0.83732
 C88 C 0.18266 1.20059 0.83684
 C89 C 0.16469 1.20047 0.81843
 C90 C 0.16495 1.18176 0.80007
 C91 C 0.17856 1.14769 0.78072
 N92 N 0.15787 1.15583 0.76810
 C93 C 0.14957 1.17682 0.78013
 C94 C 0.14885 1.22025 0.82302
 N95 N 0.15664 1.23262 0.84394
 C96 C 0.17751 1.22043 0.85233
 C97 C 0.22062 1.17713 0.85337
 N98 N 0.23272 1.15611 0.84561
 C99 C 0.22100 1.14769 0.82470
 H100 H 0.18955 1.13124 0.77652
 H101 H 0.13365 1.18817 0.77499
 H102 H 0.13291 1.22495 0.81156
 H103 H 0.18818 1.22491 0.86884
 H104 H 0.22563 1.18830 0.86944
 H105 H 0.22594 1.13097 0.81442
 C106 C 0.81931 0.83876 0.79811
 C107 C 0.80062 0.83837 0.81646
 C108 C 0.80038 0.81956 0.83414
 C109 C 0.81883 0.80088 0.83373
 C110 C 0.83715 0.80124 0.81566
 C111 C 0.83738 0.82034 0.79767
 C112 C 0.82437 0.85496 0.77885
 N113 N 0.84523 0.84697 0.76643
 C114 C 0.85315 0.82563 0.77812
 C115 C 0.85277 0.78126 0.82017
 N116 N 0.84455 0.76859 0.84076
 C117 C 0.82360 0.78076 0.84898
 C118 C 0.78056 0.82417 0.84984
 N119 N 0.76873 0.84540 0.84217
 C120 C 0.78097 0.85416 0.82171
 H121 H 0.81318 0.87122 0.77446
 H122 H 0.86943 0.81462 0.77338
 H123 H 0.86925 0.77702 0.80931
 H124 H 0.81224 0.77569 0.86484
 H125 H 0.77514 0.81275 0.86560
 H126 H 0.77636 0.87112 0.81165
 C127 C 0.18155 0.83430 1.20151
 C128 C 0.19976 0.83437 1.18267
 C129 C 0.19907 0.81650 1.16406
 C130 C 0.18021 0.79824 1.16407
 C131 C 0.16234 0.79814 1.18269
 C132 C 0.16305 0.81633 1.20155
 C133 C 0.17714 0.84986 1.22144
 N134 N 0.15624 0.84193 1.23383
 C135 C 0.14769 0.82121 1.22152
 C136 C 0.14625 0.77864 1.17781
 N137 N 0.15387 0.76686 1.15665
 C138 C 0.17467 0.77883 1.14815
 C139 C 0.21863 0.82139 1.14813
 N140 N 0.23125 0.84183 1.15659
 C141 C 0.21974 0.84984 1.17776
 H142 H 0.18867 0.86577 1.22619
 H143 H 0.13113 0.81052 1.22597
 H144 H 0.13030 0.77335 1.18907
 H145 H 0.18484 0.77414 1.13134
 H146 H 0.22297 0.81107 1.13131
 H147 H 0.22553 0.86565 1.18898
 C148 C 0.81880 1.16386 1.20250
 C149 C 0.80039 1.16293 1.18388
 C150 C 0.80028 1.18056 1.16502
 C151 C 0.81853 1.19942 1.16455
 C152 C 0.83659 1.20037 1.18297
 C153 C 0.83670 1.18243 1.20208
 C154 C 0.82396 1.14870 1.22256
 N155 N 0.84476 1.15744 1.23458
 C156 C 0.85246 1.17828 1.22192
 C157 C 0.85197 1.22032 1.17763
 N158 N 0.84374 1.23154 1.15637
 C159 C 0.82325 1.21877 1.14829
 C160 C 0.78069 1.17482 1.14940
 N161 N 0.76881 1.15413 1.15832
 C162 C 0.78084 1.14677 1.17945
 H163 H 0.81302 1.13248 1.22763
 H164 H 0.86873 1.18955 1.22602
 H165 H 0.86785 1.22628 1.18864
 H166 H 0.81276 1.22285 1.13152
 H167 H 0.77581 1.18478 1.13252
 H168 H 0.77568 1.13098 1.19099
 O169 O 0.46521 1.04390 1.04527
 O170 O 0.43788 1.01945 1.02309
 C171 C 0.44272 1.03706 1.03901
 O172 O 0.53541 1.04159 0.95604
 O173 O 0.56285 1.01904 0.98005
 C174 C 0.55793 1.03510 0.96260
 O175 O 0.46496 1.04398 0.95875
 O176 O 0.43772 1.01983 0.98140
 C177 C 0.44251 1.03729 0.96529
 O178 O 0.53565 1.04157 1.04747
 O179 O 0.56298 1.01905 1.02333
 C180 C 0.55814 1.03510 1.04080
 Zr181 Zr 0.50043 1.03003 1.03328
 O182 O 0.50323 1.06958 1.03259
 O183 O 0.49771 1.03059 1.07264
 Zr184 Zr 0.50024 1.02981 0.97022
 O185 O 0.50303 1.06936 0.97000
 O186 O 0.49725 1.02954 0.93087
 O187 O 0.47800 1.03478 1.00180
 O188 O 0.52206 1.03456 1.00169
 O189 O 0.53583 0.95486 1.04743
 O190 O 0.56302 0.97719 1.02297
 C191 C 0.55828 0.96126 1.04058
 O192 O 0.46513 0.95233 0.95873
 O193 O 0.43785 0.97679 0.98096
 C194 C 0.44265 0.95917 0.96505
 O195 O 0.53564 0.95483 0.95632
 O196 O 0.56299 0.97780 0.98004
 C197 C 0.55812 0.96158 0.96272
 O198 O 0.46531 0.95248 1.04528
 O199 O 0.43789 0.97629 1.02245
 C200 C 0.44280 0.95894 1.03863
 Zr201 Zr 0.50054 0.96658 1.03348
 O202 O 0.50343 0.92703 1.03348
 O203 O 0.49782 0.96670 1.07285
 Zr204 Zr 0.50038 0.96640 0.97047
 O205 O 0.50330 0.92685 0.97092
 O206 O 0.49752 0.96604 0.93111
 Zr207 Zr 0.46327 0.99814 1.00195
 Zr208 Zr 0.53751 0.99832 1.00179
 O209 O 0.52220 0.96200 1.00192
 O210 O 0.47814 0.96156 1.00203
 O211 O 0.52277 0.99835 1.03824
 O212 O 0.47861 0.99807 0.96582
 O213 O 0.47881 0.99826 1.03800
 O214 O 0.52256 0.99814 0.96541
 H215 H 0.53347 1.04919 1.00165
 H216 H 0.46724 0.99809 0.95123
 H217 H 0.53361 0.94736 1.00186
 H218 H 0.46752 0.99819 1.05265
 H219 H 0.51137 1.01953 0.92432
 H220 H 0.51112 0.97670 0.92451
 H221 H 0.48899 0.92032 0.98065
 H222 H 0.48942 0.92045 1.02338
 H223 H 0.51193 0.97677 1.07933
 H224 H 0.51101 1.01953 1.07922
 H225 H 0.48859 1.07607 1.02332
 H226 H 0.48939 1.07594 0.98060
 O227 O 0.04340 0.46449 -0.04572
 O228 O 0.01887 0.43721 -0.02354
 C229 C 0.03649 0.44201 -0.03945
 O230 O 0.04130 0.53489 0.04326
 O231 O 0.01927 0.56237 0.01882
 C232 C 0.03513 0.55743 0.03644
 O233 O 0.04343 0.46440 0.04074
 O234 O 0.01920 0.43713 0.01821
 C235 C 0.03666 0.44192 0.03431
 O236 O 0.04125 0.53502 -0.04807
 O237 O 0.01880 0.56247 -0.02397
 C238 C 0.03488 0.55756 -0.04140
 Zr239 Zr 0.02953 0.49978 -0.03392
 O240 O 0.06906 0.50246 -0.03359
 O241 O 0.02978 0.49699 -0.07328
 Zr242 Zr 0.02952 0.49975 0.02904
 O243 O 0.06905 0.50246 0.02875
 O244 O 0.02974 0.49686 0.06840
 O245 O 0.03429 0.47736 -0.00244
 O246 O 0.03417 0.52150 -0.00243
 O247 O -0.04518 0.53542 -0.04817
 O248 O -0.02248 0.56267 -0.02408
 C249 C -0.03856 0.55790 -0.04155
 O250 O -0.04788 0.46484 0.04106
 O251 O -0.02374 0.43738 0.01868
 C252 C -0.04119 0.44231 0.03473
 O253 O -0.04545 0.53528 0.04317
 O254 O -0.02319 0.56256 0.01873
 C255 C -0.03911 0.55776 0.03633
 O256 O -0.04786 0.46485 -0.04601
 O257 O -0.02376 0.43740 -0.02354
 C258 C -0.04121 0.44232 -0.03960
 Zr259 Zr -0.03376 0.50004 -0.03407
 O260 O -0.07327 0.50301 -0.03394
 O261 O -0.03381 0.49729 -0.07344
 Zr262 Zr -0.03394 0.50003 0.02896
 O263 O -0.07346 0.50297 0.02823
 O264 O -0.03453 0.49731 0.06833
 Zr265 Zr -0.00236 0.46271 -0.00243
 Zr266 Zr -0.00202 0.53707 -0.00241
 O267 O -0.03833 0.52180 -0.00256
 O268 O -0.03888 0.47767 -0.00255
 O269 O -0.00202 0.52222 -0.03884
 O270 O -0.00229 0.47824 0.03362
 O271 O -0.00220 0.47821 -0.03852
 O272 O -0.00213 0.52218 0.03398
 H273 H 0.04888 0.53280 -0.00246
 H274 H -0.00227 0.46695 0.04829
 H275 H -0.05293 0.53324 -0.00264
 H276 H -0.00222 0.46697 -0.05322
 H277 H 0.01922 0.51059 0.07498
 H278 H -0.02347 0.51061 0.07490
 H279 H -0.07997 0.48835 0.01895
 H280 H -0.07985 0.48892 -0.02393
 H281 H -0.02338 0.51112 -0.07996
 H282 H 0.01932 0.51078 -0.07986
 H283 H 0.07553 0.48815 -0.02380
 H284 H 0.07554 0.48820 0.01891
 O285 O 1.04619 -0.04450 0.46484
 O286 O 1.02397 -0.01995 0.43764
 C287 C 1.03987 -0.03766 0.44245
 O288 O 0.95702 -0.04167 0.53508
 O289 O 0.98129 -0.01918 0.56228
 C290 C 0.96371 -0.03519 0.55747
 O291 O 0.95932 -0.04410 0.46491
 O292 O 0.98212 -0.02018 0.43765
 C293 C 0.96588 -0.03754 0.44250
 O294 O 1.04864 -0.04216 0.53497
 O295 O 1.02478 -0.01932 0.56225
 C296 C 1.04215 -0.03556 0.55738
 Zr297 Zr 1.03448 -0.03039 0.49991
 O298 O 1.03406 -0.06994 0.50275
 O299 O 1.07399 -0.03070 0.49705
 Zr300 Zr 0.97112 -0.02997 0.49997
 O301 O 0.97078 -0.06952 0.50281
 O302 O 0.93159 -0.02952 0.49717
 O303 O 1.00274 -0.03511 0.47774
 O304 O 1.00281 -0.03481 0.52157
 O305 O 1.04901 0.04474 0.53499
 O306 O 1.02450 0.02250 0.56219
 C307 C 1.04217 0.03841 0.55739
 O308 O 0.95983 0.04758 0.46494
 O309 O 0.98225 0.02332 0.43767
 C310 C 0.96624 0.04090 0.44253
 O311 O 0.95746 0.04501 0.53514
 O312 O 0.98143 0.02214 0.56234
 C313 C 0.96401 0.03835 0.55753
 O314 O 1.04652 0.04708 0.46473
 O315 O 1.02361 0.02312 0.43758
 C316 C 1.03987 0.04049 0.44234
 Zr317 Zr 1.03485 0.03300 0.49990
 O318 O 1.03507 0.07255 0.50270
 O319 O 1.07436 0.03264 0.49702
 Zr320 Zr 0.97157 0.03340 0.50000
 O321 O 0.97206 0.07295 0.50291
 O322 O 0.93205 0.03385 0.49722
 Zr323 Zr 1.00292 0.00148 0.46296
 Zr324 Zr 1.00308 0.00144 0.53692
 O325 O 1.00325 0.03774 0.52159
 O326 O 1.00319 0.03808 0.47773
 O327 O 1.03962 0.00127 0.52211
 O328 O 0.96671 0.00175 0.47836
 O329 O 1.03918 0.00129 0.47829
 O330 O 0.96649 0.00172 0.52218
 H331 H 1.00276 -0.04944 0.53294
 H332 H 0.95206 0.00183 0.46702
 H333 H 1.00327 0.05240 0.53291
 H334 H 1.05384 0.00127 0.46697
 H335 H 0.92512 -0.01954 0.51129
 H336 H 0.92542 0.02327 0.51083
 H337 H 0.98196 0.07946 0.48874
 H338 H 1.02479 0.07917 0.48885
 H339 H 1.08088 0.02262 0.51110
 H340 H 1.08063 -0.02025 0.51075
 H341 H 1.02405 -0.07643 0.48865
 H342 H 0.98122 -0.07616 0.48910
 C343 C 1.12275 0.12377 0.29458
 C344 C 1.11399 0.14672 0.28532
 C345 C 1.12509 0.15777 0.26445
 C346 C 1.14546 0.14624 0.25210
 C347 C 1.15422 0.12320 0.26180
 C348 C 1.14301 0.11219 0.28263
 C349 C 1.11063 0.11181 0.31649
 C350 C 1.10629 0.08585 0.31685
 C351 C 1.09472 0.07458 0.33734
 C352 C 1.08726 0.08899 0.35796
 C353 C 1.09169 0.11494 0.35766
 C354 C 1.10320 0.12623 0.33713
 C355 C 1.07484 0.07694 0.37965
 C356 C 1.08104 0.08395 0.40414
 C357 C 1.06963 0.07225 0.42451
 C358 C 1.05171 0.05332 0.42084
 C359 C 1.04535 0.04651 0.39631
 C360 C 1.05679 0.05817 0.37598
 H361 H 1.09823 0.15601 0.29402
 H362 H 1.11754 0.17551 0.25841
 H363 H 1.16953 0.11313 0.25335
 H364 H 1.15038 0.09460 0.28951
 H365 H 1.11156 0.07428 0.30114
 H366 H 1.09182 0.05451 0.33713
 H367 H 1.08595 0.12656 0.37318
 H368 H 1.10651 0.14624 0.33749
 H369 H 1.09506 0.09818 0.40756
 H370 H 1.07499 0.07794 0.44314
 H371 H 1.03155 0.03209 0.39274
 H372 H 1.05134 0.05263 0.35734
 C373 C 0.88117 -0.12152 0.29625
 C374 C 0.88947 -0.14474 0.28728
 C375 C 0.87797 -0.15597 0.26673
 C376 C 0.85765 -0.14431 0.25440
 C377 C 0.84933 -0.12100 0.26382
 C378 C 0.86094 -0.10983 0.28433
 C379 C 0.89370 -0.10942 0.31783
 C380 C 0.89839 -0.08352 0.31778
 C381 C 0.91031 -0.07212 0.33800
 C382 C 0.91777 -0.08636 0.35876
 C383 C 0.91303 -0.11225 0.35884
 C384 C 0.90117 -0.12366 0.33859
 C385 C 0.93039 -0.07419 0.38024
 C386 C 0.92423 -0.08092 0.40482
 C387 C 0.93583 -0.06916 0.42503
 C388 C 0.95389 -0.05041 0.42112
 C389 C 0.96020 -0.04385 0.39651
 C390 C 0.94858 -0.05559 0.37633
 H391 H 0.90519 -0.15413 0.29596
 H392 H 0.88520 -0.17390 0.26092
 H393 H 0.83406 -0.11085 0.25539
 H394 H 0.85390 -0.09203 0.29101
 H395 H 0.89311 -0.07208 0.30196
 H396 H 0.91345 -0.05209 0.33750
 H397 H 0.91876 -0.12375 0.37447
 H398 H 0.89760 -0.14362 0.33928
 H399 H 0.91009 -0.09499 0.40843
 H400 H 0.93048 -0.07466 0.44372
 H401 H 0.97411 -0.02958 0.39278
 H402 H 0.95399 -0.05025 0.35762
 C403 C 0.87745 0.11978 0.70415
 C404 C 0.85726 0.10816 0.71617
 C405 C 0.84579 0.11936 0.73675
 C406 C 0.85421 0.14266 0.74612
 C407 C 0.87451 0.15423 0.73370
 C408 C 0.88588 0.14296 0.71310
 C409 C 0.88978 0.10769 0.68245
 C410 C 0.89720 0.12199 0.66172
 C411 C 0.90896 0.11062 0.64139
 C412 C 0.91362 0.08471 0.64133
 C413 C 0.90615 0.07040 0.66203
 C414 C 0.89434 0.08176 0.68235
 C415 C 0.92635 0.07268 0.61983
 C416 C 0.94462 0.05414 0.62371
 C417 C 0.95678 0.04297 0.60351
 C418 C 0.95094 0.05007 0.57893
 C419 C 0.93257 0.06854 0.57506
 C420 C 0.92044 0.07972 0.59528
 H421 H 0.85012 0.09040 0.70951
 H422 H 0.83050 0.10928 0.74519
 H423 H 0.88187 0.17211 0.73951
 H424 H 0.90159 0.15230 0.70436
 H425 H 0.89372 0.14196 0.66113
 H426 H 0.91472 0.12219 0.62583
 H427 H 0.90924 0.05036 0.66244
 H428 H 0.88908 0.07027 0.69814
 H429 H 0.94981 0.04852 0.64241
 H430 H 0.97084 0.02883 0.60720
 H431 H 0.92754 0.07441 0.55639
 H432 H 0.90622 0.09372 0.59169
 C433 C 1.12627 -0.11961 0.70396
 C434 C 1.11715 -0.14270 0.71248
 C435 C 1.12784 -0.15444 0.73319
 C436 C 1.14812 -0.14346 0.74614
 C437 C 1.15727 -0.12026 0.73719
 C438 C 1.14647 -0.10858 0.71650
 C439 C 1.11461 -0.10701 0.68217
 C440 C 1.11053 -0.08100 0.68230
 C441 C 1.09921 -0.06918 0.66196
 C442 C 1.09176 -0.08311 0.64101
 C443 C 1.09598 -0.10909 0.64081
 C444 C 1.10726 -0.12091 0.66117
 C445 C 1.07938 -0.07063 0.61955
 C446 C 1.08535 -0.07749 0.59497
 C447 C 1.07340 -0.06602 0.57479
 C448 C 1.05517 -0.04745 0.57873
 C449 C 1.04932 -0.04048 0.60334
 C450 C 1.06130 -0.05193 0.62350
 H451 H 1.10141 -0.15158 0.70333
 H452 H 1.11999 -0.17223 0.73864
 H453 H 1.17258 -0.11061 0.74608
 H454 H 1.15412 -0.09090 0.71018
 H455 H 1.11576 -0.06981 0.69831
 H456 H 1.09644 -0.04910 0.66257
 H457 H 1.09022 -0.12037 0.62505
 H458 H 1.11038 -0.14094 0.66040
 H459 H 1.09944 -0.09161 0.59132
 H460 H 1.07843 -0.07179 0.55610
 H461 H 1.03536 -0.02626 0.60709
 H462 H 1.05607 -0.04645 0.64222
 C463 C 0.29558 1.12244 1.12152
 C464 C 0.28349 1.14268 1.11002
 C465 C 0.26285 1.15413 1.12123
 C466 C 0.25347 1.14563 1.14441
 C467 C 0.26597 1.12530 1.15587
 C468 C 0.28666 1.11395 1.14460
 C469 C 0.31732 1.11013 1.10936
 C470 C 0.33824 1.10275 1.12345
 C471 C 0.35866 1.09112 1.11199
 C472 C 0.35858 1.08654 1.08618
 C473 C 0.33767 1.09394 1.07209
 C474 C 0.31728 1.10562 1.08355
 C475 C 0.38018 1.07399 1.07401
 C476 C 0.37627 1.05574 1.05555
 C477 C 0.39655 1.04382 1.04418
 C478 C 0.42124 1.04989 1.05097
 C479 C 0.42514 1.06823 1.06938
 C480 C 0.40484 1.08011 1.08079
 H481 H 0.29014 1.14987 1.09233
 H482 H 0.25432 1.16942 1.11121
 H483 H 0.26018 1.11792 1.17368
 H484 H 0.29548 1.09822 1.15385
 H485 H 0.33893 1.10619 1.14333
 H486 H 0.37440 1.08542 1.12338
 H487 H 0.33716 1.09090 1.05214
 H488 H 0.30133 1.11085 1.07223
 H489 H 0.35749 1.05040 1.05015
 H490 H 0.39282 1.02978 1.03009
 H491 H 0.44390 1.07341 1.07503
 H492 H 0.40844 1.09433 1.09473
 C493 C 0.29506 0.87659 0.88065
 C494 C 0.28545 0.85363 0.88898
 C495 C 0.26480 0.84270 0.87725
 C496 C 0.25304 0.85438 0.85666
 C497 C 0.26307 0.87746 0.84837
 C498 C 0.28367 0.88832 0.86020
 C499 C 0.31680 0.88837 0.89331
 C500 C 0.31722 0.91432 0.89767
 C501 C 0.33764 0.92546 0.90955
 C502 C 0.35814 0.91092 0.91734
 C503 C 0.35774 0.88497 0.91298
 C504 C 0.33727 0.87380 0.90114
 C505 C 0.37984 0.92286 0.92991
 C506 C 0.40444 0.91562 0.92406
 C507 C 0.42485 0.92727 0.93554
 C508 C 0.42110 0.94639 0.95317
 C509 C 0.39645 0.95343 0.95919
 C510 C 0.37609 0.94181 0.94769
 H511 H 0.29371 0.84422 0.90487
 H512 H 0.25847 0.82496 0.88451
 H513 H 0.25511 0.88764 0.83293
 H514 H 0.29085 0.90592 0.85314
 H515 H 0.30162 0.92600 0.89210
 H516 H 0.33751 0.94554 0.91240
 H517 H 0.37315 0.87324 0.91897
 H518 H 0.33759 0.85380 0.89784
 H519 H 0.40793 0.90127 0.91024
 H520 H 0.44356 0.92140 0.93044
 H521 H 0.39283 0.96801 0.97275
 H522 H 0.35735 0.94754 0.95287
 C523 C 0.70676 0.87982 1.12477
 C524 C 0.71582 0.85685 1.11589
 C525 C 0.73673 0.84555 1.12678
 C526 C 0.74934 0.85686 1.14706
 C527 C 0.73990 0.87998 1.15589
 C528 C 0.71902 0.89123 1.14489
 C529 C 0.68469 0.89192 1.11297
 C530 C 0.68433 0.91790 1.10875
 C531 C 0.66371 0.92926 1.09737
 C532 C 0.64294 0.91490 1.09000
 C533 C 0.64323 0.88894 1.09436
 C534 C 0.66388 0.87757 1.10568
 C535 C 0.62120 0.92691 1.07755
 C536 C 0.59661 0.91972 1.08354
 C537 C 0.57618 0.93092 1.07165
 C538 C 0.57987 0.94950 1.05344
 C539 C 0.60448 0.95673 1.04752
 C540 C 0.62489 0.94558 1.05945
 H541 H 0.70690 0.84769 1.10022
 H542 H 0.74258 0.82780 1.11914
 H543 H 0.74855 0.88991 1.17113
 H544 H 0.71230 0.90885 1.15234
 H545 H 0.70017 0.92943 1.11393
 H546 H 0.66394 0.94933 1.09450
 H547 H 0.62762 0.87734 1.08867
 H548 H 0.66349 0.85755 1.10891
 H549 H 0.59317 0.90561 1.09762
 H550 H 0.55749 0.92494 1.07671
 H551 H 0.60806 0.97098 1.03360
 H552 H 0.64360 0.95129 1.05420
 C553 C 0.70515 1.11757 0.87743
 C554 C 0.71751 1.10608 0.85742
 C555 C 0.73813 1.11753 0.84615
 C556 C 0.74717 1.14095 0.85458
 C557 C 0.73448 1.15233 0.87477
 C558 C 0.71384 1.14083 0.88593
 C559 C 0.68333 1.10529 0.88945
 C560 C 0.66227 1.11940 0.89652
 C561 C 0.64181 1.10786 0.90798
 C562 C 0.64197 1.08196 0.91272
 C563 C 0.66300 1.06785 0.90560
 C564 C 0.68343 1.07938 0.89407
 C565 C 0.62040 1.06977 0.92525
 C566 C 0.62434 1.05146 0.94366
 C567 C 0.60408 1.04018 0.95570
 C568 C 0.57937 1.04691 0.94957
 C569 C 0.57544 1.06512 0.93105
 C570 C 0.59572 1.07645 0.91905
 H571 H 0.71109 1.08824 0.85027
 H572 H 0.74689 1.10753 0.83102
 H573 H 0.74004 1.17030 0.88209
 H574 H 0.70483 1.15006 0.90150
 H575 H 0.66153 1.13936 0.89298
 H576 H 0.62599 1.11928 0.91348
 H577 H 0.66357 1.04783 0.90877
 H578 H 0.69947 1.06805 0.88907
 H579 H 0.64313 1.04614 0.94908
 H580 H 0.60784 1.02627 0.96992
 H581 H 0.55667 1.07071 0.92581
 H582 H 0.59209 1.09027 0.90472
 C583 C 0.12089 0.29467 0.11835
 C584 C 0.13631 0.27828 0.10478
 C585 C 0.14765 0.25780 0.11642
 C586 C 0.14397 0.25324 0.14199
 C587 C 0.12860 0.26970 0.15558
 C588 C 0.11717 0.29013 0.14390
 C589 C 0.10870 0.31637 0.10588
 C590 C 0.10648 0.33952 0.11817
 C591 C 0.09499 0.35988 0.10644
 C592 C 0.08551 0.35763 0.08209
 C593 C 0.08780 0.33450 0.06977
 C594 C 0.09920 0.31412 0.08154
 C595 C 0.07316 0.37925 0.06965
 C596 C 0.05197 0.37561 0.05454
 C597 C 0.04027 0.39591 0.04294
 C598 C 0.04939 0.42039 0.04628
 C599 C 0.07059 0.42405 0.06136
 C600 C 0.08237 0.40371 0.07285
 H601 H 0.13984 0.28140 0.08515
 H602 H 0.15907 0.24540 0.10526
 H603 H 0.12556 0.26697 0.17533
 H604 H 0.10517 0.30220 0.15485
 H605 H 0.11386 0.34200 0.13680
 H606 H 0.09327 0.37732 0.11659
 H607 H 0.08099 0.33219 0.05091
 H608 H 0.10031 0.29649 0.07163
 H609 H 0.04414 0.35708 0.05199
 H610 H 0.02388 0.39241 0.03158
 H611 H 0.07819 0.44263 0.06420
 H612 H 0.09889 0.40713 0.08403
 C613 C -0.12409 0.29421 -0.12335
 C614 C -0.11004 0.27845 -0.13899
 C615 C -0.12105 0.25758 -0.15023
 C616 C -0.14646 0.25197 -0.14625
 C617 C -0.16057 0.26788 -0.13077
 C618 C -0.14951 0.28870 -0.11943
 C619 C -0.11221 0.31615 -0.11101
 C620 C -0.12534 0.33880 -0.10821
 C621 C -0.11417 0.35934 -0.09647
 C622 C -0.08955 0.35774 -0.08732
 C623 C -0.07640 0.33512 -0.09022
 C624 C -0.08761 0.31457 -0.10184
 C625 C -0.07759 0.37954 -0.07483
 C626 C -0.06180 0.37598 -0.05416
 C627 C -0.05011 0.39635 -0.04272
 C628 C -0.05404 0.42084 -0.05154
 C629 C -0.07008 0.42448 -0.07200
 C630 C -0.08165 0.40406 -0.08355
 H631 H -0.09050 0.28233 -0.14271
 H632 H -0.10949 0.24566 -0.16176
 H633 H -0.18023 0.26439 -0.12750
 H634 H -0.16083 0.30027 -0.10728
 H635 H -0.14420 0.34077 -0.11531
 H636 H -0.12493 0.37638 -0.09432
 H637 H -0.05730 0.33333 -0.08371
 H638 H -0.07705 0.29732 -0.10338
 H639 H -0.05862 0.35742 -0.04665
 H640 H -0.03801 0.39286 -0.02689
 H641 H -0.07342 0.44308 -0.07934
 H642 H -0.09342 0.40745 -0.09963
 C643 C 0.11938 0.70476 -0.12509
 C644 C 0.10602 0.72126 -0.14059
 C645 C 0.11783 0.74195 -0.15134
 C646 C 0.14337 0.74664 -0.14697
 C647 C 0.15676 0.73003 -0.13159
 C648 C 0.14491 0.70939 -0.12075
 C649 C 0.10669 0.68295 -0.11335
 C650 C 0.11910 0.65985 -0.11095
 C651 C 0.10726 0.63946 -0.09963
 C652 C 0.08269 0.64164 -0.09051
 C653 C 0.07022 0.66469 -0.09307
 C654 C 0.08209 0.68510 -0.10429
 C655 C 0.07021 0.62006 -0.07814
 C656 C 0.05487 0.62382 -0.05718
 C657 C 0.04329 0.60357 -0.04541
 C658 C 0.04687 0.57902 -0.05421
 C659 C 0.06217 0.57524 -0.07520
 C660 C 0.07365 0.59553 -0.08705
 H661 H 0.08641 0.71808 -0.14459
 H662 H 0.10682 0.75444 -0.16282
 H663 H 0.17649 0.73284 -0.12803
 H664 H 0.15570 0.69724 -0.10867
 H665 H 0.13794 0.65745 -0.11799
 H666 H 0.11752 0.62207 -0.09770
 H667 H 0.05118 0.66693 -0.08654
 H668 H 0.07209 0.70269 -0.10556
 H669 H 0.05214 0.64240 -0.04958
 H670 H 0.03174 0.60717 -0.02921
 H671 H 0.06520 0.55660 -0.08256
 H672 H 0.08503 0.59202 -0.10338
 C673 C -0.11994 0.70554 0.12261
 C674 C -0.10582 0.72163 0.13786
 C675 C -0.11697 0.74235 0.14925
 C676 C -0.14256 0.74748 0.14579
 C677 C -0.15670 0.73129 0.13065
 C678 C -0.14553 0.71062 0.11918
 C679 C -0.10798 0.68369 0.11022
 C680 C -0.12078 0.66078 0.10804
 C681 C -0.10960 0.64032 0.09621
 C682 C -0.08530 0.64223 0.08633
 C683 C -0.07245 0.66509 0.08862
 C684 C -0.08367 0.68558 0.10036
 C685 C -0.07344 0.62053 0.07357
 C686 C -0.05866 0.62415 0.05219
 C687 C -0.04749 0.60380 0.04018
 C688 C -0.05092 0.57930 0.04919
 C689 C -0.06574 0.57565 0.07053
 C690 C -0.07682 0.59604 0.08261
 H691 H -0.08614 0.71810 0.14116
 H692 H -0.10540 0.75451 0.16051
 H693 H -0.17649 0.73445 0.12779
 H694 H -0.15689 0.69879 0.10733
 H695 H -0.13941 0.65859 0.11568
 H696 H -0.12013 0.62308 0.09452
 H697 H -0.05360 0.66712 0.08150
 H698 H -0.07339 0.70301 0.10144
 H699 H -0.05601 0.64270 0.04448
 H700 H -0.03632 0.60730 0.02369
 H701 H -0.06865 0.55705 0.07804
 H702 H -0.08778 0.59263 0.09924
 C703 C 1.12506 0.12184 0.70496
 C704 C 1.11338 0.14215 0.71675
 C705 C 1.12426 0.15351 0.73755
 C706 C 1.14727 0.14486 0.74739
 C707 C 1.15891 0.12444 0.73520
 C708 C 1.14798 0.11319 0.71434
 C709 C 1.11321 0.10956 0.68310
 C710 C 1.12770 0.10206 0.66253
 C711 C 1.11649 0.09043 0.64202
 C712 C 1.09056 0.08597 0.64167
 C713 C 1.07610 0.09349 0.66223
 C714 C 1.08729 0.10517 0.68269
 C715 C 1.07859 0.07347 0.62001
 C716 C 1.05982 0.05542 0.62371
 C717 C 1.04817 0.04396 0.60340
 C718 C 1.05500 0.05027 0.57886
 C719 C 1.07395 0.06816 0.57516
 C720 C 1.08563 0.07961 0.59551
 H721 H 1.09582 0.14944 0.70976
 H722 H 1.11411 0.16884 0.74586
 H723 H 1.17663 0.11697 0.74134
 H724 H 1.15734 0.09740 0.70577
 H725 H 1.14768 0.10540 0.66220
 H726 H 1.12815 0.08465 0.62655
 H727 H 1.05604 0.09057 0.66240
 H728 H 1.07566 0.11049 0.69835
 H729 H 1.05426 0.05001 0.64236
 H730 H 1.03375 0.03017 0.60699
 H731 H 1.07966 0.07349 0.55652
 H732 H 1.09987 0.09363 0.59208
 C733 C 0.87902 -0.11810 0.70430
 C734 C 0.88778 -0.14126 0.71301
 C735 C 0.87663 -0.15287 0.73355
 C736 C 0.85622 -0.14167 0.74612
 C737 C 0.84754 -0.11834 0.73706
 C738 C 0.85878 -0.10680 0.71654
 C739 C 0.89100 -0.10573 0.68257
 C740 C 0.89528 -0.07975 0.68259
 C741 C 0.90672 -0.06813 0.66222
 C742 C 0.91410 -0.08221 0.64135
 C743 C 0.90973 -0.10817 0.64127
 C744 C 0.89834 -0.11980 0.66167
 C745 C 0.92652 -0.06990 0.61982
 C746 C 0.92045 -0.07682 0.59527
 C747 C 0.93238 -0.06546 0.57503
 C748 C 0.95070 -0.04696 0.57887
 C749 C 0.95665 -0.03995 0.60344
 C750 C 0.94469 -0.05128 0.62367
 H751 H 0.90355 -0.15034 0.70410
 H752 H 0.88420 -0.17074 0.73914
 H753 H 0.83220 -0.10849 0.74569
 H754 H 0.85142 -0.08904 0.71008
 H755 H 0.89007 -0.06844 0.69852
 H756 H 0.90961 -0.04806 0.66273
 H757 H 0.91544 -0.11956 0.62557
 H758 H 0.89506 -0.13980 0.66098
 H759 H 0.90628 -0.09087 0.59171
 H760 H 0.92727 -0.07126 0.55636
 H761 H 0.97067 -0.02578 0.60712
 H762 H 0.94998 -0.04576 0.64236
 C763 C 1.12269 -0.12359 0.29630
 C764 C 1.14324 -0.11248 0.28440
 C765 C 1.15451 -0.12395 0.26386
 C766 C 1.14550 -0.14698 0.25441
 C767 C 1.12490 -0.15809 0.26677
 C768 C 1.11374 -0.14656 0.28734
 C769 C 1.11049 -0.11113 0.31787
 C770 C 1.10263 -0.12515 0.33862
 C771 C 1.09107 -0.11340 0.35885
 C772 C 1.08704 -0.08738 0.35874
 C773 C 1.09490 -0.07337 0.33798
 C774 C 1.10651 -0.08511 0.31779
 C775 C 1.07474 -0.07486 0.38021
 C776 C 1.05705 -0.05579 0.37628
 C777 C 1.04566 -0.04381 0.39646
 C778 C 1.05173 -0.05061 0.42107
 C779 C 1.06935 -0.06978 0.42498
 C780 C 1.08071 -0.08178 0.40478
 H781 H 1.15078 -0.09489 0.29110
 H782 H 1.17005 -0.11422 0.25545
 H783 H 1.11716 -0.17580 0.26094
 H784 H 1.09777 -0.15551 0.29601
 H785 H 1.10565 -0.14519 0.33933
 H786 H 1.08501 -0.12472 0.37447
 H787 H 1.09230 -0.05326 0.33747
 H788 H 1.11211 -0.07384 0.30196
 H789 H 1.05180 -0.05028 0.35756
 H790 H 1.03210 -0.02920 0.39273
 H791 H 1.07450 -0.07547 0.44367
 H792 H 1.09449 -0.09620 0.40840
 C793 C 0.88037 0.12458 0.29681
 C794 C 0.88845 0.14775 0.28751
 C795 C 0.87659 0.15875 0.26703
 C796 C 0.85614 0.14691 0.25511
 C797 C 0.84799 0.12370 0.26494
 C798 C 0.85995 0.11277 0.28538
 C799 C 0.89332 0.11265 0.31824
 C800 C 0.89806 0.08675 0.31826
 C801 C 0.91026 0.07547 0.33836
 C802 C 0.91797 0.08981 0.35894
 C803 C 0.91324 0.11570 0.35894
 C804 C 0.90108 0.12701 0.33878
 C805 C 0.93076 0.07771 0.38037
 C806 C 0.92475 0.08453 0.40496
 C807 C 0.93638 0.07274 0.42513
 C808 C 0.95431 0.05387 0.42118
 C809 C 0.96051 0.04726 0.39656
 C810 C 0.94885 0.05904 0.37641
 H811 H 0.90429 0.15725 0.29584
 H812 H 0.88368 0.17663 0.26090
 H813 H 0.83261 0.11344 0.25689
 H814 H 0.85306 0.09502 0.29236
 H815 H 0.89255 0.07523 0.30258
 H816 H 0.91340 0.05543 0.33794
 H817 H 0.91916 0.12728 0.37443
 H818 H 0.89749 0.14696 0.33941
 H819 H 0.91067 0.09866 0.40860
 H820 H 0.93112 0.07827 0.44383
 H821 H 0.97433 0.03290 0.39280
 H822 H 0.95414 0.05364 0.35768
 C823 C 0.12183 0.29509 -0.12243
 C824 C 0.11074 0.28309 -0.14288
 C825 C 0.12229 0.26252 -0.15415
 C826 C 0.14540 0.25314 -0.14525
 C827 C 0.15645 0.26556 -0.12471
 C828 C 0.14484 0.28615 -0.11355
 C829 C 0.10939 0.31677 -0.11030
 C830 C 0.12341 0.33762 -0.10251
 C831 C 0.11170 0.35795 -0.09097
 C832 C 0.08571 0.35786 -0.08689
 C833 C 0.07169 0.33701 -0.09469
 C834 C 0.08339 0.31671 -0.10629
 C835 C 0.07326 0.37943 -0.07458
 C836 C 0.05427 0.37549 -0.05690
 C837 C 0.04242 0.39578 -0.04543
 C838 C 0.04928 0.42050 -0.05141
 C839 C 0.06836 0.42442 -0.06904
 C840 C 0.08021 0.40411 -0.08048
 H841 H 0.09312 0.28975 -0.15035
 H842 H 0.11259 0.25403 -0.16962
 H843 H 0.17419 0.25979 -0.11704
 H844 H 0.15377 0.29489 -0.09765
 H845 H 0.14343 0.33833 -0.10557
 H846 H 0.12304 0.37363 -0.08496
 H847 H 0.05161 0.33650 -0.09206
 H848 H 0.07212 0.30081 -0.11184
 H849 H 0.04874 0.35669 -0.05171
 H850 H 0.02788 0.39205 -0.03187
 H851 H 0.07408 0.44319 -0.07414
 H852 H 0.09458 0.40774 -0.09426
 C853 C -0.12296 0.29474 0.12037
 C854 C -0.10876 0.27937 0.13627
 C855 C -0.11964 0.25872 0.14804
 C856 C -0.14505 0.25297 0.14432
 C857 C -0.15929 0.26846 0.12854
 C858 C -0.14837 0.28904 0.11667
 C859 C -0.11127 0.31653 0.10760
 C860 C -0.12456 0.33905 0.10452
 C861 C -0.11356 0.35948 0.09245
 C862 C -0.08897 0.35792 0.08326
 C863 C -0.07567 0.33541 0.08641
 C864 C -0.08670 0.31495 0.09836
 C865 C -0.07716 0.37965 0.07052
 C866 C -0.06139 0.37599 0.04986
 C867 C -0.04983 0.39632 0.03822
 C868 C -0.05390 0.42086 0.04682
 C869 C -0.06992 0.42459 0.06727
 C870 C -0.08135 0.40421 0.07903
 H871 H -0.08922 0.28341 0.13981
 H872 H -0.10799 0.24710 0.15980
 H873 H -0.17897 0.26484 0.12547
 H874 H -0.15979 0.30031 0.10433
 H875 H -0.14341 0.34101 0.11166
 H876 H -0.12444 0.37643 0.09009
 H877 H -0.05658 0.33366 0.07987
 H878 H -0.07604 0.29779 0.10012
 H879 H -0.05811 0.35738 0.04254
 H880 H -0.03774 0.39277 0.02241
 H881 H -0.07336 0.44323 0.07446
 H882 H -0.09311 0.40767 0.09510
 C883 C -0.12125 0.70557 -0.12596
 C884 C -0.11255 0.71489 -0.14881
 C885 C -0.12392 0.73567 -0.15993
 C886 C -0.14447 0.74785 -0.14855
 C887 C -0.15321 0.73803 -0.12564
 C888 C -0.14175 0.71731 -0.11458
 C889 C -0.10886 0.68381 -0.11388
 C890 C -0.10467 0.68365 -0.08802
 C891 C -0.09302 0.66323 -0.07659
 C892 C -0.08531 0.64247 -0.09076
 C893 C -0.08950 0.64262 -0.11662
 C894 C -0.10110 0.66309 -0.12807
 C895 C -0.07301 0.62077 -0.07852
 C896 C -0.07913 0.59614 -0.08546
 C897 C -0.06789 0.57572 -0.07358
 C898 C -0.05022 0.57948 -0.05451
 C899 C -0.04394 0.60414 -0.04775
 C900 C -0.05521 0.62453 -0.05960
 H901 H -0.09664 0.70633 -0.15796
 H902 H -0.11638 0.74179 -0.17756
 H903 H -0.16869 0.74629 -0.11571
 H904 H -0.14909 0.71034 -0.09709
 H905 H -0.11018 0.69945 -0.07662
 H906 H -0.09030 0.66356 -0.05659
 H907 H -0.08356 0.62700 -0.12806
 H908 H -0.10427 0.66257 -0.14800
 H909 H -0.09298 0.59264 -0.09979
 H910 H -0.07319 0.55699 -0.07924
 H911 H -0.03034 0.60777 -0.03322
 H912 H -0.04984 0.64328 -0.05409
 C913 C 0.11829 0.70410 0.12217
 C914 C 0.14390 0.70877 0.11837
 C915 C 0.15555 0.72923 0.12972
 C916 C 0.14187 0.74560 0.14509
 C917 C 0.11626 0.74089 0.14890
 C918 C 0.10463 0.72038 0.13762
 C919 C 0.10587 0.68241 0.10997
 C920 C 0.08147 0.68465 0.10039
 C921 C 0.06985 0.66433 0.08876
 C922 C 0.08238 0.64129 0.08633
 C923 C 0.10675 0.63904 0.09595
 C924 C 0.11834 0.65933 0.10766
 C925 C 0.07014 0.61977 0.07367
 C926 C 0.07331 0.59524 0.08266
 C927 C 0.06198 0.57500 0.07060
 C928 C 0.04711 0.57883 0.04932
 C929 C 0.04384 0.60339 0.04039
 C930 C 0.05527 0.62359 0.05238
 H931 H 0.15491 0.69678 0.10634
 H932 H 0.17534 0.73207 0.12659
 H933 H 0.10506 0.75322 0.16036
 H934 H 0.08495 0.71715 0.14119
 H935 H 0.07144 0.70223 0.10159
 H936 H 0.05096 0.66661 0.08184
 H937 H 0.11704 0.62166 0.09414
 H938 H 0.13702 0.65688 0.11510
 H939 H 0.08433 0.59169 0.09923
 H940 H 0.06476 0.55635 0.07807
 H941 H 0.03263 0.60702 0.02396
 H942 H 0.05276 0.64219 0.04473
 C943 C 0.29542 1.12173 0.88144
 C944 C 0.29095 1.11794 0.85589
 C945 C 0.27051 1.12924 0.84415
 C946 C 0.25395 1.14456 0.85768
 C947 C 0.25844 1.14833 0.88324
 C948 C 0.27894 1.13712 0.89494
 C949 C 0.31712 1.10964 0.89397
 C950 C 0.31484 1.10013 0.91831
 C951 C 0.33521 1.08874 0.93009
 C952 C 0.35833 1.08647 0.91779
 C953 C 0.36061 1.09598 0.89345
 C954 C 0.34027 1.10747 0.88171
 C955 C 0.37991 1.07407 0.93022
 C956 C 0.40436 1.08328 0.92703
 C957 C 0.42467 1.07141 0.93845
 C958 C 0.42099 1.05013 0.95344
 C959 C 0.39653 1.04103 0.95679
 C960 C 0.37625 1.05282 0.94526
 H961 H 0.30310 1.10596 0.84498
 H962 H 0.26784 1.12613 0.82440
 H963 H 0.24597 1.15971 0.89435
 H964 H 0.28200 1.14070 0.91457
 H965 H 0.29721 1.10121 0.92818
 H966 H 0.33288 1.08189 0.94895
 H967 H 0.37805 1.09427 0.88332
 H968 H 0.34277 1.11486 0.86308
 H969 H 0.40778 1.09985 0.91590
 H970 H 0.44324 1.07900 0.93561
 H971 H 0.39302 1.02458 0.96808
 H972 H 0.35773 1.04499 0.94780
 C973 C 0.29480 0.87562 1.12178
 C974 C 0.28941 0.85013 1.11803
 C975 C 0.26870 0.83905 1.12951
 C976 C 0.25281 0.85320 1.14495
 C977 C 0.25826 0.87868 1.14874
 C978 C 0.27902 0.88973 1.13734
 C979 C 0.31668 0.88750 1.10939
 C980 C 0.31497 0.91198 1.09988
 C981 C 0.33551 0.92319 1.08827
 C982 C 0.35824 0.91017 1.08575
 C983 C 0.35995 0.88567 1.09522
 C984 C 0.33943 0.87448 1.10692
 C985 C 0.38005 0.92218 1.07336
 C986 C 0.40444 0.91859 1.08255
 C987 C 0.42487 0.93028 1.07114
 C988 C 0.42134 0.94593 1.05037
 C989 C 0.39698 0.94935 1.04106
 C990 C 0.37660 0.93756 1.05237
 H991 H 0.30102 0.83878 1.10595
 H992 H 0.26529 0.81933 1.12641
 H993 H 0.24633 0.89024 1.16025
 H994 H 0.28281 0.90933 1.14089
 H995 H 0.29765 0.92242 1.10118
 H996 H 0.33363 0.94220 1.08148
 H997 H 0.37710 0.87502 1.09335
 H998 H 0.34147 0.85571 1.11429
 H999 H 0.40771 0.90712 1.09888
 H1000 H 0.44337 0.92734 1.07885
 H1001 H 0.39360 0.96110 1.02494
 H1002 H 0.35814 0.94035 1.04453
 C1003 C 0.70553 1.11821 1.12519
 C1004 C 0.72191 1.10475 1.14072
 C1005 C 0.74260 1.11648 1.15154
 C1006 C 0.74739 1.14202 1.14721
 C1007 C 0.73092 1.15550 1.13177
 C1008 C 0.71029 1.14374 1.12086
 C1009 C 0.68369 1.10566 1.11342
 C1010 C 0.66069 1.11824 1.11103
 C1011 C 0.64027 1.10658 1.09962
 C1012 C 0.64232 1.08201 1.09041
 C1013 C 0.66525 1.06936 1.09299
 C1014 C 0.68570 1.08106 1.10430
 C1015 C 0.62072 1.06975 1.07792
 C1016 C 0.62443 1.05452 1.05687
 C1017 C 0.60415 1.04318 1.04495
 C1018 C 0.57962 1.04689 1.05371
 C1019 C 0.57589 1.06208 1.07478
 C1020 C 0.59621 1.07332 1.08678
 H1021 H 0.71864 1.08514 1.14469
 H1022 H 0.75500 1.10541 1.16307
 H1023 H 0.73380 1.17524 1.12824
 H1024 H 0.69823 1.15460 1.10875
 H1025 H 0.65839 1.13708 1.11813
 H1026 H 0.62297 1.11697 1.09769
 H1027 H 0.66738 1.05032 1.08639
 H1028 H 0.70321 1.07093 1.10557
 H1029 H 0.64301 1.05170 1.04931
 H1030 H 0.60771 1.03171 1.02868
 H1031 H 0.55726 1.06520 1.08212
 H1032 H 0.59273 1.08462 1.10318
 C1033 C 0.70561 0.87980 0.87716
 C1034 C 0.72168 0.86409 0.89080
 C1035 C 0.74229 0.85282 0.87936
 C1036 C 0.74730 0.85687 0.85394
 C1037 C 0.73112 0.87247 0.84027
 C1038 C 0.71056 0.88383 0.85174
 C1039 C 0.68386 0.89203 0.88944
 C1040 C 0.66091 0.89454 0.87686
 C1041 C 0.64049 0.90607 0.88843
 C1042 C 0.64251 0.91528 0.91290
 C1043 C 0.66546 0.91274 0.92548
 C1044 C 0.68589 0.90132 0.91388
 C1045 C 0.62078 0.92739 0.92532
 C1046 C 0.62426 0.94830 0.94086
 C1047 C 0.60392 0.95940 0.95293
 C1048 C 0.57958 0.94997 0.94963
 C1049 C 0.57605 0.92924 0.93388
 C1050 C 0.59642 0.91804 0.92192
 H1051 H 0.71823 0.86032 0.91034
 H1052 H 0.75446 0.84119 0.89057
 H1053 H 0.73419 0.87578 0.82061
 H1054 H 0.69873 0.89604 0.84075
 H1055 H 0.65862 0.88735 0.85813
 H1056 H 0.62319 0.90797 0.87811
 H1057 H 0.66757 0.91933 0.94445
 H1058 H 0.70338 0.89998 0.92399
 H1059 H 0.64270 0.95626 0.94354
 H1060 H 0.60730 0.97548 0.96477
 H1061 H 0.55756 0.92142 0.93102
 H1062 H 0.59313 0.90175 0.91036
   
