data_POSCAR
  _audit_creation_date              2014-09-24
  _audit_creation_method            'ToBaCCo'
  _symmetry_space_group_name_H-M    'P1'
  _symmetry_Int_Tables_number       1
  _symmetry_cell_setting            triclinic
  loop_
  _symmetry_equiv_pos_as_xyz
 x,y,z
_cell_length_a 47.1745
_cell_length_b 47.1943
_cell_length_c 49.5491
_cell_angle_alpha 90.333600
_cell_angle_beta 89.684900
_cell_angle_gamma 83.769400
loop_
  _atom_site_label
  _atom_site_type_symbol
  _atom_site_fract_x
  _atom_site_fract_y
  _atom_site_fract_z
C1 C -0.10281 0.31815 0.00467
 C2 C -0.08821 0.31085 0.02878
 C3 C -0.05816 0.30843 0.02824
 C4 C -0.04286 0.31436 0.00480
 C5 C -0.05831 0.32164 -0.01890
 C6 C -0.08827 0.32269 -0.01955
 C7 C -0.01083 0.31237 0.00505
 C8 C 0.00524 0.30621 -0.01878
 C9 C 0.03513 0.30457 -0.01864
 C10 C 0.04934 0.30734 0.00586
 C11 C 0.03401 0.31235 0.03004
 C12 C 0.00408 0.31598 0.02927
 H13 H -0.12555 0.31697 0.00404
 H14 H -0.04658 0.30243 0.04636
 H15 H -0.04717 0.32737 -0.03683
 H16 H -0.00524 0.30268 -0.03766
 H17 H 0.07244 0.30449 0.00616
 H18 H -0.00732 0.32174 0.04782
 C19 C 0.42972 0.81924 0.49726
 C20 C 0.44547 0.82406 0.52043
 C21 C 0.47515 0.82440 0.51809
 C22 C 0.48956 0.81766 0.49342
 C23 C 0.47313 0.81244 0.47062
 C24 C 0.44329 0.81373 0.47226
 C25 C 0.52159 0.81399 0.49193
 C26 C 0.53624 0.81654 0.46725
 C27 C 0.56605 0.81025 0.46544
 C28 C 0.58157 0.80328 0.48900
 C29 C 0.56763 0.80128 0.51384
 C30 C 0.53779 0.80604 0.51502
 H31 H 0.40695 0.81818 0.49890
 H32 H 0.48686 0.82952 0.53583
 H33 H 0.48335 0.80673 0.45150
 H34 H 0.52469 0.82316 0.44917
 H35 H 0.60447 0.79793 0.48784
 H36 H 0.52741 0.80302 0.53412
 C37 C 1.08745 0.70395 -0.00370
 C38 C 1.07111 0.70772 0.02026
 C39 C 1.04147 0.70666 0.01810
 C40 C 1.02887 0.69927 -0.00629
 C41 C 1.04580 0.69774 -0.02997
 C42 C 1.07496 0.70211 -0.02939
 C43 C 0.99854 0.69198 -0.00677
 C44 C 0.98275 0.69318 -0.03090
 C45 C 0.95632 0.68208 -0.03243
 C46 C 0.94491 0.67122 -0.00890
 C47 C 0.95793 0.67371 0.01631
 C48 C 0.98540 0.68276 0.01684
 H49 H 1.11031 0.70066 -0.00230
 H50 H 1.02789 0.71213 0.03531
 H51 H 1.03598 0.69331 -0.04876
 H52 H 0.99067 0.70314 -0.04854
 H53 H 0.92547 0.66113 -0.01016
 H54 H 0.99640 0.68279 0.03579
 C55 C 0.56600 0.18084 0.50750
 C56 C 0.55208 0.19116 0.53132
 C57 C 0.52250 0.19927 0.53048
 C58 C 0.50690 0.19658 0.50654
 C59 C 0.52199 0.18820 0.48268
 C60 C 0.55174 0.18147 0.48267
 C61 C 0.47500 0.20231 0.50649
 C62 C 0.45996 0.21093 0.48281
 C63 C 0.43003 0.21346 0.48224
 C64 C 0.41492 0.20922 0.50604
 C65 C 0.42930 0.20181 0.53006
 C66 C 0.45919 0.19778 0.53000
 H67 H 0.58832 0.17281 0.50816
 H68 H 0.51172 0.20831 0.54835
 H69 H 0.51065 0.18727 0.46395
 H70 H 0.47126 0.21521 0.46451
 H71 H 0.39182 0.21236 0.50596
 H72 H 0.46992 0.19039 0.54830
 C73 C 0.70944 -0.09274 -0.01012
 C74 C 0.71400 -0.07917 0.01469
 C75 C 0.71294 -0.04912 0.01497
 C76 C 0.70547 -0.03274 -0.00817
 C77 C 0.70007 -0.04708 -0.03220
 C78 C 0.70336 -0.07691 -0.03369
 C79 C 0.70382 -0.00081 -0.00730
 C80 C 0.70954 0.01499 -0.03046
 C81 C 0.70778 0.04511 -0.02985
 C82 C 0.70200 0.05901 -0.00480
 C83 C 0.69748 0.04359 0.01864
 C84 C 0.69710 0.01405 0.01694
 H85 H 0.71271 -0.11574 -0.01169
 H86 H 0.71711 -0.03829 0.03349
 H87 H 0.69348 -0.03519 -0.05010
 H88 H 0.71464 0.00376 -0.04917
 H89 H 0.70307 0.08173 -0.00289
 H90 H 0.69171 0.00284 0.03490
 C91 C 0.18276 0.44231 0.50795
 C92 C 0.18904 0.45463 0.53288
 C93 C 0.19365 0.48363 0.53359
 C94 C 0.18945 0.50098 0.51061
 C95 C 0.18151 0.48821 0.48641
 C96 C 0.18019 0.45870 0.48437
 C97 C 0.19437 0.53195 0.51144
 C98 C 0.20101 0.54608 0.48757
 C99 C 0.20431 0.57522 0.48762
 C100 C 0.20280 0.59026 0.51209
 C101 C 0.19783 0.57654 0.53642
 C102 C 0.19286 0.54768 0.53589
 H103 H 0.18044 0.41983 0.50669
 H104 H 0.20126 0.49235 0.55204
 H105 H 0.17675 0.50094 0.46864
 H106 H 0.20357 0.53471 0.46858
 H107 H 0.20663 0.61250 0.51226
 H108 H 0.18755 0.53790 0.55467
 C109 C 0.32229 1.07941 0.00934
 C110 C 0.31908 1.06634 0.03435
 C111 C 0.31493 1.03728 0.03446
 C112 C 0.31094 1.02232 0.01018
 C113 C 0.30935 1.03787 -0.01411
 C114 C 0.31528 1.06654 -0.01510
 C115 C 0.30794 0.99082 0.00999
 C116 C 0.31376 0.97423 -0.01371
 C117 C 0.31199 0.94455 -0.01415
 C118 C 0.30593 0.93130 0.01028
 C119 C 0.30028 0.94712 0.03405
 C120 C 0.30034 0.97678 0.03357
 H121 H 0.33027 1.09999 0.00921
 H122 H 0.31453 1.02660 0.05354
 H123 H 0.30201 1.02788 -0.03199
 H124 H 0.32119 0.98404 -0.03168
 H125 H 0.30373 0.90872 0.01081
 H126 H 0.29480 0.98848 0.05196
 C127 C 0.83632 0.54150 0.49161
 C128 C 0.82896 0.52887 0.51583
 C129 C 0.82222 0.50063 0.51506
 C130 C 0.82410 0.48455 0.49087
 C131 C 0.82874 0.49902 0.46654
 C132 C 0.83331 0.52803 0.46663
 C133 C 0.82096 0.45308 0.49132
 C134 C 0.81476 0.43802 0.46768
 C135 C 0.81390 0.40838 0.46802
 C136 C 0.81731 0.39375 0.49246
 C137 C 0.82237 0.40814 0.51638
 C138 C 0.82506 0.43742 0.51556
 H139 H 0.84343 0.56251 0.49209
 H140 H 0.81475 0.49155 0.53336
 H141 H 0.82834 0.48816 0.44744
 H142 H 0.81087 0.44882 0.44872
 H143 H 0.81514 0.37113 0.49295
 H144 H 0.83089 0.44748 0.53404
 O145 O 0.27531 0.27136 0.27320
 O146 O 0.22193 0.29809 0.22274
 O147 O 0.23099 0.30900 0.27354
 O148 O 0.26561 0.26026 0.22223
 O149 O 0.23906 0.22682 0.23475
 O150 O 0.20376 0.27618 0.28597
 O151 O 0.19478 0.26507 0.23483
 O152 O 0.24799 0.23853 0.28539
 Cu153 Cu 0.25122 0.28794 0.24676
 Cu154 Cu 0.21864 0.24837 0.26143
 C155 C 0.27056 0.25066 0.28825
 C156 C 0.19944 0.28586 0.21983
 C157 C 0.21177 0.30089 0.28882
 C158 C 0.25795 0.23544 0.21938
 O159 O 0.76785 0.76746 0.22327
 O160 O 0.79443 0.71784 0.27654
 O161 O 0.80610 0.72378 0.22503
 O162 O 0.75600 0.76106 0.27444
 O163 O 0.72402 0.73206 0.26402
 O164 O 0.77300 0.69644 0.21335
 O165 O 0.76327 0.68836 0.26480
 O166 O 0.73494 0.73950 0.21277
 Cu167 Cu 0.78438 0.74530 0.25094
 Cu168 Cu 0.74556 0.71117 0.23782
 C169 C 0.74715 0.76183 0.20860
 C170 C 0.78322 0.69487 0.27999
 C171 C 0.79757 0.70453 0.21000
 C172 C 0.73156 0.75261 0.27797
 O173 O 0.76073 0.23582 0.22324
 O174 O 0.72046 0.20745 0.27802
 O175 O 0.72718 0.19594 0.22626
 O176 O 0.75135 0.24882 0.27341
 O177 O 0.71350 0.27853 0.26354
 O178 O 0.69014 0.22634 0.21564
 O179 O 0.68232 0.23660 0.26753
 O180 O 0.72375 0.26643 0.21288
 Cu181 Cu 0.74356 0.21881 0.25120
 Cu182 Cu 0.69855 0.25485 0.23882
 C183 C 0.74950 0.25610 0.20886
 C184 C 0.69492 0.21760 0.28269
 C185 C 0.70486 0.20243 0.21235
 C186 C 0.73641 0.27270 0.27666
 O187 O 0.20516 0.76049 0.23496
 O188 O 0.25112 0.78607 0.28799
 O189 O 0.24132 0.79792 0.23736
 O190 O 0.21455 0.74877 0.28626
 O191 O 0.24877 0.71546 0.27421
 O192 O 0.27639 0.76509 0.22616
 O193 O 0.28533 0.75256 0.27634
 O194 O 0.24047 0.72827 0.22276
 Cu195 Cu 0.22444 0.77650 0.26290
 Cu196 Cu 0.26605 0.73680 0.24879
 C197 C 0.21565 0.74085 0.21904
 C198 C 0.27611 0.77355 0.29124
 C199 C 0.26332 0.78986 0.22323
 C200 C 0.22746 0.72394 0.28908
 O201 O 0.75470 0.20269 0.76879
 O202 O 0.77751 0.25343 0.71883
 O203 O 0.79033 0.24131 0.76836
 O204 O 0.74208 0.21568 0.71804
 O205 O 0.70714 0.24717 0.73240
 O206 O 0.75606 0.27373 0.78223
 O207 O 0.74278 0.28550 0.73247
 O208 O 0.72063 0.23519 0.78283
 Cu209 Cu 0.76945 0.22480 0.74224
 Cu210 Cu 0.72810 0.26347 0.75893
 C211 C 0.73413 0.21051 0.78479
 C212 C 0.76395 0.27813 0.71704
 C213 C 0.78163 0.26216 0.78367
 C214 C 0.71671 0.22756 0.71604
 O215 O 0.29646 0.77769 0.72633
 O216 O 0.25276 0.75188 0.78050
 O217 O 0.26061 0.73919 0.72916
 O218 O 0.28683 0.79057 0.77717
 O219 O 0.25117 0.82240 0.76591
 O220 O 0.22542 0.77147 0.71789
 O221 O 0.21654 0.78307 0.76902
 O222 O 0.26103 0.80970 0.71501
 Cu223 Cu 0.27774 0.76157 0.75423
 Cu224 Cu 0.23499 0.79983 0.74081
 C225 C 0.28638 0.79807 0.71139
 C226 C 0.22747 0.76335 0.78435
 C227 C 0.23857 0.74669 0.71515
 C228 C 0.27310 0.81513 0.78007
 O229 O 0.23997 0.30145 0.74112
 O230 O 0.27008 0.25581 0.79602
 O231 O 0.28519 0.26560 0.74655
 O232 O 0.22507 0.29154 0.79074
 O233 O 0.20129 0.25655 0.77676
 O234 O 0.26139 0.23084 0.73196
 O235 O 0.24693 0.22062 0.78127
 O236 O 0.21658 0.26639 0.72640
 Cu237 Cu 0.25739 0.28213 0.77004
 Cu238 Cu 0.22893 0.24019 0.75272
 C239 C 0.22381 0.29141 0.72393
 C240 C 0.26355 0.23051 0.79813
 C241 C 0.28346 0.24406 0.73139
 C242 C 0.20319 0.27813 0.79187
 O243 O 0.75101 0.75923 0.70906
 O244 O 0.80155 0.72837 0.75997
 O245 O 0.79204 0.71882 0.70867
 O246 O 0.75907 0.76834 0.76004
 O247 O 0.72869 0.73768 0.77056
 O248 O 0.76352 0.68689 0.72066
 O249 O 0.77099 0.69842 0.77199
 O250 O 0.72166 0.72750 0.71927
 Cu251 Cu 0.77905 0.74672 0.73343
 Cu252 Cu 0.74330 0.70937 0.74666
 C253 C 0.72794 0.74831 0.70506
 C254 C 0.79444 0.70885 0.77532
 C255 C 0.78297 0.69468 0.70547
 C256 C 0.73830 0.76153 0.77415
 C257 C 0.31776 0.08875 0.10894
 C258 C 0.30755 0.11806 0.10762
 C259 C 0.30418 0.13036 0.08171
 C260 C 0.30809 0.11343 0.05843
 C261 C 0.31735 0.08410 0.05976
 C262 C 0.32285 0.07222 0.08543
 C263 C 0.29630 0.15952 0.07899
 C264 C 0.29174 0.17697 0.10150
 C265 C 0.29362 0.16568 0.12781
 C266 C 0.30042 0.13559 0.13092
 C267 C 0.29835 0.12395 0.15697
 C268 C 0.28944 0.14110 0.17908
 C269 C 0.28380 0.17062 0.17643
 C270 C 0.28732 0.18341 0.15099
 C271 C 0.28426 0.21352 0.14974
 C272 C 0.27587 0.23007 0.17234
 C273 C 0.26993 0.21730 0.19683
 C274 C 0.27434 0.18753 0.19894
 H275 H 0.32252 0.07817 0.12787
 H276 H 0.30286 0.12338 0.03921
 H277 H 0.33103 0.05006 0.08761
 H278 H 0.29369 0.16904 0.05917
 H279 H 0.28516 0.19914 0.09758
 H280 H 0.30204 0.10135 0.16059
 H281 H 0.28708 0.13114 0.19851
 H282 H 0.28862 0.22493 0.13166
 H283 H 0.27306 0.25306 0.17037
 H284 H 0.27048 0.17758 0.21809
 C285 C 0.82731 0.54876 0.59064
 C286 C 0.81937 0.57854 0.59010
 C287 C 0.81654 0.59181 0.56455
 C288 C 0.81912 0.57550 0.54079
 C289 C 0.82655 0.54588 0.54147
 C290 C 0.83113 0.53285 0.56673
 C291 C 0.81092 0.62133 0.56271
 C292 C 0.80849 0.63820 0.58576
 C293 C 0.81024 0.62600 0.61171
 C294 C 0.81427 0.59564 0.61392
 C295 C 0.81173 0.58344 0.63966
 C296 C 0.80517 0.60038 0.66242
 C297 C 0.80247 0.63005 0.66066
 C298 C 0.80649 0.64321 0.63548
 C299 C 0.80649 0.67315 0.63508
 C300 C 0.80032 0.68945 0.65830
 C301 C 0.79367 0.67656 0.68253
 C302 C 0.79529 0.64678 0.68379
 H303 H 0.83153 0.53733 0.60922
 H304 H 0.81482 0.58616 0.52173
 H305 H 0.83789 0.51026 0.56816
 H306 H 0.80866 0.63158 0.54320
 H307 H 0.80372 0.66079 0.58261
 H308 H 0.81319 0.56071 0.64261
 H309 H 0.80233 0.59012 0.68161
 H310 H 0.81149 0.68456 0.61719
 H311 H 0.79960 0.71243 0.65700
 H312 H 0.79081 0.63668 0.70272
 C313 C 0.74130 0.89897 0.08329
 C314 C 0.72997 0.87275 0.08730
 C315 C 0.71312 0.86291 0.06637
 C316 C 0.70847 0.87849 0.04239
 C317 C 0.71971 0.90468 0.03862
 C318 C 0.73620 0.91452 0.05960
 C319 C 0.70071 0.83762 0.06948
 C320 C 0.70452 0.82178 0.09295
 C321 C 0.72132 0.83042 0.11436
 C322 C 0.73467 0.85609 0.11130
 C323 C 0.75259 0.86400 0.13215
 C324 C 0.75750 0.84746 0.15505
 C325 C 0.74450 0.82259 0.15845
 C326 C 0.72576 0.81391 0.13849
 C327 C 0.71244 0.78894 0.14355
 C328 C 0.71864 0.77271 0.16669
 C329 C 0.73818 0.78074 0.18569
 C330 C 0.75060 0.80606 0.18163
 H331 H 0.75416 0.90830 0.09808
 H332 H 0.69476 0.87064 0.02724
 H333 H 0.74638 0.93386 0.05759
 H334 H 0.68779 0.82995 0.05355
 H335 H 0.69435 0.80244 0.09341
 H336 H 0.76376 0.88268 0.13123
 H337 H 0.77180 0.85422 0.17029
 H338 H 0.69717 0.78122 0.13003
 H339 H 0.70852 0.75337 0.16937
 H340 H 0.76555 0.81272 0.19630
 C341 C 0.18611 0.43430 0.60698
 C342 C 0.19557 0.40483 0.60656
 C343 C 0.20161 0.39166 0.58110
 C344 C 0.20035 0.40794 0.55741
 C345 C 0.19134 0.43732 0.55812
 C346 C 0.18376 0.45006 0.58320
 C347 C 0.20886 0.36226 0.57935
 C348 C 0.20975 0.34548 0.60231
 C349 C 0.20466 0.35768 0.62820
 C350 C 0.19889 0.38798 0.63045
 C351 C 0.19778 0.40049 0.65644
 C352 C 0.20215 0.38396 0.67947
 C353 C 0.20650 0.35432 0.67761
 C354 C 0.20654 0.34069 0.65203
 C355 C 0.20853 0.31055 0.65140
 C356 C 0.21252 0.29473 0.67504
 C357 C 0.21495 0.30836 0.69994
 C358 C 0.21137 0.33817 0.70119
 H359 H 0.17939 0.44559 0.62529
 H360 H 0.20662 0.39752 0.53846
 H361 H 0.17551 0.47234 0.58456
 H362 H 0.21356 0.35203 0.55995
 H363 H 0.21580 0.32300 0.59925
 H364 H 0.19495 0.42324 0.65960
 H365 H 0.20203 0.39453 0.69896
 H366 H 0.20686 0.29861 0.63297
 H367 H 0.21492 0.27167 0.67367
 H368 H 0.21268 0.34881 0.72054
 C369 C 0.89277 0.27852 0.09446
 C370 C 0.86432 0.29063 0.09874
 C371 C 0.85242 0.31053 0.07956
 C372 C 0.86837 0.31760 0.05706
 C373 C 0.89645 0.30486 0.05252
 C374 C 0.90840 0.28552 0.07193
 C375 C 0.82447 0.32318 0.08268
 C376 C 0.80758 0.31585 0.10400
 C377 C 0.81808 0.29556 0.12333
 C378 C 0.84716 0.28327 0.12103
 C379 C 0.85806 0.26389 0.14099
 C380 C 0.84103 0.25593 0.16186
 C381 C 0.81246 0.26684 0.16380
 C382 C 0.80048 0.28698 0.14480
 C383 C 0.77122 0.29723 0.14796
 C384 C 0.75478 0.28754 0.16885
 C385 C 0.76682 0.26737 0.18724
 C386 C 0.79577 0.25737 0.18466
 H387 H 0.90354 0.26293 0.10769
 H388 H 0.85880 0.33368 0.04338
 H389 H 0.92942 0.27420 0.06926
 H390 H 0.81534 0.33866 0.06820
 H391 H 0.78625 0.32655 0.10468
 H392 H 0.87982 0.25432 0.14117
 H393 H 0.85032 0.24075 0.17654
 H394 H 0.76021 0.31243 0.13449
 H395 H 0.73244 0.29564 0.17038
 H396 H 0.80544 0.24184 0.19885
 C397 C 0.42958 0.80792 0.59338
 C398 C 0.40103 0.82029 0.59677
 C399 C 0.38850 0.83667 0.57516
 C400 C 0.40362 0.83927 0.55091
 C401 C 0.43125 0.82543 0.54739
 C402 C 0.44424 0.81036 0.56911
 C403 C 0.36062 0.84968 0.57748
 C404 C 0.34430 0.84588 0.60032
 C405 C 0.35521 0.82868 0.62193
 C406 C 0.38428 0.81620 0.62039
 C407 C 0.39536 0.79938 0.64217
 C408 C 0.37848 0.79384 0.66410
 C409 C 0.34991 0.80492 0.66545
 C410 C 0.33788 0.82297 0.64475
 C411 C 0.30880 0.83392 0.64757
 C412 C 0.29238 0.82641 0.66946
 C413 C 0.30424 0.80777 0.68928
 C414 C 0.33319 0.79753 0.68731
 H415 H 0.44108 0.79547 0.60873
 H416 H 0.39350 0.85143 0.53441
 H417 H 0.46546 0.79924 0.56699
 H418 H 0.35104 0.86252 0.56116
 H419 H 0.32289 0.85642 0.60015
 H420 H 0.41706 0.78968 0.64282
 H421 H 0.38785 0.78033 0.68005
 H422 H 0.29787 0.84804 0.63310
 H423 H 0.27009 0.83479 0.67052
 H424 H 0.34275 0.78333 0.70268
 C425 C 0.08400 0.71092 0.09520
 C426 C 0.11183 0.71924 0.09641
 C427 C 0.12591 0.72334 0.07169
 C428 C 0.11192 0.72096 0.04704
 C429 C 0.08432 0.71206 0.04568
 C430 C 0.07076 0.70706 0.07045
 C431 C 0.15412 0.72963 0.07154
 C432 C 0.16913 0.73073 0.09542
 C433 C 0.15600 0.72693 0.12059
 C434 C 0.12640 0.72302 0.12120
 C435 C 0.11228 0.72394 0.14646
 C436 C 0.12677 0.72823 0.17032
 C437 C 0.15611 0.73011 0.17006
 C438 C 0.17130 0.72813 0.14522
 C439 C 0.20133 0.72703 0.14601
 C440 C 0.21543 0.72980 0.17031
 C441 C 0.20015 0.73422 0.19451
 C442 C 0.17047 0.73411 0.19441
 H443 H 0.07244 0.70588 0.11307
 H444 H 0.12291 0.72670 0.02901
 H445 H 0.05024 0.69892 0.07122
 H446 H 0.16498 0.73308 0.05269
 H447 H 0.19078 0.73587 0.09363
 H448 H 0.08966 0.72271 0.14828
 H449 H 0.11496 0.72966 0.18919
 H450 H 0.21454 0.72347 0.12822
 H451 H 0.23843 0.72952 0.17003
 H452 H 0.15865 0.73693 0.21324
 C453 C 0.57259 0.19639 0.60558
 C454 C 0.60141 0.20208 0.60397
 C455 C 0.61382 0.20308 0.57795
 C456 C 0.59745 0.20042 0.55474
 C457 C 0.56887 0.19470 0.55647
 C458 C 0.55679 0.19247 0.58225
 C459 C 0.64261 0.20671 0.57507
 C460 C 0.65971 0.20861 0.59753
 C461 C 0.64836 0.20817 0.62390
 C462 C 0.61845 0.20648 0.62717
 C463 C 0.60651 0.21026 0.65332
 C464 C 0.62327 0.21550 0.67549
 C465 C 0.65272 0.21566 0.67275
 C466 C 0.66580 0.21068 0.64707
 C467 C 0.69592 0.20820 0.64564
 C468 C 0.71214 0.21249 0.66841
 C469 C 0.69902 0.21975 0.69326
 C470 C 0.66927 0.22099 0.69544
 H471 H 0.56198 0.19389 0.62461
 H472 H 0.60722 0.20303 0.53521
 H473 H 0.53512 0.18729 0.58455
 H474 H 0.65218 0.20767 0.55520
 H475 H 0.68164 0.21171 0.59354
 H476 H 0.58395 0.21059 0.65706
 H477 H 0.61307 0.21917 0.69504
 H478 H 0.70758 0.20247 0.62729
 H479 H 0.73513 0.21106 0.66632
 H480 H 0.65904 0.22598 0.71480
 C481 C 0.73417 0.06568 0.90209
 C482 C 0.72114 0.09396 0.89926
 C483 C 0.70285 0.10521 0.92037
 C484 C 0.69874 0.08911 0.94355
 C485 C 0.71213 0.06112 0.94647
 C486 C 0.72965 0.04967 0.92508
 C487 C 0.68857 0.13254 0.91835
 C488 C 0.69204 0.14919 0.89586
 C489 C 0.71039 0.13932 0.87439
 C490 C 0.72557 0.11141 0.87630
 C491 C 0.74505 0.10215 0.85549
 C492 C 0.74976 0.11951 0.83373
 C493 C 0.73497 0.14661 0.83144
 C494 C 0.71461 0.15671 0.85140
 C495 C 0.69945 0.18395 0.84750
 C496 C 0.70534 0.20082 0.82556
 C497 C 0.72638 0.19126 0.80657
 C498 C 0.74078 0.16384 0.80943
 H499 H 0.74799 0.05514 0.88690
 H500 H 0.68397 0.09828 0.95887
 H501 H 0.74117 0.02863 0.92630
 H502 H 0.67448 0.14125 0.93442
 H503 H 0.68041 0.17011 0.89628
 H504 H 0.75762 0.08171 0.85567
 H505 H 0.76529 0.11162 0.81851
 H506 H 0.68286 0.19298 0.86098
 H507 H 0.69359 0.22175 0.82378
 H508 H 0.75691 0.15602 0.79472
 C509 C 0.23314 0.59173 0.41863
 C510 C 0.21697 0.61789 0.41216
 C511 C 0.19644 0.62954 0.43135
 C512 C 0.19282 0.61576 0.45597
 C513 C 0.20906 0.59000 0.46196
 C514 C 0.22912 0.57809 0.44307
 C515 C 0.17950 0.65488 0.42596
 C516 C 0.18249 0.66924 0.40195
 C517 C 0.20286 0.65891 0.38226
 C518 C 0.22052 0.63289 0.38751
 C519 C 0.24143 0.62301 0.36815
 C520 C 0.24551 0.63827 0.34485
 C521 C 0.22875 0.66376 0.33960
 C522 C 0.20671 0.67417 0.35783
 C523 C 0.18979 0.69974 0.35097
 C524 C 0.19582 0.71509 0.32805
 C525 C 0.21863 0.70548 0.31096
 C526 C 0.23448 0.67932 0.31648
 H527 H 0.24896 0.58105 0.40527
 H528 H 0.17691 0.62485 0.47036
 H529 H 0.24197 0.55819 0.44732
 H530 H 0.16374 0.66382 0.44054
 H531 H 0.16870 0.68878 0.39973
 H532 H 0.25557 0.60374 0.37059
 H533 H 0.26225 0.63010 0.33088
 H534 H 0.17194 0.70876 0.36298
 H535 H 0.18293 0.73505 0.32413
 H536 H 0.25205 0.67148 0.30328
 C537 C 0.32592 0.88264 0.93825
 C538 C 0.31566 0.89428 0.91349
 C539 C 0.30592 0.92376 0.91304
 C540 C 0.30649 0.94061 0.93653
 C541 C 0.31523 0.92844 0.96146
 C542 C 0.32547 0.89929 0.96164
 C543 C 0.29462 0.93613 0.88938
 C544 C 0.29123 0.91962 0.86655
 C545 C 0.29961 0.88997 0.86627
 C546 C 0.31361 0.87746 0.88955
 C547 C 0.32479 0.84848 0.88821
 C548 C 0.32078 0.83180 0.86566
 C549 C 0.30505 0.84307 0.84374
 C550 C 0.29428 0.87233 0.84360
 C551 C 0.27756 0.88237 0.82125
 C552 C 0.27139 0.86396 0.80042
 C553 C 0.28197 0.83507 0.80082
 C554 C 0.29934 0.82494 0.82230
 H555 H 0.33351 0.86045 0.94058
 H556 H 0.29782 0.96281 0.93563
 H557 H 0.33371 0.88907 0.97991
 H558 H 0.28752 0.95874 0.88872
 H559 H 0.28211 0.93085 0.84925
 H560 H 0.33706 0.83800 0.90426
 H561 H 0.32947 0.80957 0.86572
 H562 H 0.26796 0.90407 0.81972
 H563 H 0.25785 0.87235 0.78409
 H564 H 0.30738 0.80254 0.82300
 C565 C 0.82214 0.35029 0.41494
 C566 C 0.79964 0.35861 0.39688
 C567 C 0.78251 0.38466 0.40228
 C568 C 0.78776 0.40134 0.42495
 C569 C 0.80960 0.39223 0.44292
 C570 C 0.82688 0.36682 0.43751
 C571 C 0.75984 0.39368 0.38539
 C572 C 0.75299 0.37696 0.36374
 C573 C 0.76876 0.35043 0.35794
 C574 C 0.79310 0.34159 0.37420
 C575 C 0.80989 0.31589 0.36744
 C576 C 0.80242 0.29863 0.34650
 C577 C 0.77796 0.30613 0.33143
 C578 C 0.76088 0.33224 0.33663
 C579 C 0.73619 0.33859 0.32068
 C580 C 0.72868 0.31956 0.30097
 C581 C 0.74542 0.29360 0.29635
 C582 C 0.77029 0.28728 0.31143
 H583 H 0.83613 0.33083 0.41270
 H584 H 0.77415 0.42091 0.42916
 H585 H 0.84411 0.35954 0.45101
 H586 H 0.74687 0.41372 0.38923
 H587 H 0.73506 0.38556 0.35190
 H588 H 0.82911 0.30834 0.37794
 H589 H 0.81578 0.27890 0.34234
 H590 H 0.72181 0.35775 0.32323
 H591 H 0.70934 0.32506 0.28959
 H592 H 0.78349 0.26728 0.30802
 C593 C 0.06244 0.27396 0.91397
 C594 C 0.08471 0.29083 0.90779
 C595 C 0.08941 0.31301 0.92614
 C596 C 0.07320 0.31722 0.94993
 C597 C 0.05172 0.29997 0.95593
 C598 C 0.04624 0.27859 0.93762
 C599 C 0.11037 0.33086 0.92084
 C600 C 0.12720 0.32714 0.89782
 C601 C 0.12402 0.30501 0.87913
 C602 C 0.10257 0.28638 0.88429
 C603 C 0.10022 0.26355 0.86617
 C604 C 0.11852 0.25861 0.84417
 C605 C 0.13962 0.27641 0.83900
 C606 C 0.14222 0.30031 0.85594
 C607 C 0.16336 0.31823 0.84915
 C608 C 0.18222 0.31152 0.82772
 C609 C 0.18059 0.28699 0.81202
 C610 C 0.15865 0.26996 0.81731
 H611 H 0.05686 0.25708 0.90100
 H612 H 0.07716 0.33418 0.96382
 H613 H 0.02964 0.26504 0.94183
 H614 H 0.11396 0.34789 0.93478
 H615 H 0.14309 0.34171 0.89567
 H616 H 0.08486 0.24849 0.86876
 H617 H 0.11629 0.24041 0.83121
 H618 H 0.16619 0.33748 0.86007
 H619 H 0.19862 0.32539 0.82385
 H620 H 0.15699 0.25104 0.80516
 C621 C 0.58439 0.78846 0.39320
 C622 C 0.61246 0.79610 0.39008
 C623 C 0.62364 0.81149 0.41150
 C624 C 0.60788 0.81736 0.43545
 C625 C 0.58083 0.80810 0.43876
 C626 C 0.56902 0.79428 0.41713
 C627 C 0.65081 0.82027 0.40929
 C628 C 0.66773 0.81332 0.38668
 C629 C 0.65825 0.79689 0.36529
 C630 C 0.63003 0.78838 0.36689
 C631 C 0.62068 0.77162 0.34568
 C632 C 0.63845 0.76262 0.32418
 C633 C 0.66616 0.77013 0.32263
 C634 C 0.67634 0.78793 0.34274
 C635 C 0.70446 0.79545 0.33962
 C636 C 0.72192 0.78467 0.31822
 C637 C 0.71210 0.76610 0.29913
 C638 C 0.68395 0.75938 0.30123
 H639 H 0.57378 0.77745 0.37781
 H640 H 0.61701 0.82858 0.45186
 H641 H 0.54821 0.78678 0.41909
 H642 H 0.65935 0.83230 0.42548
 H643 H 0.68854 0.82066 0.38697
 H644 H 0.59981 0.76442 0.34530
 H645 H 0.63046 0.74925 0.30872
 H646 H 0.71384 0.80937 0.35345
 H647 H 0.74350 0.79043 0.31703
 H648 H 0.67594 0.74530 0.28641
 C649 C 0.93891 0.68245 0.89251
 C650 C 0.90873 0.68583 0.89258
 C651 C 0.89461 0.68620 0.91790
 C652 C 0.91013 0.68559 0.94196
 C653 C 0.94008 0.68277 0.94171
 C654 C 0.95421 0.68068 0.91664
 C655 C 0.86499 0.68733 0.91918
 C656 C 0.84894 0.68778 0.89580
 C657 C 0.86187 0.68839 0.87009
 C658 C 0.89211 0.68875 0.86850
 C659 C 0.90450 0.69332 0.84310
 C660 C 0.88786 0.69771 0.82010
 C661 C 0.85849 0.69635 0.82124
 C662 C 0.84532 0.69024 0.84601
 C663 C 0.81599 0.68641 0.84566
 C664 C 0.80002 0.69095 0.82221
 C665 C 0.81262 0.69962 0.79845
 C666 C 0.84202 0.70165 0.79788
 H667 H 0.95129 0.68027 0.87412
 H668 H 0.89859 0.68772 0.96095
 H669 H 0.97725 0.67737 0.91553
 H670 H 0.85406 0.68764 0.93851
 H671 H 0.82616 0.68908 0.89859
 H672 H 0.92695 0.69509 0.84059
 H673 H 0.89813 0.70220 0.80121
 H674 H 0.80484 0.67973 0.86316
 H675 H 0.77739 0.68883 0.82301
 H676 H 0.85201 0.70771 0.77933
 C677 C 0.40614 0.24671 0.41536
 C678 C 0.38312 0.23120 0.40819
 C679 C 0.37659 0.20923 0.42583
 C680 C 0.39202 0.20367 0.44968
 C681 C 0.41434 0.21952 0.45666
 C682 C 0.42145 0.24085 0.43915
 C683 C 0.35457 0.19290 0.41976
 C684 C 0.33842 0.19800 0.39668
 C685 C 0.34350 0.21995 0.37860
 C686 C 0.36627 0.23681 0.38440
 C687 C 0.37110 0.25895 0.36645
 C688 C 0.35402 0.26488 0.34400
 C689 C 0.33154 0.24895 0.33829
 C690 C 0.32618 0.22596 0.35521
 C691 C 0.30334 0.21024 0.34815
 C692 C 0.28601 0.21786 0.32607
 C693 C 0.29080 0.24119 0.31001
 C694 C 0.31402 0.25631 0.31597
 H695 H 0.41290 0.26355 0.40313
 H696 H 0.38676 0.18670 0.46286
 H697 H 0.43863 0.25341 0.44411
 H698 H 0.34961 0.17600 0.43315
 H699 H 0.32175 0.18443 0.39386
 H700 H 0.38777 0.27252 0.36935
 H701 H 0.35833 0.28238 0.33106
 H702 H 0.29796 0.19209 0.35935
 H703 H 0.26840 0.20559 0.32186
 H704 H 0.31807 0.27436 0.30364
 C705 C 0.71983 0.90499 0.89309
 C706 C 0.70885 0.87846 0.88965
 C707 C 0.69401 0.86785 0.91174
 C708 C 0.69122 0.88292 0.93635
 C709 C 0.70325 0.90858 0.93963
 C710 C 0.71715 0.91959 0.91763
 C711 C 0.68267 0.84189 0.90945
 C712 C 0.68674 0.82548 0.88612
 C713 C 0.70243 0.83441 0.86396
 C714 C 0.71297 0.86173 0.86547
 C715 C 0.72792 0.87108 0.84301
 C716 C 0.73401 0.85376 0.82060
 C717 C 0.72528 0.82655 0.81942
 C718 C 0.70870 0.81665 0.84065
 C719 C 0.69991 0.78900 0.83790
 C720 C 0.70856 0.77161 0.81578
 C721 C 0.72616 0.78111 0.79567
 C722 C 0.73377 0.80891 0.79731
 H723 H 0.73134 0.91484 0.87756
 H724 H 0.68009 0.87439 0.95316
 H725 H 0.72701 0.93917 0.91963
 H726 H 0.67099 0.83384 0.92614
 H727 H 0.67760 0.80555 0.88633
 H728 H 0.73572 0.89165 0.84214
 H729 H 0.74623 0.86161 0.80418
 H730 H 0.68690 0.77982 0.85269
 H731 H 0.70219 0.75026 0.81493
 H732 H 0.74707 0.81665 0.78165
 C733 C 0.19704 0.44095 0.41096
 C734 C 0.18418 0.41561 0.40661
 C735 C 0.16829 0.40546 0.42820
 C736 C 0.16561 0.42025 0.45303
 C737 C 0.17934 0.44486 0.45725
 C738 C 0.19479 0.45504 0.43578
 C739 C 0.15585 0.38013 0.42519
 C740 C 0.16000 0.36383 0.40174
 C741 C 0.17648 0.37249 0.38000
 C742 C 0.18762 0.39946 0.38202
 C743 C 0.20221 0.40922 0.35953
 C744 C 0.20772 0.39240 0.33670
 C745 C 0.19894 0.36521 0.33521
 C746 C 0.18269 0.35495 0.35650
 C747 C 0.17429 0.32714 0.35365
 C748 C 0.18273 0.31007 0.33121
 C749 C 0.19972 0.32005 0.31082
 C750 C 0.20706 0.34797 0.31271
 H751 H 0.21009 0.44992 0.39606
 H752 H 0.15334 0.41218 0.46927
 H753 H 0.20634 0.47347 0.43841
 H754 H 0.14339 0.37238 0.44147
 H755 H 0.14998 0.34439 0.40132
 H756 H 0.20977 0.42992 0.35885
 H757 H 0.21958 0.40059 0.32020
 H758 H 0.16195 0.31754 0.36874
 H759 H 0.17669 0.28859 0.33030
 H760 H 0.22001 0.35608 0.29698
 C761 C 0.30952 0.08509 0.91120
 C762 C 0.30413 0.11514 0.91199
 C763 C 0.30477 0.12868 0.93746
 C764 C 0.30834 0.11263 0.96112
 C765 C 0.31281 0.08256 0.96048
 C766 C 0.31392 0.06924 0.93487
 C767 C 0.30132 0.15833 0.93945
 C768 C 0.29733 0.17502 0.91661
 C769 C 0.29560 0.16264 0.89077
 C770 C 0.29803 0.13222 0.88850
 C771 C 0.29300 0.11998 0.86314
 C772 C 0.28553 0.13686 0.84085
 C773 C 0.28389 0.16651 0.84263
 C774 C 0.29010 0.17977 0.86733
 C775 C 0.29035 0.20973 0.86754
 C776 C 0.28270 0.22589 0.84476
 C777 C 0.27448 0.21284 0.82106
 C778 C 0.27565 0.18306 0.81994
 H779 H 0.31116 0.07319 0.89252
 H780 H 0.30609 0.12417 0.98005
 H781 H 0.31893 0.04645 0.93262
 H782 H 0.30177 0.16883 0.95895
 H783 H 0.29433 0.19770 0.92008
 H784 H 0.29339 0.09731 0.86014
 H785 H 0.28097 0.12657 0.82198
 H786 H 0.29662 0.22134 0.88491
 H787 H 0.28243 0.24884 0.84599
 H788 H 0.26998 0.17276 0.80141
 C789 C 0.83439 0.54929 0.39214
 C790 C 0.82362 0.57849 0.39326
 C791 C 0.81868 0.59106 0.41909
 C792 C 0.82194 0.57449 0.44242
 C793 C 0.83197 0.54533 0.44124
 C794 C 0.83873 0.53314 0.41573
 C795 C 0.81000 0.62013 0.42168
 C796 C 0.80642 0.63728 0.39912
 C797 C 0.81023 0.62576 0.37286
 C798 C 0.81757 0.59569 0.36981
 C799 C 0.81726 0.58377 0.34361
 C800 C 0.80980 0.60067 0.32123
 C801 C 0.80395 0.63021 0.32384
 C802 C 0.80552 0.64324 0.34957
 C803 C 0.80243 0.67336 0.35098
 C804 C 0.79614 0.68971 0.32807
 C805 C 0.79229 0.67674 0.30313
 C806 C 0.79644 0.64694 0.30097
 H807 H 0.84022 0.53854 0.37333
 H808 H 0.81572 0.58454 0.46155
 H809 H 0.84739 0.51105 0.41379
 H810 H 0.80608 0.62982 0.44144
 H811 H 0.79917 0.65940 0.40290
 H812 H 0.82134 0.56114 0.33999
 H813 H 0.80890 0.59051 0.30162
 H814 H 0.80535 0.68492 0.36940
 H815 H 0.79345 0.71273 0.33002
 H816 H 0.79417 0.63688 0.28149
 C817 C 0.09673 0.70408 0.89711
 C818 C 0.12232 0.71703 0.89836
 C819 C 0.13306 0.72247 0.92422
 C820 C 0.11745 0.71750 0.94756
 C821 C 0.09135 0.70531 0.94648
 C822 C 0.08181 0.69812 0.92056
 C823 C 0.15922 0.73340 0.92684
 C824 C 0.17531 0.73860 0.90428
 C825 C 0.16526 0.73420 0.87799
 C826 C 0.13770 0.72464 0.87495
 C827 C 0.12602 0.72418 0.84878
 C828 C 0.14085 0.73266 0.82636
 C829 C 0.16841 0.74052 0.82891
 C830 C 0.18142 0.74022 0.85467
 C831 C 0.21029 0.74565 0.85601
 C832 C 0.22504 0.75249 0.83294
 C833 C 0.21149 0.75467 0.80792
 C834 C 0.18317 0.74860 0.80589
 H835 H 0.08808 0.69759 0.87824
 H836 H 0.12562 0.72468 0.96644
 H837 H 0.06301 0.68737 0.91771
 H838 H 0.16754 0.73776 0.94662
 H839 H 0.19506 0.74741 0.90809
 H840 H 0.10481 0.71857 0.84517
 H841 H 0.13075 0.73270 0.80676
 H842 H 0.22232 0.74403 0.87448
 H843 H 0.24709 0.75670 0.83475
 H844 H 0.17289 0.74959 0.78634
 C845 C 0.56995 0.17112 0.40786
 C846 C 0.59706 0.18121 0.40622
 C847 C 0.61053 0.18726 0.43072
 C848 C 0.59596 0.18653 0.45535
 C849 C 0.56826 0.17822 0.45671
 C850 C 0.55601 0.16937 0.43270
 C851 C 0.63824 0.19490 0.43057
 C852 C 0.65297 0.19683 0.40651
 C853 C 0.63998 0.19248 0.38146
 C854 C 0.61116 0.18576 0.38124
 C855 C 0.59694 0.18552 0.35624
 C856 C 0.61033 0.19211 0.33232
 C857 C 0.63882 0.19758 0.33217
 C858 C 0.65442 0.19628 0.35660
 C859 C 0.68393 0.19896 0.35520
 C860 C 0.69685 0.20484 0.33088
 C861 C 0.68085 0.20858 0.30725
 C862 C 0.65186 0.20460 0.30783
 H863 H 0.55920 0.16408 0.39029
 H864 H 0.60606 0.19376 0.47331
 H865 H 0.53538 0.16138 0.43286
 H866 H 0.64868 0.19950 0.44929
 H867 H 0.67403 0.20350 0.40815
 H868 H 0.57482 0.18188 0.35476
 H869 H 0.59828 0.19280 0.31372
 H870 H 0.69772 0.19615 0.37249
 H871 H 0.71941 0.20737 0.33073
 H872 H 0.63961 0.20676 0.28937
 C873 C 0.85120 0.33615 0.93230
 C874 C 0.86238 0.32205 0.90868
 C875 C 0.89167 0.31144 0.90857
 C876 C 0.90854 0.31401 0.93158
 C877 C 0.89647 0.32566 0.95580
 C878 C 0.86784 0.33767 0.95533
 C879 C 0.90372 0.29698 0.88596
 C880 C 0.88695 0.29093 0.86417
 C881 C 0.85732 0.29948 0.86400
 C882 C 0.84520 0.31685 0.88580
 C883 C 0.81618 0.32779 0.88430
 C884 C 0.79909 0.32045 0.86322
 C885 C 0.81000 0.30158 0.84305
 C886 C 0.83931 0.29093 0.84297
 C887 C 0.84904 0.27117 0.82245
 C888 C 0.83038 0.26224 0.80320
 C889 C 0.80145 0.27274 0.80349
 C890 C 0.79152 0.29279 0.82328
 H891 H 0.82932 0.34519 0.93418
 H892 H 0.93041 0.30424 0.93116
 H893 H 0.85795 0.34832 0.97296
 H894 H 0.92623 0.28934 0.88546
 H895 H 0.89792 0.27941 0.84769
 H896 H 0.80589 0.34220 0.89916
 H897 H 0.77682 0.32906 0.86314
 H898 H 0.87074 0.26144 0.82116
 H899 H 0.83869 0.24673 0.78815
 H900 H 0.76914 0.30100 0.82381
 C901 C 0.41932 0.77908 0.40837
 C902 C 0.39293 0.79527 0.40284
 C903 C 0.38363 0.81795 0.42079
 C904 C 0.40030 0.82408 0.44302
 C905 C 0.42628 0.80775 0.44818
 C906 C 0.43559 0.78527 0.43064
 C907 C 0.35762 0.83430 0.41664
 C908 C 0.34015 0.82834 0.39537
 C909 C 0.34814 0.80579 0.37708
 C910 C 0.37530 0.78944 0.38049
 C911 C 0.38395 0.76782 0.36144
 C912 C 0.36641 0.76163 0.34037
 C913 C 0.33952 0.77657 0.33736
 C914 C 0.32990 0.79895 0.35550
 C915 C 0.30220 0.81318 0.35142
 C916 C 0.28497 0.80523 0.33043
 C917 C 0.29465 0.78294 0.31280
 C918 C 0.32209 0.76892 0.31631
 H919 H 0.42787 0.76111 0.39629
 H920 H 0.39301 0.84167 0.45641
 H921 H 0.45529 0.77191 0.43445
 H922 H 0.35050 0.85177 0.43021
 H923 H 0.32045 0.84203 0.39379
 H924 H 0.40436 0.75522 0.36206
 H925 H 0.37394 0.74468 0.32637
 H926 H 0.29295 0.83024 0.36426
 H927 H 0.26382 0.81641 0.32823
 H928 H 0.32988 0.75161 0.30280
 C929 C 0.26612 0.92778 0.09993
 C930 C 0.28315 0.90241 0.10734
 C931 C 0.30646 0.89274 0.09025
 C932 C 0.31196 0.90761 0.06672
 C933 C 0.29458 0.93229 0.05948
 C934 C 0.27185 0.94240 0.07641
 C935 C 0.32413 0.86812 0.09650
 C936 C 0.31888 0.85223 0.11906
 C937 C 0.29552 0.86032 0.13642
 C938 C 0.27764 0.88611 0.13075
 C939 C 0.25466 0.89450 0.14845
 C940 C 0.24865 0.87788 0.17033
 C941 C 0.26523 0.85227 0.17558
 C942 C 0.28916 0.84324 0.15900
 C943 C 0.30529 0.81708 0.16545
 C944 C 0.29731 0.80033 0.18671
 C945 C 0.27316 0.80901 0.20245
 C946 C 0.25756 0.83534 0.19707
 H947 H 0.24803 0.93683 0.11160
 H948 H 0.32992 0.89994 0.05390
 H949 H 0.25804 0.96139 0.07116
 H950 H 0.34213 0.86082 0.08361
 H951 H 0.33358 0.83347 0.12213
 H952 H 0.24057 0.91379 0.14589
 H953 H 0.23050 0.88502 0.18309
 H954 H 0.32393 0.80854 0.15427
 H955 H 0.30989 0.78017 0.19047
 H956 H 0.23886 0.84236 0.20917
 C957 C 0.83605 0.34923 0.56769
 C958 C 0.81839 0.35954 0.58963
 C959 C 0.80396 0.38742 0.58759
 C960 C 0.80678 0.40378 0.56433
 C961 C 0.82323 0.39262 0.54235
 C962 C 0.83821 0.36548 0.54446
 C963 C 0.78599 0.39854 0.60837
 C964 C 0.78077 0.38214 0.63064
 C965 C 0.79355 0.35381 0.63316
 C966 C 0.81369 0.34279 0.61294
 C967 C 0.82809 0.31526 0.61652
 C968 C 0.82193 0.29841 0.63818
 C969 C 0.80105 0.30810 0.65706
 C970 C 0.78666 0.33599 0.65503
 C971 C 0.76530 0.34446 0.67455
 C972 C 0.75839 0.32588 0.69479
 C973 C 0.77250 0.29827 0.69646
 C974 C 0.79414 0.28971 0.67770
 H975 H 0.84772 0.32832 0.56731
 H976 H 0.79487 0.42469 0.56272
 H977 H 0.85126 0.35652 0.52779
 H978 H 0.77525 0.41999 0.60711
 H979 H 0.76649 0.39241 0.64562
 H980 H 0.84441 0.30597 0.60289
 H981 H 0.83329 0.27726 0.63985
 H982 H 0.75294 0.36503 0.67442
 H983 H 0.74158 0.33311 0.70899
 H984 H 0.80522 0.26838 0.67872
 C985 C 0.71301 0.06020 0.09140
 C986 C 0.69778 0.08745 0.09540
 C987 C 0.68026 0.09888 0.07403
 C988 C 0.67956 0.08425 0.04929
 C989 C 0.69586 0.05794 0.04538
 C990 C 0.71207 0.04586 0.06682
 C991 C 0.66396 0.12512 0.07720
 C992 C 0.66513 0.14080 0.10087
 C993 C 0.68317 0.13104 0.12233
 C994 C 0.69980 0.10393 0.11953
 C995 C 0.71872 0.09469 0.14050
 C996 C 0.72208 0.11167 0.16294
 C997 C 0.70641 0.13827 0.16577
 C998 C 0.68603 0.14801 0.14602
 C999 C 0.66986 0.17469 0.15061
 C1000 C 0.67523 0.19166 0.17274
 C1001 C 0.69670 0.18267 0.19118
 C1002 C 0.71163 0.15555 0.18797
 H1003 H 0.72607 0.04935 0.10671
 H1004 H 0.66656 0.09349 0.03292
 H1005 H 0.72489 0.02553 0.06430
 H1006 H 0.65035 0.13385 0.06104
 H1007 H 0.65221 0.16104 0.10129
 H1008 H 0.73211 0.07473 0.13986
 H1009 H 0.73747 0.10400 0.17812
 H1010 H 0.65309 0.18329 0.13739
 H1011 H 0.66301 0.21235 0.17492
 H1012 H 0.72799 0.14816 0.20236
 C1013 C 0.22137 0.59623 0.60636
 C1014 C 0.21001 0.62521 0.60880
 C1015 C 0.19164 0.63662 0.58805
 C1016 C 0.18669 0.62024 0.56514
 C1017 C 0.19956 0.59221 0.56233
 C1018 C 0.21622 0.58012 0.58347
 C1019 C 0.17888 0.66459 0.58984
 C1020 C 0.18442 0.68195 0.61143
 C1021 C 0.20351 0.67218 0.63207
 C1022 C 0.21663 0.64336 0.63070
 C1023 C 0.23670 0.63402 0.65069
 C1024 C 0.24419 0.65224 0.67094
 C1025 C 0.23171 0.68036 0.67251
 C1026 C 0.21066 0.69058 0.65355
 C1027 C 0.19792 0.71898 0.65673
 C1028 C 0.20668 0.73668 0.67698
 C1029 C 0.22836 0.72688 0.69492
 C1030 C 0.24049 0.69848 0.69280
 H1031 H 0.23461 0.58540 0.62156
 H1032 H 0.17328 0.62956 0.54907
 H1033 H 0.22630 0.55843 0.58183
 H1034 H 0.16465 0.67334 0.57413
 H1035 H 0.17394 0.70336 0.61079
 H1036 H 0.24776 0.61283 0.65084
 H1037 H 0.26017 0.64422 0.68546
 H1038 H 0.18109 0.72834 0.64396
 H1039 H 0.19663 0.75840 0.67826
 H1040 H 0.25703 0.69049 0.70678
 C1041 C 0.94046 0.66367 0.09089
 C1042 C 0.91048 0.67010 0.09149
 C1043 C 0.89626 0.67355 0.06646
 C1044 C 0.91178 0.67405 0.04230
 C1045 C 0.94176 0.66941 0.04192
 C1046 C 0.95571 0.66299 0.06652
 C1047 C 0.86657 0.67735 0.06562
 C1048 C 0.85053 0.67813 0.08919
 C1049 C 0.86367 0.67658 0.11473
 C1050 C 0.89413 0.67360 0.11594
 C1051 C 0.90713 0.67608 0.14134
 C1052 C 0.89087 0.68213 0.16463
 C1053 C 0.86114 0.68434 0.16378
 C1054 C 0.84725 0.67986 0.13905
 C1055 C 0.81736 0.67932 0.13962
 C1056 C 0.80172 0.68572 0.16320
 C1057 C 0.81522 0.69308 0.18692
 C1058 C 0.84506 0.69167 0.18732
 H1059 H 0.95264 0.65865 0.10892
 H1060 H 0.90012 0.67934 0.02394
 H1061 H 0.97856 0.65767 0.06725
 H1062 H 0.85555 0.67985 0.04649
 H1063 H 0.82774 0.68180 0.08675
 H1064 H 0.92993 0.67518 0.14357
 H1065 H 0.90170 0.68518 0.18349
 H1066 H 0.80547 0.67389 0.12216
 H1067 H 0.77872 0.68619 0.16250
 H1068 H 0.85569 0.69666 0.20582
 C1069 C 0.37149 0.18479 0.57873
 C1070 C 0.37869 0.19885 0.60269
 C1071 C 0.40405 0.21248 0.60248
 C1072 C 0.42108 0.21218 0.57915
 C1073 C 0.41299 0.19911 0.55538
 C1074 C 0.38833 0.18510 0.55552
 C1075 C 0.41189 0.22713 0.62527
 C1076 C 0.39431 0.23005 0.64788
 C1077 C 0.36816 0.21808 0.64869
 C1078 C 0.36102 0.20089 0.62635
 C1079 C 0.33622 0.18674 0.62825
 C1080 C 0.31789 0.19087 0.65025
 C1081 C 0.32330 0.20946 0.67108
 C1082 C 0.34866 0.22309 0.67087
 C1083 C 0.35273 0.24219 0.69232
 C1084 C 0.33204 0.24815 0.71239
 C1085 C 0.30675 0.23513 0.71203
 C1086 C 0.30293 0.21519 0.69169
 H1087 H 0.35250 0.17420 0.57687
 H1088 H 0.44000 0.22334 0.57910
 H1089 H 0.38183 0.17461 0.53743
 H1090 H 0.43151 0.23715 0.62539
 H1091 H 0.40192 0.24188 0.66448
 H1092 H 0.33028 0.17220 0.61299
 H1093 H 0.29880 0.17998 0.65055
 H1094 H 0.37111 0.25379 0.69369
 H1095 H 0.33560 0.26361 0.72791
 H1096 H 0.28340 0.20501 0.69114
 C1097 C 0.05493 0.29346 0.10196
 C1098 C 0.08116 0.30519 0.10493
 C1099 C 0.09030 0.32153 0.08323
 C1100 C 0.07449 0.32458 0.05924
 C1101 C 0.04925 0.31174 0.05627
 C1102 C 0.03941 0.29667 0.07806
 C1103 C 0.11547 0.33432 0.08533
 C1104 C 0.13226 0.33083 0.10825
 C1105 C 0.12474 0.31396 0.13007
 C1106 C 0.09877 0.30088 0.12837
 C1107 C 0.09173 0.28322 0.14978
 C1108 C 0.10963 0.27793 0.17174
 C1109 C 0.13508 0.29025 0.17360
 C1110 C 0.14276 0.30900 0.15318
 C1111 C 0.16844 0.32160 0.15666
 C1112 C 0.18620 0.31472 0.17866
 C1113 C 0.17910 0.29516 0.19806
 C1114 C 0.15317 0.28344 0.19562
 H1115 H 0.04583 0.28143 0.11755
 H1116 H 0.08202 0.33675 0.04267
 H1117 H 0.02001 0.28645 0.07633
 H1118 H 0.12248 0.34698 0.06889
 H1119 H 0.15149 0.34117 0.10786
 H1120 H 0.07276 0.27246 0.14996
 H1121 H 0.10355 0.26374 0.18737
 H1122 H 0.17562 0.33673 0.14271
 H1123 H 0.20597 0.32434 0.18010
 H1124 H 0.14724 0.26852 0.21066
 C1125 C 0.59104 0.76521 0.57935
 C1126 C 0.61598 0.77802 0.58584
 C1127 C 0.62447 0.79890 0.56791
 C1128 C 0.60875 0.80621 0.54452
 C1129 C 0.58423 0.79324 0.53847
 C1130 C 0.57553 0.77276 0.55610
 C1131 C 0.64862 0.81246 0.57333
 C1132 C 0.66485 0.80572 0.59612
 C1133 C 0.65762 0.78489 0.61454
 C1134 C 0.63279 0.77078 0.60931
 C1135 C 0.62578 0.74969 0.62756
 C1136 C 0.64260 0.74223 0.64982
 C1137 C 0.66695 0.75554 0.65506
 C1138 C 0.67467 0.77735 0.63780
 C1139 C 0.69937 0.79045 0.64447
 C1140 C 0.71607 0.78147 0.66661
 C1141 C 0.70879 0.75928 0.68303
 C1142 C 0.68389 0.74675 0.67735
 H1143 H 0.58282 0.74927 0.59171
 H1144 H 0.61542 0.82234 0.53109
 H1145 H 0.55678 0.76222 0.55172
 H1146 H 0.65515 0.82847 0.55971
 H1147 H 0.68321 0.81715 0.59848
 H1148 H 0.60751 0.73814 0.62512
 H1149 H 0.63652 0.72564 0.66303
 H1150 H 0.70664 0.80756 0.63297
 H1151 H 0.73509 0.79173 0.67060
 H1152 H 0.67791 0.72965 0.68998
   
