data_POSCAR
  _audit_creation_date              2014-09-24
  _audit_creation_method            'ToBaCCo'
  _symmetry_space_group_name_H-M    'P1'
  _symmetry_Int_Tables_number       1
  _symmetry_cell_setting            triclinic
  loop_
  _symmetry_equiv_pos_as_xyz
 x,y,z
_cell_length_a 39.2558
_cell_length_b 39.2552
_cell_length_c 21.9162
_cell_angle_alpha 90.000100
_cell_angle_beta 90.000000
_cell_angle_gamma 120.013200
loop_
  _atom_site_label
  _atom_site_type_symbol
  _atom_site_fract_x
  _atom_site_fract_y
  _atom_site_fract_z
C1 C 0.43942 0.87743 0.53081
 C2 C 0.43833 0.87743 0.46829
 C3 C 0.45761 0.91652 0.45013
 N4 N 0.47027 0.94024 0.49955
 C5 C 0.45923 0.91652 0.54897
 C6 C 0.46414 0.92930 0.38876
 C7 C 0.48521 0.96915 0.36981
 C8 C 0.49639 0.98098 0.30996
 C9 C 0.51661 1.02134 0.30984
 C10 C 0.51740 1.03342 0.36967
 N11 N 0.49760 1.00132 0.40575
 C12 C 0.53623 1.07337 0.38853
 C13 C 0.54244 1.08619 0.45004
 C14 C 0.56222 1.12530 0.46830
 C15 C 0.56323 1.12530 0.53079
 C16 C 0.54394 1.08619 0.54905
 N17 N 0.53135 1.06248 0.49955
 C18 C 0.53735 1.07337 0.61057
 C19 C 0.51627 1.03342 0.62943
 C20 C 0.50500 1.02133 0.68927
 C21 C 0.48490 0.98098 0.68915
 C22 C 0.48423 0.96915 0.62929
 N23 N 0.50399 1.00133 0.59335
 C24 C 0.46548 0.92930 0.61034
 H25 H 0.42681 0.85154 0.55956
 H26 H 0.42506 0.85154 0.43954
 H27 H 0.51122 1.00138 0.54793
 H28 H 0.49101 0.96248 0.27037
 H29 H 0.52969 1.03970 0.27010
 H30 H 0.57486 1.15120 0.43957
 H31 H 0.57647 1.15121 0.55951
 H32 H 0.47180 0.96247 0.72875
 H33 H 0.49040 1.00137 0.45116
 H34 H 0.51028 1.03970 0.72901
 C35 C -0.12547 0.43638 0.46829
 C36 C -0.12547 0.43744 0.53078
 C37 C -0.08636 0.45731 0.54904
 N38 N -0.06265 0.46842 0.49954
 C39 C -0.08636 0.45575 0.45003
 C40 C -0.07354 0.46359 0.61056
 C41 C -0.03359 0.48244 0.62943
 C42 C -0.02152 0.48330 0.68929
 C43 C 0.01884 0.50348 0.68917
 C44 C 0.03068 0.51456 0.62929
 N45 N -0.00149 0.50216 0.59334
 C46 C 0.07053 0.53555 0.61032
 C47 C 0.08331 0.54207 0.54896
 C48 C 0.12240 0.56127 0.53079
 C49 C 0.12240 0.56023 0.46827
 C50 C 0.08331 0.54052 0.45011
 N51 N 0.05959 0.52948 0.49953
 C52 C 0.07052 0.53435 0.38875
 C53 C 0.03067 0.51561 0.36981
 C54 C 0.01884 0.51503 0.30998
 C55 C -0.02151 0.49488 0.30986
 C56 C -0.03359 0.48351 0.36967
 N57 N -0.00150 0.49578 0.40574
 C58 C -0.07354 0.46235 0.38852
 H59 H -0.15137 0.42308 0.43957
 H60 H -0.15137 0.42477 0.55951
 H61 H -0.00155 0.48845 0.45112
 H62 H -0.03989 0.47029 0.72904
 H63 H 0.03733 0.50889 0.72877
 H64 H 0.14829 0.57447 0.55954
 H65 H 0.14828 0.57281 0.43951
 H66 H -0.03988 0.48964 0.27014
 H67 H -0.00153 0.50928 0.54788
 H68 H 0.03734 0.52820 0.27040
 C69 C 0.56002 0.43594 0.47053
 C70 C 0.55902 0.43489 0.53305
 C71 C 0.54110 0.45602 0.55145
 N72 N 0.53117 0.46977 0.50207
 C73 C 0.54259 0.45754 0.45251
 C74 C 0.53593 0.46360 0.61289
 C75 C 0.51832 0.48590 0.63150
 C76 C 0.51942 0.49897 0.69075
 C77 C 0.49926 0.51914 0.69075
 C78 C 0.48618 0.51804 0.63150
 N79 N 0.49751 0.49722 0.59585
 C80 C 0.46388 0.53565 0.61290
 C81 C 0.45630 0.54082 0.55145
 C82 C 0.43517 0.55873 0.53305
 C83 C 0.43621 0.55973 0.47053
 C84 C 0.45782 0.54230 0.45251
 N85 N 0.47004 0.53089 0.50207
 C86 C 0.46512 0.53681 0.39111
 C87 C 0.48522 0.51707 0.37197
 C88 C 0.48818 0.50809 0.31165
 C89 C 0.50837 0.48790 0.31165
 C90 C 0.51736 0.48495 0.37197
 N91 N 0.50371 0.50343 0.40827
 C92 C 0.53710 0.46485 0.39111
 H93 H 0.57209 0.42219 0.44168
 H94 H 0.57052 0.42051 0.56170
 H95 H 0.50855 0.50827 0.45460
 H96 H 0.53358 0.49469 0.73002
 H97 H 0.49497 0.53330 0.73002
 H98 H 0.42079 0.57023 0.56170
 H99 H 0.42246 0.57180 0.44169
 H100 H 0.51505 0.47616 0.27163
 H101 H 0.48849 0.48821 0.55141
 H102 H 0.47643 0.51476 0.27163
 O103 O 0.39118 0.66810 -0.07011
 O104 O 0.39280 0.73457 -0.05203
 C105 C 0.36820 0.74008 -0.08175
 O106 O 0.33171 0.72233 -0.07047
 O107 O 0.26524 0.65750 -0.05216
 C108 C 0.25974 0.62735 -0.08176
 O109 O 0.27749 0.60863 -0.07033
 O110 O 0.34230 0.60701 -0.05176
 C111 C 0.37245 0.63161 -0.08140
 O112 O 0.39272 0.65762 0.05143
 O113 O 0.39108 0.72244 0.06948
 C114 C 0.37233 0.74018 0.08072
 O115 O 0.34221 0.73463 0.05099
 O116 O 0.27739 0.66816 0.06932
 C117 C 0.25963 0.63168 0.08069
 O118 O 0.26516 0.60706 0.05109
 O119 O 0.33161 0.60875 0.06968
 C120 C 0.36807 0.62754 0.08116
 Cr121 Cr 0.38973 0.69457 -0.00032
 Cr122 Cr 0.30524 0.69455 -0.00058
 Cr123 Cr 0.30525 0.61007 -0.00034
 O124 O 0.33341 0.66640 -0.00042
 O125 O 0.60730 0.34200 -0.05177
 O126 O 0.60892 0.27721 -0.07031
 C127 C 0.62769 0.25952 -0.08185
 O128 O 0.65780 0.26497 -0.05220
 O129 O 0.72262 0.33143 -0.07047
 C130 C 0.74030 0.36790 -0.08187
 O131 O 0.73484 0.39252 -0.05210
 O132 O 0.66838 0.39090 -0.07011
 C133 C 0.63189 0.37216 -0.08141
 O134 O 0.60903 0.33134 0.06967
 O135 O 0.60734 0.26490 0.05116
 C136 C 0.63199 0.25942 0.08081
 O137 O 0.66845 0.27711 0.06932
 O138 O 0.73490 0.34191 0.05104
 C139 C 0.74040 0.37200 0.08082
 O140 O 0.72273 0.39080 0.06946
 O141 O 0.65792 0.39245 0.05144
 C142 C 0.62783 0.36780 0.08115
 Cr143 Cr 0.61036 0.30496 -0.00032
 Cr144 Cr 0.69484 0.30496 -0.00057
 Cr145 Cr 0.69486 0.38946 -0.00034
 O146 O 0.66669 0.33313 -0.00041
 C147 C 0.44997 0.89933 -0.34253
 C148 C 0.43717 0.87453 -0.30319
 C149 C 0.42229 0.84567 -0.25692
 C150 C 0.40969 0.82118 -0.21717
 C151 C 0.39508 0.79269 -0.17032
 C152 C 0.38273 0.76856 -0.13004
 C153 C 0.10051 0.54993 -0.34254
 C154 C 0.12530 0.56187 -0.30322
 C155 C 0.15416 0.57579 -0.25694
 C156 C 0.17865 0.58765 -0.21720
 C157 C 0.20714 0.60152 -0.17034
 C158 C 0.23127 0.61332 -0.13006
 C159 C 0.45013 0.55019 -0.34241
 C160 C 0.43809 0.56290 -0.30299
 C161 C 0.42408 0.57768 -0.25662
 C162 C 0.41216 0.59022 -0.21682
 C163 C 0.39827 0.60478 -0.16993
 C164 C 0.38645 0.61710 -0.12964
 C165 C 0.55098 0.10167 -0.34472
 C166 C 0.56288 0.12633 -0.30516
 C167 C 0.57670 0.15494 -0.25850
 C168 C 0.58844 0.17917 -0.21837
 C169 C 0.60214 0.20735 -0.17107
 C170 C 0.61381 0.23125 -0.13044
 C171 C 0.89816 0.44900 -0.34473
 C172 C 0.87350 0.43629 -0.30516
 C173 C 0.84489 0.42156 -0.25850
 C174 C 0.82065 0.40910 -0.21838
 C175 C 0.79248 0.39462 -0.17107
 C176 C 0.76857 0.38236 -0.13045
 C177 C 0.55047 0.44984 -0.34241
 C178 C 0.56318 0.43780 -0.30299
 C179 C 0.57796 0.42378 -0.25663
 C180 C 0.59049 0.41187 -0.21682
 C181 C 0.60505 0.39797 -0.16993
 C182 C 0.61738 0.38616 -0.12965
 C183 C 0.89817 0.44866 0.34380
 C184 C 0.87353 0.43672 0.30421
 C185 C 0.84495 0.42287 0.25751
 C186 C 0.82074 0.41112 0.21734
 C187 C 0.79259 0.39744 0.17000
 C188 C 0.76869 0.38581 0.12937
 C189 C 0.55088 0.10166 0.34381
 C190 C 0.56362 0.12630 0.30422
 C191 C 0.57838 0.15488 0.25752
 C192 C 0.59086 0.17909 0.21736
 C193 C 0.60533 0.20724 0.17002
 C194 C 0.61757 0.23114 0.12938
 C195 C 0.55143 0.44923 0.34393
 C196 C 0.56327 0.43640 0.30442
 C197 C 0.57703 0.42155 0.25779
 C198 C 0.58873 0.40901 0.21769
 C199 C 0.60238 0.39449 0.17039
 C200 C 0.61401 0.38223 0.12977
 C201 C 0.10049 0.54991 0.34160
 C202 C 0.12526 0.56274 0.30224
 C203 C 0.15409 0.57765 0.25593
 C204 C 0.17856 0.59026 0.21614
 C205 C 0.20702 0.60487 0.16926
 C206 C 0.23114 0.61720 0.12896
 C207 C 0.44969 0.89933 0.34162
 C208 C 0.43772 0.87456 0.30226
 C209 C 0.42376 0.84573 0.25594
 C210 C 0.41189 0.82126 0.21616
 C211 C 0.39805 0.79280 0.16927
 C212 C 0.38628 0.76867 0.12898
 C213 C 0.44950 0.55114 0.34394
 C214 C 0.43666 0.56297 0.30442
 C215 C 0.42181 0.57673 0.25780
 C216 C 0.40927 0.58843 0.21769
 C217 C 0.39474 0.60208 0.17040
 C218 C 0.38248 0.61371 0.12977
   
