data_POSCAR
  _audit_creation_date              2014-09-24
  _audit_creation_method            'ToBaCCo'
  _symmetry_space_group_name_H-M    'P1'
  _symmetry_Int_Tables_number       1
  _symmetry_cell_setting            triclinic
  loop_
  _symmetry_equiv_pos_as_xyz
 x,y,z
_cell_length_a 20.7201
_cell_length_b 20.7201
_cell_length_c 35.2961
_cell_angle_alpha 89.878400
_cell_angle_beta 90.122000
_cell_angle_gamma 90.000300
loop_
  _atom_site_label
  _atom_site_type_symbol
  _atom_site_fract_x
  _atom_site_fract_y
  _atom_site_fract_z
O1 O -0.05377 0.56200 0.96363
 O2 O -0.05367 0.43590 1.03733
 O3 O -0.05368 0.56187 1.03726
 O4 O -0.05377 0.43609 0.96369
 O5 O 0.05297 0.43609 0.96378
 O6 O 0.05306 0.56187 1.03735
 O7 O 0.05305 0.43590 1.03742
 O8 O 0.05297 0.56200 0.96372
 Cu9 Cu -0.06449 0.49896 1.00048
 Cu10 Cu 0.06378 0.49896 1.00058
 C11 C -0.00041 0.58351 0.95137
 C12 C -0.00030 0.41435 1.04966
 C13 C -0.00030 0.58337 1.04956
 C14 C -0.00041 0.41464 0.95145
 O15 O 0.43804 -0.05293 0.46372
 O16 O 0.56413 -0.05302 0.53742
 O17 O 0.43817 -0.05302 0.53735
 O18 O 0.56394 -0.05293 0.46378
 O19 O 0.56395 0.05380 0.46369
 O20 O 0.43817 0.05371 0.53726
 O21 O 0.56414 0.05371 0.53733
 O22 O 0.43804 0.05380 0.46363
 Cu23 Cu 0.50107 -0.06375 0.50058
 Cu24 Cu 0.50108 0.06453 0.50048
 C25 C 0.41653 0.00045 0.45137
 C26 C 0.58569 0.00033 0.54966
 C27 C 0.41667 0.00033 0.54956
 C28 C 0.58540 0.00045 0.45145
 Si29 Si 0.00018 0.00045 0.24970
 Si30 Si -0.00041 -0.00015 0.74970
 C31 C -0.00016 -0.26831 0.12649
 C32 C -0.00023 -0.20223 0.10676
 C33 C -0.00018 -0.15152 0.13123
 C34 C -0.00006 -0.17177 0.17308
 C35 C 0.05878 -0.21623 0.17746
 C36 C 0.05872 -0.26701 0.15296
 C37 C -0.05890 -0.26703 0.15293
 C38 C -0.05884 -0.21625 0.17743
 C39 C -0.00022 -0.32249 0.09981
 C40 C -0.00026 -0.36604 0.07722
 C41 C 0.00001 -0.11672 0.19911
 C42 C 0.00007 -0.07058 0.21982
 H43 H -0.00032 -0.19582 0.07622
 H44 H -0.00021 -0.10169 0.12165
 H45 H 0.09705 -0.20854 0.19802
 H46 H 0.09695 -0.30283 0.15252
 H47 H -0.09712 -0.30287 0.15247
 H48 H -0.09701 -0.20859 0.19796
 C49 C -0.00016 0.26880 0.12552
 C50 C -0.00024 0.20266 0.10602
 C51 C -0.00018 0.15203 0.13067
 C52 C -0.00006 0.17242 0.17245
 C53 C -0.05884 0.21691 0.17664
 C54 C -0.05890 0.26761 0.15195
 C55 C 0.05872 0.26759 0.15199
 C56 C 0.05878 0.21689 0.17667
 C57 C -0.00022 0.32290 0.09864
 C58 C -0.00026 0.36641 0.07591
 C59 C 0.00001 0.11746 0.19868
 C60 C 0.00007 0.07139 0.21956
 H61 H -0.00032 0.19616 0.07550
 H62 H -0.00022 0.10217 0.12127
 H63 H -0.09701 0.20931 0.19720
 H64 H -0.09712 0.30345 0.15137
 H65 H 0.09695 0.30341 0.15142
 H66 H 0.09705 0.20927 0.19726
 C67 C 0.26834 0.00020 0.62649
 C68 C 0.26707 0.05893 0.65293
 C69 C 0.21629 0.05888 0.67743
 C70 C 0.17181 0.00009 0.67308
 C71 C 0.21626 -0.05874 0.67746
 C72 C 0.26704 -0.05869 0.65296
 C73 C 0.20227 0.00027 0.60676
 C74 C 0.15156 0.00021 0.63123
 C75 C 0.32253 0.00026 0.59981
 C76 C 0.36607 0.00029 0.57722
 C77 C 0.11676 0.00002 0.69911
 C78 C 0.07062 -0.00004 0.71982
 H79 H 0.30291 0.09715 0.65247
 H80 H 0.20863 0.09704 0.69797
 H81 H 0.20858 -0.09702 0.69802
 H82 H 0.30286 -0.09691 0.65252
 H83 H 0.19586 0.00036 0.57622
 H84 H 0.10172 0.00025 0.62165
 C85 C -0.26876 0.00020 0.62552
 C86 C -0.20262 0.00027 0.60602
 C87 C -0.15199 0.00021 0.63067
 C88 C -0.17238 0.00009 0.67245
 C89 C -0.21685 -0.05874 0.67667
 C90 C -0.26755 -0.05869 0.65199
 C91 C -0.26758 0.05893 0.65195
 C92 C -0.21688 0.05888 0.67664
 C93 C -0.32287 0.00026 0.59864
 C94 C -0.36637 0.00029 0.57591
 C95 C -0.11742 0.00002 0.69868
 C96 C -0.07135 -0.00004 0.71956
 H97 H -0.19612 0.00036 0.57550
 H98 H -0.10213 0.00025 0.62127
 H99 H -0.20923 -0.09702 0.69726
 H100 H -0.30337 -0.09691 0.65142
 H101 H -0.30341 0.09715 0.65137
 H102 H -0.20927 0.09704 0.69720
 C103 C -0.00046 -0.26843 0.87390
 C104 C 0.05836 -0.26728 0.84753
 C105 C 0.05835 -0.21665 0.82280
 C106 C -0.00047 -0.17217 0.82689
 C107 C -0.00049 -0.15168 0.86864
 C108 C -0.00049 -0.20225 0.89334
 C109 C -0.05926 -0.26731 0.84736
 C110 C -0.05927 -0.21667 0.82263
 C111 C -0.00046 -0.32247 0.90082
 C112 C -0.00044 -0.36593 0.92357
 C113 C -0.00046 -0.11726 0.80062
 C114 C -0.00045 -0.07119 0.77974
 H115 H 0.09659 -0.30310 0.84819
 H116 H 0.09658 -0.20908 0.80227
 H117 H -0.00050 -0.10179 0.87800
 H118 H -0.00050 -0.19567 0.92385
 H119 H -0.09748 -0.30315 0.84792
 H120 H -0.09748 -0.20912 0.80200
 C121 C -0.00046 0.26711 0.87399
 C122 C -0.00049 0.20077 0.89341
 C123 C -0.00049 0.15040 0.86870
 C124 C -0.00047 0.17123 0.82695
 C125 C 0.05835 0.21575 0.82287
 C126 C 0.05836 0.26618 0.84762
 C127 C -0.05926 0.26621 0.84745
 C128 C -0.05926 0.21577 0.82271
 C129 C -0.00046 0.32094 0.90092
 C130 C -0.00044 0.36424 0.92367
 C131 C -0.00046 0.11654 0.80066
 C132 C -0.00045 0.07065 0.77977
 H133 H -0.00050 0.19394 0.92392
 H134 H -0.00050 0.10044 0.87804
 H135 H 0.09658 0.20835 0.80234
 H136 H 0.09659 0.30199 0.84829
 H137 H -0.09748 0.30204 0.84802
 H138 H -0.09748 0.20839 0.80207
 C139 C -0.26708 0.00050 0.37399
 C140 C -0.20074 0.00052 0.39341
 C141 C -0.15037 0.00052 0.36870
 C142 C -0.17120 0.00050 0.32695
 C143 C -0.21574 0.05930 0.32271
 C144 C -0.26617 0.05930 0.34745
 C145 C -0.26615 -0.05832 0.34761
 C146 C -0.21571 -0.05832 0.32287
 C147 C -0.32091 0.00049 0.40092
 C148 C -0.36421 0.00048 0.42367
 C149 C -0.11651 0.00050 0.30066
 C150 C -0.07061 0.00049 0.27977
 H151 H -0.19391 0.00054 0.42392
 H152 H -0.10041 0.00054 0.37804
 H153 H -0.20835 0.09751 0.30207
 H154 H -0.30200 0.09752 0.34802
 H155 H -0.30196 -0.09655 0.34829
 H156 H -0.20831 -0.09654 0.30234
 C157 C 0.26847 0.00050 0.37390
 C158 C 0.26732 -0.05832 0.34753
 C159 C 0.21668 -0.05832 0.32280
 C160 C 0.17221 0.00050 0.32689
 C161 C 0.21671 0.05930 0.32263
 C162 C 0.26735 0.05930 0.34736
 C163 C 0.20228 0.00052 0.39334
 C164 C 0.15171 0.00053 0.36864
 C165 C 0.32250 0.00049 0.40082
 C166 C 0.36597 0.00048 0.42357
 C167 C 0.11730 0.00050 0.30062
 C168 C 0.07123 0.00049 0.27974
 H169 H 0.30314 -0.09655 0.34819
 H170 H 0.20911 -0.09654 0.30227
 H171 H 0.20916 0.09751 0.30200
 H172 H 0.30318 0.09752 0.34792
 H173 H 0.19570 0.00054 0.42385
 H174 H 0.10183 0.00054 0.37800
   
