data_POSCAR
  _audit_creation_date              2014-09-24
  _audit_creation_method            'ToBaCCo'
  _symmetry_space_group_name_H-M    'P1'
  _symmetry_Int_Tables_number       1
  _symmetry_cell_setting            triclinic
  loop_
  _symmetry_equiv_pos_as_xyz
 x,y,z
_cell_length_a 38.4249
_cell_length_b 38.4929
_cell_length_c 38.3955
_cell_angle_alpha 89.382000
_cell_angle_beta 88.605100
_cell_angle_gamma 91.084100
loop_
  _atom_site_label
  _atom_site_type_symbol
  _atom_site_fract_x
  _atom_site_fract_y
  _atom_site_fract_z
Zn1 Zn 0.77464 0.72965 0.78502
 Zn2 Zn 0.77366 0.78601 0.73106
 Zn3 Zn 0.72108 0.72783 0.73011
 Zn4 Zn 0.71742 0.78114 0.78592
 O5 O 0.74670 0.75616 0.75802
 O6 O 0.81998 0.73929 0.77760
 O7 O 0.76766 0.77997 0.68537
 O8 O 0.72973 0.68273 0.73668
 O9 O 0.81932 0.78131 0.73791
 O10 O 0.76931 0.68403 0.77747
 O11 O 0.72924 0.73648 0.68469
 O12 O 0.67244 0.77194 0.77820
 O13 O 0.76468 0.83070 0.73919
 O14 O 0.67509 0.73213 0.73718
 O15 O 0.72311 0.82715 0.77994
 O16 O 0.72339 0.77279 0.83136
 O17 O 0.76639 0.73538 0.83069
 C18 C 0.83589 0.76114 0.75765
 C19 C 0.74882 0.75869 0.66878
 C20 C 0.75010 0.66717 0.75690
 C21 C 0.65754 0.75120 0.75757
 C22 C 0.74333 0.84513 0.75994
 C23 C 0.74448 0.75361 0.84728
 Zn24 Zn 0.22108 0.72783 0.73012
 Zn25 Zn 0.21742 0.78114 0.78593
 Zn26 Zn 0.27464 0.72965 0.78503
 Zn27 Zn 0.27366 0.78601 0.73106
 O28 O 0.24670 0.75616 0.75803
 O29 O 0.17509 0.73213 0.73719
 O30 O 0.22339 0.77279 0.83137
 O31 O 0.26931 0.68403 0.77748
 O32 O 0.17244 0.77195 0.77820
 O33 O 0.22973 0.68273 0.73669
 O34 O 0.26639 0.73538 0.83070
 O35 O 0.31932 0.78131 0.73792
 O36 O 0.22311 0.82715 0.77995
 O37 O 0.31998 0.73929 0.77761
 O38 O 0.26468 0.83070 0.73920
 O39 O 0.26766 0.77997 0.68538
 O40 O 0.22924 0.73648 0.68470
 C41 C 0.15754 0.75121 0.75757
 C42 C 0.24448 0.75361 0.84729
 C43 C 0.25010 0.66717 0.75690
 C44 C 0.33588 0.76114 0.75766
 C45 C 0.24333 0.84513 0.75995
 C46 C 0.24882 0.75869 0.66879
 Zn47 Zn 0.71186 0.22693 0.76830
 Zn48 Zn 0.76814 0.23056 0.71344
 Zn49 Zn 0.71199 0.28322 0.71417
 Zn50 Zn 0.76555 0.28407 0.76910
 O51 O 0.73938 0.25620 0.74125
 O52 O 0.72057 0.18200 0.76096
 O53 O 0.76176 0.23833 0.66798
 O54 O 0.66646 0.27379 0.72088
 O55 O 0.76213 0.18474 0.72016
 O56 O 0.66643 0.23183 0.76068
 O57 O 0.72074 0.27788 0.66852
 O58 O 0.75719 0.32934 0.76302
 O59 O 0.81333 0.23958 0.72048
 O60 O 0.71756 0.32868 0.72227
 O61 O 0.81137 0.27953 0.76139
 O62 O 0.75780 0.27516 0.81454
 O63 O 0.71729 0.23359 0.81397
 C64 C 0.74185 0.16715 0.74045
 C65 C 0.74169 0.25854 0.65200
 C66 C 0.65022 0.25194 0.74058
 C67 C 0.73685 0.34522 0.74302
 C68 C 0.82858 0.26040 0.74078
 C69 C 0.73713 0.25399 0.83051
 Zn70 Zn 0.26814 0.23056 0.71343
 Zn71 Zn 0.21186 0.22693 0.76829
 Zn72 Zn 0.26555 0.28407 0.76909
 Zn73 Zn 0.21199 0.28322 0.71416
 O74 O 0.23938 0.25620 0.74124
 O75 O 0.26212 0.18473 0.72016
 O76 O 0.21729 0.23359 0.81396
 O77 O 0.31137 0.27953 0.76138
 O78 O 0.22057 0.18200 0.76095
 O79 O 0.31333 0.23957 0.72047
 O80 O 0.25780 0.27516 0.81453
 O81 O 0.21756 0.32868 0.72226
 O82 O 0.16643 0.23183 0.76067
 O83 O 0.25719 0.32934 0.76302
 O84 O 0.16646 0.27379 0.72087
 O85 O 0.22074 0.27788 0.66851
 O86 O 0.26176 0.23832 0.66797
 C87 C 0.24185 0.16715 0.74044
 C88 C 0.23713 0.25399 0.83050
 C89 C 0.32858 0.26040 0.74077
 C90 C 0.23686 0.34522 0.74301
 C91 C 0.15022 0.25195 0.74057
 C92 C 0.24169 0.25854 0.65199
 Zn93 Zn 0.73393 0.71620 0.22999
 Zn94 Zn 0.78763 0.77334 0.23078
 Zn95 Zn 0.73135 0.76971 0.28565
 Zn96 Zn 0.78749 0.71705 0.28491
 O97 O 0.76010 0.74407 0.25783
 O98 O 0.74168 0.72511 0.18455
 O99 O 0.77892 0.81828 0.23812
 O100 O 0.68616 0.76070 0.27860
 O101 O 0.78220 0.76668 0.18511
 O102 O 0.68812 0.72074 0.23769
 O103 O 0.73736 0.81554 0.27892
 O104 O 0.77874 0.72239 0.33056
 O105 O 0.83306 0.76844 0.23841
 O106 O 0.73773 0.76195 0.33110
 O107 O 0.83303 0.72648 0.27820
 O108 O 0.78192 0.67159 0.27681
 O109 O 0.74230 0.67093 0.23606
 C110 C 0.76236 0.74628 0.16857
 C111 C 0.75764 0.83312 0.25864
 C112 C 0.67090 0.73987 0.25830
 C113 C 0.75780 0.74173 0.34709
 C114 C 0.84927 0.74833 0.25850
 C115 C 0.76263 0.65506 0.25607
 Zn116 Zn 0.28763 0.77334 0.23079
 Zn117 Zn 0.23393 0.71620 0.23000
 Zn118 Zn 0.28749 0.71705 0.28492
 Zn119 Zn 0.23135 0.76971 0.28565
 O120 O 0.26010 0.74407 0.25784
 O121 O 0.28220 0.76668 0.18512
 O122 O 0.24229 0.67093 0.23607
 O123 O 0.33303 0.72648 0.27821
 O124 O 0.24168 0.72511 0.18455
 O125 O 0.33306 0.76844 0.23841
 O126 O 0.28192 0.67159 0.27682
 O127 O 0.23773 0.76195 0.33111
 O128 O 0.18812 0.72074 0.23770
 O129 O 0.27874 0.72239 0.33057
 O130 O 0.18616 0.76070 0.27861
 O131 O 0.23736 0.81554 0.27893
 O132 O 0.27892 0.81827 0.23813
 C133 C 0.26236 0.74628 0.16858
 C134 C 0.26263 0.65506 0.25607
 C135 C 0.34927 0.74833 0.25851
 C136 C 0.25780 0.74173 0.34710
 C137 C 0.17090 0.73987 0.25831
 C138 C 0.25764 0.83312 0.25864
 Zn139 Zn 0.72485 0.27062 0.21407
 Zn140 Zn 0.78207 0.21913 0.21316
 Zn141 Zn 0.77840 0.27244 0.26897
 Zn142 Zn 0.72583 0.21426 0.26803
 O143 O 0.75279 0.24411 0.24106
 O144 O 0.73310 0.26489 0.16839
 O145 O 0.82704 0.22833 0.22089
 O146 O 0.76975 0.31754 0.26240
 O147 O 0.77609 0.22748 0.16772
 O148 O 0.73017 0.31624 0.22162
 O149 O 0.82440 0.26815 0.26190
 O150 O 0.73183 0.22030 0.31371
 O151 O 0.77638 0.17312 0.21914
 O152 O 0.77025 0.26379 0.31440
 O153 O 0.73480 0.16957 0.25989
 O154 O 0.68017 0.21896 0.26117
 O155 O 0.67951 0.26098 0.22148
 C156 C 0.75501 0.24667 0.15180
 C157 C 0.84195 0.24907 0.24152
 C158 C 0.74939 0.33310 0.24219
 C159 C 0.75067 0.24158 0.33030
 C160 C 0.75615 0.15514 0.23914
 C161 C 0.66360 0.23913 0.24143
 Zn162 Zn 0.22485 0.27062 0.21406
 Zn163 Zn 0.28207 0.21913 0.21315
 Zn164 Zn 0.27840 0.27244 0.26896
 Zn165 Zn 0.22583 0.21426 0.26802
 O166 O 0.25279 0.24411 0.24105
 O167 O 0.23310 0.26489 0.16839
 O168 O 0.32704 0.22832 0.22088
 O169 O 0.26976 0.31754 0.26240
 O170 O 0.27609 0.22748 0.16771
 O171 O 0.23017 0.31624 0.22161
 O172 O 0.32440 0.26814 0.26189
 O173 O 0.23183 0.22030 0.31370
 O174 O 0.27638 0.17312 0.21914
 O175 O 0.27025 0.26379 0.31439
 O176 O 0.23480 0.16957 0.25988
 O177 O 0.18017 0.21896 0.26117
 O178 O 0.17951 0.26098 0.22148
 C179 C 0.25501 0.24667 0.15180
 C180 C 0.34195 0.24907 0.24151
 C181 C 0.24939 0.33310 0.24218
 C182 C 0.25067 0.24158 0.33030
 C183 C 0.25615 0.15514 0.23913
 C184 C 0.16360 0.23913 0.24142
 C185 C -0.10754 0.79139 0.74156
 C186 C -0.07117 0.79337 0.74175
 C187 C -0.05210 0.76684 0.75718
 C188 C -0.07012 0.73858 0.77322
 C189 C -0.10649 0.73680 0.77342
 C190 C -0.12560 0.76311 0.75746
 C191 C -0.01365 0.77001 0.75731
 C192 C 0.00710 0.74240 0.75688
 C193 C 0.04555 0.74556 0.75689
 C194 C 0.06541 0.71988 0.74065
 C195 C 0.10178 0.72186 0.74054
 C196 C 0.11903 0.74926 0.75733
 C197 C 0.09911 0.77469 0.77408
 C198 C 0.06275 0.77294 0.77380
 H199 H -0.12151 0.81219 0.72926
 H200 H -0.05787 0.81556 0.72954
 H201 H -0.05625 0.71818 0.78624
 H202 H -0.11964 0.71476 0.78603
 H203 H -0.00220 0.79593 0.75587
 H204 H -0.00426 0.71658 0.75463
 H205 H 0.05273 0.69837 0.72775
 H206 H 0.11638 0.70172 0.72762
 H207 H 0.11162 0.79604 0.78737
 H208 H 0.04821 0.79264 0.78743
 C209 C 0.71839 -0.09976 0.78326
 C210 C 0.71712 -0.06350 0.78391
 C211 C 0.73911 -0.04308 0.76194
 C212 C 0.76309 -0.05976 0.73975
 C213 C 0.76438 -0.09601 0.73911
 C214 C 0.74198 -0.11644 0.76076
 C215 C 0.73689 -0.00469 0.76376
 C216 C 0.74750 0.01689 0.73775
 C217 C 0.74549 0.05530 0.73947
 C218 C 0.76726 0.07546 0.71702
 C219 C 0.76618 0.11171 0.71741
 C220 C 0.74303 0.12870 0.74011
 C221 C 0.72089 0.10856 0.76231
 C222 C 0.72200 0.07227 0.76195
 H223 H 0.70087 -0.11470 0.80040
 H224 H 0.69865 -0.05135 0.80149
 H225 H 0.78140 -0.04509 0.72330
 H226 H 0.78312 -0.10802 0.72173
 H227 H 0.72564 0.00580 0.78740
 H228 H 0.75866 0.00634 0.71410
 H229 H 0.78537 0.06309 0.69924
 H230 H 0.78349 0.12641 0.69985
 H231 H 0.70252 0.12082 0.77988
 H232 H 0.70392 0.05782 0.77884
 C233 C 0.71541 0.76653 -0.09528
 C234 C 0.71433 0.76510 -0.05888
 C235 C 0.74155 0.75020 -0.04057
 C236 C 0.76960 0.73593 -0.05940
 C237 C 0.77049 0.73698 -0.09581
 C238 C 0.74349 0.75243 -0.11415
 C239 C 0.73936 0.74887 -0.00204
 C240 C 0.76754 0.74976 0.01787
 C241 C 0.76532 0.74890 0.05641
 C242 C 0.79155 0.76552 0.07521
 C243 C 0.79044 0.76497 0.11163
 C244 C 0.76337 0.74717 0.13000
 C245 C 0.73739 0.73003 0.11115
 C246 C 0.73829 0.73094 0.07473
 H247 H 0.69408 0.77838 -0.10864
 H248 H 0.69230 0.77596 -0.04494
 H249 H 0.79053 0.72335 -0.04612
 H250 H 0.79239 0.72573 -0.10960
 H251 H 0.71366 0.74912 0.01019
 H252 H 0.79312 0.75319 0.00570
 H253 H 0.81281 0.77924 0.06166
 H254 H 0.81098 0.77822 0.12539
 H255 H 0.71629 0.71594 0.12453
 H256 H 0.71819 0.71700 0.06103
 C257 C 0.60178 0.72185 0.74053
 C258 C 0.56541 0.71988 0.74064
 C259 C 0.54555 0.74556 0.75688
 C260 C 0.56275 0.77293 0.77380
 C261 C 0.59911 0.77469 0.77408
 C262 C 0.61903 0.74925 0.75732
 C263 C 0.50710 0.74240 0.75688
 C264 C 0.48635 0.77001 0.75731
 C265 C 0.44790 0.76684 0.75719
 C266 C 0.42883 0.79337 0.74175
 C267 C 0.39246 0.79139 0.74157
 C268 C 0.37440 0.76311 0.75747
 C269 C 0.39351 0.73680 0.77342
 C270 C 0.42988 0.73858 0.77322
 H271 H 0.61638 0.70172 0.72760
 H272 H 0.55273 0.69837 0.72774
 H273 H 0.54821 0.79263 0.78743
 H274 H 0.61162 0.79603 0.78737
 H275 H 0.49574 0.71657 0.75462
 H276 H 0.49780 0.79593 0.75587
 H277 H 0.44213 0.81555 0.72955
 H278 H 0.37849 0.81219 0.72928
 H279 H 0.38036 0.71476 0.78604
 H280 H 0.44375 0.71817 0.78624
 C281 C 0.21839 -0.09976 0.78326
 C282 C 0.21712 -0.06350 0.78391
 C283 C 0.23911 -0.04308 0.76194
 C284 C 0.26309 -0.05976 0.73976
 C285 C 0.26438 -0.09601 0.73911
 C286 C 0.24198 -0.11644 0.76076
 C287 C 0.23689 -0.00469 0.76376
 C288 C 0.24750 0.01689 0.73775
 C289 C 0.24549 0.05530 0.73947
 C290 C 0.26725 0.07545 0.71702
 C291 C 0.26618 0.11171 0.71740
 C292 C 0.24303 0.12870 0.74011
 C293 C 0.22089 0.10856 0.76231
 C294 C 0.22200 0.07227 0.76195
 H295 H 0.20087 -0.11470 0.80040
 H296 H 0.19865 -0.05135 0.80149
 H297 H 0.28140 -0.04509 0.72330
 H298 H 0.28312 -0.10802 0.72174
 H299 H 0.22564 0.00581 0.78740
 H300 H 0.25866 0.00633 0.71410
 H301 H 0.28537 0.06308 0.69923
 H302 H 0.28349 0.12641 0.69985
 H303 H 0.20252 0.12082 0.77987
 H304 H 0.20392 0.05782 0.77884
 C305 C 0.21541 0.76653 -0.09527
 C306 C 0.21433 0.76511 -0.05887
 C307 C 0.24155 0.75020 -0.04056
 C308 C 0.26959 0.73593 -0.05939
 C309 C 0.27049 0.73697 -0.09580
 C310 C 0.24349 0.75243 -0.11415
 C311 C 0.23936 0.74887 -0.00203
 C312 C 0.26754 0.74976 0.01788
 C313 C 0.26532 0.74890 0.05642
 C314 C 0.29155 0.76552 0.07522
 C315 C 0.29044 0.76497 0.11164
 C316 C 0.26337 0.74717 0.13001
 C317 C 0.23739 0.73003 0.11115
 C318 C 0.23829 0.73094 0.07474
 H319 H 0.19408 0.77839 -0.10864
 H320 H 0.19230 0.77597 -0.04493
 H321 H 0.29053 0.72335 -0.04611
 H322 H 0.29239 0.72572 -0.10959
 H323 H 0.21366 0.74912 0.01020
 H324 H 0.29312 0.75319 0.00571
 H325 H 0.31281 0.77924 0.06167
 H326 H 0.31098 0.77822 0.12540
 H327 H 0.21629 0.71594 0.12454
 H328 H 0.21819 0.71700 0.06104
 C329 C -0.11553 0.29005 0.75680
 C330 C -0.07917 0.29225 0.75612
 C331 C -0.05942 0.26664 0.73964
 C332 C -0.07673 0.23913 0.72304
 C333 C -0.11310 0.23715 0.72334
 C334 C -0.13290 0.26250 0.74038
 C335 C -0.02097 0.26995 0.73926
 C336 C -0.00014 0.24242 0.73885
 C337 C 0.03829 0.24571 0.73928
 C338 C 0.05726 0.21929 0.75499
 C339 C 0.09358 0.22146 0.75572
 C340 C 0.11173 0.24984 0.74009
 C341 C 0.09274 0.27602 0.72380
 C342 C 0.05638 0.27405 0.72347
 H343 H -0.13004 0.31014 0.76992
 H344 H -0.06641 0.31385 0.76880
 H345 H -0.06228 0.21947 0.70925
 H346 H -0.12572 0.21571 0.71029
 H347 H -0.00969 0.29581 0.74149
 H348 H -0.01151 0.21646 0.74032
 H349 H 0.04390 0.19705 0.76705
 H350 H 0.10747 0.20073 0.76825
 H351 H 0.10598 0.29812 0.71138
 H352 H 0.04259 0.29439 0.71026
 C353 C 0.77372 0.61082 0.77859
 C354 C 0.77496 0.57456 0.77812
 C355 C 0.75381 0.55533 0.75577
 C356 C 0.73183 0.57327 0.73324
 C357 C 0.73061 0.60953 0.73370
 C358 C 0.75145 0.62873 0.75644
 C359 C 0.75629 0.51690 0.75606
 C360 C 0.73096 0.49548 0.74505
 C361 C 0.73341 0.45705 0.74511
 C362 C 0.71197 0.43801 0.72287
 C363 C 0.71313 0.40177 0.72210
 C364 C 0.73563 0.38365 0.74384
 C365 C 0.75679 0.40264 0.76648
 C366 C 0.75565 0.43891 0.76722
 H367 H 0.79025 0.62480 0.79633
 H368 H 0.79236 0.56145 0.79549
 H369 H 0.71601 0.55964 0.71470
 H370 H 0.71343 0.62253 0.71603
 H371 H 0.77987 0.50619 0.76617
 H372 H 0.70737 0.50622 0.73501
 H373 H 0.69438 0.45127 0.70581
 H374 H 0.69636 0.38797 0.70446
 H375 H 0.77417 0.38946 0.78381
 H376 H 0.77175 0.45238 0.78562
 C377 C 0.70904 0.23530 -0.11255
 C378 C 0.70793 0.23475 -0.07613
 C379 C 0.73416 0.25137 -0.05733
 C380 C 0.76119 0.26933 -0.07565
 C381 C 0.76209 0.27024 -0.11206
 C382 C 0.73612 0.25310 -0.13092
 C383 C 0.73195 0.25051 -0.01879
 C384 C 0.76013 0.25140 0.00112
 C385 C 0.75793 0.25007 0.03965
 C386 C 0.78516 0.23517 0.05796
 C387 C 0.78408 0.23374 0.09436
 C388 C 0.75600 0.24784 0.11324
 C389 C 0.72900 0.26330 0.09489
 C390 C 0.72989 0.26434 0.05848
 H391 H 0.68851 0.22205 -0.12631
 H392 H 0.68668 0.22103 -0.06258
 H393 H 0.78130 0.28327 -0.06195
 H394 H 0.78320 0.28433 -0.12545
 H395 H 0.70637 0.24708 -0.00662
 H396 H 0.78582 0.25115 -0.01111
 H397 H 0.80719 0.22431 0.04402
 H398 H 0.80541 0.22189 0.10773
 H399 H 0.70710 0.27455 0.10868
 H400 H 0.70895 0.27692 0.04520
 C401 C 0.59358 0.22146 0.75573
 C402 C 0.55726 0.21929 0.75500
 C403 C 0.53829 0.24571 0.73928
 C404 C 0.55638 0.27405 0.72347
 C405 C 0.59274 0.27602 0.72381
 C406 C 0.61173 0.24983 0.74010
 C407 C 0.49986 0.24241 0.73885
 C408 C 0.47903 0.26995 0.73926
 C409 C 0.44058 0.26663 0.73964
 C410 C 0.42083 0.29225 0.75611
 C411 C 0.38447 0.29005 0.75680
 C412 C 0.36710 0.26250 0.74037
 C413 C 0.38690 0.23715 0.72334
 C414 C 0.42327 0.23912 0.72304
 H415 H 0.60746 0.20073 0.76826
 H416 H 0.54390 0.19705 0.76706
 H417 H 0.54259 0.29439 0.71026
 H418 H 0.60598 0.29812 0.71138
 H419 H 0.48849 0.21646 0.74033
 H420 H 0.49031 0.29580 0.74149
 H421 H 0.43359 0.31385 0.76879
 H422 H 0.36996 0.31014 0.76991
 H423 H 0.37428 0.21570 0.71029
 H424 H 0.43772 0.21947 0.70925
 C425 C 0.27372 0.61082 0.77860
 C426 C 0.27495 0.57456 0.77812
 C427 C 0.25381 0.55533 0.75577
 C428 C 0.23183 0.57327 0.73324
 C429 C 0.23061 0.60953 0.73370
 C430 C 0.25145 0.62873 0.75645
 C431 C 0.25629 0.51689 0.75606
 C432 C 0.23096 0.49548 0.74505
 C433 C 0.23342 0.45705 0.74511
 C434 C 0.21197 0.43802 0.72287
 C435 C 0.21314 0.40177 0.72210
 C436 C 0.23563 0.38365 0.74383
 C437 C 0.25679 0.40264 0.76647
 C438 C 0.25565 0.43891 0.76721
 H439 H 0.29024 0.62480 0.79633
 H440 H 0.29235 0.56145 0.79550
 H441 H 0.21602 0.55964 0.71470
 H442 H 0.21344 0.62253 0.71604
 H443 H 0.27987 0.50619 0.76617
 H444 H 0.20737 0.50622 0.73500
 H445 H 0.19439 0.45127 0.70580
 H446 H 0.19636 0.38797 0.70445
 H447 H 0.27416 0.38946 0.78380
 H448 H 0.27175 0.45238 0.78562
 C449 C 0.20904 0.23530 -0.11256
 C450 C 0.20793 0.23475 -0.07614
 C451 C 0.23416 0.25137 -0.05734
 C452 C 0.26119 0.26933 -0.07566
 C453 C 0.26209 0.27024 -0.11207
 C454 C 0.23612 0.25310 -0.13093
 C455 C 0.23195 0.25051 -0.01879
 C456 C 0.26013 0.25140 0.00111
 C457 C 0.25793 0.25007 0.03965
 C458 C 0.28516 0.23516 0.05795
 C459 C 0.28408 0.23374 0.09435
 C460 C 0.25600 0.24784 0.11323
 C461 C 0.22900 0.26330 0.09489
 C462 C 0.22989 0.26434 0.05847
 H463 H 0.18851 0.22205 -0.12631
 H464 H 0.18667 0.22103 -0.06259
 H465 H 0.28130 0.28327 -0.06196
 H466 H 0.28320 0.28433 -0.12546
 H467 H 0.20637 0.24708 -0.00662
 H468 H 0.28582 0.25115 -0.01112
 H469 H 0.30719 0.22431 0.04402
 H470 H 0.30541 0.22189 0.10772
 H471 H 0.20710 0.27455 0.10867
 H472 H 0.20895 0.27692 0.04519
 C473 C -0.09410 0.77881 0.24335
 C474 C -0.05777 0.78099 0.24408
 C475 C -0.03880 0.75456 0.25980
 C476 C -0.05690 0.72622 0.27562
 C477 C -0.09326 0.72425 0.27528
 C478 C -0.11224 0.75044 0.25898
 C479 C -0.00038 0.75786 0.26023
 C480 C 0.02046 0.73032 0.25982
 C481 C 0.05890 0.73364 0.25944
 C482 C 0.07866 0.70803 0.24297
 C483 C 0.11502 0.71022 0.24229
 C484 C 0.13239 0.73777 0.25871
 C485 C 0.11259 0.76312 0.27574
 C486 C 0.07622 0.76115 0.27604
 H487 H -0.10798 0.79954 0.23082
 H488 H -0.04441 0.80322 0.23202
 H489 H -0.04310 0.70588 0.28882
 H490 H -0.10649 0.70215 0.28770
 H491 H 0.01100 0.78381 0.25875
 H492 H 0.00917 0.70447 0.25760
 H493 H 0.06590 0.68642 0.23029
 H494 H 0.12952 0.69013 0.22918
 H495 H 0.12521 0.78457 0.28879
 H496 H 0.06177 0.78081 0.28983
 C497 C 0.73331 -0.11144 0.28167
 C498 C 0.73223 -0.07518 0.28206
 C499 C 0.75399 -0.05503 0.25962
 C500 C 0.77748 -0.07200 0.23713
 C501 C 0.77859 -0.10829 0.23677
 C502 C 0.75646 -0.12843 0.25897
 C503 C 0.75198 -0.01662 0.26133
 C504 C 0.76260 0.00496 0.23533
 C505 C 0.76037 0.04335 0.23714
 C506 C 0.78237 0.06378 0.21517
 C507 C 0.78109 0.10003 0.21582
 C508 C 0.75751 0.11671 0.23833
 C509 C 0.73511 0.09628 0.25998
 C510 C 0.73639 0.06003 0.25933
 H511 H 0.71600 -0.12614 0.29923
 H512 H 0.71412 -0.06282 0.29985
 H513 H 0.79556 -0.05755 0.22024
 H514 H 0.79697 -0.12055 0.21920
 H515 H 0.74083 -0.00606 0.28499
 H516 H 0.77384 -0.00553 0.21168
 H517 H 0.80084 0.05162 0.19759
 H518 H 0.79861 0.11497 0.19869
 H519 H 0.71637 0.10829 0.27735
 H520 H 0.71809 0.04536 0.27578
 C521 C 0.76530 0.78816 0.61205
 C522 C 0.76579 0.78934 0.57564
 C523 C 0.75131 0.76197 0.55663
 C524 C 0.73551 0.73365 0.57474
 C525 C 0.73464 0.73265 0.61115
 C526 C 0.74966 0.75981 0.63021
 C527 C 0.75203 0.76427 0.51811
 C528 C 0.75346 0.73623 0.49776
 C529 C 0.75464 0.73854 0.45924
 C530 C 0.77177 0.71273 0.44029
 C531 C 0.77311 0.71392 0.40388
 C532 C 0.75672 0.74065 0.38566
 C533 C 0.73906 0.76621 0.40464
 C534 C 0.73808 0.76523 0.44106
 H535 H 0.77687 0.80961 0.62597
 H536 H 0.77781 0.81158 0.56226
 H537 H 0.72322 0.71257 0.56089
 H538 H 0.72224 0.71053 0.62438
 H539 H 0.75338 0.78996 0.50631
 H540 H 0.75580 0.71072 0.50957
 H541 H 0.78442 0.69173 0.45372
 H542 H 0.78671 0.69371 0.39001
 H543 H 0.72602 0.78704 0.39136
 H544 H 0.72379 0.78500 0.45485
 C545 C 0.61502 0.71022 0.24228
 C546 C 0.57866 0.70802 0.24296
 C547 C 0.55890 0.73363 0.25944
 C548 C 0.57622 0.76114 0.27604
 C549 C 0.61259 0.76312 0.27574
 C550 C 0.63239 0.73777 0.25871
 C551 C 0.52046 0.73032 0.25982
 C552 C 0.49962 0.75785 0.26024
 C553 C 0.46120 0.75456 0.25980
 C554 C 0.44223 0.78098 0.24409
 C555 C 0.40590 0.77881 0.24336
 C556 C 0.38776 0.75043 0.25899
 C557 C 0.40674 0.72425 0.27528
 C558 C 0.44310 0.72622 0.27562
 H559 H 0.62952 0.69013 0.22917
 H560 H 0.56590 0.68642 0.23029
 H561 H 0.56177 0.78080 0.28983
 H562 H 0.62521 0.78456 0.28879
 H563 H 0.50917 0.70446 0.25759
 H564 H 0.51100 0.78381 0.25876
 H565 H 0.45559 0.80322 0.23203
 H566 H 0.39202 0.79954 0.23084
 H567 H 0.39351 0.70215 0.28770
 H568 H 0.45690 0.70588 0.28882
 C569 C 0.23331 -0.11144 0.28168
 C570 C 0.23223 -0.07518 0.28206
 C571 C 0.25399 -0.05503 0.25962
 C572 C 0.27749 -0.07200 0.23713
 C573 C 0.27859 -0.10829 0.23678
 C574 C 0.25646 -0.12843 0.25898
 C575 C 0.25199 -0.01662 0.26133
 C576 C 0.26260 0.00496 0.23533
 C577 C 0.26037 0.04335 0.23714
 C578 C 0.28237 0.06377 0.21517
 C579 C 0.28109 0.10003 0.21582
 C580 C 0.25751 0.11671 0.23832
 C581 C 0.23510 0.09628 0.25997
 C582 C 0.23639 0.06003 0.25933
 H583 H 0.21600 -0.12614 0.29924
 H584 H 0.21412 -0.06281 0.29985
 H585 H 0.29556 -0.05755 0.22024
 H586 H 0.29697 -0.12055 0.21921
 H587 H 0.24083 -0.00606 0.28499
 H588 H 0.27384 -0.00554 0.21168
 H589 H 0.30084 0.05162 0.19759
 H590 H 0.29861 0.11497 0.19868
 H591 H 0.21637 0.10829 0.27734
 H592 H 0.21808 0.04536 0.27578
 C593 C 0.26530 0.78816 0.61206
 C594 C 0.26579 0.78935 0.57565
 C595 C 0.25131 0.76197 0.55664
 C596 C 0.23551 0.73366 0.57475
 C597 C 0.23464 0.73265 0.61116
 C598 C 0.24966 0.75981 0.63022
 C599 C 0.25203 0.76427 0.51812
 C600 C 0.25346 0.73623 0.49777
 C601 C 0.25464 0.73854 0.45925
 C602 C 0.27177 0.71273 0.44030
 C603 C 0.27311 0.71392 0.40389
 C604 C 0.25671 0.74066 0.38566
 C605 C 0.23906 0.76621 0.40465
 C606 C 0.23808 0.76523 0.44107
 H607 H 0.27687 0.80961 0.62598
 H608 H 0.27781 0.81158 0.56227
 H609 H 0.22321 0.71258 0.56090
 H610 H 0.22224 0.71054 0.62439
 H611 H 0.25338 0.78996 0.50632
 H612 H 0.25580 0.71072 0.50958
 H613 H 0.28442 0.69173 0.45373
 H614 H 0.28670 0.69371 0.39002
 H615 H 0.22602 0.78705 0.39137
 H616 H 0.22379 0.78500 0.45486
 C617 C -0.10229 0.27842 0.25855
 C618 C -0.06592 0.28039 0.25844
 C619 C -0.04606 0.25471 0.24220
 C620 C -0.06326 0.22734 0.22528
 C621 C -0.09962 0.22558 0.22501
 C622 C -0.11954 0.25102 0.24176
 C623 C -0.00761 0.25787 0.24220
 C624 C 0.01314 0.23027 0.24177
 C625 C 0.05159 0.23343 0.24189
 C626 C 0.07066 0.20690 0.25733
 C627 C 0.10702 0.20888 0.25752
 C628 C 0.12508 0.23716 0.24161
 C629 C 0.10597 0.26347 0.22566
 C630 C 0.06961 0.26169 0.22586
 H631 H -0.11690 0.29855 0.27148
 H632 H -0.05324 0.30190 0.27134
 H633 H -0.04873 0.20764 0.21165
 H634 H -0.11213 0.20424 0.21171
 H635 H 0.00375 0.28370 0.24446
 H636 H 0.00169 0.20434 0.24321
 H637 H 0.05735 0.18472 0.26954
 H638 H 0.12100 0.18808 0.26981
 H639 H 0.11913 0.28552 0.21305
 H640 H 0.05574 0.28210 0.21285
 C641 C 0.78635 0.59850 0.27698
 C642 C 0.78752 0.56226 0.27621
 C643 C 0.76607 0.54323 0.25397
 C644 C 0.74383 0.56136 0.23186
 C645 C 0.74269 0.59763 0.23261
 C646 C 0.76386 0.61662 0.25524
 C647 C 0.76852 0.50480 0.25403
 C648 C 0.74320 0.48338 0.24303
 C649 C 0.74568 0.44494 0.24332
 C650 C 0.72453 0.42571 0.22097
 C651 C 0.72576 0.38945 0.22049
 C652 C 0.74803 0.37154 0.24264
 C653 C 0.76888 0.39074 0.26539
 C654 C 0.76765 0.42700 0.26585
 H655 H 0.80313 0.61231 0.29462
 H656 H 0.80510 0.54900 0.29328
 H657 H 0.72773 0.54789 0.21346
 H658 H 0.72532 0.61081 0.21528
 H659 H 0.79212 0.49405 0.26407
 H660 H 0.71962 0.49408 0.23292
 H661 H 0.70713 0.43882 0.20359
 H662 H 0.70924 0.37547 0.20276
 H663 H 0.78605 0.37774 0.28305
 H664 H 0.78347 0.44064 0.28438
 C665 C 0.72638 0.28635 0.59520
 C666 C 0.72772 0.28755 0.55879
 C667 C 0.74484 0.26173 0.53984
 C668 C 0.76140 0.23504 0.55802
 C669 C 0.76043 0.23406 0.59444
 C670 C 0.74277 0.25962 0.61343
 C671 C 0.74602 0.26404 0.50132
 C672 C 0.74745 0.23600 0.48097
 C673 C 0.74817 0.23830 0.44245
 C674 C 0.73369 0.21093 0.42344
 C675 C 0.73419 0.21211 0.38703
 C676 C 0.74982 0.24046 0.36887
 C677 C 0.76485 0.26762 0.38793
 C678 C 0.76398 0.26662 0.42434
 H679 H 0.71278 0.30657 0.60907
 H680 H 0.71506 0.30854 0.54536
 H681 H 0.77569 0.21527 0.54423
 H682 H 0.77346 0.21323 0.60772
 H683 H 0.74369 0.28955 0.48951
 H684 H 0.74610 0.21031 0.49277
 H685 H 0.72168 0.18869 0.43682
 H686 H 0.72261 0.19066 0.37311
 H687 H 0.77724 0.28974 0.37470
 H688 H 0.77627 0.28770 0.43819
 C689 C 0.60702 0.20888 0.25752
 C690 C 0.57066 0.20690 0.25734
 C691 C 0.55159 0.23343 0.24190
 C692 C 0.56961 0.26169 0.22586
 C693 C 0.60597 0.26347 0.22566
 C694 C 0.62508 0.23716 0.24162
 C695 C 0.51314 0.23026 0.24178
 C696 C 0.49239 0.25787 0.24220
 C697 C 0.45394 0.25471 0.24220
 C698 C 0.43408 0.28039 0.25844
 C699 C 0.39771 0.27842 0.25854
 C700 C 0.38046 0.25102 0.24176
 C701 C 0.40038 0.22558 0.22500
 C702 C 0.43674 0.22734 0.22528
 H703 H 0.62100 0.18808 0.26982
 H704 H 0.55735 0.18472 0.26954
 H705 H 0.55574 0.28210 0.21285
 H706 H 0.61913 0.28551 0.21305
 H707 H 0.50169 0.20434 0.24322
 H708 H 0.50375 0.28369 0.24446
 H709 H 0.44676 0.30190 0.27134
 H710 H 0.38310 0.29855 0.27147
 H711 H 0.38787 0.20423 0.21171
 H712 H 0.45127 0.20764 0.21165
 C713 C 0.28635 0.59850 0.27699
 C714 C 0.28751 0.56226 0.27622
 C715 C 0.26607 0.54323 0.25398
 C716 C 0.24383 0.56136 0.23187
 C717 C 0.24269 0.59764 0.23261
 C718 C 0.26386 0.61662 0.25525
 C719 C 0.26852 0.50479 0.25404
 C720 C 0.24320 0.48338 0.24302
 C721 C 0.24568 0.44494 0.24331
 C722 C 0.22453 0.42571 0.22096
 C723 C 0.22577 0.38945 0.22048
 C724 C 0.24803 0.37154 0.24263
 C725 C 0.26888 0.39074 0.26538
 C726 C 0.26765 0.42700 0.26584
 H727 H 0.30312 0.61230 0.29463
 H728 H 0.30510 0.54900 0.29328
 H729 H 0.22773 0.54789 0.21346
 H730 H 0.22532 0.61081 0.21528
 H731 H 0.29212 0.49405 0.26408
 H732 H 0.21962 0.49408 0.23291
 H733 H 0.20713 0.43882 0.20358
 H734 H 0.20924 0.37547 0.20275
 H735 H 0.28605 0.37774 0.28305
 H736 H 0.28347 0.44063 0.28438
 C737 C 0.22638 0.28635 0.59519
 C738 C 0.22772 0.28754 0.55878
 C739 C 0.24485 0.26173 0.53983
 C740 C 0.26140 0.23504 0.55801
 C741 C 0.26043 0.23406 0.59443
 C742 C 0.24277 0.25962 0.61342
 C743 C 0.24603 0.26404 0.50132
 C744 C 0.24745 0.23600 0.48097
 C745 C 0.24817 0.23830 0.44245
 C746 C 0.23369 0.21093 0.42343
 C747 C 0.23419 0.21211 0.38702
 C748 C 0.24982 0.24046 0.36886
 C749 C 0.26485 0.26762 0.38792
 C750 C 0.26398 0.26662 0.42433
 H751 H 0.21278 0.30657 0.60906
 H752 H 0.21507 0.30854 0.54535
 H753 H 0.27569 0.21527 0.54422
 H754 H 0.27346 0.21322 0.60771
 H755 H 0.24369 0.28955 0.48951
 H756 H 0.24610 0.21031 0.49277
 H757 H 0.22168 0.18869 0.43681
 H758 H 0.22261 0.19066 0.37310
 H759 H 0.27724 0.28974 0.37469
 H760 H 0.27627 0.28769 0.43818
   
