data_POSCAR
  _audit_creation_date              2014-09-24
  _audit_creation_method            'ToBaCCo'
  _symmetry_space_group_name_H-M    'P1'
  _symmetry_Int_Tables_number       1
  _symmetry_cell_setting            triclinic
  loop_
  _symmetry_equiv_pos_as_xyz
 x,y,z
_cell_length_a 19.1352
_cell_length_b 19.9540
_cell_length_c 20.3187
_cell_angle_alpha 90.454300
_cell_angle_beta 91.934200
_cell_angle_gamma 87.710700
loop_
  _atom_site_label
  _atom_site_type_symbol
  _atom_site_fract_x
  _atom_site_fract_y
  _atom_site_fract_z
Si1 Si 0.24132 0.25756 0.24042
 Si2 Si 0.72796 0.76164 0.23587
 Si3 Si 0.77087 0.25221 0.72813
 Si4 Si 0.26796 0.75234 0.75319
 C5 C 0.09424 0.08673 0.03886
 H6 H 0.10527 0.08918 -0.01265
 C7 C 0.13035 0.12736 0.08350
 H8 H 0.16907 0.16020 0.06559
 C9 C 0.03000 0.04261 0.12504
 H10 H -0.01010 0.01063 0.14128
 C11 C 0.06513 0.08220 0.17136
 H12 H 0.05259 0.07988 0.22284
 N13 N 0.04567 0.04458 0.06014
 C14 C 0.07278 -0.12871 -0.05170
 H15 H 0.04414 -0.15771 -0.01795
 C16 C 0.11864 -0.16184 -0.09430
 H17 H 0.12595 -0.21586 -0.09205
 C18 C 0.09612 -0.02396 -0.09877
 H19 H 0.08445 0.02923 -0.10286
 C20 C 0.14290 -0.05489 -0.14153
 H21 H 0.16902 -0.02519 -0.17692
 Zn22 Zn -0.00143 -0.01347 -0.00033
 N23 N 0.06329 -0.06070 -0.05389
 C24 C -0.09432 0.00271 -0.10891
 N25 N -0.06234 0.03654 -0.05866
 C26 C -0.06864 0.10453 -0.05399
 C27 C -0.10733 0.14129 -0.10194
 C28 C -0.13386 0.03749 -0.15766
 C29 C -0.01458 -0.11546 0.09242
 C30 C -0.04947 -0.15733 0.13390
 C31 C -0.15927 -0.11434 0.08566
 C32 C -0.12234 -0.07360 0.04481
 N33 N -0.05129 -0.07454 0.04916
 H34 H -0.08770 -0.05132 -0.11185
 H35 H -0.04246 0.13043 -0.01390
 H36 H -0.11111 0.19543 -0.09797
 H37 H -0.15845 0.01026 -0.19789
 H38 H 0.04189 -0.11417 0.09584
 H39 H -0.02000 -0.18895 0.16886
 H40 H -0.21589 -0.11221 0.08227
 H41 H -0.15052 -0.03995 0.01099
 C42 C 0.15435 -0.12431 -0.13952
 C43 C 0.11610 0.12476 0.15076
 C44 C -0.12248 -0.15629 0.13134
 C45 C -0.13980 0.10750 -0.15497
 C46 C 0.10562 0.61715 0.53677
 H47 H 0.11169 0.62337 0.48444
 C48 C 0.14678 0.65329 0.58167
 H49 H 0.18470 0.68707 0.56392
 C50 C 0.04884 0.56556 0.62387
 H51 H 0.01030 0.53199 0.64040
 C52 C 0.08903 0.60032 0.67020
 H53 H 0.08176 0.59292 0.72223
 N54 N 0.05824 0.57372 0.55844
 C55 C 0.03689 0.42264 0.40187
 H56 H -0.01913 0.41861 0.39705
 C57 C 0.08036 0.38117 0.36365
 H58 H 0.05725 0.34668 0.32859
 C59 C 0.13546 0.46971 0.45528
 H60 H 0.15737 0.50283 0.49193
 C61 C 0.18069 0.42924 0.41815
 H62 H 0.23676 0.43247 0.42566
 Zn63 Zn 0.00383 0.52392 0.49626
 N64 N 0.06480 0.46706 0.44566
 C65 C -0.08894 0.56241 0.38949
 N66 N -0.04904 0.58577 0.44079
 C67 C -0.04823 0.65273 0.45454
 C68 C -0.08759 0.69883 0.41570
 C69 C -0.12953 0.60675 0.34976
 C70 C -0.03021 0.41682 0.57780
 C71 C -0.07349 0.37578 0.61258
 C72 C -0.17387 0.44076 0.56995
 C73 C -0.12867 0.48113 0.53661
 N74 N -0.05817 0.46871 0.54117
 H75 H -0.09072 0.50926 0.38008
 H76 H -0.01829 0.67078 0.49649
 H77 H -0.08696 0.75183 0.42745
 H78 H -0.16144 0.58704 0.30966
 H79 H 0.02594 0.40774 0.58044
 H80 H -0.05026 0.33501 0.64175
 H81 H -0.22984 0.45109 0.56608
 H82 H -0.15003 0.52267 0.50755
 C83 C 0.15331 0.38495 0.37140
 C84 C 0.13862 0.64433 0.64925
 C85 C -0.14640 0.38780 0.60882
 C86 C -0.12905 0.67595 0.36299
 C87 C 0.61667 0.05387 0.55423
 H88 H 0.64035 0.00832 0.53430
 C89 C 0.65801 0.09868 0.59013
 H90 H 0.71358 0.08760 0.59722
 C91 C 0.51492 0.12243 0.57228
 H92 H 0.45884 0.13055 0.56631
 C93 C 0.55416 0.16821 0.60851
 H94 H 0.52836 0.21196 0.63013
 N95 N 0.54630 0.06604 0.54688
 C96 C 0.57576 -0.03831 0.40615
 H97 H 0.57649 0.01477 0.39678
 C98 C 0.61257 -0.08304 0.36572
 H99 H 0.64074 -0.06369 0.32512
 C100 C 0.53948 -0.12799 0.47087
 H101 H 0.51176 -0.14552 0.51233
 C102 C 0.57538 -0.17457 0.43136
 H103 H 0.57459 -0.22757 0.44219
 Zn104 Zn 0.48643 0.00194 0.50776
 N105 N 0.53921 -0.06126 0.45704
 C106 C 0.44460 0.09489 0.41085
 N107 N 0.41944 0.04920 0.45238
 C108 C 0.34937 0.04047 0.45558
 C109 C 0.30193 0.07746 0.41483
 C110 C 0.39916 0.13289 0.36955
 C111 C 0.46122 -0.02596 0.63894
 C112 C 0.43310 -0.05750 0.69200
 C113 C 0.36588 -0.12539 0.61625
 C114 C 0.39516 -0.09195 0.56398
 N115 N 0.44199 -0.04313 0.57622
 H116 H 0.50002 0.10314 0.41084
 H117 H 0.32987 0.00536 0.48991
 H118 H 0.24633 0.07024 0.41760
 H119 H 0.42047 0.16910 0.33712
 H120 H 0.49919 0.01173 0.64833
 H121 H 0.44896 -0.04337 0.74171
 H122 H 0.32904 -0.16430 0.60633
 H123 H 0.38138 -0.10562 0.51372
 C124 C 0.61190 -0.15222 0.37790
 C125 C 0.62615 0.15611 0.61855
 C126 C 0.38541 -0.10769 0.68102
 C127 C 0.32679 0.12419 0.37129
 C128 C 0.54831 0.60052 0.05194
 H129 H 0.51552 0.62302 0.01312
 C130 C 0.58421 0.64150 0.09626
 H131 H 0.57900 0.69542 0.09102
 C132 C 0.59680 0.50298 0.10494
 H133 H 0.60135 0.44885 0.10764
 C134 C 0.63401 0.54216 0.15006
 H135 H 0.66801 0.51837 0.18741
 N136 N 0.55572 0.53264 0.05667
 C137 C 0.54983 0.39464 -0.11137
 H138 H 0.49437 0.38737 -0.11859
 C139 C 0.59728 0.36345 -0.15394
 H140 H 0.57810 0.33114 -0.19301
 C141 C 0.64239 0.44581 -0.05202
 H142 H 0.66003 0.47850 -0.01283
 C143 C 0.69149 0.41540 -0.09318
 H144 H 0.74663 0.42380 -0.08471
 Zn145 Zn 0.50774 0.47770 -0.00410
 N146 N 0.57302 0.43436 -0.06105
 C147 C 0.45467 0.54617 -0.11777
 N148 N 0.44258 0.53233 -0.05378
 C149 C 0.38642 0.56062 -0.02308
 C150 C 0.34040 0.60542 -0.05647
 C151 C 0.40989 0.59083 -0.15299
 C152 C 0.42638 0.44116 0.09919
 C153 C 0.38511 0.40098 0.13641
 C154 C 0.41422 0.30764 0.06464
 C155 C 0.45445 0.34995 0.02811
 N156 N 0.45859 0.41581 0.04516
 H157 H 0.50027 0.52439 -0.14097
 H158 H 0.37809 0.55009 0.02790
 H159 H 0.29677 0.62885 -0.03122
 H160 H 0.42106 0.60254 -0.20339
 H161 H 0.43258 0.49294 0.11341
 H162 H 0.35910 0.42236 0.17863
 H163 H 0.41022 0.25548 0.05045
 H164 H 0.48149 0.33025 -0.01405
 C165 C 0.66919 0.37357 -0.14448
 C166 C 0.62816 0.61202 0.14558
 C167 C 0.37812 0.33356 0.11856
 C168 C 0.35246 0.62146 -0.12167
 N169 N 0.20887 -0.21793 -0.19271
 N170 N 0.20201 -0.15490 -0.18433
 N171 N 0.17943 0.30413 0.28871
 N172 N 0.20057 0.34525 0.33238
 N173 N 0.68358 -0.18082 0.28942
 N174 N 0.64740 -0.20005 0.33648
 N175 N 0.70435 0.30128 -0.23153
 N176 N 0.72069 0.33854 -0.18285
 N177 N -0.17992 0.20674 -0.20902
 N178 N -0.17829 0.14308 -0.20648
 N179 N -0.21610 0.70377 0.28189
 N180 N -0.17208 0.72321 0.32543
 N181 N 0.29960 0.20735 0.29201
 N182 N 0.27825 0.16307 0.33032
 N183 N 0.31824 0.69001 -0.21201
 N184 N 0.30837 0.67174 -0.15348
 N185 N -0.22437 -0.19031 0.18039
 N186 N -0.15835 -0.19622 0.17662
 N187 N -0.17086 0.30436 0.68614
 N188 N -0.19317 0.34702 0.64340
 N189 N 0.31951 -0.18584 0.73736
 N190 N 0.35903 -0.13865 0.73762
 N191 N 0.29263 0.31393 0.19668
 N192 N 0.33494 0.29084 0.15440
 N193 N 0.19645 0.20673 0.18135
 N194 N 0.15213 0.16509 0.19852
 N195 N 0.22441 0.72155 0.68659
 N196 N 0.18023 0.67754 0.69826
 N197 N 0.72999 0.19540 0.67128
 N198 N 0.66413 0.20084 0.66071
 N199 N 0.66698 0.71532 0.18748
 N200 N 0.67127 0.65164 0.18805
   
