data_POSCAR
  _audit_creation_date              2014-09-24
  _audit_creation_method            'ToBaCCo'
  _symmetry_space_group_name_H-M    'P1'
  _symmetry_Int_Tables_number       1
  _symmetry_cell_setting            triclinic
  loop_
  _symmetry_equiv_pos_as_xyz
 x,y,z
_cell_length_a 31.4229
_cell_length_b 31.3928
_cell_length_c 31.4217
_cell_angle_alpha 91.706800
_cell_angle_beta 86.853700
_cell_angle_gamma 90.338200
loop_
  _atom_site_label
  _atom_site_type_symbol
  _atom_site_fract_x
  _atom_site_fract_y
  _atom_site_fract_z
C1 C 0.58258 0.39076 -0.00844
 C2 C 0.61271 0.42182 -0.00439
 C3 C 0.59136 0.45972 0.00589
 N4 N 0.54876 0.45267 0.00576
 C5 C 0.54331 0.41050 -0.00312
 C6 C 0.61095 0.49963 0.01598
 C7 C 0.58691 0.53751 0.02483
 C8 C 0.60130 0.57210 0.04869
 C9 C 0.57043 0.60263 0.04948
 C10 C 0.53756 0.58629 0.02619
 N11 N 0.54729 0.54596 0.01208
 C12 C 0.49916 0.60850 0.02023
 C13 C 0.45961 0.58635 0.02234
 C14 C 0.42108 0.60327 0.03850
 C15 C 0.39127 0.57162 0.03560
 C16 C 0.41232 0.53615 0.01803
 N17 N 0.45428 0.54489 0.01077
 C18 C 0.39218 0.49743 0.00673
 C19 C 0.41497 0.45972 -0.00463
 C20 C 0.39755 0.42405 -0.02426
 C21 C 0.42869 0.39361 -0.02753
 C22 C 0.46458 0.41148 -0.01022
 N23 N 0.45605 0.45196 0.00361
 C24 C 0.50363 0.38967 -0.00803
 H25 H 0.58977 0.35771 -0.01577
 H26 H 0.64643 0.41610 -0.00962
 H27 H 0.47558 0.47166 0.02132
 H28 H 0.63048 0.57467 0.06536
 H29 H 0.57134 0.63258 0.06735
 H30 H 0.41502 0.63430 0.05335
 H31 H 0.35804 0.57430 0.04624
 H32 H 0.42548 0.36209 -0.04195
 H33 H 0.52969 0.52702 -0.00838
 H34 H 0.36581 0.42025 -0.03556
 C35 C 0.01597 0.57939 0.61261
 C36 C 0.01526 0.61019 0.58272
 C37 C -0.00064 0.59119 0.54637
 N38 N -0.00834 0.54932 0.55294
 C39 C 0.00199 0.54197 0.59335
 C40 C -0.00942 0.61200 0.50823
 C41 C -0.01707 0.58774 0.47055
 C42 C -0.04031 0.60131 0.43713
 C43 C -0.03650 0.57037 0.40536
 C44 C -0.01155 0.53848 0.42036
 N45 N -0.00043 0.54887 0.46039
 C46 C 0.00274 0.50213 0.39635
 C47 C 0.01487 0.46487 0.41632
 C48 C 0.03619 0.43054 0.39651
 C49 C 0.03740 0.39956 0.42633
 C50 C 0.01682 0.41614 0.46327
 N51 N 0.00332 0.45611 0.45714
 C52 C 0.00764 0.39372 0.50091
 C53 C -0.00506 0.41500 0.53987
 C54 C -0.02317 0.39561 0.57558
 C55 C -0.02637 0.42631 0.60767
 C56 C -0.01100 0.46403 0.59053
 N57 N 0.00181 0.45680 0.54914
 C58 C -0.00436 0.50263 0.61370
 H59 H 0.02601 0.58452 0.64469
 H60 H 0.02618 0.64256 0.58763
 H61 H 0.01923 0.47794 0.53002
 H62 H -0.05843 0.63038 0.43572
 H63 H -0.05073 0.57120 0.37481
 H64 H 0.04947 0.42796 0.36404
 H65 H 0.05182 0.36848 0.42132
 H66 H -0.03815 0.42070 0.63995
 H67 H 0.02139 0.53267 0.47775
 H68 H -0.03266 0.36262 0.57866
 C69 C 0.39036 0.01845 0.57044
 C70 C 0.42033 0.01845 0.60048
 C71 C 0.45728 0.00151 0.58065
 N72 N 0.45102 -0.00744 0.53905
 C73 C 0.41017 0.00298 0.53266
 C74 C 0.49553 -0.00781 0.60054
 C75 C 0.53348 -0.01642 0.57522
 C76 C 0.56677 -0.04159 0.58702
 C77 C 0.59863 -0.03876 0.55558
 C78 C 0.58410 -0.01193 0.52527
 N79 N 0.54381 0.00059 0.53686
 C80 C 0.60840 0.00214 0.48891
 C81 C 0.58753 0.01275 0.45178
 C82 C 0.60475 0.03571 0.41781
 C83 C 0.57480 0.03550 0.38763
 C84 C 0.54003 0.01306 0.40434
 N85 N 0.54769 -0.00056 0.44361
 C86 C 0.50281 0.00332 0.38278
 C87 C 0.46458 -0.00924 0.40496
 C88 C 0.42968 -0.02763 0.38635
 C89 C 0.39751 -0.02955 0.41767
 C90 C 0.41381 -0.01313 0.45497
 N91 N 0.45483 -0.00106 0.44688
 C92 C 0.39008 -0.00492 0.49396
 H93 H 0.35785 0.02894 0.57635
 H94 H 0.41502 0.03033 0.63294
 H95 H 0.47329 0.01682 0.46744
 H96 H 0.56788 -0.06060 0.61509
 H97 H 0.62881 -0.05524 0.55493
 H98 H 0.63520 0.05189 0.41505
 H99 H 0.57799 0.05087 0.35725
 H100 H 0.36566 -0.04103 0.41269
 H101 H 0.52620 0.02318 0.52172
 H102 H 0.42714 -0.03790 0.35342
 O103 O 0.46624 -0.00619 -0.06549
 O104 O 0.46843 0.00068 0.05166
 O105 O 0.46669 0.05568 -0.00815
 O106 O 0.46772 -0.06145 -0.00537
 O107 O 0.53812 -0.06087 -0.01023
 O108 O 0.53707 0.05644 -0.01462
 O109 O 0.53883 0.00132 0.04648
 O110 O 0.53665 -0.00587 -0.07070
 Cu111 Cu 0.46022 -0.00295 -0.00634
 Cu112 Cu 0.54474 -0.00214 -0.01271
 C113 C 0.50107 -0.00710 -0.08802
 C114 C 0.50399 0.00214 0.06901
 C115 C 0.50168 0.07597 -0.01211
 C116 C 0.50302 -0.08110 -0.00718
 O117 O -0.05658 0.53944 1.00826
 O118 O 0.06076 0.53547 1.00217
 O119 O 0.00300 0.53650 0.94664
 O120 O 0.00225 0.53809 1.06388
 O121 O -0.00033 0.46769 1.06285
 O122 O -0.00193 0.46623 0.94586
 O123 O 0.05801 0.46509 1.00118
 O124 O -0.05910 0.46910 1.00885
 Cu125 Cu 0.00252 0.54448 1.00529
 Cu126 Cu -0.00098 0.45992 1.00434
 C127 C -0.07776 0.50488 1.01004
 C128 C 0.07930 0.49961 1.00089
 C129 C 0.00043 0.50109 0.92638
 C130 C 0.00102 0.50313 1.08326
 O131 O -0.00267 -0.05872 0.46362
 O132 O 0.00331 0.05853 0.46093
 O133 O 0.05886 -0.00338 0.46178
 O134 O -0.05797 0.00224 0.46060
 O135 O -0.06262 0.00587 0.53102
 O136 O 0.05470 0.00220 0.53216
 O137 O -0.00113 0.06207 0.53138
 O138 O -0.00659 -0.05473 0.53405
 Cu139 Cu 0.00083 -0.00062 0.45465
 Cu140 Cu -0.00442 0.00413 0.53923
 C141 C -0.00560 -0.07662 0.49939
 C142 C 0.00222 0.08019 0.49581
 C143 C 0.07665 -0.00131 0.49708
 C144 C -0.08021 0.00471 0.49553
 C145 C -0.25765 0.50605 1.02115
 N146 N -0.27933 0.47081 1.03393
 N147 N -0.32159 0.46905 1.03309
 C148 C -0.34409 0.50213 1.01896
 N149 N -0.32218 0.53783 1.00713
 N150 N -0.27986 0.53977 1.00816
 C151 C -0.21090 0.50658 1.01960
 N152 N -0.18859 0.54281 1.01107
 N153 N -0.14609 0.54252 1.00835
 C154 C -0.12447 0.50589 1.01367
 N155 N -0.14681 0.46974 1.02220
 N156 N -0.18922 0.47010 1.02520
 C157 C 0.25883 0.49638 1.00135
 N158 N 0.28244 0.52859 0.98429
 N159 N 0.32471 0.52872 0.98577
 C160 C 0.34496 0.49691 1.00481
 N161 N 0.32125 0.46470 1.02195
 N162 N 0.27898 0.46435 1.02010
 C163 C 0.21222 0.49673 1.00022
 N164 N 0.18890 0.46125 1.00918
 N165 N 0.14652 0.46193 1.00874
 C166 C 0.12598 0.49822 0.99969
 N167 N 0.14931 0.53368 0.99078
 N168 N 0.19168 0.53289 0.99082
 C169 C -0.01161 -0.25617 0.50451
 N170 N -0.01962 -0.27604 0.54185
 N171 N -0.01932 -0.31842 0.54306
 C172 C -0.01079 -0.34280 0.50714
 N173 N -0.00310 -0.32252 0.46978
 N174 N -0.00352 -0.28018 0.46845
 C175 C -0.01087 -0.20948 0.50317
 N176 N -0.00505 -0.18977 0.46541
 N177 N -0.00359 -0.14741 0.46418
 C178 C -0.00774 -0.12324 0.50070
 N179 N -0.01360 -0.14294 0.53847
 N180 N -0.01519 -0.18531 0.53968
 C181 C 0.01008 0.25984 0.49623
 N182 N -0.00540 0.28163 0.46383
 N183 N -0.00590 0.32407 0.46525
 C184 C 0.00937 0.34636 0.49893
 N185 N 0.02531 0.32446 0.53107
 N186 N 0.02546 0.28201 0.52985
 C187 C 0.00902 0.21311 0.49560
 N188 N 0.01496 0.19177 0.53170
 N189 N 0.01280 0.14941 0.53163
 C190 C 0.00495 0.12680 0.49538
 N191 N -0.00068 0.14809 0.45914
 N192 N 0.00110 0.19053 0.45931
 C193 C 0.49803 -0.01158 -0.26776
 N194 N 0.46091 -0.01742 -0.28727
 N195 N 0.46013 -0.01657 -0.32958
 C196 C 0.49626 -0.00961 -0.35431
 N197 N 0.53339 -0.00410 -0.33442
 N198 N 0.53430 -0.00508 -0.29213
 C199 C 0.49883 -0.01144 -0.22104
 N200 N 0.53633 -0.00777 -0.20171
 N201 N 0.53704 -0.00675 -0.15933
 C202 C 0.50027 -0.00921 -0.13472
 N203 N 0.46276 -0.01294 -0.15404
 N204 N 0.46207 -0.01409 -0.19643
 C205 C 0.50539 0.00767 0.24893
 N206 N 0.47095 0.02195 0.27305
 N207 N 0.47039 0.02118 0.31545
 C208 C 0.50407 0.00572 0.33542
 N209 N 0.53862 -0.00834 0.31120
 N210 N 0.53933 -0.00727 0.26879
 C211 C 0.50540 0.00730 0.20213
 N212 N 0.54173 -0.00075 0.17786
 N213 N 0.54142 -0.00194 0.13543
 C214 C 0.50470 0.00452 0.11573
 N215 N 0.46839 0.01254 0.14001
 N216 N 0.46876 0.01406 0.18241
 C217 C 0.50224 -0.26053 0.00338
 N218 N 0.53874 -0.28234 0.00794
 N219 N 0.53770 -0.32429 0.01337
 C220 C 0.50021 -0.34634 0.01519
 N221 N 0.46408 -0.32426 0.00885
 N222 N 0.46492 -0.28236 0.00349
 C223 C 0.50276 -0.21400 -0.00063
 N224 N 0.46567 -0.19223 -0.00191
 N225 N 0.46582 -0.14994 -0.00423
 C226 C 0.50309 -0.12781 -0.00543
 N227 N 0.54023 -0.14956 -0.00435
 N228 N 0.54007 -0.19189 -0.00192
 C229 C 0.49974 0.25573 -0.01558
 N230 N 0.47300 0.27792 0.01213
 N231 N 0.47425 0.32034 0.01411
 C232 C 0.50207 0.34225 -0.01174
 N233 N 0.52792 0.32000 -0.04037
 N234 N 0.52710 0.27753 -0.04196
 C235 C 0.49986 0.20895 -0.01593
 N236 N 0.53455 0.18680 -0.03163
 N237 N 0.53523 0.14441 -0.03031
 C238 C 0.50107 0.12263 -0.01367
 N239 N 0.46626 0.14476 0.00166
 N240 N 0.46579 0.18716 0.00084
 C241 C -0.25983 0.00600 0.49166
 N242 N -0.27889 0.00286 0.45398
 N243 N -0.32122 0.00182 0.45305
 C244 C -0.34642 0.00388 0.48966
 N245 N -0.32698 0.00716 0.52730
 N246 N -0.28467 0.00818 0.52832
 C247 C -0.21313 0.00642 0.49275
 N248 N -0.19401 0.00856 0.53049
 N249 N -0.15165 0.00826 0.53145
 C250 C -0.12688 0.00584 0.49468
 N251 N -0.14600 0.00382 0.45695
 N252 N -0.18834 0.00410 0.45600
 C253 C 0.25626 -0.00431 0.49574
 N254 N 0.27798 0.03022 0.51011
 N255 N 0.32042 0.03015 0.50906
 C256 C 0.34274 -0.00468 0.49434
 N257 N 0.32087 -0.03931 0.48027
 N258 N 0.27845 -0.03900 0.48057
 C259 C 0.20957 -0.00401 0.49643
 N260 N 0.18859 -0.02594 0.46608
 N261 N 0.14619 -0.02497 0.46623
 C262 C 0.12325 -0.00270 0.49720
 N263 N 0.14421 0.01885 0.52781
 N264 N 0.18665 0.01851 0.52722
 C265 C 0.00185 0.50331 1.26279
 N266 N 0.01449 0.53827 1.28529
 N267 N 0.01497 0.53782 1.32764
 C268 C 0.00265 0.50247 1.34909
 N269 N -0.01023 0.46763 1.32649
 N270 N -0.01047 0.46798 1.28415
 C271 C 0.00158 0.50350 1.21615
 N272 N -0.00559 0.46689 1.19356
 N273 N -0.00568 0.46684 1.15120
 C274 C 0.00114 0.50345 1.12990
 N275 N 0.00818 0.54012 1.15247
 N276 N 0.00851 0.54013 1.19486
 C277 C -0.00186 0.50050 0.74708
 N278 N 0.03205 0.51537 0.72329
 N279 N 0.03136 0.51560 0.68095
 C280 C -0.00354 0.50174 0.66087
 N281 N -0.03756 0.48715 0.68480
 N282 N -0.03661 0.48619 0.72710
 C283 C -0.00108 0.50036 0.79363
 N284 N -0.02256 0.47007 0.81620
 N285 N -0.02166 0.46996 0.85855
 C286 C 0.00013 0.50058 0.87980
 N287 N 0.02131 0.53105 0.85725
 N288 N 0.02104 0.53071 0.81487
   
