data_POSCAR
  _audit_creation_date              2014-09-24
  _audit_creation_method            'ToBaCCo'
  _symmetry_space_group_name_H-M    'P1'
  _symmetry_Int_Tables_number       1
  _symmetry_cell_setting            triclinic
  loop_
  _symmetry_equiv_pos_as_xyz
 x,y,z
_cell_length_a 30.5386
_cell_length_b 30.4489
_cell_length_c 30.3418
_cell_angle_alpha 91.517600
_cell_angle_beta 90.853100
_cell_angle_gamma 88.320600
loop_
  _atom_site_label
  _atom_site_type_symbol
  _atom_site_fract_x
  _atom_site_fract_y
  _atom_site_fract_z
Si1 Si 0.25950 0.51127 1.01164
 Si2 Si 0.75079 0.48391 -0.00807
 Si3 Si 0.00036 0.26001 0.49907
 Si4 Si 0.99473 0.74753 0.51212
 Si5 Si 0.49207 0.01428 0.24540
 Si6 Si 0.50784 -0.00586 0.74095
 C7 C 0.28248 0.02930 0.42315
 H8 H 0.26399 0.05834 0.43368
 C9 C 0.31231 0.03239 0.38908
 H10 H 0.31520 0.06336 0.37274
 C11 C 0.30390 -0.04517 0.43335
 H12 H 0.30074 -0.07521 0.45109
 C13 C 0.33545 -0.04296 0.40051
 H14 H 0.35668 -0.07128 0.39335
 N15 N 0.27880 -0.00904 0.44471
 C16 C 0.18810 0.05537 0.53719
 H17 H 0.20064 0.04242 0.56784
 C18 C 0.15794 0.09087 0.53818
 H19 H 0.14843 0.10588 0.56949
 C20 C 0.18214 0.04981 0.45943
 H21 H 0.19064 0.03291 0.42883
 C22 C 0.15177 0.08505 0.45889
 H23 H 0.13771 0.09565 0.42783
 Zn24 Zn 0.24405 -0.01062 0.49633
 N25 N 0.20142 0.03704 0.49800
 C26 C 0.29090 0.02913 0.56977
 N27 N 0.28455 -0.00841 0.54527
 C28 C 0.31005 -0.04512 0.55218
 C29 C 0.34164 -0.04576 0.58591
 C30 C 0.32198 0.02980 0.60415
 C31 C 0.18516 -0.07194 0.46125
 C32 C 0.15539 -0.10591 0.46268
 C33 C 0.18330 -0.12315 0.53528
 C34 C 0.21180 -0.08832 0.53290
 N35 N 0.21186 -0.06310 0.49650
 H36 H 0.27311 0.05910 0.56188
 H37 H 0.30600 -0.07404 0.53127
 H38 H 0.36179 -0.07514 0.59082
 H39 H 0.32706 0.05991 0.62310
 H40 H 0.18553 -0.05123 0.43286
 H41 H 0.13260 -0.11108 0.43547
 H42 H 0.18234 -0.14182 0.56512
 H43 H 0.23193 -0.08007 0.56127
 C44 C 0.14035 0.10671 0.49854
 C45 C 0.34086 -0.00329 0.37901
 C46 C 0.15334 -0.13089 0.50069
 C47 C 0.34751 -0.00811 0.61254
 C48 C 0.68528 0.04200 0.54479
 H49 H 0.68072 0.06696 0.52028
 C50 C 0.65508 0.03910 0.57870
 H51 H 0.62727 0.06196 0.58032
 C52 C 0.72551 -0.01993 0.57111
 H53 H 0.75204 -0.04385 0.56741
 C54 C 0.69648 -0.02360 0.60587
 H55 H 0.70128 -0.04989 0.62897
 N56 N 0.71923 0.01225 0.54113
 C57 C 0.81629 0.06716 0.45506
 H58 H 0.81698 0.04197 0.42923
 C59 C 0.84531 0.10169 0.45414
 H60 H 0.86844 0.10308 0.42753
 C61 C 0.78684 0.09475 0.52252
 H62 H 0.76466 0.09130 0.54955
 C63 C 0.81532 0.12991 0.52286
 H64 H 0.81474 0.15368 0.55006
 Zn65 Zn 0.75382 0.01339 0.48964
 N66 N 0.78793 0.06424 0.48894
 C67 C 0.71066 0.04512 0.41222
 N68 N 0.71478 0.01139 0.44067
 C69 C 0.68917 -0.02428 0.43650
 C70 C 0.65893 -0.02780 0.40183
 C71 C 0.67986 0.04349 0.37768
 C72 C 0.82451 -0.03787 0.51999
 C73 C 0.85388 -0.07374 0.52158
 C74 C 0.81977 -0.10380 0.45547
 C75 C 0.79106 -0.06727 0.45507
 N76 N 0.79324 -0.03575 0.48767
 H77 H 0.73039 0.07380 0.41694
 H78 H 0.69232 -0.05009 0.46027
 H79 H 0.63902 -0.05661 0.39889
 H80 H 0.67572 0.07123 0.35624
 H81 H 0.82617 -0.01185 0.54489
 H82 H 0.87835 -0.07542 0.54773
 H83 H 0.81771 -0.12892 0.42963
 H84 H 0.76728 -0.06426 0.42861
 C85 C 0.84498 0.13356 0.48835
 C86 C 0.65996 0.00522 0.60895
 C87 C 0.85107 -0.10741 0.48943
 C88 C 0.65388 0.00640 0.37189
 C89 C 0.49543 0.17009 1.04273
 H90 H 0.49538 0.15419 1.01049
 C91 C 0.48995 0.14514 1.07996
 H92 H 0.48627 0.10995 1.07622
 C93 C 0.49891 0.23516 1.08725
 H94 H 0.50154 0.27051 1.08958
 C95 C 0.49364 0.21133 1.12547
 H96 H 0.49260 0.22817 1.15733
 N97 N 0.49954 0.21433 1.04690
 C98 C 0.45036 0.32156 0.96673
 H99 H 0.47537 0.32517 0.94259
 C100 C 0.41625 0.35294 0.96966
 H101 H 0.41568 0.38089 0.94828
 C102 C 0.42026 0.28171 1.02451
 H103 H 0.42154 0.25371 1.04563
 C104 C 0.38555 0.31229 1.02850
 H105 H 0.36086 0.30829 1.05321
 Zn106 Zn 0.50229 0.24829 0.99551
 N107 N 0.45269 0.28759 0.99503
 C108 C 0.46655 0.21056 0.91652
 N109 N 0.50185 0.21147 0.94444
 C110 C 0.53810 0.18552 0.93702
 C111 C 0.53931 0.15608 0.90105
 C112 C 0.46639 0.18146 0.88005
 C113 C 0.58348 0.27803 1.03123
 C114 C 0.62176 0.30204 1.03156
 C115 C 0.60223 0.32741 0.95896
 C116 C 0.56476 0.30241 0.95972
 N117 N 0.55523 0.27955 0.99609
 H118 H 0.43810 0.23151 0.92318
 H119 H 0.56569 0.18707 0.95973
 H120 H 0.56781 0.13456 0.89624
 H121 H 0.43759 0.17966 0.85889
 H122 H 0.57658 0.25833 1.05915
 H123 H 0.64354 0.30119 1.06004
 H124 H 0.60829 0.34695 0.93049
 H125 H 0.54339 0.30116 0.93110
 C126 C 0.38424 0.34895 1.00168
 C127 C 0.48831 0.16592 1.12174
 C128 C 0.63126 0.32738 0.99521
 C129 C 0.50302 0.15363 0.87235
 C130 C 0.47883 0.82022 -0.05757
 H131 H 0.45311 0.82327 -0.03344
 C132 C 0.47942 0.84926 -0.09247
 H133 H 0.45424 0.87490 -0.09503
 C134 C 0.54402 0.78428 -0.08272
 H135 H 0.56985 0.75979 -0.07832
 C136 C 0.54549 0.81221 -0.11846
 H137 H 0.57216 0.80869 -0.14154
 N138 N 0.51098 0.78869 -0.05312
 C139 C 0.45485 0.69157 0.03011
 H140 H 0.47915 0.69196 0.05642
 C141 C 0.42012 0.66314 0.03159
 H142 H 0.41765 0.64153 0.05918
 C143 C 0.42939 0.71836 -0.03867
 H144 H 0.43380 0.73937 -0.06631
 C145 C 0.39425 0.68986 -0.03878
 H146 H 0.37168 0.68881 -0.06663
 Zn147 Zn 0.50916 0.75273 -0.00283
 N148 N 0.45876 0.71855 -0.00447
 C149 C 0.47094 0.79404 0.07285
 N150 N 0.50796 0.78984 0.04835
 C151 C 0.54328 0.81482 0.05753
 C152 C 0.54182 0.84625 0.09184
 C153 C 0.46798 0.82535 0.10727
 C154 C 0.56029 0.68372 -0.03675
 C155 C 0.59140 0.64939 -0.03711
 C156 C 0.61584 0.67322 0.03552
 C157 C 0.58461 0.70783 0.03417
 N158 N 0.55733 0.71208 -0.00151
 H159 H 0.44274 0.77483 0.06436
 H160 H 0.57198 0.81138 0.03711
 H161 H 0.56937 0.86737 0.09761
 H162 H 0.43758 0.83012 0.12494
 H163 H 0.53757 0.68719 -0.06422
 H164 H 0.59299 0.62681 -0.06528
 H165 H 0.63637 0.66908 0.06461
 H166 H 0.58098 0.72999 0.06236
 C167 C 0.38946 0.66197 -0.00318
 C168 C 0.51350 0.84583 -0.12294
 C169 C 0.61855 0.64293 -0.00003
 C170 C 0.50332 0.85252 0.11618
 C171 C 1.04077 0.49923 0.16473
 H172 H 1.00820 0.49646 0.15089
 C173 C 1.07625 0.50117 0.13645
 H174 H 1.07067 0.50058 0.10110
 C175 C 1.08835 0.50225 0.22703
 H176 H 1.09328 0.50183 0.26222
 C177 C 1.12475 0.50387 0.19994
 H178 H 1.15731 0.50509 0.21451
 N179 N 1.04717 0.50079 0.20926
 C180 C 0.96988 0.44882 0.31422
 H181 H 0.94440 0.47418 0.31664
 C182 C 0.97241 0.41572 0.34503
 H183 H 0.94880 0.41566 0.37132
 C184 C 1.03311 0.41934 0.27839
 H185 H 1.05690 0.42119 0.25255
 C186 C 1.03743 0.38606 0.30925
 H187 H 1.06491 0.36280 0.30751
 Zn188 Zn 0.99797 0.50118 0.24732
 N189 N 1.00044 0.45058 0.28227
 C190 C 0.91714 0.46857 0.21515
 N191 N 0.94503 0.50253 0.21330
 C192 C 0.93721 0.53612 0.18521
 C193 C 0.90177 0.53494 0.15561
 C194 C 0.88099 0.46642 0.18659
 C195 C 1.03172 0.55002 0.31864
 C196 C 1.03304 0.58296 0.35133
 C197 C 0.96821 0.61682 0.31881
 C198 C 0.96848 0.58346 0.28621
 N199 N 0.99978 0.55064 0.28688
 H200 H 0.92397 0.44189 0.23717
 H201 H 0.95998 0.56261 0.18409
 H202 H 0.89752 0.56030 0.13142
 H203 H 0.86041 0.43805 0.18665
 H204 H 1.05480 0.52260 0.32027
 H205 H 1.05766 0.58110 0.37735
 H206 H 0.94207 0.64164 0.31921
 H207 H 0.94259 0.58298 0.26165
 C208 C 1.00763 0.38512 0.34385
 C209 C 1.11868 0.50441 0.15415
 C210 C 1.00024 0.61604 0.35230
 C211 C 0.87417 0.49903 0.15532
 C212 C -0.04414 0.47641 0.82485
 H213 H -0.01845 0.45141 0.82797
 C214 C -0.07990 0.47676 0.85275
 H215 H -0.08178 0.45198 0.87756
 C216 C -0.07261 0.53977 0.78928
 H217 H -0.06923 0.56477 0.76511
 C218 C -0.10893 0.54153 0.81684
 H219 H -0.13340 0.56778 0.81376
 N220 N -0.04152 0.50706 0.79332
 C221 C 0.03878 0.44241 0.69211
 H222 H 0.06419 0.46607 0.68882
 C223 C 0.03677 0.40622 0.66295
 H224 H 0.06036 0.40228 0.63673
 C225 C -0.02517 0.42038 0.72794
 H226 H -0.05026 0.42666 0.75212
 C227 C -0.02802 0.38346 0.69993
 H228 H -0.05526 0.36175 0.70263
 Zn229 Zn 0.00836 0.50237 0.75725
 N230 N 0.00755 0.44928 0.72324
 C231 C 0.08806 0.47007 0.79634
 N232 N 0.05762 0.50357 0.79523
 C233 C 0.06007 0.53904 0.82320
 C234 C 0.09459 0.54225 0.85348
 C235 C 0.12297 0.47172 0.82659
 C236 C -0.02449 0.55588 0.68959
 C237 C -0.02611 0.59207 0.66227
 C238 C 0.04313 0.61472 0.69361
 C239 C 0.04331 0.57828 0.72053
 N240 N 0.00935 0.55024 0.71874
 H241 H 0.08484 0.44174 0.77445
 H242 H 0.03493 0.56478 0.82201
 H243 H 0.09606 0.57060 0.87573
 H244 H 0.14649 0.44447 0.82813
 H245 H -0.05056 0.53256 0.68814
 H246 H -0.05332 0.59651 0.63935
 H247 H 0.07017 0.63697 0.69541
 H248 H 0.07067 0.57252 0.74275
 C249 C 0.00241 0.37703 0.66617
 C250 C -0.11293 0.50933 0.84853
 C251 C 0.00771 0.62223 0.66472
 C252 C 0.12650 0.50833 0.85537
 C253 C 0.06636 0.13891 0.48400
 C254 C 0.03569 0.17364 0.48384
 C255 C 0.04645 0.21618 0.49874
 C256 C 0.09093 0.22377 0.51080
 C257 C 0.12220 0.18812 0.51117
 C258 C 0.10939 0.14524 0.49847
 C259 C 0.16587 0.19683 0.52309
 N260 N 0.17742 0.23840 0.53387
 N261 N 0.14835 0.27179 0.53325
 C262 C 0.10580 0.26585 0.52191
 H263 H 0.05629 0.10657 0.47291
 H264 H 0.00328 0.16661 0.47139
 H265 H 0.19108 0.17117 0.52337
 H266 H 0.08429 0.29409 0.52139
 C267 C 0.69297 0.60811 0.00563
 C268 C 0.72173 0.57180 0.00211
 C269 C 0.70650 0.52923 -0.00608
 C270 C 0.66039 0.52389 -0.01227
 C271 C 0.63116 0.56046 -0.00499
 C272 C 0.64771 0.60310 0.00182
 C273 C 0.58576 0.55338 -0.00541
 N274 N 0.57052 0.51338 -0.01703
 N275 N 0.59762 0.48024 -0.02852
 C276 C 0.64169 0.48434 -0.02719
 H277 H 0.70622 0.64052 0.01051
 H278 H 0.75654 0.57722 0.00556
 H279 H 0.56223 0.57927 0.00329
 H280 H 0.66083 0.45722 -0.04007
 C281 C 0.92602 -0.13775 0.48196
 C282 C 0.95767 -0.17106 0.48597
 C283 C 0.94707 -0.21287 0.50039
 C284 C 0.90208 -0.22225 0.50544
 C285 C 0.86967 -0.18804 0.50144
 C286 C 0.88223 -0.14531 0.49068
 C287 C 0.82574 -0.19757 0.50934
 N288 N 0.81492 -0.23896 0.51927
 N289 N 0.84508 -0.27125 0.52208
 C290 C 0.88811 -0.26424 0.51550
 H291 H 0.93590 -0.10548 0.47244
 H292 H 0.99085 -0.16320 0.47819
 H293 H 0.79991 -0.17260 0.50771
 H294 H 0.91079 -0.29146 0.51833
 C295 C 0.31781 0.39074 0.97836
 C296 C 0.28906 0.42694 0.98159
 C297 C 0.29417 0.45916 1.01500
 C298 C 0.32641 0.45207 1.04862
 C299 C 0.35567 0.41512 1.04528
 C300 C 0.35174 0.38499 1.00923
 C301 C 0.38889 0.41020 1.07761
 N302 N 0.39179 0.43982 1.11155
 N303 N 0.36400 0.47415 1.11515
 C304 C 0.33160 0.48129 1.08494
 H305 H 0.31414 0.36747 0.95102
 H306 H 0.26348 0.43011 0.95682
 H307 H 0.41264 0.38321 1.07629
 H308 H 0.31058 0.50984 1.08971
 C309 C 0.90747 0.16957 0.52523
 C310 C 0.94137 0.19902 0.52674
 C311 C 0.94735 0.22869 0.49282
 C312 C 0.91523 0.23085 0.45820
 C313 C 0.88105 0.19988 0.45629
 C314 C 0.87789 0.16852 0.48970
 C315 C 0.85007 0.20216 0.42157
 N316 N 0.85261 0.23374 0.39121
 N317 N 0.88358 0.26356 0.39368
 C318 C 0.91451 0.26339 0.42619
 H319 H 0.90526 0.14622 0.55139
 H320 H 0.96439 0.19722 0.55421
 H321 H 0.82332 0.17975 0.41870
 H322 H 0.93619 0.29030 0.42784
 C323 C 0.37007 0.58443 -0.00222
 C324 C 0.34074 0.55090 0.00127
 C325 C 0.29556 0.55974 0.00392
 C326 C 0.27970 0.60394 0.00015
 C327 C 0.30993 0.63838 -0.00299
 C328 C 0.35551 0.62828 -0.00356
 C329 C 0.29346 0.68195 -0.00403
 N330 N 0.24964 0.69031 -0.00312
 N331 N 0.22127 0.65813 -0.00074
 C332 C 0.23474 0.61538 0.00103
 H333 H 0.40478 0.57603 -0.00340
 H334 H 0.35418 0.51778 0.00174
 H335 H 0.31489 0.70948 -0.00530
 H336 H 0.21010 0.59109 0.00402
 C337 C 0.11336 -0.19817 0.47851
 C338 C 0.07838 -0.22640 0.48171
 C339 C 0.04553 -0.21812 0.51281
 C340 C 0.04963 -0.18208 0.54318
 C341 C 0.08443 -0.15260 0.53912
 C342 C 0.11666 -0.16102 0.50651
 C343 C 0.08508 -0.11467 0.56665
 N344 N 0.05454 -0.10802 0.59800
 N345 N 0.02213 -0.13760 0.60311
 C346 C 0.01802 -0.17488 0.57605
 H347 H 0.13793 -0.20513 0.45369
 H348 H 0.07702 -0.25457 0.45938
 H349 H 0.10928 -0.08986 0.56346
 H350 H 0.00803 -0.15409 0.60309
 C351 C 0.67282 0.38665 1.03195
 C352 C 0.70166 0.42100 1.03067
 C353 C 0.72711 0.42733 0.99337
 C354 C 0.72830 0.39400 0.95948
 C355 C 0.69894 0.35867 0.96114
 C356 C 0.66915 0.35680 0.99637
 C357 C 0.70053 0.32592 0.92757
 N358 N 0.72931 0.32859 0.89430
 N359 N 0.75687 0.36151 0.89267
 C360 C 0.75743 0.39400 0.92407
 H361 H 0.65095 0.38536 1.05965
 H362 H 0.70100 0.44509 1.05761
 H363 H 0.67979 0.29776 0.92790
 H364 H 0.78198 0.41810 0.92165
 C365 C 0.51454 0.13421 1.19200
 C366 C 0.51434 0.09988 1.22149
 C367 C 0.48094 0.06915 1.21957
 C368 C 0.44344 0.07754 1.19223
 C369 C 0.44331 0.11328 1.16326
 C370 C 0.48070 0.13932 1.16082
 C371 C 0.40635 0.12085 1.13598
 N372 N 0.37224 0.09347 1.13679
 N373 N 0.37284 0.05895 1.16279
 C374 C 0.40726 0.04987 1.19013
 H375 H 0.54299 0.15458 1.19111
 H376 H 0.54244 0.09528 1.24312
 H377 H 0.40429 0.14840 1.11416
 H378 H 0.40577 0.02098 1.20943
 C379 C 0.04003 0.66140 0.60363
 C380 C 0.03738 0.69198 0.57046
 C381 C 0.00163 0.72183 0.56758
 C382 C -0.02831 0.72529 0.60294
 C383 C -0.02615 0.69334 0.63624
 C384 C 0.00720 0.66001 0.63512
 C385 C -0.05722 0.69608 0.67000
 N386 N -0.08770 0.72934 0.67084
 N387 N -0.08890 0.76009 0.64043
 C388 C -0.06013 0.75932 0.60678
 H389 H 0.06638 0.63679 0.60299
 H390 H 0.06159 0.68965 0.54468
 H391 H -0.05706 0.67263 0.69616
 H392 H -0.06149 0.78624 0.58463
 C393 C 0.48278 0.88216 -0.18931
 C394 C 0.48239 0.91475 -0.22077
 C395 C 0.51558 0.94554 -0.22157
 C396 C 0.55168 0.94121 -0.19150
 C397 C 0.55172 0.90832 -0.15909
 C398 C 0.51667 0.87885 -0.15786
 C399 C 0.58613 0.90725 -0.12763
 N400 N 0.61890 0.93611 -0.12950
 N401 N 0.61937 0.96639 -0.16025
 C402 C 0.58696 0.97005 -0.19103
 H403 H 0.45592 0.85971 -0.18901
 H404 H 0.45519 0.91641 -0.24393
 H405 H 0.58721 0.88422 -0.10117
 H406 H 0.58905 0.99603 -0.21411
 C407 C 1.01534 0.31056 0.37550
 C408 C 1.01595 0.28299 0.41157
 C409 C 1.01496 0.30036 0.45493
 C410 C 1.02272 0.34626 0.46172
 C411 C 1.02227 0.37410 0.42484
 C412 C 1.01564 0.35620 0.38184
 C413 C 1.02951 0.41931 0.43187
 N414 N 1.03710 0.43559 0.47306
 N415 N 1.03877 0.40962 0.50755
 C416 C 1.03244 0.36586 0.50323
 H417 H 1.01210 0.29629 0.34257
 H418 H 1.01284 0.24800 0.40541
 H419 H 1.03039 0.44182 0.40497
 H420 H 1.03748 0.34744 0.53228
 C421 C 0.49754 0.88806 0.19073
 C422 C 0.49589 0.92526 0.21860
 C423 C 0.49511 0.96788 0.20190
 C424 C 0.49752 0.97246 0.15499
 C425 C 0.49578 0.93445 0.12689
 C426 C 0.49771 0.89219 0.14500
 C427 C 0.49306 0.93969 0.08087
 N428 N 0.49599 0.98003 0.06385
 N429 N 0.50197 1.01525 0.08973
 C430 C 0.50355 1.01270 0.13425
 H431 H 0.49920 0.85579 0.20497
 H432 H 0.49566 0.92055 0.25387
 H433 H 0.48886 0.91207 0.05821
 H434 H 0.51204 1.04188 0.15185
 C435 C 0.02232 0.30733 0.62619
 C436 C 0.02015 0.27954 0.58896
 C437 C -0.00894 0.28901 0.55409
 C438 C -0.04048 0.32410 0.55964
 C439 C -0.03811 0.35239 0.59743
 C440 C -0.00547 0.34455 0.63011
 C441 C -0.06728 0.38910 0.60023
 N442 N -0.09747 0.39615 0.56788
 N443 N -0.10018 0.36933 0.53272
 C444 C -0.07272 0.33388 0.52749
 H445 H 0.04704 0.30075 0.65133
 H446 H 0.04320 0.25200 0.58645
 H447 H -0.06635 0.41251 0.62756
 H448 H -0.07653 0.31404 0.49822
 C449 C 0.50236 0.07505 0.85278
 C450 C 0.50272 0.03967 0.82313
 C451 C 0.50356 0.04559 0.77743
 C452 C 0.50047 0.08921 0.76168
 C453 C 0.50004 0.12556 0.79225
 C454 C 0.50172 0.11809 0.83814
 C455 C 0.49866 0.16827 0.77577
 N456 N 0.49667 0.17418 0.73166
 N457 N 0.49624 0.14030 0.70302
 C458 C 0.49803 0.09815 0.71646
 H459 H 0.50248 0.06872 0.88778
 H460 H 0.50198 0.00744 0.83689
 H461 H 0.49917 0.19698 0.79749
 H462 H 0.49792 0.07227 0.69155
 C463 C 1.00277 0.69050 0.38723
 C464 C 1.00079 0.71908 0.42382
 C465 C 0.99264 0.70390 0.46612
 C466 C 0.98225 0.65858 0.47053
 C467 C 0.98480 0.62954 0.43306
 C468 C 0.99611 0.64567 0.39155
 C469 C 0.97447 0.58506 0.43782
 N470 N 0.96215 0.57055 0.47735
 N471 N 0.95868 0.59762 0.51223
 C472 C 0.96774 0.64079 0.51005
 H473 H 1.01029 0.70338 0.35536
 H474 H 1.00651 0.75355 0.41896
 H475 H 0.97518 0.56168 0.41041
 H476 H 0.96136 0.66020 0.53902
 C477 C 1.16502 0.47200 0.09524
 C478 C 1.19860 0.47358 0.06502
 C479 C 1.22463 0.51063 0.06265
 C480 C 1.21969 0.54471 0.09536
 C481 C 1.18418 0.54385 0.12511
 C482 C 1.15653 0.50723 0.12459
 C483 C 1.17712 0.58016 0.15406
 N484 N 1.20569 0.61338 0.15546
 N485 N 1.24075 0.61266 0.12992
 C486 C 1.24882 0.57941 0.10030
 H487 H 1.14471 0.44340 0.09499
 H488 H 1.20255 0.44641 0.04148
 H489 H 1.14928 0.58256 0.17564
 H490 H 1.27881 0.57987 0.08251
 C491 C 0.61734 0.03230 0.67350
 C492 C 0.58382 0.02913 0.70378
 C493 C 0.55704 -0.00750 0.70351
 C494 C 0.56636 -0.04307 0.67335
 C495 C 0.60014 -0.03949 0.64201
 C496 C 0.62564 -0.00127 0.64210
 C497 C 0.60617 -0.07379 0.61041
 N498 N 0.58122 -0.10979 0.61126
 N499 N 0.55025 -0.11365 0.64116
 C500 C 0.54189 -0.08163 0.67199
 H501 H 0.63677 0.06153 0.67426
 H502 H 0.57872 0.05598 0.72729
 H503 H 0.63005 -0.07230 0.58465
 H504 H 0.51569 -0.08662 0.69448
 C505 C -0.13928 0.51725 0.92427
 C506 C -0.17053 0.51230 0.95624
 C507 C -0.21304 0.49932 0.94500
 C508 C -0.22572 0.49810 0.89970
 C509 C -0.19351 0.50259 0.86687
 C510 C -0.14963 0.51069 0.87970
 C511 C -0.20614 0.49736 0.82234
 N512 N -0.24852 0.48980 0.81150
 N513 N -0.27893 0.48670 0.84216
 C514 C -0.26895 0.49052 0.88576
 H515 H -0.10617 0.52495 0.93454
 H516 H -0.16036 0.51775 0.99009
 H517 H -0.18285 0.49921 0.79604
 H518 H -0.29484 0.48735 0.90892
 C519 C 0.38287 -0.02743 0.31244
 C520 C 0.41651 -0.02315 0.28233
 C521 C 0.44586 0.01135 0.28647
 C522 C 0.44123 0.04192 0.32269
 C523 C 0.40837 0.03611 0.35453
 C524 C 0.37797 0.00199 0.34844
 C525 C 0.40802 0.06390 0.39247
 N526 N 0.43670 0.09684 0.39678
 N527 N 0.46627 0.10353 0.36615
 C528 C 0.46959 0.07730 0.32954
 H529 H 0.36021 -0.05387 0.30740
 H530 H 0.41886 -0.04663 0.25508
 H531 H 0.38591 0.05939 0.41929
 H532 H 0.49518 0.08406 0.30700
 C533 C 0.14695 0.51353 0.93391
 C534 C 0.17692 0.51428 0.96862
 C535 C 0.22212 0.51006 0.96138
 C536 C 0.23714 0.50721 0.91714
 C537 C 0.20627 0.50729 0.88154
 C538 C 0.16082 0.50957 0.89031
 C539 C 0.22203 0.50619 0.83819
 N540 N 0.26573 0.50392 0.83100
 N541 N 0.29467 0.50289 0.86420
 C542 C 0.28195 0.50450 0.90683
 H543 H 0.11232 0.51606 0.94125
 H544 H 0.16392 0.51899 1.00129
 H545 H 0.20013 0.50761 0.80993
 H546 H 0.30714 0.50324 0.93197
 C547 C 0.57625 -0.00434 0.35206
 C548 C 0.54071 -0.00356 0.32315
 C549 C 0.54482 0.00895 0.27924
 C550 C 0.58768 0.01536 0.26324
 C551 C 0.62445 0.01336 0.29271
 C552 C 0.61820 0.00519 0.33798
 C553 C 0.66648 0.01826 0.27548
 N554 N 0.67126 0.02559 0.23199
 N555 N 0.63693 0.02794 0.20454
 C556 C 0.59552 0.02289 0.21865
 H557 H 0.57063 -0.01186 0.38619
 H558 H 0.50968 -0.01255 0.33621
 H559 H 0.69568 0.01546 0.29587
 H560 H 0.56938 0.02439 0.19478
 C561 C 0.80525 0.51768 0.11454
 C562 C 0.77708 0.51331 0.07813
 C563 C 0.78678 0.48331 0.04351
 C564 C 0.82463 0.45498 0.04749
 C565 C 0.85348 0.45993 0.08423
 C566 C 0.84364 0.49170 0.11776
 C567 C 0.89224 0.43359 0.08562
 N568 N 0.90066 0.40337 0.05311
 N569 N 0.87322 0.39797 0.01912
 C570 C 0.83581 0.42266 0.01524
 H571 H 0.79729 0.54188 0.14022
 H572 H 0.74781 0.53406 0.07706
 H573 H 0.91620 0.43682 0.11196
 H574 H 0.81566 0.41682 -0.01323
 C575 C 0.42625 -0.00686 0.63025
 C576 C 0.46180 -0.00616 0.65928
 C577 C 0.45633 -0.00699 0.70514
 C578 C 0.41294 -0.00645 0.72170
 C579 C 0.37651 -0.00667 0.69179
 C580 C 0.38353 -0.00723 0.64576
 C581 C 0.33406 -0.00672 0.70902
 N582 N 0.32842 -0.00601 0.75325
 N583 N 0.36235 -0.00541 0.78131
 C584 C 0.40426 -0.00557 0.76712
 H585 H 0.43216 -0.00653 0.59512
 H586 H 0.49373 -0.00416 0.64498
 H587 H 0.30534 -0.00735 0.68774
 H588 H 0.43015 -0.00543 0.79161
   
