data_POSCAR
  _audit_creation_date              2014-09-24
  _audit_creation_method            'ToBaCCo'
  _symmetry_space_group_name_H-M    'P1'
  _symmetry_Int_Tables_number       1
  _symmetry_cell_setting            triclinic
  loop_
  _symmetry_equiv_pos_as_xyz
 x,y,z
_cell_length_a 29.9355
_cell_length_b 29.9901
_cell_length_c 32.0649
_cell_angle_alpha 89.904500
_cell_angle_beta 90.037400
_cell_angle_gamma 90.072600
loop_
  _atom_site_label
  _atom_site_type_symbol
  _atom_site_fract_x
  _atom_site_fract_y
  _atom_site_fract_z
Zr1 Zr 0.23361 0.23652 0.32083
 O2 O 0.23681 0.24202 0.38666
 O3 O 0.18309 0.18899 0.33622
 O4 O 0.19914 0.28694 0.35418
 O5 O 0.32399 0.16233 0.31075
 O6 O 0.17132 0.33453 0.30502
 O7 O 0.28510 0.20581 0.35617
 O8 O 0.14221 0.18786 0.27734
 O9 O 0.18347 0.24876 0.27662
 O10 O 0.23865 0.18284 0.27905
 O11 O 0.24869 0.29959 0.29455
 O12 O 0.29891 0.23829 0.29627
 Zr13 Zr 0.26775 0.26173 0.17962
 Zr14 Zr 0.19956 0.31006 0.24858
 Zr15 Zr 0.30245 0.18715 0.25179
 Zr16 Zr 0.19100 0.19710 0.23300
 O17 O 0.37305 0.18540 0.25545
 O18 O 0.12548 0.20437 0.20842
 O19 O 0.25391 0.19845 0.20568
 O20 O 0.20243 0.25807 0.20456
 O21 O 0.26397 0.31459 0.22205
 O22 O 0.31792 0.24851 0.22350
 C23 C 0.14868 0.17681 0.31497
 C24 C 0.31557 0.17674 0.34788
 C25 C 0.17772 0.32240 0.34325
 O26 O 0.12920 0.30852 0.24275
 O27 O 0.18067 0.33958 0.19098
 O28 O 0.22380 0.30241 0.14390
 C29 C 0.19179 0.32940 0.15331
 O30 O 0.32931 0.30893 0.33169
 Zr31 Zr 0.31166 0.29900 0.26808
 O32 O 0.32191 0.30515 0.16321
 O33 O 0.21146 0.37943 0.25248
 O34 O 0.30753 0.36896 0.27762
 O35 O 0.37960 0.28165 0.27772
 O36 O 0.34975 0.33101 0.22446
 C37 C 0.34932 0.32892 0.18503
 O38 O 0.26265 0.25581 0.11391
 O39 O 0.29096 0.11755 0.24939
 O40 O 0.29296 0.20615 0.14626
 O41 O 0.32584 0.16066 0.19428
 O42 O 0.19138 0.12664 0.23835
 O43 O 0.18059 0.17186 0.17192
 C44 C 0.31564 0.17123 0.15637
 H45 H 0.23507 0.15381 0.29342
 H46 H 0.17811 0.25882 0.18378
 H47 H 0.34791 0.24694 0.21060
 H48 H 0.25101 0.32440 0.31465
 H49 H 0.11053 0.17481 0.20949
 H50 H 0.11890 0.33988 0.24407
 H51 H 0.18191 0.39416 0.25056
 H52 H 0.33822 0.38059 0.28178
 H53 H 0.15996 0.11691 0.23505
 H54 H 0.32023 0.10305 0.25419
 H55 H 0.38192 0.15371 0.25290
 H56 H 0.39689 0.30958 0.28142
 H57 H 0.20453 0.14996 0.16603
 H58 H 0.28729 0.27342 0.10127
 H59 H 0.21643 0.21931 0.39877
 H60 H 0.35164 0.33320 0.33375
 Zr61 Zr 0.76490 0.76444 0.32048
 O62 O 0.76069 0.75999 0.38636
 O63 O 0.81615 0.81153 0.33588
 O64 O 0.80020 0.71524 0.35474
 O65 O 0.67161 0.83551 0.30913
 O66 O 0.82959 0.66789 0.30637
 O67 O 0.71319 0.79552 0.35543
 O68 O 0.84915 0.82894 0.27429
 O69 O 0.81511 0.75348 0.27620
 O70 O 0.75797 0.81688 0.27777
 O71 O 0.75152 0.70059 0.29514
 O72 O 0.69955 0.76024 0.29619
 Zr73 Zr 0.73078 0.73644 0.17971
 Zr74 Zr 0.80089 0.69095 0.24932
 Zr75 Zr 0.69414 0.81058 0.25096
 Zr76 Zr 0.80537 0.80389 0.23141
 O77 O 0.62351 0.80968 0.25441
 O78 O 0.87310 0.79381 0.21401
 O79 O 0.74262 0.80053 0.20466
 O80 O 0.79615 0.74201 0.20445
 O81 O 0.73654 0.68429 0.22295
 O82 O 0.68034 0.74850 0.22349
 C83 C 0.84624 0.83124 0.31361
 C84 C 0.68100 0.82255 0.34649
 C85 C 0.82265 0.68028 0.34445
 O86 O 0.87120 0.69405 0.24372
 O87 O 0.82024 0.66141 0.19161
 O88 O 0.77533 0.69654 0.14438
 C89 C 0.80816 0.67058 0.15382
 O90 O 0.67096 0.68953 0.33251
 Zr91 Zr 0.68847 0.69885 0.26878
 O92 O 0.67800 0.69129 0.16391
 O93 O 0.79097 0.62131 0.25399
 O94 O 0.69457 0.62927 0.28002
 O95 O 0.61994 0.71419 0.27760
 O96 O 0.65222 0.66423 0.22552
 C97 C 0.65215 0.66618 0.18606
 O98 O 0.73529 0.74167 0.11390
 O99 O 0.70304 0.88057 0.24855
 O100 O 0.70441 0.79142 0.14582
 O101 O 0.67038 0.83631 0.19341
 O102 O 0.79808 0.87419 0.22833
 O103 O 0.81261 0.82209 0.16759
 C104 C 0.68111 0.82602 0.15568
 H105 H 0.76141 0.84630 0.29139
 H106 H 0.82051 0.74151 0.18373
 H107 H 0.65030 0.74889 0.21056
 H108 H 0.74982 0.67595 0.31555
 H109 H 0.88687 0.82338 0.20875
 H110 H 0.88215 0.66290 0.24505
 H111 H 0.82094 0.60744 0.25221
 H112 H 0.66423 0.61687 0.28447
 H113 H 0.82838 0.88718 0.22553
 H114 H 0.67307 0.89402 0.25211
 H115 H 0.61341 0.84094 0.25116
 H116 H 0.60349 0.68574 0.28128
 H117 H 0.83363 0.84746 0.16511
 H118 H 0.71072 0.72370 0.10161
 H119 H 0.78135 0.78248 0.39840
 H120 H 0.64871 0.66523 0.33490
 Zr121 Zr 0.76617 0.23213 -0.32089
 O122 O 0.76159 0.23562 -0.38680
 O123 O 0.81271 0.18020 -0.33546
 O124 O 0.80614 0.27652 -0.35645
 O125 O 0.66581 0.17201 -0.30755
 O126 O 0.84104 0.32165 -0.30937
 O127 O 0.71201 0.20454 -0.35516
 O128 O 0.83883 0.15503 -0.27328
 O129 O 0.81778 0.23820 -0.27712
 O130 O 0.75333 0.18219 -0.27680
 O131 O 0.76033 0.29762 -0.29687
 O132 O 0.70162 0.24437 -0.29682
 Zr133 Zr 0.73668 0.26781 -0.18063
 Zr134 Zr 0.81106 0.30272 -0.25167
 Zr135 Zr 0.69085 0.19653 -0.25006
 Zr136 Zr 0.80236 0.19061 -0.23097
 O137 O 0.62085 0.20570 -0.25353
 O138 O 0.87178 0.19567 -0.21782
 O139 O 0.74063 0.20223 -0.20422
 O140 O 0.80074 0.25387 -0.20545
 O141 O 0.74821 0.31738 -0.22546
 O142 O 0.68459 0.26050 -0.22377
 C143 C 0.83807 0.15513 -0.31277
 C144 C 0.67699 0.18169 -0.34534
 C145 C 0.83201 0.30942 -0.34710
 O146 O 0.88071 0.29241 -0.24674
 O147 O 0.83421 0.33173 -0.19493
 O148 O 0.78662 0.30265 -0.14637
 C149 C 0.82191 0.32488 -0.15681
 O150 O 0.68062 0.31411 -0.33460
 Zr151 Zr 0.69809 0.30726 -0.27057
 O152 O 0.69051 0.32026 -0.16639
 O153 O 0.80847 0.37290 -0.25769
 O154 O 0.70910 0.37476 -0.28810
 O155 O 0.62772 0.29974 -0.27449
 O156 O 0.67186 0.35129 -0.22861
 C157 C 0.67053 0.34977 -0.18916
 O158 O 0.74014 0.26411 -0.11469
 O159 O 0.69138 0.12608 -0.24563
 O160 O 0.70386 0.21687 -0.14561
 O161 O 0.66458 0.17489 -0.19213
 O162 O 0.78609 0.12226 -0.22275
 O163 O 0.81000 0.17370 -0.16688
 C164 C 0.67677 0.18467 -0.15469
 H165 H 0.75321 0.15215 -0.28959
 H166 H 0.82532 0.25212 -0.18497
 H167 H 0.65503 0.26424 -0.21037
 H168 H 0.76100 0.32180 -0.31778
 H169 H 0.88341 0.16530 -0.21227
 H170 H 0.89490 0.32221 -0.24876
 H171 H 0.83976 0.38369 -0.25656
 H172 H 0.67973 0.38863 -0.29412
 H173 H 0.81437 0.10561 -0.21885
 H174 H 0.66008 0.11601 -0.24915
 H175 H 0.60709 0.17588 -0.24991
 H176 H 0.61469 0.32988 -0.27795
 H177 H 0.83249 0.14973 -0.16396
 H178 H 0.71798 0.28537 -0.10316
 H179 H 0.78020 0.21132 -0.39858
 H180 H 0.65566 0.33550 -0.33751
 Zr181 Zr 0.23861 0.76881 -0.32060
 O182 O 0.24709 0.76818 -0.38624
 O183 O 0.19492 0.82313 -0.33673
 O184 O 0.19955 0.72638 -0.35951
 O185 O 0.33973 0.82522 -0.30096
 O186 O 0.15815 0.68434 -0.31471
 O187 O 0.29683 0.79227 -0.35066
 O188 O 0.17167 0.85276 -0.27547
 O189 O 0.18407 0.76654 -0.28013
 O190 O 0.25193 0.81712 -0.27510
 O191 O 0.23925 0.70291 -0.29715
 O192 O 0.30033 0.75164 -0.29255
 Zr193 Zr 0.25570 0.72915 -0.17838
 Zr194 Zr 0.18507 0.70160 -0.25570
 Zr195 Zr 0.31134 0.79832 -0.24504
 Zr196 Zr 0.19975 0.81171 -0.23201
 O197 O 0.38037 0.78347 -0.24694
 O198 O 0.12920 0.81004 -0.22503
 O199 O 0.25835 0.79507 -0.20202
 O200 O 0.19519 0.74808 -0.20726
 O201 O 0.24381 0.68148 -0.22497
 O202 O 0.31154 0.73389 -0.21840
 C203 C 0.17191 0.85132 -0.31498
 C204 C 0.33099 0.81552 -0.33944
 C205 C 0.17084 0.69527 -0.35173
 O206 O 0.11614 0.71709 -0.25714
 O207 O 0.15373 0.67642 -0.20243
 O208 O 0.20327 0.68932 -0.14974
 C209 C 0.16492 0.67513 -0.16375
 O210 O 0.32642 0.67635 -0.32559
 Zr211 Zr 0.29808 0.68815 -0.26592
 O212 O 0.30167 0.67801 -0.16131
 O213 O 0.18321 0.63132 -0.26084
 O214 O 0.28765 0.62329 -0.29068
 O215 O 0.36846 0.68634 -0.25893
 O216 O 0.30508 0.63890 -0.22115
 C217 C 0.31438 0.64409 -0.18284
 O218 O 0.24249 0.73410 -0.11372
 O219 O 0.31594 0.86835 -0.23794
 O220 O 0.28875 0.77856 -0.14114
 O221 O 0.33524 0.81658 -0.18513
 O222 O 0.22080 0.87801 -0.21973
 O223 O 0.18731 0.82836 -0.16859
 C224 C 0.31944 0.80820 -0.14848
 H225 H 0.25502 0.84730 -0.28735
 H226 H 0.17015 0.75064 -0.18737
 H227 H 0.33996 0.72892 -0.20328
 H228 H 0.23884 0.67903 -0.31827
 H229 H 0.11854 0.84102 -0.22107
 H230 H 0.09978 0.68848 -0.25999
 H231 H 0.15128 0.62267 -0.26220
 H232 H 0.31628 0.60671 -0.28882
 H233 H 0.19382 0.89694 -0.21706
 H234 H 0.34807 0.87614 -0.23956
 H235 H 0.39623 0.81171 -0.24077
 H236 H 0.37719 0.65463 -0.26170
 H237 H 0.16424 0.85193 -0.16721
 H238 H 0.26294 0.71297 -0.09943
 H239 H 0.23045 0.79386 -0.39807
 H240 H 0.34682 0.70145 -0.33211
 Zr241 Zr 1.26640 1.26337 0.82114
 O242 O 1.26328 1.25772 0.88699
 O243 O 1.31701 1.31058 0.83666
 O244 O 1.30042 1.21285 0.85461
 O245 O 1.17755 1.33916 0.81064
 O246 O 1.32752 1.16476 0.80565
 O247 O 1.21455 1.29399 0.85606
 O248 O 1.35844 1.31038 0.77822
 O249 O 1.31649 1.25052 0.77704
 O250 O 1.26229 1.31723 0.77934
 O251 O 1.25078 1.20053 0.79479
 O252 O 1.20121 1.26238 0.79649
 Zr253 Zr 1.23216 1.23920 0.67989
 Zr254 Zr 1.29979 1.18956 0.74885
 Zr255 Zr 1.19852 1.31372 0.75207
 Zr256 Zr 1.30984 1.30242 0.73343
 O257 O 1.12797 1.31634 0.75611
 O258 O 1.37524 1.29403 0.70900
 O259 O 1.24691 1.30212 0.70602
 O260 O 1.29755 1.24179 0.70485
 O261 O 1.23531 1.18604 0.72226
 O262 O 1.18220 1.25274 0.72375
 C263 C 1.35169 1.32214 0.81556
 C264 C 1.18494 1.32395 0.84765
 C265 C 1.32136 1.17715 0.84385
 O266 O 1.37016 1.19003 0.74318
 O267 O 1.31827 1.16028 0.69093
 O268 O 1.27527 1.19812 0.64402
 C269 C 1.30697 1.17068 0.65325
 O270 O 1.17009 1.19182 0.83184
 Zr271 Zr 1.18783 1.20196 0.76827
 O272 O 1.17767 1.19634 0.66342
 O273 O 1.28717 1.12029 0.75266
 O274 O 1.19129 1.13188 0.77745
 O275 O 1.12013 1.21996 0.77814
 O276 O 1.14907 1.17106 0.72463
 C277 C 1.14985 1.17298 0.68521
 O278 O 1.23719 1.24566 0.61422
 O279 O 1.21108 1.38313 0.74911
 O280 O 1.20755 1.29547 0.64683
 O281 O 1.17479 1.34049 0.69506
 O282 O 1.31082 1.37285 0.73878
 O283 O 1.32099 1.32812 0.67256
 C284 C 1.18500 1.33035 0.65721
 H285 H 1.26612 1.34626 0.79359
 H286 H 1.32178 1.24081 0.68403
 H287 H 1.15221 1.25479 0.71085
 H288 H 1.24817 1.17570 0.81493
 H289 H 1.39089 1.32319 0.71057
 H290 H 1.37993 1.15849 0.74448
 H291 H 1.31659 1.10532 0.75079
 H292 H 1.16047 1.12050 0.78134
 H293 H 1.34245 1.38196 0.73561
 H294 H 1.18210 1.39813 0.75401
 H295 H 1.11943 1.34814 0.75355
 H296 H 1.10257 1.19220 0.78199
 H297 H 1.29681 1.34963 0.66625
 H298 H 1.21223 1.22855 0.60153
 H299 H 1.28318 1.28082 0.89910
 H300 H 1.14804 1.16731 0.83387
 Zr301 Zr 0.73380 0.73619 0.81990
 O302 O 0.73704 0.74007 0.88585
 O303 O 0.68186 0.68955 0.83431
 O304 O 0.69858 0.78567 0.85383
 O305 O 0.82666 0.66461 0.80976
 O306 O 0.67014 0.83332 0.80511
 O307 O 0.78414 0.70409 0.85558
 O308 O 0.64992 0.67216 0.77224
 O309 O 0.68435 0.74775 0.77502
 O310 O 0.74104 0.68397 0.77709
 O311 O 0.74829 0.80006 0.79514
 O312 O 0.79958 0.73989 0.79650
 Zr313 Zr 0.77024 0.76514 0.67981
 Zr314 Zr 0.69968 0.81036 0.74874
 Zr315 Zr 0.80530 0.68989 0.75109
 Zr316 Zr 0.69444 0.69761 0.73015
 O317 O 0.87587 0.68998 0.75548
 O318 O 0.62699 0.70829 0.71201
 O319 O 0.75757 0.70083 0.70420
 O320 O 0.70456 0.75967 0.70373
 O321 O 0.76442 0.81691 0.72323
 O322 O 0.81997 0.75212 0.72418
 C323 C 0.65211 0.66993 0.81162
 C324 C 0.81638 0.67710 0.84705
 C325 C 0.67657 0.82087 0.84322
 O326 O 0.62943 0.80788 0.74213
 O327 O 0.68125 0.84062 0.69133
 O328 O 0.72606 0.80550 0.64421
 C329 C 0.69321 0.83142 0.65366
 O330 O 0.82827 0.81012 0.83365
 Zr331 Zr 0.81173 0.80143 0.76962
 O332 O 0.82391 0.80976 0.66515
 O333 O 0.71021 0.87987 0.75388
 O334 O 0.80608 0.87101 0.78081
 O335 O 0.87987 0.78513 0.77963
 O336 O 0.84940 0.83582 0.72720
 C337 C 0.85004 0.83409 0.68775
 O338 O 0.76672 0.76108 0.61388
 O339 O 0.79591 0.61999 0.74831
 O340 O 0.79653 0.71048 0.64580
 O341 O 0.82956 0.66465 0.69341
 O342 O 0.70155 0.62732 0.72674
 O343 O 0.68786 0.68020 0.66613
 C344 C 0.81949 0.67563 0.65558
 H345 H 0.73717 0.65448 0.79057
 H346 H 0.68039 0.76044 0.68279
 H347 H 0.85020 0.75150 0.71169
 H348 H 0.74993 0.82457 0.81562
 H349 H 0.61315 0.67887 0.70624
 H350 H 0.61866 0.83909 0.74342
 H351 H 0.68042 0.89409 0.75178
 H352 H 0.83644 0.88310 0.78585
 H353 H 0.67126 0.61445 0.72341
 H354 H 0.82573 0.60633 0.75226
 H355 H 0.88566 0.65864 0.75218
 H356 H 0.89660 0.81332 0.78384
 H357 H 0.66691 0.65483 0.66325
 H358 H 0.79158 0.77910 0.60216
 H359 H 0.71560 0.71806 0.89750
 H360 H 0.85049 0.83438 0.83648
 Zr361 Zr 1.26566 0.73176 0.17975
 O362 O 1.26090 0.73558 0.11386
 O363 O 1.31110 0.67912 0.16489
 O364 O 1.30626 0.77514 0.14410
 O365 O 1.16496 0.67264 0.19331
 O366 O 1.34173 0.82016 0.19092
 O367 O 1.21117 0.70497 0.14563
 O368 O 1.33714 0.65338 0.22689
 O369 O 1.31760 0.73713 0.22325
 O370 O 1.25236 0.68197 0.22379
 O371 O 1.26089 0.79734 0.20373
 O372 O 1.20131 0.74489 0.20379
 Zr373 Zr 1.23702 0.76779 0.31961
 Zr374 Zr 1.31185 0.80173 0.24877
 Zr375 Zr 1.19016 0.69718 0.25057
 Zr376 Zr 1.30173 0.68974 0.26940
 O377 O 1.12027 0.70718 0.24713
 O378 O 1.37129 0.69435 0.28201
 O379 O 1.24022 0.70223 0.29612
 O380 O 1.30092 0.75299 0.29495
 O381 O 1.24924 0.81724 0.27489
 O382 O 1.18464 0.76123 0.27677
 C383 C 1.33606 0.65354 0.18741
 C384 C 1.17610 0.68234 0.15556
 C385 C 1.33240 0.80781 0.15328
 O386 O 1.38142 0.79076 0.25349
 O387 O 1.33528 0.83015 0.30576
 O388 O 1.28681 0.80197 0.35399
 C389 C 1.32248 0.82348 0.34380
 O390 O 1.18134 0.81385 0.16587
 Zr391 Zr 1.19879 0.80783 0.22998
 O392 O 1.19123 0.82035 0.33388
 O393 O 1.31023 0.87195 0.24285
 O394 O 1.20896 0.87485 0.21051
 O395 O 1.12820 0.80173 0.22781
 O396 O 1.17563 0.85357 0.27197
 C397 C 1.17294 0.85104 0.31131
 O398 O 1.24019 0.76443 0.38560
 O399 O 1.18969 0.62675 0.25525
 O400 O 1.20456 0.71712 0.35478
 O401 O 1.16392 0.67612 0.30859
 O402 O 1.28483 0.62161 0.27802
 O403 O 1.30940 0.67264 0.33343
 C404 C 1.17691 0.68547 0.34586
 H405 H 1.25173 0.65193 0.21105
 H406 H 1.32541 0.75090 0.31550
 H407 H 1.15521 0.76527 0.29034
 H408 H 1.26184 0.82149 0.18280
 H409 H 1.38278 0.66386 0.28726
 H410 H 1.39584 0.82046 0.25157
 H411 H 1.34166 0.88228 0.24403
 H412 H 1.17935 0.88826 0.20459
 H413 H 1.31295 0.60471 0.28200
 H414 H 1.15823 0.61709 0.25190
 H415 H 1.10616 0.67755 0.25093
 H416 H 1.11584 0.83218 0.22457
 H417 H 1.33241 0.64918 0.33633
 H418 H 1.21797 0.78569 0.39704
 H419 H 1.27893 0.71093 0.10191
 H420 H 1.15455 0.83293 0.16298
 Zr421 Zr 0.73791 1.26489 0.18028
 O422 O 0.74489 1.25943 0.11471
 O423 O 0.69263 1.31719 0.16314
 O424 O 0.69809 1.22015 0.14471
 O425 O 0.83818 1.32507 0.19536
 O426 O 0.66123 1.17653 0.19184
 O427 O 0.79331 1.29174 0.14713
 O428 O 0.66580 1.34425 0.22424
 O429 O 0.68493 1.26033 0.22277
 O430 O 0.75017 1.31542 0.22383
 O431 O 0.74233 1.19985 0.20573
 O432 O 0.80138 1.25229 0.20659
 Zr433 Zr 0.76334 1.23186 0.32186
 Zr434 Zr 0.69011 1.19626 0.24973
 Zr435 Zr 0.81174 1.30105 0.25250
 Zr436 Zr 0.69968 1.30851 0.26842
 O437 O 0.88158 1.29047 0.25003
 O438 O 0.62979 1.30376 0.27917
 O439 O 0.76055 1.29695 0.29700
 O440 O 0.70001 1.24578 0.29532
 O441 O 0.75174 1.18147 0.27788
 O442 O 0.81705 1.23754 0.28013
 C443 C 0.66748 1.34341 0.18477
 C444 C 0.82798 1.31490 0.15747
 C445 C 0.67137 1.18783 0.15409
 O446 O 0.62046 1.20720 0.25316
 O447 O 0.66568 1.16852 0.30680
 O448 O 0.71324 1.19723 0.35558
 C449 C 0.67788 1.17539 0.34501
 O450 O 0.82918 1.17989 0.17326
 Zr451 Zr 0.80352 1.18963 0.23429
 O452 O 0.81078 1.18128 0.33771
 O453 O 0.69235 1.12600 0.24477
 O454 O 0.79736 1.12412 0.20978
 O455 O 0.87405 1.19088 0.24002
 O456 O 0.81300 1.14091 0.27865
 C457 C 0.82302 1.14687 0.31660
 O458 O 0.75777 1.23558 0.38767
 O459 O 0.81238 1.37155 0.25589
 O460 O 0.79403 1.28364 0.35696
 O461 O 0.83652 1.32321 0.31106
 O462 O 0.71622 1.37680 0.27633
 O463 O 0.68976 1.32680 0.33183
 C464 C 0.82251 1.31468 0.34829
 H465 H 0.75107 1.34526 0.21059
 H466 H 0.67511 1.24795 0.31540
 H467 H 0.84605 1.23433 0.29470
 H468 H 0.74200 1.17545 0.18512
 H469 H 0.61794 1.33431 0.28313
 H470 H 0.60611 1.17745 0.25155
 H471 H 0.66100 1.11541 0.24606
 H472 H 0.82722 1.10979 0.21080
 H473 H 0.68797 1.39373 0.27924
 H474 H 0.84400 1.38101 0.25351
 H475 H 0.89583 1.31988 0.25466
 H476 H 0.88416 1.15970 0.23646
 H477 H 0.66649 1.35013 0.33356
 H478 H 0.78056 1.21543 0.39996
 H479 H 0.72680 1.28345 0.10167
 H480 H 0.85091 1.20408 0.16749
 O481 O 0.55658 1.08178 0.07442
 O482 O 0.60935 1.04461 0.03581
 C483 C 0.59744 1.07423 0.06373
 O484 O 0.44305 0.91595 0.07440
 O485 O 0.38990 0.95192 0.03501
 C486 C 0.40228 0.92232 0.06277
 O487 O 0.56415 0.92499 0.07660
 O488 O 0.61350 0.96345 0.03508
 C489 C 0.60420 0.93487 0.06466
 O490 O 0.43544 1.07899 0.07155
 O491 O 0.38569 1.03623 0.03439
 C492 C 0.39526 1.06743 0.06148
 Zr493 Zr 0.49720 1.05479 0.05100
 O494 O 0.49705 1.04725 0.11657
 O495 O 0.49314 1.12513 0.05522
 Zr496 Zr 0.50211 0.94467 0.05260
 O497 O 0.49795 0.94839 0.11849
 O498 O 0.50975 0.87450 0.05467
 O499 O 0.54066 1.00168 0.05968
 O500 O 0.45959 0.99813 0.05937
 O501 O 0.43600 1.07665 -0.07611
 O502 O 0.38617 1.03649 -0.03641
 C503 C 0.39592 1.06669 -0.06459
 O504 O 0.56187 0.92239 -0.07762
 O505 O 0.61210 0.96260 -0.03852
 C506 C 0.60211 0.93277 -0.06688
 O507 O 0.44082 0.91280 -0.07219
 O508 O 0.38861 0.95136 -0.03421
 C509 C 0.40006 0.92014 -0.06062
 O510 O 0.55775 1.07912 -0.07807
 O511 O 0.61007 1.04382 -0.03725
 C512 C 0.59857 1.07236 -0.06617
 Zr513 Zr 0.49747 1.05334 -0.05435
 O514 O 0.50110 1.04972 -0.12033
 O515 O 0.49695 1.12394 -0.05572
 Zr516 Zr 0.50088 0.94284 -0.05263
 O517 O 0.49542 0.94455 -0.11850
 O518 O 0.50872 0.87266 -0.05243
 Zr519 Zr 0.56750 1.00176 -0.00111
 Zr520 Zr 0.43132 0.99609 -0.00061
 O521 O 0.45902 0.99643 -0.06080
 O522 O 0.53997 0.99951 -0.06163
 O523 O 0.45719 1.06153 -0.00175
 O524 O 0.54066 0.93682 -0.00018
 O525 O 0.53574 1.06424 -0.00183
 O526 O 0.46215 0.93297 0.00041
 H527 H 0.43938 0.99749 0.08384
 H528 H 0.56095 0.91075 -0.00001
 H529 H 0.43807 0.99465 -0.08465
 H530 H 0.55403 1.09175 -0.00224
 H531 H 0.48654 0.86127 0.03654
 H532 H 0.48603 0.86003 -0.03337
 H533 H 0.51861 0.96516 -0.12915
 H534 H 0.47310 1.03666 -0.13126
 H535 H 0.47478 1.13416 -0.03495
 H536 H 0.50745 1.13791 0.03016
 H537 H 0.49436 1.07766 0.12836
 H538 H 0.52290 0.96725 0.12848
 O539 O 1.05902 0.58386 0.57401
 O540 O 1.11154 0.54776 0.53422
 C541 C 1.09972 0.57737 0.56214
 O542 O 0.94449 0.41747 0.57437
 O543 O 0.89151 0.45404 0.53526
 C544 C 0.90372 0.42410 0.56283
 O545 O 1.06559 0.42646 0.57695
 O546 O 1.11496 0.46632 0.53668
 C547 C 1.10568 0.43720 0.56575
 O548 O 0.93773 0.58109 0.57217
 O549 O 0.88770 0.53878 0.53487
 C550 C 0.89750 0.56993 0.56191
 Zr551 Zr 0.99930 0.55656 0.55166
 O552 O 0.99949 0.54853 0.61715
 O553 O 0.99569 0.62684 0.55673
 Zr554 Zr 1.00363 0.44630 0.55268
 O555 O 0.99930 0.44931 0.61859
 O556 O 1.01109 0.37609 0.55395
 O557 O 1.04248 0.50322 0.56013
 O558 O 0.96141 0.50000 0.55979
 O559 O 0.93798 0.57946 0.42458
 O560 O 0.88804 0.53952 0.46430
 C561 C 0.89787 0.56980 0.43618
 O562 O 1.06326 0.42468 0.42224
 O563 O 1.11363 0.46404 0.46192
 C564 C 1.10354 0.43460 0.43322
 O565 O 0.94217 0.41675 0.42707
 O566 O 0.89010 0.45496 0.46559
 C567 C 0.90146 0.42449 0.43848
 O568 O 1.05949 0.58072 0.42238
 O569 O 1.11181 0.54399 0.46201
 C570 C 1.10029 0.57302 0.43367
 Zr571 Zr 0.99924 0.55572 0.44640
 O572 O 1.00266 0.55308 0.38036
 O573 O 0.99922 0.62636 0.44573
 Zr574 Zr 1.00247 0.44518 0.44757
 O575 O 0.99751 0.44629 0.38168
 O576 O 1.00974 0.37491 0.44860
 Zr577 Zr 1.06925 0.50353 0.49930
 Zr578 Zr 0.93307 0.49851 0.49983
 O579 O 0.96081 0.49902 0.43967
 O580 O 1.04156 0.50175 0.43884
 O581 O 0.95917 0.56383 0.49905
 O582 O 1.04234 0.43867 0.49997
 O583 O 1.03765 0.56615 0.49873
 O584 O 0.96352 0.43518 0.50045
 H585 H 0.94115 0.49932 0.58423
 H586 H 1.06275 0.41269 0.50020
 H587 H 0.93999 0.49774 0.41569
 H588 H 1.05575 0.59378 0.49785
 H589 H 0.98798 0.36319 0.53550
 H590 H 0.98494 0.36239 0.46531
 H591 H 1.01946 0.46830 0.37116
 H592 H 0.97504 0.53933 0.36933
 H593 H 0.97630 0.63655 0.46580
 H594 H 1.00825 0.63972 0.53091
 H595 H 0.99729 0.57890 0.62910
 H596 H 1.02399 0.46840 0.62876
 O597 O 0.92547 0.43868 -0.07724
 O598 O 0.96431 0.38840 -0.03711
 C599 C 0.93506 0.39847 -0.06615
 O600 O 1.08714 0.56516 -0.06443
 O601 O 1.03751 0.61389 -0.03449
 C602 C 1.07159 0.60487 -0.05868
 O603 O 1.08374 0.44333 -0.07261
 O604 O 1.04512 0.39060 -0.03504
 C605 C 1.07514 0.40241 -0.06241
 O606 O 0.91754 0.55901 -0.07215
 O607 O 0.95477 0.61123 -0.03295
 C608 C 0.92490 0.59965 -0.06063
 Zr609 Zr 0.94704 0.49922 -0.05239
 O610 O 0.95757 0.50139 -0.11754
 O611 O 0.87689 0.49627 -0.06001
 Zr612 Zr 1.05747 0.50361 -0.04968
 O613 O 1.05277 0.51005 -0.11538
 O614 O 1.12783 0.50216 -0.05486
 O615 O 1.00399 0.46054 -0.05931
 O616 O 1.00077 0.54152 -0.05838
 O617 O 0.91459 0.55670 0.07409
 O618 O 0.95254 0.60993 0.03650
 C619 C 0.92180 0.59753 0.06324
 O620 O 1.08044 0.44282 0.07924
 O621 O 1.04634 0.39064 0.03745
 C622 C 1.07466 0.40229 0.06666
 O623 O 1.07747 0.56443 0.07729
 O624 O 1.03724 0.61404 0.03759
 C625 C 1.06742 0.60447 0.06560
 O626 O 0.92351 0.43593 0.07680
 O627 O 0.96464 0.38689 0.03755
 C628 C 0.93466 0.39596 0.06596
 Zr629 Zr 0.94416 0.49773 0.05296
 O630 O 0.94893 0.49909 0.11876
 O631 O 0.87371 0.49121 0.05307
 Zr632 Zr 1.05469 0.50262 0.05544
 O633 O 1.04980 0.50571 0.12129
 O634 O 1.12541 0.50182 0.05795
 Zr635 Zr 1.00334 0.43273 0.00124
 Zr636 Zr 0.99792 0.56866 0.00200
 O637 O 0.99753 0.54006 0.06187
 O638 O 1.00092 0.45924 0.06200
 O639 O 0.93476 0.53760 0.00039
 O640 O 1.06607 0.46477 0.00278
 O641 O 0.93846 0.45935 -0.00010
 O642 O 1.06358 0.54321 0.00340
 H643 H 1.00046 0.56230 -0.08245
 H644 H 1.09395 0.44702 0.00301
 H645 H 0.99606 0.56013 0.08636
 H646 H 0.91247 0.43890 -0.00037
 H647 H 1.13985 0.50499 -0.02631
 H648 H 1.13653 0.52686 0.04068
 H649 H 1.03216 0.47965 0.13074
 H650 H 0.91794 0.49765 0.12956
 H651 H 0.86171 0.51321 0.03295
 H652 H 0.86408 0.48632 -0.03320
 H653 H 0.92755 0.50242 -0.13055
 H654 H 1.04173 0.48135 -0.12663
 O655 O 0.42173 0.93586 0.42696
 O656 O 0.46189 0.88582 0.46628
 C657 C 0.43231 0.89576 0.43755
 O658 O 0.57723 1.06085 0.42684
 O659 O 0.53755 1.11109 0.46618
 C660 C 0.56762 1.10101 0.43796
 O661 O 0.57801 0.93989 0.42561
 O662 O 0.54189 0.88789 0.46609
 C663 C 0.57045 0.89921 0.43714
 O664 O 0.41384 1.05668 0.43092
 O665 O 0.45323 1.10918 0.46798
 C666 C 0.42238 1.09750 0.44126
 Zr667 Zr 0.44283 0.99674 0.45127
 O668 O 0.44886 0.99799 0.38557
 O669 O 0.37206 0.99613 0.44886
 Zr670 Zr 0.55337 1.00017 0.44961
 O671 O 0.54909 1.00357 0.38370
 O672 O 0.62408 0.99836 0.44800
 O673 O 0.49926 0.95762 0.44271
 O674 O 0.49661 1.03834 0.44275
 O675 O 0.41492 1.05578 0.57664
 O676 O 0.45206 1.10839 0.53752
 C677 C 0.42168 1.09641 0.56482
 O678 O 0.58115 0.94180 0.57887
 O679 O 0.54553 0.88898 0.53893
 C680 C 0.57475 0.90110 0.56717
 O681 O 0.57912 1.06293 0.57547
 O682 O 0.53740 1.11232 0.53689
 C683 C 0.56853 1.10293 0.56415
 O684 O 0.42528 0.93503 0.58261
 O685 O 0.46416 0.88555 0.54183
 C686 C 0.43565 0.89491 0.57146
 Zr687 Zr 0.44459 0.99649 0.55644
 O688 O 0.45175 0.99961 0.62199
 O689 O 0.37423 0.98996 0.55875
 Zr690 Zr 0.55515 1.00118 0.55478
 O691 O 0.55327 1.00547 0.62070
 O692 O 0.62589 0.99963 0.55437
 Zr693 Zr 0.50141 0.93059 0.50343
 Zr694 Zr 0.49668 1.06661 0.50262
 O695 O 0.49835 1.03890 0.56283
 O696 O 0.50161 0.95805 0.56386
 O697 O 0.43335 1.03590 0.50384
 O698 O 0.56419 0.96234 0.50229
 O699 O 0.43655 0.95720 0.50414
 O700 O 0.56211 1.04084 0.50178
 H701 H 0.49544 1.05845 0.41821
 H702 H 0.59193 0.94438 0.50174
 H703 H 0.49768 1.05942 0.58702
 H704 H 0.41099 0.93627 0.50505
 H705 H 0.63528 1.02262 0.46606
 H706 H 0.63642 1.02428 0.53634
 H707 H 0.53508 0.98025 0.63119
 H708 H 0.42114 0.99869 0.63376
 H709 H 0.36206 1.00722 0.53500
 H710 H 0.36095 0.97296 0.46822
 H711 H 0.41803 0.99864 0.37428
 H712 H 0.53120 0.97779 0.37404
 O713 O 1.07190 1.08890 0.55546
 O714 O 1.03619 1.04254 0.60172
 C715 C 1.06121 1.07651 0.59280
 O716 O 0.91306 1.06905 0.44207
 O717 O 0.95763 1.03203 0.39533
 C718 C 0.92437 1.05787 0.40460
 O719 O 0.91870 1.07347 0.55771
 O720 O 0.96348 1.03425 0.60275
 C721 C 0.93198 1.06263 0.59475
 O722 O 1.07515 1.08484 0.43987
 O723 O 1.03456 1.04177 0.39449
 C724 C 1.06278 1.07333 0.40278
 Zr725 Zr 1.05319 1.06121 0.49784
 O726 O 1.04887 1.13150 0.49356
 O727 O 1.12377 1.06339 0.49893
 Zr728 Zr 0.94081 1.04999 0.49955
 O729 O 0.93284 1.11998 0.49493
 O730 O 0.87081 1.04187 0.50552
 O731 O 0.99676 1.06443 0.53555
 O732 O 0.99546 1.06402 0.46269
 O733 O 1.09128 0.93111 0.44015
 O734 O 1.04429 0.96746 0.39499
 C735 C 1.07821 0.94204 0.40313
 O736 O 0.93392 0.91146 0.55780
 O737 O 0.97162 0.95753 0.60281
 C738 C 0.94528 0.92430 0.59483
 O739 O 0.92739 0.91480 0.44213
 O740 O 0.96620 0.95851 0.39583
 C741 C 0.93812 0.92702 0.40475
 O742 O 1.09002 0.92657 0.55505
 O743 O 1.04605 0.96514 0.60105
 C744 C 1.07808 0.93760 0.59237
 Zr745 Zr 1.06431 0.94942 0.49782
 O746 O 1.06993 0.87921 0.49315
 O747 O 1.13457 0.95679 0.50057
 Zr748 Zr 0.95219 0.93793 0.49948
 O749 O 0.96100 0.86807 0.49460
 O750 O 0.88224 0.92947 0.50511
 Zr751 Zr 1.00366 0.99971 0.56017
 Zr752 Zr 1.00130 0.99995 0.43687
 O753 O 1.00843 0.93568 0.46234
 O754 O 1.00978 0.93489 0.53584
 O755 O 1.06657 1.00633 0.46048
 O756 O 0.93888 0.99315 0.53568
 O757 O 1.06758 1.00627 0.53399
 O758 O 0.93693 0.99314 0.46260
 H759 H 0.99235 1.09024 0.44406
 H760 H 0.91312 0.99064 0.55493
 H761 H 1.01087 0.90975 0.44336
 H762 H 1.09389 1.00923 0.55256
 H763 H 0.86021 1.02466 0.48114
 H764 H 0.86799 0.94913 0.48420
 H765 H 0.97805 0.85805 0.51933
 H766 H 1.05432 0.86598 0.51737
 H767 H 1.14273 0.98132 0.48134
 H768 H 1.13205 1.09539 0.49906
 H769 H 1.02649 1.14132 0.51425
 H770 H 0.95142 1.13376 0.51694
 O771 O 0.57362 0.58403 -0.06044
 O772 O 0.53236 0.54216 -0.10628
 C773 C 0.56129 0.57296 -0.09767
 O774 O 0.58516 0.42497 0.05389
 O775 O 0.54150 0.46360 0.10008
 C776 C 0.57296 0.43552 0.09129
 O777 O 0.58748 0.43037 -0.06121
 O778 O 0.54162 0.46784 -0.10662
 C779 C 0.57504 0.44177 -0.09829
 O780 O 0.57030 0.58652 0.05537
 O781 O 0.53360 0.54013 0.10101
 C782 C 0.55974 0.57342 0.09261
 Zr783 Zr 0.54960 0.56117 -0.00276
 O784 O 0.61905 0.57443 -0.00279
 O785 O 0.53559 0.63020 -0.00347
 Zr786 Zr 0.56070 0.44897 -0.00352
 O787 O 0.63096 0.45638 -0.00007
 O788 O 0.56709 0.37888 -0.00876
 O789 O 0.56353 0.50630 -0.04022
 O790 O 0.56403 0.50547 0.03282
 O791 O 0.41565 0.57304 0.05686
 O792 O 0.45997 0.53291 0.10162
 C793 C 0.42866 0.56151 0.09384
 O794 O 0.42515 0.41522 -0.06060
 O795 O 0.46428 0.45895 -0.10662
 C796 C 0.43654 0.42714 -0.09788
 O797 O 0.42986 0.40997 0.05455
 O798 O 0.46740 0.45528 0.10020
 C799 C 0.44138 0.42197 0.09170
 O800 O 0.40899 0.56950 -0.05827
 O801 O 0.45347 0.53283 -0.10523
 C802 C 0.41987 0.55826 -0.09579
 Zr803 Zr 0.43794 0.55023 -0.00152
 O804 O 0.36777 0.54376 0.00427
 O805 O 0.43232 0.62051 -0.00523
 Zr806 Zr 0.44841 0.43822 -0.00276
 O807 O 0.37810 0.43251 0.00255
 O808 O 0.45465 0.36813 -0.00814
 Zr809 Zr 0.49846 0.50021 -0.06470
 Zr810 Zr 0.50010 0.49873 0.05894
 O811 O 0.43540 0.49297 0.03410
 O812 O 0.43391 0.49373 -0.03920
 O813 O 0.49355 0.56386 0.03518
 O814 O 0.50503 0.43581 -0.03936
 O815 O 0.49250 0.56419 -0.03868
 O816 O 0.50584 0.43427 0.03381
 H817 H 0.59027 0.50755 0.05154
 H818 H 0.50761 0.40978 -0.05820
 H819 H 0.40958 0.49028 0.05327
 H820 H 0.48950 0.59025 -0.05753
 H821 H 0.55027 0.36522 0.01453
 H822 H 0.47484 0.35792 0.01435
 H823 H 0.36459 0.44788 -0.02168
 H824 H 0.35752 0.52326 -0.01789
 H825 H 0.45229 0.63334 0.01625
 H826 H 0.56493 0.64549 -0.00417
 H827 H 0.63426 0.54686 0.00623
 H828 H 0.64007 0.47691 -0.02273
 N829 N 0.32302 1.10526 0.06346
 N830 N 0.30211 1.13469 0.08739
 C831 C 0.32702 1.14013 0.12220
 C832 C 0.36377 1.11274 0.11890
 N833 N 0.36011 1.09154 0.08187
 H834 H 0.39168 1.11025 0.14028
 N835 N 0.82667 0.61014 0.56250
 N836 N 0.80646 0.64043 0.58598
 C837 C 0.83077 0.64479 0.62128
 C838 C 0.86627 0.61578 0.61883
 N839 N 0.86258 0.59474 0.58176
 H840 H 0.89346 0.61202 0.64085
 N841 N 0.67425 0.89368 0.06386
 N842 N 0.69394 0.86213 0.08637
 C843 C 0.67014 0.85764 0.12191
 C844 C 0.63572 0.88800 0.12073
 N845 N 0.63933 0.90988 0.08405
 H846 H 0.60905 0.89193 0.14323
 N847 N 1.17734 0.39880 0.56602
 N848 N 1.19803 0.36807 0.58873
 C849 C 1.17367 0.36218 0.62375
 C850 C 1.13772 0.39069 0.62201
 N851 N 1.14111 0.41298 0.58553
 H852 H 1.11032 0.39309 0.64393
 N853 N 0.66741 1.11587 -0.06378
 N854 N 0.68735 1.14803 -0.08535
 C855 C 0.66332 1.15430 -0.12052
 C856 C 0.62825 1.12430 -0.12003
 N857 N 0.63200 1.10089 -0.08417
 H858 H 0.60203 1.12051 -0.14303
 N859 N 1.16926 0.61593 0.43594
 N860 N 1.18876 0.64848 0.41459
 C861 C 1.16417 0.65498 0.37980
 C862 C 1.12944 0.62485 0.38013
 N863 N 1.13379 0.60105 0.41558
 H864 H 1.10294 0.62130 0.35736
 N865 N 0.33005 0.87754 -0.05768
 N866 N 0.30926 0.84575 -0.07910
 C867 C 0.33370 0.83778 -0.11371
 C868 C 0.37002 0.86640 -0.11287
 N869 N 0.36652 0.89071 -0.07756
 H870 H 0.39650 0.86920 -0.13572
 N871 N 0.83140 0.38259 0.43973
 N872 N 0.81095 0.35140 0.41739
 C873 C 0.83558 0.34488 0.38263
 C874 C 0.87161 0.37355 0.38423
 N875 N 0.86779 0.39651 0.42025
 H876 H 0.89848 0.37677 0.36184
 N877 N 1.12363 0.33771 0.06193
 N878 N 1.15777 0.32031 0.08275
 C879 C 1.16165 0.34300 0.11895
 C880 C 1.12783 0.37427 0.11994
 N881 N 1.10474 0.36987 0.08391
 H882 H 1.12118 0.39850 0.14414
 N883 N 0.62556 0.83819 0.56199
 N884 N 0.66033 0.82199 0.58274
 C885 C 0.66299 0.84431 0.61924
 C886 C 0.62779 0.87391 0.62053
 N887 N 0.60510 0.86904 0.58437
 H888 H 0.62001 0.89752 0.64499
 N889 N 1.06349 0.64932 -0.11916
 N890 N 1.08854 0.66354 -0.15033
 C891 C 1.13160 0.66211 -0.13788
 C892 C 1.13171 0.64648 -0.09687
 N893 N 1.08820 0.63858 -0.08650
 H894 H 1.16048 0.63716 -0.07834
 N895 N 0.61276 1.16856 0.43864
 N896 N 0.64478 1.18682 0.41563
 C897 C 0.64690 1.16382 0.37946
 C898 C 0.61431 1.13131 0.38085
 N899 N 0.59368 1.13529 0.41826
 H900 H 0.60787 1.10564 0.35790
 N901 N 0.87278 0.66228 0.06016
 N902 N 0.83983 0.67986 0.08237
 C903 C 0.83753 0.65720 0.11880
 C904 C 0.87101 0.62557 0.11838
 N905 N 0.89234 0.62988 0.08138
 H906 H 0.87856 0.60112 0.14225
 N907 N 0.37282 1.16129 0.56043
 N908 N 0.33950 1.17918 0.58196
 C909 C 0.33632 1.15669 0.61842
 C910 C 0.36967 1.12490 0.61874
 N911 N 0.39181 1.12892 0.58215
 H912 H 0.37673 1.10069 0.64294
 N913 N 0.88909 0.33155 -0.06429
 N914 N 0.85600 0.31382 -0.08635
 C915 C 0.85322 0.33671 -0.12259
 C916 C 0.88667 0.36849 -0.12226
 N917 N 0.90840 0.36427 -0.08537
 H918 H 0.89305 0.39382 -0.14562
 N919 N 0.38698 0.82860 0.43776
 N920 N 0.35468 0.81112 0.41460
 C921 C 0.35331 0.83428 0.37844
 C922 C 0.38671 0.86588 0.37987
 N923 N 0.40701 0.86138 0.41739
 H924 H 0.39372 0.89155 0.35699
 N925 N 1.06156 1.09948 0.33164
 N926 N 1.08286 1.12856 0.30796
 C927 C 1.11531 1.14673 0.33181
 C928 C 1.11377 1.12788 0.37064
 N929 N 1.07984 1.09859 0.36910
 H930 H 1.13528 1.13427 0.39714
 N931 N 0.56436 0.59396 -0.16997
 N932 N 0.58737 0.62059 -0.19463
 C933 C 0.61807 0.64124 -0.17056
 C934 C 0.61350 0.62658 -0.13028
 N935 N 0.57969 0.59703 -0.13149
 H936 H 0.63319 0.63547 -0.10319
 N937 N 0.92005 1.07303 0.66825
 N938 N 0.89526 1.09722 0.69348
 C939 C 0.86916 1.12329 0.66925
 C940 C 0.87852 1.11450 0.62820
 N941 N 0.91048 1.08294 0.62915
 H942 H 0.86409 1.12955 0.60060
 N943 N 0.41596 0.56992 0.16738
 N944 N 0.39142 0.59391 0.19298
 C945 C 0.36619 0.62115 0.16910
 C946 C 0.37577 0.61334 0.12794
 N947 N 0.40704 0.58115 0.12845
 H948 H 0.36212 0.62959 0.10059
 N949 N 1.09561 0.93308 0.66510
 N950 N 1.12131 0.91041 0.69076
 C951 C 1.14514 0.88139 0.66745
 C952 C 1.13351 0.88720 0.62619
 N953 N 1.10220 0.91955 0.62648
 H954 H 1.14509 0.86901 0.59913
 N955 N 0.58843 0.42789 0.16431
 N956 N 0.61352 0.40414 0.18968
 C957 C 0.63770 0.37606 0.16582
 C958 C 0.62679 0.38323 0.12466
 N959 N 0.59581 0.41584 0.12537
 H960 H 0.63921 0.36620 0.09728
 N961 N 0.93343 0.90773 0.33228
 N962 N 0.91007 0.88162 0.30751
 C963 C 0.87995 0.86017 0.33166
 C964 C 0.88530 0.87381 0.37217
 N965 N 0.91898 0.90355 0.37095
 H966 H 0.86635 0.86402 0.39945
 N967 N 0.43752 0.40086 -0.16880
 N968 N 0.41670 0.37118 -0.19210
 C969 C 0.38470 0.35267 -0.16796
 C970 C 0.38595 0.37193 -0.12937
 N971 N 0.41930 0.40183 -0.13133
 H972 H 0.36470 0.36534 -0.10273
 N973 N 1.11496 0.33158 -0.06242
 N974 N 1.14626 0.31117 -0.08455
 C975 C 1.15449 0.33684 -0.11834
 C976 C 1.12676 0.37345 -0.11646
 N977 N 1.10262 0.36890 -0.08118
 H978 H 1.12490 0.40111 -0.13815
 N979 N 0.61263 0.82972 0.43773
 N980 N 0.64434 0.81009 0.41547
 C981 C 0.65038 0.83485 0.38070
 C982 C 0.62076 0.87001 0.38212
 N983 N 0.59778 0.86564 0.41814
 H984 H 0.61720 0.89691 0.35980
 N985 N 0.88151 0.66849 -0.05972
 N986 N 0.85051 0.68839 -0.08272
 C987 C 0.84582 0.66426 -0.11801
 C988 C 0.87540 0.62916 -0.11610
 N989 N 0.89705 0.63298 -0.07932
 H990 H 0.88003 0.60282 -0.13874
 N991 N 0.38227 1.16838 0.44028
 N992 N 0.35209 1.18907 0.41692
 C993 C 0.34526 1.16373 0.38268
 C994 C 0.37262 1.12690 0.38569
 N995 N 0.39514 1.13105 0.42200
 H996 H 0.37528 1.09936 0.36404
 N997 N 1.10935 0.67401 0.06350
 N998 N 1.14086 0.69403 0.08582
 C999 C 1.14502 0.67078 0.12172
 C1000 C 1.11466 0.63638 0.12099
 N1001 N 1.09302 0.63946 0.08422
 H1002 H 1.11037 0.61021 0.14397
 N1003 N 0.61070 1.17255 0.56202
 N1004 N 0.64200 1.19274 0.58450
 C1005 C 0.64606 1.16972 0.62056
 C1006 C 0.61575 1.13517 0.61966
 N1007 N 0.59428 1.13802 0.58271
 H1008 H 0.61132 1.10910 0.64271
 N1009 N 0.89631 0.32409 0.06607
 N1010 N 0.86576 0.30299 0.08875
 C1011 C 0.85953 0.32712 0.12380
 C1012 C 0.88773 0.36348 0.12202
 N1013 N 0.91015 0.36045 0.08556
 H1014 H 0.89000 0.39074 0.14403
 N1015 N 0.38746 0.83066 0.56777
 N1016 N 0.35631 0.81096 0.59062
 C1017 C 0.35909 0.82777 0.62961
 C1018 C 0.39376 0.85862 0.62978
 N1019 N 0.41051 0.85943 0.59043
 H1020 H 0.40327 0.88089 0.65482
 N1021 N 0.32873 1.11204 -0.06269
 N1022 N 0.31046 1.14428 -0.08536
 C1023 C 0.33286 1.14611 -0.12191
 C1024 C 0.36487 1.11317 -0.12118
 N1025 N 0.36130 1.09261 -0.08372
 H1026 H 0.39009 1.10655 -0.14455
 N1027 N 0.83099 0.61575 0.43835
 N1028 N 0.81267 0.64799 0.41569
 C1029 C 0.83486 0.64976 0.37902
 C1030 C 0.86683 0.61670 0.37971
 N1031 N 0.86339 0.59615 0.41721
 H1032 H 0.89176 0.60980 0.35615
 N1033 N 0.66365 1.12150 0.06150
 N1034 N 0.68154 1.15449 0.08346
 C1035 C 0.65811 1.15800 0.11933
 C1036 C 0.62567 1.12515 0.11884
 N1037 N 0.63028 1.10302 0.08232
 H1038 H 0.60043 1.11868 0.14226
 N1039 N 1.16438 0.62683 0.55703
 N1040 N 1.18130 0.66137 0.57763
 C1041 C 1.15796 0.66547 0.61348
 C1042 C 1.12696 0.63140 0.61453
 N1043 N 1.13205 0.60787 0.57895
 H1044 H 1.10250 0.62471 0.63863
 N1045 N 0.66932 0.88761 -0.06458
 N1046 N 0.68733 0.85472 -0.08647
 C1047 C 0.66455 0.85187 -0.12275
 C1048 C 0.63262 0.88497 -0.12271
 N1049 N 0.63660 0.90662 -0.08589
 H1050 H 0.60733 0.89116 -0.14617
 N1051 N 1.17102 0.38974 0.43516
 N1052 N 1.18910 0.35693 0.41320
 C1053 C 1.16606 0.35382 0.37708
 C1054 C 1.13384 0.38664 0.37731
 N1055 N 1.13794 0.40840 0.41408
 H1056 H 1.10824 0.39251 0.35406
 N1057 N 0.33928 0.87137 0.05923
 N1058 N 0.32294 0.83775 0.08141
 C1059 C 0.34514 0.83696 0.11813
 C1060 C 0.37487 0.87202 0.11808
 N1061 N 0.37015 0.89277 0.08090
 H1062 H 0.39853 0.88091 0.14224
 N1063 N 0.83984 0.37397 0.55922
 N1064 N 0.82284 0.34052 0.58124
 C1065 C 0.84513 0.33888 0.61789
 C1066 C 0.87575 0.37329 0.61787
 N1067 N 0.87136 0.39450 0.58083
 H1068 H 0.89972 0.38147 0.64199
 N1069 N 1.06093 1.09936 0.66448
 N1070 N 1.08352 1.12577 0.68959
 C1071 C 1.11521 1.14595 0.66626
 C1072 C 1.11152 1.13142 0.62591
 N1073 N 1.07741 1.10220 0.62643
 H1074 H 1.13262 1.13931 0.59948
 N1075 N 0.56589 0.58906 0.16575
 N1076 N 0.59004 0.61356 0.19129
 C1077 C 0.61869 0.63730 0.16748
 C1078 C 0.61145 0.62695 0.12636
 N1079 N 0.57828 0.59661 0.12689
 H1080 H 0.62914 0.63896 0.09912
 N1081 N 1.09944 0.94053 0.33069
 N1082 N 1.12531 0.91717 0.30566
 C1083 C 1.14555 0.88589 0.32940
 C1084 C 1.13159 0.89061 0.36981
 N1085 N 1.10278 0.92496 0.36908
 H1086 H 1.14001 0.87029 0.39664
 N1087 N 0.59618 0.43905 -0.17078
 N1088 N 0.62213 0.41537 -0.19548
 C1089 C 0.64268 0.38461 -0.17135
 C1090 C 0.62876 0.39002 -0.13097
 N1091 N 0.59969 0.42423 -0.13216
 H1092 H 0.63739 0.37026 -0.10385
 N1093 N 0.89683 1.05694 0.33390
 N1094 N 0.86868 1.07938 0.31019
 C1095 C 0.85152 1.11232 0.33397
 C1096 C 0.86991 1.10966 0.37303
 N1097 N 0.89802 1.07475 0.37150
 H1098 H 0.86451 1.13142 0.39947
 N1099 N 0.39012 0.55545 -0.16585
 N1100 N 0.36055 0.57667 -0.18910
 C1101 C 0.34325 0.60963 -0.16544
 C1102 C 0.36322 0.60826 -0.12691
 N1103 N 0.39230 0.57411 -0.12864
 H1104 H 0.35837 0.63060 -0.10081
 N1105 N 0.93897 0.90857 0.66814
 N1106 N 0.91378 0.88491 0.69359
 C1107 C 0.88462 0.86201 0.66962
 C1108 C 0.89268 0.87191 0.62856
 N1109 N 0.92678 0.90116 0.62921
 H1110 H 0.87475 0.86050 0.60124
 N1111 N 0.43920 0.40167 0.16416
 N1112 N 0.41532 0.37671 0.18960
 C1113 C 0.38416 0.35592 0.16613
 C1114 C 0.38960 0.36853 0.12532
 N1115 N 0.42420 0.39724 0.12569
 H1116 H 0.36946 0.35958 0.09854
   
