data_POSCAR
  _audit_creation_date              2014-09-24
  _audit_creation_method            'ToBaCCo'
  _symmetry_space_group_name_H-M    'P1'
  _symmetry_Int_Tables_number       1
  _symmetry_cell_setting            triclinic
  loop_
  _symmetry_equiv_pos_as_xyz
 x,y,z
_cell_length_a 35.3850
_cell_length_b 35.3382
_cell_length_c 71.9595
_cell_angle_alpha 89.541300
_cell_angle_beta 89.282600
_cell_angle_gamma 118.310100
loop_
  _atom_site_label
  _atom_site_type_symbol
  _atom_site_fract_x
  _atom_site_fract_y
  _atom_site_fract_z
C1 C -0.01416 0.07058 0.50270
 H2 H 0.01148 0.08181 0.49243
 C3 C -0.02052 0.10069 0.51270
 H4 H 0.00001 0.13454 0.50973
 C5 C -0.07199 0.01338 0.51884
 H6 H -0.09184 -0.02078 0.52125
 C7 C -0.07919 0.04258 0.52938
 H8 H -0.10427 0.03055 0.54000
 N9 N -0.03882 0.02777 0.50625
 C10 C 0.01603 -0.06052 0.50468
 H11 H 0.02685 -0.05614 0.49034
 C12 C 0.02297 -0.08854 0.51621
 H13 H 0.03853 -0.10605 0.51056
 C14 C -0.01832 -0.04408 0.52938
 H15 H -0.03446 -0.02697 0.53458
 C16 C -0.01254 -0.07216 0.54131
 H17 H -0.02439 -0.07631 0.55553
 Zn18 Zn -0.02247 -0.01003 0.49386
 N19 N -0.00551 -0.03993 0.51122
 C20 C 0.06472 0.04376 0.48368
 N21 N 0.02378 0.02358 0.47743
 C22 C 0.01410 0.03175 0.46014
 C23 C 0.04601 0.06237 0.44857
 C24 C 0.09772 0.07471 0.47252
 C25 C -0.10827 -0.05656 0.48003
 C26 C -0.14074 -0.08931 0.46992
 C27 C -0.08873 -0.11006 0.45881
 C28 C -0.05760 -0.07710 0.46910
 N29 N -0.06780 -0.05162 0.47971
 H30 H 0.07133 0.03739 0.49766
 H31 H -0.01884 0.01590 0.45566
 H32 H 0.03749 0.06914 0.43501
 H33 H 0.12976 0.09193 0.47801
 H34 H -0.11576 -0.03565 0.48838
 H35 H -0.17267 -0.09302 0.47162
 H36 H -0.07767 -0.12758 0.45002
 H37 H -0.02486 -0.07148 0.46839
 C38 C 0.00731 -0.09563 0.53461
 C39 C -0.05238 0.08696 0.52672
 C40 C -0.13189 -0.11787 0.45919
 C41 C 0.08825 0.08513 0.45491
 C42 C 1.08914 -0.00353 0.16249
 H43 H 1.09922 0.01734 0.17431
 C44 C 1.12023 -0.00561 0.15115
 H45 H 1.15373 0.01315 0.15464
 C46 C 1.03375 -0.05261 0.14343
 H47 H 1.00001 -0.06982 0.14019
 C48 C 1.06399 -0.05556 0.13162
 H49 H 1.05322 -0.07535 0.11941
 N50 N 1.04680 -0.02632 0.15838
 C51 C 0.93761 -0.00249 0.16383
 H52 H 0.92820 -0.01169 0.17817
 C53 C 0.91020 0.00435 0.15215
 H54 H 0.87968 -0.00035 0.15771
 C55 C 0.98765 0.01239 0.13908
 H56 H 1.01787 0.01542 0.13404
 C57 C 0.96132 0.01989 0.12692
 H58 H 0.97181 0.02894 0.11262
 Zn59 Zn 1.00709 -0.01634 0.17287
 N60 N 0.97500 0.00052 0.15708
 C61 C 1.05068 0.06954 0.18535
 N62 N 1.03864 0.02783 0.18978
 C63 C 1.05317 0.01706 0.20529
 C64 C 1.08209 0.04894 0.21677
 C65 C 1.07981 0.10257 0.19644
 C66 C 0.95676 -0.10664 0.18085
 C67 C 0.92445 -0.14220 0.19038
 C68 C 0.91714 -0.09367 0.21178
 C69 C 0.94936 -0.05923 0.20188
 N70 N 0.96803 -0.06609 0.18655
 H71 H 1.03925 0.07724 0.17275
 H72 H 1.04360 -0.01633 0.20832
 H73 H 1.09381 0.03969 0.22889
 H74 H 1.09061 0.13566 0.19224
 H75 H 0.97189 -0.11151 0.16865
 H76 H 0.91483 -0.17420 0.18532
 H77 H 0.90255 -0.08732 0.22385
 H78 H 0.95882 -0.02675 0.20618
 C79 C 0.92152 0.01499 0.13332
 C80 C 1.10795 -0.03108 0.13525
 C81 C 0.90362 -0.13581 0.20586
 C82 C 1.09669 0.09241 0.21214
 C83 C 0.07646 0.99479 0.85967
 H84 H 0.04716 0.96447 0.86055
 C85 C 0.11170 1.00090 0.87014
 H86 H 0.10934 0.97492 0.87899
 C87 C 0.11541 1.06464 0.84630
 H88 H 0.11677 1.08904 0.83674
 C89 C 0.15164 1.07208 0.85649
 H90 H 0.18060 1.10259 0.85493
 N91 N 0.07886 1.02640 0.84806
 C92 C -0.05807 0.98084 0.84209
 H93 H -0.06246 0.97191 0.82763
 C94 C -0.09324 0.97548 0.85302
 H95 H -0.12429 0.96240 0.84657
 C96 C -0.01122 1.01237 0.86716
 H97 H 0.02096 1.02755 0.87252
 C98 C -0.04513 1.00906 0.87838
 H99 H -0.03835 1.02024 0.89252
 Zn100 Zn 0.02996 1.01203 0.83359
 N101 N -0.01812 0.99862 0.84934
 C102 C -0.01129 0.92505 0.82085
 N103 N 0.02311 0.96493 0.81897
 C104 C 0.05654 0.97239 0.80732
 C105 C 0.05588 0.93935 0.79664
 C106 C -0.01324 0.89095 0.81042
 C107 C 0.04037 1.09414 0.82742
 C108 C 0.04107 1.12847 0.81743
 C109 C 0.03583 1.09038 0.78904
 C110 C 0.03475 1.05653 0.79961
 N111 N 0.03695 1.05898 0.81846
 H112 H -0.03673 0.91925 0.83073
 H113 H 0.08394 1.00418 0.80642
 H114 H 0.08261 0.94625 0.78726
 H115 H -0.04049 0.85927 0.81232
 H116 H 0.04126 1.09490 0.84244
 H117 H 0.04222 1.15538 0.82496
 H118 H 0.03421 1.08781 0.77406
 H119 H 0.03106 1.02796 0.79274
 C120 C -0.08710 0.99070 0.87139
 C121 C 0.15004 1.03985 0.86856
 C122 C 0.03837 1.12676 0.79795
 C123 C 0.02075 0.89789 0.79815
 C124 C 0.53030 0.02420 0.01264
 C125 C 0.53296 0.02577 -0.00632
 C126 C 0.49744 0.02468 -0.01748
 C127 C 0.57058 0.02812 -0.01688
 C128 C 0.56416 0.02358 0.02438
 C129 C 0.49316 0.02359 0.02277
 C130 C 0.45594 -0.01031 -0.01603
 C131 C 0.42215 -0.00968 -0.02561
 C132 C 0.42930 0.02587 -0.03691
 C133 C 0.47126 0.06022 -0.03879
 C134 C 0.50504 0.05950 -0.02923
 C135 C 0.56371 0.00136 -0.03217
 C136 C 0.59829 0.00231 -0.04211
 C137 C 0.64083 0.02949 -0.03680
 C138 C 0.64763 0.05706 -0.02172
 C139 C 0.61298 0.05707 -0.01217
 C140 C 0.58420 0.05586 0.03752
 C141 C 0.61648 0.05642 0.04862
 C142 C 0.62907 0.02435 0.04699
 C143 C 0.60853 -0.00836 0.03395
 C144 C 0.57622 -0.00881 0.02278
 C145 C 0.48251 0.05682 0.02033
 C146 C 0.44722 0.05554 0.02982
 C147 C 0.42221 0.02124 0.04211
 C148 C 0.43339 -0.01165 0.04470
 C149 C 0.46861 -0.01039 0.03517
 H150 H 0.44966 -0.03779 -0.00725
 H151 H 0.39040 -0.03701 -0.02417
 H152 H 0.47777 0.08821 -0.04724
 H153 H 0.53692 0.08672 -0.03053
 H154 H 0.53139 -0.02068 -0.03637
 H155 H 0.59144 -0.01826 -0.05402
 H156 H 0.61940 0.07941 -0.00096
 H157 H 0.57530 0.08111 0.03895
 H158 H 0.63204 0.08241 0.05830
 H159 H 0.61701 -0.03389 0.03257
 H160 H 0.56061 -0.03436 0.01290
 H161 H 0.50150 0.08369 0.01104
 H162 H 0.43929 0.08122 0.02744
 H163 H 0.41529 -0.03806 0.05432
 H164 H 0.47658 -0.03612 0.03736
 H165 H 0.67968 0.07832 -0.01703
 C166 C -0.02799 0.48605 0.67300
 C167 C -0.03094 0.48534 0.65412
 C168 C -0.02980 0.45044 0.64312
 C169 C -0.03368 0.52017 0.64344
 C170 C -0.02576 0.52224 0.68409
 C171 C -0.02599 0.45091 0.68358
 C172 C 0.00456 0.44128 0.64457
 C173 C 0.00537 0.40853 0.63413
 C174 C -0.02773 0.38480 0.62171
 C175 C -0.06179 0.39452 0.62009
 C176 C -0.06274 0.42708 0.63067
 C177 C -0.00488 0.54065 0.62857
 C178 C -0.00563 0.57463 0.61885
 C179 C -0.03512 0.58911 0.62385
 C180 C -0.06477 0.56772 0.63844
 C181 C -0.06439 0.53328 0.64797
 C182 C -0.05682 0.51417 0.69802
 C183 C -0.05597 0.54794 0.70827
 C184 C -0.02369 0.59039 0.70491
 C185 C 0.00803 0.59828 0.69122
 C186 C 0.00705 0.56446 0.68092
 C187 C -0.05998 0.40877 0.68335
 C188 C -0.05706 0.37584 0.69306
 C189 C -0.01994 0.38444 0.70307
 C190 C 0.01385 0.42691 0.70330
 C191 C 0.01063 0.45983 0.69382
 H192 H 0.03085 0.45959 0.65376
 H193 H 0.03188 0.40168 0.63585
 H194 H -0.08735 0.37747 0.61041
 H195 H -0.08925 0.43404 0.62918
 H196 H 0.01874 0.53074 0.62466
 H197 H 0.01689 0.58948 0.60738
 H198 H -0.08766 0.51728 0.65909
 H199 H -0.08215 0.48173 0.70076
 H200 H -0.08039 0.54083 0.71893
 H201 H 0.03316 0.63069 0.68829
 H202 H 0.03164 0.57119 0.67038
 H203 H -0.08870 0.40147 0.67566
 H204 H -0.08401 0.34373 0.69283
 H205 H 0.04324 0.43468 0.71052
 H206 H 0.03722 0.49219 0.69406
 H207 H -0.08778 0.57807 0.64275
 C208 C 0.48032 0.49721 0.34246
 C209 C 0.48013 0.49830 0.32352
 C210 C 0.51635 0.53217 0.31248
 C211 C 0.44360 0.46531 0.31302
 C212 C 0.44889 0.45876 0.35318
 C213 C 0.51196 0.53403 0.35330
 C214 C 0.50823 0.55502 0.29846
 C215 C 0.54209 0.58699 0.28806
 C216 C 0.58475 0.59653 0.29140
 C217 C 0.59274 0.57301 0.30522
 C218 C 0.55885 0.54100 0.31560
 C219 C 0.40135 0.45696 0.31697
 C220 C 0.36704 0.42533 0.30733
 C221 C 0.37435 0.40165 0.29347
 C222 C 0.41679 0.41076 0.28926
 C223 C 0.45110 0.44243 0.29890
 C224 C 0.44513 0.41808 0.34969
 C225 C 0.41516 0.38190 0.35963
 C226 C 0.38845 0.38577 0.37325
 C227 C 0.39278 0.42665 0.37692
 C228 C 0.42295 0.46286 0.36706
 C229 C 0.53532 0.52705 0.36729
 C230 C 0.56529 0.56144 0.37747
 C231 C 0.57234 0.60352 0.37395
 C232 C 0.54827 0.61032 0.36018
 C233 C 0.51823 0.57587 0.35001
 H234 H 0.47566 0.54840 0.29570
 H235 H 0.53486 0.60407 0.27731
 H236 H 0.62525 0.57980 0.30821
 H237 H 0.56578 0.52315 0.32610
 H238 H 0.39496 0.47480 0.32761
 H239 H 0.33471 0.41887 0.31095
 H240 H 0.48349 0.44869 0.29553
 H241 H 0.46533 0.41439 0.33922
 H242 H 0.41233 0.35077 0.35645
 H243 H 0.37297 0.43060 0.38751
 H244 H 0.42566 0.49404 0.37004
 H245 H 0.53067 0.49498 0.37018
 H246 H 0.58277 0.55505 0.38821
 H247 H 0.55313 0.64237 0.35707
 H248 H 0.49993 0.58187 0.33953
 H249 H 0.42346 0.39351 0.27845
 C250 C -0.09795 0.14509 0.55630
 C251 C -0.06037 0.18192 0.56205
 C252 C -0.02027 0.18631 0.55586
 C253 C -0.01823 0.15501 0.54470
 C254 C -0.05564 0.11903 0.53897
 C255 C -0.09547 0.11429 0.54497
 C256 C 0.01783 0.22198 0.56078
 C257 C 0.01731 0.25425 0.57140
 C258 C -0.02162 0.25199 0.57776
 C259 C -0.06106 0.21462 0.57351
 C260 C -0.09970 0.21106 0.58102
 C261 C -0.09998 0.24307 0.59202
 C262 C -0.06202 0.28032 0.59571
 C263 C -0.02233 0.28564 0.58846
 C264 C 0.01499 0.32480 0.59205
 C265 C 0.01294 0.35655 0.60272
 C266 C -0.02618 0.35069 0.61026
 C267 C -0.06362 0.31240 0.60661
 H268 H -0.12981 0.13942 0.56001
 H269 H 0.01288 0.15865 0.54051
 H270 H -0.12493 0.08704 0.54062
 H271 H 0.04856 0.22521 0.55623
 H272 H 0.04830 0.28033 0.57465
 H273 H -0.13046 0.18346 0.57890
 H274 H -0.13043 0.23875 0.59756
 H275 H 0.04626 0.33247 0.58653
 H276 H 0.04222 0.38625 0.60482
 H277 H -0.09412 0.30732 0.61241
 C278 C 0.83299 0.75498 0.22844
 C279 C 0.79653 0.75863 0.23447
 C280 C 0.79616 0.79780 0.23046
 C281 C 0.83083 0.83151 0.22101
 C282 C 0.86684 0.82758 0.21541
 C283 C 0.86740 0.78890 0.21907
 C284 C 0.76128 0.80342 0.23590
 C285 C 0.72664 0.77125 0.24553
 C286 C 0.72535 0.73174 0.25015
 C287 C 0.76067 0.72511 0.24437
 C288 C 0.75895 0.68526 0.24870
 C289 C 0.72431 0.65317 0.25845
 C290 C 0.69000 0.65932 0.26439
 C291 C 0.68989 0.69862 0.26036
 C292 C 0.65426 0.70311 0.26686
 C293 C 0.62049 0.67004 0.27679
 C294 C 0.62078 0.63132 0.28067
 C295 C 0.65574 0.62622 0.27439
 H296 H 0.83624 0.72657 0.23084
 H297 H 0.82962 0.86099 0.21790
 H298 H 0.89495 0.78509 0.21497
 H299 H 0.76081 0.83326 0.23276
 H300 H 0.70124 0.77857 0.24911
 H301 H 0.78396 0.67765 0.24474
 H302 H 0.72452 0.62316 0.26146
 H303 H 0.65142 0.73181 0.26470
 H304 H 0.59425 0.67515 0.28174
 H305 H 0.65610 0.59619 0.27715
 C306 C 0.26437 0.06620 -0.12050
 C307 C 0.26038 0.04973 -0.10213
 C308 C 0.21945 0.03257 -0.09324
 C309 C 0.18414 0.03076 -0.10266
 C310 C 0.18838 0.04569 -0.12105
 C311 C 0.22893 0.06408 -0.12974
 C312 C 0.21361 0.01660 -0.07509
 C313 C 0.24726 0.01637 -0.06552
 C314 C 0.28846 0.03199 -0.07380
 C315 C 0.29522 0.04915 -0.09238
 C316 C 0.33634 0.06446 -0.10070
 C317 C 0.36957 0.06271 -0.09137
 C318 C 0.36348 0.04589 -0.07335
 C319 C 0.32302 0.03055 -0.06419
 C320 C 0.31891 0.01415 -0.04582
 C321 C 0.35326 0.01272 -0.03713
 C322 C 0.39295 0.02748 -0.04634
 C323 C 0.39780 0.04418 -0.06446
 H324 H 0.29421 0.08048 -0.12828
 H325 H 0.15302 0.01723 -0.09568
 H326 H 0.23308 0.07571 -0.14398
 H327 H 0.18242 0.00369 -0.06821
 H328 H 0.23955 0.00312 -0.05163
 H329 H 0.34400 0.07771 -0.11460
 H330 H 0.40047 0.07458 -0.09841
 H331 H 0.28974 0.00225 -0.03764
 H332 H 0.34882 0.00048 -0.02298
 H333 H 0.42826 0.05537 -0.07181
 C334 C 0.04679 0.83347 0.55799
 C335 C 0.00933 0.80233 0.56744
 C336 C -0.02872 0.80597 0.56578
 C337 C -0.02857 0.84003 0.55557
 C338 C 0.00870 0.87038 0.54630
 C339 C 0.04624 0.86670 0.54752
 C340 C -0.06697 0.77528 0.57407
 C341 C -0.06883 0.74013 0.58360
 C342 C -0.03205 0.73469 0.58557
 C343 C 0.00805 0.76729 0.57808
 C344 C 0.04554 0.76405 0.58168
 C345 C 0.04385 0.72956 0.59173
 C346 C 0.00474 0.69637 0.59821
 C347 C -0.03388 0.69806 0.59504
 C348 C -0.07282 0.66253 0.60121
 C349 C -0.07308 0.62748 0.61042
 C350 C -0.03470 0.62649 0.61394
 C351 C 0.00414 0.66131 0.60781
 H352 H 0.07673 0.83245 0.55796
 H353 H -0.05803 0.84217 0.55432
 H354 H 0.07533 0.88966 0.54033
 H355 H -0.09606 0.77812 0.57297
 H356 H -0.09962 0.71815 0.58965
 H357 H 0.07707 0.78828 0.57726
 H358 H 0.07354 0.72861 0.59424
 H359 H -0.10380 0.66018 0.59871
 H360 H -0.10369 0.60064 0.61451
 H361 H 0.03420 0.66135 0.61058
 C362 C 0.19995 0.15342 0.23841
 C363 C 0.20040 0.19279 0.24245
 C364 C 0.16520 0.19817 0.23640
 C365 C 0.13130 0.16537 0.22675
 C366 C 0.13158 0.12670 0.22287
 C367 C 0.16623 0.12121 0.22880
 C368 C 0.16402 0.23631 0.23992
 C369 C 0.19714 0.26962 0.24919
 C370 C 0.23310 0.26615 0.25542
 C371 C 0.23459 0.22694 0.25211
 C372 C 0.27023 0.22318 0.25856
 C373 C 0.30344 0.25648 0.26772
 C374 C 0.30276 0.29496 0.27088
 C375 C 0.26766 0.30054 0.26486
 C376 C 0.26889 0.34046 0.26854
 C377 C 0.30335 0.37299 0.27777
 C378 C 0.33783 0.36713 0.28361
 C379 C 0.33720 0.32792 0.28011
 H380 H 0.22527 0.14639 0.24224
 H381 H 0.10451 0.16988 0.22233
 H382 H 0.16782 0.09207 0.22566
 H383 H 0.13716 0.24058 0.23538
 H384 H 0.19344 0.29782 0.25125
 H385 H 0.27364 0.19474 0.25682
 H386 H 0.33012 0.25202 0.27236
 H387 H 0.24394 0.34784 0.26444
 H388 H 0.30325 0.40318 0.28013
 H389 H 0.36343 0.32280 0.28483
 C390 C 0.80212 -0.04473 -0.10950
 C391 C 0.80892 -0.01220 -0.09661
 C392 C 0.85123 0.02193 -0.09496
 C393 C 0.88545 0.02175 -0.10497
 C394 C 0.87844 -0.01073 -0.11780
 C395 C 0.83608 -0.04361 -0.12003
 C396 C 0.85916 0.05661 -0.08357
 C397 C 0.82576 0.05888 -0.07422
 C398 C 0.78310 0.02550 -0.07528
 C399 C 0.77503 -0.01176 -0.08574
 C400 C 0.73366 -0.04764 -0.08462
 C401 C 0.70092 -0.04664 -0.07414
 C402 C 0.70751 -0.00935 -0.06504
 C403 C 0.74836 0.02763 -0.06586
 C404 C 0.75245 0.06553 -0.05758
 C405 C 0.71768 0.06615 -0.04846
 C406 C 0.67775 0.02892 -0.04688
 C407 C 0.67323 -0.00883 -0.05520
 H408 H 0.77066 -0.07080 -0.11221
 H409 H 0.91728 0.04874 -0.10355
 H410 H 0.82898 -0.06967 -0.12951
 H411 H 0.89150 0.08277 -0.08216
 H412 H 0.83458 0.08664 -0.06567
 H413 H 0.72601 -0.07767 -0.09120
 H414 H 0.66981 -0.07516 -0.07347
 H415 H 0.78170 0.09569 -0.05852
 H416 H 0.72215 0.09633 -0.04291
 H417 H 0.64298 -0.03820 -0.05403
 C418 C 0.16980 -0.06688 0.10267
 C419 C 0.20751 -0.02775 0.09853
 C420 C 0.21064 0.01030 0.10636
 C421 C 0.17780 0.00882 0.11793
 C422 C 0.14126 -0.03021 0.12223
 C423 C 0.13732 -0.06792 0.11431
 C424 C 0.24668 0.04979 0.10278
 C425 C 0.28054 0.05258 0.09192
 C426 C 0.27979 0.01571 0.08410
 C427 C 0.24232 -0.02503 0.08715
 C428 C 0.24105 -0.06163 0.07879
 C429 C 0.27537 -0.05887 0.06820
 C430 C 0.31250 -0.01971 0.06556
 C431 C 0.31535 0.01824 0.07339
 C432 C 0.35406 0.05703 0.07037
 C433 C 0.38818 0.05782 0.06013
 C434 C 0.38519 0.02022 0.05250
 C435 C 0.34703 -0.01843 0.05519
 H436 H 0.16450 -0.09739 0.09740
 H437 H 0.18073 0.03837 0.12366
 H438 H 0.10944 -0.09853 0.11746
 H439 H 0.24897 0.07899 0.10860
 H440 H 0.30693 0.08444 0.08993
 H441 H 0.21384 -0.09321 0.08015
 H442 H 0.27293 -0.08793 0.06216
 H443 H 0.35954 0.08735 0.07593
 H444 H 0.41750 0.08802 0.05853
 H445 H 0.34414 -0.04768 0.04916
 C446 C 0.81144 0.77925 0.43417
 C447 C 0.77255 0.77830 0.42922
 C448 C 0.76574 0.81272 0.43513
 C449 C 0.79729 0.84704 0.44513
 C450 C 0.83679 0.84852 0.44967
 C451 C 0.84251 0.81328 0.44405
 C452 C 0.72748 0.81300 0.43094
 C453 C 0.69558 0.77970 0.42114
 C454 C 0.70079 0.74465 0.41487
 C455 C 0.74021 0.74426 0.41876
 C456 C 0.74622 0.71013 0.41188
 C457 C 0.71472 0.67712 0.40189
 C458 C 0.67586 0.67650 0.39833
 C459 C 0.66810 0.71011 0.40472
 C460 C 0.62781 0.70746 0.40068
 C461 C 0.59702 0.67311 0.39072
 C462 C 0.60509 0.64015 0.38446
 C463 C 0.64471 0.64223 0.38831
 H464 H 0.81881 0.75374 0.43100
 H465 H 0.79112 0.87344 0.44839
 H466 H 0.87011 0.80990 0.44802
 H467 H 0.72198 0.83926 0.43537
 H468 H 0.66723 0.78271 0.41857
 H469 H 0.77527 0.70799 0.41375
 H470 H 0.72089 0.65165 0.39691
 H471 H 0.61876 0.73110 0.40513
 H472 H 0.56644 0.67202 0.38814
 H473 H 0.65159 0.61724 0.38329
 C474 C 0.05603 0.23750 0.78327
 C475 C 0.02839 0.22851 0.76797
 C476 C 0.00623 0.18537 0.76199
 C477 C 0.00987 0.15260 0.77167
 C478 C 0.03630 0.16187 0.78718
 C479 C 0.05981 0.20474 0.79263
 C480 C -0.01981 0.17497 0.74647
 C481 C -0.02413 0.20650 0.73654
 C482 C -0.00330 0.24987 0.74205
 C483 C 0.02221 0.26076 0.75839
 C484 C 0.03971 0.30324 0.76491
 C485 C 0.03338 0.33426 0.75561
 C486 C 0.01028 0.32466 0.73922
 C487 C -0.00788 0.28257 0.73200
 C488 C -0.02945 0.27522 0.71489
 C489 C -0.03334 0.30808 0.70564
 C490 C -0.01621 0.34935 0.71309
 C491 C 0.00541 0.35719 0.72999
 H492 H 0.07574 0.26958 0.78819
 H493 H -0.00877 0.11961 0.76731
 H494 H 0.08153 0.21317 0.80418
 H495 H -0.03694 0.14201 0.74186
 H496 H -0.04516 0.19552 0.72485
 H497 H 0.05761 0.31339 0.77754
 H498 H 0.04714 0.36634 0.76125
 H499 H -0.04274 0.24478 0.70799
 H500 H -0.04916 0.30122 0.69237
 H501 H 0.01846 0.38876 0.73608
 C502 C 0.85552 0.00328 0.09047
 C503 C 0.82772 0.01950 0.09641
 C504 C 0.83272 0.03570 0.11469
 C505 C 0.86437 0.03579 0.12630
 C506 C 0.89095 0.01870 0.12034
 C507 C 0.88635 0.00281 0.10227
 C508 C 0.80569 0.05117 0.12148
 C509 C 0.77266 0.04965 0.11079
 C510 C 0.76562 0.03303 0.09264
 C511 C 0.79466 0.01933 0.08505
 C512 C 0.78981 0.00621 0.06635
 C513 C 0.75715 0.00540 0.05558
 C514 C 0.72744 0.01675 0.06303
 C515 C 0.73085 0.03024 0.08173
 C516 C 0.69883 0.03975 0.08879
 C517 C 0.66589 0.03728 0.07758
 C518 C 0.66347 0.02528 0.05895
 C519 C 0.69430 0.01474 0.05182
 H520 H 0.85347 -0.01059 0.07701
 H521 H 0.86793 0.04880 0.14014
 H522 H 0.90573 -0.01143 0.09736
 H523 H 0.80969 0.06406 0.13537
 H524 H 0.75355 0.06251 0.11712
 H525 H 0.81130 -0.00298 0.05944
 H526 H 0.75489 -0.00468 0.04126
 H527 H 0.69769 0.04841 0.10302
 H528 H 0.64185 0.04440 0.08363
 H529 H 0.69291 0.00553 0.03740
 C530 C 0.14128 0.18682 0.42544
 C531 C 0.18443 0.19492 0.42394
 C532 C 0.19488 0.16470 0.43236
 C533 C 0.16354 0.12885 0.44230
 C534 C 0.12121 0.12189 0.44386
 C535 C 0.11047 0.15106 0.43523
 C536 C 0.23659 0.17045 0.43090
 C537 C 0.26839 0.20549 0.42123
 C538 C 0.25989 0.23681 0.41276
 C539 C 0.21736 0.23179 0.41441
 C540 C 0.20931 0.26413 0.40672
 C541 C 0.24134 0.29985 0.39759
 C542 C 0.28261 0.30481 0.39553
 C543 C 0.29259 0.27329 0.40288
 C544 C 0.33493 0.27971 0.39991
 C545 C 0.36577 0.31601 0.39031
 C546 C 0.35571 0.34723 0.38341
 C547 C 0.31400 0.34131 0.38606
 H548 H 0.12999 0.20728 0.41919
 H549 H 0.17203 0.10613 0.44873
 H550 H 0.07809 0.14673 0.43637
 H551 H 0.24480 0.14750 0.43731
 H552 H 0.29966 0.20740 0.42094
 H553 H 0.17857 0.26331 0.40775
 H554 H 0.23359 0.32390 0.39203
 H555 H 0.34532 0.25722 0.40465
 H556 H 0.39786 0.31991 0.38846
 H557 H 0.30573 0.36496 0.38044
 C558 C 0.05771 0.82551 0.77435
 C559 C 0.01989 0.79448 0.76585
 C560 C -0.01818 0.79780 0.76867
 C561 C -0.01777 0.83133 0.77919
 C562 C 0.02014 0.86208 0.78725
 C563 C 0.05768 0.85857 0.78481
 C564 C -0.05654 0.76773 0.76096
 C565 C -0.05832 0.73402 0.75057
 C566 C -0.02143 0.72915 0.74728
 C567 C 0.01849 0.76030 0.75479
 C568 C 0.05574 0.75649 0.75084
 C569 C 0.05412 0.72319 0.74022
 C570 C 0.01543 0.69209 0.73317
 C571 C -0.02302 0.69434 0.73662
 C572 C -0.06147 0.66134 0.72934
 C573 C -0.06145 0.62799 0.71909
 C574 C -0.02330 0.62622 0.71565
 C575 C 0.01507 0.65852 0.72270
 H576 H 0.08788 0.82506 0.77342
 H577 H -0.04699 0.83385 0.78088
 H578 H 0.08724 0.88127 0.79123
 H579 H -0.08572 0.77017 0.76302
 H580 H -0.08929 0.71252 0.74513
 H581 H 0.08707 0.77908 0.75559
 H582 H 0.08362 0.72171 0.73756
 H583 H -0.09228 0.65996 0.73140
 H584 H -0.09150 0.60358 0.71366
 H585 H 0.04468 0.65707 0.72034
   
