data_POSCAR
  _audit_creation_date              2014-09-24
  _audit_creation_method            'ToBaCCo'
  _symmetry_space_group_name_H-M    'P1'
  _symmetry_Int_Tables_number       1
  _symmetry_cell_setting            triclinic
  loop_
  _symmetry_equiv_pos_as_xyz
 x,y,z
_cell_length_a 35.5207
_cell_length_b 39.8946
_cell_length_c 44.6803
_cell_angle_alpha 90.000000
_cell_angle_beta 90.000000
_cell_angle_gamma 90.000000
loop_
  _atom_site_label
  _atom_site_type_symbol
  _atom_site_fract_x
  _atom_site_fract_y
  _atom_site_fract_z
B1 B 0.27013 0.23772 0.27948
 B2 B 0.22517 0.22911 0.27222
 B3 B 0.23810 0.26830 0.27975
 B4 B 0.28091 0.27547 0.26480
 B5 B 0.29401 0.23913 0.24721
 B6 B 0.25913 0.21013 0.25228
 B7 B 0.22985 0.26229 0.22052
 B8 B 0.27481 0.27090 0.22778
 B9 B 0.26188 0.23171 0.22024
 B10 B 0.21907 0.22454 0.23520
 B11 B 0.20597 0.26088 0.25279
 B12 B 0.24085 0.28988 0.24772
 B13 B 0.72985 0.76229 0.27948
 B14 B 0.77481 0.77090 0.27222
 B15 B 0.76188 0.73171 0.27975
 B16 B 0.71907 0.72454 0.26480
 B17 B 0.70597 0.76088 0.24721
 B18 B 0.74085 0.78988 0.25228
 B19 B 0.77013 0.73772 0.22052
 B20 B 0.72517 0.72911 0.22778
 B21 B 0.73810 0.76830 0.22024
 B22 B 0.78091 0.77547 0.23520
 B23 B 0.79401 0.73913 0.25279
 B24 B 0.75913 0.71013 0.24772
 B25 B 0.72985 0.23772 -0.27948
 B26 B 0.77481 0.22911 -0.27222
 B27 B 0.76188 0.26830 -0.27976
 B28 B 0.71907 0.27547 -0.26480
 B29 B 0.70597 0.23913 -0.24721
 B30 B 0.74085 0.21013 -0.25228
 B31 B 0.77013 0.26229 -0.22052
 B32 B 0.72517 0.27090 -0.22778
 B33 B 0.73810 0.23171 -0.22025
 B34 B 0.78091 0.22454 -0.23520
 B35 B 0.79401 0.26088 -0.25279
 B36 B 0.75913 0.28988 -0.24772
 B37 B 0.26188 0.76830 -0.22025
 B38 B 0.27481 0.72911 -0.22778
 B39 B 0.22985 0.73772 -0.22052
 B40 B 0.21907 0.77547 -0.23520
 B41 B 0.25913 0.78988 -0.25228
 B42 B 0.29401 0.76088 -0.24721
 B43 B 0.23810 0.73171 -0.27976
 B44 B 0.22517 0.77090 -0.27222
 B45 B 0.27013 0.76229 -0.27948
 B46 B 0.28091 0.72454 -0.26480
 B47 B 0.24085 0.71013 -0.24772
 B48 B 0.20597 0.73913 -0.25279
 B49 B 1.22985 1.26229 0.77948
 B50 B 1.27481 1.27090 0.77222
 B51 B 1.26188 1.23171 0.77975
 B52 B 1.21907 1.22454 0.76480
 B53 B 1.20597 1.26088 0.74721
 B54 B 1.24085 1.28988 0.75228
 B55 B 1.27013 1.23772 0.72052
 B56 B 1.22517 1.22911 0.72778
 B57 B 1.23810 1.26830 0.72024
 B58 B 1.28091 1.27547 0.73520
 B59 B 1.29401 1.23913 0.75279
 B60 B 1.25913 1.21013 0.74772
 B61 B 0.77013 0.73772 0.77948
 B62 B 0.72517 0.72911 0.77222
 B63 B 0.73810 0.76830 0.77975
 B64 B 0.78091 0.77547 0.76480
 B65 B 0.79401 0.73913 0.74721
 B66 B 0.75913 0.71013 0.75228
 B67 B 0.72985 0.76229 0.72052
 B68 B 0.77481 0.77090 0.72778
 B69 B 0.76188 0.73171 0.72024
 B70 B 0.71907 0.72454 0.73520
 B71 B 0.70597 0.76088 0.75279
 B72 B 0.74085 0.78988 0.74772
 B73 B 1.22985 0.73772 0.22052
 B74 B 1.27481 0.72911 0.22778
 B75 B 1.26188 0.76830 0.22024
 B76 B 1.21907 0.77547 0.23520
 B77 B 1.20597 0.73913 0.25279
 B78 B 1.24085 0.71013 0.24772
 B79 B 1.27013 0.76229 0.27948
 B80 B 1.22517 0.77090 0.27222
 B81 B 1.23810 0.73171 0.27975
 B82 B 1.28091 0.72454 0.26480
 B83 B 1.29401 0.76088 0.24721
 B84 B 1.25913 0.78988 0.25228
 B85 B 0.77013 1.26229 0.22052
 B86 B 0.72517 1.27090 0.22778
 B87 B 0.73810 1.23171 0.22024
 B88 B 0.78091 1.22454 0.23520
 B89 B 0.79401 1.26088 0.25279
 B90 B 0.75913 1.28988 0.24772
 B91 B 0.72985 1.23772 0.27948
 B92 B 0.77481 1.22911 0.27222
 B93 B 0.76188 1.26830 0.27975
 B94 B 0.71907 1.27547 0.26480
 B95 B 0.70597 1.23913 0.24721
 B96 B 0.74085 1.21013 0.25228
 N97 N 0.56674 1.03520 0.03222
 N98 N 0.59299 1.05765 0.03814
 N99 N 0.54075 0.96473 0.05313
 N100 N 0.54871 0.94218 0.07383
 N101 N 0.56674 0.96481 0.03222
 N102 N 0.59299 0.94236 0.03814
 N103 N 0.54075 1.03528 0.05313
 N104 N 0.54871 1.05783 0.07383
 C105 C 0.58121 1.07187 0.06399
 C106 C 0.58121 0.92814 0.06399
 N107 N 0.43324 0.96481 0.03222
 N108 N 0.40699 0.94236 0.03814
 N109 N 0.45923 1.03528 0.05313
 N110 N 0.45127 1.05783 0.07383
 N111 N 0.43324 1.03520 0.03222
 N112 N 0.40699 1.05765 0.03814
 N113 N 0.45923 0.96473 0.05313
 N114 N 0.45127 0.94218 0.07383
 Mn115 Mn 0.49999 1.00000 0.05344
 C116 C 0.41878 0.92814 0.06399
 C117 C 0.41878 1.07187 0.06399
 N118 N 0.56674 0.96481 -0.03223
 N119 N 0.59299 0.94236 -0.03814
 N120 N 0.54075 1.03528 -0.05313
 N121 N 0.54871 1.05783 -0.07383
 N122 N 0.56674 1.03520 -0.03223
 N123 N 0.59299 1.05765 -0.03814
 N124 N 0.54075 0.96473 -0.05313
 N125 N 0.54871 0.94218 -0.07383
 Mn126 Mn 0.56702 1.00000 -0.00000
 C127 C 0.58121 0.92814 -0.06400
 C128 C 0.58121 1.07187 -0.06400
 N129 N 0.43324 1.03520 -0.03223
 N130 N 0.40699 1.05765 -0.03814
 N131 N 0.45923 0.96473 -0.05313
 N132 N 0.45127 0.94218 -0.07383
 N133 N 0.43324 0.96481 -0.03223
 N134 N 0.40699 0.94236 -0.03814
 N135 N 0.45924 1.03528 -0.05313
 N136 N 0.45127 1.05783 -0.07383
 Mn137 Mn 0.43297 1.00000 -0.00000
 Mn138 Mn 0.49999 1.00000 -0.05344
 Cl139 Cl 0.49999 1.00000 -0.00000
 C140 C 0.41878 1.07187 -0.06400
 C141 C 0.41878 0.92814 -0.06400
 N142 N 1.06674 0.53520 0.53222
 N143 N 1.09299 0.55765 0.53814
 N144 N 1.04075 0.46473 0.55313
 N145 N 1.04871 0.44218 0.57383
 N146 N 1.06674 0.46481 0.53222
 N147 N 1.09299 0.44236 0.53814
 N148 N 1.04075 0.53528 0.55313
 N149 N 1.04871 0.55783 0.57383
 C150 C 1.08121 0.57187 0.56399
 C151 C 1.08121 0.42814 0.56399
 N152 N 0.93324 0.46481 0.53222
 N153 N 0.90699 0.44236 0.53814
 N154 N 0.95924 0.53528 0.55313
 N155 N 0.95127 0.55783 0.57383
 N156 N 0.93324 0.53520 0.53222
 N157 N 0.90699 0.55765 0.53814
 N158 N 0.95923 0.46473 0.55313
 N159 N 0.95127 0.44218 0.57383
 Mn160 Mn 0.99999 0.50000 0.55344
 C161 C 0.91878 0.42814 0.56399
 C162 C 0.91878 0.57187 0.56399
 N163 N 1.06674 0.46481 0.46777
 N164 N 1.09299 0.44236 0.46186
 N165 N 1.04075 0.53528 0.44687
 N166 N 1.04871 0.55783 0.42617
 N167 N 1.06674 0.53520 0.46777
 N168 N 1.09299 0.55765 0.46186
 N169 N 1.04075 0.46473 0.44687
 N170 N 1.04871 0.44218 0.42617
 Mn171 Mn 1.06702 0.50000 0.50000
 C172 C 1.08121 0.42814 0.43600
 C173 C 1.08121 0.57187 0.43600
 N174 N 0.93324 0.53520 0.46777
 N175 N 0.90699 0.55765 0.46186
 N176 N 0.95923 0.46473 0.44687
 N177 N 0.95127 0.44218 0.42617
 N178 N 0.93324 0.46481 0.46777
 N179 N 0.90699 0.44236 0.46186
 N180 N 0.95924 0.53528 0.44687
 N181 N 0.95127 0.55783 0.42617
 Mn182 Mn 0.93297 0.50000 0.50000
 Mn183 Mn 0.99999 0.50000 0.44656
 Cl184 Cl 0.99999 0.50000 0.50000
 C185 C 0.91878 0.57187 0.43600
 C186 C 0.91878 0.42814 0.43600
 N187 N 1.06706 0.53535 0.03242
 N188 N 1.09220 0.55897 0.03810
 N189 N 1.04060 0.46469 0.05296
 N190 N 1.04697 0.44109 0.07303
 N191 N 1.06706 0.46466 0.03242
 N192 N 1.09220 0.44104 0.03810
 N193 N 1.04060 0.53532 0.05296
 N194 N 1.04697 0.55892 0.07303
 C195 C 1.07912 0.57369 0.06343
 C196 C 1.07912 0.42632 0.06343
 N197 N 0.93292 0.46466 0.03242
 N198 N 0.90778 0.44104 0.03810
 N199 N 0.95938 0.53532 0.05296
 N200 N 0.95302 0.55892 0.07303
 N201 N 0.93292 0.53535 0.03242
 N202 N 0.90778 0.55897 0.03810
 N203 N 0.95938 0.46469 0.05296
 N204 N 0.95302 0.44109 0.07303
 Mn205 Mn 0.99999 0.50000 0.05321
 C206 C 0.92087 0.42632 0.06343
 C207 C 0.92087 0.57369 0.06343
 N208 N 1.06706 0.46466 -0.03243
 N209 N 1.09220 0.44104 -0.03810
 N210 N 1.04060 0.53532 -0.05296
 N211 N 1.04697 0.55892 -0.07304
 N212 N 1.06706 0.53535 -0.03243
 N213 N 1.09220 0.55897 -0.03810
 N214 N 1.04060 0.46469 -0.05296
 N215 N 1.04697 0.44109 -0.07304
 Mn216 Mn 1.06749 0.50000 -0.00000
 C217 C 1.07912 0.42632 -0.06343
 C218 C 1.07912 0.57369 -0.06343
 N219 N 0.93292 0.53535 -0.03243
 N220 N 0.90778 0.55897 -0.03810
 N221 N 0.95938 0.46469 -0.05296
 N222 N 0.95302 0.44109 -0.07304
 N223 N 0.93292 0.46466 -0.03243
 N224 N 0.90778 0.44104 -0.03810
 N225 N 0.95938 0.53532 -0.05296
 N226 N 0.95302 0.55892 -0.07304
 Mn227 Mn 0.93249 0.50000 -0.00000
 Mn228 Mn 0.99999 0.50000 -0.05321
 Cl229 Cl 0.99999 0.50000 -0.00000
 C230 C 0.92087 0.57369 -0.06343
 C231 C 0.92087 0.42632 -0.06343
 N232 N 0.56706 1.03535 0.53242
 N233 N 0.59220 1.05897 0.53810
 N234 N 0.54060 0.96469 0.55296
 N235 N 0.54697 0.94109 0.57303
 N236 N 0.56706 0.96466 0.53242
 N237 N 0.59220 0.94104 0.53810
 N238 N 0.54060 1.03532 0.55296
 N239 N 0.54697 1.05892 0.57303
 C240 C 0.57912 1.07369 0.56343
 C241 C 0.57912 0.92632 0.56343
 N242 N 0.43292 0.96466 0.53242
 N243 N 0.40778 0.94104 0.53810
 N244 N 0.45938 1.03532 0.55296
 N245 N 0.45302 1.05892 0.57303
 N246 N 0.43292 1.03535 0.53242
 N247 N 0.40778 1.05897 0.53810
 N248 N 0.45938 0.96469 0.55296
 N249 N 0.45302 0.94109 0.57303
 Mn250 Mn 0.49999 1.00000 0.55321
 C251 C 0.42087 0.92632 0.56343
 C252 C 0.42087 1.07369 0.56343
 N253 N 0.56706 0.96466 0.46757
 N254 N 0.59220 0.94104 0.46190
 N255 N 0.54060 1.03532 0.44704
 N256 N 0.54697 1.05892 0.42696
 N257 N 0.56706 1.03535 0.46757
 N258 N 0.59220 1.05897 0.46190
 N259 N 0.54060 0.96469 0.44704
 N260 N 0.54697 0.94109 0.42696
 Mn261 Mn 0.56749 1.00000 0.50000
 C262 C 0.57912 0.92632 0.43657
 C263 C 0.57912 1.07369 0.43657
 N264 N 0.43292 1.03535 0.46757
 N265 N 0.40778 1.05897 0.46190
 N266 N 0.45938 0.96469 0.44704
 N267 N 0.45302 0.94109 0.42696
 N268 N 0.43292 0.96466 0.46757
 N269 N 0.40778 0.94104 0.46190
 N270 N 0.45938 1.03532 0.44704
 N271 N 0.45302 1.05892 0.42696
 Mn272 Mn 0.43249 1.00000 0.50000
 Mn273 Mn 0.49999 1.00000 0.44679
 Cl274 Cl 0.49999 1.00000 0.50000
 C275 C 0.42087 1.07369 0.43657
 C276 C 0.42087 0.92632 0.43657
 N277 N 1.06707 1.03518 0.53230
 N278 N 1.09168 1.05916 0.53815
 N279 N 1.04009 0.96490 0.55235
 N280 N 1.04524 0.94097 0.57215
 N281 N 1.06707 0.96483 0.53231
 N282 N 1.09168 0.94085 0.53815
 N283 N 1.04009 1.03511 0.55235
 N284 N 1.04525 1.05904 0.57215
 C285 C 1.07731 1.07401 0.56297
 C286 C 1.07731 0.92600 0.56297
 N287 N 0.93291 0.96483 0.53231
 N288 N 0.90830 0.94085 0.53815
 N289 N 0.95989 1.03511 0.55235
 N290 N 0.95474 1.05904 0.57215
 N291 N 0.93291 1.03518 0.53230
 N292 N 0.90830 1.05916 0.53815
 N293 N 0.95989 0.96490 0.55235
 N294 N 0.95474 0.94097 0.57215
 Mn295 Mn 0.99999 1.00000 0.55259
 C296 C 0.92268 0.92600 0.56297
 C297 C 0.92268 1.07401 0.56297
 N298 N 1.06707 0.96483 0.46769
 N299 N 1.09168 0.94085 0.46185
 N300 N 1.04009 1.03511 0.44765
 N301 N 1.04525 1.05904 0.42785
 N302 N 1.06707 1.03518 0.46769
 N303 N 1.09168 1.05916 0.46185
 N304 N 1.04009 0.96490 0.44765
 N305 N 1.04524 0.94097 0.42785
 Mn306 Mn 1.06770 1.00000 0.50000
 C307 C 1.07731 0.92600 0.43703
 C308 C 1.07731 1.07401 0.43703
 N309 N 0.93291 1.03518 0.46769
 N310 N 0.90830 1.05916 0.46185
 N311 N 0.95989 0.96490 0.44765
 N312 N 0.95474 0.94097 0.42785
 N313 N 0.93291 0.96483 0.46769
 N314 N 0.90830 0.94085 0.46185
 N315 N 0.95989 1.03511 0.44765
 N316 N 0.95474 1.05904 0.42785
 Mn317 Mn 0.93229 1.00000 0.50000
 Mn318 Mn 0.99999 1.00000 0.44740
 Cl319 Cl 0.99999 1.00000 0.50000
 C320 C 0.92268 1.07401 0.43703
 C321 C 0.92268 0.92600 0.43703
 N322 N 0.56707 0.53518 0.03231
 N323 N 0.59168 0.55916 0.03815
 N324 N 0.54009 0.46490 0.05235
 N325 N 0.54524 0.44097 0.07215
 N326 N 0.56707 0.46483 0.03230
 N327 N 0.59168 0.44085 0.03815
 N328 N 0.54009 0.53511 0.05235
 N329 N 0.54525 0.55904 0.07215
 C330 C 0.57731 0.57401 0.06297
 C331 C 0.57731 0.42600 0.06297
 N332 N 0.43291 0.46483 0.03230
 N333 N 0.40830 0.44085 0.03815
 N334 N 0.45989 0.53511 0.05235
 N335 N 0.45474 0.55904 0.07215
 N336 N 0.43291 0.53518 0.03230
 N337 N 0.40830 0.55916 0.03815
 N338 N 0.45989 0.46490 0.05235
 N339 N 0.45474 0.44097 0.07215
 Mn340 Mn 0.49999 0.50000 0.05259
 C341 C 0.42268 0.42600 0.06297
 C342 C 0.42268 0.57401 0.06297
 N343 N 0.56707 0.46483 -0.03231
 N344 N 0.59168 0.44085 -0.03815
 N345 N 0.54009 0.53511 -0.05235
 N346 N 0.54525 0.55904 -0.07215
 N347 N 0.56707 0.53518 -0.03231
 N348 N 0.59168 0.55916 -0.03815
 N349 N 0.54009 0.46490 -0.05235
 N350 N 0.54524 0.44097 -0.07215
 Mn351 Mn 0.56770 0.50000 -0.00000
 C352 C 0.57731 0.42600 -0.06297
 C353 C 0.57731 0.57401 -0.06297
 N354 N 0.43291 0.53518 -0.03231
 N355 N 0.40830 0.55916 -0.03815
 N356 N 0.45989 0.46490 -0.05235
 N357 N 0.45474 0.44097 -0.07215
 N358 N 0.43291 0.46483 -0.03231
 N359 N 0.40830 0.44085 -0.03815
 N360 N 0.45989 0.53511 -0.05235
 N361 N 0.45474 0.55904 -0.07215
 Mn362 Mn 0.43229 0.50000 -0.00000
 Mn363 Mn 0.49999 0.50000 -0.05260
 Cl364 Cl 0.49999 0.50000 -0.00000
 C365 C 0.42268 0.57401 -0.06297
 C366 C 0.42268 0.42600 -0.06297
 C367 C 0.38793 1.13123 0.12540
 C368 C 0.35259 1.14149 0.11495
 C369 C 0.33963 1.13009 0.08718
 C370 C 0.36162 1.10804 0.07020
 C371 C 0.27599 1.21357 0.19199
 C372 C 0.40992 1.10917 0.10850
 C373 C 0.32923 1.16244 0.13354
 C374 C 0.31068 1.17930 0.15042
 C375 C 0.29074 1.19821 0.17193
 C376 C 0.39679 1.09704 0.08089
 H377 H 0.39823 1.13984 0.14690
 H378 H 0.31230 1.13779 0.07888
 H379 H 0.35078 1.09910 0.04900
 H380 H 0.43688 1.10116 0.11729
 C381 C 0.88793 0.63123 0.62540
 C382 C 0.85259 0.64149 0.61495
 C383 C 0.83963 0.63009 0.58718
 C384 C 0.86162 0.60804 0.57020
 C385 C 0.77599 0.71357 0.69199
 C386 C 0.90992 0.60917 0.60850
 C387 C 0.82923 0.66244 0.63354
 C388 C 0.81068 0.67930 0.65042
 C389 C 0.79074 0.69821 0.67193
 C390 C 0.89679 0.59704 0.58089
 H391 H 0.89823 0.63984 0.64690
 H392 H 0.81230 0.63779 0.57888
 H393 H 0.85078 0.59910 0.54900
 H394 H 0.93688 0.60116 0.61729
 C395 C 0.61205 0.86878 0.12540
 C396 C 0.64740 0.85852 0.11495
 C397 C 0.66036 0.86992 0.08718
 C398 C 0.63837 0.89197 0.07020
 C399 C 0.72400 0.78644 0.19199
 C400 C 0.59006 0.89084 0.10850
 C401 C 0.67076 0.83756 0.13354
 C402 C 0.68931 0.82071 0.15042
 C403 C 0.70924 0.80180 0.17193
 C404 C 0.60320 0.90297 0.08089
 H405 H 0.60176 0.86017 0.14690
 H406 H 0.68768 0.86222 0.07888
 H407 H 0.64921 0.90091 0.04900
 H408 H 0.56311 0.89885 0.11729
 C409 C 1.11205 0.36878 0.62540
 C410 C 1.14740 0.35852 0.61495
 C411 C 1.16036 0.36992 0.58718
 C412 C 1.13837 0.39197 0.57020
 C413 C 1.22400 0.28644 0.69199
 C414 C 1.09006 0.39084 0.60850
 C415 C 1.17076 0.33756 0.63354
 C416 C 1.18931 0.32071 0.65042
 C417 C 1.20924 0.30180 0.67193
 C418 C 1.10320 0.40297 0.58089
 H419 H 1.10176 0.36017 0.64690
 H420 H 1.18768 0.36222 0.57888
 H421 H 1.14921 0.40091 0.54900
 H422 H 1.06311 0.39885 0.61729
 C423 C 0.61205 1.13123 -0.12541
 C424 C 0.64740 1.14149 -0.11495
 C425 C 0.66036 1.13009 -0.08718
 C426 C 0.63837 1.10804 -0.07021
 C427 C 0.72400 1.21357 -0.19199
 C428 C 0.59006 1.10917 -0.10850
 C429 C 0.67076 1.16244 -0.13354
 C430 C 0.68931 1.17930 -0.15042
 C431 C 0.70924 1.19821 -0.17193
 C432 C 0.60320 1.09704 -0.08089
 H433 H 0.60176 1.13984 -0.14690
 H434 H 0.68769 1.13779 -0.07888
 H435 H 0.64921 1.09910 -0.04900
 H436 H 0.56311 1.10116 -0.11729
 C437 C 1.11205 0.63123 0.37459
 C438 C 1.14740 0.64149 0.38505
 C439 C 1.16036 0.63009 0.41282
 C440 C 1.13837 0.60804 0.42979
 C441 C 1.22400 0.71357 0.30801
 C442 C 1.09006 0.60917 0.39150
 C443 C 1.17076 0.66244 0.36646
 C444 C 1.18931 0.67930 0.34958
 C445 C 1.20924 0.69821 0.32807
 C446 C 1.10320 0.59704 0.41911
 H447 H 1.10176 0.63984 0.35310
 H448 H 1.18769 0.63779 0.42112
 H449 H 1.14921 0.59910 0.45100
 H450 H 1.06311 0.60116 0.38271
 C451 C 0.33962 0.86992 -0.08718
 C452 C 0.35259 0.85852 -0.11495
 C453 C 0.38793 0.86878 -0.12541
 C454 C 0.40992 0.89084 -0.10850
 C455 C 0.27599 0.78644 -0.19199
 C456 C 0.36162 0.89197 -0.07021
 C457 C 0.32923 0.83756 -0.13354
 C458 C 0.31068 0.82071 -0.15042
 C459 C 0.29074 0.80180 -0.17193
 C460 C 0.39679 0.90297 -0.08089
 H461 H 0.31230 0.86222 -0.07888
 H462 H 0.39823 0.86017 -0.14690
 H463 H 0.43688 0.89885 -0.11729
 H464 H 0.35078 0.90091 -0.04900
 C465 C 0.83962 0.36992 0.41282
 C466 C 0.85259 0.35852 0.38505
 C467 C 0.88793 0.36878 0.37459
 C468 C 0.90992 0.39084 0.39150
 C469 C 0.77599 0.28644 0.30801
 C470 C 0.86162 0.39197 0.42979
 C471 C 0.82923 0.33757 0.36646
 C472 C 0.81068 0.32071 0.34958
 C473 C 0.79074 0.30180 0.32807
 C474 C 0.89679 0.40297 0.41911
 H475 H 0.81230 0.36222 0.42112
 H476 H 0.89823 0.36017 0.35310
 H477 H 0.93687 0.39885 0.38271
 H478 H 0.85078 0.40091 0.45100
 C479 C 1.10159 0.36138 0.12273
 C480 C 1.13737 0.35048 0.11392
 C481 C 1.15354 0.36343 0.08773
 C482 C 1.13427 0.38757 0.07078
 C483 C 1.21024 0.27651 0.19237
 C484 C 1.08238 0.38550 0.10591
 C485 C 1.15815 0.32778 0.13298
 C486 C 1.17504 0.30997 0.15029
 C487 C 1.19428 0.29084 0.17220
 C488 C 1.09868 0.39918 0.07995
 H489 H 1.08881 0.35174 0.14300
 H490 H 1.18130 0.35538 0.08073
 H491 H 1.14754 0.39764 0.05091
 H492 H 1.05500 0.39386 0.11353
 C493 C 0.60159 0.86138 0.62273
 C494 C 0.63737 0.85048 0.61392
 C495 C 0.65354 0.86343 0.58773
 C496 C 0.63427 0.88757 0.57078
 C497 C 0.71024 0.77651 0.69237
 C498 C 0.58238 0.88550 0.60591
 C499 C 0.65815 0.82778 0.63298
 C500 C 0.67504 0.80997 0.65029
 C501 C 0.69428 0.79084 0.67220
 C502 C 0.59868 0.89918 0.57995
 H503 H 0.58881 0.85174 0.64300
 H504 H 0.68130 0.85538 0.58073
 H505 H 0.64754 0.89764 0.55091
 H506 H 0.55500 0.89386 0.61353
 C507 C 1.10159 0.63862 -0.12273
 C508 C 1.13738 0.64953 -0.11392
 C509 C 1.15354 0.63658 -0.08773
 C510 C 1.13427 0.61244 -0.07079
 C511 C 1.21024 0.72350 -0.19237
 C512 C 1.08238 0.61451 -0.10591
 C513 C 1.15816 0.67223 -0.13298
 C514 C 1.17504 0.69004 -0.15029
 C515 C 1.19428 0.70917 -0.17220
 C516 C 1.09868 0.60083 -0.07995
 H517 H 1.08881 0.64827 -0.14300
 H518 H 1.18130 0.64463 -0.08073
 H519 H 1.14754 0.60237 -0.05091
 H520 H 1.05500 0.60615 -0.11353
 C521 C 0.60159 1.13862 0.37727
 C522 C 0.63738 1.14953 0.38608
 C523 C 0.65354 1.13658 0.41227
 C524 C 0.63427 1.11244 0.42921
 C525 C 0.71024 1.22350 0.30763
 C526 C 0.58238 1.11451 0.39409
 C527 C 0.65816 1.17223 0.36702
 C528 C 0.67504 1.19004 0.34971
 C529 C 0.69428 1.20917 0.32780
 C530 C 0.59868 1.10083 0.42005
 H531 H 0.58881 1.14827 0.35700
 H532 H 0.68130 1.14463 0.41927
 H533 H 0.64754 1.10237 0.44909
 H534 H 0.55500 1.10615 0.38647
 C535 C 0.89840 0.63863 0.12273
 C536 C 0.86261 0.64953 0.11392
 C537 C 0.84645 0.63658 0.08773
 C538 C 0.86572 0.61244 0.07078
 C539 C 0.78975 0.72350 0.19237
 C540 C 0.91761 0.61451 0.10591
 C541 C 0.84183 0.67223 0.13298
 C542 C 0.82495 0.69004 0.15029
 C543 C 0.80571 0.70917 0.17220
 C544 C 0.90131 0.60083 0.07995
 H545 H 0.91117 0.64827 0.14300
 H546 H 0.81868 0.64463 0.08073
 H547 H 0.85244 0.60237 0.05091
 H548 H 0.94499 0.60615 0.11353
 C549 C 0.34645 1.13658 0.58773
 C550 C 0.36261 1.14953 0.61392
 C551 C 0.39840 1.13863 0.62273
 C552 C 0.41761 1.11451 0.60591
 C553 C 0.28975 1.22350 0.69237
 C554 C 0.36572 1.11244 0.57078
 C555 C 0.34183 1.17223 0.63298
 C556 C 0.32495 1.19004 0.65029
 C557 C 0.30571 1.20917 0.67220
 C558 C 0.40131 1.10083 0.57995
 H559 H 0.31868 1.14463 0.58073
 H560 H 0.41117 1.14827 0.64300
 H561 H 0.44499 1.10615 0.61353
 H562 H 0.35244 1.10237 0.55091
 C563 C 0.89840 0.36138 -0.12273
 C564 C 0.86261 0.35048 -0.11392
 C565 C 0.84645 0.36343 -0.08773
 C566 C 0.86572 0.38757 -0.07079
 C567 C 0.78975 0.27651 -0.19237
 C568 C 0.91761 0.38550 -0.10591
 C569 C 0.84183 0.32778 -0.13298
 C570 C 0.82495 0.30997 -0.15029
 C571 C 0.80571 0.29084 -0.17220
 C572 C 0.90131 0.39918 -0.07995
 H573 H 0.91117 0.35174 -0.14300
 H574 H 0.81868 0.35538 -0.08073
 H575 H 0.85244 0.39764 -0.05091
 H576 H 0.94499 0.39386 -0.11353
 C577 C 0.34645 0.86343 0.41227
 C578 C 0.36261 0.85048 0.38608
 C579 C 0.39840 0.86138 0.37727
 C580 C 0.41761 0.88550 0.39409
 C581 C 0.28975 0.77651 0.30763
 C582 C 0.36572 0.88757 0.42921
 C583 C 0.34183 0.82778 0.36702
 C584 C 0.32495 0.80997 0.34971
 C585 C 0.30571 0.79084 0.32780
 C586 C 0.40131 0.89918 0.42005
 H587 H 0.31868 0.85538 0.41927
 H588 H 0.41117 0.85174 0.35700
 H589 H 0.44499 0.89386 0.38647
 H590 H 0.35244 0.89764 0.44909
 C591 C 1.09407 1.13810 0.37694
 C592 C 1.13251 1.14429 0.38035
 C593 C 1.15237 1.12995 0.40422
 C594 C 1.13399 1.10823 0.42397
 C595 C 1.20227 1.20959 0.29529
 C596 C 1.07578 1.11637 0.39649
 C597 C 1.15181 1.16311 0.35782
 C598 C 1.16748 1.17803 0.33809
 C599 C 1.18584 1.19497 0.31478
 C600 C 1.09579 1.10059 0.41967
 H601 H 1.07853 1.14911 0.35853
 H602 H 1.18222 1.13462 0.40692
 H603 H 1.14996 1.09629 0.44165
 H604 H 1.04622 1.11106 0.39283
 C605 C 0.59407 0.63810 -0.12306
 C606 C 0.63251 0.64429 -0.11965
 C607 C 0.65237 0.62995 -0.09578
 C608 C 0.63399 0.60823 -0.07603
 C609 C 0.70227 0.70959 -0.20471
 C610 C 0.57578 0.61637 -0.10351
 C611 C 0.65181 0.66311 -0.14218
 C612 C 0.66748 0.67803 -0.16190
 C613 C 0.68584 0.69497 -0.18522
 C614 C 0.59579 0.60059 -0.08033
 H615 H 0.57853 0.64911 -0.14147
 H616 H 0.68222 0.63462 -0.09308
 H617 H 0.64996 0.59629 -0.05835
 H618 H 0.54622 0.61106 -0.10717
 C619 C 0.90592 1.13810 0.62306
 C620 C 0.86748 1.14430 0.61964
 C621 C 0.84762 1.12995 0.59578
 C622 C 0.86599 1.10823 0.57602
 C623 C 0.79772 1.20959 0.70471
 C624 C 0.92421 1.11637 0.60351
 C625 C 0.84818 1.16311 0.64218
 C626 C 0.83251 1.17803 0.66190
 C627 C 0.81415 1.19497 0.68522
 C628 C 0.90420 1.10059 0.58032
 H629 H 0.92145 1.14911 0.64147
 H630 H 0.81776 1.13462 0.59308
 H631 H 0.85002 1.09629 0.55834
 H632 H 0.95376 1.11106 0.60717
 C633 C 0.34762 0.62995 0.09578
 C634 C 0.36748 0.64429 0.11964
 C635 C 0.40592 0.63810 0.12306
 C636 C 0.42421 0.61637 0.10351
 C637 C 0.29772 0.70959 0.20471
 C638 C 0.36599 0.60823 0.07602
 C639 C 0.34818 0.66311 0.14218
 C640 C 0.33251 0.67803 0.16190
 C641 C 0.31415 0.69497 0.18522
 C642 C 0.40420 0.60059 0.08032
 H643 H 0.31776 0.63462 0.09308
 H644 H 0.42145 0.64911 0.14147
 H645 H 0.45376 0.61106 0.10717
 H646 H 0.35002 0.59629 0.05834
 C647 C 1.09407 0.86191 0.62306
 C648 C 1.13251 0.85571 0.61964
 C649 C 1.15237 0.87006 0.59578
 C650 C 1.13399 0.89178 0.57602
 C651 C 1.20227 0.79042 0.70471
 C652 C 1.07577 0.88364 0.60351
 C653 C 1.15181 0.83690 0.64218
 C654 C 1.16748 0.82198 0.66190
 C655 C 1.18583 0.80504 0.68522
 C656 C 1.09579 0.89942 0.58033
 H657 H 1.07853 0.85090 0.64147
 H658 H 1.18222 0.86539 0.59308
 H659 H 1.14996 0.90372 0.55834
 H660 H 1.04622 0.88895 0.60717
 C661 C 0.59407 0.36191 0.12306
 C662 C 0.63251 0.35571 0.11964
 C663 C 0.65237 0.37006 0.09578
 C664 C 0.63399 0.39178 0.07602
 C665 C 0.70227 0.29042 0.20471
 C666 C 0.57577 0.38364 0.10351
 C667 C 0.65181 0.33690 0.14218
 C668 C 0.66748 0.32198 0.16190
 C669 C 0.68583 0.30504 0.18522
 C670 C 0.59579 0.39942 0.08032
 H671 H 0.57853 0.35090 0.14147
 H672 H 0.68222 0.36539 0.09308
 H673 H 0.64996 0.40372 0.05834
 H674 H 0.54622 0.38895 0.10717
 C675 C 0.90591 0.86191 0.37694
 C676 C 0.86748 0.85572 0.38035
 C677 C 0.84762 0.87006 0.40422
 C678 C 0.86599 0.89178 0.42397
 C679 C 0.79772 0.79042 0.29529
 C680 C 0.92421 0.88364 0.39649
 C681 C 0.84817 0.83690 0.35782
 C682 C 0.83250 0.82198 0.33809
 C683 C 0.81415 0.80504 0.31478
 C684 C 0.90420 0.89942 0.41967
 H685 H 0.92145 0.85090 0.35853
 H686 H 0.81776 0.86539 0.40692
 H687 H 0.85002 0.90372 0.44165
 H688 H 0.95376 0.88895 0.39283
 C689 C 0.34762 0.37006 -0.09578
 C690 C 0.36748 0.35572 -0.11965
 C691 C 0.40591 0.36191 -0.12306
 C692 C 0.42421 0.38364 -0.10351
 C693 C 0.29772 0.29042 -0.20471
 C694 C 0.36599 0.39178 -0.07603
 C695 C 0.34817 0.33690 -0.14218
 C696 C 0.33250 0.32198 -0.16191
 C697 C 0.31415 0.30504 -0.18522
 C698 C 0.40420 0.39942 -0.08033
 H699 H 0.31776 0.36539 -0.09308
 H700 H 0.42145 0.35090 -0.14147
 H701 H 0.45376 0.38895 -0.10717
 H702 H 0.35002 0.40372 -0.05835
 C703 C 1.15354 0.36343 -0.08773
 C704 C 1.13737 0.35048 -0.11392
 C705 C 1.10159 0.36138 -0.12273
 C706 C 1.08238 0.38550 -0.10591
 C707 C 1.21024 0.27651 -0.19237
 C708 C 1.13427 0.38757 -0.07079
 C709 C 1.15815 0.32778 -0.13298
 C710 C 1.17504 0.30997 -0.15029
 C711 C 1.19428 0.29084 -0.17220
 C712 C 1.09868 0.39918 -0.07995
 H713 H 1.18130 0.35538 -0.08073
 H714 H 1.08881 0.35174 -0.14300
 H715 H 1.05500 0.39386 -0.11353
 H716 H 1.14754 0.39764 -0.05091
 C717 C 0.60159 0.86138 0.37727
 C718 C 0.63737 0.85048 0.38608
 C719 C 0.65354 0.86343 0.41227
 C720 C 0.63427 0.88757 0.42921
 C721 C 0.71024 0.77651 0.30763
 C722 C 0.58238 0.88550 0.39409
 C723 C 0.65815 0.82778 0.36702
 C724 C 0.67504 0.80997 0.34971
 C725 C 0.69428 0.79084 0.32780
 C726 C 0.59868 0.89918 0.42005
 H727 H 0.58881 0.85174 0.35700
 H728 H 0.68130 0.85538 0.41927
 H729 H 0.64754 0.89764 0.44909
 H730 H 0.55500 0.89386 0.38647
 C731 C 0.89840 0.63863 -0.12273
 C732 C 0.86261 0.64953 -0.11392
 C733 C 0.84645 0.63658 -0.08773
 C734 C 0.86572 0.61244 -0.07079
 C735 C 0.78975 0.72350 -0.19237
 C736 C 0.91761 0.61451 -0.10591
 C737 C 0.84183 0.67223 -0.13298
 C738 C 0.82495 0.69004 -0.15029
 C739 C 0.80571 0.70917 -0.17220
 C740 C 0.90131 0.60083 -0.07995
 H741 H 0.91117 0.64827 -0.14300
 H742 H 0.81868 0.64463 -0.08073
 H743 H 0.85244 0.60237 -0.05091
 H744 H 0.94499 0.60615 -0.11353
 C745 C 0.39840 1.13863 0.37727
 C746 C 0.36261 1.14953 0.38608
 C747 C 0.34645 1.13658 0.41227
 C748 C 0.36572 1.11244 0.42921
 C749 C 0.28975 1.22350 0.30763
 C750 C 0.41761 1.11451 0.39409
 C751 C 0.34183 1.17223 0.36702
 C752 C 0.32495 1.19004 0.34971
 C753 C 0.30571 1.20917 0.32780
 C754 C 0.40131 1.10083 0.42005
 H755 H 0.41117 1.14827 0.35700
 H756 H 0.31868 1.14463 0.41927
 H757 H 0.35244 1.10237 0.44909
 H758 H 0.44499 1.10615 0.38647
 C759 C 1.10159 0.63862 0.12273
 C760 C 1.13738 0.64953 0.11392
 C761 C 1.15354 0.63658 0.08773
 C762 C 1.13427 0.61244 0.07078
 C763 C 1.21024 0.72350 0.19237
 C764 C 1.08238 0.61451 0.10591
 C765 C 1.15816 0.67223 0.13298
 C766 C 1.17504 0.69004 0.15029
 C767 C 1.19428 0.70917 0.17220
 C768 C 1.09868 0.60083 0.07995
 H769 H 1.08881 0.64827 0.14300
 H770 H 1.18130 0.64463 0.08073
 H771 H 1.14754 0.60237 0.05091
 H772 H 1.05500 0.60615 0.11353
 C773 C 0.60159 1.13862 0.62273
 C774 C 0.63738 1.14953 0.61392
 C775 C 0.65354 1.13658 0.58773
 C776 C 0.63427 1.11244 0.57078
 C777 C 0.71024 1.22350 0.69237
 C778 C 0.58238 1.11451 0.60591
 C779 C 0.65816 1.17223 0.63298
 C780 C 0.67504 1.19004 0.65029
 C781 C 0.69428 1.20917 0.67220
 C782 C 0.59868 1.10083 0.57995
 H783 H 0.58881 1.14827 0.64300
 H784 H 0.68130 1.14463 0.58073
 H785 H 0.64754 1.10237 0.55091
 H786 H 0.55500 1.10615 0.61353
 C787 C 0.84645 0.36343 0.08773
 C788 C 0.86261 0.35048 0.11392
 C789 C 0.89840 0.36138 0.12273
 C790 C 0.91761 0.38550 0.10591
 C791 C 0.78975 0.27651 0.19237
 C792 C 0.86572 0.38757 0.07078
 C793 C 0.84183 0.32778 0.13298
 C794 C 0.82495 0.30997 0.15029
 C795 C 0.80571 0.29084 0.17220
 C796 C 0.90131 0.39918 0.07995
 H797 H 0.81868 0.35538 0.08073
 H798 H 0.91117 0.35174 0.14300
 H799 H 0.94499 0.39386 0.11353
 H800 H 0.85244 0.39764 0.05091
 C801 C 0.34645 0.86343 0.58773
 C802 C 0.36261 0.85048 0.61392
 C803 C 0.39840 0.86138 0.62273
 C804 C 0.41761 0.88550 0.60591
 C805 C 0.28975 0.77651 0.69237
 C806 C 0.36572 0.88757 0.57078
 C807 C 0.34183 0.82778 0.63298
 C808 C 0.32495 0.80997 0.65029
 C809 C 0.30571 0.79084 0.67220
 C810 C 0.40131 0.89918 0.57995
 H811 H 0.31868 0.85538 0.58073
 H812 H 0.41117 0.85174 0.64300
 H813 H 0.44499 0.89386 0.61353
 H814 H 0.35244 0.89764 0.55091
 C815 C 0.38793 1.13123 -0.12541
 C816 C 0.35259 1.14149 -0.11495
 C817 C 0.33963 1.13009 -0.08718
 C818 C 0.36162 1.10804 -0.07021
 C819 C 0.27599 1.21357 -0.19199
 C820 C 0.40992 1.10917 -0.10850
 C821 C 0.32923 1.16244 -0.13354
 C822 C 0.31068 1.17930 -0.15042
 C823 C 0.29074 1.19821 -0.17193
 C824 C 0.39679 1.09704 -0.08089
 H825 H 0.39823 1.13984 -0.14690
 H826 H 0.31230 1.13779 -0.07888
 H827 H 0.35078 1.09910 -0.04900
 H828 H 0.43688 1.10116 -0.11729
 C829 C 0.83963 0.63009 0.41282
 C830 C 0.85259 0.64149 0.38505
 C831 C 0.88793 0.63123 0.37459
 C832 C 0.90992 0.60917 0.39150
 C833 C 0.77599 0.71357 0.30801
 C834 C 0.86162 0.60804 0.42979
 C835 C 0.82923 0.66244 0.36646
 C836 C 0.81068 0.67930 0.34958
 C837 C 0.79074 0.69821 0.32807
 C838 C 0.89679 0.59704 0.41911
 H839 H 0.81230 0.63779 0.42112
 H840 H 0.89823 0.63984 0.35310
 H841 H 0.93688 0.60116 0.38271
 H842 H 0.85078 0.59910 0.45100
 C843 C 0.61205 1.13123 0.12540
 C844 C 0.64740 1.14149 0.11495
 C845 C 0.66036 1.13009 0.08718
 C846 C 0.63837 1.10804 0.07020
 C847 C 0.72400 1.21357 0.19199
 C848 C 0.59006 1.10917 0.10850
 C849 C 0.67076 1.16244 0.13354
 C850 C 0.68931 1.17930 0.15042
 C851 C 0.70924 1.19821 0.17193
 C852 C 0.60320 1.09704 0.08089
 H853 H 0.60176 1.13984 0.14690
 H854 H 0.68769 1.13779 0.07888
 H855 H 0.64921 1.09910 0.04900
 H856 H 0.56311 1.10116 0.11729
 C857 C 1.11205 0.63123 0.62540
 C858 C 1.14740 0.64149 0.61495
 C859 C 1.16036 0.63009 0.58718
 C860 C 1.13837 0.60804 0.57020
 C861 C 1.22400 0.71357 0.69199
 C862 C 1.09006 0.60917 0.60850
 C863 C 1.17076 0.66244 0.63354
 C864 C 1.18931 0.67930 0.65042
 C865 C 1.20924 0.69821 0.67193
 C866 C 1.10320 0.59704 0.58089
 H867 H 1.10176 0.63984 0.64690
 H868 H 1.18769 0.63779 0.57888
 H869 H 1.14921 0.59910 0.54900
 H870 H 1.06311 0.60116 0.61729
 C871 C 0.61205 0.86878 -0.12541
 C872 C 0.64740 0.85852 -0.11495
 C873 C 0.66036 0.86992 -0.08718
 C874 C 0.63837 0.89197 -0.07021
 C875 C 0.72400 0.78644 -0.19199
 C876 C 0.59006 0.89084 -0.10850
 C877 C 0.67076 0.83756 -0.13354
 C878 C 0.68931 0.82071 -0.15042
 C879 C 0.70924 0.80180 -0.17193
 C880 C 0.60320 0.90297 -0.08089
 H881 H 0.60176 0.86017 -0.14690
 H882 H 0.68768 0.86222 -0.07888
 H883 H 0.64921 0.90091 -0.04900
 H884 H 0.56311 0.89885 -0.11729
 C885 C 1.11205 0.36878 0.37459
 C886 C 1.14740 0.35852 0.38505
 C887 C 1.16036 0.36992 0.41282
 C888 C 1.13837 0.39197 0.42979
 C889 C 1.22400 0.28644 0.30801
 C890 C 1.09006 0.39084 0.39150
 C891 C 1.17076 0.33756 0.36646
 C892 C 1.18931 0.32071 0.34958
 C893 C 1.20924 0.30180 0.32807
 C894 C 1.10320 0.40297 0.41911
 H895 H 1.10176 0.36017 0.35310
 H896 H 1.18768 0.36222 0.42112
 H897 H 1.14921 0.40091 0.45100
 H898 H 1.06311 0.39885 0.38271
 C899 C 0.38793 0.86878 0.12540
 C900 C 0.35259 0.85852 0.11495
 C901 C 0.33962 0.86992 0.08718
 C902 C 0.36162 0.89197 0.07020
 C903 C 0.27599 0.78644 0.19199
 C904 C 0.40992 0.89084 0.10850
 C905 C 0.32923 0.83757 0.13354
 C906 C 0.31068 0.82071 0.15042
 C907 C 0.29074 0.80180 0.17193
 C908 C 0.39679 0.90297 0.08089
 H909 H 0.39823 0.86017 0.14690
 H910 H 0.31230 0.86222 0.07888
 H911 H 0.35078 0.90091 0.04900
 H912 H 0.43687 0.89885 0.11729
 C913 C 0.88793 0.36878 0.62540
 C914 C 0.85259 0.35852 0.61495
 C915 C 0.83962 0.36992 0.58718
 C916 C 0.86162 0.39197 0.57020
 C917 C 0.77599 0.28644 0.69199
 C918 C 0.90992 0.39084 0.60850
 C919 C 0.82923 0.33757 0.63354
 C920 C 0.81068 0.32071 0.65042
 C921 C 0.79074 0.30180 0.67193
 C922 C 0.89679 0.40297 0.58089
 H923 H 0.89823 0.36017 0.64690
 H924 H 0.81230 0.36222 0.57888
 H925 H 0.85078 0.40091 0.54900
 H926 H 0.93687 0.39885 0.61729
 C927 C 1.09407 1.13810 0.62305
 C928 C 1.13251 1.14429 0.61964
 C929 C 1.15237 1.12995 0.59578
 C930 C 1.13399 1.10823 0.57602
 C931 C 1.20227 1.20959 0.70471
 C932 C 1.07578 1.11637 0.60351
 C933 C 1.15181 1.16311 0.64218
 C934 C 1.16748 1.17803 0.66190
 C935 C 1.18584 1.19497 0.68522
 C936 C 1.09579 1.10059 0.58032
 H937 H 1.07853 1.14911 0.64147
 H938 H 1.18222 1.13462 0.59308
 H939 H 1.14996 1.09629 0.55834
 H940 H 1.04622 1.11106 0.60717
 C941 C 0.59407 0.63810 0.12306
 C942 C 0.63251 0.64429 0.11964
 C943 C 0.65237 0.62995 0.09578
 C944 C 0.63399 0.60823 0.07602
 C945 C 0.70227 0.70959 0.20471
 C946 C 0.57578 0.61637 0.10351
 C947 C 0.65181 0.66311 0.14218
 C948 C 0.66748 0.67803 0.16190
 C949 C 0.68584 0.69497 0.18522
 C950 C 0.59579 0.60059 0.08032
 H951 H 0.57853 0.64911 0.14147
 H952 H 0.68222 0.63462 0.09308
 H953 H 0.64996 0.59629 0.05834
 H954 H 0.54622 0.61106 0.10717
 C955 C 1.15237 0.87006 0.40422
 C956 C 1.13251 0.85571 0.38035
 C957 C 1.09407 0.86191 0.37694
 C958 C 1.07577 0.88364 0.39649
 C959 C 1.20227 0.79042 0.29529
 C960 C 1.13399 0.89178 0.42397
 C961 C 1.15181 0.83690 0.35782
 C962 C 1.16748 0.82198 0.33809
 C963 C 1.18583 0.80504 0.31478
 C964 C 1.09579 0.89942 0.41967
 H965 H 1.18222 0.86539 0.40692
 H966 H 1.07853 0.85090 0.35853
 H967 H 1.04622 0.88895 0.39283
 H968 H 1.14996 0.90372 0.44165
 C969 C 0.65237 0.37006 -0.09578
 C970 C 0.63251 0.35571 -0.11965
 C971 C 0.59407 0.36191 -0.12306
 C972 C 0.57577 0.38364 -0.10351
 C973 C 0.70227 0.29042 -0.20471
 C974 C 0.63399 0.39178 -0.07603
 C975 C 0.65181 0.33690 -0.14218
 C976 C 0.66748 0.32198 -0.16191
 C977 C 0.68583 0.30504 -0.18522
 C978 C 0.59579 0.39942 -0.08033
 H979 H 0.68222 0.36539 -0.09308
 H980 H 0.57853 0.35090 -0.14147
 H981 H 0.54622 0.38895 -0.10717
 H982 H 0.64996 0.40372 -0.05835
 C983 C 0.84762 1.12995 0.40422
 C984 C 0.86748 1.14429 0.38035
 C985 C 0.90592 1.13810 0.37694
 C986 C 0.92421 1.11637 0.39649
 C987 C 0.79772 1.20959 0.29529
 C988 C 0.86599 1.10823 0.42397
 C989 C 0.84818 1.16311 0.35782
 C990 C 0.83251 1.17803 0.33809
 C991 C 0.81415 1.19497 0.31478
 C992 C 0.90420 1.10059 0.41967
 H993 H 0.81776 1.13462 0.40692
 H994 H 0.92145 1.14911 0.35853
 H995 H 0.95376 1.11106 0.39283
 H996 H 0.85002 1.09629 0.44165
 C997 C 0.40592 0.63810 -0.12306
 C998 C 0.36748 0.64429 -0.11965
 C999 C 0.34762 0.62995 -0.09578
 C1000 C 0.36599 0.60823 -0.07603
 C1001 C 0.29772 0.70959 -0.20471
 C1002 C 0.42421 0.61637 -0.10351
 C1003 C 0.34818 0.66311 -0.14218
 C1004 C 0.33251 0.67803 -0.16191
 C1005 C 0.31415 0.69497 -0.18522
 C1006 C 0.40420 0.60059 -0.08033
 H1007 H 0.42145 0.64911 -0.14147
 H1008 H 0.31776 0.63462 -0.09308
 H1009 H 0.35002 0.59629 -0.05835
 H1010 H 0.45376 0.61106 -0.10717
 C1011 C 0.90591 0.86191 0.62306
 C1012 C 0.86748 0.85572 0.61964
 C1013 C 0.84762 0.87006 0.59578
 C1014 C 0.86599 0.89178 0.57602
 C1015 C 0.79772 0.79042 0.70471
 C1016 C 0.92421 0.88364 0.60351
 C1017 C 0.84817 0.83690 0.64218
 C1018 C 0.83250 0.82198 0.66190
 C1019 C 0.81415 0.80504 0.68522
 C1020 C 0.90420 0.89942 0.58033
 H1021 H 0.92145 0.85090 0.64147
 H1022 H 0.81776 0.86539 0.59308
 H1023 H 0.85002 0.90372 0.55834
 H1024 H 0.95376 0.88895 0.60717
 C1025 C 0.40591 0.36191 0.12305
 C1026 C 0.36748 0.35572 0.11964
 C1027 C 0.34762 0.37006 0.09578
 C1028 C 0.36599 0.39178 0.07602
 C1029 C 0.29772 0.29042 0.20471
 C1030 C 0.42421 0.38364 0.10351
 C1031 C 0.34817 0.33690 0.14218
 C1032 C 0.33250 0.32198 0.16190
 C1033 C 0.31415 0.30504 0.18522
 C1034 C 0.40420 0.39942 0.08032
 H1035 H 0.42145 0.35090 0.14147
 H1036 H 0.31776 0.36539 0.09308
 H1037 H 0.35002 0.40372 0.05834
 H1038 H 0.45376 0.38895 0.10717
   
