data_POSCAR
  _audit_creation_date              2014-09-24
  _audit_creation_method            'ToBaCCo'
  _symmetry_space_group_name_H-M    'P1'
  _symmetry_Int_Tables_number       1
  _symmetry_cell_setting            triclinic
  loop_
  _symmetry_equiv_pos_as_xyz
 x,y,z
_cell_length_a 56.6943
_cell_length_b 56.6845
_cell_length_c 56.7338
_cell_angle_alpha 90.044600
_cell_angle_beta 90.000200
_cell_angle_gamma 90.015600
loop_
  _atom_site_label
  _atom_site_type_symbol
  _atom_site_fract_x
  _atom_site_fract_y
  _atom_site_fract_z
C1 C 0.19030 0.21226 0.22348
 N2 N 0.20511 0.19382 0.22714
 C3 C 0.22354 0.19013 0.21233
 N4 N 0.22716 0.20489 0.19385
 C5 C 0.21235 0.22333 0.19019
 N6 N 0.19392 0.22701 0.20500
 C7 C 0.69021 0.71268 0.72337
 N8 N 0.69391 0.72752 0.70498
 C9 C 0.71233 0.72385 0.69016
 N10 N 0.72707 0.70533 0.69373
 C11 C 0.72338 0.69048 0.71212
 N12 N 0.70495 0.69416 0.72693
 C13 C 0.30911 0.78818 0.72377
 N14 N 0.30545 0.77333 0.70535
 C15 C 0.28701 0.77696 0.69054
 N16 N 0.27223 0.79545 0.69415
 C17 C 0.27589 0.81030 0.71257
 N18 N 0.29433 0.80666 0.72737
 C19 C 0.81037 0.28743 0.22387
 N20 N 0.79554 0.30588 0.22746
 C21 C 0.77711 0.30949 0.21262
 N22 N 0.77351 0.29464 0.19419
 C23 C 0.78833 0.27619 0.19060
 N24 N 0.80676 0.27259 0.20543
 C25 C 0.80993 0.71277 0.27642
 N26 N 0.80633 0.72764 0.29484
 C27 C 0.78790 0.72405 0.30968
 N28 N 0.77308 0.70560 0.30610
 C29 C 0.77667 0.69073 0.28768
 N30 N 0.79510 0.69432 0.27285
 C31 C 0.30987 0.21200 -0.22413
 N32 N 0.29507 0.19353 -0.22779
 C33 C 0.27657 0.18990 -0.21304
 N34 N 0.27289 0.20474 -0.19463
 C35 C 0.28768 0.22321 -0.19096
 N36 N 0.30618 0.22683 -0.20571
 C37 C 0.69066 0.28763 -0.22327
 N38 N 0.70546 0.30610 -0.22693
 C39 C 0.72395 0.30975 -0.21218
 N40 N 0.72765 0.29494 -0.19377
 C41 C 0.71286 0.27647 -0.19010
 N42 N 0.69436 0.27283 -0.20485
 C43 C 0.19068 0.78785 0.27617
 N44 N 0.19425 0.77307 0.29464
 C45 C 0.21265 0.77673 0.30950
 N46 N 0.22748 0.79518 0.30589
 C47 C 0.22391 0.80996 0.28743
 N48 N 0.20551 0.80630 0.27257
 C49 C 0.46229 0.44011 0.47392
 N50 N 0.44386 0.45494 0.47752
 C51 C 0.44026 0.47338 0.46271
 N52 N 0.45510 0.47698 0.44429
 C53 C 0.47354 0.46215 0.44068
 N54 N 0.47713 0.44371 0.45550
 C55 C -0.03756 -0.05930 0.97322
 N56 N -0.02272 -0.05561 0.95482
 C57 C -0.02635 -0.03714 0.94005
 N58 N -0.04482 -0.02236 0.94369
 C59 C -0.05967 -0.02604 0.96209
 N60 N -0.05603 -0.04452 0.97685
 C61 C 1.03724 0.56014 0.97364
 N62 N 1.02241 0.55649 0.95522
 C63 C 1.02600 0.53801 0.94043
 N64 N 1.04444 0.52319 0.94405
 C65 C 1.05928 0.52683 0.96246
 N66 N 1.05568 0.54531 0.97726
 C67 C 0.53795 0.05917 0.47385
 N68 N 0.55647 0.04444 0.47744
 C69 C 0.56017 0.02601 0.46261
 N70 N 0.54535 0.02233 0.44418
 C71 C 0.52684 0.03706 0.44059
 N72 N 0.52314 0.05548 0.45542
 C73 C -0.03791 0.05982 0.52653
 N74 N -0.05639 0.04501 0.52295
 C75 C -0.06000 0.02656 0.53774
 N76 N -0.04514 0.02292 0.55613
 C77 C -0.02666 0.03772 0.55972
 N78 N -0.02305 0.05617 0.54493
 C79 C 0.46236 0.55982 0.02655
 N80 N 0.44391 0.54500 0.02288
 C81 C 0.44027 0.52652 0.03764
 N82 N 0.45508 0.52286 0.05607
 C83 C 0.47353 0.53768 0.05974
 N84 N 0.47716 0.55616 0.04499
 C85 C 0.53764 -0.06017 0.02630
 N86 N 0.52286 -0.05655 0.04477
 C87 C 0.52655 -0.03814 0.05963
 N88 N 0.54501 -0.02335 0.05602
 C89 C 0.55980 -0.02695 0.03756
 N90 N 0.55611 -0.04536 0.02270
 C91 C 1.03712 0.43980 0.52598
 N92 N 1.02234 0.44337 0.54446
 C93 C 1.02598 0.46178 0.55932
 N94 N 1.04441 0.47663 0.55571
 C95 C 1.05919 0.47307 0.53723
 N96 N 1.05555 0.45465 0.52237
 C97 C 0.41107 0.01049 0.21850
 H98 H 0.41204 0.02648 0.22889
 C99 C 0.42646 0.00718 0.19956
 H100 H 0.43929 0.02068 0.19526
 C101 C 0.39341 -0.02682 0.21157
 H102 H 0.38079 -0.04019 0.21651
 C103 C 0.40848 -0.03083 0.19250
 H104 H 0.40724 -0.04718 0.18267
 N105 N 0.39479 -0.00628 0.22396
 C106 C 0.33897 0.03128 0.26134
 H107 H 0.33800 0.02092 0.27731
 C108 C 0.32361 0.05026 0.25803
 H109 H 0.31081 0.05462 0.27153
 C110 C 0.35658 0.03810 0.22403
 H111 H 0.36917 0.03310 0.21065
 C112 C 0.34154 0.05721 0.22002
 H113 H 0.34277 0.06700 0.20367
 Zn114 Zn 0.37498 -0.00057 0.25022
 N115 N 0.35521 0.02575 0.24455
 C116 C 0.39350 0.02562 0.28888
 N117 N 0.39480 0.00508 0.27650
 C118 C 0.41102 -0.01175 0.28196
 C119 C 0.42642 -0.00848 0.30090
 C120 C 0.40858 0.02960 0.30795
 C121 C 0.33886 -0.03229 0.23908
 C122 C 0.32344 -0.05123 0.24235
 C123 C 0.34133 -0.05828 0.28036
 C124 C 0.35642 -0.03921 0.27639
 N125 N 0.35511 -0.02683 0.25587
 H126 H 0.38092 0.03903 0.28394
 H127 H 0.41193 -0.02774 0.27157
 H128 H 0.43920 -0.02201 0.30520
 H129 H 0.40740 0.04596 0.31777
 H130 H 0.33793 -0.02191 0.22311
 H131 H 0.31064 -0.05554 0.22884
 H132 H 0.34252 -0.06810 0.29669
 H133 H 0.36903 -0.03426 0.28978
 C134 C 0.32497 0.06336 0.23721
 C135 C 0.42510 -0.01365 0.18642
 C136 C 0.32474 -0.06437 0.26316
 C137 C 0.42514 0.01236 0.31403
 C138 C 0.08943 -0.01085 0.71811
 H139 H 0.08849 -0.02680 0.72853
 C140 C 0.07400 -0.00759 0.69921
 H141 H 0.06116 -0.02110 0.69495
 C142 C 0.10706 0.02645 0.71110
 H143 H 0.11969 0.03984 0.71600
 C144 C 0.09195 0.03041 0.69206
 H145 H 0.09316 0.04674 0.68221
 N146 N 0.10572 0.00595 0.72352
 C147 C 0.16160 -0.03147 0.76089
 H148 H 0.16258 -0.02105 0.77684
 C149 C 0.17693 -0.05047 0.75763
 H150 H 0.18974 -0.05479 0.77112
 C151 C 0.14394 -0.03844 0.72362
 H152 H 0.13133 -0.03349 0.71025
 C153 C 0.15895 -0.05757 0.71965
 H154 H 0.15770 -0.06743 0.70333
 Zn155 Zn 0.12557 0.00033 0.74976
 N156 N 0.14533 -0.02600 0.74412
 C157 C 0.10709 -0.02576 0.78846
 N158 N 0.10578 -0.00525 0.77606
 C159 C 0.08955 0.01158 0.78152
 C160 C 0.07415 0.00835 0.80047
 C161 C 0.09201 -0.02971 0.80754
 C162 C 0.16166 0.03204 0.73854
 C163 C 0.17708 0.05099 0.74178
 C164 C 0.15923 0.05812 0.77980
 C165 C 0.14413 0.03904 0.77586
 N166 N 0.14543 0.02661 0.75536
 H167 H 0.11967 -0.03918 0.78352
 H168 H 0.08863 0.02754 0.77112
 H169 H 0.06136 0.02188 0.80476
 H170 H 0.09320 -0.04604 0.81736
 H171 H 0.16257 0.02162 0.72258
 H172 H 0.18987 0.05527 0.72825
 H173 H 0.15806 0.06798 0.79613
 H174 H 0.13155 0.03412 0.78927
 C175 C 0.17554 -0.06367 0.73684
 C176 C 0.07532 0.01321 0.68604
 C177 C 0.17580 0.06417 0.76258
 C178 C 0.07545 -0.01247 0.81361
 C179 C 0.58909 0.48873 0.21842
 H180 H 0.58817 0.47273 0.22876
 C181 C 0.57371 0.49202 0.19948
 H182 H 0.56092 0.47849 0.19513
 C183 C 0.60664 0.52611 0.21161
 H184 H 0.61921 0.53951 0.21660
 C185 C 0.59157 0.53010 0.19254
 H186 H 0.59276 0.54647 0.18277
 N187 N 0.60532 0.50555 0.22394
 C188 C 0.66126 0.46817 0.26127
 H189 H 0.66219 0.47855 0.27725
 C190 C 0.67668 0.44925 0.25796
 H191 H 0.68950 0.44495 0.27145
 C192 C 0.64367 0.46125 0.22396
 H193 H 0.63106 0.46619 0.21059
 C194 C 0.65877 0.44220 0.21994
 H195 H 0.65757 0.43238 0.20359
 Zn196 Zn 0.62515 0.49988 0.25020
 N197 N 0.64500 0.47363 0.24449
 C198 C 0.60672 0.47362 0.28880
 N199 N 0.60535 0.49416 0.27646
 C200 C 0.58908 0.51094 0.28198
 C201 C 0.57371 0.50762 0.30093
 C202 C 0.59167 0.46959 0.30788
 C203 C 0.66117 0.53171 0.23911
 C204 C 0.67653 0.55069 0.24239
 C205 C 0.65862 0.55770 0.28042
 C206 C 0.64358 0.53858 0.27642
 N207 N 0.64493 0.52620 0.25589
 H208 H 0.61933 0.46025 0.28382
 H209 H 0.58811 0.52693 0.27163
 H210 H 0.56090 0.52111 0.30527
 H211 H 0.59291 0.45323 0.31767
 H212 H 0.66212 0.52132 0.22313
 H213 H 0.68932 0.55504 0.22889
 H214 H 0.65739 0.56753 0.29676
 H215 H 0.63099 0.53361 0.28980
 C216 C 0.67537 0.43612 0.23712
 C217 C 0.57501 0.51287 0.18640
 C218 C 0.67518 0.56384 0.26322
 C219 C 0.57507 0.48677 0.31402
 C220 C 0.91058 0.51055 0.71820
 H221 H 0.91151 0.52657 0.72853
 C222 C 0.92596 0.50721 0.69926
 H223 H 0.93875 0.52073 0.69491
 C224 C 0.89301 0.47317 0.71140
 H225 H 0.88042 0.45978 0.71639
 C226 C 0.90807 0.46913 0.69233
 H227 H 0.90687 0.45274 0.68256
 N228 N 0.89433 0.49375 0.72372
 C229 C 0.83839 0.53131 0.76093
 H230 H 0.83743 0.52098 0.77693
 C231 C 0.82303 0.55027 0.75758
 H232 H 0.81023 0.55465 0.77106
 C233 C 0.85603 0.53807 0.72362
 H234 H 0.86864 0.53306 0.71027
 C235 C 0.84099 0.55716 0.71957
 H236 H 0.84223 0.56693 0.70321
 Zn237 Zn 0.87449 0.49951 0.74995
 N238 N 0.85466 0.52576 0.74417
 C239 C 0.89290 0.52592 0.78851
 N240 N 0.89427 0.50532 0.77622
 C241 C 0.91053 0.48856 0.78178
 C242 C 0.92589 0.49195 0.80074
 C243 C 0.90794 0.53001 0.80759
 C244 C 0.83846 0.46764 0.73891
 C245 C 0.82310 0.44866 0.74224
 C246 C 0.84099 0.44183 0.78030
 C247 C 0.85603 0.46093 0.77626
 N248 N 0.85469 0.47322 0.75569
 H249 H 0.88030 0.53927 0.78349
 H250 H 0.91150 0.47253 0.77147
 H251 H 0.93869 0.47847 0.80512
 H252 H 0.90670 0.54641 0.81734
 H253 H 0.83752 0.47795 0.72290
 H254 H 0.81032 0.44426 0.72874
 H255 H 0.84220 0.43208 0.79667
 H256 H 0.86860 0.46597 0.78963
 C257 C 0.82440 0.56334 0.73673
 C258 C 0.92464 0.48634 0.68618
 C259 C 0.82443 0.43561 0.76310
 C260 C 0.92452 0.51284 0.81378
 C261 C 0.21794 0.41089 0.01085
 H262 H 0.22834 0.41180 0.02681
 C263 C 0.19900 0.42631 0.00761
 H264 H 0.19471 0.43909 0.02115
 C265 C 0.21100 0.39338 -0.02650
 H266 H 0.21594 0.38080 -0.03992
 C267 C 0.19193 0.40847 -0.03045
 H268 H 0.18211 0.40730 -0.04678
 N269 N 0.22340 0.39467 -0.00599
 C270 C 0.26082 0.33871 0.03126
 H271 H 0.27679 0.33778 0.02086
 C272 C 0.25756 0.32331 0.05019
 H273 H 0.27107 0.31050 0.05447
 C274 C 0.22350 0.35630 0.03823
 H275 H 0.21011 0.36891 0.03332
 C276 C 0.21953 0.34122 0.05729
 H277 H 0.20320 0.34243 0.06713
 Zn278 Zn 0.24968 0.37483 -0.00039
 N279 N 0.24402 0.35497 0.02583
 C280 C 0.28835 0.39327 0.02585
 N281 N 0.27597 0.39465 0.00533
 C282 C 0.28145 0.41093 -0.01142
 C283 C 0.30041 0.42632 -0.00809
 C284 C 0.30744 0.40834 0.02987
 C285 C 0.23855 0.33883 -0.03225
 C286 C 0.24185 0.32346 -0.05122
 C287 C 0.27991 0.34138 -0.05815
 C288 C 0.27590 0.35642 -0.03906
 N289 N 0.25535 0.35507 -0.02671
 H290 H 0.28339 0.38065 0.03919
 H291 H 0.27107 0.41190 -0.02738
 H292 H 0.30473 0.43915 -0.02156
 H293 H 0.31726 0.40710 0.04621
 H294 H 0.22255 0.33787 -0.02189
 H295 H 0.22834 0.31066 -0.05558
 H296 H 0.29627 0.34260 -0.06794
 H297 H 0.28929 0.36901 -0.03405
 C298 C 0.23675 0.32463 0.06335
 C299 C 0.18586 0.42503 -0.01320
 C300 C 0.26270 0.32480 -0.06431
 C301 C 0.31354 0.42495 0.01272
 C302 C 0.71880 0.08847 -0.01115
 H303 H 0.72915 0.08754 -0.02714
 C304 C 0.69982 0.07310 -0.00787
 H305 H 0.69545 0.06033 -0.02139
 C306 C 0.71200 0.10601 0.02622
 H307 H 0.71700 0.11858 0.03962
 C308 C 0.69290 0.09096 0.03020
 H309 H 0.68311 0.09216 0.04656
 N310 N 0.72434 0.10469 0.00567
 C311 C 0.76174 0.16063 -0.03166
 H312 H 0.77773 0.16155 -0.02129
 C313 C 0.75845 0.17605 -0.05056
 H314 H 0.77196 0.18886 -0.05485
 C315 C 0.72440 0.14305 -0.03857
 H316 H 0.71101 0.13044 -0.03364
 C317 C 0.72040 0.15815 -0.05760
 H318 H 0.70404 0.15696 -0.06741
 Zn319 Zn 0.75063 0.12450 0.00000
 N320 N 0.74494 0.14437 -0.02621
 C321 C 0.78925 0.10607 -0.02628
 N322 N 0.77690 0.10469 -0.00574
 C323 C 0.78242 0.08841 0.01100
 C324 C 0.80138 0.07304 0.00765
 C325 C 0.80834 0.09102 -0.03033
 C326 C 0.73956 0.16054 0.03182
 C327 C 0.74287 0.17591 0.05079
 C328 C 0.78090 0.15797 0.05777
 C329 C 0.77689 0.14292 0.03867
 N330 N 0.75634 0.14429 0.02631
 H331 H 0.78427 0.11868 -0.03963
 H332 H 0.77206 0.08744 0.02698
 H333 H 0.80572 0.06022 0.02111
 H334 H 0.81813 0.09226 -0.04668
 H335 H 0.72357 0.16150 0.02146
 H336 H 0.72936 0.18871 0.05514
 H337 H 0.79725 0.15674 0.06757
 H338 H 0.79026 0.13032 0.03368
 C339 C 0.73761 0.17475 -0.06367
 C340 C 0.68673 0.07442 0.01298
 C341 C 0.76370 0.17455 0.06391
 C342 C 0.81448 0.07441 -0.01319
 C343 C 0.21791 0.58900 0.48878
 H344 H 0.22833 0.58808 0.47283
 C345 C 0.19896 0.57359 0.49201
 H346 H 0.19469 0.56078 0.47849
 C347 C 0.21092 0.60658 0.52610
 H348 H 0.21584 0.61918 0.53950
 C349 C 0.19184 0.59148 0.53003
 H350 H 0.18199 0.59267 0.54635
 N351 N 0.22334 0.60526 0.50560
 C352 C 0.26084 0.66119 0.46835
 H353 H 0.27679 0.66214 0.47878
 C354 C 0.25761 0.67658 0.44942
 H355 H 0.27113 0.68940 0.44516
 C356 C 0.22354 0.64357 0.46132
 H357 H 0.21014 0.63096 0.46622
 C358 C 0.21960 0.65864 0.44225
 H359 H 0.20328 0.65742 0.43239
 Zn360 Zn 0.24963 0.62510 0.50002
 N361 N 0.24403 0.64492 0.47376
 C362 C 0.28837 0.60664 0.47391
 N363 N 0.27594 0.60529 0.49440
 C364 C 0.28139 0.58904 0.51119
 C365 C 0.30035 0.57366 0.50793
 C366 C 0.30746 0.59158 0.46995
 C367 C 0.23841 0.66116 0.53178
 C368 C 0.24165 0.67655 0.55073
 C369 C 0.27968 0.65866 0.55783
 C370 C 0.27574 0.64358 0.53874
 N371 N 0.25523 0.64491 0.52632
 H372 H 0.28343 0.61924 0.46053
 H373 H 0.27097 0.58809 0.52713
 H374 H 0.30464 0.56085 0.52143
 H375 H 0.31731 0.59279 0.45363
 H376 H 0.22246 0.66209 0.52136
 H377 H 0.22813 0.68935 0.55503
 H378 H 0.29601 0.65746 0.56768
 H379 H 0.28914 0.63099 0.53381
 C380 C 0.23682 0.67524 0.43622
 C381 C 0.18579 0.57489 0.51281
 C382 C 0.26246 0.67524 0.56391
 C383 C 0.31353 0.57499 0.48714
 C384 C 0.71840 0.91193 0.51122
 H385 H 0.72875 0.91290 0.52722
 C386 C 0.69941 0.92727 0.50791
 H387 H 0.69503 0.94006 0.52142
 C388 C 0.71162 0.89432 0.47388
 H389 H 0.71664 0.88174 0.46050
 C390 C 0.69250 0.90934 0.46987
 H391 H 0.68272 0.90810 0.45351
 N392 N 0.72395 0.89569 0.49443
 C393 C 0.76135 0.83982 0.53185
 H394 H 0.77735 0.83890 0.52149
 C395 C 0.75804 0.82441 0.55075
 H396 H 0.77155 0.81161 0.55507
 C397 C 0.72400 0.85739 0.53872
 H398 H 0.71061 0.86998 0.53376
 C399 C 0.71998 0.84230 0.55776
 H400 H 0.70362 0.84348 0.56754
 Zn401 Zn 0.75025 0.87590 0.50013
 N402 N 0.74455 0.85607 0.52637
 C403 C 0.78886 0.89440 0.52640
 N404 N 0.77652 0.89574 0.50586
 C405 C 0.78204 0.91199 0.48910
 C406 C 0.80100 0.92737 0.49242
 C407 C 0.80796 0.90945 0.53043
 C408 C 0.73918 0.83981 0.46837
 C409 C 0.74249 0.82443 0.44941
 C410 C 0.78051 0.84238 0.44241
 C411 C 0.77650 0.85745 0.46149
 N412 N 0.75597 0.85609 0.47386
 H413 H 0.78387 0.88180 0.53977
 H414 H 0.77168 0.91293 0.47311
 H415 H 0.80536 0.94017 0.47893
 H416 H 0.81775 0.90824 0.54679
 H417 H 0.72320 0.83885 0.47874
 H418 H 0.72898 0.81161 0.44509
 H419 H 0.79686 0.84361 0.43260
 H420 H 0.78988 0.87007 0.46646
 C421 C 0.73719 0.82571 0.56385
 C422 C 0.68632 0.92590 0.48707
 C423 C 0.76332 0.82578 0.43629
 C424 C 0.81411 0.92603 0.51326
 C425 C 0.01076 0.21861 0.41102
 H426 H 0.02674 0.22901 0.41197
 C427 C 0.00745 0.19968 0.42641
 H428 H 0.02095 0.19538 0.43922
 C429 C -0.02655 0.21168 0.39340
 H430 H -0.03993 0.21662 0.38079
 C431 C -0.03057 0.19261 0.40847
 H432 H -0.04692 0.18279 0.40724
 N433 N -0.00602 0.22407 0.39476
 C434 C 0.03151 0.26139 0.33893
 H435 H 0.02114 0.27738 0.33797
 C436 C 0.05047 0.25807 0.32358
 H437 H 0.05482 0.27156 0.31078
 C438 C 0.03835 0.22407 0.35654
 H439 H 0.03336 0.21070 0.36913
 C440 C 0.05744 0.22004 0.34151
 H441 H 0.06724 0.20368 0.34274
 Zn442 Zn -0.00032 0.25033 0.37494
 N443 N 0.02599 0.24462 0.35518
 C444 C 0.02588 0.28902 0.39342
 N445 N 0.00533 0.27665 0.39473
 C446 C -0.01148 0.28215 0.41095
 C447 C -0.00820 0.30111 0.42633
 C448 C 0.02987 0.30811 0.40849
 C449 C -0.03203 0.23913 0.33886
 C450 C -0.05096 0.24238 0.32346
 C451 C -0.05803 0.28045 0.34131
 C452 C -0.03896 0.27649 0.35640
 N453 N -0.02658 0.25596 0.35510
 H454 H 0.03928 0.28404 0.38085
 H455 H -0.02747 0.27177 0.41187
 H456 H -0.02172 0.30545 0.43911
 H457 H 0.04623 0.31792 0.40730
 H458 H -0.02164 0.22315 0.33795
 H459 H -0.05526 0.22884 0.31067
 H460 H -0.06785 0.29680 0.34249
 H461 H -0.03403 0.28991 0.36899
 C462 C 0.06358 0.23722 0.32493
 C463 C -0.01338 0.18653 0.42506
 C464 C -0.06410 0.26321 0.32475
 C465 C 0.01265 0.31424 0.42504
 C466 C -0.01097 0.71811 0.08839
 H467 H -0.02694 0.72851 0.08748
 C468 C -0.00773 0.69914 0.07301
 H469 H -0.02127 0.69481 0.06024
 C470 C 0.02640 0.71122 0.10588
 H471 H 0.03982 0.71618 0.11844
 C472 C 0.03035 0.69211 0.09082
 H473 H 0.04669 0.68229 0.09200
 N474 N 0.00587 0.72361 0.10459
 C475 C -0.03141 0.76109 0.16052
 H476 H -0.02100 0.77707 0.16144
 C477 C -0.05033 0.75784 0.17594
 H478 H -0.05460 0.77137 0.18874
 C479 C -0.03840 0.72375 0.14295
 H480 H -0.03349 0.71035 0.13034
 C481 C -0.05746 0.71979 0.15805
 H482 H -0.06730 0.70345 0.15686
 Zn483 Zn 0.00026 0.74992 0.12440
 N484 N -0.02599 0.74428 0.14426
 C485 C -0.02597 0.78858 0.10601
 N486 N -0.00544 0.77620 0.10462
 C487 C 0.01133 0.78168 0.08835
 C488 C 0.00802 0.80065 0.07300
 C489 C -0.02998 0.80768 0.09098
 C490 C 0.03208 0.73881 0.16039
 C491 C 0.05104 0.74212 0.17576
 C492 C 0.05805 0.78016 0.15786
 C493 C 0.03896 0.77614 0.14281
 N494 N 0.02658 0.75560 0.14416
 H495 H -0.03934 0.78362 0.11862
 H496 H 0.02731 0.77130 0.08737
 H497 H 0.02151 0.80497 0.06018
 H498 H -0.04633 0.81750 0.09223
 H499 H 0.02170 0.72282 0.16134
 H500 H 0.05537 0.72862 0.18855
 H501 H 0.06785 0.79652 0.15665
 H502 H 0.03398 0.78953 0.13023
 C503 C -0.06350 0.73702 0.17464
 C504 C 0.01310 0.68599 0.07429
 C505 C 0.06416 0.76297 0.17443
 C506 C -0.01280 0.81379 0.07438
 C507 C 0.48871 0.21784 0.58954
 H508 H 0.47271 0.22819 0.58859
 C509 C 0.49205 0.19889 0.57415
 H510 H 0.47855 0.19454 0.56134
 C511 C 0.52604 0.21103 0.60714
 H512 H 0.53941 0.21602 0.61974
 C513 C 0.53009 0.19195 0.59208
 H514 H 0.54646 0.18217 0.59329
 N515 N 0.50548 0.22336 0.60580
 C516 C 0.46791 0.26073 0.66161
 H517 H 0.47826 0.27675 0.66257
 C518 C 0.44894 0.25741 0.67696
 H519 H 0.44457 0.27093 0.68975
 C520 C 0.46112 0.22337 0.64402
 H521 H 0.46612 0.20998 0.63144
 C522 C 0.44202 0.21934 0.65905
 H523 H 0.43224 0.20296 0.65782
 Zn524 Zn 0.49975 0.24965 0.62560
 N525 N 0.47345 0.24394 0.64538
 C526 C 0.47349 0.28827 0.60711
 N527 N 0.49404 0.27591 0.60579
 C528 C 0.51084 0.28140 0.58955
 C529 C 0.50754 0.30033 0.57417
 C530 C 0.46949 0.30734 0.59205
 C531 C 0.53154 0.23862 0.66165
 C532 C 0.55051 0.24195 0.67700
 C533 C 0.55746 0.28000 0.65909
 C534 C 0.53836 0.27596 0.64406
 N535 N 0.52601 0.25540 0.64541
 H536 H 0.46011 0.28331 0.61970
 H537 H 0.52684 0.27103 0.58862
 H538 H 0.52105 0.30466 0.56138
 H539 H 0.45313 0.31714 0.59325
 H540 H 0.52118 0.22262 0.66259
 H541 H 0.55487 0.22846 0.68978
 H542 H 0.56725 0.29637 0.65787
 H543 H 0.53337 0.28933 0.63148
 C544 C 0.43585 0.23655 0.67561
 C545 C 0.51290 0.18580 0.57549
 C546 C 0.56361 0.26281 0.67565
 C547 C 0.48670 0.31345 0.57548
 C548 C 0.51098 0.71876 0.91117
 H549 H 0.52697 0.72915 0.91210
 C550 C 0.50771 0.69980 0.92654
 H551 H 0.52124 0.69549 0.93931
 C552 C 0.47363 0.71184 0.89363
 H553 H 0.46023 0.71680 0.88105
 C554 C 0.46965 0.69276 0.90867
 H555 H 0.45330 0.68293 0.90748
 N556 N 0.49417 0.72423 0.89495
 C557 C 0.53155 0.76165 0.83909
 H558 H 0.52118 0.77764 0.83818
 C559 C 0.55049 0.75835 0.82369
 H560 H 0.55480 0.77187 0.81090
 C561 C 0.53845 0.72431 0.85663
 H562 H 0.53349 0.71092 0.86922
 C563 C 0.55751 0.72030 0.84155
 H564 H 0.56732 0.70395 0.84273
 Zn565 Zn 0.49982 0.75052 0.87516
 N566 N 0.52608 0.74485 0.85533
 C567 C 0.52607 0.78918 0.89364
 N568 N 0.50552 0.77681 0.89498
 C569 C 0.48875 0.78229 0.91124
 C570 C 0.49207 0.80124 0.92665
 C571 C 0.53010 0.80826 0.90872
 C572 C 0.46801 0.73940 0.83915
 C573 C 0.44903 0.74268 0.82380
 C574 C 0.44204 0.78073 0.84173
 C575 C 0.46114 0.77674 0.85677
 N576 N 0.47351 0.75620 0.85540
 H577 H 0.53944 0.78422 0.88103
 H578 H 0.47276 0.77192 0.91219
 H579 H 0.47857 0.80556 0.93946
 H580 H 0.54646 0.81806 0.90752
 H581 H 0.47838 0.72341 0.83819
 H582 H 0.44469 0.72917 0.81100
 H583 H 0.43223 0.79709 0.84296
 H584 H 0.46612 0.79013 0.86936
 C585 C 0.56361 0.73751 0.82498
 C586 C 0.48688 0.68666 0.92522
 C587 C 0.43591 0.76352 0.82516
 C588 C 0.51291 0.81436 0.92532
 C589 C 0.17079 0.21614 0.23913
 C590 C 0.15440 0.21939 0.25227
 C591 C 0.13520 0.22319 0.26764
 C592 C 0.11880 0.22642 0.28077
 C593 C 0.09959 0.23019 0.29614
 C594 C 0.08318 0.23340 0.30926
 C595 C 0.67071 0.71655 0.73903
 C596 C 0.65433 0.71979 0.75218
 C597 C 0.63514 0.72357 0.76757
 C598 C 0.61875 0.72679 0.78071
 C599 C 0.59956 0.73054 0.79611
 C600 C 0.58317 0.73373 0.80927
 C601 C 0.32863 0.78435 0.73941
 C602 C 0.34503 0.78113 0.75254
 C603 C 0.36424 0.77738 0.76791
 C604 C 0.38065 0.77419 0.78102
 C605 C 0.39988 0.77046 0.79638
 C606 C 0.41630 0.76729 0.80950
 C607 C -0.17119 0.28383 0.23871
 C608 C -0.15481 0.28065 0.25188
 C609 C -0.13563 0.27693 0.26729
 C610 C -0.11925 0.27377 0.28045
 C611 C -0.10006 0.27008 0.29586
 C612 C -0.08367 0.26694 0.30903
 C613 C -0.17057 0.71655 0.26075
 C614 C -0.15419 0.71971 0.24757
 C615 C -0.13501 0.72339 0.23215
 C616 C -0.11862 0.72651 0.21898
 C617 C -0.09944 0.73016 0.20355
 C618 C -0.08305 0.73328 0.19037
 C619 C 0.32839 0.21561 0.76112
 C620 C 0.34484 0.21882 0.74804
 C621 C 0.36410 0.22258 0.73274
 C622 C 0.38055 0.22579 0.71967
 C623 C 0.39980 0.22955 0.70434
 C624 C 0.41623 0.23274 0.69125
 C625 C 0.67110 0.28378 0.76115
 C626 C 0.65465 0.28055 0.74807
 C627 C 0.63539 0.27677 0.73276
 C628 C 0.61894 0.27356 0.71969
 C629 C 0.59968 0.26981 0.70438
 C630 C 0.58324 0.26662 0.69129
 C631 C 0.17121 0.78399 0.26047
 C632 C 0.15485 0.78075 0.24729
 C633 C 0.13568 0.77697 0.23187
 C634 C 0.11931 0.77375 0.21870
 C635 C 0.10012 0.76998 0.20329
 C636 C 0.08374 0.76678 0.19013
 C637 C 0.23919 0.17062 0.21620
 C638 C 0.25232 0.15422 0.21944
 C639 C 0.26770 0.13501 0.22323
 C640 C 0.28081 0.11860 0.22645
 C641 C 0.29618 0.09938 0.23021
 C642 C 0.30930 0.08296 0.23341
 C643 C 0.73895 0.67089 0.71588
 C644 C 0.75201 0.65443 0.71905
 C645 C 0.76731 0.63514 0.72278
 C646 C 0.78037 0.61868 0.72597
 C647 C 0.79568 0.59942 0.72972
 C648 C 0.80876 0.58297 0.73292
 C649 C 0.73874 0.32824 0.78416
 C650 C 0.75186 0.34466 0.78091
 C651 C 0.76722 0.36389 0.77712
 C652 C 0.78032 0.38032 0.77389
 C653 C 0.79567 0.39956 0.77012
 C654 C 0.80877 0.41600 0.76692
 C655 C 0.23875 -0.17157 0.28382
 C656 C 0.25191 -0.15518 0.28063
 C657 C 0.26731 -0.13597 0.27691
 C658 C 0.28046 -0.11957 0.27374
 C659 C 0.29586 -0.10035 0.27005
 C660 C 0.30902 -0.08395 0.26690
 C661 C 0.26112 -0.17119 0.71616
 C662 C 0.24801 -0.15475 0.71935
 C663 C 0.23268 -0.13549 0.72306
 C664 C 0.21959 -0.11904 0.72623
 C665 C 0.20427 -0.09977 0.72993
 C666 C 0.19118 -0.08331 0.73309
 C667 C 0.76145 0.32901 0.21641
 C668 C 0.74829 0.34540 0.21958
 C669 C 0.73287 0.36460 0.22329
 C670 C 0.71971 0.38099 0.22644
 C671 C 0.70428 0.40018 0.23015
 C672 C 0.69111 0.41656 0.23332
 C673 C 0.76100 0.67120 0.28391
 C674 C 0.74785 0.65479 0.28074
 C675 C 0.73246 0.63557 0.27702
 C676 C 0.71933 0.61915 0.27385
 C677 C 0.70396 0.59991 0.27014
 C678 C 0.69084 0.58347 0.26698
 C679 C 0.26178 0.17141 0.78330
 C680 C 0.24864 0.15500 0.78008
 C681 C 0.23325 0.13578 0.77633
 C682 C 0.22010 0.11938 0.77315
 C683 C 0.20470 0.10016 0.76945
 C684 C 0.19153 0.08376 0.76631
 C685 C 0.21616 0.23891 0.17064
 C686 C 0.21934 0.25201 0.15421
 C687 C 0.22305 0.26735 0.13498
 C688 C 0.22620 0.28046 0.11856
 C689 C 0.22988 0.29582 0.09934
 C690 C 0.23301 0.30895 0.08293
 C691 C 0.71622 0.73955 0.67070
 C692 C 0.71947 0.75273 0.65436
 C693 C 0.72325 0.76817 0.63522
 C694 C 0.72646 0.78135 0.61888
 C695 C 0.73020 0.79679 0.59973
 C696 C 0.73339 0.80998 0.58338
 C697 C 0.78411 0.73976 0.32916
 C698 C 0.78092 0.75294 0.34553
 C699 C 0.77718 0.76837 0.36471
 C700 C 0.77399 0.78153 0.38110
 C701 C 0.77027 0.79694 0.40030
 C702 C 0.76709 0.81009 0.41670
 C703 C 0.28379 0.23889 -0.17147
 C704 C 0.28053 0.25204 -0.15509
 C705 C 0.27672 0.26744 -0.13590
 C706 C 0.27349 0.28058 -0.11951
 C707 C 0.26971 0.29597 -0.10031
 C708 C 0.26651 0.30911 -0.08390
 C709 C 0.71675 0.26082 -0.17062
 C710 C 0.71999 0.24766 -0.15426
 C711 C 0.72375 0.23225 -0.13509
 C712 C 0.72694 0.21909 -0.11873
 C713 C 0.73066 0.20366 -0.09957
 C714 C 0.73383 0.19049 -0.08320
 C715 C 0.21641 0.76111 0.32903
 C716 C 0.21956 0.74798 0.34543
 C717 C 0.22323 0.73261 0.36465
 C718 C 0.22635 0.71948 0.38105
 C719 C 0.23000 0.70410 0.40026
 C720 C 0.23310 0.69095 0.41666
 C721 C 0.28316 0.76128 0.67104
 C722 C 0.27995 0.74811 0.65466
 C723 C 0.27621 0.73270 0.63548
 C724 C 0.27303 0.71953 0.61909
 C725 C 0.26933 0.70412 0.59989
 C726 C 0.26619 0.69096 0.58349
 C727 C 0.78453 0.26050 0.17110
 C728 C 0.78133 0.24732 0.15472
 C729 C 0.77759 0.23191 0.13553
 C730 C 0.77440 0.21876 0.11914
 C731 C 0.77067 0.20337 0.09992
 C732 C 0.76749 0.19023 0.08351
 C733 C 0.46608 0.42059 0.48957
 C734 C 0.46924 0.40420 0.50272
 C735 C 0.47292 0.38501 0.51811
 C736 C 0.47607 0.36861 0.53125
 C737 C 0.47976 0.34941 0.54664
 C738 C 0.48291 0.33301 0.55978
 C739 C -0.03373 0.92115 -0.01118
 C740 C -0.03052 0.90473 0.00191
 C741 C -0.02675 0.88549 0.01723
 C742 C -0.02354 0.86906 0.03031
 C743 C -0.01979 0.84982 0.04563
 C744 C -0.01660 0.83339 0.05873
 C745 C 0.03365 0.57864 -0.01156
 C746 C 0.03048 0.59506 0.00158
 C747 C 0.02677 0.61429 0.01695
 C748 C 0.02362 0.63072 0.03008
 C749 C 0.01995 0.64995 0.04546
 C750 C 0.01682 0.66638 0.05860
 C751 C 0.53406 0.07867 0.48952
 C752 C 0.53079 0.09505 0.50268
 C753 C 0.52698 0.11424 0.51808
 C754 C 0.52374 0.13063 0.53123
 C755 C 0.51995 0.14982 0.54663
 C756 C 0.51673 0.16622 0.55979
 C757 C -0.03411 0.07934 0.51090
 C758 C -0.03093 0.09574 0.49776
 C759 C -0.02721 0.11495 0.48239
 C760 C -0.02404 0.13135 0.46927
 C761 C -0.02034 0.15056 0.45389
 C762 C -0.01717 0.16696 0.44076
 C763 C 0.46619 0.57937 1.01095
 C764 C 0.46939 0.59578 0.99785
 C765 C 0.47311 0.61501 0.98250
 C766 C 0.47628 0.63143 0.96939
 C767 C 0.47998 0.65065 0.95403
 C768 C 0.48312 0.66707 0.94091
 C769 C 0.53397 0.92140 1.01145
 C770 C 0.53072 0.90503 0.99826
 C771 C 0.52692 0.88586 0.98283
 C772 C 0.52370 0.86949 0.96965
 C773 C 0.51993 0.85031 0.95422
 C774 C 0.51672 0.83393 0.94105
 C775 C 0.03349 0.42136 0.51112
 C776 C 0.03027 0.40498 0.49794
 C777 C 0.02652 0.38580 0.48251
 C778 C 0.02333 0.36941 0.46934
 C779 C 0.01960 0.35022 0.45392
 C780 C 0.01642 0.33382 0.44075
 C781 C 0.42075 0.48906 0.46650
 C782 C 0.40436 0.50222 0.46968
 C783 C 0.38516 0.51762 0.47339
 C784 C 0.36875 0.53076 0.47656
 C785 C 0.34953 0.54615 0.48025
 C786 C 0.33312 0.55929 0.48340
 C787 C 0.92183 -0.01126 -0.03428
 C788 C 0.90541 0.00185 -0.03105
 C789 C 0.88616 0.01719 -0.02727
 C790 C 0.86974 0.03028 -0.02403
 C791 C 0.85050 0.04563 -0.02024
 C792 C 0.83408 0.05874 -0.01702
 C793 C 0.57934 -0.01131 0.03375
 C794 C 0.59576 0.00181 0.03055
 C795 C 0.61500 0.01717 0.02681
 C796 C 0.63143 0.03028 0.02362
 C797 C 0.65068 0.04563 0.01990
 C798 C 0.66711 0.05875 0.01674
 C799 C 0.07869 0.48876 0.53342
 C800 C 0.09507 0.50194 0.53024
 C801 C 0.11425 0.51737 0.52652
 C802 C 0.13064 0.53054 0.52335
 C803 C 0.14983 0.54597 0.51967
 C804 C 0.16622 0.55915 0.51653
 C805 C 0.07879 0.51116 -0.03372
 C806 C 0.09517 0.49799 -0.03054
 C807 C 0.11435 0.48256 -0.02685
 C808 C 0.13073 0.46939 -0.02371
 C809 C 0.14991 0.45395 -0.02004
 C810 C 0.16629 0.44077 -0.01693
 C811 C 0.57871 1.01128 0.46620
 C812 C 0.59518 0.99822 0.46939
 C813 C 0.61447 0.98293 0.47313
 C814 C 0.63094 0.96988 0.47634
 C815 C 0.65022 0.95459 0.48009
 C816 C 0.66668 0.94152 0.48328
 C817 C 0.92150 1.01176 0.53415
 C818 C 0.90508 0.99863 0.53095
 C819 C 0.88584 0.98327 0.52719
 C820 C 0.86941 0.97017 0.52399
 C821 C 0.85016 0.95482 0.52024
 C822 C 0.83372 0.94170 0.51706
 C823 C 0.42076 0.51086 0.03376
 C824 C 0.40437 0.49771 0.03051
 C825 C 0.38516 0.48232 0.02672
 C826 C 0.36876 0.46918 0.02349
 C827 C 0.34954 0.45380 0.01973
 C828 C 0.33313 0.44065 0.01653
 C829 C 0.48921 0.46594 0.42119
 C830 C 0.50237 0.46913 0.40481
 C831 C 0.51777 0.47285 0.38562
 C832 C 0.53090 0.47604 0.36922
 C833 C 0.54627 0.47977 0.35001
 C834 C 0.55939 0.48296 0.33360
 C835 C -0.01067 -0.03326 0.92058
 C836 C 0.00251 -0.03002 0.90422
 C837 C 0.01794 -0.02626 0.88507
 C838 C 0.03111 -0.02307 0.86870
 C839 C 0.04654 -0.01936 0.84954
 C840 C 0.05972 -0.01621 0.83317
 C841 C -0.01095 0.03388 0.57918
 C842 C 0.00224 0.03068 0.59553
 C843 C 0.01770 0.02696 0.61467
 C844 C 0.03090 0.02379 0.63101
 C845 C 0.04636 0.02009 0.65015
 C846 C 0.05957 0.01695 0.66651
 C847 C 0.48917 0.53382 0.07925
 C848 C 0.50231 0.53058 0.09563
 C849 C 0.51768 0.52680 0.11483
 C850 C 0.53081 0.52359 0.13122
 C851 C 0.54619 0.51984 0.15043
 C852 C 0.55932 0.51665 0.16682
 C853 C 0.51092 -0.03434 0.07917
 C854 C 0.49780 -0.03116 0.09559
 C855 C 0.48243 -0.02746 0.11481
 C856 C 0.46931 -0.02431 0.13122
 C857 C 0.45393 -0.02061 0.15044
 C858 C 0.44079 -0.01744 0.16684
 C859 C 1.01036 0.46554 0.57887
 C860 C 0.99725 0.46870 0.59529
 C861 C 0.98190 0.47242 0.61453
 C862 C 0.96880 0.47560 0.63096
 C863 C 0.95344 0.47933 0.65019
 C864 C 0.94032 0.48253 0.66660
 C865 C 1.01033 0.53415 0.92094
 C866 C 0.99718 0.53090 0.90456
 C867 C 0.98179 0.52708 0.88537
 C868 C 0.96867 0.52381 0.86898
 C869 C 0.95330 0.51998 0.84978
 C870 C 0.94019 0.51672 0.83337
 C871 C 0.51118 0.03318 0.42109
 C872 C 0.49802 0.02995 0.40471
 C873 C 0.48261 0.02619 0.38553
 C874 C 0.46945 0.02300 0.36916
 C875 C 0.45403 0.01928 0.34998
 C876 C 0.44086 0.01612 0.33359
   
