data_POSCAR
  _audit_creation_date              2014-09-24
  _audit_creation_method            'ToBaCCo'
  _symmetry_space_group_name_H-M    'P1'
  _symmetry_Int_Tables_number       1
  _symmetry_cell_setting            triclinic
  loop_
  _symmetry_equiv_pos_as_xyz
 x,y,z
_cell_length_a 53.9696
_cell_length_b 53.9624
_cell_length_c 53.9335
_cell_angle_alpha 89.087500
_cell_angle_beta 89.102100
_cell_angle_gamma 89.125100
loop_
  _atom_site_label
  _atom_site_type_symbol
  _atom_site_fract_x
  _atom_site_fract_y
  _atom_site_fract_z
C1 C 0.74756 0.61444 1.03226
 C2 C 0.75956 0.62491 1.01143
 C3 C 0.78310 0.63529 1.01395
 C4 C 0.79437 0.63542 1.03720
 C5 C 0.78235 0.62468 1.05787
 C6 C 0.75902 0.61408 1.05537
 C7 C 0.74755 0.62461 0.98704
 C8 C 0.72359 0.63470 0.98415
 C9 C 0.71199 0.63387 0.96113
 C10 C 0.72411 0.62253 0.94106
 C11 C 0.74788 0.61223 0.94389
 C12 C 0.75969 0.61352 0.96676
 H13 H 0.72951 0.60617 1.03030
 H14 H 0.79237 0.64355 0.99792
 H15 H 0.71413 0.64338 0.99971
 H16 H 0.77804 0.60539 0.96896
 H17 H 0.79113 0.62460 1.07585
 H18 H 0.71505 0.62167 0.92329
 C19 C 0.74389 0.39228 0.46783
 C20 C 0.75583 0.38154 0.48839
 C21 C 0.77975 0.37123 0.48541
 C22 C 0.79145 0.37143 0.46203
 C23 C 0.77950 0.38240 0.44167
 C24 C 0.75579 0.39293 0.44459
 C25 C 0.74333 0.38123 0.51294
 C26 C 0.71956 0.37120 0.51587
 C27 C 0.70776 0.37093 0.53919
 C28 C 0.71948 0.38112 0.55957
 C29 C 0.74305 0.39135 0.55671
 C30 C 0.75504 0.39117 0.53351
 H31 H 0.72552 0.40044 0.47003
 H32 H 0.78898 0.36265 0.50113
 H33 H 0.71048 0.36325 0.50013
 H34 H 0.77329 0.39914 0.53135
 H35 H 0.78857 0.38262 0.42358
 H36 H 0.71032 0.38101 0.57762
 C37 C 0.24349 -0.10970 -0.03218
 C38 C 0.25547 -0.12055 -0.01171
 C39 C 0.27941 -0.13077 -0.01476
 C40 C 0.29114 -0.13037 -0.03815
 C41 C 0.27912 -0.11926 -0.05844
 C42 C 0.25538 -0.10883 -0.05542
 C43 C 0.24300 -0.12096 0.01287
 C44 C 0.21924 -0.13101 0.01581
 C45 C 0.20744 -0.13127 0.03916
 C46 C 0.21917 -0.12101 0.05952
 C47 C 0.24274 -0.11076 0.05662
 C48 C 0.25472 -0.11097 0.03341
 H49 H 0.22511 -0.10158 -0.02991
 H50 H 0.28864 -0.13940 0.00095
 H51 H 0.21020 -0.13896 0.00003
 H52 H 0.27294 -0.10295 0.03122
 H53 H 0.28814 -0.11881 -0.07656
 H54 H 0.21006 -0.12103 0.07760
 C55 C 0.24732 0.11325 0.53168
 C56 C 0.25937 0.12370 0.51086
 C57 C 0.28291 0.13406 0.51342
 C58 C 0.29411 0.13419 0.53669
 C59 C 0.28206 0.12349 0.55732
 C60 C 0.25874 0.11292 0.55480
 C61 C 0.24738 0.12344 0.48646
 C62 C 0.22342 0.13352 0.48356
 C63 C 0.21188 0.13281 0.46051
 C64 C 0.22405 0.12159 0.44040
 C65 C 0.24783 0.11129 0.44324
 C66 C 0.25958 0.11247 0.46614
 H67 H 0.22927 0.10499 0.52978
 H68 H 0.29225 0.14233 0.49746
 H69 H 0.21393 0.14212 0.49914
 H70 H 0.27794 0.10436 0.46833
 H71 H 0.29079 0.12344 0.57530
 H72 H 0.21504 0.12083 0.42260
 C73 C 0.11280 0.53211 0.24688
 C74 C 0.12329 0.51131 0.25892
 C75 C 0.13366 0.51388 0.28247
 C76 C 0.13376 0.53712 0.29370
 C77 C 0.12302 0.55774 0.28168
 C78 C 0.11243 0.55522 0.25833
 C79 C 0.12308 0.48693 0.24692
 C80 C 0.13319 0.48407 0.22295
 C81 C 0.13252 0.46103 0.21139
 C82 C 0.12132 0.44090 0.22357
 C83 C 0.11100 0.44370 0.24735
 C84 C 0.11213 0.46659 0.25912
 H85 H 0.10455 0.53013 0.22882
 H86 H 0.14195 0.49794 0.29180
 H87 H 0.14177 0.49966 0.21345
 H88 H 0.10401 0.46876 0.27749
 H89 H 0.12298 0.57568 0.29048
 H90 H 0.12060 0.42312 0.21454
 C91 C -0.10874 -0.03250 0.24373
 C92 C -0.11956 -0.01202 0.25569
 C93 C -0.12981 -0.01504 0.27965
 C94 C -0.12946 -0.03841 0.29140
 C95 C -0.11838 -0.05871 0.27941
 C96 C -0.10792 -0.05572 0.25565
 C97 C -0.11996 0.01253 0.24317
 C98 C -0.13000 0.01543 0.21939
 C99 C -0.13029 0.03876 0.20756
 C100 C -0.12008 0.05914 0.21929
 C101 C -0.10985 0.05629 0.24287
 C102 C -0.11002 0.03310 0.25488
 H103 H -0.10061 -0.03026 0.22533
 H104 H -0.13843 0.00068 0.28886
 H105 H -0.13792 -0.00037 0.21037
 H106 H -0.10202 0.03094 0.27312
 H107 H -0.11799 -0.07682 0.28845
 H108 H -0.12014 0.07721 0.21015
 C109 C 0.39158 0.46783 0.74411
 C110 C 0.38081 0.48835 0.75603
 C111 C 0.37046 0.48537 0.77995
 C112 C 0.37066 0.46199 0.79170
 C113 C 0.38170 0.44165 0.77974
 C114 C 0.39225 0.44460 0.75602
 C115 C 0.38051 0.51289 0.74351
 C116 C 0.37048 0.51581 0.71973
 C117 C 0.37025 0.53912 0.70791
 C118 C 0.38048 0.55948 0.71960
 C119 C 0.39072 0.55663 0.74318
 C120 C 0.39050 0.53344 0.75521
 H121 H 0.39977 0.47004 0.72573
 H122 H 0.36187 0.50112 0.78913
 H123 H 0.36251 0.50008 0.71067
 H124 H 0.39848 0.53128 0.77346
 H125 H 0.38196 0.42354 0.78877
 H126 H 0.38041 0.57751 0.71042
 C127 C 0.61458 1.03171 0.74795
 C128 C 0.62503 1.01086 0.75990
 C129 C 0.63545 1.01332 0.78344
 C130 C 0.63563 1.03655 0.79475
 C131 C 0.62490 1.05722 0.78277
 C132 C 0.61428 1.05477 0.75945
 C133 C 0.62467 0.98652 0.74783
 C134 C 0.63475 0.98367 0.72384
 C135 C 0.63389 0.96069 0.71220
 C136 C 0.62253 0.94061 0.72430
 C137 C 0.61224 0.94340 0.74810
 C138 C 0.61357 0.96623 0.75996
 H139 H 0.60627 1.02987 0.72990
 H140 H 0.64369 0.99728 0.79267
 H141 H 0.64344 0.99923 0.71440
 H142 H 0.60546 0.96839 0.77833
 H143 H 0.62483 1.07520 0.79152
 H144 H 0.62165 0.92287 0.71520
 C145 C -0.03219 0.24356 -0.10909
 C146 C -0.01174 0.25558 -0.11992
 C147 C -0.01481 0.27954 -0.13015
 C148 C -0.03820 0.29123 -0.12976
 C149 C -0.05847 0.27917 -0.11867
 C150 C -0.05543 0.25541 -0.10825
 C151 C 0.01283 0.24314 -0.12034
 C152 C 0.01577 0.21935 -0.13033
 C153 C 0.03911 0.20758 -0.13060
 C154 C 0.05947 0.21937 -0.12043
 C155 C 0.05658 0.24295 -0.11025
 C156 C 0.03338 0.25490 -0.11043
 H157 H -0.02991 0.22517 -0.10098
 H158 H 0.00089 0.28880 -0.13877
 H159 H -0.00002 0.21028 -0.13821
 H160 H 0.03120 0.27315 -0.10247
 H161 H -0.07659 0.28816 -0.11825
 H162 H 0.07755 0.21028 -0.12048
 C163 C 0.53176 0.24739 0.11286
 C164 C 0.51095 0.25949 0.12323
 C165 C 0.51354 0.28304 0.13356
 C166 C 0.53682 0.29420 0.13373
 C167 C 0.55744 0.28210 0.12311
 C168 C 0.55488 0.25877 0.11257
 C169 C 0.48654 0.24754 0.12294
 C170 C 0.48360 0.22356 0.13300
 C171 C 0.46054 0.21205 0.13226
 C172 C 0.44047 0.22428 0.12103
 C173 C 0.44335 0.24807 0.11077
 C174 C 0.46626 0.25979 0.11197
 H175 H 0.52983 0.22933 0.10462
 H176 H 0.49760 0.29243 0.14178
 H177 H 0.49914 0.21403 0.14161
 H178 H 0.46848 0.27816 0.10388
 H179 H 0.57542 0.29079 0.12309
 H180 H 0.42267 0.21528 0.12025
 C181 C 1.03175 0.74791 0.61482
 C182 C 1.01092 0.75985 0.62530
 C183 C 1.01340 0.78339 0.63570
 C184 C 1.03663 0.79470 0.63584
 C185 C 1.05728 0.78273 0.62509
 C186 C 1.05481 0.75942 0.61447
 C187 C 0.98657 0.74778 0.62498
 C188 C 0.98372 0.72381 0.63507
 C189 C 0.96074 0.71216 0.63423
 C190 C 0.94066 0.72425 0.62287
 C191 C 0.94346 0.74804 0.61257
 C192 C 0.96629 0.75990 0.61388
 H193 H 1.02990 0.72987 0.60652
 H194 H 0.99737 0.79261 0.64397
 H195 H 0.99928 0.71438 0.64375
 H196 H 0.96846 0.77826 0.60575
 H197 H 1.07526 0.79148 0.62498
 H198 H 0.92292 0.71515 0.62201
 C199 C 0.46799 0.74386 0.39196
 C200 C 0.48853 0.75583 0.38121
 C201 C 0.48554 0.77976 0.37091
 C202 C 0.46219 0.79146 0.37113
 C203 C 0.44184 0.77948 0.38211
 C204 C 0.44476 0.75575 0.39262
 C205 C 0.51306 0.74333 0.38088
 C206 C 0.51599 0.71958 0.37082
 C207 C 0.53931 0.70780 0.37052
 C208 C 0.55967 0.71951 0.38074
 C209 C 0.55681 0.74306 0.39101
 C210 C 0.53362 0.75504 0.39085
 H211 H 0.47019 0.72548 0.40011
 H212 H 0.50125 0.78901 0.36233
 H213 H 0.50026 0.71051 0.36285
 H214 H 0.53146 0.77327 0.39886
 H215 H 0.42377 0.78855 0.38235
 H216 H 0.57771 0.71036 0.38062
 C217 C 0.40888 -0.02078 0.27987
 H218 H 0.41003 -0.00174 0.28568
 C219 C 0.42153 -0.03955 0.29296
 H220 H 0.43260 -0.03496 0.30878
 C221 C 0.39183 -0.05038 0.25321
 H222 H 0.37962 -0.05475 0.23830
 C223 C 0.40418 -0.06960 0.26568
 H224 H 0.40161 -0.08857 0.26009
 N225 N 0.39423 -0.02651 0.26052
 C226 C 0.37899 0.03989 0.21581
 H227 H 0.35914 0.03779 0.21468
 C228 C 0.39040 0.05975 0.20370
 H229 H 0.37932 0.07299 0.19320
 C230 C 0.41759 0.02540 0.23128
 H231 H 0.42801 0.01197 0.24211
 C232 C 0.42980 0.04514 0.21943
 H233 H 0.44965 0.04697 0.22121
 Zn234 Zn 0.37391 -0.00143 0.24598
 N235 N 0.39255 0.02344 0.22956
 C236 C 0.35623 0.03783 0.27589
 N237 N 0.35469 0.01308 0.27179
 C238 C 0.34061 -0.00180 0.28677
 C239 C 0.32704 0.00825 0.30660
 C240 C 0.34298 0.04859 0.29546
 C241 C 0.36499 -0.02412 0.20111
 C242 C 0.35134 -0.03490 0.18248
 C243 C 0.31397 -0.02709 0.20657
 C244 C 0.32834 -0.01643 0.22480
 N245 N 0.35342 -0.01546 0.22190
 H246 H 0.36798 0.04928 0.26427
 H247 H 0.34009 -0.02149 0.28339
 H248 H 0.31591 -0.00368 0.31849
 H249 H 0.34439 0.06830 0.29863
 H250 H 0.38491 -0.02281 0.19916
 H251 H 0.36075 -0.04197 0.16610
 H252 H 0.29405 -0.02800 0.20904
 H253 H 0.31944 -0.00899 0.24120
 C254 C 0.41597 0.06256 0.20570
 C255 C 0.41889 -0.06421 0.28592
 C256 C 0.32563 -0.03652 0.18529
 C257 C 0.32828 0.03369 0.31095
 C258 C 0.09036 1.02066 0.78290
 H259 H 0.08892 1.00163 0.78930
 C260 C 0.07787 1.03956 0.79575
 H261 H 0.06664 1.03508 0.81199
 C262 C 0.10795 1.05009 0.75493
 H263 H 0.12032 1.05435 0.73959
 C264 C 0.09578 1.06944 0.76714
 H265 H 0.09863 1.08839 0.76092
 N266 N 0.10521 1.02625 0.76301
 C267 C 0.11976 0.95950 0.72022
 H268 H 0.13971 0.96103 0.71885
 C269 C 0.10800 0.94015 0.70861
 H270 H 0.11891 0.92669 0.69827
 C271 C 0.08124 0.97513 0.73552
 H272 H 0.07096 0.98888 0.74599
 C273 C 0.06868 0.95592 0.72415
 H274 H 0.04871 0.95481 0.72597
 Zn275 Zn 0.12528 1.00096 0.74867
 N276 N 0.10639 0.97631 0.73360
 C277 C 0.14313 0.96167 0.77931
 N278 N 0.14448 0.98643 0.77432
 C279 C 0.15864 1.00140 0.78821
 C280 C 0.17257 0.99145 0.80771
 C281 C 0.15675 0.95099 0.79861
 C282 C 0.13447 1.02371 0.70284
 C283 C 0.14825 1.03460 0.68359
 C284 C 0.18550 1.02626 0.70680
 C285 C 0.17099 1.01551 0.72567
 N286 N 0.14591 1.01480 0.72351
 H287 H 0.13132 0.95014 0.76855
 H288 H 0.15902 1.02109 0.78414
 H289 H 0.18382 1.00346 0.81867
 H290 H 0.15555 0.93128 0.80246
 H291 H 0.11454 1.02260 0.70149
 H292 H 0.13895 1.04193 0.66733
 H293 H 0.20542 1.02703 0.70871
 H294 H 0.17980 1.00786 0.74197
 C295 C 0.08227 0.93822 0.71070
 C296 C 0.08088 1.06420 0.78791
 C297 C 0.17397 1.03603 0.68567
 C298 C 0.17161 0.96600 0.81291
 C299 C 0.59145 0.52066 0.28181
 H300 H 0.59016 0.50158 0.28810
 C301 C 0.57887 0.53940 0.29479
 H302 H 0.56772 0.53476 0.31103
 C303 C 0.60879 0.55036 0.25396
 H304 H 0.62110 0.55477 0.23862
 C305 C 0.59652 0.56956 0.26630
 H306 H 0.59924 0.58856 0.26019
 N307 N 0.60622 0.52645 0.26191
 C308 C 0.62104 0.45990 0.21892
 H309 H 0.64098 0.46142 0.21759
 C310 C 0.60929 0.44057 0.20724
 H311 H 0.62020 0.42713 0.19689
 C312 C 0.58249 0.47551 0.23418
 H313 H 0.57219 0.48925 0.24465
 C314 C 0.56994 0.45634 0.22275
 H315 H 0.54997 0.45524 0.22452
 Zn316 Zn 0.62644 0.50135 0.24748
 N317 N 0.60764 0.47668 0.23231
 C318 C 0.64446 0.46206 0.27806
 N319 N 0.64566 0.48684 0.27311
 C320 C 0.65964 0.50189 0.28709
 C321 C 0.67350 0.49202 0.30668
 C322 C 0.65801 0.45146 0.29745
 C323 C 0.63558 0.52437 0.20175
 C324 C 0.64935 0.53543 0.18260
 C325 C 0.68659 0.52715 0.20584
 C326 C 0.67210 0.51622 0.22461
 N327 N 0.64703 0.51540 0.22241
 H328 H 0.63279 0.45047 0.26721
 H329 H 0.65990 0.52159 0.28306
 H330 H 0.68457 0.50411 0.31773
 H331 H 0.65691 0.43174 0.30128
 H332 H 0.61566 0.52318 0.20037
 H333 H 0.64005 0.54281 0.16636
 H334 H 0.70650 0.52800 0.20780
 H335 H 0.68091 0.50852 0.24090
 C336 C 0.58355 0.43866 0.20928
 C337 C 0.58170 0.56410 0.28709
 C338 C 0.67506 0.53698 0.18474
 C339 C 0.67266 0.46657 0.31186
 C340 C 0.90908 0.47867 0.78119
 H341 H 0.91038 0.49766 0.78711
 C342 C 0.92163 0.45974 0.79414
 H343 H 0.93277 0.46415 0.80996
 C344 C 0.89176 0.44937 0.75439
 H345 H 0.87949 0.44517 0.73948
 C346 C 0.90400 0.42999 0.76672
 H347 H 0.90129 0.41107 0.76101
 N348 N 0.89435 0.47317 0.76182
 C349 C 0.87949 0.53985 0.71739
 H350 H 0.85964 0.53779 0.71622
 C351 C 0.89097 0.55972 0.70538
 H352 H 0.87993 0.57302 0.69490
 C353 C 0.91803 0.52522 0.73289
 H354 H 0.92841 0.51173 0.74370
 C355 C 0.93030 0.54499 0.72114
 H356 H 0.95015 0.54677 0.72297
 Zn357 Zn 0.87421 0.49846 0.74739
 N358 N 0.89299 0.52332 0.73111
 C359 C 0.85673 0.53770 0.77742
 N360 N 0.85501 0.51298 0.77321
 C361 C 0.84071 0.49818 0.78806
 C362 C 0.82708 0.50828 0.80783
 C363 C 0.84344 0.54851 0.79693
 C364 C 0.86528 0.47610 0.70236
 C365 C 0.85164 0.46556 0.68359
 C366 C 0.81422 0.47348 0.70757
 C367 C 0.82859 0.48390 0.72595
 N368 N 0.85369 0.48470 0.72317
 H369 H 0.86865 0.54909 0.76590
 H370 H 0.84003 0.47851 0.78460
 H371 H 0.81576 0.49641 0.81960
 H372 H 0.84499 0.56819 0.80015
 H373 H 0.88522 0.47729 0.70050
 H374 H 0.86107 0.45855 0.66720
 H375 H 0.79428 0.47270 0.70995
 H376 H 0.81968 0.49129 0.74237
 C377 C 0.91653 0.56248 0.70744
 C378 C 0.91880 0.43514 0.78696
 C379 C 0.82590 0.46413 0.68627
 C380 C 0.82850 0.53370 0.81226
 C381 C 0.28018 0.40937 -0.02151
 H382 H 0.28602 0.41056 -0.00247
 C383 C 0.29323 0.42197 -0.04034
 H384 H 0.30906 0.43305 -0.03581
 C385 C 0.25347 0.39224 -0.05102
 H386 H 0.23857 0.38001 -0.05533
 C387 C 0.26591 0.40454 -0.07031
 H388 H 0.26030 0.40191 -0.08928
 N389 N 0.26082 0.39469 -0.02716
 C390 C 0.21627 0.37957 0.03940
 H391 H 0.21516 0.35971 0.03735
 C392 C 0.20420 0.39102 0.05924
 H393 H 0.19372 0.37995 0.07253
 C394 C 0.23169 0.41816 0.02477
 H395 H 0.24248 0.42858 0.01129
 C396 C 0.21987 0.43041 0.04450
 H397 H 0.22163 0.45026 0.04627
 Zn398 Zn 0.24633 0.37443 -0.00199
 N399 N 0.22998 0.39311 0.02288
 C400 C 0.27630 0.35681 0.03728
 N401 N 0.27213 0.35522 0.01253
 C402 C 0.28704 0.34108 -0.00234
 C403 C 0.30686 0.32750 0.00771
 C404 C 0.29585 0.34355 0.04805
 C405 C 0.20143 0.36548 -0.02458
 C406 C 0.18276 0.35183 -0.03527
 C407 C 0.20679 0.31444 -0.02736
 C408 C 0.22507 0.32883 -0.01679
 N409 N 0.22221 0.35392 -0.01592
 H410 H 0.26472 0.36860 0.04873
 H411 H 0.28362 0.34052 -0.02203
 H412 H 0.31869 0.31632 -0.00422
 H413 H 0.29906 0.34500 0.06775
 H414 H 0.19951 0.38541 -0.02334
 H415 H 0.16638 0.36123 -0.04232
 H416 H 0.20922 0.29451 -0.02819
 H417 H 0.24145 0.31993 -0.00935
 C418 C 0.20617 0.41660 0.06198
 C419 C 0.28616 0.41926 -0.06500
 C420 C 0.18552 0.32610 -0.03678
 C421 C 0.31127 0.32879 0.03315
 C422 C 0.78283 0.09005 1.02075
 H423 H 0.78920 0.08865 1.00170
 C424 C 0.79568 0.07754 1.03964
 H425 H 0.81190 0.06633 1.03514
 C426 C 0.75489 0.10759 1.05023
 H427 H 0.73957 0.11994 1.05450
 C428 C 0.76711 0.09538 1.06957
 H429 H 0.76091 0.09820 1.08854
 N430 N 0.76295 0.10488 1.02637
 C431 C 0.72021 0.11957 0.95957
 H432 H 0.71888 0.13951 0.96110
 C433 C 0.70859 0.10783 0.94020
 H434 H 0.69828 0.11876 0.92673
 C435 C 0.73544 0.08101 0.97521
 H436 H 0.74588 0.07070 0.98898
 C437 C 0.72406 0.06847 0.95600
 H438 H 0.72583 0.04850 0.95489
 Zn439 Zn 0.74863 0.12501 1.00109
 N440 N 0.73356 0.10616 0.97639
 C441 C 0.77929 0.14293 0.96181
 N442 N 0.77428 0.14423 0.98658
 C443 C 0.78816 0.15834 1.00160
 C444 C 0.80767 0.17229 0.99169
 C445 C 0.79859 0.15657 0.95117
 C446 C 0.70284 0.13419 1.02386
 C447 C 0.68360 0.14798 1.03472
 C448 C 0.70683 0.18523 1.02637
 C449 C 0.72567 0.17072 1.01564
 N450 N 0.72351 0.14563 1.01494
 H451 H 0.76853 0.13116 0.95025
 H452 H 0.78408 0.15868 1.02130
 H453 H 0.81862 0.18351 1.00374
 H454 H 0.80245 0.15541 0.93145
 H455 H 0.70148 0.11426 1.02276
 H456 H 0.66735 0.13868 1.04206
 H457 H 0.70874 0.20516 1.02711
 H458 H 0.74197 0.17952 1.00797
 C459 C 0.71064 0.08210 0.93828
 C460 C 0.78787 0.08050 1.06430
 C461 C 0.68570 0.17370 1.03613
 C462 C 0.81288 0.17139 0.96623
 C463 C 0.28198 0.59119 0.52040
 H464 H 0.28830 0.58989 0.50132
 C465 C 0.29491 0.57861 0.53918
 H466 H 0.31113 0.56743 0.53457
 C467 C 0.25413 0.60858 0.55005
 H468 H 0.23882 0.62090 0.55443
 C469 C 0.26643 0.59629 0.56929
 H470 H 0.26030 0.59902 0.58829
 N471 N 0.26212 0.60599 0.52615
 C472 C 0.21923 0.62094 0.45950
 H473 H 0.21795 0.64088 0.46104
 C474 C 0.20755 0.60923 0.44015
 H475 H 0.19724 0.62019 0.42670
 C476 C 0.23440 0.58234 0.47510
 H477 H 0.24484 0.57201 0.48885
 C478 C 0.22296 0.56983 0.45591
 H479 H 0.22468 0.54986 0.45480
 Zn480 Zn 0.24775 0.62624 0.50101
 N481 N 0.23258 0.60749 0.47629
 C482 C 0.27838 0.64427 0.46173
 N483 N 0.27341 0.64545 0.48652
 C484 C 0.28739 0.65941 0.50160
 C485 C 0.30698 0.67327 0.49174
 C486 C 0.29776 0.65782 0.45115
 C487 C 0.20205 0.63543 0.52397
 C488 C 0.18292 0.64921 0.53502
 C489 C 0.20623 0.68643 0.52679
 C490 C 0.22497 0.67193 0.51587
 N491 N 0.22272 0.64686 0.51503
 H492 H 0.26753 0.63261 0.45013
 H493 H 0.28335 0.65965 0.52130
 H494 H 0.31803 0.68434 0.50384
 H495 H 0.30160 0.65674 0.43141
 H496 H 0.20063 0.61551 0.52275
 H497 H 0.16667 0.63991 0.54237
 H498 H 0.20822 0.70634 0.52767
 H499 H 0.24127 0.68072 0.50820
 C500 C 0.20953 0.58349 0.43822
 C501 C 0.28719 0.58145 0.56388
 C502 C 0.18511 0.67491 0.53659
 C503 C 0.31217 0.67246 0.46627
 C504 C 0.78100 0.90916 0.47878
 H505 H 0.78687 0.91045 0.49780
 C506 C 0.79400 0.92169 0.45986
 H507 H 0.80982 0.93281 0.46431
 C508 C 0.75424 0.89188 0.44941
 H509 H 0.73933 0.87963 0.44518
 C510 C 0.76662 0.90411 0.43004
 H511 H 0.76096 0.90141 0.41110
 N512 N 0.76163 0.89445 0.47324
 C513 C 0.71709 0.87955 0.53985
 H514 H 0.71590 0.85970 0.53778
 C515 C 0.70506 0.89101 0.55971
 H516 H 0.69455 0.87996 0.57300
 C517 C 0.73264 0.91810 0.52527
 H518 H 0.74348 0.92849 0.51181
 C519 C 0.72087 0.93036 0.54503
 H520 H 0.72272 0.95020 0.54683
 Zn521 Zn 0.74715 0.87429 0.49851
 N522 N 0.73084 0.89306 0.52335
 C523 C 0.77707 0.85678 0.53784
 N524 N 0.77292 0.85509 0.51309
 C525 C 0.78779 0.84081 0.49831
 C526 C 0.80753 0.82719 0.50845
 C527 C 0.79655 0.84348 0.54869
 C528 C 0.70219 0.86536 0.47604
 C529 C 0.68346 0.85170 0.46546
 C530 C 0.70742 0.81429 0.47344
 C531 C 0.72576 0.82867 0.48390
 N532 N 0.72297 0.85377 0.48469
 H533 H 0.76554 0.86868 0.54922
 H534 H 0.78438 0.84017 0.47862
 H535 H 0.81932 0.81589 0.49659
 H536 H 0.79974 0.84501 0.56839
 H537 H 0.70033 0.88530 0.47722
 H538 H 0.66709 0.86112 0.45841
 H539 H 0.70980 0.79435 0.47267
 H540 H 0.74215 0.81977 0.49134
 C541 C 0.70714 0.91658 0.56250
 C542 C 0.78687 0.91888 0.43523
 C543 C 0.68615 0.82597 0.46403
 C544 C 0.81191 0.82857 0.53389
 C545 C -0.02084 0.28029 0.40866
 H546 H -0.00181 0.28612 0.40980
 C547 C -0.03962 0.29335 0.42130
 H548 H -0.03504 0.30918 0.43236
 C549 C -0.05040 0.25357 0.39163
 H550 H -0.05476 0.23866 0.37943
 C551 C -0.06964 0.26602 0.40398
 H552 H -0.08861 0.26041 0.40142
 N553 N -0.02655 0.26092 0.39402
 C554 C 0.03992 0.21636 0.37887
 H555 H 0.03785 0.21522 0.35900
 C556 C 0.05976 0.20429 0.39032
 H557 H 0.07303 0.19381 0.37926
 C558 C 0.02535 0.23180 0.41747
 H559 H 0.01189 0.24260 0.42789
 C560 C 0.04508 0.22000 0.42972
 H561 H 0.04687 0.22178 0.44958
 Zn562 Zn -0.00145 0.24640 0.37372
 N563 N 0.02343 0.23007 0.39241
 C564 C 0.03777 0.27636 0.35598
 N565 N 0.01303 0.27218 0.35443
 C566 C -0.00185 0.28707 0.34028
 C567 C 0.00817 0.30689 0.32666
 C568 C 0.04851 0.29592 0.34269
 C569 C -0.02406 0.20148 0.36492
 C570 C -0.03477 0.18277 0.35132
 C571 C -0.02692 0.20673 0.31385
 C572 C -0.01634 0.22505 0.32818
 N573 N -0.01542 0.22224 0.35328
 H574 H 0.04923 0.26480 0.36779
 H575 H -0.02153 0.28364 0.33975
 H576 H -0.00377 0.31872 0.31548
 H577 H 0.06820 0.29914 0.34412
 H578 H -0.02279 0.19960 0.38487
 H579 H -0.04181 0.16641 0.36079
 H580 H -0.02779 0.20913 0.29390
 H581 H -0.00892 0.24143 0.31923
 C582 C 0.06253 0.20630 0.41591
 C583 C -0.06427 0.28628 0.41867
 C584 C -0.03632 0.18548 0.32558
 C585 C 0.03360 0.31133 0.32793
 C586 C 1.02064 0.78211 0.09069
 H587 H 1.00161 0.78852 0.08932
 C588 C 1.03953 0.79494 0.07816
 H589 H 1.03505 0.81118 0.06695
 C590 C 1.05005 0.75409 0.10821
 H591 H 1.05431 0.73876 0.12056
 C592 C 1.06939 0.76629 0.09598
 H593 H 1.08834 0.76005 0.09878
 N594 N 1.02622 0.76220 0.10553
 C595 C 0.95940 0.71955 0.12030
 H596 H 0.96096 0.71819 0.14025
 C597 C 0.94000 0.70798 0.10858
 H598 H 0.92653 0.69768 0.11953
 C599 C 0.97500 0.73480 0.08171
 H600 H 0.98876 0.74523 0.07138
 C601 C 0.95575 0.72347 0.06919
 H602 H 0.95461 0.72527 0.04920
 Zn603 Zn 1.00096 0.74792 0.12570
 N604 N 0.97622 0.73289 0.10687
 C605 C 0.96179 0.77863 0.14365
 N606 N 0.98653 0.77359 0.14493
 C607 C 1.00158 0.78746 0.15902
 C608 C 0.99173 0.80700 0.17294
 C609 C 0.95121 0.79798 0.15726
 C610 C 1.02363 0.70208 0.13486
 C611 C 1.03452 0.68283 0.14863
 C612 C 1.02635 0.70607 0.18591
 C613 C 1.01559 0.72493 0.17141
 N614 N 1.01479 0.72276 0.14632
 H615 H 0.95020 0.76788 0.13189
 H616 H 1.02126 0.78335 0.15935
 H617 H 1.00381 0.81795 0.18413
 H618 H 0.93150 0.80187 0.15610
 H619 H 1.02245 0.70072 0.11492
 H620 H 1.04179 0.66658 0.13931
 H621 H 1.02718 0.70799 0.20584
 H622 H 1.00800 0.74124 0.18023
 C623 C 0.93803 0.71006 0.08284
 C624 C 1.06416 0.78708 0.08110
 C625 C 1.03604 0.68493 0.17436
 C626 C 0.96630 0.81226 0.17204
 C627 C 0.52047 0.28242 0.59138
 H628 H 0.50140 0.28870 0.59007
 C629 C 0.53923 0.29540 0.57881
 H630 H 0.53460 0.31162 0.56763
 C631 C 0.55014 0.25459 0.60876
 H632 H 0.55453 0.23926 0.62108
 C633 C 0.56935 0.26694 0.59649
 H634 H 0.58835 0.26083 0.59922
 N635 N 0.52624 0.26253 0.60617
 C636 C 0.45969 0.21948 0.62091
 H637 H 0.46120 0.21813 0.64087
 C638 C 0.44038 0.20780 0.60914
 H639 H 0.42694 0.19744 0.62005
 C640 C 0.47532 0.23480 0.58236
 H641 H 0.48906 0.24529 0.57207
 C642 C 0.45617 0.22337 0.56978
 H643 H 0.45509 0.22516 0.54980
 Zn644 Zn 0.50112 0.24806 0.62637
 N645 N 0.47648 0.23290 0.60752
 C646 C 0.46180 0.27856 0.64440
 N647 N 0.48657 0.27364 0.64563
 C648 C 0.50159 0.28760 0.65965
 C649 C 0.49169 0.30713 0.67356
 C650 C 0.45117 0.29789 0.65799
 C651 C 0.52412 0.20237 0.63548
 C652 C 0.53515 0.18320 0.64924
 C653 C 0.52683 0.20637 0.68653
 C654 C 0.51593 0.22515 0.67204
 N655 N 0.51514 0.22299 0.64695
 H656 H 0.45024 0.26773 0.63268
 H657 H 0.52129 0.28359 0.65993
 H658 H 0.50374 0.31817 0.68468
 H659 H 0.43144 0.30169 0.65687
 H660 H 0.52295 0.20101 0.61554
 H661 H 0.54254 0.16700 0.63991
 H662 H 0.52765 0.20829 0.70646
 H663 H 0.50822 0.24141 0.68087
 C664 C 0.43849 0.20987 0.58338
 C665 C 0.56392 0.28771 0.58165
 C666 C 0.53667 0.18530 0.67496
 C667 C 0.46623 0.31228 0.67270
 C668 C 0.47859 0.78065 0.90931
 H669 H 0.49758 0.78658 0.91061
 C670 C 0.45965 0.79360 0.92184
 H671 H 0.46406 0.80941 0.93299
 C672 C 0.44929 0.75384 0.89198
 H673 H 0.44510 0.73894 0.87971
 C674 C 0.42991 0.76617 0.90422
 H675 H 0.41099 0.76046 0.90150
 N676 N 0.47309 0.76129 0.89457
 C677 C 0.53975 0.71688 0.87971
 H678 H 0.53769 0.71571 0.85984
 C679 C 0.55961 0.70489 0.89119
 H680 H 0.57290 0.69441 0.88015
 C681 C 0.52513 0.73239 0.91827
 H682 H 0.51165 0.74320 0.92865
 C683 C 0.54489 0.72066 0.93055
 H684 H 0.54667 0.72249 0.95041
 Zn685 Zn 0.49838 0.74687 0.87442
 N686 N 0.52323 0.73060 0.89321
 C687 C 0.53765 0.77689 0.85692
 N688 N 0.51292 0.77269 0.85522
 C689 C 0.49813 0.78755 0.84093
 C690 C 0.50825 0.80732 0.82730
 C691 C 0.54847 0.79640 0.84363
 C692 C 0.47601 0.70187 0.86546
 C693 C 0.46543 0.68314 0.85180
 C694 C 0.47334 0.70717 0.81438
 C695 C 0.48380 0.72551 0.82877
 N696 N 0.48462 0.72268 0.85388
 H697 H 0.54903 0.76537 0.86883
 H698 H 0.47846 0.78410 0.84027
 H699 H 0.49638 0.81910 0.81599
 H700 H 0.56815 0.79962 0.84517
 H701 H 0.47720 0.69999 0.88541
 H702 H 0.45840 0.66675 0.86122
 H703 H 0.47254 0.70958 0.79442
 H704 H 0.49120 0.74192 0.81986
 C705 C 0.56237 0.70696 0.91677
 C706 C 0.43505 0.78641 0.91901
 C707 C 0.46397 0.68587 0.82605
 C708 C 0.53366 0.81175 0.82870
 C709 C 0.45874 -0.18466 0.35929
 C710 C 0.45512 -0.16496 0.34899
 C711 C 0.44992 -0.14232 0.33649
 C712 C 0.44455 -0.12345 0.32544
 C713 C 0.43703 -0.10197 0.31208
 C714 C 0.42946 -0.08431 0.30033
 C715 C 0.95846 0.31389 0.85916
 C716 C 0.95484 0.33368 0.84904
 C717 C 0.94966 0.35645 0.83676
 C718 C 0.94431 0.37545 0.82590
 C719 C 0.93684 0.39707 0.81277
 C720 C 0.92931 0.41487 0.80119
 C721 C 0.04227 1.18503 0.85865
 C722 C 0.04570 1.16533 0.84881
 C723 C 0.05066 1.14265 0.83686
 C724 C 0.05582 1.12372 0.82626
 C725 C 0.06310 1.10215 0.81338
 C726 C 0.07049 1.08440 0.80198
 C727 C 0.54265 0.68406 0.35901
 C728 C 0.54615 0.66448 0.34899
 C729 C 0.55119 0.64195 0.33680
 C730 C 0.55643 0.62315 0.32600
 C731 C 0.56379 0.60175 0.31290
 C732 C 0.57125 0.58415 0.30132
 C733 C 0.53992 0.31780 0.14529
 C734 C 0.54351 0.33732 0.15509
 C735 C 0.54898 0.35983 0.16667
 C736 C 0.55483 0.37869 0.17658
 C737 C 0.56317 0.40026 0.18814
 C738 C 0.57166 0.41813 0.19788
 C739 C 0.03944 0.81704 0.64682
 C740 C 0.04284 0.83659 0.65664
 C741 C 0.04809 0.85916 0.66822
 C742 C 0.05378 0.87807 0.67812
 C743 C 0.06198 0.89971 0.68966
 C744 C 0.07040 0.91764 0.69937
 C745 C 0.95753 0.68794 0.64528
 C746 C 0.95411 0.66782 0.65467
 C747 C 0.94907 0.64453 0.66578
 C748 C 0.94371 0.62496 0.67534
 C749 C 0.93598 0.60250 0.68657
 C750 C 0.92797 0.58387 0.69613
 C751 C 0.45723 0.18784 0.14331
 C752 C 0.45373 0.16774 0.15270
 C753 C 0.44860 0.14448 0.16383
 C754 C 0.44317 0.12494 0.17341
 C755 C 0.43539 0.10253 0.18469
 C756 C 0.42737 0.08393 0.19431
 C757 C 0.35941 0.45873 -0.18570
 C758 C 0.34912 0.45517 -0.16598
 C759 C 0.33663 0.45005 -0.14331
 C760 C 0.32561 0.44473 -0.12439
 C761 C 0.31227 0.43729 -0.10287
 C762 C 0.30054 0.42977 -0.08516
 C763 C 0.85942 0.95829 0.31406
 C764 C 0.84925 0.95472 0.33385
 C765 C 0.83691 0.94958 0.35660
 C766 C 0.82600 0.94427 0.37558
 C767 C 0.81279 0.93685 0.39720
 C768 C 0.80116 0.92935 0.41498
 C769 C 0.85889 0.04189 1.18503
 C770 C 0.84900 0.04531 1.16535
 C771 C 0.83698 0.05026 1.14269
 C772 C 0.82633 0.05543 1.12377
 C773 C 0.81340 0.06271 1.10223
 C774 C 0.80196 0.07011 1.08450
 C775 C 0.35879 0.54246 0.68413
 C776 C 0.34882 0.54595 0.66450
 C777 C 0.33669 0.55097 0.64192
 C778 C 0.32595 0.55619 0.62307
 C779 C 0.31290 0.56354 0.60162
 C780 C 0.30137 0.57099 0.58397
 C781 C 0.14535 0.54018 0.31730
 C782 C 0.15519 0.54373 0.33682
 C783 C 0.16681 0.54914 0.35933
 C784 C 0.17675 0.55494 0.37820
 C785 C 0.18834 0.56321 0.39978
 C786 C 0.19811 0.57165 0.41767
 C787 C 0.64662 0.03935 0.81709
 C788 C 0.65647 0.04273 0.83665
 C789 C 0.66807 0.04798 0.85921
 C790 C 0.67800 0.05366 0.87812
 C791 C 0.68955 0.06184 0.89976
 C792 C 0.69928 0.07025 0.91769
 C793 C 0.64494 0.95748 0.68796
 C794 C 0.65433 0.95407 0.66785
 C795 C 0.66544 0.94905 0.64455
 C796 C 0.67500 0.94370 0.62497
 C797 C 0.68625 0.93599 0.60252
 C798 C 0.69582 0.92799 0.58389
 C799 C 0.14362 0.45780 0.18718
 C800 C 0.15305 0.45435 0.16710
 C801 C 0.16423 0.44925 0.14385
 C802 C 0.17384 0.44383 0.12431
 C803 C 0.18515 0.43606 0.10191
 C804 C 0.19478 0.42803 0.08332
 C805 C -0.18468 0.35957 0.45858
 C806 C -0.16500 0.34927 0.45495
 C807 C -0.14237 0.33677 0.44974
 C808 C -0.12351 0.32574 0.44435
 C809 C -0.10204 0.31239 0.43683
 C810 C -0.08438 0.30066 0.42924
 C811 C 0.31380 0.85856 0.95852
 C812 C 0.33359 0.84844 0.95493
 C813 C 0.35635 0.83617 0.94977
 C814 C 0.37535 0.82533 0.94445
 C815 C 0.39698 0.81220 0.93700
 C816 C 0.41478 0.80063 0.92950
 C817 C 1.18492 0.85793 0.04234
 C818 C 1.16523 0.84806 0.04579
 C819 C 1.14258 0.83606 0.05077
 C820 C 1.12366 0.82544 0.05596
 C821 C 1.10210 0.81255 0.06326
 C822 C 1.08436 0.80114 0.07068
 C823 C 0.68400 0.35946 0.54254
 C824 C 0.66439 0.34947 0.54605
 C825 C 0.64184 0.33733 0.55109
 C826 C 0.62302 0.32656 0.55634
 C827 C 0.60160 0.31348 0.56371
 C828 C 0.58398 0.30193 0.57118
 C829 C 0.31770 0.14577 0.53977
 C830 C 0.33721 0.15561 0.54334
 C831 C 0.35971 0.16721 0.54879
 C832 C 0.37856 0.17714 0.55463
 C833 C 0.40012 0.18871 0.56297
 C834 C 0.41798 0.19847 0.57147
 C835 C 0.81672 0.64637 0.04004
 C836 C 0.83629 0.65616 0.04346
 C837 C 0.85887 0.66771 0.04872
 C838 C 0.87779 0.67758 0.05442
 C839 C 0.89946 0.68908 0.06260
 C840 C 0.91741 0.69876 0.07101
 C841 C 0.68778 0.64492 0.95788
 C842 C 0.66768 0.65429 0.95444
 C843 C 0.64440 0.66538 0.94937
 C844 C 0.62483 0.67492 0.94398
 C845 C 0.60238 0.68613 0.93624
 C846 C 0.58376 0.69568 0.92822
 C847 C 0.18768 0.14389 0.45724
 C848 C 0.16761 0.15329 0.45376
 C849 C 0.14437 0.16444 0.44864
 C850 C 0.12484 0.17403 0.44319
 C851 C 0.10245 0.18531 0.43539
 C852 C 0.08387 0.19492 0.42735
 C853 C 0.60267 0.07579 0.74740
 C854 C 0.59269 0.09314 0.73711
 C855 C 0.58080 0.11315 0.72477
 C856 C 0.57058 0.13000 0.71394
 C857 C 0.55861 0.14948 0.70086
 C858 C 0.54850 0.16592 0.68929
 C859 C 1.10146 0.57510 0.24686
 C860 C 1.09153 0.59246 0.23653
 C861 C 1.07973 0.61252 0.22419
 C862 C 1.06959 0.62942 0.21335
 C863 C 1.05774 0.64897 0.20027
 C864 C 1.04773 0.66547 0.18869
 C865 C 0.90377 0.92355 0.24345
 C866 C 0.91366 0.90633 0.23309
 C867 C 0.92525 0.88632 0.22074
 C868 C 0.93505 0.86930 0.20998
 C869 C 0.94632 0.84944 0.19711
 C870 C 0.95564 0.83249 0.18585
 C871 C 0.40387 0.42382 0.74385
 C872 C 0.41370 0.40655 0.73352
 C873 C 0.42523 0.38647 0.72121
 C874 C 0.43499 0.36941 0.71050
 C875 C 0.44622 0.34950 0.69767
 C876 C 0.45554 0.33253 0.68645
 C877 C 0.40172 0.57740 0.75500
 C878 C 0.41115 0.59459 0.76505
 C879 C 0.42235 0.61447 0.77707
 C880 C 0.43198 0.63122 0.78763
 C881 C 0.44324 0.65055 0.80044
 C882 C 0.45278 0.66681 0.81183
 C883 C -0.09885 0.07706 0.25469
 C884 C -0.08941 0.09425 0.26473
 C885 C -0.07819 0.11413 0.27674
 C886 C -0.06853 0.13087 0.28729
 C887 C -0.05720 0.15019 0.30007
 C888 C -0.04761 0.16643 0.31142
 C889 C 0.09879 0.42322 0.25948
 C890 C 0.08839 0.40612 0.26958
 C891 C 0.07619 0.38613 0.28142
 C892 C 0.06589 0.36907 0.29166
 C893 C 0.05412 0.34904 0.30389
 C894 C 0.04447 0.33189 0.31463
 C895 C 0.59983 0.92299 0.76016
 C896 C 0.58926 0.90598 0.77022
 C897 C 0.57685 0.88612 0.78206
 C898 C 0.56638 0.86916 0.79230
 C899 C 0.55443 0.84927 0.80456
 C900 C 0.54465 0.83221 0.81535
 C901 C 0.74757 0.60307 0.07526
 C902 C 0.73726 0.59309 0.09261
 C903 C 0.72491 0.58119 0.11262
 C904 C 0.71407 0.57095 0.12947
 C905 C 0.70097 0.55897 0.14894
 C906 C 0.68939 0.54884 0.16537
 C907 C 0.24660 1.10136 0.57581
 C908 C 0.23625 1.09145 0.59317
 C909 C 0.22387 1.07966 0.61323
 C910 C 0.21301 1.06954 0.63014
 C911 C 0.19991 1.05770 0.64969
 C912 C 0.18832 1.04771 0.66620
 C913 C 0.24317 0.90293 0.92387
 C914 C 0.23279 0.91288 0.90670
 C915 C 0.22042 0.92457 0.88673
 C916 C 0.20964 0.93446 0.86977
 C917 C 0.19673 0.94582 0.84997
 C918 C 0.18544 0.95524 0.83308
 C919 C 0.74362 0.40449 0.42376
 C920 C 0.73329 0.41428 0.40645
 C921 C 0.72101 0.42574 0.38631
 C922 C 0.71032 0.43545 0.36919
 C923 C 0.69754 0.44663 0.34921
 C924 C 0.68636 0.45591 0.33218
 C925 C 0.75489 0.40229 0.57751
 C926 C 0.76494 0.41166 0.59474
 C927 C 0.77696 0.42278 0.61467
 C928 C 0.78753 0.43234 0.63146
 C929 C 0.80032 0.44353 0.65085
 C930 C 0.81170 0.45300 0.66715
 C931 C 0.25456 -0.09967 0.07735
 C932 C 0.26461 -0.09016 0.09449
 C933 C 0.27665 -0.07882 0.11429
 C934 C 0.28723 -0.06906 0.13095
 C935 C 0.30004 -0.05762 0.15018
 C936 C 0.31143 -0.04792 0.16634
 C937 C 0.25996 0.09905 0.42277
 C938 C 0.27005 0.08863 0.40569
 C939 C 0.28188 0.07639 0.38573
 C940 C 0.29210 0.06607 0.36867
 C941 C 0.30430 0.05427 0.34866
 C942 C 0.31503 0.04459 0.33151
 C943 C 0.75995 0.59982 0.92349
 C944 C 0.77002 0.58926 0.90649
 C945 C 0.78186 0.57686 0.88663
 C946 C 0.79211 0.56639 0.86967
 C947 C 0.80437 0.55445 0.84978
 C948 C 0.81515 0.54467 0.83272
 C949 C 0.07581 0.74737 0.60283
 C950 C 0.09313 0.73709 0.59281
 C951 C 0.11311 0.72475 0.58088
 C952 C 0.12993 0.71392 0.57061
 C953 C 0.14937 0.70083 0.55861
 C954 C 0.16577 0.68925 0.54846
 C955 C 0.57589 0.24656 1.10110
 C956 C 0.59324 0.23617 1.09125
 C957 C 0.61328 0.22373 1.07954
 C958 C 0.63018 0.21283 1.06948
 C959 C 0.64973 0.19968 1.05771
 C960 C 0.66623 0.18807 1.04777
 C961 C 0.92387 0.24315 0.90346
 C962 C 0.90669 0.23273 0.91337
 C963 C 0.88672 0.22031 0.92499
 C964 C 0.86976 0.20950 0.93483
 C965 C 0.84995 0.19655 0.94613
 C966 C 0.83305 0.18524 0.95550
 C967 C 0.42396 0.74356 0.40420
 C968 C 0.40667 0.73321 0.41398
 C969 C 0.38655 0.72090 0.42546
 C970 C 0.36945 0.71019 0.43517
 C971 C 0.34949 0.69738 0.44635
 C972 C 0.33247 0.68618 0.45563
 C973 C 0.57759 0.75489 0.40199
 C974 C 0.59480 0.76494 0.41138
 C975 C 0.61469 0.77697 0.42254
 C976 C 0.63146 0.78755 0.43213
 C977 C 0.65081 0.80036 0.44336
 C978 C 0.66707 0.81175 0.45287
 C979 C 0.07733 0.25483 -0.09927
 C980 C 0.09449 0.26493 -0.08984
 C981 C 0.11433 0.27701 -0.07863
 C982 C 0.13103 0.28762 -0.06897
 C983 C 0.15031 0.30047 -0.05765
 C984 C 0.16651 0.31188 -0.04806
 C985 C 0.42292 0.26025 0.09852
 C986 C 0.40587 0.27038 0.08810
 C987 C 0.38594 0.28226 0.07586
 C988 C 0.36891 0.29252 0.06553
 C989 C 0.34893 0.30476 0.05373
 C990 C 0.33180 0.31551 0.04405
 C991 C 0.92305 0.76009 0.60016
 C992 C 0.90605 0.77014 0.58958
 C993 C 0.88620 0.78196 0.57716
 C994 C 0.86926 0.79220 0.56668
 C995 C 0.84939 0.80445 0.55470
 C996 C 0.83235 0.81524 0.54490
   
