data_POSCAR
  _audit_creation_date              2014-09-24
  _audit_creation_method            'ToBaCCo'
  _symmetry_space_group_name_H-M    'P1'
  _symmetry_Int_Tables_number       1
  _symmetry_cell_setting            triclinic
  loop_
  _symmetry_equiv_pos_as_xyz
 x,y,z
_cell_length_a 31.0210
_cell_length_b 31.3220
_cell_length_c 30.7605
_cell_angle_alpha 90.863500
_cell_angle_beta 89.287300
_cell_angle_gamma 89.614900
loop_
  _atom_site_label
  _atom_site_type_symbol
  _atom_site_fract_x
  _atom_site_fract_y
  _atom_site_fract_z
N1 N 0.20676 0.21107 0.19920
 N2 N -0.23422 0.76402 0.24444
 N3 N -0.23282 0.22929 -0.23430
 N4 N 0.21588 0.79746 -0.18106
 N5 N 0.21967 1.21505 0.78944
 N6 N 0.77573 0.77485 0.76213
 N7 N 0.20822 0.79037 1.18811
 N8 N 0.81156 1.21382 1.22535
 O9 O 0.55371 0.98966 0.91182
 O10 O 0.47485 0.96619 1.08968
 O11 O 0.57066 0.93593 1.03557
 O12 O 0.42919 0.98473 0.97570
 O13 O 0.55529 0.96804 1.09533
 O14 O 0.48433 0.96001 0.94116
 O15 O 0.42621 1.00046 1.05260
 O16 O 0.56317 0.94643 0.96161
 C17 C 0.56978 0.95538 0.92309
 C18 C 0.43683 0.97023 1.07722
 C19 C 0.57001 0.93624 1.07567
 C20 C 0.44591 0.95644 0.95186
 O21 O 0.47909 1.03079 0.90116
 O22 O 0.55517 1.04960 1.09024
 O23 O 0.59595 1.02861 0.96946
 O24 O 0.46143 1.07917 1.03566
 O25 O 0.47339 1.04891 1.09569
 O26 O 0.53886 1.06222 0.94679
 O27 O 0.46144 1.06436 0.96062
 O28 O 0.60341 1.01616 1.04839
 Co29 Co 0.51009 1.01151 0.94690
 Co30 Co 0.51450 1.00810 1.08496
 Co31 Co 0.57810 0.98387 1.00411
 Co32 Co 0.45027 1.03001 1.00663
 O33 O 0.51501 1.00654 1.01314
 C34 C 0.45355 1.05805 0.92083
 C35 C 0.59343 1.04455 1.07695
 C36 C 0.57894 1.06073 0.95156
 C37 C 0.45935 1.08013 1.07566
 O38 O 0.04208 0.46130 0.05607
 O39 O 0.03856 0.53939 -0.06305
 O40 O -0.00503 0.41369 -0.05437
 O41 O -0.00582 0.59081 0.02804
 O42 O 0.04049 0.46244 -0.06738
 O43 O 0.04199 0.54358 0.04626
 O44 O -0.00908 0.58750 -0.05031
 O45 O 0.00170 0.41210 0.02555
 C46 C 0.03445 0.42296 0.04706
 C47 C 0.02886 0.57776 -0.06039
 C48 C 0.03229 0.42396 -0.06520
 C49 C 0.03164 0.58163 0.04050
 O50 O -0.03706 0.54517 0.08138
 O51 O -0.04194 0.46220 -0.09893
 O52 O -0.07948 0.43439 0.03567
 O53 O -0.08689 0.54853 -0.04506
 O54 O -0.04217 0.53944 -0.09765
 O55 O -0.03819 0.46587 0.08382
 O56 O -0.08538 0.55654 0.03363
 O57 O -0.08484 0.44555 -0.04601
 Co58 Co 0.00022 0.50411 0.05942
 Co59 Co -0.00304 0.50091 -0.07579
 Co60 Co -0.04022 0.43356 -0.01021
 Co61 Co -0.04471 0.56506 -0.00869
 O62 O -0.02175 0.50075 -0.00850
 C63 C -0.07465 0.55642 0.07228
 C64 C -0.07800 0.44880 -0.08571
 C65 C -0.07053 0.44327 0.07428
 C66 C -0.07917 0.55008 -0.08454
 O67 O 1.09963 0.02816 0.45990
 O68 O 0.90867 0.01971 0.53052
 O69 O 0.98306 0.01100 0.41708
 O70 O 1.04204 0.06226 0.55684
 O71 O 0.95947 0.04847 0.47282
 O72 O 1.10156 0.02992 0.54206
 O73 O 0.96658 0.05070 0.55302
 O74 O 1.05946 -0.00492 0.41179
 C75 C 1.08671 0.02359 0.42165
 C76 C 0.92628 0.04599 0.55784
 C77 C 0.96714 0.04536 0.43273
 C78 C 1.08188 0.06158 0.55748
 O79 O 1.09525 -0.05238 0.54311
 O80 O 0.92284 -0.02273 0.45727
 O81 O 1.04364 -0.08344 0.44816
 O82 O 0.97765 -0.02949 0.58572
 O83 O 0.94652 -0.05222 0.52840
 O84 O 1.10324 -0.05344 0.46105
 O85 O 1.05524 -0.01665 0.59091
 O86 O 0.97044 -0.06968 0.45178
 Co87 Co 1.09221 -0.01192 0.50150
 Co88 Co 0.95569 -0.00175 0.50212
 Co89 Co 1.01441 -0.03475 0.43733
 Co90 Co 1.01105 0.01423 0.56564
 O91 O 1.02101 -0.01032 0.50019
 C92 C 1.08287 -0.04557 0.58163
 C93 C 0.93316 -0.05859 0.44314
 C94 C 1.08325 -0.08411 0.44558
 C95 C 0.95362 -0.05602 0.56765
 C96 C 1.15283 0.13403 0.29382
 N97 N 1.18959 0.15596 0.30161
 N98 N 1.20645 0.18119 0.27147
 C99 C 1.18702 0.18573 0.23250
 N100 N 1.14996 0.16415 0.22485
 N101 N 1.13320 0.13870 0.25494
 C102 C 1.13527 0.10525 0.32682
 N103 N 1.10208 0.07865 0.31757
 N104 N 1.08679 0.05224 0.34758
 C105 C 1.10410 0.05156 0.38791
 N106 N 1.13716 0.07823 0.39712
 N107 N 1.15258 0.10443 0.36710
 C108 C 0.82728 -0.16370 0.33974
 N109 N 0.83604 -0.20602 0.33478
 N110 N 0.81535 -0.22949 0.30529
 C111 C 0.78537 -0.21155 0.27924
 N112 N 0.77620 -0.16928 0.28488
 N113 N 0.79664 -0.14585 0.31457
 C114 C 0.85285 -0.13710 0.36942
 N115 N 0.84170 -0.09574 0.37786
 N116 N 0.86666 -0.07089 0.40235
 C117 C 0.90385 -0.08643 0.41894
 N118 N 0.91485 -0.12780 0.41072
 N119 N 0.88974 -0.15272 0.38654
 C120 C 0.83157 0.15591 0.67130
 N121 N 0.78949 0.14859 0.68102
 N122 N 0.76866 0.17280 0.71057
 C123 C 0.78898 0.20544 0.73135
 N124 N 0.83102 0.21281 0.72132
 N125 N 0.85188 0.18856 0.69188
 C126 C 0.85550 0.12797 0.64052
 N127 N 0.89861 0.13289 0.63487
 N128 N 0.92090 0.10684 0.60828
 C129 C 0.90094 0.07494 0.58621
 N130 N 0.85775 0.07004 0.59161
 N131 N 0.83543 0.09606 0.61839
 C132 C 1.16125 -0.13514 0.71823
 N133 N 1.19748 -0.15904 0.71121
 N134 N 1.21555 -0.18016 0.74369
 C135 C 1.19792 -0.17820 0.78430
 N136 N 1.16191 -0.15409 0.79135
 N137 N 1.14399 -0.13287 0.75896
 C138 C 1.14066 -0.11233 0.68249
 N139 N 1.10667 -0.08573 0.69063
 N140 N 1.08797 -0.06483 0.65843
 C141 C 1.10235 -0.07000 0.61682
 N142 N 1.13621 -0.09678 0.60862
 N143 N 1.15504 -0.11756 0.64086
 C144 C 0.33055 1.17891 1.15680
 N145 N 0.31571 1.16579 1.19604
 N146 N 0.27667 1.17744 1.21045
 C147 C 0.25090 1.20274 1.18623
 N148 N 0.26624 1.21654 1.14734
 N149 N 0.30523 1.20477 1.13284
 C150 C 0.36999 1.16001 1.13786
 N151 N 0.37979 1.16541 1.09515
 N152 N 0.41071 1.14202 1.07577
 C153 C 0.43304 1.11255 1.09848
 N154 N 0.42428 1.10830 1.14153
 N155 N 0.39333 1.13160 1.16087
 C156 C 0.32597 0.84516 0.87680
 N157 N 0.32145 0.84647 0.83297
 N158 N 0.28672 0.82998 0.81411
 C159 C 0.25546 0.81116 0.83835
 N160 N 0.26049 0.80915 0.88208
 N161 N 0.29493 0.82607 0.90096
 C162 C 0.36073 0.86873 0.89821
 N163 N 0.35506 0.88336 0.93965
 N164 N 0.38352 0.90970 0.95755
 C165 C 0.41916 0.92176 0.93499
 N166 N 0.42552 0.90623 0.89394
 N167 N 0.39666 0.88035 0.87576
 C168 C 0.66980 0.82306 1.17329
 N169 N 0.70019 0.79825 1.15313
 N170 N 0.73028 0.77860 1.17610
 C171 C 0.73123 0.78294 1.22012
 N172 N 0.70042 0.80736 1.24031
 N173 N 0.67034 0.82711 1.21731
 C174 C 0.63961 0.84839 1.14770
 N175 N 0.61318 0.87740 1.16773
 N176 N 0.58945 0.90401 1.14449
 C177 C 0.59107 0.90251 1.10037
 N178 N 0.61676 0.87284 1.08024
 N179 N 0.64063 0.84625 1.10353
 C180 C 0.68634 1.16487 0.85038
 N181 N 0.67344 1.20240 0.83299
 N182 N 0.69909 1.22300 0.80531
 C183 C 0.73818 1.20636 0.79352
 N184 N 0.75082 1.16873 0.81069
 N185 N 0.72542 1.14843 0.83862
 C186 C 0.65853 1.14135 0.88054
 N187 N 0.67524 1.10856 0.90334
 N188 N 0.64995 1.08451 0.92800
 C189 C 0.60692 1.09225 0.93081
 N190 N 0.59017 1.12552 0.90856
 N191 N 0.61561 1.14986 0.88408
 C192 C 0.13568 0.29888 0.12957
 N193 N 0.17662 0.30762 0.14167
 N194 N 0.19924 0.27944 0.16415
 C195 C 0.18165 0.24164 0.17578
 N196 N 0.14050 0.23306 0.16402
 N197 N 0.11797 0.26113 0.14121
 C198 C 0.11066 0.33037 0.10546
 N199 N 0.07265 0.31960 0.08700
 N200 N 0.04911 0.34883 0.06683
 C201 C 0.06266 0.38987 0.06457
 N202 N 0.10083 0.40053 0.08275
 N203 N 0.12453 0.37124 0.10257
 C204 C -0.18343 0.34360 -0.18655
 N205 N -0.16921 0.32722 -0.22528
 N206 N -0.18636 0.29163 -0.24170
 C207 C -0.21800 0.27073 -0.21980
 N208 N -0.23301 0.28806 -0.18174
 N209 N -0.21607 0.32369 -0.16545
 C210 C -0.15997 0.37802 -0.16435
 N211 N -0.17240 0.39054 -0.12368
 N212 N -0.14738 0.41570 -0.09979
 C213 C -0.10900 0.42948 -0.11564
 N214 N -0.09714 0.41823 -0.15692
 N215 N -0.12220 0.39291 -0.18087
 C216 C 0.13991 0.70535 -0.12270
 N217 N 0.12166 0.73979 -0.14154
 N218 N 0.14603 0.76933 -0.16013
 C219 C 0.18967 0.76587 -0.16018
 N220 N 0.20801 0.73146 -0.14110
 N221 N 0.18355 0.70159 -0.12287
 C222 C 0.11233 0.67247 -0.10373
 N223 N 0.12768 0.63259 -0.09602
 N224 N 0.10139 0.60228 -0.08147
 C225 C 0.05900 0.61102 -0.07378
 N226 N 0.04395 0.65103 -0.08085
 N227 N 0.07006 0.68112 -0.09573
 C228 C -0.17411 0.65754 0.18782
 N229 N -0.15271 0.68260 0.21660
 N230 N -0.17236 0.71580 0.23602
 C231 C -0.21425 0.72518 0.22763
 N232 N -0.23591 0.69917 0.19979
 N233 N -0.21619 0.66619 0.18007
 C234 C -0.15066 0.62553 0.16131
 N235 N -0.16773 0.61070 0.12361
 N236 N -0.14413 0.58679 0.09605
 C237 C -0.10273 0.57653 0.10539
 N238 N -0.08605 0.59032 0.14366
 N239 N -0.10953 0.61454 0.17105
 C240 C 1.16907 0.16557 0.67658
 N241 N 1.20541 0.14873 0.69349
 N242 N 1.22219 0.16518 0.72957
 C243 C 1.20362 0.19931 0.75054
 N244 N 1.16775 0.21675 0.73244
 N245 N 1.15059 0.20006 0.69657
 C246 C 1.14792 0.14369 0.64028
 N247 N 1.10566 0.15103 0.63180
 N248 N 1.08484 0.12640 0.60335
 C249 C 1.10571 0.09384 0.58217
 N250 N 1.14824 0.08743 0.58974
 N251 N 1.16893 0.11182 0.61831
 C252 C 0.85626 -0.16479 0.67400
 N253 N 0.81426 -0.17186 0.66433
 N254 N 0.78834 -0.19154 0.69242
 C255 C 0.80366 -0.20511 0.73103
 N256 N 0.84572 -0.19835 0.74050
 N257 N 0.87148 -0.17834 0.71262
 C258 C 0.88402 -0.14027 0.64467
 N259 N 0.92081 -0.12231 0.65960
 N260 N 0.94410 -0.09679 0.63439
 C261 C 0.93180 -0.08884 0.59309
 N262 N 0.89550 -0.10752 0.57784
 N263 N 0.87196 -0.13269 0.60321
 C264 C 1.16467 -0.17635 0.31084
 N265 N 1.14522 -0.20793 0.28791
 N266 N 1.16019 -0.21962 0.24868
 C267 C 1.19467 -0.19975 0.23014
 N268 N 1.21427 -0.16861 0.25390
 N269 N 1.19971 -0.15723 0.29328
 C270 C 1.14546 -0.15917 0.35131
 N271 N 1.16771 -0.13061 0.37565
 N272 N 1.14838 -0.10912 0.40811
 C273 C 1.10602 -0.11522 0.41743
 N274 N 1.08399 -0.14476 0.39394
 N275 N 1.10345 -0.16652 0.36157
 C276 C 0.88916 0.15333 0.31243
 N277 N 0.87490 0.19373 0.32064
 N278 N 0.85023 0.21367 0.29196
 C279 C 0.83809 0.19371 0.25438
 N280 N 0.85272 0.15330 0.24655
 N281 N 0.87782 0.13366 0.27479
 C282 C 0.91447 0.12963 0.34408
 N283 N 0.93688 0.09451 0.33056
 N284 N 0.95566 0.06926 0.35912
 C285 C 0.95257 0.07789 0.40237
 N286 N 0.93086 0.11355 0.41608
 N287 N 0.91229 0.13915 0.38734
 C288 C 0.14520 0.30020 -0.13948
 N289 N 0.12685 0.26909 -0.16390
 N290 N 0.15110 0.24148 -0.18674
 C291 C 0.19489 0.24334 -0.18599
 N292 N 0.21326 0.27408 -0.16055
 N293 N 0.18890 0.30223 -0.13810
 C294 C 0.11747 0.33167 -0.11653
 N295 N 0.13205 0.37124 -0.10583
 N296 N 0.10525 0.40064 -0.08862
 C297 C 0.06310 0.39132 -0.08114
 N298 N 0.04886 0.35157 -0.09113
 N299 N 0.07544 0.32243 -0.10873
 C300 C -0.15719 0.33454 0.18690
 N301 N -0.19323 0.31536 0.17197
 N302 N -0.20501 0.27736 0.18654
 C303 C -0.18139 0.25648 0.21666
 N304 N -0.14624 0.27699 0.23287
 N305 N -0.13432 0.31504 0.21829
 C306 C -0.13896 0.37067 0.16318
 N307 N -0.10007 0.38720 0.17406
 N308 N -0.07938 0.41333 0.14716
 C309 C -0.09676 0.42354 0.10833
 N310 N -0.13620 0.40812 0.09822
 N311 N -0.15697 0.38235 0.12518
 C312 C -0.17760 0.66340 -0.18260
 N313 N -0.16316 0.67596 -0.22218
 N314 N -0.17914 0.71093 -0.24035
 C315 C -0.21000 0.73494 -0.21959
 N316 N -0.22483 0.72184 -0.18027
 N317 N -0.20895 0.68683 -0.16213
 C318 C -0.15618 0.62827 -0.16002
 N319 N -0.16869 0.61800 -0.11908
 N320 N -0.14556 0.59070 -0.09598
 C321 C -0.10909 0.57256 -0.11298
 N322 N -0.09722 0.58190 -0.15437
 N323 N -0.12040 0.60919 -0.17750
 C324 C 0.13668 0.70926 0.11270
 N325 N 0.11737 0.73474 0.14325
 N326 N 0.14054 0.76131 0.16752
 C327 C 0.18401 0.76399 0.16201
 N328 N 0.20309 0.73912 0.13041
 N329 N 0.17997 0.71190 0.10661
 C330 C 0.11100 0.67771 0.08896
 N331 N 0.12818 0.63934 0.07661
 N332 N 0.10325 0.60886 0.05985
 C333 C 0.06044 0.61600 0.05432
 N334 N 0.04359 0.65470 0.06571
 N335 N 0.06832 0.68487 0.08303
 C336 C 0.32891 1.16156 0.84027
 N337 N 0.32078 1.15777 0.79724
 N338 N 0.28644 1.17680 0.78040
 C339 C 0.25834 1.20023 0.80565
 N340 N 0.26778 1.20519 0.84857
 N341 N 0.30221 1.18627 0.86548
 C342 C 0.36373 1.13658 0.85998
 N343 N 0.37112 1.14034 0.90319
 N344 N 0.40027 1.11559 0.92199
 C345 C 0.42305 1.08596 0.89846
 N346 N 0.41600 1.08228 0.85510
 N347 N 0.38680 1.10717 0.83621
 C348 C 0.31097 0.85514 1.13736
 N349 N 0.27935 0.84037 1.11116
 N350 N 0.24702 0.81750 1.12740
 C351 C 0.24450 0.80907 1.17069
 N352 N 0.27704 0.82303 1.19645
 N353 N 0.30966 0.84537 1.18013
 C354 C 0.34444 0.88366 1.12060
 N355 N 0.38151 0.88955 1.14281
 N356 N 0.41101 0.91703 1.12886
 C357 C 0.40411 0.94028 1.09268
 N358 N 0.36698 0.93450 1.07049
 N359 N 0.33772 0.90658 1.08414
 C360 C 0.72041 1.14385 1.15966
 N361 N 0.71841 1.18709 1.16066
 N362 N 0.74808 1.20973 1.18164
 C363 C 0.78089 1.19033 1.20303
 N364 N 0.78170 1.14681 1.20268
 N365 N 0.75254 1.12409 1.18115
 C366 C 0.68793 1.11872 1.13651
 N367 N 0.69768 1.07915 1.12043
 N368 N 0.66788 1.05589 1.10034
 C369 C 0.62711 1.07115 1.09621
 N370 N 0.61735 1.11068 1.11237
 N371 N 0.64733 1.13421 1.13180
 C372 C 0.67678 0.84762 0.81934
 N373 N 0.70192 0.86403 0.78735
 N374 N 0.73277 0.84029 0.76821
 C375 C 0.73970 0.79916 0.78018
 N376 N 0.71364 0.78260 0.81140
 N377 N 0.68299 0.80636 0.83072
 C378 C 0.64593 0.87480 0.84395
 N379 N 0.62882 0.86089 0.88194
 N380 N 0.60374 0.88640 0.90646
 C381 C 0.59446 0.92670 0.89379
 N382 N 0.61098 0.94054 0.85545
 N383 N 0.63643 0.91508 0.83104
   
