data_POSCAR
  _audit_creation_date              2014-09-24
  _audit_creation_method            'ToBaCCo'
  _symmetry_space_group_name_H-M    'P1'
  _symmetry_Int_Tables_number       1
  _symmetry_cell_setting            triclinic
  loop_
  _symmetry_equiv_pos_as_xyz
 x,y,z
_cell_length_a 17.2155
_cell_length_b 17.1981
_cell_length_c 39.4820
_cell_angle_alpha 89.914300
_cell_angle_beta 90.011900
_cell_angle_gamma 119.823000
loop_
  _atom_site_label
  _atom_site_type_symbol
  _atom_site_fract_x
  _atom_site_fract_y
  _atom_site_fract_z
C1 C -0.08868 -0.09669 0.47413
 C2 C -0.02558 -0.05043 0.49945
 C3 C -0.00902 -0.09692 0.52483
 C4 C -0.05689 -0.19116 0.52598
 C5 C -0.11937 -0.23686 0.49978
 C6 C -0.13589 -0.19099 0.47353
 C7 C 0.02335 0.04792 0.49946
 C8 C 0.00566 0.09424 0.52454
 C9 C 0.05013 0.18836 0.52446
 C10 C 0.11675 0.23460 0.49972
 C11 C 0.13727 0.18871 0.47485
 C12 C 0.08749 0.09463 0.47451
 H13 H -0.09987 -0.05713 0.45567
 H14 H 0.04248 -0.05767 0.54302
 H15 H -0.04265 0.05538 0.54380
 H16 H 0.09705 0.05604 0.45514
 H17 H -0.15566 -0.30957 0.49989
 H18 H 0.15318 0.30723 0.49982
 C19 C 1.09596 0.00779 0.14085
 C20 C 1.05000 0.02464 0.16632
 C21 C 1.09656 0.08783 0.19147
 C22 C 1.19045 0.13628 0.19142
 C23 C 1.23612 0.11756 0.16592
 C24 C 1.19019 0.05421 0.14000
 C25 C 0.95200 -0.02387 0.16642
 C26 C 0.90535 -0.08922 0.19102
 C27 C 0.81139 -0.13821 0.19075
 C28 C 0.76563 -0.11505 0.16672
 C29 C 0.81197 -0.04714 0.14240
 C30 C 0.90587 -0.00407 0.14191
 H31 H 1.05616 -0.04285 0.12250
 H32 H 1.05795 0.09778 0.21073
 H33 H 0.94351 -0.10028 0.21021
 H34 H 0.94446 0.04463 0.12266
 H35 H 1.30872 0.15348 0.16615
 H36 H 0.69308 -0.15074 0.16678
 C37 C 0.08746 0.99119 0.85944
 C38 C 0.02348 0.97389 0.83445
 C39 C 0.00492 0.90914 0.80965
 C40 C 0.04966 0.85965 0.80971
 C41 C 0.11647 0.88007 0.83433
 C42 C 0.13456 0.94387 0.86013
 C43 C -0.02488 1.02390 0.83445
 C44 C -0.00690 1.08817 0.80943
 C45 C -0.05233 1.13699 0.80921
 C46 C -0.11851 1.11704 0.83404
 C47 C -0.13643 1.05338 0.85997
 C48 C -0.08863 1.00672 0.85955
 H49 H 0.10023 1.04331 0.87742
 H50 H -0.04333 0.89963 0.79030
 H51 H 0.04153 1.09773 0.79022
 H52 H -0.10031 0.95556 0.87791
 H53 H 0.15412 0.84500 0.83364
 H54 H -0.15571 1.15264 0.83343
 O55 O 0.61712 0.09051 -0.03336
 O56 O 0.47007 0.09095 0.03132
 O57 O 0.61014 0.06784 0.03214
 O58 O 0.45243 0.06169 -0.03423
 O59 O 0.38476 -0.08568 -0.03228
 O60 O 0.53463 -0.07985 0.03261
 O61 O 0.39473 -0.05662 0.03333
 O62 O 0.54904 -0.05711 -0.03311
 Cu63 Cu 0.54358 0.09090 -0.00114
 Cu64 Cu 0.45904 -0.08323 0.00039
 C65 C 0.61067 0.01861 -0.04426
 C66 C 0.40688 0.01922 0.04335
 C67 C 0.59862 -0.00695 0.04333
 C68 C 0.39070 -0.01488 -0.04432
 O69 O -0.08889 0.38204 0.69940
 O70 O -0.09245 0.52863 0.63480
 O71 O -0.06512 0.39062 0.63353
 O72 O -0.06583 0.54420 0.69985
 O73 O 0.08184 0.61504 0.69902
 O74 O 0.08248 0.46826 0.63399
 O75 O 0.05500 0.60617 0.63316
 O76 O 0.05872 0.45279 0.69931
 Cu77 Cu -0.09144 0.45427 0.66680
 Cu78 Cu 0.08278 0.54269 0.66617
 C79 C -0.01634 0.38996 0.71027
 C80 C -0.02121 0.59289 0.62299
 C81 C 0.01054 0.40364 0.62285
 C82 C 0.00966 0.60701 0.71039
 O83 O 0.62097 0.52723 0.36566
 O84 O 0.47310 0.38077 0.30098
 O85 O 0.61220 0.54429 0.30044
 O86 O 0.45678 0.39088 0.36666
 O87 O 0.38715 0.46928 0.36563
 O88 O 0.53557 0.61579 0.30076
 O89 O 0.39698 0.45267 0.29996
 O90 O 0.55128 0.60553 0.36640
 Cu91 Cu 0.54706 0.45385 0.33344
 Cu92 Cu 0.46111 0.54248 0.33308
 C93 C 0.61362 0.59179 0.37701
 C94 C 0.40922 0.38920 0.28952
 C95 C 0.59990 0.60752 0.28970
 C96 C 0.39429 0.40453 0.37710
 C97 C 0.03329 0.24180 0.55140
 C98 C 0.11510 0.29139 0.57453
 C99 C 0.10682 0.34388 0.59818
 C100 C 0.01697 0.34307 0.59684
 C101 C 0.00922 0.36864 0.56027
 C102 C 0.01739 0.31568 0.53653
 C103 C -0.04646 0.19054 0.57609
 C104 C -0.05420 0.24375 0.59990
 H105 H 0.17431 0.28439 0.57288
 H106 H 0.15904 0.38083 0.61669
 H107 H -0.00372 0.42245 0.55359
 H108 H 0.01085 0.32413 0.50962
 H109 H -0.09636 0.12026 0.57445
 H110 H -0.10808 0.21771 0.61835
 C111 C 0.75833 0.79078 0.21743
 C112 C 0.67653 0.70651 0.20312
 C113 C 0.62486 0.64583 0.22718
 C114 C 0.66007 0.67376 0.26345
 C115 C 0.75673 0.69150 0.26225
 C116 C 0.80825 0.75234 0.23812
 C117 C 0.72010 0.82741 0.24407
 C118 C 0.66963 0.76703 0.26814
 H119 H 0.66268 0.69379 0.17623
 H120 H 0.56666 0.58199 0.22079
 H121 H 0.78161 0.65630 0.27772
 H122 H 0.87560 0.76544 0.23304
 H123 H 0.73261 0.89592 0.24426
 H124 H 0.64061 0.78509 0.28906
 C125 C 0.20026 -0.04186 -0.11408
 C126 C 0.20897 0.01730 -0.08305
 C127 C 0.27269 0.02660 -0.06031
 C128 C 0.32175 -0.02393 -0.07003
 C129 C 0.24618 -0.12144 -0.07536
 C130 C 0.18293 -0.13052 -0.09793
 C131 C 0.29597 0.00068 -0.12854
 C132 C 0.35922 0.01008 -0.10558
 H133 H 0.16577 0.04449 -0.07731
 H134 H 0.28404 0.06284 -0.03666
 H135 H 0.24109 -0.17889 -0.06191
 H136 H 0.12431 -0.19508 -0.10308
 H137 H 0.31271 0.02216 -0.15468
 H138 H 0.42937 0.03885 -0.11223
 C139 C -0.04409 0.75739 0.55227
 C140 C 0.01498 0.80770 0.58337
 C141 C 0.02290 0.75309 0.60649
 C142 C -0.02865 0.65349 0.59713
 C143 C -0.12554 0.63349 0.59143
 C144 C -0.13333 0.68774 0.56840
 C145 C -0.00245 0.70241 0.53849
 C146 C 0.00547 0.64836 0.56182
 H147 H 0.04367 0.87841 0.58871
 H148 H 0.05923 0.77817 0.63011
 H149 H -0.18332 0.58315 0.60521
 H150 H -0.19733 0.68313 0.56290
 H151 H 0.02026 0.70678 0.51253
 H152 H 0.03439 0.60655 0.55574
 C153 C 0.24474 0.20535 0.21851
 C154 C 0.31325 0.29726 0.20366
 C155 C 0.36724 0.35811 0.22719
 C156 C 0.34820 0.32230 0.26362
 C157 C 0.24842 0.28916 0.26908
 C158 C 0.19408 0.22856 0.24554
 C159 C 0.30083 0.17555 0.23921
 C160 C 0.35461 0.23606 0.26262
 H161 H 0.31776 0.31352 0.17689
 H162 H 0.41797 0.42592 0.22054
 H163 H 0.22258 0.31295 0.28920
 H164 H 0.12284 0.20401 0.24608
 H165 H 0.29736 0.11114 0.23612
 H166 H 0.39622 0.22228 0.27943
 C167 C 0.79839 0.03998 -0.11414
 C168 C 0.70312 0.00203 -0.12869
 C169 C 0.64087 -0.00539 -0.10562
 C170 C 0.67850 0.02526 -0.06993
 C171 C 0.72341 -0.02961 -0.06081
 C172 C 0.78602 -0.02242 -0.08363
 C173 C 0.81959 0.12895 -0.09726
 C174 C 0.75725 0.12160 -0.07459
 H175 H 0.68600 -0.01837 -0.15491
 H176 H 0.57100 -0.03129 -0.11213
 H177 H 0.70933 -0.06837 -0.03762
 H178 H 0.82468 -0.05504 -0.07850
 H179 H 0.88024 0.19247 -0.10187
 H180 H 0.76559 0.17918 -0.06036
 C181 C 0.24145 0.04059 0.11390
 C182 C 0.29990 0.00342 0.12819
 C183 C 0.35431 -0.00410 0.10496
 C184 C 0.34584 0.02585 0.06921
 C185 C 0.24602 -0.02989 0.06060
 C186 C 0.19116 -0.02247 0.08372
 C187 C 0.30772 0.12928 0.09657
 C188 C 0.36225 0.12195 0.07362
 H189 H 0.29749 -0.01681 0.15439
 H190 H 0.39869 -0.02968 0.11153
 H191 H 0.22065 -0.06991 0.03776
 H192 H 0.11981 -0.05603 0.07936
 H193 H 0.31001 0.19251 0.10140
 H194 H 0.41096 0.17967 0.05932
 C195 C 0.79966 0.75736 0.44733
 C196 C 0.82107 0.68918 0.43088
 C197 C 0.75936 0.63445 0.40798
 C198 C 0.68104 0.65270 0.40282
 C199 C 0.64230 0.64613 0.43831
 C200 C 0.70396 0.70071 0.46153
 C201 C 0.78849 0.80742 0.41661
 C202 C 0.72644 0.75235 0.39356
 H203 H 0.88104 0.68544 0.43620
 H204 H 0.76767 0.58457 0.39416
 H205 H 0.57228 0.60274 0.44468
 H206 H 0.68598 0.70409 0.48761
 H207 H 0.82718 0.87857 0.41162
 H208 H 0.71299 0.77738 0.37035
 C209 C -0.03638 0.20664 0.78204
 C210 C -0.02181 0.29595 0.79672
 C211 C -0.01439 0.35663 0.77288
 C212 C -0.02151 0.32343 0.73634
 C213 C 0.05071 0.29624 0.73352
 C214 C 0.04368 0.23577 0.75744
 C215 C -0.11822 0.17371 0.75885
 C216 C -0.11070 0.23405 0.73508
 H217 H -0.01562 0.31091 0.82362
 H218 H -0.00214 0.42307 0.77943
 H219 H 0.10495 0.32453 0.71521
 H220 H 0.09449 0.21636 0.75929
 H221 H -0.17695 0.10742 0.76060
 H222 H -0.16318 0.21829 0.71659
 C223 C 0.75915 -0.02923 0.11554
 C224 C 0.80978 0.05570 0.09312
 C225 C 0.75753 0.06422 0.06899
 C226 C 0.65960 -0.01191 0.06957
 C227 C 0.66532 -0.09814 0.06639
 C228 C 0.71658 -0.10718 0.09032
 C229 C 0.68034 -0.02115 0.13003
 C230 C 0.62811 -0.01273 0.10603
 H231 H 0.87851 0.10829 0.09689
 H232 H 0.78285 0.12184 0.05224
 H233 H 0.63361 -0.14763 0.04640
 H234 H 0.72739 -0.16431 0.09087
 H235 H 0.66881 -0.01871 0.15697
 H236 H 0.57192 -0.00351 0.11253
 C237 C 0.20812 0.24254 0.44814
 C238 C 0.29767 0.31500 0.46326
 C239 C 0.35941 0.36811 0.43971
 C240 C 0.32674 0.34412 0.40303
 C241 C 0.29765 0.24446 0.39967
 C242 C 0.23618 0.19117 0.42327
 C243 C 0.17731 0.29406 0.42520
 C244 C 0.23857 0.34671 0.40177
 H245 H 0.31187 0.32282 0.49022
 H246 H 0.42581 0.42132 0.44659
 H247 H 0.32560 0.21828 0.38127
 H248 H 0.21527 0.12062 0.42471
 H249 H 0.11191 0.28884 0.42708
 H250 H 0.22455 0.38585 0.38371
 C251 C 0.03284 0.78970 0.78267
 C252 C -0.05195 0.75581 0.76030
 C253 C -0.06020 0.69550 0.73618
 C254 C 0.01582 0.67327 0.73664
 C255 C 0.10208 0.76483 0.73345
 C256 C 0.11086 0.82493 0.75747
 C257 C 0.02515 0.70274 0.79708
 C258 C 0.01685 0.64234 0.77304
 H259 H -0.10511 0.77131 0.76413
 H260 H -0.11806 0.66342 0.71960
 H261 H 0.15197 0.78171 0.71372
 H262 H 0.16834 0.89229 0.75823
 H263 H 0.02368 0.68884 0.82398
 H264 H 0.00895 0.57736 0.77939
   
