data_POSCAR
  _audit_creation_date              2014-09-24
  _audit_creation_method            'ToBaCCo'
  _symmetry_space_group_name_H-M    'P1'
  _symmetry_Int_Tables_number       1
  _symmetry_cell_setting            triclinic
  loop_
  _symmetry_equiv_pos_as_xyz
 x,y,z
_cell_length_a 66.3876
_cell_length_b 66.3981
_cell_length_c 21.8139
_cell_angle_alpha 89.973900
_cell_angle_beta 89.707900
_cell_angle_gamma 120.141900
loop_
  _atom_site_label
  _atom_site_type_symbol
  _atom_site_fract_x
  _atom_site_fract_y
  _atom_site_fract_z
C1 C 0.24013 0.48235 0.53679
 C2 C 0.23948 0.48260 0.47437
 C3 C 0.22188 0.48608 0.44172
 C4 C 0.25637 0.47949 0.43614
 C5 C 0.26067 0.48449 0.56954
 C6 C 0.22033 0.47987 0.57477
 C7 C 0.20817 0.47025 0.39657
 C8 C 0.19153 0.47281 0.36455
 C9 C 0.18733 0.49332 0.37646
 C10 C 0.20346 0.50950 0.42583
 C11 C 0.21961 0.50545 0.45539
 C12 C 0.25965 0.46043 0.44595
 C13 C 0.27541 0.45747 0.40982
 C14 C 0.28825 0.47350 0.36323
 C15 C 0.28452 0.49229 0.35244
 C16 C 0.26869 0.49520 0.38853
 C17 C 0.28317 0.50270 0.55532
 C18 C 0.30250 0.50434 0.58500
 C19 C 0.29973 0.48810 0.63025
 C20 C 0.27711 0.47002 0.64505
 C21 C 0.25777 0.46836 0.61517
 C22 C 0.22419 0.49568 0.62216
 C23 C 0.20559 0.49335 0.65797
 C24 C 0.18278 0.47503 0.64721
 C25 C 0.17909 0.45889 0.60088
 C26 C 0.19766 0.46130 0.56489
 H27 H 0.21024 0.45543 0.38633
 H28 H 0.18134 0.45991 0.33042
 H29 H 0.20236 0.52471 0.43837
 H30 H 0.23070 0.51780 0.48969
 H31 H 0.24992 0.44777 0.48148
 H32 H 0.27771 0.44269 0.41858
 H33 H 0.26616 0.50982 0.37959
 H34 H 0.28576 0.51558 0.52096
 H35 H 0.31971 0.51839 0.57266
 H36 H 0.27421 0.45675 0.67833
 H37 H 0.24054 0.45415 0.62664
 H38 H 0.24160 0.50992 0.63109
 H39 H 0.20921 0.50570 0.69452
 H40 H 0.16175 0.44447 0.59215
 H41 H 0.19437 0.44861 0.52947
 H42 H 0.29349 0.50458 0.31569
 C43 C 0.50689 -0.24923 0.53277
 C44 C 0.50309 -0.25230 0.47117
 C45 C 0.50224 -0.27228 0.43862
 C46 C 0.49994 -0.23555 0.43291
 C47 C 0.50889 -0.22842 0.56394
 C48 C 0.50850 -0.26669 0.57211
 C49 C 0.52116 -0.27616 0.44017
 C50 C 0.52000 -0.29518 0.40946
 C51 C 0.49992 -0.31051 0.37635
 C52 C 0.48108 -0.30653 0.37496
 C53 C 0.48232 -0.28744 0.40528
 C54 C 0.51509 -0.22432 0.38345
 C55 C 0.51342 -0.20736 0.34957
 C56 C 0.49648 -0.20130 0.36463
 C57 C 0.48062 -0.21341 0.41227
 C58 C 0.48229 -0.23040 0.44608
 C59 C 0.49322 -0.23153 0.61106
 C60 C 0.49278 -0.21268 0.63738
 C61 C 0.50902 -0.18802 0.61648
 C62 C 0.52592 -0.18633 0.56809
 C63 C 0.52551 -0.20599 0.54442
 C64 C 0.49089 -0.29018 0.57210
 C65 C 0.49274 -0.30647 0.60869
 C66 C 0.51226 -0.29956 0.64690
 C67 C 0.52940 -0.27579 0.64824
 C68 C 0.52756 -0.25959 0.61128
 H69 H 0.53674 -0.26451 0.46536
 H70 H 0.53462 -0.29805 0.41274
 H71 H 0.46541 -0.31816 0.35005
 H72 H 0.46759 -0.28467 0.40354
 H73 H 0.52858 -0.22834 0.37195
 H74 H 0.52537 -0.19919 0.31168
 H75 H 0.47010 -0.23925 0.48324
 H76 H 0.48055 -0.24894 0.62624
 H77 H 0.47989 -0.21601 0.67248
 H78 H 0.53860 -0.16936 0.55037
 H79 H 0.53793 -0.20374 0.50886
 H80 H 0.47561 -0.29591 0.54384
 H81 H 0.47853 -0.32422 0.60709
 H82 H 0.54452 -0.26969 0.67740
 H83 H 0.54121 -0.24149 0.61265
 H84 H 0.46719 -0.20937 0.42422
 C85 C 1.24729 0.76159 0.54351
 C86 C 1.24530 0.76254 0.48160
 C87 C 1.26342 0.78172 0.44391
 C88 C 1.22528 0.74369 0.44794
 C89 C 1.22955 0.74150 0.57913
 C90 C 1.26711 0.78012 0.57824
 C91 C 1.25709 0.79404 0.40374
 C92 C 1.27385 0.81184 0.36697
 C93 C 1.29738 0.81778 0.36957
 C94 C 1.30352 0.80489 0.40916
 C95 C 1.28667 0.78702 0.44562
 C96 C 1.20233 0.73820 0.46067
 C97 C 1.18366 0.71983 0.43026
 C98 C 1.18763 0.70703 0.38541
 C99 C 1.21068 0.71287 0.37183
 C100 C 1.22931 0.73108 0.40273
 C101 C 1.22806 0.71974 0.57485
 C102 C 1.20969 0.70021 0.60317
 C103 C 1.19221 0.70211 0.63534
 C104 C 1.19418 0.72416 0.64023
 C105 C 1.21289 0.74373 0.61330
 C106 C 1.28159 0.77457 0.61194
 C107 C 1.30066 0.79184 0.64375
 C108 C 1.30547 0.81505 0.64393
 C109 C 1.29065 0.82050 0.61037
 C110 C 1.27172 0.80318 0.57786
 H111 H 1.23913 0.78995 0.40115
 H112 H 1.26837 0.82113 0.33675
 H113 H 1.32105 0.80791 0.41177
 H114 H 1.29174 0.77713 0.47477
 H115 H 1.19886 0.74808 0.49430
 H116 H 1.16607 0.71566 0.44156
 H117 H 1.24691 0.73507 0.39227
 H118 H 1.24078 0.71781 0.54813
 H119 H 1.20879 0.68364 0.59681
 H120 H 1.18111 0.72628 0.66462
 H121 H 1.21381 0.76045 0.61666
 H122 H 1.27835 0.75688 0.61272
 H123 H 1.31163 0.78693 0.66871
 H124 H 1.29369 0.83804 0.60755
 H125 H 1.26067 0.80777 0.55218
 H126 H 1.21438 0.70304 0.33863
 C127 C 0.74120 0.49060 0.52560
 C128 C 0.74650 0.49684 0.46554
 C129 C 0.76887 0.50144 0.43761
 C130 C 0.73027 0.49990 0.42550
 C131 C 0.72005 0.48877 0.55449
 C132 C 0.75711 0.48705 0.56601
 C133 C 0.79012 0.51788 0.46351
 C134 C 0.81125 0.52139 0.44053
 C135 C 0.81252 0.50832 0.38604
 C136 C 0.78894 0.49184 0.35948
 C137 C 0.76849 0.48902 0.38546
 C138 C 0.73635 0.52220 0.40439
 C139 C 0.72031 0.52569 0.37167
 C140 C 0.69826 0.50681 0.35779
 C141 C 0.69248 0.48432 0.37710
 C142 C 0.70834 0.48092 0.41108
 C143 C 0.70335 0.46787 0.58189
 C144 C 0.68325 0.46603 0.60832
 C145 C 0.67948 0.48511 0.60839
 C146 C 0.69664 0.50621 0.58129
 C147 C 0.71671 0.50799 0.55526
 C148 C 0.76388 0.47083 0.55053
 C149 C 0.78093 0.46919 0.58346
 C150 C 0.79317 0.48474 0.63760
 C151 C 0.78334 0.50056 0.65326
 C152 C 0.76622 0.50105 0.61791
 H153 H 0.79031 0.52791 0.50288
 H154 H 0.82723 0.53390 0.46279
 H155 H 0.78771 0.48148 0.31988
 H156 H 0.75199 0.47651 0.36533
 H157 H 0.75318 0.53702 0.41537
 H158 H 0.72504 0.54317 0.35755
 H159 H 0.70340 0.46360 0.42719
 H160 H 0.70576 0.45290 0.58217
 H161 H 0.67060 0.44956 0.62880
 H162 H 0.69508 0.52160 0.57962
 H163 H 0.72972 0.52446 0.53559
 H164 H 0.75633 0.45975 0.51094
 H165 H 0.78612 0.45689 0.56850
 H166 H 0.79026 0.51232 0.69172
 H167 H 0.76066 0.51337 0.62981
 H168 H 0.67542 0.46952 0.36805
 C169 C 0.50299 0.24869 0.53723
 C170 C 0.50524 0.25041 0.47494
 C171 C 0.50984 0.27202 0.44237
 C172 C 0.50196 0.23041 0.43683
 C173 C 0.50400 0.22981 0.57135
 C174 C 0.49912 0.26550 0.57344
 C175 C 0.49561 0.27084 0.39362
 C176 C 0.49878 0.29121 0.36590
 C177 C 0.51627 0.31316 0.38658
 C178 C 0.53128 0.31424 0.43313
 C179 C 0.52811 0.29386 0.46081
 C180 C 0.48212 0.20833 0.44478
 C181 C 0.47875 0.18965 0.40818
 C182 C 0.49511 0.19261 0.36287
 C183 C 0.51475 0.21487 0.35398
 C184 C 0.51808 0.23358 0.39060
 C185 C 0.52194 0.22497 0.55976
 C186 C 0.52278 0.20713 0.59139
 C187 C 0.50594 0.19391 0.63624
 C188 C 0.48806 0.19905 0.64823
 C189 C 0.48722 0.21685 0.61622
 C190 C 0.51258 0.27635 0.62541
 C191 C 0.50937 0.29264 0.65832
 C192 C 0.49249 0.29837 0.63979
 C193 C 0.47878 0.28701 0.58835
 C194 C 0.48183 0.27059 0.55613
 H195 H 0.48165 0.25416 0.37806
 H196 H 0.48750 0.28965 0.32838
 H197 H 0.54512 0.33091 0.44915
 H198 H 0.53963 0.29512 0.49746
 H199 H 0.46912 0.20560 0.47906
 H200 H 0.46333 0.17279 0.41545
 H201 H 0.53329 0.25057 0.38299
 H202 H 0.53536 0.23504 0.52614
 H203 H 0.53680 0.20378 0.58085
 H204 H 0.47435 0.18931 0.68115
 H205 H 0.47320 0.22029 0.62582
 H206 H 0.52594 0.27258 0.63975
 H207 H 0.52068 0.30100 0.69683
 H208 H 0.46554 0.29081 0.57283
 H209 H 0.47080 0.26198 0.51715
 H210 H 0.52736 0.21804 0.31824
 C211 C 0.75132 0.26096 0.51611
 C212 C 0.75403 0.25843 0.45522
 C213 C 0.73692 0.23722 0.42255
 C214 C 0.77420 0.27572 0.41838
 C215 C 0.76819 0.28177 0.55127
 C216 C 0.73149 0.24211 0.55083
 C217 C 0.74244 0.21995 0.40855
 C218 C 0.72594 0.19925 0.38096
 C219 C 0.70401 0.19587 0.36528
 C220 C 0.69865 0.21341 0.37831
 C221 C 0.71499 0.23391 0.40720
 C222 C 0.79718 0.28266 0.43515
 C223 C 0.81588 0.29810 0.39798
 C224 C 0.81187 0.30674 0.34318
 C225 C 0.78885 0.29948 0.32635
 C226 C 0.77023 0.28416 0.36352
 C227 C 0.77505 0.30443 0.53135
 C228 C 0.79185 0.32372 0.56372
 C229 C 0.80203 0.32086 0.61712
 C230 C 0.79422 0.29796 0.63819
 C231 C 0.77757 0.27877 0.60555
 C232 C 0.71350 0.24551 0.57186
 C233 C 0.69402 0.22780 0.60183
 C234 C 0.69134 0.20432 0.61364
 C235 C 0.71184 0.20250 0.59073
 C236 C 0.73070 0.22093 0.56106
 H237 H 0.75931 0.22231 0.42048
 H238 H 0.73031 0.18586 0.37165
 H239 H 0.68166 0.21100 0.36780
 H240 H 0.71053 0.24712 0.41812
 H241 H 0.80059 0.27581 0.47640
 H242 H 0.83330 0.30268 0.41161
 H243 H 0.75264 0.27884 0.34937
 H244 H 0.76759 0.30719 0.49039
 H245 H 0.79708 0.34097 0.54636
 H246 H 0.80072 0.29431 0.67938
 H247 H 0.77233 0.26144 0.62219
 H248 H 0.71437 0.26204 0.56386
 H249 H 0.68034 0.23108 0.61667
 H250 H 0.71197 0.18640 0.59676
 H251 H 0.74489 0.21860 0.54521
 H252 H 0.78525 0.30570 0.28422
 N253 N 0.98367 0.53721 0.05954
 N254 N 0.96601 0.54067 0.06898
 N255 N 1.03328 0.54616 0.08809
 N256 N 1.05137 0.55831 0.12398
 N257 N 1.03235 0.55947 0.04501
 N258 N 1.04987 0.58103 0.05019
 N259 N 0.98462 0.52396 0.10282
 N260 N 0.96762 0.51811 0.14309
 C261 C 0.95632 0.52886 0.12146
 C262 C 1.06163 0.57999 0.09943
 N263 N 1.02799 0.48608 0.04772
 N264 N 1.04392 0.47991 0.05322
 N265 N 0.98223 0.47943 0.10507
 N266 N 0.96761 0.46958 0.15128
 N267 N 0.97942 0.46385 0.06375
 N268 N 0.96275 0.44291 0.08093
 N269 N 1.03072 0.50140 0.08977
 N270 N 1.04856 0.50596 0.12532
 Mn271 Mn 1.00776 0.51277 0.09711
 C272 C 1.05668 0.49253 0.10145
 C273 C 0.95549 0.44688 0.13546
 N274 N 1.02682 0.55610 -0.08582
 N275 N 1.04632 0.57594 -0.09547
 N276 N 0.97524 0.51848 -0.11267
 N277 N 0.95579 0.51153 -0.14342
 N278 N 0.97801 0.53400 -0.07131
 N279 N 0.96047 0.53806 -0.07283
 N280 N 1.02389 0.54083 -0.12820
 N281 N 1.04119 0.55001 -0.16836
 Mn282 Mn 1.00524 0.54695 -0.01324
 C283 C 1.05489 0.57196 -0.14747
 C284 C 0.94680 0.52395 -0.11811
 N285 N 0.97372 0.46066 -0.06774
 N286 N 0.95572 0.43933 -0.07107
 N287 N 1.02132 0.49627 -0.12616
 N288 N 1.03784 0.50189 -0.16762
 N289 N 1.02244 0.48293 -0.08345
 N290 N 1.03981 0.47909 -0.09486
 N291 N 0.97268 0.47392 -0.11083
 N292 N 0.95394 0.46195 -0.14476
 Mn293 Mn 1.00086 0.47312 -0.00997
 Mn294 Mn 0.99823 0.50736 -0.12018
 Cl295 Cl 1.00303 0.51004 -0.01150
 C296 C 0.94351 0.44044 -0.11908
 C297 C 1.04913 0.49096 -0.14778
 N298 N 0.47582 0.44921 0.08457
 N299 N 0.47170 0.42823 0.09918
 N300 N 0.46688 0.48907 0.12114
 N301 N 0.45736 0.49724 0.15968
 N302 N 0.45101 0.47324 0.08526
 N303 N 0.43019 0.47013 0.09868
 N304 N 0.49177 0.46497 0.12038
 N305 N 0.49900 0.45507 0.16048
 C306 C 0.48633 0.43214 0.14622
 C307 C 0.43450 0.48524 0.14531
 N308 N 0.52118 0.54443 0.05368
 N309 N 0.52628 0.56630 0.05868
 N310 N 0.53451 0.50856 0.10112
 N311 N 0.54761 0.50382 0.13668
 N312 N 0.54631 0.52056 0.05276
 N313 N 0.56773 0.52404 0.05377
 N314 N 0.50953 0.53233 0.10207
 N315 N 0.50632 0.54560 0.14121
 Mn316 Mn 0.50072 0.49875 0.11187
 C317 C 0.51674 0.56669 0.11331
 C318 C 0.56829 0.51364 0.10663
 N319 N 0.44505 0.46696 -0.04555
 N320 N 0.42335 0.46254 -0.04794
 N321 N 0.48203 0.45510 -0.09384
 N322 N 0.48755 0.44247 -0.12924
 N323 N 0.47010 0.44306 -0.04569
 N324 N 0.46730 0.42190 -0.04687
 N325 N 0.45685 0.47879 -0.09404
 N326 N 0.44351 0.48281 -0.13077
 Mn327 Mn 0.46024 0.45790 0.01972
 C328 C 0.42268 0.47256 -0.10127
 C329 C 0.47817 0.42179 -0.09943
 N330 N 0.54026 0.51480 -0.07761
 N331 N 0.56149 0.51982 -0.09327
 N332 N 0.49935 0.52210 -0.11328
 N333 N 0.49136 0.53112 -0.15354
 N334 N 0.51495 0.53836 -0.07774
 N335 N 0.51812 0.55903 -0.09337
 N336 N 0.52475 0.49860 -0.11341
 N337 N 0.53507 0.49217 -0.15463
 Mn338 Mn 0.53089 0.52982 -0.01229
 Mn339 Mn 0.49072 0.48858 -0.10432
 Cl340 Cl 0.49565 0.49379 0.00374
 C341 C 0.55798 0.50550 -0.14098
 C342 C 0.50315 0.55410 -0.14065
 N343 N 0.46305 -0.02315 0.08988
 N344 N 0.44205 -0.04027 0.10512
 N345 N 0.50350 0.02558 0.12703
 N346 N 0.51210 0.04338 0.16505
 N347 N 0.48789 0.02596 0.09105
 N348 N 0.48546 0.04410 0.10372
 N349 N 0.47886 -0.02329 0.12548
 N350 N 0.46921 -0.04047 0.16549
 C351 C 0.44632 -0.05092 0.15221
 C352 C 0.50065 0.05471 0.15017
 N353 N 0.55847 0.02597 0.06099
 N354 N 0.57962 0.04440 0.06267
 N355 N 0.52156 -0.02349 0.10767
 N356 N 0.51668 -0.04137 0.14371
 N357 N 0.53382 -0.02318 0.05996
 N358 N 0.53765 -0.04086 0.06221
 N359 N 0.54630 0.02542 0.10920
 N360 N 0.55883 0.04329 0.14530
 Mn361 Mn 0.51257 0.00104 0.11794
 C362 C 0.57958 0.05489 0.11582
 C363 C 0.52683 -0.05204 0.11467
 N364 N 0.48239 0.02656 -0.03992
 N365 N 0.47792 0.04379 -0.04278
 N366 N 0.46980 -0.02214 -0.08960
 N367 N 0.45626 -0.03820 -0.12943
 N368 N 0.45764 -0.02234 -0.04162
 N369 N 0.43551 -0.03844 -0.04773
 N370 N 0.49460 0.02689 -0.08790
 N371 N 0.49879 0.04439 -0.12468
 Mn372 Mn 0.47248 0.00174 0.02497
 C373 C 0.48831 0.05477 -0.09574
 C374 C 0.43496 -0.04834 -0.10239
 N375 N 0.52839 -0.02242 -0.07036
 N376 N 0.53049 -0.04085 -0.08042
 N377 N 0.53779 0.02697 -0.10608
 N378 N 0.54816 0.04425 -0.14607
 N379 N 0.55319 0.02647 -0.06954
 N380 N 0.57439 0.04325 -0.08364
 N381 N 0.51299 -0.02217 -0.10745
 N382 N 0.50432 -0.04040 -0.14423
 Mn383 Mn 0.54369 0.00172 -0.00486
 Mn384 Mn 0.50377 0.00240 -0.09857
 Cl385 Cl 0.50810 0.00172 0.00977
 C386 C 0.51555 -0.05176 -0.12683
 C387 C 0.57100 0.05427 -0.13108
 C388 C 1.16961 0.49795 0.34452
 C389 C 1.15448 0.48348 0.29969
 C390 C 1.13743 0.48830 0.26977
 C391 C 1.12198 0.47227 0.22715
 C392 C 1.10551 0.47609 0.19811
 C393 C 1.10432 0.49627 0.21064
 C394 C 1.11962 0.51220 0.25380
 C395 C 1.13609 0.50834 0.28300
 C396 C 1.08681 0.50068 0.18135
 C397 C 1.07585 0.49022 0.12659
 H398 H 1.15487 0.46798 0.28616
 H399 H 1.12249 0.45658 0.21666
 H400 H 1.09351 0.46291 0.16698
 H401 H 1.11889 0.52774 0.26477
 H402 H 1.14771 0.52102 0.31586
 H403 H 1.08248 0.51264 0.20351
 H404 H 1.17840 0.49464 0.35935
 H405 H 1.08086 0.47936 0.10151
 C406 C 0.49773 0.66886 0.34448
 C407 C 0.51683 0.66764 0.32220
 C408 C 0.51433 0.64695 0.28987
 C409 C 0.53145 0.64972 0.24730
 C410 C 0.52960 0.63050 0.21602
 C411 C 0.51060 0.60806 0.22725
 C412 C 0.49382 0.60524 0.27098
 C413 C 0.49558 0.62446 0.30191
 C414 C 0.50827 0.58716 0.19649
 C415 C 0.51868 0.58783 0.14028
 H416 H 0.53405 0.68286 0.32473
 H417 H 0.54625 0.66683 0.23805
 H418 H 0.54331 0.63327 0.18420
 H419 H 0.47925 0.58808 0.28123
 H420 H 0.48249 0.62156 0.33599
 H421 H 0.49735 0.57042 0.21834
 H422 H 0.48033 0.65478 0.33471
 H423 H 0.52836 0.60400 0.11513
 C424 C 0.31360 -0.16389 0.33211
 C425 C 0.33775 -0.15434 0.33508
 C426 C 0.35427 -0.13501 0.29519
 C427 C 0.37689 -0.12030 0.31662
 C428 C 0.39329 -0.10217 0.28013
 C429 C 0.38757 -0.09866 0.22055
 C430 C 0.36483 -0.11317 0.19931
 C431 C 0.34832 -0.13130 0.23609
 C432 C 0.40487 -0.07989 0.18035
 C433 C 0.42872 -0.07079 0.18754
 H434 H 0.34533 -0.15971 0.37061
 H435 H 0.38184 -0.12272 0.36210
 H436 H 0.41031 -0.09084 0.29930
 H437 H 0.35997 -0.11074 0.15374
 H438 H 0.33118 -0.14264 0.21754
 H439 H 0.39871 -0.07343 0.14356
 H440 H 0.30699 -0.15601 0.30058
 H441 H 0.43512 -0.07809 0.22134
 C442 C 0.83785 0.51196 0.35918
 C443 C 0.83986 0.50473 0.30093
 C444 C 0.86207 0.50767 0.27738
 C445 C 0.86455 0.50550 0.21427
 C446 C 0.88539 0.50837 0.19035
 C447 C 0.90409 0.51324 0.22933
 C448 C 0.90141 0.51477 0.29266
 C449 C 0.88067 0.51225 0.31654
 C450 C 0.92626 0.51635 0.20485
 C451 C 0.93495 0.52663 0.14792
 H452 H 0.82492 0.49746 0.27079
 H453 H 0.85038 0.50172 0.18330
 H454 H 0.88669 0.50643 0.14146
 H455 H 0.91552 0.51827 0.32356
 H456 H 0.87915 0.51370 0.36557
 H457 H 0.93647 0.51149 0.23336
 H458 H 0.82479 0.50975 0.37160
 H459 H 0.92598 0.53357 0.12176
 C460 C 0.51922 0.33511 0.36072
 C461 C 0.50055 0.33655 0.33646
 C462 C 0.50210 0.35796 0.31065
 C463 C 0.48125 0.35715 0.29473
 C464 C 0.48151 0.37629 0.26766
 C465 C 0.50272 0.39676 0.25548
 C466 C 0.52358 0.39800 0.27315
 C467 C 0.52336 0.37871 0.30001
 C468 C 0.50325 0.41670 0.22362
 C469 C 0.48697 0.41316 0.17872
 H470 H 0.48340 0.32117 0.33812
 H471 H 0.46462 0.34152 0.30285
 H472 H 0.46505 0.37502 0.25641
 H473 H 0.54011 0.41367 0.26450
 H474 H 0.53987 0.38015 0.31102
 H475 H 0.51737 0.43417 0.23277
 H476 H 0.53607 0.35064 0.36539
 H477 H 0.47426 0.39560 0.16533
 C478 C 0.68665 0.17354 0.33821
 C479 C 0.67076 0.17198 0.29433
 C480 C 0.65299 0.14939 0.26926
 C481 C 0.64652 0.14786 0.20761
 C482 C 0.62956 0.12659 0.18324
 C483 C 0.61847 0.10667 0.22073
 C484 C 0.62455 0.10836 0.28272
 C485 C 0.64183 0.12948 0.30672
 C486 C 0.59969 0.08429 0.19736
 C487 C 0.59927 0.07683 0.13749
 H488 H 0.67226 0.18775 0.27534
 H489 H 0.65472 0.16310 0.17824
 H490 H 0.62474 0.12590 0.13563
 H491 H 0.61595 0.09328 0.31257
 H492 H 0.64609 0.13034 0.35486
 H493 H 0.58622 0.07280 0.22930
 H494 H 0.68725 0.15805 0.35064
 H495 H 0.61368 0.08693 0.10646
 C496 C 0.50758 0.17600 -0.33375
 C497 C 0.49346 0.16269 -0.28470
 C498 C 0.49540 0.14345 -0.25651
 C499 C 0.48859 0.13749 -0.19516
 C500 C 0.48974 0.11914 -0.16728
 C501 C 0.49737 0.10605 -0.20074
 C502 C 0.50422 0.11209 -0.26212
 C503 C 0.50315 0.13049 -0.28991
 C504 C 0.49849 0.08611 -0.17382
 C505 C 0.48757 0.07514 -0.11899
 H506 H 0.48147 0.16707 -0.26320
 H507 H 0.48255 0.14721 -0.16850
 H508 H 0.48482 0.11557 -0.11954
 H509 H 0.51012 0.10230 -0.28903
 H510 H 0.50790 0.13412 -0.33782
 H511 H 0.50759 0.07914 -0.19967
 H512 H 0.52123 0.17269 -0.34875
 H513 H 0.47762 0.08092 -0.09265
 C514 C 0.65896 0.48232 -0.36399
 C515 C 0.65320 0.49988 -0.35906
 C516 C 0.63238 0.49692 -0.32581
 C517 C 0.63294 0.51682 -0.30215
 C518 C 0.61402 0.51502 -0.26938
 C519 C 0.59397 0.49318 -0.25970
 C520 C 0.59294 0.47333 -0.28549
 C521 C 0.61201 0.47512 -0.31807
 C522 C 0.57402 0.49097 -0.22363
 C523 C 0.57726 0.50600 -0.17534
 H524 H 0.66494 0.51719 -0.37601
 H525 H 0.64822 0.53386 -0.30846
 H526 H 0.61507 0.53080 -0.25221
 H527 H 0.57748 0.45639 -0.27965
 H528 H 0.61060 0.45949 -0.33759
 H529 H 0.55667 0.47678 -0.23359
 H530 H 0.64715 0.46556 -0.34351
 H531 H 0.59472 0.51883 -0.16159
 C532 C 0.81970 0.34089 -0.35359
 C533 C 0.83229 0.34059 -0.30249
 C534 C 0.85196 0.36169 -0.27498
 C535 C 0.86773 0.35891 -0.23845
 C536 C 0.88665 0.37809 -0.21152
 C537 C 0.89008 0.40061 -0.21979
 C538 C 0.87433 0.40347 -0.25629
 C539 C 0.85533 0.38421 -0.28332
 C540 C 0.91028 0.42138 -0.19289
 C541 C 0.92222 0.42016 -0.14187
 H542 H 0.82897 0.32425 -0.28314
 H543 H 0.86562 0.34180 -0.23136
 H544 H 0.89875 0.37516 -0.18546
 H545 H 0.87662 0.42065 -0.26347
 H546 H 0.84330 0.38711 -0.30977
 H547 H 0.91578 0.43822 -0.21355
 H548 H 0.82445 0.35760 -0.37375
 H549 H 0.91609 0.40387 -0.11768
 C550 C 0.50863 -0.16449 -0.35727
 C551 C 0.49675 -0.16512 -0.30414
 C552 C 0.49674 -0.14425 -0.28110
 C553 C 0.49165 -0.14330 -0.21909
 C554 C 0.49255 -0.12336 -0.19526
 C555 C 0.49820 -0.10415 -0.23339
 C556 C 0.50222 -0.10548 -0.29600
 C557 C 0.50177 -0.12527 -0.31965
 C558 C 0.50062 -0.08246 -0.20811
 C559 C 0.51151 -0.07389 -0.15213
 H560 H 0.48837 -0.18091 -0.27683
 H561 H 0.48747 -0.15782 -0.18873
 H562 H 0.48887 -0.12294 -0.14701
 H563 H 0.50643 -0.09091 -0.32618
 H564 H 0.50539 -0.12569 -0.36794
 H565 H 0.49594 -0.07200 -0.23624
 H566 H 0.50836 -0.17673 -0.36944
 H567 H 0.51854 -0.08308 -0.12725
 C568 C 0.32084 0.49017 -0.34103
 C569 C 0.32070 0.48007 -0.28472
 C570 C 0.34172 0.48138 -0.25753
 C571 C 0.33881 0.46451 -0.21415
 C572 C 0.35811 0.46481 -0.18798
 C573 C 0.38082 0.48227 -0.20412
 C574 C 0.38373 0.49925 -0.24714
 C575 C 0.36443 0.49896 -0.27330
 C576 C 0.40178 0.48297 -0.17861
 C577 C 0.40165 0.47196 -0.12409
 H578 H 0.30447 0.47010 -0.25994
 H579 H 0.32151 0.45079 -0.20123
 H580 H 0.35507 0.45103 -0.15627
 H581 H 0.40104 0.51291 -0.26024
 H582 H 0.36748 0.51272 -0.30504
 H583 H 0.41814 0.49314 -0.20293
 H584 H 0.33708 0.50016 -0.36576
 H585 H 0.38601 0.46293 -0.09650
 C586 C 1.17236 0.68276 -0.33983
 C587 C 1.16977 0.66071 -0.33186
 C588 C 1.14763 0.64132 -0.30886
 C589 C 1.14741 0.62880 -0.25691
 C590 C 1.12627 0.61127 -0.23275
 C591 C 1.10521 0.60556 -0.26162
 C592 C 1.10553 0.61735 -0.31521
 C593 C 1.12659 0.63542 -0.33814
 C594 C 1.08281 0.58774 -0.23543
 C595 C 1.07736 0.58893 -0.17444
 H596 H 1.18443 0.65795 -0.33646
 H597 H 1.16353 0.63308 -0.23406
 H598 H 1.12632 0.60213 -0.19165
 H599 H 1.08943 0.61307 -0.33811
 H600 H 1.12652 0.64478 -0.37875
 H601 H 1.06966 0.57504 -0.26561
 H602 H 1.15814 0.68513 -0.32422
 H603 H 1.08953 0.60336 -0.14635
 C604 C 0.81414 0.48429 -0.32852
 C605 C 0.82643 0.49928 -0.28077
 C606 C 0.84735 0.50032 -0.25387
 C607 C 0.86029 0.51762 -0.21060
 C608 C 0.88080 0.51992 -0.18640
 C609 C 0.88876 0.50477 -0.20478
 C610 C 0.87557 0.48723 -0.24746
 C611 C 0.85509 0.48499 -0.27180
 C612 C 0.91085 0.50692 -0.18232
 C613 C 0.92475 0.52227 -0.13657
 H614 H 0.82145 0.51160 -0.26463
 H615 H 0.85474 0.52969 -0.19619
 H616 H 0.89035 0.53385 -0.15430
 H617 H 0.88123 0.47531 -0.26252
 H618 H 0.84551 0.47142 -0.30505
 H619 H 0.91652 0.49576 -0.20312
 H620 H 0.80350 0.48517 -0.34432
 H621 H 0.91964 0.53329 -0.11290
 C622 C 0.48915 0.31537 -0.33093
 C623 C 0.49965 0.32659 -0.27609
 C624 C 0.49665 0.34564 -0.25109
 C625 C 0.49670 0.34864 -0.18741
 C626 C 0.49406 0.36666 -0.16284
 C627 C 0.49167 0.38222 -0.20177
 C628 C 0.49227 0.37957 -0.26542
 C629 C 0.49459 0.36141 -0.28992
 C630 C 0.48948 0.40189 -0.17791
 C631 C 0.48002 0.40176 -0.12057
 H632 H 0.50915 0.32067 -0.24852
 H633 H 0.49866 0.33693 -0.15664
 H634 H 0.49440 0.36862 -0.11356
 H635 H 0.49085 0.39157 -0.29634
 H636 H 0.49527 0.36006 -0.33925
 H637 H 0.49449 0.41665 -0.20810
 H638 H 0.47716 0.31987 -0.35193
 H639 H 0.47326 0.38658 -0.09118
 C640 C 0.66770 0.18281 -0.35134
 C641 C 0.66615 0.16178 -0.33558
 C642 C 0.64556 0.14270 -0.30430
 C643 C 0.64672 0.12331 -0.28360
 C644 C 0.62785 0.10505 -0.25307
 C645 C 0.60729 0.10576 -0.24255
 C646 C 0.60583 0.12483 -0.26472
 C647 C 0.62485 0.14326 -0.29492
 C648 C 0.58724 0.08669 -0.20934
 C649 C 0.59036 0.07390 -0.16345
 H650 H 0.68079 0.15932 -0.34517
 H651 H 0.66236 0.12231 -0.29088
 H652 H 0.62933 0.09027 -0.23846
 H653 H 0.59008 0.12564 -0.25776
 H654 H 0.62331 0.15787 -0.31089
 H655 H 0.56985 0.08337 -0.21912
 H656 H 0.67989 0.19330 -0.36915
 H657 H 0.60779 0.07860 -0.14947
 C658 C 1.16260 0.47194 -0.31595
 C659 C 1.16186 0.49042 -0.28757
 C660 C 1.14111 0.48760 -0.25417
 C661 C 1.13755 0.50667 -0.25041
 C662 C 1.11798 0.50463 -0.22026
 C663 C 1.10162 0.48344 -0.19268
 C664 C 1.10562 0.46461 -0.19439
 C665 C 1.12511 0.46659 -0.22513
 C666 C 1.08058 0.48074 -0.16111
 C667 C 1.06977 0.49314 -0.17910
 H668 H 1.17623 0.50797 -0.29443
 H669 H 1.14983 0.52316 -0.27148
 H670 H 1.11590 0.51977 -0.21797
 H671 H 1.09348 0.44825 -0.17255
 H672 H 1.12771 0.45176 -0.22536
 H673 H 1.07272 0.46781 -0.12503
 H674 H 1.14713 0.45485 -0.31546
 H675 H 1.07630 0.50464 -0.21846
 C676 C 0.51534 0.68475 -0.31608
 C677 C 0.50135 0.66045 -0.31823
 C678 C 0.50535 0.64440 -0.27967
 C679 C 0.49744 0.62174 -0.30094
 C680 C 0.50026 0.60576 -0.26579
 C681 C 0.51067 0.61192 -0.20757
 C682 C 0.51885 0.63470 -0.18649
 C683 C 0.51613 0.65079 -0.22196
 C684 C 0.51349 0.59514 -0.16856
 C685 C 0.49990 0.57108 -0.17601
 H686 H 0.48792 0.65240 -0.35242
 H687 H 0.48921 0.61641 -0.34535
 H688 H 0.49450 0.58876 -0.28512
 H689 H 0.52702 0.63996 -0.14200
 H690 H 0.52201 0.66795 -0.20341
 H691 H 0.52622 0.60187 -0.13211
 H692 H 0.53023 0.69197 -0.28583
 H693 H 0.48614 0.56395 -0.20959
 C694 C 0.32504 -0.16827 -0.32331
 C695 C 0.33049 -0.14530 -0.31205
 C696 C 0.35170 -0.12852 -0.27840
 C697 C 0.35126 -0.11109 -0.24304
 C698 C 0.37109 -0.09481 -0.21141
 C699 C 0.39193 -0.09544 -0.21528
 C700 C 0.39253 -0.11253 -0.25181
 C701 C 0.37260 -0.12901 -0.28275
 C702 C 0.41351 -0.07791 -0.18433
 C703 C 0.41337 -0.06667 -0.13041
 H704 H 0.31829 -0.13967 -0.32377
 H705 H 0.33548 -0.11012 -0.23974
 H706 H 0.37019 -0.08144 -0.18524
 H707 H 0.40847 -0.11315 -0.25635
 H708 H 0.37375 -0.14177 -0.31112
 H709 H 0.43008 -0.07428 -0.20359
 H710 H 0.33635 -0.17386 -0.30333
 H711 H 0.39707 -0.07148 -0.10749
 C712 C 0.49480 -0.18260 0.33196
 C713 C 0.51354 -0.16438 0.30058
 C714 C 0.51273 -0.14465 0.27111
 C715 C 0.53017 -0.13086 0.22838
 C716 C 0.53075 -0.11152 0.20110
 C717 C 0.51382 -0.10549 0.21611
 C718 C 0.49649 -0.11914 0.25923
 C719 C 0.49589 -0.13852 0.28646
 C720 C 0.51421 -0.08464 0.19018
 C721 C 0.52644 -0.07311 0.13713
 H722 H 0.52989 -0.16421 0.29764
 H723 H 0.54356 -0.13497 0.21635
 H724 H 0.54483 -0.10112 0.16959
 H725 H 0.48344 -0.11470 0.27229
 H726 H 0.48257 -0.14813 0.32049
 H727 H 0.50398 -0.07833 0.21337
 H728 H 0.47844 -0.18283 0.33533
 H729 H 0.53569 -0.07966 0.11052
 C730 C 0.30486 0.46975 0.32617
 C731 C 0.32396 0.48769 0.29530
 C732 C 0.34126 0.48416 0.26095
 C733 C 0.36379 0.50320 0.25238
 C734 C 0.38075 0.50057 0.22111
 C735 C 0.37547 0.47877 0.19736
 C736 C 0.35271 0.45992 0.20392
 C737 C 0.33576 0.46251 0.23558
 C738 C 0.39317 0.47531 0.16486
 C739 C 0.41694 0.48886 0.17666
 H740 H 0.32752 0.50539 0.30036
 H741 H 0.36836 0.52016 0.27045
 H742 H 0.39785 0.51573 0.21501
 H743 H 0.34809 0.44305 0.18507
 H744 H 0.31837 0.44763 0.23933
 H745 H 0.38723 0.46085 0.13330
 H746 H 0.30289 0.45255 0.32719
 H747 H 0.42308 0.50221 0.21150
 C748 C 1.16742 0.68719 0.35558
 C749 C 1.16856 0.67914 0.29720
 C750 C 1.14850 0.65885 0.26832
 C751 C 1.14719 0.65744 0.20414
 C752 C 1.12859 0.63838 0.17541
 C753 C 1.11105 0.62020 0.21052
 C754 C 1.11273 0.62131 0.27467
 C755 C 1.13117 0.64048 0.30339
 C756 C 1.09119 0.59965 0.18192
 C757 C 1.08234 0.60036 0.12460
 H758 H 1.18429 0.68880 0.27008
 H759 H 1.16054 0.67118 0.17613
 H760 H 1.12827 0.63777 0.12585
 H761 H 1.09962 0.60735 0.30269
 H762 H 1.13204 0.64061 0.35291
 H763 H 1.08219 0.58378 0.20882
 H764 H 1.15081 0.67944 0.37929
 H765 H 1.08978 0.61649 0.09892
 C766 C 0.49076 0.17227 0.32514
 C767 C 0.50837 0.17050 0.29464
 C768 C 0.50407 0.14945 0.26038
 C769 C 0.52243 0.14495 0.25286
 C770 C 0.51897 0.12498 0.22229
 C771 C 0.49699 0.10908 0.19823
 C772 C 0.47886 0.11406 0.20350
 C773 C 0.48230 0.13400 0.23444
 C774 C 0.49259 0.08746 0.16690
 C775 C 0.50508 0.07629 0.18046
 H776 H 0.52629 0.18415 0.30024
 H777 H 0.53948 0.15680 0.27137
 H778 H 0.53362 0.12222 0.21709
 H779 H 0.46190 0.10233 0.18435
 H780 H 0.46795 0.13731 0.23733
 H781 H 0.47828 0.07939 0.13486
 H782 H 0.47325 0.15743 0.32539
 H783 H 0.51825 0.08312 0.21569
 C784 C 0.68107 0.51124 0.32722
 C785 C 0.66447 0.49552 0.28661
 C786 C 0.64619 0.49939 0.26067
 C787 C 0.63865 0.49249 0.20037
 C788 C 0.62091 0.49551 0.17572
 C789 C 0.61004 0.50492 0.21173
 C790 C 0.61729 0.51139 0.27237
 C791 C 0.63539 0.50892 0.29647
 C792 C 0.59026 0.50691 0.18852
 C793 C 0.58866 0.51250 0.12785
 H794 H 0.66547 0.48051 0.27152
 H795 H 0.64655 0.48483 0.17231
 H796 H 0.61526 0.48986 0.12925
 H797 H 0.60893 0.51840 0.30113
 H798 H 0.64049 0.51386 0.34363
 H799 H 0.57708 0.50507 0.22117
 H800 H 0.68201 0.52779 0.33539
 H801 H 0.60280 0.51679 0.09593
 C802 C 0.83094 0.32266 0.30139
 C803 C 0.85402 0.33674 0.31977
 C804 C 0.87243 0.35371 0.27807
 C805 C 0.89151 0.37347 0.30321
 C806 C 0.90880 0.39029 0.26527
 C807 C 0.90739 0.38762 0.20116
 C808 C 0.88886 0.36736 0.17613
 C809 C 0.87148 0.35057 0.21410
 C810 C 0.92510 0.40549 0.15969
 C811 C 0.93758 0.42898 0.17539
 H812 H 0.85844 0.33695 0.36753
 H813 H 0.89288 0.37608 0.35238
 H814 H 0.92331 0.40523 0.28642
 H815 H 0.88764 0.36468 0.12700
 H816 H 0.85749 0.33513 0.19321
 H817 H 0.92753 0.40021 0.11455
 H818 H 0.82618 0.32457 0.25525
 H819 H 0.93407 0.43476 0.21839
   
