data_POSCAR
  _audit_creation_date              2014-09-24
  _audit_creation_method            'ToBaCCo'
  _symmetry_space_group_name_H-M    'P1'
  _symmetry_Int_Tables_number       1
  _symmetry_cell_setting            triclinic
  loop_
  _symmetry_equiv_pos_as_xyz
 x,y,z
_cell_length_a 21.2944
_cell_length_b 20.8688
_cell_length_c 20.9474
_cell_angle_alpha 54.588300
_cell_angle_beta 112.451400
_cell_angle_gamma 69.079900
loop_
  _atom_site_label
  _atom_site_type_symbol
  _atom_site_fract_x
  _atom_site_fract_y
  _atom_site_fract_z
O1 O 0.65820 0.36397 0.11623
 O2 O 0.44456 0.45294 0.06933
 O3 O 0.52604 0.36997 0.03524
 O4 O 0.58218 0.44258 0.15602
 O5 O 0.46075 0.63536 -0.03454
 O6 O 0.41617 0.55772 -0.15292
 O7 O 0.32898 0.64236 -0.12100
 O8 O 0.54493 0.55646 -0.06914
 Cu9 Cu 0.56335 0.38920 0.11240
 Cu10 Cu 0.42558 0.61735 -0.11385
 C11 C 0.63810 0.44537 0.03209
 C12 C 0.35024 0.56252 -0.03408
 C13 C 0.46408 0.44984 -0.07812
 C14 C 0.53098 0.55162 0.08091
 O15 O -0.03689 0.64720 0.42125
 O16 O -0.08775 0.48950 0.43634
 O17 O -0.11044 0.58450 0.48017
 O18 O -0.01720 0.55362 0.37373
 O19 O 0.14407 0.37008 0.56763
 O20 O 0.05475 0.41243 0.67251
 O21 O 0.07168 0.31405 0.63391
 O22 O 0.12981 0.46655 0.60924
 Cu23 Cu -0.07974 0.58743 0.40774
 Cu24 Cu 0.11654 0.37302 0.64011
 C25 C 0.05591 0.58280 0.51323
 C26 C -0.01625 0.37447 0.53946
 C27 C -0.04335 0.50459 0.59433
 C28 C 0.07834 0.45473 0.45268
 O29 O 0.43397 0.14559 0.45378
 O30 O 0.45752 0.04933 0.35433
 O31 O 0.33218 0.12976 0.35531
 O32 O 0.55579 0.06425 0.45149
 O33 O 0.66698 -0.12704 0.63686
 O34 O 0.44134 -0.05826 0.54275
 O35 O 0.56169 -0.13930 0.53683
 O36 O 0.54548 -0.04494 0.64017
 Cu37 Cu 0.43352 0.11580 0.38555
 Cu38 Cu 0.56491 -0.11146 0.60771
 C39 C 0.48728 0.06624 0.56472
 C40 C 0.51319 -0.06059 0.42791
 C41 C 0.34833 0.04749 0.43218
 C42 C 0.64932 -0.04257 0.56018
 C43 C 0.50736 0.23228 -0.19289
 C44 C 0.51561 0.18919 -0.22369
 C45 C 0.48983 0.13377 -0.19262
 N46 N 0.46566 0.14198 -0.14489
 C47 C 0.47632 0.20197 -0.14481
 C48 C 0.48248 0.08277 -0.21430
 C49 C 0.46932 0.01398 -0.16452
 C50 C 0.43042 -0.00770 -0.20863
 C51 C 0.44552 -0.09270 -0.12514
 C52 C 0.48959 -0.11765 -0.03395
 N53 N 0.50307 -0.05115 -0.05952
 C54 C 0.52787 -0.20964 0.07687
 C55 C 0.54597 -0.20886 0.14846
 C56 C 0.59645 -0.30280 0.26533
 C57 C 0.59013 -0.26106 0.29746
 C58 C 0.53394 -0.14197 0.19783
 N59 N 0.50725 -0.11063 0.10715
 C60 C 0.50048 -0.05944 0.18531
 C61 C 0.45541 0.05395 0.08548
 C62 C 0.38569 0.15908 0.03502
 C63 C 0.37265 0.24219 -0.04771
 C64 C 0.43365 0.18594 -0.04650
 N65 N 0.48205 0.07229 0.03274
 C66 C 0.45240 0.23417 -0.10752
 H67 H 0.52307 0.27960 -0.20409
 H68 H 0.53860 0.19705 -0.26346
 H69 H 0.54099 0.00545 0.06130
 H70 H 0.39631 0.03153 -0.29132
 H71 H 0.42672 -0.13107 -0.13292
 H72 H 0.63337 -0.39177 0.32152
 H73 H 0.62346 -0.31337 0.38441
 H74 H 0.32464 0.33315 -0.10167
 H75 H 0.54644 -0.06272 0.00024
 H76 H 0.34858 0.17432 0.05611
 C77 C -0.14443 0.46612 0.84110
 C78 C -0.16817 0.45054 0.89748
 C79 C -0.12522 0.45849 0.95744
 N80 N -0.07582 0.47772 0.94026
 C81 C -0.08743 0.48252 0.86915
 C82 C -0.12995 0.44406 1.02935
 C83 C -0.08171 0.44622 1.09562
 C84 C -0.06975 0.40897 1.18375
 C85 C -0.01166 0.41307 1.23583
 C86 C 0.00945 0.45430 1.17716
 N87 N -0.03569 0.47700 1.08964
 C88 C 0.07111 0.46680 1.20884
 C89 C 0.10542 0.49309 1.16248
 C90 C 0.16250 0.50932 1.19090
 C91 C 0.18084 0.53241 1.12841
 C92 C 0.13539 0.52804 1.06538
 N93 N 0.08946 0.50413 1.08636
 C94 C 0.13563 0.54806 0.98867
 C95 C 0.09346 0.53755 0.92926
 C96 C 0.08888 0.56476 0.84858
 C97 C 0.03583 0.55407 0.80172
 C98 C 0.01077 0.51812 0.85661
 N99 N 0.04898 0.50487 0.93711
 C100 C -0.04922 0.50320 0.82689
 H101 H -0.16606 0.46457 0.78652
 H102 H -0.21128 0.43420 0.89550
 H103 H 0.04853 0.47060 0.99721
 H104 H -0.09686 0.37784 1.21101
 H105 H 0.01400 0.38570 1.31071
 H106 H 0.18773 0.50558 1.24989
 H107 H 0.22317 0.54976 1.12967
 H108 H 0.01507 0.57535 0.73139
 H109 H -0.03984 0.51746 1.02541
 H110 H 0.11781 0.59329 0.82274
 C111 C 0.11662 -0.04230 0.38313
 C112 C 0.09482 -0.10114 0.39867
 C113 C 0.05411 -0.09374 0.43536
 N114 N 0.05183 -0.03426 0.44466
 C115 C 0.08948 -0.00225 0.41219
 C116 C 0.02622 -0.14832 0.46630
 C117 C -0.02191 -0.13409 0.49603
 C118 C -0.03782 -0.19901 0.54069
 C119 C -0.08399 -0.16205 0.56055
 C120 C -0.09179 -0.07902 0.53199
 N121 N -0.05744 -0.05885 0.48839
 C122 C -0.13034 -0.02557 0.54744
 C123 C -0.12946 0.04977 0.53036
 C124 C -0.17652 0.11168 0.53373
 C125 C -0.15416 0.16982 0.51875
 C126 C -0.09331 0.14007 0.50812
 N127 N -0.07822 0.06664 0.51534
 C128 C -0.04499 0.17152 0.50400
 C129 C 0.01437 0.14380 0.48930
 C130 C 0.08193 0.14815 0.51297
 C131 C 0.12406 0.11620 0.48753
 C132 C 0.08299 0.09066 0.45139
 N133 N 0.01467 0.10978 0.45056
 C134 C 0.10743 0.05438 0.41710
 H135 H 0.15116 -0.03301 0.35678
 H136 H 0.10837 -0.14550 0.38578
 H137 H -0.03659 0.11170 0.41378
 H138 H -0.01741 -0.26747 0.55918
 H139 H -0.10814 -0.19385 0.59368
 H140 H -0.22176 0.11414 0.54620
 H141 H -0.17836 0.22585 0.51789
 H142 H 0.17970 0.11109 0.49640
 H143 H -0.06346 0.00707 0.44946
 H144 H 0.10060 0.17040 0.54665
 N145 N -0.12470 0.29781 1.13299
 N146 N -0.18352 0.29397 1.13829
 C147 C -0.27576 0.40984 1.05300
 C148 C -0.27192 0.48504 0.99521
 N149 N -0.17645 0.41149 1.04774
 H150 H -0.33056 0.58219 0.92581
 N151 N 0.11261 0.70398 0.85530
 N152 N 0.16765 0.71087 0.84353
 C153 C 0.26878 0.59558 0.94661
 C154 C 0.27432 0.51786 1.02267
 N155 N 0.17506 0.58922 0.96217
 H156 H 0.34175 0.41882 1.10839
 N157 N 0.16499 -0.34990 0.58957
 N158 N 0.17580 -0.42678 0.60724
 C159 C 0.07805 -0.36236 0.51373
 C160 C 0.00654 -0.24213 0.43613
 N161 N 0.06424 -0.23900 0.48821
 H162 H -0.07926 -0.16890 0.35940
 N163 N 0.00617 0.15164 0.64493
 N164 N 0.01440 0.20430 0.65751
 C165 C -0.03196 0.30749 0.55123
 C166 C -0.06869 0.31656 0.47284
 N167 N -0.04257 0.21689 0.53526
 H168 H -0.10048 0.38119 0.38533
 N169 N 0.42137 0.21817 -0.40560
 N170 N 0.41923 0.21750 -0.46935
 C171 C 0.47983 0.10204 -0.39682
 C172 C 0.52187 0.03123 -0.28534
 N173 N 0.48121 0.10762 -0.29544
 H174 H 0.57035 -0.06428 -0.20819
 N175 N 0.50382 -0.15649 0.33235
 N176 N 0.51024 -0.16217 0.40140
 C177 C 0.51960 -0.09480 0.38414
 C178 C 0.51941 -0.04857 0.30340
 N179 N 0.50886 -0.08830 0.27214
 H180 H 0.52536 0.00959 0.26999
 N181 N 0.65276 -0.42530 0.22360
 N182 N 0.65656 -0.49369 0.22968
 C183 C 0.55700 -0.41908 0.12742
 C184 C 0.49189 -0.30365 0.05989
 N185 N 0.55463 -0.31033 0.12141
 H186 H 0.40790 -0.22132 -0.02908
 N187 N 0.40151 0.41928 -0.23565
 N188 N 0.40190 0.48060 -0.23194
 C189 C 0.44827 0.41553 -0.12172
 C190 C 0.47721 0.31234 -0.05774
 N191 N 0.44579 0.31829 -0.13207
 H192 H 0.51543 0.24104 0.03326
 N193 N -0.10559 -0.15969 0.70534
 N194 N -0.16130 -0.16974 0.71274
 C195 C -0.26239 -0.06783 0.59629
 C196 C -0.26732 0.00501 0.51751
 N197 N -0.16800 -0.05528 0.58918
 H198 H -0.33522 0.09017 0.41778
 N199 N 0.09926 0.17140 0.27226
 N200 N 0.16039 0.17420 0.27224
 C201 C 0.25776 0.07573 0.39154
 C202 C 0.25482 0.01187 0.46499
 N203 N 0.15418 0.07531 0.38669
 H204 H 0.31785 -0.06909 0.56477
 N205 N 0.20464 0.33774 1.41826
 N206 N 0.20984 0.33090 1.48735
 C207 C 0.11200 0.43511 1.41093
 C208 C 0.04660 0.50637 1.29290
 N209 N 0.10749 0.44238 1.30152
 H210 H -0.03850 0.59066 1.21122
 N211 N -0.17891 0.61503 0.62597
 N212 N -0.18075 0.61874 0.55991
 C213 C -0.07926 0.52202 0.63557
 C214 C -0.01526 0.45785 0.75028
 N215 N -0.08026 0.51963 0.74006
 H216 H 0.07060 0.38127 0.82963
   
