data_POSCAR
  _audit_creation_date              2014-09-24
  _audit_creation_method            'ToBaCCo'
  _symmetry_space_group_name_H-M    'P1'
  _symmetry_Int_Tables_number       1
  _symmetry_cell_setting            triclinic
  loop_
  _symmetry_equiv_pos_as_xyz
 x,y,z
_cell_length_a 23.5974
_cell_length_b 22.3542
_cell_length_c 19.9292
_cell_angle_alpha 89.834600
_cell_angle_beta 89.853700
_cell_angle_gamma 89.014400
loop_
  _atom_site_label
  _atom_site_type_symbol
  _atom_site_fract_x
  _atom_site_fract_y
  _atom_site_fract_z
O1 O 0.31571 0.19660 0.24033
 O2 O 0.22166 0.32055 0.18407
 O3 O 0.32117 0.30569 0.25485
 O4 O 0.22607 0.20075 0.17365
 O5 O 0.17694 0.19447 0.26788
 O6 O 0.26622 0.30946 0.34477
 O7 O 0.16898 0.30979 0.27472
 O8 O 0.26855 0.19454 0.33635
 Cu9 Cu 0.27426 0.25953 0.20297
 Cu10 Cu 0.21478 0.25271 0.31536
 C11 C 0.30870 0.17557 0.29898
 C12 C 0.17749 0.33361 0.21794
 C13 C 0.31186 0.32262 0.31459
 C14 C 0.18642 0.17782 0.20793
 O15 O 0.68067 0.31863 0.23091
 O16 O 0.75048 0.19396 0.14436
 O17 O 0.66825 0.20066 0.23748
 O18 O 0.77181 0.30565 0.16548
 O19 O 0.83019 0.28275 0.24837
 O20 O 0.72582 0.18348 0.32274
 O21 O 0.80348 0.17418 0.23315
 O22 O 0.73381 0.30166 0.32035
 Cu23 Cu 0.71172 0.25477 0.18695
 Cu24 Cu 0.77795 0.23550 0.29036
 C25 C 0.69496 0.33156 0.29010
 C26 C 0.78917 0.16331 0.17279
 C27 C 0.67933 0.17476 0.29311
 C28 C 0.81945 0.31124 0.19476
 O29 O 0.78402 0.80336 0.83385
 O30 O 0.69142 0.68838 0.76360
 O31 O 0.78359 0.68236 0.81988
 O32 O 0.68076 0.79837 0.76835
 O33 O 0.72985 0.81435 0.67568
 O34 O 0.83237 0.69672 0.72662
 O35 O 0.73539 0.69778 0.66607
 O36 O 0.82989 0.81033 0.73767
 Cu37 Cu 0.73249 0.74550 0.80753
 Cu38 Cu 0.78611 0.75668 0.69161
 C39 C 0.82431 0.82415 0.79894
 C40 C 0.69796 0.67338 0.70271
 C41 C 0.82478 0.66861 0.78125
 C42 C 0.68611 0.82379 0.71172
 O43 O 0.31737 0.78887 0.75346
 O44 O 0.21317 0.68232 0.81352
 O45 O 0.29959 0.67677 0.73125
 O46 O 0.21849 0.79921 0.81601
 O47 O 0.17049 0.81331 0.72218
 O48 O 0.24703 0.69098 0.64084
 O49 O 0.16061 0.69799 0.72341
 O50 O 0.26807 0.80349 0.66056
 Cu51 Cu 0.26706 0.73538 0.78769
 Cu52 Cu 0.20667 0.75288 0.67798
 C53 C 0.31174 0.81292 0.69633
 C54 C 0.16928 0.67190 0.77945
 C55 C 0.28703 0.66385 0.67082
 C56 C 0.17988 0.82684 0.78262
 C57 C 1.03185 0.14948 0.12413
 C58 C 0.97481 0.14279 0.13342
 C59 C 0.96195 0.08668 0.10902
 N60 N 1.00918 0.05844 0.08614
 C61 C 1.05212 0.09665 0.09578
 C62 C 0.90781 0.06130 0.11106
 C63 C 0.89278 0.01271 0.07008
 C64 C 0.84408 -0.02056 0.07673
 C65 C 0.84285 -0.05892 0.02260
 C66 C 0.89081 -0.04763 -0.01566
 N67 N 0.92105 -0.00436 0.01411
 C68 C 0.90353 -0.07124 -0.07985
 C69 C 0.95840 -0.06399 -0.10709
 C70 C 0.97129 -0.05415 -0.17389
 C71 C 1.02938 -0.05182 -0.17812
 C72 C 1.05002 -0.06138 -0.11382
 N73 N 1.00642 -0.06706 -0.07015
 C74 C 1.10762 -0.06523 -0.09410
 C75 C 1.12565 -0.03293 -0.03722
 C76 C 1.17999 -0.03373 -0.01043
 C77 C 1.18063 0.00904 0.03923
 C78 C 1.12669 0.03438 0.04181
 N79 N 1.09370 0.00896 -0.00512
 C80 C 1.10979 0.08221 0.08378
 H81 H 1.05553 0.18884 0.13699
 H82 H 0.94596 0.17576 0.15487
 H83 H 1.05324 0.02348 -0.01901
 H84 H 0.81220 -0.01670 0.11568
 H85 H 0.80979 -0.09052 0.01242
 H86 H 0.94179 -0.04676 -0.21471
 H87 H 1.05267 -0.03965 -0.22269
 H88 H 1.21684 0.02057 0.06949
 H89 H 0.95532 0.01742 -0.00732
 H90 H 1.21633 -0.06025 -0.02624
 C91 C 0.48117 0.64473 0.63150
 C92 C 0.53852 0.64856 0.62210
 C93 C 0.55635 0.59478 0.59382
 N94 N 0.51168 0.55873 0.58449
 C95 C 0.46575 0.58930 0.60731
 C96 C 0.61337 0.57757 0.58167
 C97 C 0.62815 0.52644 0.54391
 C98 C 0.68062 0.49768 0.54474
 C99 C 0.67785 0.45147 0.49934
 C100 C 0.62396 0.45394 0.47155
 N101 N 0.59412 0.49993 0.49891
 C102 C 0.60566 0.41877 0.41730
 C103 C 0.54890 0.42004 0.39434
 C104 C 0.53073 0.40207 0.33158
 C105 C 0.47280 0.40846 0.33139
 C106 C 0.45692 0.42677 0.39524
 N107 N 0.50367 0.43470 0.43318
 C108 C 0.40056 0.43066 0.42039
 C109 C 0.38816 0.45893 0.48219
 C110 C 0.33926 0.45110 0.51975
 C111 C 0.34260 0.48890 0.57403
 C112 C 0.39312 0.51921 0.56766
 N113 N 0.42071 0.50043 0.51177
 C114 C 0.41042 0.56678 0.60911
 H115 H 0.45384 0.67917 0.65279
 H116 H 0.56402 0.68659 0.63501
 H117 H 0.45630 0.51991 0.49058
 H118 H 0.71706 0.50891 0.57476
 H119 H 0.71223 0.42081 0.48676
 H120 H 0.55588 0.38670 0.28951
 H121 H 0.44574 0.39975 0.28894
 H122 H 0.31094 0.49417 0.61305
 H123 H 0.55517 0.51671 0.48248
 H124 H 0.30475 0.42131 0.50924
 C125 C 0.01820 0.44172 0.18529
 C126 C -0.03948 0.43603 0.18037
 C127 C -0.05184 0.43383 0.11255
 N128 N -0.00373 0.43906 0.07602
 C129 C 0.03935 0.44244 0.12036
 C130 C -0.10635 0.42509 0.08482
 C131 C -0.12166 0.44929 0.02129
 C132 C -0.17375 0.44232 -0.01016
 C133 C -0.17391 0.47833 -0.06610
 C134 C -0.12147 0.50484 -0.06880
 N135 N -0.08987 0.48714 -0.01560
 C136 C -0.10355 0.54210 -0.12159
 C137 C -0.04656 0.54106 -0.14251
 C138 C -0.02792 0.53969 -0.20840
 C139 C 0.03014 0.54097 -0.20614
 C140 C 0.04468 0.54217 -0.13888
 N141 N -0.00217 0.54093 -0.10011
 C142 C 0.09970 0.55007 -0.11357
 C143 C 0.11574 0.52864 -0.04906
 C144 C 0.16743 0.53875 -0.01847
 C145 C 0.16747 0.50774 0.04116
 C146 C 0.11545 0.48004 0.04644
 N147 N 0.08428 0.49288 -0.00896
 C148 C 0.09753 0.44638 0.10299
 H149 H 0.04174 0.44656 0.23145
 H150 H -0.06905 0.43520 0.22193
 H151 H 0.04564 0.47431 -0.02133
 H152 H -0.20864 0.41457 0.00481
 H153 H -0.20786 0.48236 -0.10234
 H154 H -0.05335 0.53627 -0.25330
 H155 H 0.05850 0.54067 -0.24892
 H156 H 0.20123 0.50855 0.07769
 H157 H -0.05108 0.50470 -0.00204
 H158 H 0.20174 0.56608 -0.03628
 C159 C 0.52388 0.92979 0.69478
 C160 C 0.46570 0.92686 0.69215
 C161 C 0.45076 0.93425 0.62543
 N162 N 0.49770 0.94189 0.58745
 C163 C 0.54255 0.93835 0.62948
 C164 C 0.39525 0.93135 0.59883
 C165 C 0.38118 0.96009 0.53774
 C166 C 0.33145 0.95231 0.50183
 C167 C 0.33082 0.99455 0.45150
 C168 C 0.38046 1.02622 0.45754
 N169 N 0.41107 1.00476 0.50974
 C170 C 0.39393 1.07750 0.42017
 C171 C 0.44960 1.09922 0.41683
 C172 C 0.46465 1.15592 0.39568
 C173 C 0.52274 1.15698 0.39646
 C174 C 0.54102 1.10087 0.41796
 N175 N 0.49628 1.06576 0.43069
 C176 C 0.59793 1.08107 0.42256
 C177 C 0.61394 1.03209 0.46379
 C178 C 0.66591 1.00240 0.46150
 C179 C 0.66639 0.96177 0.51360
 C180 C 0.61478 0.96809 0.54679
 N181 N 0.58296 1.01074 0.51563
 C182 C 0.59975 0.93906 0.60752
 H183 H 0.54934 0.92674 0.73977
 H184 H 0.43765 0.92105 0.73462
 H185 H 0.54511 1.02925 0.53364
 H186 H 0.29828 0.92061 0.51159
 H187 H 0.29725 1.00187 0.41534
 H188 H 0.43685 1.19290 0.38183
 H189 H 0.54839 1.19500 0.38351
 H190 H 0.70123 0.93160 0.52574
 H191 H 0.44639 1.02491 0.53049
 H192 H 0.70019 1.00966 0.42637
 C193 C 1.15124 0.13535 0.17986
 C194 C 1.15438 0.11884 0.11528
 H195 H 1.11759 0.11788 0.21107
 H196 H 1.18923 0.13326 0.08395
 C197 C 0.65956 0.62897 0.67497
 C198 C 0.65950 0.61378 0.61017
 H199 H 0.62729 0.61141 0.70810
 H200 H 0.69288 0.62864 0.57695
 C201 C -0.13869 0.34739 0.16740
 C202 C -0.15035 0.39084 0.12260
 H203 H -0.09560 0.33875 0.18347
 H204 H -0.19446 0.39982 0.11122
 C205 C 0.35839 0.84891 0.67018
 C206 C 0.34926 0.89866 0.63432
 H207 H 0.40103 0.83229 0.67913
 H208 H 0.30578 0.91350 0.62675
 C209 C -0.13661 0.62346 -0.20113
 C210 C -0.14694 0.58326 -0.15252
 H211 H -0.09705 0.62327 -0.22804
 H212 H -0.18840 0.58472 -0.12894
 C213 C 0.34992 1.13161 0.32513
 C214 C 0.34694 1.11159 0.38828
 H215 H 0.38615 1.11964 0.29411
 H216 H 0.30973 1.12133 0.41861
 C217 C 1.14545 -0.12829 -0.18934
 C218 C 1.14812 -0.10978 -0.12557
 H219 H 1.11461 -0.10912 -0.22273
 H220 H 1.18055 -0.12970 -0.09392
 C221 C 0.66425 0.38070 0.32352
 C222 C 0.64683 0.37582 0.38696
 H223 H 0.64907 0.41781 0.29302
 H224 H 0.66130 0.33833 0.41739
 C225 C 0.86820 -0.13929 -0.16980
 C226 C 0.85799 -0.10263 -0.11787
 H227 H 0.91069 -0.14622 -0.18875
 H228 H 0.81455 -0.09767 -0.10098
 C229 C 0.35799 0.35105 0.35094
 C230 C 0.35247 0.40298 0.38352
 H231 H 0.39820 0.32710 0.35053
 H232 H 0.31109 0.42473 0.38555
 C233 C 0.12679 0.63131 -0.19310
 C234 C 0.14158 0.58466 -0.15377
 H235 H 0.08275 0.64290 -0.20196
 H236 H 0.18628 0.57501 -0.14667
 C237 C 0.63689 1.13577 0.32415
 C238 C 0.64315 1.11412 0.38669
 H239 H 0.59843 1.12737 0.29643
 H240 H 0.68260 1.12081 0.41313
 C241 C 0.13250 0.37199 0.18904
 C242 C 0.14259 0.41643 0.14542
 H243 H 0.08989 0.35846 0.20040
 H244 H 0.18660 0.42534 0.13483
 C245 C 0.63849 0.85988 0.68512
 C246 C 0.64613 0.90823 0.64646
 H247 H 0.59664 0.84253 0.69367
 H248 H 0.68917 0.92308 0.63921
 C249 C 0.81969 0.11736 0.13340
 C250 C 0.86589 0.08928 0.15709
 H251 H 0.80837 0.11221 0.08107
 H252 H 0.87933 0.09744 0.20818
 C253 C 0.32048 0.61960 0.63258
 C254 C 0.36948 0.59677 0.65512
 H255 H 0.30784 0.61114 0.58126
 H256 H 0.38408 0.60868 0.70477
   
