data_POSCAR
  _audit_creation_date              2014-09-24
  _audit_creation_method            'ToBaCCo'
  _symmetry_space_group_name_H-M    'P1'
  _symmetry_Int_Tables_number       1
  _symmetry_cell_setting            triclinic
  loop_
  _symmetry_equiv_pos_as_xyz
 x,y,z
_cell_length_a 36.5738
_cell_length_b 36.5225
_cell_length_c 33.7435
_cell_angle_alpha 90.000000
_cell_angle_beta 89.921400
_cell_angle_gamma 90.003200
loop_
  _atom_site_label
  _atom_site_type_symbol
  _atom_site_fract_x
  _atom_site_fract_y
  _atom_site_fract_z
C1 C -0.11283 0.27484 -0.02052
 C2 C -0.11305 0.27478 0.02012
 C3 C -0.07795 0.28406 0.03212
 N4 N -0.05653 0.29013 0.00009
 C5 C -0.07764 0.28413 -0.03211
 C6 C -0.06676 0.28840 0.07196
 C7 C -0.03009 0.29462 0.08349
 C8 C -0.01908 0.30514 0.12118
 C9 C 0.01854 0.30524 0.12111
 C10 C 0.02954 0.29479 0.08341
 N11 N -0.00024 0.28829 0.06077
 C12 C 0.06619 0.28868 0.07190
 C13 C 0.07769 0.28417 0.03222
 C14 C 0.11288 0.27483 0.02067
 C15 C 0.11309 0.27465 -0.01998
 C16 C 0.07801 0.28392 -0.03200
 N17 N 0.05658 0.29010 -0.00000
 C18 C 0.06681 0.28815 -0.07186
 C19 C 0.03015 0.29436 -0.08341
 C20 C 0.01915 0.30478 -0.12114
 C21 C -0.01847 0.30490 -0.12107
 C22 C -0.02948 0.29456 -0.08334
 N23 N 0.00030 0.28811 -0.06067
 C24 C -0.06614 0.28852 -0.07180
 H25 H -0.13600 0.26886 -0.03936
 H26 H -0.13642 0.26876 0.03872
 H27 H 0.00020 0.27559 -0.03310
 H28 H -0.03637 0.31149 0.14632
 H29 H 0.03582 0.31166 0.14618
 H30 H 0.13604 0.26889 0.03952
 H31 H 0.13646 0.26856 -0.03855
 H32 H -0.03575 0.31126 -0.14616
 H33 H -0.00015 0.27569 0.03324
 H34 H 0.03645 0.31105 -0.14629
 C35 C 0.38655 0.77666 0.48017
 C36 C 0.38667 0.77681 0.52083
 C37 C 0.42192 0.78581 0.53240
 N38 N 0.44315 0.79155 0.50018
 C39 C 0.42173 0.78558 0.46820
 C40 C 0.43342 0.79009 0.57208
 C41 C 0.47010 0.79593 0.58356
 C42 C 0.48118 0.80601 0.62133
 C43 C 0.51881 0.80590 0.62122
 C44 C 0.52972 0.79577 0.58338
 N45 N 0.49986 0.78962 0.56073
 C46 C 0.56635 0.78982 0.57164
 C47 C 0.57763 0.78575 0.53183
 C48 C 0.61282 0.77686 0.51987
 C49 C 0.61270 0.77694 0.47921
 C50 C 0.57744 0.78586 0.46762
 N51 N 0.55621 0.79163 0.49984
 C52 C 0.56593 0.79005 0.42793
 C53 C 0.52924 0.79582 0.41644
 C54 C 0.51815 0.80582 0.37865
 C55 C 0.48051 0.80566 0.37877
 C56 C 0.46962 0.79558 0.41662
 N57 N 0.49949 0.78951 0.43929
 C58 C 0.43301 0.78959 0.42838
 H59 H 0.36318 0.77078 0.46159
 H60 H 0.36340 0.77107 0.53969
 H61 H 0.49959 0.77723 0.46698
 H62 H 0.46394 0.81223 0.64654
 H63 H 0.53616 0.81204 0.64632
 H64 H 0.63620 0.77106 0.53847
 H65 H 0.63598 0.77120 0.46036
 H66 H 0.46316 0.81172 0.35365
 H67 H 0.49978 0.77729 0.53307
 H68 H 0.53537 0.81202 0.35342
 C69 C 1.11399 0.72524 -0.02040
 C70 C 1.11401 0.72522 0.02024
 C71 C 1.07889 0.71585 0.03212
 N72 N 1.05762 0.70979 0.00002
 C73 C 1.07885 0.71588 -0.03215
 C74 C 1.06755 0.71146 0.07195
 C75 C 1.03084 0.70528 0.08347
 C76 C 1.01971 0.69478 0.12116
 C77 C 0.98209 0.69480 0.12111
 C78 C 0.97121 0.70528 0.08341
 N79 N 1.00107 0.71169 0.06076
 C80 C 0.93460 0.71144 0.07188
 C81 C 0.92325 0.71590 0.03220
 C82 C 0.88809 0.72516 0.02053
 C83 C 0.88807 0.72527 -0.02012
 C84 C 0.92320 0.71607 -0.03198
 N85 N 0.94451 0.70997 0.00005
 C86 C 0.93452 0.71181 -0.07174
 C87 C 0.97114 0.70564 -0.08334
 C88 C 0.98204 0.69524 -0.12108
 C89 C 1.01966 0.69508 -0.12115
 C90 C 1.03077 0.70544 -0.08343
 N91 N 1.00099 0.71189 -0.06068
 C92 C 1.06747 0.71152 -0.07194
 H93 H 1.13725 0.73130 -0.03915
 H94 H 1.13729 0.73126 0.03890
 H95 H 1.00105 0.72441 -0.03311
 H96 H 1.03692 0.68839 0.14630
 H97 H 0.96472 0.68842 0.14618
 H98 H 0.86482 0.73107 0.03932
 H99 H 0.86478 0.73128 -0.03878
 H100 H 1.03690 0.68871 -0.14633
 H101 H 1.00111 0.72430 0.03323
 H102 H 0.96471 0.68898 -0.14615
 C103 C 0.61313 0.22341 0.47996
 C104 C 0.61299 0.22325 0.52062
 C105 C 0.57773 0.21423 0.53226
 N106 N 0.55653 0.20849 0.50008
 C107 C 0.57797 0.21447 0.46806
 C108 C 0.56620 0.20994 0.57197
 C109 C 0.52951 0.20409 0.58352
 C110 C 0.51841 0.19401 0.62131
 C111 C 0.48078 0.19411 0.62127
 C112 C 0.46989 0.20423 0.58346
 N113 N 0.49977 0.21039 0.56075
 C114 C 0.43328 0.21017 0.57179
 C115 C 0.42202 0.21423 0.53200
 C116 C 0.38684 0.22309 0.52012
 C117 C 0.38698 0.22300 0.47946
 C118 C 0.42226 0.21410 0.46780
 N119 N 0.44347 0.20835 0.49997
 C120 C 0.43380 0.20991 0.42808
 C121 C 0.47051 0.20416 0.41652
 C122 C 0.48164 0.19417 0.37871
 C123 C 0.51927 0.19436 0.37874
 C124 C 0.53012 0.20445 0.41658
 N125 N 0.50023 0.21049 0.43930
 C126 C 0.56673 0.21045 0.42826
 H127 H 0.63652 0.22929 0.46132
 H128 H 0.63624 0.22900 0.53943
 H129 H 0.50010 0.22278 0.46699
 H130 H 0.53563 0.18779 0.64649
 H131 H 0.46341 0.18797 0.64641
 H132 H 0.36344 0.22889 0.53876
 H133 H 0.36372 0.22873 0.46066
 H134 H 0.53665 0.18830 0.35360
 H135 H 0.49987 0.22272 0.53308
 H136 H 0.46443 0.18795 0.35351
 C137 C 0.72527 -0.11349 -0.02118
 C138 C 0.72531 -0.11359 0.01945
 C139 C 0.71581 -0.07848 0.03137
 N140 N 0.70963 -0.05714 -0.00070
 C141 C 0.71576 -0.07833 -0.03289
 C142 C 0.71138 -0.06720 0.07120
 C143 C 0.70508 -0.03048 0.08271
 C144 C 0.69452 -0.01940 0.12039
 C145 C 0.69447 0.01827 0.12033
 C146 C 0.70499 0.02923 0.08264
 N147 N 0.71146 -0.00063 0.05999
 C148 C 0.71119 0.06590 0.07114
 C149 C 0.71574 0.07733 0.03146
 C150 C 0.72520 0.11251 0.01988
 C151 C 0.72532 0.11266 -0.02077
 C152 C 0.71591 0.07755 -0.03275
 N153 N 0.70971 0.05616 -0.00073
 C154 C 0.71152 0.06630 -0.07257
 C155 C 0.70515 0.02959 -0.08407
 C156 C 0.69442 0.01860 -0.12169
 C157 C 0.69429 -0.01906 -0.12169
 C158 C 0.70496 -0.03015 -0.08408
 N159 N 0.71156 -0.00031 -0.06144
 C160 C 0.71122 -0.06690 -0.07265
 H161 H 0.73138 -0.13673 -0.03997
 H162 H 0.73145 -0.13690 0.03809
 H163 H 0.72431 -0.00039 -0.03400
 H164 H 0.68814 -0.03668 0.14553
 H165 H 0.68806 0.03562 0.14540
 H166 H 0.73122 0.13572 0.03871
 H167 H 0.73145 0.13602 -0.03937
 H168 H 0.68774 -0.03634 -0.14676
 H169 H 0.72409 -0.00060 0.03246
 H170 H 0.68797 0.03593 -0.14674
 C171 C 0.22351 0.38652 0.48056
 C172 C 0.22340 0.38665 0.52122
 C173 C 0.21442 0.42195 0.53285
 N174 N 0.20865 0.44320 0.50066
 C175 C 0.21458 0.42174 0.46865
 C176 C 0.21019 0.43348 0.57256
 C177 C 0.20437 0.47023 0.58409
 C178 C 0.19436 0.48133 0.62190
 C179 C 0.19447 0.51902 0.62183
 C180 C 0.20454 0.52993 0.58397
 N181 N 0.21064 0.50002 0.56127
 C182 C 0.21046 0.56660 0.57224
 C183 C 0.21447 0.57788 0.53243
 C184 C 0.22333 0.61312 0.52048
 C185 C 0.22320 0.61299 0.47982
 C186 C 0.21427 0.57767 0.46822
 N187 N 0.20856 0.55642 0.50044
 C188 C 0.21005 0.56612 0.42853
 C189 C 0.20427 0.52937 0.41703
 C190 C 0.19425 0.51825 0.37926
 C191 C 0.19442 0.48056 0.37933
 C192 C 0.20453 0.46967 0.41715
 N193 N 0.21060 0.49960 0.43983
 C194 C 0.21053 0.43301 0.42885
 H195 H 0.22936 0.36311 0.46193
 H196 H 0.22916 0.36336 0.54004
 H197 H 0.22290 0.49971 0.46748
 H198 H 0.18818 0.46408 0.64712
 H199 H 0.18837 0.53640 0.64696
 H200 H 0.22915 0.63654 0.53909
 H201 H 0.22891 0.63628 0.46098
 H202 H 0.18834 0.46317 0.35422
 H203 H 0.22292 0.49992 0.53357
 H204 H 0.18802 0.53549 0.35406
 C205 C 0.27462 1.11350 -0.02073
 C206 C 0.27465 1.11359 0.01990
 C207 C 0.28416 1.07847 0.03178
 N208 N 0.29029 1.05714 -0.00032
 C209 C 0.28411 1.07833 -0.03249
 C210 C 0.28866 1.06720 0.07159
 C211 C 0.29497 1.03048 0.08306
 C212 C 0.30559 1.01939 0.12070
 C213 C 0.30564 0.98172 0.12063
 C214 C 0.29507 0.97077 0.08299
 N215 N 0.28857 1.00063 0.06037
 C216 C 0.28886 0.93410 0.07151
 C217 C 0.28425 0.92267 0.03185
 C218 C 0.27478 0.88749 0.02031
 C219 C 0.27459 0.88734 -0.02033
 C220 C 0.28397 0.92246 -0.03236
 N221 N 0.29023 0.94384 -0.00037
 C222 C 0.28830 0.93371 -0.07220
 C223 C 0.29464 0.97042 -0.08374
 C224 C 0.30530 0.98142 -0.12140
 C225 C 0.30543 1.01908 -0.12140
 C226 C 0.29482 1.03016 -0.08374
 N227 N 0.28826 1.00032 -0.06107
 C228 C 0.28859 1.06691 -0.07226
 H229 H 0.26848 1.13674 -0.03948
 H230 H 0.26853 1.13690 0.03858
 H231 H 0.27557 1.00040 -0.03356
 H232 H 0.31199 1.03667 0.14581
 H233 H 0.31208 0.96438 0.14568
 H234 H 0.26879 0.86428 0.03917
 H235 H 0.26843 0.86398 -0.03891
 H236 H 0.31193 1.03636 -0.14651
 H237 H 0.27590 1.00060 0.03289
 H238 H 0.31171 0.96409 -0.14649
 C239 C 0.77636 0.61348 0.47999
 C240 C 0.77643 0.61335 0.52065
 C241 C 0.78540 0.57805 0.53226
 N242 N 0.79121 0.55680 0.50007
 C243 C 0.78530 0.57826 0.46806
 C244 C 0.78960 0.56652 0.57196
 C245 C 0.79539 0.52978 0.58349
 C246 C 0.80537 0.51868 0.62128
 C247 C 0.80526 0.48099 0.62121
 C248 C 0.79523 0.47008 0.58338
 N249 N 0.78915 0.49999 0.56069
 C250 C 0.78932 0.43341 0.57166
 C251 C 0.78535 0.42213 0.53186
 C252 C 0.77649 0.38689 0.51993
 C253 C 0.77667 0.38702 0.47927
 C254 C 0.78561 0.42234 0.46765
 N255 N 0.79130 0.44359 0.49985
 C256 C 0.78988 0.43388 0.42795
 C257 C 0.79567 0.47063 0.41643
 C258 C 0.80573 0.48175 0.37864
 C259 C 0.80555 0.51943 0.37871
 C260 C 0.79541 0.53032 0.41655
 N261 N 0.78932 0.50041 0.43924
 C262 C 0.78940 0.56698 0.42826
 H263 H 0.77052 0.63688 0.46137
 H264 H 0.77064 0.63664 0.53947
 H265 H 0.77699 0.50029 0.46691
 H266 H 0.81152 0.53594 0.64649
 H267 H 0.81132 0.46362 0.64634
 H268 H 0.77065 0.36348 0.53855
 H269 H 0.77097 0.36373 0.46044
 H270 H 0.81166 0.53682 0.35358
 H271 H 0.77690 0.50009 0.53301
 H272 H 0.81197 0.46451 0.35343
 O273 O 0.22023 0.26912 0.30024
 O274 O 0.24364 0.19252 0.23382
 O275 O 0.27039 0.21882 0.29974
 O276 O 0.19347 0.24279 0.23440
 O277 O 0.22975 0.27936 0.19994
 O278 O 0.30667 0.25539 0.26528
 O279 O 0.27992 0.22908 0.19937
 O280 O 0.25651 0.30568 0.26578
 Cu281 Cu 0.22828 0.22712 0.27053
 Cu282 Cu 0.27188 0.27106 0.22912
 C283 C 0.23465 0.30025 0.29441
 C284 C 0.26546 0.19796 0.20516
 C285 C 0.30142 0.23333 0.29377
 C286 C 0.19871 0.26487 0.20594
 O287 O 0.75636 0.80758 0.23345
 O288 O 0.77970 0.73100 0.29987
 O289 O 0.80663 0.75740 0.23409
 O290 O 0.72950 0.78125 0.29939
 O291 O 0.69336 0.74464 0.26493
 O292 O 0.77050 0.72080 0.19960
 O293 O 0.74357 0.69440 0.26538
 O294 O 0.72023 0.77097 0.19899
 Cu295 Cu 0.77168 0.77302 0.27018
 Cu296 Cu 0.72826 0.72902 0.22875
 C297 C 0.73463 0.80211 0.20478
 C298 C 0.76535 0.69984 0.29401
 C299 C 0.80151 0.73531 0.20563
 C300 C 0.69850 0.76670 0.29342
 O301 O 0.80737 0.24330 0.23365
 O302 O 0.73059 0.22000 0.29980
 O303 O 0.75702 0.19320 0.23395
 O304 O 0.78092 0.27014 0.29951
 O305 O 0.74461 0.30657 0.26503
 O306 O 0.72072 0.22963 0.19947
 O307 O 0.69429 0.25643 0.26533
 O308 O 0.77107 0.27973 0.19917
 Cu309 Cu 0.77264 0.22799 0.27021
 Cu310 Cu 0.72902 0.27177 0.22877
 C311 C 0.80210 0.26519 0.20503
 C312 C 0.69956 0.23452 0.29393
 C313 C 0.73509 0.19851 0.20544
 C314 C 0.76653 0.30126 0.29355
 O315 O 0.27944 0.77029 0.19981
 O316 O 0.25547 0.69333 0.26540
 O317 O 0.22919 0.72009 0.19948
 O318 O 0.30575 0.74352 0.26565
 O319 O 0.26930 0.77990 0.30011
 O320 O 0.19274 0.75648 0.23392
 O321 O 0.21902 0.72972 0.29985
 O322 O 0.24299 0.80667 0.23427
 Cu323 Cu 0.27113 0.72813 0.22911
 Cu324 Cu 0.22733 0.77186 0.27052
 C325 C 0.26502 0.80139 0.20577
 C326 C 0.23347 0.69863 0.29392
 C327 C 0.19813 0.73460 0.20530
 C328 C 0.30037 0.76543 0.29425
 O329 O 0.77985 0.26926 0.69979
 O330 O 0.75660 0.19233 0.76581
 O331 O 0.72976 0.21889 0.70009
 O332 O 0.80666 0.24272 0.76551
 O333 O 0.77033 0.27907 0.80017
 O334 O 0.69343 0.25523 0.73475
 O335 O 0.72027 0.22867 0.80047
 O336 O 0.74352 0.30561 0.73445
 Cu337 Cu 0.77188 0.22713 0.72930
 Cu338 Cu 0.72821 0.27081 0.77095
 C339 C 0.76537 0.30034 0.70578
 C340 C 0.73477 0.19760 0.79450
 C341 C 0.69870 0.23330 0.70616
 C342 C 0.80139 0.26467 0.79409
 O343 O 0.30620 0.74470 0.73517
 O344 O 0.22939 0.72082 0.80091
 O345 O 0.25612 0.69432 0.73503
 O346 O 0.27940 0.77126 0.80098
 O347 O 0.24301 0.80759 0.76647
 O348 O 0.21973 0.73065 0.70054
 O349 O 0.19299 0.75715 0.76642
 O350 O 0.26981 0.78103 0.70066
 Cu351 Cu 0.27145 0.72911 0.77150
 Cu352 Cu 0.22772 0.77277 0.73004
 C353 C 0.30089 0.76664 0.70661
 C354 C 0.19831 0.73521 0.79498
 C355 C 0.23424 0.69958 0.70644
 C356 C 0.26488 0.80233 0.79506
 O357 O 0.25558 0.30599 0.73530
 O358 O 0.27940 0.22901 0.80081
 O359 O 0.30584 0.25580 0.73493
 O360 O 0.22907 0.27913 0.80110
 O361 O 0.19274 0.24275 0.76660
 O362 O 0.26951 0.21941 0.70044
 O363 O 0.24306 0.19261 0.76632
 O364 O 0.21925 0.26961 0.70079
 Cu365 Cu 0.27114 0.27115 0.77151
 Cu366 Cu 0.22748 0.22742 0.73006
 C367 C 0.23365 0.30071 0.70677
 C368 C 0.26499 0.19790 0.79485
 C369 C 0.30055 0.23392 0.70631
 C370 C 0.19803 0.26463 0.79523
 O371 O 0.80691 0.75741 0.76567
 O372 O 0.73006 0.78070 0.69984
 O373 O 0.75654 0.80750 0.76564
 O374 O 0.78034 0.73051 0.70002
 O375 O 0.74406 0.69411 0.73468
 O376 O 0.72026 0.77109 0.80028
 O377 O 0.69378 0.74429 0.73448
 O378 O 0.77063 0.72101 0.80034
 Cu379 Cu 0.77212 0.77271 0.72930
 Cu380 Cu 0.72852 0.72896 0.77094
 C381 C 0.80167 0.73552 0.79432
 C382 C 0.69904 0.76617 0.70583
 C383 C 0.73465 0.80220 0.79426
 C384 C 0.76597 0.69939 0.70608
 C385 C 0.28617 0.09332 0.10070
 C386 C 0.28303 0.11666 0.12576
 C387 C 0.27814 0.14450 0.15430
 C388 C 0.27293 0.16869 0.17795
 C389 C 0.78711 0.59410 0.60273
 C390 C 0.78395 0.61754 0.62763
 C391 C 0.77898 0.64556 0.65589
 C392 C 0.77364 0.66993 0.67925
 C393 C 0.71391 0.90668 0.10031
 C394 C 0.71707 0.88335 0.12537
 C395 C 0.72197 0.85554 0.15392
 C396 C 0.72718 0.83137 0.17758
 C397 C 0.21264 0.40592 0.60333
 C398 C 0.21577 0.38249 0.62825
 C399 C 0.22070 0.35451 0.65655
 C400 C 0.22600 0.33016 0.67994
 C401 C 0.90708 0.28590 0.10102
 C402 C 0.88367 0.28275 0.12600
 C403 C 0.85574 0.27786 0.15442
 C404 C 0.83146 0.27265 0.17796
 C405 C 0.40589 0.78766 0.60290
 C406 C 0.38250 0.78454 0.62787
 C407 C 0.35457 0.77961 0.65623
 C408 C 0.33027 0.77430 0.67968
 C409 C 0.09361 0.71392 0.10105
 C410 C 0.11691 0.71705 0.12608
 C411 C 0.14471 0.72193 0.15458
 C412 C 0.16888 0.72713 0.17818
 C413 C 0.59371 0.21237 0.60272
 C414 C 0.61708 0.21548 0.62764
 C415 C 0.64500 0.22039 0.65594
 C416 C 0.66930 0.22568 0.67933
 C417 C 0.71404 0.09246 0.89837
 C418 C 0.71720 0.11589 0.87340
 C419 C 0.72210 0.14386 0.84502
 C420 C 0.72731 0.16818 0.82152
 C421 C 0.21248 0.59367 0.39773
 C422 C 0.21560 0.61704 0.37274
 C423 C 0.22053 0.64495 0.34433
 C424 C 0.22583 0.66923 0.32084
 C425 C 0.28574 0.90754 0.89875
 C426 C 0.28255 0.88410 0.87382
 C427 C 0.27761 0.85610 0.84548
 C428 C 0.27237 0.83177 0.82203
 C429 C 0.78748 0.40632 0.39717
 C430 C 0.78438 0.38292 0.37221
 C431 C 0.77947 0.35498 0.34387
 C432 C 0.77418 0.33067 0.32043
 C433 C 0.09298 0.28557 0.89910
 C434 C 0.11641 0.28236 0.87414
 C435 C 0.14436 0.27740 0.84577
 C436 C 0.16866 0.27214 0.82226
 C437 C 0.59346 0.78760 0.39710
 C438 C 0.61682 0.78448 0.37211
 C439 C 0.64474 0.77957 0.34373
 C440 C 0.66905 0.77430 0.32028
 C441 C 0.90691 0.71446 0.89760
 C442 C 0.88345 0.71770 0.87277
 C443 C 0.85543 0.72270 0.84455
 C444 C 0.83109 0.72798 0.82119
 C445 C 0.40630 0.21235 0.39732
 C446 C 0.38295 0.21546 0.37237
 C447 C 0.35507 0.22039 0.34403
 C448 C 0.33080 0.22568 0.32061
 C449 C 0.71366 0.90705 0.89820
 C450 C 0.71680 0.88373 0.87314
 C451 C 0.72174 0.85586 0.84470
 C452 C 0.72704 0.83160 0.82119
 C453 C 0.21327 0.40531 0.39820
 C454 C 0.21659 0.38184 0.37333
 C455 C 0.22168 0.35386 0.34499
 C456 C 0.22704 0.32958 0.32149
 C457 C 0.28610 0.09297 0.89860
 C458 C 0.28293 0.11631 0.87358
 C459 C 0.27796 0.14420 0.84518
 C460 C 0.27263 0.16849 0.82172
 C461 C 0.78669 0.59469 0.39763
 C462 C 0.78339 0.61819 0.37278
 C463 C 0.77831 0.64620 0.34450
 C464 C 0.77295 0.67050 0.32105
 C465 C 0.09353 0.71402 0.89891
 C466 C 0.11685 0.71720 0.87387
 C467 C 0.14471 0.72220 0.84544
 C468 C 0.16895 0.72755 0.82193
 C469 C 0.59441 0.21321 0.39760
 C470 C 0.61788 0.21654 0.37272
 C471 C 0.64587 0.22162 0.34440
 C472 C 0.67017 0.22695 0.32094
 C473 C 0.90637 0.28597 0.89744
 C474 C 0.88301 0.28275 0.87252
 C475 C 0.85509 0.27773 0.84424
 C476 C 0.83080 0.27236 0.82088
 C477 C 0.40535 0.78684 0.39777
 C478 C 0.38190 0.78351 0.37294
 C479 C 0.35395 0.77841 0.34467
 C480 C 0.32969 0.77304 0.32123
 C481 C 0.28635 0.90654 0.10229
 C482 C 0.28316 0.88313 0.12722
 C483 C 0.27813 0.85516 0.15553
 C484 C 0.27274 0.83082 0.17893
 C485 C 0.78660 0.40569 0.60230
 C486 C 0.78329 0.38219 0.62714
 C487 C 0.77824 0.35415 0.65541
 C488 C 0.77292 0.32979 0.67883
 C489 C 0.71374 0.09345 0.10192
 C490 C 0.71696 0.11684 0.12686
 C491 C 0.72200 0.14478 0.15518
 C492 C 0.72738 0.16909 0.17859
 C493 C 0.21314 0.59431 0.60288
 C494 C 0.21642 0.61780 0.62774
 C495 C 0.22143 0.64582 0.65604
 C496 C 0.22672 0.67015 0.67949
 C497 C 0.90700 0.71396 0.10261
 C498 C 0.88352 0.71717 0.12746
 C499 C 0.85545 0.72220 0.15564
 C500 C 0.83104 0.72759 0.17892
 C501 C 0.40560 0.21283 0.60247
 C502 C 0.38215 0.21609 0.62738
 C503 C 0.35419 0.22110 0.65575
 C504 C 0.32991 0.22639 0.67926
 C505 C 0.09368 0.28619 0.10267
 C506 C 0.11705 0.28300 0.12757
 C507 C 0.14498 0.27798 0.15583
 C508 C 0.16929 0.27260 0.17918
 C509 C 0.59400 0.78716 0.60226
 C510 C 0.61743 0.78392 0.62712
 C511 C 0.64538 0.77893 0.65543
 C512 C 0.66966 0.77366 0.67888
   
