data_POSCAR
  _audit_creation_date              2014-09-24
  _audit_creation_method            'ToBaCCo'
  _symmetry_space_group_name_H-M    'P1'
  _symmetry_Int_Tables_number       1
  _symmetry_cell_setting            triclinic
  loop_
  _symmetry_equiv_pos_as_xyz
 x,y,z
_cell_length_a 21.0704
_cell_length_b 21.2525
_cell_length_c 25.3737
_cell_angle_alpha 90.582700
_cell_angle_beta 89.546900
_cell_angle_gamma 90.499500
loop_
  _atom_site_label
  _atom_site_type_symbol
  _atom_site_fract_x
  _atom_site_fract_y
  _atom_site_fract_z
B1 B 0.26651 0.21483 0.29900
 B2 B 0.18993 0.21847 0.28303
 B3 B 0.22960 0.28459 0.29654
 B4 B 0.30484 0.27758 0.27355
 B5 B 0.30994 0.20501 0.24379
 B6 B 0.23786 0.16786 0.25038
 B7 B 0.22079 0.27404 0.19219
 B8 B 0.29764 0.27016 0.20814
 B9 B 0.25747 0.20397 0.19361
 B10 B 0.18245 0.21077 0.21738
 B11 B 0.17791 0.28302 0.24714
 B12 B 0.24951 0.32006 0.24077
 B13 B 0.73802 0.79907 0.30723
 B14 B 0.81254 0.79856 0.28109
 B15 B 0.78214 0.73255 0.30689
 B16 B 0.70292 0.72927 0.29246
 B17 B 0.68686 0.79589 0.25701
 B18 B 0.75545 0.83898 0.25148
 B19 B 0.77289 0.72553 0.20142
 B20 B 0.69920 0.72670 0.22570
 B21 B 0.73163 0.79283 0.20163
 B22 B 0.80893 0.79454 0.21600
 B23 B 0.82441 0.72860 0.25073
 B24 B 0.75626 0.68564 0.25704
 B25 B 0.72904 0.21197 -0.19622
 B26 B 0.72361 0.28986 -0.20136
 B27 B 0.79539 0.25695 -0.20253
 B28 B 0.79020 0.18689 -0.23424
 B29 B 0.71334 0.17875 -0.25470
 B30 B 0.67168 0.24294 -0.23395
 B31 B 0.76565 0.28328 -0.30161
 B32 B 0.77068 0.20443 -0.29634
 B33 B 0.69900 0.23851 -0.29643
 B34 B 0.70354 0.30785 -0.26339
 B35 B 0.78023 0.31621 -0.24306
 B36 B 0.82223 0.25181 -0.26433
 B37 B 0.28690 0.76455 -0.29733
 B38 B 0.22055 0.79871 -0.27451
 B39 B 0.21733 0.72571 -0.29973
 B40 B 0.28443 0.68754 -0.28319
 B41 B 0.32920 0.73896 -0.24596
 B42 B 0.28883 0.80779 -0.24107
 B43 B 0.21656 0.71603 -0.19434
 B44 B 0.28361 0.68364 -0.21713
 B45 B 0.28526 0.75685 -0.19156
 B46 B 0.21831 0.79410 -0.20847
 B47 B 0.17412 0.74299 -0.24549
 B48 B 0.21480 0.67367 -0.25047
 B49 B 1.23238 1.29440 0.70982
 B50 B 1.19852 1.22623 0.72752
 B51 B 1.27344 1.22718 0.70537
 B52 B 1.30965 1.29365 0.72673
 B53 B 1.25497 1.33409 0.76434
 B54 B 1.18584 1.29143 0.76387
 B55 B 1.27747 1.22154 0.81109
 B56 B 1.31035 1.28942 0.79236
 B57 B 1.23447 1.28745 0.81504
 B58 B 1.19944 1.22065 0.79351
 B59 B 1.25402 1.18081 0.75689
 B60 B 1.32282 1.22357 0.75650
 B61 B 0.76124 0.71035 0.69240
 B62 B 0.78103 0.78436 0.71049
 B63 B 0.70560 0.76716 0.69677
 B64 B 0.68852 0.69408 0.71732
 B65 B 0.75550 0.66533 0.74619
 B66 B 0.81382 0.72233 0.74107
 B67 B 0.71603 0.76856 0.80205
 B68 B 0.69596 0.69599 0.78265
 B69 B 0.77239 0.71296 0.79741
 B70 B 0.78903 0.78699 0.77673
 B71 B 0.72178 0.81452 0.74889
 B72 B 0.66465 0.75859 0.75237
 B73 B 1.22650 0.71473 0.29767
 B74 B 1.20343 0.79011 0.30095
 B75 B 1.28058 0.77355 0.29975
 B76 B 1.29323 0.71049 0.26029
 B77 B 1.22110 0.68868 0.23559
 B78 B 1.16468 0.73818 0.26140
 B79 B 1.24888 0.80794 0.20266
 B80 B 1.27183 0.73303 0.19994
 B81 B 1.19416 0.74903 0.20029
 B82 B 1.18158 0.81276 0.23995
 B83 B 1.25391 0.83428 0.26469
 B84 B 1.31003 0.78461 0.23941
 B85 B 0.78838 1.24810 0.19836
 B86 B 0.71069 1.26432 0.20322
 B87 B 0.73457 1.18892 0.20306
 B88 B 0.80403 1.18416 0.23621
 B89 B 0.82250 1.25824 0.25751
 B90 B 0.76450 1.30810 0.23650
 B91 B 0.70938 1.22360 0.30267
 B92 B 0.78664 1.20642 0.29887
 B93 B 0.76416 1.28150 0.29816
 B94 B 0.69453 1.28662 0.26534
 B95 B 0.67571 1.21225 0.24383
 B96 B 0.73343 1.16247 0.26511
 O97 O 0.43560 1.09068 0.07047
 O98 O 0.55726 0.91500 0.07899
 O99 O 0.36925 0.92934 0.02213
 O100 O 0.63167 1.04040 0.02362
 O101 O 0.43924 0.91053 0.08092
 O102 O 0.55869 1.07642 0.07704
 O103 O 0.62797 0.92875 0.01951
 O104 O 0.36642 1.04357 0.01898
 C105 C 0.37904 1.07869 0.05812
 C106 C 0.61394 0.91282 0.06518
 C107 C 0.38233 0.91746 0.06886
 C108 C 0.61571 1.06423 0.06754
 O109 O 0.56974 1.11702 -0.02054
 O110 O 0.44078 0.85630 -0.01488
 O111 O 0.40542 1.04388 -0.07934
 O112 O 0.57380 0.92955 -0.07578
 O113 O 0.55518 0.85868 -0.01793
 O114 O 0.45071 1.11650 -0.02949
 O115 O 0.58353 1.04390 -0.07659
 O116 O 0.42171 0.92342 -0.07525
 Co117 Co 0.50386 1.08929 0.02231
 Co118 Co 0.49871 0.89363 0.02922
 Co119 Co 0.40143 0.98434 -0.02600
 Co120 Co 0.59569 0.98597 -0.02502
 O121 O 0.49988 0.98860 0.00127
 C122 C 0.59244 1.09930 -0.06387
 C123 C 0.42014 0.86811 -0.05991
 C124 C 0.41615 1.10033 -0.06816
 C125 C 0.57620 0.87366 -0.06267
 O126 O 0.93048 0.61425 0.53473
 O127 O 1.06626 0.37993 0.55139
 O128 O 0.87640 0.42167 0.51725
 O129 O 1.12378 0.57518 0.53422
 O130 O 0.95168 0.38434 0.55981
 O131 O 1.03524 0.60250 0.56268
 O132 O 1.10077 0.47283 0.57417
 O133 O 0.88799 0.52648 0.55615
 C134 C 0.89140 0.58412 0.56273
 C135 C 1.09936 0.41515 0.58203
 C136 C 0.89413 0.39479 0.55724
 C137 C 1.09304 0.60706 0.56597
 O138 O 1.07813 0.60989 0.45634
 O139 O 0.93615 0.37624 0.44909
 O140 O 0.88376 0.57113 0.45898
 O141 O 1.12742 0.42012 0.48367
 O142 O 1.05292 0.38182 0.43967
 O143 O 0.97294 0.59737 0.43010
 O144 O 1.11895 0.52026 0.44005
 O145 O 0.90447 0.46761 0.42437
 Co146 Co 1.00435 0.59564 0.49645
 Co147 Co 1.00194 0.39089 0.49967
 Co148 Co 0.90042 0.49682 0.49031
 Co149 Co 1.10562 0.49739 0.50697
 O150 O 1.00288 0.49498 0.49848
 C151 C 1.11534 0.57643 0.42924
 C152 C 0.90317 0.40992 0.41820
 C153 C 0.91496 0.60008 0.42582
 C154 C 1.11069 0.39260 0.44326
 O155 O 1.07247 0.47107 0.09648
 O156 O 1.06542 0.53721 -0.08640
 O157 O 1.08868 0.40425 -0.01154
 O158 O 1.05851 0.61659 0.02598
 O159 O 1.06020 0.43044 -0.08927
 O160 O 1.03447 0.57643 0.10145
 O161 O 1.01548 0.61778 -0.06381
 O162 O 1.03838 0.38349 0.07345
 C163 C 1.08208 0.41416 0.09252
 C164 C 1.06366 0.59461 -0.08344
 C165 C 1.10064 0.40666 -0.05913
 C166 C 1.06606 0.61596 0.07439
 O167 O 0.90920 0.52976 0.09391
 O168 O 0.92534 0.43588 -0.08487
 O169 O 0.92729 0.38094 0.02709
 O170 O 0.90189 0.59124 -0.02422
 O171 O 0.93411 0.55015 -0.09711
 O172 O 0.94346 0.42439 0.10274
 O173 O 0.94177 0.61563 0.06298
 O174 O 0.98337 0.36549 -0.05513
 Co175 Co 0.99035 0.49970 0.09021
 Co176 Co 0.99504 0.48899 -0.08097
 Co177 Co 1.00756 0.39590 0.00805
 Co178 Co 0.98091 0.59871 0.00059
 O179 O 0.99291 0.49623 0.00433
 C180 C 0.89910 0.58583 0.08530
 C181 C 0.93681 0.37892 -0.08133
 C182 C 0.91390 0.38418 0.07448
 C183 C 0.89541 0.58496 -0.07225
 O184 O 0.56807 0.96460 0.59457
 O185 O 0.56288 1.05648 0.41487
 O186 O 0.58392 0.91006 0.47898
 O187 O 0.55341 1.12130 0.52829
 O188 O 0.55825 0.94844 0.40385
 O189 O 0.53415 1.07478 0.60240
 O190 O 0.50664 1.13059 0.44101
 O191 O 0.52844 0.88331 0.56262
 C192 C 0.57257 0.90717 0.58637
 C193 C 0.55660 1.11369 0.42033
 C194 C 0.59850 0.92156 0.43231
 C195 C 0.56311 1.11721 0.57639
 O196 O 0.40722 1.03196 0.59455
 O197 O 0.42131 0.95411 0.40916
 O198 O 0.42051 0.88467 0.51868
 O199 O 0.39565 1.09830 0.48020
 O200 O 0.42916 1.06498 0.40474
 O201 O 0.43727 0.92754 0.59580
 O202 O 0.44018 1.11887 0.56799
 O203 O 0.47882 0.88171 0.43233
 Co204 Co 0.48752 1.00009 0.58818
 Co205 Co 0.49228 1.00551 0.41649
 Co206 Co 0.50164 0.90151 0.49816
 Co207 Co 0.47539 1.10525 0.50387
 O208 O 0.48923 1.00325 0.50174
 C209 C 0.39787 1.08843 0.58945
 C210 C 0.42868 0.89680 0.41267
 C211 C 0.40663 0.88919 0.56676
 C212 C 0.38791 1.09349 0.43200
 O213 O 1.11945 1.07900 0.45280
 O214 O 0.87949 1.01151 0.56125
 O215 O 0.93468 1.03541 0.40401
 O216 O 1.06200 1.05470 0.61348
 O217 O 0.88890 1.05529 0.47620
 O218 O 1.09361 1.10398 0.54482
 O219 O 0.95037 1.06245 0.60287
 O220 O 1.02531 1.09158 0.42860
 C221 C 1.07972 1.11083 0.42858
 C222 C 0.89462 1.05772 0.58882
 C223 C 0.89697 1.06851 0.42952
 C224 C 1.08129 1.10406 0.59289
 O225 O 1.13326 0.98796 0.57207
 O226 O 0.90619 0.93711 0.43588
 O227 O 1.09658 0.98496 0.41112
 O228 O 0.94284 0.93487 0.60162
 O229 O 0.91649 0.89875 0.52603
 O230 O 1.13293 0.95485 0.48320
 O231 O 1.05707 0.92880 0.59742
 O232 O 1.00218 0.92648 0.41382
 Co233 Co 1.10904 1.02862 0.51219
 Co234 Co 0.90852 0.97810 0.50009
 Co235 Co 1.01435 1.00884 0.42360
 Co236 Co 1.00372 0.99546 0.59436
 O237 O 1.00883 1.00213 0.50790
 C238 C 1.11412 0.94220 0.59864
 C239 C 0.94692 0.91080 0.40777
 C240 C 1.12614 0.94481 0.43582
 C241 C 0.91479 0.89378 0.57489
 O242 O 0.61460 0.56273 -0.04317
 O243 O 0.37318 0.55279 0.04930
 O244 O 0.44999 0.50907 -0.10593
 O245 O 0.56220 0.54003 0.11962
 O246 O 0.39744 0.56014 -0.04704
 O247 O 0.59960 0.58331 0.05136
 O248 O 0.44830 0.57897 0.10659
 O249 O 0.52235 0.57598 -0.06526
 C250 C 0.57703 0.59222 -0.07046
 C251 C 0.39544 0.58882 0.08522
 C252 C 0.40672 0.54731 -0.09512
 C253 C 0.58667 0.58651 0.09907
 O254 O 0.61128 0.45414 0.06827
 O255 O 0.39905 0.43261 -0.05301
 O256 O 0.57507 0.47127 -0.10688
 O257 O 0.41037 0.46701 0.10938
 O258 O 0.38573 0.42273 0.03793
 O259 O 0.60777 0.43975 -0.02857
 O260 O 0.52582 0.42630 0.11353
 O261 O 0.49665 0.40793 -0.06030
 Co262 Co 0.59799 0.50947 0.01314
 Co263 Co 0.39703 0.49356 -0.00107
 Co264 Co 0.51351 0.49250 -0.05921
 Co265 Co 0.48750 0.50294 0.10387
 O266 O 0.49506 0.50140 0.01652
 C267 C 0.58236 0.41643 0.09903
 C268 C 0.44036 0.39575 -0.07049
 C269 C 0.61522 0.43944 -0.07860
 C270 C 0.39319 0.41922 0.08589
 C271 C 0.27405 1.16311 0.14242
 C272 C 0.23139 1.14740 0.10347
 C273 C 0.26471 1.11218 0.06767
 C274 C 0.32561 1.10886 0.08706
 O275 O 0.33126 1.13949 0.13257
 H276 H 0.18198 1.16054 0.10126
 H277 H 0.24711 1.09248 0.03104
 C278 C 0.78248 0.67208 0.64089
 C279 C 0.74115 0.63060 0.61623
 C280 C 0.77691 0.59502 0.58355
 C281 C 0.83835 0.61544 0.59063
 O282 O 0.84244 0.66240 0.62560
 H283 H 0.69064 0.62487 0.62295
 H284 H 0.75993 0.55757 0.55818
 C285 C 0.71199 0.82694 0.14946
 C286 C 0.75542 0.84017 0.11003
 C287 C 0.72427 0.87597 0.07534
 C288 C 0.66378 0.88245 0.09569
 O289 O 0.65586 0.85287 0.14100
 H290 H 0.80456 0.82600 0.10718
 H291 H 0.74314 0.89434 0.03873
 C292 C 1.21081 0.33714 0.66248
 C293 C 1.24616 0.38943 0.64894
 C294 C 1.20772 0.42464 0.61936
 C295 C 1.15161 0.39109 0.61479
 O296 O 1.15301 0.33756 0.64123
 H297 H 1.29285 0.40309 0.66270
 H298 H 1.21923 0.47060 0.60406
 C299 C 0.70609 1.17619 -0.14438
 C300 C 0.74371 1.16345 -0.10162
 C301 C 0.70442 1.13730 -0.06502
 C302 C 0.64572 1.13403 -0.08824
 O303 O 0.64644 1.15684 -0.13668
 H304 H 0.79363 1.17255 -0.09681
 H305 H 0.71757 1.12026 -0.02660
 C306 C 1.21283 0.66287 0.34098
 C307 C 1.25182 0.61199 0.34844
 C308 C 1.21964 0.57345 0.38170
 C309 C 1.16301 0.60311 0.39253
 O310 O 1.15837 0.65743 0.36767
 H311 H 1.29756 0.60297 0.33033
 H312 H 1.23566 0.52883 0.39651
 C313 C 0.31460 0.77976 -0.13724
 C314 C 0.27820 0.78911 -0.09228
 C315 C 0.31706 0.81531 -0.05626
 C316 C 0.37341 0.82498 -0.08248
 O317 O 0.37224 0.80473 -0.13207
 H318 H 0.22768 0.78247 -0.08707
 H319 H 0.30371 0.83194 -0.01730
 C320 C 0.78626 0.33093 0.34111
 C321 C 0.75654 0.38774 0.34778
 C322 C 0.79748 0.42356 0.37606
 C323 C 0.84945 0.38612 0.38589
 O324 O 0.84300 0.32956 0.36430
 H325 H 0.71229 0.40280 0.33079
 H326 H 0.79055 0.47226 0.38727
 C327 C 1.19406 0.31221 0.14424
 C328 C 1.22313 0.32134 0.09607
 C329 C 1.18864 0.36712 0.07233
 C330 C 1.14053 0.38204 0.10741
 O331 O 1.14332 0.34809 0.15045
 H332 H 1.26491 0.29831 0.08043
 H333 H 1.19649 0.38566 0.03331
 C334 C 0.67121 0.79827 0.64835
 C335 C 0.67141 0.77332 0.59832
 C336 C 0.63901 0.81444 0.56916
 C337 C 0.62317 0.86395 0.60206
 O338 O 0.64093 0.85324 0.65110
 H339 H 0.69042 0.72970 0.58406
 H340 H 0.62346 0.80584 0.52935
 C341 C 1.18358 0.68411 -0.14411
 C342 C 1.21646 0.66188 -0.10104
 C343 C 1.17428 0.62906 -0.07170
 C344 C 1.11847 0.63260 -0.09859
 O345 O 1.12344 0.66508 -0.14284
 H346 H 1.26600 0.66709 -0.09190
 H347 H 1.18360 0.60325 -0.03605
 C348 C 0.66649 1.20902 0.35219
 C349 C 0.64235 1.25439 0.38569
 C350 C 0.60019 1.22348 0.41713
 C351 C 0.60188 1.16135 0.40087
 O352 O 0.64197 1.15233 0.36130
 H353 H 0.65181 1.30450 0.38534
 H354 H 0.56947 1.24429 0.44676
 C355 C 0.79270 0.68475 0.15134
 C356 C 0.76338 0.68410 0.10287
 C357 C 0.79669 0.64217 0.07266
 C358 C 0.84324 0.61948 0.10504
 O359 O 0.84153 0.64588 0.15238
 H360 H 0.72311 0.71140 0.09062
 H361 H 0.78974 0.63155 0.03129
 C362 C 0.29554 1.19062 0.65445
 C363 C 0.26323 1.18583 0.60760
 C364 C 0.29310 1.13919 0.58009
 C365 C 0.34283 1.12113 0.61077
 O366 O 0.34492 1.15258 0.65568
 H367 H 0.22192 1.21173 0.59555
 H368 H 0.28130 1.12081 0.54180
 C369 C 0.84675 0.27347 -0.15988
 C370 C 0.88913 0.23122 -0.14004
 C371 C 0.92624 0.26554 -0.10690
 C372 C 0.90499 0.32683 -0.10978
 O373 O 0.85714 0.33204 -0.14253
 H374 H 0.89279 0.18148 -0.14901
 H375 H 0.96554 0.24817 -0.08418
 C376 C 0.32460 0.79229 0.34709
 C377 C 0.34961 0.75049 0.38204
 C378 C 0.38890 0.78562 0.41281
 C379 C 0.38489 0.84662 0.39477
 O380 O 0.34583 0.85085 0.35464
 H381 H 0.34226 0.70016 0.38358
 H382 H 0.41938 0.76806 0.44325
 C383 C 1.13722 1.19714 0.32291
 C384 C 1.07779 1.22369 0.32631
 C385 C 1.05078 1.19875 0.37011
 C386 C 1.09569 1.15881 0.39015
 O387 O 1.14791 1.15724 0.36136
 H388 H 1.05706 1.25796 0.30046
 H389 H 1.00289 1.20635 0.38445
 C390 C 0.64461 0.65773 -0.18443
 C391 C 0.58098 0.66048 -0.19738
 C392 C 0.54879 0.64163 -0.15435
 C393 C 0.59441 0.62641 -0.11821
 O394 O 0.65295 0.63490 -0.13652
 H395 H 0.55998 0.67826 -0.23301
 H396 H 0.49774 0.63758 -0.15033
 C397 C 0.79103 1.15731 0.65812
 C398 C 0.74830 1.11688 0.63422
 C399 C 0.78176 1.08092 0.60087
 C400 C 0.84390 1.09727 0.60968
 O401 O 0.85038 1.14399 0.64437
 H402 H 0.69960 1.10810 0.64392
 H403 H 0.76309 1.04299 0.57676
 C404 C 0.30541 0.70423 0.14941
 C405 C 0.29326 0.72139 0.09805
 C406 C 0.32673 0.68087 0.06714
 C407 C 0.35785 0.64284 0.10178
 O408 O 0.34524 0.65659 0.15164
 H409 H 0.26274 0.75819 0.08431
 H410 H 0.32781 0.67871 0.02449
 C411 C 1.19698 0.85989 0.69606
 C412 C 1.23266 0.91491 0.69531
 C413 C 1.20642 0.95137 0.65823
 C414 C 1.15576 0.91706 0.63926
 O415 O 1.14890 0.86180 0.66260
 H416 H 1.27525 0.92613 0.71715
 H417 H 1.22244 0.99764 0.64619
 C418 C 0.67172 0.29534 0.15651
 C419 C 0.67104 0.27341 0.10507
 C420 C 0.63523 0.31474 0.07792
 C421 C 0.61574 0.35887 0.11441
 O422 O 0.63797 0.34772 0.16219
 H423 H 0.69492 0.23306 0.08847
 H424 H 0.62556 0.31376 0.03608
 C425 C 0.87292 0.83204 0.30429
 C426 C 0.93443 0.81325 0.29315
 C427 C 0.97108 0.84124 0.33047
 C428 C 0.92913 0.87466 0.36143
 O429 O 0.87010 0.87111 0.34476
 H430 H 0.95016 0.77968 0.26358
 H431 H 1.02168 0.83598 0.33581
 C432 C 0.37029 0.31649 -0.17682
 C433 C 0.43143 0.29405 -0.18364
 C434 C 0.46587 0.31841 -0.14297
 C435 C 0.42336 0.35361 -0.11407
 O436 O 0.36585 0.35354 -0.13490
 H437 H 0.44847 0.26169 -0.21364
 H438 H 0.51593 0.31197 -0.13561
 C439 C 1.20463 0.31226 -0.13163
 C440 C 1.18877 0.27219 -0.09085
 C441 C 1.15668 0.30695 -0.05553
 C442 C 1.14948 0.36448 -0.07890
 O443 O 1.17752 0.36797 -0.12566
 H444 H 1.19662 0.22211 -0.08814
 H445 H 1.13472 0.28987 -0.01971
 C446 C 0.71272 0.83545 0.35937
 C447 C 0.72445 0.81684 0.41015
 C448 C 0.69477 0.85787 0.44227
 C449 C 0.65702 0.89262 0.41030
 O450 O 0.66834 0.88015 0.35943
 H451 H 0.74358 0.77351 0.42390
 H452 H 0.69483 0.85710 0.48456
 C453 C 0.81005 0.68888 -0.15311
 C454 C 0.82729 0.72944 -0.11299
 C455 C 0.85395 0.69325 -0.07634
 C456 C 0.85724 0.63363 -0.09815
 O457 O 0.83083 0.63056 -0.14551
 H458 H 0.81851 0.77944 -0.10958
 H459 H 0.87053 0.70956 -0.03848
 C460 C 0.28864 1.18516 0.35278
 C461 C 0.26856 1.20611 0.40166
 C462 C 0.30178 1.17301 0.43682
 C463 C 0.33846 1.13199 0.40774
 O464 O 0.33148 1.13984 0.35633
 H465 H 0.23468 1.24203 0.41158
 H466 H 0.30290 1.18232 0.47845
 C467 C 1.15114 0.72847 0.15164
 C468 C 1.13895 0.76526 0.10862
 C469 C 1.10773 0.72699 0.07400
 C470 C 1.10141 0.66957 0.09853
 O471 O 1.12743 0.67034 0.14590
 H472 H 1.15272 0.81354 0.10217
 H473 H 1.09067 0.73973 0.03546
 C474 C 0.65222 1.22500 0.65519
 C475 C 0.65900 1.25322 0.60670
 C476 C 0.62588 1.21706 0.57231
 C477 C 0.60043 1.16868 0.60140
 O478 O 0.61470 1.17409 0.65217
 H479 H 0.68830 1.29235 0.59549
 H480 H 0.62304 1.22375 0.53023
 C481 C 0.82680 0.27044 0.14771
 C482 C 0.82571 0.24094 0.09918
 C483 C 0.85580 0.28109 0.06575
 C484 C 0.87401 0.33246 0.09601
 O485 O 0.85671 0.32605 0.14592
 H486 H 0.80397 0.19661 0.08845
 H487 H 0.86427 0.27340 0.02404
 C488 C 0.32050 0.78628 0.64929
 C489 C 0.32435 0.74840 0.60484
 C490 C 0.35203 0.78431 0.56703
 C491 C 0.36518 0.84120 0.59114
 O492 O 0.34654 0.84256 0.64131
 H493 H 0.30820 0.70018 0.60032
 H494 H 0.36425 0.76953 0.52740
 C495 C 0.31001 1.19441 -0.13699
 C496 C 0.32180 1.23173 -0.09268
 C497 C 0.36544 1.20252 -0.06432
 C498 C 0.37806 1.14862 -0.09202
 O499 O 0.34468 1.14260 -0.13606
 H500 H 0.30603 1.27842 -0.08311
 H501 H 0.38527 1.21847 -0.02721
 C502 C 0.82048 0.70614 0.35666
 C503 C 0.84856 0.74515 0.39396
 C504 C 0.88943 0.71083 0.42100
 C505 C 0.88541 0.65223 0.39909
 O506 O 0.84324 0.64809 0.36029
 H507 H 0.84119 0.79392 0.40221
 H508 H 0.91609 0.72673 0.45473
 C509 C 0.71796 1.13888 0.15840
 C510 C 0.76034 1.09575 0.13794
 C511 C 0.72694 1.06104 0.10211
 C512 C 0.66611 1.08428 0.10412
 O513 O 0.66026 1.13122 0.13852
 H514 H 0.81005 1.09095 0.14737
 H515 H 0.74493 1.02377 0.07689
 C516 C 1.18035 0.70877 0.64777
 C517 C 1.17708 0.74638 0.60377
 C518 C 1.14051 0.71414 0.56876
 C519 C 1.12367 0.65938 0.59379
 O520 O 1.14822 0.65532 0.64139
 H521 H 1.20039 0.79103 0.59682
 H522 H 1.12972 0.72756 0.52880
 C523 C 0.68578 0.79132 -0.14278
 C524 C 0.68774 0.75596 -0.09722
 C525 C 0.64485 0.78064 -0.06366
 C526 C 0.61914 0.83013 -0.08993
 O527 O 0.64372 0.83745 -0.13794
 H528 H 0.71322 0.71355 -0.08937
 H529 H 0.63404 0.76466 -0.02417
 C530 C 1.21223 0.32774 0.34539
 C531 C 1.25641 0.36310 0.37248
 C532 C 1.22329 0.39173 0.41175
 C533 C 1.16084 0.37269 0.40571
 O534 O 1.15379 0.33376 0.36518
 H535 H 1.30697 0.36655 0.36509
 H536 H 1.24277 0.42240 0.44190
 C537 C 0.26960 0.85563 0.15815
 C538 C 0.23257 0.90239 0.13771
 C539 C 0.27089 0.93304 0.10255
 C540 C 0.32923 0.90425 0.10543
 O541 O 0.32860 0.85737 0.13914
 H542 H 0.18348 0.91253 0.14700
 H543 H 0.25773 0.97134 0.07721
 C544 C 0.78781 0.32681 0.65071
 C545 C 0.75371 0.37923 0.63692
 C546 C 0.78987 0.40997 0.60124
 C547 C 0.84512 0.37625 0.59647
 O548 O 0.84462 0.32550 0.62684
 H549 H 0.70754 0.39363 0.65137
 H550 H 0.77739 0.45242 0.58094
 C551 C 1.14210 1.20051 0.69219
 C552 C 1.08472 1.23068 0.68588
 C553 C 1.05601 1.20132 0.64430
 C554 C 1.09793 1.15570 0.62824
 O555 O 1.14882 1.15354 0.65827
 H556 H 1.06694 1.27093 0.70770
 H557 H 1.00948 1.21074 0.62857
 C558 C 0.64394 0.69555 0.19206
 C559 C 0.58880 0.72630 0.17882
 C560 C 0.56158 0.69069 0.14006
 C561 C 0.60206 0.64105 0.13223
 O562 O 0.65128 0.64298 0.16429
 H563 H 0.57181 0.77089 0.19400
 H564 H 0.51723 0.69936 0.12028
 C565 C 1.17700 0.81920 0.35484
 C566 C 1.18922 0.79375 0.40380
 C567 C 1.17168 0.83762 0.43985
 C568 C 1.15027 0.88722 0.41095
 O569 O 1.15324 0.87665 0.35935
 H570 H 1.21304 0.75059 0.41301
 H571 H 1.17557 0.83453 0.48227
 C572 C 0.70335 0.32969 -0.15114
 C573 C 0.72704 0.31922 -0.10129
 C574 C 0.69957 0.36175 -0.06937
 C575 C 0.65970 0.39470 -0.10121
 O576 O 0.66141 0.37578 -0.15108
 H577 H 0.76028 0.28455 -0.08847
 H578 H 0.70612 0.36670 -0.02725
 C579 C 0.81784 1.17952 0.35148
 C580 C 0.80272 1.20248 0.40135
 C581 C 0.83102 1.16431 0.43605
 C582 C 0.86171 1.12016 0.40570
 O583 O 0.85403 1.12873 0.35422
 H584 H 0.77230 1.24126 0.41203
 H585 H 0.82866 1.16754 0.47864
 C586 C 0.31554 0.62513 -0.19002
 C587 C 0.30971 0.56445 -0.20935
 C588 C 0.34282 0.52816 -0.17574
 C589 C 0.36583 0.56892 -0.13778
 O590 O 0.35028 0.62811 -0.14654
 H591 H 0.28439 0.54858 -0.24405
 H592 H 0.34936 0.47775 -0.17835
 C593 C 0.81378 0.83161 0.66994
 C594 C 0.78226 0.88504 0.65526
 C595 C 0.80854 0.90259 0.60956
 C596 C 0.86019 0.86455 0.60166
 O597 O 0.86368 0.82052 0.63866
 H598 H 0.74196 0.90727 0.67406
 H599 H 0.79467 0.94308 0.58778
 C600 C 0.34792 0.29883 0.16961
 C601 C 0.39642 0.26714 0.14418
 C602 C 0.41902 0.30790 0.10723
 C603 C 0.38339 0.36131 0.11420
 O604 O 0.34138 0.35658 0.15235
 H605 H 0.41294 0.22001 0.15113
 H606 H 0.45751 0.30030 0.07945
   
