data_POSCAR
  _audit_creation_date              2014-09-24
  _audit_creation_method            'ToBaCCo'
  _symmetry_space_group_name_H-M    'P1'
  _symmetry_Int_Tables_number       1
  _symmetry_cell_setting            triclinic
  loop_
  _symmetry_equiv_pos_as_xyz
 x,y,z
_cell_length_a 21.9853
_cell_length_b 20.9755
_cell_length_c 22.2705
_cell_angle_alpha 87.536800
_cell_angle_beta 87.701700
_cell_angle_gamma 93.430700
loop_
  _atom_site_label
  _atom_site_type_symbol
  _atom_site_fract_x
  _atom_site_fract_y
  _atom_site_fract_z
C1 C 0.00232 0.50459 0.27995
 C2 C -0.01038 0.52219 0.72446
 C3 C 0.21574 -0.02656 0.50320
 C4 C 0.76719 0.00160 0.51506
 C5 C 0.52657 0.25275 0.99880
 C6 C 0.49120 0.73458 0.97945
 B7 B 1.01651 1.07685 0.04629
 B8 B 1.02091 1.07885 -0.03340
 B9 B 1.07661 1.04577 0.00864
 B10 B 1.04267 1.00505 0.07070
 B11 B 0.96480 1.01663 0.06991
 B12 B 0.95235 1.06132 0.00359
 B13 B 0.99701 0.94492 -0.02810
 B14 B 0.99245 0.94649 0.04906
 B15 B 0.93601 0.97974 0.00684
 B16 B 0.97281 1.01724 -0.05743
 B17 B 1.04968 1.00736 -0.05381
 B18 B 1.06298 0.96197 0.00866
 B19 B 0.55515 0.48338 0.44645
 B20 B 0.55908 0.47712 0.52541
 B21 B 0.54787 0.55048 0.48771
 B22 B 0.50093 0.53749 0.42918
 B23 B 0.48409 0.45531 0.42808
 B24 B 0.51980 0.41868 0.48681
 B25 B 0.43503 0.49880 0.53617
 B26 B 0.43210 0.50431 0.45831
 B27 B 0.44320 0.43103 0.49436
 B28 B 0.48876 0.44598 0.55417
 B29 B 0.50714 0.52683 0.55499
 B30 B 0.47094 0.56360 0.49697
 C31 C 1.02621 1.38889 0.25048
 C32 C 1.01858 1.33756 0.21317
 C33 C 0.96989 1.33588 0.17402
 C34 C 0.93590 1.38946 0.16595
 C35 C 0.95032 1.44450 0.19654
 C36 C 0.99477 1.44531 0.24078
 C37 C 0.95662 1.28077 0.14314
 C38 C 0.99720 1.23183 0.14358
 C39 C 1.05093 1.23785 0.17495
 C40 C 1.05954 1.28854 0.21331
 C41 C 1.09435 1.19292 0.16684
 C42 C 1.08479 1.14481 0.12585
 C43 C 1.02955 1.13602 0.09451
 C44 C 0.98507 1.17774 0.11128
 H45 H 1.05627 1.38286 0.28704
 H46 H 0.89915 1.38937 0.13493
 H47 H 0.92333 1.48503 0.18842
 H48 H 0.91669 1.27750 0.11625
 H49 H 1.09921 1.29151 0.24072
 H50 H 1.13655 1.19609 0.19037
 H51 H 1.12139 1.11352 0.12124
 H52 H 0.93946 1.16982 0.10180
 C53 C 0.97001 0.60207 0.21554
 C54 C 0.98234 0.66388 0.19053
 C55 C 1.04328 0.68702 0.17851
 C56 C 1.09026 0.64722 0.18899
 C57 C 1.07771 0.58708 0.21667
 C58 C 1.01749 0.56482 0.23611
 C59 C 1.05645 0.74943 0.15591
 C60 C 1.00902 0.78885 0.14440
 C61 C 0.94791 0.76622 0.15640
 C62 C 0.93470 0.70373 0.17960
 C63 C 0.90142 0.80682 0.14478
 C64 C 0.91551 0.86617 0.11534
 C65 C 0.97602 0.88526 0.09510
 C66 C 1.02211 0.84963 0.11805
 H67 H 0.92267 0.58542 0.22314
 H68 H 1.13722 0.66324 0.17723
 H69 H 1.11728 0.56097 0.22205
 H70 H 1.10345 0.76691 0.14626
 H71 H 0.88771 0.68631 0.18924
 H72 H 0.85422 0.79205 0.15654
 H73 H 0.87836 0.89557 0.10749
 H74 H 1.06883 0.86621 0.11169
 C75 C 1.02806 1.42809 -0.20938
 C76 C 1.01688 1.36833 -0.17919
 C77 C 0.95689 1.34711 -0.16039
 C78 C 0.90999 1.38905 -0.16767
 C79 C 0.92166 1.44877 -0.19842
 C80 C 0.97989 1.46688 -0.22539
 C81 C 0.94528 1.28453 -0.13501
 C82 C 0.99372 1.24434 -0.12632
 C83 C 1.05360 1.26703 -0.14328
 C84 C 1.06498 1.32844 -0.17001
 C85 C 1.10093 1.22673 -0.13523
 C86 C 1.08978 1.16732 -0.10491
 C87 C 1.03196 1.14639 -0.07838
 C88 C 0.98362 1.18192 -0.10041
 H89 H 1.07475 1.44174 -0.22294
 H90 H 0.86386 1.37490 -0.15134
 H91 H 0.88383 1.47870 -0.20500
 H92 H 0.89905 1.26760 -0.12118
 H93 H 1.11122 1.34486 -0.18442
 H94 H 1.14710 1.24165 -0.15098
 H95 H 1.12865 1.14053 -0.09981
 H96 H 0.93785 1.16116 -0.10028
 C97 C 0.97538 0.60392 -0.19059
 C98 C 0.98756 0.66482 -0.16727
 C99 C 1.02847 0.71028 -0.19888
 C100 C 1.05113 0.69735 -0.25588
 C101 C 1.03491 0.63954 -0.28068
 C102 C 1.00070 0.58911 -0.24727
 C103 C 1.04389 0.76934 -0.17444
 C104 C 1.01373 0.78676 -0.12176
 C105 C 0.96920 0.74372 -0.09280
 C106 C 0.95818 0.68205 -0.11389
 C107 C 0.93636 0.76339 -0.04319
 C108 C 0.94499 0.82594 -0.02524
 C109 C 0.98731 0.87196 -0.05437
 C110 C 1.02615 0.84736 -0.09861
 H111 H 0.94543 0.56917 -0.16496
 H112 H 1.08003 0.73274 -0.28224
 H113 H 1.05119 0.63349 -0.32649
 H114 H 1.07652 0.80322 -0.19830
 H115 H 0.92517 0.64856 -0.09013
 H116 H 0.90231 0.73122 -0.01932
 H117 H 0.91599 0.83739 0.01130
 H118 H 1.06883 0.87185 -0.11230
 C119 C 1.20108 0.98084 0.39118
 C120 C 1.16726 0.99268 0.34083
 C121 C 1.11107 1.02162 0.34666
 C122 C 1.08914 1.03684 0.40377
 C123 C 1.12156 1.02125 0.45453
 C124 C 1.17718 0.99073 0.44912
 C125 C 1.07765 1.03370 0.29541
 C126 C 1.09800 1.01273 0.23948
 C127 C 1.15270 0.98121 0.23517
 C128 C 1.18806 0.97334 0.28507
 C129 C 1.17098 0.95683 0.18112
 C130 C 1.13523 0.96285 0.13179
 C131 C 1.08110 0.99582 0.13250
 C132 C 1.06432 1.02194 0.18790
 H133 H 1.24515 0.96066 0.38572
 H134 H 1.04647 1.05969 0.40933
 H135 H 1.10329 1.03431 0.49777
 H136 H 1.03504 1.05702 0.29942
 H137 H 1.23060 0.94982 0.28099
 H138 H 1.21246 0.93152 0.17712
 H139 H 1.15196 0.94015 0.09379
 H140 H 1.02693 1.05254 0.19113
 C141 C 1.20383 0.99073 -0.38442
 C142 C 1.17158 0.98323 -0.32940
 C143 C 1.11297 0.95150 -0.32546
 C144 C 1.08849 0.92590 -0.37682
 C145 C 1.12131 0.93326 -0.43180
 C146 C 1.17828 0.96852 -0.43707
 C147 C 1.08004 0.94617 -0.27030
 C148 C 1.10504 0.97316 -0.21966
 C149 C 1.16400 1.00355 -0.22376
 C150 C 1.19731 1.00783 -0.27837
 C151 C 1.18800 1.03115 -0.17361
 C152 C 1.15288 1.03099 -0.12047
 C153 C 1.09311 1.00249 -0.11469
 C154 C 1.07093 0.97226 -0.16549
 H155 H 1.24943 1.01340 -0.38555
 H156 H 1.04416 0.90017 -0.37447
 H157 H 1.10187 0.91179 -0.47057
 H158 H 1.03467 0.92253 -0.26711
 H159 H 1.24249 1.03194 -0.28151
 H160 H 1.23334 1.05472 -0.17585
 H161 H 1.17376 1.05549 -0.08497
 H162 H 1.02530 0.95003 -0.16430
 C163 C 0.80772 1.03441 0.40722
 C164 C 0.84271 1.02495 0.35477
 C165 C 0.88901 0.98155 0.35559
 C166 C 0.90307 0.95303 0.41133
 C167 C 0.86890 0.96449 0.46448
 C168 C 0.81820 1.00319 0.46328
 C169 C 0.91906 0.96713 0.30061
 C170 C 0.90471 0.99841 0.24568
 C171 C 0.86204 1.04579 0.24733
 C172 C 0.83030 1.05755 0.30097
 C173 C 0.85146 1.08131 0.19523
 C174 C 0.88344 1.07133 0.14187
 C175 C 0.92521 1.02316 0.13572
 C176 C 0.93314 0.98500 0.18947
 H177 H 0.77011 1.06448 0.40245
 H178 H 0.93936 0.92040 0.41363
 H179 H 0.87944 0.93873 0.50548
 H180 H 0.95352 0.93227 0.30064
 H181 H 0.79584 1.09252 0.30086
 H182 H 0.81862 1.11787 0.19566
 H183 H 0.87056 1.09975 0.10407
 H184 H 0.96518 0.94815 0.18969
 C185 C 0.84474 1.00635 -0.39830
 C186 C 0.85639 1.00334 -0.33619
 C187 C 0.81268 0.97388 -0.29397
 C188 C 0.75698 0.95016 -0.31443
 C189 C 0.74377 0.95788 -0.37512
 C190 C 0.78722 0.98563 -0.41922
 C191 C 0.82444 0.97078 -0.23187
 C192 C 0.87840 1.00007 -0.21090
 C193 C 0.91970 1.03273 -0.25331
 C194 C 0.90978 1.03260 -0.31526
 C195 C 0.97061 1.06575 -0.23326
 C196 C 0.98284 1.06357 -0.17267
 C197 C 0.94636 1.02728 -0.12754
 C198 C 0.89190 0.99765 -0.14871
 H199 H 0.87901 1.02931 -0.42964
 H200 H 0.72217 0.92831 -0.28294
 H201 H 0.69809 0.94285 -0.38654
 H202 H 0.79114 0.94688 -0.19996
 H203 H 0.94291 1.05701 -0.34708
 H204 H 1.00292 1.09160 -0.26492
 H205 H 1.02674 1.08484 -0.16471
 H206 H 0.85927 0.97320 -0.11823
 C207 C 1.40984 1.23234 0.00704
 C208 C 1.35664 1.19238 0.01660
 C209 C 1.36039 1.12686 0.03272
 C210 C 1.41725 1.10318 0.04187
 C211 C 1.46990 1.14309 0.03206
 C212 C 1.46778 1.20740 0.00933
 C213 C 1.30727 1.08625 0.03972
 C214 C 1.25041 1.11029 0.02921
 C215 C 1.24704 1.17611 0.01498
 C216 C 1.29973 1.21691 0.00940
 C217 C 1.19071 1.20042 0.00723
 C218 C 1.13903 1.15930 0.00846
 C219 C 1.14068 1.09153 0.01422
 C220 C 1.19704 1.06949 0.03176
 H221 H 1.40642 1.28293 -0.00348
 H222 H 1.42112 1.05382 0.05696
 H223 H 1.51218 1.12286 0.04357
 H224 H 1.31039 1.03585 0.05152
 H225 H 1.29653 1.26737 -0.00210
 H226 H 1.18632 1.25134 -0.00012
 H227 H 1.09691 1.18261 0.00561
 H228 H 1.20099 1.02147 0.04773
 C229 C 0.63717 1.22630 0.01997
 C230 C 0.68924 1.19494 0.00376
 C231 C 0.68450 1.14128 -0.03253
 C232 C 0.62950 1.12507 -0.05853
 C233 C 0.58011 1.16217 -0.04899
 C234 C 0.58169 1.21107 -0.00688
 C235 C 0.73548 1.10632 -0.04401
 C236 C 0.79205 1.12789 -0.02381
 C237 C 0.79813 1.18674 0.00426
 C238 C 0.74654 1.21873 0.02028
 C239 C 0.85618 1.21299 0.01407
 C240 C 0.90596 1.17608 0.00551
 C241 C 0.89825 1.11045 -0.00551
 C242 C 0.84271 1.09133 -0.03041
 H243 H 0.64169 1.26556 0.04960
 H244 H 0.62558 1.08591 -0.08862
 H245 H 0.53954 1.15185 -0.07375
 H246 H 0.73127 1.06297 -0.06881
 H247 H 0.75113 1.26252 0.04439
 H248 H 0.86304 1.26160 0.02805
 H249 H 0.95080 1.19911 0.00882
 H250 H 0.83720 1.04720 -0.05254
 C251 C 1.37667 0.76056 -0.00270
 C252 C 1.32719 0.80158 -0.00675
 C253 C 1.33945 0.86651 -0.02471
 C254 C 1.40007 0.88888 -0.03917
 C255 C 1.44835 0.84782 -0.03665
 C256 C 1.43869 0.78285 -0.01722
 C257 C 1.29095 0.90794 -0.02897
 C258 C 1.22964 0.88553 -0.01567
 C259 C 1.21698 0.82071 0.00103
 C260 C 1.26554 0.77899 0.00562
 C261 C 1.15564 0.79900 0.01182
 C262 C 1.10824 0.84160 0.00981
 C263 C 1.11913 0.90871 -0.00031
 C264 C 1.18103 0.92734 -0.01823
 H265 H 1.36680 0.71061 0.01051
 H266 H 1.41017 0.93837 -0.05410
 H267 H 1.49302 0.86738 -0.05214
 H268 H 1.30102 0.95787 -0.04246
 H269 H 1.25530 0.72900 0.01868
 H270 H 1.14401 0.74873 0.02236
 H271 H 1.06268 0.82059 0.01742
 H272 H 1.19354 0.97483 -0.03287
 C273 C 0.58354 0.81592 0.00042
 C274 C 0.64612 0.83799 -0.00721
 C275 C 0.68525 0.80951 -0.04874
 C276 C 0.66213 0.75778 -0.07979
 C277 C 0.60139 0.73481 -0.07048
 C278 C 0.55862 0.76537 -0.03332
 C279 C 0.74746 0.83132 -0.05692
 C280 C 0.77224 0.88039 -0.02236
 C281 C 0.73328 0.90734 0.02006
 C282 C 0.67085 0.88707 0.02698
 C283 C 0.75717 0.95534 0.05449
 C284 C 0.81860 0.97548 0.04810
 C285 C 0.86146 0.95013 0.00825
 C286 C 0.83501 0.90292 -0.02913
 H287 H 0.55455 0.83712 0.03357
 H288 H 0.69178 0.73314 -0.10984
 H289 H 0.58918 0.69088 -0.09180
 H290 H 0.77676 0.80915 -0.08921
 H291 H 0.64170 0.90913 0.05950
 H292 H 0.72800 0.97870 0.08603
 H293 H 0.83013 1.01541 0.07174
 H294 H 0.86182 0.88444 -0.06517
 C295 C 0.89504 0.46423 0.32163
 C296 C 0.83573 0.47828 0.33772
 C297 C 0.82310 0.54117 0.35241
 C298 C 0.87102 0.58739 0.35624
 C299 C 0.93009 0.57306 0.33941
 C300 C 0.94157 0.51332 0.31530
 C301 C 0.76290 0.55652 0.36332
 C302 C 0.71600 0.50847 0.36422
 C303 C 0.72901 0.44541 0.35147
 C304 C 0.78857 0.43073 0.33695
 C305 C 0.68165 0.39841 0.35306
 C306 C 0.62461 0.41210 0.37646
 C307 C 0.61387 0.47205 0.40061
 C308 C 0.65664 0.52162 0.38161
 H309 H 0.90365 0.41577 0.31047
 H310 H 0.86260 0.63508 0.37012
 H311 H 0.96619 0.61048 0.33998
 H312 H 0.75296 0.60500 0.37338
 H313 H 0.79826 0.38240 0.32580
 H314 H 0.68910 0.35060 0.33888
 H315 H 0.58958 0.37453 0.37519
 H316 H 0.64519 0.57058 0.38155
 C317 C 0.11130 0.48453 0.30555
 C318 C 0.16097 0.49337 0.34068
 C319 C 0.15269 0.50658 0.40181
 C320 C 0.09363 0.51069 0.42628
 C321 C 0.04409 0.50709 0.38889
 C322 C 0.05273 0.49800 0.32624
 C323 C 0.20364 0.51581 0.43665
 C324 C 0.26218 0.51437 0.40956
 C325 C 0.26945 0.50439 0.34759
 C326 C 0.21898 0.49233 0.31381
 C327 C 0.32718 0.50645 0.32013
 C328 C 0.37767 0.51268 0.35470
 C329 C 0.37256 0.51460 0.41818
 C330 C 0.31357 0.52022 0.44385
 H331 H 0.11915 0.46976 0.26003
 H332 H 0.08594 0.51912 0.47358
 H333 H -0.00022 0.51240 0.41000
 H334 H 0.19785 0.52446 0.48415
 H335 H 0.22483 0.48372 0.26624
 H336 H 0.33348 0.50161 0.27203
 H337 H 0.42052 0.51333 0.33004
 H338 H 0.30646 0.52607 0.49087
 C339 C 0.89177 0.47184 0.67482
 C340 C 0.83402 0.47957 0.65028
 C341 C 0.81872 0.54129 0.63092
 C342 C 0.86173 0.59258 0.63178
 C343 C 0.91787 0.58475 0.65652
 C344 C 0.93284 0.52568 0.68366
 C345 C 0.76063 0.55139 0.61065
 C346 C 0.71771 0.50006 0.60663
 C347 C 0.73240 0.43787 0.62348
 C348 C 0.79042 0.42762 0.64620
 C349 C 0.68743 0.38827 0.61880
 C350 C 0.63204 0.40043 0.59182
 C351 C 0.62048 0.46162 0.56580
 C352 C 0.66044 0.51072 0.58444
 H353 H 0.90322 0.42437 0.68956
 H354 H 0.85144 0.63964 0.61443
 H355 H 0.94779 0.62706 0.65550
 H356 H 0.74920 0.59930 0.59679
 H357 H 0.80140 0.37983 0.66072
 H358 H 0.69508 0.34018 0.63522
 H359 H 0.59803 0.36116 0.59164
 H360 H 0.64922 0.55852 0.58047
 C361 C 0.10607 0.53153 0.70220
 C362 C 0.15904 0.51780 0.67074
 C363 C 0.15683 0.46997 0.62847
 C364 C 0.09990 0.44199 0.61390
 C365 C 0.04578 0.46164 0.64123
 C366 C 0.04756 0.50758 0.68579
 C367 C 0.21172 0.45123 0.60226
 C368 C 0.26719 0.48532 0.61304
 C369 C 0.26732 0.53856 0.64901
 C370 C 0.21405 0.55219 0.68077
 C371 C 0.32024 0.57829 0.65083
 C372 C 0.37161 0.56639 0.61521
 C373 C 0.37500 0.51073 0.58158
 C374 C 0.32206 0.46901 0.58567
 H375 H 0.11138 0.56007 0.74118
 H376 H 0.09720 0.40537 0.58110
 H377 H 0.00292 0.43878 0.62919
 H378 H 0.21104 0.41238 0.57163
 H379 H 0.21474 0.59144 0.71099
 H380 H 0.32094 0.62067 0.67704
 H381 H 0.40846 0.60208 0.61534
 H382 H 0.32032 0.42545 0.56496
 C383 C 0.47355 0.71171 0.09594
 C384 C 0.48933 0.67984 0.15010
 C385 C 0.53196 0.63204 0.14866
 C386 C 0.55468 0.61359 0.09290
 C387 C 0.53699 0.64327 0.03943
 C388 C 0.49746 0.69424 0.03931
 C389 C 0.55063 0.60300 0.20288
 C390 C 0.52332 0.61716 0.25868
 C391 C 0.47819 0.66201 0.25924
 C392 C 0.46305 0.69476 0.20582
 C393 C 0.44724 0.67191 0.31319
 C394 C 0.45727 0.63439 0.36453
 C395 C 0.50136 0.58806 0.36745
 C396 C 0.53798 0.58508 0.31346
 H397 H 0.44401 0.75101 0.09856
 H398 H 0.58647 0.57614 0.09050
 H399 H 0.55648 0.62771 -0.00239
 H400 H 0.58455 0.56763 0.20136
 H401 H 0.42913 0.73020 0.20743
 H402 H 0.41164 0.70548 0.31489
 H403 H 0.42585 0.63949 0.40010
 H404 H 0.57713 0.55771 0.31183
 C405 C 0.48792 0.71370 0.86662
 C406 C 0.48734 0.67106 0.81974
 C407 C 0.45781 0.60966 0.82879
 C408 C 0.43328 0.59081 0.88658
 C409 C 0.44236 0.63052 0.93528
 C410 C 0.47287 0.69174 0.92659
 C411 C 0.45525 0.56811 0.78036
 C412 C 0.48771 0.58511 0.72535
 C413 C 0.52340 0.64320 0.72025
 C414 C 0.52044 0.68723 0.76569
 C415 C 0.56215 0.65628 0.66984
 C416 C 0.56175 0.61525 0.62240
 C417 C 0.51895 0.56264 0.61998
 C418 C 0.48481 0.54600 0.67504
 H419 H 0.50804 0.76183 0.85789
 H420 H 0.41017 0.54400 0.89483
 H421 H 0.42615 0.61285 0.97977
 H422 H 0.43000 0.52210 0.78610
 H423 H 0.54626 0.73298 0.76007
 H424 H 0.59220 0.69931 0.66630
 H425 H 0.59131 0.63114 0.58485
 H426 H 0.45188 0.50573 0.67807
 C427 C 0.49616 0.28093 0.10890
 C428 C 0.49733 0.32061 0.15801
 C429 C 0.53774 0.37531 0.15629
 C430 C 0.57130 0.39307 0.10319
 C431 C 0.56554 0.35666 0.05242
 C432 C 0.52963 0.29788 0.05382
 C433 C 0.54332 0.41163 0.20750
 C434 C 0.50520 0.39652 0.25885
 C435 C 0.46026 0.34620 0.25785
 C436 C 0.45780 0.30690 0.20856
 C437 C 0.41788 0.33710 0.30585
 C438 C 0.42271 0.37495 0.35562
 C439 C 0.47311 0.41835 0.36347
 C440 C 0.51143 0.43088 0.31126
 H441 H 0.46812 0.23687 0.11475
 H442 H 0.60117 0.43623 0.10034
 H443 H 0.59105 0.37612 0.01345
 H444 H 0.57671 0.45182 0.20714
 H445 H 0.42448 0.26657 0.20908
 H446 H 0.38022 0.30144 0.30467
 H447 H 0.38663 0.36771 0.38746
 H448 H 0.54857 0.46483 0.31087
 C449 C 0.48458 0.28650 0.89335
 C450 C 0.49283 0.31840 0.83638
 C451 C 0.54750 0.35533 0.82128
 C452 C 0.59385 0.35774 0.86177
 C453 C 0.58609 0.32463 0.91703
 C454 C 0.53007 0.29137 0.93669
 C455 C 0.55634 0.38709 0.76485
 C456 C 0.51175 0.38093 0.72219
 C457 C 0.45741 0.34366 0.73651
 C458 C 0.44785 0.31276 0.79359
 C459 C 0.41275 0.34001 0.69407
 C460 C 0.42267 0.37172 0.63785
 C461 C 0.47839 0.40581 0.61993
 C462 C 0.52065 0.41268 0.66570
 H463 H 0.44385 0.25573 0.90123
 H464 H 0.63728 0.38330 0.84986
 H465 H 0.62614 0.32331 0.94340
 H466 H 0.59851 0.41548 0.75368
 H467 H 0.40565 0.28445 0.80460
 H468 H 0.36937 0.31383 0.70471
 H469 H 0.38448 0.37021 0.61033
 H470 H 0.55831 0.44765 0.66068
 C471 C 0.74195 0.88504 0.49045
 C472 C 0.70257 0.83244 0.47949
 C473 C 0.63962 0.84006 0.47529
 C474 C 0.61659 0.89850 0.48937
 C475 C 0.65596 0.94903 0.50577
 C476 C 0.72023 0.94603 0.50018
 C477 C 0.60042 0.78758 0.46241
 C478 C 0.62262 0.72624 0.46153
 C479 C 0.68461 0.71825 0.47147
 C480 C 0.72498 0.77154 0.47661
 C481 C 0.70468 0.65684 0.47819
 C482 C 0.66254 0.60448 0.48129
 C483 C 0.59929 0.61095 0.47602
 C484 C 0.58276 0.67218 0.45650
 H485 H 0.78947 0.87682 0.49490
 H486 H 0.56782 0.90379 0.49166
 H487 H 0.63506 0.98887 0.52548
 H488 H 0.55207 0.79355 0.45822
 H489 H 0.77304 0.76515 0.48245
 H490 H 0.75254 0.64921 0.48347
 H491 H 0.68085 0.55817 0.48462
 H492 H 0.53734 0.67953 0.44270
 C493 C 0.69137 0.08764 0.48152
 C494 C 0.67048 0.14945 0.48199
 C495 C 0.70538 0.19833 0.50852
 C496 C 0.75888 0.18381 0.53636
 C497 C 0.77669 0.12104 0.53970
 C498 C 0.74222 0.07021 0.51466
 C499 C 0.68632 0.26091 0.50653
 C500 C 0.62962 0.27367 0.48365
 C501 C 0.59335 0.22439 0.45966
 C502 C 0.61496 0.16300 0.45656
 C503 C 0.53662 0.23814 0.43827
 C504 C 0.51436 0.29851 0.44569
 C505 C 0.54667 0.34709 0.47606
 C506 C 0.60815 0.33500 0.48547
 H507 H 0.66926 0.05472 0.45218
 H508 H 0.78691 0.22099 0.55611
 H509 H 0.81911 0.11381 0.56050
 H510 H 0.71413 0.29890 0.52536
 H511 H 0.58757 0.12534 0.43669
 H512 H 0.50873 0.20194 0.41704
 H513 H 0.47082 0.30542 0.42814
 H514 H 0.64141 0.37399 0.48981
 C515 C 0.28710 0.88570 0.53410
 C516 C 0.30972 0.82520 0.52807
 C517 C 0.27795 0.77973 0.49415
 C518 C 0.22510 0.79591 0.46599
 C519 C 0.20615 0.85794 0.46796
 C520 C 0.23913 0.90556 0.49885
 C521 C 0.30038 0.71938 0.48759
 C522 C 0.35717 0.70608 0.50980
 C523 C 0.39024 0.75224 0.54109
 C524 C 0.36523 0.81062 0.55270
 C525 C 0.44923 0.74049 0.55675
 C526 C 0.47511 0.68430 0.54011
 C527 C 0.44313 0.63519 0.51024
 C528 C 0.38261 0.64830 0.49786
 H529 H 0.30852 0.91811 0.56459
 H530 H 0.19930 0.76114 0.44097
 H531 H 0.16476 0.86799 0.44566
 H532 H 0.27540 0.68418 0.46221
 H533 H 0.39070 0.84612 0.57726
 H534 H 0.47669 0.77609 0.57924
 H535 H 0.52156 0.68300 0.54867
 H536 H 0.35605 0.61696 0.47337
 C537 C 0.24556 0.09162 0.50925
 C538 C 0.28671 0.14453 0.51160
 C539 C 0.34955 0.13605 0.51530
 C540 C 0.37058 0.07514 0.50682
 C541 C 0.32928 0.02340 0.49668
 C542 C 0.26554 0.02950 0.50288
 C543 C 0.38989 0.18937 0.52392
 C544 C 0.36883 0.25142 0.51901
 C545 C 0.30762 0.25885 0.50548
 C546 C 0.26593 0.20599 0.50688
 C547 C 0.28991 0.31843 0.48664
 C548 C 0.33299 0.36946 0.47923
 C549 C 0.39324 0.36716 0.49895
 C550 C 0.40848 0.30631 0.52270
 H551 H 0.19729 0.09911 0.51182
 H552 H 0.41904 0.06814 0.50529
 H553 H 0.34819 -0.02070 0.48447
 H554 H 0.43790 0.18299 0.52979
 H555 H 0.21813 0.21253 0.49960
 H556 H 0.24374 0.32467 0.47305
 H557 H 0.31742 0.41031 0.45781
 H558 H 0.45205 0.30062 0.54230
   
