data_POSCAR
  _audit_creation_date              2014-09-24
  _audit_creation_method            'ToBaCCo'
  _symmetry_space_group_name_H-M    'P1'
  _symmetry_Int_Tables_number       1
  _symmetry_cell_setting            triclinic
  loop_
  _symmetry_equiv_pos_as_xyz
 x,y,z
_cell_length_a 22.6488
_cell_length_b 22.6498
_cell_length_c 36.5282
_cell_angle_alpha 80.618300
_cell_angle_beta 99.427900
_cell_angle_gamma 84.690800
loop_
  _atom_site_label
  _atom_site_type_symbol
  _atom_site_fract_x
  _atom_site_fract_y
  _atom_site_fract_z
O1 O 0.02771 0.53694 1.04158
 O2 O 0.04580 0.43927 0.97193
 O3 O 0.04681 0.55474 0.97270
 O4 O 0.02682 0.42273 1.04089
 O5 O -0.07162 0.43821 1.01974
 O6 O -0.05155 0.57045 0.95146
 O7 O -0.05257 0.45476 0.95068
 O8 O -0.07073 0.55261 1.02043
 Cu9 Cu 0.04675 0.48688 1.00874
 Cu10 Cu -0.07153 0.50562 0.98326
 C11 C -0.02454 0.56116 1.04281
 C12 C -0.00038 0.42983 0.94990
 C13 C 0.00096 0.58543 0.95094
 C14 C -0.02575 0.40828 1.04190
 O15 O 0.57969 -0.02750 0.54255
 O16 O 0.44749 -0.04721 0.47431
 O17 O 0.56293 -0.04631 0.47353
 O18 O 0.46541 -0.02834 0.54325
 O19 O 0.44982 0.07011 0.52225
 O20 O 0.54751 0.05208 0.45244
 O21 O 0.43187 0.05118 0.45322
 O22 O 0.56428 0.07093 0.52156
 Cu23 Cu 0.51542 -0.04730 0.51038
 Cu24 Cu 0.49678 0.07099 0.48508
 C25 C 0.59425 0.02501 0.54364
 C26 C 0.41685 -0.00130 0.45261
 C27 C 0.57233 -0.00011 0.45154
 C28 C 0.44120 0.02388 0.54454
 C29 C -0.05258 -0.11749 0.22943
 C30 C -0.10231 -0.11453 0.25309
 C31 C -0.10189 -0.06703 0.27176
 C32 C -0.05197 -0.02689 0.26518
 C33 C -0.06129 -0.05591 0.20337
 C34 C -0.06085 -0.00860 0.22207
 C35 C 0.00648 -0.11831 0.25700
 C36 C 0.00671 -0.07077 0.27563
 H37 H -0.13492 -0.14671 0.25479
 H38 H -0.05191 0.01171 0.28047
 H39 H -0.06365 -0.05036 0.17301
 H40 H 0.04550 -0.15170 0.26015
 C41 C 0.11778 0.05170 0.72977
 C42 C 0.11854 -0.00722 0.75742
 C43 C 0.07089 -0.00733 0.77593
 C44 C 0.02698 0.05132 0.76532
 C45 C 0.05626 0.06027 0.70360
 C46 C 0.00885 0.05994 0.72221
 C47 C 0.11466 0.10161 0.75331
 C48 C 0.06707 0.10132 0.77187
 H49 H 0.15192 -0.04627 0.76064
 H50 H -0.01170 0.05136 0.78053
 H51 H 0.05083 0.06246 0.67327
 H52 H 0.14677 0.13430 0.75497
 C53 C -0.04035 -0.32488 0.11811
 C54 C 0.01438 -0.33359 0.15026
 C55 C 0.01070 -0.29386 0.17432
 C56 C -0.04735 -0.24936 0.16385
 C57 C -0.09890 -0.28890 0.16188
 C58 C -0.09521 -0.32869 0.13778
 C59 C -0.04526 -0.25872 0.09886
 C60 C -0.04894 -0.21907 0.12288
 C61 C -0.03587 -0.36690 0.09185
 C62 C -0.03120 -0.40026 0.06967
 C63 C -0.05074 -0.20559 0.18910
 C64 C -0.05228 -0.16718 0.20830
 H65 H 0.05260 -0.36801 0.15386
 H66 H 0.04574 -0.29424 0.19854
 H67 H -0.13498 -0.28599 0.17798
 H68 H -0.12815 -0.35988 0.13323
 H69 H -0.04586 -0.24425 0.06895
 H70 H -0.05270 -0.17061 0.11352
 C71 C -0.04393 0.25652 0.11550
 C72 C -0.04567 0.20160 0.09591
 C73 C -0.05024 0.14956 0.11923
 C74 C -0.05265 0.15739 0.15993
 C75 C -0.10559 0.20666 0.15654
 C76 C -0.10100 0.25887 0.13314
 C77 C 0.00863 0.23865 0.14911
 C78 C 0.00404 0.18650 0.17248
 C79 C -0.03853 0.31198 0.08993
 C80 C -0.03317 0.35645 0.06823
 C81 C -0.05704 0.10043 0.18434
 C82 C -0.05946 0.05169 0.20262
 H83 H -0.04354 0.20341 0.06627
 H84 H -0.05203 0.10680 0.10954
 H85 H -0.14323 0.20109 0.17124
 H86 H -0.13473 0.29806 0.12778
 H87 H 0.04606 0.26474 0.15415
 H88 H 0.03752 0.16790 0.19755
 C89 C 0.32651 0.03949 0.61940
 C90 C 0.32993 0.09437 0.63909
 C91 C 0.28982 0.09801 0.66297
 C92 C 0.25035 0.04640 0.66473
 C93 C 0.29495 -0.01158 0.67537
 C94 C 0.33501 -0.01521 0.65152
 C95 C 0.26048 0.04428 0.59987
 C96 C 0.22049 0.04791 0.62367
 C97 C 0.36888 0.03508 0.59336
 C98 C 0.40245 0.03047 0.57131
 C99 C 0.20624 0.04975 0.68975
 C100 C 0.16763 0.05131 0.70878
 H101 H 0.36112 0.12736 0.63471
 H102 H 0.28661 0.13410 0.67906
 H103 H 0.29515 -0.04660 0.69954
 H104 H 0.36954 -0.05337 0.65526
 H105 H 0.24634 0.04484 0.56992
 H106 H 0.17208 0.05158 0.61410
 C107 C -0.25647 0.04276 0.61569
 C108 C -0.23854 -0.00969 0.64934
 C109 C -0.18631 -0.00505 0.67266
 C110 C -0.15720 0.05158 0.66003
 C111 C -0.20643 0.10456 0.65661
 C112 C -0.25872 0.09992 0.63327
 C113 C -0.20161 0.04437 0.59606
 C114 C -0.14950 0.04900 0.61933
 C115 C -0.31201 0.03732 0.59017
 C116 C -0.35655 0.03193 0.56850
 C117 C -0.10017 0.05603 0.68439
 C118 C -0.05142 0.05850 0.70269
 H119 H -0.26463 -0.04708 0.65444
 H120 H -0.16765 -0.03845 0.69775
 H121 H -0.20079 0.14225 0.67127
 H122 H -0.29790 0.13366 0.62790
 H123 H -0.20351 0.04212 0.56643
 H124 H -0.10676 0.05071 0.60961
 C125 C 0.02426 -0.26186 0.88383
 C126 C -0.02620 -0.23939 0.84944
 C127 C -0.01741 -0.18705 0.82781
 C128 C 0.04097 -0.16232 0.84269
 C129 C 0.09133 -0.21422 0.84600
 C130 C 0.08255 -0.26652 0.86762
 C131 C 0.02830 -0.20883 0.90514
 C132 C 0.03708 -0.15652 0.88352
 C133 C 0.01512 -0.31811 0.90737
 C134 C 0.00820 -0.36385 0.92743
 C135 C 0.05079 -0.10618 0.81935
 C136 C 0.05959 -0.06069 0.79986
 H137 H -0.06536 -0.26252 0.84269
 H138 H -0.04906 -0.16534 0.80252
 H139 H 0.13046 -0.21024 0.83253
 H140 H 0.11414 -0.30732 0.87266
 H141 H 0.02453 -0.21207 0.93464
 H142 H 0.04083 -0.11499 0.89447
 C143 C 0.02147 0.30783 0.87993
 C144 C 0.08077 0.30866 0.86478
 C145 C 0.08905 0.26654 0.84279
 C146 C 0.03724 0.22765 0.83809
 C147 C -0.01974 0.27285 0.82278
 C148 C -0.02803 0.31502 0.84479
 C149 C 0.02284 0.24275 0.90042
 C150 C 0.03113 0.20062 0.87844
 C151 C 0.01290 0.35286 0.90392
 C152 C 0.00652 0.38876 0.92441
 C153 C 0.04663 0.18223 0.81449
 C154 C 0.05537 0.14513 0.79514
 H155 H 0.11337 0.33966 0.87076
 H156 H 0.12877 0.26146 0.82996
 H157 H -0.05082 0.27182 0.79696
 H158 H -0.06620 0.35011 0.83781
 H159 H 0.01770 0.23080 0.92965
 H160 H 0.03308 0.15263 0.88883
 C161 C -0.30661 -0.02190 0.38101
 C162 C -0.24134 -0.02312 0.40118
 C163 C -0.19960 -0.03137 0.37894
 C164 C -0.22717 -0.03760 0.33869
 C165 C -0.27256 0.01927 0.32356
 C166 C -0.31434 0.02753 0.34582
 C167 C -0.30763 -0.08125 0.36590
 C168 C -0.26590 -0.08950 0.34366
 C169 C -0.35123 -0.01336 0.40526
 C170 C -0.38685 -0.00700 0.42592
 C171 C -0.18218 -0.04693 0.31482
 C172 C -0.14539 -0.05556 0.29525
 H173 H -0.22898 -0.01790 0.43037
 H174 H -0.15153 -0.03321 0.38908
 H175 H -0.27194 0.05031 0.29767
 H176 H -0.34950 0.06563 0.33899
 H177 H -0.33847 -0.11391 0.37209
 H178 H -0.26099 -0.12924 0.33082
 C179 C 0.26125 -0.02476 0.38396
 C180 C 0.26591 -0.08294 0.36763
 C181 C 0.21362 -0.09161 0.34591
 C182 C 0.16173 -0.04127 0.34264
 C183 C 0.18652 0.01713 0.32791
 C184 C 0.23885 0.02581 0.34964
 C185 C 0.20816 -0.02886 0.40520
 C186 C 0.15586 -0.03753 0.38348
 C187 C 0.31750 -0.01571 0.40759
 C188 C 0.36326 -0.00885 0.42767
 C189 C 0.10560 -0.05096 0.31920
 C190 C 0.06010 -0.05963 0.29963
 H191 H 0.30670 -0.11454 0.37265
 H192 H 0.20964 -0.13066 0.33235
 H193 H 0.16486 0.04887 0.30266
 H194 H 0.26202 0.06497 0.34300
 H195 H 0.21137 -0.02522 0.43471
 H196 H 0.11429 -0.04132 0.39438
   
