data_POSCAR
  _audit_creation_date              2014-09-24
  _audit_creation_method            'ToBaCCo'
  _symmetry_space_group_name_H-M    'P1'
  _symmetry_Int_Tables_number       1
  _symmetry_cell_setting            triclinic
  loop_
  _symmetry_equiv_pos_as_xyz
 x,y,z
_cell_length_a 32.3162
_cell_length_b 33.3607
_cell_length_c 31.6372
_cell_angle_alpha 90.355200
_cell_angle_beta 90.514700
_cell_angle_gamma 90.921000
loop_
  _atom_site_label
  _atom_site_type_symbol
  _atom_site_fract_x
  _atom_site_fract_y
  _atom_site_fract_z
N1 N 0.14602 0.19915 0.27177
 N2 N 0.17245 0.16972 0.26893
 C3 C 0.16015 0.13926 0.29345
 C4 C 0.12432 0.15001 0.31375
 C5 C 0.11627 0.18862 0.29972
 H6 H 0.17625 0.11118 0.29625
 H7 H 0.08995 0.20677 0.30760
 Cu8 Cu 0.22084 0.17240 0.23339
 Cu9 Cu 0.15244 0.24615 0.23452
 Cu10 Cu 0.20184 0.21704 0.14183
 N11 N 0.25719 0.16547 0.18598
 N12 N 0.24783 0.18018 0.14873
 C13 C 0.27401 0.16532 0.11985
 C14 C 0.30175 0.14083 0.14068
 C15 C 0.29038 0.14199 0.18268
 H16 H 0.27289 0.17181 0.08640
 H17 H 0.30350 0.12497 0.20838
 N18 N 0.16792 0.26577 0.14633
 N19 N 0.15122 0.27831 0.18197
 C20 C 0.13353 0.31409 0.17514
 C21 C 0.13914 0.32421 0.13314
 C22 C 0.16077 0.29285 0.11586
 H23 H 0.11682 0.33093 0.19860
 H24 H 0.17110 0.29030 0.08355
 H25 H 0.16501 0.20309 0.19314
 H26 H 0.20964 0.23811 0.20303
 N27 N -0.18673 0.77528 0.28477
 N28 N -0.21549 0.80261 0.28687
 C29 C -0.20647 0.82811 0.31880
 C30 C -0.16960 0.81672 0.33721
 C31 C -0.15792 0.78289 0.31502
 H32 H -0.22334 0.85516 0.32543
 H33 H -0.12940 0.76669 0.31873
 Cu34 Cu -0.25692 0.80825 0.24243
 Cu35 Cu -0.18754 0.73564 0.23903
 Cu36 Cu -0.22246 0.77971 0.14697
 N37 N -0.28280 0.82639 0.19080
 N38 N -0.26739 0.81806 0.15347
 C39 C -0.28728 0.83979 0.12397
 C40 C -0.31711 0.86225 0.14414
 C41 C -0.31364 0.85260 0.18643
 H42 H -0.28053 0.83930 0.09054
 H43 H -0.33056 0.86548 0.21241
 N44 N -0.18853 0.73048 0.14768
 N45 N -0.17773 0.71248 0.18309
 C46 C -0.15703 0.67897 0.17388
 C47 C -0.15401 0.67591 0.13051
 C48 C -0.17410 0.70909 0.11477
 H49 H -0.14336 0.65938 0.19708
 H50 H -0.17777 0.71704 0.08187
 H51 H -0.19533 0.78645 0.20559
 H52 H -0.23964 0.74999 0.20016
 N53 N -0.15838 0.19832 -0.28495
 N54 N -0.18978 0.17319 -0.29030
 C55 C -0.18174 0.14866 -0.32299
 C56 C -0.14301 0.15844 -0.33834
 C57 C -0.12891 0.19007 -0.31349
 H58 H -0.20110 0.12355 -0.33298
 H59 H -0.09898 0.20493 -0.31505
 Cu60 Cu -0.23406 0.16950 -0.24907
 Cu61 Cu -0.15720 0.23765 -0.23935
 Cu62 Cu -0.23994 0.23769 -0.17046
 N63 N -0.27782 0.16674 -0.20729
 N64 N -0.27913 0.19280 -0.17597
 C65 C -0.30923 0.18169 -0.14916
 C66 C -0.32774 0.14675 -0.16446
 C67 C -0.30730 0.13825 -0.20159
 H68 H -0.31618 0.19708 -0.11994
 H69 H -0.31210 0.11214 -0.22158
 N70 N -0.19684 0.28030 -0.17055
 N71 N -0.16606 0.28065 -0.19773
 C72 C -0.14212 0.31334 -0.19053
 C73 C -0.15804 0.33418 -0.15674
 C74 C -0.19263 0.31241 -0.14460
 H75 H -0.11417 0.32075 -0.20752
 H76 H -0.21276 0.31917 -0.11847
 H77 H -0.19309 0.20566 -0.19568
 H78 H -0.22095 0.23958 -0.23283
 N79 N 0.17420 0.79981 -0.29719
 N80 N 0.20449 0.82636 -0.30078
 C81 C 0.19479 0.85239 -0.33158
 C82 C 0.15620 0.84183 -0.34784
 C83 C 0.14401 0.80836 -0.32524
 H84 H 0.21330 0.87843 -0.33989
 H85 H 0.11473 0.79236 -0.32797
 Cu86 Cu 0.25152 0.82736 -0.26173
 Cu87 Cu 0.17491 0.75787 -0.25439
 Cu88 Cu 0.25032 0.76711 -0.17673
 N89 N 0.28911 0.83653 -0.21394
 N90 N 0.28850 0.81247 -0.18118
 C91 C 0.31604 0.82580 -0.15212
 C92 C 0.33485 0.86029 -0.16716
 C93 C 0.31715 0.86630 -0.20667
 H94 H 0.32113 0.81213 -0.12163
 H95 H 0.32336 0.89091 -0.22792
 N96 N 0.20910 0.72307 -0.17770
 N97 N 0.18107 0.71884 -0.20808
 C98 C 0.15672 0.68685 -0.19940
 C99 C 0.16972 0.67061 -0.16151
 C100 C 0.20293 0.69429 -0.14857
 H101 H 0.13008 0.67728 -0.21800
 H102 H 0.22039 0.69143 -0.11947
 H103 H 0.20504 0.79543 -0.21181
 H104 H 0.23750 0.75825 -0.24049
 N105 N 0.20308 1.16436 0.72615
 N106 N 0.17410 1.19145 0.72298
 C107 C 0.14544 1.17889 0.69452
 C108 C 0.15667 1.14157 0.67984
 C109 C 0.19335 1.13315 0.70054
 H110 H 0.11706 1.19436 0.68742
 H111 H 0.21091 1.10591 0.69815
 Cu112 Cu 0.17266 1.23723 0.76141
 Cu113 Cu 0.24929 1.17139 0.76593
 Cu114 Cu 0.21391 1.21632 0.85682
 N115 N 0.16196 1.27013 0.81073
 N116 N 0.17587 1.26022 0.84839
 C117 C 0.15997 1.28502 0.87750
 C118 C 0.13556 1.31234 0.85674
 C119 C 0.13759 1.30225 0.81439
 H120 H 0.16599 1.28348 0.91113
 H121 H 0.12116 1.31608 0.78851
 N122 N 0.26443 1.18382 0.85515
 N123 N 0.27960 1.16925 0.81974
 C124 C 0.31553 1.15104 0.82821
 C125 C 0.32296 1.15386 0.87120
 C126 C 0.28993 1.17456 0.88739
 H127 H 0.33368 1.13506 0.80521
 H128 H 0.28486 1.18222 0.92019
 H129 H 0.20084 1.18282 0.80349
 H130 H 0.23768 1.22631 0.79844
 N131 N 0.78734 0.83497 0.72626
 N132 N 0.81980 0.81181 0.72883
 C133 C 0.84928 0.82522 0.70263
 C134 C 0.83435 0.85821 0.68189
 C135 C 0.79474 0.86353 0.69714
 H136 H 0.87961 0.81231 0.69946
 H137 H 0.77404 0.88770 0.68966
 Cu138 Cu 0.82181 0.76721 0.76730
 Cu139 Cu 0.74159 0.82856 0.76624
 Cu140 Cu 0.77975 0.78915 0.86022
 N141 N 0.83242 0.73507 0.81625
 N142 N 0.81840 0.74520 0.85363
 C143 C 0.83552 0.72139 0.88300
 C144 C 0.86066 0.69454 0.86235
 C145 C 0.85781 0.70388 0.82009
 H146 H 0.83018 0.72351 0.91664
 H147 H 0.87477 0.69053 0.79441
 N148 N 0.72878 0.82106 0.85665
 N149 N 0.71273 0.83357 0.82059
 C150 C 0.67735 0.85289 0.82855
 C151 C 0.67123 0.85292 0.87174
 C152 C 0.70438 0.83265 0.88859
 H153 H 0.65888 0.86793 0.80498
 H154 H 0.71051 0.82726 0.92172
 H155 H 0.78955 0.82177 0.80591
 H156 H 0.75544 0.77632 0.80168
 N157 N 0.22427 0.82028 1.31034
 N158 N 0.19387 0.79361 1.31053
 C159 C 0.16442 0.80601 1.33717
 C160 C 0.17701 0.84244 1.35452
 C161 C 0.21526 0.85055 1.33697
 H162 H 0.13511 0.79065 1.34196
 H163 H 0.23422 0.87726 1.34167
 Cu164 Cu 0.19343 0.74712 1.27295
 Cu165 Cu 0.27154 0.81461 1.27309
 Cu166 Cu 0.25263 0.75256 1.18646
 N167 N 0.18341 0.71189 1.22461
 N168 N 0.20633 0.71496 1.19063
 C169 C 0.19154 0.68962 1.16079
 C170 C 0.15748 0.66960 1.17677
 C171 C 0.15310 0.68432 1.21749
 H172 H 0.20403 0.68660 1.12935
 H173 H 0.12891 0.67667 1.23957
 N174 N 0.29829 0.79222 1.18869
 N175 N 0.30633 0.81484 1.22226
 C176 C 0.33764 0.84038 1.21330
 C177 C 0.34959 0.83365 1.17206
 C178 C 0.32417 0.80289 1.15743
 H179 H 0.34890 0.86401 1.23417
 H180 H 0.32325 0.79071 1.12567
 H181 H 0.23007 0.79457 1.22853
 H182 H 0.26559 0.75594 1.24974
 N183 N 0.80785 1.16736 1.26452
 N184 N 0.84433 1.18182 1.25375
 C185 C 0.87407 1.16087 1.27336
 C186 C 0.85495 1.13227 1.29818
 C187 C 0.81300 1.13743 1.29221
 H188 H 0.90696 1.16684 1.27094
 H189 H 0.78807 1.12045 1.30655
 Cu190 Cu 0.84892 1.22867 1.21800
 Cu191 Cu 0.75666 1.18789 1.24090
 Cu192 Cu 0.76944 1.24868 1.15364
 N193 N 0.84598 1.27935 1.18843
 N194 N 0.81489 1.28684 1.16272
 C195 C 0.82220 1.32177 1.14306
 C196 C 0.85978 1.33704 1.15742
 C197 C 0.87408 1.30948 1.18627
 H198 H 0.80259 1.33410 1.11865
 H199 H 0.90369 1.31014 1.20249
 N200 N 0.71822 1.21822 1.16410
 N201 N 0.71250 1.19694 1.19865
 C202 C 0.67657 1.17626 1.19483
 C203 C 0.65925 1.18449 1.15578
 C204 C 0.68630 1.21148 1.13724
 H205 H 0.66628 1.15338 1.21661
 H206 H 0.68470 1.22261 1.10524
 H207 H 0.78788 1.19672 1.18607
 H208 H 0.77489 1.24303 1.21627
 O209 O 0.52493 0.96016 0.94392
 O210 O 0.45858 0.97188 1.09388
 O211 O 0.58364 0.99849 1.05016
 O212 O 0.44998 0.95011 0.96451
 O213 O 0.53597 0.96916 1.08868
 O214 O 0.45934 0.98967 0.91490
 O215 O 0.44349 0.94113 1.03652
 O216 O 0.57931 0.98276 0.97540
 C217 C 0.56198 0.95635 0.95308
 C218 C 0.44409 0.94186 1.07550
 C219 C 0.57262 0.97194 1.07645
 C220 C 0.44278 0.95820 0.92709
 O221 O 0.47659 1.05751 0.94711
 O222 O 0.53907 1.04660 1.09156
 O223 O 0.55127 1.05817 0.95934
 O224 O 0.41392 1.01745 1.04686
 O225 O 0.46067 1.04812 1.08719
 O226 O 0.53222 1.02546 0.90306
 O227 O 0.42106 1.02802 0.97131
 O228 O 0.55342 1.07327 1.03227
 Co229 Co 0.50217 1.00921 0.94832
 Co230 Co 0.49870 1.00866 1.08274
 Co231 Co 0.56122 1.02623 1.00493
 Co232 Co 0.43711 0.98590 1.00510
 O233 O 0.49814 1.00608 1.01289
 C234 C 0.43837 1.05764 0.95349
 C235 C 0.55337 1.07534 1.07122
 C236 C 0.55763 1.05116 0.92060
 C237 C 0.42412 1.04429 1.07377
 O238 O 0.05761 0.48419 0.05569
 O239 O 0.04326 0.54521 -0.08847
 O240 O 0.01224 0.42505 -0.04453
 O241 O 0.06016 0.55753 0.04429
 O242 O 0.04405 0.46953 -0.08443
 O243 O 0.02708 0.53901 0.10051
 O244 O 0.07370 0.55968 -0.03008
 O245 O 0.02446 0.43160 0.03095
 C246 C 0.05583 0.44701 0.04934
 C247 C 0.07332 0.56046 -0.06918
 C248 C 0.03953 0.43423 -0.07159
 C249 C 0.05370 0.56327 0.08337
 O250 O -0.04133 0.53445 0.06030
 O251 O -0.03467 0.46817 -0.09075
 O252 O -0.05457 0.46268 0.03831
 O253 O -0.00356 0.58948 -0.04558
 O254 O -0.03616 0.54365 -0.08431
 O255 O -0.01247 0.46988 0.08781
 O256 O -0.01727 0.58640 0.02941
 O257 O -0.06547 0.45646 -0.03329
 Co258 Co 0.00851 0.51068 0.05506
 Co259 Co 0.00404 0.50679 -0.07937
 Co260 Co -0.01893 0.44861 -0.00243
 Co261 Co 0.02618 0.56769 -0.00108
 O262 O 0.00368 0.50686 -0.00950
 C263 C -0.04463 0.57038 0.05146
 C264 C -0.06480 0.45366 -0.07204
 C265 C -0.04566 0.45498 0.07537
 C266 C -0.03191 0.57920 -0.07166
 O267 O 1.04437 0.05277 0.46259
 O268 O 0.91680 0.02989 0.53189
 O269 O 0.95589 0.00177 0.40355
 O270 O 1.03140 0.01157 0.59780
 O271 O 0.91592 0.03012 0.45125
 O272 O 1.04882 0.04523 0.54074
 O273 O 0.97740 0.04580 0.55679
 O274 O 1.03019 0.01263 0.41003
 C275 C 1.04154 0.04676 0.42368
 C276 C 0.93961 0.05249 0.55378
 C277 C 0.92866 0.02707 0.41401
 C278 C 1.05568 0.03847 0.57994
 O279 O 1.07587 -0.03000 0.52941
 O280 O 0.90957 -0.04589 0.45101
 O281 O 1.03562 -0.06378 0.44518
 O282 O 0.95571 -0.02553 0.58079
 O283 O 0.91612 -0.04861 0.52971
 O284 O 1.08034 -0.01822 0.45290
 O285 O 1.02177 -0.05478 0.55761
 O286 O 0.96527 -0.07474 0.43296
 Co287 Co 1.05567 0.01031 0.49596
 Co288 Co 0.92199 -0.00852 0.49130
 Co289 Co 0.99679 -0.02930 0.42810
 Co290 Co 1.00037 -0.00474 0.55296
 O291 O 0.99016 -0.00975 0.49009
 C292 C 1.05921 -0.05727 0.55060
 C293 C 0.92710 -0.07483 0.43453
 C294 C 1.07206 -0.05353 0.44297
 C295 C 0.92612 -0.04742 0.56797
 N296 N 1.11213 0.08597 0.34385
 C297 C 1.10190 0.12515 0.34101
 N298 N 1.07048 0.13885 0.36530
 N299 N 1.05073 0.11422 0.39191
 C300 C 1.06110 0.07491 0.39423
 N301 N 1.09196 0.06133 0.36959
 N302 N 0.83757 -0.12772 0.38747
 C303 C 0.85529 -0.15876 0.36697
 N304 N 0.89682 -0.16367 0.37088
 N305 N 0.91985 -0.13785 0.39376
 C306 C 0.90206 -0.10639 0.41366
 N307 N 0.86048 -0.10212 0.41047
 N308 N 0.92172 0.13458 0.62991
 C309 C 0.87963 0.13529 0.63006
 N310 N 0.85821 0.11087 0.60311
 N311 N 0.87792 0.08613 0.57746
 C312 C 0.91984 0.08453 0.57786
 N313 N 0.94155 0.10943 0.60437
 N314 N 1.08965 -0.14099 0.61888
 C315 C 1.13130 -0.13521 0.62179
 N316 N 1.14921 -0.10576 0.59849
 N317 N 1.12629 -0.08247 0.57387
 C318 C 1.08455 -0.08759 0.57167
 N319 N 1.06665 -0.11743 0.59452
 N320 N 0.36043 1.09917 1.14920
 C321 C 0.33298 1.11772 1.12344
 N322 N 0.33595 1.11232 1.08097
 N323 N 0.36491 1.08871 1.06500
 C324 C 0.39240 1.07040 1.09089
 N325 N 0.38988 1.07629 1.13320
 N326 N 0.37891 0.91900 0.83822
 C327 C 0.36354 0.88437 0.85483
 N328 N 0.37564 0.87388 0.89437
 N329 N 0.40155 0.89718 0.91672
 C330 C 0.41661 0.93189 0.90042
 N331 N 0.40499 0.94240 0.86066
 N332 N 0.65939 0.90212 1.08596
 C333 C 0.65589 0.89001 1.12675
 N334 N 0.62557 0.90578 1.15086
 N335 N 0.59936 0.93211 1.13477
 C336 C 0.60302 0.94446 1.09422
 N337 N 0.63356 0.92909 1.07005
 N338 N 0.62888 1.13384 0.89456
 C339 C 0.64203 1.12351 0.85544
 N340 N 0.62629 1.08950 0.83705
 N341 N 0.59863 1.06662 0.85720
 C342 C 0.58603 1.07684 0.89658
 N343 N 0.60161 1.11084 0.91479
 N344 N 0.11264 0.39310 0.13111
 C345 C 0.12263 0.35890 0.11032
 N346 N 0.11472 0.35615 0.06819
 N347 N 0.09599 0.38577 0.04792
 C348 C 0.08562 0.41983 0.06868
 N349 N 0.09450 0.42304 0.11064
 N350 N -0.14694 0.37879 -0.09514
 C351 C -0.13853 0.36921 -0.13595
 N352 N -0.10851 0.39013 -0.15628
 N353 N -0.08691 0.41888 -0.13635
 C354 C -0.09437 0.42779 -0.09526
 N355 N -0.12504 0.40745 -0.07503
 N356 N 0.11928 0.61545 -0.15729
 C357 C 0.14875 0.63848 -0.13786
 N358 N 0.15586 0.63340 -0.09580
 N359 N 0.13338 0.60702 -0.07377
 C360 C 0.10335 0.58449 -0.09324
 N361 N 0.09710 0.58899 -0.13543
 N362 N -0.11322 0.65542 0.06921
 C363 C -0.12993 0.64621 0.10719
 N364 N -0.12086 0.61047 0.12511
 N365 N -0.09548 0.58511 0.10608
 C366 C -0.07794 0.59477 0.06862
 N367 N -0.08739 0.63030 0.05046
 N368 N 1.12895 0.07478 0.66160
 C369 C 1.13164 0.11452 0.65289
 N370 N 1.10933 0.12913 0.62004
 N371 N 1.08552 0.10474 0.59640
 C372 C 1.08244 0.06509 0.60543
 N373 N 1.10449 0.05052 0.63848
 N374 N 0.83893 -0.09909 0.61920
 C375 C 0.85775 -0.11627 0.65284
 N376 N 0.89911 -0.11050 0.65865
 N377 N 0.92093 -0.08806 0.63194
 C378 C 0.90223 -0.07132 0.59799
 N379 N 0.86090 -0.07726 0.59203
 N380 N 1.11380 -0.14358 0.39334
 C381 C 1.15195 -0.13115 0.38110
 N382 N 1.16498 -0.09333 0.39141
 N383 N 1.14032 -0.06865 0.41257
 C384 C 1.10184 -0.08106 0.42416
 N385 N 1.08925 -0.11902 0.41438
 N386 N 0.85283 0.08980 0.36049
 C387 C 0.87441 0.10399 0.32711
 N388 N 0.91401 0.09201 0.32156
 N389 N 0.93138 0.06661 0.34860
 C390 C 0.90980 0.05286 0.38231
 N391 N 0.87034 0.06498 0.38778
 N392 N 0.10204 0.37750 -0.14673
 C393 C 0.11123 0.34427 -0.12425
 N394 N 0.09707 0.34085 -0.08414
 N395 N 0.07409 0.36951 -0.06725
 C396 C 0.06512 0.40286 -0.08967
 N397 N 0.07965 0.40645 -0.12961
 N398 N -0.07943 0.38223 0.15504
 C399 C -0.11735 0.37115 0.13968
 N400 N -0.13241 0.38985 0.10503
 N401 N -0.11001 0.41790 0.08573
 C402 C -0.07187 0.42854 0.10056
 N403 N -0.05705 0.41053 0.13581
 N404 N -0.10277 0.63143 -0.14266
 C405 C -0.11260 0.66416 -0.11943
 N406 N -0.09560 0.66909 -0.08032
 N407 N -0.06939 0.64219 -0.06511
 C408 C -0.05975 0.60935 -0.08837
 N409 N -0.07715 0.60426 -0.12721
 N410 N 0.09834 0.62196 0.17231
 C411 C 0.13055 0.64115 0.15338
 N412 N 0.13734 0.63427 0.11173
 N413 N 0.11284 0.60930 0.08969
 C414 C 0.08069 0.59010 0.10848
 N415 N 0.07385 0.59677 0.15023
 N416 N 0.34843 1.12046 0.93468
 C417 C 0.35572 1.13392 0.89502
 N418 N 0.39223 1.12526 0.87643
 N419 N 0.42017 1.10325 0.89652
 C420 C 0.41236 1.08883 0.93570
 N421 N 0.37605 1.09789 0.95445
 N422 N 0.38021 0.85411 1.10449
 C423 C 0.37785 0.85873 1.14711
 N424 N 0.39944 0.88917 1.16598
 N425 N 0.42193 0.91455 1.14303
 C426 C 0.42369 0.91048 1.10038
 N427 N 0.40268 0.87960 1.08147
 N428 N 0.60512 1.13243 1.15623
 C429 C 0.62654 1.16072 1.13447
 N430 N 0.62104 1.16293 1.09194
 N431 N 0.59590 1.13700 1.07176
 C432 C 0.57530 1.10805 1.09348
 N433 N 0.57994 1.10661 1.13611
 N434 N 0.64834 0.88882 0.93482
 C435 C 0.63998 0.87527 0.89507
 N436 N 0.60393 0.88574 0.87609
 N437 N 0.57752 0.90953 0.89590
 C438 C 0.58643 0.92396 0.93521
 N439 N 0.62225 0.91309 0.95435
   
