data_POSCAR
  _audit_creation_date              2014-09-24
  _audit_creation_method            'ToBaCCo'
  _symmetry_space_group_name_H-M    'P1'
  _symmetry_Int_Tables_number       1
  _symmetry_cell_setting            triclinic
  loop_
  _symmetry_equiv_pos_as_xyz
 x,y,z
_cell_length_a 16.7175
_cell_length_b 16.7175
_cell_length_c 29.6723
_cell_angle_alpha 89.851600
_cell_angle_beta 90.147400
_cell_angle_gamma 90.000600
loop_
  _atom_site_label
  _atom_site_type_symbol
  _atom_site_fract_x
  _atom_site_fract_y
  _atom_site_fract_z
O1 O -0.06617 0.57732 0.95664
 O2 O -0.06741 0.42112 1.04441
 O3 O -0.06598 0.57719 1.04428
 O4 O -0.06749 0.42138 0.95674
 O5 O 0.06480 0.42023 0.95687
 O6 O 0.06631 0.57602 1.04441
 O7 O 0.06486 0.41996 1.04453
 O8 O 0.06612 0.57615 0.95677
 Cu9 Cu -0.08011 0.49936 1.00052
 Cu10 Cu 0.07887 0.49796 1.00068
 C11 C 0.00018 0.60328 0.94200
 C12 C -0.00149 0.39392 1.05916
 C13 C 0.00042 0.60316 1.05897
 C14 C -0.00160 0.39435 0.94213
 O15 O 0.57889 -0.06638 0.54453
 O16 O 0.42271 -0.06488 0.45677
 O17 O 0.57863 -0.06620 0.45687
 O18 O 0.42283 -0.06495 0.54441
 O19 O 0.42400 0.06733 0.54428
 O20 O 0.57980 0.06609 0.45674
 O21 O 0.42387 0.06741 0.45664
 O22 O 0.58006 0.06589 0.54441
 Cu23 Cu 0.50066 -0.07895 0.50068
 Cu24 Cu 0.50206 0.08003 0.50052
 C25 C 0.60610 -0.00051 0.55915
 C26 C 0.39674 0.00152 0.44200
 C27 C 0.60568 -0.00026 0.44213
 C28 C 0.39686 0.00140 0.55897
 Si29 Si 0.00024 0.00054 0.24965
 Si30 Si -0.00052 -0.00021 0.74965
 C31 C 0.00226 -0.21682 0.15145
 C32 C 0.06406 -0.16033 0.15054
 C33 C 0.06351 -0.09607 0.18056
 C34 C 0.00104 -0.33464 0.09216
 C35 C -0.06046 -0.14464 0.21273
 C36 C -0.05991 -0.20893 0.18267
 C37 C 0.00159 -0.28141 0.11949
 C38 C 0.00146 -0.08801 0.21194
 H39 H 0.11220 -0.16552 0.12634
 H40 H 0.11123 -0.05232 0.17910
 H41 H -0.10981 -0.13890 0.23597
 H42 H -0.10837 -0.25195 0.18342
 C43 C -0.00274 0.21747 0.15051
 C44 C 0.05977 0.20968 0.18172
 C45 C 0.06059 0.14553 0.21207
 C46 C -0.00195 0.33504 0.09072
 C47 C -0.06378 0.09693 0.18020
 C48 C -0.06460 0.16104 0.14989
 C49 C -0.00233 0.28190 0.11826
 C50 C -0.00138 0.08895 0.21157
 H51 H 0.10828 0.25265 0.18226
 H52 H 0.11020 0.13986 0.23530
 H53 H -0.11155 0.05321 0.17897
 H54 H -0.11300 0.16616 0.12570
 C55 C 0.21689 0.00273 0.65148
 C56 C 0.20895 -0.05976 0.68267
 C57 C 0.14465 -0.06058 0.71273
 C58 C 0.33467 0.00190 0.59217
 C59 C 0.09618 0.06376 0.68061
 C60 C 0.16045 0.06458 0.65059
 C61 C 0.28146 0.00230 0.61951
 C62 C 0.08806 0.00139 0.71196
 H63 H 0.25192 -0.10827 0.68341
 H64 H 0.13887 -0.11017 0.73594
 H65 H 0.05247 0.11153 0.67918
 H66 H 0.16568 0.11297 0.62642
 C67 C -0.21740 -0.00227 0.65048
 C68 C -0.16092 -0.06408 0.64984
 C69 C -0.09681 -0.06352 0.68015
 C70 C -0.33501 -0.00109 0.59071
 C71 C -0.14552 0.06048 0.71207
 C72 C -0.20966 0.05992 0.68172
 C73 C -0.28186 -0.00162 0.61825
 C74 C -0.08890 -0.00145 0.71155
 H75 H -0.16601 -0.11223 0.62563
 H76 H -0.05306 -0.11125 0.67890
 H77 H -0.13989 0.10984 0.73533
 H78 H -0.25268 0.10838 0.68227
 C79 C 0.00177 -0.21721 0.84869
 C80 C 0.06358 -0.16074 0.84949
 C81 C 0.06298 -0.09665 0.81917
 C82 C 0.00068 -0.33464 0.90856
 C83 C -0.06104 -0.14540 0.78692
 C84 C -0.06044 -0.20953 0.81728
 C85 C 0.00115 -0.28158 0.88098
 C86 C 0.00087 -0.08875 0.78761
 H87 H 0.11175 -0.16579 0.87382
 H88 H 0.11068 -0.05288 0.82055
 H89 H -0.11043 -0.13977 0.76354
 H90 H -0.10890 -0.25254 0.81662
 C91 C -0.00319 0.21573 0.84879
 C92 C -0.06505 0.15931 0.84927
 C93 C -0.06436 0.09556 0.81891
 C94 C -0.00217 0.33253 0.90871
 C95 C 0.05986 0.14455 0.78725
 C96 C 0.05917 0.20834 0.81765
 C97 C -0.00264 0.27975 0.88112
 C98 C -0.00209 0.08795 0.78763
 H99 H -0.11334 0.16414 0.87339
 H100 H -0.11211 0.05181 0.82005
 H101 H 0.10937 0.13913 0.76410
 H102 H 0.10767 0.25132 0.81723
 C103 C -0.21566 -0.00181 0.34883
 C104 C -0.20831 0.06043 0.31743
 C105 C -0.14452 0.06104 0.28702
 C106 C -0.33250 -0.00076 0.40872
 C107 C -0.09544 -0.06301 0.31921
 C108 C -0.15919 -0.06362 0.34957
 C109 C -0.27970 -0.00122 0.38114
 C110 C -0.08788 -0.00088 0.28766
 H111 H -0.25133 0.10889 0.31679
 H112 H -0.13915 0.11044 0.26365
 H113 H -0.05166 -0.11072 0.32055
 H114 H -0.16398 -0.11182 0.37390
 C115 C 0.21729 0.00315 0.34866
 C116 C 0.16086 0.06501 0.34918
 C117 C 0.09677 0.06433 0.31887
 C118 C 0.33467 0.00210 0.40855
 C119 C 0.14542 -0.05986 0.28715
 C120 C 0.20955 -0.05918 0.31751
 C121 C 0.28163 0.00258 0.38095
 C122 C 0.08882 0.00208 0.28758
 H123 H 0.16595 0.11328 0.37332
 H124 H 0.05303 0.11207 0.32005
 H125 H 0.13975 -0.10936 0.26399
 H126 H 0.25253 -0.10768 0.31705
   
