data_POSCAR
  _audit_creation_date              2014-09-24
  _audit_creation_method            'ToBaCCo'
  _symmetry_space_group_name_H-M    'P1'
  _symmetry_Int_Tables_number       1
  _symmetry_cell_setting            triclinic
  loop_
  _symmetry_equiv_pos_as_xyz
 x,y,z
_cell_length_a 41.1393
_cell_length_b 40.5135
_cell_length_c 41.0779
_cell_angle_alpha 89.944600
_cell_angle_beta 89.998800
_cell_angle_gamma 90.022000
loop_
  _atom_site_label
  _atom_site_type_symbol
  _atom_site_fract_x
  _atom_site_fract_y
  _atom_site_fract_z
N1 N 0.58724 0.67652 0.61006
 N2 N 0.57412 0.66264 0.63588
 C3 C 0.54768 0.68008 0.64478
 C4 C 0.54427 0.70604 0.62335
 C5 C 0.56963 0.70320 0.60163
 H6 H 0.53209 0.67443 0.66523
 H7 H 0.57485 0.71932 0.58129
 Cu8 Cu 0.59289 0.62322 0.65535
 Cu9 Cu 0.62614 0.65902 0.58934
 Cu10 Cu 0.66087 0.58953 0.62430
 N11 N 0.61307 0.58467 0.67511
 N12 N 0.63967 0.57161 0.66283
 C13 C 0.64849 0.54540 0.68098
 C14 C 0.62620 0.54206 0.70579
 C15 C 0.60405 0.56720 0.70155
 H16 H 0.66947 0.52997 0.67647
 H17 H 0.58305 0.57231 0.71656
 N18 N 0.67874 0.61122 0.58525
 N19 N 0.66550 0.63770 0.57193
 C20 C 0.68315 0.64657 0.54570
 C21 C 0.70851 0.62463 0.54256
 C22 C 0.70515 0.60255 0.56784
 H23 H 0.67801 0.66736 0.53000
 H24 H 0.72079 0.58176 0.57305
 H25 H 0.61986 0.61060 0.60395
 H26 H 0.64503 0.63750 0.63090
 N27 N 0.91343 0.32260 0.10990
 N28 N 0.92620 0.33605 0.13610
 C29 C 0.95257 0.31854 0.14509
 C30 C 0.95627 0.29297 0.12330
 C31 C 0.93120 0.29609 0.10128
 H32 H 0.96790 0.32389 0.16581
 H33 H 0.92626 0.28033 0.08062
 Cu34 Cu 0.90701 0.37510 0.15582
 Cu35 Cu 0.87476 0.34040 0.08891
 Cu36 Cu 0.84019 0.41003 0.12373
 N37 N 0.88742 0.41414 0.17514
 N38 N 0.86126 0.42768 0.16244
 C39 C 0.85274 0.45414 0.18032
 C40 C 0.87475 0.45718 0.20541
 C41 C 0.89644 0.43157 0.20158
 H42 H 0.83213 0.46996 0.17547
 H43 H 0.91713 0.42612 0.21691
 N44 N 0.82246 0.38854 0.08453
 N45 N 0.83563 0.36202 0.07127
 C46 C 0.81804 0.35328 0.04497
 C47 C 0.79281 0.37535 0.04172
 C48 C 0.79616 0.39736 0.06701
 H49 H 0.82312 0.33246 0.02933
 H50 H 0.78057 0.41819 0.07219
 H51 H 0.88130 0.38860 0.10401
 H52 H 0.85519 0.36178 0.13016
 N53 N 0.41283 0.17733 -0.10996
 N54 N 0.42599 0.16343 -0.13572
 C55 C 0.45243 0.18088 -0.14466
 C56 C 0.45580 0.20689 -0.12333
 C57 C 0.43043 0.20406 -0.10162
 H58 H 0.46804 0.17521 -0.16507
 H59 H 0.42519 0.22020 -0.08133
 Cu60 Cu 0.40727 0.12394 -0.15506
 Cu61 Cu 0.37393 0.15981 -0.08921
 Cu62 Cu 0.33928 0.09021 -0.12393
 N63 N 0.38711 0.08533 -0.17468
 N64 N 0.36052 0.07226 -0.16238
 C65 C 0.35174 0.04601 -0.18046
 C66 C 0.37403 0.04263 -0.20525
 C67 C 0.39615 0.06782 -0.20105
 H68 H 0.33077 0.03057 -0.17593
 H69 H 0.41714 0.07292 -0.21608
 N70 N 0.32137 0.11195 -0.08498
 N71 N 0.33457 0.13847 -0.07174
 C72 C 0.31690 0.14735 -0.04556
 C73 C 0.29156 0.12538 -0.04235
 C74 C 0.29495 0.10327 -0.06755
 H75 H 0.32202 0.16818 -0.02993
 H76 H 0.27934 0.08244 -0.07270
 H77 H 0.38025 0.11138 -0.10363
 H78 H 0.35509 0.13819 -0.13071
 N79 N 0.08639 0.82245 0.39015
 N80 N 0.07322 0.83634 0.36436
 C81 C 0.04683 0.81883 0.35540
 C82 C 0.04353 0.79283 0.37679
 C83 C 0.06886 0.79567 0.39854
 H84 H 0.03122 0.82450 0.33496
 H85 H 0.07413 0.77954 0.41886
 Cu86 Cu 0.09187 0.87590 0.34500
 Cu87 Cu 0.12521 0.84007 0.41093
 Cu88 Cu 0.15972 0.90980 0.37617
 N89 N 0.11194 0.91458 0.32536
 N90 N 0.13848 0.92772 0.33767
 C91 C 0.14720 0.95400 0.31958
 C92 C 0.12494 0.95734 0.29475
 C93 C 0.10289 0.93209 0.29895
 H94 H 0.16813 0.96951 0.32412
 H95 H 0.08194 0.92693 0.28390
 N96 N 0.17764 0.88809 0.41517
 N97 N 0.16449 0.86151 0.42842
 C98 C 0.18217 0.85265 0.45462
 C99 C 0.20745 0.87469 0.45783
 C100 C 0.20402 0.89682 0.43261
 H101 H 0.17710 0.83179 0.47026
 H102 H 0.21959 0.91768 0.42745
 H103 H 0.11878 0.88850 0.39644
 H104 H 0.14405 0.86178 0.36943
 C105 C 0.10005 0.14918 0.12475
 N106 N 0.10039 0.12558 0.14828
 C107 C 0.12382 0.10196 0.14873
 N108 N 0.14711 0.10212 0.12527
 C109 C 0.14716 0.12553 0.10156
 N110 N 0.12353 0.14896 0.10148
 C111 C 0.39904 0.85103 0.62488
 N112 N 0.39866 0.87458 0.64841
 C113 C 0.37518 0.89815 0.64887
 N114 N 0.35189 0.89799 0.62542
 C115 C 0.35188 0.87463 0.60171
 N116 N 0.37555 0.85124 0.60163
 C117 C 0.89990 0.64877 0.37532
 N118 N 0.87644 0.64848 0.39861
 C119 C 0.85281 0.62504 0.39855
 N120 N 0.85282 0.60170 0.37482
 C121 C 0.87608 0.60161 0.35133
 N122 N 0.89952 0.62524 0.35177
 C123 C 0.60113 0.35189 -0.12521
 N124 N 0.60151 0.37544 -0.14878
 C125 C 0.62502 0.39901 -0.14931
 N126 N 0.64835 0.39883 -0.12589
 C127 C 0.64835 0.37546 -0.10213
 N128 N 0.62465 0.35209 -0.10198
 C129 C 0.02561 0.22366 0.12397
 C130 C 0.04969 0.22356 0.09991
 C131 C 0.07391 0.19937 0.10013
 C132 C -0.02018 0.26945 0.12351
 C133 C 0.05001 0.17521 0.14856
 C134 C 0.02583 0.19945 0.14828
 C135 C 0.00070 0.24858 0.12371
 C136 C 0.07437 0.17487 0.12448
 H137 H 0.04974 0.24220 0.08098
 H138 H 0.09223 0.19988 0.08122
 H139 H 0.04959 0.15678 0.16766
 H140 H 0.00730 0.19930 0.16702
 C141 C 0.47360 0.77668 0.62408
 C142 C 0.44952 0.77678 0.60003
 C143 C 0.42526 0.80094 0.60026
 C144 C 0.51942 0.73091 0.62361
 C145 C 0.44914 0.82504 0.64867
 C146 C 0.47336 0.80085 0.64838
 C147 C 0.49854 0.75178 0.62382
 C148 C 0.42477 0.82539 0.62460
 H149 H 0.44949 0.75818 0.58110
 H150 H 0.40693 0.80042 0.58135
 H151 H 0.44954 0.84344 0.66777
 H152 H 0.49190 0.80099 0.66712
 C153 C 0.97433 0.72332 0.37606
 C154 C 0.95029 0.72313 0.40015
 C155 C 0.92607 0.69890 0.39995
 C156 C 1.02005 0.76922 0.37652
 C157 C 0.94991 0.67491 0.35146
 C158 C 0.97409 0.69917 0.35174
 C159 C 0.99921 0.74829 0.37630
 C160 C 0.92558 0.67448 0.37558
 H161 H 0.95025 0.74172 0.41910
 H162 H 0.90777 0.69935 0.41888
 H163 H 0.95031 0.65653 0.33235
 H164 H 0.99260 0.69910 0.33297
 C165 C 0.52650 0.27756 -0.12421
 C166 C 0.52674 0.30173 -0.14855
 C167 C 0.55098 0.32593 -0.14890
 C168 C 0.48067 0.23177 -0.12364
 C169 C 0.57488 0.30181 -0.10047
 C170 C 0.55060 0.27765 -0.10018
 C171 C 0.50155 0.25265 -0.12390
 C172 C 0.57537 0.32626 -0.12485
 H173 H 0.50819 0.30189 -0.16727
 H174 H 0.55058 0.34433 -0.16803
 H175 H 0.59323 0.30128 -0.08158
 H176 H 0.55064 0.25904 -0.08122
 C177 C 0.12436 0.02768 0.22357
 C178 C 0.14841 0.02769 0.19949
 C179 C 0.14826 0.05182 0.17513
 C180 C 0.12474 -0.01792 0.26968
 C181 C 0.09991 0.07605 0.19890
 C182 C 0.10012 0.05189 0.22322
 C183 C 0.12457 0.00285 0.24866
 C184 C 0.12400 0.07632 0.17454
 H185 H 0.16729 0.00905 0.19954
 H186 H 0.16717 0.05124 0.15681
 H187 H 0.08087 0.09449 0.19922
 H188 H 0.08139 0.05210 0.24176
 C189 C 0.62566 0.47316 -0.22428
 C190 C 0.60134 0.44901 -0.22383
 C191 C 0.60110 0.42489 -0.19947
 C192 C 0.62604 0.51869 -0.27045
 C193 C 0.64958 0.44903 -0.17585
 C194 C 0.64976 0.47312 -0.20025
 C195 C 0.62588 0.49794 -0.24939
 C196 C 0.62524 0.42460 -0.17516
 H197 H 0.58256 0.44881 -0.24233
 H198 H 0.58200 0.40650 -0.19972
 H199 H 0.66853 0.44959 -0.15757
 H200 H 0.66870 0.49171 -0.20037
 C201 C 0.37458 0.97233 0.72367
 C202 C 0.35052 0.97232 0.69961
 C203 C 0.35068 0.94822 0.67527
 C204 C 0.37421 1.01791 0.76972
 C205 C 0.39908 0.92402 0.69901
 C206 C 0.39885 0.94815 0.72332
 C207 C 0.37438 0.99714 0.74872
 C208 C 0.37498 0.92375 0.67467
 H209 H 0.33161 0.99093 0.69966
 H210 H 0.33176 0.94879 0.65695
 H211 H 0.41815 0.90561 0.69933
 H212 H 0.41760 0.94794 0.74184
 C213 C 0.87544 0.52748 0.27648
 C214 C 0.85141 0.52744 0.30058
 C215 C 0.85159 0.55152 0.32494
 C216 C 0.87501 0.48192 0.23043
 C217 C 0.89993 0.57582 0.30113
 C218 C 0.89969 0.55171 0.27681
 C219 C 0.87521 0.50269 0.25142
 C220 C 0.87587 0.57603 0.32551
 H221 H 0.83253 0.50880 0.30054
 H222 H 0.83270 0.55090 0.34328
 H223 H 0.91898 0.59427 0.30080
 H224 H 0.91841 0.55196 0.25826
 C225 C 0.22121 0.12547 0.02767
 C226 C 0.22127 0.10127 0.05199
 C227 C 0.19721 0.10125 0.07602
 C228 C 0.26679 0.12543 -0.01772
 C229 C 0.17288 0.14974 0.05146
 C230 C 0.19698 0.14969 0.02746
 C231 C 0.24601 0.12546 0.00296
 C232 C 0.17270 0.12550 0.07606
 H233 H 0.23993 0.08240 0.05238
 H234 H 0.19785 0.08223 0.09455
 H235 H 0.15442 0.16877 0.05071
 H236 H 0.19670 0.16855 0.00874
 C237 C 0.77883 0.62480 0.47250
 C238 C 0.80309 0.64900 0.47271
 C239 C 0.82717 0.64911 0.44869
 C240 C 0.73327 0.62469 0.51792
 C241 C 0.80276 0.60070 0.42411
 C242 C 0.77872 0.60066 0.44817
 C243 C 0.75404 0.62474 0.49723
 C244 C 0.82730 0.62495 0.42407
 H245 H 0.80340 0.66781 0.49145
 H246 H 0.84564 0.66814 0.44944
 H247 H 0.80208 0.58173 0.40557
 H248 H 0.76004 0.58180 0.44778
 C249 C 0.72248 0.37543 -0.02833
 C250 C 0.69815 0.35129 -0.02805
 C251 C 0.67403 0.35127 -0.05202
 C252 C 0.76807 0.37538 0.01705
 C253 C 0.69852 0.39964 -0.07670
 C254 C 0.72261 0.39959 -0.05269
 C255 C 0.74730 0.37541 -0.00364
 C256 C 0.67392 0.37546 -0.07666
 H257 H 0.69783 0.33247 -0.00929
 H258 H 0.65551 0.33230 -0.05121
 H259 H 0.69922 0.41862 -0.09526
 H260 H 0.74134 0.41840 -0.05313
 C261 C 0.27781 0.87465 0.52785
 C262 C 0.30209 0.85049 0.52763
 C263 C 0.32620 0.85045 0.55163
 C264 C 0.23222 0.87466 0.48246
 C265 C 0.30177 0.89884 0.57618
 C266 C 0.27770 0.89881 0.55216
 C267 C 0.25300 0.87465 0.50314
 C268 C 0.32633 0.87464 0.57622
 H269 H 0.30240 0.83166 0.50892
 H270 H 0.34469 0.83145 0.55087
 H271 H 0.30109 0.91783 0.59470
 H272 H 0.25901 0.91764 0.55255
   
