data_POSCAR
  _audit_creation_date              2014-09-24
  _audit_creation_method            'ToBaCCo'
  _symmetry_space_group_name_H-M    'P1'
  _symmetry_Int_Tables_number       1
  _symmetry_cell_setting            triclinic
  loop_
  _symmetry_equiv_pos_as_xyz
 x,y,z
_cell_length_a 27.9654
_cell_length_b 27.8040
_cell_length_c 27.0757
_cell_angle_alpha 89.621600
_cell_angle_beta 87.243000
_cell_angle_gamma 89.858500
loop_
  _atom_site_label
  _atom_site_type_symbol
  _atom_site_fract_x
  _atom_site_fract_y
  _atom_site_fract_z
C1 C 0.35491 0.00294 0.25064
 C2 C 0.14983 0.01231 0.73381
 C3 C 0.62438 0.50334 0.26422
 C4 C 0.87654 0.49714 0.76118
 C5 C 0.24386 0.37676 0.99434
 C6 C 0.75802 0.12771 0.99299
 C7 C 0.24544 0.63318 0.51145
 C8 C 0.74058 0.88798 0.49542
 C9 C -0.01205 0.23976 0.37755
 C10 C 0.01709 0.75472 0.12115
 C11 C 0.51040 0.23278 0.61922
 C12 C 0.50103 0.74507 0.87990
 C13 C -0.25702 0.62641 0.98788
 C14 C -0.25651 0.38415 0.50383
 C15 C 0.25622 -0.12059 0.01371
 C16 C 0.24281 1.12056 0.50507
 C17 C 0.10412 0.50795 0.23361
 C18 C -0.11295 1.00074 0.25391
 C19 C 0.38523 0.51945 -0.22321
 C20 C 0.62169 -0.00429 -0.26621
 C21 C -0.00287 0.25488 0.85905
 C22 C 0.49295 0.23624 0.14051
 C23 C 0.02203 0.73602 0.62875
 C24 C 0.50405 0.73770 0.37297
 B25 B -0.01977 0.02308 1.03209
 B26 B -0.04947 0.00890 0.98164
 B27 B -0.01050 0.05507 0.97920
 B28 B 0.03626 0.04063 1.01398
 B29 B 0.02558 -0.01595 1.03734
 B30 B -0.02844 -0.03481 1.01719
 B31 B 0.03226 -0.02206 0.93671
 B32 B 0.06185 -0.00800 0.98673
 B33 B 0.02275 -0.05397 0.98921
 B34 B -0.02363 -0.03950 0.95441
 B35 B -0.01315 0.01695 0.93117
 B36 B 0.04066 0.03618 0.95113
 B37 B 0.45584 0.52127 0.55375
 B38 B 0.43628 0.51532 0.49668
 B39 B 0.48221 0.55201 0.50669
 B40 B 0.51591 0.52707 0.55011
 B41 B 0.48971 0.47313 0.56632
 B42 B 0.43964 0.46639 0.53331
 B43 B 0.51740 0.46958 0.46842
 B44 B 0.53692 0.47540 0.52570
 B45 B 0.49109 0.43866 0.51537
 B46 B 0.45733 0.46381 0.47201
 B47 B 0.48333 0.51755 0.45612
 B48 B 0.53351 0.52410 0.48896
 B49 B 0.51168 0.96136 0.54355
 B50 B 0.53370 0.97011 0.48560
 B51 B 0.49085 0.92917 0.49743
 B52 B 0.45259 0.95013 0.54233
 B53 B 0.47287 1.00588 0.55755
 B54 B 0.52409 1.01759 0.52276
 B55 B 0.45083 1.00871 0.46055
 B56 B 0.42848 1.00015 0.51865
 B57 B 0.47159 1.04099 0.50686
 B58 B 0.50982 1.02001 0.46209
 B59 B 0.48962 0.96431 0.44678
 B60 B 0.43818 0.95248 0.48164
 B61 B 0.01976 0.48027 1.03345
 B62 B 0.04814 0.49285 0.97904
 B63 B 0.00281 0.45303 0.98219
 B64 B -0.03892 0.47216 1.02489
 B65 B -0.01861 0.52523 1.04753
 B66 B 0.03587 0.53720 1.01938
 B67 B -0.03061 0.53768 0.94926
 B68 B -0.05878 0.52501 1.00368
 B69 B -0.01355 0.56460 1.00039
 B70 B 0.02806 0.54579 0.95780
 B71 B 0.00808 0.49271 0.93485
 B72 B -0.04680 0.48037 0.96318
 B73 B 0.03863 0.50596 0.45999
 B74 B 0.05914 0.50152 0.51685
 B75 B 0.01421 0.53996 0.50577
 B76 B -0.02102 0.51436 0.46434
 B77 B 0.00269 0.45887 0.45083
 B78 B 0.05288 0.45152 0.48320
 B79 B -0.02340 0.46037 0.54919
 B80 B -0.04372 0.46473 0.49204
 B81 B 0.00094 0.42639 0.50352
 B82 B 0.03637 0.45183 0.54467
 B83 B 0.01299 0.50708 0.55837
 B84 B -0.03751 0.51486 0.52556
 B85 B 0.54088 0.02018 -0.04261
 B86 B 0.56170 0.01626 0.01432
 B87 B 0.51682 0.05431 0.00331
 B88 B 0.48111 0.02849 -0.03771
 B89 B 0.50488 -0.02704 -0.05093
 B90 B 0.55566 -0.03408 -0.01876
 B91 B 0.47954 -0.02509 0.04761
 B92 B 0.45883 -0.02141 -0.00939
 B93 B 0.50399 -0.05944 0.00196
 B94 B 0.53942 -0.03330 0.04284
 B95 B 0.51572 0.02192 0.05594
 B96 B 0.46493 0.02903 0.02373
 B97 B 0.46268 0.47017 -0.02600
 B98 B 0.43701 0.47886 0.03034
 B99 B 0.48150 0.43883 0.02224
 B100 B 0.52151 0.46044 -0.02104
 B101 B 0.50114 0.51569 -0.03900
 B102 B 0.44785 0.52643 -0.00724
 B103 B 0.51806 0.51950 0.05934
 B104 B 0.54345 0.51120 0.00277
 B105 B 0.49866 0.55160 0.01109
 B106 B 0.45873 0.52953 0.05435
 B107 B 0.47927 0.47467 0.07220
 B108 B 0.53233 0.46342 0.04004
 B109 B -0.02806 0.96224 0.45877
 B110 B -0.05177 0.96540 0.51667
 B111 B -0.00361 0.93091 0.50459
 B112 B 0.03198 0.95882 0.46104
 B113 B 0.00448 1.01210 0.44726
 B114 B -0.04820 1.01547 0.48141
 B115 B 0.02430 1.01382 0.54472
 B116 B 0.04851 1.01078 0.48698
 B117 B -0.00004 1.04502 0.49919
 B118 B -0.03551 1.01695 0.54242
 B119 B -0.00795 0.96408 0.55644
 B120 B 0.04490 0.96059 0.52201
 B121 B 0.77008 0.22049 0.20697
 B122 B 0.76432 0.19635 0.26371
 B123 B 0.80264 0.24217 0.25231
 B124 B 0.77829 0.28036 0.21158
 B125 B 0.72386 0.25760 0.19874
 B126 B 0.71560 0.20496 0.23108
 B127 B 0.72231 0.27768 0.29724
 B128 B 0.72799 0.30158 0.24031
 B129 B 0.68986 0.25598 0.25157
 B130 B 0.71386 0.21787 0.29248
 B131 B 0.76863 0.24024 0.30544
 B132 B 0.77700 0.29320 0.27309
 B133 B 0.72589 0.77090 0.69655
 B134 B 0.72886 0.79596 0.75235
 B135 B 0.69484 0.74694 0.74528
 B136 B 0.72306 0.71067 0.70324
 B137 B 0.77575 0.73809 0.68514
 B138 B 0.77895 0.79171 0.71542
 B139 B 0.77757 0.71947 0.78383
 B140 B 0.77459 0.69447 0.72812
 B141 B 0.80854 0.74326 0.73539
 B142 B 0.78039 0.77965 0.77723
 B143 B 0.72772 0.75212 0.79534
 B144 B 0.72468 0.69866 0.76510
 B145 B 0.28206 0.29762 0.78790
 B146 B 0.28414 0.32252 0.73146
 B147 B 0.31293 0.27087 0.74148
 B148 B 0.28000 0.23751 0.78263
 B149 B 0.22903 0.26968 0.79739
 B150 B 0.23232 0.32297 0.76590
 B151 B 0.23088 0.25052 0.69842
 B152 B 0.22880 0.22565 0.75520
 B153 B 0.19940 0.27730 0.74507
 B154 B 0.23267 0.31099 0.70403
 B155 B 0.28332 0.27898 0.68928
 B156 B 0.28051 0.22546 0.72106
 B157 B 0.23709 0.70895 0.29071
 B158 B 0.24486 0.68749 0.23328
 B159 B 0.20665 0.73367 0.24440
 B160 B 0.22954 0.76901 0.28772
 B161 B 0.28336 0.74465 0.30219
 B162 B 0.29252 0.69339 0.26838
 B163 B 0.28927 0.76918 0.20478
 B164 B 0.28098 0.79026 0.26226
 B165 B 0.31921 0.74501 0.25054
 B166 B 0.29666 0.70909 0.20741
 B167 B 0.24285 0.73336 0.19284
 B168 B 0.23396 0.78484 0.22655
 B169 B 0.28550 0.74846 0.70023
 B170 B 0.27306 0.71476 0.75055
 B171 B 0.31563 0.75734 0.75154
 B172 B 0.29792 0.80493 0.71770
 B173 B 0.24307 0.79105 0.69644
 B174 B 0.22821 0.73450 0.71657
 B175 B 0.23503 0.79151 0.79736
 B176 B 0.24737 0.82504 0.74698
 B177 B 0.20494 0.78263 0.74581
 B178 B 0.22238 0.73499 0.77966
 B179 B 0.27730 0.74884 0.80115
 B180 B 0.29243 0.80556 0.78069
 B181 B 0.21606 0.28870 0.21085
 B182 B 0.21122 0.31050 0.26837
 B183 B 0.18233 0.25987 0.25442
 B184 B 0.21719 0.22834 0.21372
 B185 B 0.26883 0.26020 0.20336
 B186 B 0.26452 0.31181 0.23709
 B187 B 0.26200 0.23575 0.30100
 B188 B 0.26659 0.21409 0.24322
 B189 B 0.29572 0.26465 0.25735
 B190 B 0.26078 0.29633 0.29814
 B191 B 0.20914 0.26441 0.30856
 B192 B 0.21334 0.21270 0.27481
 B193 B 0.78042 0.78411 0.28773
 B194 B 0.77503 0.80692 0.23066
 B195 B 0.81616 0.76453 0.24042
 B196 B 0.79376 0.72502 0.28303
 B197 B 0.73688 0.74351 0.29929
 B198 B 0.72569 0.79558 0.26670
 B199 B 0.74018 0.72262 0.20129
 B200 B 0.74606 0.69958 0.25778
 B201 B 0.70463 0.74263 0.24845
 B202 B 0.72736 0.78175 0.20545
 B203 B 0.78407 0.76272 0.18929
 B204 B 0.79528 0.71131 0.22162
 B205 B 0.71591 0.23566 0.80412
 B206 B 0.72279 0.19680 0.75734
 B207 B 0.68360 0.24241 0.75421
 B208 B 0.70683 0.29113 0.78130
 B209 B 0.76169 0.27471 0.80082
 B210 B 0.77098 0.21552 0.78609
 B211 B 0.76341 0.26609 0.70035
 B212 B 0.75689 0.30455 0.74723
 B213 B 0.79612 0.25901 0.75051
 B214 B 0.77297 0.21046 0.72320
 B215 B 0.71796 0.22685 0.70362
 B216 B 0.70833 0.28586 0.71870
 C217 C 0.38672 0.99406 0.29389
 C218 C 0.38938 1.02203 0.33402
 C219 C 0.41740 1.00536 0.37511
 C220 C 0.42193 1.03053 0.41672
 H221 H 0.37015 1.05574 0.33762
 H222 H 0.43372 0.97012 0.37130
 H223 H 0.40820 0.96146 0.29188
 H224 H 0.40544 1.06563 0.42104
 C225 C -0.08467 0.50998 0.79599
 C226 C -0.08362 0.54946 0.82424
 C227 C -0.04601 0.55311 0.85960
 C228 C -0.05728 0.56400 0.90669
 H229 H -0.11212 0.57588 0.82534
 H230 H -0.01231 0.53542 0.84980
 H231 H -0.05549 0.48425 0.79806
 H232 H -0.09148 0.58068 0.91623
 C233 C 0.11442 0.01604 0.77803
 C234 C 0.10074 -0.02095 0.80763
 C235 C 0.06578 -0.01209 0.84870
 C236 C 0.06030 -0.04110 0.88837
 H237 H 0.11618 -0.05647 0.80283
 H238 H 0.04706 0.02210 0.84825
 H239 H 0.09613 0.05024 0.78320
 H240 H 0.07984 -0.07470 0.89004
 C241 C 0.58623 0.49713 0.30560
 C242 C 0.58413 0.46221 0.34030
 C243 C 0.54467 0.46340 0.37800
 C244 C 0.54930 0.44710 0.42421
 H245 H 0.61174 0.43510 0.34280
 H246 H 0.51376 0.48487 0.36933
 H247 H 0.55740 0.52345 0.30606
 H248 H 0.58022 0.42572 0.43282
 C249 C 0.59817 0.49377 0.21704
 C250 C 0.59009 0.52555 0.18053
 C251 C 0.56160 0.51042 0.13917
 C252 C 0.54737 0.54019 0.10334
 H253 H 0.60351 0.56199 0.18090
 H254 H 0.55181 0.47274 0.13842
 H255 H 0.58282 0.45807 0.21445
 H256 H 0.55654 0.57799 0.10356
 C257 C 0.12040 0.99746 0.69111
 C258 C 0.09654 1.02846 0.66327
 C259 C 0.06867 1.00967 0.62348
 C260 C 0.05000 1.03769 0.58895
 H261 H 0.09833 1.06691 0.66917
 H262 H 0.06505 0.97091 0.62149
 H263 H 0.11637 0.95915 0.68494
 H264 H 0.05403 1.07640 0.58988
 C265 C -0.09881 0.49834 0.71000
 C266 C -0.09351 0.46195 0.67777
 C267 C -0.07195 0.47340 0.62876
 C268 C -0.05358 0.44118 0.59640
 H269 H -0.10458 0.42556 0.68674
 H270 H -0.06887 0.51142 0.62007
 H271 H -0.08383 0.53310 0.69919
 H272 H -0.05550 0.40299 0.60428
 C273 C 0.38916 0.01000 0.20564
 C274 C 0.40138 -0.02430 0.17232
 C275 C 0.43471 -0.01249 0.13047
 C276 C 0.44779 -0.04346 0.09424
 H277 H 0.38664 -0.06024 0.17522
 H278 H 0.44751 0.02426 0.12862
 H279 H 0.40764 0.04423 0.20264
 H280 H 0.43475 -0.08010 0.09512
 C281 C 0.27708 0.42087 -0.00863
 C282 C 0.30521 0.43430 0.02776
 C283 C 0.34718 0.46527 0.01780
 C284 C 0.38514 0.46007 0.04568
 H285 H 0.30191 0.41736 0.06385
 H286 H 0.34953 0.48703 -0.01558
 H287 H 0.28123 0.43942 -0.04394
 H288 H 0.38238 0.43693 0.07808
 C289 C -0.21746 0.92203 0.49173
 C290 C -0.18334 0.92392 0.52422
 C291 C -0.14080 0.95255 0.51257
 C292 C -0.10027 0.94158 0.53352
 H293 H -0.18462 0.90165 0.55722
 H294 H -0.14153 0.97952 0.48348
 H295 H -0.21479 0.94541 0.45940
 H296 H -0.09964 0.91349 0.56147
 C297 C -0.19132 0.10825 0.99072
 C298 C -0.17876 0.06189 0.99132
 C299 C -0.12899 0.05065 1.00053
 C300 C -0.10526 0.01508 0.97779
 H301 H -0.20424 0.03314 0.98717
 H302 H -0.11055 0.07538 1.02357
 H303 H -0.16310 0.13487 0.99319
 H304 H -0.12373 -0.00859 0.95344
 C305 C 0.28019 0.59274 0.52395
 C306 C 0.30886 0.57021 0.49045
 C307 C 0.34727 0.53838 0.50587
 C308 C 0.38829 0.53749 0.47877
 H309 H 0.30772 0.57886 0.45148
 H310 H 0.34380 0.51998 0.54122
 H311 H 0.28227 0.58273 0.56261
 H312 H 0.39087 0.55721 0.44402
 C313 C 0.19383 0.61675 0.51795
 C314 C 0.17962 0.57115 0.52382
 C315 C 0.12969 0.55927 0.51618
 C316 C 0.11133 0.51677 0.52932
 H317 H 0.20464 0.54230 0.53034
 H318 H 0.10860 0.58527 0.49685
 H319 H 0.16665 0.64403 0.51244
 H320 H 0.13318 0.49069 0.54789
 C321 C 0.72188 0.08885 -0.01896
 C322 C 0.69032 0.06989 0.01433
 C323 C 0.64949 0.04164 -0.00130
 C324 C 0.61135 0.03631 0.02968
 H325 H 0.69170 0.07890 0.05308
 H326 H 0.64895 0.02918 -0.03906
 H327 H 0.72003 0.07854 -0.05741
 H328 H 0.61251 0.04998 0.06703
 C329 C 0.69784 0.92003 0.50745
 C330 C 0.66710 0.93455 0.47437
 C331 C 0.62347 0.95962 0.49084
 C332 C 0.58433 0.95346 0.46587
 H333 H 0.67153 0.92427 0.43591
 H334 H 0.62202 0.97848 0.52581
 H335 H 0.69278 0.93260 0.54523
 H336 H 0.58621 0.93295 0.43187
 C337 C 0.19196 0.38874 0.98564
 C338 C 0.17439 0.43213 0.97541
 C339 C 0.12225 0.43840 0.97475
 C340 C 0.10291 0.48152 0.96796
 H341 H 0.19750 0.46314 0.97060
 H342 H 0.09971 0.40792 0.98432
 H343 H 0.16698 0.35891 0.98950
 H344 H 0.12612 0.51186 0.95912
 C345 C -0.03496 0.27615 0.41362
 C346 C -0.01136 0.29706 0.44982
 C347 C -0.02558 0.34567 0.46717
 C348 C -0.00096 0.36918 0.50072
 H349 H 0.02245 0.28215 0.46063
 H350 H -0.05178 0.36475 0.44649
 H351 H -0.06782 0.29322 0.40271
 H352 H 0.02581 0.34972 0.52055
 C353 C 0.47870 -0.21476 -0.08762
 C354 C 0.50058 -0.19134 -0.05166
 C355 C 0.48503 -0.14156 -0.03802
 C356 C 0.50317 -0.11714 -0.00052
 H357 H 0.53320 -0.20578 -0.03738
 H358 H 0.46270 -0.12269 -0.06336
 H359 H 0.44671 -0.19787 -0.10104
 H360 H 0.52583 -0.13616 0.02446
 C361 C 0.00080 -0.20267 1.09002
 C362 C 0.02775 -0.18182 1.05315
 C363 C 0.01046 -0.13734 1.02954
 C364 C 0.03781 -0.10879 0.99922
 H365 H 0.06309 -0.19566 1.04299
 H366 H -0.02511 -0.12561 1.04160
 H367 H -0.03407 -0.18718 1.09936
 H368 H 0.07330 -0.12056 0.98688
 C369 C 0.52540 0.28348 0.60349
 C370 C 0.50643 0.30630 0.56510
 C371 C 0.51127 0.35880 0.55860
 C372 C 0.49441 0.38174 0.51933
 H373 H 0.48391 0.28676 0.54069
 H374 H 0.52575 0.37908 0.58836
 H375 H 0.54697 0.30426 0.62774
 H376 H 0.47931 0.36109 0.49009
 C377 C 0.51547 1.19953 0.57406
 C378 C 0.48170 1.16905 0.55936
 C379 C 0.49417 1.12767 0.52741
 C380 C 0.46030 1.09623 0.51580
 H381 H 0.44575 1.16981 0.57581
 H382 H 0.53168 1.11885 0.52064
 H383 H 0.55108 1.19666 0.55652
 H384 H 0.42301 1.10578 0.52279
 C385 C 0.03094 0.71312 1.08695
 C386 C -0.00000 0.69301 1.05671
 C387 C 0.01155 0.64680 1.03256
 C388 C -0.02205 0.61997 1.01218
 H389 H -0.03548 0.70826 1.05386
 H390 H 0.04728 0.63244 1.03619
 H391 H 0.06568 0.69628 1.09048
 H392 H -0.05793 0.63416 1.00931
 C393 C 0.52257 0.70278 -0.09166
 C394 C 0.50259 0.68110 -0.05109
 C395 C 0.51690 0.63101 -0.03770
 C396 C 0.50110 0.60906 0.00444
 H397 H 0.47256 0.69785 -0.03109
 H398 H 0.53673 0.61013 -0.06550
 H399 H 0.55181 0.68373 -0.11079
 H400 H 0.48140 0.63012 0.03214
 C401 C 0.01354 1.19836 0.40281
 C402 C -0.00350 1.17541 0.44373
 C403 C 0.01437 1.12671 0.45576
 C404 C -0.00236 1.10217 0.49570
 H405 H -0.03393 1.18993 0.46501
 H406 H 0.03707 1.10863 0.42813
 H407 H 0.04304 1.18155 0.38185
 H408 H -0.02549 1.12031 0.52293
 C409 C 0.74954 0.66297 0.94637
 C410 C 0.78697 0.66541 0.91350
 C411 C 0.78614 0.70218 0.87467
 C412 C 0.80109 0.69251 0.82821
 H413 H 0.81567 0.63919 0.91282
 H414 H 0.76475 0.73403 0.88260
 H415 H 0.72203 0.69053 0.94452
 H416 H 0.82169 0.66020 0.82039
 C417 C 0.23322 0.15379 0.46197
 C418 C 0.26712 0.16994 0.42916
 C419 C 0.25268 0.19823 0.38656
 C420 C 0.28214 0.20880 0.34741
 H421 H 0.30448 0.16065 0.43246
 H422 H 0.21533 0.20867 0.38667
 H423 H 0.19646 0.16539 0.45816
 H424 H 0.31929 0.19759 0.34636
 C425 C 0.75232 0.35524 0.45678
 C426 C 0.71878 0.34531 0.42428
 C427 C 0.73244 0.31763 0.37995
 C428 C 0.70246 0.30654 0.34436
 H429 H 0.68223 0.35785 0.42982
 H430 H 0.76965 0.30667 0.37620
 H431 H 0.78757 0.33923 0.45100
 H432 H 0.66530 0.31766 0.34712
 C433 C 0.26230 0.85646 0.96286
 C434 C 0.22820 0.84850 0.93048
 C435 C 0.24207 0.82261 0.88468
 C436 C 0.21325 0.81470 0.84728
 H437 H 0.19158 0.86020 0.93741
 H438 H 0.27894 0.81049 0.88111
 H439 H 0.29788 0.84226 0.95398
 H440 H 0.17633 0.82660 0.84955
 C441 C 0.26464 0.83828 0.04940
 C442 C 0.30066 0.83477 0.08030
 C443 C 0.30043 0.79458 0.11533
 C444 C 0.31298 0.80094 0.16180
 H445 H 0.32730 0.86265 0.08307
 H446 H 0.28124 0.76247 0.10547
 H447 H 0.23857 0.80934 0.04959
 H448 H 0.33099 0.83369 0.17168
 C449 C 0.73291 0.34720 0.54463
 C450 C 0.76726 0.32543 0.56991
 C451 C 0.75412 0.29356 0.61171
 C452 C 0.78394 0.28475 0.64815
 H453 H 0.80469 0.33402 0.56240
 H454 H 0.71707 0.28213 0.61565
 H455 H 0.69605 0.33616 0.55184
 H456 H 0.82051 0.29756 0.64508
 C457 C 0.25575 0.15184 0.54807
 C458 C 0.22330 0.17704 0.57565
 C459 C 0.23919 0.20579 0.61698
 C460 C 0.20938 0.22526 0.65193
 H461 H 0.18553 0.17520 0.56864
 H462 H 0.27757 0.20903 0.61988
 H463 H 0.29340 0.15532 0.55539
 H464 H 0.17098 0.22154 0.65018
 C465 C 0.75676 0.65317 0.03387
 C466 C 0.73066 0.65487 0.07661
 C467 C 0.74855 0.68180 0.11803
 C468 C 0.72070 0.69185 0.15804
 H469 H 0.69638 0.63700 0.08132
 H470 H 0.78521 0.69455 0.11503
 H471 H 0.79119 0.67130 0.03160
 H472 H 0.68390 0.67974 0.16065
 C473 C 0.12445 0.55834 0.22895
 C474 C 0.17095 0.56928 0.22299
 C475 C 0.18602 0.61806 0.23406
 C476 C 0.22845 0.63552 0.21875
 H477 H 0.19807 0.54249 0.21413
 H478 H 0.16197 0.63907 0.25749
 H479 H 0.09913 0.58752 0.23594
 H480 H 0.25282 0.61372 0.19600
 C481 C 0.64037 0.04558 0.72088
 C482 C 0.67684 0.06543 0.74317
 C483 C 0.69104 0.11501 0.73126
 C484 C 0.70799 0.14279 0.76613
 H485 H 0.69363 0.04632 0.77280
 H486 H 0.68550 0.12923 0.69463
 H487 H 0.62324 0.06636 0.69252
 H488 H 0.71230 0.12792 0.80279
 C489 C 0.87350 0.05366 0.25919
 C490 C 0.82896 0.07106 0.26514
 C491 C 0.82032 0.12297 0.25995
 C492 C 0.77855 0.14249 0.27481
 H493 H 0.79849 0.04746 0.27112
 H494 H 0.84781 0.14474 0.24143
 H495 H 0.90268 0.07931 0.25497
 H496 H 0.75135 0.11998 0.29300
 C497 C 0.36549 0.56871 0.79042
 C498 C 0.32667 0.58721 0.77052
 C499 C 0.31277 0.63729 0.77938
 C500 C 0.28430 0.65947 0.74851
 H501 H 0.30680 0.56624 0.74486
 H502 H 0.32789 0.65650 0.80943
 H503 H 0.38611 0.59158 0.81381
 H504 H 0.26999 0.63957 0.71824
 C505 C 0.34453 0.48369 0.77190
 C506 C 0.34543 0.44752 0.73959
 C507 C 0.30863 0.40995 0.74347
 C508 C 0.31485 0.36882 0.71898
 H509 H 0.37533 0.44321 0.71305
 H510 H 0.27887 0.41396 0.77033
 H511 H 0.31515 0.48554 0.79953
 H512 H 0.34526 0.36478 0.69293
 C513 C 0.84337 0.96767 0.26130
 C514 C 0.82911 0.93583 0.22815
 C515 C 0.79688 0.89598 0.24335
 C516 C 0.79276 0.85851 0.21331
 H517 H 0.84542 0.93526 0.19109
 H518 H 0.78174 0.89459 0.28087
 H519 H 0.82508 0.96775 0.29757
 H520 H 0.80872 0.86073 0.17606
 C521 C 0.66197 0.95941 0.72267
 C522 C 0.67599 0.92595 0.75474
 C523 C 0.70451 0.88414 0.73826
 C524 C 0.70573 0.84554 0.76770
 H525 H 0.66255 0.92615 0.79287
 H526 H 0.72103 0.88349 0.70124
 H527 H 0.67735 0.95856 0.68511
 H528 H 0.68885 0.84729 0.80451
 C529 C 0.14328 0.46977 0.23034
 C530 C 0.14985 0.43575 0.26430
 C531 C 0.18280 0.39599 0.25299
 C532 C 0.18347 0.35782 0.28275
 H533 H 0.12848 0.43471 0.29869
 H534 H 0.20400 0.39651 0.21843
 H535 H 0.16501 0.46853 0.19604
 H536 H 0.16310 0.35843 0.31778
 C537 C 0.03325 0.24208 0.81647
 C538 C 0.06563 0.27255 0.79508
 C539 C 0.11062 0.25487 0.76999
 C540 C 0.14288 0.28608 0.75025
 H541 H 0.06275 0.31082 0.80140
 H542 H 0.11963 0.21738 0.77413
 H543 H 0.03698 0.20414 0.80791
 H544 H 0.13198 0.32329 0.74620
 C545 C 0.54833 0.75793 0.34497
 C546 C 0.57276 0.73551 0.30783
 C547 C 0.62253 0.75042 0.29457
 C548 C 0.64816 0.73364 0.25510
 H549 H 0.55813 0.70394 0.29089
 H550 H 0.63972 0.77365 0.32037
 H551 H 0.56524 0.78878 0.36117
 H552 H 0.63055 0.71243 0.22803
 C553 C 0.54215 0.22462 0.15999
 C554 C 0.56079 0.24760 0.19843
 C555 C 0.61045 0.23756 0.21188
 C556 C 0.63348 0.26241 0.24619
 H557 H 0.54031 0.27506 0.21828
 H558 H 0.62973 0.21052 0.19020
 H559 H 0.56368 0.19683 0.14198
 H560 H 0.61488 0.29017 0.26743
 C561 C 0.04932 0.73858 0.67714
 C562 C 0.07890 0.77391 0.69080
 C563 C 0.11773 0.76328 0.72515
 C564 C 0.15049 0.79651 0.73602
 H565 H 0.07924 0.80839 0.67204
 H566 H 0.12436 0.72590 0.73427
 H567 H 0.04881 0.70596 0.69943
 H568 H 0.14380 0.83369 0.72628
 C569 C 0.96756 0.73351 0.63944
 C570 C 0.94397 0.73998 0.68350
 C571 C 0.89086 0.73746 0.68761
 C572 C 0.86574 0.74188 0.73095
 H573 H 0.96320 0.74780 0.71623
 H574 H 0.87195 0.73275 0.65397
 H575 H 0.94620 0.72520 0.60823
 H576 H 0.88460 0.74651 0.76460
 C577 C 0.45590 0.22541 0.18268
 C578 C 0.42744 0.25757 0.20657
 C579 C 0.38403 0.24131 0.23541
 C580 C 0.35217 0.27315 0.25410
 H581 H 0.43245 0.29574 0.20035
 H582 H 0.37528 0.20363 0.23462
 H583 H 0.44990 0.18760 0.19116
 H584 H 0.36301 0.31051 0.25562
 C585 C 0.46787 0.71665 0.33864
 C586 C 0.44700 0.74230 0.30341
 C587 C 0.40156 0.72550 0.28375
 C588 C 0.37485 0.75408 0.25603
 H589 H 0.45978 0.77820 0.29426
 H590 H 0.38699 0.69161 0.29752
 H591 H 0.45321 0.68143 0.34793
 H592 H 0.38911 0.78835 0.24309
 C593 C 0.94535 0.24891 0.84438
 C594 C 0.92815 0.25816 0.79956
 C595 C 0.87563 0.25568 0.79401
 C596 C 0.85306 0.26558 0.75218
 H597 H 0.95191 0.26778 0.76832
 H598 H 0.85432 0.24464 0.82660
 H599 H 0.91904 0.24419 0.87472
 H600 H 0.87333 0.27688 0.71909
 C601 C 0.57968 0.98690 0.70142
 C602 C 0.57755 0.95373 0.66570
 C603 C 0.53828 0.95632 0.63182
 C604 C 0.54330 0.93997 0.58546
 H605 H 0.60626 0.92832 0.65805
 H606 H 0.50777 0.97853 0.64285
 H607 H 0.54999 1.01197 0.70635
 H608 H 0.57411 0.91821 0.57445
 C609 C 0.06976 0.50190 1.19255
 C610 C 0.06862 0.46442 1.16162
 C611 C 0.03331 0.46487 1.12369
 C612 C 0.04616 0.45476 1.07677
 H613 H 0.09475 0.43566 1.16172
 H614 H -0.00031 0.48298 1.13276
 H615 H 0.04310 0.53011 1.18917
 H616 H 0.08070 0.43839 1.06835
 C617 C -0.08639 -0.00763 1.20392
 C618 C -0.08113 0.02454 1.16648
 C619 C -0.05522 0.01074 1.12010
 C620 C -0.04544 0.04150 1.08233
 H621 H -0.09616 0.06037 1.16918
 H622 H -0.04421 -0.02656 1.11690
 H623 H -0.07045 -0.04301 1.19878
 H624 H -0.05523 0.07907 1.08567
 C625 C 0.41773 0.52349 0.73036
 C626 C 0.40538 0.54316 0.68753
 C627 C 0.43895 0.53891 0.64445
 C628 C 0.42548 0.54506 0.59815
 H629 H 0.37021 0.55847 0.68338
 H630 H 0.47415 0.52432 0.65078
 H631 H 0.45260 0.50617 0.73112
 H632 H 0.39078 0.56039 0.59183
 C633 C 0.41749 0.50427 -0.18242
 C634 C 0.41297 0.46491 -0.15369
 C635 C 0.44833 0.45771 -0.11623
 C636 C 0.43455 0.44753 -0.06951
 H637 H 0.38258 0.44097 -0.15491
 H638 H 0.48381 0.47213 -0.12465
 H639 H 0.44769 0.52792 -0.17697
 H640 H 0.39903 0.43344 -0.06142
 C641 C -0.07673 0.99028 0.29301
 C642 C -0.08060 0.95671 0.32923
 C643 C -0.04500 0.95561 0.36752
 C644 C -0.05595 0.94080 0.41405
 H645 H -0.11106 0.93289 0.33330
 H646 H -0.01169 0.97448 0.35916
 H647 H -0.04544 1.01341 0.29183
 H648 H -0.08966 0.92279 0.42252
 C649 C 0.07383 0.50520 0.28159
 C650 C 0.08696 0.52405 0.32430
 C651 C 0.05487 0.51926 0.36833
 C652 C 0.06974 0.52564 0.41400
 H653 H 0.12138 0.54147 0.32684
 H654 H 0.01902 0.50605 0.36309
 H655 H 0.04036 0.48542 0.28145
 H656 H 0.10589 0.53773 0.41919
 C657 C 0.60113 -0.00904 -0.21312
 C658 C 0.59986 0.02436 -0.17730
 C659 C 0.58209 0.00970 -0.12741
 C660 C 0.56927 0.04021 -0.09082
 H661 H 0.61119 0.06105 -0.18407
 H662 H 0.57700 -0.02859 -0.12147
 H663 H 0.58605 -0.04414 -0.20394
 H664 H 0.57362 0.07863 -0.09588
 C665 C 0.68981 0.61421 -0.00881
 C666 C 0.67075 0.57042 -0.01177
 C667 C 0.61885 0.56408 -0.00193
 C668 C 0.59776 0.52247 -0.01117
 H669 H 0.69301 0.53929 -0.01993
 H670 H 0.59811 0.59340 0.01431
 H671 H 0.66553 0.64421 -0.00162
 H672 H 0.61906 0.49345 -0.02738
 C673 C 0.19910 1.09065 0.51891
 C674 C 0.17487 1.06773 0.48502
 C675 C 0.13321 1.03898 0.50021
 C676 C 0.09754 1.03409 0.46999
 H677 H 0.18432 1.07237 0.44597
 H678 H 0.13062 1.02464 0.53746
 H679 H 0.18916 1.08497 0.55778
 H680 H 0.10088 1.04904 0.43290
 C681 C 0.20596 -0.10186 1.02514
 C682 C 0.18873 -0.06231 1.00405
 C683 C 0.13852 -0.04833 1.01393
 C684 C 0.11771 -0.01612 0.98529
 H685 H 0.21103 -0.04197 0.97758
 H686 H 0.11749 -0.06727 1.04253
 H687 H 0.18215 -0.12257 1.04997
 H688 H 0.13887 0.00217 0.95632
 C689 C 0.70327 0.41995 0.49703
 C690 C 0.66794 0.42901 0.53049
 C691 C 0.62656 0.45754 0.51636
 C692 C 0.58563 0.45458 0.54321
 H693 H 0.66739 0.41236 0.56678
 H694 H 0.62826 0.47720 0.48160
 H695 H 0.70318 0.43869 0.46170
 H696 H 0.58480 0.43506 0.57796
 C697 C -0.21380 0.41433 0.51709
 C698 C -0.17675 0.42472 0.48605
 C699 C -0.13323 0.44618 0.50441
 C700 C -0.09363 0.44723 0.47527
 H701 H -0.17699 0.41460 0.44752
 H702 H -0.13294 0.45852 0.54225
 H703 H -0.21292 0.42642 0.55509
 H704 H -0.09507 0.43523 0.43735
 C705 C 0.29192 -0.07994 0.02122
 C706 C 0.32719 -0.06757 -0.01152
 C707 C 0.36896 -0.04045 0.00385
 C708 C 0.40905 -0.04106 -0.02489
 H709 H 0.32858 -0.08202 -0.04855
 H710 H 0.36835 -0.02404 0.04005
 H711 H 0.29143 -0.06395 0.05771
 H712 H 0.40862 -0.05785 -0.06087
 C713 C 0.28233 1.08499 0.49136
 C714 C 0.30254 1.05700 0.52472
 C715 C 0.34176 1.02497 0.50884
 C716 C 0.37758 1.01736 0.53841
 H717 H 0.29308 1.06102 0.56379
 H718 H 0.34429 1.01328 0.47078
 H719 H 0.29221 1.07943 0.45255
 H720 H 0.37461 1.03035 0.57612
 C721 C -0.22458 0.58245 0.97822
 C722 C -0.19236 0.56713 1.00994
 C723 C -0.14924 0.54020 0.99322
 C724 C -0.11057 0.54297 1.02018
 H725 H -0.19355 0.58053 1.04743
 H726 H -0.14737 0.52306 0.95734
 H727 H -0.22348 0.56733 0.94134
 H728 H -0.11328 0.56171 1.05523
 C729 C 0.03781 0.68836 0.60485
 C730 C 0.02212 0.67054 0.56244
 C731 C 0.03142 0.61919 0.55046
 C732 C 0.01618 0.59742 0.50988
 H733 H -0.00056 0.69199 0.53956
 H734 H 0.04840 0.59755 0.57811
 H735 H 0.06048 0.66481 0.62581
 H736 H -0.00108 0.61853 0.48206
 C737 C 0.48000 0.20222 0.09840
 C738 C 0.51050 0.18170 0.06456
 C739 C 0.49508 0.13837 0.03755
 C740 C 0.52568 0.11086 0.01001
 H741 H 0.54762 0.19270 0.06113
 H742 H 0.45946 0.12481 0.04687
 H743 H 0.44276 0.19124 0.09809
 H744 H 0.56152 0.12404 0.00118
 C745 C 0.00981 0.22010 0.90136
 C746 C -0.01794 0.18391 0.91995
 C747 C 0.00131 0.14408 0.95020
 C748 C -0.02787 0.10882 0.96783
 H749 H -0.05431 0.17987 0.90900
 H750 H 0.03975 0.14036 0.95218
 H751 H 0.04622 0.22209 0.91334
 H752 H -0.06578 0.11383 0.96390
 C753 C 0.52022 0.69769 0.40717
 C754 C 0.49208 0.67852 0.44379
 C755 C 0.50579 0.63272 0.46706
 C756 C 0.47583 0.60825 0.49815
 H757 H 0.45722 0.69401 0.45302
 H758 H 0.53893 0.61606 0.45355
 H759 H 0.55398 0.67998 0.39749
 H760 H 0.44230 0.62452 0.51103
 C761 C 0.47992 0.77847 0.40237
 C762 C 0.50017 0.80078 0.43985
 C763 C 0.48024 0.84671 0.45844
 C764 C 0.50335 0.87392 0.49017
 H765 H 0.53369 0.78759 0.45329
 H766 H 0.44864 0.86078 0.44164
 H767 H 0.44712 0.79359 0.38898
 H768 H 0.53552 0.86032 0.50620
 C769 C 0.00070 0.30771 0.87397
 C770 C 0.00758 0.32475 0.91947
 C771 C 0.00568 0.37728 0.92811
 C772 C 0.00895 0.39674 0.97305
 H773 H 0.01293 0.30064 0.95027
 H774 H -0.00010 0.40058 0.89668
 H775 H -0.00608 0.33373 0.84505
 H776 H 0.01422 0.37371 1.00476
 C777 C 0.49262 0.28929 0.12467
 C778 C 0.48079 0.30747 0.08063
 C779 C 0.48483 0.36003 0.07188
 C780 C 0.47373 0.38222 0.02961
 H781 H 0.46903 0.28444 0.05154
 H782 H 0.49844 0.38135 0.10148
 H783 H 0.50369 0.31465 0.15213
 H784 H 0.46021 0.36163 -0.00050
 C785 C 0.03603 0.77777 0.59327
 C786 C 0.00587 0.80281 0.56524
 C787 C 0.02079 0.84883 0.54108
 C788 C -0.00848 0.87403 0.51239
 H789 H -0.03112 0.79209 0.56325
 H790 H 0.05377 0.86499 0.55223
 H791 H 0.07339 0.78823 0.59104
 H792 H -0.04147 0.85768 0.50157
 C793 C 0.24756 0.35106 0.04357
 C794 C 0.21436 0.35093 0.08112
 C795 C 0.22766 0.33008 0.12814
 C796 C 0.19636 0.31497 0.16389
 H797 H 0.17931 0.36698 0.07811
 H798 H 0.26575 0.32586 0.13265
 H799 H 0.28175 0.33365 0.04919
 H800 H 0.15817 0.31861 0.16003
 C801 C 0.74590 0.84895 0.53439
 C802 C 0.71352 0.83771 0.57090
 C803 C 0.72661 0.80261 0.60852
 C804 C 0.70238 0.79800 0.65219
 H805 H 0.67922 0.85571 0.57489
 H806 H 0.76011 0.78357 0.60180
 H807 H 0.77921 0.82875 0.53182
 H808 H 0.66936 0.81770 0.65948
 C809 C 0.25064 0.67606 0.54530
 C810 C 0.28738 0.68430 0.57435
 C811 C 0.28316 0.72351 0.61049
 C812 C 0.30753 0.72323 0.65192
 H813 H 0.31788 0.66028 0.57482
 H814 H 0.25357 0.74837 0.60703
 H815 H 0.22140 0.70190 0.54617
 H816 H 0.33618 0.69746 0.65622
 C817 C 0.74655 0.15101 0.04288
 C818 C 0.77676 0.15463 0.07988
 C819 C 0.76067 0.17866 0.12549
 C820 C 0.79042 0.19169 0.16043
 H821 H 0.81299 0.14089 0.07696
 H822 H 0.72281 0.18705 0.12968
 H823 H 0.71098 0.16651 0.04800
 H824 H 0.82838 0.18401 0.15642
 C825 C 0.75631 0.16776 0.95496
 C826 C 0.71615 0.18384 0.93520
 C827 C 0.72061 0.21989 0.89563
 C828 C 0.69426 0.21735 0.85585
 H829 H 0.68177 0.16735 0.94441
 H830 H 0.75240 0.24220 0.89464
 H831 H 0.78978 0.18548 0.94396
 H832 H 0.66369 0.19347 0.85601
 C833 C 0.25557 0.65196 0.45910
 C834 C 0.22609 0.64889 0.42135
 C835 C 0.24343 0.66560 0.37243
 C836 C 0.21467 0.68003 0.33686
 H837 H 0.19018 0.63462 0.42591
 H838 H 0.28189 0.66967 0.36714
 H839 H 0.29073 0.66777 0.45197
 H840 H 0.17615 0.67730 0.34217
 C841 C 0.73651 0.86116 0.44716
 C842 C 0.77283 0.85309 0.41378
 C843 C 0.76304 0.82634 0.36904
 C844 C 0.79626 0.81425 0.33375
 H845 H 0.80878 0.86574 0.41925
 H846 H 0.72607 0.81595 0.36527
 H847 H 0.70190 0.84520 0.44109
 H848 H 0.83338 0.82437 0.33660
 C849 C 0.25802 0.33953 0.95557
 C850 C 0.29242 0.34388 0.91958
 C851 C 0.29356 0.30892 0.87921
 C852 C 0.30564 0.32267 0.83296
 H853 H 0.31518 0.37523 0.91624
 H854 H 0.27508 0.27505 0.88576
 H855 H 0.23580 0.30748 0.95581
 H856 H 0.32307 0.35699 0.82656
 C857 C 0.85795 0.44766 0.77547
 C858 C 0.82065 0.42834 0.75404
 C859 C 0.80581 0.37892 0.76541
 C860 C 0.77241 0.35827 0.73942
 H861 H 0.80239 0.44866 0.72624
 H862 H 0.82323 0.35897 0.79405
 H863 H 0.87678 0.42630 0.80210
 H864 H 0.75564 0.37844 0.71050
 C865 C 0.32170 0.96114 0.24219
 C866 C 0.31538 0.92416 0.27330
 C867 C 0.29089 0.88100 0.25779
 C868 C 0.30028 0.83952 0.27985
 H869 H 0.33190 0.92351 0.30865
 H870 H 0.26868 0.88237 0.22605
 H871 H 0.30387 0.96068 0.20743
 H872 H 0.32389 0.83869 0.31050
 C873 C 0.18827 0.97516 0.74231
 C874 C 0.21418 0.95479 0.70494
 C875 C 0.24142 0.90981 0.71048
 C876 C 0.23149 0.87904 0.74770
 H877 H 0.21131 0.96847 0.66765
 H878 H 0.26466 0.89872 0.67944
 H879 H 0.19512 0.96539 0.78008
 H880 H 0.20594 0.88837 0.77729
 C881 C 0.66588 0.46799 0.27076
 C882 C 0.67837 0.43321 0.23859
 C883 C 0.70701 0.39138 0.25324
 C884 C 0.70758 0.35214 0.22505
 H885 H 0.66317 0.43232 0.20260
 H886 H 0.72357 0.39102 0.28860
 H887 H 0.68267 0.46831 0.30606
 H888 H 0.68979 0.35322 0.19032
 C889 C 0.64036 0.55555 0.26578
 C890 C 0.68534 0.57164 0.26772
 C891 C 0.69418 0.62331 0.25983
 C892 C 0.73493 0.64476 0.27068
 H893 H 0.71519 0.54744 0.27232
 H894 H 0.66655 0.64353 0.24283
 H895 H 0.61207 0.58219 0.26314
 H896 H 0.76269 0.62385 0.28740
 C897 C 0.17552 0.05927 0.72200
 C898 C 0.18120 0.09416 0.75482
 C899 C 0.20477 0.13907 0.73951
 C900 C 0.20331 0.17697 0.76934
 H901 H 0.16786 0.09020 0.79284
 H902 H 0.22308 0.14109 0.70339
 H903 H 0.19074 0.06405 0.68463
 H904 H 0.18530 0.17428 0.80561
 C905 C 0.32184 0.04535 0.26112
 C906 C 0.32008 0.08522 0.23380
 C907 C 0.29166 0.12640 0.25167
 C908 C 0.29318 0.16720 0.22600
 H909 H 0.34090 0.08873 0.19925
 H910 H 0.27101 0.12395 0.28654
 H911 H 0.29893 0.04307 0.29461
 H912 H 0.31353 0.16883 0.19089
 C913 C 0.83500 0.53294 0.76581
 C914 C 0.82323 0.56358 0.73001
 C915 C 0.79284 0.60533 0.74136
 C916 C 0.79869 0.64515 0.71404
 H917 H 0.84019 0.56174 0.69332
 H918 H 0.76961 0.60520 0.77459
 H919 H 0.81683 0.53619 0.80198
 H920 H 0.82341 0.64506 0.68193
 C921 C 0.97592 0.73776 0.15650
 C922 C 0.94967 0.76642 0.18713
 C923 C 0.90329 0.74882 0.20918
 C924 C 0.87165 0.77786 0.23314
 H925 H 0.95946 0.80383 0.19110
 H926 H 0.89268 0.71252 0.20044
 H927 H 0.96487 0.70048 0.15403
 H928 H 0.88199 0.81436 0.24136
 C929 C 0.45864 0.23625 0.63907
 C930 C 0.44290 0.24368 0.68602
 C931 C 0.39082 0.24721 0.69609
 C932 C 0.36972 0.26650 0.73690
 H933 H 0.46694 0.24714 0.71580
 H934 H 0.36865 0.23424 0.66723
 H935 H 0.43215 0.23869 0.61117
 H936 H 0.39096 0.28034 0.76600
 C937 C 0.46016 0.72473 0.85057
 C938 C 0.44197 0.74546 0.81041
 C939 C 0.39127 0.73643 0.79904
 C940 C 0.37214 0.74941 0.75621
 H941 H 0.46161 0.77350 0.79034
 H942 H 0.36793 0.72392 0.82946
 H943 H 0.43833 0.69749 0.86961
 H944 H 0.39553 0.76263 0.72612
 C945 C 0.94765 0.21781 0.34906
 C946 C 0.92884 0.23717 0.30874
 C947 C 0.88053 0.22224 0.29473
 C948 C 0.85945 0.24057 0.25526
 H949 H 0.94614 0.26732 0.28977
 H950 H 0.85966 0.20015 0.32088
 H951 H 0.92805 0.18866 0.36758
 H952 H 0.88018 0.26293 0.22930
 C953 C 0.02508 0.26730 0.34525
 C954 C 0.05016 0.24887 0.30631
 C955 C 0.09679 0.27077 0.29112
 C956 C 0.12577 0.25277 0.25499
 H957 H 0.04001 0.21471 0.29093
 H958 H 0.11047 0.29757 0.31540
 H959 H 0.03760 0.30115 0.35964
 H960 H 0.11236 0.22508 0.23136
 C961 C 0.54184 0.76781 0.84781
 C962 C 0.56451 0.74686 0.80854
 C963 C 0.61335 0.76315 0.79184
 C964 C 0.63765 0.74455 0.75234
 H965 H 0.54979 0.71475 0.79273
 H966 H 0.63168 0.78687 0.81613
 H967 H 0.55886 0.79916 0.86287
 H968 H 0.61937 0.72032 0.72844
 C969 C 0.54430 0.21120 0.65643
 C970 C 0.56152 0.23394 0.69537
 C971 C 0.60571 0.21573 0.71709
 C972 C 0.62687 0.23945 0.75293
 H973 H 0.54779 0.26893 0.70630
 H974 H 0.62554 0.18815 0.69685
 H975 H 0.55898 0.17573 0.64829
 H976 H 0.60690 0.26730 0.77276
 C977 C 0.06093 0.76928 0.14912
 C978 C 0.07968 0.74299 0.18546
 C979 C 0.12954 0.75195 0.19918
 C980 C 0.14998 0.73055 0.23770
 H981 H 0.06034 0.71248 0.20140
 H982 H 0.15120 0.77464 0.17433
 H983 H 0.08220 0.79889 0.13380
 H984 H 0.12794 0.70987 0.26392
   
