data_POSCAR
  _audit_creation_date              2014-09-24
  _audit_creation_method            'ToBaCCo'
  _symmetry_space_group_name_H-M    'P1'
  _symmetry_Int_Tables_number       1
  _symmetry_cell_setting            triclinic
  loop_
  _symmetry_equiv_pos_as_xyz
 x,y,z
_cell_length_a 19.9600
_cell_length_b 19.9599
_cell_length_c 19.9594
_cell_angle_alpha 89.448700
_cell_angle_beta 90.238600
_cell_angle_gamma 89.984900
loop_
  _atom_site_label
  _atom_site_type_symbol
  _atom_site_fract_x
  _atom_site_fract_y
  _atom_site_fract_z
O1 O 0.59135 0.49887 0.05486
 O2 O 0.40660 0.49890 0.05526
 O3 O 0.49893 0.40673 0.05437
 O4 O 0.49908 0.59098 0.05553
 O5 O 0.49835 0.59270 -0.05530
 O6 O 0.49820 0.40847 -0.05645
 O7 O 0.40586 0.50063 -0.05553
 O8 O 0.59063 0.50060 -0.05595
 Cu9 Cu 0.49905 0.49868 0.06619
 Cu10 Cu 0.49818 0.50076 -0.06699
 C11 C 0.62218 0.49984 -0.00061
 C12 C 0.37503 0.49974 -0.00005
 C13 C 0.49851 0.37653 -0.00123
 C14 C 0.49885 0.62291 0.00030
 O15 O -0.05505 0.59382 0.49901
 O16 O -0.05504 0.40907 0.49973
 O17 O -0.05517 0.50085 0.59147
 O18 O -0.05472 0.50197 0.40720
 O19 O 0.05610 0.50190 0.40796
 O20 O 0.05565 0.50078 0.59221
 O21 O 0.05575 0.40898 0.50047
 O22 O 0.05573 0.59375 0.49975
 Cu23 Cu -0.06618 0.50144 0.49927
 Cu24 Cu 0.06700 0.50137 0.50016
 C25 C 0.00035 0.62500 0.49926
 C26 C 0.00034 0.37783 0.50030
 C27 C 0.00017 0.50055 0.62292
 C28 C 0.00078 0.50212 0.37651
 O29 O 0.50122 0.05552 0.59297
 O30 O 0.49916 0.05459 0.40823
 O31 O 0.40809 0.05495 0.50125
 O32 O 0.59235 0.05495 0.49990
 O33 O 0.59243 -0.05587 0.50151
 O34 O 0.40820 -0.05588 0.50286
 O35 O 0.49925 -0.05621 0.40983
 O36 O 0.50131 -0.05527 0.59459
 Cu37 Cu 0.50022 0.06619 0.50044
 Cu38 Cu 0.50031 -0.06699 0.50238
 C39 C 0.50155 0.00029 0.62499
 C40 C 0.49884 -0.00096 0.37784
 C41 C 0.37707 -0.00049 0.50227
 C42 C 0.62346 -0.00045 0.50041
 C43 C 0.49880 0.17350 -0.12635
 C44 C 0.50176 0.12532 -0.17476
 C45 C 0.50229 0.06393 -0.14161
 N46 N 0.49989 0.07328 -0.07470
 C47 C 0.49781 0.14011 -0.06506
 C48 C 0.50281 0.00108 -0.17366
 C49 C 0.50057 -0.06169 -0.13994
 C50 C 0.49088 -0.12246 -0.17174
 C51 C 0.49033 -0.17115 -0.12272
 C52 C 0.49972 -0.13915 -0.06195
 N53 N 0.50705 -0.07252 -0.07307
 C54 C 0.50119 -0.17254 0.00104
 C55 C 0.50087 -0.14071 0.06402
 C56 C 0.49992 -0.17410 0.12531
 C57 C 0.49730 -0.12591 0.17373
 C58 C 0.49688 -0.06452 0.14059
 N59 N 0.49906 -0.07386 0.07367
 C60 C 0.49662 -0.00167 0.17263
 C61 C 0.49864 0.06111 0.13890
 C62 C 0.50826 0.12190 0.17066
 C63 C 0.50848 0.17060 0.12165
 C64 C 0.49899 0.13857 0.06091
 N65 N 0.49190 0.07192 0.07205
 C66 C 0.49725 0.17195 -0.00208
 H67 H 0.49794 0.22706 -0.13536
 H68 H 0.50295 0.13453 -0.22827
 H69 H 0.47824 0.03680 0.03672
 H70 H 0.48396 -0.13093 -0.22480
 H71 H 0.48294 -0.22416 -0.13100
 H72 H 0.50061 -0.22766 0.13432
 H73 H 0.49622 -0.13512 0.22725
 H74 H 0.51574 0.22363 0.12991
 H75 H 0.52069 -0.03741 -0.03772
 H76 H 0.51533 0.13039 0.22371
 C77 C -0.12473 0.49839 0.82623
 C78 C -0.17333 0.50083 0.87450
 C79 C -0.14038 0.50169 0.93580
 N80 N -0.07341 0.49996 0.92633
 C81 C -0.06353 0.49801 0.85949
 C82 C -0.17263 0.50202 0.99872
 C83 C -0.13909 0.50052 1.06145
 C84 C -0.17093 0.49094 1.12245
 C85 C -0.12206 0.49132 1.17104
 C86 C -0.06134 0.50112 1.13872
 N87 N -0.07236 0.50781 1.07200
 C88 C 0.00152 0.50347 1.17191
 C89 C 0.06460 0.50332 1.13992
 C90 C 0.12580 0.50288 1.17317
 C91 C 0.17438 0.50009 1.12491
 C92 C 0.14144 0.49913 1.06361
 N93 N 0.07447 0.50110 1.07308
 C94 C 0.17370 0.49855 1.00070
 C95 C 0.14016 0.50028 0.93797
 C96 C 0.17203 0.50993 0.87699
 C97 C 0.12316 0.50991 0.82841
 C98 C 0.06241 0.50019 0.86070
 N99 N 0.07341 0.49324 0.92740
 C100 C -0.00046 0.49811 0.82750
 H101 H -0.13357 0.49748 0.77271
 H102 H -0.22682 0.50151 0.86540
 H103 H 0.03812 0.47949 0.96279
 H104 H -0.22391 0.48352 1.13116
 H105 H -0.13040 0.48425 1.22419
 H106 H 0.13464 0.50395 1.22669
 H107 H 0.22787 0.49929 1.13401
 H108 H 0.13151 0.51712 0.77528
 H109 H -0.03710 0.52158 1.03659
 H110 H 0.22504 0.51722 0.86831
 C111 C 0.17352 -0.12545 0.50280
 C112 C 0.12514 -0.17409 0.49982
 C113 C 0.06389 -0.14126 0.49881
 N114 N 0.07351 -0.07430 0.50094
 C115 C 0.14038 -0.06432 0.50330
 C116 C 0.00092 -0.17366 0.49804
 C117 C -0.06174 -0.14029 0.49973
 C118 C -0.12266 -0.17242 0.50915
 C119 C -0.17115 -0.12364 0.50922
 C120 C -0.13888 -0.06269 0.49979
 N121 N -0.07228 -0.07347 0.49291
 C122 C -0.17197 0.00014 0.49792
 C123 C -0.13985 0.06328 0.49808
 C124 C -0.17298 0.12441 0.49865
 C125 C -0.12459 0.17306 0.50128
 C126 C -0.06334 0.14024 0.50206
 N127 N -0.07297 0.07327 0.50010
 C128 C -0.00036 0.17262 0.50250
 C129 C 0.06228 0.13922 0.50096
 C130 C 0.12322 0.17130 0.49147
 C131 C 0.17172 0.12253 0.49176
 C132 C 0.13942 0.06163 0.50142
 N133 N 0.07281 0.07243 0.50812
 C134 C 0.17251 -0.00119 0.50364
 H135 H 0.22703 -0.13420 0.50396
 H136 H 0.13414 -0.22755 0.49892
 H137 H 0.03752 0.03693 0.52180
 H138 H -0.13135 -0.22554 0.51623
 H139 H -0.22421 -0.13220 0.51631
 H140 H -0.22650 0.13316 0.49773
 H141 H -0.13358 0.22653 0.50213
 H142 H 0.22479 0.13105 0.48473
 H143 H -0.03698 -0.03791 0.47938
 H144 H 0.13192 0.22439 0.48417
 C145 C -0.30588 0.50034 0.99923
 C146 C -0.24542 0.50100 0.99904
 C147 C 0.30696 0.49951 1.00013
 C148 C 0.24649 0.49916 1.00036
 C149 C 0.00037 -0.30693 0.49893
 C150 C 0.00052 -0.24645 0.49858
 C151 C 0.00027 0.30588 0.50091
 C152 C 0.00007 0.24541 0.50156
 C153 C 0.50206 0.00063 -0.30694
 C154 C 0.50242 0.00088 -0.24646
 C155 C 0.49804 -0.00128 0.30590
 C156 C 0.49739 -0.00149 0.24543
 C157 C 0.49943 -0.30541 0.00069
 C158 C 0.50014 -0.24509 0.00091
 C159 C 0.49822 0.30484 -0.00166
 C160 C 0.49785 0.24452 -0.00193
 C161 C -0.30485 -0.00042 0.49961
 C162 C -0.24453 -0.00026 0.49887
 C163 C 0.30539 -0.00056 0.50277
 C164 C 0.24507 -0.00077 0.50317
 C165 C 0.00099 0.50258 1.30481
 C166 C 0.00121 0.50297 1.24448
 C167 C 0.00000 0.49980 0.69461
 C168 C -0.00017 0.49906 0.75493
   
