data_POSCAR
  _audit_creation_date              2014-09-24
  _audit_creation_method            'ToBaCCo'
  _symmetry_space_group_name_H-M    'P1'
  _symmetry_Int_Tables_number       1
  _symmetry_cell_setting            triclinic
  loop_
  _symmetry_equiv_pos_as_xyz
 x,y,z
_cell_length_a 34.5090
_cell_length_b 37.1258
_cell_length_c 35.0632
_cell_angle_alpha 90.141400
_cell_angle_beta 89.479800
_cell_angle_gamma 90.156200
loop_
  _atom_site_label
  _atom_site_type_symbol
  _atom_site_fract_x
  _atom_site_fract_y
  _atom_site_fract_z
Si1 Si 1.24943 0.24686 0.25174
 Si2 Si 0.75113 -0.25279 0.25120
 Si3 Si 0.75186 0.24957 -0.25091
 Si4 Si 1.24950 -0.25271 -0.24916
 Si5 Si 0.24844 0.25133 0.74854
 Si6 Si 0.75001 0.75029 0.74860
 Si7 Si 0.75021 0.25217 0.25004
 Si8 Si 0.24798 0.75264 0.24973
 N9 N 1.06881 0.03705 0.04059
 N10 N 1.09597 0.06104 0.04813
 N11 N 1.04091 -0.03832 0.06754
 N12 N 1.04855 -0.06240 0.09413
 N13 N 1.06810 -0.03844 0.04109
 N14 N 1.09506 -0.06232 0.04916
 N15 N 1.04159 0.03766 0.06699
 N16 N 1.04934 0.06235 0.09301
 C17 C 1.08320 0.07695 0.08065
 C18 C 1.08227 -0.07744 0.08206
 N19 N 0.93050 -0.03767 0.04132
 N20 N 0.90347 -0.06181 0.04925
 N21 N 0.95805 0.03816 0.06723
 N22 N 0.95082 0.06325 0.09306
 N23 N 0.93110 0.03795 0.04102
 N24 N 0.90474 0.06276 0.04845
 N25 N 0.95726 -0.03756 0.06770
 N26 N 0.94917 -0.06164 0.09423
 Mn27 Mn 0.99944 -0.00001 0.06774
 C28 C 0.91572 -0.07683 0.08216
 C29 C 0.91763 0.07861 0.08080
 N30 N 1.06838 -0.03897 -0.04120
 N31 N 1.09471 -0.06379 -0.04849
 N32 N 1.04227 0.03697 -0.06783
 N33 N 1.04998 0.06175 -0.09378
 N34 N 1.06926 0.03659 -0.04168
 N35 N 1.09622 0.06086 -0.04934
 N36 N 1.04173 -0.03889 -0.06769
 N37 N 1.04922 -0.06378 -0.09368
 Mn38 Mn 1.06896 -0.00095 -0.00032
 C39 C 1.08220 -0.07933 -0.08113
 C40 C 1.08359 0.07665 -0.08169
 N41 N 0.93152 0.03749 -0.04131
 N42 N 0.90485 0.06173 -0.04915
 N43 N 0.95819 -0.03853 -0.06747
 N44 N 0.95078 -0.06334 -0.09344
 N45 N 0.93094 -0.03817 -0.04108
 N46 N 0.90415 -0.06259 -0.04857
 N47 N 0.95865 0.03725 -0.06781
 N48 N 0.95115 0.06136 -0.09433
 Mn49 Mn 0.93065 -0.00011 -0.00000
 Mn50 Mn 1.00022 -0.00079 -0.06808
 Cl51 Cl 0.99980 -0.00048 -0.00016
 C52 C 0.91768 0.07673 -0.08213
 C53 C 0.91714 -0.07838 -0.08112
 N54 N 1.07048 0.53895 0.53892
 N55 N 1.09702 0.56374 0.54558
 N56 N 1.04333 0.46392 0.56684
 N57 N 1.05057 0.43960 0.59320
 N58 N 1.07028 0.46343 0.54017
 N59 N 1.09663 0.43884 0.54775
 N60 N 1.04334 0.53968 0.56539
 N61 N 1.05056 0.56518 0.59065
 C62 C 1.08399 0.58017 0.57770
 C63 C 1.08375 0.42392 0.58074
 N64 N 0.93322 0.46286 0.54105
 N65 N 0.90726 0.43763 0.54857
 N66 N 0.95995 0.53938 0.56613
 N67 N 0.95262 0.56462 0.59173
 N68 N 0.93282 0.53856 0.54014
 N69 N 0.90620 0.56314 0.54746
 N70 N 0.95987 0.46374 0.56753
 N71 N 0.95266 0.43923 0.59386
 Mn72 Mn 1.00163 0.50171 0.56687
 C73 C 0.91993 0.42291 0.58148
 C74 C 0.91916 0.57946 0.57953
 N75 N 1.07039 0.46220 0.45797
 N76 N 1.09640 0.43698 0.45115
 N77 N 1.04371 0.53766 0.43069
 N78 N 1.05113 0.56222 0.40443
 N79 N 1.07072 0.53782 0.45681
 N80 N 1.09728 0.56242 0.44896
 N81 N 1.04359 0.46191 0.43166
 N82 N 1.05056 0.43641 0.40627
 Mn83 Mn 1.07085 0.50057 0.49847
 C84 C 1.08345 0.42088 0.41898
 C85 C 1.08450 0.57771 0.41638
 N86 N 0.93310 0.53740 0.45800
 N87 N 0.90671 0.56201 0.45070
 N88 N 0.96029 0.46162 0.43223
 N89 N 0.95289 0.43674 0.40634
 N90 N 0.93323 0.46186 0.45878
 N91 N 0.90655 0.43731 0.45152
 N92 N 0.96016 0.53730 0.43143
 N93 N 0.95293 0.56188 0.40537
 Mn94 Mn 0.93269 0.50014 0.49950
 Mn95 Mn 1.00194 0.49965 0.43111
 Cl96 Cl 1.00177 0.50051 0.49899
 C97 C 0.91967 0.57731 0.41795
 C98 C 0.91945 0.42154 0.41893
 N99 N 0.56819 0.03873 0.54008
 N100 N 0.59491 0.06323 0.54755
 N101 N 0.54178 -0.03682 0.56797
 N102 N 0.54946 -0.06068 0.59465
 N103 N 0.56885 -0.03705 0.54140
 N104 N 0.59566 -0.06113 0.54935
 N105 N 0.54120 0.03876 0.56670
 N106 N 0.54891 0.06313 0.59303
 C107 C 0.58226 0.07853 0.58051
 C108 C 0.58297 -0.07593 0.58250
 N109 N 0.43151 -0.03867 0.54213
 N110 N 0.40465 -0.06274 0.55084
 N111 N 0.45772 0.03801 0.56695
 N112 N 0.45013 0.06322 0.59252
 N113 N 0.43061 0.03696 0.54093
 N114 N 0.40375 0.06132 0.54824
 N115 N 0.45823 -0.03758 0.56854
 N116 N 0.45016 -0.06075 0.59596
 Mn117 Mn 0.49972 0.00060 0.56786
 C118 C 0.41691 -0.07658 0.58432
 C119 C 0.41654 0.07778 0.58031
 N120 N 0.56912 -0.03844 0.45897
 N121 N 0.59634 -0.06234 0.45114
 N122 N 0.54146 0.03643 0.43151
 N123 N 0.54890 0.06052 0.40478
 N124 N 0.56833 0.03722 0.45778
 N125 N 0.59472 0.06189 0.44963
 N126 N 0.54216 -0.03918 0.43278
 N127 N 0.55027 -0.06359 0.40654
 Mn128 Mn 0.56901 0.00010 0.49955
 C129 C 0.58394 -0.07813 0.41855
 C130 C 0.58202 0.07648 0.41665
 N131 N 0.43083 0.03546 0.45868
 N132 N 0.40405 0.05961 0.45104
 N133 N 0.45861 -0.04029 0.43323
 N134 N 0.45063 -0.06451 0.40676
 N135 N 0.43148 -0.04006 0.45974
 N136 N 0.40424 -0.06391 0.45183
 N137 N 0.45796 0.03551 0.43219
 N138 N 0.45049 0.05987 0.40593
 Mn139 Mn 0.43075 -0.00161 0.50038
 Mn140 Mn 0.50005 -0.00189 0.43208
 Cl141 Cl 0.49990 -0.00073 0.49996
 C142 C 0.41691 0.07490 0.41826
 C143 C 0.41683 -0.07934 0.41895
 N144 N 0.45633 0.56308 -0.03891
 N145 N 0.44822 0.58819 -0.06412
 N146 N 0.42948 0.53921 0.04201
 N147 N 0.40163 0.54831 0.06630
 N148 N 0.45667 0.56404 0.04126
 N149 N 0.44812 0.59044 0.06513
 N150 N 0.42893 0.53848 -0.03794
 N151 N 0.40124 0.54644 -0.06222
 C152 C 0.41400 0.57725 -0.07877
 C153 C 0.41398 0.58011 0.08098
 N154 N 0.45704 0.43644 0.04177
 N155 N 0.44910 0.41074 0.06652
 N156 N 0.42914 0.46064 -0.03773
 N157 N 0.40162 0.45225 -0.06218
 N158 N 0.45646 0.43607 -0.03823
 N159 N 0.44825 0.41041 -0.06296
 N160 N 0.42981 0.46109 0.04235
 N161 N 0.40255 0.45264 0.06750
 Mn162 Mn 0.42899 0.49984 0.00222
 C163 C 0.41530 0.42137 0.08274
 C164 C 0.41420 0.42103 -0.07808
 N165 N 0.54008 0.56416 0.04002
 N166 N 0.54791 0.58974 0.06497
 N167 N 0.56714 0.53901 -0.04012
 N168 N 0.59444 0.54730 -0.06530
 N169 N 0.53972 0.56347 -0.04004
 N170 N 0.54755 0.58887 -0.06520
 N171 N 0.56727 0.53948 0.03998
 N172 N 0.59438 0.54773 0.06490
 Mn173 Mn 0.49821 0.56393 0.00056
 C174 C 0.58163 0.57897 0.08062
 C175 C 0.58152 0.57827 -0.08112
 N176 N 0.54008 0.43627 -0.03948
 N177 N 0.54861 0.41020 -0.06376
 N178 N 0.56754 0.46148 0.04033
 N179 N 0.59492 0.45342 0.06497
 N180 N 0.54032 0.43669 0.04065
 N181 N 0.54833 0.41132 0.06560
 N182 N 0.56736 0.46102 -0.03973
 N183 N 0.59521 0.45227 -0.06411
 Mn184 Mn 0.49847 0.43614 0.00114
 Mn185 Mn 0.56770 0.50026 0.00013
 Cl186 Cl 0.49834 0.50004 0.00102
 C187 C 0.58282 0.42074 -0.07934
 C188 C 0.58223 0.42226 0.08093
 C189 C 1.17377 0.17459 0.17172
 C190 C 1.16482 0.21110 0.17696
 C191 C 1.18774 0.23267 0.20053
 C192 C 1.21943 0.21791 0.21982
 C193 C 1.22779 0.18121 0.21510
 C194 C 1.20546 0.15985 0.19089
 C195 C 1.14996 0.15156 0.14675
 C196 C 1.16760 0.13124 0.11766
 C197 C 1.14556 0.10789 0.09529
 C198 C 1.10564 0.10388 0.10222
 C199 C 1.08787 0.12458 0.13100
 C200 C 1.10983 0.14855 0.15286
 H201 H 1.18011 0.26070 0.20430
 H202 H 1.25141 0.16871 0.22998
 H203 H 1.15997 0.09218 0.07333
 H204 H 1.05711 0.12200 0.13680
 H205 H 1.21252 0.13159 0.18760
 H206 H 1.19852 0.13333 0.11244
 H207 H 1.14035 0.22294 0.16253
 H208 H 1.09574 0.16391 0.17531
 C209 C 1.17389 0.67845 0.66790
 C210 C 1.16436 0.71451 0.67529
 C211 C 1.18727 0.73520 0.69972
 C212 C 1.21940 0.71987 0.71776
 C213 C 1.22855 0.68370 0.71059
 C214 C 1.20623 0.66327 0.68558
 C215 C 1.14992 0.65614 0.64248
 C216 C 1.16734 0.63691 0.61244
 C217 C 1.14543 0.61327 0.59035
 C218 C 1.10591 0.60796 0.59845
 C219 C 1.08825 0.62789 0.62790
 C220 C 1.11007 0.65209 0.64955
 H221 H 1.17935 0.76294 0.70507
 H222 H 1.25285 0.67091 0.72410
 H223 H 1.15973 0.59821 0.56781
 H224 H 1.05778 0.62431 0.63457
 H225 H 1.21378 0.63535 0.68054
 H226 H 1.19804 0.63983 0.60649
 H227 H 1.13943 0.72666 0.66194
 H228 H 1.09620 0.66660 0.67276
 C229 C 0.67328 0.17857 0.66995
 C230 C 0.65649 0.20131 0.69765
 C231 C 0.67970 0.22262 0.72121
 C232 C 0.72020 0.22161 0.71771
 C233 C 0.73695 0.20013 0.68910
 C234 C 0.71386 0.17853 0.66578
 C235 C 0.64874 0.15448 0.64610
 C236 C 0.65889 0.14686 0.60795
 C237 C 0.63696 0.12262 0.58638
 C238 C 0.60419 0.10578 0.60234
 C239 C 0.59336 0.11408 0.64003
 C240 C 0.61548 0.13797 0.66173
 H241 H 0.66568 0.23989 0.74190
 H242 H 0.76793 0.20020 0.68435
 H243 H 0.64581 0.11689 0.55728
 H244 H 0.56832 0.10136 0.65315
 H245 H 0.72794 0.16138 0.64487
 H246 H 0.68382 0.15960 0.59469
 H247 H 0.62532 0.20288 0.70097
 H248 H 0.60707 0.14268 0.69113
 C249 C 0.67247 0.67009 0.17942
 C250 C 0.67427 0.70711 0.17125
 C251 C 0.69763 0.73006 0.19280
 C252 C 0.71979 0.71644 0.22275
 C253 C 0.71744 0.67963 0.23149
 C254 C 0.69418 0.65662 0.20989
 C255 C 0.64827 0.64567 0.15597
 C256 C 0.66232 0.61179 0.14444
 C257 C 0.64029 0.58963 0.12066
 C258 C 0.60378 0.60090 0.10806
 C259 C 0.58930 0.63430 0.12044
 C260 C 0.61132 0.65647 0.14411
 H261 H 0.69831 0.75836 0.18586
 H262 H 0.73314 0.66849 0.25521
 H263 H 0.65216 0.56402 0.11151
 H264 H 0.56115 0.64361 0.11133
 H265 H 0.69278 0.62835 0.21733
 H266 H 0.69083 0.60289 0.15289
 H267 H 0.65807 0.71827 0.14778
 H268 H 0.59948 0.68215 0.15306
 C269 C 0.82561 -0.17762 0.17208
 C270 C 0.78533 -0.17287 0.17560
 C271 C 0.76326 -0.19557 0.19903
 C272 C 0.78091 -0.22363 0.21907
 C273 C 0.82113 -0.22823 0.21585
 C274 C 0.84323 -0.20561 0.19244
 C275 C 0.84933 -0.15284 0.14822
 C276 C 0.88548 -0.14048 0.16108
 C277 C 0.90735 -0.11631 0.13925
 C278 C 0.89352 -0.10393 0.10411
 C279 C 0.85770 -0.11666 0.09090
 C280 C 0.83579 -0.14085 0.11276
 H281 H 0.73253 -0.19055 0.20217
 H282 H 0.83587 -0.24902 0.23148
 H283 H 0.93482 -0.10687 0.15019
 H284 H 0.84640 -0.10763 0.06386
 H285 H 0.87416 -0.21011 0.19018
 H286 H 0.89648 -0.14883 0.18848
 H287 H 0.77103 -0.15102 0.16102
 H288 H 0.80830 -0.15027 0.10186
 C289 C 0.83076 0.31971 0.66931
 C290 C 0.79030 0.31877 0.66467
 C291 C 0.76710 0.29706 0.68803
 C292 C 0.78376 0.27626 0.71679
 C293 C 0.82406 0.27652 0.72120
 C294 C 0.84738 0.29790 0.69755
 C295 C 0.85520 0.34440 0.64586
 C296 C 0.88710 0.36229 0.66205
 C297 C 0.90878 0.38704 0.64075
 C298 C 0.89879 0.39479 0.60295
 C299 C 0.86748 0.37652 0.58642
 C300 C 0.84604 0.35143 0.60757
 H301 H 0.73598 0.29717 0.68427
 H302 H 0.83762 0.26069 0.74319
 H303 H 0.93270 0.40086 0.65426
 H304 H 0.85937 0.38179 0.55720
 H305 H 0.87845 0.29745 0.70151
 H306 H 0.89465 0.35804 0.69159
 H307 H 0.77636 0.33559 0.64370
 H308 H 0.82219 0.33765 0.59393
 C309 C 0.32564 -0.17438 0.67693
 C310 C 0.28515 -0.17559 0.67280
 C311 C 0.26260 -0.19876 0.69522
 C312 C 0.28000 -0.22120 0.72213
 C313 C 0.32018 -0.21918 0.72728
 C314 C 0.34284 -0.19633 0.70464
 C315 C 0.34973 -0.15006 0.65276
 C316 C 0.38228 -0.13244 0.66795
 C317 C 0.40461 -0.10923 0.64541
 C318 C 0.39463 -0.10278 0.60732
 C319 C 0.36237 -0.12050 0.59193
 C320 C 0.34026 -0.14405 0.61435
 H321 H 0.23157 -0.19896 0.69146
 H322 H 0.33433 -0.23498 0.74886
 H323 H 0.42920 -0.09571 0.65808
 H324 H 0.35418 -0.11612 0.56256
 H325 H 0.37391 -0.19620 0.70861
 H326 H 0.39008 -0.13593 0.69754
 H327 H 0.27077 -0.15833 0.65254
 H328 H 0.31586 -0.15769 0.60150
 C329 C 0.32435 0.32823 0.18057
 C330 C 0.28441 0.32462 0.17397
 C331 C 0.26216 0.30017 0.19511
 C332 C 0.27945 0.27861 0.22290
 C333 C 0.31914 0.28262 0.23006
 C334 C 0.34139 0.30712 0.20906
 C335 C 0.34835 0.35323 0.15724
 C336 C 0.38547 0.34286 0.14473
 C337 C 0.40755 0.36551 0.12139
 C338 C 0.39296 0.39900 0.10991
 C339 C 0.35623 0.40984 0.12301
 C340 C 0.33411 0.38716 0.14647
 H341 H 0.23149 0.29823 0.18962
 H342 H 0.33306 0.26737 0.25226
 H343 H 0.43574 0.35640 0.11166
 H344 H 0.34435 0.43558 0.11466
 H345 H 0.37190 0.30984 0.21544
 H346 H 0.39708 0.31674 0.15209
 H347 H 0.27044 0.34029 0.15204
 H348 H 0.30585 0.39613 0.15613
 C349 C 0.82816 0.17588 -0.17294
 C350 C 0.80545 0.20350 -0.15685
 C351 C 0.78269 0.22548 -0.17997
 C352 C 0.78190 0.22013 -0.21960
 C353 C 0.80490 0.19289 -0.23571
 C354 C 0.82765 0.17092 -0.21269
 C355 C 0.85206 0.15208 -0.14853
 C356 C 0.88907 0.14089 -0.16073
 C357 C 0.91072 0.11702 -0.13875
 C358 C 0.89588 0.10384 -0.10406
 C359 C 0.85935 0.11567 -0.09133
 C360 C 0.83766 0.13953 -0.11333
 H361 H 0.76618 0.24686 -0.16669
 H362 H 0.80576 0.18860 -0.26612
 H363 H 0.93889 0.10854 -0.14919
 H364 H 0.84716 0.10592 -0.06471
 H365 H 0.84451 0.14973 -0.22603
 H366 H 0.90130 0.15056 -0.18735
 H367 H 0.80573 0.20847 -0.12641
 H368 H 0.80913 0.14733 -0.10328
 C369 C 0.83049 0.67688 0.32849
 C370 C 0.80661 0.70347 0.34484
 C371 C 0.78298 0.72470 0.32191
 C372 C 0.78305 0.71987 0.28226
 C373 C 0.80687 0.69344 0.26585
 C374 C 0.83040 0.67213 0.28871
 C375 C 0.85450 0.65333 0.35279
 C376 C 0.89191 0.64309 0.34094
 C377 C 0.91351 0.61902 0.36262
 C378 C 0.89816 0.60483 0.39662
 C379 C 0.86130 0.61586 0.40912
 C380 C 0.83964 0.63983 0.38738
 H381 H 0.76466 0.74466 0.33539
 H382 H 0.80692 0.68899 0.23531
 H383 H 0.94199 0.61113 0.35247
 H384 H 0.84876 0.60527 0.43522
 H385 H 0.84787 0.65140 0.27530
 H386 H 0.90440 0.65353 0.31476
 H387 H 0.80628 0.70795 0.37537
 H388 H 0.81075 0.64688 0.39706
 C389 C 0.32824 0.17526 0.32863
 C390 C 0.29934 0.19717 0.34503
 C391 C 0.27589 0.21859 0.32215
 C392 C 0.28113 0.21886 0.28248
 C393 C 0.31053 0.19782 0.26604
 C394 C 0.33369 0.17601 0.28882
 C395 C 0.35176 0.15094 0.35279
 C396 C 0.39090 0.14413 0.34389
 C397 C 0.41229 0.11979 0.36550
 C398 C 0.39513 0.10211 0.39672
 C399 C 0.35641 0.10955 0.40630
 C400 C 0.33488 0.13351 0.38444
 H401 H 0.25359 0.23470 0.33568
 H402 H 0.31526 0.19794 0.23546
 H403 H 0.44222 0.11469 0.35769
 H404 H 0.34240 0.09611 0.43011
 H405 H 0.35526 0.15917 0.27510
 H406 H 0.40505 0.15758 0.32019
 H407 H 0.29482 0.19784 0.37562
 H408 H 0.30467 0.13757 0.39177
 C409 C 0.32372 0.66878 -0.17586
 C410 C 0.29200 0.68690 -0.15950
 C411 C 0.27030 0.71091 -0.18119
 C412 C 0.27967 0.71674 -0.21967
 C413 C 0.31101 0.69820 -0.23617
 C414 C 0.33320 0.67474 -0.21431
 C415 C 0.34707 0.64396 -0.15268
 C416 C 0.38744 0.64815 -0.15094
 C417 C 0.40933 0.62598 -0.12735
 C418 C 0.39128 0.59882 -0.10573
 C419 C 0.35105 0.59387 -0.10845
 C420 C 0.32905 0.61653 -0.13145
 H421 H 0.24596 0.72449 -0.16790
 H422 H 0.31824 0.70178 -0.26604
 H423 H 0.44033 0.63029 -0.12573
 H424 H 0.33645 0.57320 -0.09193
 H425 H 0.35736 0.66079 -0.22755
 H426 H 0.40185 0.66925 -0.16702
 H427 H 0.28433 0.68277 -0.12980
 H428 H 0.29795 0.61273 -0.13263
 C429 C 1.17266 -0.18098 -0.16924
 C430 C 1.15647 -0.21116 -0.18748
 C431 C 1.17936 -0.23310 -0.21098
 C432 C 1.21861 -0.22489 -0.21702
 C433 C 1.23505 -0.19533 -0.19825
 C434 C 1.21230 -0.17350 -0.17461
 C435 C 1.14827 -0.15684 -0.14537
 C436 C 1.16228 -0.14314 -0.11073
 C437 C 1.14031 -0.11868 -0.08936
 C438 C 1.10397 -0.10726 -0.10231
 C439 C 1.08949 -0.12159 -0.13645
 C440 C 1.11140 -0.14622 -0.15774
 H441 H 1.16633 -0.25646 -0.22422
 H442 H 1.26544 -0.18884 -0.20223
 H443 H 1.15213 -0.10820 -0.06306
 H444 H 1.06155 -0.11327 -0.14707
 H445 H 1.22552 -0.15028 -0.16117
 H446 H 1.19036 -0.15124 -0.10025
 H447 H 1.12619 -0.21792 -0.18332
 H448 H 1.10001 -0.15611 -0.18448
 C449 C 1.17237 0.31850 0.33110
 C450 C 1.15626 0.28812 0.31317
 C451 C 1.17912 0.26635 0.28949
 C452 C 1.21818 0.27497 0.28303
 C453 C 1.23445 0.30491 0.30127
 C454 C 1.21175 0.32654 0.32508
 C455 C 1.14815 0.34238 0.35527
 C456 C 1.16259 0.35618 0.38968
 C457 C 1.14099 0.38090 0.41102
 C458 C 1.10464 0.39239 0.39825
 C459 C 1.08963 0.37775 0.36449
 C460 C 1.11117 0.35289 0.34321
 H461 H 1.16626 0.24273 0.27658
 H462 H 1.26472 0.31169 0.29699
 H463 H 1.15316 0.39162 0.43707
 H464 H 1.06163 0.38611 0.35405
 H465 H 1.22483 0.34998 0.33822
 H466 H 1.19078 0.34811 0.39988
 H467 H 1.12613 0.28104 0.31780
 H468 H 1.09948 0.34287 0.31665
 C469 C 0.67493 -0.17739 0.32773
 C470 C 0.65806 -0.20676 0.30860
 C471 C 0.68068 -0.22926 0.28548
 C472 C 0.72047 -0.22275 0.28112
 C473 C 0.73742 -0.19347 0.29998
 C474 C 0.71488 -0.17098 0.32314
 C475 C 0.65089 -0.15323 0.35197
 C476 C 0.66495 -0.14021 0.38692
 C477 C 0.64284 -0.11640 0.40903
 C478 C 0.60629 -0.10509 0.39658
 C479 C 0.59191 -0.11862 0.36203
 C480 C 0.61397 -0.14245 0.33996
 H481 H 0.66703 -0.25190 0.27144
 H482 H 0.76814 -0.18806 0.29684
 H483 H 0.65458 -0.10648 0.43561
 H484 H 0.56384 -0.11032 0.35170
 H485 H 0.72860 -0.14828 0.33704
 H486 H 0.69305 -0.14846 0.39718
 H487 H 0.62747 -0.21263 0.31192
 H488 H 0.60252 -0.15172 0.31300
 C489 C 0.67602 0.32783 -0.17607
 C490 C 0.67277 0.29023 -0.17198
 C491 C 0.69555 0.26708 -0.19422
 C492 C 0.72203 0.28094 -0.22098
 C493 C 0.72583 0.31839 -0.22472
 C494 C 0.70294 0.34160 -0.20266
 C495 C 0.65163 0.35251 -0.15253
 C496 C 0.66697 0.38492 -0.13815
 C497 C 0.64432 0.40758 -0.11517
 C498 C 0.60594 0.39823 -0.10588
 C499 C 0.59035 0.36621 -0.12073
 C500 C 0.61289 0.34366 -0.14387
 H501 H 0.69254 0.23825 -0.19050
 H502 H 0.74637 0.32998 -0.24467
 H503 H 0.65715 0.43202 -0.10397
 H504 H 0.56077 0.35841 -0.11420
 H505 H 0.70600 0.37035 -0.20681
 H506 H 0.69681 0.39238 -0.14385
 H507 H 0.65295 0.27867 -0.15124
 H508 H 0.59992 0.31929 -0.15505
 C509 C 1.17294 0.17683 -0.17228
 C510 C 1.20463 0.16270 -0.19258
 C511 C 1.22677 0.18471 -0.21660
 C512 C 1.21830 0.22150 -0.22001
 C513 C 1.18657 0.23565 -0.19962
 C514 C 1.16379 0.21342 -0.17625
 C515 C 1.14942 0.15309 -0.14741
 C516 C 1.10933 0.14966 -0.15286
 C517 C 1.08771 0.12504 -0.13119
 C518 C 1.10574 0.10410 -0.10317
 C519 C 1.14561 0.10849 -0.09689
 C520 C 1.16734 0.13248 -0.11912
 H521 H 1.25040 0.17263 -0.23232
 H522 H 1.17884 0.26374 -0.20232
 H523 H 1.05698 0.12219 -0.13649
 H524 H 1.16024 0.09261 -0.07555
 H525 H 1.13931 0.22481 -0.16094
 H526 H 1.09503 0.16522 -0.17469
 H527 H 1.21185 0.13441 -0.19030
 H528 H 1.19822 0.13484 -0.11441
 C529 C 1.17340 0.67945 0.32651
 C530 C 1.21195 0.67054 0.31752
 C531 C 1.23430 0.69285 0.29400
 C532 C 1.21857 0.72451 0.27882
 C533 C 1.18037 0.73402 0.28865
 C534 C 1.15784 0.71145 0.31189
 C535 C 1.14963 0.65514 0.35084
 C536 C 1.11154 0.64611 0.34056
 C537 C 1.09007 0.62137 0.36222
 C538 C 1.10616 0.60549 0.39475
 C539 C 1.14379 0.61534 0.40565
 C540 C 1.16537 0.63978 0.38382
 H541 H 1.26394 0.68517 0.28780
 H542 H 1.16785 0.75896 0.27876
 H543 H 1.06109 0.61432 0.35320
 H544 H 1.15690 0.60361 0.43065
 H545 H 1.12843 0.71928 0.31896
 H546 H 1.09880 0.65738 0.31514
 H547 H 1.22467 0.64598 0.32827
 H548 H 1.19448 0.64660 0.39265
 C549 C 0.67206 0.17658 0.32569
 C550 C 0.71246 0.17209 0.32417
 C551 C 0.73549 0.19447 0.30140
 C552 C 0.71875 0.22172 0.27944
 C553 C 0.67842 0.22645 0.28103
 C554 C 0.65527 0.20401 0.30381
 C555 C 0.64774 0.15258 0.34995
 C556 C 0.61214 0.13927 0.33668
 C557 C 0.59031 0.11515 0.35874
 C558 C 0.60365 0.10387 0.39449
 C559 C 0.63871 0.11786 0.40821
 C560 C 0.66051 0.14197 0.38619
 H561 H 0.76644 0.19063 0.30159
 H562 H 0.66464 0.24775 0.26524
 H563 H 0.56338 0.10478 0.34744
 H564 H 0.64959 0.10981 0.43577
 H565 H 0.62430 0.20854 0.30484
 H566 H 0.60167 0.14668 0.30876
 H567 H 0.72630 0.15101 0.34037
 H568 H 0.68746 0.15225 0.39751
 C569 C 0.67182 0.67088 -0.18050
 C570 C 0.69824 0.65756 -0.20780
 C571 C 0.72139 0.68114 -0.22917
 C572 C 0.71874 0.71848 -0.22355
 C573 C 0.69185 0.73191 -0.19695
 C574 C 0.66876 0.70839 -0.17548
 C575 C 0.64793 0.64585 -0.15695
 C576 C 0.60933 0.65435 -0.14756
 C577 C 0.58752 0.63187 -0.12370
 C578 C 0.60374 0.60030 -0.10879
 C579 C 0.64190 0.59114 -0.11899
 C580 C 0.66380 0.61372 -0.14278
 H581 H 0.74117 0.66996 -0.25010
 H582 H 0.68896 0.76066 -0.19255
 H583 H 0.55807 0.63949 -0.11653
 H584 H 0.65517 0.56702 -0.10781
 H585 H 0.64901 0.71958 -0.15445
 H586 H 0.59597 0.67849 -0.15858
 H587 H 0.70077 0.62889 -0.21292
 H588 H 0.69356 0.60655 -0.14912
 C589 C 0.82885 -0.17959 -0.17164
 C590 C 0.83414 -0.17943 -0.21147
 C591 C 0.81106 -0.20098 -0.23486
 C592 C 0.78160 -0.22253 -0.21917
 C593 C 0.77713 -0.22379 -0.17939
 C594 C 0.80041 -0.20247 -0.15587
 C595 C 0.85236 -0.15544 -0.14689
 C596 C 0.83559 -0.13867 -0.11473
 C597 C 0.85698 -0.11441 -0.09271
 C598 C 0.89549 -0.10609 -0.10257
 C599 C 0.91260 -0.12334 -0.13413
 C600 C 0.89136 -0.14788 -0.15593
 H601 H 0.81660 -0.20087 -0.26523
 H602 H 0.75583 -0.24117 -0.16617
 H603 H 0.84301 -0.10140 -0.06859
 H604 H 0.94236 -0.11765 -0.14219
 H605 H 0.79626 -0.20410 -0.12528
 H606 H 0.80552 -0.14342 -0.10718
 H607 H 0.85567 -0.16218 -0.22475
 H608 H 0.90550 -0.16084 -0.17996
 C609 C 0.83032 0.32110 0.32873
 C610 C 0.80172 0.29853 0.34476
 C611 C 0.77791 0.27763 0.32144
 C612 C 0.78253 0.27860 0.28172
 C613 C 0.81153 0.30032 0.26559
 C614 C 0.83509 0.32155 0.28882
 C615 C 0.85409 0.34505 0.35334
 C616 C 0.89307 0.35238 0.34411
 C617 C 0.91457 0.37672 0.36589
 C618 C 0.89768 0.39394 0.39757
 C619 C 0.85918 0.38584 0.40760
 C620 C 0.83754 0.36182 0.38560
 H621 H 0.75566 0.26116 0.33461
 H622 H 0.81542 0.30143 0.23493
 H623 H 0.94432 0.38230 0.35771
 H624 H 0.84539 0.39888 0.43180
 H625 H 0.85633 0.33901 0.27541
 H626 H 0.90697 0.33943 0.31993
 H627 H 0.79764 0.29705 0.37536
 H628 H 0.80747 0.35729 0.39325
 C629 C 0.32561 -0.17758 0.32711
 C630 C 0.29547 -0.19858 0.34282
 C631 C 0.27187 -0.21975 0.31948
 C632 C 0.27805 -0.22079 0.27982
 C633 C 0.30870 -0.20051 0.26418
 C634 C 0.33196 -0.17896 0.28743
 C635 C 0.34967 -0.15374 0.35181
 C636 C 0.38913 -0.14766 0.34341
 C637 C 0.41110 -0.12390 0.36553
 C638 C 0.39430 -0.10603 0.39686
 C639 C 0.35526 -0.11273 0.40597
 C640 C 0.33313 -0.13609 0.38358
 H641 H 0.24877 -0.23507 0.33281
 H642 H 0.31447 -0.20098 0.23375
 H643 H 0.44124 -0.11941 0.35801
 H644 H 0.34146 -0.09915 0.42983
 H645 H 0.35446 -0.16284 0.27412
 H646 H 0.40314 -0.16128 0.31971
 H647 H 0.29012 -0.19884 0.37328
 H648 H 0.30275 -0.13952 0.39064
 C649 C 0.32306 0.33041 -0.17768
 C650 C 0.28296 0.32694 -0.17113
 C651 C 0.26078 0.30333 -0.19317
 C652 C 0.27825 0.28249 -0.22189
 C653 C 0.31807 0.28648 -0.22907
 C654 C 0.34028 0.31010 -0.20713
 C655 C 0.34697 0.35456 -0.15348
 C656 C 0.38393 0.34367 -0.14162
 C657 C 0.40602 0.36566 -0.11782
 C658 C 0.39166 0.39904 -0.10524
 C659 C 0.35505 0.41032 -0.11754
 C660 C 0.33291 0.38829 -0.14143
 H661 H 0.23002 0.30142 -0.18759
 H662 H 0.33218 0.27183 -0.25193
 H663 H 0.43411 0.35620 -0.10871
 H664 H 0.34331 0.43596 -0.10836
 H665 H 0.37091 0.31277 -0.21353
 H666 H 0.39542 0.31768 -0.14997
 H667 H 0.26881 0.34202 -0.14852
 H668 H 0.30480 0.39769 -0.15052
 C669 C 1.17251 -0.17524 0.17334
 C670 C 1.20545 -0.16113 0.19117
 C671 C 1.22806 -0.18272 0.21474
 C672 C 1.21887 -0.21929 0.22031
 C673 C 1.18577 -0.23334 0.20230
 C674 C 1.16261 -0.21145 0.17940
 C675 C 1.14870 -0.15191 0.14864
 C676 C 1.10870 -0.14817 0.15528
 C677 C 1.08689 -0.12416 0.13345
 C678 C 1.10459 -0.10413 0.10409
 C679 C 1.14435 -0.10879 0.09675
 C680 C 1.16626 -0.13215 0.11908
 H681 H 1.25258 -0.17027 0.22832
 H682 H 1.17722 -0.26115 0.20638
 H683 H 1.05627 -0.12112 0.13963
 H684 H 1.15877 -0.09366 0.07437
 H685 H 1.13723 -0.22291 0.16600
 H686 H 1.09461 -0.16304 0.17806
 H687 H 1.21337 -0.13311 0.18729
 H688 H 1.19703 -0.13475 0.11335
 C689 C 1.17232 0.32391 0.67060
 C690 C 1.21183 0.33144 0.67598
 C691 C 1.23419 0.30962 0.69946
 C692 C 1.21749 0.27996 0.71801
 C693 C 1.17825 0.27194 0.71231
 C694 C 1.15575 0.29389 0.68897
 C695 C 1.14852 0.34769 0.64633
 C696 C 1.11135 0.35844 0.65837
 C697 C 1.08992 0.38266 0.63662
 C698 C 1.10517 0.39643 0.60235
 C699 C 1.14183 0.38489 0.58975
 C700 C 1.16334 0.36083 0.61157
 H701 H 1.26457 0.31598 0.70320
 H702 H 1.16500 0.24858 0.72546
 H703 H 1.06171 0.39108 0.64699
 H704 H 1.15423 0.39496 0.56336
 H705 H 1.12552 0.28715 0.68485
 H706 H 1.09934 0.34897 0.68517
 H707 H 1.22531 0.35457 0.66251
 H708 H 1.19167 0.35259 0.60134
 C709 C 0.67290 -0.17472 0.67310
 C710 C 0.71323 -0.16979 0.67466
 C711 C 0.73597 -0.19197 0.69742
 C712 C 0.71897 -0.21942 0.71933
 C713 C 0.67872 -0.22458 0.71768
 C714 C 0.65587 -0.20238 0.69490
 C715 C 0.64882 -0.15090 0.64895
 C716 C 0.61281 -0.13823 0.66228
 C717 C 0.59103 -0.11446 0.64031
 C718 C 0.60482 -0.10286 0.60456
 C719 C 0.64036 -0.11612 0.59081
 C720 C 0.66212 -0.13990 0.61276
 H721 H 0.76690 -0.18780 0.69729
 H722 H 0.66476 -0.24607 0.73341
 H723 H 0.56374 -0.10465 0.65165
 H724 H 0.65159 -0.10778 0.56327
 H725 H 0.62496 -0.20727 0.69383
 H726 H 0.60193 -0.14591 0.69017
 H727 H 0.72725 -0.14853 0.65852
 H728 H 0.68943 -0.14968 0.60140
 C729 C 0.67270 0.33072 0.17922
 C730 C 0.69876 0.34436 0.20629
 C731 C 0.72176 0.32104 0.22760
 C732 C 0.71932 0.28366 0.22213
 C733 C 0.69286 0.26993 0.19569
 C734 C 0.66992 0.29318 0.17430
 C735 C 0.64881 0.35546 0.15589
 C736 C 0.61033 0.34650 0.14698
 C737 C 0.58849 0.36871 0.12338
 C738 C 0.60454 0.40047 0.10825
 C739 C 0.64258 0.41006 0.11796
 C740 C 0.66453 0.38775 0.14149
 H741 H 0.74123 0.33244 0.24839
 H742 H 0.69014 0.24114 0.19140
 H743 H 0.55913 0.36075 0.11659
 H744 H 0.65572 0.43434 0.10661
 H745 H 0.65047 0.28175 0.15343
 H746 H 0.59708 0.32222 0.15818
 H747 H 0.70109 0.37306 0.21131
 H748 H 0.69419 0.39527 0.14748
 C749 C 0.82995 0.18165 0.17056
 C750 C 0.83477 0.18192 0.21035
 C751 C 0.81152 0.20368 0.23363
 C752 C 0.78232 0.22501 0.21789
 C753 C 0.77841 0.22595 0.17812
 C754 C 0.80188 0.20443 0.15470
 C755 C 0.85342 0.15706 0.14597
 C756 C 0.83676 0.14007 0.11413
 C757 C 0.85801 0.11535 0.09232
 C758 C 0.89624 0.10676 0.10207
 C759 C 0.91327 0.12422 0.13330
 C760 C 0.89218 0.14924 0.15488
 H761 H 0.81667 0.20385 0.26398
 H762 H 0.75734 0.24318 0.16484
 H763 H 0.84410 0.10220 0.06846
 H764 H 0.94283 0.11833 0.14125
 H765 H 0.79812 0.20577 0.12412
 H766 H 0.80686 0.14498 0.10670
 H767 H 0.85601 0.16478 0.22371
 H768 H 0.90625 0.16234 0.17866
 C769 C 0.83066 0.68133 0.66950
 C770 C 0.83522 0.68121 0.70936
 C771 C 0.81161 0.70256 0.73269
 C772 C 0.78277 0.72410 0.71673
 C773 C 0.77844 0.72482 0.67705
 C774 C 0.80230 0.70378 0.65362
 C775 C 0.85431 0.65707 0.64485
 C776 C 0.83768 0.63987 0.61312
 C777 C 0.85916 0.61546 0.59120
 C778 C 0.89756 0.60742 0.60075
 C779 C 0.91454 0.62509 0.63187
 C780 C 0.89321 0.64979 0.65358
 H781 H 0.81525 0.70163 0.76333
 H782 H 0.75632 0.74114 0.66402
 H783 H 0.84530 0.60209 0.56744
 H784 H 0.94423 0.61957 0.63966
 H785 H 0.79839 0.70499 0.62306
 H786 H 0.80766 0.64436 0.60589
 H787 H 0.85629 0.66385 0.72265
 H788 H 0.90715 0.66306 0.67733
 C789 C 0.32772 0.17988 0.66991
 C790 C 0.33315 0.18083 0.70964
 C791 C 0.30995 0.20269 0.73285
 C792 C 0.28054 0.22368 0.71699
 C793 C 0.27532 0.22325 0.67739
 C794 C 0.29878 0.20170 0.65405
 C795 C 0.35131 0.15538 0.64540
 C796 C 0.33451 0.13751 0.61417
 C797 C 0.35606 0.11307 0.59233
 C798 C 0.39472 0.10565 0.60148
 C799 C 0.41183 0.12393 0.63212
 C800 C 0.39043 0.14868 0.65372
 H801 H 0.31458 0.20281 0.76336
 H802 H 0.25295 0.23924 0.66431
 H803 H 0.34209 0.09922 0.56894
 H804 H 0.44171 0.11891 0.63960
 H805 H 0.29421 0.20215 0.62355
 H806 H 0.30433 0.14154 0.60725
 H807 H 0.35471 0.16404 0.72298
 H808 H 0.40455 0.16248 0.67703
 C809 C 0.32196 0.67475 0.17702
 C810 C 0.33827 0.69336 0.20791
 C811 C 0.31600 0.71730 0.22969
 C812 C 0.27694 0.72366 0.22081
 C813 C 0.26047 0.70458 0.19031
 C814 C 0.28274 0.68052 0.16857
 C815 C 0.34589 0.64964 0.15358
 C816 C 0.33069 0.61657 0.14085
 C817 C 0.35307 0.59349 0.11800
 C818 C 0.39102 0.60309 0.10726
 C819 C 0.40640 0.63587 0.12044
 C820 C 0.38413 0.65884 0.14337
 H821 H 0.32946 0.73002 0.25399
 H822 H 0.23036 0.70789 0.18309
 H823 H 0.34046 0.56838 0.10828
 H824 H 0.43553 0.64405 0.11258
 H825 H 0.26933 0.66672 0.14484
 H826 H 0.30151 0.60850 0.14866
 H827 H 0.36815 0.68888 0.21573
 H828 H 0.39656 0.68425 0.15236
   
