data_POSCAR
  _audit_creation_date              2014-09-24
  _audit_creation_method            'ToBaCCo'
  _symmetry_space_group_name_H-M    'P1'
  _symmetry_Int_Tables_number       1
  _symmetry_cell_setting            triclinic
  loop_
  _symmetry_equiv_pos_as_xyz
 x,y,z
_cell_length_a 25.3676
_cell_length_b 25.3633
_cell_length_c 25.2794
_cell_angle_alpha 90.129400
_cell_angle_beta 89.547700
_cell_angle_gamma 89.987300
loop_
  _atom_site_label
  _atom_site_type_symbol
  _atom_site_fract_x
  _atom_site_fract_y
  _atom_site_fract_z
C1 C 0.31254 0.37664 1.38398
 C2 C 0.33337 0.40078 1.33839
 C3 C 0.37773 0.37948 1.31257
 C4 C 0.40227 0.33459 1.33365
 C5 C 0.38279 0.31095 1.37995
 C6 C 0.33796 0.33227 1.40480
 H7 H 0.31390 0.43495 1.32179
 H8 H 0.43625 0.31750 1.31399
 H9 H 0.32196 0.31335 1.43954
 C10 C 1.18877 0.62019 0.88197
 C11 C 1.16464 0.66451 0.90507
 C12 C 1.11891 0.68627 0.88309
 C13 C 1.09607 0.66219 0.83894
 C14 C 1.11960 0.61780 0.81552
 C15 C 1.16582 0.59696 0.83716
 H16 H 1.18244 0.68271 0.93932
 H17 H 1.06118 0.67949 0.82181
 H18 H 1.18385 0.56304 0.81835
 C19 C 0.68822 -0.12218 0.11140
 C20 C 0.66804 -0.09746 0.15686
 C21 C 0.62232 -0.11638 0.18167
 C22 C 0.59632 -0.16034 0.16053
 C23 C 0.61674 -0.18618 0.11577
 C24 C 0.66227 -0.16639 0.09085
 H25 H 0.68888 -0.06414 0.17342
 H26 H 0.56154 -0.17578 0.18027
 H27 H 0.67832 -0.18618 0.05646
 C28 C -0.18829 1.11806 -0.37913
 C29 C -0.16686 1.09421 -0.33390
 C30 C -0.12314 1.11639 -0.30868
 C31 C -0.09977 1.16185 -0.32973
 C32 C -0.12047 1.18616 -0.37470
 C33 C -0.16469 1.16408 -0.39935
 H34 H -0.18497 1.05953 -0.31682
 H35 H -0.06570 1.17862 -0.31079
 H36 H -0.18136 1.18340 -0.43358
 C37 C 0.68541 0.62454 0.61083
 C38 C 0.66611 0.59922 0.65622
 C39 C 0.62053 0.61759 0.68190
 C40 C 0.59379 0.66139 0.66159
 C41 C 0.61314 0.68764 0.61660
 C42 C 0.65894 0.66876 0.59123
 H43 H 0.68746 0.56589 0.67193
 H44 H 0.55929 0.67606 0.68237
 H45 H 0.67477 0.68952 0.55725
 C46 C 0.81327 0.38232 0.11630
 C47 C 0.83534 0.40678 0.16063
 C48 C 0.87891 0.38455 0.18583
 C49 C 0.90102 0.33773 0.16596
 C50 C 0.88006 0.31329 0.12081
 C51 C 0.83586 0.33585 0.09636
 H52 H 0.81726 0.44183 0.17694
 H53 H 0.93414 0.31998 0.18611
 H54 H 0.81777 0.31690 0.06269
 C55 C 0.31213 0.12043 0.88358
 C56 C 0.33754 0.16475 0.90466
 C57 C 0.38220 0.18591 0.87987
 C58 C 0.40201 0.16232 0.83382
 C59 C 0.37758 0.11752 0.81243
 C60 C 0.33310 0.09620 0.83795
 H61 H 0.32180 0.18389 0.93948
 H62 H 0.43612 0.17953 0.81461
 H63 H 0.31367 0.06207 0.82111
 C64 C 0.18962 0.87749 0.38783
 C65 C 0.16317 0.83279 0.40717
 C66 C 0.11744 0.81428 0.38230
 C67 C 0.09786 0.84104 0.33817
 C68 C 0.12435 0.88520 0.31796
 C69 C 0.17000 0.90334 0.34301
 H70 H 0.17869 0.81127 0.44055
 H71 H 0.06328 0.82643 0.31805
 H72 H 0.19105 0.93697 0.32715
 Zn73 Zn 0.01255 1.06392 -0.02866
 Zn74 Zn -0.03972 0.95826 -0.03773
 Zn75 Zn 0.06475 0.96911 0.01565
 Zn76 Zn -0.03114 1.01304 0.06787
 O77 O 0.00142 1.00097 0.00420
 O78 O -0.01954 1.06729 -0.09076
 O79 O -0.00726 0.89748 -0.05597
 O80 O 0.11944 1.00502 -0.01090
 O81 O -0.05879 0.98963 -0.09862
 O82 O 0.08047 1.07608 -0.04304
 O83 O 0.06890 0.90596 -0.01447
 O84 O 0.00572 0.98910 0.12324
 O85 O -0.10012 0.93978 -0.00530
 O86 O 0.07770 0.95803 0.08401
 O87 O -0.09347 0.98112 0.07181
 O88 O -0.04467 1.08147 0.08011
 O89 O -0.01197 1.11933 0.00817
 C90 C -0.04805 1.03524 -0.11623
 C91 C 0.03783 0.87995 -0.04349
 C92 C 0.12142 1.04870 -0.03500
 C93 C 0.05036 0.96671 0.12529
 C94 C -0.11848 0.95188 0.03996
 C95 C -0.03578 1.12215 0.05237
 Zn96 Zn 0.46934 0.01237 0.43474
 Zn97 Zn 0.45977 -0.04170 0.53982
 Zn98 Zn 0.56515 -0.03167 0.48557
 Zn99 Zn 0.51396 0.06356 0.53047
 O100 O 0.50189 0.00052 0.49780
 O101 O 0.40657 -0.01877 0.43118
 O102 O 0.49188 -0.10249 0.55781
 O103 O 0.57749 -0.04404 0.41712
 O104 O 0.39913 -0.06035 0.50786
 O105 O 0.50569 -0.01254 0.37917
 O106 O 0.56873 -0.09446 0.51626
 O107 O 0.58216 0.07550 0.54413
 O108 O 0.44073 -0.00963 0.60081
 O109 O 0.62050 0.00444 0.51050
 O110 O 0.48129 0.06748 0.59284
 O111 O 0.49054 0.11890 0.49356
 O112 O 0.45727 0.08068 0.42237
 C113 C 0.38113 -0.04815 0.46279
 C114 C 0.53709 -0.12028 0.54525
 C115 C 0.54992 -0.03560 0.37643
 C116 C 0.62300 0.04809 0.53487
 C117 C 0.45207 0.03587 0.61843
 C118 C 0.46703 0.12150 0.44958
 Zn119 Zn 1.06416 0.53049 0.51330
 Zn120 Zn 0.96702 0.48774 0.56377
 Zn121 Zn 0.96039 0.54080 0.45783
 Zn122 Zn 1.01253 0.43493 0.46910
 O123 O 1.00087 0.49865 0.50084
 O124 O 1.07574 0.54266 0.58199
 O125 O 0.90497 0.52007 0.56659
 O126 O 0.99328 0.60153 0.44010
 O127 O 1.00284 0.51195 0.61957
 O128 O 1.06882 0.59333 0.48275
 O129 O 0.89893 0.55994 0.48893
 O130 O 0.98248 0.43076 0.40613
 O131 O 0.95276 0.41988 0.57627
 O132 O 0.94333 0.50829 0.39662
 O133 O 0.98644 0.38010 0.50569
 O134 O 1.08079 0.42220 0.45664
 O135 O 1.11935 0.49396 0.48805
 C136 C 1.04732 0.53446 0.62260
 C137 C 0.88019 0.54881 0.53429
 C138 C 1.03812 0.61927 0.45333
 C139 C 0.95482 0.46250 0.37955
 C140 C 0.96169 0.37854 0.54942
 C141 C 1.12166 0.44971 0.46477
 Zn142 Zn 0.46761 0.48765 0.93434
 Zn143 Zn 0.56195 0.53294 0.98562
 Zn144 Zn 0.45624 0.54137 1.04014
 Zn145 Zn 0.51206 0.43727 1.03040
 O146 O 0.49925 0.49998 0.99780
 O147 O 0.50409 0.51245 0.87872
 O148 O 0.56457 0.59522 1.01719
 O149 O 0.39576 0.55951 1.00747
 O150 O 0.57464 0.54579 0.91732
 O151 O 0.40483 0.51831 0.93044
 O152 O 0.48767 0.60247 1.05901
 O153 O 0.48000 0.43282 1.09301
 O154 O 0.61766 0.49738 1.00980
 O155 O 0.43723 0.50871 1.10104
 O156 O 0.58029 0.42582 1.04310
 O157 O 0.48899 0.38186 0.99369
 O158 O 0.45600 0.41931 0.92211
 C159 C 0.54787 0.53637 0.87629
 C160 C 0.53282 0.62051 1.04664
 C161 C 0.37873 0.54739 0.96189
 C162 C 0.44986 0.46359 1.11868
 C163 C 0.62074 0.45357 1.03352
 C164 C 0.46574 0.37884 0.94964
 C165 C 1.22394 0.42402 0.47737
 C166 C 1.23270 0.36899 0.45210
 C167 C 1.26423 0.39512 0.40671
 C168 C 1.25607 0.44988 0.43178
 C169 C 1.21361 0.40140 0.37414
 C170 C 1.18174 0.37553 0.41957
 C171 C 1.17356 0.43016 0.44470
 C172 C 1.20483 0.45635 0.39947
 H173 H 1.22767 0.43352 0.52006
 H174 H 1.24238 0.33300 0.47491
 H175 H 1.28706 0.48036 0.43663
 H176 H 1.20955 0.39198 0.33145
 H177 H 1.15086 0.34494 0.41463
 H178 H 1.19277 0.49249 0.37804
 C179 C 0.29062 0.60896 0.96952
 C180 C 0.28464 0.63660 0.91525
 C181 C 0.23717 0.60085 0.90289
 C182 C 0.24244 0.57355 0.95691
 C183 C 0.27381 0.55969 0.87682
 C184 C 0.32159 0.59526 0.88942
 C185 C 0.32693 0.56783 0.94330
 C186 C 0.27960 0.53215 0.93100
 H187 H 0.29800 0.62905 1.00780
 H188 H 0.28659 0.67978 0.90839
 H189 H 0.20936 0.56458 0.98446
 H190 H 0.26851 0.53877 0.83864
 H191 H 0.35465 0.60425 0.86185
 H192 H 0.27794 0.48896 0.93787
 C193 C -0.22253 0.93675 0.02580
 C194 C -0.23536 0.87817 0.03795
 C195 C -0.26310 0.89564 0.08956
 C196 C -0.25101 0.95385 0.07750
 C197 C -0.21130 0.89025 0.12032
 C198 C -0.18293 0.87311 0.06862
 C199 C -0.17094 0.93127 0.05677
 C200 C -0.19878 0.94861 0.10821
 H201 H -0.22649 0.95615 -0.01329
 H202 H -0.25001 0.84939 0.00840
 H203 H -0.27942 0.98698 0.08119
 H204 H -0.20702 0.87092 0.15942
 H205 H -0.15433 0.84016 0.06485
 H206 H -0.18348 0.97773 0.13712
 C207 C 0.68329 0.07660 0.61498
 C208 C 0.73613 0.04633 0.61160
 C209 C 0.76436 0.09840 0.59777
 C210 C 0.71190 0.12877 0.60133
 C211 C 0.75604 0.08840 0.53829
 C212 C 0.72720 0.03618 0.55191
 C213 C 0.67484 0.06660 0.55564
 C214 C 0.70287 0.11853 0.54166
 H215 H 0.65289 0.07173 0.64642
 H216 H 0.74875 0.01550 0.63988
 H217 H 0.70583 0.16699 0.62197
 H218 H 0.78644 0.09327 0.50685
 H219 H 0.73320 -0.00204 0.53126
 H220 H 0.68873 0.14803 0.51268
 C221 C 0.46039 0.20036 0.37770
 C222 C 0.40084 0.21068 0.36950
 C223 C 0.40602 0.26348 0.39911
 C224 C 0.46539 0.25393 0.40704
 C225 C 0.39325 0.23637 0.45224
 C226 C 0.38819 0.18323 0.42270
 C227 C 0.44737 0.17353 0.43069
 C228 C 0.45278 0.22622 0.46031
 H229 H 0.48826 0.18501 0.34730
 H230 H 0.37914 0.20455 0.33202
 H231 H 0.49703 0.28351 0.40057
 H232 H 0.36631 0.24992 0.48427
 H233 H 0.35653 0.15367 0.42918
 H234 H 0.47448 0.23226 0.49780
 C235 C 0.89763 0.29482 0.54211
 C236 C 0.93017 0.24396 0.55103
 C237 C 0.90294 0.23695 0.60518
 C238 C 0.87016 0.28722 0.59646
 C239 C 0.94657 0.26940 0.63226
 C240 C 0.97402 0.27694 0.57788
 C241 C 0.94115 0.32700 0.56930
 C242 C 0.91386 0.32001 0.62334
 H243 H 0.87770 0.30581 0.50479
 H244 H 0.93667 0.21221 0.52140
 H245 H 0.82721 0.29115 0.60424
 H246 H 0.96752 0.26031 0.66950
 H247 H 1.01697 0.27316 0.57005
 H248 H 0.90722 0.35159 0.65314
 C249 C 0.03026 0.79144 -0.10447
 C250 C 0.08451 0.78454 -0.13223
 C251 C 0.09629 0.73715 -0.09617
 C252 C 0.04227 0.74336 -0.06871
 C253 C 0.12210 0.77375 -0.05517
 C254 C 0.11015 0.82143 -0.09108
 C255 C 0.05628 0.82772 -0.06350
 C256 C 0.06795 0.78049 -0.02743
 H257 H -0.00767 0.79921 -0.12462
 H258 H 0.09169 0.78593 -0.17559
 H259 H 0.01463 0.71067 -0.05951
 H260 H 0.15993 0.76766 -0.03432
 H261 H 0.13789 0.85404 -0.10035
 H262 H 0.06076 0.77928 0.01592
 C263 C 0.56420 0.71875 1.02966
 C264 C 0.53864 0.75751 1.06987
 C265 C 0.59229 0.76306 1.09734
 C266 C 0.61791 0.72472 1.05738
 C267 C 0.57865 0.71694 1.13459
 C268 C 0.52473 0.71058 1.10676
 C269 C 0.55072 0.67270 1.06678
 C270 C 0.60414 0.67839 1.09446
 H271 H 0.55790 0.71910 0.98626
 H272 H 0.51200 0.79064 1.05974
 H273 H 0.65626 0.72880 1.03641
 H274 H 0.58499 0.71650 1.17799
 H275 H 0.48624 0.70420 1.12690
 H276 H 0.63092 0.64537 1.10467
 C277 C 0.40191 0.39084 1.17636
 C278 C 0.43788 0.37800 1.22365
 C279 C 0.39694 0.40321 1.26129
 C280 C 0.36080 0.41589 1.21428
 C281 C 0.42398 0.45729 1.25583
 C282 C 0.46516 0.43217 1.21776
 C283 C 0.42912 0.44473 1.17083
 C284 C 0.38818 0.47024 1.20808
 H285 H 0.39276 0.36362 1.14322
 H286 H 0.45896 0.34002 1.22854
 H287 H 0.31764 0.40884 1.21312
 H288 H 0.43308 0.48441 1.28905
 H289 H 0.50833 0.43920 1.21886
 H290 H 0.36787 0.50835 1.20123
 C291 C 0.57595 -0.02207 0.27377
 C292 C 0.63045 -0.04810 0.26427
 C293 C 0.60341 -0.09250 0.23277
 C294 C 0.54917 -0.06670 0.24165
 C295 C 0.59664 -0.12538 0.28345
 C296 C 0.62347 -0.08092 0.31534
 C297 C 0.56932 -0.05510 0.32421
 C298 C 0.54222 -0.09936 0.29290
 H299 H 0.56722 0.02067 0.27038
 H300 H 0.66684 -0.02622 0.25353
 H301 H 0.51879 -0.06108 0.21081
 H302 H 0.60530 -0.16812 0.28704
 H303 H 0.65401 -0.08668 0.34600
 H304 H 0.50572 -0.12025 0.30528
 C305 C -0.09981 1.10518 -0.17291
 C306 C -0.06427 1.12055 -0.22027
 C307 C -0.10323 1.09313 -0.25786
 C308 C -0.13895 1.07793 -0.21074
 C309 C -0.07293 1.04081 -0.25302
 C310 C -0.03372 1.06814 -0.21503
 C311 C -0.06934 1.05308 -0.16801
 C312 C -0.10829 1.02534 -0.20515
 H313 H -0.11089 1.13151 -0.13948
 H314 H -0.04556 1.15983 -0.22479
 H315 H -0.18248 1.08229 -0.20926
 H316 H -0.06190 1.01457 -0.28653
 H317 H 0.00982 1.06381 -0.21641
 H318 H -0.12623 0.98599 -0.19840
 C319 C 1.07800 0.61300 0.68408
 C320 C 1.04714 0.61080 0.73701
 C321 C 1.09826 0.59471 0.76524
 C322 C 1.12923 0.59707 0.71269
 C323 C 1.08598 0.53595 0.75609
 C324 C 1.03465 0.55183 0.72728
 C325 C 1.06574 0.55436 0.67488
 C326 C 1.11675 0.53814 0.70290
 H327 H 1.07469 0.64457 0.65394
 H328 H 1.01774 0.64047 0.75034
 H329 H 1.16830 0.61603 0.70705
 H330 H 1.08934 0.50445 0.78629
 H331 H 0.99558 0.53287 0.73292
 H332 H 1.14519 0.50805 0.68838
 C333 C 0.80051 0.55218 0.60276
 C334 C 0.78869 0.61037 0.61631
 C335 C 0.73630 0.60595 0.58641
 C336 C 0.74780 0.54789 0.57285
 C337 C 0.76336 0.62400 0.53473
 C338 C 0.81639 0.62812 0.56456
 C339 C 0.82776 0.57006 0.55121
 C340 C 0.77558 0.56553 0.52104
 H341 H 0.81589 0.52245 0.63088
 H342 H 0.79372 0.62897 0.65575
 H343 H 0.71917 0.51497 0.57642
 H344 H 0.74809 0.65355 0.50640
 H345 H 0.84512 0.66094 0.56098
 H346 H 0.77074 0.54687 0.48161
 C347 C 0.68253 0.42489 1.11198
 C348 C 0.71075 0.37278 1.09723
 C349 C 0.76316 0.40305 1.09279
 C350 C 0.73530 0.45507 1.10767
 C351 C 0.75359 0.41328 1.03364
 C352 C 0.70049 0.38322 1.03791
 C353 C 0.67289 0.43513 1.05297
 C354 C 0.72515 0.46549 1.04832
 H355 H 0.65279 0.42971 1.14409
 H356 H 0.70521 0.33447 1.11769
 H357 H 0.74877 0.48559 1.13601
 H358 H 0.78339 0.40841 1.00161
 H359 H 0.68564 0.35388 1.00899
 H360 H 0.73069 0.50380 1.02787
 C361 C 0.22331 1.07476 -0.02296
 C362 C 0.25566 1.04798 -0.06795
 C363 C 0.26376 1.10221 -0.09389
 C364 C 0.23196 1.12924 -0.04910
 C365 C 0.21331 1.09513 -0.12659
 C366 C 0.20457 1.04070 -0.10035
 C367 C 0.17308 1.06782 -0.05572
 C368 C 0.18118 1.12190 -0.08173
 H369 H 0.22686 1.06619 0.01990
 H370 H 0.28673 1.01771 -0.06246
 H371 H 0.24137 1.16576 -0.02687
 H372 H 0.20943 1.10363 -0.16945
 H373 H 0.19264 1.00407 -0.12119
 H374 H 0.15022 1.15228 -0.08732
 C375 C 0.30206 -0.05073 0.39431
 C376 C 0.29048 -0.10886 0.38023
 C377 C 0.23783 -0.10488 0.41058
 C378 C 0.24900 -0.04688 0.42464
 C379 C 0.26450 -0.12336 0.46193
 C380 C 0.31779 -0.12701 0.43166
 C381 C 0.32889 -0.06905 0.44550
 C382 C 0.27642 -0.06498 0.47607
 H383 H 0.31763 -0.02067 0.36642
 H384 H 0.29603 -0.12706 0.34059
 H385 H 0.22037 -0.01392 0.42167
 H386 H 0.24940 -0.15312 0.49036
 H387 H 0.34660 -0.15980 0.43470
 H388 H 0.27116 -0.04670 0.51570
 C389 C 0.56680 -0.18521 0.62315
 C390 C 0.53774 -0.23866 0.61742
 C391 C 0.58992 -0.26435 0.59915
 C392 C 0.61905 -0.21152 0.60519
 C393 C 0.57746 -0.25191 0.54103
 C394 C 0.52516 -0.22544 0.55893
 C395 C 0.55452 -0.17281 0.56509
 C396 C 0.60654 -0.19866 0.54694
 H397 H 0.56227 -0.15726 0.65673
 H398 H 0.50874 -0.25476 0.64623
 H399 H 0.65791 -0.20606 0.62434
 H400 H 0.58193 -0.27970 0.50730
 H401 H 0.48630 -0.23057 0.53971
 H402 H 0.63493 -0.18202 0.51780
 C403 C 1.10800 0.69744 0.45243
 C404 C 1.12179 0.71061 0.39435
 C405 C 1.09273 0.76353 0.40049
 C406 C 1.07897 0.75076 0.45844
 C407 C 1.04090 0.73805 0.38181
 C408 C 1.06988 0.68455 0.37593
 C409 C 1.05628 0.67185 0.43384
 C410 C 1.02698 0.72458 0.44012
 H411 H 1.13572 0.68055 0.48163
 H412 H 1.16106 0.70521 0.37540
 H413 H 1.08288 0.77840 0.49229
 H414 H 1.01276 0.75459 0.35284
 H415 H 1.06600 0.65684 0.34214
 H416 H 0.98772 0.72978 0.45912
 C417 C -0.11540 1.18344 0.08214
 C418 C -0.10094 1.21311 0.13362
 C419 C -0.09788 1.26485 0.10202
 C420 C -0.11252 1.23559 0.05067
 C421 C -0.03878 1.25575 0.09083
 C422 C -0.04164 1.20330 0.12219
 C423 C -0.05644 1.17427 0.07096
 C424 C -0.05324 1.22594 0.03936
 H425 H -0.14681 1.15319 0.07854
 H426 H -0.12090 1.20810 0.17252
 H427 H -0.14124 1.24772 0.02014
 H428 H -0.00734 1.28597 0.09441
 H429 H -0.01225 1.18957 0.15139
 H430 H -0.03330 1.23096 0.00045
 C431 C 0.38757 0.31675 0.92174
 C432 C 0.40165 0.28834 0.86932
 C433 C 0.40619 0.23614 0.89985
 C434 C 0.39200 0.26422 0.95216
 C435 C 0.46528 0.24596 0.90911
 C436 C 0.46093 0.29889 0.87883
 C437 C 0.44650 0.32667 0.93104
 C438 C 0.45126 0.27460 0.96161
 H439 H 0.35575 0.34641 0.92697
 H440 H 0.38087 0.29354 0.83120
 H441 H 0.36410 0.25089 0.98338
 H442 H 0.49701 0.21622 0.90383
 H443 H 0.48951 0.31375 0.84892
 H444 H 0.47202 0.26935 0.99974
 C445 C 0.54041 0.59966 0.79271
 C446 C 0.59464 0.62614 0.78370
 C447 C 0.60207 0.59327 0.73293
 C448 C 0.54802 0.56698 0.74144
 C449 C 0.62934 0.54918 0.76446
 C450 C 0.62168 0.58199 0.81564
 C451 C 0.56767 0.55571 0.82412
 C452 C 0.57501 0.52264 0.77360
 H453 H 0.50364 0.62026 0.80486
 H454 H 0.60288 0.66896 0.78753
 H455 H 0.51788 0.56100 0.71040
 H456 H 0.66604 0.52782 0.75359
 H457 H 0.65196 0.58809 0.84652
 H458 H 0.56669 0.47982 0.77000
 C459 C 0.40117 0.10664 0.67622
 C460 C 0.36136 0.07989 0.71425
 C461 C 0.39712 0.09423 0.76110
 C462 C 0.43675 0.12115 0.72334
 C463 C 0.42654 0.04141 0.75544
 C464 C 0.39113 0.02680 0.70783
 C465 C 0.43075 0.05403 0.67051
 C466 C 0.46640 0.06824 0.71728
 H467 H 0.39073 0.13331 0.64315
 H468 H 0.31792 0.08502 0.71331
 H469 H 0.45609 0.16007 0.72809
 H470 H 0.43693 0.01483 0.78858
 H471 H 0.37255 -0.01220 0.70091
 H472 H 0.50985 0.06314 0.71814
 C473 C 0.12507 0.92269 0.18474
 C474 C 0.13183 0.95509 0.23620
 C475 C 0.10554 0.91002 0.26757
 C476 C 0.09900 0.87757 0.21652
 C477 C 0.05090 0.93516 0.26006
 C478 C 0.07689 0.98048 0.22802
 C479 C 0.07046 0.94780 0.17723
 C480 C 0.04420 0.90287 0.20852
 H481 H 0.15559 0.91761 0.15343
 H482 H 0.16799 0.97714 0.24692
 H483 H 0.10825 0.83500 0.21207
 H484 H 0.02054 0.94009 0.29154
 H485 H 0.06756 1.02305 0.23222
 H486 H 0.00794 0.88154 0.19665
 C487 C 0.95012 0.39081 0.30250
 C488 C 0.89149 0.38081 0.28989
 C489 C 0.89930 0.40825 0.23622
 C490 C 0.95780 0.41817 0.24836
 C491 C 0.88407 0.46187 0.26090
 C492 C 0.87648 0.43448 0.31510
 C493 C 0.93488 0.44431 0.32720
 C494 C 0.94290 0.47193 0.27372
 H495 H 0.97747 0.36152 0.31988
 H496 H 0.87021 0.34307 0.29618
 H497 H 0.99113 0.41126 0.22048
 H498 H 0.85712 0.49185 0.24413
 H499 H 0.84317 0.44138 0.34301
 H500 H 0.96422 0.50967 0.26761
   
