data_POSCAR
  _audit_creation_date              2014-09-24
  _audit_creation_method            'ToBaCCo'
  _symmetry_space_group_name_H-M    'P1'
  _symmetry_Int_Tables_number       1
  _symmetry_cell_setting            triclinic
  loop_
  _symmetry_equiv_pos_as_xyz
 x,y,z
_cell_length_a 27.7113
_cell_length_b 26.8699
_cell_length_c 13.3101
_cell_angle_alpha 89.304700
_cell_angle_beta 90.690500
_cell_angle_gamma 90.740500
loop_
  _atom_site_label
  _atom_site_type_symbol
  _atom_site_fract_x
  _atom_site_fract_y
  _atom_site_fract_z
O1 O 0.73901 0.32780 0.56695
 O2 O 0.81948 0.25245 0.41753
 O3 O 0.75420 0.31324 0.38668
 O4 O 0.80517 0.25573 0.61773
 O5 O 0.74773 0.19809 0.61594
 O6 O 0.69851 0.25350 0.38360
 O7 O 0.76758 0.18948 0.42540
 O8 O 0.68517 0.26638 0.57151
 Cu9 Cu 0.78591 0.29201 0.50291
 Cu10 Cu 0.71949 0.22047 0.49874
 C11 C 0.69752 0.31103 0.59014
 C12 C 0.80723 0.20840 0.39471
 C13 C 0.71671 0.29343 0.34755
 C14 C 0.78528 0.21701 0.65565
 O15 O 0.26388 0.83129 0.59563
 O16 O 0.32069 0.76025 0.39546
 O17 O 0.24909 0.82377 0.40207
 O18 O 0.32769 0.76149 0.58915
 O19 O 0.27299 0.70117 0.60291
 O20 O 0.19958 0.75862 0.40512
 O21 O 0.26861 0.69830 0.41903
 O22 O 0.20587 0.77455 0.60481
 Cu23 Cu 0.29556 0.80055 0.49356
 Cu24 Cu 0.23006 0.72890 0.51283
 C25 C 0.22460 0.81572 0.63292
 C26 C 0.30623 0.71621 0.37744
 C27 C 0.21132 0.80111 0.37065
 C28 C 0.31398 0.71972 0.62525
 O29 O 0.31195 0.26054 -0.40886
 O30 O 0.25623 0.17962 -0.60375
 O31 O 0.31954 0.25485 -0.60188
 O32 O 0.26936 0.17477 -0.40590
 O33 O 0.20166 0.21718 -0.41183
 O34 O 0.25393 0.30065 -0.60613
 O35 O 0.19052 0.22509 -0.60317
 O36 O 0.24440 0.30325 -0.40754
 Cu37 Cu 0.29489 0.21287 -0.50685
 Cu38 Cu 0.21702 0.26639 -0.50860
 C39 C 0.28681 0.29585 -0.37456
 C40 C 0.21355 0.18836 -0.63597
 C41 C 0.29631 0.29153 -0.63667
 C42 C 0.22685 0.18150 -0.37590
 O43 O -0.19150 0.76086 -0.40310
 O44 O -0.25560 0.68798 -0.59651
 O45 O -0.19583 0.76544 -0.59930
 O46 O -0.24523 0.68182 -0.40331
 O47 O -0.30850 0.73024 -0.38808
 O48 O -0.25955 0.81325 -0.58679
 O49 O -0.31889 0.73624 -0.58107
 O50 O -0.25437 0.81001 -0.39044
 Cu51 Cu -0.21559 0.71940 -0.50277
 Cu52 Cu -0.29156 0.77748 -0.48584
 C53 C -0.21215 0.79750 -0.36324
 C54 C -0.29892 0.69877 -0.61913
 C55 C -0.21900 0.80400 -0.62586
 C56 C -0.28506 0.69161 -0.36238
 O57 O -0.02525 0.93587 0.14980
 O58 O 0.03720 0.95654 -0.20482
 O59 O -0.10681 0.97454 -0.09265
 O60 O 0.06671 0.94439 0.10090
 O61 O -0.04865 0.94054 -0.17293
 O62 O 0.04382 0.98865 0.21799
 O63 O 0.07602 0.93518 -0.07094
 O64 O -0.09427 0.95372 0.08513
 C65 C -0.06817 0.92399 0.13410
 C66 C 0.06621 0.92882 -0.16075
 C67 C -0.09130 0.94006 -0.14639
 C68 C 0.07151 0.95625 0.18997
 O69 O 0.01023 1.06695 0.14183
 O70 O -0.06437 1.03684 -0.19167
 O71 O -0.07485 1.05145 0.12233
 O72 O 0.08747 1.03416 -0.10341
 O73 O 0.02433 1.05137 -0.20051
 O74 O -0.04442 1.01285 0.25078
 O75 O 0.08002 1.04641 0.08258
 O76 O -0.07919 1.07092 -0.05209
 Co77 Co -0.00930 1.00133 0.13968
 Co78 Co -0.01257 0.99657 -0.17548
 Co79 Co -0.08173 1.01121 0.01312
 Co80 Co 0.07068 0.99115 0.00194
 O81 O -0.00558 0.99857 -0.01223
 C82 C 0.05409 1.07699 0.12861
 C83 C -0.07628 1.07435 -0.14473
 C84 C -0.07898 1.03964 0.21431
 C85 C 0.06732 1.05921 -0.17370
 O86 O 0.45422 0.44811 0.19645
 O87 O 0.54247 0.47441 -0.24171
 O88 O 0.41128 0.45104 -0.09196
 O89 O 0.56583 0.42599 0.07104
 O90 O 0.48221 0.42600 -0.13592
 O91 O 0.54401 0.46067 0.20680
 O92 O 0.56640 0.44031 -0.10279
 O93 O 0.39675 0.46927 0.08837
 C94 C 0.41182 0.44367 0.16307
 C95 C 0.57455 0.44796 -0.19469
 C96 C 0.43791 0.41769 -0.12801
 C97 C 0.56188 0.42453 0.16345
 O98 O 0.53184 0.55716 0.18154
 O99 O 0.45261 0.50363 -0.22631
 O100 O 0.41687 0.56694 0.04873
 O101 O 0.58683 0.53912 -0.07443
 O102 O 0.52105 0.55519 -0.15336
 O103 O 0.44240 0.54238 0.19298
 O104 O 0.59158 0.52209 0.10654
 O105 O 0.43153 0.55262 -0.11658
 Co106 Co 0.49365 0.50177 0.17693
 Co107 Co 0.50313 0.49069 -0.13878
 Co108 Co 0.42044 0.50857 -0.01649
 Co109 Co 0.57069 0.48353 0.00084
 O110 O 0.49440 0.49764 0.01217
 C111 C 0.57528 0.55704 0.15780
 C112 C 0.42802 0.53994 -0.20506
 C113 C 0.41786 0.57145 0.14069
 C114 C 0.56283 0.56769 -0.13036
 C115 C 0.32066 0.32395 0.28982
 C116 C 0.30284 0.36711 0.25549
 C117 C 0.33273 0.40273 0.19662
 C118 C 0.38032 0.40730 0.21381
 H119 H 0.26621 0.37735 0.27261
 H120 H 0.31480 0.42788 0.14456
 H121 H 0.35633 0.31269 0.26748
 H122 H 0.39731 0.38491 0.27214
 C123 C -0.20005 0.83763 0.30324
 C124 C -0.15571 0.83394 0.26436
 C125 C -0.13606 0.87409 0.19913
 C126 C -0.08874 0.87829 0.18023
 H127 H -0.13265 0.80318 0.28575
 H128 H -0.16018 0.90322 0.17357
 H129 H -0.22171 0.86962 0.28280
 H130 H -0.06414 0.85071 0.21038
 C131 C 0.67332 0.66568 0.31368
 C132 C 0.62556 0.67076 0.29985
 C133 C 0.59364 0.63393 0.24966
 C134 C 0.60892 0.59518 0.19678
 H135 H 0.60755 0.70164 0.33430
 H136 H 0.55525 0.63879 0.25969
 H137 H 0.69208 0.63432 0.28340
 H138 H 0.64683 0.59035 0.18210
 C139 C 0.19216 1.15638 0.29373
 C140 C 0.14643 1.16110 0.26037
 C141 C 0.12431 1.12317 0.19433
 C142 C 0.07654 1.12093 0.17665
 H143 H 0.12428 1.19127 0.28617
 H144 H 0.14717 1.09408 0.16642
 H145 H 0.21321 1.12531 0.26825
 H146 H 0.05327 1.14864 0.20831
 C147 C 0.66250 0.34351 -0.36285
 C148 C 0.66018 0.39226 -0.38505
 C149 C 0.62399 0.42472 -0.33969
 C150 C 0.61046 0.41781 -0.24468
 H151 H 0.68366 0.40836 -0.44163
 H152 H 0.61028 0.45588 -0.38328
 H153 H 0.63568 0.32611 -0.31489
 H154 H 0.62741 0.38911 -0.19909
 C155 C 0.20220 0.84532 -0.29627
 C156 C 0.15652 0.83831 -0.26730
 C157 C 0.13382 0.87451 -0.20087
 C158 C 0.08827 0.88841 -0.21712
 H159 H 0.13442 0.80885 -0.29966
 H160 H 0.15579 0.89328 -0.14459
 H161 H 0.22191 0.87774 -0.26918
 H162 H 0.06805 0.87292 -0.27985
 C163 C 0.34683 0.69153 -0.30959
 C164 C 0.35236 0.64267 -0.32226
 C165 C 0.38464 0.61424 -0.25587
 C166 C 0.39944 0.56855 -0.27857
 H167 H 0.33303 0.62363 -0.38217
 H168 H 0.39611 0.63109 -0.18571
 H169 H 0.36882 0.71143 -0.25503
 H170 H 0.39009 0.55213 -0.35028
 C171 C -0.19378 1.19185 -0.25565
 C172 C -0.14631 1.18490 -0.24653
 C173 C -0.12734 1.14751 -0.17478
 C174 C -0.09035 1.11933 -0.20111
 H175 H -0.12223 1.20116 -0.30195
 H176 H -0.14724 1.13864 -0.10709
 H177 H -0.21809 1.17143 -0.20645
 H178 H -0.07378 1.12559 -0.27366
 C179 C 0.69594 0.65664 -0.28603
 C180 C 0.65104 0.65913 -0.25095
 C181 C 0.63146 0.61894 -0.18632
 C182 C 0.58389 0.61341 -0.17415
 H183 H 0.62744 0.68874 -0.27626
 H184 H 0.65571 0.59082 -0.15681
 H185 H 0.71863 0.62586 -0.26301
 H186 H 0.55956 0.64004 -0.20874
 C187 C 0.20769 1.14813 -0.30549
 C188 C 0.16145 1.14897 -0.27889
 C189 C 0.14002 1.10846 -0.21829
 C190 C 0.09255 1.10059 -0.22398
 H191 H 0.13780 1.17740 -0.30955
 H192 H 0.16289 1.08347 -0.17512
 H193 H 0.23045 1.11845 -0.27706
 H194 H 0.07083 1.12471 -0.27180
 C195 C 0.30631 0.32988 -0.29753
 C196 C 0.35152 0.32811 -0.26147
 C197 C 0.37012 0.36798 -0.19537
 C198 C 0.41706 0.37195 -0.17185
 H199 H 0.37566 0.29935 -0.28594
 H200 H 0.34577 0.39710 -0.17350
 H201 H 0.28292 0.35937 -0.27330
 H202 H 0.44167 0.34375 -0.19690
 C203 C -0.18549 0.82593 -0.28674
 C204 C -0.20163 0.86858 -0.24867
 C205 C -0.17116 0.90231 -0.18672
 C206 C -0.12295 0.90200 -0.19081
 H207 H -0.23779 0.88082 -0.26710
 H208 H -0.18891 0.93131 -0.14576
 H209 H -0.15050 0.81177 -0.26497
 H210 H -0.10494 0.87537 -0.23711
 C211 C 0.33530 0.68463 0.31279
 C212 C 0.33756 0.63555 0.33071
 C213 C 0.37134 0.60209 0.28112
 C214 C 0.38785 0.60917 0.18787
 H215 H 0.31672 0.61933 0.39154
 H216 H 0.38035 0.56820 0.32176
 H217 H 0.35931 0.70241 0.25932
 H218 H 0.37580 0.64048 0.14260
 C219 C -0.16202 1.18158 0.33442
 C220 C -0.16630 1.13254 0.32089
 C221 C -0.13246 1.10752 0.25497
 C222 C -0.11407 1.06333 0.27943
 H223 H -0.19297 1.11055 0.36133
 H224 H -0.12019 1.12718 0.18815
 H225 H -0.13200 1.20148 0.30009
 H226 H -0.12312 1.04546 0.35029
 C227 C 0.69261 0.31916 0.26357
 C228 C 0.64463 0.32334 0.26195
 C229 C 0.62087 0.35875 0.19321
 C230 C 0.58201 0.38327 0.22295
 H231 H 0.62334 0.30521 0.32002
 H232 H 0.63794 0.36852 0.12265
 H233 H 0.71435 0.34129 0.21220
 H234 H 0.56776 0.37642 0.29744
 C235 C 0.17987 0.82436 0.29500
 C236 C 0.16804 0.87212 0.30131
 C237 C 0.13210 0.89366 0.23214
 C238 C 0.10705 0.93347 0.25819
 H239 H 0.18266 0.89459 0.36192
 H240 H 0.12506 0.87590 0.16061
 H241 H 0.16199 0.80075 0.24015
 H242 H 0.11269 0.94980 0.33156
   
