data_POSCAR
  _audit_creation_date              2014-09-24
  _audit_creation_method            'ToBaCCo'
  _symmetry_space_group_name_H-M    'P1'
  _symmetry_Int_Tables_number       1
  _symmetry_cell_setting            triclinic
  loop_
  _symmetry_equiv_pos_as_xyz
 x,y,z
_cell_length_a 28.7903
_cell_length_b 28.9804
_cell_length_c 29.0074
_cell_angle_alpha 89.649800
_cell_angle_beta 91.532200
_cell_angle_gamma 91.336100
loop_
  _atom_site_label
  _atom_site_type_symbol
  _atom_site_fract_x
  _atom_site_fract_y
  _atom_site_fract_z
C1 C -0.00266 0.49767 0.24544
 C2 C 0.01033 0.49868 0.75227
 C3 C 0.25165 -0.00311 0.50901
 C4 C 0.74987 0.01065 0.49426
 C5 C 0.50416 0.25384 1.00136
 C6 C 0.49137 0.74897 0.99579
 B7 B 1.00271 1.04381 0.03397
 B8 B 0.99893 1.04827 -0.02525
 B9 B 1.04821 1.02579 0.00106
 B10 B 1.03100 0.99346 0.04802
 B11 B 0.97141 0.99557 0.05050
 B12 B 0.95146 1.02932 0.00476
 B13 B 0.99306 0.95154 -0.03174
 B14 B 0.99742 0.94758 0.02806
 B15 B 0.94727 0.96979 0.00114
 B16 B 0.96468 1.00198 -0.04571
 B17 B 1.02393 1.00042 -0.04870
 B18 B 1.04456 0.96636 -0.00406
 B19 B 0.55252 0.50569 0.47108
 B20 B 0.54981 0.50758 0.53013
 B21 B 0.52876 0.55312 0.49719
 B22 B 0.50249 0.52980 0.44785
 B23 B 0.50639 0.47075 0.45084
 B24 B 0.53580 0.45698 0.50127
 B25 B 0.45282 0.49860 0.52383
 B26 B 0.45538 0.49665 0.46470
 B27 B 0.47621 0.45116 0.49791
 B28 B 0.50284 0.47440 0.54704
 B29 B 0.49862 0.53343 0.54407
 B30 B 0.46921 0.54728 0.49340
 C31 C 0.99036 1.36776 0.16822
 C32 C 1.02982 1.39714 0.16714
 C33 C 1.03037 1.43982 0.18934
 C34 C 0.99211 1.45390 0.21484
 C35 C 0.95069 1.42691 0.21066
 C36 C 0.95014 1.38405 0.18851
 C37 C 0.99198 1.31993 0.14999
 N38 N 0.95496 1.29019 0.15333
 N39 N 0.95746 1.24666 0.13904
 C40 C 0.99717 1.23089 0.12101
 N41 N 1.03404 1.26071 0.11751
 N42 N 1.03155 1.30417 0.13177
 C43 C 1.00022 1.18250 0.10467
 C44 C 1.04126 1.16682 0.08612
 C45 C 1.04339 1.12253 0.06766
 C46 C 1.00474 1.09164 0.06586
 C47 C 0.96489 1.10712 0.08831
 C48 C 0.96239 1.15146 0.10693
 H49 H 1.06104 1.38656 0.15052
 H50 H 1.06205 1.46070 0.18918
 H51 H 0.91867 1.43800 0.22519
 H52 H 0.91842 1.36324 0.18825
 H53 H 1.07195 1.18910 0.08500
 H54 H 1.07603 1.11421 0.05493
 H55 H 0.93484 1.08550 0.09169
 H56 H 0.93035 1.16156 0.12234
 C57 C 1.00683 0.62109 0.15808
 C58 C 1.04749 0.60230 0.17727
 C59 C 1.04554 0.56096 0.20224
 C60 C 1.00250 0.53823 0.21042
 C61 C 0.96357 0.55301 0.18417
 C62 C 0.96530 0.59469 0.15956
 C63 C 1.00715 0.66904 0.13970
 N64 N 0.96660 0.69076 0.13070
 N65 N 0.96655 0.73496 0.11788
 C66 C 1.00701 0.75951 0.11365
 N67 N 1.04765 0.73771 0.12211
 N68 N 1.04769 0.69349 0.13513
 C69 C 1.00638 0.80869 0.09919
 C70 C 1.04696 0.83320 0.08767
 C71 C 1.04412 0.87812 0.06970
 C72 C 1.00097 0.89806 0.05753
 C73 C 0.96346 0.87760 0.08076
 C74 C 0.96487 0.83274 0.09846
 H75 H 1.08063 0.62046 0.17477
 H76 H 1.07784 0.54799 0.21633
 H77 H 0.93068 0.53426 0.18598
 H78 H 0.93365 0.60706 0.14326
 H79 H 1.08075 0.81801 0.09259
 H80 H 1.07620 0.89763 0.06646
 H81 H 0.93240 0.89538 0.08593
 H82 H 0.93348 0.81729 0.11214
 C83 C 1.02027 1.37019 -0.16766
 C84 C 1.01687 1.37057 -0.21587
 C85 C 1.01371 1.41183 -0.24002
 C86 C 1.01397 1.45473 -0.21713
 C87 C 1.01930 1.45444 -0.16855
 C88 C 1.02153 1.41246 -0.14406
 C89 C 1.02183 1.32519 -0.14339
 N90 N 1.00712 1.31990 -0.09948
 N91 N 1.00490 1.27808 -0.07995
 C92 C 1.01740 1.24006 -0.10353
 N93 N 1.03295 1.24573 -0.14696
 N94 N 1.03500 1.28728 -0.16645
 C95 C 1.01252 1.19295 -0.08377
 C96 C 1.02715 1.15494 -0.10858
 C97 C 1.02104 1.11024 -0.09157
 C98 C 1.00093 1.10083 -0.04847
 C99 C 0.98419 1.13978 -0.02532
 C100 C 0.99044 1.18483 -0.04205
 H101 H 1.01566 1.33872 -0.23525
 H102 H 1.01027 1.41036 -0.27727
 H103 H 1.02213 1.48609 -0.14917
 H104 H 1.02491 1.41308 -0.10680
 H105 H 1.04254 1.15940 -0.14202
 H106 H 1.02893 1.08365 -0.11482
 H107 H 0.96390 1.13621 0.00486
 H108 H 0.97683 1.21314 -0.02276
 C109 C 1.00728 0.63378 -0.17967
 C110 C 1.04037 0.62506 -0.21279
 C111 C 1.04219 0.58205 -0.23360
 C112 C 1.01195 0.54505 -0.22101
 C113 C 0.97822 0.55437 -0.18805
 C114 C 0.97614 0.59792 -0.16741
 C115 C 1.00462 0.68073 -0.15987
 N116 N 0.96899 0.69222 -0.13280
 N117 N 0.96627 0.73485 -0.11628
 C118 C 0.99897 0.76783 -0.12614
 N119 N 1.03471 0.75626 -0.15299
 N120 N 1.03738 0.71368 -0.16957
 C121 C 0.99599 0.81510 -0.10725
 C122 C 1.03146 0.84831 -0.11313
 C123 C 1.02920 0.89168 -0.09228
 C124 C 0.99197 0.90376 -0.06386
 C125 C 0.95543 0.87081 -0.06238
 C126 C 0.95728 0.82753 -0.08273
 H127 H 1.06425 0.65204 -0.22396
 H128 H 1.06665 0.57919 -0.26093
 H129 H 0.95278 0.52799 -0.17891
 H130 H 0.94969 0.60365 -0.14237
 H131 H 1.06179 0.84047 -0.13266
 H132 H 1.05891 0.91424 -0.09674
 H133 H 0.92357 0.87802 -0.04807
 H134 H 0.92790 0.80384 -0.07928
 C135 C 1.18221 0.99312 0.37181
 C136 C 1.16865 0.96200 0.40666
 C137 C 1.19004 0.96385 0.45079
 C138 C 1.22479 0.99756 0.46171
 C139 C 1.23898 1.02731 0.42549
 C140 C 1.21765 1.02561 0.38199
 C141 C 1.16104 0.99177 0.32451
 N142 N 1.17378 1.02389 0.29262
 N143 N 1.15555 1.02311 0.24997
 C144 C 1.12375 0.99004 0.23719
 N145 N 1.11095 0.95781 0.26904
 N146 N 1.12919 0.95862 0.31180
 C147 C 1.10290 0.98975 0.18979
 C148 C 1.07025 0.95578 0.17658
 C149 C 1.04862 0.95703 0.13301
 C150 C 1.06021 0.99030 0.09873
 C151 C 1.09093 1.02594 0.11456
 C152 C 1.11282 1.02517 0.15825
 H153 H 1.14192 0.93588 0.39975
 H154 H 1.17979 0.93855 0.47642
 H155 H 1.26782 1.05157 0.42949
 H156 H 1.22998 1.04944 0.35589
 H157 H 1.05923 0.92942 0.20082
 H158 H 1.01869 0.93481 0.12980
 H159 H 1.09750 1.05604 0.09451
 H160 H 1.13632 1.05344 0.16779
 C161 C 1.17157 1.00586 -0.36475
 C162 C 1.22004 1.00292 -0.36374
 C163 C 1.24416 0.99979 -0.40433
 C164 C 1.22097 0.99943 -0.44788
 C165 C 1.17218 1.00390 -0.44894
 C166 C 1.14772 1.00626 -0.40771
 C167 C 1.14721 1.00860 -0.32055
 N168 N 1.10180 0.99549 -0.31694
 N169 N 1.08151 0.99559 -0.27607
 C170 C 1.10578 1.00902 -0.23733
 N171 N 1.15088 1.02266 -0.24126
 N172 N 1.17114 1.02233 -0.28189
 C173 C 1.08454 1.00779 -0.19133
 C174 C 1.10742 1.02904 -0.15371
 C175 C 1.08872 1.02683 -0.10989
 C176 C 1.04694 1.00242 -0.10074
 C177 C 1.02394 0.98220 -0.13979
 C178 C 1.04221 0.98472 -0.18398
 H179 H 1.23963 1.00244 -0.33135
 H180 H 1.28163 0.99717 -0.40185
 H181 H 1.15264 1.00631 -0.48110
 H182 H 1.11030 1.00932 -0.40945
 H183 H 1.13967 1.04836 -0.15811
 H184 H 1.10664 1.04689 -0.08438
 H185 H 0.99252 0.96205 -0.13681
 H186 H 1.02351 0.96762 -0.21217
 C187 C 0.82785 1.00655 0.36699
 C188 C 0.85268 1.01040 0.40932
 C189 C 0.82897 1.01315 0.45095
 C190 C 0.77994 1.01182 0.45074
 C191 C 0.75593 1.01121 0.40760
 C192 C 0.77934 1.00807 0.36671
 C193 C 0.85118 1.00058 0.32272
 N194 N 0.82669 0.98338 0.28576
 N195 N 0.84617 0.97967 0.24497
 C196 C 0.89105 0.99316 0.23931
 N197 N 0.91588 1.00984 0.27643
 N198 N 0.89639 1.01335 0.31742
 C199 C 0.91146 0.99194 0.19310
 C200 C 0.88861 0.96876 0.15650
 C201 C 0.90683 0.96996 0.11230
 C202 C 0.94861 0.99406 0.10251
 C203 C 0.97015 1.01799 0.14018
 C204 C 0.95254 1.01647 0.18439
 H205 H 0.89030 1.01026 0.41033
 H206 H 0.84915 1.01591 0.48277
 H207 H 0.71829 1.01117 0.40582
 H208 H 0.75911 1.00640 0.33472
 H209 H 0.85603 0.95028 0.16166
 H210 H 0.88586 0.95419 0.08560
 H211 H 1.00117 1.03873 0.13649
 H212 H 0.97079 1.03561 0.21154
 C213 C 0.81881 1.00379 -0.36892
 C214 C 0.82795 0.97087 -0.40262
 C215 C 0.80761 0.97433 -0.44708
 C216 C 0.77735 1.01060 -0.45888
 C217 C 0.76768 1.04240 -0.42370
 C218 C 0.78874 1.03956 -0.38019
 C219 C 0.83939 1.00186 -0.32168
 N220 N 0.84538 1.04148 -0.29736
 N221 N 0.86162 1.04077 -0.25408
 C222 C 0.87212 1.00036 -0.23288
 N223 N 0.86620 0.96048 -0.25709
 N224 N 0.85018 0.96122 -0.30076
 C225 C 0.89126 1.00091 -0.18502
 C226 C 0.88745 0.96277 -0.15548
 C227 C 0.90696 0.96463 -0.11063
 C228 C 0.93244 1.00379 -0.09398
 C229 C 0.93360 1.04200 -0.12417
 C230 C 0.91347 1.04090 -0.16826
 H231 H 0.85084 0.94262 -0.39466
 H232 H 0.81467 0.94802 -0.47211
 H233 H 0.74251 1.06917 -0.42835
 H234 H 0.78001 1.06482 -0.35463
 H235 H 0.86931 0.93156 -0.16688
 H236 H 0.90215 0.93473 -0.08977
 H237 H 0.94997 1.07359 -0.11533
 H238 H 0.91663 1.07144 -0.18978
 C239 C 1.37157 1.17688 0.00581
 C240 C 1.41316 1.15260 0.01141
 C241 C 1.45642 1.17606 0.01016
 C242 C 1.45873 1.22426 0.00290
 C243 C 1.41655 1.24807 -0.00064
 C244 C 1.37399 1.22489 0.00028
 C245 C 1.32532 1.15349 0.00540
 N246 N 1.28740 1.17691 -0.00938
 N247 N 1.24529 1.15722 -0.00936
 C248 C 1.23910 1.11318 0.00560
 N249 N 1.27701 1.08945 0.02029
 N250 N 1.31936 1.10920 0.02013
 C251 C 1.19183 1.09202 0.00559
 C252 C 1.18316 1.04956 0.02711
 C253 C 1.13834 1.03009 0.02657
 C254 C 1.10025 1.05144 0.00361
 C255 C 1.10990 1.09512 -0.01632
 C256 C 1.15452 1.11484 -0.01556
 H257 H 1.41227 1.11555 0.01646
 H258 H 1.48755 1.15640 0.01548
 H259 H 1.41675 1.28524 -0.00493
 H260 H 1.34283 1.24497 -0.00324
 H261 H 1.21099 1.03114 0.04438
 H262 H 1.13412 0.99684 0.04314
 H263 H 1.08344 1.11584 -0.03112
 H264 H 1.15959 1.14833 -0.03166
 C265 C 0.63637 1.18157 -0.00183
 C266 C 0.62945 1.21574 0.03087
 C267 C 0.58760 1.23855 0.03199
 C268 C 0.54977 1.22634 0.00195
 C269 C 0.55753 1.19257 -0.03181
 C270 C 0.60038 1.17052 -0.03375
 C271 C 0.68157 1.15861 -0.00181
 N272 N 0.70208 1.14722 -0.04170
 N273 N 0.74447 1.12943 -0.04085
 C274 C 0.76768 1.12215 -0.00008
 N275 N 0.74683 1.13310 0.03964
 N276 N 0.70484 1.15127 0.03877
 C277 C 0.81431 1.10192 0.00172
 C278 C 0.82815 1.07580 0.03998
 C279 C 0.87137 1.05519 0.04168
 C280 C 0.90378 1.06051 0.00627
 C281 C 0.88947 1.08881 -0.03120
 C282 C 0.84554 1.10862 -0.03386
 H283 H 0.65716 1.22597 0.05496
 H284 H 0.58600 1.26660 0.05620
 H285 H 0.53046 1.18357 -0.05699
 H286 H 0.60520 1.14456 -0.05978
 H287 H 0.80488 1.06993 0.06828
 H288 H 0.87807 1.03496 0.07125
 H289 H 0.91130 1.09572 -0.05940
 H290 H 0.83617 1.12939 -0.06370
 C291 C 1.35239 0.80619 -0.02609
 C292 C 1.35981 0.76987 0.00498
 C293 C 1.40404 0.75281 0.01275
 C294 C 1.44335 0.77200 -0.00946
 C295 C 1.43519 0.80697 -0.04260
 C296 C 1.39053 0.82456 -0.05005
 C297 C 1.30503 0.82472 -0.03234
 N298 N 1.29820 0.86578 -0.05387
 N299 N 1.25612 0.88395 -0.05600
 C300 C 1.21903 0.86181 -0.03698
 N301 N 1.22566 0.82028 -0.01634
 N302 N 1.26777 0.80217 -0.01409
 C303 C 1.17377 0.88490 -0.03458
 C304 C 1.13313 0.86156 -0.02117
 C305 C 1.09227 0.88600 -0.01451
 C306 C 1.09133 0.93502 -0.01620
 C307 C 1.13070 0.95536 -0.03687
 C308 C 1.17117 0.93176 -0.04464
 H309 H 1.33125 0.75423 0.02349
 H310 H 1.40651 0.72331 0.03557
 H311 H 1.46333 0.82035 -0.06318
 H312 H 1.38577 0.85200 -0.07511
 H313 H 1.13258 0.82445 -0.01652
 H314 H 1.06102 0.86562 -0.00974
 H315 H 1.13235 0.99036 -0.04661
 H316 H 1.20085 0.95094 -0.05761
 C317 C 0.61811 0.83436 0.01408
 C318 C 0.57516 0.85645 0.01077
 C319 C 0.53341 0.83031 0.00635
 C320 C 0.53433 0.78170 0.00292
 C321 C 0.57792 0.76049 0.00742
 C322 C 0.61874 0.78617 0.01306
 C323 C 0.66313 0.85977 0.01745
 N324 N 0.69996 0.83904 0.03823
 N325 N 0.74245 0.85755 0.03603
 C326 C 0.75021 0.89752 0.01269
 N327 N 0.71317 0.91923 -0.00701
 N328 N 0.67037 0.90065 -0.00475
 C329 C 0.79858 0.91489 0.00713
 C330 C 0.80872 0.95692 -0.01460
 C331 C 0.85495 0.97191 -0.01949
 C332 C 0.89315 0.94710 -0.00083
 C333 C 0.88141 0.90251 0.01546
 C334 C 0.83568 0.88720 0.02068
 H335 H 0.57387 0.89372 0.01228
 H336 H 0.50106 0.84839 0.00587
 H337 H 0.58038 0.72331 0.00554
 H338 H 0.65118 0.76798 0.01526
 H339 H 0.78108 0.97813 -0.02835
 H340 H 0.85980 1.00275 -0.03944
 H341 H 0.90677 0.87682 0.02079
 H342 H 0.82964 0.85270 0.03415
 C343 C 0.87565 0.51069 0.33251
 C344 C 0.89281 0.54913 0.30819
 C345 C 0.93293 0.54618 0.28241
 C346 C 0.95572 0.50380 0.27782
 C347 C 0.94138 0.46708 0.30682
 C348 C 0.90150 0.47017 0.33315
 C349 C 0.83029 0.51258 0.35551
 N350 N 0.81804 0.48065 0.38774
 N351 N 0.77632 0.48126 0.40659
 C352 C 0.74491 0.51353 0.39370
 N353 N 0.75723 0.54550 0.36158
 N354 N 0.79905 0.54511 0.34300
 C355 C 0.69776 0.51296 0.41319
 C356 C 0.66088 0.53465 0.39015
 C357 C 0.61596 0.53202 0.40741
 C358 C 0.60554 0.50844 0.44892
 C359 C 0.64389 0.48726 0.47151
 C360 C 0.68867 0.48919 0.45411
 H361 H 0.87505 0.58165 0.30887
 H362 H 0.94546 0.57742 0.26599
 H363 H 0.95991 0.43498 0.30734
 H364 H 0.89007 0.44026 0.35271
 H365 H 0.66636 0.55266 0.35786
 H366 H 0.58966 0.54715 0.38643
 H367 H 0.63993 0.46672 0.50198
 H368 H 0.71620 0.47162 0.47278
 C369 C 0.12599 0.49443 0.32917
 C370 C 0.10549 0.45305 0.31280
 C371 C 0.06293 0.45313 0.28863
 C372 C 0.04022 0.49490 0.27890
 C373 C 0.05742 0.53491 0.30183
 C374 C 0.10052 0.53505 0.32532
 C375 C 0.17437 0.49513 0.34804
 N376 N 0.19937 0.53537 0.35216
 N377 N 0.24384 0.53541 0.36634
 C378 C 0.26511 0.49518 0.37690
 N379 N 0.23998 0.45509 0.37301
 N380 N 0.19570 0.45503 0.35868
 C381 C 0.31421 0.49460 0.39366
 C382 C 0.33175 0.45472 0.41415
 C383 C 0.37660 0.45444 0.43323
 C384 C 0.40663 0.49354 0.43292
 C385 C 0.38930 0.53244 0.40884
 C386 C 0.34391 0.53332 0.39012
 H387 H 0.12317 0.42066 0.31696
 H388 H 0.04881 0.42036 0.27656
 H389 H 0.03913 0.56704 0.29846
 H390 H 0.11444 0.56721 0.33933
 H391 H 0.31030 0.42367 0.41689
 H392 H 0.38600 0.42288 0.44847
 H393 H 0.41005 0.56300 0.40471
 H394 H 0.33204 0.56453 0.37332
 C395 C 0.87309 0.50245 0.68199
 C396 C 0.88246 0.46939 0.71612
 C397 C 0.92594 0.46771 0.73794
 C398 C 0.96287 0.49801 0.72537
 C399 C 0.95275 0.53214 0.69181
 C400 C 0.90864 0.53409 0.67013
 C401 C 0.82580 0.50407 0.66053
 N402 N 0.81252 0.54020 0.63362
 N403 N 0.76942 0.54168 0.61573
 C404 C 0.73785 0.50715 0.62398
 N405 N 0.75128 0.47096 0.65060
 N406 N 0.79424 0.46953 0.66854
 C407 C 0.68993 0.50861 0.60408
 C408 C 0.65916 0.47073 0.60776
 C409 C 0.61482 0.47169 0.58694
 C410 C 0.59874 0.51037 0.56178
 C411 C 0.63002 0.54855 0.56047
 C412 C 0.67443 0.54787 0.58085
 H413 H 0.85565 0.44525 0.72717
 H414 H 0.92934 0.44306 0.76581
 H415 H 0.97906 0.55765 0.68270
 H416 H 0.90232 0.56058 0.64439
 H417 H 0.66957 0.43972 0.62589
 H418 H 0.59388 0.44126 0.59054
 H419 H 0.62148 0.57984 0.54420
 H420 H 0.69676 0.57829 0.57795
 C421 C 0.13637 0.48702 0.67192
 C422 C 0.09292 0.48675 0.64861
 C423 C 0.05179 0.49017 0.67322
 C424 C 0.05347 0.49561 0.72162
 C425 C 0.09751 0.49518 0.74430
 C426 C 0.13802 0.49096 0.72000
 C427 C 0.18040 0.48347 0.64722
 N428 N 0.21933 0.46990 0.67043
 N429 N 0.26000 0.46945 0.64988
 C430 C 0.26367 0.48278 0.60521
 N431 N 0.22460 0.49583 0.58163
 N432 N 0.18369 0.49606 0.60220
 C433 C 0.30987 0.48513 0.58396
 C434 C 0.31657 0.50811 0.54207
 C435 C 0.36104 0.51317 0.52430
 C436 C 0.40082 0.49483 0.54688
 C437 C 0.39280 0.47187 0.58923
 C438 C 0.34858 0.46707 0.60730
 H439 H 0.09071 0.48297 0.61150
 H440 H 0.01918 0.48772 0.65408
 H441 H 0.10040 0.49845 0.78146
 H442 H 0.17086 0.49141 0.73911
 H443 H 0.28765 0.52357 0.52356
 H444 H 0.36363 0.53377 0.49369
 H445 H 0.42038 0.45991 0.61073
 H446 H 0.34505 0.44986 0.64030
 C447 C 0.49950 0.67344 0.12678
 C448 C 0.49002 0.72054 0.12462
 C449 C 0.48670 0.74316 0.08245
 C450 C 0.49277 0.71967 0.04061
 C451 C 0.50316 0.67230 0.04290
 C452 C 0.50570 0.64930 0.08560
 C453 C 0.50331 0.65074 0.17236
 N454 N 0.51376 0.67641 0.21037
 N455 N 0.51507 0.65719 0.25207
 C456 C 0.50566 0.61147 0.25762
 N457 N 0.49556 0.58554 0.21957
 N458 N 0.49455 0.60478 0.17767
 C459 C 0.50515 0.59110 0.30442
 C460 C 0.48231 0.54896 0.31273
 C461 C 0.48019 0.53114 0.35745
 C462 C 0.50214 0.55358 0.39575
 C463 C 0.52391 0.59669 0.38626
 C464 C 0.52547 0.61504 0.34179
 H465 H 0.48489 0.74014 0.15567
 H466 H 0.47954 0.77970 0.08228
 H467 H 0.51056 0.65304 0.01233
 H468 H 0.51379 0.61300 0.08651
 H469 H 0.46500 0.53011 0.28483
 H470 H 0.46019 0.49970 0.36118
 H471 H 0.53830 0.61800 0.41286
 H472 H 0.54255 0.64833 0.33685
 C473 C 0.49922 0.67770 0.86320
 C474 C 0.46774 0.66221 0.89650
 C475 C 0.46607 0.68417 0.93935
 C476 C 0.49640 0.72167 0.95043
 C477 C 0.52658 0.73766 0.91568
 C478 C 0.52858 0.71554 0.87348
 C479 C 0.50027 0.65655 0.81693
 N480 N 0.53436 0.66855 0.78727
 N481 N 0.53439 0.65141 0.74479
 C482 C 0.50013 0.62167 0.73013
 N483 N 0.46628 0.60933 0.75993
 N484 N 0.46632 0.62638 0.80244
 C485 C 0.49911 0.60330 0.68263
 C486 C 0.46012 0.57854 0.66625
 C487 C 0.45910 0.55958 0.62237
 C488 C 0.49662 0.56369 0.59231
 C489 C 0.53508 0.59057 0.60900
 C490 C 0.53642 0.61009 0.65312
 H491 H 0.44397 0.63349 0.88929
 H492 H 0.44058 0.67222 0.96374
 H493 H 0.54820 0.76840 0.91984
 H494 H 0.55233 0.72931 0.84824
 H495 H 0.43001 0.57339 0.68745
 H496 H 0.42786 0.54218 0.61346
 H497 H 0.56487 0.59660 0.58870
 H498 H 0.56711 0.62968 0.66432
 C499 C 0.49373 0.32737 0.13212
 C500 C 0.49700 0.27943 0.13027
 C501 C 0.50103 0.25745 0.08829
 C502 C 0.50141 0.28240 0.04622
 C503 C 0.49603 0.33067 0.04812
 C504 C 0.49340 0.35300 0.09083
 C505 C 0.49174 0.34954 0.17761
 N506 N 0.51409 0.39048 0.18608
 N507 N 0.51632 0.40769 0.22861
 C508 C 0.49606 0.38479 0.26417
 N509 N 0.47289 0.34438 0.25542
 N510 N 0.47107 0.32697 0.21306
 C511 C 0.50037 0.40269 0.31165
 C512 C 0.46708 0.39159 0.34435
 C513 C 0.47051 0.41054 0.38856
 C514 C 0.50757 0.44055 0.40253
 C515 C 0.54188 0.44860 0.36940
 C516 C 0.53831 0.43074 0.32491
 H517 H 0.49751 0.25879 0.16153
 H518 H 0.50416 0.22027 0.08850
 H519 H 0.49302 0.35139 0.01721
 H520 H 0.49007 0.39014 0.09156
 H521 H 0.43744 0.36944 0.33537
 H522 H 0.44303 0.40169 0.41080
 H523 H 0.57144 0.46959 0.37630
 H524 H 0.56537 0.43915 0.30081
 C525 C 0.50898 0.32645 0.86779
 C526 C 0.47979 0.28781 0.87420
 C527 C 0.47822 0.26547 0.91651
 C528 C 0.50460 0.28157 0.95532
 C529 C 0.53619 0.31878 0.94797
 C530 C 0.53761 0.34163 0.90504
 C531 C 0.50934 0.34902 0.82170
 N532 N 0.53264 0.38958 0.81418
 N533 N 0.53160 0.40933 0.77246
 C534 C 0.50729 0.38931 0.73666
 N535 N 0.48424 0.34881 0.74432
 N536 N 0.48521 0.32921 0.78584
 C537 C 0.50586 0.41055 0.69001
 C538 C 0.48469 0.38695 0.65275
 C539 C 0.48401 0.40622 0.60852
 C540 C 0.50410 0.45019 0.59912
 C541 C 0.52533 0.47311 0.63756
 C542 C 0.52620 0.45393 0.68185
 H543 H 0.45808 0.27411 0.84621
 H544 H 0.45657 0.23455 0.91785
 H545 H 0.55990 0.33007 0.97544
 H546 H 0.56159 0.37059 0.90083
 H547 H 0.46916 0.35290 0.65740
 H548 H 0.46943 0.38483 0.58204
 H549 H 0.54391 0.50528 0.63400
 H550 H 0.54345 0.47306 0.70959
 C551 C 0.67239 0.87802 0.49814
 C552 C 0.66036 0.91414 0.52740
 C553 C 0.68469 0.95681 0.52607
 C554 C 0.72035 0.96498 0.49422
 C555 C 0.73318 0.92713 0.46706
 C556 C 0.70926 0.88526 0.46834
 C557 C 0.64895 0.83194 0.49866
 N558 N 0.66557 0.79779 0.47237
 N559 N 0.64595 0.75593 0.47213
 C560 C 0.60861 0.74615 0.49814
 N561 N 0.59152 0.78028 0.52446
 N562 N 0.61135 0.82243 0.52476
 C563 C 0.58824 0.69882 0.49796
 C564 C 0.54634 0.68833 0.51924
 C565 C 0.52832 0.64314 0.51917
 C566 C 0.55110 0.60633 0.49783
 C567 C 0.59369 0.61812 0.47732
 C568 C 0.61169 0.66310 0.47703
 H569 H 0.63283 0.90920 0.55178
 H570 H 0.67587 0.98344 0.55013
 H571 H 0.76291 0.92849 0.44512
 H572 H 0.72068 0.85810 0.44611
 H573 H 0.52752 0.71493 0.53636
 H574 H 0.49717 0.63764 0.53803
 H575 H 0.61537 0.59282 0.46369
 H576 H 0.64488 0.66949 0.46119
 C577 C 0.67799 0.14177 0.48044
 C578 C 0.65140 0.10055 0.48174
 C579 C 0.67319 0.05778 0.48476
 C580 C 0.72208 0.05568 0.48901
 C581 C 0.74803 0.09765 0.48642
 C582 C 0.72642 0.13978 0.48187
 C583 C 0.65624 0.18724 0.47969
 N584 N 0.67696 0.22344 0.45772
 N585 N 0.66032 0.26574 0.46077
 C586 C 0.62274 0.27357 0.48658
 N587 N 0.60170 0.23730 0.50818
 N588 N 0.61805 0.19487 0.50470
 C589 C 0.60580 0.32074 0.49208
 C590 C 0.61081 0.35374 0.45718
 C591 C 0.59166 0.39729 0.46160
 C592 C 0.56763 0.41020 0.50133
 C593 C 0.56637 0.37707 0.53714
 C594 C 0.58435 0.33316 0.53254
 H595 H 0.61381 0.10145 0.47983
 H596 H 0.65141 0.02702 0.48347
 H597 H 0.78565 0.09768 0.48880
 H598 H 0.74776 0.17105 0.48108
 H599 H 0.62790 0.34534 0.42560
 H600 H 0.59529 0.42006 0.43284
 H601 H 0.55061 0.38327 0.56880
 H602 H 0.58108 0.30873 0.56075
 C603 C 0.32022 0.86277 0.50482
 C604 C 0.33300 0.89870 0.47452
 C605 C 0.31199 0.94187 0.47669
 C606 C 0.27822 0.95074 0.50977
 C607 C 0.26479 0.91347 0.53876
 C608 C 0.28593 0.87091 0.53687
 C609 C 0.34077 0.81633 0.50256
 N610 N 0.33103 0.78385 0.53515
 N611 N 0.34823 0.74169 0.53295
 C612 C 0.37583 0.73004 0.49788
 N613 N 0.38576 0.76256 0.46534
 N614 N 0.36862 0.80480 0.46759
 C615 C 0.39510 0.68308 0.49533
 C616 C 0.41990 0.67013 0.45705
 C617 C 0.44009 0.62697 0.45539
 C618 C 0.43710 0.59429 0.49150
 C619 C 0.41010 0.60754 0.52902
 C620 C 0.38948 0.65080 0.53101
 H621 H 0.35885 0.89335 0.44878
 H622 H 0.32167 0.96833 0.45201
 H623 H 0.23665 0.91585 0.56244
 H624 H 0.27419 0.84380 0.55996
 H625 H 0.42433 0.69358 0.42820
 H626 H 0.45772 0.62050 0.42498
 H627 H 0.40483 0.58529 0.55773
 H628 H 0.36997 0.65918 0.56112
 C629 C 0.33277 0.12675 0.51942
 C630 C 0.28415 0.12553 0.51681
 C631 C 0.25970 0.08383 0.51381
 C632 C 0.28268 0.04129 0.51349
 C633 C 0.33168 0.04242 0.51829
 C634 C 0.35647 0.08483 0.52030
 C635 C 0.35729 0.17222 0.52047
 N636 N 0.40120 0.17806 0.50494
 N637 N 0.42079 0.22021 0.50230
 C638 C 0.39727 0.25804 0.51517
 N639 N 0.35386 0.25184 0.53150
 N640 N 0.33431 0.20997 0.53396
 C641 C 0.41709 0.30548 0.51016
 C642 C 0.39232 0.34320 0.52534
 C643 C 0.40947 0.38813 0.51963
 C644 C 0.45278 0.39814 0.49946
 C645 C 0.47570 0.35948 0.48185
 C646 C 0.45881 0.31416 0.48771
 H647 H 0.26465 0.15705 0.51595
 H648 H 0.22214 0.08468 0.51075
 H649 H 0.35118 0.01111 0.52067
 H650 H 0.39405 0.08486 0.52313
 H651 H 0.35884 0.33830 0.54102
 H652 H 0.38620 0.41432 0.52830
 H653 H 0.50600 0.36350 0.46144
 H654 H 0.47804 0.28607 0.47366
   
