data_POSCAR
  _audit_creation_date              2014-09-24
  _audit_creation_method            'ToBaCCo'
  _symmetry_space_group_name_H-M    'P1'
  _symmetry_Int_Tables_number       1
  _symmetry_cell_setting            triclinic
  loop_
  _symmetry_equiv_pos_as_xyz
 x,y,z
_cell_length_a 31.7810
_cell_length_b 31.7868
_cell_length_c 31.7797
_cell_angle_alpha 86.517300
_cell_angle_beta 87.611300
_cell_angle_gamma 83.855200
loop_
  _atom_site_label
  _atom_site_type_symbol
  _atom_site_fract_x
  _atom_site_fract_y
  _atom_site_fract_z
O1 O 0.56124 0.49233 0.03279
 O2 O 0.44456 0.49984 0.03195
 O3 O 0.50530 0.43802 0.03176
 O4 O 0.50053 0.55426 0.03293
 O5 O 0.50615 0.55838 -0.03659
 O6 O 0.50539 0.44313 -0.03780
 O7 O 0.44753 0.50734 -0.03747
 O8 O 0.56406 0.49414 -0.03677
 Cu9 Cu 0.50261 0.49567 0.03936
 Cu10 Cu 0.50608 0.50122 -0.04411
 C11 C 0.58260 0.49154 -0.00191
 C12 C 0.42595 0.50520 -0.00294
 C13 C 0.50554 0.42079 -0.00330
 C14 C 0.50315 0.57613 -0.00171
 O15 O -0.03133 0.56501 0.50037
 O16 O -0.03909 0.44990 0.50712
 O17 O -0.03262 0.50759 0.56088
 O18 O -0.03781 0.50831 0.44550
 O19 O 0.03177 0.49586 0.44009
 O20 O 0.03703 0.49497 0.55570
 O21 O 0.03051 0.43799 0.50117
 O22 O 0.03817 0.55321 0.49367
 Cu23 Cu -0.04220 0.50874 0.50388
 Cu24 Cu 0.04135 0.49431 0.49722
 C25 C 0.00473 0.57895 0.49600
 C26 C -0.00562 0.42423 0.50525
 C27 C 0.00307 0.50154 0.57796
 C28 C -0.00394 0.50229 0.42301
 O29 O 0.49365 0.03917 0.55935
 O30 O 0.49402 0.03509 0.44386
 O31 O 0.43654 0.03725 0.50346
 O32 O 0.55227 0.03729 0.49891
 O33 O 0.55956 -0.03253 0.50750
 O34 O 0.44375 -0.03266 0.50927
 O35 O 0.50357 -0.03482 0.45011
 O36 O 0.50047 -0.03062 0.56594
 Cu37 Cu 0.49354 0.04422 0.50083
 Cu38 Cu 0.50254 -0.03969 0.50878
 C39 C 0.49680 0.00503 0.58257
 C40 C 0.49872 -0.00054 0.42727
 C41 C 0.42033 0.00233 0.50664
 C42 C 0.57565 0.00240 0.50288
 C43 C 0.52755 0.10351 -0.07432
 C44 C 0.52627 0.07446 -0.10432
 C45 C 0.51067 0.03925 -0.08401
 N46 N 0.50242 0.04575 -0.04272
 C47 C 0.51270 0.08502 -0.03673
 C48 C 0.50133 0.00305 -0.10395
 C49 C 0.49244 -0.03461 -0.08087
 C50 C 0.47443 -0.06765 -0.09727
 C51 C 0.47444 -0.09945 -0.06597
 C52 C 0.49218 -0.08484 -0.03121
 N53 N 0.50299 -0.04528 -0.04048
 C54 C 0.50084 -0.10925 0.00669
 C55 C 0.50733 -0.09106 0.04505
 C56 C 0.51868 -0.11357 0.08231
 C57 C 0.51822 -0.08442 0.11251
 C58 C 0.50738 -0.04499 0.09253
 N59 N 0.50035 -0.04921 0.05142
 C60 C 0.50096 -0.00631 0.11273
 C61 C 0.49503 0.03371 0.09041
 C62 C 0.48124 0.07166 0.10849
 C63 C 0.48224 0.10316 0.07699
 C64 C 0.49718 0.08381 0.04058
 N65 N 0.50502 0.04152 0.04904
 C66 C 0.50560 0.10556 0.00147
 H67 H 0.53791 0.13480 -0.07965
 H68 H 0.53554 0.07888 -0.13731
 H69 H 0.52079 0.02003 0.02892
 H70 H 0.46290 -0.06895 -0.12868
 H71 H 0.46297 -0.13001 -0.06860
 H72 H 0.52593 -0.14748 0.08746
 H73 H 0.52481 -0.09163 0.14543
 H74 H 0.47345 0.13660 0.08073
 H75 H 0.52130 -0.02885 -0.02213
 H76 H 0.47189 0.07654 0.14108
 C77 C -0.06912 0.51291 0.89257
 C78 C -0.10062 0.51032 0.92314
 C79 C -0.08080 0.49921 0.96083
 N80 N -0.03828 0.49512 0.95431
 C81 C -0.03102 0.50384 0.91265
 C82 C -0.10186 0.49050 0.99995
 C83 C -0.08060 0.48481 1.03842
 C84 C -0.09712 0.46730 1.07574
 C85 C -0.06821 0.47023 1.10618
 C86 C -0.03479 0.48940 1.08660
 N87 N -0.04254 0.49813 1.04531
 C88 C 0.00021 0.50106 1.10758
 C89 C 0.03809 0.51088 1.08616
 C90 C 0.07085 0.52806 1.10424
 C91 C 0.10262 0.52989 1.07378
 C92 C 0.08818 0.51382 1.03811
 N93 N 0.04878 0.50214 1.04578
 C94 C 0.11204 0.50798 1.00000
 C95 C 0.09365 0.49844 0.96233
 C96 C 0.11623 0.48473 0.92654
 C97 C 0.08729 0.48307 0.89588
 C98 C 0.04767 0.49510 0.91392
 N99 N 0.05187 0.50456 0.95437
 C100 C 0.00942 0.50056 0.89210
 H101 H -0.07393 0.52016 0.85931
 H102 H -0.13426 0.51567 0.91802
 H103 H 0.02825 0.51944 0.97356
 H104 H -0.12706 0.45409 1.08065
 H105 H -0.07162 0.45976 1.13907
 H106 H 0.07184 0.53817 1.13606
 H107 H 0.13284 0.54176 1.07750
 H108 H 0.09485 0.47450 0.86381
 H109 H -0.02533 0.51673 1.02441
 H110 H 0.15015 0.47740 0.92258
 C111 C 0.11274 -0.07860 0.48414
 C112 C 0.08484 -0.10843 0.48214
 C113 C 0.04487 -0.08849 0.49158
 N114 N 0.04771 -0.04778 0.50026
 C115 C 0.08910 -0.04159 0.49556
 C116 C 0.00706 -0.10851 0.49440
 C117 C -0.03391 -0.08635 0.49962
 C118 C -0.07093 -0.10562 0.50681
 C119 C -0.10370 -0.07387 0.50811
 C120 C -0.08616 -0.03576 0.50151
 N121 N -0.04367 -0.04375 0.49573
 C122 C -0.11001 0.00463 0.49838
 C123 C -0.09208 0.04361 0.49537
 C124 C -0.11443 0.08299 0.48724
 C125 C -0.08616 0.11249 0.48901
 C126 C -0.04761 0.09029 0.49897
 N127 N -0.05136 0.04824 0.50291
 C128 C -0.01044 0.10891 0.50672
 C129 C 0.02885 0.08473 0.51415
 C130 C 0.06292 0.09997 0.53191
 C131 C 0.09572 0.06815 0.53117
 C132 C 0.08083 0.03426 0.51301
 N133 N 0.03999 0.04457 0.50278
 C134 C 0.10605 -0.00368 0.50368
 H135 H 0.14662 -0.08385 0.47831
 H136 H 0.09331 -0.14107 0.47474
 H137 H 0.02273 0.02735 0.48422
 H138 H -0.07446 -0.13913 0.50994
 H139 H -0.13683 -0.07866 0.51244
 H140 H -0.14769 0.08997 0.48085
 H141 H -0.09342 0.14642 0.48401
 H142 H 0.12713 0.06991 0.54242
 H143 H -0.02320 -0.02169 0.48559
 H144 H 0.06414 0.13093 0.54394
 C145 C -0.28215 0.48312 0.99838
 C146 C -0.30214 0.47387 0.96196
 C147 C -0.34626 0.47648 0.96191
 C148 C -0.37057 0.48788 0.99812
 C149 C -0.34935 0.49657 1.03398
 N150 N -0.30633 0.49444 1.03307
 C151 C -0.23560 0.48281 0.99927
 N152 N -0.21905 0.51058 1.02332
 C153 C -0.17666 0.51310 1.02449
 C154 C -0.14819 0.48650 1.00057
 C155 C -0.16442 0.45672 0.97662
 C156 C -0.20806 0.45489 0.97571
 H157 H -0.36134 0.46967 0.93351
 H158 H -0.36690 0.50580 1.06246
 H159 H -0.16519 0.53625 1.04356
 H160 H -0.14327 0.43526 0.95831
 H161 H -0.28406 0.46583 0.93342
 H162 H -0.21999 0.43167 0.95708
 C163 C 0.29288 0.51313 0.99612
 C164 C 0.31611 0.51973 0.95823
 C165 C 0.36022 0.51713 0.95850
 C166 C 0.38147 0.50846 0.99653
 C167 C 0.35680 0.50244 1.03384
 N168 N 0.31389 0.50443 1.03259
 C169 C 0.24626 0.51365 0.99704
 N170 N 0.22733 0.48700 1.02524
 C171 C 0.18475 0.48496 1.02701
 C172 C 0.15855 0.51107 0.99953
 C173 C 0.17725 0.53953 0.97096
 C174 C 0.22106 0.54078 0.96945
 H175 H 0.37756 0.52189 0.92882
 H176 H 0.37150 0.49544 1.06394
 H177 H 0.17139 0.46266 1.04951
 H178 H 0.15791 0.56049 0.94963
 H179 H 0.30053 0.52572 0.92849
 H180 H 0.23494 0.56302 0.94727
 C181 C 0.01181 -0.28950 0.49180
 C182 C 0.04808 -0.31647 0.48161
 C183 C 0.04603 -0.36026 0.48341
 C184 C 0.00750 -0.37710 0.49406
 C185 C -0.02825 -0.34852 0.50324
 N186 N -0.02506 -0.30618 0.50250
 C187 C 0.01303 -0.24341 0.49194
 N188 N 0.00171 -0.22328 0.52791
 C189 C 0.00095 -0.18058 0.52962
 C190 C 0.01046 -0.15553 0.49329
 C191 C 0.02206 -0.17567 0.45584
 C192 C 0.02400 -0.21977 0.45521
 H193 H 0.07449 -0.38078 0.47599
 H194 H -0.05858 -0.35974 0.51191
 H195 H -0.00808 -0.16600 0.55902
 H196 H 0.02940 -0.15721 0.42722
 H197 H 0.07780 -0.30380 0.47320
 H198 H 0.03275 -0.23518 0.42618
 C199 C -0.01328 0.29035 0.51035
 C200 C -0.04899 0.31762 0.52216
 C201 C -0.04658 0.36135 0.52052
 C202 C -0.00866 0.37796 0.50750
 C203 C 0.02628 0.34957 0.49604
 N204 N 0.02302 0.30721 0.49741
 C205 C -0.01421 0.24387 0.51025
 N206 N 0.01191 0.22172 0.48246
 C207 C 0.01318 0.17899 0.48059
 C208 C -0.01254 0.15588 0.50816
 C209 C -0.03924 0.17785 0.53756
 C210 C -0.04036 0.22185 0.53857
 H211 H -0.07436 0.38211 0.52945
 H212 H 0.05604 0.36101 0.48547
 H213 H 0.03438 0.16299 0.45771
 H214 H -0.05897 0.16087 0.55980
 H215 H -0.07872 0.30556 0.53164
 H216 H -0.06070 0.23816 0.56189
 C217 C 0.49586 0.00894 -0.28523
 C218 C 0.48931 0.04688 -0.31015
 C219 C 0.48977 0.04568 -0.35399
 C220 C 0.49635 0.00670 -0.37329
 C221 C 0.50280 -0.03053 -0.34700
 N222 N 0.50273 -0.02843 -0.30439
 C223 C 0.49650 0.00857 -0.23872
 N224 N 0.52190 -0.02220 -0.21760
 C225 C 0.52409 -0.02445 -0.17487
 C226 C 0.49931 0.00514 -0.15080
 C227 C 0.47234 0.03665 -0.17183
 C228 C 0.47100 0.03862 -0.21575
 H229 H 0.48487 0.07533 -0.37267
 H230 H 0.50832 -0.06135 -0.36015
 H231 H 0.54516 -0.04926 -0.15966
 H232 H 0.45230 0.05961 -0.15419
 H233 H 0.48474 0.07726 -0.29605
 H234 H 0.44962 0.06286 -0.23137
 C235 C 0.49581 -0.00489 0.29354
 C236 C 0.47222 0.02837 0.31378
 C237 C 0.47366 0.03002 0.35743
 C238 C 0.49780 -0.00186 0.38100
 C239 C 0.52072 -0.03479 0.35961
 N240 N 0.51963 -0.03520 0.31686
 C241 C 0.49599 -0.00677 0.24730
 N242 N 0.53326 -0.01644 0.22558
 C243 C 0.53553 -0.01687 0.18275
 C244 C 0.49876 -0.00771 0.15956
 C245 C 0.45989 0.00098 0.18138
 C246 C 0.45842 0.00195 0.22524
 H247 H 0.45550 0.05590 0.37284
 H248 H 0.53996 -0.05975 0.37676
 H249 H 0.56597 -0.02401 0.16676
 H250 H 0.43091 0.00778 0.16433
 H251 H 0.45353 0.05325 0.29593
 H252 H 0.42827 0.00918 0.24178
 C253 C 0.50438 -0.28978 -0.00071
 C254 C 0.51499 -0.31029 -0.03817
 C255 C 0.51425 -0.35400 -0.03852
 C256 C 0.50312 -0.37742 -0.00166
 C257 C 0.49227 -0.35566 0.03505
 N258 N 0.49293 -0.31293 0.03455
 C259 C 0.50467 -0.24354 0.00106
 N260 N 0.47662 -0.22198 0.02766
 C261 C 0.47492 -0.17930 0.03034
 C262 C 0.50288 -0.15605 0.00559
 C263 C 0.53247 -0.17767 -0.02145
 C264 C 0.53349 -0.22137 -0.02384
 H265 H 0.52263 -0.36946 -0.06759
 H266 H 0.48313 -0.37251 0.06406
 H267 H 0.45161 -0.16347 0.05145
 H268 H 0.55467 -0.16061 -0.04075
 H269 H 0.52314 -0.29277 -0.06710
 H270 H 0.55695 -0.23757 -0.04451
 C271 C 0.50415 0.28678 -0.00470
 C272 C 0.49508 0.31229 -0.04148
 C273 C 0.49593 0.35599 -0.04109
 C274 C 0.50555 0.37441 -0.00413
 C275 C 0.51485 0.34776 0.03187
 N276 N 0.51419 0.30516 0.03063
 C277 C 0.50364 0.24040 -0.00367
 N278 N 0.53089 0.21528 0.02141
 C279 C 0.53215 0.17232 0.02356
 C280 C 0.50455 0.15246 -0.00012
 C281 C 0.47565 0.17774 -0.02547
 C282 C 0.47518 0.22167 -0.02747
 H283 H 0.48874 0.37536 -0.06962
 H284 H 0.52281 0.36069 0.06090
 H285 H 0.55470 0.15367 0.04359
 H286 H 0.45349 0.16337 -0.04366
 H287 H 0.48801 0.29864 -0.07043
 H288 H 0.45231 0.24071 -0.04684
 C289 C -0.29048 0.00353 0.50359
 C290 C -0.30946 -0.02951 0.52558
 C291 C -0.35317 -0.03021 0.52477
 C292 C -0.37800 0.00234 0.50279
 C293 C -0.35782 0.03485 0.48120
 N294 N -0.31500 0.03442 0.48173
 C295 C -0.24435 0.00489 0.50330
 N296 N -0.22330 0.01543 0.46662
 C297 C -0.18053 0.01592 0.46430
 C298 C -0.15683 0.00602 0.50046
 C299 C -0.17799 -0.00375 0.53876
 C300 C -0.22174 -0.00475 0.54024
 H301 H -0.36764 -0.05581 0.54183
 H302 H -0.37597 0.06029 0.46359
 H303 H -0.16499 0.02377 0.43433
 H304 H -0.16046 -0.01130 0.56723
 H305 H -0.29060 -0.05484 0.54267
 H306 H -0.23779 -0.01261 0.56995
 C307 C 0.28613 0.00230 0.50400
 C308 C 0.30452 0.04001 0.49391
 C309 C 0.34826 0.04007 0.49530
 C310 C 0.37382 0.00266 0.50656
 C311 C 0.35415 -0.03427 0.51704
 N312 N 0.31135 -0.03349 0.51572
 C313 C 0.23995 0.00080 0.50269
 N314 N 0.22075 -0.02628 0.53025
 C315 C 0.17825 -0.02866 0.53099
 C316 C 0.15274 -0.00309 0.50254
 C317 C 0.17193 0.02439 0.47341
 C318 C 0.21547 0.02646 0.47337
 H319 H 0.36206 0.06932 0.48717
 H320 H 0.37269 -0.06371 0.52625
 H321 H 0.16432 -0.05016 0.55393
 H322 H 0.15307 0.04434 0.45087
 H323 H 0.28537 0.06933 0.48558
 H324 H 0.22977 0.04753 0.45028
 C325 C -0.00850 0.50392 1.28864
 C326 C -0.04573 0.51514 1.31259
 C327 C -0.04434 0.51451 1.35647
 C328 C -0.00602 0.50278 1.37658
 C329 C 0.03036 0.49140 1.35151
 N330 N 0.02817 0.49208 1.30887
 C331 C -0.00792 0.50372 1.24210
 N332 N 0.02262 0.47791 1.22223
 C333 C 0.02568 0.47634 1.17957
 C334 C -0.00284 0.50221 1.15428
 C335 C -0.03437 0.52929 1.17391
 C336 C -0.03705 0.53018 1.21778
 H337 H -0.07322 0.52324 1.37460
 H338 H 0.06051 0.48183 1.36570
 H339 H 0.05035 0.45502 1.16538
 H340 H -0.05664 0.54992 1.15519
 H341 H -0.07578 0.52359 1.29787
 H342 H -0.06104 0.55203 1.23221
 C343 C 0.00853 0.50544 0.71143
 C344 C -0.02474 0.52908 0.69020
 C345 C -0.02669 0.52739 0.64663
 C346 C 0.00485 0.50285 0.62412
 C347 C 0.03779 0.47987 0.64647
 N348 N 0.03853 0.48127 0.68914
 C349 C 0.01063 0.50540 0.75764
 N350 N 0.02108 0.46822 0.78021
 C351 C 0.02155 0.46598 0.82307
 C352 C 0.01161 0.50269 0.84534
 C353 C 0.00194 0.54145 0.82270
 C354 C 0.00109 0.54290 0.77882
 H355 H -0.05258 0.54560 0.63048
 H356 H 0.06249 0.46033 0.63015
 H357 H 0.02919 0.43560 0.83978
 H358 H -0.00576 0.57031 0.83912
 H359 H -0.04945 0.54798 0.70722
 H360 H -0.00680 0.57298 0.76161
   
