data_POSCAR
  _audit_creation_date              2014-09-24
  _audit_creation_method            'ToBaCCo'
  _symmetry_space_group_name_H-M    'P1'
  _symmetry_Int_Tables_number       1
  _symmetry_cell_setting            triclinic
  loop_
  _symmetry_equiv_pos_as_xyz
 x,y,z
_cell_length_a 30.5200
_cell_length_b 30.9071
_cell_length_c 38.1589
_cell_angle_alpha 89.254300
_cell_angle_beta 89.797300
_cell_angle_gamma 90.510900
loop_
  _atom_site_label
  _atom_site_type_symbol
  _atom_site_fract_x
  _atom_site_fract_y
  _atom_site_fract_z
B1 B 0.28023 0.24721 0.28321
 B2 B 0.22813 0.23751 0.27080
 B3 B 0.24537 0.28880 0.27638
 B4 B 0.29808 0.29289 0.26285
 B5 B 0.31295 0.24306 0.24809
 B6 B 0.26924 0.20858 0.25329
 B7 B 0.24572 0.27273 0.20718
 B8 B 0.29790 0.28206 0.21981
 B9 B 0.28008 0.23106 0.21373
 B10 B 0.22780 0.22675 0.22748
 B11 B 0.21294 0.27609 0.24216
 B12 B 0.25652 0.31075 0.23713
 B13 B 0.74351 0.76410 0.22238
 B14 B 0.72880 0.71417 0.23659
 B15 B 0.78157 0.72522 0.22648
 B16 B 0.79348 0.77627 0.23900
 B17 B 0.74751 0.79644 0.25738
 B18 B 0.70694 0.75786 0.25536
 B19 B 0.77230 0.72664 0.29692
 B20 B 0.78710 0.77657 0.28327
 B21 B 0.73414 0.76573 0.29281
 B22 B 0.72233 0.71464 0.28030
 B23 B 0.76903 0.69430 0.26214
 B24 B 0.80930 0.73296 0.26387
 B25 B 0.72041 0.23379 -0.20544
 B26 B 0.70872 0.28464 -0.21852
 B27 B 0.76136 0.27096 -0.21295
 B28 B 0.76764 0.21873 -0.22563
 B29 B 0.71774 0.20135 -0.24016
 B30 B 0.68092 0.24248 -0.23560
 B31 B 0.74399 0.26909 -0.28216
 B32 B 0.75594 0.21850 -0.26926
 B33 B 0.70309 0.23298 -0.27463
 B34 B 0.69706 0.28468 -0.26188
 B35 B 0.74689 0.30174 -0.24795
 B36 B 0.78367 0.26088 -0.25205
 B37 B 0.26887 0.75792 -0.29887
 B38 B 0.21830 0.77018 -0.28462
 B39 B 0.23070 0.71886 -0.29380
 B40 B 0.28303 0.70928 -0.28171
 B41 B 0.30259 0.75616 -0.26487
 B42 B 0.26241 0.79419 -0.26653
 B43 B 0.23405 0.72750 -0.22360
 B44 B 0.28471 0.71618 -0.23806
 B45 B 0.27247 0.76775 -0.22893
 B46 B 0.21985 0.77657 -0.24048
 B47 B 0.20006 0.72978 -0.25801
 B48 B 0.24047 0.69188 -0.25637
 B49 B 1.24563 1.27589 0.78857
 B50 B 1.29749 1.28724 0.77559
 B51 B 1.28411 1.23729 0.79068
 B52 B 1.23301 1.22457 0.77653
 B53 B 1.21533 1.26751 0.75248
 B54 B 1.25510 1.30684 0.75236
 B55 B 1.28825 1.23558 0.72011
 B56 B 1.23654 1.22420 0.73209
 B57 B 1.24931 1.27430 0.71790
 B58 B 1.30033 1.28683 0.73170
 B59 B 1.31815 1.24344 0.75576
 B60 B 1.27815 1.20461 0.75630
 B61 B 0.76716 0.72303 0.77552
 B62 B 0.71545 0.71244 0.76197
 B63 B 0.72984 0.76265 0.77452
 B64 B 0.78165 0.77342 0.76080
 B65 B 0.79913 0.72842 0.74033
 B66 B 0.75825 0.69041 0.74104
 B67 B 0.72865 0.76076 0.70380
 B68 B 0.78031 0.77072 0.71642
 B69 B 0.76684 0.72033 0.70511
 B70 B 0.71454 0.71035 0.71794
 B71 B 0.69687 0.75541 0.73931
 B72 B 0.73819 0.79300 0.73831
 B73 B 1.23551 0.72138 0.30028
 B74 B 1.22383 0.77178 0.28627
 B75 B 1.27631 0.75840 0.29435
 B76 B 1.28381 0.70652 0.28280
 B77 B 1.23538 0.68810 0.26631
 B78 B 1.19784 0.72874 0.26820
 B79 B 1.26454 0.75535 0.22437
 B80 B 1.27567 0.70513 0.23927
 B81 B 1.22349 0.71817 0.23022
 B82 B 1.21554 0.77057 0.24193
 B83 B 1.26375 0.78887 0.25858
 B84 B 1.30126 0.74809 0.25675
 B85 B 0.75729 1.25350 0.20392
 B86 B 0.70902 1.27440 0.21701
 B87 B 0.71455 1.22033 0.21367
 B88 B 0.76547 1.20659 0.22676
 B89 B 0.79100 1.25320 0.23853
 B90 B 0.75621 1.29524 0.23199
 B91 B 0.72046 1.24165 0.28242
 B92 B 0.76890 1.22049 0.26942
 B93 B 0.76338 1.27455 0.27237
 B94 B 0.71261 1.28832 0.25949
 B95 B 0.68684 1.24169 0.24764
 B96 B 0.72163 1.19942 0.25441
 N97 N 0.58244 1.00760 0.04018
 N98 N 0.61518 1.03461 0.04671
 N99 N 0.53566 0.92054 0.05946
 N100 N 0.54643 0.89726 0.08731
 N101 N 0.56678 0.91822 0.03549
 N102 N 0.59900 0.89338 0.04715
 N103 N 0.55206 1.00994 0.06452
 N104 N 0.56332 1.03856 0.08824
 C105 C 0.60275 1.05377 0.07685
 C106 C 0.58543 0.87962 0.07923
 N107 N 0.41071 0.94648 0.03697
 N108 N 0.37350 0.92639 0.04521
 N109 N 0.45911 1.02594 0.06616
 N110 N 0.45278 1.04835 0.09483
 N111 N 0.42887 1.03498 0.04278
 N112 N 0.40126 1.06381 0.05524
 N113 N 0.44138 0.93694 0.05990
 N114 N 0.42580 0.90966 0.08390
 Mn115 Mn 0.49702 0.97320 0.06254
 C116 C 0.38362 0.90285 0.07419
 C117 C 0.41715 1.07239 0.08756
 N118 N 0.56598 0.92700 -0.04106
 N119 N 0.59527 0.90040 -0.05438
 N120 N 0.55310 1.02511 -0.05813
 N121 N 0.56751 1.05490 -0.08062
 N122 N 0.58360 1.01575 -0.03515
 N123 N 0.61980 1.03834 -0.04181
 N124 N 0.53563 0.93590 -0.06447
 N125 N 0.54371 0.91558 -0.09389
 Mn126 Mn 0.57480 0.96698 -0.00014
 C127 C 0.58034 0.89283 -0.08714
 C128 C 0.60906 1.06313 -0.06995
 N129 N 0.42889 1.04419 -0.03325
 N130 N 0.40248 1.07677 -0.04094
 N131 N 0.44228 0.95246 -0.06293
 N132 N 0.42876 0.92797 -0.08887
 N133 N 0.41153 0.95532 -0.03891
 N134 N 0.37617 0.93312 -0.04809
 N135 N 0.46028 1.04170 -0.05676
 N136 N 0.45656 1.07277 -0.08045
 Mn137 Mn 0.41973 0.99533 0.00188
 Mn138 Mn 0.49775 0.98879 -0.06070
 Cl139 Cl 0.49730 0.98077 0.00091
 C140 C 0.42086 1.09486 -0.07014
 C141 C 0.38762 0.91578 -0.07923
 N142 N 1.06608 0.53038 0.54238
 N143 N 1.09441 0.56075 0.55122
 N144 N 1.03905 0.43793 0.56625
 N145 N 1.04743 0.40957 0.59144
 N146 N 1.07197 0.44035 0.54405
 N147 N 1.10384 0.41430 0.55377
 N148 N 1.03298 0.52884 0.56447
 N149 N 1.03776 0.55849 0.58876
 C150 C 1.07599 0.57845 0.57988
 C151 C 1.08779 0.39484 0.58308
 N152 N 0.91620 0.42961 0.53513
 N153 N 0.88477 0.40124 0.54247
 N154 N 0.93849 0.52184 0.55888
 N155 N 0.92343 0.54814 0.58292
 N156 N 0.91052 0.51906 0.53292
 N157 N 0.87553 0.54263 0.53876
 N158 N 0.94492 0.43112 0.56064
 N159 N 0.93428 0.40315 0.58569
 Mn160 Mn 0.98887 0.47997 0.56295
 C161 C 0.89709 0.38442 0.57373
 C162 C 0.88443 0.56111 0.56973
 N163 N 1.07935 0.43965 0.46887
 N164 N 1.11481 0.41707 0.46178
 N165 N 1.04523 0.52847 0.44174
 N166 N 1.05270 0.55989 0.41873
 N167 N 1.07384 0.53005 0.46728
 N168 N 1.10213 0.56207 0.46205
 N169 N 1.05133 0.43776 0.44281
 N170 N 1.06731 0.41410 0.41738
 Mn171 Mn 1.07313 0.48510 0.50568
 C172 C 1.10647 0.40068 0.42980
 C173 C 1.08807 0.58069 0.43190
 N174 N 0.91864 0.51950 0.45813
 N175 N 0.89023 0.55057 0.45158
 N176 N 0.95646 0.43120 0.43731
 N177 N 0.94873 0.40370 0.41178
 N178 N 0.92486 0.42887 0.46070
 N179 N 0.89553 0.39947 0.45225
 N180 N 0.95184 0.52209 0.43628
 N181 N 0.94735 0.55526 0.41456
 Mn182 Mn 0.91735 0.47423 0.49656
 Mn183 Mn 1.00123 0.47979 0.43914
 Cl184 Cl 0.99520 0.47969 0.50115
 C185 C 0.90876 0.57269 0.42437
 C186 C 0.91104 0.38350 0.42203
 N187 N 1.03768 0.58445 0.03453
 N188 N 1.04381 0.61654 0.05669
 N189 N 1.06998 0.55709 -0.03911
 N190 N 1.10066 0.57231 -0.06059
 N191 N 1.03626 0.58333 -0.03889
 N192 N 1.04342 0.61693 -0.06005
 N193 N 1.07134 0.55820 0.03494
 N194 N 1.10081 0.57145 0.05791
 C195 C 1.08311 0.60779 0.07149
 C196 C 1.08347 0.60934 -0.07389
 N197 N 1.05436 0.42961 -0.03570
 N198 N 1.06547 0.40000 -0.05863
 N199 N 1.08307 0.46505 0.03634
 N200 N 1.11780 0.45825 0.05610
 N201 N 1.05648 0.43134 0.03776
 N202 N 1.07275 0.40083 0.05836
 N203 N 1.08166 0.46278 -0.03720
 N204 N 1.11258 0.45601 -0.06099
 Mn205 Mn 1.07679 0.51085 -0.00134
 C206 C 1.10170 0.41678 -0.07427
 C207 C 1.11066 0.41834 0.07008
 N208 N 0.94199 0.57060 -0.03736
 N209 N 0.92861 0.59938 -0.06081
 N210 N 0.91704 0.53756 0.03748
 N211 N 0.88816 0.54192 0.06310
 N212 N 0.94339 0.57145 0.03593
 N213 N 0.93275 0.59988 0.05994
 N214 N 0.91580 0.53658 -0.03672
 N215 N 0.88426 0.54128 -0.06012
 Mn216 Mn 0.98971 0.57760 -0.00144
 C217 C 0.89281 0.58052 -0.07513
 C218 C 0.89848 0.58099 0.07687
 N219 N 0.96179 0.41869 0.03993
 N220 N 0.95445 0.38445 0.06031
 N221 N 0.92708 0.44290 -0.03461
 N222 N 0.89653 0.42744 -0.05558
 N223 N 0.96064 0.41656 -0.03346
 N224 N 0.95354 0.38243 -0.05325
 N225 N 0.92685 0.44336 0.03884
 N226 N 0.89484 0.42578 0.05803
 Mn227 Mn 1.00841 0.42406 0.00223
 Mn228 Mn 0.92134 0.49024 0.00122
 Cl229 Cl 0.99907 0.50062 0.00018
 C230 C 0.91283 0.38943 0.07187
 C231 C 0.91372 0.38995 -0.06732
 N232 N 0.57525 1.03529 0.54480
 N233 N 0.60262 1.06441 0.55767
 N234 N 0.54176 0.93871 0.54960
 N235 N 0.54786 0.90282 0.56802
 N236 N 0.57497 0.94631 0.52836
 N237 N 0.60489 0.91592 0.53237
 N238 N 0.54330 1.02699 0.56713
 N239 N 0.54808 1.04985 0.59572
 C240 C 0.58468 1.07346 0.58927
 C241 C 0.58692 0.88828 0.55650
 N242 N 0.41859 0.94973 0.52269
 N243 N 0.38356 0.92488 0.52702
 N244 N 0.44952 1.02900 0.56413
 N245 N 0.44080 1.05089 0.59271
 N246 N 0.42105 1.03805 0.53945
 N247 N 0.39238 1.06670 0.55048
 N248 N 0.44801 0.94075 0.54664
 N249 N 0.43385 0.90917 0.56747
 Mn250 Mn 0.49573 0.98372 0.55710
 C251 C 0.39414 0.89878 0.55429
 C252 C 0.40569 1.07488 0.58358
 N253 N 0.57940 0.96912 0.45461
 N254 N 0.60715 0.93936 0.44398
 N255 N 0.55149 1.06613 0.44688
 N256 N 0.56359 1.09895 0.42653
 N257 N 0.58170 1.05790 0.47049
 N258 N 0.61543 1.08484 0.46617
 N259 N 0.55056 0.97782 0.43009
 N260 N 0.55814 0.95462 0.40205
 Mn261 Mn 0.57846 1.00221 0.49966
 C262 C 0.59323 0.93055 0.41111
 C263 C 0.60317 1.11098 0.43908
 N264 N 0.42491 1.05995 0.46604
 N265 N 0.39129 1.08511 0.45910
 N266 N 0.45635 0.97899 0.42699
 N267 N 0.45234 0.95351 0.39976
 N268 N 0.42474 0.97140 0.44972
 N269 N 0.39871 0.93998 0.43887
 N270 N 0.45687 1.06744 0.44353
 N271 N 0.44552 1.09819 0.42098
 Mn272 Mn 0.42205 1.00485 0.49443
 Mn273 Mn 0.50386 1.02274 0.43664
 Cl274 Cl 0.50011 1.00354 0.49694
 C275 C 0.40500 1.10975 0.43169
 C276 C 0.41646 0.92920 0.40765
 N277 N 1.08777 1.06011 0.53513
 N278 N 1.12215 1.08356 0.54475
 N279 N 1.05686 0.97007 0.55798
 N280 N 1.06616 0.94095 0.58207
 N281 N 1.08499 0.96901 0.53194
 N282 N 1.11479 0.93880 0.53805
 N283 N 1.05780 1.06032 0.55985
 N284 N 1.07077 1.08330 0.58666
 C285 C 1.11049 1.09821 0.57688
 C286 C 1.10195 0.92131 0.56946
 N287 N 0.93105 0.96977 0.54511
 N288 N 0.89902 0.94729 0.56035
 N289 N 0.96455 1.06010 0.56758
 N290 N 0.95641 1.07980 0.59730
 N291 N 0.92957 1.05993 0.54741
 N292 N 0.89686 1.07951 0.56359
 N293 N 0.96546 0.97035 0.56573
 N294 N 0.95799 0.94854 0.59488
 Mn295 Mn 1.01127 1.01547 0.56245
 C296 C 0.91698 0.93399 0.59108
 C297 C 0.91449 1.09247 0.59445
 N298 N 1.07647 0.97502 0.45501
 N299 N 1.10693 0.95072 0.44038
 N300 N 1.04425 1.06819 0.43884
 N301 N 1.05089 1.09801 0.41438
 N302 N 1.07808 1.06577 0.45995
 N303 N 1.10834 1.09448 0.45070
 N304 N 1.04262 0.97825 0.43394
 N305 N 1.04911 0.95661 0.40490
 Mn306 Mn 1.08245 1.01721 0.49541
 C307 C 1.08891 0.93902 0.40928
 C308 C 1.09058 1.11466 0.42249
 N309 N 0.91972 1.06333 0.47026
 N310 N 0.88314 1.08224 0.45963
 N311 N 0.94968 0.97732 0.44173
 N312 N 0.93884 0.95141 0.41601
 N313 N 0.92214 0.97304 0.46814
 N314 N 0.89152 0.94389 0.46072
 N315 N 0.95032 1.06790 0.44603
 N316 N 0.93582 1.09123 0.41950
 Mn317 Mn 0.92519 1.01635 0.50773
 Mn318 Mn 0.99670 1.02313 0.44021
 Cl319 Cl 1.00378 1.01808 0.50139
 C320 C 0.89434 1.10061 0.42835
 C321 C 0.90284 0.93038 0.42812
 N322 N 0.57600 0.57584 -0.03511
 N323 N 0.59841 0.58283 -0.06421
 N324 N 0.54566 0.59538 0.04047
 N325 N 0.55045 0.62129 0.06717
 N326 N 0.57809 0.56787 0.03862
 N327 N 0.60597 0.57438 0.06460
 N328 N 0.54447 0.60414 -0.03215
 N329 N 0.54473 0.63142 -0.05893
 C330 C 0.57862 0.61776 -0.07857
 C331 C 0.58793 0.60787 0.08217
 N332 N 0.42362 0.55803 0.03951
 N333 N 0.39432 0.56006 0.06474
 N334 N 0.45142 0.59841 -0.03143
 N335 N 0.44613 0.62669 -0.05711
 N336 N 0.42310 0.56648 -0.03387
 N337 N 0.39787 0.57185 -0.06154
 N338 N 0.45240 0.58951 0.04189
 N339 N 0.44349 0.61408 0.06897
 Mn340 Mn 0.49848 0.59734 0.00480
 C341 C 0.40775 0.59448 0.08330
 C342 C 0.41312 0.60930 -0.07584
 N343 N 0.58314 0.47515 0.03169
 N344 N 0.61174 0.46830 0.05689
 N345 N 0.55129 0.45216 -0.04318
 N346 N 0.55482 0.43066 -0.07261
 N347 N 0.58066 0.48344 -0.04189
 N348 N 0.60539 0.48355 -0.07042
 N349 N 0.55432 0.44342 0.03045
 N350 N 0.56260 0.41404 0.05494
 Mn351 Mn 0.58026 0.52559 -0.00165
 C352 C 0.59854 0.43011 0.07124
 C353 C 0.58820 0.45091 -0.08957
 N354 N 0.42668 0.47514 -0.03905
 N355 N 0.39790 0.47101 -0.06432
 N356 N 0.45978 0.43845 0.03208
 N357 N 0.45851 0.41229 0.05972
 N358 N 0.42830 0.46702 0.03379
 N359 N 0.40513 0.46155 0.06260
 N360 N 0.45771 0.44635 -0.04160
 N361 N 0.45091 0.42167 -0.06911
 Mn362 Mn 0.42498 0.51663 0.00004
 Mn363 Mn 0.50589 0.44433 -0.00553
 Cl364 Cl 0.50256 0.52087 -0.00051
 C365 C 0.41346 0.43778 -0.08303
 C366 C 0.42408 0.42727 0.07838
 C367 C 0.28890 1.20737 0.14781
 C368 C 0.29870 1.20056 0.18349
 C369 C 0.32896 1.16810 0.19242
 C370 C 0.35032 1.14451 0.16646
 C371 C 0.34013 1.15168 0.13079
 C372 C 0.30895 1.18285 0.12181
 C373 C 0.36184 1.12804 0.10481
 C374 C 0.39442 1.09825 0.11420
 C375 C 0.40469 1.09201 0.14978
 C376 C 0.38257 1.11459 0.17568
 H377 H 0.33752 1.16228 0.21961
 H378 H 0.30089 1.18909 0.09459
 H379 H 0.35386 1.13319 0.07742
 H380 H 0.39098 1.10890 0.20291
 H381 H 0.26673 1.23221 0.13944
 H382 H 0.42947 1.06906 0.15772
 C383 C 0.83939 0.70161 0.67316
 C384 C 0.79322 0.69600 0.67470
 C385 C 0.77341 0.66637 0.65182
 C386 C 0.79973 0.64188 0.62905
 C387 C 0.84585 0.64745 0.62947
 C388 C 0.86507 0.67799 0.65087
 C389 C 0.87271 0.62151 0.60930
 C390 C 0.85459 0.58992 0.58808
 C391 C 0.80880 0.58531 0.58595
 C392 C 0.78143 0.61101 0.60657
 H393 H 0.73822 0.66141 0.65250
 H394 H 0.90030 0.68287 0.65113
 H395 H 0.90805 0.62548 0.61050
 H396 H 0.74627 0.60620 0.60546
 H397 H 0.85671 0.72406 0.68973
 H398 H 0.79436 0.56089 0.56937
 C399 C 0.72513 0.76428 0.15408
 C400 C 0.72386 0.78527 0.18668
 C401 C 0.69784 0.82265 0.18927
 C402 C 0.67168 0.83685 0.16140
 C403 C 0.67283 0.81538 0.12899
 C404 C 0.70050 0.77956 0.12544
 C405 C 0.64524 0.82945 0.10139
 C406 C 0.61548 0.86343 0.10682
 C407 C 0.61476 0.88393 0.13945
 C408 C 0.64287 0.87123 0.16623
 H409 H 0.69528 0.83952 0.21387
 H410 H 0.70149 0.76207 0.10104
 H411 H 0.64598 0.81339 0.07632
 H412 H 0.64145 0.88787 0.19103
 H413 H 0.74270 0.73441 0.15111
 H414 H 0.59271 0.91053 0.14415
 C415 C 1.25001 0.32330 0.66078
 C416 C 1.22700 0.29523 0.68371
 C417 C 1.18142 0.28994 0.67895
 C418 C 1.15904 0.31309 0.65319
 C419 C 1.18224 0.34165 0.63062
 C420 C 1.22792 0.34585 0.63414
 C421 C 1.15896 0.36688 0.60620
 C422 C 1.11284 0.36482 0.60533
 C423 C 1.09038 0.33569 0.62752
 C424 C 1.11333 0.30957 0.65094
 H425 H 1.16243 0.26907 0.69636
 H426 H 1.24627 0.36788 0.61721
 H427 H 1.17642 0.38963 0.58927
 H428 H 1.09519 0.28768 0.66815
 H429 H 1.28471 0.32916 0.66418
 H430 H 1.05494 0.33351 0.62701
 C431 C 0.65716 1.22328 -0.15959
 C432 C 0.70013 1.21176 -0.16991
 C433 C 0.71865 1.17472 -0.15386
 C434 C 0.69364 1.14880 -0.13004
 C435 C 0.64996 1.16024 -0.12216
 C436 C 0.63280 1.19829 -0.13603
 C437 C 0.62313 1.13256 -0.10184
 C438 C 0.63934 1.09360 -0.08833
 C439 C 0.68353 1.08330 -0.09426
 C440 C 0.71037 1.11046 -0.11523
 H441 H 0.75111 1.16449 -0.16156
 H442 H 0.59946 1.20765 -0.13013
 H443 H 0.58921 1.14095 -0.09704
 H444 H 0.74379 1.10095 -0.12056
 H445 H 0.64030 1.25018 -0.17162
 H446 H 0.69674 1.05335 -0.08394
 C447 C 1.24229 0.67008 0.35534
 C448 C 1.21722 0.69986 0.33592
 C449 C 1.17253 0.70443 0.34448
 C450 C 1.15245 0.67740 0.36948
 C451 C 1.17765 0.64672 0.38807
 C452 C 1.22286 0.64439 0.38168
 C453 C 1.15664 0.61705 0.41086
 C454 C 1.11071 0.61639 0.41349
 C455 C 1.08612 0.64756 0.39549
 C456 C 1.10691 0.67847 0.37419
 H457 H 1.15227 0.72686 0.32987
 H458 H 1.24269 0.62092 0.39558
 H459 H 1.17558 0.59254 0.42442
 H460 H 1.08716 0.70177 0.36001
 H461 H 1.27652 0.66515 0.34919
 H462 H 1.05068 0.64741 0.39740
 C463 C 0.34573 0.79728 -0.20281
 C464 C 0.29947 0.79494 -0.19987
 C465 C 0.27941 0.81635 -0.17159
 C466 C 0.30530 0.83997 -0.14747
 C467 C 0.35128 0.84215 -0.15199
 C468 C 0.37099 0.82045 -0.17944
 C469 C 0.37737 0.86628 -0.12923
 C470 C 0.35872 0.88868 -0.10136
 C471 C 0.31309 0.88581 -0.09607
 C472 C 0.28655 0.86177 -0.11903
 H473 H 0.24414 0.81470 -0.16841
 H474 H 0.40625 0.82141 -0.18298
 H475 H 0.41252 0.86780 -0.13344
 H476 H 0.25146 0.86056 -0.11471
 H477 H 0.36351 0.78076 -0.22310
 H478 H 0.29787 0.90282 -0.07467
 C479 C 0.82750 0.32823 0.28387
 C480 C 0.79285 0.30281 0.29810
 C481 C 0.78896 0.29919 0.33462
 C482 C 0.82083 0.31744 0.35640
 C483 C 0.85620 0.34126 0.34152
 C484 C 0.85876 0.34710 0.30530
 C485 C 0.88780 0.35998 0.36312
 C486 C 0.88379 0.35630 0.39954
 C487 C 0.84917 0.33182 0.41427
 C488 C 0.81803 0.31226 0.39284
 H489 H 0.76175 0.28204 0.34627
 H490 H 0.88532 0.36573 0.29346
 H491 H 0.91404 0.37942 0.35164
 H492 H 0.79133 0.29391 0.40475
 H493 H 0.83178 0.33241 0.25586
 H494 H 0.84551 0.32890 0.44245
 C495 C 1.18810 0.26636 0.15674
 C496 C 1.22319 0.28963 0.17164
 C497 C 1.23131 0.33217 0.15950
 C498 C 1.20334 0.35231 0.13548
 C499 C 1.16692 0.32942 0.12225
 C500 C 1.16049 0.28594 0.13210
 C501 C 1.13679 0.35094 0.10055
 C502 C 1.14269 0.39511 0.09214
 C503 C 1.17981 0.41708 0.10466
 C504 C 1.20989 0.39588 0.12611
 H505 H 1.25698 0.35137 0.17084
 H506 H 1.13292 0.26768 0.12201
 H507 H 1.10847 0.33355 0.09074
 H508 H 1.23778 0.41385 0.13601
 H509 H 1.18056 0.23362 0.16534
 H510 H 1.18528 0.45096 0.09829
 C511 C 0.71888 0.83185 0.66664
 C512 C 0.70733 0.78752 0.67101
 C513 C 0.67419 0.77078 0.64906
 C514 C 0.65400 0.79788 0.62353
 C515 C 0.66890 0.84108 0.61878
 C516 C 0.70158 0.85739 0.64019
 C517 C 0.64899 0.86872 0.59436
 C518 C 0.61198 0.85524 0.57600
 C519 C 0.59632 0.81263 0.58083
 C520 C 0.61790 0.78376 0.60372
 H521 H 0.66298 0.73767 0.65276
 H522 H 0.71243 0.89078 0.63763
 H523 H 0.66028 0.90199 0.59157
 H524 H 0.60524 0.75110 0.60702
 H525 H 0.74185 0.84780 0.68375
 H526 H 0.56715 0.80193 0.56726
 C527 C 1.22708 0.66184 -0.17986
 C528 C 1.21363 0.70440 -0.18859
 C529 C 1.17674 0.72074 -0.17071
 C530 C 1.15404 0.69471 -0.14550
 C531 C 1.16952 0.65285 -0.13714
 C532 C 1.20654 0.63730 -0.15390
 C533 C 1.14671 0.62593 -0.11340
 C534 C 1.10742 0.63932 -0.09815
 C535 C 1.09184 0.68103 -0.10627
 C536 C 1.11513 0.70862 -0.12950
 H537 H 1.16424 0.75235 -0.17780
 H538 H 1.21824 0.60490 -0.14841
 H539 H 1.15905 0.59385 -0.10757
 H540 H 1.10226 0.74042 -0.13545
 H541 H 1.25234 0.64561 -0.19431
 H542 H 1.06167 0.69231 -0.09466
 C543 C 0.64881 1.24108 0.32076
 C544 C 0.69451 1.23367 0.31960
 C545 C 0.71318 1.21267 0.34903
 C546 C 0.68655 1.19275 0.37506
 C547 C 0.64060 1.19587 0.37273
 C548 C 0.62227 1.22212 0.34667
 C549 C 0.61365 1.17131 0.39550
 C550 C 0.63192 1.14303 0.42055
 C551 C 0.67768 1.14269 0.42463
 C552 C 0.70477 1.16761 0.40222
 H553 H 0.74813 1.21057 0.35156
 H554 H 0.58710 1.22622 0.34520
 H555 H 0.57836 1.17258 0.39249
 H556 H 0.73996 1.16566 0.40514
 H557 H 0.63258 1.25930 0.30027
 H558 H 0.69263 1.12157 0.44394
 C559 C 0.82692 0.72980 0.16786
 C560 C 0.80715 0.70385 0.19419
 C561 C 0.81203 0.65862 0.19239
 C562 C 0.83265 0.63948 0.16368
 C563 C 0.85188 0.66586 0.13729
 C564 C 0.84914 0.71103 0.13978
 C565 C 0.87365 0.64654 0.10905
 C566 C 0.87505 0.60117 0.10632
 C567 C 0.85469 0.57531 0.13220
 C568 C 0.83422 0.59427 0.16093
 H569 H 0.80035 0.63789 0.21342
 H570 H 0.86383 0.73185 0.11984
 H571 H 0.88901 0.66674 0.08898
 H572 H 0.81930 0.57359 0.18086
 H573 H 0.82489 0.76473 0.16874
 H574 H 0.85550 0.54036 0.13061
 C575 C 0.33176 1.23478 0.66012
 C576 C 0.31211 1.21175 0.68814
 C577 C 0.31401 1.16615 0.68817
 C578 C 0.33531 1.14408 0.66147
 C579 C 0.35468 1.16737 0.63328
 C580 C 0.35249 1.21280 0.63276
 C581 C 0.37660 1.14467 0.60673
 C582 C 0.38016 1.09937 0.60908
 C583 C 0.36087 1.07681 0.63727
 C584 C 0.33812 1.09889 0.66304
 H585 H 0.29893 1.14717 0.70906
 H586 H 0.36736 1.23133 0.61149
 H587 H 0.39196 1.16208 0.58505
 H588 H 0.32344 1.08066 0.68458
 H589 H 0.33139 1.26972 0.65937
 H590 H 0.36351 1.04193 0.63932
 C591 C 0.78819 0.34399 -0.18624
 C592 C 0.79111 0.29813 -0.18544
 C593 C 0.81991 0.27911 -0.16091
 C594 C 0.84421 0.30561 -0.13766
 C595 C 0.83853 0.35102 -0.13855
 C596 C 0.81070 0.36966 -0.16294
 C597 C 0.86097 0.37773 -0.11526
 C598 C 0.89076 0.36038 -0.09142
 C599 C 0.89778 0.31539 -0.09094
 C600 C 0.87424 0.28812 -0.11357
 H601 H 0.82346 0.24426 -0.15998
 H602 H 0.80632 0.40443 -0.16416
 H603 H 0.85580 0.41242 -0.11614
 H604 H 0.87967 0.25355 -0.11234
 H605 H 0.76703 0.36112 -0.20420
 H606 H 0.92078 0.30130 -0.07262
 C607 C 0.31305 0.76766 0.35713
 C608 C 0.30745 0.78233 0.32237
 C609 C 0.33047 0.82008 0.31158
 C610 C 0.35416 0.84487 0.33522
 C611 C 0.35533 0.83256 0.37089
 C612 C 0.33566 0.79319 0.38146
 C613 C 0.37595 0.86009 0.39502
 C614 C 0.39658 0.89855 0.38319
 C615 C 0.39733 0.90884 0.34734
 C616 C 0.37584 0.88251 0.32357
 H617 H 0.32976 0.83122 0.28458
 H618 H 0.33734 0.78239 0.40854
 H619 H 0.37606 0.85174 0.42270
 H620 H 0.37561 0.89196 0.29611
 H621 H 0.29808 0.73776 0.36609
 H622 H 0.41320 0.93823 0.33784
 C623 C 1.15641 1.19222 0.28240
 C624 C 1.19207 1.21567 0.29611
 C625 C 1.19597 1.21853 0.33267
 C626 C 1.16759 1.19599 0.35515
 C627 C 1.13277 1.17154 0.34114
 C628 C 1.12682 1.17062 0.30473
 C629 C 1.10582 1.14702 0.36371
 C630 C 1.11469 1.14529 0.39982
 C631 C 1.14896 1.17022 0.41354
 C632 C 1.17488 1.19598 0.39140
 H633 H 1.22253 1.23620 0.34415
 H634 H 1.10014 1.15212 0.29350
 H635 H 1.07961 1.12740 0.35296
 H636 H 1.20159 1.21463 0.40245
 H637 H 1.15159 1.18985 0.25441
 H638 H 1.15607 1.16925 0.44134
 C639 C 0.68793 0.63849 -0.21247
 C640 C 0.68205 0.68337 -0.21602
 C641 C 0.64746 0.70277 -0.19791
 C642 C 0.62578 0.68018 -0.17113
 C643 C 0.63641 0.63649 -0.16431
 C644 C 0.66563 0.61521 -0.18639
 C645 C 0.61917 0.61553 -0.13471
 C646 C 0.59192 0.63797 -0.11175
 C647 C 0.57914 0.68041 -0.11988
 C648 C 0.59597 0.70146 -0.14952
 H649 H 0.63935 0.73633 -0.20272
 H650 H 0.67276 0.58121 -0.18244
 H651 H 0.62832 0.58240 -0.12881
 H652 H 0.58738 0.73491 -0.15457
 H653 H 0.71107 0.62157 -0.22873
 H654 H 0.55766 0.69792 -0.10254
 C655 C 0.76274 1.18591 0.66746
 C656 C 0.77912 1.18732 0.70210
 C657 C 0.81960 1.16695 0.70858
 C658 C 0.84282 1.14700 0.68097
 C659 C 0.82451 1.14564 0.64697
 C660 C 0.78411 1.16444 0.64083
 C661 C 0.84760 1.12737 0.61902
 C662 C 0.88975 1.11121 0.62409
 C663 C 0.90810 1.11254 0.65794
 C664 C 0.88475 1.12991 0.68614
 H665 H 0.83417 1.16876 0.73438
 H666 H 0.77016 1.16497 0.61474
 H667 H 0.83318 1.12673 0.59310
 H668 H 0.89980 1.13063 0.71180
 H669 H 0.73533 1.20458 0.65911
 H670 H 0.94057 1.09996 0.66270
 C671 C 0.33794 0.64882 0.22799
 C672 C 0.30231 0.67274 0.21505
 C673 C 0.29405 0.67270 0.17885
 C674 C 0.32162 0.65181 0.15580
 C675 C 0.35845 0.62943 0.16866
 C676 C 0.36577 0.62719 0.20493
 C677 C 0.38756 0.61078 0.14481
 C678 C 0.37954 0.61468 0.10877
 C679 C 0.34251 0.63621 0.09640
 C680 C 0.31369 0.65484 0.11978
 H681 H 0.26828 0.69212 0.16768
 H682 H 0.39371 0.60994 0.21532
 H683 H 0.41611 0.59347 0.15406
 H684 H 0.28545 0.67195 0.10971
 H685 H 0.34548 0.64827 0.25569
 H686 H 0.33606 0.63869 0.06854
 C687 C 1.15884 0.82947 0.70609
 C688 C 1.18566 0.79786 0.69114
 C689 C 1.18654 0.79436 0.65421
 C690 C 1.16555 0.82492 0.63277
 C691 C 1.13983 0.85709 0.64832
 C692 C 1.13565 0.85837 0.68489
 C693 C 1.11944 0.88810 0.62711
 C694 C 1.12541 0.88852 0.59050
 C695 C 1.15183 0.85705 0.57516
 C696 C 1.17134 0.82505 0.59615
 H697 H 1.20634 0.77005 0.64182
 H698 H 1.11580 0.88285 0.69716
 H699 H 1.09946 0.91258 0.63931
 H700 H 1.19147 0.80081 0.58384
 H701 H 1.15665 0.83288 0.73423
 H702 H 1.15662 0.85672 0.54703
 C703 C 0.63714 0.28689 0.18124
 C704 C 0.67841 0.30252 0.19178
 C705 C 0.69294 0.34305 0.17880
 C706 C 0.66861 0.36556 0.15355
 C707 C 0.62835 0.34826 0.14177
 C708 C 0.61247 0.30937 0.15636
 C709 C 0.60503 0.36980 0.11526
 C710 C 0.62165 0.40836 0.10032
 C711 C 0.66123 0.42578 0.11279
 C712 C 0.68454 0.40456 0.13916
 H713 H 0.72420 0.35631 0.18696
 H714 H 0.58129 0.29597 0.14813
 H715 H 0.57439 0.35625 0.10596
 H716 H 0.71535 0.41829 0.14791
 H717 H 0.62386 0.25703 0.19185
 H718 H 0.67462 0.45555 0.10177
 C719 C 0.84446 0.83935 0.29191
 C720 C 0.81546 0.80888 0.30726
 C721 C 0.81085 0.80845 0.34408
 C722 C 0.83302 0.83851 0.36496
 C723 C 0.86201 0.86868 0.34913
 C724 C 0.86775 0.86866 0.31262
 C725 C 0.88466 0.89840 0.37007
 C726 C 0.87801 0.89905 0.40665
 C727 C 0.84840 0.86944 0.42207
 C728 C 0.82639 0.83910 0.40143
 H729 H 0.79015 0.78476 0.35688
 H730 H 0.88987 0.89168 0.30001
 H731 H 0.90718 0.92134 0.35780
 H732 H 0.80399 0.81626 0.41395
 H733 H 0.84917 0.84085 0.26379
 H734 H 0.84283 0.86931 0.45011
 C735 C 0.37466 0.30986 -0.20127
 C736 C 0.32960 0.31879 -0.20395
 C737 C 0.31330 0.35576 -0.18766
 C738 C 0.33949 0.37893 -0.16441
 C739 C 0.38342 0.36650 -0.15880
 C740 C 0.40121 0.33308 -0.17847
 C741 C 0.40835 0.38692 -0.13302
 C742 C 0.38966 0.41944 -0.11276
 C743 C 0.34674 0.43316 -0.11981
 C744 C 0.32180 0.41303 -0.14545
 H745 H 0.27961 0.36536 -0.19158
 H746 H 0.43526 0.32413 -0.17554
 H747 H 0.44165 0.37664 -0.12801
 H748 H 0.28827 0.42311 -0.14957
 H749 H 0.38952 0.28435 -0.21617
 H750 H 0.33180 0.45852 -0.10466
 C751 C 1.24298 0.30292 -0.14570
 C752 C 1.22224 0.29909 -0.17847
 C753 C 1.18158 0.31993 -0.18313
 C754 C 1.16278 0.34465 -0.15642
 C755 C 1.18457 0.34915 -0.12408
 C756 C 1.22453 0.32777 -0.11893
 C757 C 1.16571 0.37461 -0.09753
 C758 C 1.12494 0.39468 -0.10296
 C759 C 1.10354 0.38945 -0.13508
 C760 C 1.12245 0.36514 -0.16170
 H761 H 1.16459 0.31798 -0.20793
 H762 H 1.24186 0.33072 -0.09434
 H763 H 1.18190 0.37773 -0.07244
 H764 H 1.10519 0.36189 -0.18631
 H765 H 1.27457 0.28843 -0.14112
 H766 H 1.07183 0.40402 -0.13945
 C767 C 0.70605 0.77755 0.35822
 C768 C 0.70666 0.79025 0.32267
 C769 C 0.68169 0.82656 0.31263
 C770 C 0.65915 0.85091 0.33718
 C771 C 0.66128 0.83976 0.37308
 C772 C 0.68437 0.80256 0.38330
 C773 C 0.64005 0.86599 0.39775
 C774 C 0.61581 0.90209 0.38636
 C775 C 0.61293 0.91166 0.35042
 C776 C 0.63474 0.88660 0.32608
 H777 H 0.67959 0.83656 0.28539
 H778 H 0.68573 0.79283 0.41065
 H779 H 0.64188 0.85814 0.42547
 H780 H 0.63262 0.89528 0.29853
 H781 H 0.72328 0.74918 0.36703
 H782 H 0.59448 0.93927 0.34111
 C783 C 0.81519 0.72862 -0.16746
 C784 C 0.79035 0.70248 -0.19013
 C785 C 0.79083 0.65729 -0.18438
 C786 C 0.81464 0.63868 -0.15668
 C787 C 0.84001 0.66524 -0.13468
 C788 C 0.83968 0.71026 -0.14010
 C789 C 0.86572 0.64619 -0.10809
 C790 C 0.86548 0.60093 -0.10278
 C791 C 0.83899 0.57509 -0.12422
 C792 C 0.81417 0.59369 -0.15112
 H793 H 0.77431 0.63598 -0.20220
 H794 H 0.85882 0.73128 -0.12345
 H795 H 0.88570 0.66652 -0.09148
 H796 H 0.79467 0.57284 -0.16766
 H797 H 0.81631 0.76340 -0.17115
 H798 H 0.83816 0.54027 -0.12063
 C799 C 0.33632 1.25598 0.33457
 C800 C 0.30244 1.23158 0.31913
 C801 C 0.29390 1.18953 0.33221
 C802 C 0.31896 1.17185 0.35934
 C803 C 0.35473 1.19552 0.37296
 C804 C 0.36242 1.23800 0.36101
 C805 C 0.38285 1.17564 0.39735
 C806 C 0.37428 1.13312 0.40898
 C807 C 0.33706 1.11102 0.39693
 C808 C 0.30985 1.13002 0.37200
 H809 H 0.26875 1.16959 0.32037
 H810 H 0.38934 1.25691 0.37141
 H811 H 0.41147 1.19279 0.40689
 H812 H 0.28223 1.11165 0.36209
 H813 H 0.34417 1.28831 0.32514
 H814 H 0.33013 1.07817 0.40569
 C815 C 1.19932 0.64618 0.19997
 C816 C 1.19633 0.69190 0.20043
 C817 C 1.16981 0.71207 0.17479
 C818 C 1.14768 0.68691 0.14927
 C819 C 1.15326 0.64151 0.14881
 C820 C 1.17896 0.62167 0.17434
 C821 C 1.13273 0.61627 0.12309
 C822 C 1.10486 0.63522 0.09826
 C823 C 1.09816 0.68021 0.09934
 C824 C 1.11983 0.70589 0.12423
 H825 H 1.16630 0.74692 0.17473
 H826 H 1.18325 0.58689 0.17466
 H827 H 1.13774 0.58157 0.12285
 H828 H 1.11458 0.74051 0.12403
 H829 H 1.21882 0.62863 0.21890
 H830 H 1.07678 0.69565 0.08045
 C831 C 0.65634 1.23388 0.66739
 C832 C 0.67162 1.21101 0.69699
 C833 C 0.66267 1.16628 0.69965
 C834 C 0.64284 1.14415 0.67231
 C835 C 0.63043 1.16669 0.64155
 C836 C 0.63628 1.21182 0.63972
 C837 C 0.61251 1.14347 0.61343
 C838 C 0.60628 1.09847 0.61659
 C839 C 0.61781 1.07681 0.64759
 C840 C 0.63633 1.09936 0.67515
 H841 H 0.67289 1.14760 0.72230
 H842 H 0.62625 1.22988 0.61663
 H843 H 0.60267 1.16022 0.58963
 H844 H 0.64557 1.08175 0.69870
 H845 H 0.66168 1.26835 0.66485
 H846 H 0.61259 1.04221 0.65037
 C847 C 0.75734 0.28277 0.13818
 C848 C 0.78097 0.26544 0.16664
 C849 C 0.82723 0.26929 0.16530
 C850 C 0.84825 0.29622 0.14034
 C851 C 0.82331 0.31846 0.11492
 C852 C 0.77807 0.30970 0.11299
 C853 C 0.84408 0.34932 0.09248
 C854 C 0.88969 0.35714 0.09482
 C855 C 0.91415 0.33290 0.11907
 C856 C 0.89369 0.30309 0.14175
 H857 H 0.84710 0.25434 0.18546
 H858 H 0.75839 0.32498 0.09285
 H859 H 0.82495 0.36708 0.07334
 H860 H 0.91338 0.28603 0.16094
 H861 H 0.72235 0.27785 0.13643
 H862 H 0.94922 0.33788 0.12114
 C863 C 0.32287 0.75040 0.64809
 C864 C 0.29068 0.77486 0.66525
 C865 C 0.28339 0.81757 0.65358
 C866 C 0.30705 0.83534 0.62543
 C867 C 0.34103 0.81140 0.60990
 C868 C 0.34803 0.76861 0.62089
 C869 C 0.36870 0.83153 0.58503
 C870 C 0.36142 0.87459 0.57484
 C871 C 0.32546 0.89692 0.58832
 C872 C 0.29867 0.87759 0.61377
 H873 H 0.26054 0.83801 0.66726
 H874 H 0.37378 0.74964 0.60917
 H875 H 0.39657 0.81440 0.57452
 H876 H 0.27229 0.89612 0.62510
 H877 H 0.33049 0.71791 0.65682
 H878 H 0.31975 0.93031 0.58075
 C879 C 0.27594 1.19794 -0.14786
 C880 C 0.30353 1.21593 -0.17402
 C881 C 0.34900 1.20996 -0.17076
 C882 C 0.36663 1.18596 -0.14299
 C883 C 0.33871 1.16662 -0.11760
 C884 C 0.29336 1.17366 -0.11987
 C885 C 0.35660 1.13887 -0.09175
 C886 C 0.40186 1.12995 -0.09186
 C887 C 0.42921 1.15137 -0.11627
 C888 C 0.41186 1.17920 -0.14146
 H889 H 0.37112 1.22157 -0.19091
 H890 H 0.27123 1.15925 -0.10068
 H891 H 0.33519 1.12234 -0.07313
 H892 H 0.43371 1.19418 -0.16060
 H893 H 0.24075 1.20149 -0.14957
 H894 H 0.46413 1.14540 -0.11666
 C895 C 0.76197 0.67491 0.35126
 C896 C 0.78933 0.70354 0.33205
 C897 C 0.83438 0.70477 0.34000
 C898 C 0.85231 0.67547 0.36414
 C899 C 0.82470 0.64584 0.38234
 C900 C 0.77937 0.64695 0.37664
 C901 C 0.84320 0.61390 0.40411
 C902 C 0.88895 0.61008 0.40637
 C903 C 0.91599 0.64041 0.38893
 C904 C 0.89782 0.67331 0.36845
 H905 H 0.85628 0.72623 0.32547
 H906 H 0.75766 0.62448 0.39032
 H907 H 0.82221 0.59033 0.41733
 H908 H 0.91944 0.69578 0.35467
 H909 H 0.72727 0.67273 0.34572
 H910 H 0.95133 0.63816 0.39064
 C911 C 0.64548 1.17440 0.19902
 C912 C 0.68675 1.19034 0.18760
 C913 C 0.70309 1.17639 0.15505
 C914 C 0.67843 1.14715 0.13460
 C915 C 0.63711 1.13225 0.14683
 C916 C 0.62090 1.14635 0.17880
 C917 C 0.61271 1.10257 0.12742
 C918 C 0.62887 1.08656 0.09580
 C919 C 0.66981 1.10154 0.08333
 C920 C 0.69435 1.13171 0.10254
 H921 H 0.73508 1.18727 0.14606
 H922 H 0.58941 1.13498 0.18861
 H923 H 0.58123 1.09135 0.13739
 H924 H 0.72590 1.14255 0.09253
 H925 H 0.63164 1.18311 0.22405
 H926 H 0.68295 1.08971 0.05890
 C927 C 1.23196 0.67147 0.64982
 C928 C 1.20751 0.69376 0.67498
 C929 C 1.16140 0.69178 0.67349
 C930 C 1.14013 0.66653 0.64858
 C931 C 1.16500 0.64363 0.62382
 C932 C 1.21087 0.64693 0.62425
 C933 C 1.14357 0.61655 0.60003
 C934 C 1.09781 0.61104 0.60164
 C935 C 1.07339 0.63459 0.62592
 C936 C 1.09435 0.66256 0.64896
 H937 H 1.14165 0.70898 0.69230
 H938 H 1.23047 0.62951 0.60547
 H939 H 1.16264 0.59819 0.58147
 H940 H 1.07486 0.68002 0.66780
 H941 H 1.26736 0.67210 0.65029
 H942 H 1.03810 0.63089 0.62741
 C943 C 0.71154 0.76792 -0.15771
 C944 C 0.70860 0.78551 -0.19188
 C945 C 0.68145 0.82160 -0.19727
 C946 C 0.65697 0.83881 -0.16983
 C947 C 0.66075 0.82142 -0.13559
 C948 C 0.68851 0.78615 -0.12977
 C949 C 0.63593 0.83909 -0.10812
 C950 C 0.60634 0.87273 -0.11513
 C951 C 0.60233 0.88889 -0.14953
 C952 C 0.62776 0.87250 -0.17651
 H953 H 0.67747 0.83539 -0.22330
 H954 H 0.69125 0.77169 -0.10387
 H955 H 0.63898 0.82631 -0.08166
 H956 H 0.62424 0.88595 -0.20272
 H957 H 0.72983 0.73893 -0.15250
 H958 H 0.58006 0.91504 -0.15551
 C959 C 1.19075 0.34973 0.29090
 C960 C 1.22282 0.32091 0.30384
 C961 C 1.23015 0.31925 0.34029
 C962 C 1.20144 0.34066 0.36327
 C963 C 1.16717 0.36597 0.34931
 C964 C 1.16333 0.37174 0.31327
 C965 C 1.13655 0.38484 0.37140
 C966 C 1.13947 0.37956 0.40773
 C967 C 1.17438 0.35583 0.42200
 C968 C 1.20507 0.33621 0.39986
 H969 H 1.25638 0.29985 0.35089
 H970 H 1.13795 0.39206 0.30224
 H971 H 1.11034 0.40395 0.36016
 H972 H 1.23112 0.31713 0.41129
 H973 H 1.18501 0.35417 0.26313
 H974 H 1.17744 0.35189 0.45012
 C975 C 0.33257 0.76355 0.18280
 C976 C 0.28815 0.77449 0.18893
 C977 C 0.26983 0.80722 0.16740
 C978 C 0.29601 0.82899 0.14161
 C979 C 0.34049 0.81757 0.13739
 C980 C 0.35784 0.78407 0.15733
 C981 C 0.36801 0.84099 0.11446
 C982 C 0.35214 0.87601 0.09496
 C983 C 0.30738 0.88628 0.09755
 C984 C 0.27958 0.86312 0.12085
 H985 H 0.23632 0.81714 0.17178
 H986 H 0.39187 0.77494 0.15442
 H987 H 0.40234 0.83254 0.11240
 H988 H 0.24563 0.87259 0.12323
 H989 H 0.34957 0.74020 0.19888
 H990 H 0.29434 0.91327 0.08265
 C991 C 0.73904 0.32073 0.66225
 C992 C 0.76175 0.28868 0.68115
 C993 C 0.80500 0.27916 0.67072
 C994 C 0.82573 0.30171 0.64352
 C995 C 0.80312 0.33440 0.62514
 C996 C 0.75931 0.34292 0.63410
 C997 C 0.82583 0.35966 0.59993
 C998 C 0.87101 0.35345 0.59457
 C999 C 0.89261 0.32012 0.61241
 C1000 C 0.86997 0.29387 0.63625
 H1001 H 0.82443 0.25618 0.68535
 H1002 H 0.74150 0.36821 0.62054
 H1003 H 0.80934 0.38593 0.58646
 H1004 H 0.88759 0.26876 0.65024
 H1005 H 0.70646 0.33016 0.67018
 H1006 H 0.92736 0.31509 0.60844
 C1007 C 1.17409 1.16670 0.72013
 C1008 C 1.20768 1.19377 0.70699
 C1009 C 1.21493 1.19512 0.67037
 C1010 C 1.19036 1.17010 0.64752
 C1011 C 1.15626 1.14374 0.66084
 C1012 C 1.14840 1.14205 0.69721
 C1013 C 1.13043 1.12014 0.63741
 C1014 C 1.13898 1.12212 0.60103
 C1015 C 1.17391 1.14743 0.58829
 C1016 C 1.19924 1.17161 0.61137
 H1017 H 1.23898 1.21672 0.65880
 H1018 H 1.12230 1.12182 0.70789
 H1019 H 1.10373 1.10019 0.64752
 H1020 H 1.22568 1.19165 0.60097
 H1021 H 1.16727 1.16501 0.74798
 H1022 H 1.18095 1.14925 0.56046
 C1023 C 0.70848 0.63886 0.20977
 C1024 C 0.69901 0.68306 0.21334
 C1025 C 0.66376 0.70025 0.19439
 C1026 C 0.64360 0.67628 0.16812
 C1027 C 0.65688 0.63335 0.16185
 C1028 C 0.68819 0.61436 0.18380
 C1029 C 0.63879 0.61051 0.13369
 C1030 C 0.60731 0.63024 0.11223
 C1031 C 0.59347 0.67247 0.11953
 C1032 C 0.61153 0.69534 0.14714
 H1033 H 0.65345 0.73324 0.19854
 H1034 H 0.69760 0.58095 0.18044
 H1035 H 0.64913 0.57774 0.12847
 H1036 H 0.60105 0.72824 0.15162
 H1037 H 0.73209 0.62320 0.22654
 H1038 H 0.56915 0.68832 0.10337
 C1039 C 1.21070 0.80058 0.34968
 C1040 C 1.20031 0.80409 0.31369
 C1041 C 1.16929 0.83546 0.30369
 C1042 C 1.14981 0.86220 0.32928
 C1043 C 1.16250 0.85836 0.36485
 C1044 C 1.19298 0.82751 0.37459
 C1045 C 1.14369 0.88442 0.39059
 C1046 C 1.11077 0.91358 0.38173
 C1047 C 1.09767 0.91727 0.34642
 C1048 C 1.11737 0.89223 0.32037
 H1049 H 1.15991 0.83864 0.27643
 H1050 H 1.20243 0.82334 0.40178
 H1051 H 1.15362 0.88095 0.41774
 H1052 H 1.10674 0.89588 0.29345
 H1053 H 1.23187 0.77602 0.35961
 H1054 H 1.07223 0.93972 0.33891
 C1055 C 0.70081 0.31299 -0.15472
 C1056 C 0.68814 0.31732 -0.19024
 C1057 C 0.65908 0.35086 -0.19932
 C1058 C 0.64327 0.37893 -0.17323
 C1059 C 0.65777 0.37389 -0.13823
 C1060 C 0.68652 0.34106 -0.12939
 C1061 C 0.64196 0.40048 -0.11191
 C1062 C 0.61025 0.43124 -0.11939
 C1063 C 0.59542 0.43681 -0.15394
 C1064 C 0.61247 0.41128 -0.18092
 H1065 H 0.64853 0.35482 -0.22624
 H1066 H 0.69750 0.33652 -0.10261
 H1067 H 0.65243 0.39554 -0.08500
 H1068 H 0.60050 0.41575 -0.20739
 H1069 H 0.72259 0.28784 -0.14587
 H1070 H 0.57001 0.46001 -0.15980
 C1071 C 0.84420 1.21218 0.30066
 C1072 C 0.80168 1.19537 0.29530
 C1073 C 0.78814 1.15883 0.31520
 C1074 C 0.81345 1.14452 0.34388
 C1075 C 0.85477 1.16387 0.35009
 C1076 C 0.87046 1.19648 0.32758
 C1077 C 0.87985 1.15050 0.37880
 C1078 C 0.86392 1.11885 0.40230
 C1079 C 0.82237 1.10035 0.39674
 C1080 C 0.79754 1.11268 0.36742
 H1081 H 0.75610 1.14454 0.31083
 H1082 H 0.90241 1.21112 0.33164
 H1083 H 0.91215 1.16450 0.38278
 H1084 H 0.76580 1.09763 0.36334
 H1085 H 0.85694 1.23886 0.28498
 H1086 H 0.81002 1.07507 0.41413
 C1087 C 0.34414 0.65677 -0.22376
 C1088 C 0.31796 0.69124 -0.21264
 C1089 C 0.31832 0.70196 -0.17693
 C1090 C 0.34372 0.67988 -0.15290
 C1091 C 0.36882 0.64438 -0.16371
 C1092 C 0.36924 0.63327 -0.19937
 C1093 C 0.39195 0.62053 -0.13835
 C1094 C 0.39045 0.63317 -0.10312
 C1095 C 0.36665 0.66936 -0.09313
 C1096 C 0.34302 0.69241 -0.11782
 H1097 H 0.29642 0.72586 -0.16665
 H1098 H 0.38844 0.60619 -0.20826
 H1099 H 0.41086 0.59256 -0.14579
 H1100 H 0.32398 0.71990 -0.10946
 H1101 H 0.34427 0.64723 -0.25095
 H1102 H 0.36567 0.67920 -0.06598
 C1103 C 0.80423 0.78972 0.65237
 C1104 C 0.80967 0.79789 0.68866
 C1105 C 0.83676 0.83260 0.69842
 C1106 C 0.85661 0.85888 0.67229
 C1107 C 0.84878 0.85032 0.63640
 C1108 C 0.82328 0.81538 0.62686
 C1109 C 0.86668 0.87659 0.61017
 C1110 C 0.89428 0.91042 0.61897
 C1111 C 0.90319 0.91904 0.65438
 C1112 C 0.88387 0.89377 0.68100
 H1113 H 0.84138 0.83980 0.72588
 H1114 H 0.81702 0.80840 0.59954
 H1115 H 0.86065 0.86962 0.58278
 H1116 H 0.89068 0.90107 0.70814
 H1117 H 0.78240 0.76512 0.64266
 H1118 H 0.92505 0.94532 0.66138
 C1119 C 0.36598 0.28082 0.17780
 C1120 C 0.33442 0.30493 0.19592
 C1121 C 0.33593 0.35024 0.19297
 C1122 C 0.36264 0.37040 0.16780
 C1123 C 0.39100 0.34531 0.14709
 C1124 C 0.39385 0.30078 0.15339
 C1125 C 0.41426 0.36484 0.11936
 C1126 C 0.40772 0.40862 0.11135
 C1127 C 0.38127 0.43380 0.13314
 C1128 C 0.35928 0.41491 0.16150
 H1129 H 0.31428 0.36991 0.20857
 H1130 H 0.41645 0.28118 0.13861
 H1131 H 0.43472 0.34540 0.10256
 H1132 H 0.33786 0.43463 0.17727
 H1133 H 0.36922 0.24649 0.18199
 H1134 H 0.37641 0.46787 0.12752
   
