data_POSCAR
  _audit_creation_date              2014-09-24
  _audit_creation_method            'ToBaCCo'
  _symmetry_space_group_name_H-M    'P1'
  _symmetry_Int_Tables_number       1
  _symmetry_cell_setting            triclinic
  loop_
  _symmetry_equiv_pos_as_xyz
 x,y,z
_cell_length_a 22.6911
_cell_length_b 22.6553
_cell_length_c 57.1559
_cell_angle_alpha 90.596800
_cell_angle_beta 89.631400
_cell_angle_gamma 120.086500
loop_
  _atom_site_label
  _atom_site_type_symbol
  _atom_site_fract_x
  _atom_site_fract_y
  _atom_site_fract_z
C1 C -0.04218 0.03636 0.51605
 C2 C -0.10023 -0.01289 0.49975
 C3 C -0.08346 -0.05283 0.48635
 C4 C -0.01093 -0.03975 0.49038
 C5 C -0.02427 -0.00926 0.53027
 C6 C -0.00861 -0.04963 0.51690
 C7 C 0.01886 0.07695 0.50003
 C8 C 0.03519 0.03746 0.48655
 H9 H -0.15054 -0.01821 0.49971
 H10 H 0.00304 -0.07179 0.47946
 H11 H -0.03166 -0.01531 0.54910
 H12 H 0.04433 0.13212 0.49840
 C13 C 0.95576 -0.08237 0.18338
 C14 C 1.00620 -0.09058 0.16739
 C15 C 1.04548 -0.03391 0.15414
 C16 C 1.03052 0.02469 0.15812
 C17 C 0.99712 -0.02114 0.19709
 C18 C 1.03881 0.03761 0.18328
 C19 C 0.91438 -0.06444 0.16690
 C20 C 0.95331 -0.00855 0.15361
 H21 H 1.01245 -0.13507 0.16737
 H22 H 1.06190 0.07059 0.14729
 H23 H 1.00427 -0.02197 0.21587
 H24 H 0.85937 -0.09513 0.16508
 C25 C 0.08748 1.04929 0.85013
 C26 C 0.09656 1.10692 0.83383
 C27 C 0.04010 1.08948 0.82049
 C28 C -0.01938 1.01677 0.82457
 C29 C 0.02354 1.03132 0.86442
 C30 C -0.03223 1.01500 0.85110
 C31 C 0.06752 0.98783 0.83413
 C32 C 0.01196 0.97084 0.82071
 H33 H 0.14148 1.15745 0.83376
 H34 H -0.06516 1.00227 0.81370
 H35 H 0.02440 1.03915 0.88325
 H36 H 0.09727 0.96244 0.83250
 O37 O 0.44448 -0.01067 -0.02039
 O38 O 0.56343 -0.01932 0.02155
 O39 O 0.44522 -0.02553 0.02478
 O40 O 0.55381 -0.01906 -0.02365
 O41 O 0.61274 0.09327 -0.02131
 O42 O 0.50015 0.08676 0.02725
 O43 O 0.61892 0.09293 0.02428
 O44 O 0.50288 0.10164 -0.01787
 Cu45 Cu 0.49597 -0.02973 0.00046
 Cu46 Cu 0.56446 0.10478 0.00346
 C47 C 0.45407 0.04745 -0.02646
 C48 C 0.61219 0.03587 0.02988
 C49 C 0.45271 0.02880 0.03409
 C50 C 0.60167 0.03757 -0.03089
 O51 O 0.02523 0.58839 0.68805
 O52 O 0.01764 0.45931 0.64606
 O53 O 0.02547 0.57685 0.64283
 O54 O 0.03222 0.47678 0.69126
 O55 O -0.07989 0.41880 0.69337
 O56 O -0.08671 0.52280 0.64479
 O57 O -0.09452 0.40481 0.64823
 O58 O -0.08686 0.53103 0.69041
 Cu59 Cu 0.03621 0.53074 0.66697
 Cu60 Cu -0.09810 0.46399 0.66954
 C61 C -0.03008 0.58186 0.69622
 C62 C -0.04024 0.41023 0.63980
 C63 C -0.03112 0.56735 0.63538
 C64 C -0.02196 0.42996 0.70040
 O65 O 0.58011 0.49415 0.35842
 O66 O 0.47344 0.38294 0.30967
 O67 O 0.59157 0.49338 0.31316
 O68 O 0.46768 0.37478 0.35527
 O69 O 0.41052 0.42975 0.35400
 O70 O 0.53735 0.55136 0.31216
 O71 O 0.41971 0.44142 0.30880
 O72 O 0.52225 0.54844 0.35744
 Cu73 Cu 0.53355 0.43054 0.33436
 Cu74 Cu 0.46705 0.49840 0.33312
 C75 C 0.56946 0.54107 0.36604
 C76 C 0.42859 0.39410 0.30078
 C77 C 0.58595 0.54249 0.30536
 C78 C 0.41735 0.38088 0.36162
 C79 C 0.00869 0.31470 0.59622
 C80 C -0.05539 0.26107 0.58956
 C81 C -0.11428 0.25622 0.59931
 C82 C -0.10922 0.30478 0.61567
 C83 C -0.05617 0.08099 0.53093
 C84 C 0.01391 0.36338 0.61260
 C85 C -0.06042 0.21044 0.57304
 C86 C -0.06272 0.16842 0.55942
 C87 C -0.06168 0.12035 0.54382
 C88 C -0.04504 0.35889 0.62252
 H89 H 0.05463 0.31876 0.58880
 H90 H -0.16410 0.21483 0.59432
 H91 H -0.15564 0.29984 0.62296
 H92 H 0.06399 0.40440 0.61749
 C93 C 0.68022 0.68829 0.26294
 C94 C 0.73342 0.67786 0.25570
 C95 C 0.73828 0.62328 0.26464
 C96 C 0.69022 0.57927 0.28078
 C97 C 0.91169 0.85888 0.19803
 C98 C 0.63203 0.64431 0.27910
 C99 C 0.78360 0.72404 0.23943
 C100 C 0.82522 0.76422 0.22603
 C101 C 0.87279 0.81376 0.21069
 C102 C 0.63658 0.58934 0.28823
 H103 H 0.67614 0.73057 0.25614
 H104 H 0.77934 0.61486 0.25919
 H105 H 0.69519 0.53742 0.28745
 H106 H 0.59138 0.65340 0.28446
 C107 C 0.37677 0.12235 -0.06669
 C108 C 0.32282 0.06351 -0.07659
 C109 C 0.31160 -0.00079 -0.07013
 C110 C 0.35417 -0.00630 -0.05379
 C111 C 0.14578 0.06391 -0.13504
 C112 C 0.41938 0.11700 -0.05037
 C113 C 0.27804 0.06876 -0.09306
 C114 C 0.23888 0.07104 -0.10664
 C115 C 0.19031 0.06979 -0.12220
 C116 C 0.40852 0.05260 -0.04371
 H117 H 0.38578 0.17233 -0.07152
 H118 H 0.26979 -0.04670 -0.07767
 H119 H 0.34451 -0.05655 -0.04906
 H120 H 0.46080 0.16338 -0.04295
 C121 C 0.03228 0.69687 0.58668
 C122 C -0.02721 0.69643 0.58021
 C123 C -0.08910 0.65147 0.59110
 C124 C -0.09116 0.60799 0.60874
 C125 C -0.00925 0.89229 0.52718
 C126 C 0.03041 0.65379 0.60429
 C127 C -0.02315 0.74614 0.56384
 C128 C -0.01836 0.79031 0.55106
 C129 C -0.01265 0.84449 0.53743
 C130 C -0.03112 0.60951 0.61576
 H131 H 0.08049 0.73172 0.57850
 H132 H -0.13540 0.65112 0.58633
 H133 H -0.13923 0.57451 0.61724
 H134 H 0.07754 0.65605 0.60917
 C135 C 0.29683 0.32814 0.25255
 C136 C 0.29602 0.26840 0.24566
 C137 C 0.34094 0.25097 0.25607
 C138 C 0.38561 0.29260 0.27367
 C139 C 0.09523 0.09105 0.19309
 C140 C 0.34109 0.36955 0.27012
 C141 C 0.24504 0.22259 0.22939
 C142 C 0.19976 0.18324 0.21673
 C143 C 0.14425 0.13504 0.20324
 C144 C 0.38531 0.35180 0.28113
 H145 H 0.26202 0.34190 0.24474
 H146 H 0.34032 0.20447 0.25098
 H147 H 0.41902 0.27761 0.28181
 H148 H 0.33976 0.41496 0.27534
 C149 C 0.74631 0.09536 -0.07474
 C150 C 0.72955 0.03337 -0.08579
 C151 C 0.66979 -0.02610 -0.07960
 C152 C 0.62767 -0.02413 -0.06209
 C153 C 0.90993 0.01545 -0.13858
 C154 C 0.70401 0.09752 -0.05720
 C155 C 0.77599 0.02920 -0.10206
 C156 C 0.81599 0.02439 -0.11477
 C157 C 0.86509 0.01875 -0.12834
 C158 C 0.64474 0.03748 -0.05044
 H159 H 0.79281 0.14165 -0.07930
 H160 H 0.65653 -0.07439 -0.08791
 H161 H 0.58225 -0.07126 -0.05741
 H162 H 0.71849 0.14566 -0.04857
 C163 C 0.30585 -0.04779 0.07706
 C164 C 0.30401 0.00986 0.08495
 C165 C 0.35314 0.07464 0.07709
 C166 C 0.40309 0.08149 0.06101
 C167 C 0.10099 -0.02622 0.13957
 C168 C 0.35542 -0.04113 0.06102
 C169 C 0.24991 0.00155 0.10036
 C170 C 0.20336 -0.00707 0.11293
 C171 C 0.14811 -0.01781 0.12736
 C172 C 0.40415 0.02347 0.05256
 H173 H 0.26816 -0.09814 0.08300
 H174 H 0.35213 0.11967 0.08306
 H175 H 0.43972 0.13184 0.05479
 H176 H 0.35479 -0.08688 0.05495
 C177 C 0.64013 0.68662 0.40997
 C178 C 0.70034 0.68925 0.41693
 C179 C 0.71631 0.64092 0.40816
 C180 C 0.67282 0.59105 0.39209
 C181 C 0.86843 0.89201 0.47167
 C182 C 0.59683 0.63713 0.39395
 C183 C 0.74649 0.74337 0.43233
 C184 C 0.78468 0.78990 0.44491
 C185 C 0.82949 0.84506 0.45939
 C186 C 0.61303 0.58927 0.38456
 H187 H 0.62720 0.72368 0.41663
 H188 H 0.76289 0.64254 0.41341
 H189 H 0.68681 0.55510 0.38514
 H190 H 0.55116 0.63718 0.38859
 C191 C -0.06725 0.28587 0.74313
 C192 C -0.00253 0.30222 0.75118
 C193 C 0.05488 0.36178 0.74351
 C194 C 0.04806 0.40407 0.72750
 C195 C 0.03317 0.13710 0.80585
 C196 C -0.07427 0.32833 0.72708
 C197 C 0.00594 0.25705 0.76658
 C198 C 0.01457 0.21959 0.77914
 C199 C 0.02513 0.17553 0.79360
 C200 C -0.01648 0.38747 0.71885
 H201 H -0.11210 0.23978 0.74894
 H202 H 0.10519 0.37499 0.74960
 H203 H 0.09363 0.44926 0.72159
 H204 H -0.12457 0.31406 0.72071
 C205 C 0.76503 0.09457 0.06969
 C206 C 0.76021 0.03255 0.07557
 C207 C 0.70650 -0.02865 0.06672
 C208 C 0.65789 -0.02787 0.05199
 C209 C 0.92244 0.01086 0.13556
 C210 C 0.71655 0.09550 0.05497
 C211 C 0.80915 0.03134 0.09118
 C212 C 0.84828 0.02842 0.10465
 C213 C 0.89066 0.02139 0.12101
 C214 C 0.66239 0.03428 0.04593
 H215 H 0.80616 0.14221 0.07651
 H216 H 0.70210 -0.07702 0.07126
 H217 H 0.61699 -0.07582 0.04530
 H218 H 0.72162 0.14426 0.05063
 C219 C 0.25981 0.28476 0.39952
 C220 C 0.26776 0.23101 0.40761
 C221 C 0.32478 0.22665 0.40083
 C222 C 0.37358 0.27566 0.38599
 C223 C 0.08548 0.06804 0.46831
 C224 C 0.30858 0.33390 0.38466
 C225 C 0.21828 0.18163 0.42340
 C226 C 0.17668 0.14227 0.43702
 C227 C 0.12763 0.09976 0.45358
 C228 C 0.36607 0.32991 0.37772
 H229 H 0.21598 0.28881 0.40475
 H230 H 0.33164 0.18549 0.40707
 H231 H 0.41716 0.27098 0.38096
 H232 H 0.30121 0.37486 0.37858
 C233 C -0.08982 0.67657 0.73600
 C234 C -0.02812 0.73426 0.74216
 C235 C 0.03321 0.74194 0.73349
 C236 C 0.03287 0.69224 0.71866
 C237 C -0.00756 0.91976 0.80258
 C238 C -0.09031 0.62685 0.72118
 C239 C -0.02736 0.78472 0.75789
 C240 C -0.02476 0.82707 0.77146
 C241 C -0.01800 0.87695 0.78794
 C242 C -0.02895 0.63409 0.71233
 H243 H -0.13756 0.66991 0.74269
 H244 H 0.08133 0.78630 0.73824
 H245 H 0.08091 0.69943 0.71212
 H246 H -0.13883 0.58277 0.71664
   
