data_POSCAR
  _audit_creation_date              2014-09-24
  _audit_creation_method            'ToBaCCo'
  _symmetry_space_group_name_H-M    'P1'
  _symmetry_Int_Tables_number       1
  _symmetry_cell_setting            triclinic
  loop_
  _symmetry_equiv_pos_as_xyz
 x,y,z
_cell_length_a 41.7356
_cell_length_b 41.1395
_cell_length_c 42.1430
_cell_angle_alpha 89.974700
_cell_angle_beta 89.991200
_cell_angle_gamma 89.843600
loop_
  _atom_site_label
  _atom_site_type_symbol
  _atom_site_fract_x
  _atom_site_fract_y
  _atom_site_fract_z
N1 N 0.58563 0.67389 0.60959
 N2 N 0.57248 0.65994 0.63442
 C3 C 0.54643 0.67716 0.64315
 C4 C 0.54292 0.70311 0.62250
 C5 C 0.56823 0.70020 0.60146
 H6 H 0.53099 0.67114 0.66288
 H7 H 0.57393 0.71637 0.58205
 Cu8 Cu 0.59044 0.62068 0.65319
 Cu9 Cu 0.62467 0.65742 0.59017
 Cu10 Cu 0.65991 0.59008 0.62508
 N11 N 0.61146 0.58354 0.67292
 N12 N 0.63905 0.57241 0.66255
 C13 C 0.64863 0.54763 0.68113
 C14 C 0.62563 0.54255 0.70446
 C15 C 0.60234 0.56594 0.69829
 H16 H 0.67044 0.53399 0.67736
 H17 H 0.58067 0.57044 0.71161
 N18 N 0.67740 0.61129 0.58695
 N19 N 0.66421 0.63724 0.57392
 C20 C 0.68171 0.64613 0.54853
 C21 C 0.70700 0.62459 0.54524
 C22 C 0.70346 0.60279 0.56999
 H23 H 0.67615 0.66640 0.53314
 H24 H 0.71893 0.58240 0.57536
 H25 H 0.61940 0.60948 0.60403
 H26 H 0.64218 0.63667 0.63145
 N27 N 0.91587 0.32758 0.10796
 N28 N 0.92494 0.33714 0.13628
 C29 C 0.94899 0.31786 0.14638
 C30 C 0.95572 0.29505 0.12294
 C31 C 0.93404 0.30220 0.09885
 H32 H 0.96110 0.32087 0.16882
 H33 H 0.93120 0.28978 0.07645
 Cu34 Cu 0.90525 0.37469 0.15655
 Cu35 Cu 0.88124 0.34883 0.08491
 Cu36 Cu 0.84060 0.41059 0.12403
 N37 N 0.88598 0.41328 0.17526
 N38 N 0.86013 0.42657 0.16299
 C39 C 0.85137 0.45225 0.18079
 C40 C 0.87305 0.45542 0.20545
 C41 C 0.89473 0.43027 0.20114
 H42 H 0.83117 0.46793 0.17573
 H43 H 0.91514 0.42460 0.21595
 N44 N 0.82527 0.39112 0.08413
 N45 N 0.84068 0.36753 0.06932
 C46 C 0.82400 0.35906 0.04326
 C47 C 0.79702 0.37856 0.04135
 C48 C 0.79865 0.39864 0.06760
 H49 H 0.83107 0.34027 0.02674
 H50 H 0.78141 0.41703 0.07438
 H51 H 0.88336 0.39458 0.10649
 H52 H 0.85762 0.36300 0.12563
 N53 N 0.41303 0.17627 -0.10995
 N54 N 0.42470 0.16380 -0.13624
 C55 C 0.45053 0.18109 -0.14519
 C56 C 0.45541 0.20561 -0.12324
 C57 C 0.43115 0.20174 -0.10116
 H58 H 0.46499 0.17600 -0.16589
 H59 H 0.42669 0.21666 -0.08050
 Cu60 Cu 0.40525 0.12596 -0.15602
 Cu61 Cu 0.37492 0.15896 -0.08941
 Cu62 Cu 0.34027 0.09096 -0.12361
 N63 N 0.38609 0.08721 -0.17435
 N64 N 0.36039 0.07397 -0.16185
 C65 C 0.35179 0.04807 -0.17936
 C66 C 0.37337 0.04472 -0.20408
 C67 C 0.39487 0.06997 -0.20010
 H68 H 0.33157 0.03257 -0.17421
 H69 H 0.41510 0.07559 -0.21512
 N70 N 0.32342 0.11171 -0.08490
 N71 N 0.33629 0.13791 -0.07218
 C72 C 0.31899 0.14660 -0.04654
 C73 C 0.29419 0.12468 -0.04280
 C74 C 0.29779 0.10287 -0.06752
 H75 H 0.32426 0.16711 -0.03142
 H76 H 0.28252 0.08239 -0.07273
 H77 H 0.38128 0.11179 -0.10513
 H78 H 0.35477 0.13859 -0.12950
 N79 N 0.08652 0.82369 0.38967
 N80 N 0.07608 0.83478 0.36235
 C81 C 0.05071 0.81699 0.35311
 C82 C 0.04463 0.79350 0.37605
 C83 C 0.06799 0.79873 0.39896
 H84 H 0.03736 0.82137 0.33157
 H85 H 0.07186 0.78508 0.42053
 Cu86 Cu 0.09590 0.87204 0.34180
 Cu87 Cu 0.12407 0.84157 0.41059
 Cu88 Cu 0.15941 0.90875 0.37575
 N89 N 0.11494 0.91108 0.32385
 N90 N 0.14001 0.92498 0.33687
 C91 C 0.14835 0.95109 0.31951
 C92 C 0.12719 0.95392 0.29437
 C93 C 0.10627 0.92813 0.29793
 H94 H 0.16797 0.96720 0.32512
 H95 H 0.08639 0.92210 0.28260
 N96 N 0.17554 0.88879 0.41513
 N97 N 0.16229 0.86295 0.42819
 C98 C 0.17919 0.85457 0.45416
 C99 C 0.20415 0.87629 0.45779
 C100 C 0.20104 0.89771 0.43265
 H101 H 0.17364 0.83427 0.46949
 H102 H 0.21663 0.91788 0.42718
 H103 H 0.11775 0.88817 0.39305
 H104 H 0.14549 0.86086 0.37055
 N105 N 0.12482 0.12434 0.12509
 N106 N 0.37354 0.87548 0.62560
 N107 N 0.87463 0.62472 0.37568
 N108 N 0.62658 0.37534 -0.12522
 C109 C 0.02715 0.22196 0.12403
 C110 C 0.01012 0.22807 0.09596
 C111 C -0.01383 0.25205 0.09580
 C112 C -0.02056 0.27049 0.12336
 C113 C -0.00290 0.26391 0.15129
 C114 C 0.02072 0.23959 0.15180
 C115 C 0.05226 0.19667 0.12434
 C116 C 0.06896 0.19021 0.15259
 C117 C 0.09272 0.16605 0.15278
 C118 C 0.10009 0.14884 0.12486
 C119 C 0.08328 0.15572 0.09670
 C120 C 0.05914 0.17948 0.09635
 C121 C 0.03802 0.23252 0.17959
 C122 C 0.06165 0.20816 0.18001
 C123 C 0.01752 0.21018 0.06849
 C124 C 0.04170 0.18639 0.06865
 H125 H 0.03324 0.24590 0.20122
 H126 H 0.07439 0.20345 0.20194
 H127 H 0.00460 0.21470 0.04662
 H128 H 0.04674 0.17325 0.04693
 H129 H -0.02659 0.25658 0.07390
 H130 H -0.00762 0.27718 0.17295
 H131 H 0.10585 0.16085 0.17438
 H132 H 0.08887 0.14226 0.07529
 C133 C 0.47038 0.77697 0.62386
 C134 C 0.47802 0.76041 0.65201
 C135 C 0.50162 0.73608 0.65139
 C136 C 0.51780 0.72858 0.62297
 C137 C 0.50994 0.74559 0.59500
 C138 C 0.48610 0.76967 0.59527
 C139 C 0.44544 0.80243 0.62433
 C140 C 0.43750 0.81867 0.59607
 C141 C 0.41363 0.84271 0.59662
 C142 C 0.39805 0.85072 0.62520
 C143 C 0.40643 0.83434 0.65334
 C144 C 0.43002 0.81002 0.65302
 C145 C 0.47759 0.78656 0.56751
 C146 C 0.45363 0.81059 0.56789
 C147 C 0.46196 0.76860 0.68023
 C148 C 0.43843 0.79305 0.68074
 H149 H 0.48950 0.78112 0.54529
 H150 H 0.44774 0.82298 0.54595
 H151 H 0.46768 0.75604 0.70212
 H152 H 0.42667 0.79865 0.70301
 H153 H 0.50771 0.72341 0.67312
 H154 H 0.52199 0.73978 0.57294
 H155 H 0.40732 0.85549 0.57500
 H156 H 0.39424 0.84036 0.67529
 C157 C 0.97213 0.72193 0.37595
 C158 C 0.97750 0.74040 0.34850
 C159 C 1.00133 0.76438 0.34874
 C160 C 1.02034 0.76965 0.37603
 C161 C 1.01457 0.75047 0.40330
 C162 C 0.99038 0.72688 0.40346
 C163 C 0.94692 0.69687 0.37589
 C164 C 0.94114 0.67881 0.40359
 C165 C 0.91699 0.65519 0.40347
 C166 C 0.89917 0.64926 0.37575
 C167 C 0.90541 0.66735 0.34812
 C168 C 0.92911 0.69143 0.34813
 C169 C 0.98401 0.70819 0.43067
 C170 C 0.95971 0.68466 0.43078
 C171 C 0.95902 0.73442 0.32124
 C172 C 0.93534 0.71025 0.32101
 H173 H 0.99787 0.71184 0.45210
 H174 H 0.95552 0.67086 0.45227
 H175 H 0.96298 0.74846 0.29984
 H176 H 0.92172 0.70633 0.29947
 H177 H 1.00528 0.77829 0.32731
 H178 H 1.02832 0.75408 0.42476
 H179 H 0.91223 0.64105 0.42465
 H180 H 0.89147 0.66283 0.32688
 C181 C 0.52900 0.27804 -0.12397
 C182 C 0.51995 0.26312 -0.15254
 C183 C 0.49600 0.23928 -0.15212
 C184 C 0.48088 0.23061 -0.12346
 C185 C 0.49017 0.24597 -0.09504
 C186 C 0.51435 0.26958 -0.09514
 C187 C 0.55426 0.30303 -0.12426
 C188 C 0.56356 0.31771 -0.09563
 C189 C 0.58764 0.34141 -0.09605
 C190 C 0.60211 0.35065 -0.12485
 C191 C 0.59241 0.33575 -0.15333
 C192 C 0.56859 0.31180 -0.15316
 C193 C 0.52424 0.28487 -0.06699
 C194 C 0.54849 0.30847 -0.06722
 C195 C 0.53495 0.27243 -0.18097
 C196 C 0.55881 0.29643 -0.18128
 H197 H 0.51317 0.27852 -0.04458
 H198 H 0.55542 0.31964 -0.04499
 H199 H 0.52814 0.26114 -0.20318
 H200 H 0.56971 0.30296 -0.20372
 H201 H 0.48882 0.22791 -0.17417
 H202 H 0.47895 0.23926 -0.07281
 H203 H 0.59489 0.35304 -0.07414
 H204 H 0.60369 0.34266 -0.17549
 C205 C 0.12617 0.02703 0.22196
 C206 C 0.09764 0.01086 0.22975
 C207 C 0.09816 -0.01320 0.25333
 C208 C 0.12685 -0.02083 0.26934
 C209 C 0.15519 -0.00419 0.26135
 C210 C 0.15503 0.01962 0.23752
 C211 C 0.12581 0.05219 0.19703
 C212 C 0.15444 0.06803 0.18892
 C213 C 0.15399 0.09176 0.16503
 C214 C 0.12515 0.09988 0.14960
 C215 C 0.09663 0.08394 0.15818
 C216 C 0.09685 0.05991 0.18177
 C217 C 0.18315 0.03611 0.22885
 C218 C 0.18288 0.05984 0.20489
 C219 C 0.06916 0.01916 0.21387
 C220 C 0.06876 0.04334 0.19035
 H221 H 0.20558 0.03057 0.24064
 H222 H 0.20510 0.07191 0.19888
 H223 H 0.04698 0.00691 0.21971
 H224 H 0.04628 0.04905 0.17872
 H225 H 0.07615 -0.02559 0.25952
 H226 H 0.17745 -0.01010 0.27328
 H227 H 0.17590 0.10422 0.15859
 H228 H 0.07447 0.09004 0.14614
 C229 C 0.62617 0.47180 -0.22276
 C230 C 0.65389 0.47669 -0.24095
 C231 C 0.65352 0.50000 -0.26526
 C232 C 0.62583 0.51897 -0.27117
 C233 C 0.59834 0.51377 -0.25222
 C234 C 0.59831 0.49006 -0.22829
 C235 C 0.62632 0.44701 -0.19747
 C236 C 0.59833 0.44159 -0.17974
 C237 C 0.59850 0.41771 -0.15600
 C238 C 0.62653 0.39981 -0.14965
 C239 C 0.65448 0.40576 -0.16734
 C240 C 0.65443 0.42916 -0.19153
 C241 C 0.57084 0.48413 -0.20988
 C242 C 0.57081 0.46020 -0.18612
 C243 C 0.68151 0.45823 -0.23443
 C244 C 0.68182 0.43497 -0.21004
 H245 H 0.54913 0.49801 -0.21396
 H246 H 0.54909 0.45630 -0.17257
 H247 H 0.70310 0.46183 -0.24824
 H248 H 0.70363 0.42132 -0.20574
 H249 H 0.67513 0.50357 -0.27898
 H250 H 0.57659 0.52751 -0.25629
 H251 H 0.57708 0.41317 -0.14216
 H252 H 0.67596 0.39176 -0.16249
 C253 C 0.37345 0.97226 0.72292
 C254 C 0.34467 0.97998 0.73848
 C255 C 0.34482 1.00358 0.76249
 C256 C 0.37341 1.01966 0.77070
 C257 C 0.40202 1.01171 0.75469
 C258 C 0.40221 0.98788 0.73090
 C259 C 0.37347 0.94732 0.69780
 C260 C 0.40233 0.93929 0.68251
 C261 C 0.40223 0.91544 0.65877
 C262 C 0.37351 0.89993 0.65012
 C263 C 0.34476 0.90838 0.66556
 C264 C 0.34462 0.93197 0.68956
 C265 C 0.43058 0.97929 0.71498
 C266 C 0.43066 0.95534 0.69125
 C267 C 0.31632 0.96402 0.72965
 C268 C 0.31628 0.94047 0.70555
 H269 H 0.45294 0.99113 0.72096
 H270 H 0.45306 0.94939 0.67961
 H271 H 0.29395 0.96981 0.74144
 H272 H 0.29389 0.92878 0.69942
 H273 H 0.32262 1.00974 0.77439
 H274 H 0.42421 1.02366 0.76103
 H275 H 0.42432 0.90909 0.64672
 H276 H 0.32269 0.89627 0.65906
 C277 C 0.87367 0.52790 0.27840
 C278 C 0.90243 0.51240 0.26993
 C279 C 0.90205 0.48854 0.24618
 C280 C 0.87324 0.48045 0.23068
 C281 C 0.84465 0.49641 0.23937
 C282 C 0.84469 0.52003 0.26337
 C283 C 0.87390 0.55288 0.30349
 C284 C 0.84506 0.56809 0.31227
 C285 C 0.84541 0.59169 0.33626
 C286 C 0.87436 0.60030 0.35115
 C287 C 0.90307 0.58495 0.34193
 C288 C 0.90296 0.56107 0.31822
 C289 C 0.81634 0.53587 0.27270
 C290 C 0.81651 0.55943 0.29680
 C291 C 0.93101 0.52115 0.28530
 C292 C 0.93128 0.54515 0.30898
 H293 H 0.79382 0.52997 0.26133
 H294 H 0.79412 0.57102 0.30333
 H295 H 0.95337 0.50941 0.27894
 H296 H 0.95384 0.55123 0.32020
 H297 H 0.92424 0.47668 0.23945
 H298 H 0.82231 0.49014 0.22783
 H299 H 0.82334 0.60369 0.34317
 H300 H 0.92533 0.59141 0.35355
 C301 C 0.22167 0.12453 0.02915
 C302 C 0.22997 0.09527 0.01407
 C303 C 0.25361 0.09549 -0.00958
 C304 C 0.26918 0.12463 -0.01789
 C305 C 0.26068 0.15372 -0.00234
 C306 C 0.23679 0.15384 0.02106
 C307 C 0.19666 0.12449 0.05387
 C308 C 0.18805 0.15383 0.06865
 C309 C 0.16415 0.15366 0.09202
 C310 C 0.14920 0.12439 0.10085
 C311 C 0.15822 0.09517 0.08591
 C312 C 0.18184 0.09509 0.06226
 C313 C 0.22761 0.18269 0.03648
 C314 C 0.20359 0.18270 0.05980
 C315 C 0.21451 0.06638 0.02301
 C316 C 0.19092 0.06627 0.04676
 H317 H 0.23906 0.20547 0.03041
 H318 H 0.19719 0.20548 0.07106
 H319 H 0.22075 0.04363 0.01160
 H320 H 0.17964 0.04346 0.05300
 H321 H 0.26020 0.07292 -0.02113
 H322 H 0.27225 0.17632 -0.00878
 H323 H 0.15736 0.17612 0.10369
 H324 H 0.14653 0.07267 0.09254
 C325 C 0.77911 0.62466 0.47291
 C326 C 0.76382 0.65392 0.48110
 C327 C 0.74016 0.65373 0.50472
 C328 C 0.73205 0.62462 0.52037
 C329 C 0.74784 0.59555 0.51203
 C330 C 0.77125 0.59539 0.48814
 C331 C 0.80379 0.62467 0.44786
 C332 C 0.81873 0.59531 0.43931
 C333 C 0.84200 0.59544 0.41532
 C334 C 0.85055 0.62467 0.40020
 C335 C 0.83550 0.65391 0.40921
 C336 C 0.81193 0.65402 0.43291
 C337 C 0.78686 0.56654 0.47907
 C338 C 0.81013 0.56648 0.45500
 C339 C 0.77254 0.68278 0.46552
 C340 C 0.79626 0.68285 0.44190
 H341 H 0.78096 0.54378 0.49060
 H342 H 0.82151 0.54370 0.44866
 H343 H 0.76096 0.70553 0.47167
 H344 H 0.80232 0.70564 0.43051
 H345 H 0.72840 0.67628 0.51119
 H346 H 0.74155 0.57297 0.52368
 H347 H 0.85379 0.57297 0.40856
 H348 H 0.84194 0.67638 0.39742
 C349 C 0.72408 0.37712 -0.03007
 C350 C 0.73061 0.40621 -0.01392
 C351 C 0.75435 0.40646 0.00962
 C352 C 0.77185 0.37804 0.01665
 C353 C 0.76519 0.34915 0.00001
 C354 C 0.74111 0.34848 -0.02321
 C355 C 0.69893 0.37664 -0.05464
 C356 C 0.69199 0.34741 -0.07039
 C357 C 0.66787 0.34705 -0.09354
 C358 C 0.65116 0.37574 -0.10123
 C359 C 0.65859 0.40488 -0.08543
 C360 C 0.68230 0.40543 -0.06189
 C361 C 0.73363 0.31975 -0.03961
 C362 C 0.70939 0.31920 -0.06272
 C363 C 0.71333 0.43446 -0.02172
 C364 C 0.68967 0.43411 -0.04539
 H365 H 0.74655 0.29748 -0.03448
 H366 H 0.70431 0.29652 -0.07474
 H367 H 0.71819 0.45707 -0.00947
 H368 H 0.67696 0.45645 -0.05074
 H369 H 0.75955 0.42887 0.02207
 H370 H 0.77832 0.32709 0.00549
 H371 H 0.66226 0.32469 -0.10592
 H372 H 0.64554 0.42690 -0.09126
 C373 C 0.27647 0.87607 0.52992
 C374 C 0.26872 0.90530 0.51446
 C375 C 0.24512 0.90522 0.49076
 C376 C 0.22908 0.87626 0.48278
 C377 C 0.23703 0.84723 0.49871
 C378 C 0.26086 0.84695 0.52217
 C379 C 0.30145 0.87595 0.55466
 C380 C 0.30952 0.84662 0.56978
 C381 C 0.33345 0.84660 0.59312
 C382 C 0.34898 0.87567 0.60154
 C383 C 0.34047 0.90490 0.58630
 C384 C 0.31681 0.90515 0.56268
 C385 C 0.26948 0.81813 0.53794
 C386 C 0.29347 0.81795 0.56129
 C387 C 0.28469 0.93400 0.52306
 C388 C 0.30827 0.93395 0.54683
 H389 H 0.25764 0.79549 0.53213
 H390 H 0.29946 0.79518 0.57282
 H391 H 0.27888 0.95672 0.51136
 H392 H 0.31997 0.95662 0.55278
 H393 H 0.23897 0.92775 0.47888
 H394 H 0.22511 0.82475 0.49253
 H395 H 0.33986 0.82415 0.60503
 H396 H 0.35260 0.92723 0.59264
   
