data_POSCAR
  _audit_creation_date              2014-09-24
  _audit_creation_method            'ToBaCCo'
  _symmetry_space_group_name_H-M    'P1'
  _symmetry_Int_Tables_number       1
  _symmetry_cell_setting            triclinic
  loop_
  _symmetry_equiv_pos_as_xyz
 x,y,z
_cell_length_a 45.6452
_cell_length_b 46.0137
_cell_length_c 13.6849
_cell_angle_alpha 88.818900
_cell_angle_beta 91.724000
_cell_angle_gamma 118.229900
loop_
  _atom_site_label
  _atom_site_type_symbol
  _atom_site_fract_x
  _atom_site_fract_y
  _atom_site_fract_z
C1 C 0.22266 0.47378 0.54195
 C2 C 0.23008 0.46870 0.44973
 C3 C 0.20568 0.46280 0.36797
 C4 C 0.26051 0.46561 0.43011
 C5 C 0.24757 0.48477 0.62448
 C6 C 0.18758 0.46355 0.56718
 C7 C 0.19357 0.43417 0.31155
 C8 C 0.16545 0.42491 0.25048
 C9 C 0.14851 0.44393 0.24619
 C10 C 0.16275 0.47411 0.29673
 C11 C 0.19125 0.48364 0.35537
 C12 C 0.27002 0.44679 0.49289
 C13 C 0.30002 0.44633 0.48035
 C14 C 0.32046 0.46341 0.40207
 C15 C 0.30981 0.48006 0.33458
 C16 C 0.28015 0.48137 0.34891
 C17 C 0.28060 0.50944 0.61165
 C18 C 0.30451 0.51630 0.68640
 C19 C 0.29548 0.49970 0.77651
 C20 C 0.26203 0.47688 0.79173
 C21 C 0.23841 0.46936 0.71642
 C22 C 0.17891 0.48566 0.61087
 C23 C 0.14636 0.47484 0.64164
 C24 C 0.12227 0.44161 0.63102
 C25 C 0.13090 0.41980 0.58499
 C26 C 0.16322 0.43064 0.55374
 H27 H 0.20455 0.41788 0.31946
 H28 H 0.15620 0.40185 0.21197
 H29 H 0.15136 0.49010 0.29384
 H30 H 0.20075 0.50631 0.39645
 H31 H 0.25462 0.43310 0.55345
 H32 H 0.30727 0.43261 0.53199
 H33 H 0.27302 0.49544 0.29826
 H34 H 0.28816 0.52242 0.54252
 H35 H 0.33017 0.53404 0.67320
 H36 H 0.25434 0.46328 0.85983
 H37 H 0.21322 0.45032 0.72903
 H38 H 0.19746 0.51110 0.62234
 H39 H 0.14036 0.49212 0.67708
 H40 H 0.11283 0.39418 0.57434
 H41 H 0.16953 0.41311 0.52131
 H42 H 0.32508 0.49315 0.27310
 C43 C 0.50903 -0.23821 0.50130
 C44 C 0.52199 -0.24074 0.41485
 C45 C 0.53194 -0.26691 0.40152
 C46 C 0.52637 -0.21837 0.32921
 C47 C 0.49832 -0.21306 0.51854
 C48 C 0.50647 -0.25942 0.58774
 C49 C 0.55403 -0.27089 0.46760
 C50 C 0.55791 -0.29924 0.46476
 C51 C 0.54118 -0.32306 0.39251
 C52 C 0.52182 -0.31739 0.32071
 C53 C 0.51696 -0.28971 0.32574
 C54 C 0.55595 -0.20557 0.27637
 C55 C 0.56133 -0.18373 0.19807
 C56 C 0.53752 -0.17369 0.17234
 C57 C 0.50759 -0.18701 0.22287
 C58 C 0.50163 -0.20990 0.29862
 C59 C 0.46554 -0.22353 0.54680
 C60 C 0.45534 -0.20061 0.57203
 C61 C 0.47777 -0.16674 0.56958
 C62 C 0.51068 -0.15619 0.54175
 C63 C 0.52092 -0.17922 0.51622
 C64 C 0.48929 -0.29399 0.58318
 C65 C 0.49094 -0.31300 0.66221
 C66 C 0.50885 -0.29784 0.74859
 C67 C 0.52355 -0.26322 0.75526
 C68 C 0.52255 -0.24433 0.67558
 H69 H 0.56673 -0.25300 0.52474
 H70 H 0.57359 -0.30277 0.51951
 H71 H 0.50901 -0.33529 0.26364
 H72 H 0.50026 -0.28687 0.27316
 H73 H 0.57531 -0.21193 0.29712
 H74 H 0.58468 -0.17360 0.16036
 H75 H 0.47784 -0.22059 0.33385
 H76 H 0.44797 -0.24959 0.55058
 H77 H 0.43009 -0.20949 0.59569
 H78 H 0.52842 -0.13016 0.54001
 H79 H 0.54650 -0.17079 0.49655
 H80 H 0.47584 -0.30618 0.51703
 H81 H 0.47878 -0.33957 0.65461
 H82 H 0.53721 -0.25018 0.81991
 H83 H 0.53549 -0.21770 0.68133
 H84 H 0.48874 -0.17981 0.20331
 C85 C 1.28108 0.73025 0.57349
 C86 C 1.28666 0.73320 0.47548
 C87 C 1.31824 0.75863 0.43553
 C88 C 1.26275 0.70820 0.40621
 C89 C 1.25356 0.69941 0.61307
 C90 C 1.30168 0.75667 0.64534
 C91 C 1.31896 0.78419 0.37664
 C92 C 1.34923 0.80908 0.34301
 C93 C 1.37913 0.80804 0.36419
 C94 C 1.37771 0.78099 0.41831
 C95 C 1.34764 0.75693 0.45517
 C96 C 1.23009 0.70348 0.39575
 C97 C 1.20580 0.67604 0.34577
 C98 C 1.21366 0.65260 0.30733
 C99 C 1.24679 0.65840 0.31284
 C100 C 1.27126 0.68626 0.36074
 C101 C 1.25246 0.66894 0.59641
 C102 C 1.22499 0.63963 0.62406
 C103 C 1.19843 0.64023 0.67214
 C104 C 1.20097 0.67105 0.69561
 C105 C 1.22817 0.70036 0.66555
 C106 C 1.30889 0.74791 0.73848
 C107 C 1.32447 0.77164 0.81107
 C108 C 1.33396 0.80512 0.79206
 C109 C 1.32800 0.81407 0.69745
 C110 C 1.31136 0.79009 0.62590
 H111 H 1.29625 0.78544 0.35973
 H112 H 1.34915 0.82917 0.30050
 H113 H 1.39973 0.77865 0.43545
 H114 H 1.34725 0.73688 0.49906
 H115 H 1.22312 0.72019 0.43041
 H116 H 1.18044 0.67210 0.34244
 H117 H 1.29630 0.68946 0.36824
 H118 H 1.27257 0.66784 0.55953
 H119 H 1.22487 0.61673 0.60725
 H120 H 1.18129 0.67260 0.73365
 H121 H 1.22893 0.72373 0.68061
 H122 H 1.30182 0.72241 0.75599
 H123 H 1.32909 0.76343 0.88164
 H124 H 1.33477 0.83950 0.67973
 H125 H 1.30497 0.79765 0.55677
 H126 H 1.25357 0.64088 0.28275
 C127 C 0.76682 0.53852 0.55026
 C128 C 0.77446 0.53220 0.45984
 C129 C 0.80979 0.54315 0.43613
 C130 C 0.74958 0.51926 0.37740
 C131 C 0.73649 0.54227 0.56616
 C132 C 0.79099 0.54495 0.63320
 C133 C 0.83333 0.57645 0.44758
 C134 C 0.86597 0.58788 0.41858
 C135 C 0.87569 0.56629 0.37648
 C136 C 0.85238 0.53272 0.36766
 C137 C 0.81954 0.52127 0.39642
 C138 C 0.75849 0.53294 0.28332
 C139 C 0.73469 0.52398 0.20799
 C140 C 0.70130 0.50141 0.22525
 C141 C 0.69258 0.48633 0.31756
 C142 C 0.71668 0.49463 0.39247
 C143 C 0.71787 0.52987 0.65109
 C144 C 0.68849 0.53194 0.66280
 C145 C 0.67656 0.54552 0.58835
 C146 C 0.69619 0.55933 0.50562
 C147 C 0.72620 0.55865 0.49640
 C148 C 0.80479 0.52368 0.64960
 C149 C 0.83321 0.53332 0.70875
 C150 C 0.84796 0.56406 0.75580
 C151 C 0.83192 0.58382 0.74743
 C152 C 0.80381 0.57440 0.68604
 H153 H 0.82617 0.59380 0.47689
 H154 H 0.88337 0.61376 0.42785
 H155 H 0.85925 0.51557 0.33533
 H156 H 0.80162 0.49554 0.38658
 H157 H 0.78358 0.55188 0.26890
 H158 H 0.74216 0.53640 0.13808
 H159 H 0.70931 0.48297 0.46348
 H160 H 0.72563 0.51790 0.70736
 H161 H 0.67437 0.52152 0.72833
 H162 H 0.68897 0.57141 0.44844
 H163 H 0.74105 0.57035 0.43305
 H164 H 0.79487 0.50050 0.61097
 H165 H 0.84419 0.51700 0.71499
 H166 H 0.84198 0.60748 0.78298
 H167 H 0.79347 0.59112 0.67484
 H168 H 0.66699 0.46879 0.33239
 C169 C 0.48363 0.24275 0.59106
 C170 C 0.48577 0.23454 0.49682
 C171 C 0.48333 0.25399 0.41081
 C172 C 0.49518 0.20852 0.47669
 C173 C 0.47842 0.21933 0.67461
 C174 C 0.48836 0.27629 0.61321
 C175 C 0.45974 0.26554 0.40740
 C176 C 0.45976 0.28634 0.33165
 C177 C 0.48202 0.29442 0.25504
 C178 C 0.50416 0.28133 0.25445
 C179 C 0.50512 0.26162 0.33229
 C180 C 0.47611 0.18278 0.41189
 C181 C 0.48640 0.15953 0.38923
 C182 C 0.51630 0.16217 0.42925
 C183 C 0.53541 0.18832 0.49278
 C184 C 0.52489 0.21110 0.51690
 C185 C 0.49403 0.23085 0.76632
 C186 C 0.48956 0.20879 0.84367
 C187 C 0.47011 0.17452 0.83013
 C188 C 0.45404 0.16321 0.73890
 C189 C 0.45735 0.18531 0.66345
 C190 C 0.51529 0.30417 0.57376
 C191 C 0.51770 0.33532 0.58253
 C192 C 0.49387 0.33965 0.63451
 C193 C 0.46854 0.31201 0.68146
 C194 C 0.46561 0.28055 0.67005
 H195 H 0.44181 0.25912 0.46468
 H196 H 0.44217 0.29592 0.33232
 H197 H 0.52148 0.28733 0.19557
 H198 H 0.52347 0.25301 0.33212
 H199 H 0.45333 0.18074 0.37908
 H200 H 0.47124 0.13980 0.33929
 H201 H 0.54035 0.23126 0.56522
 H202 H 0.51017 0.25693 0.77789
 H203 H 0.50253 0.21872 0.91229
 H204 H 0.43832 0.13712 0.72589
 H205 H 0.44354 0.17564 0.59573
 H206 H 0.53388 0.30162 0.53278
 H207 H 0.53848 0.35580 0.54850
 H208 H 0.45007 0.31440 0.72353
 H209 H 0.44497 0.25941 0.70262
 H210 H 0.55870 0.19152 0.52322
 C211 C 0.71813 0.26307 0.51640
 C212 C 0.71725 0.26860 0.41817
 C213 C 0.69496 0.24214 0.34901
 C214 C 0.74232 0.30071 0.37689
 C215 C 0.74955 0.28246 0.57366
 C216 C 0.68780 0.23971 0.56778
 C217 C 0.68828 0.20928 0.36486
 C218 C 0.67200 0.18543 0.29316
 C219 C 0.66295 0.19399 0.20258
 C220 C 0.66869 0.22654 0.18720
 C221 C 0.68438 0.25031 0.25990
 C222 C 0.76558 0.30203 0.30982
 C223 C 0.79350 0.33212 0.28905
 C224 C 0.79845 0.36123 0.33481
 C225 C 0.77358 0.36014 0.39523
 C226 C 0.74575 0.33017 0.41574
 C227 C 0.75122 0.30253 0.65187
 C228 C 0.78220 0.32753 0.68531
 C229 C 0.81148 0.33351 0.63753
 C230 C 0.80967 0.31087 0.56698
 C231 C 0.77916 0.28506 0.53789
 C232 C 0.65927 0.24379 0.56020
 C233 C 0.63000 0.22137 0.60498
 C234 C 0.62837 0.19375 0.65549
 C235 C 0.65729 0.19023 0.66535
 C236 C 0.68700 0.21343 0.62339
 H237 H 0.69721 0.20224 0.43049
 H238 H 0.66799 0.16055 0.30688
 H239 H 0.66148 0.23379 0.11869
 H240 H 0.68928 0.27541 0.24518
 H241 H 0.76335 0.27955 0.27909
 H242 H 0.81210 0.33230 0.24140
 H243 H 0.72779 0.32964 0.46669
 H244 H 0.72864 0.30060 0.68159
 H245 H 0.78284 0.34410 0.74139
 H246 H 0.83175 0.31339 0.53225
 H247 H 0.77844 0.26896 0.48013
 H248 H 0.65968 0.26435 0.51909
 H249 H 0.60854 0.22532 0.59719
 H250 H 0.65681 0.16933 0.70459
 H251 H 0.70895 0.21015 0.63077
 H252 H 0.77602 0.38216 0.42954
 N253 N 1.00229 0.56242 0.12573
 N254 N 0.98929 0.58177 0.14543
 N255 N 1.05446 0.53816 0.16296
 N256 N 1.08073 0.54216 0.21600
 N257 N 1.06264 0.56227 0.09899
 N258 N 1.09456 0.58375 0.10824
 N259 N 0.99332 0.53838 0.19028
 N260 N 0.97331 0.54035 0.25459
 C261 C 0.97147 0.56779 0.22610
 C262 C 1.10549 0.57064 0.18092
 N263 N 1.00520 0.44463 0.09045
 N264 N 1.02123 0.42742 0.07980
 N265 N 0.95914 0.46764 0.18651
 N266 N 0.93798 0.46403 0.25512
 N267 N 0.94459 0.44528 0.11840
 N268 N 0.91315 0.42561 0.13931
 N269 N 1.02001 0.46728 0.15773
 N270 N 1.04665 0.46622 0.19379
 Mn271 Mn 1.00677 0.50280 0.17566
 C272 C 1.04677 0.44094 0.14541
 C273 C 0.90950 0.43771 0.22484
 N274 N 1.05325 0.56397 -0.11017
 N275 N 1.08519 0.58249 -0.12765
 N276 N 0.97789 0.54135 -0.15010
 N277 N 0.95114 0.54213 -0.18667
 N278 N 0.99239 0.56405 -0.08268
 N279 N 0.97609 0.58103 -0.07260
 N280 N 1.03909 0.54113 -0.17705
 N281 N 1.06100 0.54312 -0.24098
 Mn282 Mn 1.02786 0.56359 0.00771
 C283 C 1.08946 0.56916 -0.20975
 C284 C 0.95069 0.56732 -0.13864
 N285 N 0.93507 0.44663 -0.09197
 N286 N 0.90738 0.42050 -0.12089
 N287 N 1.00514 0.47054 -0.18157
 N288 N 1.02545 0.46861 -0.24486
 N289 N 0.99564 0.44633 -0.11749
 N290 N 1.00870 0.42696 -0.13636
 N291 N 0.94396 0.47028 -0.15823
 N292 N 0.92259 0.46047 -0.23278
 Mn293 Mn 0.96987 0.44542 0.00028
 Mn294 Mn 0.99157 0.50601 -0.16759
 Cl295 Cl 0.99890 0.50440 0.00403
 C296 C 0.89938 0.42980 -0.20766
 C297 C 1.02706 0.44108 -0.21611
 N298 N 0.46946 0.42586 0.04964
 N299 N 0.46183 0.39484 0.03392
 N300 N 0.46296 0.47328 0.19672
 N301 N 0.45204 0.47799 0.28009
 N302 N 0.43846 0.45993 0.13191
 N303 N 0.41031 0.45568 0.16905
 N304 N 0.49330 0.43892 0.11644
 N305 N 0.50207 0.41691 0.14948
 C306 C 0.48249 0.38974 0.09632
 C307 C 0.41917 0.46688 0.26153
 N308 N 0.54160 0.55711 0.13924
 N309 N 0.54887 0.58567 0.17858
 N310 N 0.55664 0.49847 0.12012
 N311 N 0.57558 0.48474 0.14466
 N312 N 0.57167 0.52250 0.05668
 N313 N 0.60082 0.52536 0.03470
 N314 N 0.52642 0.53289 0.20190
 N315 N 0.52347 0.54447 0.28665
 Mn316 Mn 0.50991 0.48579 0.16011
 C317 C 0.53770 0.57746 0.27045
 C318 C 0.60290 0.50175 0.09002
 N319 N 0.42493 0.47709 -0.05988
 N320 N 0.39565 0.47383 -0.03768
 N321 N 0.47121 0.46826 -0.20440
 N322 N 0.48210 0.45924 -0.28009
 N323 N 0.45612 0.44329 -0.14373
 N324 N 0.45650 0.41671 -0.17725
 N325 N 0.43998 0.50162 -0.12164
 N326 N 0.42091 0.51530 -0.14501
 Mn327 Mn 0.44688 0.45118 -0.00583
 C328 C 0.39348 0.49772 -0.09129
 C329 C 0.47226 0.42698 -0.26321
 N330 N 0.55814 0.54002 -0.13468
 N331 N 0.58651 0.54577 -0.17350
 N332 N 0.50307 0.56140 -0.11653
 N333 N 0.49402 0.58344 -0.14744
 N334 N 0.52767 0.57443 -0.05205
 N335 N 0.53566 0.60547 -0.03594
 N336 N 0.53375 0.52784 -0.19992
 N337 N 0.54500 0.52553 -0.28572
 Mn338 Mn 0.55008 0.54877 0.00241
 Mn339 Mn 0.48677 0.51485 -0.16162
 Cl340 Cl 0.49841 0.50014 -0.00112
 C341 C 0.57790 0.53660 -0.26757
 C342 C 0.51435 0.61065 -0.09540
 N343 N 0.46221 -0.04204 0.17713
 N344 N 0.43954 -0.07102 0.20999
 N345 N 0.51913 0.02966 0.20330
 N346 N 0.53765 0.05465 0.26096
 N347 N 0.48942 0.02713 0.18966
 N348 N 0.48702 0.05059 0.23714
 N349 N 0.49214 -0.03895 0.19087
 N350 N 0.49070 -0.06558 0.23306
 C351 C 0.45783 -0.08524 0.24500
 C352 C 0.51728 0.06739 0.28146
 N353 N 0.57637 0.04049 -0.01721
 N354 N 0.59795 0.07114 -0.04081
 N355 N 0.54452 -0.03108 0.06665
 N356 N 0.54451 -0.05770 0.10379
 N357 N 0.54877 -0.02934 -0.02817
 N358 N 0.55203 -0.05487 -0.05784
 N359 N 0.57194 0.03792 0.07774
 N360 N 0.59057 0.06653 0.12049
 Mn361 Mn 0.53219 -0.00055 0.13522
 C362 C 0.60696 0.08686 0.04600
 C363 C 0.54953 -0.07212 0.02598
 N364 N 0.45057 0.02762 0.02122
 N365 N 0.45012 0.05434 0.05337
 N366 N 0.42703 -0.03939 -0.08711
 N367 N 0.40800 -0.06780 -0.13066
 N368 N 0.42285 -0.04233 0.00795
 N369 N 0.40116 -0.07297 0.03090
 N370 N 0.45404 0.02940 -0.07397
 N371 N 0.45514 0.05676 -0.10910
 Mn372 Mn 0.45581 -0.00747 0.09964
 C373 C 0.45232 0.07190 -0.02935
 C374 C 0.39166 -0.08836 -0.05642
 N375 N 0.50937 -0.02909 -0.19788
 N376 N 0.51102 -0.05319 -0.24421
 N377 N 0.50761 0.03810 -0.19755
 N378 N 0.51032 0.06628 -0.23200
 N379 N 0.53713 0.03990 -0.18636
 N380 N 0.56053 0.06917 -0.21421
 N381 N 0.47999 -0.03085 -0.21208
 N382 N 0.46090 -0.05607 -0.26811
 Mn383 Mn 0.54328 0.00541 -0.10820
 Mn384 Mn 0.46697 -0.00064 -0.14349
 Cl385 Cl 0.49954 -0.00082 -0.00423
 C386 C 0.48058 -0.06961 -0.28800
 C387 C 0.54343 0.08520 -0.24300
 C388 C 1.11871 0.43353 0.19932
 C389 C 1.10191 0.40518 0.14363
 C390 C 1.07261 0.40430 0.11488
 C391 C 1.07338 0.43174 0.15565
 O392 O 1.10116 0.44954 0.20589
 H393 H 1.10962 0.38713 0.12522
 H394 H 1.05291 0.38574 0.07035
 C395 C 0.54251 0.64557 0.39261
 C396 C 0.54214 0.62752 0.47497
 C397 C 0.53978 0.59876 0.44067
 C398 C 0.53938 0.60184 0.34036
 O399 O 0.54088 0.63000 0.31111
 H400 H 0.54233 0.63403 0.55062
 H401 H 0.53860 0.57818 0.48332
 C402 C 0.40954 -0.16569 0.33469
 C403 C 0.44043 -0.16450 0.34424
 C404 C 0.46267 -0.13399 0.31191
 C405 C 0.44391 -0.11884 0.28452
 O406 O 0.41180 -0.13792 0.29736
 H407 H 0.44646 -0.18334 0.37079
 H408 H 0.48937 -0.12401 0.30844
 C409 C 0.90922 0.57895 0.33586
 C410 C 0.92887 0.61118 0.30564
 C411 C 0.95542 0.61135 0.26259
 C412 C 0.95027 0.57944 0.27072
 O413 O 0.92228 0.55963 0.31461
 H414 H 0.92376 0.63180 0.30969
 H415 H 0.97568 0.63203 0.22712
 C416 C 0.48242 0.31711 0.17741
 C417 C 0.47904 0.31027 0.07884
 C418 C 0.47833 0.33678 0.03441
 C419 C 0.48212 0.35794 0.10934
 O420 O 0.48440 0.34604 0.19616
 H421 H 0.47644 0.28822 0.04413
 H422 H 0.47555 0.34038 -0.04306
 C423 C 0.64875 0.16893 0.12458
 C424 C 0.64974 0.17545 0.02527
 C425 C 0.63514 0.14530 -0.01863
 C426 C 0.62630 0.12273 0.05709
 O427 O 0.63449 0.13692 0.14368
 H428 H 0.66017 0.19923 -0.01105
 H429 H 0.63081 0.14034 -0.09618
 C430 C 0.46706 0.15137 -0.09663
 C431 C 0.47667 0.15789 0.00098
 C432 C 0.47018 0.12815 0.04217
 C433 C 0.45758 0.10589 -0.03328
 O434 O 0.45551 0.11978 -0.11671
 H435 H 0.48731 0.18131 0.03820
 H436 H 0.47560 0.12358 0.11674
 C437 C 0.64560 0.54494 -0.40310
 C438 C 0.62751 0.54974 -0.47915
 C439 C 0.59892 0.54591 -0.43886
 C440 C 0.60188 0.53977 -0.34128
 O441 O 0.62989 0.53893 -0.31927
 H442 H 0.63367 0.55454 -0.55552
 H443 H 0.57873 0.54811 -0.47563
 C444 C 0.84136 0.36266 -0.34609
 C445 C 0.86590 0.37725 -0.41491
 C446 C 0.88941 0.40550 -0.37343
 C447 C 0.87813 0.40593 -0.28161
 O448 O 0.84883 0.38016 -0.26457
 H449 H 0.86628 0.36904 -0.48817
 H450 H 0.91276 0.42308 -0.40480
 C451 C 0.46719 -0.14254 -0.40129
 C452 C 0.43493 -0.14740 -0.40849
 C453 C 0.43601 -0.11990 -0.36998
 C454 C 0.46874 -0.10050 -0.34145
 O455 O 0.48779 -0.11401 -0.36056
 H456 H 0.41312 -0.16854 -0.43722
 H457 H 0.41527 -0.11503 -0.36092
 C458 C 0.32127 0.50311 -0.15023
 C459 C 0.31569 0.49619 -0.05171
 C460 C 0.34333 0.49535 -0.01522
 C461 C 0.36385 0.50223 -0.09367
 O462 O 0.35070 0.50709 -0.17559
 H463 H 0.29342 0.49058 -0.01222
 H464 H 0.34738 0.48884 0.05857
 C465 C 1.16928 0.61110 -0.30631
 C466 C 1.16088 0.57988 -0.34057
 C467 C 1.12955 0.55997 -0.30889
 C468 C 1.12140 0.58019 -0.25638
 O469 O 1.14521 0.61106 -0.25453
 H470 H 1.17496 0.57237 -0.38639
 H471 H 1.11439 0.53387 -0.32260
 C472 C 0.87886 0.57479 -0.19502
 C473 C 0.89546 0.60310 -0.13942
 C474 C 0.92469 0.60395 -0.10977
 C475 C 0.92403 0.57649 -0.15012
 O476 O 0.89637 0.55872 -0.20106
 H477 H 0.88753 0.62105 -0.12165
 H478 H 0.94425 0.62250 -0.06485
 C479 C 0.49484 0.37063 -0.36138
 C480 C 0.51463 0.39788 -0.41820
 C481 C 0.50746 0.42205 -0.39146
 C482 C 0.48411 0.40812 -0.32002
 O483 O 0.47621 0.37696 -0.30172
 H484 H 0.53198 0.40021 -0.47370
 H485 H 0.51861 0.44715 -0.41889
 C486 C 0.59636 0.16742 -0.30828
 C487 C 0.56814 0.17057 -0.29353
 C488 C 0.54403 0.13975 -0.26921
 C489 C 0.55944 0.12026 -0.26946
 O490 O 0.59111 0.13690 -0.29232
 H491 H 0.56530 0.19258 -0.29954
 H492 H 0.51850 0.13250 -0.25167
 C493 C 1.08905 0.42940 -0.32638
 C494 C 1.06934 0.39726 -0.29553
 C495 C 1.04302 0.39735 -0.25170
 C496 C 1.04834 0.42932 -0.26002
 O497 O 1.07626 0.44893 -0.30471
 H498 H 1.07424 0.37652 -0.30009
 H499 H 1.02273 0.37677 -0.21602
 C500 C 0.51344 0.68302 -0.17687
 C501 C 0.53065 0.69487 -0.08896
 C502 C 0.53215 0.66877 -0.04516
 C503 C 0.51561 0.64288 -0.10840
 O504 O 0.50402 0.65122 -0.18772
 H505 H 0.54181 0.71960 -0.06021
 H506 H 0.54461 0.66881 0.02343
 C507 C 0.34840 -0.17072 -0.13461
 C508 C 0.35042 -0.17680 -0.03556
 C509 C 0.36557 -0.14659 0.00758
 C510 C 0.37204 -0.12425 -0.06771
 O511 O 0.36167 -0.13866 -0.15370
 H512 H 0.34169 -0.20022 0.00204
 H513 H 0.37205 -0.14144 0.08433
 C514 C 0.54466 -0.14763 0.09809
 C515 C 0.55957 -0.14504 0.00968
 C516 C 0.56245 -0.11661 -0.03269
 C517 C 0.54963 -0.10389 0.03408
 O518 O 0.53871 -0.12268 0.11290
 H519 H 0.56750 -0.16175 -0.01987
 H520 H 0.57346 -0.10595 -0.10208
 C521 C 0.35332 0.46484 0.39335
 C522 C 0.37413 0.46755 0.47198
 C523 C 0.40197 0.46925 0.43261
 C524 C 0.39590 0.46701 0.33312
 O525 O 0.36651 0.46454 0.30876
 H526 H 0.36974 0.46873 0.54872
 H527 H 0.42391 0.47150 0.47166
 C528 C 1.18677 0.62097 0.27017
 C529 C 1.18615 0.59087 0.28436
 C530 C 1.15546 0.56791 0.25192
 C531 C 1.13987 0.58568 0.21891
 O532 O 1.15861 0.61784 0.23034
 H533 H 1.20513 0.58612 0.31877
 H534 H 1.14542 0.54138 0.25318
 C535 C 0.52750 0.13798 0.40312
 C536 C 0.55800 0.14001 0.42898
 C537 C 0.55799 0.11340 0.38747
 C538 C 0.52761 0.09707 0.33980
 O539 O 0.50907 0.11180 0.34884
 H540 H 0.57827 0.15874 0.47128
 H541 H 0.57789 0.10689 0.39053
 C542 C 0.67524 0.49691 0.15161
 C543 C 0.68049 0.50257 0.05250
 C544 C 0.65273 0.50299 0.01512
 C545 C 0.63247 0.49712 0.09370
 O546 O 0.64590 0.49329 0.17651
 H547 H 0.70263 0.50770 0.01303
 H548 H 0.64846 0.50863 -0.05947
 C549 C 0.83042 0.39183 0.32451
 C550 C 0.84217 0.41853 0.38679
 C551 C 0.87342 0.43951 0.35675
 C552 C 0.87844 0.42421 0.27846
 O553 O 0.85256 0.39531 0.25871
 H554 H 0.83013 0.42194 0.44912
 H555 H 0.89070 0.46292 0.38895
   
