data_POSCAR
  _audit_creation_date              2014-09-24
  _audit_creation_method            'ToBaCCo'
  _symmetry_space_group_name_H-M    'P1'
  _symmetry_Int_Tables_number       1
  _symmetry_cell_setting            triclinic
  loop_
  _symmetry_equiv_pos_as_xyz
 x,y,z
_cell_length_a 22.1328
_cell_length_b 25.8903
_cell_length_c 22.4916
_cell_angle_alpha 88.569900
_cell_angle_beta 91.221500
_cell_angle_gamma 112.654900
loop_
  _atom_site_label
  _atom_site_type_symbol
  _atom_site_fract_x
  _atom_site_fract_y
  _atom_site_fract_z
C1 C -0.03179 0.41703 0.02962
 C2 C -0.00658 0.39404 0.07571
 C3 C 0.00138 0.34367 0.06783
 C4 C -0.01736 0.31476 0.01399
 C5 C -0.04241 0.33869 -0.03248
 C6 C -0.04879 0.38998 -0.02470
 C7 C -0.01003 0.26035 0.00653
 C8 C 0.01017 0.24772 -0.04818
 C9 C 0.02365 0.19959 -0.05424
 C10 C 0.01564 0.16274 -0.00542
 C11 C -0.00093 0.17594 0.05018
 C12 C -0.01600 0.22360 0.05548
 H13 H -0.04072 0.45472 0.03679
 H14 H 0.02133 0.32692 0.10436
 H15 H -0.05852 0.31698 -0.07403
 H16 H 0.01958 0.27699 -0.08540
 H17 H 0.03069 0.12775 -0.00854
 H18 H -0.02878 0.23323 0.09883
 C19 C 0.32645 0.77425 0.49166
 C20 C 0.36648 0.79028 0.54256
 C21 C 0.43447 0.81213 0.53672
 C22 C 0.46450 0.81346 0.48148
 C23 C 0.42268 0.79381 0.43138
 C24 C 0.35451 0.77578 0.43584
 C25 C 0.53816 0.83226 0.47726
 C26 C 0.56999 0.84145 0.42168
 C27 C 0.63792 0.85707 0.41821
 C28 C 0.67598 0.86772 0.47044
 C29 C 0.64592 0.85753 0.52594
 C30 C 0.57780 0.83860 0.52906
 H31 H 0.27374 0.75565 0.49614
 H32 H 0.46263 0.82581 0.57709
 H33 H 0.44148 0.79054 0.38843
 H34 H 0.54313 0.83537 0.38016
 H35 H 0.72821 0.87819 0.46806
 H36 H 0.55718 0.82758 0.57276
 C37 C 1.03899 0.57671 0.01753
 C38 C 1.00487 0.59358 0.05924
 C39 C 0.98885 0.64004 0.04720
 C40 C 1.00972 0.67222 -0.00548
 C41 C 1.04421 0.65458 -0.04714
 C42 C 1.05749 0.60646 -0.03610
 C43 C 0.99725 0.72457 -0.01602
 C44 C 0.98949 0.74266 -0.07426
 C45 C 0.97664 0.79105 -0.08434
 C46 C 0.96998 0.82140 -0.03586
 C47 C 0.97235 0.80176 0.02213
 C48 C 0.98882 0.75510 0.03203
 H49 H 1.05363 0.54203 0.02779
 H50 H 0.96164 0.65148 0.08023
 H51 H 1.06280 0.67894 -0.08735
 H52 H 0.99010 0.71791 -0.11214
 H53 H 0.95462 0.85606 -0.04327
 H54 H 0.99298 0.74232 0.07753
 C55 C 0.66915 0.23290 0.50475
 C56 C 0.63277 0.21938 0.55705
 C57 C 0.56467 0.19700 0.55345
 C58 C 0.53114 0.19319 0.49858
 C59 C 0.56892 0.21017 0.44641
 C60 C 0.63744 0.22843 0.44917
 C61 C 0.45775 0.17415 0.49727
 C62 C 0.42014 0.15365 0.44501
 C63 C 0.35157 0.13519 0.44548
 C64 C 0.31992 0.13367 0.49907
 C65 C 0.35613 0.15594 0.55042
 C66 C 0.42424 0.17770 0.54887
 H67 H 0.72210 0.25166 0.50748
 H68 H 0.53879 0.18454 0.59487
 H69 H 0.54616 0.21076 0.40356
 H70 H 0.44322 0.15285 0.40339
 H71 H 0.26716 0.12034 0.49959
 H72 H 0.45009 0.19777 0.58854
 C73 C 0.77292 -0.05976 -0.03086
 C74 C 0.75872 -0.04573 0.02531
 C75 C 0.76548 0.00937 0.03605
 C76 C 0.78753 0.05074 -0.00935
 C77 C 0.80419 0.03636 -0.06470
 C78 C 0.79543 -0.01876 -0.07609
 C79 C 0.78861 0.10772 -0.00100
 C80 C 0.76529 0.13368 -0.04673
 C81 C 0.76226 0.18589 -0.03827
 C82 C 0.78195 0.21238 0.01635
 C83 C 0.80513 0.18688 0.06258
 C84 C 0.80948 0.13522 0.05325
 H85 H 0.76658 -0.10260 -0.03923
 H86 H 0.75129 0.01935 0.07872
 H87 H 0.82247 0.06773 -0.09977
 H88 H 0.74715 0.11244 -0.08824
 H89 H 0.77836 0.25240 0.02305
 H90 H 0.82784 0.11604 0.08883
 C91 C 0.07881 0.23910 0.50846
 C92 C 0.06975 0.26026 0.56278
 C93 C 0.06873 0.31376 0.56459
 C94 C 0.08222 0.34882 0.51370
 C95 C 0.09572 0.32806 0.46000
 C96 C 0.09269 0.27309 0.45688
 C97 C 0.08503 0.40740 0.51749
 C98 C 0.07263 0.43444 0.46654
 C99 C 0.07826 0.48985 0.46819
 C100 C 0.09153 0.51814 0.52215
 C101 C 0.10478 0.49262 0.57372
 C102 C 0.10274 0.43784 0.57096
 H103 H 0.08177 0.19834 0.50755
 H104 H 0.06054 0.32855 0.60703
 H105 H 0.11014 0.35450 0.42060
 H106 H 0.06023 0.41340 0.42441
 H107 H 0.09751 0.56165 0.52285
 H108 H 0.11693 0.42013 0.61027
 C109 C 0.25687 1.07977 -0.00431
 C110 C 0.23611 1.04861 0.04787
 C111 C 0.22279 0.99076 0.04837
 C112 C 0.22748 0.96349 -0.00446
 C113 C 0.24452 0.99607 -0.05733
 C114 C 0.26071 1.05372 -0.05658
 C115 C 0.21729 0.90247 -0.00448
 C116 C 0.24428 0.88066 -0.04948
 C117 C 0.23896 0.82491 -0.04720
 C118 C 0.21023 0.79109 0.00219
 C119 C 0.18429 0.81211 0.04789
 C120 C 0.18454 0.86608 0.04258
 H121 H 0.26785 1.12437 -0.00464
 H122 H 0.21034 0.96827 0.09030
 H123 H 0.24545 0.97746 -0.09960
 H124 H 0.27218 0.90693 -0.08539
 H125 H 0.20962 0.74907 0.00580
 H126 H 0.16174 0.87983 0.07747
 C127 C 0.92612 0.76336 0.47560
 C128 C 0.93733 0.74536 0.53252
 C129 C 0.94135 0.69317 0.54040
 C130 C 0.92829 0.65576 0.49313
 C131 C 0.91258 0.67321 0.43665
 C132 C 0.91267 0.72708 0.42746
 C133 C 0.92718 0.59793 0.50379
 C134 C 0.93704 0.56784 0.45637
 C135 C 0.93193 0.51277 0.46443
 C136 C 0.92232 0.48816 0.52126
 C137 C 0.91147 0.51655 0.56942
 C138 C 0.91271 0.57084 0.56038
 H139 H 0.92057 0.80298 0.47010
 H140 H 0.95155 0.68126 0.58474
 H141 H 0.89760 0.64469 0.39990
 H142 H 0.94649 0.58593 0.41202
 H143 H 0.91664 0.44487 0.52685
 H144 H 0.89985 0.59044 0.59724
 O145 O 0.24350 0.15581 0.30587
 O146 O 0.14400 0.19855 0.20116
 O147 O 0.16057 0.20513 0.31570
 O148 O 0.20714 0.13205 0.19503
 O149 O 0.12598 0.05332 0.22063
 O150 O 0.07245 0.12820 0.32988
 O151 O 0.06003 0.11798 0.21275
 O152 O 0.15720 0.08122 0.33189
 Cu153 Cu 0.19710 0.18027 0.25248
 Cu154 Cu 0.09573 0.08774 0.27586
 C155 C 0.21728 0.11291 0.33874
 C156 C 0.08678 0.16584 0.18711
 C157 C 0.10754 0.17808 0.34326
 C158 C 0.17418 0.07981 0.18790
 O159 O 0.73070 0.81386 0.28280
 O160 O 0.81786 0.77069 0.16902
 O161 O 0.81796 0.76976 0.28466
 O162 O 0.72585 0.81149 0.16772
 O163 O 0.80291 0.89659 0.16387
 O164 O 0.89487 0.85511 0.28275
 O165 O 0.89444 0.85605 0.16526
 O166 O 0.80819 0.89893 0.28116
 Cu167 Cu 0.76545 0.78293 0.22582
 Cu168 Cu 0.85773 0.88506 0.22253
 C169 C 0.75544 0.86339 0.30236
 C170 C 0.87074 0.80586 0.14770
 C171 C 0.87123 0.80569 0.30474
 C172 C 0.74821 0.86086 0.14609
 O173 O 0.96164 0.35968 0.24890
 O174 O 0.82644 0.26476 0.33943
 O175 O 0.86175 0.26808 0.22574
 O176 O 0.92443 0.35699 0.35740
 O177 O 0.86651 0.40620 0.32779
 O178 O 0.79992 0.31523 0.20158
 O179 O 0.76658 0.31348 0.31456
 O180 O 0.90050 0.40634 0.22011
 Cu181 Cu 0.89900 0.30667 0.29514
 Cu182 Cu 0.82657 0.36448 0.26322
 C183 C 0.95397 0.39901 0.21915
 C184 C 0.77524 0.27489 0.34520
 C185 C 0.82166 0.27798 0.19038
 C186 C 0.90614 0.39728 0.36415
 O187 O 0.13097 0.58931 0.32046
 O188 O 0.19142 0.68002 0.18985
 O189 O 0.22558 0.68463 0.30415
 O190 O 0.09636 0.58537 0.21020
 O191 O 0.02995 0.62744 0.23248
 O192 O 0.16046 0.72870 0.32322
 O193 O 0.12476 0.72273 0.20832
 O194 O 0.06784 0.63427 0.34352
 Cu195 Cu 0.16813 0.63099 0.25395
 Cu196 Cu 0.08943 0.68323 0.27835
 C197 C 0.09056 0.59692 0.35484
 C198 C 0.16667 0.71529 0.17542
 C199 C 0.21370 0.72181 0.33195
 C200 C 0.04122 0.58962 0.20560
 O201 O 0.72794 0.30905 0.70163
 O202 O 0.81568 0.40151 0.82319
 O203 O 0.81700 0.40932 0.70801
 O204 O 0.72313 0.30213 0.81773
 O205 O 0.79803 0.26520 0.81866
 O206 O 0.89200 0.37253 0.70754
 O207 O 0.88928 0.36313 0.82443
 O208 O 0.80328 0.27271 0.70020
 Cu209 Cu 0.76326 0.35892 0.76281
 Cu210 Cu 0.85314 0.31457 0.76269
 C211 C 0.75163 0.27659 0.67888
 C212 C 0.86671 0.39713 0.84524
 C213 C 0.86985 0.40845 0.68820
 C214 C 0.74504 0.26648 0.83797
 O215 O 0.28516 0.70844 0.69620
 O216 O 0.20653 0.61358 0.82057
 O217 O 0.20018 0.60671 0.70572
 O218 O 0.28858 0.71745 0.81268
 O219 O 0.20781 0.74759 0.80995
 O220 O 0.11982 0.63742 0.70172
 O221 O 0.12664 0.64487 0.81827
 O222 O 0.20432 0.73844 0.69086
 Cu223 Cu 0.25347 0.65902 0.75936
 Cu224 Cu 0.15677 0.69546 0.75498
 C225 C 0.25699 0.73747 0.67048
 C226 C 0.15369 0.61356 0.84106
 C227 C 0.14530 0.60402 0.68469
 C228 C 0.26262 0.75011 0.83092
 O229 O 0.15172 0.20796 0.69772
 O230 O 0.26224 0.17612 0.79885
 O231 O 0.24659 0.17811 0.68890
 O232 O 0.14713 0.18827 0.81436
 O233 O 0.08494 0.09854 0.80660
 O234 O 0.18427 0.08795 0.68323
 O235 O 0.19747 0.08642 0.79785
 O236 O 0.08786 0.11849 0.68915
 Cu237 Cu 0.20609 0.19632 0.75292
 Cu238 Cu 0.13183 0.08895 0.74465
 C239 C 0.10381 0.16960 0.67336
 C240 C 0.25010 0.12599 0.81438
 C241 C 0.23156 0.13074 0.66463
 C242 C 0.09875 0.14502 0.83144
 O243 O 0.86085 0.80713 0.66055
 O244 O 0.78258 0.85222 0.77872
 O245 O 0.76350 0.83978 0.66305
 O246 O 0.87502 0.81703 0.77373
 O247 O 0.94512 0.90452 0.76170
 O248 O 0.83467 0.92601 0.64667
 O249 O 0.85186 0.93946 0.76361
 O250 O 0.93158 0.89377 0.64505
 Cu251 Cu 0.81295 0.82039 0.71984
 Cu252 Cu 0.89755 0.92488 0.70247
 C253 C 0.90907 0.84223 0.63267
 C254 C 0.80633 0.90315 0.79337
 C255 C 0.78095 0.88605 0.63457
 C256 C 0.92760 0.85718 0.78825
 N257 N 0.22546 0.07669 0.09826
 N258 N 0.18860 0.05055 0.14076
 N259 N 0.92785 0.77224 0.58398
 N260 N 0.93460 0.82323 0.58410
 N261 N 0.73474 0.91473 0.06579
 N262 N 0.71038 0.87562 0.10152
 N263 N 0.08027 0.23566 0.61743
 N264 N 0.07299 0.18463 0.62343
 N265 N 1.00080 0.41513 0.12864
 N266 N 1.00381 0.43194 0.17962
 N267 N 0.34042 0.77335 0.60090
 N268 N 0.28203 0.76507 0.61511
 N269 N -0.00284 0.57195 0.11292
 N270 N -0.00631 0.55518 0.16484
 N271 N 0.66287 0.23878 0.61354
 N272 N 0.72223 0.24741 0.62603
 N273 N 0.73595 0.20772 0.92067
 N274 N 0.70933 0.22822 0.88366
 N275 N 0.08241 0.51940 0.41313
 N276 N 0.07431 0.56531 0.40885
 N277 N 0.26724 0.80648 0.91231
 N278 N 0.29605 0.78939 0.87606
 N279 N 0.92361 0.47947 0.41309
 N280 N 0.92714 0.43163 0.41482
 N281 N 0.05610 0.19406 0.89336
 N282 N 0.06045 0.14814 0.88031
 N283 N 0.66579 0.85151 0.36300
 N284 N 0.72622 0.87783 0.35191
 N285 N 0.95508 0.80129 0.85790
 N286 N 0.96333 0.85028 0.83920
 N287 N 0.31580 0.12995 0.39068
 N288 N 0.25381 0.10433 0.38824
 N289 N 0.81120 0.96779 0.86658
 N290 N 0.78529 0.91825 0.84720
 N291 N 0.11005 0.25376 0.40299
 N292 N 0.08826 0.20162 0.39264
 N293 N 0.27910 0.08390 0.89502
 N294 N 0.29673 0.11440 0.85079
 N295 N 0.88863 0.74109 0.37208
 N296 N 0.90269 0.79173 0.35529
 N297 N 0.09190 0.59191 0.92626
 N298 N 0.12574 0.57896 0.89158
 N299 N 0.67532 0.24975 0.39665
 N300 N 0.73068 0.24617 0.39125
 N301 N 0.92446 0.41056 0.93370
 N302 N 0.89748 0.42948 0.89559
 N303 N 0.31412 0.75135 0.38509
 N304 N 0.25768 0.75289 0.37764
 N305 N 0.16300 0.78155 0.10263
 N306 N 0.18607 0.74585 0.12073
 N307 N 0.88827 0.48687 0.62439
 N308 N 0.90178 0.44479 0.63979
 N309 N 0.82307 0.21230 0.11957
 N310 N 0.80247 0.24929 0.13559
 N311 N 0.12935 0.52486 0.62628
 N312 N 0.11405 0.56616 0.63791
 N313 N 0.94572 0.82261 0.06895
 N314 N 0.90225 0.78821 0.10234
 N315 N 0.32405 0.16033 0.60338
 N316 N 0.26666 0.12536 0.61457
 N317 N 0.01695 0.15114 0.10171
 N318 N 0.05563 0.18376 0.13946
 N319 N 0.68298 0.85781 0.57894
 N320 N 0.74206 0.89183 0.58541
   
