data_POSCAR
  _audit_creation_date              2014-09-24
  _audit_creation_method            'ToBaCCo'
  _symmetry_space_group_name_H-M    'P1'
  _symmetry_Int_Tables_number       1
  _symmetry_cell_setting            triclinic
  loop_
  _symmetry_equiv_pos_as_xyz
 x,y,z
_cell_length_a 31.9724
_cell_length_b 31.9718
_cell_length_c 31.9497
_cell_angle_alpha 89.955200
_cell_angle_beta 90.132100
_cell_angle_gamma 90.000000
loop_
  _atom_site_label
  _atom_site_type_symbol
  _atom_site_fract_x
  _atom_site_fract_y
  _atom_site_fract_z
O1 O -0.10863 0.05580 0.00093
 O2 O 0.10661 0.05585 -0.00188
 O3 O -0.00245 0.10684 0.05608
 O4 O 0.00034 0.10698 -0.05722
 O5 O 0.00028 0.05601 -0.10826
 O6 O -0.00240 0.05576 0.10719
 O7 O 0.05559 0.10691 -0.00196
 O8 O -0.05756 0.10685 0.00097
 Zr9 Zr -0.00100 0.07286 -0.00055
 O10 O 0.03690 0.03728 -0.03848
 O11 O -0.03887 0.03713 0.03738
 C12 C -0.09620 0.09443 0.00174
 C13 C 0.09424 0.09451 -0.00265
 C14 C -0.00317 0.09442 0.09476
 C15 C 0.00101 0.09474 -0.09598
 H16 H 0.05467 0.05485 0.05523
 O17 O 0.03678 0.03701 0.03736
 H18 H -0.05676 0.05494 -0.05625
 O19 O -0.03888 0.03708 -0.03835
 O20 O 0.10650 -0.05729 0.00116
 O21 O -0.10874 -0.05739 -0.00201
 O22 O 0.05566 -0.00239 0.10724
 O23 O 0.05545 0.00076 -0.10817
 O24 O -0.05773 -0.00217 -0.10821
 O25 O -0.05747 0.00078 0.10715
 O26 O 0.00040 -0.10847 0.05635
 O27 O -0.00275 -0.10828 -0.05695
 O28 O 0.00049 -0.05747 0.10736
 O29 O -0.00274 -0.05721 -0.10808
 O30 O 0.10662 -0.00230 0.05617
 O31 O -0.10859 0.00079 0.05601
 O32 O -0.10868 -0.00228 -0.05722
 O33 O 0.10653 0.00070 -0.05701
 O34 O 0.05546 -0.10836 0.00123
 O35 O -0.05775 -0.10842 -0.00187
 Zr36 Zr 0.07251 -0.00073 -0.00044
 Zr37 Zr -0.07462 -0.00078 -0.00056
 Zr38 Zr -0.00096 -0.00083 0.07318
 Zr39 Zr -0.00111 -0.00064 -0.07412
 Zr40 Zr -0.00113 -0.07435 -0.00034
 O41 O -0.03901 -0.03865 -0.03845
 O42 O 0.03693 -0.03871 0.03755
 C43 C 0.09410 -0.09593 0.00199
 C44 C -0.09648 -0.09613 -0.00266
 C45 C 0.09427 -0.00314 0.09482
 C46 C 0.09413 0.00145 -0.09572
 C47 C -0.09641 -0.00299 -0.09593
 C48 C -0.09613 0.00157 0.09469
 C49 C 0.00116 -0.09621 0.09511
 C50 C -0.00355 -0.09584 -0.09561
 H51 H -0.05669 -0.05644 0.05524
 O52 O -0.03885 -0.03859 0.03739
 H53 H 0.05446 -0.05636 -0.05603
 O54 O 0.03662 -0.03851 -0.03820
 O55 O 0.39195 0.55638 0.00163
 O56 O 0.60723 0.55648 -0.00112
 O57 O 0.49816 0.60746 0.05698
 O58 O 0.50111 0.60737 -0.05626
 O59 O 0.50100 0.55633 -0.10733
 O60 O 0.49820 0.55643 0.10803
 O61 O 0.55618 0.60752 -0.00111
 O62 O 0.44301 0.60743 0.00175
 Zr63 Zr 0.49958 0.57341 0.00034
 O64 O 0.53738 0.53774 -0.03763
 O65 O 0.46163 0.53774 0.03818
 C66 C 0.40437 0.59501 0.00244
 C67 C 0.59486 0.59516 -0.00186
 C68 C 0.49747 0.59516 0.09573
 C69 C 0.50188 0.59493 -0.09489
 H70 H 0.55530 0.55548 0.05607
 O71 O 0.53743 0.53764 0.03819
 H72 H 0.44386 0.55548 -0.05547
 O73 O 0.46173 0.53762 -0.03757
 O74 O 0.60712 0.44327 0.00195
 O75 O 0.39184 0.44323 -0.00135
 O76 O 0.55627 0.49828 0.10804
 O77 O 0.55595 0.50129 -0.10739
 O78 O 0.44273 0.49844 -0.10756
 O79 O 0.44306 0.50133 0.10789
 O80 O 0.50109 0.39224 0.05686
 O81 O 0.49798 0.39216 -0.05633
 O82 O 0.50119 0.44325 0.10796
 O83 O 0.49789 0.44320 -0.10745
 O84 O 0.60723 0.49830 0.05705
 O85 O 0.39196 0.50130 0.05672
 O86 O 0.39177 0.49845 -0.05657
 O87 O 0.60708 0.50137 -0.05626
 O88 O 0.55604 0.39225 0.00189
 O89 O 0.44290 0.39218 -0.00125
 Zr90 Zr 0.57314 0.49987 0.00036
 Zr91 Zr 0.42592 0.49981 0.00014
 Zr92 Zr 0.49963 0.49985 0.07392
 Zr93 Zr 0.49940 0.49978 -0.07337
 Zr94 Zr 0.49948 0.42626 0.00026
 O95 O 0.46146 0.46184 -0.03779
 O96 O 0.53747 0.46192 0.03825
 C97 C 0.59468 0.40464 0.00271
 C98 C 0.40424 0.40457 -0.00205
 C99 C 0.59497 0.49752 0.09577
 C100 C 0.59462 0.50208 -0.09496
 C101 C 0.40400 0.49776 -0.09532
 C102 C 0.40439 0.50207 0.09542
 C103 C 0.50194 0.40462 0.09552
 C104 C 0.49720 0.40454 -0.09503
 H105 H 0.44394 0.44419 0.05589
 O106 O 0.46178 0.46205 0.03804
 H107 H 0.55509 0.44420 -0.05532
 O108 O 0.53727 0.46205 -0.03748
 O109 O -0.10835 0.55612 0.50122
 O110 O 0.10690 0.55599 0.49851
 O111 O -0.00224 0.60699 0.55636
 O112 O 0.00068 0.60719 0.44309
 O113 O 0.00065 0.55616 0.39204
 O114 O -0.00214 0.55594 0.60751
 O115 O 0.05585 0.60705 0.49834
 O116 O -0.05735 0.60713 0.50119
 Zr117 Zr -0.00073 0.57305 0.49977
 O118 O 0.03722 0.53739 0.46196
 O119 O -0.03854 0.53735 0.53779
 C120 C -0.09608 0.59485 0.50192
 C121 C 0.09449 0.59463 0.49765
 C122 C -0.00299 0.59456 0.59503
 C123 C 0.00138 0.59484 0.40439
 H124 H 0.05497 0.55507 0.55560
 O125 O 0.03710 0.53721 0.53773
 H126 H -0.05644 0.55515 0.44406
 O127 O -0.03856 0.53729 0.46195
 O128 O 0.10700 0.44284 0.50157
 O129 O -0.10827 0.44291 0.49825
 O130 O 0.05610 0.49798 0.60778
 O131 O 0.05584 0.50104 0.39228
 O132 O -0.05741 0.49797 0.39210
 O133 O -0.05713 0.50086 0.60757
 O134 O 0.00082 0.39170 0.55663
 O135 O -0.00220 0.39186 0.44335
 O136 O 0.00089 0.44270 0.60772
 O137 O -0.00228 0.44292 0.39222
 O138 O 0.10709 0.49803 0.55676
 O139 O -0.10824 0.50097 0.55642
 O140 O -0.10839 0.49797 0.44314
 O141 O 0.10691 0.50096 0.44348
 O142 O 0.05596 0.39179 0.50151
 O143 O -0.05720 0.39187 0.49834
 Zr144 Zr 0.07292 0.49942 0.50005
 Zr145 Zr -0.07427 0.49950 0.49981
 Zr146 Zr -0.00056 0.49935 0.57359
 Zr147 Zr -0.00075 0.49952 0.42621
 Zr148 Zr -0.00063 0.42585 0.49997
 O149 O -0.03860 0.46157 0.46194
 O150 O 0.03737 0.46143 0.53801
 C151 C 0.09461 0.40418 0.50229
 C152 C -0.09584 0.40427 0.49750
 C153 C 0.09477 0.49731 0.59545
 C154 C 0.09449 0.50177 0.40478
 C155 C -0.09605 0.49720 0.40447
 C156 C -0.09580 0.50168 0.59512
 C157 C 0.00158 0.40403 0.59534
 C158 C -0.00301 0.40427 0.40466
 H159 H -0.05625 0.44378 0.55554
 O160 O -0.03842 0.46165 0.53769
 H161 H 0.05492 0.44385 0.44433
 O162 O 0.03707 0.46170 0.46216
 O163 O 0.39223 0.05546 0.50127
 O164 O 0.60748 0.05544 0.49846
 O165 O 0.49846 0.10654 0.55650
 O166 O 0.50133 0.10648 0.44332
 O167 O 0.50129 0.05547 0.39223
 O168 O 0.49851 0.05550 0.60762
 O169 O 0.55640 0.10647 0.49840
 O170 O 0.44327 0.10652 0.50130
 Zr171 Zr 0.49985 0.07246 0.49992
 O172 O 0.53774 0.03679 0.46201
 O173 O 0.46194 0.03686 0.53786
 C174 C 0.40461 0.09412 0.50202
 C175 C 0.59504 0.09407 0.49764
 C176 C 0.49775 0.09416 0.59520
 C177 C 0.50208 0.09409 0.40466
 H178 H 0.55560 0.05452 0.55563
 O179 O 0.53774 0.03667 0.53774
 H180 H 0.44417 0.05453 0.44415
 O181 O 0.46206 0.03667 0.46204
 O182 O 0.60762 -0.05776 0.50148
 O183 O 0.39234 -0.05768 0.49831
 O184 O 0.55655 -0.00261 0.60766
 O185 O 0.55632 0.00049 0.39227
 O186 O 0.44320 -0.00265 0.39219
 O187 O 0.44339 0.00030 0.60758
 O188 O 0.50162 -0.10867 0.55644
 O189 O 0.49841 -0.10879 0.44320
 O190 O 0.50161 -0.05762 0.60751
 O191 O 0.49832 -0.05770 0.39212
 O192 O 0.60756 -0.00269 0.55664
 O193 O 0.39230 0.00029 0.55642
 O194 O 0.39223 -0.00263 0.44324
 O195 O 0.60745 0.00047 0.44339
 O196 O 0.55659 -0.10882 0.50139
 O197 O 0.44339 -0.10874 0.49831
 Zr198 Zr 0.57350 -0.00116 0.49997
 Zr199 Zr 0.42632 -0.00111 0.49986
 Zr200 Zr 0.49995 -0.00108 0.57353
 Zr201 Zr 0.49981 -0.00113 0.42626
 Zr202 Zr 0.49997 -0.07472 0.49983
 O203 O 0.46192 -0.03905 0.46191
 O204 O 0.53786 -0.03904 0.53789
 C205 C 0.59526 -0.09644 0.50218
 C206 C 0.40475 -0.09631 0.49753
 C207 C 0.59518 -0.00343 0.59529
 C208 C 0.59497 0.00128 0.40472
 C209 C 0.40459 -0.00342 0.40459
 C210 C 0.40471 0.00101 0.59513
 C211 C 0.50244 -0.09623 0.59508
 C212 C 0.49761 -0.09638 0.40450
 H213 H 0.44438 -0.05679 0.55551
 O214 O 0.46221 -0.03893 0.53765
 H215 H 0.55554 -0.05676 0.44422
 O216 O 0.53771 -0.03893 0.46207
 C217 C 0.18675 0.18701 -0.00521
 N218 N 0.14563 0.19759 -0.00494
 N219 N 0.11616 0.16813 -0.00424
 C220 C 0.12673 0.12699 -0.00380
 N221 N 0.16786 0.11642 -0.00414
 N222 N 0.19733 0.14589 -0.00483
 C223 C 0.21924 0.21951 -0.00556
 N224 N 0.26037 0.20894 -0.00550
 N225 N 0.28984 0.23842 -0.00543
 C226 C 0.27926 0.27955 -0.00542
 N227 N 0.23813 0.29011 -0.00554
 N228 N 0.20866 0.26064 -0.00560
 C229 C 0.31174 0.31205 -0.00493
 N230 N 0.30116 0.35317 -0.00460
 N231 N 0.33062 0.38264 -0.00380
 C232 C 0.37175 0.37208 -0.00329
 N233 N 0.38233 0.33094 -0.00369
 N234 N 0.35287 0.30147 -0.00449
 C235 C 0.18704 -0.31312 0.49460
 N236 N 0.14594 -0.30244 0.49496
 N237 N 0.11643 -0.33184 0.49582
 C238 C 0.12696 -0.37298 0.49637
 N239 N 0.16805 -0.38364 0.49594
 N240 N 0.19756 -0.35425 0.49508
 C241 C 0.21955 -0.28076 0.49411
 N242 N 0.26064 -0.29146 0.49410
 N243 N 0.29017 -0.26207 0.49408
 C244 C 0.27968 -0.22093 0.49406
 N245 N 0.23859 -0.21023 0.49399
 N246 N 0.20905 -0.23962 0.49401
 C247 C 0.31219 -0.18856 0.49452
 N248 N 0.30167 -0.14744 0.49489
 N249 N 0.33118 -0.11804 0.49573
 C250 C 0.37228 -0.12871 0.49623
 N251 N 0.38280 -0.16985 0.49579
 N252 N 0.35328 -0.19925 0.49495
 C253 C 0.81254 0.81292 -0.00509
 N254 N 0.80199 0.85406 -0.00486
 N255 N 0.83146 0.88353 -0.00420
 C256 C 0.87266 0.87302 -0.00374
 N257 N 0.88315 0.83183 -0.00407
 N258 N 0.85367 0.80236 -0.00473
 C259 C 0.78000 0.78038 -0.00538
 N260 N 0.79057 0.73924 -0.00531
 N261 N 0.76109 0.70976 -0.00521
 C262 C 0.71995 0.72031 -0.00517
 N263 N 0.70939 0.76145 -0.00530
 N264 N 0.73886 0.79094 -0.00540
 C265 C 0.68742 0.68777 -0.00468
 N266 N 0.64628 0.69832 -0.00432
 N267 N 0.61681 0.66884 -0.00353
 C268 C 0.62738 0.62769 -0.00307
 N269 N 0.66852 0.61715 -0.00349
 N270 N 0.69799 0.64663 -0.00427
 C271 C 0.81189 0.31174 0.49443
 N272 N 0.80122 0.35283 0.49480
 N273 N 0.83063 0.38234 0.49566
 C274 C 0.87176 0.37181 0.49618
 N275 N 0.88242 0.33070 0.49573
 N276 N 0.85302 0.30121 0.49487
 C277 C 0.77951 0.27923 0.49396
 N278 N 0.79020 0.23814 0.49398
 N279 N 0.76080 0.20861 0.49400
 C280 C 0.71967 0.21913 0.49402
 N281 N 0.70898 0.26022 0.49393
 N282 N 0.73838 0.28974 0.49390
 C283 C 0.68729 0.18662 0.49453
 N284 N 0.64617 0.19715 0.49491
 N285 N 0.61677 0.16764 0.49579
 C286 C 0.62744 0.12654 0.49633
 N287 N 0.66857 0.11602 0.49587
 N288 N 0.69797 0.14552 0.49499
 C289 C 0.81154 0.18696 0.00504
 N290 N 0.80087 0.14586 0.00454
 N291 N 0.83027 0.11636 0.00359
 C292 C 0.87140 0.12690 0.00309
 N293 N 0.88206 0.16800 0.00365
 N294 N 0.85266 0.19749 0.00460
 C295 C 0.77916 0.21946 0.00566
 N296 N 0.78985 0.26055 0.00580
 N297 N 0.76045 0.29008 0.00594
 C298 C 0.71932 0.27957 0.00594
 N299 N 0.70863 0.23848 0.00588
 N300 N 0.73802 0.20895 0.00574
 C301 C 0.68694 0.31208 0.00559
 N302 N 0.64581 0.30155 0.00520
 N303 N 0.61641 0.33106 0.00442
 C304 C 0.62708 0.37216 0.00400
 N305 N 0.66821 0.38268 0.00447
 N306 N 0.69761 0.35317 0.00525
 C307 C 0.81298 -0.31419 0.50458
 N308 N 0.80241 -0.35532 0.50423
 N309 N 0.83188 -0.38480 0.50348
 C310 C 0.87307 -0.37430 0.50303
 N311 N 0.88358 -0.33310 0.50346
 N312 N 0.85411 -0.30363 0.50422
 C313 C 0.78044 -0.28165 0.50502
 N314 N 0.79101 -0.24051 0.50508
 N315 N 0.76153 -0.21102 0.50512
 C316 C 0.72039 -0.22158 0.50511
 N317 N 0.70983 -0.26272 0.50510
 N318 N 0.73930 -0.29220 0.50506
 C319 C 0.68785 -0.18904 0.50476
 N320 N 0.64671 -0.19959 0.50441
 N321 N 0.61724 -0.17012 0.50372
 C322 C 0.62779 -0.12897 0.50336
 N323 N 0.66894 -0.11842 0.50378
 N324 N 0.69841 -0.14790 0.50447
 C325 C 0.18712 0.31166 0.50497
 N326 N 0.19770 0.35279 0.50465
 N327 N 0.16824 0.38226 0.50393
 C328 C 0.12710 0.37169 0.50349
 N329 N 0.11653 0.33055 0.50388
 N330 N 0.14599 0.30109 0.50460
 C331 C 0.21961 0.27916 0.50533
 N332 N 0.20903 0.23803 0.50531
 N333 N 0.23849 0.20856 0.50527
 C334 C 0.27962 0.21913 0.50524
 N335 N 0.29021 0.26025 0.50531
 N336 N 0.26074 0.28973 0.50536
 C337 C 0.31211 0.18663 0.50478
 N338 N 0.35324 0.19721 0.50443
 N339 N 0.38270 0.16774 0.50366
 C340 C 0.37213 0.12661 0.50320
 N341 N 0.33099 0.11604 0.50361
 N342 N 0.30153 0.14550 0.50438
 C343 C 0.18666 0.81182 0.00516
 N344 N 0.19718 0.85295 0.00472
 N345 N 0.16767 0.88234 0.00383
 C346 C 0.12657 0.87167 0.00333
 N347 N 0.11606 0.83053 0.00384
 N348 N 0.14557 0.80114 0.00473
 C349 C 0.21918 0.77946 0.00569
 N350 N 0.20869 0.73832 0.00573
 N351 N 0.23822 0.70893 0.00577
 C352 C 0.27931 0.71963 0.00577
 N353 N 0.28981 0.76077 0.00580
 N354 N 0.26027 0.79016 0.00576
 C355 C 0.31182 0.68727 0.00534
 N356 N 0.35292 0.69795 0.00499
 N357 N 0.38243 0.66855 0.00418
 C358 C 0.37190 0.62741 0.00369
 N359 N 0.33080 0.61674 0.00411
 N360 N 0.30130 0.64614 0.00492
 C361 C -0.00599 0.18686 0.18724
 N362 N -0.00564 0.19746 0.14608
 N363 N -0.00486 0.16801 0.11662
 C364 C -0.00439 0.12688 0.12723
 N365 N -0.00480 0.11629 0.16840
 N366 N -0.00558 0.14574 0.19786
 C367 C -0.00642 0.21933 0.21971
 N368 N -0.00641 0.20875 0.26087
 N369 N -0.00640 0.23821 0.29034
 C370 C -0.00640 0.27934 0.27972
 N371 N -0.00647 0.28992 0.23856
 N372 N -0.00648 0.26046 0.20909
 C373 C -0.00594 0.31181 0.31219
 N374 N -0.00559 0.35293 0.30157
 N375 N -0.00478 0.38239 0.33102
 C376 C -0.00428 0.37181 0.37219
 N377 N -0.00471 0.33068 0.38281
 N378 N -0.00552 0.30122 0.35335
 C379 C 0.49464 0.31193 0.81253
 N380 N 0.49492 0.35305 0.80187
 N381 N 0.49560 0.38255 0.83131
 C382 C 0.49603 0.37202 0.87250
 N383 N 0.49568 0.33089 0.88314
 N384 N 0.49500 0.30140 0.85370
 C385 C 0.49431 0.27939 0.78006
 N386 N 0.49436 0.23827 0.79072
 N387 N 0.49444 0.20876 0.76129
 C388 C 0.49447 0.21929 0.72011
 N389 N 0.49437 0.26041 0.70945
 N390 N 0.49429 0.28991 0.73888
 C391 C 0.49495 0.18675 0.68764
 N392 N 0.49530 0.19729 0.64647
 N393 N 0.49608 0.16780 0.61703
 C394 C 0.49656 0.12667 0.62767
 N395 N 0.49615 0.11613 0.66886
 N396 N 0.49537 0.14563 0.69829
 C397 C -0.00669 0.81179 0.81205
 N398 N -0.00628 0.85289 0.80139
 N399 N -0.00541 0.88235 0.83083
 C400 C -0.00490 0.87175 0.87198
 N401 N -0.00539 0.83064 0.88263
 N402 N -0.00626 0.80119 0.85319
 C403 C -0.00713 0.77936 0.77965
 N404 N -0.00710 0.73826 0.79031
 N405 N -0.00702 0.70879 0.76088
 C406 C -0.00696 0.71938 0.71973
 N407 N -0.00707 0.76048 0.70906
 N408 N -0.00715 0.78995 0.73850
 C409 C -0.00636 0.68695 0.68733
 N410 N -0.00593 0.69754 0.64619
 N411 N -0.00495 0.66809 0.61676
 C412 C -0.00437 0.62698 0.62742
 N413 N -0.00487 0.61639 0.66857
 N414 N -0.00584 0.64585 0.69800
 C415 C 0.49487 -0.31394 0.18671
 N416 N 0.49519 -0.30336 0.14555
 N417 N 0.49592 -0.33281 0.11606
 C418 C 0.49637 -0.37401 0.12659
 N419 N 0.49597 -0.38454 0.16781
 N420 N 0.49524 -0.35508 0.19729
 C421 C 0.49448 -0.28143 0.21925
 N422 N 0.49449 -0.29201 0.26042
 N423 N 0.49450 -0.26255 0.28991
 C424 C 0.49450 -0.22141 0.27933
 N425 N 0.49444 -0.21082 0.23816
 N426 N 0.49443 -0.24029 0.20867
 C427 C 0.49490 -0.18890 0.31187
 N428 N 0.49522 -0.14775 0.30130
 N429 N 0.49595 -0.11830 0.33078
 C430 C 0.49641 -0.12888 0.37196
 N431 N 0.49603 -0.17003 0.38253
 N432 N 0.49529 -0.19949 0.35304
 C433 C 0.00370 0.81277 0.18625
 N434 N 0.00333 0.80223 0.14509
 N435 N 0.00263 0.83171 0.11556
 C436 C 0.00226 0.87291 0.12604
 N437 N 0.00271 0.88340 0.16726
 N438 N 0.00342 0.85391 0.19678
 C439 C 0.00409 0.78020 0.21886
 N440 N 0.00416 0.79073 0.26003
 N441 N 0.00418 0.76124 0.28955
 C442 C 0.00413 0.72009 0.27903
 N443 N 0.00411 0.70956 0.23785
 N444 N 0.00409 0.73905 0.20833
 C445 C 0.00379 0.68752 0.31163
 N446 N 0.00346 0.64637 0.30110
 N447 N 0.00282 0.61688 0.33061
 C448 C 0.00247 0.62741 0.37179
 N449 N 0.00286 0.66857 0.38232
 N450 N 0.00350 0.69805 0.35280
 C451 C 0.50551 -0.31288 0.81263
 N452 N 0.50495 -0.35398 0.80207
 N453 N 0.50389 -0.38338 0.83157
 C454 C 0.50333 -0.37272 0.87268
 N455 N 0.50397 -0.33161 0.88324
 N456 N 0.50503 -0.30221 0.85373
 C457 C 0.50617 -0.28056 0.78016
 N458 N 0.50629 -0.23944 0.79070
 N459 N 0.50637 -0.21005 0.76116
 C460 C 0.50634 -0.22074 0.72006
 N461 N 0.50632 -0.26185 0.70952
 N462 N 0.50623 -0.29125 0.73906
 C463 C 0.50584 -0.18841 0.68759
 N464 N 0.50536 -0.19909 0.64649
 N465 N 0.50441 -0.16969 0.61696
 C466 C 0.50388 -0.12858 0.62752
 N467 N 0.50444 -0.11791 0.66862
 N468 N 0.50540 -0.14731 0.69814
 C469 C 0.50511 0.31199 0.18780
 N470 N 0.50464 0.30151 0.14665
 N471 N 0.50375 0.33104 0.11724
 C472 C 0.50329 0.37213 0.12793
 N473 N 0.50383 0.38261 0.16910
 N474 N 0.50472 0.35307 0.19851
 C475 C 0.50561 0.27945 0.22018
 N476 N 0.50569 0.28990 0.26134
 N477 N 0.50570 0.26034 0.29074
 C478 C 0.50563 0.21926 0.28001
 N479 N 0.50562 0.20881 0.23885
 N480 N 0.50562 0.23837 0.20945
 C481 C 0.50514 0.18672 0.31239
 N482 N 0.50469 0.14564 0.30168
 N483 N 0.50382 0.11610 0.33109
 C484 C 0.50337 0.12658 0.37226
 N485 N 0.50390 0.16767 0.38295
 N486 N 0.50476 0.19720 0.35354
 C487 C 0.00361 0.18585 0.81305
 N488 N 0.00323 0.14473 0.80245
 N489 N 0.00249 0.11520 0.83192
 C490 C 0.00209 0.12564 0.87315
 N491 N 0.00255 0.16682 0.88369
 N492 N 0.00329 0.19633 0.85422
 C493 C 0.00406 0.21845 0.78051
 N494 N 0.00416 0.25958 0.79112
 N495 N 0.00424 0.28912 0.76166
 C496 C 0.00422 0.27865 0.72047
 N497 N 0.00418 0.23752 0.70986
 N498 N 0.00410 0.20798 0.73933
 C499 C 0.00394 0.31126 0.68794
 N500 N 0.00362 0.30078 0.64676
 N501 N 0.00300 0.33031 0.61729
 C502 C 0.00267 0.37144 0.62788
 N503 N 0.00306 0.38191 0.66907
 N504 N 0.00368 0.35238 0.69854
 C505 C 0.18686 -0.00635 0.18726
 N506 N 0.14578 -0.00594 0.19788
 N507 N 0.11626 -0.00504 0.16842
 C508 C 0.12676 -0.00449 0.12727
 N509 N 0.16785 -0.00498 0.11666
 N510 N 0.19737 -0.00588 0.14613
 C511 C 0.21937 -0.00688 0.21971
 N512 N 0.26046 -0.00691 0.20908
 N513 N 0.28999 -0.00694 0.23855
 C514 C 0.27949 -0.00694 0.27969
 N515 N 0.23841 -0.00698 0.29032
 N516 N 0.20888 -0.00695 0.26085
 C517 C 0.31200 -0.00648 0.31214
 N518 N 0.30149 -0.00607 0.35328
 N519 N 0.33101 -0.00522 0.38274
 C520 C 0.37210 -0.00472 0.37214
 N521 N 0.38261 -0.00520 0.33099
 N522 N 0.35309 -0.00605 0.30152
 C523 C 0.31290 0.49523 0.81355
 N524 N 0.30240 0.49557 0.85471
 N525 N 0.33192 0.49628 0.88423
 C526 C 0.37310 0.49670 0.87376
 N527 N 0.38354 0.49628 0.83254
 N528 N 0.35402 0.49557 0.80303
 C529 C 0.28030 0.49481 0.78096
 N530 N 0.29078 0.49476 0.73979
 N531 N 0.26125 0.49470 0.71027
 C532 C 0.22012 0.49469 0.72080
 N533 N 0.20964 0.49469 0.76197
 N534 N 0.23917 0.49474 0.79149
 C535 C 0.18752 0.49499 0.68821
 N536 N 0.14640 0.49526 0.69874
 N537 N 0.11687 0.49587 0.66922
 C538 C 0.12736 0.49624 0.62804
 N539 N 0.16849 0.49590 0.61752
 N540 N 0.19801 0.49529 0.64704
 C541 C 0.81269 -0.00610 0.81308
 N542 N 0.80214 -0.00571 0.85420
 N543 N 0.83161 -0.00481 0.88372
 C544 C 0.87277 -0.00424 0.87322
 N545 N 0.88327 -0.00471 0.83204
 N546 N 0.85379 -0.00561 0.80253
 C547 C 0.78021 -0.00664 0.78056
 N548 N 0.79076 -0.00668 0.73943
 N549 N 0.76127 -0.00674 0.70990
 C550 C 0.72017 -0.00676 0.72045
 N551 N 0.70961 -0.00679 0.76158
 N552 N 0.73910 -0.00673 0.79110
 C553 C 0.68768 -0.00635 0.68792
 N554 N 0.64658 -0.00596 0.69847
 N555 N 0.61710 -0.00515 0.66895
 C556 C 0.62765 -0.00470 0.62781
 N557 N 0.66877 -0.00516 0.61728
 N558 N 0.69825 -0.00597 0.64680
 C559 C -0.31399 0.49456 0.18676
 N560 N -0.35509 0.49495 0.19733
 N561 N -0.38461 0.49580 0.16784
 C562 C -0.37416 0.49630 0.12663
 N563 N -0.33300 0.49581 0.11612
 N564 N -0.30349 0.49497 0.14562
 C565 C -0.28144 0.49407 0.21928
 N566 N -0.24033 0.49402 0.20871
 N567 N -0.21080 0.49398 0.23820
 C568 C -0.22128 0.49399 0.27936
 N569 N -0.26239 0.49397 0.28993
 N570 N -0.29192 0.49401 0.26044
 C571 C -0.18872 0.49439 0.31187
 N572 N -0.19922 0.49475 0.35302
 N573 N -0.16970 0.49552 0.38252
 C574 C -0.12859 0.49596 0.37195
 N575 N -0.11810 0.49553 0.33079
 N576 N -0.14762 0.49476 0.30130
 C577 C 0.18677 0.00394 0.81200
 N578 N 0.19728 0.00361 0.85319
 N579 N 0.16777 0.00294 0.88257
 C580 C 0.12664 0.00257 0.87185
 N581 N 0.11613 0.00297 0.83064
 N582 N 0.14565 0.00364 0.80126
 C583 C 0.21934 0.00427 0.77961
 N584 N 0.20886 0.00429 0.73840
 N585 N 0.23840 0.00423 0.70904
 C586 C 0.27951 0.00416 0.71980
 N587 N 0.28999 0.00420 0.76101
 N588 N 0.26045 0.00426 0.79037
 C589 C 0.31208 0.00371 0.68741
 N590 N 0.35319 0.00334 0.69814
 N591 N 0.38271 0.00259 0.66877
 C592 C 0.37220 0.00218 0.62756
 N593 N 0.33107 0.00261 0.61684
 N594 N 0.30156 0.00336 0.64621
 C595 C 0.31195 0.50487 0.18775
 N596 N 0.30136 0.50451 0.14658
 N597 N 0.33081 0.50373 0.11716
 C598 C 0.37194 0.50330 0.12784
 N599 N 0.38253 0.50373 0.16902
 N600 N 0.35307 0.50450 0.19844
 C601 C 0.27947 0.50528 0.22017
 N602 N 0.29004 0.50528 0.26134
 N603 N 0.26057 0.50525 0.29076
 C604 C 0.21945 0.50521 0.28006
 N605 N 0.20887 0.50528 0.23888
 N606 N 0.23835 0.50531 0.20947
 C607 C 0.18697 0.50473 0.31247
 N608 N 0.14585 0.50436 0.30177
 N609 N 0.11638 0.50353 0.33118
 C610 C 0.12696 0.50304 0.37236
 N611 N 0.16808 0.50349 0.38305
 N612 N 0.19755 0.50431 0.35364
 C613 C 0.81167 0.00461 0.18717
 N614 N 0.80097 0.00421 0.14603
 N615 N 0.83035 0.00337 0.11655
 C616 C 0.87150 0.00289 0.12714
 N617 N 0.88219 0.00336 0.16829
 N618 N 0.85281 0.00421 0.19777
 C619 C 0.77932 0.00506 0.21966
 N620 N 0.79003 0.00508 0.26080
 N621 N 0.76066 0.00504 0.29030
 C622 C 0.71951 0.00500 0.27973
 N623 N 0.70880 0.00506 0.23859
 N624 N 0.73817 0.00509 0.20909
 C625 C 0.68716 0.00448 0.31222
 N626 N 0.64602 0.00406 0.30163
 N627 N 0.61665 0.00316 0.33111
 C628 C 0.62734 0.00264 0.37226
 N629 N 0.66849 0.00313 0.38285
 N630 N 0.69787 0.00403 0.35336
 C631 C -0.31302 0.50479 0.81255
 N632 N -0.30238 0.50446 0.85371
 N633 N -0.33179 0.50372 0.88317
 C634 C -0.37294 0.50329 0.87256
 N635 N -0.38358 0.50369 0.83139
 N636 N -0.35416 0.50443 0.80193
 C637 C -0.28057 0.50516 0.78006
 N638 N -0.29120 0.50517 0.73890
 N639 N -0.26178 0.50512 0.70943
 C640 C -0.22063 0.50506 0.72006
 N641 N -0.21000 0.50511 0.76122
 N642 N -0.23943 0.50516 0.79069
 C643 C -0.18818 0.50458 0.68758
 N644 N -0.14705 0.50416 0.69821
 N645 N -0.11762 0.50335 0.66876
 C646 C -0.12824 0.50292 0.62758
 N647 N -0.16939 0.50341 0.61696
 N648 N -0.19882 0.50422 0.64641
   
