data_POSCAR
  _audit_creation_date              2014-09-24
  _audit_creation_method            'ToBaCCo'
  _symmetry_space_group_name_H-M    'P1'
  _symmetry_Int_Tables_number       1
  _symmetry_cell_setting            triclinic
  loop_
  _symmetry_equiv_pos_as_xyz
 x,y,z
_cell_length_a 53.8309
_cell_length_b 53.7534
_cell_length_c 53.8353
_cell_angle_alpha 90.003100
_cell_angle_beta 89.996800
_cell_angle_gamma 90.000200
loop_
  _atom_site_label
  _atom_site_type_symbol
  _atom_site_fract_x
  _atom_site_fract_y
  _atom_site_fract_z
C1 C 0.61433 0.64600 0.61514
 C2 C 0.63563 0.63537 0.60450
 C3 C 0.64608 0.61441 0.61494
 C4 C 0.63543 0.60373 0.63621
 C5 C 0.61452 0.61417 0.64665
 C6 C 0.60387 0.63549 0.63603
 C7 C 0.60017 0.66636 0.60896
 N8 N 0.58119 0.66865 0.62560
 C9 C 0.58351 0.64963 0.64223
 C10 C 0.60832 0.59999 0.66696
 N11 N 0.62497 0.58093 0.66936
 C12 C 0.64162 0.58336 0.65033
 C13 C 0.66643 0.60824 0.60080
 N14 N 0.66877 0.62493 0.58186
 C15 C 0.64979 0.64159 0.58418
 H16 H 0.60375 0.67846 0.59335
 H17 H 0.57146 0.64602 0.65785
 H18 H 0.59263 0.60372 0.67888
 H19 H 0.65731 0.57142 0.64658
 H20 H 0.67849 0.59258 0.60437
 H21 H 0.64622 0.65726 0.57215
 C22 C 0.88627 0.35350 0.11472
 C23 C 0.86502 0.36419 0.10405
 C24 C 0.85460 0.38517 0.11448
 C25 C 0.86525 0.39582 0.13575
 C26 C 0.88613 0.38530 0.14623
 C27 C 0.89673 0.36396 0.13561
 C28 C 0.90038 0.33310 0.10856
 N29 N 0.91940 0.33068 0.12522
 C30 C 0.91702 0.34977 0.14183
 C31 C 0.89234 0.39947 0.16656
 N32 N 0.87574 0.41850 0.16886
 C33 C 0.85910 0.41621 0.14989
 C34 C 0.83429 0.39140 0.10030
 N35 N 0.83195 0.37471 0.08136
 C36 C 0.85088 0.35799 0.08371
 H37 H 0.89661 0.32114 0.09289
 H38 H 0.92894 0.35351 0.15752
 H39 H 0.90796 0.39585 0.17862
 H40 H 0.84350 0.42832 0.14629
 H41 H 0.82227 0.40708 0.10385
 H42 H 0.85443 0.34232 0.07168
 C43 C 0.38558 0.14581 -0.11498
 C44 C 0.36431 0.13515 -0.10433
 C45 C 0.35386 0.11420 -0.11478
 C46 C 0.36448 0.10356 -0.13608
 C47 C 0.38536 0.11402 -0.14654
 C48 C 0.39602 0.13533 -0.13591
 C49 C 0.39975 0.16618 -0.10882
 N50 N 0.41870 0.16849 -0.12549
 C51 C 0.41635 0.14950 -0.14213
 C52 C 0.39155 0.09987 -0.16688
 N53 N 0.37491 0.08079 -0.16926
 C54 C 0.35829 0.08319 -0.15021
 C55 C 0.33353 0.10798 -0.10063
 N56 N 0.33121 0.12464 -0.08166
 C57 C 0.35017 0.14133 -0.08398
 H58 H 0.39619 0.17826 -0.09319
 H59 H 0.42838 0.14590 -0.15778
 H60 H 0.40722 0.10363 -0.17881
 H61 H 0.34262 0.07123 -0.14645
 H62 H 0.32149 0.09232 -0.10421
 H63 H 0.35374 0.15698 -0.07192
 C64 C 0.11376 0.85408 0.38503
 C65 C 0.13502 0.86476 0.39567
 C66 C 0.14546 0.88571 0.38522
 C67 C 0.13481 0.89634 0.36393
 C68 C 0.11394 0.88585 0.35349
 C69 C 0.10331 0.86453 0.36413
 C70 C 0.09964 0.83371 0.39122
 N71 N 0.08060 0.83128 0.37458
 C72 C 0.08299 0.85035 0.35794
 C73 C 0.10772 0.89998 0.33314
 N74 N 0.12434 0.91907 0.33073
 C75 C 0.14098 0.91670 0.34977
 C76 C 0.16579 0.89193 0.39937
 N77 N 0.16811 0.87526 0.41834
 C78 C 0.14916 0.85857 0.41601
 H79 H 0.10340 0.82177 0.40690
 H80 H 0.07107 0.85409 0.34225
 H81 H 0.09205 0.89620 0.32122
 H82 H 0.15664 0.92868 0.35352
 H83 H 0.17783 0.90760 0.39581
 H84 H 0.14559 0.84291 0.42806
 N85 N 0.09504 0.16439 0.11489
 N86 N 0.08530 0.15422 0.13488
 C87 C 0.06519 0.16746 0.14179
 C88 C 0.06237 0.18681 0.12523
 C89 C 0.08151 0.18443 0.10842
 H90 H 0.05351 0.16344 0.15762
 H91 H 0.08532 0.19639 0.09271
 Cu92 Cu 0.10008 0.12477 0.14980
 Cu93 Cu 0.12459 0.15102 0.09880
 Cu94 Cu 0.15107 0.09847 0.12534
 N95 N 0.11483 0.09518 0.16447
 N96 N 0.13489 0.08506 0.15481
 C97 C 0.14135 0.06503 0.16837
 C98 C 0.12442 0.06257 0.18740
 C99 C 0.10783 0.08189 0.18452
 H100 H 0.15713 0.05314 0.16467
 H101 H 0.09195 0.08589 0.19614
 N102 N 0.16464 0.11478 0.09547
 N103 N 0.15451 0.13473 0.08532
 C104 C 0.16788 0.14129 0.06519
 C105 C 0.18719 0.12468 0.06271
 C106 C 0.18472 0.10814 0.08207
 H107 H 0.16391 0.15692 0.05320
 H108 H 0.19666 0.09244 0.08601
 H109 H 0.11971 0.11468 0.11026
 H110 H 0.13964 0.13488 0.13019
 N111 N 0.40413 0.83530 0.61507
 N112 N 0.41387 0.84552 0.63503
 C113 C 0.43403 0.83235 0.64192
 C114 C 0.43688 0.81297 0.62539
 C115 C 0.41772 0.81529 0.60860
 H116 H 0.44578 0.83648 0.65769
 H117 H 0.41398 0.80336 0.59286
 Cu118 Cu 0.39923 0.87513 0.64977
 Cu119 Cu 0.37468 0.84875 0.59886
 Cu120 Cu 0.34858 0.90175 0.62494
 N121 N 0.38447 0.90474 0.66440
 N122 N 0.36468 0.91512 0.65448
 C123 C 0.35827 0.93522 0.66796
 C124 C 0.37495 0.93745 0.68724
 C125 C 0.39135 0.91794 0.68455
 H126 H 0.34266 0.94727 0.66407
 H127 H 0.40703 0.91375 0.69639
 N128 N 0.33501 0.88539 0.59510
 N129 N 0.34489 0.86516 0.58522
 C130 C 0.33139 0.85846 0.56523
 C131 C 0.31227 0.87526 0.56254
 C132 C 0.31498 0.89207 0.58164
 H133 H 0.33511 0.84257 0.55348
 H134 H 0.30321 0.90792 0.58541
 H135 H 0.37987 0.88513 0.61004
 H136 H 0.35963 0.86531 0.63003
 N137 N 0.90470 0.66528 0.38502
 N138 N 0.91463 0.65490 0.36523
 C139 C 0.93474 0.66814 0.35831
 C140 C 0.93738 0.68768 0.37467
 C141 C 0.91813 0.68543 0.39138
 H142 H 0.94656 0.66396 0.34261
 H143 H 0.91424 0.69749 0.40698
 Cu144 Cu 0.89999 0.62525 0.35057
 Cu145 Cu 0.87520 0.65188 0.40118
 Cu146 Cu 0.84920 0.59879 0.37517
 N147 N 0.88534 0.59561 0.33591
 N148 N 0.86541 0.58537 0.34568
 C149 C 0.85894 0.56535 0.33212
 C150 C 0.87571 0.56305 0.31293
 C151 C 0.89223 0.58244 0.31574
 H152 H 0.84323 0.55338 0.33589
 H153 H 0.90796 0.58660 0.30396
 N154 N 0.83557 0.61519 0.40497
 N155 N 0.84540 0.63545 0.41481
 C156 C 0.83196 0.64210 0.43486
 C157 C 0.81292 0.62524 0.43763
 C158 C 0.81562 0.60843 0.41851
 H159 H 0.83571 0.65797 0.44663
 H160 H 0.80392 0.59251 0.41482
 H161 H 0.88034 0.61546 0.39019
 H162 H 0.86029 0.63521 0.36996
 N163 N 0.59564 0.33529 -0.11511
 N164 N 0.58591 0.34550 -0.13507
 C165 C 0.56579 0.33227 -0.14201
 C166 C 0.56295 0.31290 -0.12548
 C167 C 0.58208 0.31525 -0.10865
 H168 H 0.55410 0.33634 -0.15783
 H169 H 0.58586 0.30328 -0.09295
 Cu170 Cu 0.60059 0.37502 -0.14996
 Cu171 Cu 0.62520 0.34863 -0.09903
 Cu172 Cu 0.65175 0.40115 -0.12553
 N173 N 0.61552 0.40455 -0.16461
 N174 N 0.63560 0.41462 -0.15497
 C175 C 0.64208 0.43466 -0.16851
 C176 C 0.62515 0.43716 -0.18754
 C177 C 0.60853 0.41787 -0.18465
 H178 H 0.65787 0.44653 -0.16480
 H179 H 0.59262 0.41392 -0.19625
 N180 N 0.66531 0.38480 -0.09568
 N181 N 0.65514 0.36487 -0.08553
 C182 C 0.66852 0.35826 -0.06543
 C183 C 0.68788 0.37482 -0.06295
 C184 C 0.68542 0.39139 -0.08230
 H185 H 0.66454 0.34261 -0.05344
 H186 H 0.69739 0.40705 -0.08624
 H187 H 0.62034 0.38502 -0.11042
 H188 H 0.64018 0.36480 -0.13042
 C189 C -0.02546 0.29350 0.14368
 C190 C -0.02545 0.27506 0.12543
 C191 C -0.04376 0.27515 0.10708
 C192 C -0.06208 0.29358 0.10693
 C193 C -0.06254 0.31250 0.12527
 C194 C -0.04371 0.31199 0.14366
 C195 C -0.00663 0.25604 0.12553
 C196 C 0.00915 0.24013 0.12558
 C197 C 0.02764 0.22152 0.12556
 C198 C 0.04346 0.20566 0.12547
 H199 H -0.01131 0.29361 0.15800
 H200 H -0.04390 0.26093 0.09281
 H201 H -0.07569 0.29263 0.09228
 H202 H -0.04270 0.32569 0.15825
 C203 C 0.54336 0.72494 0.60739
 C204 C 0.52499 0.72498 0.62572
 C205 C 0.52502 0.70653 0.64399
 C206 C 0.54335 0.68810 0.64399
 C207 C 0.56210 0.68775 0.62563
 C208 C 0.56173 0.70656 0.60730
 C209 C 0.50612 0.74396 0.62576
 C210 C 0.49031 0.75984 0.62577
 C211 C 0.47176 0.77840 0.62571
 C212 C 0.45588 0.79421 0.62560
 H213 H 0.54351 0.73915 0.59312
 H214 H 0.51085 0.70637 0.65828
 H215 H 0.54257 0.67427 0.65848
 H216 H 0.57550 0.70733 0.59277
 C217 C 1.02541 0.79414 0.35621
 C218 C 1.02539 0.77573 0.37449
 C219 C 1.04372 0.77583 0.39283
 C220 C 1.06206 0.79424 0.39293
 C221 C 1.06252 0.81312 0.37457
 C222 C 1.04369 0.81260 0.35619
 C223 C 1.00654 0.75674 0.37444
 C224 C 0.99073 0.74086 0.37440
 C225 C 0.97220 0.72230 0.37440
 C226 C 0.95634 0.70648 0.37447
 H227 H 1.01125 0.79424 0.34191
 H228 H 1.04386 0.76163 0.40712
 H229 H 1.07568 0.79329 0.40757
 H230 H 1.04268 0.82628 0.34158
 C231 C 0.47481 0.20640 -0.14398
 C232 C 0.47487 0.22486 -0.12572
 C233 C 0.45653 0.22481 -0.10735
 C234 C 0.43817 0.20642 -0.10722
 C235 C 0.43778 0.18761 -0.12555
 C236 C 0.45650 0.18796 -0.14393
 C237 C 0.49374 0.24383 -0.12581
 C238 C 0.50956 0.25971 -0.12585
 C239 C 0.52811 0.27827 -0.12583
 C240 C 0.54398 0.29409 -0.12572
 H241 H 0.48896 0.20624 -0.15830
 H242 H 0.45641 0.23903 -0.09308
 H243 H 0.42443 0.20719 -0.09266
 H244 H 0.45726 0.17412 -0.15843
 C245 C 0.10591 -0.04391 0.27547
 C246 C 0.12416 -0.02547 0.27542
 C247 C 0.14249 -0.02551 0.29375
 C248 C 0.14263 -0.04388 0.31212
 C249 C 0.12430 -0.06280 0.31262
 C250 C 0.10592 -0.06235 0.29377
 C251 C 0.12408 -0.00650 0.25655
 C252 C 0.12405 0.00938 0.24074
 C253 C 0.12408 0.02795 0.22221
 C254 C 0.12418 0.04377 0.20635
 H255 H 0.09161 -0.04407 0.26131
 H256 H 0.15676 -0.01128 0.29387
 H257 H 0.15727 -0.04289 0.32574
 H258 H 0.09133 -0.07606 0.29279
 C259 C 0.60658 0.54377 -0.27546
 C260 C 0.62485 0.52536 -0.27543
 C261 C 0.64320 0.52547 -0.29374
 C262 C 0.64332 0.54388 -0.31208
 C263 C 0.62495 0.56276 -0.31256
 C264 C 0.60656 0.56224 -0.29373
 C265 C 0.62479 0.50636 -0.25658
 C266 C 0.62477 0.49046 -0.24079
 C267 C 0.62480 0.47186 -0.22229
 C268 C 0.62491 0.45601 -0.20645
 H269 H 0.59226 0.54387 -0.26131
 H270 H 0.65750 0.51128 -0.29387
 H271 H 0.65797 0.54294 -0.32570
 H272 H 0.59195 0.57592 -0.29273
 C273 C 0.35666 1.02537 0.79379
 C274 C 0.37498 1.02530 0.77545
 C275 C 0.39325 1.04373 0.77548
 C276 C 0.39328 1.06217 0.79378
 C277 C 0.37492 1.06265 0.81263
 C278 C 0.35657 1.04375 0.81216
 C279 C 0.37504 1.00634 0.75657
 C280 C 0.37510 0.99050 0.74073
 C281 C 0.37514 0.97198 0.72214
 C282 C 0.37511 0.95620 0.70623
 H283 H 0.34238 1.01116 0.79393
 H284 H 0.40754 1.04386 0.76131
 H285 H 0.40788 1.07586 0.79278
 H286 H 0.34194 1.04278 0.82580
 C287 C 0.89418 0.45644 0.22496
 C288 C 0.87593 0.47492 0.22496
 C289 C 0.85760 0.47488 0.20660
 C290 C 0.85749 0.45646 0.18827
 C291 C 0.87579 0.43763 0.18792
 C292 C 0.89415 0.43799 0.20667
 C293 C 0.87601 0.49393 0.24380
 C294 C 0.87603 0.50984 0.25958
 C295 C 0.87601 0.52843 0.27809
 C296 C 0.87592 0.54426 0.29395
 H297 H 0.90848 0.45629 0.23913
 H298 H 0.84334 0.48911 0.20644
 H299 H 0.84295 0.45724 0.17450
 H300 H 0.90863 0.42414 0.20746
 C301 C 0.27509 0.10620 -0.04379
 C302 C 0.27501 0.12455 -0.02542
 C303 C 0.29335 0.14294 -0.02549
 C304 C 0.31173 0.14301 -0.04384
 C305 C 0.31214 0.12461 -0.06257
 C306 C 0.29342 0.10618 -0.06218
 C307 C 0.25611 0.12453 -0.00651
 C308 C 0.24030 0.12453 0.00934
 C309 C 0.22180 0.12457 0.02792
 C310 C 0.20601 0.12461 0.04379
 H311 H 0.26095 0.09185 -0.04392
 H312 H 0.29346 0.15726 -0.01133
 H313 H 0.32547 0.15759 -0.04309
 H314 H 0.29269 0.09162 -0.07595
 C315 C 0.70664 0.64334 0.52574
 C316 C 0.72504 0.62502 0.52570
 C317 C 0.72500 0.60666 0.54407
 C318 C 0.70664 0.60659 0.56243
 C319 C 0.68787 0.62496 0.56280
 C320 C 0.68824 0.64335 0.54406
 C321 C 0.74396 0.62504 0.50681
 C322 C 0.75979 0.62508 0.49097
 C323 C 0.77831 0.62513 0.47241
 C324 C 0.79411 0.62517 0.45655
 H325 H 0.70650 0.65766 0.51158
 H326 H 0.73918 0.59236 0.54421
 H327 H 0.70740 0.59204 0.57620
 H328 H 0.67445 0.65788 0.54329
 C329 C 0.77586 0.39313 0.04344
 C330 C 0.77578 0.37476 0.02509
 C331 C 0.79412 0.35638 0.02518
 C332 C 0.81249 0.35632 0.04353
 C333 C 0.81289 0.37473 0.06226
 C334 C 0.79418 0.39316 0.06184
 C335 C 0.75689 0.37478 0.00617
 C336 C 0.74107 0.37480 -0.00967
 C337 C 0.72254 0.37482 -0.02822
 C338 C 0.70673 0.37482 -0.04407
 H339 H 0.76172 0.40749 0.04356
 H340 H 0.79423 0.34204 0.01103
 H341 H 0.82623 0.34173 0.04280
 H342 H 0.79344 0.40773 0.07560
 C343 C 0.22423 0.89363 0.45623
 C344 C 0.22427 0.87528 0.47460
 C345 C 0.20591 0.85693 0.47453
 C346 C 0.18754 0.85688 0.45618
 C347 C 0.18717 0.87527 0.43744
 C348 C 0.20591 0.89367 0.43783
 C349 C 0.24316 0.87528 0.49352
 C350 C 0.25899 0.87526 0.50935
 C351 C 0.27754 0.87525 0.52788
 C352 C 0.29338 0.87524 0.54370
 H353 H 0.23839 0.90796 0.45611
 H354 H 0.20576 0.84261 0.48870
 H355 H 0.17378 0.84231 0.45693
 H356 H 0.20667 0.90822 0.42406
   
