data_POSCAR
  _audit_creation_date              2014-09-24
  _audit_creation_method            'ToBaCCo'
  _symmetry_space_group_name_H-M    'P1'
  _symmetry_Int_Tables_number       1
  _symmetry_cell_setting            triclinic
  loop_
  _symmetry_equiv_pos_as_xyz
 x,y,z
_cell_length_a 14.8900
_cell_length_b 14.8921
_cell_length_c 14.8782
_cell_angle_alpha 83.054400
_cell_angle_beta 95.583500
_cell_angle_gamma 83.245200
loop_
  _atom_site_label
  _atom_site_type_symbol
  _atom_site_fract_x
  _atom_site_fract_y
  _atom_site_fract_z
O1 O 0.62702 0.49605 0.06499
 O2 O 0.37718 0.48243 0.05978
 O3 O 0.51872 0.37031 0.05416
 O4 O 0.48447 0.61220 0.08529
 O5 O 0.47018 0.65289 -0.06365
 O6 O 0.49691 0.41019 -0.09518
 O7 O 0.36056 0.53007 -0.08807
 O8 O 0.60472 0.53377 -0.08444
 Cu9 Cu 0.50344 0.48815 0.08155
 Cu10 Cu 0.48128 0.53656 -0.09735
 C11 C 0.65768 0.51563 -0.01106
 C12 C 0.32811 0.49932 -0.01691
 C13 C 0.51025 0.34916 -0.02603
 C14 C 0.47437 0.67344 0.01689
 O15 O -0.07690 0.63438 0.48234
 O16 O -0.07515 0.38988 0.47683
 O17 O -0.09069 0.49713 0.59962
 O18 O -0.05941 0.52473 0.35662
 O19 O 0.08960 0.50689 0.39305
 O20 O 0.05843 0.47180 0.63651
 O21 O 0.07435 0.36476 0.50973
 O22 O 0.07129 0.61346 0.52429
 Cu23 Cu -0.09020 0.51417 0.47426
 Cu24 Cu 0.08890 0.48742 0.51826
 C25 C -0.00469 0.66472 0.51009
 C26 C -0.00158 0.33568 0.49196
 C27 C -0.02185 0.48098 0.65928
 C28 C 0.02071 0.51789 0.33372
 O29 O 0.48189 0.06946 0.61673
 O30 O 0.49750 0.07121 0.36798
 O31 O 0.37170 0.05416 0.47903
 O32 O 0.61354 0.08564 0.50902
 O33 O 0.65280 -0.06374 0.52979
 O34 O 0.41128 -0.09537 0.50297
 O35 O 0.53501 -0.07835 0.39381
 O36 O 0.52454 -0.07946 0.63830
 Cu37 Cu 0.48868 0.08569 0.49079
 Cu38 Cu 0.53596 -0.09390 0.51844
 C39 C 0.49563 -0.00661 0.66823
 C40 C 0.51755 -0.00485 0.33912
 C41 C 0.35056 -0.02639 0.48916
 C42 C 0.67411 0.01657 0.52243
 C43 C 0.47240 -0.00961 -0.09232
 C44 C 0.47933 -0.07815 -0.01810
 C45 C 0.49634 -0.05687 0.07044
 C46 C 0.50456 0.03299 0.08700
 C47 C 0.50215 0.10133 0.01197
 C48 C 0.48625 0.07916 -0.07764
 H49 H 0.47869 0.13181 -0.13579
 H50 H 0.50016 -0.11062 0.12703
 C51 C -0.01615 0.50363 1.08811
 C52 C -0.09085 0.50311 1.02228
 C53 C -0.07422 0.49401 0.93212
 C54 C 0.01434 0.47959 0.90819
 C55 C 0.08850 0.47505 0.97465
 C56 C 0.07350 0.48956 1.06360
 H57 H 0.13162 0.48450 1.11454
 H58 H -0.13068 0.49573 0.88011
 C59 C 0.10323 0.00968 0.50050
 C60 C 0.03538 0.08450 0.49879
 C61 C -0.05479 0.06788 0.50592
 C62 C -0.07699 -0.02076 0.52213
 C63 C -0.00880 -0.09520 0.52962
 C64 C 0.08047 -0.08025 0.51610
 H65 H 0.13287 -0.13843 0.52363
 H66 H -0.10823 0.12455 0.50194
 N67 N -0.24747 0.51502 0.98133
 N68 N -0.18305 0.50781 1.04579
 N69 N 0.24767 0.47264 0.97303
 N70 N 0.17652 0.44126 0.95295
 N71 N -0.01236 -0.25434 0.53628
 N72 N -0.02865 -0.18233 0.56816
 N73 N -0.00841 0.24115 0.49094
 N74 N 0.05695 0.17680 0.49525
 N75 N 0.46775 -0.01343 -0.25097
 N76 N 0.43433 -0.02823 -0.17894
 N77 N 0.51787 -0.01185 0.24433
 N78 N 0.50963 0.05393 0.17952
 N79 N 0.47352 -0.23387 0.03180
 N80 N 0.47170 -0.17021 -0.03381
 N81 N 0.50991 0.25612 -0.03946
 N82 N 0.50927 0.19366 0.02685
 N83 N -0.23289 0.03039 0.52384
 N84 N -0.16961 -0.03594 0.52873
 N85 N 0.25777 -0.04051 0.49073
 N86 N 0.19544 0.02521 0.49262
 N87 N 0.03443 0.51647 1.24058
 N88 N -0.03124 0.51228 1.18041
 N89 N -0.03595 0.47890 0.75276
 N90 N 0.02989 0.47335 0.81531
   
