data_POSCAR
  _audit_creation_date              2014-09-24
  _audit_creation_method            'ToBaCCo'
  _symmetry_space_group_name_H-M    'P1'
  _symmetry_Int_Tables_number       1
  _symmetry_cell_setting            triclinic
  loop_
  _symmetry_equiv_pos_as_xyz
 x,y,z
_cell_length_a 28.3275
_cell_length_b 25.9525
_cell_length_c 25.9970
_cell_angle_alpha 90.198100
_cell_angle_beta 89.952400
_cell_angle_gamma 88.300500
loop_
  _atom_site_label
  _atom_site_type_symbol
  _atom_site_fract_x
  _atom_site_fract_y
  _atom_site_fract_z
C1 C 1.23474 0.20806 0.21397
 C2 C 1.26352 0.24633 0.18235
 C3 C 1.28793 0.28000 0.21192
 C4 C 1.28092 0.27283 0.27007
 C5 C 1.27036 0.18236 0.25072
 C6 C 1.29458 0.21612 0.28012
 C7 C 1.20329 0.24237 0.24839
 C8 C 1.22711 0.27601 0.27817
 H9 H 1.26639 0.24554 0.14091
 H10 H 1.30059 0.30039 0.29416
 H11 H 1.27711 0.14107 0.25158
 H12 H 1.16511 0.24140 0.24715
 C13 C 0.71444 -0.27795 0.20861
 C14 C 0.75599 -0.25521 0.18020
 C15 C 0.78855 -0.23382 0.21186
 C16 C 0.77663 -0.23824 0.26955
 C17 C 0.73641 -0.31653 0.24635
 C18 C 0.76905 -0.29623 0.27830
 C19 C 0.69476 -0.23425 0.24226
 C20 C 0.72697 -0.21321 0.27419
 H21 H 0.75912 -0.25671 0.13874
 H22 H 0.80286 -0.22042 0.29518
 H23 H 0.72695 -0.35667 0.24745
 H24 H 0.65749 -0.22363 0.24344
 C25 C 0.71761 0.21347 -0.27258
 C26 C 0.75619 0.23376 -0.30364
 C27 C 0.78270 0.27192 -0.27631
 C28 C 0.76571 0.28132 -0.22378
 C29 C 0.73978 0.19359 -0.22599
 C30 C 0.76731 0.23074 -0.19936
 C31 C 0.68984 0.25872 -0.25642
 C32 C 0.71588 0.29615 -0.22897
 H33 H 0.76197 0.22437 -0.34378
 H34 H 0.78607 0.31049 -0.20229
 H35 H 0.74102 0.15284 -0.21711
 H36 H 0.65185 0.26136 -0.26100
 C37 C 1.21279 -0.28513 -0.27958
 C38 C 1.25627 -0.26063 -0.30297
 C39 C 1.27769 -0.22686 -0.27094
 C40 C 1.25404 -0.22118 -0.21791
 C41 C 1.23009 -0.30947 -0.22941
 C42 C 1.25149 -0.27639 -0.19686
 C43 C 1.18091 -0.23946 -0.26234
 C44 C 1.20244 -0.20566 -0.23054
 H45 H 1.26827 -0.26847 -0.34186
 H46 H 1.27244 -0.19439 -0.19194
 H47 H 1.22844 -0.35047 -0.22234
 H48 H 1.14418 -0.23450 -0.27310
 C49 C 0.22259 0.21170 0.79469
 C50 C 0.25115 0.25168 0.81678
 C51 C 0.28004 0.27692 0.78002
 C52 C 0.27468 0.25732 0.72764
 C53 C 0.19413 0.23862 0.75176
 C54 C 0.22137 0.26269 0.71649
 C55 C 0.25692 0.17494 0.76612
 C56 C 0.28420 0.19835 0.73061
 H57 H 0.25168 0.25999 0.85761
 H58 H 0.29611 0.27759 0.69876
 H59 H 0.15593 0.24165 0.75178
 H60 H 0.25783 0.13359 0.77188
 C61 C 0.73463 0.71434 0.80400
 C62 C 0.76162 0.75002 0.83423
 C63 C 0.79047 0.78279 0.80423
 C64 C 0.78615 0.77386 0.74835
 C65 C 0.70758 0.74608 0.76822
 C66 C 0.73535 0.78004 0.73787
 C67 C 0.76854 0.68615 0.77190
 C68 C 0.79763 0.71872 0.74101
 H69 H 0.76067 0.75133 0.87595
 H70 H 0.80766 0.79927 0.72405
 H71 H 0.67040 0.74019 0.76140
 H72 H 0.76679 0.64493 0.76640
 C73 C 0.70563 0.22040 0.28804
 C74 C 0.74413 0.25175 0.31346
 C75 C 0.76781 0.28205 0.27994
 C76 C 0.75031 0.27853 0.22398
 C77 C 0.67418 0.26017 0.26041
 C78 C 0.69686 0.29047 0.22693
 C79 C 0.73083 0.19007 0.24479
 C80 C 0.75503 0.22049 0.21159
 H81 H 0.75118 0.25066 0.35438
 H82 H 0.76946 0.30351 0.19689
 H83 H 0.63636 0.26386 0.26667
 H84 H 0.73390 0.14844 0.24467
 C85 C 0.21885 0.70966 0.29851
 C86 C 0.25255 0.74776 0.32241
 C87 C 0.27548 0.77728 0.28750
 C88 C 0.26213 0.76560 0.23091
 C89 C 0.18560 0.74203 0.26471
 C90 C 0.20760 0.77150 0.22938
 C91 C 0.24904 0.67831 0.26010
 C92 C 0.27178 0.70679 0.22458
 H93 H 0.25985 0.74841 0.36327
 H94 H 0.28023 0.78976 0.20234
 H95 H 0.14751 0.73960 0.26662
 H96 H 0.25150 0.63655 0.26049
 O97 O 1.05381 0.09174 0.11059
 O98 O 1.11234 0.05899 0.05749
 C99 C 1.09768 0.08654 0.09639
 O100 O 0.94679 -0.10477 0.07890
 O101 O 0.88983 -0.05715 0.03595
 C102 C 0.90333 -0.09489 0.06543
 O103 O 1.07629 -0.08540 0.08781
 O104 O 1.12348 -0.02703 0.04831
 C105 C 1.11716 -0.06599 0.07866
 O106 O 0.92192 0.08287 0.10008
 O107 O 0.87748 0.03108 0.04856
 C108 C 0.88183 0.06542 0.08445
 Zr109 Zr 0.99182 0.06263 0.07699
 O110 O 0.98606 0.04782 0.15676
 O111 O 0.98656 0.14279 0.09188
 Zr112 Zr 1.00854 -0.06477 0.05991
 O113 O 1.00491 -0.06985 0.14095
 O114 O 1.02257 -0.14489 0.05125
 O115 O 1.04219 0.00268 0.07969
 O116 O 0.95893 -0.00718 0.07602
 O117 O 0.92357 0.10490 -0.07213
 O118 O 0.87828 0.04223 -0.03689
 C119 C 0.88320 0.08400 -0.06315
 O120 O 1.07886 -0.05862 -0.09913
 O121 O 1.12507 -0.01585 -0.04164
 C122 C 1.11950 -0.04448 -0.08205
 O123 O 0.95014 -0.07857 -0.10273
 O124 O 0.89130 -0.04653 -0.04987
 C125 C 0.90619 -0.07380 -0.08905
 O126 O 1.05482 0.11751 -0.07361
 O127 O 1.11285 0.07127 -0.03073
 C128 C 1.09849 0.10782 -0.06154
 Zr129 Zr 0.99316 0.08017 -0.05140
 O130 O 0.98963 0.08918 -0.13224
 O131 O 0.98762 0.16117 -0.04168
 Zr132 Zr 1.01063 -0.04798 -0.06842
 O133 O 1.01290 -0.04477 -0.14966
 O134 O 1.02183 -0.12882 -0.07034
 Zr135 Zr 1.07136 0.01596 0.00643
 Zr136 Zr 0.93119 -0.00105 0.00112
 O137 O 0.96142 0.01253 -0.07119
 O138 O 1.04379 0.02261 -0.06871
 O139 O 0.94953 0.07637 0.01260
 O140 O 1.05182 -0.06090 -0.00408
 O141 O 1.03196 0.08562 0.01544
 O142 O 0.96906 -0.07158 -0.00739
 H143 H 0.93721 -0.01336 0.10511
 H144 H 1.07683 -0.08825 -0.00720
 H145 H 0.94063 0.01463 -0.10177
 H146 H 1.04845 0.11842 0.02029
 H147 H 1.00296 -0.15678 0.02231
 H148 H 1.02604 -0.13819 -0.10706
 H149 H 0.99995 -0.01052 -0.15970
 H150 H 1.01938 0.07446 -0.14686
 H151 H 0.96035 0.16882 -0.01885
 H152 H 0.96397 0.15784 0.06674
 H153 H 1.01484 0.02797 0.16719
 H154 H 1.00940 -0.10689 0.14937
 O155 O 1.08149 0.41412 0.58901
 O156 O 1.03850 0.35838 0.54009
 C157 C 1.07049 0.36814 0.57433
 O158 O 0.90703 0.55272 0.60094
 O159 O 0.94653 0.61504 0.55768
 C160 C 0.91670 0.60047 0.59259
 O161 O 0.91554 0.41065 0.59418
 O162 O 0.95812 0.35663 0.54035
 C163 C 0.92746 0.36508 0.57692
 O164 O 1.08049 0.55804 0.59114
 O165 O 1.02989 0.61687 0.55266
 C166 C 1.06552 0.60494 0.58180
 Zr167 Zr 1.05338 0.48683 0.56665
 O168 O 1.04637 0.48357 0.64750
 O169 O 1.12782 0.48725 0.57330
 Zr170 Zr 0.93570 0.48420 0.56979
 O171 O 0.94430 0.48022 0.65046
 O172 O 0.86139 0.47974 0.57486
 O173 O 0.99672 0.43833 0.57506
 O174 O 0.99295 0.53061 0.58039
 O175 O 1.07574 0.56735 0.41886
 O176 O 1.02887 0.62200 0.46782
 C177 C 1.06267 0.61296 0.43486
 O178 O 0.91110 0.42273 0.40699
 O179 O 0.95612 0.36263 0.45112
 C180 C 0.92413 0.37558 0.41737
 O181 O 0.90207 0.56532 0.42172
 O182 O 0.94583 0.62140 0.46907
 C183 C 0.91278 0.61143 0.43630
 O184 O 1.07778 0.42500 0.40481
 O185 O 1.03733 0.36386 0.44905
 C186 C 1.06806 0.37759 0.41503
 Zr187 Zr 1.05043 0.49426 0.43737
 O188 O 1.04539 0.50465 0.35675
 O189 O 1.12507 0.49131 0.43291
 Zr190 Zr 0.93183 0.49252 0.44070
 O191 O 0.92741 0.50235 0.36005
 O192 O 0.85766 0.48883 0.44772
 Zr193 Zr 0.99588 0.41195 0.49825
 Zr194 Zr 0.98931 0.56701 0.50827
 O195 O 0.98917 0.53905 0.43224
 O196 O 0.99276 0.44775 0.42564
 O197 O 1.05917 0.53643 0.50456
 O198 O 0.92672 0.44338 0.50244
 O199 O 1.06249 0.44577 0.49896
 O200 O 0.92221 0.53434 0.50856
 H201 H 0.99344 0.55214 0.61194
 H202 H 0.89946 0.42033 0.50170
 H203 H 0.98788 0.56412 0.40357
 H204 H 1.09135 0.42339 0.49684
 H205 H 0.84797 0.50101 0.54663
 H206 H 0.84485 0.49147 0.41233
 H207 H 0.95127 0.47861 0.34430
 H208 H 1.03246 0.47292 0.34181
 H209 H 1.13694 0.51302 0.46118
 H210 H 1.14117 0.47483 0.54025
 H211 H 1.07877 0.48595 0.66144
 H212 H 0.91209 0.47871 0.66519
 O213 O 0.58262 0.06960 0.60093
 O214 O 0.63194 0.01869 0.55104
 C215 C 0.62447 0.05372 0.58593
 O216 O 0.44138 -0.10412 0.60149
 O217 O 0.39075 -0.05131 0.55539
 C218 C 0.39933 -0.08806 0.58807
 O219 O 0.57257 -0.10653 0.60673
 O220 O 0.62741 -0.06794 0.55616
 C221 C 0.61588 -0.09748 0.59423
 O222 O 0.45160 0.08769 0.59834
 O223 O 0.39536 0.04102 0.55682
 C224 C 0.40810 0.07774 0.58763
 Zr225 Zr 0.51463 0.04940 0.57508
 O226 O 0.51359 0.04106 0.65589
 O227 O 0.52238 0.12991 0.58167
 Zr228 Zr 0.50805 -0.07922 0.57623
 O229 O 0.50609 -0.07245 0.65729
 O230 O 0.50950 -0.16074 0.57874
 O231 O 0.55388 -0.01846 0.58479
 O232 O 0.46963 -0.01099 0.58571
 O233 O 0.44681 0.08216 0.42069
 O234 O 0.39320 0.03837 0.46875
 C235 C 0.40393 0.07210 0.43437
 O236 O 0.57131 -0.10572 0.41277
 O237 O 0.62674 -0.06896 0.46461
 C238 C 0.61466 -0.09716 0.42600
 O239 O 0.43912 -0.10391 0.42112
 O240 O 0.38960 -0.05039 0.46851
 C241 C 0.39734 -0.08683 0.43483
 O242 O 0.57846 0.06668 0.41531
 O243 O 0.63005 0.01618 0.46252
 C244 C 0.62075 0.05038 0.42747
 Zr245 Zr 0.51200 0.04834 0.44550
 O246 O 0.50654 0.04825 0.36426
 O247 O 0.52039 0.12918 0.44546
 Zr248 Zr 0.50652 -0.08152 0.44710
 O249 O 0.50224 -0.09149 0.36653
 O250 O 0.50621 -0.16227 0.45690
 Zr251 Zr 0.58117 -0.02191 0.50940
 Zr252 Zr 0.43939 -0.00935 0.51196
 O253 O 0.46823 -0.01318 0.43739
 O254 O 0.55092 -0.02014 0.43520
 O255 O 0.47163 0.06289 0.51098
 O256 O 0.54862 -0.09367 0.51101
 O257 O 0.55477 0.05485 0.50924
 O258 O 0.46448 -0.08665 0.51229
 H259 H 0.44834 -0.00879 0.61596
 H260 H 0.56930 -0.12515 0.51101
 H261 H 0.44707 -0.01164 0.40708
 H262 H 0.57690 0.08369 0.50832
 H263 H 0.48694 -0.17258 0.55250
 H264 H 0.50730 -0.17721 0.42180
 H265 H 0.50252 -0.05666 0.35137
 H266 H 0.53144 0.02429 0.35075
 H267 H 0.49306 0.14521 0.46381
 H268 H 0.51151 0.14497 0.54877
 H269 H 0.51537 0.07638 0.67019
 H270 H 0.50454 -0.10803 0.67079
 O271 O 0.56829 0.59160 0.07597
 O272 O 0.61678 0.54431 0.02173
 C273 C 0.60967 0.57670 0.05909
 O274 O 0.43157 0.41515 0.07178
 O275 O 0.37760 0.46964 0.03211
 C276 C 0.38858 0.43105 0.06197
 O277 O 0.56370 0.41411 0.06895
 O278 O 0.61457 0.45810 0.01753
 C279 C 0.60588 0.42504 0.05335
 O280 O 0.43736 0.60799 0.07942
 O281 O 0.38025 0.56298 0.03743
 C282 C 0.39357 0.59818 0.06972
 Zr283 Zr 0.50016 0.57145 0.05206
 O284 O 0.50249 0.55663 0.13190
 O285 O 0.50506 0.65145 0.06589
 Zr286 Zr 0.49664 0.44313 0.04507
 O287 O 0.49894 0.44502 0.12632
 O288 O 0.49876 0.36160 0.04283
 O289 O 0.54150 0.50423 0.05517
 O290 O 0.45693 0.50952 0.06085
 O291 O 0.42747 0.61492 -0.09440
 O292 O 0.37524 0.56729 -0.04813
 C293 C 0.38534 0.60453 -0.07935
 O294 O 0.55232 0.42664 -0.12184
 O295 O 0.60930 0.46317 -0.07227
 C296 C 0.59614 0.43509 -0.11069
 O297 O 0.42165 0.42518 -0.10601
 O298 O 0.37296 0.47317 -0.05251
 C299 C 0.38025 0.43841 -0.08811
 O300 O 0.55692 0.60181 -0.10934
 O301 O 0.61147 0.55019 -0.06740
 C302 C 0.59990 0.58628 -0.09997
 Zr303 Zr 0.49267 0.57880 -0.07734
 O304 O 0.48205 0.58132 -0.15798
 O305 O 0.49969 0.65975 -0.07469
 Zr306 Zr 0.48899 0.44990 -0.08418
 O307 O 0.47860 0.45039 -0.16476
 O308 O 0.49065 0.36845 -0.08264
 Zr309 Zr 0.56544 0.50657 -0.02166
 Zr310 Zr 0.42360 0.51552 -0.01114
 O311 O 0.44874 0.51748 -0.08718
 O312 O 0.53242 0.51240 -0.09416
 O313 O 0.45499 0.58814 -0.00913
 O314 O 0.53389 0.43425 -0.02322
 O315 O 0.53764 0.58237 -0.01513
 O316 O 0.45054 0.43915 -0.01710
 H317 H 0.43671 0.50957 0.09199
 H318 H 0.55461 0.40297 -0.02650
 H319 H 0.42549 0.52032 -0.11557
 H320 H 0.55940 0.61154 -0.01517
 H321 H 0.47794 0.35129 0.01428
 H322 H 0.48938 0.35707 -0.11901
 H323 H 0.49814 0.47791 -0.17888
 H324 H 0.50960 0.56391 -0.17466
 H325 H 0.47819 0.67331 -0.04750
 H326 H 0.51084 0.66778 0.03230
 H327 H 0.50320 0.59082 0.14889
 H328 H 0.49877 0.40860 0.13766
 C329 C 1.20558 0.16910 0.18609
 C330 C 1.20963 0.15670 0.13619
 C331 C 1.17668 0.12211 0.10990
 C332 C 1.13213 0.11586 0.12586
 H333 H 1.23802 0.17150 0.11333
 H334 H 1.18850 0.10478 0.07400
 H335 H 1.17980 0.14999 0.20950
 H336 H 1.11883 0.13614 0.15955
 C337 C 1.19130 0.67509 0.68598
 C338 C 1.15325 0.68387 0.65675
 C339 C 1.13088 0.64078 0.63058
 C340 C 1.09021 0.64788 0.60548
 H341 H 1.13734 0.72213 0.65357
 H342 H 1.14699 0.60247 0.63352
 H343 H 1.20739 0.63663 0.68646
 H344 H 1.07447 0.68633 0.60223
 C345 C 0.68681 0.17676 0.70502
 C346 C 0.69627 0.14306 0.66416
 C347 C 0.65911 0.11378 0.64609
 C348 C 0.66394 0.07705 0.60710
 H349 H 0.73092 0.14006 0.64659
 H350 H 0.62436 0.12063 0.66284
 H351 H 0.65274 0.17320 0.72389
 H352 H 0.69876 0.06714 0.59206
 C353 C 0.67727 0.70028 0.17472
 C354 C 0.68572 0.66062 0.14304
 C355 C 0.64605 0.63902 0.11516
 C356 C 0.65117 0.59863 0.08368
 H357 H 0.72093 0.64345 0.13948
 H358 H 0.61119 0.65635 0.12155
 H359 H 0.64161 0.71652 0.17766
 H360 H 0.68592 0.58176 0.07590
 C361 C 0.83025 -0.20673 0.19284
 C362 C 0.83079 -0.18518 0.14618
 C363 C 0.87101 -0.15611 0.12745
 C364 C 0.86610 -0.12762 0.08497
 H365 H 0.79999 -0.18680 0.12166
 H366 H 0.90373 -0.15652 0.14907
 H367 H 0.85980 -0.20200 0.21869
 H368 H 0.83234 -0.12575 0.06529
 C369 C 0.81909 0.30124 0.70360
 C370 C 0.84291 0.29244 0.65715
 C371 C 0.87415 0.32949 0.64023
 C372 C 0.90401 0.32306 0.59760
 H373 H 0.83749 0.25787 0.63474
 H374 H 0.87479 0.36567 0.66125
 H375 H 0.83021 0.33338 0.72702
 H376 H 0.90827 0.28547 0.57961
 C377 C 0.31833 -0.19624 0.71352
 C378 C 0.32045 -0.17466 0.66696
 C379 C 0.36138 -0.14508 0.65060
 C380 C 0.35832 -0.11411 0.60962
 H381 H 0.29124 -0.17855 0.64042
 H382 H 0.39430 -0.14941 0.67160
 H383 H 0.34556 -0.18911 0.74168
 H384 H 0.32462 -0.10840 0.59040
 C385 C 0.32247 0.31630 0.19140
 C386 C 0.31828 0.33897 0.14538
 C387 C 0.35624 0.37121 0.12547
 C388 C 0.34951 0.40268 0.08523
 H389 H 0.28716 0.33330 0.12205
 H390 H 0.39063 0.36842 0.14372
 H391 H 0.35229 0.32506 0.21568
 H392 H 0.31460 0.40729 0.06852
 C393 C 0.79984 0.21820 -0.16048
 C394 C 0.80165 0.17050 -0.13596
 C395 C 0.84147 0.15404 -0.10865
 C396 C 0.84226 0.10663 -0.08361
 H397 H 0.77244 0.14474 -0.13946
 H398 H 0.87257 0.17744 -0.10859
 H399 H 0.82607 0.24618 -0.15064
 H400 H 0.80970 0.08590 -0.08024
 C401 C 0.79325 0.67044 0.31632
 C402 C 0.82651 0.68534 0.34914
 C403 C 0.84978 0.64578 0.38145
 C404 C 0.88658 0.65489 0.41203
 H405 H 0.83781 0.72474 0.35075
 H406 H 0.83758 0.60670 0.37780
 H407 H 0.78361 0.63026 0.31628
 H408 H 0.89891 0.69372 0.41690
 C409 C 0.33225 0.20007 0.31639
 C410 C 0.33020 0.15632 0.34319
 C411 C 0.36986 0.13762 0.37534
 C412 C 0.36430 0.09809 0.40741
 H413 H 0.29904 0.13317 0.34058
 H414 H 0.40409 0.15473 0.37106
 H415 H 0.36185 0.22508 0.32151
 H416 H 0.32949 0.08253 0.41242
 C417 C 0.27646 0.70620 -0.14996
 C418 C 0.26725 0.66140 -0.12655
 C419 C 0.30193 0.63338 -0.09369
 C420 C 0.34818 0.63786 -0.10171
 H421 H 0.23512 0.64163 -0.13533
 H422 H 0.28943 0.60368 -0.06835
 H423 H 0.30590 0.72877 -0.13751
 H424 H 0.36026 0.66538 -0.12965
 C425 C 1.17621 -0.15944 -0.21184
 C426 C 1.19061 -0.12814 -0.17441
 C427 C 1.15660 -0.08914 -0.15440
 C428 C 1.16160 -0.06600 -0.10877
 H429 H 1.22431 -0.13427 -0.15554
 H430 H 1.12327 -0.08442 -0.17465
 H431 H 1.14131 -0.15261 -0.22810
 H432 H 1.19480 -0.06912 -0.08818
 C433 C 1.20337 0.31370 0.31301
 C434 C 1.16064 0.30580 0.33323
 C435 C 1.13552 0.34596 0.36347
 C436 C 1.09447 0.33676 0.38687
 H437 H 1.14342 0.26963 0.32685
 H438 H 1.15055 0.38384 0.36593
 H439 H 1.22154 0.34873 0.32212
 H440 H 1.08047 0.29835 0.38615
 C441 C 0.71268 -0.17485 0.31353
 C442 C 0.67743 -0.14083 0.30341
 C443 C 0.64766 -0.11418 0.34204
 C444 C 0.65220 -0.11871 0.39300
 H445 H 0.66533 -0.13650 0.26408
 H446 H 0.61744 -0.09255 0.32687
 H447 H 0.72788 -0.17849 0.35151
 H448 H 0.68281 -0.13731 0.41048
 C449 C 0.69480 0.34012 -0.20579
 C450 C 0.64858 0.35650 -0.21803
 C451 C 0.61924 0.38873 -0.18837
 C452 C 0.63113 0.41221 -0.14183
 H453 H 0.63206 0.34133 -0.25212
 H454 H 0.58334 0.39353 -0.20241
 H455 H 0.71479 0.36079 -0.17739
 H456 H 0.66756 0.41339 -0.12952
 C457 C 1.19168 0.18483 -0.16741
 C458 C 1.20887 0.15819 -0.12698
 C459 C 1.17817 0.12835 -0.09276
 C460 C 1.13262 0.14147 -0.08565
 H461 H 1.24669 0.15503 -0.12113
 H462 H 1.19313 0.09397 -0.07484
 H463 H 1.15431 0.18455 -0.17593
 H464 H 1.11820 0.17684 -0.10204
 C465 C 1.19491 0.67540 0.33673
 C466 C 1.15516 0.68857 0.36221
 C467 C 1.13064 0.64874 0.39130
 C468 C 1.08835 0.65680 0.41360
 H469 H 1.13922 0.72682 0.35846
 H470 H 1.14680 0.61032 0.39186
 H471 H 1.21049 0.63715 0.34248
 H472 H 1.07222 0.69516 0.41500
 C473 C 0.67654 0.19026 0.32501
 C474 C 0.68876 0.14447 0.34507
 C475 C 0.65330 0.11895 0.37663
 C476 C 0.66036 0.07361 0.39998
 H477 H 0.72257 0.12577 0.33655
 H478 H 0.61893 0.13827 0.38008
 H479 H 0.64300 0.20806 0.33664
 H480 H 0.69476 0.05424 0.39931
 C481 C 0.70429 0.68384 -0.16507
 C482 C 0.71643 0.63541 -0.14404
 C483 C 0.68328 0.60406 -0.12027
 C484 C 0.63455 0.61230 -0.12639
 H485 H 0.75293 0.62182 -0.14492
 H486 H 0.69625 0.57116 -0.09838
 H487 H 0.67081 0.70197 -0.15411
 H488 H 0.62169 0.64110 -0.15336
 C489 C 0.81835 -0.18109 -0.17083
 C490 C 0.85492 -0.15461 -0.19387
 C491 C 0.88412 -0.12167 -0.16641
 C492 C 0.87286 -0.09952 -0.11831
 H493 H 0.86512 -0.16375 -0.23301
 H494 H 0.91709 -0.11207 -0.18471
 H495 H 0.81340 -0.17715 -0.12969
 H496 H 0.83707 -0.10047 -0.10377
 C497 C 0.80562 0.31666 0.29558
 C498 C 0.83489 0.30594 0.33478
 C499 C 0.86786 0.34458 0.35337
 C500 C 0.89874 0.33417 0.39124
 H501 H 0.83314 0.26944 0.35470
 H502 H 0.86449 0.38332 0.33802
 H503 H 0.80941 0.35195 0.27400
 H504 H 0.90284 0.29522 0.40581
 C505 C 0.31378 -0.18772 0.30248
 C506 C 0.31549 -0.16532 0.34912
 C507 C 0.35720 -0.13746 0.36730
 C508 C 0.35557 -0.11052 0.41148
 H509 H 0.28612 -0.16896 0.37545
 H510 H 0.38977 -0.14057 0.34544
 H511 H 0.34174 -0.18148 0.27496
 H512 H 0.32226 -0.10591 0.43178
 C513 C 0.31127 0.31619 -0.20779
 C514 C 0.30925 0.34488 -0.16200
 C515 C 0.34508 0.37846 -0.14924
 C516 C 0.34133 0.41241 -0.10722
 H517 H 0.27947 0.34164 -0.13619
 H518 H 0.37704 0.37748 -0.17228
 H519 H 0.33727 0.32614 -0.23645
 H520 H 0.30751 0.41799 -0.08811
 C521 C 1.17837 -0.20050 0.19089
 C522 C 1.19100 -0.16011 0.16259
 C523 C 1.15414 -0.13507 0.13000
 C524 C 1.15864 -0.09031 0.10501
 H525 H 1.22599 -0.14466 0.16543
 H526 H 1.12043 -0.15376 0.12818
 H527 H 1.14218 -0.21283 0.18786
 H528 H 1.19205 -0.07107 0.10511
 C529 C 1.20177 0.29654 0.67576
 C530 C 1.15895 0.29038 0.65523
 C531 C 1.13727 0.33066 0.62249
 C532 C 1.09577 0.32439 0.59898
 H533 H 1.13863 0.25704 0.66491
 H534 H 1.15442 0.36740 0.62005
 H535 H 1.22278 0.32855 0.66365
 H536 H 1.07939 0.28718 0.59941
 C537 C 0.71499 -0.18434 0.70278
 C538 C 0.66672 -0.17114 0.70621
 C539 C 0.63859 -0.14333 0.67165
 C540 C 0.65143 -0.12053 0.62495
 H541 H 0.64736 -0.18358 0.73957
 H542 H 0.60193 -0.14006 0.68358
 H543 H 0.73704 -0.16577 0.67479
 H544 H 0.68815 -0.11863 0.61376
 C545 C 0.66939 0.33070 0.19925
 C546 C 0.67892 0.34793 0.15214
 C547 C 0.64184 0.37912 0.12576
 C548 C 0.64639 0.39816 0.07838
 H549 H 0.71102 0.33591 0.13222
 H550 H 0.60849 0.38550 0.14570
 H551 H 0.63601 0.34261 0.21682
 H552 H 0.67987 0.39455 0.05832
 C553 C 0.79124 0.20056 0.17511
 C554 C 0.79425 0.15162 0.15884
 C555 C 0.83632 0.13257 0.13060
 C556 C 0.83837 0.08570 0.10914
 H557 H 0.76687 0.12491 0.16806
 H558 H 0.86669 0.15698 0.12837
 H559 H 0.81805 0.22702 0.16328
 H560 H 0.80738 0.06218 0.10888
 C561 C 0.83157 0.69931 0.70554
 C562 C 0.84654 0.64745 0.70704
 C563 C 0.87326 0.61976 0.67080
 C564 C 0.89450 0.63713 0.62530
 H565 H 0.83604 0.62432 0.73934
 H566 H 0.87752 0.57928 0.68046
 H567 H 0.84651 0.72499 0.67757
 H568 H 0.89637 0.67789 0.61717
 C569 C 0.31552 0.16728 0.69613
 C570 C 0.34784 0.18755 0.66531
 C571 C 0.38136 0.15552 0.63453
 C572 C 0.37114 0.10988 0.61326
 H573 H 0.35378 0.22846 0.66626
 H574 H 0.41602 0.17110 0.62880
 H575 H 0.31298 0.12573 0.69783
 H576 H 0.33559 0.09575 0.61506
 C577 C 0.30062 0.68022 0.18420
 C578 C 0.33320 0.70298 0.15557
 C579 C 0.36651 0.67341 0.12166
 C580 C 0.35679 0.62866 0.09799
 H581 H 0.33982 0.74340 0.16141
 H582 H 0.40091 0.68975 0.11631
 H583 H 0.29723 0.63886 0.18098
 H584 H 0.32150 0.61382 0.09955
   
