data_POSCAR
  _audit_creation_date              2014-09-24
  _audit_creation_method            'ToBaCCo'
  _symmetry_space_group_name_H-M    'P1'
  _symmetry_Int_Tables_number       1
  _symmetry_cell_setting            triclinic
  loop_
  _symmetry_equiv_pos_as_xyz
 x,y,z
_cell_length_a 21.1264
_cell_length_b 21.2174
_cell_length_c 23.6811
_cell_angle_alpha 90.005000
_cell_angle_beta 90.234900
_cell_angle_gamma 120.123500
loop_
  _atom_site_label
  _atom_site_type_symbol
  _atom_site_fract_x
  _atom_site_fract_y
  _atom_site_fract_z
O1 O 0.32904 0.55940 0.31375
 O2 O 0.20546 0.55606 0.29663
 C3 C 0.19556 0.60168 0.32423
 O4 O 0.22817 0.66916 0.31354
 O5 O 0.34859 0.79235 0.29694
 C6 C 0.40450 0.80250 0.32470
 O7 O 0.43956 0.77002 0.31413
 O8 O 0.44266 0.65020 0.29727
 C9 C 0.39686 0.59448 0.32467
 O10 O 0.34840 0.55634 0.20131
 O11 O 0.22789 0.55912 0.18416
 C12 C 0.19510 0.59386 0.17333
 O13 O 0.20523 0.64947 0.20099
 O14 O 0.32880 0.76960 0.18441
 C15 C 0.39661 0.80233 0.17394
 O16 O 0.44249 0.79248 0.20165
 O17 O 0.43943 0.66957 0.18478
 C18 C 0.40431 0.60205 0.17394
 Cr19 Cr 0.27974 0.56181 0.24896
 Cr20 Cr 0.27974 0.71811 0.24897
 Cr21 Cr 0.43693 0.71852 0.24944
 O22 O 0.33215 0.66614 0.24913
 O23 O 0.55733 0.35060 0.70294
 O24 O 0.56069 0.23110 0.68473
 C25 C 0.59474 0.19739 0.67447
 O26 O 0.64970 0.20682 0.70345
 O27 O 0.76982 0.32989 0.68546
 C28 C 0.80366 0.39758 0.67499
 O29 O 0.79447 0.44304 0.70372
 O30 O 0.67099 0.43945 0.68504
 C31 C 0.60296 0.40539 0.67436
 O32 O 0.56073 0.32964 0.81517
 O33 O 0.55734 0.20676 0.79695
 C34 C 0.60296 0.19757 0.82588
 O35 O 0.67099 0.23149 0.81571
 O36 O 0.79454 0.35122 0.79776
 C37 C 0.80393 0.40597 0.82649
 O38 O 0.77003 0.43981 0.81588
 O39 O 0.64988 0.44286 0.79719
 C40 C 0.59485 0.39738 0.82572
 Cr41 Cr 0.56294 0.28148 0.74996
 Cr42 Cr 0.71931 0.28180 0.75059
 Cr43 Cr 0.71939 0.43739 0.75046
 O44 O 0.66721 0.33356 0.75035
 C45 C 0.48393 0.08124 0.54987
 C46 C 0.52051 0.04329 0.53749
 C47 C 0.58124 0.05558 0.56986
 C48 C 0.60536 0.10561 0.61445
 C49 C 0.42974 -0.14571 0.37015
 C50 C 0.50793 0.13132 0.59445
 C51 C 0.49576 -0.00829 0.49163
 C52 C 0.47504 -0.05156 0.45327
 C53 C 0.45070 -0.10230 0.40841
 C54 C 0.56896 0.14410 0.62732
 H55 H 0.43686 0.07213 0.52506
 H56 H 0.60997 0.02650 0.56062
 H57 H 0.65256 0.11415 0.63877
 H58 H 0.47869 0.16001 0.60310
 C59 C 0.91875 0.40283 0.55044
 C60 C 0.95671 0.47724 0.53771
 C61 C 0.94489 0.52565 0.56990
 C62 C 0.89527 0.49984 0.61464
 C63 C 1.14399 0.57508 0.36970
 C64 C 0.86908 0.37684 0.59517
 C65 C 1.00777 0.50394 0.49163
 C66 C 1.05060 0.52637 0.45309
 C67 C 1.10088 0.55265 0.40805
 C68 C 0.85673 0.42506 0.62784
 H69 H 0.92749 0.36487 0.52578
 H70 H 0.97398 0.58337 0.56039
 H71 H 0.88705 0.53847 0.63880
 H72 H 0.84033 0.31898 0.60406
 C73 C 0.47401 0.41862 0.56930
 C74 C 0.52256 0.47915 0.53738
 C75 C 0.59739 0.51567 0.55019
 C76 C 0.62364 0.49181 0.59476
 C77 C 0.42367 0.56945 0.37010
 C78 C 0.50008 0.39463 0.61388
 C79 C 0.49557 0.50379 0.49153
 C80 C 0.47289 0.52442 0.45318
 C81 C 0.44632 0.54864 0.40834
 C82 C 0.57526 0.43097 0.62719
 H83 H 0.41597 0.38993 0.55972
 H84 H 0.63546 0.56260 0.52572
 H85 H 0.68180 0.52100 0.60375
 H86 H 0.46132 0.34759 0.63786
 C87 C 0.59723 0.08160 0.94998
 C88 C 0.52240 0.04336 0.96220
 C89 C 0.47390 0.05544 0.92993
 C90 C 0.50003 0.10553 0.88556
 C91 C 0.42334 -0.14589 1.12867
 C92 C 0.62355 0.13174 0.90563
 C93 C 0.49534 -0.00831 1.00782
 C94 C 0.47260 -0.05164 1.04597
 C95 C 0.44598 -0.10244 1.09060
 C96 C 0.57522 0.14429 0.87283
 H97 H 0.63527 0.07266 0.97472
 H98 H 0.41585 0.02615 0.93905
 H99 H 0.46130 0.11389 0.86129
 H100 H 0.68171 0.16064 0.89708
 C101 C 0.92026 0.51652 0.95117
 C102 C 0.95842 0.48019 0.96397
 C103 C 0.94623 0.41973 0.93184
 C104 C 0.89609 0.39561 0.88708
 C105 C 1.14790 0.57098 1.13194
 C106 C 0.87007 0.49253 0.90642
 C107 C 1.01011 0.50494 1.01001
 C108 C 1.05347 0.52567 1.04853
 C109 C 1.10434 0.55002 1.09355
 C110 C 0.85738 0.43176 0.87380
 H111 H 0.92928 0.56340 0.97579
 H112 H 0.97547 0.39118 0.94140
 H113 H 0.88763 0.34861 0.86296
 H114 H 0.84121 0.52158 0.89746
 C115 C 0.48390 0.40279 0.94938
 C116 C 0.52050 0.47729 0.96206
 C117 C 0.58131 0.52568 0.93022
 C118 C 0.60549 0.49977 0.88584
 C119 C 0.42951 0.57548 1.12866
 C120 C 0.50795 0.37670 0.90502
 C121 C 0.49567 0.50412 1.00771
 C122 C 0.47489 0.52664 1.04589
 C123 C 0.45049 0.55302 1.09056
 C124 C 0.56906 0.42491 0.87266
 H125 H 0.43676 0.36485 0.97379
 H126 H 0.61006 0.58347 0.93970
 H127 H 0.65274 0.53839 0.86192
 H128 H 0.47868 0.31879 0.89612
   
