data_POSCAR
  _audit_creation_date              2014-09-24
  _audit_creation_method            'ToBaCCo'
  _symmetry_space_group_name_H-M    'P1'
  _symmetry_Int_Tables_number       1
  _symmetry_cell_setting            triclinic
  loop_
  _symmetry_equiv_pos_as_xyz
 x,y,z
_cell_length_a 38.4915
_cell_length_b 42.1625
_cell_length_c 39.9082
_cell_angle_alpha 89.221800
_cell_angle_beta 88.215200
_cell_angle_gamma 90.362600
loop_
  _atom_site_label
  _atom_site_type_symbol
  _atom_site_fract_x
  _atom_site_fract_y
  _atom_site_fract_z
Si1 Si 0.25054 0.24659 0.25113
 Si2 Si 0.75122 0.74465 0.25153
 Si3 Si 0.74453 0.24489 0.75205
 Si4 Si 0.24296 0.74670 0.75088
 C5 C 0.04937 0.05354 0.01029
 H6 H 0.05108 0.05427 -0.01682
 C7 C 0.06869 0.07493 0.02867
 H8 H 0.08565 0.09181 0.01549
 C9 C 0.02532 0.03033 0.06028
 H10 H 0.00797 0.01327 0.07251
 C11 C 0.04421 0.05125 0.07966
 H12 H 0.04117 0.05004 0.10671
 N13 N 0.02854 0.03158 0.02625
 C14 C 0.01862 -0.04654 -0.04330
 H15 H -0.00938 -0.04863 -0.04392
 C16 C 0.03957 -0.06735 -0.06170
 H17 H 0.02747 -0.08518 -0.07683
 C18 C 0.06830 -0.02045 -0.02301
 H19 H 0.07943 -0.00250 -0.00750
 C20 C 0.09022 -0.04070 -0.04108
 H21 H 0.11810 -0.03807 -0.03926
 Zn22 Zn 0.00292 0.00383 -0.00066
 N23 N 0.03319 -0.02340 -0.02483
 C24 C -0.01962 0.02543 -0.06422
 N25 N -0.02264 0.02924 -0.03047
 C26 C -0.04314 0.05222 -0.01699
 C27 C -0.06220 0.07212 -0.03765
 C28 C -0.03831 0.04474 -0.08581
 C29 C -0.01287 -0.04374 0.04703
 C30 C -0.03388 -0.06390 0.06706
 C31 C -0.08445 -0.03939 0.04371
 C32 C -0.06247 -0.01976 0.02404
 N33 N -0.02738 -0.02203 0.02630
 H34 H -0.00269 0.00748 -0.07454
 H35 H -0.04456 0.05512 0.00992
 H36 H -0.07806 0.09048 -0.02639
 H37 H -0.03603 0.04092 -0.11255
 H38 H 0.01513 -0.04530 0.04800
 H39 H -0.02185 -0.08071 0.08378
 H40 H -0.11231 -0.03742 0.04139
 H41 H -0.07353 -0.00293 0.00683
 C42 C 0.07590 -0.06443 -0.06091
 C43 C 0.06635 0.07387 0.06386
 C44 C -0.07020 -0.06180 0.06562
 C45 C -0.06003 0.06845 -0.07259
 C46 C 0.05450 0.54531 0.51251
 H47 H 0.05802 0.54450 0.48553
 C48 C 0.07580 0.56483 0.53113
 H49 H 0.09568 0.57917 0.51834
 C50 C 0.02401 0.52776 0.56193
 H51 H 0.00358 0.51351 0.57379
 C52 C 0.04442 0.54729 0.58147
 H53 H 0.03994 0.54747 0.60839
 N54 N 0.02974 0.52675 0.52814
 C55 C 0.01790 0.45463 0.45191
 H56 H -0.00967 0.45611 0.44769
 C57 C 0.03855 0.43404 0.43288
 H58 H 0.02664 0.42030 0.41356
 C59 C 0.06668 0.47115 0.48208
 H60 H 0.07743 0.48502 0.50186
 C61 C 0.08818 0.45056 0.46400
 H62 H 0.11529 0.44899 0.47022
 Zn63 Zn 0.00292 0.50025 0.50092
 N64 N 0.03232 0.47316 0.47546
 C65 C -0.01823 0.52779 0.43897
 N66 N -0.02308 0.52719 0.47290
 C67 C -0.04654 0.54654 0.48835
 C68 C -0.06767 0.56623 0.46949
 C69 C -0.03855 0.54743 0.41913
 C70 C -0.01227 0.45418 0.55037
 C71 C -0.03292 0.43436 0.57116
 C72 C -0.08370 0.45443 0.54407
 C73 C -0.06208 0.47391 0.52384
 N74 N -0.02710 0.47387 0.52773
 H75 H 0.00134 0.51306 0.42718
 H76 H -0.04928 0.54617 0.51541
 H77 H -0.08662 0.58110 0.48219
 H78 H -0.03494 0.54713 0.39212
 H79 H 0.01568 0.45424 0.55257
 H80 H -0.02063 0.41953 0.58965
 H81 H -0.11146 0.45471 0.54048
 H82 H -0.07335 0.48880 0.50490
 C83 C 0.07430 0.43180 0.43875
 C84 C 0.07097 0.56583 0.56608
 C85 C -0.06920 0.43449 0.56833
 C86 C -0.06403 0.56658 0.43440
 C87 C 0.55004 0.04587 0.51086
 H88 H 0.55200 0.04688 0.48376
 C89 C 0.57081 0.06569 0.52967
 H90 H 0.58848 0.08216 0.51678
 C91 C 0.52375 0.02370 0.56035
 H92 H 0.50507 0.00765 0.57225
 C93 C 0.54412 0.04303 0.58016
 H94 H 0.54138 0.04100 0.60719
 N95 N 0.52745 0.02508 0.52635
 C96 C 0.51625 -0.04602 0.44895
 H97 H 0.48859 -0.04497 0.44501
 C98 C 0.53708 -0.06631 0.42974
 H99 H 0.52520 -0.08027 0.41058
 C100 C 0.56507 -0.02859 0.47851
 H101 H 0.57579 -0.01435 0.49802
 C102 C 0.58677 -0.04889 0.46025
 H103 H 0.61399 -0.04998 0.46617
 Zn104 Zn 0.50087 -0.00085 0.49827
 N105 N 0.53055 -0.02729 0.47238
 C106 C 0.48029 0.02768 0.43664
 N107 N 0.47532 0.02676 0.47055
 C108 C 0.45214 0.04626 0.48618
 C109 C 0.43145 0.06650 0.46750
 C110 C 0.46040 0.04787 0.41699
 C111 C 0.48427 -0.04815 0.54640
 C112 C 0.46285 -0.06796 0.56648
 C113 C 0.41306 -0.04671 0.53870
 C114 C 0.43541 -0.02716 0.51934
 N115 N 0.47026 -0.02772 0.52397
 H116 H 0.49960 0.01276 0.42472
 H117 H 0.44928 0.04558 0.51323
 H118 H 0.41272 0.08149 0.48034
 H119 H 0.46409 0.04782 0.38998
 H120 H 0.51215 -0.04861 0.54909
 H121 H 0.47452 -0.08321 0.58497
 H122 H 0.38543 -0.04597 0.53446
 H123 H 0.42479 -0.01175 0.50048
 C124 C 0.57294 -0.06802 0.43526
 C125 C 0.56823 0.06427 0.56486
 C126 C 0.42664 -0.06721 0.56299
 C127 C 0.43523 0.06723 0.43242
 C128 C 0.54962 0.55464 0.00699
 H129 H 0.55009 0.55580 -0.02012
 C130 C 0.57050 0.57522 0.02487
 H131 H 0.58744 0.59183 0.01127
 C132 C 0.52686 0.53152 0.05754
 H133 H 0.50933 0.51493 0.07025
 C134 C 0.54728 0.55162 0.07639
 H135 H 0.54517 0.55021 0.10349
 N136 N 0.52862 0.53313 0.02346
 C137 C 0.50934 0.45600 -0.04541
 H138 H 0.48134 0.45439 -0.04253
 C139 C 0.52721 0.43492 -0.06623
 H140 H 0.51274 0.41687 -0.07901
 C141 C 0.56208 0.48114 -0.03148
 H142 H 0.57560 0.49905 -0.01776
 C143 C 0.58101 0.46059 -0.05215
 H144 H 0.60896 0.46338 -0.05454
 Zn145 Zn 0.49990 0.50678 -0.00219
 N146 N 0.52683 0.47883 -0.02896
 C147 C 0.47419 0.52968 -0.06372
 N148 N 0.47335 0.53347 -0.02992
 C149 C 0.45482 0.55724 -0.01537
 C150 C 0.43579 0.57816 -0.03499
 C151 C 0.45544 0.54992 -0.08424
 C152 C 0.48601 0.45886 0.04532
 C153 C 0.46598 0.43907 0.06666
 C154 C 0.41449 0.46586 0.04829
 C155 C 0.43552 0.48511 0.02722
 N156 N 0.47063 0.48151 0.02640
 H157 H 0.48953 0.51107 -0.07496
 H158 H 0.45509 0.56008 0.01153
 H159 H 0.42165 0.59721 -0.02296
 H160 H 0.45603 0.54609 -0.11102
 H161 H 0.51396 0.45630 0.04389
 H162 H 0.47879 0.42156 0.08196
 H163 H 0.38658 0.46891 0.04846
 H164 H 0.42372 0.50277 0.01145
 C165 C 0.56354 0.43723 -0.07010
 C166 C 0.56953 0.57383 0.06008
 C167 C 0.42971 0.44250 0.06841
 C168 C 0.43596 0.57465 -0.06997
 C169 C 0.18036 -0.23261 -0.22096
 C170 C 0.16036 -0.21418 -0.19896
 C171 C 0.17625 -0.19312 -0.17714
 C172 C 0.21279 -0.19173 -0.17689
 C173 C 0.23278 -0.21017 -0.19891
 C174 C 0.21678 -0.23020 -0.22172
 C175 C 0.15384 -0.17374 -0.15462
 C176 C 0.16430 -0.14642 -0.14119
 C177 C 0.14133 -0.12623 -0.12004
 C178 C 0.14961 -0.09393 -0.11731
 C179 C 0.12850 -0.07391 -0.09803
 C180 C 0.09869 -0.08584 -0.08084
 C181 C 0.09073 -0.11830 -0.08300
 C182 C 0.11188 -0.13834 -0.10224
 H183 H 0.16701 -0.24882 -0.23696
 H184 H 0.13230 -0.21625 -0.19915
 H185 H 0.22613 -0.17687 -0.15948
 H186 H 0.26086 -0.20864 -0.19815
 H187 H 0.12712 -0.18143 -0.15087
 H188 H 0.19002 -0.13722 -0.14750
 H189 H 0.17225 -0.08402 -0.13055
 H190 H 0.13518 -0.04896 -0.09707
 H191 H 0.06837 -0.12830 -0.06941
 H192 H 0.10528 -0.16330 -0.10260
 C193 C 0.19179 0.28473 0.26431
 C194 C 0.16939 0.30316 0.28408
 C195 C 0.17635 0.30845 0.31784
 C196 C 0.20551 0.29404 0.33184
 C197 C 0.22759 0.27518 0.31217
 C198 C 0.22109 0.27075 0.27819
 C199 C 0.15248 0.32852 0.33795
 C200 C 0.16358 0.34741 0.36219
 C201 C 0.14011 0.36865 0.38134
 C202 C 0.15313 0.39760 0.39258
 C203 C 0.13173 0.41821 0.41082
 C204 C 0.09694 0.40998 0.41889
 C205 C 0.08412 0.38065 0.40802
 C206 C 0.10541 0.36025 0.38934
 H207 H 0.18625 0.28141 0.23815
 H208 H 0.14692 0.31378 0.27284
 H209 H 0.21100 0.29695 0.35806
 H210 H 0.24970 0.26428 0.32361
 H211 H 0.12553 0.32941 0.33094
 H212 H 0.19114 0.34901 0.36671
 H213 H 0.17982 0.40452 0.38679
 H214 H 0.14241 0.44076 0.41823
 H215 H 0.05779 0.37311 0.41444
 H216 H 0.09491 0.33765 0.38185
 C217 C 0.69254 -0.21659 0.26294
 C218 C 0.66992 -0.19772 0.28201
 C219 C 0.67616 -0.19213 0.31587
 C220 C 0.70479 -0.20667 0.33068
 C221 C 0.72705 -0.22599 0.31172
 C222 C 0.72130 -0.23074 0.27765
 C223 C 0.65207 -0.17167 0.33529
 C224 C 0.66289 -0.15247 0.35938
 C225 C 0.63920 -0.13110 0.37812
 C226 C 0.65199 -0.10196 0.38910
 C227 C 0.63043 -0.08135 0.40717
 C228 C 0.59572 -0.08976 0.41539
 C229 C 0.58312 -0.11926 0.40472
 C230 C 0.60456 -0.13964 0.38617
 H231 H 0.68761 -0.22011 0.23668
 H232 H 0.64786 -0.18700 0.27015
 H233 H 0.70971 -0.20351 0.35699
 H234 H 0.74876 -0.23696 0.32378
 H235 H 0.62522 -0.17087 0.32796
 H236 H 0.69039 -0.15083 0.36418
 H237 H 0.67864 -0.09493 0.38326
 H238 H 0.64095 -0.05867 0.41439
 H239 H 0.55687 -0.12696 0.41125
 H240 H 0.59424 -0.16238 0.37888
 C241 C 0.71974 0.26675 -0.18440
 C242 C 0.70136 0.28709 -0.16306
 C243 C 0.68203 0.31230 -0.17607
 C244 C 0.68187 0.31695 -0.21111
 C245 C 0.70013 0.29645 -0.23241
 C246 C 0.71911 0.27118 -0.21924
 C247 C 0.66367 0.33362 -0.15217
 C248 C 0.63808 0.35335 -0.16072
 C249 C 0.61968 0.37450 -0.13668
 C250 C 0.58729 0.38672 -0.14532
 C251 C 0.56909 0.40697 -0.12374
 C252 C 0.58295 0.41562 -0.09297
 C253 C 0.61557 0.40370 -0.08444
 C254 C 0.63385 0.38351 -0.10608
 H255 H 0.73452 0.24775 -0.17346
 H256 H 0.70231 0.28313 -0.13623
 H257 H 0.66843 0.33665 -0.22231
 H258 H 0.69991 0.30064 -0.25924
 H259 H 0.67081 0.33179 -0.12623
 H260 H 0.62886 0.35323 -0.18603
 H261 H 0.57594 0.38054 -0.16888
 H262 H 0.54436 0.41623 -0.13141
 H263 H 0.62692 0.40979 -0.06087
 H264 H 0.65919 0.37555 -0.09882
 C265 C -0.24579 0.19154 -0.20573
 C266 C -0.22663 0.17097 -0.18586
 C267 C -0.19070 0.17546 -0.18267
 C268 C -0.17435 0.20125 -0.19976
 C269 C -0.19356 0.22171 -0.21977
 C270 C -0.22936 0.21701 -0.22276
 C271 C -0.17182 0.15363 -0.16021
 C272 C -0.13712 0.15046 -0.16089
 C273 C -0.11839 0.12901 -0.13793
 C274 C -0.08433 0.12004 -0.14687
 C275 C -0.06544 0.10036 -0.12578
 C276 C -0.08013 0.08930 -0.09509
 C277 C -0.11412 0.09851 -0.08595
 C278 C -0.13299 0.11826 -0.10699
 H279 H -0.27351 0.18773 -0.20758
 H280 H -0.23999 0.15155 -0.17278
 H281 H -0.14702 0.20635 -0.19723
 H282 H -0.18045 0.24154 -0.23230
 H283 H -0.18757 0.13889 -0.14326
 H284 H -0.12152 0.16305 -0.17980
 H285 H -0.07226 0.12829 -0.17031
 H286 H -0.03909 0.09421 -0.13330
 H287 H -0.12627 0.09027 -0.06257
 H288 H -0.15869 0.12537 -0.09852
 C289 C -0.19254 0.73641 0.29475
 C290 C -0.16947 0.71896 0.31398
 C291 C -0.17290 0.68589 0.31708
 C292 C -0.19930 0.67048 0.29976
 C293 C -0.22211 0.68792 0.28027
 C294 C -0.21916 0.72103 0.27797
 C295 C -0.14797 0.66802 0.33749
 C296 C -0.15659 0.64095 0.35378
 C297 C -0.13207 0.62295 0.37451
 C298 C -0.14538 0.60445 0.40147
 C299 C -0.12321 0.58652 0.42116
 C300 C -0.08727 0.58628 0.41388
 C301 C -0.07392 0.60449 0.38663
 C302 C -0.09607 0.62276 0.36717
 H303 H -0.18948 0.76193 0.29281
 H304 H -0.14906 0.73133 0.32671
 H305 H -0.20193 0.64490 0.30062
 H306 H -0.24178 0.67533 0.26691
 H307 H -0.12249 0.67843 0.34057
 H308 H -0.18316 0.63237 0.35345
 H309 H -0.17304 0.60394 0.40739
 H310 H -0.13424 0.57234 0.44172
 H311 H -0.04631 0.60470 0.38050
 H312 H -0.08506 0.63610 0.34601
 C313 C 0.30798 0.23843 0.29300
 C314 C 0.33133 0.22097 0.31194
 C315 C 0.32795 0.18789 0.31503
 C316 C 0.30148 0.17246 0.29785
 C317 C 0.27839 0.18990 0.27868
 C318 C 0.28114 0.22303 0.27654
 C319 C 0.35284 0.16999 0.33546
 C320 C 0.34392 0.14314 0.35203
 C321 C 0.36820 0.12492 0.37282
 C322 C 0.35458 0.10645 0.39967
 C323 C 0.37644 0.08814 0.41929
 C324 C 0.41237 0.08747 0.41207
 C325 C 0.42605 0.10570 0.38497
 C326 C 0.40420 0.12436 0.36556
 H327 H 0.31087 0.26397 0.29117
 H328 H 0.35181 0.23335 0.32454
 H329 H 0.29891 0.14689 0.29867
 H330 H 0.25859 0.17728 0.26553
 H331 H 0.37845 0.18019 0.33834
 H332 H 0.31723 0.13487 0.35184
 H333 H 0.32690 0.10623 0.40553
 H334 H 0.36515 0.07396 0.43973
 H335 H 0.45366 0.10560 0.37889
 H336 H 0.41545 0.13767 0.34450
 C337 C 0.25089 0.70140 -0.20002
 C338 C 0.26989 0.68265 -0.17815
 C339 C 0.30627 0.68503 -0.17785
 C340 C 0.32319 0.70729 -0.19950
 C341 C 0.30417 0.72587 -0.22156
 C342 C 0.26789 0.72273 -0.22239
 C343 C 0.32518 0.66453 -0.15404
 C344 C 0.35945 0.65887 -0.15661
 C345 C 0.37825 0.63761 -0.13347
 C346 C 0.41132 0.62685 -0.14363
 C347 C 0.43007 0.60666 -0.12299
 C348 C 0.41623 0.59671 -0.09156
 C349 C 0.38339 0.60790 -0.08104
 C350 C 0.36467 0.62824 -0.10163
 H351 H 0.22282 0.69906 -0.19953
 H352 H 0.25607 0.66613 -0.16144
 H353 H 0.35097 0.71104 -0.19920
 H354 H 0.31807 0.74300 -0.23740
 H355 H 0.30960 0.65253 -0.13469
 H356 H 0.37451 0.66885 -0.17754
 H357 H 0.42267 0.63398 -0.16777
 H358 H 0.45561 0.59908 -0.13158
 H359 H 0.37192 0.60061 -0.05702
 H360 H 0.33983 0.63666 -0.09220
 C361 C -0.19333 -0.24296 0.20505
 C362 C -0.17137 -0.22380 0.18479
 C363 C -0.17637 -0.19088 0.18296
 C364 C -0.20342 -0.17739 0.20250
 C365 C -0.22530 -0.19658 0.22282
 C366 C -0.22055 -0.22949 0.22400
 C367 C -0.15215 -0.17141 0.16150
 C368 C -0.16065 -0.14314 0.14834
 C369 C -0.13669 -0.12312 0.12706
 C370 C -0.14488 -0.09099 0.12240
 C371 C -0.12334 -0.07109 0.10253
 C372 C -0.09310 -0.08293 0.08672
 C373 C -0.08500 -0.11514 0.09104
 C374 C -0.10659 -0.13508 0.11084
 H375 H -0.18902 -0.26831 0.20601
 H376 H -0.15050 -0.23475 0.17035
 H377 H -0.20735 -0.15202 0.20283
 H378 H -0.24567 -0.18554 0.23774
 H379 H -0.12675 -0.18127 0.15624
 H380 H -0.18634 -0.13376 0.15352
 H381 H -0.16794 -0.08113 0.13442
 H382 H -0.13012 -0.04632 0.09990
 H383 H -0.06225 -0.12508 0.07858
 H384 H -0.09977 -0.15984 0.11267
 C385 C -0.20948 0.25616 0.69604
 C386 C -0.18728 0.27454 0.67518
 C387 C -0.18101 0.30657 0.68220
 C388 C -0.19664 0.31958 0.71123
 C389 C -0.21886 0.30117 0.73202
 C390 C -0.22585 0.26947 0.72432
 C391 C -0.15731 0.32520 0.65933
 C392 C -0.15803 0.35697 0.65677
 C393 C -0.13485 0.37586 0.63362
 C394 C -0.14468 0.40685 0.62506
 C395 C -0.12352 0.42576 0.60377
 C396 C -0.09182 0.41417 0.59068
 C397 C -0.08177 0.38324 0.59946
 C398 C -0.10294 0.36430 0.62078
 H399 H -0.21379 0.23160 0.68992
 H400 H -0.17515 0.26375 0.65332
 H401 H -0.19134 0.34372 0.71842
 H402 H -0.23009 0.31173 0.75436
 H403 H -0.14006 0.31197 0.64290
 H404 H -0.17754 0.36990 0.67100
 H405 H -0.16889 0.41650 0.63488
 H406 H -0.13172 0.44968 0.59801
 H407 H -0.05758 0.37356 0.58969
 H408 H -0.09383 0.34094 0.62749
 C409 C 0.29224 -0.24422 0.70050
 C410 C 0.31374 -0.22607 0.67877
 C411 C 0.31309 -0.19279 0.67957
 C412 C 0.29034 -0.17806 0.70286
 C413 C 0.26867 -0.19625 0.72443
 C414 C 0.26980 -0.22950 0.72381
 C415 C 0.33717 -0.17469 0.65642
 C416 C 0.33429 -0.14354 0.64963
 C417 C 0.35850 -0.12516 0.62686
 C418 C 0.34898 -0.09433 0.61726
 C419 C 0.37095 -0.07566 0.59652
 C420 C 0.40314 -0.08734 0.58476
 C421 C 0.41280 -0.11817 0.59437
 C422 C 0.39090 -0.13682 0.61530
 H423 H 0.29338 -0.26985 0.69919
 H424 H 0.33098 -0.23813 0.66123
 H425 H 0.28933 -0.15259 0.70508
 H426 H 0.25119 -0.18400 0.74146
 H427 H 0.35735 -0.18819 0.64389
 H428 H 0.31260 -0.13061 0.66035
 H429 H 0.32443 -0.08452 0.62599
 H430 H 0.36294 -0.05180 0.59019
 H431 H 0.43728 -0.12802 0.58557
 H432 H 0.39993 -0.16004 0.62253
 C433 C 0.30391 0.25984 0.20259
 C434 C 0.32429 0.27928 0.18113
 C435 C 0.31869 0.31216 0.17960
 C436 C 0.29178 0.32510 0.19979
 C437 C 0.27149 0.30560 0.22128
 C438 C 0.27730 0.27286 0.22268
 C439 C 0.34077 0.33172 0.15606
 C440 C 0.34474 0.36326 0.15846
 C441 C 0.36669 0.38269 0.13476
 C442 C 0.35963 0.41518 0.13146
 C443 C 0.37987 0.43453 0.10977
 C444 C 0.40792 0.42185 0.09112
 C445 C 0.41526 0.38939 0.09465
 C446 C 0.39496 0.37000 0.11627
 H447 H 0.30884 0.23458 0.20345
 H448 H 0.34464 0.26862 0.16576
 H449 H 0.28572 0.35007 0.19879
 H450 H 0.25113 0.31626 0.23654
 H451 H 0.35438 0.31928 0.13614
 H452 H 0.33111 0.37586 0.17822
 H453 H 0.33828 0.42563 0.14567
 H454 H 0.37391 0.45955 0.10801
 H455 H 0.43663 0.37890 0.08052
 H456 H 0.40201 0.34533 0.11882
 C457 C 0.19758 0.20070 0.24349
 C458 C 0.17628 0.18054 0.22553
 C459 C 0.17901 0.17974 0.19039
 C460 C 0.20385 0.19937 0.17358
 C461 C 0.22510 0.21952 0.19159
 C462 C 0.22234 0.22007 0.22667
 C463 C 0.15659 0.15734 0.17237
 C464 C 0.14882 0.16102 0.14001
 C465 C 0.12704 0.13832 0.12169
 C466 C 0.11108 0.14881 0.09244
 C467 C 0.09118 0.12802 0.07382
 C468 C 0.08697 0.09614 0.08394
 C469 C 0.10306 0.08555 0.11314
 C470 C 0.12300 0.10634 0.13175
 H471 H 0.19488 0.20102 0.27059
 H472 H 0.15754 0.16557 0.23913
 H473 H 0.20755 0.19886 0.14663
 H474 H 0.24379 0.23439 0.17795
 H475 H 0.14513 0.13785 0.18687
 H476 H 0.15755 0.18212 0.12642
 H477 H 0.11394 0.17324 0.08400
 H478 H 0.07884 0.13697 0.05162
 H479 H 0.10091 0.06096 0.12117
 H480 H 0.13585 0.09697 0.15343
 C481 C 0.19450 0.73868 0.70257
 C482 C 0.17356 0.72090 0.68177
 C483 C 0.17610 0.68775 0.68122
 C484 C 0.19995 0.67264 0.70204
 C485 C 0.22058 0.69040 0.72315
 C486 C 0.21753 0.72356 0.72412
 C487 C 0.15260 0.66955 0.65987
 C488 C 0.16131 0.64164 0.64643
 C489 C 0.13755 0.62321 0.62557
 C490 C 0.15166 0.60378 0.60043
 C491 C 0.13000 0.58550 0.58079
 C492 C 0.09379 0.58582 0.58640
 C493 C 0.07965 0.60496 0.61185
 C494 C 0.10129 0.62358 0.63120
 H495 H 0.19216 0.76429 0.70227
 H496 H 0.15541 0.73307 0.66595
 H497 H 0.20220 0.64707 0.70264
 H498 H 0.23880 0.67794 0.73855
 H499 H 0.12797 0.68022 0.65395
 H500 H 0.18730 0.63254 0.64944
 H501 H 0.17953 0.60285 0.59589
 H502 H 0.14157 0.57063 0.56160
 H503 H 0.05181 0.60562 0.61666
 H504 H 0.08963 0.63765 0.65099
 C505 C 0.67994 0.22804 0.72356
 C506 C 0.65831 0.20923 0.70441
 C507 C 0.67143 0.18260 0.68759
 C508 C 0.70670 0.17482 0.69098
 C509 C 0.72831 0.19376 0.70998
 C510 C 0.71521 0.22066 0.72615
 C511 C 0.64726 0.16313 0.66796
 C512 C 0.65778 0.14278 0.64418
 C513 C 0.63381 0.12325 0.62437
 C514 C 0.64678 0.10951 0.59472
 C515 C 0.62554 0.09051 0.57542
 C516 C 0.59071 0.08466 0.58537
 C517 C 0.57773 0.09818 0.61520
 C518 C 0.59902 0.11711 0.63459
 H519 H 0.66886 0.24821 0.73629
 H520 H 0.63118 0.21555 0.70270
 H521 H 0.71770 0.15383 0.67973
 H522 H 0.75518 0.18697 0.71257
 H523 H 0.61978 0.16694 0.67253
 H524 H 0.68518 0.14104 0.63767
 H525 H 0.67354 0.11347 0.58642
 H526 H 0.63659 0.07998 0.55295
 H527 H 0.55097 0.09430 0.62349
 H528 H 0.58810 0.12636 0.65771
 C529 C 0.69844 0.69894 0.24198
 C530 C 0.67781 0.67887 0.22322
 C531 C 0.68180 0.67817 0.18813
 C532 C 0.70722 0.69782 0.17222
 C533 C 0.72782 0.71786 0.19104
 C534 C 0.72381 0.71831 0.22605
 C535 C 0.66002 0.65586 0.16928
 C536 C 0.65342 0.65959 0.13664
 C537 C 0.63187 0.63712 0.11778
 C538 C 0.61610 0.64794 0.08855
 C539 C 0.59590 0.62747 0.06981
 C540 C 0.59126 0.59558 0.07976
 C541 C 0.60748 0.58460 0.10874
 C542 C 0.62766 0.60508 0.12750
 H543 H 0.69477 0.69919 0.26899
 H544 H 0.65858 0.66390 0.23614
 H545 H 0.71187 0.69741 0.14537
 H546 H 0.74699 0.73275 0.17806
 H547 H 0.64790 0.63644 0.18338
 H548 H 0.66274 0.68064 0.12329
 H549 H 0.61914 0.67243 0.08035
 H550 H 0.58350 0.63674 0.04779
 H551 H 0.60506 0.56000 0.11664
 H552 H 0.64043 0.59548 0.14912
   
