data_POSCAR
  _audit_creation_date              2014-09-24
  _audit_creation_method            'ToBaCCo'
  _symmetry_space_group_name_H-M    'P1'
  _symmetry_Int_Tables_number       1
  _symmetry_cell_setting            triclinic
  loop_
  _symmetry_equiv_pos_as_xyz
 x,y,z
_cell_length_a 67.9268
_cell_length_b 68.0613
_cell_length_c 25.6907
_cell_angle_alpha 90.059700
_cell_angle_beta 89.945600
_cell_angle_gamma 120.024000
loop_
  _atom_site_label
  _atom_site_type_symbol
  _atom_site_fract_x
  _atom_site_fract_y
  _atom_site_fract_z
C1 C 0.20522 0.49461 0.44970
 C2 C 0.19459 0.49290 0.49769
 C3 C 0.20624 0.49737 0.54523
 C4 C 0.22913 0.50202 0.54522
 C5 C 0.23972 0.50207 0.49742
 C6 C 0.22782 0.49849 0.44959
 C7 C 0.23819 0.49706 0.40338
 C8 C 0.26013 0.50050 0.40338
 C9 C 0.27247 0.50479 0.44984
 C10 C 0.26206 0.50504 0.49753
 C11 C 0.24125 0.50515 0.59179
 C12 C 0.26332 0.50891 0.59161
 C13 C 0.27378 0.50784 0.54531
 C14 C 0.29596 0.51040 0.54509
 C15 C 0.30616 0.51121 0.49691
 C16 C 0.29470 0.50810 0.44990
 H17 H 0.22924 0.49261 0.36664
 H18 H 0.26716 0.49929 0.36649
 H19 H 0.23379 0.50434 0.62941
 H20 H 0.27199 0.51264 0.62862
 H21 H 0.17753 0.49044 0.49782
 H22 H 0.32284 0.51273 0.49569
 C23 C 0.49523 -0.21030 0.55016
 C24 C 0.49447 -0.20014 0.50360
 C25 C 0.49507 -0.20932 0.45543
 C26 C 0.49633 -0.22941 0.45324
 C27 C 0.49699 -0.24009 0.50009
 C28 C 0.49656 -0.23040 0.54878
 C29 C 0.49871 -0.24031 0.59464
 C30 C 0.50128 -0.25931 0.59294
 C31 C 0.50115 -0.26970 0.54535
 C32 C 0.49926 -0.25979 0.49823
 C33 C 0.49811 -0.23839 0.40548
 C34 C 0.50065 -0.25740 0.40356
 C35 C 0.50083 -0.26874 0.44925
 C36 C 0.50462 -0.28747 0.44754
 C37 C 0.50745 -0.29624 0.49455
 C38 C 0.50496 -0.28841 0.54332
 H39 H 0.49916 -0.23302 0.63239
 H40 H 0.50427 -0.26515 0.62957
 H41 H 0.49823 -0.23038 0.36901
 H42 H 0.50338 -0.26247 0.36562
 H43 H 0.49389 -0.18450 0.50486
 H44 H 0.50955 -0.31103 0.49317
 C45 C 1.21301 0.70177 0.54674
 C46 C 1.20304 0.69246 0.49843
 C47 C 1.21327 0.70270 0.45138
 C48 C 1.23444 0.72304 0.45161
 C49 C 1.24500 0.73305 0.49966
 C50 C 1.23453 0.72218 0.54737
 C51 C 1.24698 0.73073 0.59366
 C52 C 1.26811 0.75038 0.59389
 C53 C 1.27791 0.76261 0.54790
 C54 C 1.26667 0.75334 0.49986
 C55 C 1.24594 0.73282 0.40498
 C56 C 1.26708 0.75240 0.40517
 C57 C 1.27749 0.76356 0.45190
 C58 C 1.29935 0.78343 0.45217
 C59 C 1.31002 0.79207 0.50023
 C60 C 1.29968 0.78258 0.54812
 H61 H 1.24108 0.72181 0.63019
 H62 H 1.27708 0.75528 0.63058
 H63 H 1.23905 0.72501 0.36769
 H64 H 1.27549 0.75812 0.36800
 H65 H 1.18642 0.67725 0.49708
 H66 H 1.32603 0.80798 0.50048
 C67 C 0.70166 0.48718 0.54951
 C68 C 0.69019 0.48372 0.50193
 C69 C 0.70074 0.48546 0.45410
 C70 C 0.72336 0.48975 0.45297
 C71 C 0.73514 0.49237 0.50042
 C72 C 0.72434 0.49111 0.54880
 C73 C 0.73615 0.49262 0.59495
 C74 C 0.75841 0.49695 0.59395
 C75 C 0.76949 0.49818 0.54675
 C76 C 0.75777 0.49615 0.49941
 C77 C 0.73434 0.49109 0.40565
 C78 C 0.75665 0.49555 0.40465
 C79 C 0.76865 0.49801 0.45097
 C80 C 0.79139 0.50265 0.45006
 C81 C 0.80299 0.50553 0.49684
 C82 C 0.79231 0.50256 0.54537
 H83 H 0.72833 0.49026 0.63277
 H84 H 0.76683 0.49955 0.63106
 H85 H 0.72579 0.48868 0.36872
 H86 H 0.76441 0.49709 0.36695
 H87 H 0.67317 0.48136 0.50158
 H88 H 0.82020 0.50841 0.49510
 C89 C 0.50892 0.21469 0.45343
 C90 C 0.51138 0.20622 0.50092
 C91 C 0.51139 0.21644 0.54815
 C92 C 0.50904 0.23597 0.54805
 C93 C 0.50703 0.24510 0.49999
 C94 C 0.50697 0.23439 0.45246
 C95 C 0.50429 0.24323 0.40537
 C96 C 0.50175 0.26227 0.40480
 C97 C 0.50182 0.27322 0.45128
 C98 C 0.50447 0.26461 0.49946
 C99 C 0.50840 0.24644 0.59458
 C100 C 0.50531 0.26515 0.59417
 C101 C 0.50394 0.27503 0.54711
 C102 C 0.50038 0.29397 0.54616
 C103 C 0.49725 0.30171 0.49792
 C104 C 0.49851 0.29211 0.45090
 H105 H 0.50391 0.23537 0.36846
 H106 H 0.49926 0.26803 0.36745
 H107 H 0.50990 0.24004 0.63201
 H108 H 0.50348 0.27135 0.63151
 H109 H 0.51260 0.19092 0.50117
 H110 H 0.49515 0.31650 0.49651
 C111 C 0.70567 0.20969 0.45155
 C112 C 0.69576 0.19955 0.49900
 C113 C 0.70617 0.20919 0.54642
 C114 C 0.72730 0.22967 0.54683
 C115 C 0.73757 0.24032 0.49904
 C116 C 0.72672 0.23027 0.45116
 C117 C 0.73761 0.24054 0.40423
 C118 C 0.75877 0.26022 0.40416
 C119 C 0.76987 0.27042 0.45102
 C120 C 0.75917 0.26054 0.49905
 C121 C 0.73892 0.23913 0.59354
 C122 C 0.76009 0.25882 0.59356
 C123 C 0.77038 0.27028 0.54695
 C124 C 0.79240 0.29006 0.54641
 C125 C 0.80281 0.29893 0.49815
 C126 C 0.79184 0.28970 0.45102
 H127 H 0.73010 0.23322 0.36697
 H128 H 0.76655 0.26711 0.36683
 H129 H 0.73203 0.23105 0.63060
 H130 H 0.76858 0.26439 0.63067
 H131 H 0.67966 0.18372 0.49901
 H132 H 0.81948 0.31409 0.49689
 O133 O 1.03085 0.48259 -0.09874
 O134 O 1.05597 0.51220 -0.04760
 C135 C 1.05133 0.49769 -0.08500
 O136 O 0.96742 0.51998 -0.09273
 O137 O 0.94202 0.48858 -0.04662
 C138 C 0.94686 0.50455 -0.08038
 O139 O 1.03102 0.55026 -0.09578
 O140 O 1.05601 0.54496 -0.04615
 C141 C 1.05148 0.55535 -0.08242
 O142 O 0.96748 0.44876 -0.09430
 O143 O 0.94207 0.45447 -0.04725
 C144 C 0.94691 0.44353 -0.08164
 Zr145 Zr 0.99913 0.47522 -0.06734
 O146 O 0.99858 0.47217 -0.14931
 O147 O 1.00007 0.44481 -0.05914
 Zr148 Zr 0.99913 0.52489 -0.06685
 O149 O 0.99731 0.52438 -0.14915
 O150 O 1.00152 0.55713 -0.06499
 O151 O 1.01937 0.51020 -0.07715
 O152 O 0.97942 0.49024 -0.07725
 O153 O 0.96689 0.44749 0.08641
 O154 O 0.94170 0.45403 0.04080
 C155 C 0.94640 0.44250 0.07377
 O156 O 1.03025 0.54931 0.09486
 O157 O 1.05565 0.54460 0.04519
 C158 C 1.05081 0.55461 0.08187
 O159 O 0.96673 0.51949 0.08857
 O160 O 0.94170 0.48832 0.04122
 C161 C 0.94628 0.50414 0.07527
 O162 O 1.03022 0.48115 0.09344
 O163 O 1.05570 0.51168 0.04514
 C164 C 1.05079 0.49653 0.08114
 Zr165 Zr 0.99867 0.47482 0.06314
 O166 O 0.99570 0.47325 0.14529
 O167 O 1.00104 0.44496 0.06228
 Zr168 Zr 0.99861 0.52435 0.06410
 O169 O 0.99573 0.52283 0.14626
 O170 O 1.00120 0.55667 0.06395
 Zr171 Zr 1.03301 0.51689 -0.00119
 Zr172 Zr 0.96483 0.48285 -0.00247
 O173 O 0.97880 0.48963 0.07292
 O174 O 1.01892 0.50969 0.07433
 O175 O 0.97844 0.46099 -0.00263
 O176 O 1.01877 0.53815 -0.00093
 O177 O 1.01897 0.48147 -0.00193
 O178 O 0.97847 0.51831 -0.00172
 H179 H 0.96938 0.48531 -0.10819
 H180 H 1.02904 0.55482 -0.00049
 H181 H 0.96844 0.48436 0.10335
 H182 H 1.02941 0.47524 -0.00213
 H183 H 0.98812 0.55548 -0.04589
 H184 H 0.98835 0.55544 0.04328
 H185 H 1.00816 0.52077 0.16008
 H186 H 1.00843 0.48746 0.15945
 H187 H 0.98969 0.43439 0.03699
 H188 H 1.00055 0.43966 -0.09495
 H189 H 0.99642 0.48443 -0.16355
 H190 H 1.00995 0.52252 -0.16256
 O191 O 0.54728 0.51774 0.10021
 O192 O 0.54331 0.48857 0.04823
 C193 C 0.55246 0.50245 0.08699
 O194 O 0.44692 0.48200 0.08648
 O195 O 0.45423 0.51377 0.04039
 C196 C 0.44242 0.49779 0.07361
 O197 O 0.47950 0.45101 0.09279
 O198 O 0.51037 0.45618 0.04546
 C199 C 0.49494 0.44584 0.08085
 O200 O 0.51921 0.55292 0.09155
 O201 O 0.48857 0.54744 0.04290
 C202 C 0.50410 0.55830 0.07782
 Zr203 Zr 0.52391 0.52596 0.06633
 O204 O 0.52352 0.52843 0.14837
 O205 O 0.55592 0.55594 0.06164
 Zr206 Zr 0.47370 0.47662 0.06256
 O207 O 0.47083 0.47668 0.14463
 O208 O 0.44362 0.44456 0.05819
 O209 O 0.50849 0.49089 0.07533
 O210 O 0.48908 0.51127 0.07366
 O211 O 0.52158 0.55427 -0.08911
 O212 O 0.48947 0.54796 -0.04538
 C213 C 0.50594 0.55929 -0.07798
 O214 O 0.48225 0.45267 -0.09818
 O215 O 0.51165 0.45691 -0.04662
 C216 C 0.49724 0.44718 -0.08422
 O217 O 0.44939 0.48341 -0.09507
 O218 O 0.45532 0.51443 -0.04748
 C219 C 0.44441 0.49890 -0.08239
 O220 O 0.55068 0.52001 -0.09338
 O221 O 0.54472 0.48942 -0.04423
 C222 C 0.55535 0.50436 -0.08039
 Zr223 Zr 0.52574 0.52700 -0.06408
 O224 O 0.52639 0.52970 -0.14621
 O225 O 0.55815 0.55660 -0.05931
 Zr226 Zr 0.47560 0.47772 -0.06818
 O227 O 0.47511 0.47926 -0.15045
 O228 O 0.44552 0.44559 -0.06917
 Zr229 Zr 0.51640 0.48443 0.00008
 Zr230 Zr 0.48309 0.51911 -0.00177
 O231 O 0.49119 0.51248 -0.07645
 O232 O 0.51069 0.49211 -0.07598
 O233 O 0.51862 0.54067 0.00087
 O234 O 0.48082 0.46347 -0.00254
 O235 O 0.53825 0.51979 0.00206
 O236 O 0.46075 0.48373 -0.00367
 H237 H 0.48380 0.51625 0.10428
 H238 H 0.47428 0.44678 -0.00318
 H239 H 0.48667 0.51788 -0.10754
 H240 H 0.55487 0.52573 0.00339
 H241 H 0.43211 0.44662 0.03925
 H242 H 0.43365 0.44711 -0.05033
 H243 H 0.48984 0.48154 -0.16330
 H244 H 0.52306 0.51487 -0.16063
 H245 H 0.55671 0.56738 -0.03593
 H246 H 0.56076 0.56071 0.09804
 H247 H 0.51662 0.51281 0.16216
 H248 H 0.48500 0.47835 0.15959
 O249 O 0.47918 0.03164 0.09384
 O250 O 0.50938 0.05666 0.04391
 C251 C 0.49454 0.05206 0.08060
 O252 O 0.51651 -0.03201 0.09103
 O253 O 0.48509 -0.05727 0.04462
 C254 C 0.50099 -0.05250 0.07858
 O255 O 0.54685 0.03138 0.09483
 O256 O 0.54207 0.05646 0.04448
 C257 C 0.55215 0.05182 0.08136
 O258 O 0.44530 -0.03155 0.08999
 O259 O 0.45109 -0.05701 0.04355
 C260 C 0.44013 -0.05211 0.07779
 Zr261 Zr 0.47191 -0.00003 0.06293
 O262 O 0.46817 -0.00041 0.14471
 O263 O 0.44156 0.00095 0.05260
 Zr264 Zr 0.52157 -0.00033 0.06521
 O265 O 0.52026 -0.00230 0.14749
 O266 O 0.55385 0.00201 0.06540
 O267 O 0.50690 0.01998 0.07423
 O268 O 0.48677 -0.01981 0.07430
 O269 O 0.44570 -0.03224 -0.09278
 O270 O 0.45137 -0.05732 -0.04460
 C271 C 0.44049 -0.05270 -0.07950
 O272 O 0.54750 0.03068 -0.09578
 O273 O 0.54234 0.05610 -0.04748
 C274 C 0.55264 0.05121 -0.08341
 O275 O 0.51689 -0.03288 -0.09003
 O276 O 0.48528 -0.05762 -0.04344
 C277 C 0.50121 -0.05325 -0.07710
 O278 O 0.48020 0.03111 -0.10010
 O279 O 0.50973 0.05634 -0.04887
 C280 C 0.49554 0.05159 -0.08700
 Zr281 Zr 0.47250 -0.00046 -0.06733
 O282 O 0.47028 -0.00330 -0.14939
 O283 O 0.44279 0.00228 -0.06523
 Zr284 Zr 0.52206 -0.00087 -0.06563
 O285 O 0.52134 -0.00369 -0.14779
 O286 O 0.55431 0.00144 -0.06327
 Zr287 Zr 0.51430 0.03363 -0.00165
 Zr288 Zr 0.47985 -0.03439 -0.00043
 O289 O 0.48734 -0.02038 -0.07580
 O290 O 0.50758 0.01948 -0.07713
 O291 O 0.45803 -0.02071 -0.00190
 O292 O 0.53546 0.01926 -0.00044
 O293 O 0.47882 0.01988 -0.00260
 O294 O 0.51536 -0.02101 0.00032
 H295 H 0.48164 -0.02982 0.10526
 H296 H 0.55216 0.02947 -0.00022
 H297 H 0.48234 -0.03056 -0.10649
 H298 H 0.47281 0.03047 -0.00328
 H299 H 0.55249 -0.01105 0.04542
 H300 H 0.55260 -0.01184 -0.04368
 H301 H 0.51996 0.00904 -0.16222
 H302 H 0.48568 0.00686 -0.16334
 H303 H 0.43124 -0.01066 -0.04463
 H304 H 0.43608 0.00148 0.08803
 H305 H 0.48013 -0.00285 0.15980
 H306 H 0.51831 0.01032 0.16049
 C307 C 1.16756 0.49448 0.31763
 C308 C 1.15738 0.47770 0.35611
 C309 C 1.16991 0.47744 0.39883
 C310 C 1.19317 0.49369 0.40383
 C311 C 1.20339 0.51034 0.36470
 C312 C 1.19072 0.51074 0.32220
 C313 C 1.15356 0.49554 0.27463
 C314 C 1.15490 0.51619 0.26122
 C315 C 1.13967 0.51668 0.22529
 C316 C 1.12287 0.49652 0.20194
 C317 C 1.12240 0.47609 0.21331
 C318 C 1.13751 0.47559 0.24937
 C319 C 1.10481 0.49643 0.16904
 C320 C 1.08218 0.47890 0.17465
 C321 C 1.06484 0.47893 0.14574
 C322 C 1.06961 0.49651 0.11034
 C323 C 1.09228 0.51402 0.10430
 C324 C 1.10971 0.51401 0.13349
 H325 H 1.13947 0.46515 0.35401
 H326 H 1.16138 0.46434 0.42797
 H327 H 1.22095 0.52374 0.36816
 H328 H 1.19896 0.52394 0.29320
 H329 H 1.16700 0.53180 0.28041
 H330 H 1.14036 0.53266 0.21771
 H331 H 1.11001 0.46035 0.19507
 H332 H 1.13638 0.45951 0.25828
 H333 H 1.07772 0.46536 0.20243
 H334 H 1.04761 0.46517 0.15159
 H335 H 1.09654 0.52785 0.07749
 H336 H 1.12701 0.52770 0.12815
 C337 C 0.50447 0.67624 0.31278
 C338 C 0.48744 0.68198 0.31981
 C339 C 0.48781 0.69459 0.36329
 C340 C 0.50518 0.70168 0.40087
 C341 C 0.52213 0.69578 0.39347
 C342 C 0.52190 0.68346 0.34985
 C343 C 0.50359 0.66164 0.26887
 C344 C 0.52357 0.66648 0.24213
 C345 C 0.52346 0.65119 0.20570
 C346 C 0.50340 0.63064 0.19532
 C347 C 0.48314 0.62637 0.22002
 C348 C 0.48324 0.64174 0.25638
 C349 C 0.50404 0.61303 0.16224
 C350 C 0.48619 0.59959 0.12785
 C351 C 0.48640 0.58214 0.09936
 C352 C 0.50441 0.57769 0.10498
 C353 C 0.52240 0.59141 0.13872
 C354 C 0.52222 0.60883 0.16693
 H355 H 0.47372 0.67648 0.29197
 H356 H 0.47393 0.69792 0.36867
 H357 H 0.53577 0.70086 0.42145
 H358 H 0.53504 0.67897 0.34595
 H359 H 0.53941 0.68188 0.25033
 H360 H 0.53923 0.65521 0.18646
 H361 H 0.46745 0.61062 0.21324
 H362 H 0.46763 0.63750 0.27671
 H363 H 0.47202 0.60251 0.12315
 H364 H 0.47225 0.57187 0.07377
 H365 H 0.53655 0.58848 0.14405
 H366 H 0.53603 0.61859 0.19373
 C367 C 0.33540 -0.17471 0.32363
 C368 C 0.31172 -0.18428 0.32683
 C369 C 0.29958 -0.19866 0.36825
 C370 C 0.31081 -0.20421 0.40675
 C371 C 0.33451 -0.19505 0.40195
 C372 C 0.34658 -0.18053 0.36107
 C373 C 0.34883 -0.15733 0.28396
 C374 C 0.36778 -0.13680 0.29953
 C375 C 0.38077 -0.12021 0.26293
 C376 C 0.37526 -0.12386 0.20983
 C377 C 0.35637 -0.14444 0.19397
 C378 C 0.34307 -0.16098 0.23091
 C379 C 0.38955 -0.10606 0.17175
 C380 C 0.39863 -0.11118 0.12807
 C381 C 0.41450 -0.09374 0.09614
 C382 C 0.42136 -0.07093 0.10711
 C383 C 0.41127 -0.06608 0.14931
 C384 C 0.39565 -0.08343 0.18135
 H385 H 0.30280 -0.17971 0.29879
 H386 H 0.28161 -0.20438 0.37162
 H387 H 0.34382 -0.19907 0.43014
 H388 H 0.36482 -0.17353 0.35910
 H389 H 0.37244 -0.13352 0.34024
 H390 H 0.39538 -0.10458 0.27606
 H391 H 0.35179 -0.14757 0.15321
 H392 H 0.32854 -0.17672 0.21807
 H393 H 0.39423 -0.12853 0.12005
 H394 H 0.42190 -0.09808 0.06389
 H395 H 0.41602 -0.04876 0.15890
 H396 H 0.38869 -0.07911 0.21451
 C397 C 0.82897 0.50309 0.31483
 C398 C 0.83636 0.52287 0.34486
 C399 C 0.82373 0.52293 0.38777
 C400 C 0.80341 0.50330 0.40132
 C401 C 0.79577 0.48365 0.37102
 C402 C 0.80836 0.48357 0.32802
 C403 C 0.84343 0.50252 0.27201
 C404 C 0.84592 0.48338 0.26494
 C405 C 0.86098 0.48349 0.22771
 C406 C 0.87399 0.50278 0.19686
 C407 C 0.87099 0.52165 0.20268
 C408 C 0.85583 0.52150 0.23975
 C409 C 0.89178 0.50376 0.16160
 C410 C 0.91353 0.52314 0.16095
 C411 C 0.93102 0.52345 0.13175
 C412 C 0.92714 0.50444 0.10219
 C413 C 0.90516 0.48536 0.10122
 C414 C 0.88768 0.48498 0.13090
 H415 H 0.85235 0.53806 0.33641
 H416 H 0.83005 0.53816 0.41118
 H417 H 0.78031 0.46822 0.38142
 H418 H 0.80209 0.46813 0.30547
 H419 H 0.83692 0.46861 0.28964
 H420 H 0.86319 0.46884 0.22463
 H421 H 0.88057 0.53663 0.17891
 H422 H 0.85399 0.53635 0.24353
 H423 H 0.91727 0.53777 0.18465
 H424 H 0.94773 0.53846 0.13318
 H425 H 0.90161 0.47046 0.07882
 H426 H 0.87102 0.46989 0.13036
 C427 C 0.49676 0.32903 0.31720
 C428 C 0.51590 0.32676 0.32702
 C429 C 0.51614 0.31399 0.36934
 C430 C 0.49720 0.30313 0.40235
 C431 C 0.47786 0.30485 0.39191
 C432 C 0.47760 0.31761 0.34965
 C433 C 0.49721 0.34440 0.27562
 C434 C 0.47772 0.33858 0.24574
 C435 C 0.47751 0.35401 0.21020
 C436 C 0.49680 0.37557 0.20366
 C437 C 0.51656 0.38109 0.23212
 C438 C 0.51675 0.36569 0.26775
 C439 C 0.49593 0.39273 0.16965
 C440 C 0.51446 0.40703 0.13778
 C441 C 0.51398 0.42399 0.10804
 C442 C 0.49502 0.42711 0.10990
 C443 C 0.47639 0.41259 0.14127
 C444 C 0.47682 0.39557 0.17067
 H445 H 0.53083 0.33519 0.30248
 H446 H 0.53133 0.31309 0.37727
 H447 H 0.46321 0.29681 0.41740
 H448 H 0.46273 0.31929 0.34368
 H449 H 0.46253 0.32217 0.25027
 H450 H 0.46216 0.34915 0.18816
 H451 H 0.53159 0.39768 0.22844
 H452 H 0.53193 0.37083 0.29070
 H453 H 0.52935 0.40514 0.13598
 H454 H 0.52865 0.43495 0.08442
 H455 H 0.46152 0.41451 0.14355
 H456 H 0.46242 0.38503 0.19539
 C457 C 0.66804 0.17140 0.31781
 C458 C 0.67869 0.16316 0.35114
 C459 C 0.69146 0.17600 0.39357
 C460 C 0.69393 0.19736 0.40354
 C461 C 0.68369 0.20590 0.37006
 C462 C 0.67088 0.19304 0.32742
 C463 C 0.65307 0.15679 0.27518
 C464 C 0.63218 0.15564 0.26492
 C465 C 0.61697 0.14003 0.22884
 C466 C 0.62228 0.12517 0.20251
 C467 C 0.64354 0.12698 0.21109
 C468 C 0.65879 0.14266 0.24688
 C469 C 0.60511 0.10681 0.16910
 C470 C 0.60137 0.08464 0.17386
 C471 C 0.58437 0.06691 0.14494
 C472 C 0.57080 0.07093 0.11020
 C473 C 0.57488 0.09323 0.10454
 C474 C 0.59176 0.11096 0.13400
 H475 H 0.67652 0.14642 0.34554
 H476 H 0.69906 0.16908 0.41940
 H477 H 0.68526 0.22229 0.37757
 H478 H 0.66303 0.19992 0.30227
 H479 H 0.62712 0.16607 0.28648
 H480 H 0.60061 0.13886 0.22334
 H481 H 0.64823 0.11600 0.19064
 H482 H 0.67494 0.14344 0.25306
 H483 H 0.61120 0.08088 0.20110
 H484 H 0.58175 0.04998 0.15022
 H485 H 0.56481 0.09693 0.07796
 H486 H 0.59440 0.12792 0.12935
 C487 C 0.51276 0.17731 -0.32277
 C488 C 0.53161 0.18840 -0.35608
 C489 C 0.53167 0.20225 -0.39617
 C490 C 0.51290 0.20526 -0.40374
 C491 C 0.49439 0.19490 -0.36932
 C492 C 0.49442 0.18119 -0.32880
 C493 C 0.51136 0.16014 -0.28528
 C494 C 0.50394 0.15947 -0.23389
 C495 C 0.50168 0.14243 -0.19975
 C496 C 0.50636 0.12558 -0.21686
 C497 C 0.51395 0.12640 -0.26806
 C498 C 0.51655 0.14358 -0.30182
 C499 C 0.50279 0.10674 -0.18220
 C500 C 0.49025 0.08426 -0.19989
 C501 C 0.48740 0.06635 -0.16831
 C502 C 0.49732 0.07057 -0.11858
 C503 C 0.50971 0.09311 -0.10065
 C504 C 0.51225 0.11102 -0.13206
 H505 H 0.54601 0.18581 -0.35197
 H506 H 0.54600 0.20995 -0.42263
 H507 H 0.47955 0.19663 -0.37523
 H508 H 0.47958 0.17263 -0.30399
 H509 H 0.49986 0.17208 -0.22027
 H510 H 0.49571 0.14204 -0.16045
 H511 H 0.51780 0.11367 -0.28198
 H512 H 0.52204 0.14355 -0.34140
 H513 H 0.48267 0.08055 -0.23831
 H514 H 0.47786 0.04923 -0.18341
 H515 H 0.51756 0.09690 -0.06253
 H516 H 0.52208 0.12827 -0.11778
 C517 C 0.66577 0.49099 -0.31866
 C518 C 0.68894 0.50696 -0.32549
 C519 C 0.70096 0.50550 -0.36815
 C520 C 0.69026 0.48776 -0.40468
 C521 C 0.66707 0.47173 -0.39733
 C522 C 0.65506 0.47327 -0.35493
 C523 C 0.65234 0.49350 -0.27605
 C524 C 0.63476 0.47430 -0.25120
 C525 C 0.62052 0.47654 -0.21531
 C526 C 0.62361 0.49805 -0.20316
 C527 C 0.64187 0.51731 -0.22613
 C528 C 0.65599 0.51506 -0.26227
 C529 C 0.60703 0.50032 -0.16948
 C530 C 0.60033 0.51622 -0.18204
 C531 C 0.58397 0.51780 -0.15241
 C532 C 0.57369 0.50340 -0.10955
 C533 C 0.58054 0.48765 -0.09645
 C534 C 0.59705 0.48615 -0.12607
 H535 H 0.69772 0.52085 -0.29831
 H536 H 0.71840 0.51889 -0.37369
 H537 H 0.65813 0.45783 -0.42446
 H538 H 0.63714 0.46094 -0.35156
 H539 H 0.63172 0.45747 -0.26025
 H540 H 0.60655 0.46134 -0.19864
 H541 H 0.64499 0.53416 -0.21694
 H542 H 0.66922 0.53021 -0.28088
 H543 H 0.60726 0.52706 -0.21582
 H544 H 0.57904 0.53003 -0.16393
 H545 H 0.57301 0.47634 -0.06360
 H546 H 0.60199 0.47388 -0.11502
 C547 C 0.82989 0.32728 -0.32102
 C548 C 0.84024 0.32128 -0.36039
 C549 C 0.82779 0.30883 -0.40353
 C550 C 0.80445 0.30154 -0.40807
 C551 C 0.79411 0.30761 -0.36843
 C552 C 0.80672 0.32040 -0.32547
 C553 C 0.84376 0.34156 -0.27691
 C554 C 0.84265 0.36082 -0.26169
 C555 C 0.85787 0.37588 -0.22476
 C556 C 0.87441 0.37190 -0.20215
 C557 C 0.87459 0.35192 -0.21530
 C558 C 0.85950 0.33699 -0.25239
 C559 C 0.89253 0.38929 -0.16835
 C560 C 0.91509 0.39410 -0.17398
 C561 C 0.93256 0.41133 -0.14500
 C562 C 0.92797 0.42429 -0.10958
 C563 C 0.90534 0.41924 -0.10309
 C564 C 0.88781 0.40194 -0.13225
 H565 H 0.85817 0.32671 -0.35844
 H566 H 0.83641 0.30457 -0.43313
 H567 H 0.77647 0.30324 -0.37162
 H568 H 0.79840 0.32500 -0.29586
 H569 H 0.83078 0.36482 -0.28024
 H570 H 0.85740 0.39119 -0.21584
 H571 H 0.88675 0.34808 -0.19770
 H572 H 0.86043 0.32204 -0.26274
 H573 H 0.91942 0.38500 -0.20208
 H574 H 0.94976 0.41473 -0.15114
 H575 H 0.90121 0.42891 -0.07618
 H576 H 0.87057 0.39852 -0.12672
 C577 C 0.49682 -0.17291 -0.31360
 C578 C 0.47775 -0.19433 -0.32385
 C579 C 0.47746 -0.20696 -0.36721
 C580 C 0.49619 -0.19835 -0.40094
 C581 C 0.51536 -0.17723 -0.39032
 C582 C 0.51572 -0.16466 -0.34701
 C583 C 0.49665 -0.15844 -0.27040
 C584 C 0.51642 -0.14504 -0.24108
 C585 C 0.51708 -0.12946 -0.20463
 C586 C 0.49799 -0.12695 -0.19657
 C587 C 0.47790 -0.14107 -0.22419
 C588 C 0.47725 -0.15664 -0.26072
 C589 C 0.49946 -0.10865 -0.16234
 C590 C 0.48123 -0.11239 -0.12988
 C591 C 0.48206 -0.09457 -0.10088
 C592 C 0.50108 -0.07259 -0.10401
 C593 C 0.51953 -0.06903 -0.13549
 C594 C 0.51874 -0.08684 -0.16419
 H595 H 0.46300 -0.20118 -0.29866
 H596 H 0.46245 -0.22317 -0.37521
 H597 H 0.52987 -0.17026 -0.41633
 H598 H 0.53049 -0.14808 -0.34081
 H599 H 0.53151 -0.14634 -0.24696
 H600 H 0.53267 -0.11910 -0.18327
 H601 H 0.46300 -0.13936 -0.21932
 H602 H 0.46185 -0.16650 -0.28309
 H603 H 0.46624 -0.12905 -0.12731
 H604 H 0.46754 -0.09790 -0.07710
 H605 H 0.53445 -0.05234 -0.13878
 H606 H 0.53294 -0.08334 -0.18932
 C607 C 0.33299 0.50886 -0.32297
 C608 C 0.30944 0.49384 -0.32657
 C609 C 0.29709 0.49464 -0.36925
 C610 C 0.30787 0.51074 -0.40921
 C611 C 0.33148 0.52581 -0.40516
 C612 C 0.34380 0.52494 -0.36264
 C613 C 0.34659 0.50701 -0.27984
 C614 C 0.36516 0.52654 -0.25859
 C615 C 0.37936 0.52471 -0.22193
 C616 C 0.37527 0.50330 -0.20543
 C617 C 0.35610 0.48380 -0.22492
 C618 C 0.34197 0.48562 -0.26176
 C619 C 0.39176 0.50129 -0.17094
 C620 C 0.39741 0.48436 -0.18031
 C621 C 0.41404 0.48328 -0.15067
 C622 C 0.42558 0.49917 -0.11092
 C623 C 0.41958 0.51581 -0.10062
 C624 C 0.40285 0.51685 -0.13030
 H625 H 0.30058 0.48120 -0.29672
 H626 H 0.27925 0.48193 -0.37202
 H627 H 0.34049 0.53844 -0.43495
 H628 H 0.36198 0.53648 -0.36171
 H629 H 0.36898 0.54328 -0.27102
 H630 H 0.39404 0.54008 -0.20804
 H631 H 0.35225 0.46706 -0.21241
 H632 H 0.32793 0.47022 -0.27752
 H633 H 0.38952 0.47235 -0.21183
 H634 H 0.41820 0.47025 -0.15983
 H635 H 0.42805 0.52826 -0.07015
 H636 H 0.39870 0.52993 -0.12164
 C637 C 1.17384 0.66601 -0.32096
 C638 C 1.17698 0.65448 -0.36255
 C639 C 1.19016 0.66634 -0.40539
 C640 C 1.20089 0.69020 -0.40782
 C641 C 1.19769 0.70175 -0.36599
 C642 C 1.18435 0.68979 -0.32304
 C643 C 1.15863 0.65289 -0.27721
 C644 C 1.14257 0.65828 -0.25773
 C645 C 1.12636 0.64418 -0.22122
 C646 C 1.12590 0.62443 -0.20334
 C647 C 1.14265 0.61966 -0.22100
 C648 C 1.15884 0.63374 -0.25746
 C649 C 1.10715 0.60800 -0.16938
 C650 C 1.11129 0.59646 -0.12935
 C651 C 1.09330 0.57970 -0.10031
 C652 C 1.07075 0.57406 -0.11077
 C653 C 1.06670 0.58602 -0.14994
 C654 C 1.08467 0.60277 -0.17888
 H655 H 1.16874 0.63613 -0.36265
 H656 H 1.19218 0.65675 -0.43655
 H657 H 1.20477 0.71997 -0.36732
 H658 H 1.18211 0.69912 -0.29165
 H659 H 1.14191 0.67286 -0.27236
 H660 H 1.11386 0.64848 -0.20778
 H661 H 1.14268 0.60450 -0.20836
 H662 H 1.17121 0.62934 -0.27121
 H663 H 1.12846 0.60029 -0.12073
 H664 H 1.09706 0.57093 -0.07022
 H665 H 1.04957 0.58217 -0.15906
 H666 H 1.08085 0.61108 -0.20993
 C667 C 0.83077 0.50316 -0.32378
 C668 C 0.84024 0.52059 -0.36096
 C669 C 0.82748 0.52046 -0.40364
 C670 C 0.80468 0.50317 -0.40970
 C671 C 0.79527 0.48563 -0.37244
 C672 C 0.80816 0.48565 -0.32997
 C673 C 0.84488 0.50290 -0.28005
 C674 C 0.84481 0.48285 -0.26674
 C675 C 0.85977 0.48312 -0.22901
 C676 C 0.87506 0.50345 -0.20370
 C677 C 0.87436 0.52327 -0.21540
 C678 C 0.85950 0.52301 -0.25327
 C679 C 0.89284 0.50438 -0.16842
 C680 C 0.91515 0.52282 -0.17113
 C681 C 0.93245 0.52310 -0.14142
 C682 C 0.92794 0.50492 -0.10818
 C683 C 0.90549 0.48673 -0.10421
 C684 C 0.88813 0.48645 -0.13411
 H685 H 0.85776 0.53409 -0.35771
 H686 H 0.83539 0.53416 -0.43161
 H687 H 0.77818 0.47143 -0.37709
 H688 H 0.80049 0.47191 -0.30208
 H689 H 0.83388 0.46715 -0.28713
 H690 H 0.86007 0.46763 -0.22140
 H691 H 0.88560 0.53911 -0.19586
 H692 H 0.85963 0.53864 -0.26214
 H693 H 0.91946 0.53674 -0.19768
 H694 H 0.94951 0.53740 -0.14545
 H695 H 0.90143 0.47245 -0.07900
 H696 H 0.87105 0.47210 -0.13077
 C697 C 0.50072 0.33229 -0.32312
 C698 C 0.48319 0.32440 -0.36009
 C699 C 0.48302 0.31157 -0.40255
 C700 C 0.50013 0.30582 -0.40878
 C701 C 0.51776 0.31383 -0.37170
 C702 C 0.51805 0.32693 -0.32934
 C703 C 0.50118 0.34688 -0.27972
 C704 C 0.52129 0.36701 -0.26713
 C705 C 0.52097 0.38212 -0.23064
 C706 C 0.50055 0.37734 -0.20605
 C707 C 0.48073 0.35663 -0.21669
 C708 C 0.48104 0.34159 -0.25318
 C709 C 0.49944 0.39455 -0.17262
 C710 C 0.48113 0.39851 -0.17774
 C711 C 0.48035 0.41539 -0.14858
 C712 C 0.49784 0.42873 -0.11340
 C713 C 0.51605 0.42460 -0.10763
 C714 C 0.51688 0.40772 -0.13713
 H715 H 0.46985 0.32864 -0.35684
 H716 H 0.46923 0.30583 -0.43034
 H717 H 0.53180 0.31069 -0.37646
 H718 H 0.53187 0.33298 -0.30159
 H719 H 0.53700 0.37158 -0.28733
 H720 H 0.53646 0.39803 -0.22356
 H721 H 0.46485 0.35227 -0.19754
 H722 H 0.46539 0.32599 -0.26147
 H723 H 0.46763 0.38893 -0.20539
 H724 H 0.46607 0.41809 -0.15402
 H725 H 0.52984 0.43463 -0.08097
 H726 H 0.53114 0.40495 -0.13219
 C727 C 0.66882 0.17042 -0.32025
 C728 C 0.67920 0.16216 -0.35441
 C729 C 0.69191 0.17513 -0.39677
 C730 C 0.69464 0.19667 -0.40564
 C731 C 0.68476 0.20525 -0.37116
 C732 C 0.67194 0.19223 -0.32875
 C733 C 0.65374 0.15568 -0.27802
 C734 C 0.63278 0.15443 -0.26816
 C735 C 0.61748 0.13876 -0.23236
 C736 C 0.62280 0.12399 -0.20571
 C737 C 0.64413 0.12589 -0.21399
 C738 C 0.65944 0.14157 -0.24971
 C739 C 0.60563 0.10576 -0.17197
 C740 C 0.60241 0.08372 -0.17476
 C741 C 0.58542 0.06613 -0.14548
 C742 C 0.57130 0.07016 -0.11250
 C743 C 0.57477 0.09230 -0.10894
 C744 C 0.59171 0.10990 -0.13852
 H745 H 0.67680 0.14530 -0.34952
 H746 H 0.69924 0.16818 -0.42340
 H747 H 0.68654 0.22177 -0.37785
 H748 H 0.66427 0.19910 -0.30293
 H749 H 0.62777 0.16487 -0.28979
 H750 H 0.60107 0.13753 -0.22723
 H751 H 0.64887 0.11502 -0.19330
 H752 H 0.67563 0.14243 -0.25575
 H753 H 0.61263 0.07992 -0.20074
 H754 H 0.58323 0.04930 -0.14914
 H755 H 0.56414 0.09597 -0.08402
 H756 H 0.59391 0.12675 -0.13533
 C757 C 1.16915 0.49936 -0.32376
 C758 C 1.19141 0.51715 -0.33272
 C759 C 1.20395 0.51635 -0.37512
 C760 C 1.19452 0.49767 -0.40944
 C761 C 1.17208 0.48007 -0.40053
 C762 C 1.15968 0.48080 -0.35805
 C763 C 1.15522 0.50036 -0.28045
 C764 C 1.14113 0.48079 -0.25139
 C765 C 1.12591 0.48085 -0.21496
 C766 C 1.12441 0.50047 -0.20680
 C767 C 1.13933 0.52040 -0.23387
 C768 C 1.15461 0.52035 -0.27037
 C769 C 1.10615 0.49958 -0.17336
 C770 C 1.11031 0.51759 -0.13981
 C771 C 1.09262 0.51690 -0.11032
 C772 C 1.07041 0.49828 -0.11424
 C773 C 1.06638 0.48025 -0.14755
 C774 C 1.08402 0.48088 -0.17661
 H775 H 1.19905 0.53176 -0.30715
 H776 H 1.22072 0.53075 -0.38216
 H777 H 1.16415 0.46552 -0.42630
 H778 H 1.14239 0.46705 -0.35280
 H779 H 1.14157 0.46528 -0.25763
 H780 H 1.11495 0.46537 -0.19388
 H781 H 1.13843 0.53573 -0.22871
 H782 H 1.16514 0.53563 -0.29249
 H783 H 1.12723 0.53218 -0.13638
 H784 H 1.09626 0.53110 -0.08514
 H785 H 1.04950 0.46564 -0.15151
 H786 H 1.08019 0.46691 -0.20273
 C787 C 0.50525 0.67185 -0.32979
 C788 C 0.48841 0.67804 -0.33310
 C789 C 0.48867 0.69184 -0.37382
 C790 C 0.50584 0.69983 -0.41211
 C791 C 0.52287 0.69388 -0.40791
 C792 C 0.52273 0.68037 -0.36708
 C793 C 0.50430 0.65582 -0.28927
 C794 C 0.51046 0.63953 -0.30205
 C795 C 0.51068 0.62501 -0.26420
 C796 C 0.50454 0.62621 -0.21263
 C797 C 0.49757 0.64189 -0.19988
 C798 C 0.49754 0.65665 -0.23787
 C799 C 0.50579 0.61115 -0.17286
 C800 C 0.48758 0.59841 -0.13881
 C801 C 0.48794 0.58215 -0.10599
 C802 C 0.50658 0.57849 -0.10660
 C803 C 0.52528 0.59221 -0.13864
 C804 C 0.52487 0.60831 -0.17135
 H805 H 0.47451 0.67147 -0.30545
 H806 H 0.47476 0.69527 -0.37684
 H807 H 0.53650 0.69988 -0.43623
 H808 H 0.53630 0.67642 -0.36501
 H809 H 0.51506 0.63791 -0.34153
 H810 H 0.51558 0.61270 -0.27534
 H811 H 0.49275 0.64311 -0.16034
 H812 H 0.49276 0.66905 -0.22676
 H813 H 0.47265 0.60027 -0.13935
 H814 H 0.47324 0.57183 -0.08182
 H815 H 0.54004 0.59007 -0.13974
 H816 H 0.53931 0.61822 -0.19654
 C817 C 0.33584 -0.17662 -0.32231
 C818 C 0.31207 -0.18689 -0.32415
 C819 C 0.29989 -0.20110 -0.36578
 C820 C 0.31122 -0.20567 -0.40597
 C821 C 0.33502 -0.19600 -0.40229
 C822 C 0.34711 -0.18170 -0.36113
 C823 C 0.34922 -0.15913 -0.28285
 C824 C 0.36741 -0.13818 -0.29898
 C825 C 0.38032 -0.12142 -0.26266
 C826 C 0.37548 -0.12530 -0.20930
 C827 C 0.35734 -0.14630 -0.19290
 C828 C 0.34412 -0.16303 -0.22954
 C829 C 0.38976 -0.10735 -0.17153
 C830 C 0.39958 -0.11209 -0.12880
 C831 C 0.41549 -0.09444 -0.09742
 C832 C 0.42167 -0.07177 -0.10806
 C833 C 0.41084 -0.06731 -0.14921
 C834 C 0.39515 -0.08488 -0.18066
 H835 H 0.30307 -0.18292 -0.29494
 H836 H 0.28180 -0.20731 -0.36805
 H837 H 0.34440 -0.19937 -0.43171
 H838 H 0.36543 -0.17417 -0.36016
 H839 H 0.37152 -0.13470 -0.33991
 H840 H 0.39435 -0.10547 -0.27623
 H841 H 0.35330 -0.14962 -0.15192
 H842 H 0.33016 -0.17910 -0.21631
 H843 H 0.39575 -0.12929 -0.12119
 H844 H 0.42348 -0.09847 -0.06598
 H845 H 0.41504 -0.05012 -0.15843
 H846 H 0.38758 -0.08086 -0.21306
 C847 C 0.49806 -0.16842 0.32554
 C848 C 0.51744 -0.16239 0.35612
 C849 C 0.51652 -0.17611 0.39740
 C850 C 0.49631 -0.19621 0.40856
 C851 C 0.47712 -0.20280 0.37724
 C852 C 0.47798 -0.18900 0.33589
 C853 C 0.49859 -0.15256 0.28520
 C854 C 0.48772 -0.16047 0.23688
 C855 C 0.48836 -0.14520 0.19944
 C856 C 0.49988 -0.12176 0.20970
 C857 C 0.51050 -0.11398 0.25824
 C858 C 0.50986 -0.12915 0.29544
 C859 C 0.50069 -0.10523 0.17085
 C860 C 0.52067 -0.08417 0.16483
 C861 C 0.52091 -0.06740 0.13332
 C862 C 0.50124 -0.07133 0.10659
 C863 C 0.48157 -0.09283 0.11013
 C864 C 0.48129 -0.10963 0.14211
 H865 H 0.53325 -0.14686 0.34857
 H866 H 0.53146 -0.17085 0.42133
 H867 H 0.46135 -0.21824 0.38575
 H868 H 0.46274 -0.19398 0.31334
 H869 H 0.47901 -0.17841 0.22779
 H870 H 0.48012 -0.15168 0.16228
 H871 H 0.51900 -0.09610 0.26791
 H872 H 0.51789 -0.12255 0.33274
 H873 H 0.53605 -0.08048 0.18544
 H874 H 0.53644 -0.05114 0.13078
 H875 H 0.46613 -0.09633 0.09006
 H876 H 0.46562 -0.12566 0.14613
 C877 C 0.32998 0.50488 0.31422
 C878 C 0.32670 0.52352 0.32190
 C879 C 0.31479 0.52443 0.36549
 C880 C 0.30607 0.50675 0.40199
 C881 C 0.30910 0.48806 0.39421
 C882 C 0.32088 0.48708 0.35066
 C883 C 0.34381 0.50435 0.27004
 C884 C 0.33734 0.48399 0.24331
 C885 C 0.35161 0.48286 0.20570
 C886 C 0.37269 0.50206 0.19404
 C887 C 0.37869 0.52269 0.21906
 C888 C 0.36439 0.52382 0.25665
 C889 C 0.38913 0.50016 0.15919
 C890 C 0.40282 0.51768 0.12440
 C891 C 0.41964 0.51660 0.09512
 C892 C 0.42318 0.49802 0.10028
 C893 C 0.40899 0.48020 0.13388
 C894 C 0.39218 0.48126 0.16294
 H895 H 0.33341 0.53740 0.29433
 H896 H 0.31265 0.53902 0.37121
 H897 H 0.30259 0.47437 0.42232
 H898 H 0.32346 0.47270 0.34635
 H899 H 0.32139 0.46881 0.25212
 H900 H 0.34633 0.46683 0.18638
 H901 H 0.39493 0.53771 0.21141
 H902 H 0.36995 0.53969 0.27696
 H903 H 0.40071 0.53235 0.12029
 H904 H 0.43025 0.53061 0.06955
 H905 H 0.41121 0.46562 0.13880
 H906 H 0.38215 0.46763 0.18990
 C907 C 1.17394 0.66737 0.31662
 C908 C 1.18211 0.65695 0.35080
 C909 C 1.19553 0.66877 0.39344
 C910 C 1.20105 0.69123 0.40296
 C911 C 1.19325 0.70188 0.36867
 C912 C 1.17994 0.69011 0.32564
 C913 C 1.15803 0.65398 0.27404
 C914 C 1.13926 0.65659 0.26236
 C915 C 1.12286 0.64221 0.22664
 C916 C 1.12471 0.62472 0.20210
 C917 C 1.14400 0.62277 0.21201
 C918 C 1.16052 0.63730 0.24736
 C919 C 1.10590 0.60767 0.16919
 C920 C 1.11037 0.59832 0.12499
 C921 C 1.09253 0.58122 0.09627
 C922 C 1.06981 0.57320 0.11099
 C923 C 1.06537 0.58285 0.15462
 C924 C 1.08318 0.59980 0.18343
 H925 H 1.17744 0.63935 0.34580
 H926 H 1.20119 0.66020 0.41986
 H927 H 1.19710 0.71913 0.37584
 H928 H 1.17410 0.69870 0.29985
 H929 H 1.13669 0.66914 0.28239
 H930 H 1.10844 0.64448 0.21911
 H931 H 1.14593 0.60943 0.19409
 H932 H 1.17499 0.63510 0.25470
 H933 H 1.12768 0.60419 0.11260
 H934 H 1.09655 0.57423 0.06271
 H935 H 1.04810 0.57702 0.16724
 H936 H 1.07909 0.60626 0.21781
 C937 C 0.50345 0.17209 0.32494
 C938 C 0.52317 0.19342 0.33094
 C939 C 0.52475 0.20786 0.37163
 C940 C 0.50658 0.20118 0.40643
 C941 C 0.48661 0.18033 0.39930
 C942 C 0.48501 0.16595 0.35883
 C943 C 0.50247 0.15553 0.28595
 C944 C 0.49332 0.13268 0.30007
 C945 C 0.49204 0.11678 0.26405
 C946 C 0.49979 0.12327 0.21278
 C947 C 0.50935 0.14622 0.19869
 C948 C 0.51070 0.16223 0.23502
 C949 C 0.49779 0.10589 0.17482
 C950 C 0.51549 0.11034 0.13985
 C951 C 0.51418 0.09309 0.10769
 C952 C 0.49522 0.07106 0.11021
 C953 C 0.47716 0.06696 0.14358
 C954 C 0.47839 0.08416 0.17524
 H955 H 0.53768 0.19849 0.30564
 H956 H 0.54035 0.22385 0.37706
 H957 H 0.47248 0.17496 0.42601
 H958 H 0.46949 0.14979 0.35465
 H959 H 0.48738 0.12711 0.33938
 H960 H 0.48519 0.09938 0.27660
 H961 H 0.51537 0.15171 0.15942
 H962 H 0.51779 0.17974 0.22308
 H963 H 0.53069 0.12690 0.13872
 H964 H 0.52830 0.09682 0.08214
 H965 H 0.46214 0.05030 0.14591
 H966 H 0.46420 0.08035 0.20069
 C967 C 0.65971 0.48419 0.32567
 C968 C 0.65227 0.46515 0.35809
 C969 C 0.66616 0.46512 0.39810
 C970 C 0.68772 0.48414 0.40655
 C971 C 0.69543 0.50295 0.37330
 C972 C 0.68164 0.50288 0.33284
 C973 C 0.64395 0.48534 0.28762
 C974 C 0.65111 0.49337 0.23678
 C975 C 0.63643 0.49563 0.20223
 C976 C 0.61455 0.49032 0.21837
 C977 C 0.60732 0.48200 0.26891
 C978 C 0.62181 0.47940 0.30307
 C979 C 0.59946 0.49413 0.18352
 C980 C 0.58896 0.50609 0.20178
 C981 C 0.57420 0.50929 0.16984
 C982 C 0.56935 0.50031 0.11916
 C983 C 0.58001 0.48849 0.10070
 C984 C 0.59511 0.48561 0.13248
 H985 H 0.63548 0.45050 0.35318
 H986 H 0.65981 0.45055 0.42365
 H987 H 0.71179 0.51800 0.37993
 H988 H 0.68764 0.51788 0.30885
 H989 H 0.66808 0.49798 0.22394
 H990 H 0.64237 0.50213 0.16344
 H991 H 0.59045 0.47762 0.28206
 H992 H 0.61595 0.47339 0.34219
 H993 H 0.59221 0.51297 0.24089
 H994 H 0.56617 0.51836 0.18535
 H995 H 0.57661 0.48138 0.06181
 H996 H 0.60298 0.47627 0.11768
 C997 C 0.83138 0.32660 0.31821
 C998 C 0.81105 0.32639 0.33018
 C999 C 0.79762 0.31365 0.37223
 C1000 C 0.80426 0.30087 0.40269
 C1001 C 0.82406 0.30041 0.38979
 C1002 C 0.83742 0.31303 0.34777
 C1003 C 0.84706 0.34201 0.27756
 C1004 C 0.87060 0.35389 0.28674
 C1005 C 0.88559 0.36876 0.24958
 C1006 C 0.87749 0.37219 0.20210
 C1007 C 0.85392 0.36044 0.19284
 C1008 C 0.83884 0.34549 0.23024
 C1009 C 0.89382 0.38841 0.16346
 C1010 C 0.88921 0.40365 0.13650
 C1011 C 0.90591 0.42068 0.10508
 C1012 C 0.92751 0.42281 0.10039
 C1013 C 0.93161 0.40679 0.12508
 C1014 C 0.91495 0.38976 0.15598
 H1015 H 0.80605 0.33682 0.30851
 H1016 H 0.78247 0.31433 0.38212
 H1017 H 0.82942 0.29064 0.41304
 H1018 H 0.85275 0.31251 0.33900
 H1019 H 0.87746 0.35208 0.32329
 H1020 H 0.90357 0.37796 0.25857
 H1021 H 0.84718 0.36263 0.15651
 H1022 H 0.82079 0.33648 0.22195
 H1023 H 0.87311 0.40309 0.14160
 H1024 H 0.90226 0.43277 0.08648
 H1025 H 0.94794 0.40772 0.12155
 H1026 H 0.91882 0.37791 0.17506
   
