data_POSCAR
  _audit_creation_date              2014-09-24
  _audit_creation_method            'ToBaCCo'
  _symmetry_space_group_name_H-M    'P1'
  _symmetry_Int_Tables_number       1
  _symmetry_cell_setting            triclinic
  loop_
  _symmetry_equiv_pos_as_xyz
 x,y,z
_cell_length_a 41.6945
_cell_length_b 41.7133
_cell_length_c 41.6293
_cell_angle_alpha 90.001500
_cell_angle_beta 90.067200
_cell_angle_gamma 90.014400
loop_
  _atom_site_label
  _atom_site_type_symbol
  _atom_site_fract_x
  _atom_site_fract_y
  _atom_site_fract_z
C1 C 0.17163 0.17022 0.21159
 N2 N 0.15855 0.19685 0.19805
 C3 C 0.17169 0.21035 0.17145
 N4 N 0.19829 0.19691 0.15830
 C5 C 0.21181 0.17027 0.17140
 N6 N 0.19826 0.15714 0.19804
 C7 C -0.17140 0.82960 0.21113
 N8 N -0.15834 0.80297 0.19760
 C9 C -0.17151 0.78947 0.17099
 N10 N -0.19814 0.80290 0.15782
 C11 C -0.21165 0.82953 0.17091
 N12 N -0.19806 0.84267 0.19757
 C13 C -0.17198 0.17055 -0.21081
 N14 N -0.15882 0.19712 -0.19731
 C15 C -0.17196 0.21060 -0.17070
 N16 N -0.19860 0.19718 -0.15759
 C17 C -0.21217 0.17057 -0.17074
 N18 N -0.19863 0.15745 -0.19739
 C19 C 0.17122 0.82945 -0.21141
 N20 N 0.15817 0.80282 -0.19787
 C21 C 0.17135 0.78937 -0.17123
 N22 N 0.19796 0.80284 -0.15807
 C23 C 0.21145 0.82948 -0.17118
 N24 N 0.19787 0.84256 -0.19785
 C25 C 0.16996 1.17161 0.78855
 N26 N 0.15688 1.19826 0.80207
 C27 C 0.17000 1.21180 0.82876
 N28 N 0.19661 1.19826 0.84192
 C29 C 0.21004 1.17165 0.82880
 N30 N 0.19658 1.15852 0.80216
 C31 C 0.82924 0.82939 0.78803
 N32 N 0.84234 0.80277 0.80162
 C33 C 0.82920 0.78933 0.82826
 N34 N 0.80260 0.80279 0.84139
 C35 C 0.78915 0.82937 0.82820
 N36 N 0.80261 0.84248 0.80156
 C37 C 0.17054 0.82847 1.21160
 N38 N 0.15746 0.80180 1.19807
 C39 C 0.17056 0.78825 1.17141
 N40 N 0.19717 0.80180 1.15830
 C41 C 0.21061 0.82842 1.17143
 N42 N 0.19715 0.84157 1.19804
 C43 C 0.82986 1.17152 1.21122
 N44 N 0.80320 1.15846 1.19767
 C45 C 0.78966 1.17166 1.17109
 N46 N 0.80308 1.19830 1.15798
 C47 C 0.82974 1.21180 1.17110
 N48 N 0.84291 1.19819 1.19772
 N49 N 0.53337 1.05698 0.96549
 N50 N 0.55767 1.07685 0.96141
 N51 N 0.46582 1.03467 0.94328
 N52 N 0.44146 1.03878 0.92340
 N53 N 0.46587 1.05689 0.96563
 N54 N 0.44155 1.07676 0.96160
 N55 N 0.53332 1.03475 0.94314
 N56 N 0.55759 1.03886 0.92322
 C57 C 0.57243 1.06519 0.93498
 C58 C 0.42667 1.06509 0.93520
 N59 N 0.46598 0.94329 0.96543
 N60 N 0.44168 0.92340 0.96133
 N61 N 0.53338 0.96569 0.94303
 N62 N 0.55764 0.96168 0.92307
 N63 N 0.53348 0.94339 0.96530
 N64 N 0.55781 0.92357 0.96114
 N65 N 0.46589 0.96560 0.94316
 N66 N 0.44153 0.96152 0.92328
 Mn67 Mn 0.49960 1.00018 0.94277
 C68 C 0.42678 0.93513 0.93497
 C69 C 0.57253 0.93534 0.93473
 N70 N 0.46607 1.05678 1.03482
 N71 N 0.44174 1.07660 1.03899
 N72 N 0.53367 1.03458 1.05697
 N73 N 0.55804 1.03867 1.07683
 N74 N 0.53357 1.05687 1.03469
 N75 N 0.55786 1.07678 1.03875
 N76 N 0.46616 1.03448 1.05710
 N77 N 0.44190 1.03849 1.07706
 Mn78 Mn 0.49972 1.05726 1.00016
 C79 C 0.42702 1.06483 1.06539
 C80 C 0.57278 1.06506 1.06510
 N81 N 0.53371 0.94327 1.03451
 N82 N 0.55804 0.92341 1.03855
 N83 N 0.46625 0.96541 1.05699
 N84 N 0.44198 0.96128 1.07691
 N85 N 0.46621 0.94318 1.03464
 N86 N 0.44191 0.92330 1.03871
 N87 N 0.53375 0.96551 1.05686
 N88 N 0.55810 0.96141 1.07674
 Mn89 Mn 0.49984 0.94290 0.99997
 Mn90 Mn 0.49996 0.99999 1.05736
 Cl91 Cl 0.49978 1.00008 1.00007
 C92 C 0.57291 0.93509 1.06496
 C93 C 0.42715 0.93495 1.06515
 N94 N 0.03481 0.46622 0.05722
 N95 N 0.03890 0.44191 0.07712
 N96 N 0.05710 0.53368 0.03488
 N97 N 0.07698 0.55799 0.03896
 N98 N 0.03485 0.53369 0.05719
 N99 N 0.03895 0.55800 0.07708
 N100 N 0.05705 0.46620 0.03490
 N101 N 0.07691 0.44188 0.03897
 C102 C 0.06522 0.42708 0.06537
 C103 C 0.06529 0.57281 0.06535
 N104 N 0.03470 0.53363 -0.05664
 N105 N 0.03877 0.55793 -0.07655
 N106 N 0.05695 0.46615 -0.03432
 N107 N 0.07680 0.44183 -0.03844
 N108 N 0.03463 0.46616 -0.05661
 N109 N 0.03866 0.44187 -0.07653
 N110 N 0.05701 0.53363 -0.03433
 N111 N 0.07689 0.55793 -0.03843
 Mn112 Mn 0.05741 0.49991 0.00028
 C113 C 0.06515 0.57273 -0.06483
 C114 C 0.06502 0.42704 -0.06483
 N115 N -0.03425 0.53373 0.05720
 N116 N -0.03832 0.55805 0.07709
 N117 N -0.05660 0.46626 0.03493
 N118 N -0.07649 0.44196 0.03903
 N119 N -0.03429 0.46625 0.05724
 N120 N -0.03837 0.44196 0.07715
 N121 N -0.05655 0.53372 0.03488
 N122 N -0.07642 0.55802 0.03895
 Mn123 Mn 0.00028 0.49997 0.05760
 C124 C -0.06469 0.57284 0.06534
 C125 C -0.06475 0.42716 0.06543
 N126 N -0.03446 0.46620 -0.05659
 N127 N -0.03861 0.44188 -0.07647
 N128 N -0.05664 0.53370 -0.03431
 N129 N -0.07649 0.55802 -0.03841
 N130 N -0.03439 0.53367 -0.05662
 N131 N -0.03847 0.55796 -0.07654
 N132 N -0.05670 0.46624 -0.03426
 N133 N -0.07661 0.44195 -0.03832
 Mn134 Mn 0.00012 0.49991 -0.05700
 Mn135 Mn -0.05700 0.49998 0.00031
 Cl136 Cl 0.00020 0.49995 0.00030
 C137 C -0.06496 0.42711 -0.06470
 C138 C -0.06479 0.57280 -0.06482
 N139 N 0.94344 -0.03464 0.46574
 N140 N 0.92358 -0.03872 0.44136
 N141 N 0.96552 -0.05689 0.53344
 N142 N 0.96137 -0.07673 0.55779
 N143 N 0.94327 -0.03461 0.53334
 N144 N 0.92333 -0.03866 0.55763
 N145 N 0.96568 -0.05693 0.46582
 N146 N 0.96158 -0.07683 0.44149
 C147 C 0.93526 -0.06509 0.42657
 C148 C 0.93499 -0.06500 0.57253
 N149 N 1.05692 -0.03469 0.53376
 N150 N 1.07677 -0.03878 0.55816
 N151 N 1.03478 -0.05699 0.46609
 N152 N 1.03887 -0.07687 0.44176
 N153 N 1.05709 -0.03475 0.46615
 N154 N 1.07700 -0.03887 0.44185
 N155 N 1.03463 -0.05694 0.53370
 N156 N 1.03867 -0.07682 0.55806
 Mn157 Mn 1.00015 -0.05732 0.49976
 C158 C 1.06502 -0.06512 0.57297
 C159 C 1.06526 -0.06521 0.42699
 N160 N 0.94334 0.03444 0.53328
 N161 N 0.92340 0.03851 0.55756
 N162 N 0.96582 0.05666 0.46576
 N163 N 0.96179 0.07657 0.44143
 N164 N 0.94351 0.03442 0.46568
 N165 N 0.92367 0.03856 0.44129
 N166 N 0.96562 0.05670 0.53337
 N167 N 0.96149 0.07656 0.55771
 Mn168 Mn 0.94301 -0.00010 0.49951
 C169 C 0.93509 0.06485 0.57245
 C170 C 0.93545 0.06491 0.42651
 N171 N 1.05716 0.03432 0.46612
 N172 N 1.07710 0.03836 0.44184
 N173 N 1.03471 0.05666 0.53362
 N174 N 1.03875 0.07658 0.55794
 N175 N 1.05698 0.03439 0.53373
 N176 N 1.07680 0.03853 0.55815
 N177 N 1.03491 0.05661 0.46602
 N178 N 1.03908 0.07645 0.44166
 Mn179 Mn 1.05742 -0.00018 0.49994
 Mn180 Mn 1.00027 0.05704 0.49969
 Cl181 Cl 1.00021 -0.00014 0.49973
 C182 C 1.06546 0.06470 0.42693
 C183 C 1.06506 0.06491 0.57290
 C184 C 1.15770 0.11530 0.28096
 C185 C 1.13039 0.12902 0.29475
 C186 C 1.11671 0.15634 0.28092
 C187 C 1.13027 0.16997 0.25343
 C188 C 1.15787 0.15645 0.23923
 C189 C 1.17135 0.12883 0.25346
 C190 C 1.11644 0.11512 0.32312
 C191 C 1.10475 0.10353 0.34691
 C192 C 1.09106 0.09000 0.37478
 C193 C 1.07937 0.07846 0.39859
 H194 H 1.16848 0.09413 0.29149
 H195 H 1.09555 0.16716 0.29142
 H196 H 1.11902 0.19114 0.24342
 H197 H 1.19251 0.11757 0.24347
 C198 C 0.88370 -0.15659 0.28046
 C199 C 0.87007 -0.12929 0.29431
 C200 C 0.84272 -0.11554 0.28055
 C201 C 0.82898 -0.12905 0.25304
 C202 C 0.84243 -0.15665 0.23878
 C203 C 0.87006 -0.17019 0.25296
 C204 C 0.88411 -0.11544 0.32270
 C205 C 0.89589 -0.10390 0.34650
 C206 C 0.90967 -0.09043 0.37438
 C207 C 0.92139 -0.07890 0.39821
 H208 H 0.90488 -0.16743 0.29093
 H209 H 0.83198 -0.09438 0.29111
 H210 H 0.80780 -0.11777 0.24307
 H211 H 0.88128 -0.19136 0.24292
 C212 C 0.84261 0.11515 0.71833
 C213 C 0.86999 0.12888 0.70464
 C214 C 0.88371 0.15615 0.71858
 C215 C 0.87010 0.16970 0.74609
 C216 C 0.84252 0.15611 0.76007
 C217 C 0.82895 0.12863 0.74585
 C218 C 0.88399 0.11506 0.67626
 C219 C 0.89573 0.10355 0.65246
 C220 C 0.90948 0.09011 0.62459
 C221 C 0.92119 0.07861 0.60078
 H222 H 0.83180 0.09402 0.70773
 H223 H 0.90491 0.16698 0.70817
 H224 H 0.88121 0.19082 0.75635
 H225 H 0.80775 0.11753 0.75593
 C226 C 1.11620 -0.15679 0.71917
 C227 C 1.12985 -0.12947 0.70534
 C228 C 1.15718 -0.11572 0.71914
 C229 C 1.17087 -0.12921 0.74666
 C230 C 1.15741 -0.15682 0.76091
 C231 C 1.12980 -0.17038 0.74670
 C232 C 1.11586 -0.11561 0.67692
 C233 C 1.10416 -0.10404 0.65311
 C234 C 1.09048 -0.09051 0.62520
 C235 C 1.07884 -0.07895 0.60136
 H236 H 1.09503 -0.16763 0.70867
 H237 H 1.16794 -0.09454 0.70860
 H238 H 1.19204 -0.11791 0.75666
 H239 H 1.11857 -0.19155 0.75672
 C240 C 0.28115 1.15649 1.11649
 C241 C 0.29493 1.12916 1.13019
 C242 C 0.28113 1.11541 1.15751
 C243 C 0.25365 1.12892 1.17115
 C244 C 0.23945 1.15654 1.15764
 C245 C 0.25367 1.17009 1.13003
 C246 C 0.32330 1.11527 1.11626
 C247 C 0.34707 1.10368 1.10460
 C248 C 0.37492 1.09013 1.09096
 C249 C 0.39870 1.07858 1.07930
 H250 H 0.29166 1.16732 1.09532
 H251 H 0.29163 1.09423 1.16832
 H252 H 0.24364 1.11763 1.19232
 H253 H 0.24368 1.19127 1.11876
 C254 C 0.28083 0.84333 0.88383
 C255 C 0.29461 0.87065 0.87012
 C256 C 0.28079 0.88437 0.84277
 C257 C 0.25329 0.87084 0.82909
 C258 C 0.23910 0.84323 0.84261
 C259 C 0.25334 0.82971 0.87025
 C260 C 0.32299 0.88455 0.88409
 C261 C 0.34677 0.89615 0.89579
 C262 C 0.37464 0.90972 0.90946
 C263 C 0.39844 0.92130 0.92112
 H264 H 0.29136 0.83252 0.90502
 H265 H 0.29128 0.90554 0.83196
 H266 H 0.24327 0.88211 0.80790
 H267 H 0.24336 0.80854 0.88152
 C268 C 0.71898 0.88436 1.15698
 C269 C 0.70514 0.87061 1.12964
 C270 C 0.71892 0.84329 1.11595
 C271 C 0.74642 0.82969 1.12951
 C272 C 0.76068 0.84325 1.15713
 C273 C 0.74649 0.87086 1.17064
 C274 C 0.67675 0.88450 1.11569
 C275 C 0.65296 0.89610 1.10403
 C276 C 0.62508 0.90967 1.09040
 C277 C 0.60126 0.92126 1.07878
 H278 H 0.70849 0.90554 1.16778
 H279 H 0.70838 0.83245 1.09477
 H280 H 0.75640 0.80853 1.11825
 H281 H 0.75652 0.88216 1.19181
 C282 C 0.71844 1.15684 0.88411
 C283 C 0.70460 1.12956 0.87037
 C284 C 0.71839 1.11582 0.84304
 C285 C 0.74591 1.12929 0.82943
 C286 C 0.76015 1.15687 0.84298
 C287 C 0.74596 1.17042 0.87060
 C288 C 0.67621 1.11569 0.88428
 C289 C 0.65243 1.10411 0.89591
 C290 C 0.62456 1.09056 0.90953
 C291 C 0.60076 1.07899 0.92115
 H292 H 0.70794 1.16767 0.90529
 H293 H 0.70785 1.09467 0.83220
 H294 H 0.75590 1.11801 0.80825
 H295 H 0.75598 1.19156 0.88190
 C296 C 0.15719 0.28113 0.11597
 C297 C 0.12986 0.29488 0.12972
 C298 C 0.11613 0.28100 0.15704
 C299 C 0.12969 0.25349 0.17061
 C300 C 0.15722 0.23946 0.15700
 C301 C 0.17080 0.25362 0.12948
 C302 C 0.11593 0.32327 0.11586
 C303 C 0.10428 0.34706 0.10428
 C304 C 0.09066 0.37493 0.09075
 C305 C 0.07904 0.39874 0.07918
 H306 H 0.16801 0.29168 0.09481
 H307 H 0.09497 0.29146 0.16788
 H308 H 0.11858 0.24328 0.19176
 H309 H 0.19196 0.24350 0.11836
 C310 C -0.15733 0.28132 -0.11516
 C311 C -0.12997 0.29503 -0.12891
 C312 C -0.11626 0.28114 -0.15622
 C313 C -0.12987 0.25366 -0.16980
 C314 C -0.15744 0.23967 -0.15621
 C315 C -0.17100 0.25383 -0.12869
 C316 C -0.11598 0.32338 -0.11505
 C317 C -0.10426 0.34716 -0.10350
 C318 C -0.09054 0.37501 -0.09001
 C319 C -0.07885 0.39880 -0.07848
 H320 H -0.16814 0.29189 -0.09401
 H321 H -0.09507 0.29156 -0.16705
 H322 H -0.11877 0.24344 -0.19096
 H323 H -0.19219 0.24374 -0.11759
 C324 C 0.11586 0.71866 -0.15676
 C325 C 0.12963 0.70485 -0.12940
 C326 C 0.15697 0.71867 -0.11564
 C327 C 0.17054 0.74617 -0.12919
 C328 C 0.15691 0.76026 -0.15675
 C329 C 0.12937 0.74616 -0.17036
 C330 C 0.11575 0.67648 -0.11548
 C331 C 0.10413 0.65270 -0.10386
 C332 C 0.09054 0.62484 -0.09028
 C333 C 0.07895 0.60105 -0.07867
 H334 H 0.09469 0.70816 -0.16760
 H335 H 0.16782 0.70817 -0.09445
 H336 H 0.19171 0.75634 -0.11806
 H337 H 0.11824 0.75633 -0.19155
 C338 C -0.15697 0.71866 0.11558
 C339 C -0.12960 0.70497 0.12938
 C340 C -0.11587 0.71890 0.15670
 C341 C -0.12946 0.74639 0.17022
 C342 C -0.15703 0.76037 0.15657
 C343 C -0.17062 0.74617 0.12904
 C344 C -0.11562 0.67660 0.11558
 C345 C -0.10391 0.65282 0.10408
 C346 C -0.09020 0.62496 0.09063
 C347 C -0.07852 0.60117 0.07912
 H348 H -0.16779 0.70806 0.09442
 H349 H -0.09468 0.70849 0.16759
 H350 H -0.11834 0.75664 0.19138
 H351 H -0.19181 0.75624 0.11789
 C352 C 1.15625 0.11659 0.71920
 C353 C 1.12896 0.13022 0.70526
 C354 C 1.11519 0.15755 0.71897
 C355 C 1.12866 0.17127 0.74651
 C356 C 1.15625 0.15781 0.76086
 C357 C 1.16981 0.13019 0.74673
 C358 C 1.11515 0.11619 0.67684
 C359 C 1.10366 0.10440 0.65302
 C360 C 1.09026 0.09059 0.62512
 C361 C 1.07879 0.07883 0.60128
 H362 H 1.16710 0.09541 0.70877
 H363 H 1.09404 0.16830 0.70834
 H364 H 1.11737 0.19244 0.75644
 H365 H 1.19096 0.11897 0.75683
 C366 C 0.84306 -0.11579 0.71857
 C367 C 0.87037 -0.12949 0.70478
 C368 C 0.88409 -0.15678 0.71862
 C369 C 0.87058 -0.17040 0.74614
 C370 C 0.84298 -0.15688 0.76035
 C371 C 0.82945 -0.12930 0.74609
 C372 C 0.88427 -0.11558 0.67638
 C373 C 0.89589 -0.10396 0.65257
 C374 C 0.90949 -0.09037 0.62469
 C375 C 0.92112 -0.07878 0.60087
 H376 H 0.83225 -0.09463 0.70803
 H377 H 0.90526 -0.16758 0.70811
 H378 H 0.88185 -0.19154 0.75618
 H379 H 0.80829 -0.11804 0.75609
 C380 C 1.15678 -0.11653 0.28092
 C381 C 1.12949 -0.13021 0.29479
 C382 C 1.11576 -0.15755 0.28104
 C383 C 1.12924 -0.17124 0.25353
 C384 C 1.15682 -0.15775 0.23926
 C385 C 1.17036 -0.13012 0.25342
 C386 C 1.11565 -0.11621 0.32318
 C387 C 1.10411 -0.10448 0.34697
 C388 C 1.09062 -0.09076 0.37485
 C389 C 1.07908 -0.07908 0.39865
 H390 H 1.16761 -0.09534 0.29139
 H391 H 1.09461 -0.16833 0.29161
 H392 H 1.11796 -0.19242 0.24357
 H393 H 1.19150 -0.11886 0.24338
 C394 C 0.84379 0.11642 0.28045
 C395 C 0.87113 0.13006 0.29431
 C396 C 0.88485 0.15740 0.28059
 C397 C 0.87130 0.17113 0.25311
 C398 C 0.84366 0.15768 0.23884
 C399 C 0.83014 0.13004 0.25298
 C400 C 0.88504 0.11604 0.32268
 C401 C 0.89662 0.10429 0.34647
 C402 C 0.91013 0.09054 0.37434
 C403 C 0.92167 0.07882 0.39815
 H404 H 0.83298 0.09523 0.29090
 H405 H 0.90604 0.16816 0.29115
 H406 H 0.88256 0.19232 0.24316
 H407 H 0.80895 0.11882 0.24294
 C408 C 0.11525 0.28120 -0.15732
 C409 C 0.12902 0.29495 -0.12995
 C410 C 0.15632 0.28109 -0.11623
 C411 C 0.16987 0.25361 -0.12980
 C412 C 0.15630 0.23945 -0.15747
 C413 C 0.12871 0.25371 -0.17100
 C414 C 0.11521 0.32331 -0.11595
 C415 C 0.10370 0.34708 -0.10420
 C416 C 0.09026 0.37493 -0.09045
 C417 C 0.07877 0.39872 -0.07873
 H418 H 0.09409 0.29176 -0.16814
 H419 H 0.16717 0.29155 -0.09501
 H420 H 0.19102 0.24357 -0.11851
 H421 H 0.11741 0.24375 -0.19221
 C422 C -0.11540 0.28115 0.15732
 C423 C -0.12919 0.29501 0.13003
 C424 C -0.15655 0.28125 0.11630
 C425 C -0.17014 0.25374 0.12980
 C426 C -0.15654 0.23947 0.15739
 C427 C -0.12890 0.25364 0.17092
 C428 C -0.11531 0.32340 0.11613
 C429 C -0.10371 0.34719 0.10450
 C430 C -0.09015 0.37505 0.09090
 C431 C -0.07856 0.39884 0.07928
 H432 H -0.09420 0.29162 0.16814
 H433 H -0.16741 0.29181 0.09515
 H434 H -0.19134 0.24378 0.11852
 H435 H -0.11757 0.24359 0.19207
 C436 C -0.15639 0.71872 -0.11603
 C437 C -0.12907 0.70488 -0.12973
 C438 C -0.11532 0.71865 -0.15709
 C439 C -0.12883 0.74613 -0.17076
 C440 C -0.15635 0.76024 -0.15721
 C441 C -0.16995 0.74620 -0.12964
 C442 C -0.11522 0.67652 -0.11575
 C443 C -0.10365 0.65275 -0.10404
 C444 C -0.09013 0.62490 -0.09036
 C445 C -0.07858 0.60112 -0.07869
 H446 H -0.16723 0.70825 -0.09484
 H447 H -0.09417 0.70812 -0.16789
 H448 H -0.11772 0.75626 -0.19195
 H449 H -0.19111 0.75638 -0.11855
 C450 C 0.15683 0.71888 0.11647
 C451 C 0.12954 0.70504 0.13017
 C452 C 0.11579 0.71882 0.15750
 C453 C 0.12927 0.74633 0.17116
 C454 C 0.15685 0.76058 0.15765
 C455 C 0.17040 0.74639 0.13003
 C456 C 0.11570 0.67664 0.11621
 C457 C 0.10415 0.65285 0.10452
 C458 C 0.09065 0.62497 0.09084
 C459 C 0.07910 0.60116 0.07919
 H460 H 0.16766 0.70839 0.09529
 H461 H 0.09464 0.70828 0.16831
 H462 H 0.11798 0.75632 0.19234
 H463 H 0.19155 0.75642 0.11876
 C464 C 0.28074 1.15713 0.88448
 C465 C 0.29451 1.12980 0.87074
 C466 C 0.28066 1.11608 0.84337
 C467 C 0.25317 1.12964 0.82974
 C468 C 0.23913 1.15717 0.84333
 C469 C 0.25325 1.17075 0.87090
 C470 C 0.32287 1.11587 0.88466
 C471 C 0.34666 1.10422 0.89627
 C472 C 0.37452 1.09058 0.90983
 C473 C 0.39833 1.07894 0.92140
 H474 H 0.29128 1.16794 0.90567
 H475 H 0.29113 1.09491 0.83254
 H476 H 0.24298 1.11854 0.80854
 H477 H 0.24312 1.19191 0.88201
 C478 C 0.28129 0.84294 1.11588
 C479 C 0.29506 0.87028 1.12962
 C480 C 0.28123 0.88402 1.15695
 C481 C 0.25375 0.87046 1.17054
 C482 C 0.23970 0.84291 1.15695
 C483 C 0.25380 0.82932 1.12941
 C484 C 0.32343 0.88421 1.11573
 C485 C 0.34720 0.89586 1.10412
 C486 C 0.37504 0.90948 1.09055
 C487 C 0.39883 0.92111 1.07896
 H488 H 0.29181 0.83211 1.09471
 H489 H 0.29170 0.90520 1.16778
 H490 H 0.24356 0.88157 1.19171
 H491 H 0.24367 0.80814 1.11830
 C492 C 0.71876 1.15723 1.11562
 C493 C 0.70506 1.12985 1.12934
 C494 C 0.71900 1.11608 1.15662
 C495 C 0.74653 1.12963 1.17020
 C496 C 0.76052 1.15721 1.15663
 C497 C 0.74630 1.17084 1.12914
 C498 C 0.67665 1.11592 1.11548
 C499 C 0.65285 1.10424 1.10392
 C500 C 0.62496 1.09057 1.09041
 C501 C 0.60114 1.07892 1.07888
 H502 H 0.70815 1.16809 1.09448
 H503 H 0.70858 1.09488 1.16744
 H504 H 0.75680 1.11848 1.19133
 H505 H 0.75639 1.19204 1.11805
 C506 C 0.71844 0.88485 0.84261
 C507 C 0.70465 0.87112 0.86998
 C508 C 0.71848 0.84383 0.88375
 C509 C 0.74597 0.83025 0.87022
 C510 C 0.76005 0.84383 0.84266
 C511 C 0.74594 0.87133 0.82902
 C512 C 0.67628 0.88499 0.88388
 C513 C 0.65249 0.89657 0.89553
 C514 C 0.62464 0.91008 0.90917
 C515 C 0.60085 0.92161 0.92083
 H516 H 0.70792 0.90599 0.83175
 H517 H 0.70798 0.83301 0.90494
 H518 H 0.75615 0.80911 0.88137
 H519 H 0.75610 0.88242 0.80783
   
