data_POSCAR
  _audit_creation_date              2014-09-24
  _audit_creation_method            'ToBaCCo'
  _symmetry_space_group_name_H-M    'P1'
  _symmetry_Int_Tables_number       1
  _symmetry_cell_setting            triclinic
  loop_
  _symmetry_equiv_pos_as_xyz
 x,y,z
_cell_length_a 33.2004
_cell_length_b 33.8706
_cell_length_c 33.2344
_cell_angle_alpha 90.697000
_cell_angle_beta 89.106200
_cell_angle_gamma 88.885600
loop_
  _atom_site_label
  _atom_site_type_symbol
  _atom_site_fract_x
  _atom_site_fract_y
  _atom_site_fract_z
C1 C 0.58563 0.64128 0.61574
 N2 N 0.58189 0.61336 0.64448
 C3 C 0.61033 0.58434 0.64865
 N4 N 0.64351 0.58466 0.62400
 C5 C 0.64799 0.61287 0.59568
 N6 N 0.61886 0.64109 0.59150
 C7 C 0.91086 0.35245 0.12115
 N8 N 0.91451 0.38437 0.14587
 C9 C 0.88922 0.41618 0.14347
 N10 N 0.85909 0.41571 0.11637
 C11 C 0.85506 0.38425 0.09116
 N12 N 0.88131 0.35310 0.09317
 C13 C 0.41137 0.15023 -0.11935
 N14 N 0.38212 0.14419 -0.09119
 C15 C 0.35769 0.11258 -0.09424
 N16 N 0.36261 0.08731 -0.12608
 C17 C 0.39260 0.09234 -0.15371
 N18 N 0.41657 0.12420 -0.15043
 C19 C 0.08619 0.85621 0.38673
 N20 N 0.08289 0.88254 0.35625
 C21 C 0.10916 0.91252 0.35162
 N22 N 0.14045 0.91504 0.37746
 C23 C 0.14441 0.88907 0.40792
 N24 N 0.11756 0.85968 0.41212
 N25 N 0.07184 0.17967 0.09762
 N26 N 0.05490 0.16551 0.13028
 C27 C 0.02522 0.19049 0.14299
 C28 C 0.02372 0.22206 0.11712
 C29 C 0.05331 0.21404 0.08831
 H30 H 0.00641 0.18648 0.16942
 H31 H 0.06151 0.23250 0.06327
 Cu32 Cu 0.07386 0.11672 0.15433
 Cu33 Cu 0.11865 0.15403 0.07180
 Cu34 Cu 0.15733 0.07026 0.11754
 N35 N 0.09578 0.06939 0.17901
 N36 N 0.12877 0.05170 0.16503
 C37 C 0.13740 0.02030 0.18808
 C38 C 0.10789 0.01792 0.21770
 C39 C 0.08230 0.04986 0.21142
 H40 H 0.16310 0.00053 0.18362
 H41 H 0.05620 0.05843 0.22959
 N42 N 0.18173 0.09326 0.06902
 N43 N 0.16604 0.12409 0.05059
 C44 C 0.18898 0.13193 0.01797
 C45 C 0.22048 0.10459 0.01557
 C46 C 0.21526 0.08100 0.04887
 H47 H 0.18371 0.15617 -0.00227
 H48 H 0.23506 0.05723 0.05822
 H49 H 0.10811 0.09739 0.09144
 H50 H 0.13974 0.12912 0.12416
 N51 N 0.42375 0.81494 0.59398
 N52 N 0.44210 0.82976 0.62533
 C53 C 0.47107 0.80411 0.63687
 C54 C 0.47047 0.77132 0.61173
 C55 C 0.44047 0.77946 0.58446
 H56 H 0.49105 0.80867 0.66182
 H57 H 0.43164 0.76100 0.55945
 Cu58 Cu 0.42631 0.88106 0.64798
 Cu59 Cu 0.37861 0.84198 0.56881
 Cu60 Cu 0.34893 0.93294 0.60950
 N61 N 0.40876 0.93172 0.67096
 N62 N 0.37910 0.95228 0.65521
 C63 C 0.37253 0.98542 0.67729
 C64 C 0.39973 0.98586 0.70841
 C65 C 0.42186 0.95100 0.70378
 H66 H 0.34897 1.00711 0.67188
 H67 H 0.44470 0.93988 0.72377
 N68 N 0.32215 0.90836 0.56331
 N69 N 0.33353 0.87380 0.54771
 C70 C 0.30785 0.86390 0.51842
 C71 C 0.27868 0.89332 0.51599
 C72 C 0.28890 0.92129 0.54443
 H73 H 0.30909 0.83657 0.50126
 H74 H 0.27245 0.94840 0.55158
 H75 H 0.39504 0.89849 0.58450
 H76 H 0.35959 0.87347 0.61964
 N77 N 0.92545 0.68848 0.39998
 N78 N 0.93815 0.67899 0.36341
 C79 C 0.96954 0.70176 0.35354
 C80 C 0.97716 0.72647 0.38590
 C81 C 0.94818 0.71763 0.41456
 H82 H 0.98561 0.70057 0.32497
 H83 H 0.94359 0.73189 0.44361
 Cu84 Cu 0.91223 0.63822 0.33194
 Cu85 Cu 0.88001 0.66302 0.42574
 Cu86 Cu 0.84131 0.58246 0.37591
 N87 N 0.89551 0.58858 0.30816
 N88 N 0.86804 0.56684 0.32554
 C89 C 0.86269 0.53412 0.30308
 C90 C 0.88851 0.53512 0.27007
 C91 C 0.90849 0.57044 0.27393
 H92 H 0.84173 0.51109 0.31023
 H93 H 0.93057 0.58215 0.25325
 N94 N 0.81869 0.60304 0.42730
 N95 N 0.83398 0.63337 0.44667
 C96 C 0.81232 0.64027 0.48071
 C97 C 0.78217 0.61283 0.48292
 C98 C 0.78671 0.59001 0.44837
 H99 H 0.81735 0.66407 0.50192
 H100 H 0.76788 0.56589 0.43927
 H101 H 0.89236 0.61009 0.39590
 H102 H 0.85179 0.64252 0.37466
 N103 N 0.57660 0.31407 -0.09996
 N104 N 0.55813 0.33037 -0.13046
 C105 C 0.52486 0.30981 -0.13862
 C106 C 0.52233 0.27919 -0.11168
 C107 C 0.55590 0.28241 -0.08790
 H108 H 0.50432 0.31602 -0.16278
 H109 H 0.56451 0.26313 -0.06366
 Cu110 Cu 0.58001 0.37612 -0.15721
 Cu111 Cu 0.62572 0.33555 -0.07794
 Cu112 Cu 0.66489 0.41779 -0.12485
 N113 N 0.60180 0.42249 -0.18288
 N114 N 0.63514 0.43858 -0.17034
 C115 C 0.64322 0.47017 -0.19312
 C116 C 0.61300 0.47438 -0.22102
 C117 C 0.58759 0.44325 -0.21406
 H118 H 0.66896 0.48892 -0.18956
 H119 H 0.56095 0.43622 -0.23080
 N120 N 0.69038 0.39244 -0.07828
 N121 N 0.67505 0.36155 -0.06010
 C122 C 0.69762 0.35274 -0.02799
 C123 C 0.72841 0.37942 -0.02584
 C124 C 0.72331 0.40388 -0.05834
 H125 H 0.69180 0.32919 -0.00715
 H126 H 0.74151 0.42892 -0.06594
 H127 H 0.61592 0.39315 -0.09620
 H128 H 0.64642 0.36019 -0.13081
 C129 C -0.02812 0.26499 0.08701
 C130 C -0.05676 0.29551 0.08872
 C131 C -0.06212 0.31960 0.12338
 C132 C -0.03869 0.31040 0.15808
 C133 C -0.00841 0.28009 0.15544
 C134 C -0.00385 0.25684 0.11989
 C135 C 0.01659 0.27395 0.18871
 N136 N 0.00948 0.29424 0.22351
 N137 N -0.02103 0.32007 0.22733
 C138 C -0.04556 0.32847 0.19622
 H139 H -0.02517 0.24723 0.05974
 H140 H -0.07398 0.30091 0.06184
 H141 H 0.04181 0.25330 0.18747
 H142 H -0.07092 0.34790 0.20268
 C143 C 0.53940 0.74333 0.61639
 C144 C 0.56731 0.71213 0.61633
 C145 C 0.55486 0.67306 0.61245
 C146 C 0.51343 0.66535 0.60753
 C147 C 0.48479 0.69705 0.60864
 C148 C 0.49813 0.73649 0.61246
 C149 C 0.44368 0.68785 0.60683
 N150 N 0.43250 0.64987 0.60159
 N151 N 0.45954 0.62043 0.59826
 C152 C 0.49958 0.62688 0.60090
 H153 H 0.55022 0.77319 0.61928
 H154 H 0.59890 0.71852 0.62005
 H155 H 0.42024 0.71023 0.61008
 H156 H 0.52020 0.60195 0.59735
 C157 C 1.00972 0.78387 0.35534
 C158 C 1.03478 0.81623 0.35634
 C159 C 1.05846 0.82485 0.39013
 C160 C 1.05435 0.80014 0.42473
 C161 C 1.03032 0.76577 0.42245
 C162 C 1.00700 0.75841 0.38791
 C163 C 1.03054 0.73956 0.45501
 N164 N 1.04996 0.74903 0.48918
 N165 N 1.06908 0.78295 0.49301
 C166 C 1.07153 0.80889 0.46239
 H167 H 0.99185 0.77893 0.32879
 H168 H 1.03607 0.83408 0.32954
 H169 H 1.01572 0.71149 0.45365
 H170 H 1.08544 0.83652 0.46898
 C171 C 0.50636 0.20839 -0.11389
 C172 C 0.47959 0.17738 -0.11667
 C173 C 0.43790 0.18455 -0.11610
 C174 C 0.42286 0.22396 -0.11279
 C175 C 0.45018 0.25557 -0.10985
 C176 C 0.49228 0.24757 -0.11111
 C177 C 0.43428 0.29420 -0.10520
 N178 N 0.39385 0.30067 -0.10516
 N179 N 0.36827 0.27117 -0.10936
 C180 C 0.38133 0.23313 -0.11329
 H181 H 0.53843 0.20178 -0.11494
 H182 H 0.49155 0.14744 -0.11920
 H183 H 0.45348 0.31929 -0.10120
 H184 H 0.35907 0.21061 -0.11710
 C185 C 0.14064 -0.01615 0.27386
 C186 C 0.14040 -0.04036 0.30732
 C187 C 0.10552 -0.06039 0.31954
 C188 C 0.06918 -0.05336 0.29771
 C189 C 0.07022 -0.02984 0.26246
 C190 C 0.10605 -0.01050 0.25116
 C191 C 0.03513 -0.02651 0.23940
 N192 N 0.00036 -0.04244 0.25264
 N193 N -0.00172 -0.06132 0.28742
 C194 C 0.03112 -0.06690 0.31055
 H195 H 0.16820 -0.00131 0.26585
 H196 H 0.16857 -0.04419 0.32296
 H197 H 0.03493 -0.01156 0.21088
 H198 H 0.02622 -0.08041 0.33930
 C199 C 0.64433 0.51003 -0.27721
 C200 C 0.64313 0.53529 -0.30981
 C201 C 0.60747 0.55583 -0.32033
 C202 C 0.57146 0.54819 -0.29744
 C203 C 0.57358 0.52388 -0.26278
 C204 C 0.61009 0.50392 -0.25342
 C205 C 0.53888 0.52051 -0.23825
 N206 N 0.50346 0.53691 -0.24972
 N207 N 0.50039 0.55636 -0.28406
 C208 C 0.53282 0.56214 -0.30840
 H209 H 0.67243 0.49478 -0.27070
 H210 H 0.67117 0.53938 -0.32619
 H211 H 0.53950 0.50524 -0.20993
 H212 H 0.52717 0.57608 -0.33659
 C213 C 0.36351 1.02687 0.75971
 C214 C 0.36185 1.05159 0.79343
 C215 C 0.39712 1.06463 0.81153
 C216 C 0.43509 1.05188 0.79519
 C217 C 0.43673 1.02778 0.75983
 C218 C 0.40050 1.01435 0.74264
 C219 C 0.47477 1.01855 0.74253
 N220 N 0.50872 1.03014 0.76104
 N221 N 0.50725 1.05048 0.79556
 C222 C 0.47173 1.06157 0.81334
 H223 H 0.33546 1.01694 0.74722
 H224 H 0.33255 1.06088 0.80530
 H225 H 0.47799 1.00277 0.71422
 H226 H 0.47274 1.07722 0.84175
 C227 C 0.85531 0.49216 0.22077
 C228 C 0.85543 0.46438 0.18962
 C229 C 0.89167 0.44911 0.17313
 C230 C 0.92872 0.46348 0.18769
 C231 C 0.92860 0.49098 0.22039
 C232 C 0.89139 0.50573 0.23668
 C233 C 0.96590 0.50183 0.23629
 N234 N 1.00073 0.48827 0.21881
 N235 N 1.00084 0.46444 0.18668
 C236 C 0.96614 0.45170 0.17046
 H237 H 0.82659 0.50308 0.23270
 H238 H 0.82676 0.45390 0.17911
 H239 H 0.96793 0.52046 0.26270
 H240 H 0.96833 0.43309 0.14390
 C241 C 0.27096 0.14040 -0.02454
 C242 C 0.30456 0.14225 -0.04990
 C243 C 0.32391 0.10783 -0.06488
 C244 C 0.30895 0.07050 -0.05320
 C245 C 0.27329 0.06870 -0.02903
 C246 C 0.25492 0.10407 -0.01354
 C247 C 0.25685 0.03137 -0.02196
 N248 N 0.27673 -0.00182 -0.03494
 N249 N 0.31178 -0.00024 -0.05475
 C250 C 0.32865 0.03465 -0.06414
 H251 H 0.25761 0.16781 -0.01309
 H252 H 0.31521 0.17110 -0.05826
 H253 H 0.22812 0.02809 -0.00688
 H254 H 0.35762 0.03371 -0.07928
 C255 C 0.70965 0.61207 0.49995
 C256 C 0.67735 0.61302 0.52716
 C257 C 0.68375 0.61238 0.56870
 C258 C 0.72375 0.61105 0.58313
 C259 C 0.75670 0.60994 0.55534
 C260 C 0.74940 0.61105 0.51342
 C261 C 0.79594 0.60712 0.57059
 N262 N 0.80163 0.60709 0.61089
 N263 N 0.77081 0.60958 0.63696
 C264 C 0.73214 0.61167 0.62451
 H265 H 0.70354 0.61297 0.46804
 H266 H 0.64699 0.61399 0.51565
 H267 H 0.82213 0.60455 0.55098
 H268 H 0.70851 0.61415 0.64716
 C269 C 0.79997 0.37835 -0.00668
 C270 C 0.83051 0.37863 0.02161
 C271 C 0.82142 0.38327 0.06270
 C272 C 0.78060 0.38714 0.07563
 C273 C 0.74952 0.38694 0.04680
 C274 C 0.75946 0.38200 0.00538
 C275 C 0.70944 0.39232 0.06052
 N276 N 0.70118 0.39607 0.10047
 N277 N 0.73022 0.39490 0.12762
 C278 C 0.76956 0.39047 0.11663
 H279 H 0.80798 0.37458 -0.03825
 H280 H 0.86156 0.37558 0.01133
 H281 H 0.68459 0.39394 0.03997
 H282 H 0.79166 0.38928 0.14013
 C283 C 0.24944 0.88856 0.44833
 C284 C 0.21715 0.88844 0.42204
 C285 C 0.17754 0.89273 0.43663
 C286 C 0.17031 0.89834 0.47845
 C287 C 0.20310 0.89801 0.50531
 C288 C 0.24305 0.89343 0.48988
 C289 C 0.19450 0.90124 0.54685
 N290 N 0.15591 0.90647 0.56011
 N291 N 0.12532 0.90847 0.53475
 C292 C 0.13118 0.90468 0.49442
 H293 H 0.27976 0.88491 0.43611
 H294 H 0.22307 0.88411 0.39012
 H295 H 0.21783 0.89924 0.56903
 H296 H 0.10524 0.90692 0.47527
   
