data_POSCAR
  _audit_creation_date              2014-09-24
  _audit_creation_method            'ToBaCCo'
  _symmetry_space_group_name_H-M    'P1'
  _symmetry_Int_Tables_number       1
  _symmetry_cell_setting            triclinic
  loop_
  _symmetry_equiv_pos_as_xyz
 x,y,z
_cell_length_a 80.8429
_cell_length_b 80.9142
_cell_length_c 23.5514
_cell_angle_alpha 89.946100
_cell_angle_beta 90.088500
_cell_angle_gamma 119.982300
loop_
  _atom_site_label
  _atom_site_type_symbol
  _atom_site_fract_x
  _atom_site_fract_y
  _atom_site_fract_z
C1 C 0.24519 0.49245 0.52567
 C2 C 0.24413 0.49027 0.46806
 C3 C 0.22863 0.49069 0.43504
 C4 C 0.25836 0.48754 0.43543
 C5 C 0.26175 0.49463 0.55927
 C6 C 0.22929 0.49205 0.55805
 C7 C 0.21728 0.47578 0.39770
 C8 C 0.20248 0.47594 0.36729
 C9 C 0.19865 0.49108 0.37357
 C10 C 0.21050 0.50623 0.41038
 C11 C 0.22536 0.50609 0.44017
 C12 C 0.26365 0.47421 0.45287
 C13 C 0.27790 0.47267 0.42396
 C14 C 0.28659 0.48391 0.37575
 C15 C 0.28057 0.49648 0.35645
 C16 C 0.26666 0.49836 0.38622
 C17 C 0.28054 0.50834 0.54469
 C18 C 0.29600 0.50940 0.57461
 C19 C 0.29296 0.49696 0.62024
 C20 C 0.27409 0.48377 0.63606
 C21 C 0.25867 0.48265 0.60596
 C22 C 0.23219 0.50823 0.58811
 C23 C 0.21702 0.50814 0.61679
 C24 C 0.19885 0.49168 0.61709
 C25 C 0.19615 0.47531 0.58821
 C26 C 0.21122 0.47555 0.55857
 H27 H 0.21971 0.46386 0.39269
 H28 H 0.19396 0.46400 0.33942
 H29 H 0.20842 0.51834 0.41643
 H30 H 0.23433 0.51802 0.46750
 H31 H 0.25697 0.46519 0.48944
 H32 H 0.28206 0.46264 0.43918
 H33 H 0.26266 0.50857 0.37153
 H34 H 0.28323 0.51800 0.50954
 H35 H 0.31033 0.51986 0.56160
 H36 H 0.27119 0.47402 0.67109
 H37 H 0.24430 0.47205 0.61819
 H38 H 0.24609 0.52105 0.58823
 H39 H 0.21952 0.52090 0.63904
 H40 H 0.18230 0.46245 0.58760
 H41 H 0.20882 0.46290 0.53587
 H42 H 0.28703 0.50529 0.31935
 C43 C 0.50602 -0.24802 0.52789
 C44 C 0.50367 -0.24908 0.47032
 C45 C 0.50121 -0.26568 0.43656
 C46 C 0.50436 -0.23303 0.43800
 C47 C 0.50596 -0.23233 0.56068
 C48 C 0.50861 -0.26234 0.56067
 C49 C 0.51302 -0.26268 0.38952
 C50 C 0.51169 -0.27812 0.35926
 C51 C 0.49847 -0.29695 0.37526
 C52 C 0.48618 -0.29993 0.42122
 C53 C 0.48744 -0.28443 0.45130
 C54 C 0.52117 -0.21522 0.43679
 C55 C 0.52175 -0.20003 0.40689
 C56 C 0.50544 -0.20233 0.37842
 C57 C 0.48864 -0.22023 0.37951
 C58 C 0.48820 -0.23554 0.40847
 C59 C 0.49056 -0.22898 0.55628
 C60 C 0.49080 -0.21388 0.58567
 C61 C 0.50630 -0.20200 0.62090
 C62 C 0.52145 -0.20575 0.62659
 C63 C 0.52126 -0.22079 0.59676
 C64 C 0.49832 -0.27002 0.61102
 C65 C 0.50008 -0.28394 0.64116
 C66 C 0.51193 -0.29082 0.62102
 C67 C 0.52270 -0.28261 0.57144
 C68 C 0.52137 -0.26825 0.54243
 H69 H 0.52367 -0.24835 0.37714
 H70 H 0.52133 -0.27527 0.32399
 H71 H 0.47570 -0.31422 0.43437
 H72 H 0.47791 -0.28706 0.48673
 H73 H 0.53380 -0.21313 0.45907
 H74 H 0.53486 -0.18638 0.40690
 H75 H 0.47515 -0.24924 0.40887
 H76 H 0.47838 -0.23803 0.52983
 H77 H 0.47880 -0.21156 0.58078
 H78 H 0.53359 -0.19692 0.65346
 H79 H 0.53320 -0.22325 0.60110
 H80 H 0.48859 -0.26550 0.62650
 H81 H 0.49163 -0.28972 0.67927
 H82 H 0.53231 -0.28713 0.55501
 H83 H 0.53011 -0.26198 0.50513
 H84 H 0.47591 -0.22244 0.35761
 C85 C 1.24959 0.75180 0.53029
 C86 C 1.24974 0.75207 0.47248
 C87 C 1.26567 0.76755 0.43984
 C88 C 1.23360 0.73719 0.43931
 C89 C 1.23417 0.73585 0.56308
 C90 C 1.26456 0.76789 0.56329
 C91 C 1.26187 0.77803 0.39970
 C92 C 1.27678 0.79296 0.36979
 C93 C 1.29590 0.79778 0.37940
 C94 C 1.29954 0.78686 0.41887
 C95 C 1.28459 0.77183 0.44830
 C96 C 1.21549 0.73549 0.44200
 C97 C 1.20018 0.72104 0.41196
 C98 C 1.20270 0.70789 0.37955
 C99 C 1.22093 0.70977 0.37657
 C100 C 1.23632 0.72448 0.40563
 C101 C 1.22951 0.71689 0.55340
 C102 C 1.21447 0.70194 0.58281
 C103 C 1.20391 0.70562 0.62344
 C104 C 1.20914 0.72476 0.63430
 C105 C 1.22407 0.73966 0.60444
 C106 C 1.27819 0.76555 0.59342
 C107 C 1.29295 0.78096 0.62225
 C108 C 1.29400 0.79890 0.62300
 C109 C 1.27980 0.80089 0.59404
 C110 C 1.26537 0.78559 0.56395
 H111 H 1.24735 0.77485 0.39218
 H112 H 1.27324 0.80085 0.33970
 H113 H 1.31396 0.78985 0.42723
 H114 H 1.28779 0.76355 0.47784
 H115 H 1.21323 0.74530 0.46762
 H116 H 1.18628 0.71988 0.41511
 H117 H 1.25026 0.72568 0.40307
 H118 H 1.23748 0.71366 0.52282
 H119 H 1.21116 0.68750 0.57345
 H120 H 1.20154 0.72832 0.66531
 H121 H 1.22752 0.75419 0.61290
 H122 H 1.27765 0.75191 0.59334
 H123 H 1.30343 0.77871 0.64422
 H124 H 1.28002 0.81438 0.59340
 H125 H 1.25484 0.78752 0.54101
 H126 H 1.22330 0.69991 0.35157
 C127 C 0.75269 0.50681 0.53060
 C128 C 0.75286 0.50680 0.47280
 C129 C 0.76831 0.50627 0.44027
 C130 C 0.73778 0.50773 0.43963
 C131 C 0.73667 0.50610 0.56346
 C132 C 0.76880 0.50795 0.56361
 C133 C 0.77898 0.52062 0.40057
 C134 C 0.79394 0.52057 0.37098
 C135 C 0.79847 0.50611 0.38045
 C136 C 0.78741 0.49149 0.41931
 C137 C 0.77239 0.49150 0.44856
 C138 C 0.73571 0.52392 0.44236
 C139 C 0.72094 0.52437 0.41280
 C140 C 0.70783 0.50851 0.38084
 C141 C 0.71011 0.49242 0.37771
 C142 C 0.72513 0.49214 0.40629
 C143 C 0.71779 0.49153 0.55429
 C144 C 0.70277 0.49130 0.58421
 C145 C 0.70632 0.50550 0.62486
 C146 C 0.72540 0.51974 0.63507
 C147 C 0.74037 0.52001 0.60471
 C148 C 0.76641 0.49202 0.59391
 C149 C 0.78178 0.49269 0.62314
 C150 C 0.79974 0.50956 0.62411
 C151 C 0.80179 0.52571 0.59486
 C152 C 0.78652 0.52481 0.56438
 H153 H 0.77596 0.53207 0.39324
 H154 H 0.80210 0.53201 0.34127
 H155 H 0.79035 0.48002 0.42719
 H156 H 0.76398 0.48000 0.47784
 H157 H 0.74545 0.53610 0.46775
 H158 H 0.71949 0.53694 0.41606
 H159 H 0.72660 0.47957 0.40373
 H160 H 0.71466 0.48033 0.52380
 H161 H 0.68838 0.47994 0.57530
 H162 H 0.72886 0.53090 0.66604
 H163 H 0.75486 0.53130 0.61279
 H164 H 0.75275 0.47892 0.59375
 H165 H 0.77948 0.47997 0.64528
 H166 H 0.81529 0.53897 0.59436
 H167 H 0.78848 0.53726 0.54131
 H168 H 0.70031 0.48006 0.35305
 C169 C 0.49594 0.24722 0.53083
 C170 C 0.49551 0.24702 0.47304
 C171 C 0.49573 0.26272 0.43977
 C172 C 0.49438 0.23086 0.44048
 C173 C 0.49687 0.23211 0.56419
 C174 C 0.49488 0.26233 0.56316
 C175 C 0.48110 0.25870 0.40060
 C176 C 0.48095 0.27341 0.36991
 C177 C 0.49547 0.29246 0.37773
 C178 C 0.51034 0.29638 0.41615
 C179 C 0.51053 0.28163 0.44650
 C180 C 0.47815 0.21266 0.44407
 C181 C 0.47740 0.19736 0.41431
 C182 C 0.49301 0.20000 0.38130
 C183 C 0.50918 0.21831 0.37750
 C184 C 0.50974 0.23367 0.40627
 C185 C 0.51133 0.22767 0.55437
 C186 C 0.51156 0.21283 0.58406
 C187 C 0.49749 0.20225 0.62511
 C188 C 0.48343 0.20728 0.63618
 C189 C 0.48315 0.22203 0.60605
 C190 C 0.51098 0.27625 0.59201
 C191 C 0.51042 0.29121 0.61978
 C192 C 0.49348 0.29220 0.62072
 C193 C 0.47716 0.27772 0.59310
 C194 C 0.47794 0.26307 0.56408
 H195 H 0.46963 0.24417 0.39446
 H196 H 0.46932 0.26987 0.34060
 H197 H 0.52186 0.31084 0.42279
 H198 H 0.52224 0.28498 0.47531
 H199 H 0.46614 0.21033 0.47012
 H200 H 0.46479 0.18339 0.41809
 H201 H 0.52233 0.24767 0.40300
 H202 H 0.52238 0.23562 0.52337
 H203 H 0.52279 0.20966 0.57452
 H204 H 0.47239 0.19967 0.66753
 H205 H 0.47196 0.22533 0.61464
 H206 H 0.52415 0.27579 0.59167
 H207 H 0.52327 0.30191 0.64073
 H208 H 0.46384 0.27786 0.59265
 H209 H 0.46536 0.25233 0.54209
 H210 H 0.52134 0.22076 0.35203
 C211 C 0.75192 0.24940 0.53103
 C212 C 0.75314 0.24856 0.47339
 C213 C 0.73743 0.23296 0.44018
 C214 C 0.76999 0.26305 0.44098
 C215 C 0.76613 0.26588 0.56512
 C216 C 0.73656 0.23324 0.56300
 C217 C 0.74129 0.22166 0.40351
 C218 C 0.72648 0.20664 0.37340
 C219 C 0.70753 0.20269 0.37938
 C220 C 0.70381 0.21436 0.41516
 C221 C 0.71863 0.22943 0.44484
 C222 C 0.78870 0.26861 0.45842
 C223 C 0.80436 0.28310 0.42975
 C224 C 0.80164 0.29179 0.38176
 C225 C 0.78298 0.28551 0.36246
 C226 C 0.76730 0.27135 0.39200
 C227 C 0.77494 0.26272 0.61190
 C228 C 0.78912 0.27805 0.64245
 C229 C 0.79488 0.29700 0.62695
 C230 C 0.78546 0.30007 0.58118
 C231 C 0.77115 0.28468 0.55095
 C232 C 0.72295 0.23567 0.59289
 C233 C 0.70811 0.22028 0.62157
 C234 C 0.70699 0.20238 0.62203
 C235 C 0.72096 0.20015 0.59320
 C236 C 0.73555 0.21543 0.56357
 H237 H 0.75573 0.22426 0.39896
 H238 H 0.72986 0.19798 0.34611
 H239 H 0.68944 0.21188 0.42029
 H240 H 0.71541 0.23830 0.47175
 H241 H 0.79118 0.26195 0.49480
 H242 H 0.81861 0.28746 0.44495
 H243 H 0.75303 0.26716 0.37730
 H244 H 0.77120 0.24834 0.62391
 H245 H 0.79581 0.27494 0.67754
 H246 H 0.78922 0.31437 0.56811
 H247 H 0.76421 0.28743 0.51579
 H248 H 0.72362 0.24938 0.59299
 H249 H 0.69761 0.22243 0.64376
 H250 H 0.72041 0.18650 0.59270
 H251 H 0.74607 0.21340 0.54100
 H252 H 0.78049 0.29195 0.32552
 N253 N 0.98079 0.52120 0.06191
 N254 N 0.96651 0.52444 0.07024
 N255 N 1.02102 0.52894 0.09895
 N256 N 1.03554 0.53808 0.13417
 N257 N 1.02089 0.54067 0.06065
 N258 N 1.03519 0.55815 0.06904
 N259 N 0.98077 0.50950 0.10069
 N260 N 0.96643 0.50441 0.13632
 C261 C 0.95770 0.51386 0.11680
 C262 C 1.04422 0.55626 0.11489
 N263 N 1.01959 0.48124 0.05765
 N264 N 1.03367 0.47758 0.06452
 N265 N 0.98006 0.47351 0.09934
 N266 N 0.96625 0.46413 0.13649
 N267 N 0.97939 0.46204 0.05886
 N268 N 0.96499 0.44460 0.06696
 N269 N 1.02018 0.49295 0.09723
 N270 N 1.03468 0.49764 0.13195
 Mn271 Mn 1.00052 0.50124 0.09973
 C272 C 1.04294 0.48794 0.11099
 C273 C 0.95694 0.44616 0.11549
 N274 N 1.02051 0.54098 -0.06171
 N275 N 1.03520 0.55832 -0.06906
 N276 N 0.97988 0.50994 -0.10013
 N277 N 0.96532 0.50510 -0.13476
 N278 N 0.98040 0.52165 -0.06070
 N279 N 0.96636 0.52533 -0.06787
 N280 N 1.02013 0.52940 -0.10140
 N281 N 1.03458 0.53852 -0.13673
 Mn282 Mn 1.00064 0.53132 0.00006
 C283 C 1.04382 0.55652 -0.11602
 C284 C 0.95707 0.51485 -0.11412
 N285 N 0.97887 0.46229 -0.06330
 N286 N 0.96403 0.44504 -0.07050
 N287 N 1.01932 0.49343 -0.10310
 N288 N 1.03366 0.49838 -0.13866
 N289 N 1.01899 0.48148 -0.06474
 N290 N 1.03297 0.47783 -0.07340
 N291 N 0.97907 0.47404 -0.10211
 N292 N 0.96433 0.46513 -0.13672
 Mn293 Mn 0.99920 0.47156 -0.00289
 Mn294 Mn 0.99961 0.50171 -0.10237
 Cl295 Cl 0.99999 0.50146 -0.00136
 C296 C 0.95512 0.44706 -0.11646
 C297 C 1.04199 0.48850 -0.11956
 N298 N 0.52565 0.50559 0.10034
 N299 N 0.53497 0.50057 0.13612
 N300 N 0.51678 0.53723 0.06239
 N301 N 0.51927 0.55448 0.07032
 N302 N 0.50512 0.52532 0.10070
 N303 N 0.49931 0.53412 0.13568
 N304 N 0.53739 0.51773 0.06263
 N305 N 0.55502 0.52147 0.07196
 C306 C 0.55325 0.51061 0.11777
 C307 C 0.50829 0.55229 0.11620
 N308 N 0.50716 0.52711 -0.10115
 N309 N 0.50310 0.53685 -0.13812
 N310 N 0.53847 0.51864 -0.05966
 N311 N 0.55609 0.52190 -0.06592
 N312 N 0.52734 0.50722 -0.09979
 N313 N 0.53702 0.50236 -0.13435
 N314 N 0.51783 0.53825 -0.05985
 N315 N 0.52112 0.55581 -0.06714
 Mn316 Mn 0.52780 0.52817 0.00139
 C317 C 0.51182 0.55468 -0.11608
 C318 C 0.55492 0.51163 -0.11271
 N319 N 0.46977 0.48951 0.09727
 N320 N 0.45989 0.49343 0.13396
 N321 N 0.47889 0.45861 0.05647
 N322 N 0.47590 0.44110 0.06305
 N323 N 0.49020 0.46986 0.09661
 N324 N 0.49522 0.46038 0.13150
 N325 N 0.45870 0.47867 0.05612
 N326 N 0.44101 0.47506 0.06334
 Mn327 Mn 0.49770 0.49756 0.09939
 C328 C 0.44202 0.48440 0.11201
 C329 C 0.48620 0.44248 0.11005
 N330 N 0.49193 0.47149 -0.10346
 N331 N 0.49726 0.46237 -0.13885
 N332 N 0.45977 0.47971 -0.06620
 N333 N 0.44241 0.47696 -0.07432
 N334 N 0.47161 0.49146 -0.10450
 N335 N 0.46265 0.49707 -0.13965
 N336 N 0.47981 0.45965 -0.06588
 N337 N 0.47638 0.44213 -0.07500
 Mn338 Mn 0.49952 0.49930 -0.10290
 Mn339 Mn 0.46908 0.46897 -0.00489
 Cl340 Cl 0.49852 0.49850 -0.00175
 C341 C 0.48742 0.44408 -0.12048
 C342 C 0.44445 0.48787 -0.12031
 N343 N 0.46150 -0.02026 0.06167
 N344 N 0.44404 -0.03472 0.06941
 N345 N 0.49320 0.02004 0.10033
 N346 N 0.49817 0.03441 0.13576
 N347 N 0.48143 0.01982 0.06144
 N348 N 0.47790 0.03389 0.06967
 N349 N 0.47312 -0.02017 0.10087
 N350 N 0.46391 -0.03460 0.13622
 C351 C 0.44581 -0.04351 0.11605
 C352 C 0.48850 0.04288 0.11603
 N353 N 0.54035 0.02008 0.06123
 N354 N 0.55786 0.03446 0.06885
 N355 N 0.50874 -0.02011 0.10082
 N356 N 0.50353 -0.03461 0.13591
 N357 N 0.52041 -0.02000 0.06191
 N358 N 0.52361 -0.03432 0.06975
 N359 N 0.52883 0.02010 0.10043
 N360 N 0.53815 0.03454 0.13567
 Mn361 Mn 0.50097 -0.00003 0.10129
 C362 C 0.55623 0.04335 0.11541
 C363 C 0.51296 -0.04329 0.11599
 N364 N 0.48142 0.01977 -0.06102
 N365 N 0.47843 0.03425 -0.06854
 N366 N 0.47293 -0.02053 -0.09958
 N367 N 0.46356 -0.03501 -0.13468
 N368 N 0.46138 -0.02030 -0.06082
 N369 N 0.44380 -0.03446 -0.06889
 N370 N 0.49291 0.01972 -0.10027
 N371 N 0.49813 0.03420 -0.13544
 Mn372 Mn 0.47124 -0.00024 0.00031
 C373 C 0.48897 0.04309 -0.11512
 C374 C 0.44543 -0.04352 -0.11497
 N375 N 0.52022 -0.02026 -0.06050
 N376 N 0.52350 -0.03454 -0.06822
 N377 N 0.52857 0.01985 -0.10016
 N378 N 0.53778 0.03433 -0.13536
 N379 N 0.54019 0.01982 -0.06122
 N380 N 0.55769 0.03417 -0.06915
 N381 N 0.50860 -0.02037 -0.09970
 N382 N 0.50358 -0.03476 -0.13504
 Mn383 Mn 0.53049 -0.00009 0.00036
 Mn384 Mn 0.50075 -0.00034 -0.10061
 Cl385 Cl 0.50086 -0.00018 0.00034
 C386 C 0.51299 -0.04345 -0.11483
 C387 C 0.55592 0.04308 -0.11546
 C388 C 1.15418 0.49083 0.29061
 N389 N 1.16536 0.50522 0.32660
 N390 N 1.17995 0.50535 0.35331
 C391 C 1.18398 0.49106 0.34550
 N392 N 1.17270 0.47668 0.30920
 N393 N 1.15814 0.47658 0.28225
 C394 C 1.13790 0.49060 0.26206
 N395 N 1.12758 0.47719 0.22231
 N396 N 1.11266 0.47691 0.19710
 C397 C 1.10749 0.48999 0.21092
 N398 N 1.11781 0.50339 0.25064
 N399 N 1.13276 0.50372 0.27564
 C400 C 1.09084 0.48955 0.18417
 N401 N 1.08447 0.50122 0.20306
 N402 N 1.06922 0.50070 0.17958
 C403 C 1.05984 0.48855 0.13618
 N404 N 1.06623 0.47693 0.11704
 N405 N 1.08144 0.47738 0.14073
 C406 C 0.49826 0.65704 0.29214
 N407 N 0.48687 0.65398 0.33785
 N408 N 0.48672 0.66853 0.36380
 C409 C 0.49796 0.68672 0.34510
 N410 N 0.50926 0.68969 0.29913
 N411 N 0.50940 0.67515 0.27315
 C412 C 0.49899 0.64114 0.26450
 N413 N 0.51045 0.64437 0.21885
 N414 N 0.51155 0.63009 0.19455
 C415 C 0.50125 0.61205 0.21505
 N416 N 0.48974 0.60879 0.26060
 N417 N 0.48862 0.62308 0.28488
 C418 C 0.50284 0.59642 0.18891
 N419 N 0.49307 0.57846 0.21040
 N420 N 0.49477 0.56437 0.18715
 C421 C 0.50630 0.56774 0.14159
 N422 N 0.51603 0.58568 0.12001
 N423 N 0.51434 0.59976 0.14328
 C424 C 0.34018 -0.15653 0.29666
 N425 N 0.32177 -0.16171 0.28509
 N426 N 0.30749 -0.17650 0.31161
 C427 C 0.31100 -0.18678 0.35067
 N428 N 0.32949 -0.18157 0.36183
 N429 N 0.34378 -0.16674 0.33548
 C430 C 0.35596 -0.13999 0.26834
 N431 N 0.37433 -0.13374 0.28386
 N432 N 0.38864 -0.11853 0.25891
 C433 C 0.38511 -0.10905 0.21737
 N434 N 0.36674 -0.11535 0.20167
 N435 N 0.35242 -0.13051 0.22677
 C436 C 0.40089 -0.09213 0.19047
 N437 N 0.39759 -0.08340 0.14619
 N438 N 0.41191 -0.06794 0.12223
 C439 C 0.43003 -0.06063 0.14187
 N440 N 0.43334 -0.06935 0.18610
 N441 N 0.41904 -0.08484 0.20991
 C442 C 0.84504 0.50735 0.29746
 N443 N 0.83917 0.51984 0.28296
 N444 N 0.82433 0.51939 0.30907
 C445 C 0.81476 0.50640 0.35060
 N446 N 0.82064 0.49387 0.36484
 N447 N 0.83550 0.49435 0.33885
 C448 C 0.86161 0.50805 0.26943
 N449 N 0.86825 0.49642 0.28670
 N450 N 0.88344 0.49723 0.26188
 C451 C 0.89252 0.50966 0.21878
 N452 N 0.88584 0.52125 0.20138
 N453 N 0.87068 0.52048 0.22630
 C454 C 0.90938 0.51066 0.19187
 N455 N 0.91795 0.52241 0.14695
 N456 N 0.93332 0.52339 0.12287
 C457 C 0.94071 0.51271 0.14297
 N458 N 0.93216 0.50097 0.18785
 N459 N 0.91676 0.49995 0.21183
 C460 C 0.49380 0.33703 0.29123
 N461 N 0.50697 0.34082 0.33248
 N462 N 0.50758 0.32668 0.35956
 C463 C 0.49502 0.30817 0.34662
 N464 N 0.48187 0.30442 0.30521
 N465 N 0.48128 0.31856 0.27799
 C466 C 0.49296 0.35267 0.26229
 N467 N 0.48042 0.34909 0.21918
 N468 N 0.47951 0.36334 0.19369
 C469 C 0.49106 0.38166 0.21053
 N470 N 0.50360 0.38522 0.25356
 N471 N 0.50455 0.37100 0.27891
 C472 C 0.48989 0.39741 0.18352
 N473 N 0.50039 0.41544 0.20394
 N474 N 0.49921 0.42976 0.18030
 C475 C 0.48751 0.42661 0.13526
 N476 N 0.47704 0.40860 0.11460
 N477 N 0.47818 0.39424 0.13839
 C478 C 0.66250 0.15605 0.29557
 N479 N 0.65891 0.16600 0.33525
 N480 N 0.67321 0.18086 0.36147
 C481 C 0.69167 0.18636 0.34922
 N482 N 0.69522 0.17638 0.30942
 N483 N 0.68092 0.16153 0.28303
 C484 C 0.64668 0.13949 0.26738
 N485 N 0.65009 0.13013 0.22525
 N486 N 0.63570 0.11499 0.20023
 C487 C 0.61738 0.10862 0.21656
 N488 N 0.61399 0.11798 0.25866
 N489 N 0.62836 0.13315 0.28354
 C490 C 0.60149 0.09176 0.18971
 N491 N 0.58340 0.08452 0.20947
 N492 N 0.56899 0.06911 0.18568
 C493 C 0.57212 0.06040 0.14117
 N494 N 0.59019 0.06764 0.12123
 N495 N 0.60462 0.08303 0.14515
 C496 C 0.49648 0.15664 -0.29271
 N497 N 0.50991 0.16662 -0.33266
 N498 N 0.51034 0.18144 -0.35878
 C499 C 0.49732 0.18687 -0.34624
 N500 N 0.48394 0.17684 -0.30601
 N501 N 0.48354 0.16206 -0.27974
 C502 C 0.49576 0.14005 -0.26478
 N503 N 0.48301 0.13068 -0.22261
 N504 N 0.48215 0.11544 -0.19795
 C505 C 0.49396 0.10896 -0.21472
 N506 N 0.50672 0.11834 -0.25685
 N507 N 0.50762 0.13361 -0.28137
 C508 C 0.49280 0.09196 -0.18831
 N509 N 0.50348 0.08457 -0.20839
 N510 N 0.50225 0.06900 -0.18500
 C511 C 0.49035 0.06028 -0.14057
 N512 N 0.47971 0.06769 -0.12031
 N513 N 0.48089 0.08323 -0.14384
 C514 C 0.66182 0.50604 -0.29094
 N515 N 0.68019 0.51924 -0.27890
 N516 N 0.69455 0.51901 -0.30588
 C517 C 0.69115 0.50555 -0.34589
 N518 N 0.67271 0.49229 -0.35749
 N519 N 0.65834 0.49255 -0.33068
 C520 C 0.64594 0.50652 -0.26235
 N521 N 0.62764 0.49439 -0.27833
 N522 N 0.61321 0.49504 -0.25337
 C523 C 0.61653 0.50782 -0.21137
 N524 N 0.63483 0.51991 -0.19516
 N525 N 0.64928 0.51930 -0.22028
 C526 C 0.60056 0.50870 -0.18482
 N527 N 0.60352 0.52053 -0.14029
 N528 N 0.58898 0.52143 -0.11693
 C529 C 0.57098 0.51058 -0.13746
 N530 N 0.56803 0.49876 -0.18190
 N531 N 0.58254 0.49781 -0.20510
 C532 C 0.84000 0.34209 -0.29083
 N533 N 0.83369 0.32387 -0.27399
 N534 N 0.81901 0.30936 -0.30017
 C535 C 0.80998 0.31244 -0.34424
 N536 N 0.81627 0.33076 -0.36063
 N537 N 0.83099 0.34529 -0.33453
 C538 C 0.85663 0.35799 -0.26314
 N539 N 0.86388 0.37614 -0.28232
 N540 N 0.87931 0.39044 -0.25813
 C541 C 0.88804 0.38712 -0.21384
 N542 N 0.88073 0.36899 -0.19451
 N543 N 0.86533 0.35468 -0.21875
 C544 C 0.90530 0.40279 -0.18794
 N545 N 0.91373 0.39948 -0.14285
 N546 N 0.92957 0.41362 -0.11990
 C547 C 0.93758 0.43156 -0.14132
 N548 N 0.92915 0.43489 -0.18634
 N549 N 0.91329 0.42076 -0.20923
 C550 C 0.50767 -0.15547 -0.29563
 N551 N 0.52077 -0.16076 -0.28323
 N552 N 0.52032 -0.17556 -0.30954
 C553 C 0.50671 -0.18569 -0.34912
 N554 N 0.49359 -0.18038 -0.36124
 N555 N 0.49407 -0.16556 -0.33510
 C556 C 0.50827 -0.13898 -0.26743
 N557 N 0.49612 -0.13283 -0.28348
 N558 N 0.49677 -0.11775 -0.25854
 C559 C 0.50955 -0.10829 -0.21649
 N560 N 0.52168 -0.11447 -0.20027
 N561 N 0.52107 -0.12953 -0.22536
 C562 C 0.51035 -0.09154 -0.18952
 N563 N 0.52221 -0.08276 -0.14492
 N564 N 0.52299 -0.06747 -0.12088
 C565 C 0.51201 -0.06039 -0.14072
 N566 N 0.50016 -0.06916 -0.18528
 N567 N 0.49932 -0.08448 -0.20918
 C568 C 0.33900 0.49692 -0.29690
 N569 N 0.34207 0.50849 -0.34219
 N570 N 0.32750 0.50870 -0.36806
 C571 C 0.30929 0.49733 -0.34972
 N572 N 0.30630 0.48584 -0.30420
 N573 N 0.32085 0.48564 -0.27828
 C574 C 0.35495 0.49621 -0.26927
 N575 N 0.35176 0.48463 -0.22392
 N576 N 0.36611 0.48362 -0.19957
 C577 C 0.38419 0.49413 -0.21973
 N578 N 0.38739 0.50575 -0.26500
 N579 N 0.37304 0.50678 -0.28933
 C580 C 0.39993 0.49270 -0.19349
 N581 N 0.41791 0.50268 -0.21474
 N582 N 0.43211 0.50117 -0.19136
 C583 C 0.42885 0.48962 -0.14589
 N584 N 0.41089 0.47967 -0.12454
 N585 N 0.39668 0.48117 -0.14795
 C586 C 1.15795 0.66144 -0.29441
 N587 N 1.16357 0.67985 -0.28167
 N588 N 1.17845 0.69410 -0.30796
 C589 C 1.18840 0.69054 -0.34799
 N590 N 1.18276 0.67205 -0.36032
 N591 N 1.16784 0.65780 -0.33418
 C592 C 1.14127 0.64573 -0.26638
 N593 N 1.13458 0.62740 -0.28291
 N594 N 1.11923 0.61318 -0.25826
 C595 C 1.11003 0.61676 -0.21604
 N596 N 1.11676 0.63508 -0.19933
 N597 N 1.13208 0.64931 -0.22412
 C598 C 1.09294 0.60108 -0.18949
 N599 N 1.08444 0.60442 -0.14474
 N600 N 1.06882 0.59021 -0.12110
 C601 C 1.06111 0.57217 -0.14152
 N602 N 1.06960 0.56882 -0.18623
 N603 N 1.08525 0.58301 -0.20973
 C604 C 0.84547 0.51123 -0.29246
 N605 N 0.84675 0.52743 -0.31355
 N606 N 0.83199 0.52690 -0.34053
 C607 C 0.81528 0.51018 -0.34693
 N608 N 0.81404 0.49402 -0.32519
 N609 N 0.82886 0.49451 -0.29884
 C610 C 0.86186 0.51169 -0.26412
 N611 N 0.86296 0.49555 -0.25926
 N612 N 0.87802 0.49600 -0.23463
 C613 C 0.89241 0.51257 -0.21332
 N614 N 0.89124 0.52868 -0.21774
 N615 N 0.87628 0.52827 -0.24302
 C616 C 0.90909 0.51307 -0.18683
 N617 N 0.92061 0.52753 -0.15138
 N618 N 0.93582 0.52800 -0.12766
 C619 C 0.94016 0.51417 -0.13917
 N620 N 0.92869 0.49977 -0.17479
 N621 N 0.91336 0.49916 -0.19793
 C622 C 0.49199 0.33699 -0.30053
 N623 N 0.47571 0.32179 -0.32018
 N624 N 0.47620 0.30735 -0.34569
 C625 C 0.49295 0.30740 -0.35198
 N626 N 0.50920 0.32262 -0.33174
 N627 N 0.50875 0.33716 -0.30685
 C628 C 0.49146 0.35300 -0.27318
 N629 N 0.50754 0.37032 -0.26876
 N630 N 0.50699 0.38492 -0.24454
 C631 C 0.49038 0.38265 -0.22326
 N632 N 0.47433 0.36530 -0.22735
 N633 N 0.47484 0.35077 -0.25219
 C634 C 0.48974 0.39866 -0.19635
 N635 N 0.47512 0.39543 -0.16124
 N636 N 0.47448 0.40993 -0.13674
 C637 C 0.48831 0.42819 -0.14705
 N638 N 0.50289 0.43146 -0.18238
 N639 N 0.50365 0.41693 -0.20634
 C640 C 0.66212 0.15575 -0.29463
 N641 N 0.65994 0.17039 -0.31363
 N642 N 0.67426 0.18530 -0.33961
 C643 C 0.69124 0.18605 -0.34806
 N644 N 0.69337 0.17135 -0.32912
 N645 N 0.67912 0.15653 -0.30267
 C646 C 0.64630 0.13923 -0.26653
 N647 N 0.64948 0.12662 -0.23723
 N648 N 0.63509 0.11151 -0.21218
 C649 C 0.61698 0.10837 -0.21601
 N650 N 0.61380 0.12096 -0.24543
 N651 N 0.62822 0.13616 -0.27003
 C652 C 0.60110 0.09153 -0.18935
 N653 N 0.58275 0.08591 -0.20364
 N654 N 0.56834 0.07043 -0.18014
 C655 C 0.57176 0.06013 -0.14114
 N656 N 0.59008 0.06581 -0.12656
 N657 N 0.60450 0.08119 -0.15045
 C658 C 1.15283 0.49139 -0.30021
 N659 N 1.16782 0.50800 -0.31895
 N660 N 1.18253 0.50811 -0.34472
 C661 C 1.18273 0.49161 -0.35320
 N662 N 1.16769 0.47500 -0.33453
 N663 N 1.15306 0.47490 -0.30829
 C664 C 1.13653 0.49121 -0.27224
 N665 N 1.12358 0.47557 -0.24315
 N666 N 1.10870 0.47533 -0.21808
 C667 C 1.10613 0.49064 -0.22168
 N668 N 1.11905 0.50626 -0.25092
 N669 N 1.13403 0.50657 -0.27554
 C670 C 1.08957 0.49023 -0.19477
 N671 N 1.08448 0.50338 -0.20855
 N672 N 1.06927 0.50281 -0.18468
 C673 C 1.05873 0.48918 -0.14582
 N674 N 1.06388 0.47611 -0.13177
 N675 N 1.07898 0.47656 -0.15603
 C676 C 0.51329 0.66458 -0.29832
 N677 N 0.52192 0.67100 -0.34933
 N678 N 0.52175 0.68561 -0.37488
 C679 C 0.51272 0.69423 -0.35088
 N680 N 0.50407 0.68770 -0.29974
 N681 N 0.50446 0.67326 -0.27379
 C682 C 0.51318 0.64828 -0.27072
 N683 N 0.51031 0.64548 -0.21391
 N684 N 0.51012 0.63059 -0.18899
 C685 C 0.51250 0.61783 -0.22014
 N686 N 0.51525 0.62057 -0.27699
 N687 N 0.51571 0.63559 -0.30178
 C688 C 0.51212 0.60134 -0.19290
 N689 N 0.50811 0.58559 -0.22370
 N690 N 0.50779 0.57061 -0.19903
 C691 C 0.51172 0.57096 -0.14286
 N692 N 0.51581 0.58673 -0.11209
 N693 N 0.51588 0.60161 -0.13660
 C694 C 0.33825 -0.15518 -0.29506
 N695 N 0.33842 -0.17176 -0.30126
 N696 N 0.32403 -0.18665 -0.32714
 C697 C 0.30900 -0.18550 -0.34856
 N698 N 0.30895 -0.16881 -0.34236
 N699 N 0.32322 -0.15399 -0.31584
 C700 C 0.35416 -0.13874 -0.26698
 N701 N 0.35188 -0.12440 -0.24588
 N702 N 0.36637 -0.10942 -0.22065
 C703 C 0.38373 -0.10812 -0.21629
 N704 N 0.38604 -0.12241 -0.23763
 N705 N 0.37148 -0.13751 -0.26222
 C706 C 0.39976 -0.09145 -0.18946
 N707 N 0.41803 -0.08700 -0.20012
 N708 N 0.43261 -0.07167 -0.17649
 C709 C 0.42942 -0.06040 -0.14083
 N710 N 0.41116 -0.06492 -0.12981
 N711 N 0.39659 -0.08011 -0.15399
 C712 C 0.50691 -0.15589 0.29463
 N713 N 0.52315 -0.15664 0.30241
 N714 N 0.52267 -0.17142 0.32898
 C715 C 0.50591 -0.18608 0.34829
 N716 N 0.48964 -0.18536 0.34009
 N717 N 0.49014 -0.17051 0.31399
 C718 C 0.50752 -0.13941 0.26649
 N719 N 0.49250 -0.13636 0.27017
 N720 N 0.49323 -0.12117 0.24561
 C721 C 0.50893 -0.10859 0.21605
 N722 N 0.52390 -0.11171 0.21204
 N723 N 0.52324 -0.12680 0.23705
 C724 C 0.50982 -0.09175 0.18949
 N725 N 0.52353 -0.08137 0.15061
 N726 N 0.52444 -0.06599 0.12684
 C727 C 0.51179 -0.06035 0.14153
 N728 N 0.49812 -0.07068 0.18050
 N729 N 0.49710 -0.08617 0.20388
 C730 C 0.33188 0.48233 0.29467
 N731 N 0.32025 0.48682 0.26505
 N732 N 0.30577 0.48723 0.29071
 C733 C 0.30226 0.48293 0.34676
 N734 N 0.31382 0.47827 0.37617
 N735 N 0.32841 0.47807 0.35068
 C736 C 0.34818 0.48245 0.26698
 N737 N 0.36257 0.48314 0.29855
 N738 N 0.37756 0.48359 0.27356
 C739 C 0.37861 0.48318 0.21611
 N740 N 0.36416 0.48237 0.18452
 N741 N 0.34926 0.48212 0.20951
 C742 C 0.39513 0.48364 0.18876
 N743 N 0.39426 0.47835 0.13365
 N744 N 0.40921 0.47857 0.10913
 C745 C 0.42562 0.48429 0.13869
 N746 N 0.42654 0.48971 0.19364
 N747 N 0.41152 0.48929 0.21833
 C748 C 1.15607 0.66285 0.29659
 N749 N 1.15630 0.67945 0.30719
 N750 N 1.17112 0.69377 0.33354
 C751 C 1.18635 0.69211 0.34976
 N752 N 1.18615 0.67552 0.33876
 N753 N 1.17125 0.66113 0.31291
 C754 C 1.13960 0.64696 0.26847
 N755 N 1.13709 0.62908 0.27011
 N756 N 1.12198 0.61459 0.24531
 C757 C 1.10894 0.61751 0.21749
 N758 N 1.11151 0.63541 0.21554
 N759 N 1.12652 0.64986 0.24083
 C760 C 1.09225 0.60156 0.19036
 N761 N 1.08165 0.60489 0.15221
 N762 N 1.06642 0.59042 0.12779
 C763 C 1.06115 0.57212 0.14111
 N764 N 1.07170 0.56877 0.17938
 N765 N 1.08704 0.58324 0.20338
 C766 C 0.49185 0.15362 0.29842
 N767 N 0.50869 0.16891 0.31439
 N768 N 0.50905 0.18372 0.34026
 C769 C 0.49258 0.18371 0.35166
 N770 N 0.47573 0.16836 0.33585
 N771 N 0.47538 0.15363 0.30945
 C772 C 0.49147 0.13727 0.27022
 N773 N 0.47555 0.12410 0.24260
 N774 N 0.47522 0.10923 0.21716
 C775 C 0.49072 0.10690 0.21894
 N776 N 0.50661 0.12004 0.24674
 N777 N 0.50701 0.13500 0.27168
 C778 C 0.49025 0.09037 0.19172
 N779 N 0.50353 0.08538 0.20490
 N780 N 0.50295 0.07021 0.18082
 C781 C 0.48919 0.05962 0.14227
 N782 N 0.47599 0.06467 0.12877
 N783 N 0.47646 0.07973 0.15329
 C784 C 0.66174 0.50878 0.29995
 N785 N 0.66053 0.49210 0.31598
 N786 N 0.67526 0.49202 0.34117
 C787 C 0.69168 0.50862 0.35177
 N788 N 0.69282 0.52530 0.33588
 N789 N 0.67817 0.52538 0.31018
 C790 C 0.64550 0.50889 0.27235
 N791 N 0.64792 0.52471 0.24495
 N792 N 0.63319 0.52483 0.21991
 C793 C 0.61547 0.50920 0.22187
 N794 N 0.61303 0.49340 0.24949
 N795 N 0.62780 0.49322 0.27405
 C796 C 0.59925 0.50943 0.19465
 N797 N 0.58102 0.49592 0.20723
 N798 N 0.56632 0.49630 0.18289
 C799 C 0.56934 0.51010 0.14470
 N800 N 0.58755 0.52354 0.13187
 N801 N 0.60224 0.52327 0.15661
 C802 C 0.84818 0.33745 0.30075
 N803 N 0.83208 0.32573 0.27118
 N804 N 0.81730 0.31117 0.29684
 C805 C 0.81815 0.30764 0.35287
 N806 N 0.83433 0.31930 0.38226
 N807 N 0.84903 0.33398 0.35675
 C808 C 0.86432 0.35373 0.27284
 N809 N 0.87809 0.36813 0.30415
 N810 N 0.89265 0.38301 0.27889
 C811 C 0.89408 0.38394 0.22142
 N812 N 0.88036 0.36949 0.19010
 N813 N 0.86568 0.35471 0.21536
 C814 C 0.91026 0.40022 0.19365
 N815 N 0.91455 0.39906 0.13863
 N816 N 0.92944 0.41373 0.11371
 C817 C 0.94042 0.43015 0.14273
 N818 N 0.93605 0.43138 0.19759
 N819 N 0.92129 0.41664 0.22271
   
