data_POSCAR
  _audit_creation_date              2014-09-24
  _audit_creation_method            'ToBaCCo'
  _symmetry_space_group_name_H-M    'P1'
  _symmetry_Int_Tables_number       1
  _symmetry_cell_setting            triclinic
  loop_
  _symmetry_equiv_pos_as_xyz
 x,y,z
_cell_length_a 38.4586
_cell_length_b 18.0531
_cell_length_c 14.2834
_cell_angle_alpha 92.772900
_cell_angle_beta 89.643300
_cell_angle_gamma 89.147100
loop_
  _atom_site_label
  _atom_site_type_symbol
  _atom_site_fract_x
  _atom_site_fract_y
  _atom_site_fract_z
O1 O 0.71399 0.28131 0.60340
 O2 O 0.78086 0.27496 0.41602
 O3 O 0.71349 0.29867 0.42462
 O4 O 0.78225 0.26517 0.59758
 O5 O 0.77552 0.14447 0.57356
 O6 O 0.70628 0.17836 0.40412
 O7 O 0.77234 0.15546 0.39477
 O8 O 0.70758 0.16053 0.58380
 Cu9 Cu 0.74848 0.29222 0.51293
 Cu10 Cu 0.73971 0.14804 0.48750
 C11 C 0.69849 0.22221 0.62320
 C12 C 0.78809 0.21343 0.37267
 C13 C 0.69744 0.24414 0.38660
 C14 C 0.79110 0.19891 0.61324
 O15 O 0.23170 0.84624 0.61221
 O16 O 0.29415 0.80992 0.41791
 O17 O 0.22852 0.85034 0.43009
 O18 O 0.29743 0.80514 0.59782
 O19 O 0.28209 0.68788 0.58797
 O20 O 0.21221 0.73377 0.42574
 O21 O 0.27736 0.69380 0.40735
 O22 O 0.21698 0.72912 0.60569
 Cu23 Cu 0.26436 0.83974 0.51561
 Cu24 Cu 0.24563 0.69961 0.50579
 C25 C 0.21352 0.79429 0.64275
 C26 C 0.29663 0.74512 0.37960
 C27 C 0.20845 0.79949 0.39941
 C28 C 0.30190 0.73847 0.62040
 O29 O 0.20484 0.30745 -0.40115
 O30 O 0.27038 0.35159 -0.57782
 O31 O 0.20513 0.31359 -0.58212
 O32 O 0.27005 0.34614 -0.39711
 O33 O 0.28612 0.22836 -0.41023
 O34 O 0.22126 0.19642 -0.59514
 O35 O 0.28646 0.23372 -0.58954
 O36 O 0.22073 0.19009 -0.41393
 Cu37 Cu 0.23593 0.34136 -0.48813
 Cu38 Cu 0.25509 0.20031 -0.50342
 C39 C 0.20121 0.24120 -0.37723
 C40 C 0.28995 0.30008 -0.61314
 C41 C 0.20182 0.24929 -0.62065
 C42 C 0.28964 0.29311 -0.37313
 O43 O -0.26720 0.66051 -0.59172
 O44 O -0.20246 0.69698 -0.40692
 O45 O -0.26734 0.65337 -0.40967
 O46 O -0.20291 0.70621 -0.58671
 O47 O -0.22086 0.82280 -0.56650
 O48 O -0.28656 0.76851 -0.39613
 O49 O -0.22247 0.81170 -0.38750
 O50 O -0.28543 0.77670 -0.57586
 Cu51 Cu -0.23326 0.66738 -0.50041
 Cu52 Cu -0.25574 0.80617 -0.48022
 C53 C -0.28757 0.71238 -0.61513
 C54 C -0.20108 0.76100 -0.36632
 C55 C -0.28822 0.70174 -0.37257
 C56 C -0.20032 0.77423 -0.60431
 N57 N 0.04118 0.92199 -0.15289
 N58 N 0.07063 0.91910 -0.20059
 N59 N -0.03200 0.86890 -0.08997
 N60 N -0.05924 0.82529 -0.09768
 N61 N -0.03170 0.91551 -0.15757
 N62 N -0.05840 0.90438 -0.21343
 N63 N 0.04154 0.87366 -0.08695
 N64 N 0.07137 0.83610 -0.08877
 C65 C 0.08903 0.86498 -0.16049
 C66 C -0.07520 0.84731 -0.17624
 N67 N -0.03562 0.93861 0.17353
 N68 N -0.06364 0.93540 0.22661
 N69 N 0.03928 0.88678 0.11455
 N70 N 0.06702 0.84492 0.12827
 N71 N 0.03745 0.94190 0.17766
 N72 N 0.06360 0.93817 0.23668
 N73 N -0.03419 0.88226 0.11196
 N74 N -0.06128 0.83895 0.12238
 Mn75 Mn 0.00365 0.87672 0.01240
 C76 C -0.07966 0.87316 0.19404
 C77 C 0.08181 0.87676 0.20573
 N78 N -0.03570 1.07395 -0.16381
 N79 N -0.06341 1.07226 -0.21748
 N80 N 0.03581 1.13565 -0.09838
 N81 N 0.06167 1.18151 -0.11065
 N82 N 0.03719 1.08042 -0.16137
 N83 N 0.06371 1.08780 -0.21890
 N84 N -0.03758 1.13040 -0.10244
 N85 N -0.06669 1.16883 -0.11369
 Mn86 Mn 0.00278 0.99783 -0.15992
 C87 C -0.08273 1.13162 -0.18571
 C88 C 0.07866 1.15161 -0.18715
 N89 N 0.03448 1.10100 0.16971
 N90 N 0.06172 1.11096 0.22396
 N91 N -0.03915 1.14412 0.09955
 N92 N -0.06820 1.18423 0.10450
 N93 N -0.03822 1.09708 0.16674
 N94 N -0.06639 1.10404 0.21928
 N95 N 0.03422 1.14854 0.10296
 N96 N 0.06160 1.19185 0.10992
 Mn97 Mn -0.00045 1.01975 0.17294
 Mn98 Mn -0.00171 1.14084 0.00039
 Cl99 Cl 0.00108 1.00879 0.00648
 C100 C 0.07817 1.16851 0.18695
 C101 C -0.08464 1.15923 0.18071
 N102 N 0.46224 0.43318 0.17059
 N103 N 0.43522 0.43096 0.22772
 N104 N 0.53354 0.36610 0.10952
 N105 N 0.55913 0.31794 0.12117
 N106 N 0.53527 0.42168 0.17202
 N107 N 0.56215 0.41324 0.22762
 N108 N 0.46061 0.37978 0.10542
 N109 N 0.43235 0.34055 0.11593
 C110 C 0.41676 0.37227 0.19327
 C111 C 0.57660 0.34828 0.19507
 N112 N 0.53789 0.40239 -0.15724
 N113 N 0.56435 0.38452 -0.21341
 N114 N 0.46221 0.36895 -0.09557
 N115 N 0.43293 0.33201 -0.10411
 N116 N 0.46515 0.41567 -0.16263
 N117 N 0.43819 0.41106 -0.21896
 N118 N 0.53520 0.35464 -0.09124
 N119 N 0.55983 0.30304 -0.10022
 Mn120 Mn 0.49779 0.36645 0.00707
 C121 C 0.57768 0.32266 -0.17668
 C122 C 0.41840 0.35786 -0.18254
 N123 N 0.53973 0.58034 0.16897
 N124 N 0.56671 0.58588 0.22510
 N125 N 0.46813 0.63903 0.09981
 N126 N 0.44017 0.68282 0.10435
 N127 N 0.46716 0.59165 0.16661
 N128 N 0.43901 0.60238 0.21846
 N129 N 0.54180 0.62811 0.10291
 N130 N 0.57059 0.66674 0.11184
 Mn131 Mn 0.50116 0.50681 0.17064
 C132 C 0.58564 0.64069 0.18950
 C133 C 0.42246 0.66000 0.18006
 N134 N 0.47034 0.57445 -0.16701
 N135 N 0.44405 0.58318 -0.22450
 N136 N 0.54378 0.61726 -0.09859
 N137 N 0.57280 0.65490 -0.10607
 N138 N 0.54348 0.56107 -0.16059
 N139 N 0.57238 0.55846 -0.21110
 N140 N 0.47046 0.62844 -0.10226
 N141 N 0.44408 0.67466 -0.11379
 Mn142 Mn 0.50429 0.48840 -0.16309
 Mn143 Mn 0.50599 0.62941 0.00044
 Cl144 Cl 0.50232 0.49782 0.00369
 C145 C 0.42789 0.64657 -0.19128
 C146 C 0.59036 0.61734 -0.17635
 C147 C 0.33244 0.26817 0.25258
 C148 C 0.31895 0.31846 0.32368
 C149 C 0.33623 0.38473 0.34410
 C150 C 0.36732 0.40000 0.30000
 C151 C 0.38295 0.34943 0.23418
 C152 C 0.36547 0.28163 0.21028
 C153 C 0.31361 0.20489 0.22221
 C154 C 0.32784 0.15288 0.15728
 C155 C 0.36102 0.16253 0.12164
 C156 C 0.37973 0.22573 0.14763
 H157 H 0.28748 0.19556 0.24680
 H158 H 0.31319 0.10440 0.13530
 H159 H 0.37235 0.12081 0.07320
 H160 H 0.40550 0.22773 0.11889
 H161 H 0.32637 0.42410 0.39791
 H162 H 0.37966 0.45188 0.31983
 C163 C -0.16630 0.77400 0.24179
 C164 C -0.17134 0.79838 0.33673
 C165 C -0.14776 0.84723 0.37916
 C166 C -0.11872 0.87002 0.33082
 C167 C -0.11224 0.84603 0.23723
 C168 C -0.13693 0.79916 0.19056
 C169 C -0.19060 0.72740 0.19578
 C170 C -0.18660 0.70677 0.10106
 C171 C -0.15875 0.73288 0.05028
 C172 C -0.13422 0.77878 0.09396
 H173 H -0.21318 0.70767 0.23207
 H174 H -0.20557 0.67143 0.06640
 H175 H -0.15641 0.71816 -0.02378
 H176 H -0.11404 0.79931 0.04998
 H177 H -0.15137 0.86653 0.45170
 H178 H -0.10080 0.90630 0.36821
 C179 C 0.66710 0.75054 0.26515
 C180 C 0.68389 0.69571 0.31783
 C181 C 0.67008 0.62442 0.31730
 C182 C 0.63896 0.60838 0.27282
 C183 C 0.61997 0.66303 0.22781
 C184 C 0.63414 0.73526 0.22304
 C185 C 0.68234 0.82020 0.25313
 C186 C 0.66457 0.87549 0.20734
 C187 C 0.63141 0.86268 0.17270
 C188 C 0.61622 0.79357 0.18038
 H189 H 0.70835 0.83225 0.27694
 H190 H 0.67650 0.92877 0.19930
 H191 H 0.61742 0.90644 0.13900
 H192 H 0.59027 0.78771 0.15355
 H193 H 0.68250 0.58120 0.35586
 H194 H 0.62914 0.55259 0.27613
 C195 C 0.15401 1.29056 0.27309
 C196 C 0.17507 1.23448 0.31351
 C197 C 0.16631 1.15985 0.29501
 C198 C 0.13553 1.14082 0.25079
 C199 C 0.11218 1.19504 0.22186
 C200 C 0.12159 1.27079 0.23055
 C201 C 0.16448 1.36536 0.27145
 C202 C 0.14247 1.41980 0.23762
 C203 C 0.10981 1.40126 0.20375
 C204 C 0.09937 1.32762 0.19990
 H205 H 0.19010 1.38269 0.29257
 H206 H 0.15084 1.47678 0.23769
 H207 H 0.09266 1.44404 0.17887
 H208 H 0.07380 1.31639 0.17268
 H209 H 0.18208 1.11497 0.32056
 H210 H 0.12931 1.08254 0.24206
 C211 C 0.63506 0.19863 -0.33689
 C212 C 0.66820 0.22762 -0.31165
 C213 C 0.67053 0.27698 -0.23318
 C214 C 0.64075 0.30221 -0.18495
 C215 C 0.60786 0.28167 -0.21654
 C216 C 0.60460 0.22870 -0.29181
 C217 C 0.63110 0.14404 -0.40960
 C218 C 0.59837 0.13075 -0.45216
 C219 C 0.56853 0.15791 -0.40286
 C220 C 0.57161 0.20620 -0.32424
 H221 H 0.65300 0.11300 -0.43853
 H222 H 0.59576 0.08266 -0.52311
 H223 H 0.54298 0.14223 -0.42729
 H224 H 0.54794 0.22674 -0.29005
 H225 H 0.69546 0.29923 -0.21213
 H226 H 0.64311 0.34176 -0.12606
 C227 C 0.18407 0.87822 -0.23452
 C228 C 0.18767 0.80909 -0.28731
 C229 C 0.16183 0.75538 -0.27623
 C230 C 0.13093 0.77279 -0.22842
 C231 C 0.12480 0.84407 -0.18950
 C232 C 0.15190 0.89627 -0.18772
 C233 C 0.21169 0.92895 -0.22395
 C234 C 0.20702 0.99682 -0.17423
 C235 C 0.17517 1.01524 -0.13211
 C236 C 0.14786 0.96550 -0.13815
 H237 H 0.23761 0.91603 -0.24968
 H238 H 0.22842 1.03493 -0.16722
 H239 H 0.17177 1.06790 -0.09334
 H240 H 0.12386 0.98104 -0.10183
 H241 H 0.16400 0.70092 -0.31129
 H242 H 0.11061 0.73183 -0.22800
 C243 C 0.34601 0.76509 -0.24864
 C244 C 0.33196 0.71786 -0.32088
 C245 C 0.34865 0.65017 -0.34429
 C246 C 0.37922 0.62976 -0.30099
 C247 C 0.39507 0.67623 -0.23258
 C248 C 0.37849 0.74590 -0.20643
 C249 C 0.32814 0.83046 -0.21623
 C250 C 0.34271 0.87869 -0.14895
 C251 C 0.37525 0.86309 -0.11270
 C252 C 0.39304 0.79785 -0.14085
 H253 H 0.30247 0.84443 -0.24078
 H254 H 0.32877 0.92879 -0.12535
 H255 H 0.38678 0.90172 -0.06199
 H256 H 0.41836 0.79095 -0.11115
 H257 H 0.33846 0.61302 -0.39901
 H258 H 0.39077 0.57661 -0.32286
 C259 C -0.17449 1.21287 -0.23452
 C260 C -0.17837 1.18403 -0.32794
 C261 C -0.15213 1.13896 -0.36896
 C262 C -0.12186 1.12385 -0.32093
 C263 C -0.11660 1.15198 -0.22880
 C264 C -0.14365 1.19566 -0.18342
 C265 C -0.20121 1.25596 -0.18961
 C266 C -0.19799 1.28135 -0.09645
 C267 C -0.16854 1.26330 -0.04583
 C268 C -0.14178 1.22050 -0.08817
 H269 H -0.22503 1.26936 -0.22539
 H270 H -0.21875 1.31415 -0.06283
 H271 H -0.16659 1.28188 0.02715
 H272 H -0.12043 1.20609 -0.04394
 H273 H -0.15474 1.11640 -0.44028
 H274 H -0.10210 1.08997 -0.35741
 C275 C 0.68514 0.61366 -0.26224
 C276 C 0.68533 0.68177 -0.30939
 C277 C 0.65646 0.73043 -0.29654
 C278 C 0.62663 0.70951 -0.24982
 C279 C 0.62436 0.63941 -0.21364
 C280 C 0.65405 0.59190 -0.21594
 C281 C 0.71541 0.56878 -0.25440
 C282 C 0.71468 0.50336 -0.20663
 C283 C 0.68418 0.48156 -0.16417
 C284 C 0.65402 0.52492 -0.16885
 H285 H 0.74048 0.58496 -0.27991
 H286 H 0.73819 0.47024 -0.20059
 H287 H 0.68434 0.43196 -0.12483
 H288 H 0.63114 0.50695 -0.13229
 H289 H 0.65578 0.78386 -0.32797
 H290 H 0.60441 0.74718 -0.24612
 C291 C 0.15397 1.27652 -0.26055
 C292 C 0.17407 1.22290 -0.31542
 C293 C 0.16393 1.14841 -0.31633
 C294 C 0.13319 1.12797 -0.27438
 C295 C 0.11114 1.18036 -0.22814
 C296 C 0.12131 1.25597 -0.22141
 C297 C 0.16581 1.34951 -0.24087
 C298 C 0.14468 1.40269 -0.19393
 C299 C 0.11147 1.38464 -0.16516
 C300 C 0.09978 1.31228 -0.17857
 H301 H 0.19183 1.36606 -0.25806
 H302 H 0.15408 1.45838 -0.18034
 H303 H 0.09480 1.42673 -0.13099
 H304 H 0.07357 1.30233 -0.15616
 H305 H 0.17881 1.10519 -0.35448
 H306 H 0.12636 1.06993 -0.27975
 C307 C 0.33402 0.25485 -0.25097
 C308 C 0.31893 0.30874 -0.30831
 C309 C 0.33496 0.37738 -0.31432
 C310 C 0.36647 0.39146 -0.27100
 C311 C 0.38368 0.33742 -0.22046
 C312 C 0.36730 0.26792 -0.20940
 C313 C 0.31668 0.18841 -0.23355
 C314 C 0.33251 0.13385 -0.18207
 C315 C 0.36584 0.14409 -0.14734
 C316 C 0.38318 0.21008 -0.16078
 H317 H 0.29049 0.17849 -0.25765
 H318 H 0.31895 0.08305 -0.16975
 H319 H 0.37832 0.10070 -0.10931
 H320 H 0.40915 0.21367 -0.13364
 H321 H 0.32390 0.41977 -0.35690
 H322 H 0.37791 0.44524 -0.27930
 C323 C -0.15350 0.72675 -0.25004
 C324 C -0.17231 0.77987 -0.30087
 C325 C -0.16068 0.85302 -0.29953
 C326 C -0.12991 0.87287 -0.25604
 C327 C -0.10905 0.82047 -0.21266
 C328 C -0.12092 0.74637 -0.20841
 C329 C -0.16636 0.65481 -0.23900
 C330 C -0.14673 0.60187 -0.19398
 C331 C -0.11400 0.61929 -0.15936
 C332 C -0.10108 0.69058 -0.16645
 H333 H -0.19195 0.63911 -0.26281
 H334 H -0.15690 0.54688 -0.18633
 H335 H -0.09863 0.57748 -0.12595
 H336 H -0.07543 0.70045 -0.13918
 H337 H -0.17458 0.89508 -0.33668
 H338 H -0.12187 0.93002 -0.25888
 C339 C 0.34185 0.77977 0.25580
 C340 C 0.32440 0.72647 0.30871
 C341 C 0.33665 0.65302 0.30349
 C342 C 0.36726 0.63347 0.25661
 C343 C 0.38746 0.68629 0.21349
 C344 C 0.37424 0.76021 0.20996
 C345 C 0.32781 0.85176 0.24657
 C346 C 0.34593 0.90459 0.19862
 C347 C 0.37828 0.88700 0.15894
 C348 C 0.39240 0.81577 0.16437
 H349 H 0.30234 0.86751 0.27369
 H350 H 0.33483 0.95958 0.19234
 H351 H 0.39240 0.92867 0.12289
 H352 H 0.41753 0.80569 0.13226
 H353 H 0.32363 0.61045 0.34086
 H354 H 0.37598 0.57621 0.25772
 C355 C -0.16604 1.26740 0.27016
 C356 C -0.18480 1.20654 0.30506
 C357 C -0.17322 1.13411 0.27856
 C358 C -0.14160 1.12128 0.23389
 C359 C -0.12028 1.17985 0.21180
 C360 C -0.13285 1.25380 0.22597
 C361 C -0.17939 1.34094 0.27582
 C362 C -0.15968 1.39965 0.24595
 C363 C -0.12647 1.38669 0.20930
 C364 C -0.11308 1.31461 0.19915
 H365 H -0.20554 1.35411 0.29953
 H366 H -0.17031 1.45558 0.25106
 H367 H -0.11118 1.43268 0.18720
 H368 H -0.08731 1.30747 0.16949
 H369 H -0.18728 1.08572 0.29868
 H370 H -0.13294 1.06428 0.22041
 C371 C 0.63496 0.22144 0.33289
 C372 C 0.66727 0.25865 0.32494
 C373 C 0.66891 0.32062 0.26956
 C374 C 0.63946 0.34726 0.22521
 C375 C 0.60725 0.31402 0.23694
 C376 C 0.60450 0.25181 0.29269
 C377 C 0.63143 0.15793 0.38533
 C378 C 0.59863 0.13715 0.42059
 C379 C 0.56891 0.16543 0.37646
 C380 C 0.57183 0.22123 0.31277
 H381 H 0.65344 0.12591 0.40653
 H382 H 0.54351 0.14455 0.39334
 H383 H 0.54812 0.24227 0.28267
 H384 H 0.69306 0.35013 0.26281
 H385 H 0.64159 0.39578 0.18384
 C386 C 0.16407 0.76520 0.27275
 C387 C 0.17896 0.81780 0.33742
 C388 C 0.16292 0.88746 0.35186
 C389 C 0.13191 0.90439 0.30784
 C390 C 0.11502 0.85199 0.24893
 C391 C 0.13090 0.78043 0.23238
 C392 C 0.18156 0.69785 0.24660
 C393 C 0.16565 0.64385 0.18954
 C394 C 0.13205 0.65543 0.15788
 C395 C 0.11474 0.72262 0.17898
 H396 H 0.20794 0.68669 0.26807
 H397 H 0.17932 0.59238 0.17074
 H398 H 0.11936 0.61223 0.11608
 H399 H 0.08844 0.72665 0.15454
 H400 H 0.17385 0.92877 0.40028
 H401 H 0.12074 0.95928 0.32173
   
