data_POSCAR
  _audit_creation_date              2014-09-24
  _audit_creation_method            'ToBaCCo'
  _symmetry_space_group_name_H-M    'P1'
  _symmetry_Int_Tables_number       1
  _symmetry_cell_setting            triclinic
  loop_
  _symmetry_equiv_pos_as_xyz
 x,y,z
_cell_length_a 25.5139
_cell_length_b 26.4983
_cell_length_c 25.0545
_cell_angle_alpha 90.005300
_cell_angle_beta 89.641500
_cell_angle_gamma 89.417600
loop_
  _atom_site_label
  _atom_site_type_symbol
  _atom_site_fract_x
  _atom_site_fract_y
  _atom_site_fract_z
Si1 Si 1.25095 0.25086 0.24915
 Si2 Si 0.74616 -0.24671 0.24765
 Si3 Si 0.74821 0.24964 -0.24675
 Si4 Si 1.25006 -0.25065 -0.25627
 Si5 Si 0.24797 0.25672 0.75302
 Si6 Si 0.74830 0.75300 0.75588
 Si7 Si 0.74649 0.25109 0.24944
 Si8 Si 0.25137 0.75223 0.25814
 N9 N 1.05694 -0.05471 -0.09293
 N10 N 1.08925 -0.06751 -0.13215
 N11 N 0.94693 -0.08781 -0.05519
 N12 N 0.91597 -0.12519 -0.06875
 N13 N 0.94647 -0.05244 -0.09195
 N14 N 0.91456 -0.06479 -0.13113
 N15 N 1.05646 -0.08993 -0.05594
 N16 N 1.08772 -0.12781 -0.06956
 C17 C 1.10873 -0.11285 -0.11660
 C18 C 0.89521 -0.10991 -0.11559
 N19 N 0.94652 -0.05295 0.09744
 N20 N 0.91226 -0.06391 0.13531
 N21 N 1.05656 -0.09045 0.05991
 N22 N 1.08739 -0.12883 0.07289
 N23 N 1.05608 -0.05633 0.09805
 N24 N 1.08610 -0.07110 0.13804
 N25 N 0.94614 -0.08738 0.05970
 N26 N 0.91104 -0.12214 0.07048
 Mn27 Mn 1.00163 -0.08915 0.00219
 C28 C 0.88981 -0.10671 0.11739
 C29 C 1.10620 -0.11594 0.12135
 N30 N 0.94800 0.05683 -0.09097
 N31 N 0.91282 0.06908 -0.12743
 N32 N 1.05989 0.08795 -0.05446
 N33 N 1.09405 0.12335 -0.06567
 N34 N 1.05836 0.05439 -0.09293
 N35 N 1.09143 0.06649 -0.13166
 N36 N 0.95023 0.09192 -0.05405
 N37 N 0.91729 0.12915 -0.06468
 Mn38 Mn 1.00236 0.00100 -0.09269
 C39 C 0.89366 0.11409 -0.11001
 C40 C 1.11389 0.10938 -0.11361
 N41 N 1.05831 0.05313 0.09798
 N42 N 1.09249 0.06354 0.13565
 N43 N 0.95004 0.09134 0.06071
 N44 N 0.91689 0.12841 0.07185
 N45 N 0.94826 0.05631 0.09775
 N46 N 0.91363 0.06873 0.13515
 N47 N 1.06011 0.08723 0.06000
 N48 N 1.09601 0.12128 0.07037
 Mn49 Mn 1.00224 0.00008 0.09826
 Mn50 Mn 1.00516 0.08987 0.00308
 Cl51 Cl 1.00289 0.00037 0.00268
 C52 C 1.11624 0.10569 0.11735
 C53 C 0.89379 0.11332 0.11770
 N54 N 0.94238 0.55877 0.40549
 N55 N 0.90933 0.57200 0.36755
 N56 N 1.05443 0.58858 0.44269
 N57 N 1.08953 0.62347 0.43220
 N58 N 1.05252 0.55531 0.40392
 N59 N 1.08555 0.56775 0.36520
 N60 N 0.94429 0.59380 0.44255
 N61 N 0.91315 0.63211 0.43024
 C62 C 0.89087 0.61750 0.38391
 C63 C 1.10915 0.60976 0.38414
 N64 N 1.05300 0.55299 0.59428
 N65 N 1.08650 0.56410 0.63246
 N66 N 0.94458 0.59260 0.55836
 N67 N 0.91192 0.62985 0.57027
 N68 N 0.94301 0.55743 0.59531
 N69 N 0.90861 0.56958 0.63296
 N70 N 1.05438 0.58730 0.55652
 N71 N 1.08932 0.62198 0.56740
 Mn72 Mn 0.99930 0.59084 0.50007
 C73 C 1.10954 0.60675 0.61445
 C74 C 0.88925 0.61468 0.61644
 N75 N 1.04839 0.44529 0.40413
 N76 N 1.08144 0.43201 0.36578
 N77 N 0.93609 0.41586 0.44194
 N78 N 0.90229 0.38046 0.42968
 N79 N 0.93854 0.44983 0.40384
 N80 N 0.90676 0.43786 0.36436
 N81 N 1.04598 0.40986 0.44079
 N82 N 1.07724 0.37166 0.42821
 Mn83 Mn 0.99556 0.50230 0.40388
 C84 C 1.09971 0.38633 0.38178
 C85 C 0.88364 0.39497 0.38163
 N86 N 0.93915 0.44855 0.59533
 N87 N 0.90737 0.43659 0.63514
 N88 N 1.04610 0.40861 0.55603
 N89 N 1.07848 0.37080 0.56646
 N90 N 1.04933 0.44374 0.59285
 N91 N 1.08477 0.43108 0.62886
 N92 N 0.93629 0.41499 0.55690
 N93 N 0.90215 0.37978 0.56932
 Mn94 Mn 0.99621 0.50068 0.59495
 Mn95 Mn 0.99103 0.41207 0.49889
 Cl96 Cl 0.99550 0.50146 0.49941
 C97 C 0.88379 0.39412 0.61782
 C98 C 1.10288 0.38569 0.61144
 N99 N 0.59409 0.05166 0.55986
 N100 N 0.63214 0.08325 0.57094
 N101 N 0.55367 -0.05247 0.59687
 N102 N 0.56477 -0.08567 0.63464
 N103 N 0.58992 -0.05352 0.55944
 N104 N 0.62664 -0.08698 0.57081
 N105 N 0.55755 0.05350 0.59703
 N106 N 0.56957 0.08680 0.63407
 C107 C 0.61607 0.10525 0.61705
 C108 C 0.61023 -0.10719 0.61738
 N109 N 0.40420 -0.04505 0.56019
 N110 N 0.36751 -0.07860 0.56979
 N111 N 0.44426 0.05849 0.59788
 N112 N 0.43247 0.09054 0.63663
 N113 N 0.40882 0.06080 0.56014
 N114 N 0.37255 0.09491 0.57180
 N115 N 0.44052 -0.04710 0.59707
 N116 N 0.42956 -0.08210 0.63274
 Mn117 Mn 0.49899 0.00308 0.59775
 C118 C 0.38402 -0.10157 0.61502
 C119 C 0.38815 0.11365 0.61922
 N120 N 0.58981 -0.05402 0.44480
 N121 N 0.62490 -0.08949 0.43373
 N122 N 0.55780 0.05375 0.40782
 N123 N 0.56996 0.08711 0.37078
 N124 N 0.59442 0.05152 0.44438
 N125 N 0.63276 0.08279 0.43283
 N126 N 0.55385 -0.05186 0.40758
 N127 N 0.56376 -0.08542 0.36993
 Mn128 Mn 0.59244 -0.00107 0.50211
 C129 C 0.60778 -0.10899 0.38715
 C130 C 0.61668 0.10509 0.38713
 N131 N 0.40920 0.06111 0.44579
 N132 N 0.37439 0.09685 0.43550
 N133 N 0.44088 -0.04743 0.40822
 N134 N 0.42951 -0.08183 0.37201
 N135 N 0.40392 -0.04489 0.44486
 N136 N 0.36606 -0.07690 0.43407
 N137 N 0.44498 0.05885 0.40798
 N138 N 0.43510 0.09269 0.37061
 Mn139 Mn 0.40608 0.00800 0.50275
 Mn140 Mn 0.49935 0.00331 0.40739
 Cl141 Cl 0.49923 0.00333 0.50253
 C142 C 0.39177 0.11694 0.38917
 C143 C 0.38292 -0.10028 0.38894
 N144 N 0.59249 0.55280 0.05851
 N145 N 0.62971 0.58554 0.06871
 N146 N 0.55326 0.44896 0.09608
 N147 N 0.56353 0.41524 0.13341
 N148 N 0.58915 0.44716 0.05830
 N149 N 0.62449 0.41186 0.06863
 N150 N 0.55607 0.55443 0.09575
 N151 N 0.56744 0.58836 0.13225
 C152 C 0.61328 0.60765 0.11462
 C153 C 0.60771 0.39203 0.11538
 N154 N 0.40371 0.45448 0.06002
 N155 N 0.36673 0.42143 0.07051
 N156 N 0.44299 0.55912 0.09714
 N157 N 0.43192 0.59230 0.13512
 N158 N 0.40676 0.56028 0.06015
 N159 N 0.37012 0.59398 0.07201
 N160 N 0.44017 0.45286 0.09675
 N161 N 0.42909 0.41846 0.13310
 Mn162 Mn 0.49811 0.50385 0.09697
 C163 C 0.38341 0.39881 0.11585
 C164 C 0.38697 0.61447 0.11812
 N165 N 0.58887 0.44689 -0.05646
 N166 N 0.62365 0.41101 -0.06711
 N167 N 0.55560 0.55403 -0.09348
 N168 N 0.56563 0.58904 -0.12936
 N169 N 0.59180 0.55330 -0.05646
 N170 N 0.62716 0.58832 -0.06584
 N171 N 0.55275 0.44858 -0.09348
 N172 N 0.56236 0.41447 -0.13071
 Mn173 Mn 0.59114 0.50003 0.00092
 C174 C 0.60636 0.39090 -0.11339
 C175 C 0.61013 0.61040 -0.11140
 N176 N 0.40719 0.56050 -0.05458
 N177 N 0.37074 0.59435 -0.06610
 N178 N 0.43998 0.45237 -0.09195
 N179 N 0.42857 0.41814 -0.12823
 N180 N 0.40331 0.45470 -0.05502
 N181 N 0.36566 0.42250 -0.06544
 N182 N 0.44261 0.55805 -0.09278
 N183 N 0.43064 0.58959 -0.13169
 Mn184 Mn 0.40482 0.50751 0.00265
 Mn185 Mn 0.49776 0.50323 -0.09339
 Cl186 Cl 0.49797 0.50367 0.00184
 C187 C 0.38638 0.61272 -0.11389
 C188 C 0.38228 0.39961 -0.11085
 C189 C 1.18040 0.16998 0.23298
 C190 C 1.21274 0.20548 0.20813
 C191 C 1.22069 0.20067 0.15261
 C192 C 1.19086 0.16645 0.12261
 C193 C 1.15437 0.13480 0.14801
 C194 C 1.15257 0.13494 0.20367
 C195 C 1.10623 0.13784 0.24005
 C196 C 1.13617 0.17670 0.27182
 H197 H 1.24864 0.22405 0.13189
 H198 H 1.19503 0.16596 0.07957
 H199 H 1.10014 0.10196 0.26211
 H200 H 1.07074 0.15356 0.22025
 H201 H 1.14652 0.16327 0.31243
 H202 H 1.11779 0.21485 0.26983
 C203 C 1.20622 0.70824 0.64813
 C204 C 1.21003 0.70476 0.70380
 C205 C 1.18000 0.66789 0.73014
 C206 C 1.14778 0.63504 0.70138
 C207 C 1.14525 0.63820 0.64551
 C208 C 1.17397 0.67576 0.61981
 C209 C 1.21289 0.66845 0.57593
 C210 C 1.24859 0.70302 0.60658
 H211 H 1.18234 0.66335 0.77290
 H212 H 1.12509 0.60719 0.72280
 H213 H 1.19899 0.68491 0.53767
 H214 H 1.22790 0.62898 0.57319
 H215 H 1.25609 0.73839 0.58424
 H216 H 1.28433 0.68375 0.62180
 C217 C 0.65418 0.20354 0.71863
 C218 C 0.70785 0.20914 0.70920
 C219 C 0.72997 0.18409 0.66483
 C220 C 0.69950 0.15204 0.63307
 C221 C 0.64662 0.14309 0.64619
 C222 C 0.62434 0.17100 0.68810
 C223 C 0.59367 0.15356 0.73541
 C224 C 0.62625 0.18912 0.76886
 H225 H 0.77121 0.18807 0.65556
 H226 H 0.71814 0.13223 0.60014
 H227 H 0.60080 0.11307 0.74484
 H228 H 0.55172 0.16507 0.73311
 H229 H 0.65229 0.16933 0.79769
 H230 H 0.60295 0.22100 0.78589
 C231 C 0.72305 0.69225 0.15700
 C232 C 0.70460 0.71285 0.20496
 C233 C 0.65209 0.70330 0.21924
 C234 C 0.62139 0.67047 0.18866
 C235 C 0.64258 0.64656 0.14307
 C236 C 0.69265 0.66072 0.12640
 C237 C 0.73900 0.63032 0.10829
 C238 C 0.77263 0.66537 0.14161
 H239 H 0.63530 0.71874 0.25551
 H240 H 0.58203 0.66207 0.20216
 H241 H 0.74615 0.63407 0.06466
 H242 H 0.73831 0.59092 0.12356
 H243 H 0.79888 0.68921 0.11690
 H244 H 0.79214 0.64585 0.17529
 C245 C 0.79029 -0.20597 0.15177
 C246 C 0.78504 -0.20118 0.20729
 C247 C 0.81468 -0.16406 0.23319
 C248 C 0.84842 -0.13255 0.20417
 C249 C 0.85293 -0.13735 0.14846
 C250 C 0.82407 -0.17479 0.12314
 C251 C 0.78635 -0.16722 0.07875
 C252 C 0.74895 -0.20012 0.10973
 H253 H 0.81127 -0.15872 0.27584
 H254 H 0.87087 -0.10451 0.22529
 H255 H 0.80057 -0.18481 0.04099
 H256 H 0.77262 -0.12741 0.07502
 H257 H 0.74067 -0.23558 0.08796
 H258 H 0.71356 -0.17946 0.12430
 C259 C 0.78937 0.29159 0.65682
 C260 C 0.78729 0.29506 0.71257
 C261 C 0.81703 0.33290 0.73728
 C262 C 0.84817 0.36585 0.70680
 C263 C 0.84951 0.36216 0.65079
 C264 C 0.82029 0.32423 0.62673
 C265 C 0.77930 0.33116 0.58528
 C266 C 0.74518 0.29640 0.61793
 H267 H 0.81529 0.33806 0.78002
 H268 H 0.87084 0.39432 0.72701
 H269 H 0.79164 0.31462 0.54649
 H270 H 0.76392 0.37053 0.58321
 H271 H 0.73697 0.26077 0.59641
 H272 H 0.71006 0.31554 0.63537
 C273 C 0.27557 -0.18979 0.65360
 C274 C 0.29306 -0.21096 0.70142
 C275 C 0.34476 -0.20049 0.71708
 C276 C 0.37562 -0.16630 0.68779
 C277 C 0.35517 -0.14187 0.64233
 C278 C 0.30605 -0.15693 0.62437
 C279 C 0.25951 -0.12714 0.60619
 C280 C 0.22580 -0.16362 0.63801
 H281 H 0.36047 -0.21653 0.75343
 H282 H 0.41431 -0.15723 0.70224
 H283 H 0.25370 -0.13007 0.56236
 H284 H 0.25879 -0.08807 0.62244
 H285 H 0.20078 -0.18737 0.61223
 H286 H 0.20487 -0.14529 0.67181
 C287 C 0.34336 0.30446 0.22132
 C288 C 0.29211 0.29255 0.20665
 C289 C 0.26978 0.31893 0.16350
 C290 C 0.29946 0.35337 0.13364
 C291 C 0.35215 0.36243 0.14654
 C292 C 0.37268 0.33876 0.19183
 C293 C 0.42166 0.30800 0.19659
 C294 C 0.38985 0.27033 0.22844
 H295 H 0.22930 0.31286 0.15272
 H296 H 0.28123 0.37254 0.10030
 H297 H 0.45184 0.32735 0.22075
 H298 H 0.43576 0.29302 0.15755
 H299 H 0.40240 0.26779 0.27074
 H300 H 0.38539 0.23343 0.20792
 C301 C 0.78121 0.15689 -0.19763
 C302 C 0.79133 0.20844 -0.20462
 C303 C 0.83212 0.22923 -0.17435
 C304 C 0.86367 0.19871 -0.14146
 C305 C 0.85648 0.14620 -0.13948
 C306 C 0.81323 0.12653 -0.16601
 C307 C 0.80912 0.08223 -0.20213
 C308 C 0.77493 0.11531 -0.23748
 H309 H 0.84098 0.26878 -0.17683
 H310 H 0.89569 0.21587 -0.12011
 H311 H 0.78738 0.05072 -0.18322
 H312 H 0.84720 0.07150 -0.22099
 H313 H 0.73375 0.10222 -0.23992
 H314 H 0.79407 0.12358 -0.27638
 C315 C 0.79226 0.66042 0.28137
 C316 C 0.79181 0.71290 0.28714
 C317 C 0.82807 0.73417 0.32260
 C318 C 0.86035 0.70322 0.35437
 C319 C 0.85759 0.65030 0.35070
 C320 C 0.82501 0.62980 0.31183
 C321 C 0.78407 0.59037 0.31811
 C322 C 0.74811 0.62396 0.28525
 H323 H 0.82996 0.77451 0.32789
 H324 H 0.88674 0.72067 0.38241
 H325 H 0.77081 0.58587 0.36020
 H326 H 0.79520 0.55467 0.29748
 H327 H 0.71416 0.63932 0.30834
 H328 H 0.73805 0.60720 0.24602
 C329 C 0.29659 0.15972 0.28524
 C330 C 0.29326 0.21188 0.29309
 C331 C 0.32080 0.23278 0.33618
 C332 C 0.35292 0.20197 0.36853
 C333 C 0.35938 0.15039 0.35661
 C334 C 0.32902 0.12973 0.31628
 C335 C 0.34564 0.09773 0.27014
 C336 C 0.31020 0.13048 0.23588
 H337 H 0.31813 0.27287 0.34422
 H338 H 0.37402 0.21862 0.40139
 H339 H 0.33175 0.05828 0.27414
 H340 H 0.38795 0.10161 0.26018
 H341 H 0.27616 0.10957 0.21993
 H342 H 0.33179 0.15332 0.20589
 C343 C 0.31832 0.66793 -0.23338
 C344 C 0.29044 0.70896 -0.21211
 C345 C 0.28970 0.71470 -0.15618
 C346 C 0.32055 0.68293 -0.12364
 C347 C 0.35351 0.64586 -0.14675
 C348 C 0.34942 0.63759 -0.20156
 C349 C 0.39005 0.63060 -0.24396
 C350 C 0.35565 0.66359 -0.27941
 H351 H 0.26672 0.74442 -0.13755
 H352 H 0.32027 0.68869 -0.08084
 H353 H 0.39288 0.59080 -0.25777
 H354 H 0.42796 0.64836 -0.23358
 H355 H 0.33863 0.64238 -0.31326
 H356 H 0.37429 0.69981 -0.29039
 C357 C 1.20534 -0.15676 -0.22211
 C358 C 1.20533 -0.20926 -0.21614
 C359 C 1.16931 -0.23001 -0.17966
 C360 C 1.13775 -0.19865 -0.14724
 C361 C 1.14095 -0.14578 -0.15117
 C362 C 1.17321 -0.12569 -0.19097
 C363 C 1.21458 -0.08660 -0.18594
 C364 C 1.24984 -0.12064 -0.21952
 H365 H 1.16719 -0.27029 -0.17397
 H366 H 1.11166 -0.21581 -0.11838
 H367 H 1.22838 -0.08201 -0.14422
 H368 H 1.20353 -0.05090 -0.20649
 H369 H 1.28392 -0.13616 -0.19719
 H370 H 1.25956 -0.10416 -0.25910
 C371 C 1.17822 0.27307 0.33400
 C372 C 1.20501 0.29153 0.28922
 C373 C 1.19188 0.34075 0.27201
 C374 C 1.15689 0.37139 0.30147
 C375 C 1.13409 0.35363 0.34904
 C376 C 1.14320 0.30315 0.36270
 C377 C 1.15804 0.28018 0.41475
 C378 C 1.19722 0.24783 0.38382
 H379 H 1.20934 0.35668 0.23669
 H380 H 1.14918 0.40953 0.28789
 H381 H 1.12552 0.25807 0.43254
 H382 H 1.17670 0.30758 0.44218
 H383 H 1.18805 0.20697 0.38503
 H384 H 1.23812 0.25733 0.39409
 C385 C 0.66075 -0.18181 0.26994
 C386 C 0.70168 -0.21006 0.29201
 C387 C 0.70534 -0.21179 0.34806
 C388 C 0.67329 -0.18014 0.37994
 C389 C 0.63614 -0.14762 0.35617
 C390 C 0.62828 -0.15185 0.30124
 C391 C 0.62457 -0.11199 0.25925
 C392 C 0.66022 -0.14507 0.22485
 H393 H 0.73428 -0.23552 0.36727
 H394 H 0.67900 -0.17966 0.42273
 H395 H 0.64296 -0.07596 0.27154
 H396 H 0.58421 -0.10818 0.24318
 H397 H 0.69920 -0.12809 0.21714
 H398 H 0.64025 -0.16043 0.18916
 C399 C 0.70256 0.28669 -0.14907
 C400 C 0.70210 0.28775 -0.20495
 C401 C 0.66273 0.31679 -0.22988
 C402 C 0.62876 0.34785 -0.19962
 C403 C 0.63444 0.35145 -0.14386
 C404 C 0.66965 0.31811 -0.11933
 C405 C 0.70985 0.32718 -0.07770
 C406 C 0.74634 0.29360 -0.11038
 H407 H 0.65942 0.31689 -0.27294
 H408 H 0.60075 0.37167 -0.22028
 H409 H 0.69874 0.31044 -0.03861
 H410 H 0.72272 0.36712 -0.07615
 H411 H 0.75702 0.25791 -0.08961
 H412 H 0.77968 0.31487 -0.12760
 C413 C 1.19948 0.21935 -0.15134
 C414 C 1.20895 0.21149 -0.20579
 C415 C 1.19417 0.16460 -0.22757
 C416 C 1.16564 0.12945 -0.19704
 C417 C 1.15126 0.14057 -0.14398
 C418 C 1.17087 0.18479 -0.12147
 C419 C 1.14210 0.22477 -0.09118
 C420 C 1.17236 0.26259 -0.12396
 H421 H 1.20307 0.15572 -0.26884
 H422 H 1.15256 0.09504 -0.21581
 H423 H 1.15271 0.22490 -0.04821
 H424 H 1.09932 0.22544 -0.09947
 H425 H 1.19930 0.28497 -0.09887
 H426 H 1.14693 0.28462 -0.15151
 C427 C 1.16727 0.68895 0.27443
 C428 C 1.21080 0.71221 0.29666
 C429 C 1.22293 0.69753 0.34961
 C430 C 1.19007 0.66381 0.37843
 C431 C 1.14615 0.64134 0.35391
 C432 C 1.13750 0.65466 0.30106
 C433 C 1.10082 0.64773 0.25582
 C434 C 1.13490 0.68587 0.22523
 H435 H 1.25785 0.71145 0.36869
 H436 H 1.19941 0.65484 0.41947
 H437 H 1.06075 0.66216 0.26520
 H438 H 1.10290 0.60888 0.23916
 H439 H 1.11409 0.72194 0.21645
 H440 H 1.15706 0.66900 0.19119
 C441 C 0.65252 0.20789 0.28966
 C442 C 0.70722 0.20921 0.29319
 C443 C 0.73163 0.17922 0.33233
 C444 C 0.70186 0.14706 0.36511
 C445 C 0.64737 0.14276 0.35768
 C446 C 0.62342 0.17504 0.32089
 C447 C 0.58669 0.16320 0.27670
 C448 C 0.61836 0.19893 0.24227
 H449 H 0.77377 0.18006 0.33703
 H450 H 0.72188 0.12359 0.39407
 H451 H 0.54625 0.17719 0.28512
 H452 H 0.58960 0.12323 0.26339
 H453 H 0.59552 0.23304 0.23057
 H454 H 0.63943 0.17972 0.20894
 C455 C 0.70707 0.71310 -0.14541
 C456 C 0.70411 0.71461 -0.20118
 C457 C 0.66380 0.68733 -0.22578
 C458 C 0.63071 0.65610 -0.19579
 C459 C 0.63831 0.65006 -0.14059
 C460 C 0.67496 0.68120 -0.11584
 C461 C 0.71707 0.66842 -0.07711
 C462 C 0.75262 0.70225 -0.10976
 H463 H 0.65901 0.68866 -0.26868
 H464 H 0.60175 0.63398 -0.21652
 H465 H 0.72900 0.62796 -0.07851
 H466 H 0.70838 0.68350 -0.03656
 H467 H 0.78436 0.68054 -0.13020
 H468 H 0.76540 0.73627 -0.08759
 C469 C 0.79409 -0.15324 -0.21473
 C470 C 0.79420 -0.20563 -0.20737
 C471 C 0.83468 -0.22668 -0.17644
 C472 C 0.86806 -0.19550 -0.14681
 C473 C 0.86314 -0.14254 -0.14963
 C474 C 0.82833 -0.12240 -0.18705
 C475 C 0.78827 -0.08147 -0.18073
 C476 C 0.75054 -0.11536 -0.21035
 H477 H 0.83997 -0.26713 -0.17429
 H478 H 0.89708 -0.21283 -0.12111
 H479 H 0.79887 -0.04705 -0.20356
 H480 H 0.77700 -0.07483 -0.13834
 H481 H 0.73877 -0.10006 -0.24986
 H482 H 0.71787 -0.12856 -0.18465
 C483 C 0.79184 0.29024 0.34413
 C484 C 0.78600 0.29609 0.28906
 C485 C 0.81509 0.33409 0.26344
 C486 C 0.84648 0.36726 0.29321
 C487 C 0.84954 0.36267 0.34914
 C488 C 0.82324 0.32261 0.37326
 C489 C 0.78583 0.32440 0.41907
 C490 C 0.75104 0.28964 0.38730
 H491 H 0.81318 0.33840 0.22052
 H492 H 0.86813 0.39636 0.27257
 H493 H 0.76848 0.36258 0.42564
 H494 H 0.80271 0.30610 0.45498
 H495 H 0.71349 0.30761 0.37493
 H496 H 0.74710 0.25207 0.40643
 C497 C 0.26668 -0.17007 0.33209
 C498 C 0.29003 -0.20776 0.29985
 C499 C 0.34545 -0.20815 0.29664
 C500 C 0.37564 -0.17252 0.32437
 C501 C 0.35165 -0.13684 0.35835
 C502 C 0.29693 -0.13582 0.36055
 C503 C 0.26196 -0.13615 0.40816
 C504 C 0.22900 -0.17399 0.37840
 H505 H 0.36634 -0.23644 0.27379
 H506 H 0.41795 -0.17428 0.32088
 H507 H 0.24184 -0.09919 0.41430
 H508 H 0.28129 -0.15220 0.44413
 H509 H 0.18930 -0.15874 0.36977
 H510 H 0.22915 -0.21138 0.39813
 C511 C 0.26639 0.33058 -0.16605
 C512 C 0.28895 0.29884 -0.20480
 C513 C 0.34413 0.29716 -0.20849
 C514 C 0.37508 0.32868 -0.17662
 C515 C 0.35151 0.36210 -0.13986
 C516 C 0.29713 0.36060 -0.13353
 C517 C 0.25902 0.40352 -0.13435
 C518 C 0.22575 0.37171 -0.17090
 H519 H 0.36368 0.27313 -0.23735
 H520 H 0.41724 0.32806 -0.18197
 H521 H 0.27502 0.43774 -0.15403
 H522 H 0.24074 0.41011 -0.09453
 H523 H 0.22285 0.38810 -0.21143
 H524 H 0.18748 0.36230 -0.15252
 C525 C 1.20302 -0.21783 0.16249
 C526 C 1.20881 -0.20995 0.21769
 C527 C 1.17298 -0.17576 0.24169
 C528 C 1.13926 -0.14527 0.21073
 C529 C 1.13843 -0.14997 0.15480
 C530 C 1.16789 -0.18935 0.13225
 C531 C 1.20245 -0.18914 0.08431
 C532 C 1.24172 -0.21889 0.11725
 H533 H 1.17125 -0.17164 0.28432
 H534 H 1.11439 -0.11763 0.23056
 H535 H 1.21596 -0.15066 0.07353
 H536 H 1.18575 -0.21127 0.05091
 H537 H 1.27734 -0.19652 0.12543
 H538 H 1.24886 -0.25768 0.10175
 C539 C 1.16373 0.27364 0.68091
 C540 C 1.20659 0.29474 0.70691
 C541 C 1.22095 0.34410 0.69239
 C542 C 1.18760 0.37410 0.66054
 C543 C 1.14098 0.35404 0.64016
 C544 C 1.13191 0.30258 0.64780
 C545 C 1.08339 0.27684 0.66642
 C546 C 1.11811 0.24533 0.70283
 H547 H 1.25679 0.36024 0.70731
 H548 H 1.19761 0.41306 0.65286
 H549 H 1.06507 0.25444 0.63413
 H550 H 1.05618 0.30261 0.68841
 H551 H 1.11947 0.20478 0.69153
 H552 H 1.11109 0.25290 0.74597
 C553 C 0.65092 -0.20444 0.71999
 C554 C 0.70525 -0.20812 0.71177
 C555 C 0.72620 -0.18347 0.66688
 C556 C 0.69451 -0.15268 0.63455
 C557 C 0.64122 -0.14464 0.64722
 C558 C 0.61984 -0.17302 0.68883
 C559 C 0.58590 -0.15777 0.73480
 C560 C 0.61946 -0.19256 0.76907
 H561 H 0.76739 -0.18588 0.65777
 H562 H 0.71263 -0.13275 0.60164
 H563 H 0.54498 -0.17103 0.73029
 H564 H 0.58990 -0.11721 0.74527
 H565 H 0.59753 -0.22577 0.78399
 H566 H 0.64208 -0.17242 0.79997
 C567 C 0.66012 0.31575 0.23001
 C568 C 0.70155 0.28856 0.20692
 C569 C 0.70668 0.28968 0.15095
 C570 C 0.67456 0.32196 0.12029
 C571 C 0.63627 0.35286 0.14517
 C572 C 0.62769 0.34650 0.19987
 C573 C 0.62302 0.38469 0.24356
 C574 C 0.65862 0.35071 0.27661
 H575 H 0.73717 0.26799 0.13107
 H576 H 0.68124 0.32438 0.07764
 H577 H 0.58242 0.38746 0.25973
 H578 H 0.64114 0.42134 0.23283
 H579 H 0.63842 0.33379 0.31162
 H580 H 0.69734 0.36774 0.28507
 C581 C 0.84457 0.21844 0.20612
 C582 C 0.79042 0.21078 0.20769
 C583 C 0.76976 0.17259 0.17508
 C584 C 0.80332 0.14030 0.14559
 C585 C 0.85799 0.14581 0.14845
 C586 C 0.87757 0.18688 0.17667
 C587 C 0.91904 0.18746 0.21835
 C588 C 0.88298 0.22176 0.25076
 H589 H 0.72789 0.16682 0.17353
 H590 H 0.78674 0.11051 0.12163
 H591 H 0.95516 0.20654 0.20422
 H592 H 0.92555 0.14984 0.23699
 H593 H 0.89875 0.26043 0.25550
 H594 H 0.86839 0.20408 0.28819
 C595 C 0.82195 0.72970 0.67376
 C596 C 0.78844 0.70992 0.71272
 C597 C 0.78449 0.65695 0.71615
 C598 C 0.81627 0.62531 0.68391
 C599 C 0.85192 0.64612 0.64706
 C600 C 0.85225 0.69852 0.64110
 C601 C 0.89805 0.73300 0.64280
 C602 C 0.86556 0.76675 0.67927
 H603 H 0.75847 0.63977 0.74494
 H604 H 0.81401 0.58479 0.68882
 H605 H 0.90623 0.75028 0.60324
 H606 H 0.93268 0.71577 0.66278
 H607 H 0.85660 0.80399 0.66100
 H608 H 0.88136 0.76856 0.72043
 C609 C 0.28557 0.21086 0.65734
 C610 C 0.29131 0.21475 0.71260
 C611 C 0.32602 0.18088 0.73792
 C612 C 0.35847 0.14839 0.70765
 C613 C 0.35559 0.14821 0.65154
 C614 C 0.31680 0.17801 0.62752
 C615 C 0.32187 0.21475 0.58271
 C616 C 0.28796 0.25082 0.61539
 H617 H 0.32901 0.18049 0.78102
 H618 H 0.38583 0.12369 0.72806
 H619 H 0.30237 0.20131 0.54587
 H620 H 0.36275 0.22799 0.57700
 H621 H 0.24906 0.25830 0.59712
 H622 H 0.30914 0.28496 0.62887
 C623 C 0.28136 0.66085 0.21187
 C624 C 0.29124 0.71269 0.21658
 C625 C 0.33107 0.73272 0.18354
 C626 C 0.36249 0.70105 0.15099
 C627 C 0.35446 0.64870 0.15055
 C628 C 0.31193 0.62985 0.17916
 C629 C 0.31088 0.58695 0.21747
 C630 C 0.27808 0.62060 0.25377
 H631 H 0.33911 0.77274 0.18395
 H632 H 0.39368 0.71725 0.12724
 H633 H 0.35022 0.57769 0.23389
 H634 H 0.28894 0.55426 0.20155
 H635 H 0.29851 0.63105 0.29120
 H636 H 0.23759 0.60641 0.25931
   
