data_POSCAR
  _audit_creation_date              2014-09-24
  _audit_creation_method            'ToBaCCo'
  _symmetry_space_group_name_H-M    'P1'
  _symmetry_Int_Tables_number       1
  _symmetry_cell_setting            triclinic
  loop_
  _symmetry_equiv_pos_as_xyz
 x,y,z
_cell_length_a 44.5857
_cell_length_b 46.0913
_cell_length_c 46.9007
_cell_angle_alpha 88.356300
_cell_angle_beta 91.485900
_cell_angle_gamma 92.419200
loop_
  _atom_site_label
  _atom_site_type_symbol
  _atom_site_fract_x
  _atom_site_fract_y
  _atom_site_fract_z
C1 C 0.19171 0.22017 0.21812
 C2 C 0.19556 0.23068 0.19004
 C3 C 0.21723 0.21944 0.17331
 C4 C 0.23514 0.19725 0.18443
 C5 C 0.23111 0.18683 0.21208
 C6 C 0.20943 0.19841 0.22902
 C7 C 0.17283 0.22729 0.23942
 N8 N 0.17886 0.21033 0.26287
 C9 C 0.20116 0.19259 0.25669
 C10 C 0.25103 0.16531 0.21727
 N11 N 0.26713 0.16230 0.19347
 C12 C 0.25770 0.18179 0.17324
 C13 C 0.21614 0.23409 0.14728
 N14 N 0.19431 0.25373 0.14792
 C15 C 0.18159 0.25176 0.17391
 H16 H 0.15613 0.24367 0.23799
 H17 H 0.21074 0.17670 0.27132
 H18 H 0.25349 0.15271 0.23696
 H19 H 0.26639 0.18429 0.15193
 H20 H 0.23018 0.23072 0.12929
 H21 H 0.16369 0.26495 0.18068
 C22 C 0.75069 0.76217 0.76849
 C23 C 0.76392 0.77117 0.74277
 C24 C 0.77189 0.75081 0.72346
 C25 C 0.76720 0.72104 0.73000
 C26 C 0.75345 0.71230 0.75517
 C27 C 0.74510 0.73293 0.77447
 C28 C 0.73760 0.77725 0.78943
 N29 N 0.72399 0.75787 0.80773
 C30 C 0.72848 0.73068 0.79882
 C31 C 0.74943 0.68262 0.75502
 N32 N 0.76102 0.67304 0.73077
 C33 C 0.77192 0.69623 0.71521
 C34 C 0.77956 0.76584 0.69868
 N35 N 0.77636 0.79464 0.70263
 C36 C 0.76721 0.79809 0.72961
 H37 H 0.73632 0.80062 0.79023
 H38 H 0.71904 0.71084 0.80849
 H39 H 0.73920 0.66888 0.77151
 H40 H 0.78212 0.69509 0.69459
 H41 H 0.78505 0.75639 0.67870
 H42 H 0.76094 0.81848 0.73820
 C43 C 0.38844 0.79915 0.68488
 C44 C 0.37078 0.79786 0.65973
 C45 C 0.34276 0.80999 0.65827
 C46 C 0.33245 0.82438 0.68207
 C47 C 0.35014 0.82548 0.70676
 C48 C 0.37802 0.81278 0.70821
 C49 C 0.41593 0.78837 0.69278
 N50 N 0.42211 0.79519 0.72036
 C51 C 0.39910 0.81025 0.72991
 C52 C 0.33553 0.84077 0.72629
 N53 N 0.30941 0.84966 0.71426
 C54 C 0.30706 0.83960 0.68719
 C55 C 0.33060 0.80438 0.63142
 N56 N 0.35081 0.78966 0.61684
 C57 C 0.37537 0.78575 0.63392
 H58 H 0.43003 0.77591 0.67970
 H59 H 0.39752 0.81834 0.75123
 H60 H 0.34377 0.84573 0.74761
 H61 H 0.28864 0.84338 0.67224
 H62 H 0.30888 0.81063 0.62307
 H63 H 0.39499 0.77439 0.62810
 C64 C 0.84021 0.25984 0.21914
 C65 C 0.82366 0.25754 0.19362
 C66 C 0.79583 0.26958 0.19054
 C67 C 0.78448 0.28461 0.21337
 C68 C 0.80109 0.28691 0.23877
 C69 C 0.82933 0.27455 0.24163
 C70 C 0.86793 0.25037 0.22712
 N71 N 0.87458 0.25910 0.25398
 C72 C 0.85116 0.27409 0.26315
 C73 C 0.78513 0.30319 0.25672
 N74 N 0.75953 0.31112 0.24286
 C75 C 0.75888 0.29993 0.21635
 C76 C 0.78575 0.26450 0.16286
 N77 N 0.80719 0.25014 0.14958
 C78 C 0.83037 0.24593 0.16816
 H79 H 0.88240 0.23817 0.21413
 H80 H 0.85000 0.28385 0.28379
 H81 H 0.79201 0.30950 0.27805
 H82 H 0.74127 0.30294 0.20036
 H83 H 0.76504 0.27156 0.15288
 H84 H 0.85087 0.23552 0.16326
 C85 C 0.78330 0.70984 0.31788
 C86 C 0.77221 0.70985 0.34557
 C87 C 0.75881 0.68483 0.35712
 C88 C 0.75616 0.65962 0.34122
 C89 C 0.76673 0.65950 0.31372
 C90 C 0.78085 0.68485 0.30204
 C91 C 0.79733 0.73111 0.30138
 N92 N 0.80405 0.71970 0.27607
 C93 C 0.79396 0.69140 0.27616
 C94 C 0.75897 0.63246 0.30303
 N95 N 0.74429 0.61653 0.32360
 C96 C 0.74272 0.63292 0.34698
 C97 C 0.74910 0.69117 0.38369
 N98 N 0.75634 0.71948 0.38861
 C99 C 0.77058 0.73116 0.36546
 H100 H 0.80279 0.75320 0.30760
 H101 H 0.79605 0.67665 0.25884
 H102 H 0.76298 0.62522 0.28177
 H103 H 0.73147 0.62627 0.36644
 H104 H 0.73714 0.67642 0.39821
 H105 H 0.77856 0.75357 0.36299
 C106 C 0.26544 0.24928 -0.23777
 C107 C 0.24198 0.25770 -0.22106
 C108 C 0.21583 0.24089 -0.22004
 C109 C 0.21315 0.21506 -0.23479
 C110 C 0.23666 0.20565 -0.25047
 C111 C 0.26313 0.22364 -0.25273
 C112 C 0.29270 0.26253 -0.24314
 N113 N 0.30726 0.24647 -0.26174
 C114 C 0.28965 0.22229 -0.26754
 C115 C 0.22823 0.17760 -0.25867
 N116 N 0.20042 0.17063 -0.24829
 C117 C 0.19108 0.19375 -0.23431
 C118 C 0.19772 0.25272 -0.20062
 N119 N 0.21248 0.27625 -0.18955
 C120 C 0.23958 0.27970 -0.20204
 H121 H 0.30086 0.28321 -0.23491
 H122 H 0.29531 0.20544 -0.28184
 H123 H 0.24179 0.16307 -0.27007
 H124 H 0.17040 0.19435 -0.22274
 H125 H 0.17620 0.24377 -0.19362
 H126 H 0.25673 0.29613 -0.19674
 C127 C 0.64594 0.30309 -0.18705
 C128 C 0.66133 0.28961 -0.16437
 C129 C 0.69188 0.29419 -0.16120
 C130 C 0.70733 0.31278 -0.18028
 C131 C 0.69238 0.32632 -0.20297
 C132 C 0.66116 0.32049 -0.20704
 C133 C 0.61653 0.30058 -0.19560
 N134 N 0.61311 0.31465 -0.22115
 C135 C 0.64026 0.32702 -0.22855
 C136 C 0.71355 0.34461 -0.21636
 N137 N 0.74046 0.34207 -0.20213
 C138 C 0.73677 0.32212 -0.18060
 C139 C 0.70135 0.27663 -0.13884
 N140 N 0.67714 0.26114 -0.12875
 C141 C 0.65248 0.26912 -0.14405
 H142 H 0.59920 0.28752 -0.18491
 H143 H 0.64458 0.33924 -0.24817
 H144 H 0.70941 0.35932 -0.23430
 H145 H 0.75395 0.31606 -0.16506
 H146 H 0.72433 0.27435 -0.13140
 H147 H 0.63004 0.25964 -0.14151
 C148 C 0.14674 0.79645 0.25500
 C149 C 0.16536 0.78417 0.27642
 C150 C 0.19377 0.79658 0.28244
 C151 C 0.20404 0.82148 0.26676
 C152 C 0.18565 0.83293 0.24551
 C153 C 0.15711 0.82076 0.23992
 C154 C 0.11783 0.79004 0.24469
 N155 N 0.11095 0.81033 0.22414
 C156 C 0.13490 0.82905 0.22118
 C157 C 0.20058 0.85613 0.23299
 N158 N 0.22781 0.85978 0.24608
 C159 C 0.23030 0.83882 0.26705
 C160 C 0.20637 0.78003 0.30432
 N161 N 0.18638 0.75810 0.31153
 C162 C 0.16137 0.76054 0.29463
 H163 H 0.10281 0.77246 0.25197
 H164 H 0.13599 0.84761 0.20648
 H165 H 0.19207 0.86955 0.21549
 H166 H 0.24975 0.83605 0.28101
 H167 H 0.22835 0.78367 0.31422
 H168 H 0.14155 0.74616 0.29562
 C169 C 0.45219 0.42888 0.43293
 C170 C 0.45251 0.44482 0.40712
 C171 C 0.43524 0.46894 0.40331
 C172 C 0.41728 0.47745 0.42558
 C173 C 0.41697 0.46152 0.45115
 C174 C 0.43452 0.43699 0.45488
 C175 C 0.46803 0.40552 0.44259
 N176 N 0.46040 0.39899 0.46988
 C177 C 0.43985 0.41806 0.47770
 C178 C 0.39890 0.47544 0.46923
 N179 N 0.38824 0.49934 0.45544
 C180 C 0.39929 0.50079 0.42869
 C181 C 0.44145 0.48074 0.37661
 N182 N 0.46201 0.46431 0.36445
 C183 C 0.46883 0.44231 0.38298
 H184 H 0.48431 0.39429 0.43074
 H185 H 0.43013 0.41861 0.49858
 H186 H 0.39433 0.46896 0.49112
 H187 H 0.39512 0.51784 0.41291
 H188 H 0.43238 0.50027 0.36707
 H189 H 0.48498 0.42598 0.37946
 C190 C -0.05294 -0.08646 0.94092
 C191 C -0.03132 -0.07533 0.92175
 C192 C -0.03389 -0.04773 0.90946
 C193 C -0.05791 -0.03066 0.91658
 C194 C -0.07905 -0.04184 0.93539
 C195 C -0.07683 -0.06984 0.94720
 C196 C -0.05607 -0.11207 0.95690
 N197 N -0.08149 -0.11115 0.97230
 C198 C -0.09431 -0.08545 0.96628
 C199 C -0.09860 -0.02049 0.94019
 N200 N -0.09002 0.00372 0.92484
 C201 C -0.06534 -0.00236 0.90992
 C202 C -0.01004 -0.04295 0.89154
 N203 N 0.00677 -0.06693 0.89261
 C204 C -0.00591 -0.08666 0.91118
 H205 H -0.04096 -0.12986 0.95732
 H206 H -0.11449 -0.07821 0.97577
 H207 H -0.11723 -0.02237 0.95456
 H208 H -0.05297 0.01299 0.89629
 H209 H -0.00542 -0.02360 0.87852
 H210 H 0.00245 -0.10797 0.91621
 C211 C 0.98619 0.55756 0.99082
 C212 C 0.98573 0.55164 0.96161
 C213 C 1.00632 0.53324 0.95066
 C214 C 1.02847 0.52123 0.96904
 C215 C 1.02834 0.52711 0.99779
 C216 C 1.00701 0.54468 1.00869
 C217 C 0.97116 0.57664 1.00708
 N218 N 0.98256 0.57508 1.03428
 C219 C 1.00424 0.55534 1.03536
 C220 C 1.05364 0.51652 1.01042
 N221 N 1.06979 0.50417 0.99035
 C222 C 1.05447 0.50639 0.96485
 C223 C 1.00067 0.53252 0.92149
 N224 N 0.97760 0.55010 0.91487
 C225 C 0.96864 0.56202 0.93915
 H226 H 0.95417 0.59126 0.99943
 H227 H 1.01836 0.55039 1.05386
 H228 H 1.06056 0.51898 1.03257
 H229 H 1.06250 0.49960 0.94461
 H230 H 1.01286 0.52076 0.90619
 H231 H 0.95086 0.57721 0.94036
 C232 C 0.50225 0.05427 0.50548
 C233 C 0.48678 0.04234 0.48189
 C234 C 0.49638 0.01719 0.47044
 C235 C 0.52146 0.00368 0.48226
 C236 C 0.53709 0.01543 0.50536
 C237 C 0.52726 0.04100 0.51720
 C238 C 0.49847 0.07908 0.52031
 N239 N 0.52039 0.08124 0.54083
 C240 C 0.53816 0.05813 0.53911
 C241 C 0.56152 -0.00164 0.51085
 N242 N 0.56066 -0.02327 0.49162
 C243 C 0.53618 -0.02011 0.47422
 C244 C 0.47879 0.01160 0.44659
 N245 N 0.45875 0.03284 0.44321
 C246 C 0.46330 0.05168 0.46479
 H247 H 0.48115 0.09454 0.51624
 H248 H 0.55772 0.05424 0.55262
 H249 H 0.57875 0.00176 0.52725
 H250 H 0.52990 -0.03375 0.45642
 H251 H 0.48118 -0.00605 0.43219
 H252 H 0.45127 0.07135 0.46715
 C253 C -0.00323 0.05464 0.53538
 C254 C 0.00120 0.02823 0.55014
 C255 C -0.01874 0.00486 0.54612
 C256 C -0.04343 0.00761 0.52736
 C257 C -0.04784 0.03359 0.51260
 C258 C -0.02747 0.05730 0.51656
 C259 C 0.01212 0.08113 0.53586
 N260 N -0.00198 0.09972 0.51758
 C261 C -0.02626 0.08542 0.50569
 C262 C -0.07463 0.03035 0.49745
 N263 N -0.08644 0.00317 0.50292
 C264 C -0.06743 -0.01089 0.52106
 C265 C -0.00975 -0.01742 0.56411
 N266 N 0.01514 -0.00803 0.57893
 C267 C 0.02204 0.01984 0.57049
 H268 H 0.03221 0.08648 0.54843
 H269 H -0.04192 0.09478 0.49037
 H270 H -0.08532 0.04685 0.48435
 H271 H -0.07124 -0.03265 0.52989
 H272 H -0.02090 -0.03862 0.56677
 H273 H 0.04047 0.03329 0.57895
 C274 C 0.49964 0.52776 -0.00596
 C275 C 0.51444 0.51311 0.01646
 C276 C 0.50135 0.48823 0.02876
 C277 C 0.47330 0.47751 0.01848
 C278 C 0.45867 0.49194 -0.00379
 C279 C 0.47196 0.51731 -0.01608
 C280 C 0.50620 0.55359 -0.02024
 N281 N 0.48315 0.55915 -0.03883
 C282 C 0.46215 0.53700 -0.03655
 C283 C 0.43125 0.47762 -0.00817
 N284 N 0.42902 0.45488 0.01082
 C285 C 0.45459 0.45464 0.02717
 C286 C 0.51969 0.48006 0.05145
 N287 N 0.54351 0.49939 0.05298
 C288 C 0.54052 0.51959 0.03162
 H289 H 0.52597 0.56759 -0.01672
 H290 H 0.44088 0.53576 -0.04822
 H291 H 0.41404 0.48363 -0.02366
 H292 H 0.45897 0.43929 0.04454
 H293 H 0.51556 0.46192 0.06619
 H294 H 0.55566 0.53826 0.02807
 C295 C 0.55120 -0.08587 0.07308
 C296 C 0.55192 -0.06607 0.09541
 C297 C 0.57626 -0.04656 0.09860
 C298 C 0.60009 -0.04647 0.07970
 C299 C 0.59950 -0.06617 0.05808
 C300 C 0.57502 -0.08584 0.05475
 C301 C 0.53014 -0.10650 0.06348
 N302 N 0.54091 -0.11868 0.03995
 C303 C 0.56831 -0.10614 0.03458
 C304 C 0.62448 -0.06034 0.04206
 N305 N 0.64007 -0.03729 0.05323
 C306 C 0.62545 -0.02865 0.07636
 C307 C 0.57079 -0.02955 0.12129
 N308 N 0.54385 -0.03818 0.13207
 C309 C 0.53201 -0.06043 0.11638
 H310 H 0.50855 -0.11202 0.07269
 H311 H 0.58222 -0.11094 0.01689
 H312 H 0.63019 -0.07120 0.02289
 H313 H 0.63221 -0.01025 0.08921
 H314 H 0.58527 -0.01200 0.12928
 H315 H 0.51050 -0.07158 0.11985
 C316 C 1.04100 0.46375 0.52573
 C317 C 1.02674 0.47223 0.55022
 C318 C 1.03712 0.49671 0.56456
 C319 C 1.06224 0.51302 0.55445
 C320 C 1.07618 0.50452 0.53019
 C321 C 1.06550 0.47987 0.51575
 C322 C 1.03618 0.44056 0.50806
 N323 N 1.05724 0.44240 0.48762
 C324 C 1.07523 0.46639 0.49212
 C325 C 1.10005 0.52358 0.52539
 N326 N 1.10119 0.54363 0.54610
 C327 C 1.07813 0.53738 0.56404
 C328 C 1.01894 0.49919 0.58771
 N329 N 0.99810 0.47679 0.58754
 C330 C 1.00277 0.46027 0.56476
 H331 H 1.01890 0.42348 0.51016
 H332 H 1.09431 0.47323 0.47939
 H333 H 1.11553 0.52262 0.50809
 H334 H 1.07338 0.54951 0.58272
 H335 H 1.02091 0.51583 0.60355
 H336 H 0.98968 0.44082 0.55922
 C337 C 0.44379 0.01813 0.23550
 H338 H 0.44089 0.03786 0.24689
 C339 C 0.46996 0.01473 0.22045
 H340 H 0.48719 0.03199 0.22032
 C341 C 0.42458 -0.02817 0.22150
 H342 H 0.40702 -0.04500 0.22219
 C343 C 0.45030 -0.03241 0.20608
 H344 H 0.45214 -0.05257 0.19514
 N345 N 0.42145 -0.00287 0.23517
 C346 C 0.33867 0.04187 0.24503
 H347 H 0.32914 0.02877 0.26232
 C348 C 0.32284 0.06483 0.23302
 H349 H 0.30103 0.06903 0.24118
 C350 C 0.37839 0.05142 0.21305
 H351 H 0.39986 0.04589 0.20508
 C352 C 0.36321 0.07454 0.20027
 H353 H 0.37335 0.08688 0.18278
 Zn354 Zn 0.38533 0.00424 0.25355
 N355 N 0.36615 0.03595 0.23534
 C356 C 0.38744 0.03892 0.30233
 N357 N 0.39415 0.01265 0.29223
 C358 C 0.40802 -0.00739 0.30919
 C359 C 0.41537 -0.00143 0.33765
 C360 C 0.39422 0.04571 0.33061
 C361 C 0.34788 -0.03279 0.22319
 C362 C 0.32523 -0.05372 0.21802
 C363 C 0.32444 -0.06546 0.26856
 C364 C 0.34724 -0.04404 0.27283
 N365 N 0.35816 -0.02806 0.25022
 H366 H 0.37718 0.05493 0.28842
 H367 H 0.41343 -0.02799 0.30055
 H368 H 0.42619 -0.01777 0.35080
 H369 H 0.38887 0.06681 0.33816
 H370 H 0.35673 -0.01953 0.20569
 H371 H 0.31675 -0.05656 0.19639
 H372 H 0.31504 -0.07721 0.28675
 H373 H 0.35533 -0.03952 0.29422
 C374 C 0.33524 0.08172 0.21050
 C375 C 0.47317 -0.01054 0.20496
 C376 C 0.31277 -0.06995 0.24086
 C377 C 0.40851 0.02551 0.34865
 C378 C 0.10548 -0.05827 0.70141
 H379 H 0.10935 -0.07756 0.71444
 C380 C 0.08580 -0.05976 0.67772
 H381 H 0.07480 -0.08037 0.67249
 C382 C 0.11454 -0.00783 0.69284
 H383 H 0.12509 0.01258 0.69904
 C384 C 0.09510 -0.00830 0.66912
 H385 H 0.09142 0.01189 0.65757
 N386 N 0.11953 -0.03259 0.70838
 C387 C 0.19934 -0.05162 0.75986
 H388 H 0.19637 -0.03701 0.77712
 C389 C 0.22468 -0.06824 0.75962
 H390 H 0.24119 -0.06622 0.77685
 C391 C 0.18134 -0.07168 0.71640
 H392 H 0.16443 -0.07284 0.69953
 C393 C 0.20645 -0.08878 0.71530
 H394 H 0.20831 -0.10317 0.69769
 Zn395 Zn 0.14438 -0.03079 0.74175
 N396 N 0.17809 -0.05388 0.73869
 C397 C 0.13052 -0.06386 0.79282
 N398 N 0.12066 -0.04391 0.77317
 C399 C 0.09333 -0.03221 0.77540
 C400 C 0.07508 -0.03984 0.79845
 C401 C 0.11296 -0.07213 0.81621
 C402 C 0.17640 0.02243 0.72797
 C403 C 0.18293 0.05236 0.73001
 C404 C 0.15392 0.05176 0.77282
 C405 C 0.14819 0.02209 0.77010
 N406 N 0.15827 0.00825 0.74727
 H407 H 0.15210 -0.07323 0.79064
 H408 H 0.08589 -0.01660 0.75934
 H409 H 0.05340 -0.03034 0.79959
 H410 H 0.12131 -0.08776 0.83182
 H411 H 0.18443 0.01084 0.71014
 H412 H 0.19589 0.06381 0.71371
 H413 H 0.14449 0.06265 0.79046
 H414 H 0.13465 0.01046 0.78574
 C415 C 0.22846 -0.08730 0.73726
 C416 C 0.08032 -0.03450 0.66126
 C417 C 0.17061 0.06743 0.75216
 C418 C 0.08497 -0.05988 0.81940
 C419 C 0.59815 0.45478 0.18527
 H420 H 0.58921 0.43530 0.19596
 C421 C 0.59000 0.46082 0.15684
 H422 H 0.57510 0.44560 0.14572
 C423 C 0.62810 0.49842 0.18721
 H424 H 0.64219 0.51347 0.19930
 C425 C 0.62070 0.50522 0.15877
 H426 H 0.62952 0.52534 0.14918
 N427 N 0.61686 0.47350 0.19982
 C428 C 0.65268 0.42178 0.27112
 H429 H 0.64566 0.43430 0.28875
 C430 C 0.67122 0.39846 0.27626
 H431 H 0.67804 0.39300 0.29800
 C432 C 0.65349 0.41483 0.22131
 H433 H 0.64727 0.42183 0.19987
 C434 C 0.67210 0.39133 0.22547
 H435 H 0.67951 0.38039 0.20701
 Zn436 Zn 0.62392 0.46464 0.23896
 N437 N 0.64442 0.42967 0.24400
 C438 C 0.57662 0.44012 0.27377
 N439 N 0.58601 0.46258 0.25632
 C440 C 0.56919 0.48629 0.25178
 C441 C 0.54247 0.48880 0.26613
 C442 C 0.55002 0.44181 0.28873
 C443 C 0.67576 0.50217 0.24730
 C444 C 0.69422 0.52213 0.26233
 C445 C 0.65603 0.52346 0.29781
 C446 C 0.63811 0.50418 0.28188
 N447 N 0.64810 0.49391 0.25709
 H448 H 0.59013 0.42132 0.27682
 H449 H 0.57725 0.50382 0.23778
 H450 H 0.52999 0.50831 0.26296
 H451 H 0.54327 0.42401 0.30297
 H452 H 0.68366 0.49292 0.22807
 H453 H 0.71625 0.52847 0.25456
 H454 H 0.64790 0.53107 0.31771
 H455 H 0.61663 0.49669 0.28998
 C456 C 0.68174 0.38321 0.25326
 C457 C 0.60110 0.48651 0.14333
 C458 C 0.68439 0.53262 0.28811
 C459 C 0.53296 0.46676 0.28550
 C460 C 0.91345 0.51431 0.70239
 H461 H 0.91631 0.53537 0.71187
 C462 C 0.93101 0.50767 0.67931
 H463 H 0.94667 0.52407 0.67085
 C464 C 0.89019 0.46720 0.70244
 H465 H 0.87475 0.45115 0.71162
 C466 C 0.90714 0.45969 0.67948
 H467 H 0.90415 0.43803 0.67123
 N468 N 0.89303 0.49434 0.71308
 C469 C 0.81177 0.52845 0.74088
 H470 H 0.80480 0.50906 0.75279
 C471 C 0.79131 0.55019 0.73603
 H472 H 0.76878 0.54689 0.74391
 C473 C 0.84993 0.55724 0.71826
 H474 H 0.87295 0.56023 0.71193
 C475 C 0.83020 0.57976 0.71322
 H476 H 0.83828 0.59962 0.70264
 Zn477 Zn 0.86844 0.50362 0.74382
 N478 N 0.84060 0.53230 0.73224
 C479 C 0.88553 0.54387 0.78571
 N480 N 0.89315 0.51849 0.77433
 C481 C 0.91716 0.50392 0.78492
 C482 C 0.93392 0.51442 0.80849
 C483 C 0.90179 0.55525 0.80888
 C484 C 0.82464 0.45725 0.73883
 C485 C 0.80831 0.43207 0.74751
 C486 C 0.83686 0.43237 0.79196
 C487 C 0.85227 0.45768 0.78267
 N488 N 0.84627 0.46945 0.75635
 H489 H 0.86638 0.55516 0.77724
 H490 H 0.92295 0.48386 0.77540
 H491 H 0.95269 0.50240 0.81683
 H492 H 0.89491 0.57527 0.81776
 H493 H 0.82018 0.46704 0.71799
 H494 H 0.79150 0.42242 0.73323
 H495 H 0.84217 0.42318 0.81290
 H496 H 0.86915 0.46773 0.79648
 C497 C 0.80059 0.57656 0.72271
 C498 C 0.92769 0.48005 0.66737
 C499 C 0.81462 0.41923 0.77433
 C500 C 0.92605 0.54034 0.82093
 C501 C 0.20874 0.42972 0.00399
 H502 H 0.22640 0.42663 0.01991
 C503 C 0.18856 0.45162 0.00694
 H504 H 0.19112 0.46553 0.02512
 C505 C 0.18303 0.41416 -0.03806
 H506 H 0.18065 0.39925 -0.05537
 C507 C 0.16217 0.43573 -0.03584
 H508 H 0.14390 0.43688 -0.05139
 N509 N 0.20484 0.41073 -0.01751
 C510 C 0.22564 0.32626 0.02027
 H511 H 0.24275 0.31923 0.00636
 C512 C 0.21695 0.30877 0.04375
 H513 H 0.22736 0.28821 0.04758
 C514 C 0.19129 0.36163 0.03193
 H515 H 0.18110 0.38210 0.02727
 C516 C 0.18178 0.34479 0.05541
 H517 H 0.16461 0.35278 0.06870
 Zn518 Zn 0.22783 0.37713 -0.01508
 N519 N 0.21348 0.35259 0.01536
 C520 C 0.28273 0.37800 0.01619
 N521 N 0.26887 0.38838 -0.00795
 C522 C 0.28354 0.40740 -0.02603
 C523 C 0.31356 0.41611 -0.02041
 C524 C 0.31259 0.38596 0.02252
 C525 C 0.19467 0.34333 -0.05303
 C526 C 0.18750 0.32924 -0.07831
 C527 C 0.23755 0.34165 -0.09456
 C528 C 0.24376 0.35559 -0.06887
 N529 N 0.22219 0.35657 -0.04900
 H530 H 0.27065 0.36374 0.03090
 H531 H 0.27190 0.41587 -0.04480
 H532 H 0.32487 0.43097 -0.03523
 H533 H 0.32307 0.37734 0.04186
 H534 H 0.17802 0.34433 -0.03675
 H535 H 0.16531 0.31915 -0.08120
 H536 H 0.25482 0.34166 -0.11031
 H537 H 0.26559 0.36600 -0.06509
 C538 C 0.19509 0.31831 0.06200
 C539 C 0.16409 0.45402 -0.01238
 C540 C 0.20895 0.32846 -0.09961
 C541 C 0.32847 0.40525 0.00419
 C542 C 0.74022 0.06979 -0.01326
 H543 H 0.74833 0.07466 -0.03448
 C544 C 0.72492 0.04344 -0.00746
 H545 H 0.72104 0.02816 -0.02440
 C546 C 0.73581 0.08383 0.03464
 H547 H 0.74068 0.09943 0.05107
 C548 C 0.71992 0.05777 0.04131
 H549 H 0.71252 0.05352 0.06287
 N550 N 0.74531 0.08937 0.00761
 C551 C 0.75772 0.17170 -0.03828
 H552 H 0.78068 0.17743 -0.03200
 C553 C 0.74118 0.19103 -0.05506
 H554 H 0.75175 0.21159 -0.06163
 C555 C 0.71582 0.13839 -0.03575
 H556 H 0.70583 0.11816 -0.02760
 C557 C 0.69840 0.15713 -0.05246
 H558 H 0.67523 0.15089 -0.05749
 Zn559 Zn 0.76797 0.12302 -0.00385
 N560 N 0.74493 0.14594 -0.02914
 C561 C 0.80915 0.11701 -0.04936
 N562 N 0.80225 0.10977 -0.02186
 C563 C 0.81790 0.08972 -0.00655
 C564 C 0.84074 0.07523 -0.01910
 C565 C 0.83231 0.10331 -0.06264
 C566 C 0.75721 0.15881 0.04201
 C567 C 0.76450 0.18018 0.06191
 C568 C 0.81673 0.17674 0.05044
 C569 C 0.80853 0.15520 0.03112
 N570 N 0.77915 0.14692 0.02703
 H571 H 0.79612 0.13262 -0.06135
 H572 H 0.81177 0.08420 0.01516
 H573 H 0.85249 0.05888 -0.00675
 H574 H 0.83715 0.10860 -0.08473
 H575 H 0.73394 0.15246 0.03769
 H576 H 0.74676 0.18993 0.07316
 H577 H 0.84016 0.18352 0.05300
 H578 H 0.82552 0.14604 0.01849
 C579 C 0.71105 0.18385 -0.06230
 C580 C 0.71441 0.03721 0.02003
 C581 C 0.79457 0.18976 0.06585
 C582 C 0.84777 0.08155 -0.04766
 C583 C 0.22060 0.61905 0.48923
 H584 H 0.22929 0.61248 0.46919
 C585 C 0.19680 0.60314 0.50144
 H586 H 0.18765 0.58444 0.49035
 C587 C 0.22260 0.65170 0.52736
 H588 H 0.23300 0.67033 0.53765
 C589 C 0.19857 0.63637 0.54038
 H590 H 0.19051 0.64366 0.56042
 N591 N 0.23261 0.64318 0.50186
 C592 C 0.26454 0.69084 0.42544
 H593 H 0.28864 0.69265 0.42876
 C594 C 0.25126 0.70261 0.40040
 H595 H 0.26528 0.71317 0.38436
 C596 C 0.21678 0.67514 0.44226
 H597 H 0.20303 0.66530 0.45878
 C598 C 0.20279 0.68603 0.41759
 H599 H 0.17856 0.68396 0.41539
 Zn600 Zn 0.26397 0.66200 0.48067
 N601 N 0.24719 0.67722 0.44569
 C602 C 0.29938 0.62141 0.45011
 N603 N 0.29142 0.63215 0.47547
 C604 C 0.30082 0.61991 0.50065
 C605 C 0.31850 0.59575 0.50120
 C606 C 0.31731 0.59701 0.44968
 C607 C 0.26840 0.71364 0.51355
 C608 C 0.28355 0.73447 0.53047
 C609 C 0.33031 0.71322 0.51951
 C610 C 0.31432 0.69254 0.50345
 N611 N 0.28385 0.69260 0.50126
 H612 H 0.29118 0.63114 0.43031
 H613 H 0.29385 0.62864 0.52048
 H614 H 0.32526 0.58627 0.52163
 H615 H 0.32285 0.58824 0.42942
 H616 H 0.24426 0.71389 0.51076
 H617 H 0.27095 0.75062 0.54073
 H618 H 0.35451 0.71236 0.52136
 H619 H 0.32637 0.67627 0.49285
 C620 C 0.21993 0.69998 0.39625
 C621 C 0.18511 0.61187 0.52724
 C622 C 0.31493 0.73414 0.53383
 C623 C 0.32670 0.58363 0.47560
 C624 C 0.69396 0.91287 0.52868
 H625 H 0.70724 0.91927 0.54716
 C626 C 0.66608 0.92517 0.52333
 H627 H 0.65822 0.94063 0.53804
 C628 C 0.68807 0.88528 0.48695
 H629 H 0.69690 0.87034 0.47231
 C630 C 0.66022 0.89686 0.48090
 H631 H 0.64786 0.89024 0.46185
 N632 N 0.70431 0.89313 0.51064
 C633 C 0.75449 0.83665 0.56191
 H634 H 0.75304 0.82043 0.54578
 C635 C 0.76149 0.82810 0.58998
 H636 H 0.76461 0.80535 0.59476
 C637 C 0.75390 0.88587 0.57478
 H638 H 0.75211 0.90849 0.56855
 C639 C 0.76087 0.87827 0.60318
 H640 H 0.76351 0.89517 0.61871
 Zn641 Zn 0.74250 0.87638 0.51605
 N642 N 0.75024 0.86506 0.55485
 C643 C 0.80184 0.89648 0.51130
 N644 N 0.77306 0.90363 0.50539
 C645 C 0.76651 0.92988 0.49338
 C646 C 0.78954 0.95045 0.48733
 C647 C 0.82551 0.91637 0.50566
 C648 C 0.72203 0.82176 0.49766
 C649 C 0.72157 0.79652 0.48199
 C650 C 0.76417 0.81632 0.45598
 C651 C 0.76397 0.84118 0.47238
 N652 N 0.74330 0.84326 0.49299
 H653 H 0.80632 0.87537 0.52077
 H654 H 0.74341 0.93503 0.48883
 H655 H 0.78399 0.97147 0.47826
 H656 H 0.84821 0.91015 0.51063
 H657 H 0.70558 0.82416 0.51390
 H658 H 0.70465 0.77952 0.48626
 H659 H 0.78111 0.81483 0.44006
 H660 H 0.78040 0.85869 0.46867
 C661 C 0.76457 0.84900 0.61118
 C662 C 0.64883 0.91713 0.49910
 C663 C 0.74285 0.79351 0.46088
 C664 C 0.81946 0.94398 0.49393
 C665 C 0.04562 0.23542 0.44727
 H666 H 0.06521 0.25009 0.44672
 C667 C 0.04269 0.21451 0.46927
 H668 H 0.06017 0.21324 0.48565
 C669 C -0.00041 0.21868 0.42593
 H670 H -0.01719 0.22036 0.40901
 C671 C -0.00425 0.19746 0.44749
 H672 H -0.02411 0.18319 0.44684
 N673 N 0.02472 0.23646 0.42570
 C674 C 0.07177 0.26385 0.34895
 H675 H 0.05840 0.28179 0.34169
 C676 C 0.09475 0.25474 0.33209
 H677 H 0.09907 0.26618 0.31210
 C678 C 0.08162 0.22696 0.38374
 H679 H 0.07600 0.21567 0.40348
 C680 C 0.10483 0.21717 0.36760
 H681 H 0.11704 0.19863 0.37538
 Zn682 Zn 0.03210 0.26197 0.39419
 N683 N 0.06571 0.25002 0.37428
 C684 C 0.06568 0.31453 0.40143
 N685 N 0.03922 0.30013 0.40734
 C686 C 0.01844 0.31214 0.42359
 C687 C 0.02388 0.33987 0.43447
 C688 C 0.07191 0.34228 0.41164
 C689 C -0.00283 0.23440 0.35356
 C690 C -0.02412 0.23076 0.33166
 C691 C -0.04144 0.27865 0.34029
 C692 C -0.01936 0.28158 0.36194
 N693 N -0.00057 0.25958 0.36796
 H694 H 0.08226 0.30443 0.38911
 H695 H -0.00225 0.30005 0.42828
 H696 H 0.00702 0.34910 0.44722
 H697 H 0.09317 0.35330 0.40683
 H698 H 0.01256 0.21737 0.35870
 H699 H -0.02514 0.21080 0.31998
 H700 H -0.05578 0.29651 0.33509
 H701 H -0.01682 0.30158 0.37339
 C702 C 0.11152 0.23092 0.34129
 C703 C 0.01792 0.19462 0.46911
 C704 C -0.04350 0.25313 0.32457
 C705 C 0.05102 0.35525 0.42855
 C706 C -0.07757 0.69572 0.09177
 H707 H -0.09877 0.70506 0.08581
 C708 C -0.07093 0.66826 0.08219
 H709 H -0.08709 0.65629 0.06896
 C710 C -0.03033 0.69994 0.11602
 H711 H -0.01412 0.71247 0.12849
 C712 C -0.02317 0.67248 0.10759
 H713 H -0.00162 0.66405 0.11394
 N714 N -0.05735 0.71084 0.10849
 C715 C -0.10348 0.77131 0.15942
 H716 H -0.09211 0.79127 0.15216
 C717 C -0.12334 0.77169 0.18180
 H718 H -0.12732 0.79218 0.19146
 C719 C -0.11084 0.72027 0.15622
 H720 H -0.10525 0.70024 0.14658
 C721 C -0.13089 0.71963 0.17875
 H722 H -0.14062 0.69895 0.18603
 Zn723 Zn -0.06635 0.74812 0.12068
 N724 N -0.09743 0.74588 0.14729
 C725 C -0.10452 0.78338 0.08688
 N726 N -0.07730 0.77118 0.08820
 C727 C -0.05727 0.77600 0.06699
 C728 C -0.06335 0.79560 0.04445
 C729 C -0.11158 0.80295 0.06475
 C730 C -0.02267 0.75314 0.16506
 C731 C 0.00214 0.76530 0.17996
 C732 C 0.00478 0.80403 0.14421
 C733 C -0.01978 0.79100 0.12989
 N734 N -0.03263 0.76567 0.14010
 H735 H -0.12058 0.77856 0.10337
 H736 H -0.03598 0.76554 0.06825
 H737 H -0.04657 0.79990 0.02849
 H738 H -0.13300 0.81316 0.06473
 H739 H -0.03390 0.73348 0.17325
 H740 H 0.00987 0.75492 0.19961
 H741 H 0.01485 0.82405 0.13553
 H742 H -0.02862 0.80137 0.11074
 C743 C -0.13692 0.74559 0.19220
 C744 C -0.04351 0.65636 0.09047
 C745 C 0.01630 0.79102 0.16938
 C746 C -0.09053 0.81004 0.04360
 C747 C 0.47538 0.21093 0.59327
 H748 H 0.45518 0.22080 0.58510
 C749 C 0.48336 0.18407 0.58329
 H750 H 0.46888 0.17344 0.56760
 C751 C 0.51867 0.21322 0.62359
 H752 H 0.53271 0.22483 0.63893
 C753 C 0.52746 0.18646 0.61426
 H754 H 0.54807 0.17770 0.62281
 N755 N 0.49295 0.22485 0.61315
 C756 C 0.43755 0.28534 0.65475
 H757 H 0.45174 0.30463 0.65100
 C758 C 0.41322 0.28644 0.67254
 H759 H 0.40862 0.30689 0.68199
 C760 C 0.42766 0.23503 0.64811
 H761 H 0.43415 0.21486 0.63933
 C762 C 0.40284 0.23517 0.66597
 H763 H 0.39026 0.21508 0.67061
 Zn764 Zn 0.48230 0.26180 0.62542
 N765 N 0.44457 0.25992 0.64321
 C766 C 0.45656 0.30217 0.58581
 N767 N 0.48190 0.28817 0.59364
 C768 C 0.50738 0.29201 0.57847
 C769 C 0.50814 0.31075 0.55454
 C770 C 0.45642 0.32137 0.56219
 C771 C 0.50742 0.25899 0.67900
 C772 C 0.52293 0.26788 0.70348
 C773 C 0.54463 0.30873 0.67663
 C774 C 0.52816 0.29920 0.65245
 N775 N 0.50982 0.27481 0.65425
 H776 H 0.43624 0.29825 0.59761
 H777 H 0.52710 0.28034 0.58492
 H778 H 0.52860 0.31347 0.54266
 H779 H 0.43595 0.33200 0.55618
 H780 H 0.49247 0.23989 0.67991
 H781 H 0.52009 0.25533 0.72316
 H782 H 0.55853 0.32853 0.67540
 H783 H 0.52929 0.31177 0.63267
 C784 C 0.39585 0.26109 0.67892
 C785 C 0.50985 0.17150 0.59376
 C786 C 0.54139 0.29325 0.70265
 C787 C 0.48247 0.32581 0.54618
 C788 C 0.53478 0.69604 0.92205
 H789 H 0.55303 0.70686 0.93377
 C790 C 0.52470 0.66802 0.93038
 H791 H 0.53540 0.65759 0.94866
 C792 C 0.49811 0.69725 0.88461
 H793 H 0.48733 0.70891 0.86716
 C794 C 0.48729 0.66937 0.89222
 H795 H 0.46855 0.65972 0.88022
 N796 N 0.52154 0.70995 0.89943
 C797 C 0.58609 0.77899 0.87518
 H798 H 0.57103 0.79676 0.87565
 C799 C 0.61580 0.78435 0.86763
 H800 H 0.62350 0.80635 0.86217
 C801 C 0.59379 0.72853 0.88082
 H802 H 0.58486 0.70681 0.88558
 C803 C 0.62370 0.73288 0.87273
 H804 H 0.63783 0.71445 0.87162
 Zn805 Zn 0.53438 0.74844 0.88968
 N806 N 0.57573 0.75153 0.88179
 C807 C 0.55165 0.78146 0.93654
 N808 N 0.52711 0.77247 0.92084
 C809 C 0.49899 0.77923 0.92836
 C810 C 0.49505 0.79711 0.95158
 C811 C 0.54878 0.79924 0.95965
 C812 C 0.52347 0.74431 0.83261
 C813 C 0.51168 0.74983 0.80535
 C814 C 0.48284 0.78769 0.82444
 C815 C 0.49548 0.78156 0.85151
 N816 N 0.51507 0.75984 0.85506
 H817 H 0.57366 0.77454 0.93146
 H818 H 0.47967 0.77089 0.91628
 H819 H 0.47267 0.80290 0.95702
 H820 H 0.56878 0.80593 0.97168
 H821 H 0.53931 0.72734 0.83606
 H822 H 0.51845 0.73690 0.78791
 H823 H 0.46725 0.80498 0.82193
 H824 H 0.48963 0.79412 0.86950
 C825 C 0.63489 0.76114 0.86591
 C826 C 0.50054 0.65434 0.91539
 C827 C 0.49084 0.77151 0.80097
 C828 C 0.52029 0.80777 0.96719
 N829 N 0.15345 0.20002 0.33306
 N830 N 0.17188 0.19382 0.31259
 C831 C 0.16452 0.21080 0.28985
 C832 C 0.14112 0.22762 0.29684
 N833 N 0.13482 0.22025 0.32414
 H834 H 0.12961 0.24310 0.28323
 N835 N 0.67906 0.79227 0.85572
 N836 N 0.70342 0.79225 0.84017
 C837 C 0.70454 0.76532 0.82995
 C838 C 0.68019 0.74877 0.83961
 N839 N 0.66474 0.76647 0.85562
 H840 H 0.67284 0.72717 0.83327
 N841 N 0.48832 0.76593 0.74928
 N842 N 0.47044 0.77182 0.72702
 C843 C 0.44775 0.78658 0.73710
 C844 C 0.45212 0.78962 0.76610
 N845 N 0.47779 0.77639 0.77291
 H846 H 0.43741 0.79917 0.78085
 N847 N -0.05697 0.23480 0.27783
 N848 N -0.07862 0.23614 0.25812
 C849 C -0.09948 0.25313 0.26838
 C850 C -0.08998 0.26242 0.29503
 N851 N -0.06323 0.25037 0.30006
 H852 H -0.10125 0.27618 0.30930
 N853 N -0.15699 0.76911 0.23299
 N854 N -0.17264 0.76287 0.25613
 C855 C -0.18086 0.73448 0.25503
 C856 C -0.16988 0.72338 0.23048
 N857 N -0.15490 0.74585 0.21733
 H858 H -0.17172 0.70119 0.22357
 N859 N 0.37222 0.28364 0.71803
 N860 N 0.34878 0.28026 0.73458
 C861 C 0.33401 0.25548 0.72695
 C862 C 0.34928 0.24349 0.70502
 N863 N 0.37303 0.26208 0.70003
 H864 H 0.34316 0.22420 0.69324
 N865 N 0.54171 0.29842 0.75365
 N866 N 0.56073 0.30394 0.77501
 C867 C 0.58689 0.31316 0.76341
 C868 C 0.58330 0.31347 0.73392
 N869 N 0.55471 0.30358 0.72886
 H870 H 0.60044 0.31675 0.71809
 N871 N 0.05164 0.83148 0.17844
 N872 N 0.07688 0.83750 0.19286
 C873 C 0.08340 0.81326 0.20809
 C874 C 0.06142 0.79201 0.20262
 N875 N 0.04195 0.80436 0.18383
 H876 H 0.06068 0.76960 0.21015
 N877 N 0.32525 0.11831 0.17283
 N878 N 0.30728 0.14014 0.16741
 C879 C 0.28983 0.14157 0.19031
 C880 C 0.29745 0.12012 0.20984
 N881 N 0.31964 0.10594 0.19813
 H882 H 0.28804 0.11558 0.23058
 N883 N 0.75173 0.59750 0.72736
 N884 N 0.74006 0.62326 0.72952
 C885 C 0.76226 0.64313 0.72387
 C886 C 0.78802 0.62891 0.71860
 N887 N 0.78053 0.60029 0.72101
 H888 H 0.81046 0.63849 0.71648
 N889 N 0.81111 0.37489 0.80335
 N890 N 0.79162 0.35358 0.81008
 C891 C 0.76655 0.35796 0.79411
 C892 C 0.77127 0.38268 0.77708
 N893 N 0.79946 0.39267 0.78377
 H894 H 0.75537 0.39335 0.76292
 N895 N 0.26760 -0.08325 0.21389
 N896 N 0.24411 -0.10162 0.21482
 C897 C 0.24815 -0.11894 0.23812
 C898 C 0.27496 -0.11066 0.25167
 N899 N 0.28634 -0.08812 0.23570
 H900 H 0.28483 -0.11959 0.27115
 N901 N 0.27294 -0.10731 0.75997
 N902 N 0.29507 -0.12436 0.75454
 C903 C 0.29031 -0.13331 0.72764
 C904 C 0.26446 -0.12125 0.71660
 N905 N 0.25432 -0.10503 0.73761
 H906 H 0.25465 -0.12342 0.69540
 N907 N 0.71553 0.35503 0.28386
 N908 N 0.73665 0.33584 0.28202
 C909 C 0.73779 0.32940 0.25427
 C910 C 0.71686 0.34518 0.23906
 N911 N 0.70336 0.36108 0.25838
 H912 H 0.71295 0.34584 0.21622
 N913 N 0.70276 0.55086 0.33358
 N914 N 0.71896 0.57300 0.34394
 C915 C 0.73013 0.58817 0.32135
 C916 C 0.72036 0.57469 0.29665
 N917 N 0.70321 0.55147 0.30535
 H918 H 0.72319 0.58225 0.27478
 N919 N 0.15018 0.11317 0.76364
 N920 N 0.15730 0.14123 0.76347
 C921 C 0.18460 0.14472 0.75184
 C922 C 0.19410 0.11770 0.74453
 N923 N 0.17185 0.09858 0.75266
 H924 H 0.21547 0.11227 0.73613
 N925 N 0.16344 0.30783 0.10301
 N926 N 0.16249 0.29101 0.12637
 C927 C 0.18610 0.27382 0.12545
 C928 C 0.20163 0.28050 0.10090
 N929 N 0.18670 0.30195 0.08740
 H930 H 0.22236 0.27163 0.09435
 N931 N 0.77355 0.85957 0.66154
 N932 N 0.77715 0.84581 0.68651
 C933 C 0.77735 0.81729 0.68104
 C934 C 0.77348 0.81387 0.65209
 N935 N 0.77112 0.84086 0.64054
 H936 H 0.77089 0.79364 0.64101
 N937 N 0.72903 0.74247 0.45361
 N938 N 0.73229 0.72199 0.43485
 C939 C 0.74872 0.73430 0.41370
 C940 C 0.75553 0.76292 0.41992
 N941 N 0.74279 0.76717 0.44515
 H942 H 0.76786 0.77905 0.40717
 N943 N 0.17395 0.30388 -0.13263
 N944 N 0.17384 0.29000 -0.15695
 C945 C 0.20225 0.29197 -0.16606
 C946 C 0.21991 0.30721 -0.14663
 N947 N 0.20134 0.31425 -0.12591
 H948 H 0.24400 0.31109 -0.14678
 N949 N 0.66352 0.20125 -0.08193
 N950 N 0.65346 0.22196 -0.09942
 C951 C 0.67780 0.23797 -0.10777
 C952 C 0.70304 0.22653 -0.09516
 N953 N 0.69319 0.20357 -0.07911
 H954 H 0.72619 0.23353 -0.09831
 N955 N 0.17847 0.70006 0.36157
 N956 N 0.16872 0.71502 0.33896
 C957 C 0.18987 0.73599 0.33345
 C958 C 0.21318 0.73342 0.35338
 N959 N 0.20503 0.71063 0.37064
 H960 H 0.23318 0.74734 0.35585
 N961 N 0.36080 0.75973 0.55000
 N962 N 0.37127 0.77483 0.57194
 C963 C 0.34766 0.77924 0.58836
 C964 C 0.32223 0.76624 0.57593
 N965 N 0.33150 0.75418 0.55194
 H966 H 0.30010 0.76343 0.58481
 N967 N 0.82817 0.22907 0.08238
 N968 N 0.83174 0.24657 0.10416
 C969 C 0.80743 0.24202 0.12042
 C970 C 0.78903 0.22068 0.10828
 N971 N 0.80284 0.21317 0.08449
 H972 H 0.76941 0.20973 0.11736
 N973 N 0.50270 0.34274 0.50058
 N974 N 0.49743 0.36190 0.47968
 C975 C 0.47336 0.37636 0.48720
 C976 C 0.46387 0.36552 0.51334
 N977 N 0.48285 0.34441 0.52097
 H978 H 0.44519 0.37229 0.52546
 N979 N -0.12063 0.84869 0.02324
 N980 N -0.11880 0.87055 0.00439
 C981 C -0.09235 0.86863 -0.00852
 C982 C -0.07797 0.84480 0.00285
 N983 N -0.09641 0.83299 0.02289
 H984 H -0.05576 0.83799 -0.00180
 N985 N -0.01808 0.61121 0.09737
 N986 N -0.01038 0.58885 0.08256
 C987 C -0.02364 0.59186 0.05655
 C988 C -0.04015 0.61662 0.05584
 N989 N -0.03577 0.62814 0.08181
 H990 H -0.05175 0.62661 0.03780
 N991 N 0.54267 0.13023 0.59450
 N992 N 0.54635 0.10587 0.58087
 C993 C 0.52436 0.10429 0.56069
 C994 C 0.50708 0.12829 0.56228
 N995 N 0.51924 0.14405 0.58376
 H996 H 0.48794 0.13377 0.54889
 N997 N 0.03482 0.16870 0.51239
 N998 N 0.03024 0.14336 0.52598
 C999 C 0.00793 0.12919 0.51149
 C1000 C -0.00108 0.14643 0.48866
 N1001 N 0.01632 0.17104 0.48992
 H1002 H -0.01731 0.14082 0.47198
 N1003 N 0.46288 0.61424 0.91411
 N1004 N 0.45736 0.58826 0.92616
 C1005 C 0.48076 0.58333 0.94413
 C1006 C 0.50080 0.60694 0.94282
 N1007 N 0.48875 0.62589 0.92384
 H1008 H 0.52183 0.61002 0.95455
 N1009 N 0.49266 0.83003 1.00513
 N1010 N 0.49745 0.84955 1.02524
 C1011 C 0.52623 0.85934 1.02286
 C1012 C 0.53886 0.84547 1.00090
 N1013 N 0.51731 0.82720 0.99037
 H1014 H 0.56140 0.84869 0.99308
 N1015 N 0.07984 0.40139 0.43038
 N1016 N 0.08223 0.42511 0.44570
 C1017 C 0.06095 0.42209 0.46553
 C1018 C 0.04536 0.39591 0.46202
 N1019 N 0.05789 0.38358 0.43976
 H1020 H 0.02764 0.38637 0.47502
 N1021 N 0.34555 0.54065 0.50019
 N1022 N 0.36162 0.51782 0.49570
 C1023 C 0.36966 0.51986 0.46824
 C1024 C 0.35799 0.54476 0.45585
 N1025 N 0.34301 0.55718 0.47671
 H1026 H 0.36052 0.55312 0.43422
 N1027 N 0.88745 0.07460 -0.08196
 N1028 N 0.90487 0.05372 -0.08992
 C1029 C 0.89696 0.02984 -0.07410
 C1030 C 0.87441 0.03663 -0.05621
 N1031 N 0.86923 0.06477 -0.06162
 H1032 H 0.86290 0.02267 -0.04071
 N1033 N 0.69963 -0.01299 0.00987
 N1034 N 0.68006 -0.03367 0.01831
 C1035 C 0.66585 -0.02314 0.04054
 C1036 C 0.67715 0.00461 0.04556
 N1037 N 0.69823 0.01015 0.02585
 H1038 H 0.66940 0.01986 0.06057
 N1039 N 0.14616 0.60395 0.56312
 N1040 N 0.12302 0.58582 0.56886
 C1041 C 0.12198 0.56598 0.54826
 C1042 C 0.14503 0.57237 0.52985
 N1043 N 0.15970 0.59630 0.53977
 H1044 H 0.15032 0.56077 0.51108
 N1045 N 0.13748 0.48350 0.01966
 N1046 N 0.11183 0.49657 0.02145
 C1047 C 0.09749 0.49378 -0.00401
 C1048 C 0.11520 0.47868 -0.02173
 N1049 N 0.14008 0.47253 -0.00588
 H1050 H 0.11005 0.47208 -0.04331
 N1051 N 0.60188 0.91940 0.47172
 N1052 N 0.57776 0.93507 0.46903
 C1053 C 0.58078 0.95569 0.48879
 C1054 C 0.60753 0.95221 0.50387
 N1055 N 0.62010 0.92921 0.49238
 H1056 H 0.61719 0.96553 0.52065
 N1057 N 0.84042 0.99021 0.47457
 N1058 N 0.86543 1.00677 0.47637
 C1059 C 0.88469 0.99199 0.49329
 C1060 C 0.87092 0.96604 0.50186
 N1061 N 0.84325 0.96566 0.48968
 H1062 H 0.87965 0.94983 0.51660
 N1063 N 0.37569 0.40008 0.03097
 N1064 N 0.40284 0.41269 0.03341
 C1065 C 0.40370 0.43493 0.01417
 C1066 C 0.37630 0.43568 -0.00020
 N1067 N 0.35935 0.41345 0.01097
 H1068 H 0.36926 0.45125 -0.01644
 N1069 N 0.48785 0.49156 0.29814
 N1070 N 0.46839 0.49175 0.31905
 C1071 C 0.47577 0.47010 0.33746
 C1072 C 0.50019 0.45661 0.32732
 N1073 N 0.50713 0.47065 0.30264
 H1074 H 0.51264 0.43948 0.33769
 N1075 N 0.07066 -0.09198 0.85965
 N1076 N 0.05015 -0.09461 0.87965
 C1077 C 0.03274 -0.07153 0.87607
 C1078 C 0.04303 -0.05469 0.85329
 N1079 N 0.06675 -0.06830 0.84350
 H1080 H 0.03405 -0.03472 0.84472
 N1081 N 0.04130 -0.05810 0.63108
 N1082 N 0.02335 -0.05187 0.60895
 C1083 C 0.03042 -0.02414 0.60104
 C1084 C 0.05302 -0.01355 0.61879
 N1085 N 0.05925 -0.03537 0.63742
 H1086 H 0.06334 0.00808 0.61834
 N1087 N 0.60544 0.51508 0.09886
 N1088 N 0.59063 0.51915 0.07432
 C1089 C 0.56688 0.50009 0.07455
 C1090 C 0.56743 0.48422 0.09989
 N1091 N 0.59194 0.49427 0.11455
 H1092 H 0.55081 0.46825 0.10746
 N1093 N 0.52396 0.00339 0.19001
 N1094 N 0.54349 -0.00335 0.17070
 C1095 C 0.53047 -0.02529 0.15585
 C1096 C 0.50246 -0.03192 0.16654
 N1097 N 0.49922 -0.01349 0.18795
 H1098 H 0.48586 -0.04782 0.15887
 N1099 N 0.93825 0.44834 0.62857
 N1100 N 0.95654 0.44667 0.60700
 C1101 C 0.97495 0.47056 0.60774
 C1102 C 0.96748 0.48707 0.63041
 N1103 N 0.94429 0.47236 0.64294
 H1104 H 0.97787 0.50749 0.63701
 N1105 N 0.93781 0.57796 0.85532
 N1106 N 0.95146 0.58151 0.88043
 C1107 C 0.96472 0.55644 0.88716
 C1108 C 0.95864 0.53717 0.86549
 N1109 N 0.94161 0.55154 0.84591
 H1110 H 0.96395 0.51450 0.86518
 N1111 N 0.40608 0.05531 0.39078
 N1112 N 0.41897 0.05797 0.41641
 C1113 C 0.43819 0.03628 0.41947
 C1114 C 0.43683 0.02025 0.39508
 N1115 N 0.41646 0.03285 0.37760
 H1116 H 0.45036 0.00224 0.39007
   
