data_POSCAR
  _audit_creation_date              2014-09-24
  _audit_creation_method            'ToBaCCo'
  _symmetry_space_group_name_H-M    'P1'
  _symmetry_Int_Tables_number       1
  _symmetry_cell_setting            triclinic
  loop_
  _symmetry_equiv_pos_as_xyz
 x,y,z
_cell_length_a 21.6916
_cell_length_b 20.6823
_cell_length_c 20.6828
_cell_angle_alpha 89.835800
_cell_angle_beta 90.043100
_cell_angle_gamma 89.956600
loop_
  _atom_site_label
  _atom_site_type_symbol
  _atom_site_fract_x
  _atom_site_fract_y
  _atom_site_fract_z
C1 C 0.34346 0.33857 0.22552
 H2 H 0.34610 0.33937 0.27775
 C3 C 0.38327 0.37698 0.18886
 H4 H 0.41658 0.40772 0.21280
 C5 C 0.29721 0.29717 0.13027
 H6 H 0.26427 0.26538 0.10756
 C7 C 0.33618 0.33479 0.09181
 H8 H 0.33266 0.33236 0.03962
 N9 N 0.30094 0.30038 0.19590
 C10 C 0.15506 0.27387 0.33863
 H11 H 0.15218 0.22166 0.33971
 C12 C 0.11578 0.31078 0.37726
 H13 H 0.08260 0.28704 0.40841
 C14 C 0.20148 0.36883 0.29643
 H15 H 0.23429 0.39135 0.26427
 C16 C 0.16306 0.40753 0.33424
 H17 H 0.16685 0.45970 0.33157
 Zn18 Zn 0.24902 0.24965 0.24928
 N19 N 0.19745 0.30323 0.29997
 C20 C 0.29712 0.20262 0.36854
 N21 N 0.30070 0.19876 0.30294
 C22 C 0.34303 0.16006 0.27367
 C23 C 0.38282 0.12184 0.31069
 C24 C 0.33607 0.16522 0.40734
 C25 C 0.15487 0.22603 0.15981
 C26 C 0.11516 0.18937 0.12141
 C27 C 0.16191 0.09231 0.16458
 C28 C 0.20078 0.13076 0.20217
 N29 N 0.19718 0.19640 0.19849
 H30 H 0.26438 0.23483 0.39097
 H31 H 0.34559 0.15877 0.22145
 H32 H 0.41601 0.09072 0.28703
 H33 H 0.33269 0.16821 0.45951
 H34 H 0.15231 0.27826 0.15863
 H35 H 0.08201 0.21333 0.09029
 H36 H 0.16533 0.04011 0.16741
 H37 H 0.23354 0.10803 0.23433
 C38 C 0.12009 0.37820 0.37523
 C39 C 0.37936 0.37523 0.12141
 C40 C 0.11894 0.12191 0.12366
 C41 C 0.37910 0.12432 0.37813
 C42 C 0.84447 0.84119 0.22412
 H43 H 0.84731 0.84234 0.27633
 C44 C 0.88373 0.87986 0.18704
 H45 H 0.91679 0.91108 0.21081
 C46 C 0.79826 0.79871 0.12935
 H47 H 0.76556 0.76642 0.10698
 C48 C 0.83665 0.83654 0.09045
 H49 H 0.83281 0.83363 0.03828
 N50 N 0.80221 0.80236 0.19494
 C51 C 0.65652 0.77506 0.33790
 H52 H 0.65388 0.72283 0.33884
 C53 C 0.61703 0.81166 0.37659
 H54 H 0.58394 0.78766 0.40765
 C55 C 0.70255 0.87037 0.29601
 H56 H 0.73530 0.89314 0.26397
 C57 C 0.66390 0.90876 0.33390
 H58 H 0.66746 0.96096 0.33139
 Zn59 Zn 0.75073 0.75143 0.24872
 N60 N 0.69882 0.80473 0.29937
 C61 C 0.79857 0.70437 0.36809
 N62 N 0.80260 0.70084 0.30250
 C63 C 0.84502 0.66215 0.27336
 C64 C 0.88426 0.62340 0.31050
 C65 C 0.83695 0.66645 0.40700
 C66 C 0.65659 0.72672 0.15947
 C67 C 0.61710 0.68956 0.12131
 C68 C 0.66450 0.59308 0.16501
 C69 C 0.70314 0.63202 0.20234
 N70 N 0.69913 0.69761 0.19826
 H71 H 0.76576 0.73655 0.39044
 H72 H 0.84791 0.66107 0.22116
 H73 H 0.91743 0.59218 0.28694
 H74 H 0.83312 0.66908 0.45915
 H75 H 0.65369 0.77893 0.15800
 H76 H 0.58378 0.71310 0.09008
 H77 H 0.66826 0.54092 0.16814
 H78 H 0.73602 0.60969 0.23462
 C79 C 0.62102 0.87910 0.37477
 C80 C 0.87956 0.87772 0.11956
 C81 C 0.62133 0.62214 0.12394
 C82 C 0.87990 0.62536 0.37791
 C83 C 0.84541 0.33759 0.72705
 H84 H 0.84835 0.33863 0.77926
 C85 C 0.88459 0.37633 0.68996
 H86 H 0.91775 0.40750 0.71356
 C87 C 0.79890 0.29546 0.63228
 H88 H 0.76610 0.26330 0.60989
 C89 C 0.83723 0.33337 0.59341
 H90 H 0.83335 0.33077 0.54125
 N91 N 0.80300 0.29893 0.69787
 C92 C 0.65719 0.27287 0.84085
 H93 H 0.65439 0.22066 0.84229
 C94 C 0.61762 0.30998 0.87898
 H95 H 0.58435 0.28639 0.91014
 C96 C 0.70351 0.36764 0.79810
 H97 H 0.73633 0.39001 0.76587
 C98 C 0.66479 0.40653 0.83540
 H99 H 0.66843 0.45868 0.83229
 Zn100 Zn 0.75126 0.24828 0.75159
 N101 N 0.69964 0.30204 0.80213
 C102 C 0.79908 0.20087 0.87089
 N103 N 0.80290 0.19726 0.80530
 C104 C 0.84516 0.15846 0.77607
 C105 C 0.88458 0.11978 0.81307
 C106 C 0.83763 0.16306 0.90977
 C107 C 0.65691 0.22482 0.66241
 C108 C 0.61734 0.18831 0.62374
 C109 C 0.66435 0.09110 0.66627
 C110 C 0.70309 0.12942 0.70415
 N111 N 0.69932 0.19506 0.70087
 H112 H 0.76638 0.23315 0.89329
 H113 H 0.84788 0.15735 0.72385
 H114 H 0.91762 0.08862 0.78912
 H115 H 0.83380 0.16605 0.96195
 H116 H 0.65425 0.27706 0.66154
 H117 H 0.58415 0.21238 0.59275
 H118 H 0.66793 0.03890 0.66873
 H119 H 0.73593 0.10658 0.73613
 C120 C 0.62168 0.37741 0.87638
 C121 C 0.88017 0.37441 0.62254
 C122 C 0.62134 0.12086 0.62549
 C123 C 0.88059 0.12187 0.88060
 C124 C 0.34323 0.83998 0.72624
 H125 H 0.34579 0.84120 0.77847
 C126 C 0.38299 0.87821 0.68933
 H127 H 0.41616 0.90927 0.71308
 C128 C 0.29732 0.79759 0.63126
 H129 H 0.26458 0.76545 0.60875
 C130 C 0.33623 0.83501 0.59256
 H131 H 0.33284 0.83211 0.54038
 N132 N 0.30091 0.80136 0.69687
 C133 C 0.15508 0.77454 0.83978
 H134 H 0.15255 0.72231 0.84113
 C135 C 0.11532 0.81137 0.87796
 H136 H 0.08218 0.78755 0.90909
 C137 C 0.20093 0.86962 0.79716
 H138 H 0.23367 0.89221 0.76497
 C139 C 0.16201 0.90824 0.83452
 H140 H 0.16540 0.96042 0.83150
 Zn141 Zn 0.24924 0.75058 0.75047
 N142 N 0.19738 0.80400 0.80108
 C143 C 0.29740 0.70294 0.86958
 N144 N 0.30117 0.69982 0.80396
 C145 C 0.34370 0.66160 0.77439
 C146 C 0.38347 0.62305 0.81108
 C147 C 0.33632 0.66518 0.90808
 C148 C 0.15531 0.72623 0.66095
 C149 C 0.11599 0.68922 0.62245
 C150 C 0.16324 0.59257 0.66595
 C151 C 0.20170 0.63136 0.70363
 N152 N 0.19769 0.69696 0.69980
 H153 H 0.26443 0.73474 0.89226
 H154 H 0.34636 0.66086 0.72216
 H155 H 0.41678 0.59228 0.78716
 H156 H 0.33276 0.66752 0.96027
 H157 H 0.15243 0.77844 0.65965
 H158 H 0.08280 0.71289 0.59116
 H159 H 0.16700 0.54040 0.66888
 H160 H 0.23449 0.60891 0.73594
 C161 C 0.11904 0.87882 0.87546
 C162 C 0.37924 0.87584 0.62189
 C163 C 0.12025 0.62180 0.62480
 C164 C 0.37950 0.62469 0.87852
 Si165 Si -0.00229 0.00056 -0.00069
 Si166 Si -0.00011 0.49987 0.50023
 Si167 Si 0.50054 0.00011 0.50015
 Si168 Si 0.50075 0.49975 0.00002
 C169 C 0.07921 -0.08221 -0.08496
 C170 C 0.04631 -0.04935 -0.05154
 C171 C 0.08081 0.41722 0.41532
 C172 C 0.04827 0.45008 0.44910
 C173 C 0.58157 -0.08221 0.41500
 C174 C 0.54893 -0.04956 0.44890
 C175 C 0.58205 0.41665 -0.08412
 C176 C 0.54927 0.44971 -0.05076
 C177 C -0.08354 0.08546 -0.08380
 C178 C -0.05081 0.05171 -0.05079
 C179 C -0.08095 0.58507 0.41717
 C180 C -0.04849 0.55115 0.45023
 C181 C 0.41898 0.08473 0.41728
 C182 C 0.45193 0.05125 0.45025
 C183 C 0.41930 0.58465 -0.08270
 C184 C 0.45219 0.55089 -0.04994
 C185 C -0.08323 -0.08434 0.08243
 C186 C -0.05065 -0.05058 0.04939
 C187 C -0.08073 0.41467 0.58332
 C188 C -0.04834 0.44858 0.55027
 C189 C 0.41907 -0.08452 0.58286
 C190 C 0.45198 -0.05101 0.54998
 C191 C 0.41922 0.41510 0.08264
 C192 C 0.45215 0.44873 0.04990
 C193 C 0.07915 0.08313 0.08385
 C194 C 0.04628 0.05038 0.05028
 C195 C 0.08091 0.58267 0.58488
 C196 C 0.04832 0.54972 0.55124
 C197 C 0.58177 0.08225 0.58529
 C198 C 0.54904 0.04968 0.55141
 C199 C 0.58183 0.58284 0.08436
 C200 C 0.54915 0.54976 0.05093
   
