data_POSCAR
  _audit_creation_date              2014-09-24
  _audit_creation_method            'ToBaCCo'
  _symmetry_space_group_name_H-M    'P1'
  _symmetry_Int_Tables_number       1
  _symmetry_cell_setting            triclinic
  loop_
  _symmetry_equiv_pos_as_xyz
 x,y,z
_cell_length_a 20.2480
_cell_length_b 20.2480
_cell_length_c 34.4635
_cell_angle_alpha 89.875900
_cell_angle_beta 89.875800
_cell_angle_gamma 90.000100
loop_
  _atom_site_label
  _atom_site_type_symbol
  _atom_site_fract_x
  _atom_site_fract_y
  _atom_site_fract_z
O1 O -0.05479 0.56363 0.96315
 O2 O -0.05488 0.43462 1.03866
 O3 O -0.05488 0.56351 1.03858
 O4 O -0.05479 0.43481 0.96322
 O5 O 0.05444 0.43482 0.96313
 O6 O 0.05434 0.56351 1.03849
 O7 O 0.05434 0.43462 1.03856
 O8 O 0.05444 0.56363 0.96306
 Cu9 Cu -0.06586 0.49914 1.00092
 Cu10 Cu 0.06541 0.49914 1.00081
 C11 C -0.00016 0.58562 0.95049
 C12 C -0.00029 0.41259 1.05121
 C13 C -0.00029 0.58549 1.05110
 C14 C -0.00016 0.41289 0.95058
 O15 O 0.56578 0.05528 0.46138
 O16 O 0.43677 0.05520 0.53688
 O17 O 0.56559 0.05520 0.53682
 O18 O 0.43689 0.05529 0.46145
 O19 O 0.43689 -0.05394 0.46155
 O20 O 0.56559 -0.05403 0.53691
 O21 O 0.43677 -0.05403 0.53697
 O22 O 0.56578 -0.05393 0.46147
 Cu23 Cu 0.50126 0.06626 0.49911
 Cu24 Cu 0.50126 -0.06500 0.49922
 C25 C 0.58782 0.00069 0.44882
 C26 C 0.41478 0.00057 0.54954
 C27 C 0.58751 0.00057 0.54946
 C28 C 0.41491 0.00069 0.44893
 C29 C -0.00026 0.00067 0.25002
 C30 C 0.00036 0.00005 0.75002
 C31 C -0.00038 -0.15650 0.13397
 C32 C 0.05381 -0.21031 0.13181
 C33 C -0.00034 -0.26338 0.13022
 C34 C -0.05453 -0.21035 0.13199
 C35 C -0.00034 -0.16283 0.17840
 C36 C -0.05452 -0.21586 0.17683
 C37 C 0.05388 -0.21582 0.17666
 C38 C -0.00030 -0.26981 0.17465
 C39 C -0.00033 -0.31848 0.10275
 C40 C -0.00032 -0.36286 0.07950
 C41 C -0.00032 -0.10597 0.20457
 C42 C -0.00030 -0.05828 0.22545
 H43 H -0.00042 -0.10928 0.11754
 H44 H 0.09836 -0.20862 0.11301
 H45 H -0.09912 -0.20870 0.11332
 H46 H -0.09905 -0.21748 0.19566
 H47 H 0.09846 -0.21739 0.19534
 H48 H -0.00026 -0.31705 0.19106
 C49 C 0.05389 0.21689 0.17584
 C50 C 0.05381 0.21123 0.13102
 C51 C -0.00034 0.26430 0.12923
 C52 C -0.00029 0.27087 0.17363
 C53 C -0.00034 0.16391 0.17778
 C54 C -0.05452 0.21694 0.17602
 C55 C -0.00038 0.15743 0.13338
 C56 C -0.05453 0.21128 0.13119
 C57 C -0.00033 0.31932 0.10156
 C58 C -0.00031 0.36365 0.07817
 C59 C -0.00032 0.10714 0.20417
 C60 C -0.00030 0.05953 0.22523
 H61 H 0.09846 0.21853 0.19452
 H62 H 0.09836 0.20948 0.11221
 H63 H -0.00026 0.31817 0.18987
 H64 H -0.09905 0.21861 0.19483
 H65 H -0.00042 0.11015 0.11712
 H66 H -0.09912 0.20956 0.11253
 C67 C 0.21670 -0.05392 0.67600
 C68 C 0.21091 -0.05373 0.63118
 C69 C 0.26397 0.00043 0.62924
 C70 C 0.27067 0.00027 0.67364
 C71 C 0.16372 0.00030 0.67790
 C72 C 0.21674 0.05449 0.67599
 C73 C 0.15711 0.00045 0.63350
 C74 C 0.21095 0.05461 0.63117
 C75 C 0.31890 0.00049 0.60152
 C76 C 0.36318 0.00053 0.57810
 C77 C 0.10699 0.00022 0.70430
 C78 C 0.05935 0.00015 0.72534
 H79 H 0.21839 -0.09853 0.69475
 H80 H 0.20910 -0.09823 0.61245
 H81 H 0.31801 0.00020 0.68983
 H82 H 0.21847 0.09897 0.69473
 H83 H 0.10979 0.00053 0.61729
 H84 H 0.20918 0.09924 0.61243
 C85 C -0.15540 0.00045 0.63343
 C86 C -0.20918 -0.05373 0.63109
 C87 C -0.26222 0.00042 0.62914
 C88 C -0.20922 0.05461 0.63108
 C89 C -0.16238 0.00030 0.67783
 C90 C -0.21538 0.05449 0.67590
 C91 C -0.21534 -0.05392 0.67591
 C92 C -0.26930 0.00027 0.67353
 C93 C -0.31694 0.00049 0.60140
 C94 C -0.36105 0.00053 0.57799
 C95 C -0.10588 0.00022 0.70426
 C96 C -0.05842 0.00015 0.72531
 H97 H -0.10794 0.00053 0.61723
 H98 H -0.20721 -0.09823 0.61236
 H99 H -0.20729 0.09924 0.61235
 H100 H -0.21727 0.09897 0.69464
 H101 H -0.21719 -0.09853 0.69466
 H102 H -0.31677 0.00020 0.68970
 C103 C -0.00005 -0.15671 0.86654
 C104 C -0.05421 -0.21055 0.86887
 C105 C -0.00002 -0.26356 0.87079
 C106 C 0.05414 -0.21050 0.86886
 C107 C 0.00010 -0.16332 0.82214
 C108 C 0.05432 -0.21629 0.82404
 C109 C -0.05408 -0.21633 0.82405
 C110 C 0.00013 -0.27027 0.82639
 C111 C -0.00008 -0.31850 0.89852
 C112 C -0.00012 -0.36277 0.92193
 C113 C 0.00018 -0.10658 0.79573
 C114 C 0.00026 -0.05894 0.77470
 H115 H -0.00012 -0.10939 0.88275
 H116 H -0.09884 -0.20878 0.88760
 H117 H 0.09864 -0.20870 0.88758
 H118 H 0.09894 -0.21799 0.80529
 H119 H -0.09857 -0.21806 0.80531
 H120 H 0.00021 -0.31761 0.81021
 C121 C -0.05408 0.21579 0.82414
 C122 C -0.05421 0.20963 0.86896
 C123 C -0.00002 0.26262 0.87090
 C124 C 0.00013 0.26970 0.82650
 C125 C 0.00011 0.16279 0.82221
 C126 C 0.05432 0.21575 0.82413
 C127 C -0.00005 0.15581 0.86661
 C128 C 0.05414 0.20958 0.86895
 C129 C -0.00008 0.31734 0.89863
 C130 C -0.00012 0.36145 0.92204
 C131 C 0.00018 0.10628 0.79578
 C132 C 0.00026 0.05882 0.77472
 H133 H -0.09857 0.21768 0.80540
 H134 H -0.09884 0.20770 0.88769
 H135 H 0.00021 0.31718 0.81033
 H136 H 0.09894 0.21760 0.80538
 H137 H -0.00012 0.10835 0.88280
 H138 H 0.09864 0.20762 0.88767
 C139 C -0.21653 0.05492 0.32402
 C140 C -0.27047 0.00070 0.32640
 C141 C -0.26389 0.00074 0.37081
 C142 C -0.21087 0.05494 0.36885
 C143 C -0.16350 0.00074 0.32225
 C144 C -0.15702 0.00078 0.36666
 C145 C -0.21649 -0.05348 0.32419
 C146 C -0.21083 -0.05341 0.36902
 C147 C -0.31891 0.00074 0.39848
 C148 C -0.36324 0.00072 0.42187
 C149 C -0.10673 0.00073 0.29587
 C150 C -0.05913 0.00071 0.27481
 H151 H -0.21820 0.09946 0.30521
 H152 H -0.31776 0.00067 0.31017
 H153 H -0.20915 0.09952 0.38751
 H154 H -0.10975 0.00081 0.38292
 H155 H -0.21813 -0.09805 0.30552
 H156 H -0.20908 -0.09796 0.38782
 C157 C 0.15690 0.00079 0.36606
 C158 C 0.21072 -0.05341 0.36822
 C159 C 0.26379 0.00075 0.36982
 C160 C 0.21076 0.05494 0.36805
 C161 C 0.16324 0.00074 0.32164
 C162 C 0.21627 0.05492 0.32320
 C163 C 0.21622 -0.05348 0.32338
 C164 C 0.27022 0.00070 0.32539
 C165 C 0.31889 0.00074 0.39729
 C166 C 0.36326 0.00072 0.42053
 C167 C 0.10637 0.00073 0.29547
 C168 C 0.05869 0.00071 0.27458
 H169 H 0.10969 0.00082 0.38250
 H170 H 0.20903 -0.09796 0.38703
 H171 H 0.20911 0.09952 0.38672
 H172 H 0.21788 0.09946 0.30438
 H173 H 0.21780 -0.09805 0.30470
 H174 H 0.31745 0.00067 0.30898
   
