data_POSCAR
  _audit_creation_date              2014-09-24
  _audit_creation_method            'ToBaCCo'
  _symmetry_space_group_name_H-M    'P1'
  _symmetry_Int_Tables_number       1
  _symmetry_cell_setting            triclinic
  loop_
  _symmetry_equiv_pos_as_xyz
 x,y,z
_cell_length_a 30.0547
_cell_length_b 28.7624
_cell_length_c 20.6618
_cell_angle_alpha 90.159500
_cell_angle_beta 89.942000
_cell_angle_gamma 89.759200
loop_
  _atom_site_label
  _atom_site_type_symbol
  _atom_site_fract_x
  _atom_site_fract_y
  _atom_site_fract_z
O1 O 0.18552 0.20738 0.25824
 O2 O 0.25629 0.29191 0.34330
 O3 O 0.18934 0.29778 0.26306
 O4 O 0.25282 0.20288 0.33810
 O5 O 0.29775 0.20087 0.25473
 O6 O 0.23616 0.29817 0.18079
 O7 O 0.30341 0.29067 0.26126
 O8 O 0.23162 0.20780 0.17510
 Cu9 Cu 0.21613 0.25006 0.30872
 Cu10 Cu 0.27183 0.24955 0.20955
 C11 C 0.19618 0.19360 0.20183
 C12 C 0.29274 0.30434 0.31771
 C13 C 0.20199 0.31444 0.20931
 C14 C 0.28646 0.18545 0.31003
 O15 O 0.80553 0.29231 0.24323
 O16 O 0.73603 0.20709 0.32834
 O17 O 0.80187 0.20227 0.24499
 O18 O 0.73932 0.29665 0.32504
 O19 O 0.69188 0.29727 0.24359
 O20 O 0.75349 0.20187 0.16532
 O21 O 0.68839 0.20771 0.24792
 O22 O 0.75810 0.29264 0.16189
 Cu23 Cu 0.77556 0.24940 0.29341
 Cu24 Cu 0.71832 0.24993 0.19640
 C25 C 0.79409 0.30655 0.18754
 C26 C 0.69948 0.19381 0.30407
 C27 C 0.78883 0.18630 0.19082
 C28 C 0.70463 0.31282 0.29802
 O29 O 0.74448 0.79773 0.66058
 O30 O 0.80645 0.70364 0.74179
 O31 O 0.73986 0.70779 0.66224
 O32 O 0.81215 0.79305 0.74218
 O33 O 0.76179 0.80380 0.81853
 O34 O 0.69567 0.70875 0.74771
 O35 O 0.76364 0.71216 0.82800
 O36 O 0.69531 0.79769 0.74029
 Cu37 Cu 0.78053 0.75041 0.69341
 Cu38 Cu 0.72477 0.75569 0.79253
 C39 C 0.70841 0.81235 0.68570
 C40 C 0.79602 0.69246 0.79920
 C41 C 0.70523 0.69389 0.69139
 C42 C 0.79889 0.81399 0.79291
 O43 O 0.30633 0.79598 0.74659
 O44 O 0.23683 0.71251 0.83529
 O45 O 0.30451 0.70721 0.75420
 O46 O 0.24024 0.80429 0.82559
 O47 O 0.18920 0.79418 0.75029
 O48 O 0.26006 0.70755 0.66914
 O49 O 0.19388 0.70473 0.74926
 O50 O 0.25661 0.79753 0.66778
 Cu51 Cu 0.27630 0.75498 0.79935
 Cu52 Cu 0.22010 0.75104 0.70087
 C53 C 0.29312 0.81106 0.69225
 C54 C 0.20426 0.69342 0.80662
 C55 C 0.29455 0.69270 0.69791
 C56 C 0.20300 0.81501 0.80066
 C57 C 1.01603 0.11917 0.11206
 C58 C 0.97035 0.11731 0.11183
 C59 C 0.95915 0.07405 0.08717
 N60 N 0.99618 0.04942 0.07270
 C61 C 1.03092 0.07706 0.08725
 C62 C 0.91562 0.05658 0.08127
 C63 C 0.90674 0.01459 0.04881
 C64 C 0.86886 -0.01207 0.05628
 C65 C 0.87088 -0.04642 0.00959
 C66 C 0.90919 -0.03848 -0.02634
 N67 N 0.93119 -0.00184 -0.00108
 C68 C 0.92075 -0.06026 -0.08561
 C69 C 0.96481 -0.05768 -0.10932
 C70 C 0.97879 -0.06935 -0.17125
 C71 C 1.02456 -0.06808 -0.17049
 C72 C 1.03679 -0.05548 -0.10821
 N73 N 1.00028 -0.04896 -0.07123
 C74 C 1.08052 -0.05594 -0.08310
 C75 C 1.09052 -0.03172 -0.02507
 C76 C 1.12899 -0.03649 0.01158
 C77 C 1.12827 -0.00135 0.05726
 C78 C 1.08865 0.02252 0.04871
 N79 N 1.06588 0.00384 -0.00119
 C80 C 1.07579 0.06327 0.08179
 H81 H 1.03594 0.14803 0.12891
 H82 H 0.94802 0.14449 0.12836
 H83 H 1.03799 0.01867 -0.02301
 H84 H 0.84222 -0.00666 0.09081
 H85 H 0.84591 -0.07273 0.00116
 H86 H 0.95823 -0.07886 -0.21213
 H87 H 1.04637 -0.07653 -0.21058
 H88 H 1.15399 0.00598 0.09242
 H89 H 0.95770 0.01548 -0.02270
 H90 H 1.15561 -0.06145 0.00468
 C91 C 0.52182 0.60462 0.64566
 C92 C 0.47626 0.60384 0.64679
 C93 C 0.46318 0.57030 0.60247
 N94 N 0.49929 0.55087 0.57406
 C95 C 0.53522 0.57159 0.60061
 C96 C 0.41847 0.56108 0.58558
 C97 C 0.40501 0.52534 0.54268
 C98 C 0.36214 0.52026 0.51891
 C99 C 0.36240 0.48151 0.47979
 C100 C 0.40545 0.46400 0.48046
 N101 N 0.43099 0.49045 0.51978
 C102 C 0.41941 0.42353 0.44698
 C103 C 0.46441 0.41048 0.43803
 C104 C 0.47835 0.36975 0.40806
 C105 C 0.52388 0.37145 0.40522
 C106 C 0.53633 0.41308 0.43375
 N107 N 0.49991 0.43702 0.45330
 C108 C 0.58056 0.42936 0.43741
 C109 C 0.59363 0.46978 0.47140
 C110 C 0.63551 0.48962 0.46738
 C111 C 0.63544 0.52734 0.50831
 C112 C 0.59343 0.52973 0.53608
 N113 N 0.56844 0.49400 0.51416
 C114 C 0.57982 0.56407 0.58123
 H115 H 0.54261 0.62769 0.67381
 H116 H 0.45521 0.62614 0.67605
 H117 H 0.53758 0.48425 0.53174
 H118 H 0.33355 0.54219 0.52867
 H119 H 0.33409 0.46790 0.45368
 H120 H 0.45785 0.34194 0.38936
 H121 H 0.54534 0.34521 0.38397
 H122 H 0.66319 0.55050 0.51632
 H123 H 0.46301 0.48260 0.53481
 H124 H 0.66331 0.47816 0.43797
 C125 C 0.02292 0.60966 -0.13310
 C126 C -0.02269 0.60919 -0.13448
 C127 C -0.03625 0.57908 -0.08610
 N128 N -0.00043 0.56162 -0.05481
 C129 C 0.03582 0.57988 -0.08385
 C130 C -0.08113 0.57000 -0.06997
 C131 C -0.09465 0.53615 -0.02453
 C132 C -0.13774 0.53126 -0.00150
 C133 C -0.13780 0.49291 0.03817
 C134 C -0.09474 0.47542 0.03837
 N135 N -0.06881 0.50172 -0.00041
 C136 C -0.08128 0.43443 0.07067
 C137 C -0.03638 0.42117 0.07997
 C138 C -0.02273 0.37968 0.10778
 C139 C 0.02282 0.38105 0.11081
 C140 C 0.03557 0.42322 0.08447
 N141 N -0.00069 0.44786 0.06628
 C142 C 0.07996 0.43907 0.08081
 C143 C 0.09307 0.47992 0.04807
 C144 C 0.13510 0.49946 0.05179
 C145 C 0.13527 0.53694 0.01055
 C146 C 0.09327 0.53943 -0.01700
 N147 N 0.06796 0.50427 0.00563
 C148 C 0.08038 0.57198 -0.06468
 H149 H 0.04414 0.62993 -0.16450
 H150 H -0.04349 0.62897 -0.16721
 H151 H 0.03728 0.49434 -0.01246
 H152 H -0.16636 0.55272 -0.01275
 H153 H -0.16642 0.47917 0.06343
 H154 H -0.04342 0.35147 0.12461
 H155 H 0.04410 0.35411 0.13042
 H156 H 0.16328 0.55955 0.00158
 H157 H -0.03688 0.49339 -0.01555
 H158 H 0.16295 0.48766 0.08066
 C159 C 0.51721 1.12850 0.40716
 C160 C 0.47150 1.12723 0.40737
 C161 C 0.45977 1.08227 0.42406
 N162 N 0.49654 1.05615 0.43394
 C163 C 0.53165 1.08432 0.42397
 C164 C 0.41604 1.06467 0.42554
 C165 C 0.40642 1.02030 0.45077
 C166 C 0.36757 0.99568 0.43987
 C167 C 0.36875 0.95775 0.48040
 C168 C 0.40817 0.96058 0.51501
 N169 N 0.43108 0.99849 0.49615
 C170 C 0.41994 0.93220 0.56801
 C171 C 0.46436 0.92893 0.58997
 C172 C 0.47819 0.90704 0.64618
 C173 C 0.52393 0.90805 0.64582
 C174 C 0.53637 0.93064 0.58949
 N175 N 0.49994 0.94327 0.55552
 C176 C 0.58049 0.93587 0.56699
 C177 C 0.59106 0.96599 0.51528
 C178 C 0.63096 0.96617 0.48142
 C179 C 0.62997 1.00452 0.44159
 C180 C 0.58928 1.02620 0.45174
 N181 N 0.56580 1.00250 0.49651
 C182 C 0.57639 1.06940 0.42543
 H183 H 0.53746 1.15836 0.39552
 H184 H 0.44950 1.15593 0.39596
 H185 H 0.53699 1.01427 0.51939
 H186 H 0.34057 1.00499 0.40773
 H187 H 0.34280 0.93204 0.48561
 H188 H 0.45756 0.89149 0.68315
 H189 H 0.54554 0.89345 0.68244
 H190 H 0.65650 1.01580 0.40994
 H191 H 0.45852 1.01248 0.51986
 H192 H 0.65851 0.94211 0.48649
 C193 C 1.12082 0.09122 0.17434
 C194 C 1.14885 0.12360 0.20331
 C195 C 1.16710 0.16027 0.16747
 C196 C 1.15664 0.16427 0.10060
 C197 C 1.12882 0.13064 0.07100
 C198 C 1.11047 0.09436 0.10856
 C199 C 1.11892 0.13524 0.00477
 N200 N 1.13511 0.17174 -0.02907
 N201 N 1.16019 0.20407 -0.00106
 C202 C 1.17124 0.20182 0.06247
 H203 H 1.10634 0.06402 0.20367
 H204 H 1.15623 0.12008 0.25439
 H205 H 1.09830 0.11030 -0.02034
 H206 H 1.19052 0.22998 0.08230
 C207 C 0.63209 0.58958 0.66705
 C208 C 0.66197 0.62116 0.69372
 C209 C 0.67511 0.66069 0.65922
 C210 C 0.65745 0.66868 0.59643
 C211 C 0.62646 0.63686 0.56988
 C212 C 0.61387 0.59713 0.60566
 C213 C 0.60839 0.64623 0.50848
 N214 N 0.62073 0.68495 0.47595
 N215 N 0.64968 0.71497 0.50082
 C216 C 0.66833 0.70829 0.55982
 H217 H 0.62237 0.55945 0.69497
 H218 H 0.67498 0.61472 0.74177
 H219 H 0.58450 0.62324 0.48610
 H220 H 0.69097 0.73441 0.57742
 C221 C -0.12708 0.40626 0.16229
 C222 C -0.15677 0.37511 0.19012
 C223 C -0.17670 0.33986 0.15317
 C224 C -0.16634 0.33636 0.08607
 C225 C -0.13633 0.36850 0.05780
 C226 C -0.11632 0.40319 0.09658
 C227 C -0.12620 0.36410 -0.00841
 N228 N -0.14450 0.32934 -0.04372
 N229 N -0.17196 0.29861 -0.01717
 C230 C -0.18328 0.30075 0.04632
 H231 H -0.11168 0.43250 0.19248
 H232 H -0.16399 0.37835 0.24133
 H233 H -0.10374 0.38780 -0.03236
 H234 H -0.20485 0.27417 0.06475
 C235 C 0.39140 0.85454 0.59935
 C236 C 0.36078 0.82540 0.62901
 C237 C 0.32184 0.84339 0.65662
 C238 C 0.31363 0.89179 0.65471
 C239 C 0.34603 0.92190 0.62787
 C240 C 0.38512 0.90288 0.59918
 C241 C 0.33843 0.97014 0.63194
 N242 N 0.30003 0.98658 0.65807
 N243 N 0.26895 0.95815 0.68099
 C244 C 0.27446 0.91133 0.68025
 H245 H 0.42083 0.83931 0.57744
 H246 H 0.36772 0.78844 0.63084
 H247 H 0.36264 0.99498 0.61497
 H248 H 0.24818 0.88981 0.69945
 C249 C -0.12945 0.64009 -0.07441
 C250 C -0.15963 0.66927 -0.10568
 C251 C -0.17689 0.65741 -0.16650
 C252 C -0.16527 0.61402 -0.19473
 C253 C -0.13464 0.58432 -0.16277
 C254 C -0.11612 0.59803 -0.10277
 C255 C -0.12324 0.54180 -0.19225
 N256 N -0.14203 0.52967 -0.24947
 N257 N -0.17138 0.55715 -0.27901
 C258 C -0.18373 0.59879 -0.25363
 H259 H -0.11555 0.65084 -0.02841
 H260 H -0.16818 0.70228 -0.08341
 H261 H -0.09981 0.51802 -0.17017
 H262 H -0.20829 0.61917 -0.27928
 C263 C 0.38097 1.10407 0.33229
 C264 C 0.34914 1.13267 0.30436
 C265 C 0.31294 1.15065 0.34024
 C266 C 0.30794 1.13559 0.40622
 C267 C 0.34269 1.10911 0.43554
 C268 C 0.37919 1.09322 0.39794
 C269 C 0.34018 1.09963 0.50228
 N270 N 0.30373 1.11237 0.53651
 N271 N 0.26969 1.13403 0.50858
 C272 C 0.27028 1.14575 0.44510
 H273 H 0.40824 1.09140 0.30266
 H274 H 0.35379 1.14141 0.25383
 H275 H 0.36675 1.08210 0.52772
 H276 H 0.24033 1.16118 0.42665
 C277 C 1.10191 -0.13267 -0.12956
 C278 C 1.13105 -0.16336 -0.15974
 C279 C 1.17560 -0.15144 -0.17017
 C280 C 1.19011 -0.10592 -0.15351
 C281 C 1.15867 -0.07276 -0.12986
 C282 C 1.11456 -0.08692 -0.11480
 C283 C 1.17223 -0.02619 -0.12387
 N284 N 1.21504 -0.01439 -0.13599
 N285 N 1.24500 -0.04578 -0.15500
 C286 C 1.23404 -0.09097 -0.16440
 H287 H 1.06873 -0.14479 -0.11827
 H288 H 1.11916 -0.19788 -0.17177
 H289 H 1.14918 0.00104 -0.11016
 H290 H 1.25967 -0.11429 -0.18167
 C291 C 0.63933 0.36881 0.43235
 C292 C 0.66989 0.34138 0.39877
 C293 C 0.67714 0.34783 0.33230
 C294 C 0.65486 0.38467 0.29998
 C295 C 0.62333 0.41218 0.33413
 C296 C 0.61514 0.40345 0.40044
 C297 C 0.60095 0.44778 0.30072
 N298 N 0.61045 0.45585 0.23760
 N299 N 0.64083 0.43081 0.20585
 C300 C 0.66346 0.39569 0.23483
 H301 H 0.63348 0.36211 0.48322
 H302 H 0.68658 0.31351 0.42440
 H303 H 0.57629 0.46948 0.32432
 H304 H 0.68851 0.37752 0.20692
 C305 C 0.90064 -0.13505 -0.13875
 C306 C 0.87149 -0.16487 -0.17008
 C307 C 0.82662 -0.15287 -0.17829
 C308 C 0.81189 -0.10782 -0.15893
 C309 C 0.84325 -0.07538 -0.13418
 C310 C 0.88754 -0.08999 -0.12059
 C311 C 0.82937 -0.02900 -0.12519
 N312 N 0.78638 -0.01685 -0.13563
 N313 N 0.75649 -0.04767 -0.15573
 C314 C 0.76772 -0.09255 -0.16793
 H315 H 0.93399 -0.14747 -0.12866
 H316 H 0.88356 -0.19900 -0.18425
 H317 H 0.85233 -0.00218 -0.11043
 H318 H 0.74209 -0.11528 -0.18597
 C319 C 0.37232 0.40171 0.35331
 C320 C 0.34216 0.37266 0.32210
 C321 C 0.32359 0.33449 0.35418
 C322 C 0.33624 0.32512 0.41917
 C323 C 0.36653 0.35516 0.45104
 C324 C 0.38478 0.39341 0.41749
 C325 C 0.37854 0.34527 0.51531
 N326 N 0.36195 0.30715 0.54509
 N327 N 0.33441 0.27823 0.51482
 C328 C 0.32118 0.28570 0.45296
 H329 H 0.38648 0.43065 0.32704
 H330 H 0.33325 0.38003 0.27236
 H331 H 0.40115 0.36733 0.54198
 H332 H 0.29969 0.26024 0.43090
 C333 C 0.12800 0.64227 -0.06857
 C334 C 0.15848 0.67120 -0.09930
 C335 C 0.17699 0.65873 -0.15919
 C336 C 0.16636 0.61505 -0.18700
 C337 C 0.13549 0.58558 -0.15557
 C338 C 0.11569 0.59985 -0.09656
 C339 C 0.12514 0.54271 -0.18461
 N340 N 0.14508 0.53010 -0.24092
 N341 N 0.17460 0.55744 -0.27000
 C342 C 0.18600 0.59938 -0.24499
 H343 H 0.11309 0.65345 -0.02335
 H344 H 0.16627 0.70448 -0.07745
 H345 H 0.10161 0.51903 -0.16289
 H346 H 0.21071 0.61967 -0.27022
 C347 C 0.61050 1.10718 0.33050
 C348 C 0.63957 1.13825 0.30168
 C349 C 0.67087 1.16351 0.33825
 C350 C 0.67116 1.15753 0.40727
 C351 C 0.64144 1.12509 0.43614
 C352 C 0.61093 1.10021 0.39723
 C353 C 0.64177 1.11982 0.50386
 N354 N 0.66925 1.14597 0.54066
 N355 N 0.69587 1.17756 0.51448
 C356 C 0.69743 1.18468 0.44969
 H357 H 0.58695 1.08864 0.30039
 H358 H 0.63781 1.14176 0.24953
 H359 H 0.62006 1.09561 0.52816
 H360 H 0.71809 1.21278 0.43365
 C361 C 0.13776 0.37734 0.08014
 C362 C 0.16762 0.34772 0.11116
 C363 C 0.17523 0.35140 0.17798
 C364 C 0.15426 0.38786 0.21331
 C365 C 0.12342 0.41758 0.18173
 C366 C 0.11466 0.41152 0.11498
 C367 C 0.10225 0.45264 0.21810
 N368 N 0.11228 0.45819 0.28159
 N369 N 0.14207 0.43114 0.31096
 C370 C 0.16351 0.39636 0.27906
 H371 H 0.13146 0.37260 0.02893
 H372 H 0.18345 0.32038 0.08315
 H373 H 0.07816 0.47594 0.19651
 H374 H 0.18817 0.37651 0.30521
 C375 C 0.61066 0.85773 0.59304
 C376 C 0.64149 0.82797 0.62141
 C377 C 0.67995 0.84540 0.65051
 C378 C 0.68748 0.89388 0.65125
 C379 C 0.65479 0.92454 0.62583
 C380 C 0.61614 0.90610 0.59578
 C381 C 0.66162 0.97266 0.63274
 N382 N 0.69966 0.98859 0.66008
 N383 N 0.73108 0.95972 0.68153
 C384 C 0.72627 0.91293 0.67807
 H385 H 0.58152 0.84291 0.57019
 H386 H 0.63491 0.79099 0.62147
 H387 H 0.63711 0.99778 0.61697
 H388 H 0.75280 0.89100 0.69604
 C389 C 0.87190 0.08889 0.17259
 C390 C 0.84149 0.12050 0.19823
 C391 C 0.81584 0.14951 0.15811
 C392 C 0.81987 0.14448 0.08944
 C393 C 0.85131 0.11223 0.06365
 C394 C 0.87790 0.08511 0.10581
 C395 C 0.85641 0.10919 -0.00401
 N396 N 0.83131 0.13614 -0.04334
 N397 N 0.80173 0.16617 -0.01966
 C398 C 0.79525 0.17142 0.04488
 H399 H 0.89220 0.06838 0.20520
 H400 H 0.83886 0.12309 0.25042
 H401 H 0.88019 0.08582 -0.02623
 H402 H 0.77086 0.19670 0.05928
 C403 C 0.36629 0.58678 0.67195
 C404 C 0.33697 0.61897 0.69928
 C405 C 0.32407 0.65886 0.66517
 C406 C 0.34121 0.66646 0.60196
 C407 C 0.37132 0.63382 0.57452
 C408 C 0.38400 0.59395 0.61013
 C409 C 0.38863 0.64260 0.51247
 N410 N 0.37663 0.68170 0.48037
 N411 N 0.34874 0.71265 0.50624
 C412 C 0.33077 0.70652 0.56582
 H413 H 0.37613 0.55657 0.69977
 H414 H 0.32434 0.61280 0.74763
 H415 H 0.41166 0.61884 0.48926
 H416 H 0.30907 0.73343 0.58426
   
