data_POSCAR
  _audit_creation_date              2014-09-24
  _audit_creation_method            'ToBaCCo'
  _symmetry_space_group_name_H-M    'P1'
  _symmetry_Int_Tables_number       1
  _symmetry_cell_setting            triclinic
  loop_
  _symmetry_equiv_pos_as_xyz
 x,y,z
_cell_length_a 18.4723
_cell_length_b 17.7932
_cell_length_c 20.2412
_cell_angle_alpha 90.319400
_cell_angle_beta 88.804000
_cell_angle_gamma 90.402300
loop_
  _atom_site_label
  _atom_site_type_symbol
  _atom_site_fract_x
  _atom_site_fract_y
  _atom_site_fract_z
C1 C 1.25650 0.25053 0.24698
 C2 C 0.74787 -0.25388 0.25422
 C3 C 0.76027 0.23511 -0.25351
 C4 C 1.25248 -0.26878 -0.24285
 C5 C 0.23529 0.26536 0.75150
 C6 C 0.75675 0.77172 0.74144
 C7 C 0.73319 0.25084 0.25393
 C8 C 0.24172 0.76414 0.24022
 O9 O 1.13885 0.07117 0.05418
 O10 O 0.84102 -0.07365 0.02486
 O11 O 0.92192 0.14068 0.07619
 O12 O 1.05334 -0.14897 0.03065
 O13 O 0.87121 0.03432 0.09039
 O14 O 1.11706 -0.05946 0.07160
 O15 O 0.93003 -0.12840 0.06489
 O16 O 1.04322 0.11106 0.10298
 C17 C 1.10822 0.09545 0.10548
 C18 C 0.86429 -0.11767 0.06627
 C19 C 0.88726 0.09656 0.11294
 C20 C 1.09468 -0.12524 0.07387
 O21 O 1.12540 -0.08646 -0.05734
 O22 O 0.86457 0.11702 -0.02197
 O23 O 1.08662 0.14608 -0.02274
 O24 O 0.89946 -0.11213 -0.06911
 O25 O 0.86989 0.00176 -0.08611
 O26 O 1.12101 0.05173 -0.07935
 O27 O 1.02189 -0.11293 -0.09425
 O28 O 0.96663 0.15044 -0.05504
 Co29 Co 1.11222 -0.00393 -0.00286
 Co30 Co 0.87455 0.01891 0.00203
 Co31 Co 1.00285 0.12581 0.02331
 Co32 Co 0.97727 -0.11306 -0.01453
 O33 O 0.99222 0.00663 0.00223
 C34 C 1.08776 -0.12114 -0.09791
 C35 C 0.90213 0.14584 -0.06623
 C36 C 1.10824 0.12035 -0.07701
 C37 C 0.87611 -0.06332 -0.10707
 O38 O 1.13823 0.50586 0.57080
 O39 O 0.88197 0.45481 0.58301
 O40 O 0.98081 0.61437 0.59620
 O41 O 1.05092 0.35700 0.55004
 O42 O 0.87786 0.59394 0.55855
 O43 O 1.14085 0.39466 0.49850
 O44 O 0.92748 0.36048 0.52976
 O45 O 1.10073 0.61969 0.56470
 C46 C 1.13561 0.57021 0.59437
 C47 C 0.88929 0.38522 0.57600
 C48 C 0.91479 0.61210 0.60642
 C49 C 1.11731 0.36139 0.54738
 O50 O 1.12055 0.48005 0.39453
 O51 O 0.87744 0.56235 0.43010
 O52 O 1.06145 0.63903 0.42928
 O53 O 0.94637 0.39098 0.40013
 O54 O 0.85776 0.43158 0.45768
 O55 O 1.15230 0.58800 0.46523
 O56 O 1.07064 0.37229 0.41012
 O57 O 0.93974 0.65448 0.46805
 Co58 Co 1.12534 0.49310 0.48337
 Co59 Co 0.88764 0.51031 0.50638
 Co60 Co 1.01973 0.62049 0.51224
 Co61 Co 1.00051 0.38204 0.47470
 O62 O 1.00777 0.50169 0.49414
 C63 C 1.10423 0.41695 0.37312
 C64 C 0.89954 0.62791 0.42411
 C65 C 1.12655 0.62527 0.42111
 C66 C 0.88061 0.40325 0.40560
 O67 O 0.61808 0.08178 0.56025
 O68 O 0.33189 -0.08230 0.52759
 O69 O 0.40252 0.13615 0.57261
 O70 O 0.54712 -0.14879 0.54092
 O71 O 0.35372 0.03061 0.59274
 O72 O 0.59542 -0.05086 0.58651
 O73 O 0.42032 -0.13938 0.56582
 O74 O 0.51873 0.10962 0.60384
 C75 C 0.58380 0.10294 0.61033
 C76 C 0.35600 -0.12199 0.57156
 C77 C 0.37085 0.09359 0.61252
 C78 C 0.58744 -0.12036 0.58411
 O79 O 0.61533 -0.08469 0.46076
 O80 O 0.34414 0.10846 0.47639
 O81 O 0.56795 0.14525 0.47333
 O82 O 0.39368 -0.12164 0.43115
 O83 O 0.35438 -0.00844 0.41805
 O84 O 0.60560 0.04480 0.42929
 O85 O 0.52232 -0.11841 0.40937
 O86 O 0.44779 0.14204 0.44230
 Co87 Co 0.59578 -0.00080 0.50876
 Co88 Co 0.35928 0.01185 0.50458
 Co89 Co 0.48405 0.12152 0.52157
 Co90 Co 0.47118 -0.11972 0.48859
 O91 O 0.47751 0.00265 0.50535
 C92 C 0.58875 -0.10917 0.40936
 C93 C 0.38196 0.14575 0.43697
 C94 C 0.59357 0.11233 0.42335
 C95 C 0.35724 -0.07480 0.39922
 O96 O 0.64932 0.56305 0.05963
 O97 O 0.39766 0.44907 0.08798
 O98 O 0.44887 0.67213 0.03327
 O99 O 0.56328 0.35718 0.05324
 O100 O 0.41127 0.58082 0.08900
 O101 O 0.65251 0.43206 0.02289
 O102 O 0.42967 0.35621 0.02779
 O103 O 0.54883 0.60893 0.09107
 C104 C 0.61123 0.59180 0.10474
 C105 C 0.40625 0.38038 0.08103
 C106 C 0.41093 0.64984 0.08032
 C107 C 0.62725 0.38005 0.05922
 O108 O 0.62136 0.47844 -0.10130
 O109 O 0.38427 0.58742 -0.04601
 O110 O 0.58131 0.69578 -0.01141
 O111 O 0.45216 0.38083 -0.09316
 O112 O 0.36742 0.45003 -0.04415
 O113 O 0.62321 0.60308 -0.07077
 O114 O 0.58907 0.36796 -0.07341
 O115 O 0.49148 0.62653 -0.07802
 Co116 Co 0.62550 0.51795 -0.01979
 Co117 Co 0.39955 0.51613 0.01971
 Co118 Co 0.52413 0.61358 0.00507
 Co119 Co 0.50934 0.37859 -0.01947
 O120 O 0.51067 0.50188 -0.00187
 C121 C 0.62457 0.41027 -0.11055
 C122 C 0.42459 0.62326 -0.08675
 C123 C 0.62469 0.67271 -0.05887
 C124 C 0.38847 0.40649 -0.09068
 C125 C 1.21499 0.18030 0.22624
 C126 C 1.23898 0.10710 0.23289
 C127 C 1.19780 0.06466 0.19174
 C128 C 1.15116 0.11420 0.16334
 O129 O 1.16190 0.18417 0.18323
 H130 H 1.28556 0.08748 0.25903
 H131 H 1.20461 0.00571 0.17994
 C132 C 1.23505 0.66056 0.71752
 C133 C 1.26559 0.59000 0.72332
 C134 C 1.23016 0.54535 0.67943
 C135 C 1.18120 0.59158 0.64979
 O136 O 1.18418 0.66108 0.67241
 H137 H 1.30861 0.57237 0.75494
 H138 H 1.24007 0.48671 0.66921
 C139 C 0.69457 0.18612 0.72986
 C140 C 0.64606 0.15262 0.77373
 C141 C 0.59628 0.11640 0.73500
 C142 C 0.61930 0.12909 0.67069
 O143 O 0.67741 0.17158 0.66780
 H144 H 0.64651 0.15509 0.82714
 H145 H 0.54951 0.08416 0.75154
 C146 C 0.70027 0.67761 0.23728
 C147 C 0.63967 0.65285 0.27237
 C148 C 0.60036 0.61123 0.22846
 C149 C 0.64038 0.61130 0.17020
 O150 O 0.70111 0.64989 0.17594
 H151 H 0.62262 0.66810 0.32202
 H152 H 0.54648 0.58833 0.23650
 C153 C 0.76352 -0.21602 0.18760
 C154 C 0.70746 -0.19072 0.14926
 C155 C 0.73912 -0.15377 0.09839
 C156 C 0.81237 -0.15812 0.10885
 O157 O 0.82799 -0.19624 0.16279
 H158 H 0.64986 -0.19695 0.15893
 H159 H 0.71192 -0.12486 0.05917
 C160 C 0.79457 0.26148 0.68138
 C161 C 0.81160 0.21274 0.62997
 C162 C 0.84483 0.25498 0.58398
 C163 C 0.84771 0.32676 0.61030
 O164 O 0.81650 0.33154 0.66913
 H165 H 0.80354 0.15244 0.62765
 H166 H 0.86749 0.23487 0.53744
 C167 C 0.26374 -0.20678 0.70600
 C168 C 0.21513 -0.14981 0.69355
 C169 C 0.24395 -0.11127 0.64167
 C170 C 0.30781 -0.14704 0.62565
 O171 O 0.31965 -0.20562 0.66360
 H172 H 0.16373 -0.13837 0.71797
 H173 H 0.22100 -0.06274 0.61813
 C174 C 0.31385 0.26715 0.19458
 C175 C 0.36607 0.21604 0.17444
 C176 C 0.40988 0.25381 0.13153
 C177 C 0.38230 0.32546 0.12967
 O178 O 0.32490 0.33421 0.16828
 H179 H 0.37197 0.15829 0.18958
 H180 H 0.45565 0.23153 0.10369
 C181 C 0.81585 0.19156 -0.21427
 C182 C 0.88149 0.16532 -0.23977
 C183 C 0.92020 0.14450 -0.18732
 C184 C 0.87674 0.15915 -0.13311
 O185 O 0.81302 0.18685 -0.14863
 H186 H 0.90177 0.16370 -0.29005
 H187 H 0.97430 0.12155 -0.18836
 C188 C 0.81550 0.72210 0.29144
 C189 C 0.87812 0.76521 0.29555
 C190 C 0.91735 0.73487 0.34481
 C191 C 0.87677 0.67528 0.36817
 O192 O 0.81480 0.66734 0.33629
 H193 H 0.89225 0.81579 0.26881
 H194 H 0.96888 0.75487 0.36266
 C195 C 0.29792 0.24365 0.31092
 C196 C 0.34105 0.30140 0.33466
 C197 C 0.37628 0.27232 0.38657
 C198 C 0.35108 0.19970 0.39184
 O199 O 0.30330 0.18182 0.34651
 H200 H 0.34832 0.35704 0.31409
 H201 H 0.41706 0.29983 0.41597
 C202 C 0.32007 0.72051 -0.20184
 C203 C 0.38452 0.76029 -0.20954
 C204 C 0.43209 0.72673 -0.16927
 C205 C 0.39364 0.67000 -0.13844
 O206 O 0.32538 0.66671 -0.15695
 H207 H 0.39664 0.80796 -0.24079
 H208 H 0.48796 0.74276 -0.16212
 C209 C 1.18848 -0.24889 -0.19695
 C210 C 1.12234 -0.28633 -0.19565
 C211 C 1.07661 -0.24197 -0.16002
 C212 C 1.11762 -0.18129 -0.14037
 O213 O 1.18579 -0.18543 -0.16181
 H214 H 1.10758 -0.33827 -0.22004
 H215 H 1.01981 -0.25269 -0.14952
 C216 C 1.20259 0.31375 0.25770
 C217 C 1.18742 0.37353 0.21635
 C218 C 1.14695 0.42234 0.25395
 C219 C 1.13819 0.38701 0.31373
 O220 O 1.17045 0.32164 0.31584
 H221 H 1.20467 0.38230 0.16563
 H222 H 1.12690 0.47682 0.23983
 C223 C 0.71091 -0.19174 0.29562
 C224 C 0.74139 -0.12059 0.30092
 C225 C 0.69485 -0.07983 0.33841
 C226 C 0.63858 -0.12786 0.35428
 O227 O 0.64792 -0.19629 0.32870
 H228 H 0.79204 -0.10059 0.27956
 H229 H 0.70306 -0.02268 0.35531
 C230 C 0.73886 0.30373 -0.21321
 C231 C 0.78634 0.36170 -0.19854
 C232 C 0.74694 0.41231 -0.16338
 C233 C 0.67930 0.38015 -0.15609
 O234 O 0.67400 0.31406 -0.18576
 H235 H 0.84328 0.36619 -0.21175
 H236 H 0.76658 0.46436 -0.14239
 C237 C 1.17087 0.23199 -0.21081
 C238 C 1.10845 0.27116 -0.19577
 C239 C 1.07612 0.23327 -0.14491
 C240 C 1.11931 0.17180 -0.13361
 O241 O 1.17705 0.17125 -0.17314
 H242 H 1.09166 0.32451 -0.21543
 H243 H 1.02846 0.25112 -0.11747
 C244 C 1.22588 0.70364 0.28598
 C245 C 1.27038 0.64362 0.29914
 C246 C 1.23638 0.60581 0.34881
 C247 C 1.17363 0.64482 0.36356
 O248 O 1.16708 0.70451 0.32575
 H249 H 1.32284 0.63020 0.27770
 H250 H 1.25672 0.55650 0.37282
 C251 C 0.66692 0.21191 0.28555
 C252 C 0.62034 0.16488 0.25215
 C253 C 0.58362 0.12511 0.29999
 C254 C 0.60975 0.15046 0.35951
 O255 O 0.66075 0.20241 0.35091
 H256 H 0.61791 0.15609 0.19930
 H257 H 0.54534 0.07971 0.29236
 C258 C 0.70209 0.76103 -0.20061
 C259 C 0.65765 0.81874 -0.17797
 C260 C 0.62724 0.79510 -0.11991
 C261 C 0.65360 0.72401 -0.11070
 O262 O 0.69913 0.70283 -0.15949
 H263 H 0.65063 0.87333 -0.20019
 H264 H 0.58844 0.82513 -0.08910
 C265 C 0.80063 -0.15915 -0.23910
 C266 C 0.79399 -0.08710 -0.26458
 C267 C 0.82452 -0.04016 -0.21941
 C268 C 0.84795 -0.08670 -0.17048
 O269 O 0.83410 -0.15799 -0.18229
 H270 H 0.76443 -0.06964 -0.30737
 H271 H 0.82512 0.02048 -0.22004
 C272 C 0.75992 0.30958 0.30208
 C273 C 0.71735 0.37002 0.32044
 C274 C 0.76032 0.41506 0.35660
 C275 C 0.82622 0.37927 0.35828
 O276 O 0.82664 0.31483 0.32508
 H277 H 0.66165 0.38016 0.30769
 H278 H 0.74476 0.46681 0.38126
 C279 C 0.25432 -0.17077 0.28180
 C280 C 0.21186 -0.10684 0.28793
 C281 C 0.24759 -0.06073 0.33012
 C282 C 0.30816 -0.09990 0.34782
 O283 O 0.31203 -0.16664 0.31962
 H284 H 0.16054 -0.09511 0.26553
 H285 H 0.22996 -0.00636 0.34822
 C286 C 0.26846 0.32672 -0.20531
 C287 C 0.23544 0.39560 -0.19544
 C288 C 0.27827 0.43437 -0.15384
 C289 C 0.33500 0.38728 -0.14101
 O290 O 0.32976 0.32160 -0.17226
 H291 H 0.18567 0.41531 -0.21632
 H292 H 0.26865 0.49013 -0.13398
 C293 C 1.18189 -0.22548 0.19660
 C294 C 1.12790 -0.27786 0.18302
 C295 C 1.08727 -0.24607 0.13575
 C296 C 1.11945 -0.17742 0.12341
 O297 O 1.17704 -0.16507 0.15908
 H298 H 1.11990 -0.33329 0.20380
 H299 H 1.04036 -0.27035 0.11233
 C300 C 1.21721 0.30265 0.68568
 C301 C 1.27201 0.33431 0.64725
 C302 C 1.24110 0.35510 0.59081
 C303 C 1.16858 0.33778 0.59840
 O304 O 1.15320 0.30522 0.65627
 H305 H 1.32884 0.33910 0.65877
 H306 H 1.26850 0.38139 0.54919
 C307 C 0.71819 -0.21108 0.67706
 C308 C 0.75436 -0.20596 0.61641
 C309 C 0.70583 -0.17979 0.57363
 C310 C 0.64439 -0.16653 0.61099
 O311 O 0.65147 -0.18393 0.67405
 H312 H 0.81120 -0.21490 0.60530
 H313 H 0.71623 -0.16513 0.52247
 C314 C 0.72029 0.29499 0.19020
 C315 C 0.77629 0.33599 0.16089
 C316 C 0.74828 0.36938 0.10793
 C317 C 0.67656 0.34799 0.10785
 O318 O 0.65855 0.30271 0.15804
 H319 H 0.83154 0.34121 0.17725
 H320 H 0.77658 0.40675 0.07401
 C321 C 0.79005 0.19119 0.23743
 C322 C 0.80205 0.12601 0.27269
 C323 C 0.84294 0.08120 0.23145
 C324 C 0.85441 0.12307 0.17512
 O325 O 0.82283 0.18884 0.17870
 H326 H 0.77910 0.11060 0.32037
 H327 H 0.85986 0.02408 0.24026
 C328 C 0.80900 0.70491 0.72946
 C329 C 0.86776 0.68818 0.76825
 C330 C 0.91449 0.64760 0.72862
 C331 C 0.88056 0.64001 0.66898
 O332 O 0.81625 0.67224 0.67032
 H333 H 0.87897 0.70918 0.81723
 H334 H 0.96856 0.62977 0.74050
 C335 C 0.28756 0.20220 0.73429
 C336 C 0.32508 0.15682 0.77699
 C337 C 0.36039 0.10555 0.73714
 C338 C 0.34148 0.12419 0.67387
 O339 O 0.29810 0.18169 0.67221
 H340 H 0.32622 0.16051 0.83033
 H341 H 0.39688 0.06178 0.75209
 C342 C 0.30523 0.75226 0.19726
 C343 C 0.34973 0.81002 0.17352
 C344 C 0.39510 0.77829 0.12811
 C345 C 0.37555 0.70367 0.12589
 O346 O 0.32036 0.68755 0.16660
 H347 H 0.34766 0.86919 0.18610
 H348 H 0.43679 0.80654 0.09901
   
