data_POSCAR
  _audit_creation_date              2014-09-24
  _audit_creation_method            'ToBaCCo'
  _symmetry_space_group_name_H-M    'P1'
  _symmetry_Int_Tables_number       1
  _symmetry_cell_setting            triclinic
  loop_
  _symmetry_equiv_pos_as_xyz
 x,y,z
_cell_length_a 20.3614
_cell_length_b 20.3609
_cell_length_c 20.3451
_cell_angle_alpha 89.937900
_cell_angle_beta 90.182900
_cell_angle_gamma 90.000000
loop_
  _atom_site_label
  _atom_site_type_symbol
  _atom_site_fract_x
  _atom_site_fract_y
  _atom_site_fract_z
O1 O -0.16939 0.08866 0.00171
 O2 O 0.16819 0.08876 -0.00258
 O3 O -0.00284 0.16863 0.08827
 O4 O 0.00144 0.16897 -0.08961
 O5 O 0.00134 0.08915 -0.16963
 O6 O -0.00273 0.08854 0.16842
 O7 O 0.08821 0.16881 -0.00275
 O8 O -0.08931 0.16866 0.00177
 Zr9 Zr -0.00059 0.11534 -0.00064
 O10 O 0.05893 0.05968 -0.06020
 O11 O -0.06003 0.05932 0.05892
 C12 C -0.15009 0.14944 0.00296
 C13 C 0.14901 0.14959 -0.00372
 C14 C -0.00390 0.14936 0.14914
 C15 C 0.00243 0.15012 -0.15065
 H16 H 0.08683 0.08718 0.08702
 O17 O 0.05872 0.05917 0.05895
 H18 H -0.08819 0.08736 -0.08812
 O19 O -0.06012 0.05929 -0.06000
 O20 O 0.16804 -0.08875 0.00213
 O21 O -0.16966 -0.08912 -0.00287
 O22 O 0.08842 -0.00275 0.16849
 O23 O 0.08806 0.00226 -0.16940
 O24 O -0.08972 -0.00226 -0.16955
 O25 O -0.08911 0.00219 0.16835
 O26 O 0.00158 -0.16919 0.08886
 O27 O -0.00333 -0.16876 -0.08906
 O28 O 0.00177 -0.08927 0.16877
 O29 O -0.00331 -0.08868 -0.16925
 O30 O 0.16823 -0.00252 0.08844
 O31 O -0.16931 0.00224 0.08817
 O32 O -0.16954 -0.00252 -0.08969
 O33 O 0.16811 0.00213 -0.08909
 O34 O 0.08807 -0.16886 0.00227
 O35 O -0.08977 -0.16908 -0.00258
 Zr36 Zr 0.11467 -0.00004 -0.00039
 Zr37 Zr -0.11610 -0.00021 -0.00067
 Zr38 Zr -0.00048 -0.00031 0.11507
 Zr39 Zr -0.00081 0.00014 -0.11604
 Zr40 Zr -0.00083 -0.11560 -0.00020
 O41 O -0.06029 -0.05962 -0.06015
 O42 O 0.05900 -0.05976 0.05928
 C43 C 0.14885 -0.14953 0.00339
 C44 C -0.15074 -0.15011 -0.00374
 C45 C 0.14914 -0.00383 0.14924
 C46 C 0.14892 0.00323 -0.15001
 C47 C -0.15061 -0.00353 -0.15062
 C48 C -0.14992 0.00338 0.14904
 C49 C 0.00273 -0.15028 0.14989
 C50 C -0.00448 -0.14946 -0.14990
 H51 H -0.08801 -0.08761 0.08701
 O52 O -0.06003 -0.05957 0.05897
 H53 H 0.08641 -0.08737 -0.08763
 O54 O 0.05839 -0.05936 -0.05964
 O55 O 0.33128 0.58928 0.00248
 O56 O 0.66908 0.58966 -0.00169
 O57 O 0.49800 0.66951 0.08958
 O58 O 0.50254 0.66925 -0.08828
 O59 O 0.50230 0.58921 -0.16832
 O60 O 0.49812 0.58952 0.16959
 O61 O 0.58903 0.66967 -0.00168
 O62 O 0.41128 0.66936 0.00275
 Zr63 Zr 0.50017 0.61607 0.00063
 O64 O 0.55946 0.56016 -0.05902
 O65 O 0.44058 0.56015 0.05999
 C66 C 0.35050 0.65005 0.00373
 C67 C 0.64989 0.65052 -0.00283
 C68 C 0.49702 0.65051 0.15061
 C69 C 0.50366 0.64993 -0.14905
 H70 H 0.58772 0.58806 0.08814
 O71 O 0.55964 0.56002 0.06006
 H72 H 0.41263 0.58799 -0.08709
 O73 O 0.44071 0.55996 -0.05896
 O74 O 0.66881 0.41183 0.00312
 O75 O 0.33114 0.41176 -0.00213
 O76 O 0.58931 0.49822 0.16960
 O77 O 0.58854 0.50288 -0.16841
 O78 O 0.41074 0.49847 -0.16876
 O79 O 0.41148 0.50294 0.16929
 O80 O 0.50254 0.33184 0.08921
 O81 O 0.49768 0.33172 -0.08833
 O82 O 0.50277 0.41173 0.16938
 O83 O 0.49749 0.41169 -0.16853
 O84 O 0.66910 0.49828 0.08969
 O85 O 0.33137 0.50286 0.08900
 O86 O 0.33095 0.49848 -0.08889
 O87 O 0.66876 0.50307 -0.08823
 O88 O 0.58869 0.33188 0.00297
 O89 O 0.41118 0.33177 -0.00192
 Zr90 Zr 0.61557 0.50074 0.00068
 Zr91 Zr 0.38462 0.50057 0.00019
 Zr92 Zr 0.50031 0.50067 0.11606
 Zr93 Zr 0.49978 0.50052 -0.11505
 Zr94 Zr 0.49998 0.38527 0.00044
 O95 O 0.44020 0.44093 -0.05937
 O96 O 0.55970 0.44113 0.06016
 C97 C 0.64948 0.35106 0.00418
 C98 C 0.35036 0.35095 -0.00316
 C99 C 0.65023 0.49712 0.15066
 C100 C 0.64940 0.50409 -0.14912
 C101 C 0.34978 0.49746 -0.14990
 C102 C 0.35065 0.50401 0.14990
 C103 C 0.50384 0.35097 0.15003
 C104 C 0.49652 0.35087 -0.14923
 H105 H 0.41285 0.41327 0.08777
 O106 O 0.44085 0.44134 0.05977
 H107 H 0.58727 0.41333 -0.08678
 O108 O 0.55931 0.44137 -0.05876
 O109 O -0.16914 0.58920 0.50201
 O110 O 0.16858 0.58876 0.49792
 O111 O -0.00263 0.66883 0.58854
 O112 O 0.00186 0.66926 0.41069
 O113 O 0.00178 0.58927 0.33066
 O114 O -0.00243 0.58878 0.66876
 O115 O 0.08860 0.66886 0.49752
 O116 O -0.08921 0.66913 0.50193
 Zr117 Zr -0.00030 0.61561 0.49972
 O118 O 0.05930 0.55972 0.44043
 O119 O -0.05959 0.55964 0.55946
 C120 C -0.15018 0.65018 0.50304
 C121 C 0.14938 0.64954 0.49657
 C122 C -0.00374 0.64955 0.64937
 C123 C 0.00287 0.65014 0.34977
 H124 H 0.08719 0.58743 0.58747
 O125 O 0.05911 0.55940 0.55940
 H126 H -0.08782 0.58768 0.41223
 O127 O -0.05974 0.55960 0.44033
 O128 O 0.16871 0.41123 0.50266
 O129 O -0.16893 0.41138 0.49739
 O130 O 0.08907 0.49788 0.66939
 O131 O 0.08848 0.50268 0.33121
 O132 O -0.08940 0.49790 0.33081
 O133 O -0.08874 0.50233 0.66892
 O134 O 0.00209 0.33101 0.58911
 O135 O -0.00262 0.33140 0.41124
 O136 O 0.00224 0.41090 0.66924
 O137 O -0.00278 0.41145 0.33105
 O138 O 0.16895 0.49795 0.58940
 O139 O -0.16890 0.50258 0.58868
 O140 O -0.16927 0.49791 0.41083
 O141 O 0.16855 0.50247 0.41155
 O142 O 0.08869 0.33122 0.50253
 O143 O -0.08885 0.33139 0.49757
 Zr144 Zr 0.11524 0.50005 0.50033
 Zr145 Zr -0.11566 0.50027 0.49981
 Zr146 Zr 0.00005 0.49992 0.61565
 Zr147 Zr -0.00039 0.50032 0.38436
 Zr148 Zr -0.00011 0.38471 0.50016
 O149 O -0.05978 0.44071 0.44037
 O150 O 0.05962 0.44036 0.55996
 C151 C 0.14951 0.35042 0.50369
 C152 C -0.14963 0.35060 0.49631
 C153 C 0.14991 0.49691 0.65030
 C154 C 0.14930 0.50373 0.35064
 C155 C -0.15019 0.49678 0.34998
 C156 C -0.14959 0.50361 0.64958
 C157 C 0.00318 0.35005 0.65004
 C158 C -0.00386 0.35064 0.35036
 H159 H -0.08743 0.41276 0.58735
 O160 O -0.05943 0.44081 0.55933
 H161 H 0.08702 0.41288 0.41280
 O162 O 0.05901 0.44090 0.44077
 O163 O 0.33166 0.08824 0.50205
 O164 O 0.66927 0.08821 0.49777
 O165 O 0.49831 0.16833 0.58880
 O166 O 0.50274 0.16822 0.41128
 O167 O 0.50267 0.08831 0.33114
 O168 O 0.49840 0.08834 0.66899
 O169 O 0.58915 0.16817 0.49767
 O170 O 0.41166 0.16826 0.50215
 Zr171 Zr 0.50045 0.11478 0.50004
 O172 O 0.55994 0.05890 0.44054
 O173 O 0.44092 0.05908 0.55961
 C174 C 0.35085 0.14905 0.50321
 C175 C 0.64994 0.14898 0.49654
 C176 C 0.49724 0.14916 0.64969
 C177 C 0.50387 0.14907 0.35047
 H178 H 0.58803 0.08678 0.58753
 O179 O 0.55999 0.05872 0.55944
 H180 H 0.41302 0.08681 0.41241
 O181 O 0.44112 0.05874 0.44050
 O182 O 0.66961 -0.08958 0.50251
 O183 O 0.33182 -0.08927 0.49748
 O184 O 0.58953 -0.00285 0.66911
 O185 O 0.58897 0.00191 0.33114
 O186 O 0.41148 -0.00297 0.33100
 O187 O 0.41177 0.00166 0.66885
 O188 O 0.50324 -0.16922 0.58883
 O189 O 0.49823 -0.16956 0.41095
 O190 O 0.50318 -0.08915 0.66884
 O191 O 0.49805 -0.08946 0.33086
 O192 O 0.66948 -0.00303 0.58918
 O193 O 0.33171 0.00160 0.58856
 O194 O 0.33165 -0.00291 0.41103
 O195 O 0.66919 0.00188 0.41131
 O196 O 0.58960 -0.16962 0.50234
 O197 O 0.41180 -0.16936 0.49750
 Zr198 Zr 0.61603 -0.00069 0.50017
 Zr199 Zr 0.38517 -0.00055 0.49987
 Zr200 Zr 0.50065 -0.00048 0.61551
 Zr201 Zr 0.50036 -0.00063 0.38447
 Zr202 Zr 0.50069 -0.11608 0.49988
 O203 O 0.44089 -0.06017 0.44031
 O204 O 0.56017 -0.06015 0.55971
 C205 C 0.65046 -0.15045 0.50352
 C206 C 0.35102 -0.15005 0.49634
 C207 C 0.65031 -0.00407 0.64999
 C208 C 0.64979 0.00311 0.35044
 C209 C 0.35076 -0.00409 0.35024
 C210 C 0.35091 0.00272 0.64947
 C211 C 0.50440 -0.14988 0.64960
 C212 C 0.49703 -0.15034 0.35004
 H213 H 0.41341 -0.08794 0.58726
 O214 O 0.44143 -0.05993 0.55923
 H215 H 0.58789 -0.08798 0.41261
 O216 O 0.55991 -0.05997 0.44063
 C217 C 0.26746 0.18397 -0.00512
 C218 C 0.20054 0.20110 -0.00510
 C219 C 0.18341 0.26802 -0.00564
 C220 C 0.23193 0.31655 -0.00549
 C221 C 0.29885 0.29942 -0.00479
 C222 C 0.31598 0.23250 -0.00496
 H223 H 0.28255 0.13297 -0.00486
 H224 H 0.13241 0.28311 -0.00581
 H225 H 0.21683 0.36755 -0.00555
 H226 H 0.36698 0.21741 -0.00460
 C227 C 0.26778 -0.31658 0.49465
 C228 C 0.20094 -0.29917 0.49493
 C229 C 0.18396 -0.23225 0.49436
 C230 C 0.23261 -0.18393 0.49429
 C231 C 0.29945 -0.20134 0.49478
 C232 C 0.31644 -0.26826 0.49458
 H233 H 0.28272 -0.36763 0.49489
 H234 H 0.13300 -0.21700 0.49437
 H235 H 0.21767 -0.13288 0.49425
 H236 H 0.36739 -0.28351 0.49478
 C237 C 0.81705 0.73365 -0.00509
 C238 C 0.80022 0.80087 -0.00497
 C239 C 0.73300 0.81770 -0.00541
 C240 C 0.68447 0.76908 -0.00516
 C241 C 0.70151 0.70216 -0.00451
 C242 C 0.76843 0.68512 -0.00484
 H243 H 0.86792 0.71809 -0.00497
 H244 H 0.71745 0.86858 -0.00556
 H245 H 0.63347 0.78415 -0.00513
 H246 H 0.78351 0.63412 -0.00455
 C247 C 0.81646 0.23220 0.49447
 C248 C 0.79907 0.29904 0.49469
 C249 C 0.73215 0.31604 0.49420
 C250 C 0.68382 0.26739 0.49428
 C251 C 0.70122 0.20055 0.49485
 C252 C 0.76814 0.18355 0.49455
 H253 H 0.86751 0.21725 0.49466
 H254 H 0.71691 0.36700 0.49418
 H255 H 0.63278 0.28233 0.49430
 H256 H 0.78338 0.13260 0.49479
 C257 C 0.81602 0.26783 0.00556
 C258 C 0.79862 0.20098 0.00485
 C259 C 0.73170 0.18399 0.00530
 C260 C 0.68338 0.23264 0.00567
 C261 C 0.70078 0.29948 0.00559
 C262 C 0.76770 0.31647 0.00593
 H263 H 0.86706 0.28278 0.00544
 H264 H 0.71646 0.13303 0.00496
 H265 H 0.63233 0.21769 0.00558
 H266 H 0.78294 0.36743 0.00604
 C267 C 0.81764 -0.23358 0.50501
 C268 C 0.80080 -0.30079 0.50454
 C269 C 0.73359 -0.31763 0.50504
 C270 C 0.68506 -0.26901 0.50521
 C271 C 0.70209 -0.20208 0.50493
 C272 C 0.76902 -0.18505 0.50519
 H273 H 0.86851 -0.21802 0.50488
 H274 H 0.71803 -0.36850 0.50493
 H275 H 0.63406 -0.28408 0.50519
 H276 H 0.78409 -0.13404 0.50515
 C277 C 0.18389 0.23197 0.50530
 C278 C 0.20103 0.29889 0.50511
 C279 C 0.26795 0.31601 0.50545
 C280 C 0.31647 0.26748 0.50530
 C281 C 0.29934 0.20057 0.50479
 C282 C 0.23242 0.18344 0.50515
 H283 H 0.13289 0.21688 0.50519
 H284 H 0.28304 0.36701 0.50546
 H285 H 0.36747 0.28258 0.50521
 H286 H 0.21732 0.13244 0.50495
 C287 C 0.18345 0.73225 0.00541
 C288 C 0.20043 0.79918 0.00509
 C289 C 0.26727 0.81659 0.00561
 C290 C 0.31592 0.76827 0.00569
 C291 C 0.29894 0.70135 0.00525
 C292 C 0.23210 0.68394 0.00549
 H293 H 0.13249 0.71701 0.00520
 H294 H 0.28221 0.86764 0.00556
 H295 H 0.36688 0.78352 0.00570
 H296 H 0.21716 0.63289 0.00534
 C297 C -0.00594 0.26776 0.18340
 C298 C -0.00545 0.20085 0.20063
 C299 C -0.00571 0.18370 0.26761
 C300 C -0.00571 0.23222 0.31611
 C301 C -0.00545 0.29913 0.29888
 C302 C -0.00594 0.31628 0.23190
 H303 H -0.00593 0.28286 0.13234
 H304 H -0.00552 0.13270 0.28276
 H305 H -0.00552 0.21712 0.36717
 H306 H -0.00593 0.36728 0.21674
 C307 C 0.49476 0.31628 0.73229
 C308 C 0.49516 0.29926 0.79931
 C309 C 0.49510 0.23235 0.81661
 C310 C 0.49532 0.18374 0.76816
 C311 C 0.49561 0.20076 0.70115
 C312 C 0.49498 0.26766 0.68385
 H313 H 0.49465 0.36726 0.71706
 H314 H 0.49527 0.21733 0.86769
 H315 H 0.49563 0.13276 0.78340
 H316 H 0.49501 0.28269 0.63277
 C317 C -0.00645 0.81632 0.73179
 C318 C -0.00602 0.79913 0.79874
 C319 C -0.00618 0.73227 0.81608
 C320 C -0.00595 0.68377 0.76765
 C321 C -0.00556 0.70096 0.70071
 C322 C -0.00622 0.76782 0.68337
 H323 H -0.00652 0.86731 0.71661
 H324 H -0.00604 0.71719 0.86714
 H325 H -0.00566 0.63278 0.78284
 H326 H -0.00615 0.78289 0.63230
 C327 C 0.49514 -0.23329 0.18277
 C328 C 0.49563 -0.30051 0.19965
 C329 C 0.49530 -0.31741 0.26691
 C330 C 0.49527 -0.26884 0.31546
 C331 C 0.49553 -0.20191 0.29839
 C332 C 0.49510 -0.18481 0.23141
 H333 H 0.49515 -0.21769 0.13185
 H334 H 0.49544 -0.36831 0.28249
 H335 H 0.49541 -0.28396 0.36651
 H336 H 0.49511 -0.13378 0.21632
 C337 C 0.00463 0.81744 0.26632
 C338 C 0.00413 0.80065 0.19905
 C339 C 0.00443 0.73342 0.18230
 C340 C 0.00448 0.68486 0.23102
 C341 C 0.00426 0.70184 0.29801
 C342 C 0.00468 0.76878 0.31496
 H343 H 0.00463 0.86831 0.28184
 H344 H 0.00427 0.71787 0.13139
 H345 H 0.00434 0.63385 0.21599
 H346 H 0.00469 0.78385 0.36599
 C347 C 0.50623 -0.23200 0.81657
 C348 C 0.50554 -0.29885 0.79948
 C349 C 0.50593 -0.31627 0.73263
 C350 C 0.50616 -0.26796 0.68401
 C351 C 0.50601 -0.20110 0.70109
 C352 C 0.50646 -0.18368 0.76794
 H353 H 0.50617 -0.21681 0.86756
 H354 H 0.50563 -0.36730 0.71768
 H355 H 0.50601 -0.28315 0.63301
 H356 H 0.50655 -0.13265 0.78289
 C357 C 0.50606 0.31623 0.26831
 C358 C 0.50551 0.29934 0.20133
 C359 C 0.50575 0.23253 0.18387
 C360 C 0.50574 0.18380 0.23220
 C361 C 0.50550 0.20069 0.29917
 C362 C 0.50606 0.26751 0.31663
 H363 H 0.50609 0.36716 0.28359
 H364 H 0.50552 0.21767 0.13278
 H365 H 0.50550 0.13287 0.21692
 H366 H 0.50608 0.28237 0.36773
 C367 C 0.00447 0.26646 0.81726
 C368 C 0.00389 0.19927 0.80033
 C369 C 0.00430 0.18262 0.73304
 C370 C 0.00455 0.23138 0.68454
 C371 C 0.00443 0.29828 0.70166
 C372 C 0.00471 0.31512 0.76867
 H373 H 0.00439 0.28189 0.86820
 H374 H 0.00409 0.13178 0.71740
 H375 H 0.00448 0.21643 0.63347
 H376 H 0.00478 0.36609 0.78382
 C377 C 0.18373 -0.00609 0.26758
 C378 C 0.20071 -0.00555 0.20066
 C379 C 0.26752 -0.00587 0.18340
 C380 C 0.31617 -0.00594 0.23188
 C381 C 0.29919 -0.00569 0.29881
 C382 C 0.23238 -0.00616 0.31606
 H383 H 0.13279 -0.00605 0.28270
 H384 H 0.28244 -0.00566 0.13235
 H385 H 0.36712 -0.00577 0.21676
 H386 H 0.21747 -0.00616 0.36711
 C387 C 0.31731 0.49560 0.73371
 C388 C 0.30064 0.49606 0.80096
 C389 C 0.23345 0.49560 0.81773
 C390 C 0.18481 0.49542 0.76902
 C391 C 0.20168 0.49566 0.70205
 C392 C 0.26858 0.49542 0.68508
 H393 H 0.36816 0.49573 0.71820
 H394 H 0.21800 0.49571 0.86863
 H395 H 0.13383 0.49543 0.78405
 H396 H 0.28353 0.49544 0.63405
 C397 C 0.81728 -0.00554 0.73318
 C398 C 0.80042 -0.00514 0.80035
 C399 C 0.73330 -0.00581 0.81718
 C400 C 0.68478 -0.00599 0.76849
 C401 C 0.70184 -0.00555 0.70162
 C402 C 0.76868 -0.00573 0.68459
 H403 H 0.86814 -0.00531 0.71770
 H404 H 0.71780 -0.00579 0.86806
 H405 H 0.63379 -0.00608 0.78347
 H406 H 0.78369 -0.00559 0.63357
 C407 C -0.31742 0.49506 0.26691
 C408 C -0.30070 0.49555 0.19969
 C409 C -0.23356 0.49507 0.18281
 C410 C -0.18495 0.49495 0.23145
 C411 C -0.20186 0.49527 0.29838
 C412 C -0.26871 0.49494 0.31545
 H413 H -0.36825 0.49516 0.28245
 H414 H -0.21814 0.49518 0.13191
 H415 H -0.13398 0.49501 0.21639
 H416 H -0.28364 0.49498 0.36650
 C417 C 0.18366 0.00490 0.73158
 C418 C 0.20058 0.00456 0.79865
 C419 C 0.26749 0.00474 0.81616
 C420 C 0.31618 0.00459 0.76787
 C421 C 0.29926 0.00426 0.70080
 C422 C 0.23235 0.00476 0.68330
 H423 H 0.13269 0.00492 0.71619
 H424 H 0.28246 0.00463 0.86728
 H425 H 0.36715 0.00438 0.78326
 H426 H 0.21738 0.00468 0.63217
 C427 C 0.31627 0.50583 0.26829
 C428 C 0.29915 0.50551 0.20127
 C429 C 0.23224 0.50585 0.18388
 C430 C 0.18370 0.50577 0.23226
 C431 C 0.20082 0.50536 0.29928
 C432 C 0.26773 0.50576 0.31667
 H433 H 0.36727 0.50575 0.28357
 H434 H 0.21716 0.50578 0.13279
 H435 H 0.13270 0.50565 0.21697
 H436 H 0.28280 0.50563 0.36777
 C437 C 0.81627 0.00533 0.26748
 C438 C 0.79882 0.00499 0.20054
 C439 C 0.73187 0.00536 0.18340
 C440 C 0.68359 0.00529 0.23199
 C441 C 0.70104 0.00484 0.29893
 C442 C 0.76799 0.00526 0.31607
 H443 H 0.86733 0.00524 0.28255
 H444 H 0.71658 0.00528 0.13237
 H445 H 0.63253 0.00516 0.21693
 H446 H 0.78328 0.00511 0.36710
 C447 C -0.31642 0.50591 0.73236
 C448 C -0.29917 0.50555 0.79936
 C449 C -0.23222 0.50578 0.81658
 C450 C -0.18378 0.50564 0.76807
 C451 C -0.20103 0.50527 0.70107
 C452 C -0.26798 0.50578 0.68385
 H453 H -0.36745 0.50592 0.71719
 H454 H -0.21702 0.50566 0.86764
 H455 H -0.13275 0.50543 0.78325
 H456 H -0.28317 0.50569 0.63279
   
