data_POSCAR
  _audit_creation_date              2014-09-24
  _audit_creation_method            'ToBaCCo'
  _symmetry_space_group_name_H-M    'P1'
  _symmetry_Int_Tables_number       1
  _symmetry_cell_setting            triclinic
  loop_
  _symmetry_equiv_pos_as_xyz
 x,y,z
_cell_length_a 36.1039
_cell_length_b 36.0134
_cell_length_c 35.9824
_cell_angle_alpha 102.477300
_cell_angle_beta 80.930500
_cell_angle_gamma 75.360400
loop_
  _atom_site_label
  _atom_site_type_symbol
  _atom_site_fract_x
  _atom_site_fract_y
  _atom_site_fract_z
O1 O 0.52350 0.52095 0.02617
 O2 O 0.42269 0.52760 0.01516
 O3 O 0.48089 0.47189 0.02342
 O4 O 0.46686 0.57488 0.01718
 O5 O 0.48573 0.55338 -0.04715
 O6 O 0.50386 0.44999 -0.04039
 O7 O 0.44418 0.50325 -0.04855
 O8 O 0.54492 0.49962 -0.03795
 Cu9 Cu 0.47114 0.52586 0.02691
 Cu10 Cu 0.49668 0.49943 -0.04997
 C11 C 0.55127 0.50989 -0.00402
 C12 C 0.41604 0.51622 -0.01845
 C13 C 0.49528 0.44326 -0.00738
 C14 C 0.47430 0.58163 -0.01596
 O15 O -0.02010 0.54800 0.50299
 O16 O -0.02221 0.44512 0.49490
 O17 O -0.01578 0.50207 0.54911
 O18 O -0.02594 0.49146 0.44744
 O19 O 0.03862 0.46905 0.42696
 O20 O 0.04874 0.48006 0.52866
 O21 O 0.04227 0.42341 0.47334
 O22 O 0.04423 0.52688 0.48173
 Cu23 Cu -0.02749 0.49873 0.50050
 Cu24 Cu 0.04997 0.47283 0.47571
 C25 C 0.01229 0.55530 0.49397
 C26 C 0.00964 0.41674 0.48281
 C27 C 0.01820 0.49285 0.55628
 C28 C 0.00463 0.47831 0.41986
 O29 O 0.50123 0.01515 0.56257
 O30 O 0.50744 0.02071 0.46093
 O31 O 0.45668 0.00951 0.51366
 O32 O 0.55360 0.02631 0.50958
 O33 O 0.58205 -0.03872 0.48930
 O34 O 0.48538 -0.05539 0.49289
 O35 O 0.53656 -0.04406 0.44015
 O36 O 0.53187 -0.04929 0.54179
 Cu37 Cu 0.50202 0.02449 0.51378
 Cu38 Cu 0.53673 -0.05340 0.48888
 C39 C 0.51562 -0.01795 0.56968
 C40 C 0.52275 -0.01081 0.43313
 C41 C 0.45448 -0.02579 0.50392
 C42 C 0.58432 -0.00348 0.49902
 C43 C 0.47069 0.11225 -0.04082
 C44 C 0.46817 0.08291 -0.07075
 C45 C 0.47613 0.04797 -0.05905
 N46 N 0.48439 0.05503 -0.02323
 C47 C 0.48101 0.09434 -0.01201
 C48 C 0.47876 0.00991 -0.08256
 C49 C 0.48362 -0.02442 -0.06835
 C50 C 0.49442 -0.06339 -0.09139
 C51 C 0.49462 -0.08746 -0.06648
 C52 C 0.48287 -0.06261 -0.02881
 N53 N 0.47604 -0.02425 -0.03024
 C54 C 0.47684 -0.07543 0.00560
 C55 C 0.47044 -0.04994 0.04333
 C56 C 0.45682 -0.05837 0.07786
 C57 C 0.45936 -0.02882 0.10765
 C58 C 0.47442 -0.00334 0.09031
 N59 N 0.48107 -0.01622 0.05102
 C60 C 0.48527 0.02900 0.11044
 C61 C 0.49415 0.05801 0.09268
 C62 C 0.51220 0.08562 0.10802
 C63 C 0.51339 0.10964 0.08316
 C64 C 0.49617 0.09591 0.05327
 N65 N 0.48439 0.06455 0.05937
 C66 C 0.48968 0.11381 0.02268
 H67 H 0.46604 0.14316 -0.04070
 H68 H 0.46175 0.08714 -0.09815
 H69 H 0.46678 0.05136 0.04411
 H70 H 0.50132 -0.07384 -0.12289
 H71 H 0.50210 -0.11961 -0.07532
 H72 H 0.44671 -0.08357 0.08118
 H73 H 0.45160 -0.02667 0.13851
 H74 H 0.52547 0.13447 0.08673
 H75 H 0.46305 0.00079 -0.00674
 H76 H 0.52318 0.08835 0.13448
 C77 C -0.06496 0.49090 0.89816
 C78 C -0.09268 0.48384 0.92410
 C79 C -0.08271 0.49158 0.96007
 N80 N -0.05019 0.50388 0.95698
 C81 C -0.03924 0.50342 0.91914
 C82 C -0.10525 0.49019 0.99541
 C83 C -0.09269 0.49460 1.03108
 C84 C -0.11614 0.49862 1.06706
 C85 C -0.09292 0.50044 1.09379
 C86 C -0.05576 0.49738 1.07357
 N87 N -0.05577 0.49317 1.03526
 C88 C -0.02263 0.49605 1.09037
 C89 C 0.01391 0.49736 1.07042
 C90 C 0.04810 0.49108 1.08428
 C91 C 0.07596 0.49718 1.05769
 C92 C 0.05779 0.50798 1.02882
 N93 N 0.01988 0.50804 1.03667
 C94 C 0.07548 0.52025 0.99749
 C95 C 0.05732 0.52753 0.96661
 C96 C 0.06907 0.54779 0.94048
 C97 C 0.04553 0.54675 0.91397
 C98 C 0.01996 0.52595 0.92465
 N99 N 0.02745 0.51419 0.95667
 C100 C -0.00806 0.51683 0.90374
 H101 H -0.06427 0.48774 0.86744
 H102 H -0.11754 0.47453 0.91709
 H103 H 0.01592 0.49443 0.96832
 H104 H -0.14669 0.49952 1.07353
 H105 H -0.10237 0.50294 1.12453
 H106 H 0.05273 0.48317 1.11087
 H107 H 0.10603 0.49450 1.05982
 H108 H 0.04710 0.55980 0.88956
 H109 H -0.03118 0.48571 1.01277
 H110 H 0.09225 0.56186 0.94045
 C111 C 0.11806 -0.08534 0.52781
 C112 C 0.09648 -0.11179 0.52323
 C113 C 0.06596 -0.09536 0.50714
 N114 N 0.06824 -0.06000 0.50159
 C115 C 0.09990 -0.05370 0.51437
 C116 C 0.03736 -0.11330 0.49629
 C117 C 0.00376 -0.09219 0.48569
 C118 C -0.02035 -0.10969 0.46621
 C119 C -0.05252 -0.07937 0.46662
 C120 C -0.04704 -0.04419 0.48608
 N121 N -0.01247 -0.05217 0.49721
 C122 C -0.07565 -0.00650 0.49712
 C123 C -0.06544 0.02931 0.50502
 C124 C -0.09158 0.06741 0.51799
 C125 C -0.06932 0.09329 0.51910
 C126 C -0.03033 0.07012 0.50785
 N127 N -0.02811 0.03112 0.49878
 C128 C 0.00252 0.08471 0.50386
 C129 C 0.04151 0.06051 0.49926
 C130 C 0.07504 0.07188 0.48988
 C131 C 0.10631 0.04205 0.49204
 C132 C 0.09119 0.01334 0.50312
 N133 N 0.05172 0.02474 0.50736
 C134 C 0.11350 -0.02060 0.51218
 H135 H 0.14406 -0.08896 0.53972
 H136 H 0.10251 -0.13975 0.53102
 H137 H 0.03257 0.01137 0.51997
 H138 H -0.01581 -0.14115 0.45405
 H139 H -0.07763 -0.08284 0.45486
 H140 H -0.12332 0.07587 0.52554
 H141 H -0.08073 0.12543 0.52743
 H142 H 0.13668 0.04200 0.48688
 H143 H -0.00366 -0.03215 0.51674
 H144 H 0.07704 0.09926 0.48318
 C145 C -0.36656 0.54247 1.03231
 C146 C -0.33255 0.51312 1.00772
 C147 C -0.33787 0.48090 0.98069
 C148 C -0.37577 0.48019 0.97651
 C149 C -0.40894 0.51009 1.00047
 C150 C -0.40405 0.54066 1.02885
 C151 C -0.30536 0.44960 0.95805
 C152 C -0.26758 0.44922 0.96192
 C153 C -0.26067 0.48118 0.98751
 C154 C -0.29359 0.51448 1.00936
 C155 C -0.28646 0.54864 1.03095
 C156 C -0.24850 0.55011 1.03156
 C157 C -0.21624 0.51716 1.01204
 C158 C -0.22182 0.48168 0.99085
 C159 C -0.18821 0.44815 0.97410
 C160 C -0.15066 0.45061 0.97674
 C161 C -0.14538 0.48655 0.99548
 C162 C -0.17827 0.51962 1.01335
 H163 H -0.36519 0.56668 1.05511
 H164 H -0.37955 0.45597 0.95508
 H165 H -0.42942 0.56380 1.04797
 H166 H -0.30919 0.42485 0.93736
 H167 H -0.24408 0.42412 0.94313
 H168 H -0.30969 0.57555 1.04639
 H169 H -0.24440 0.57731 1.04776
 H170 H -0.19006 0.41945 0.95942
 H171 H -0.12546 0.42458 0.96338
 H172 H -0.17414 0.54734 1.02833
 C173 C 0.33231 0.49973 0.93849
 C174 C 0.30015 0.51627 0.97119
 C175 C 0.30733 0.53552 1.00688
 C176 C 0.34564 0.53532 1.01014
 C177 C 0.37756 0.51750 0.97778
 C178 C 0.37015 0.50061 0.94176
 C179 C 0.27631 0.55470 1.03933
 C180 C 0.23810 0.55532 1.03727
 C181 C 0.22950 0.53550 1.00283
 C182 C 0.26124 0.51445 0.96969
 C183 C 0.25329 0.49100 0.93678
 C184 C 0.21573 0.48806 0.93627
 C185 C 0.18432 0.50940 0.96784
 C186 C 0.19042 0.53461 1.00099
 C187 C 0.15703 0.55785 1.03096
 C188 C 0.11979 0.55409 1.02906
 C189 C 0.11459 0.52684 0.99763
 C190 C 0.14684 0.50522 0.96668
 H191 H 0.32913 0.48644 0.90979
 H192 H 0.35042 0.54942 1.03808
 H193 H 0.39382 0.48720 0.91593
 H194 H 0.28159 0.56953 1.06671
 H195 H 0.21603 0.57027 1.06387
 H196 H 0.27592 0.47306 0.91144
 H197 H 0.21124 0.46883 0.91079
 H198 H 0.15860 0.57956 1.05600
 H199 H 0.09492 0.57198 1.05268
 H200 H 0.14273 0.48467 0.94190
 C201 C -0.02272 -0.33405 0.51928
 C202 C 0.01182 -0.32421 0.50676
 C203 C 0.04662 -0.35593 0.48827
 C204 C 0.04697 -0.39574 0.48473
 C205 C 0.01245 -0.40501 0.49780
 C206 C -0.02236 -0.37358 0.51466
 C207 C 0.08079 -0.34778 0.47304
 C208 C 0.08093 -0.30887 0.47468
 C209 C 0.04706 -0.27625 0.49298
 C210 C 0.01262 -0.28402 0.51107
 C211 C -0.01969 -0.25138 0.53346
 C212 C -0.01926 -0.21247 0.53643
 C213 C 0.01288 -0.20443 0.51654
 C214 C 0.04647 -0.23606 0.49423
 C215 C 0.07751 -0.22601 0.47327
 C216 C 0.07489 -0.18633 0.47437
 C217 C 0.04169 -0.15545 0.49679
 C218 C 0.01116 -0.16475 0.51835
 H219 H -0.05087 -0.31196 0.53176
 H220 H 0.07408 -0.41950 0.47098
 H221 H -0.04974 -0.37934 0.52470
 H222 H 0.10760 -0.37183 0.45901
 H223 H 0.10848 -0.30519 0.46216
 H224 H -0.04557 -0.25491 0.54998
 H225 H -0.04479 -0.18837 0.55393
 H226 H 0.10354 -0.24816 0.45463
 H227 H 0.09856 -0.17975 0.45706
 H228 H -0.01464 -0.14085 0.53570
 C229 C 0.03186 0.30536 0.44521
 C230 C 0.00762 0.29611 0.47466
 C231 C -0.01513 0.32769 0.50761
 C232 C -0.01532 0.36711 0.50942
 C233 C 0.00876 0.37558 0.47993
 C234 C 0.03269 0.34444 0.44818
 C235 C -0.03706 0.31971 0.53882
 C236 C -0.03578 0.28081 0.53881
 C237 C -0.01372 0.24840 0.50664
 C238 C 0.00618 0.25650 0.47307
 C239 C 0.02332 0.22492 0.43884
 C240 C 0.02263 0.18636 0.43797
 C241 C 0.00638 0.17743 0.47151
 C242 C -0.01137 0.20815 0.50661
 C243 C -0.02470 0.19705 0.54057
 C244 C -0.02047 0.15716 0.53946
 C245 C -0.00394 0.12728 0.50444
 C246 C 0.00868 0.13768 0.47039
 H247 H 0.05155 0.28285 0.42025
 H248 H -0.03322 0.39114 0.53450
 H249 H 0.05185 0.35045 0.42534
 H250 H -0.05471 0.34373 0.56399
 H251 H -0.05349 0.27711 0.56402
 H252 H 0.03647 0.22939 0.41175
 H253 H 0.03595 0.16306 0.41096
 H254 H -0.03685 0.21829 0.56877
 H255 H -0.02975 0.14946 0.56618
 H256 H 0.02196 0.11440 0.44335
 C257 C 0.53877 -0.05269 -0.34420
 C258 C 0.51230 -0.02200 -0.31280
 C259 C 0.48464 0.00847 -0.32177
 C260 C 0.48676 0.01043 -0.36057
 C261 C 0.51379 -0.01980 -0.39153
 C262 C 0.53879 -0.05201 -0.38287
 C263 C 0.45485 0.03660 -0.29198
 C264 C 0.45152 0.03467 -0.25347
 C265 C 0.47960 0.00605 -0.24302
 C266 C 0.51188 -0.02096 -0.27286
 C267 C 0.54353 -0.04459 -0.26170
 C268 C 0.54352 -0.04185 -0.22254
 C269 C 0.51090 -0.01762 -0.19331
 C270 C 0.47759 0.00494 -0.20338
 C271 C 0.44347 0.02515 -0.17339
 C272 C 0.44347 0.02482 -0.13466
 C273 C 0.47776 0.00585 -0.12444
 C274 C 0.51138 -0.01556 -0.15398
 H275 H 0.55887 -0.07824 -0.33967
 H276 H 0.46618 0.03482 -0.36670
 H277 H 0.55954 -0.07622 -0.40601
 H278 H 0.43343 0.05990 -0.29859
 H279 H 0.42785 0.05746 -0.23200
 H280 H 0.56980 -0.06378 -0.28268
 H281 H 0.56904 -0.05936 -0.21511
 H282 H 0.41615 0.04052 -0.17926
 H283 H 0.41693 0.04066 -0.11228
 H284 H 0.53787 -0.03074 -0.14625
 C285 C 0.54594 -0.04073 0.32253
 C286 C 0.52464 -0.00614 0.31369
 C287 C 0.50274 0.02713 0.34545
 C288 C 0.50298 0.02572 0.38413
 C289 C 0.52405 -0.00887 0.39227
 C290 C 0.54547 -0.04197 0.36111
 C291 C 0.48028 0.06154 0.33857
 C292 C 0.47802 0.06347 0.30084
 C293 C 0.49879 0.03106 0.26816
 C294 C 0.52364 -0.00375 0.27462
 C295 C 0.54676 -0.03493 0.24182
 C296 C 0.54457 -0.03304 0.20411
 C297 C 0.51899 -0.00036 0.19743
 C298 C 0.49564 0.03226 0.22920
 C299 C 0.46950 0.06424 0.22053
 C300 C 0.46663 0.06343 0.18209
 C301 C 0.48973 0.03101 0.15115
 C302 C 0.51626 -0.00048 0.15895
 H303 H 0.56257 -0.06775 0.30046
 H304 H 0.48596 0.05144 0.40802
 H305 H 0.56189 -0.06916 0.36650
 H306 H 0.46373 0.08718 0.36272
 H307 H 0.45997 0.09118 0.29829
 H308 H 0.56740 -0.06125 0.24418
 H309 H 0.56277 -0.05783 0.17987
 H310 H 0.45010 0.08987 0.24273
 H311 H 0.44578 0.08792 0.17650
 H312 H 0.53424 -0.02560 0.13488
 C313 C 0.45117 -0.32225 -0.04610
 C314 C 0.46667 -0.29811 -0.01999
 C315 C 0.48600 -0.31546 0.00627
 C316 C 0.48716 -0.35422 0.00793
 C317 C 0.47130 -0.37737 -0.01772
 C318 C 0.45400 -0.36153 -0.04523
 C319 C 0.50433 -0.29423 0.03061
 C320 C 0.50480 -0.25626 0.02898
 C321 C 0.48552 -0.23736 0.00383
 C322 C 0.46431 -0.25772 -0.01942
 C323 C 0.44050 -0.23658 -0.04020
 C324 C 0.43775 -0.19697 -0.03849
 C325 C 0.46005 -0.17753 -0.01768
 C326 C 0.48549 -0.19806 0.00241
 C327 C 0.51032 -0.17858 0.01994
 C328 C 0.50806 -0.13951 0.01960
 C329 C 0.48067 -0.11823 0.00246
 C330 C 0.45702 -0.13757 -0.01665
 H331 H 0.43777 -0.31201 -0.06823
 H332 H 0.50154 -0.36696 0.02855
 H333 H 0.44217 -0.37940 -0.06572
 H334 H 0.51897 -0.30732 0.05086
 H335 H 0.51916 -0.24168 0.04913
 H336 H 0.42224 -0.24944 -0.05673
 H337 H 0.41829 -0.18155 -0.05403
 H338 H 0.53246 -0.19307 0.03331
 H339 H 0.52746 -0.12546 0.03343
 H340 H 0.43625 -0.12142 -0.03058
 C341 C 0.53141 0.33069 -0.03481
 C342 C 0.51227 0.32153 -0.00202
 C343 C 0.48738 0.35376 0.02929
 C344 C 0.48291 0.39330 0.02791
 C345 C 0.50178 0.40171 -0.00500
 C346 C 0.52602 0.37007 -0.03623
 C347 C 0.46648 0.34641 0.06153
 C348 C 0.46828 0.30774 0.06277
 C349 C 0.49192 0.27463 0.03199
 C350 C 0.51593 0.28159 0.00015
 C351 C 0.54281 0.24843 -0.02841
 C352 C 0.54450 0.20977 -0.02732
 C353 C 0.51903 0.20254 0.00171
 C354 C 0.49234 0.23476 0.03188
 C355 C 0.46619 0.22567 0.05983
 C356 C 0.46615 0.18644 0.05721
 C357 C 0.49231 0.15503 0.02710
 C358 C 0.51942 0.16315 0.00007
 H359 H 0.54977 0.30816 -0.06044
 H360 H 0.46370 0.41759 0.05206
 H361 H 0.54084 0.37573 -0.06208
 H362 H 0.44778 0.37090 0.08578
 H363 H 0.45111 0.30477 0.08869
 H364 H 0.56349 0.25134 -0.05187
 H365 H 0.56536 0.18524 -0.05010
 H366 H 0.44432 0.24821 0.08315
 H367 H 0.44488 0.18061 0.07826
 H368 H 0.53979 0.13873 -0.02322
 C369 C -0.32902 0.03674 0.48277
 C370 C -0.30001 0.01010 0.49466
 C371 C -0.31124 -0.01929 0.51046
 C372 C -0.34886 -0.02353 0.51136
 C373 C -0.37674 0.00236 0.49855
 C374 C -0.36695 0.03306 0.48513
 C375 C -0.28488 -0.04448 0.52518
 C376 C -0.24754 -0.04092 0.52516
 C377 C -0.23454 -0.01281 0.50899
 C378 C -0.26049 0.01176 0.49177
 C379 C -0.24560 0.03593 0.47102
 C380 C -0.20672 0.03620 0.46737
 C381 C -0.18171 0.01393 0.48575
 C382 C -0.19579 -0.00965 0.50812
 C383 C -0.17056 -0.02891 0.52902
 C384 C -0.13233 -0.02664 0.52596
 C385 C -0.11764 -0.00559 0.50175
 C386 C -0.14259 0.01492 0.48184
 H387 H -0.32352 0.06115 0.47230
 H388 H -0.35676 -0.04676 0.52265
 H389 H -0.38841 0.05370 0.47559
 H390 H -0.29331 -0.06707 0.53717
 H391 H -0.22883 -0.06198 0.53652
 H392 H -0.26293 0.05374 0.45576
 H393 H -0.19625 0.05439 0.45030
 H394 H -0.17977 -0.04520 0.54873
 H395 H -0.11380 -0.04188 0.54234
 H396 H -0.13147 0.03150 0.46322
 C397 C 0.37474 -0.07251 0.48206
 C398 C 0.34002 -0.04223 0.50405
 C399 C 0.34434 -0.00753 0.52816
 C400 C 0.38166 -0.00258 0.52810
 C401 C 0.41553 -0.03221 0.50508
 C402 C 0.41179 -0.06749 0.48275
 C403 C 0.31141 0.02237 0.55195
 C404 C 0.27398 0.01894 0.55228
 C405 C 0.26782 -0.01433 0.52795
 C406 C 0.30133 -0.04503 0.50279
 C407 C 0.29499 -0.07670 0.47625
 C408 C 0.25733 -0.07812 0.47390
 C409 C 0.22446 -0.04874 0.49851
 C410 C 0.22915 -0.01710 0.52680
 C411 C 0.19477 0.01069 0.55248
 C412 C 0.15755 0.00850 0.54841
 C413 C 0.15326 -0.02133 0.51883
 C414 C 0.18679 -0.05039 0.49446
 H415 H 0.37439 -0.10054 0.46425
 H416 H 0.38435 0.02451 0.54613
 H417 H 0.43760 -0.09106 0.46506
 H418 H 0.31458 0.04889 0.57052
 H419 H 0.25028 0.04379 0.57105
 H420 H 0.31862 -0.10028 0.45572
 H421 H 0.25392 -0.10246 0.45236
 H422 H 0.19550 0.03444 0.57611
 H423 H 0.13183 0.03076 0.56797
 H424 H 0.18345 -0.07375 0.47173
 C425 C 0.02506 0.43862 1.31030
 C426 C -0.00402 0.46658 1.29998
 C427 C -0.03023 0.49887 1.33041
 C428 C -0.02835 0.50160 1.36958
 C429 C 0.00088 0.47383 1.37907
 C430 C 0.02764 0.44258 1.34918
 C431 C -0.05758 0.52873 1.32153
 C432 C -0.05834 0.52833 1.28296
 C433 C -0.03261 0.49705 1.25167
 C434 C -0.00695 0.46439 1.26045
 C435 C 0.01456 0.43051 1.22950
 C436 C 0.01275 0.42943 1.19102
 C437 C -0.00932 0.46253 1.18172
 C438 C -0.03189 0.49710 1.21184
 C439 C -0.05152 0.53088 1.20073
 C440 C -0.04866 0.53014 1.16143
 C441 C -0.02707 0.49561 1.13203
 C442 C -0.00811 0.46162 1.14232
 H443 H 0.04722 0.41428 1.28888
 H444 H -0.04863 0.52632 1.39263
 H445 H 0.05068 0.42100 1.35595
 H446 H -0.07797 0.55329 1.34463
 H447 H -0.08025 0.55252 1.27854
 H448 H 0.03236 0.40379 1.23427
 H449 H 0.02972 0.40277 1.16820
 H450 H -0.06783 0.55886 1.22165
 H451 H -0.06302 0.55683 1.15383
 H452 H 0.00898 0.43502 1.11944
 C453 C 0.05936 0.47801 0.64432
 C454 C 0.02721 0.50063 0.67594
 C455 C -0.00708 0.52282 0.66699
 C456 C -0.00958 0.52038 0.62805
 C457 C 0.02198 0.49670 0.59717
 C458 C 0.05668 0.47624 0.60568
 C459 C -0.03899 0.54701 0.69686
 C460 C -0.03808 0.54943 0.73567
 C461 C -0.00529 0.52697 0.74629
 C462 C 0.02771 0.50172 0.71591
 C463 C 0.05944 0.47739 0.72641
 C464 C 0.05871 0.47698 0.76501
 C465 C 0.02686 0.50138 0.79487
 C466 C -0.00506 0.52772 0.78620
 C467 C -0.03571 0.55327 0.81796
 C468 C -0.03579 0.55064 0.85608
 C469 C -0.00546 0.52268 0.86387
 C470 C 0.02634 0.49890 0.83338
 H471 H 0.08708 0.46145 0.64833
 H472 H -0.03634 0.53697 0.62179
 H473 H 0.08168 0.45808 0.58233
 H474 H -0.06520 0.56416 0.69016
 H475 H -0.06433 0.56833 0.75667
 H476 H 0.08493 0.45710 0.70525
 H477 H 0.08330 0.45700 0.77151
 H478 H -0.06014 0.57557 0.81447
 H479 H -0.06018 0.56986 0.87960
 H480 H 0.05013 0.47763 0.83959
   
