data_POSCAR
  _audit_creation_date              2014-09-24
  _audit_creation_method            'ToBaCCo'
  _symmetry_space_group_name_H-M    'P1'
  _symmetry_Int_Tables_number       1
  _symmetry_cell_setting            triclinic
  loop_
  _symmetry_equiv_pos_as_xyz
 x,y,z
_cell_length_a 36.1798
_cell_length_b 36.2659
_cell_length_c 36.3279
_cell_angle_alpha 89.951500
_cell_angle_beta 89.971000
_cell_angle_gamma 89.981900
loop_
  _atom_site_label
  _atom_site_type_symbol
  _atom_site_fract_x
  _atom_site_fract_y
  _atom_site_fract_z
N1 N 0.30890 0.23391 0.20588
 N2 N 0.29368 0.26303 0.19054
 C3 C 0.31392 0.27298 0.16102
 C4 C 0.34368 0.24917 0.15803
 C5 C 0.33939 0.22452 0.18685
 H6 H 0.30787 0.29606 0.14314
 H7 H 0.35693 0.20133 0.19344
 Cu8 Cu 0.24977 0.28552 0.21186
 Cu9 Cu 0.28839 0.21044 0.24965
 Cu10 Cu 0.20978 0.25031 0.28742
 N11 N 0.20588 0.30804 0.23318
 N12 N 0.19011 0.29374 0.26250
 C13 C 0.16060 0.31435 0.27174
 C14 C 0.15797 0.34349 0.24728
 C15 C 0.18707 0.33845 0.22298
 H16 H 0.14256 0.30893 0.29487
 H17 H 0.19394 0.35549 0.19955
 N18 N 0.23392 0.20632 0.30851
 N19 N 0.26351 0.19087 0.29385
 C20 C 0.27323 0.16151 0.31439
 C21 C 0.24901 0.15861 0.34369
 C22 C 0.22427 0.18734 0.33892
 H23 H 0.29646 0.14360 0.30883
 H24 H 0.20080 0.19380 0.35613
 H25 H 0.23446 0.22726 0.24165
 H26 H 0.26404 0.25730 0.27107
 N27 N 0.69068 -0.23480 0.20655
 N28 N 0.70593 -0.26399 0.19140
 C29 C 0.68558 -0.27425 0.16208
 C30 C 0.65558 -0.25061 0.15907
 C31 C 0.66010 -0.22560 0.18757
 H32 H 0.69188 -0.29726 0.14424
 H33 H 0.64274 -0.20221 0.19393
 Cu34 Cu 0.75068 -0.28584 0.21190
 Cu35 Cu 0.71114 -0.21100 0.25006
 Cu36 Cu 0.78933 -0.25064 0.28836
 N37 N 0.79448 -0.30801 0.23403
 N38 N 0.80945 -0.29390 0.26381
 C39 C 0.83950 -0.31370 0.27305
 C40 C 0.84403 -0.34165 0.24743
 C41 C 0.81451 -0.33750 0.22340
 H42 H 0.85654 -0.30825 0.29685
 H43 H 0.80834 -0.35465 0.19986
 N44 N 0.76511 -0.20672 0.30920
 N45 N 0.73583 -0.19110 0.29417
 C46 C 0.72619 -0.16152 0.31443
 C47 C 0.75019 -0.15867 0.34392
 C48 C 0.77468 -0.18765 0.33954
 H49 H 0.70313 -0.14348 0.30858
 H50 H 0.79796 -0.19421 0.35695
 H51 H 0.76516 -0.22757 0.24218
 H52 H 0.73531 -0.25807 0.27106
 N53 N 0.69250 0.23676 0.79352
 N54 N 0.70842 0.26564 0.80854
 C55 C 0.68934 0.27546 0.83885
 C56 C 0.65992 0.25136 0.84309
 C57 C 0.66265 0.22742 0.81358
 H58 H 0.69619 0.29854 0.85632
 H59 H 0.64438 0.20464 0.80748
 Cu60 Cu 0.75261 0.28739 0.78692
 Cu61 Cu 0.71212 0.21280 0.74962
 Cu62 Cu 0.79054 0.25157 0.71057
 N63 N 0.79631 0.30930 0.76445
 N64 N 0.81118 0.29482 0.73478
 C65 C 0.84133 0.31437 0.72533
 C66 C 0.84598 0.34256 0.75068
 C67 C 0.81647 0.33878 0.77479
 H68 H 0.85832 0.30862 0.70155
 H69 H 0.81042 0.35615 0.79820
 N70 N 0.76572 0.20778 0.69008
 N71 N 0.73619 0.19270 0.70520
 C72 C 0.72624 0.16306 0.68517
 C73 C 0.75030 0.15963 0.65576
 C74 C 0.77514 0.18832 0.65994
 H75 H 0.70304 0.14528 0.69123
 H76 H 0.79861 0.19435 0.64258
 H77 H 0.76630 0.22880 0.75695
 H78 H 0.73662 0.25939 0.72806
 N79 N 0.30934 -0.23569 0.79511
 N80 N 0.29335 -0.26454 0.81014
 C81 C 0.31223 -0.27430 0.84060
 C82 C 0.34158 -0.25015 0.84493
 C83 C 0.33903 -0.22626 0.81533
 H84 H 0.30536 -0.29744 0.85803
 H85 H 0.35733 -0.20348 0.80924
 Cu86 Cu 0.24984 -0.28669 0.78777
 Cu87 Cu 0.28976 -0.21173 0.75119
 Cu88 Cu 0.21146 -0.25062 0.71176
 N89 N 0.20633 -0.30882 0.76540
 N90 N 0.19125 -0.29441 0.73579
 C91 C 0.16182 -0.31487 0.72597
 C92 C 0.15859 -0.34414 0.75034
 C93 C 0.18716 -0.33909 0.77529
 H94 H 0.14418 -0.30915 0.70262
 H95 H 0.19337 -0.35590 0.79905
 N96 N 0.23611 -0.20634 0.69168
 N97 N 0.26572 -0.19148 0.70684
 C98 C 0.27541 -0.16130 0.68749
 C99 C 0.25066 -0.15679 0.65881
 C100 C 0.22640 -0.18609 0.66210
 H101 H 0.29888 -0.14400 0.69371
 H102 H 0.20316 -0.19187 0.64432
 H103 H 0.23547 -0.22810 0.75812
 H104 H 0.26528 -0.25818 0.72895
 N105 N 0.69199 -0.23536 0.79480
 N106 N 0.70793 -0.26425 0.80980
 C107 C 0.68901 -0.27410 0.84016
 C108 C 0.65966 -0.25003 0.84450
 C109 C 0.66223 -0.22600 0.81499
 H110 H 0.69587 -0.29730 0.85752
 H111 H 0.64390 -0.20323 0.80894
 Cu112 Cu 0.75144 -0.28654 0.78788
 Cu113 Cu 0.71150 -0.21170 0.75070
 Cu114 Cu 0.78995 -0.25080 0.71178
 N115 N 0.79496 -0.30855 0.76566
 N116 N 0.81023 -0.29417 0.73615
 C117 C 0.83962 -0.31470 0.72640
 C118 C 0.84260 -0.34397 0.75076
 C119 C 0.81396 -0.33888 0.77560
 H120 H 0.85734 -0.30911 0.70307
 H121 H 0.80753 -0.35573 0.79928
 N122 N 0.76525 -0.20696 0.69124
 N123 N 0.73557 -0.19192 0.70615
 C124 C 0.72546 -0.16253 0.68583
 C125 C 0.74952 -0.15924 0.65644
 C126 C 0.77458 -0.18769 0.66093
 H127 H 0.70216 -0.14480 0.69171
 H128 H 0.79809 -0.19374 0.64362
 H129 H 0.73597 -0.25835 0.72896
 H130 H 0.76563 -0.22806 0.75803
 N131 N 0.30927 0.23681 0.79329
 N132 N 0.29318 0.26580 0.80794
 C133 C 0.31185 0.27581 0.83840
 C134 C 0.34121 0.25176 0.84306
 C135 C 0.33887 0.22761 0.81372
 H136 H 0.30476 0.29900 0.85565
 H137 H 0.35719 0.20475 0.80802
 Cu138 Cu 0.24962 0.28767 0.78552
 Cu139 Cu 0.28991 0.21232 0.74971
 Cu140 Cu 0.21134 0.25016 0.71008
 N141 N 0.20547 0.30849 0.76326
 N142 N 0.19050 0.29354 0.73389
 C143 C 0.16011 0.31277 0.72453
 C144 C 0.15566 0.34125 0.74950
 C145 C 0.18520 0.33791 0.77343
 H146 H 0.14281 0.30663 0.70109
 H147 H 0.19118 0.35560 0.79661
 N148 N 0.23650 0.20627 0.69021
 N149 N 0.26608 0.19157 0.70560
 C150 C 0.27581 0.16121 0.68661
 C151 C 0.25109 0.15647 0.65795
 C152 C 0.22684 0.18579 0.66085
 H153 H 0.29925 0.14393 0.69308
 H154 H 0.20357 0.19135 0.64303
 H155 H 0.26521 0.25846 0.72709
 H156 H 0.23563 0.22859 0.75685
 N157 N 0.30919 -0.23647 0.20660
 N158 N 0.29326 -0.26542 0.19172
 C159 C 0.31230 -0.27542 0.16147
 C160 C 0.34170 -0.25138 0.15711
 C161 C 0.33903 -0.22727 0.18648
 H162 H 0.30536 -0.29854 0.14408
 H163 H 0.35728 -0.20442 0.19241
 Cu164 Cu 0.24904 -0.28689 0.21326
 Cu165 Cu 0.28956 -0.21227 0.25037
 Cu166 Cu 0.21068 -0.25053 0.28903
 N167 N 0.20520 -0.30849 0.23549
 N168 N 0.19005 -0.29366 0.26483
 C169 C 0.15968 -0.31293 0.27407
 C170 C 0.15537 -0.34133 0.24903
 C171 C 0.18503 -0.33794 0.22520
 H172 H 0.14225 -0.30683 0.29743
 H173 H 0.19108 -0.35548 0.20192
 N174 N 0.23558 -0.20694 0.30952
 N175 N 0.26535 -0.19204 0.29466
 C176 C 0.27536 -0.16255 0.31486
 C177 C 0.25109 -0.15908 0.34409
 C178 C 0.22605 -0.18751 0.33960
 H179 H 0.29871 -0.14490 0.30901
 H180 H 0.20237 -0.19340 0.35674
 H181 H 0.26475 -0.25861 0.27200
 H182 H 0.23541 -0.22807 0.24271
 N183 N 0.68963 0.23651 0.20639
 N184 N 0.70530 0.26599 0.19228
 C185 C 0.68675 0.27609 0.16175
 C186 C 0.65791 0.25157 0.15647
 C187 C 0.66040 0.22706 0.18555
 H188 H 0.69360 0.29962 0.14483
 H189 H 0.64247 0.20379 0.19078
 Cu190 Cu 0.74843 0.28833 0.21501
 Cu191 Cu 0.70906 0.21174 0.24977
 Cu192 Cu 0.78749 0.24928 0.28955
 N193 N 0.79287 0.30844 0.23732
 N194 N 0.80825 0.29281 0.26614
 C195 C 0.83894 0.31162 0.27532
 C196 C 0.84310 0.34059 0.25084
 C197 C 0.81317 0.33790 0.22734
 H198 H 0.85664 0.30481 0.29828
 H199 H 0.80700 0.35599 0.20448
 N200 N 0.76245 0.20529 0.30917
 N201 N 0.73289 0.19069 0.29373
 C202 C 0.72306 0.16033 0.31274
 C203 C 0.74770 0.15556 0.34146
 C204 C 0.77201 0.18479 0.33857
 H205 H 0.69955 0.14317 0.30628
 H206 H 0.79519 0.19035 0.35650
 H207 H 0.73349 0.25768 0.27295
 H208 H 0.76313 0.22870 0.24233
 O209 O 0.28153 0.03600 0.46510
 O210 O 0.28003 -0.03617 0.53647
 O211 O 0.28226 -0.03602 0.46499
 O212 O 0.28020 0.03558 0.53650
 O213 O 0.21917 0.03527 0.53528
 O214 O 0.22125 -0.03617 0.46343
 O215 O 0.21901 -0.03616 0.53520
 O216 O 0.22052 0.03558 0.46354
 Cu217 Cu 0.28713 -0.00015 0.50082
 Cu218 Cu 0.21386 -0.00040 0.49912
 C219 C 0.25124 0.04825 0.45230
 C220 C 0.24924 -0.04825 0.54824
 C221 C 0.25212 -0.04846 0.45213
 C222 C 0.24937 0.04748 0.54828
 O223 O 0.71696 0.03628 0.53567
 O224 O 0.71697 -0.03603 0.46476
 O225 O 0.71681 -0.03576 0.53608
 O226 O 0.71833 0.03571 0.46417
 O227 O 0.77936 0.03489 0.46466
 O228 O 0.77784 -0.03619 0.53680
 O229 O 0.77800 -0.03658 0.46512
 O230 O 0.77797 0.03560 0.53649
 Cu231 Cu 0.71114 0.00017 0.50019
 Cu232 Cu 0.78443 -0.00059 0.50091
 C233 C 0.74741 0.04842 0.54808
 C234 C 0.74744 -0.04872 0.45287
 C235 C 0.74710 -0.04839 0.54849
 C236 C 0.74912 0.04727 0.45194
 O237 O 0.46491 0.28158 0.03493
 O238 O 0.53636 0.28017 -0.03721
 O239 O 0.46438 0.28027 -0.03688
 O240 O 0.53660 0.28021 0.03451
 O241 O 0.53615 0.21932 0.03479
 O242 O 0.46374 0.21940 -0.03595
 O243 O 0.53596 0.21929 -0.03647
 O244 O 0.46425 0.22070 0.03548
 Cu245 Cu 0.50059 0.28669 -0.00130
 Cu246 Cu 0.49991 0.21357 -0.00055
 C247 C 0.45252 0.25139 0.04765
 C248 C 0.54864 0.24952 -0.04888
 C249 C 0.45155 0.24978 -0.04838
 C250 C 0.54880 0.24969 0.04670
 O251 O 0.53639 0.71847 0.03652
 O252 O 0.46478 0.72054 -0.03533
 O253 O 0.53665 0.72076 -0.03531
 O254 O 0.46457 0.72032 0.03635
 O255 O 0.46508 0.78120 0.03694
 O256 O 0.53741 0.78162 -0.03391
 O257 O 0.46526 0.78141 -0.03430
 O258 O 0.53705 0.77934 0.03763
 Cu259 Cu 0.50059 0.71390 0.00043
 Cu260 Cu 0.50135 0.78699 0.00164
 C261 C 0.54883 0.74851 0.04949
 C262 C 0.45256 0.75127 -0.04686
 C263 C 0.54943 0.75135 -0.04669
 C264 C 0.45233 0.75078 0.04864
 O265 O 0.03492 0.46521 0.27810
 O266 O -0.03783 0.53616 0.27617
 O267 O -0.03713 0.46437 0.27708
 O268 O 0.03412 0.53665 0.27650
 O269 O 0.03455 0.53576 0.21572
 O270 O -0.03635 0.46329 0.21631
 O271 O -0.03715 0.53530 0.21540
 O272 O 0.03534 0.46401 0.21733
 Cu273 Cu -0.00162 0.50067 0.28308
 Cu274 Cu -0.00091 0.49947 0.21009
 C275 C 0.04767 0.45262 0.24805
 C276 C -0.04967 0.54810 0.24548
 C277 C -0.04870 0.45132 0.24677
 C278 C 0.04643 0.54860 0.24599
 O279 O 0.03636 0.53617 0.71928
 O280 O -0.03582 0.46458 0.72133
 O281 O -0.03589 0.53614 0.71935
 O282 O 0.03600 0.46456 0.72099
 O283 O 0.03597 0.46583 0.78176
 O284 O -0.03560 0.53785 0.78010
 O285 O -0.03560 0.46599 0.78209
 O286 O 0.03636 0.53779 0.78003
 Cu287 Cu 0.00016 0.50033 0.71413
 Cu288 Cu 0.00031 0.50213 0.78710
 C289 C 0.04884 0.54904 0.74932
 C290 C -0.04780 0.45284 0.75206
 C291 C -0.04819 0.54903 0.74944
 C292 C 0.04799 0.45270 0.75164
 C293 C 0.37345 0.24986 0.12892
 C294 C 0.36006 0.23521 0.09158
 C295 C 0.38629 0.23603 0.06470
 C296 C 0.42364 0.25155 0.07745
 C297 C 0.41444 0.28969 0.09368
 C298 C 0.38830 0.28874 0.12066
 C299 C 0.40823 0.22703 0.13783
 C300 C 0.43442 0.22800 0.11093
 H301 H 0.33226 0.22510 0.08669
 H302 H 0.38088 0.22674 0.03682
 H303 H 0.42759 0.31521 0.08518
 H304 H 0.37932 0.31339 0.13505
 H305 H 0.41269 0.21230 0.16343
 H306 H 0.46078 0.21393 0.11362
 C307 C 0.62750 0.74894 0.13125
 C308 C 0.64065 0.76551 0.09455
 C309 C 0.61460 0.76503 0.06749
 C310 C 0.57764 0.74797 0.07938
 C311 C 0.58782 0.70946 0.09418
 C312 C 0.61373 0.71000 0.12136
 C313 C 0.59189 0.77035 0.14079
 C314 C 0.56597 0.76980 0.11366
 H315 H 0.66818 0.77662 0.09015
 H316 H 0.61992 0.77559 0.04002
 H317 H 0.57541 0.68396 0.08463
 H318 H 0.62312 0.68498 0.13487
 H319 H 0.58659 0.78364 0.16700
 H320 H 0.53914 0.78286 0.11676
 C321 C 0.63059 0.25098 -0.12734
 C322 C 0.59292 0.26486 -0.14110
 C323 C 0.56581 0.26411 -0.11508
 C324 C 0.57867 0.24941 -0.07757
 C325 C 0.59562 0.21137 -0.08594
 C326 C 0.62282 0.21227 -0.11185
 C327 C 0.63899 0.27457 -0.09311
 C328 C 0.61187 0.27365 -0.06713
 H329 H 0.58800 0.27451 -0.16897
 H330 H 0.53773 0.27301 -0.12074
 H331 H 0.58743 0.18596 -0.07241
 H332 H 0.63769 0.18767 -0.12025
 H333 H 0.66436 0.28989 -0.08891
 H334 H 0.61417 0.28832 -0.04118
 C335 C 0.37082 0.75015 -0.12545
 C336 C 0.36227 0.72653 -0.09123
 C337 C 0.38931 0.72736 -0.06520
 C338 C 0.42259 0.75155 -0.07558
 C339 C 0.43553 0.73686 -0.11307
 C340 C 0.40850 0.73620 -0.13914
 C341 C 0.37863 0.78883 -0.10996
 C342 C 0.40576 0.78963 -0.08400
 H343 H 0.33686 0.71125 -0.08708
 H344 H 0.38692 0.71264 -0.03927
 H345 H 0.46360 0.72789 -0.11868
 H346 H 0.41346 0.72657 -0.16700
 H347 H 0.36384 0.81347 -0.11841
 H348 H 0.41398 0.81500 -0.07046
 C349 C 0.12898 0.37341 0.24738
 C350 C 0.12172 0.38971 0.28579
 C351 C 0.09477 0.41592 0.28643
 C352 C 0.07756 0.42376 0.24846
 C353 C 0.11063 0.43348 0.22374
 C354 C 0.13749 0.40719 0.22308
 C355 C 0.09107 0.35972 0.23418
 C356 C 0.06422 0.38603 0.23468
 H357 H 0.13676 0.38162 0.31036
 H358 H 0.08696 0.43005 0.31159
 H359 H 0.11306 0.45921 0.20863
 H360 H 0.16280 0.41091 0.20752
 H361 H 0.08579 0.33166 0.22522
 H362 H 0.03598 0.38043 0.22627
 C363 C 0.13079 0.62770 0.75008
 C364 C 0.13927 0.59333 0.77371
 C365 C 0.11212 0.56738 0.77302
 C366 C 0.07886 0.57779 0.74892
 C367 C 0.06604 0.61543 0.76347
 C368 C 0.09312 0.64150 0.76402
 C369 C 0.12288 0.61199 0.71150
 C370 C 0.09567 0.58606 0.71085
 H371 H 0.16479 0.58881 0.78867
 H372 H 0.11454 0.54134 0.78761
 H373 H 0.03797 0.62113 0.77241
 H374 H 0.08813 0.66944 0.77355
 H375 H 0.13774 0.62013 0.68682
 H376 H 0.08747 0.57233 0.68561
 C377 C -0.12810 0.63028 0.24665
 C378 C -0.14143 0.59341 0.26281
 C379 C -0.11549 0.56619 0.26208
 C380 C -0.07845 0.57809 0.24518
 C381 C -0.08850 0.59335 0.20689
 C382 C -0.11430 0.62069 0.20768
 C383 C -0.09248 0.63944 0.26814
 C384 C -0.06669 0.61215 0.26733
 H385 H -0.16898 0.58905 0.27388
 H386 H -0.12091 0.53861 0.27241
 H387 H -0.07603 0.58403 0.18136
 H388 H -0.12352 0.63457 0.18284
 H389 H -0.08712 0.66551 0.28173
 H390 H -0.03991 0.61496 0.28052
 C391 C -0.12611 0.37058 0.75124
 C392 C -0.13962 0.40753 0.73539
 C393 C -0.11369 0.43475 0.73599
 C394 C -0.07650 0.42278 0.75248
 C395 C -0.08619 0.40734 0.79078
 C396 C -0.11197 0.37999 0.79011
 C397 C -0.09069 0.36152 0.72936
 C398 C -0.06490 0.38881 0.73005
 H399 H -0.16728 0.41195 0.72465
 H400 H -0.11925 0.46239 0.72591
 H401 H -0.07351 0.41654 0.81623
 H402 H -0.12097 0.36599 0.81498
 H403 H -0.08544 0.33552 0.71559
 H404 H -0.03823 0.38605 0.71662
 C405 C 0.24956 0.12957 0.37345
 C406 C 0.28838 0.12218 0.38908
 C407 C 0.28937 0.09520 0.41516
 C408 C 0.25133 0.07810 0.42352
 C409 C 0.22675 0.11111 0.43371
 C410 C 0.22574 0.13801 0.40757
 C411 C 0.23599 0.09184 0.35987
 C412 C 0.23684 0.06496 0.38604
 H413 H 0.31295 0.13715 0.38066
 H414 H 0.31484 0.08727 0.42882
 H415 H 0.21199 0.11348 0.45963
 H416 H 0.21025 0.16329 0.41161
 H417 H 0.22647 0.08671 0.33200
 H418 H 0.22816 0.03685 0.38051
 C419 C 0.74958 0.13025 0.62635
 C420 C 0.71067 0.12255 0.61120
 C421 C 0.70956 0.09540 0.58536
 C422 C 0.74761 0.07840 0.57671
 C423 C 0.77190 0.11145 0.56600
 C424 C 0.77301 0.13854 0.59189
 C425 C 0.76352 0.09266 0.64011
 C426 C 0.76257 0.06559 0.61416
 H427 H 0.68609 0.13741 0.61979
 H428 H 0.68398 0.08724 0.57209
 H429 H 0.78642 0.11368 0.53993
 H430 H 0.78833 0.16384 0.58746
 H431 H 0.77334 0.08777 0.66793
 H432 H 0.77146 0.03756 0.61982
 C433 C 0.25024 -0.12714 0.62961
 C434 C 0.21138 -0.11207 0.62129
 C435 C 0.21064 -0.08602 0.59428
 C436 C 0.24895 -0.07710 0.57806
 C437 C 0.27255 -0.06646 0.61154
 C438 C 0.27331 -0.09256 0.63848
 C439 C 0.26493 -0.14061 0.59229
 C440 C 0.26433 -0.11445 0.56537
 H441 H 0.18659 -0.12080 0.63570
 H442 H 0.18516 -0.07271 0.58578
 H443 H 0.28685 -0.04027 0.61419
 H444 H 0.28807 -0.08820 0.66407
 H445 H 0.27494 -0.16841 0.58745
 H446 H 0.27371 -0.11993 0.53751
 C447 C 0.74955 -0.12967 0.37371
 C448 C 0.71062 -0.12195 0.38887
 C449 C 0.70954 -0.09511 0.41502
 C450 C 0.74764 -0.07842 0.42396
 C451 C 0.77173 -0.11172 0.43435
 C452 C 0.77282 -0.13851 0.40813
 C453 C 0.76371 -0.09200 0.36044
 C454 C 0.76278 -0.06524 0.38671
 H455 H 0.68600 -0.13659 0.38005
 H456 H 0.68395 -0.08699 0.42834
 H457 H 0.78615 -0.11434 0.46043
 H458 H 0.78802 -0.16394 0.41228
 H459 H 0.77363 -0.08683 0.33270
 H460 H 0.77179 -0.03718 0.38140
 C461 C 0.63059 0.75016 -0.12577
 C462 C 0.59273 0.73671 -0.13939
 C463 C 0.56587 0.73732 -0.11312
 C464 C 0.57918 0.75145 -0.07557
 C465 C 0.61225 0.72684 -0.06565
 C466 C 0.63913 0.72606 -0.09185
 C467 C 0.62326 0.78872 -0.10984
 C468 C 0.59632 0.78948 -0.08370
 H469 H 0.58753 0.72742 -0.16731
 H470 H 0.53769 0.72864 -0.11862
 H471 H 0.61463 0.71179 -0.03991
 H472 H 0.66441 0.71048 -0.08800
 H473 H 0.63820 0.81330 -0.11816
 H474 H 0.58843 0.81480 -0.06985
 C475 C 0.37019 0.25153 -0.12716
 C476 C 0.37713 0.21297 -0.11097
 C477 C 0.40410 0.21204 -0.08490
 C478 C 0.42166 0.24991 -0.07708
 C479 C 0.43506 0.26373 -0.11475
 C480 C 0.40818 0.26450 -0.14094
 C481 C 0.36193 0.27588 -0.09340
 C482 C 0.38885 0.27493 -0.06724
 H483 H 0.36186 0.18851 -0.11902
 H484 H 0.41168 0.18672 -0.07084
 H485 H 0.46332 0.27208 -0.12036
 H486 H 0.41344 0.27363 -0.16892
 H487 H 0.33681 0.29175 -0.08965
 H488 H 0.38665 0.29009 -0.04157
 C489 C 0.37082 0.74894 0.12740
 C490 C 0.36238 0.72509 0.09334
 C491 C 0.38936 0.72604 0.06722
 C492 C 0.42241 0.75058 0.07738
 C493 C 0.40522 0.78855 0.08563
 C494 C 0.37819 0.78761 0.11167
 C495 C 0.40866 0.73540 0.14106
 C496 C 0.43560 0.73619 0.11489
 H497 H 0.33709 0.70959 0.08934
 H498 H 0.38703 0.71125 0.04135
 H499 H 0.41307 0.81395 0.07188
 H500 H 0.36315 0.81213 0.11999
 H501 H 0.41379 0.72596 0.16896
 H502 H 0.46380 0.72755 0.12043
 C503 C 0.62927 0.25131 0.12637
 C504 C 0.63803 0.27551 0.09260
 C505 C 0.61143 0.27461 0.06613
 C506 C 0.57839 0.24978 0.07571
 C507 C 0.59570 0.21185 0.08390
 C508 C 0.62236 0.21272 0.11028
 C509 C 0.59118 0.26449 0.13965
 C510 C 0.56460 0.26376 0.11315
 H511 H 0.66330 0.29118 0.08906
 H512 H 0.61401 0.28965 0.04039
 H513 H 0.58818 0.18653 0.06986
 H514 H 0.63746 0.18822 0.11859
 H515 H 0.58561 0.27365 0.16755
 H516 H 0.53628 0.27218 0.11842
 C517 C -0.12981 0.62778 0.75047
 C518 C -0.13828 0.59355 0.77430
 C519 C -0.11122 0.56751 0.77352
 C520 C -0.07809 0.57777 0.74915
 C521 C -0.09510 0.58591 0.71116
 C522 C -0.12222 0.61192 0.71190
 C523 C -0.09204 0.64153 0.76412
 C524 C -0.06506 0.61539 0.76347
 H525 H -0.16375 0.58914 0.78942
 H526 H -0.11363 0.54151 0.78818
 H527 H -0.08713 0.57201 0.68592
 H528 H -0.13726 0.61996 0.68731
 H529 H -0.08694 0.66948 0.77354
 H530 H -0.03693 0.62101 0.77222
 C531 C -0.12723 0.36969 0.24989
 C532 C -0.14096 0.40739 0.26345
 C533 C -0.11486 0.43439 0.26215
 C534 C -0.07735 0.42136 0.24730
 C535 C -0.06659 0.38851 0.27178
 C536 C -0.09265 0.36148 0.27323
 C537 C -0.11206 0.37699 0.21102
 C538 C -0.08608 0.40408 0.20958
 H539 H -0.16885 0.41240 0.27328
 H540 H -0.12047 0.46250 0.27077
 H541 H -0.04037 0.38634 0.28616
 H542 H -0.08827 0.33629 0.28871
 H543 H -0.12072 0.36189 0.18672
 H544 H -0.07273 0.41196 0.18400
 C545 C 0.12622 0.37065 0.75018
 C546 C 0.11173 0.37931 0.78904
 C547 C 0.08588 0.40659 0.78997
 C548 C 0.07659 0.42265 0.75183
 C549 C 0.11392 0.43499 0.73593
 C550 C 0.13988 0.40782 0.73513
 C551 C 0.09122 0.36187 0.72774
 C552 C 0.06531 0.38906 0.72868
 H553 H 0.12072 0.36497 0.81370
 H554 H 0.07300 0.41541 0.81547
 H555 H 0.11953 0.46281 0.72638
 H556 H 0.16765 0.41238 0.72476
 H557 H 0.08649 0.33618 0.71324
 H558 H 0.03885 0.38654 0.71481
 C559 C 0.12563 0.62961 0.24809
 C560 C 0.13866 0.59232 0.26339
 C561 C 0.11236 0.56549 0.26240
 C562 C 0.07537 0.57828 0.24608
 C563 C 0.06424 0.61206 0.26903
 C564 C 0.09047 0.63890 0.27014
 C565 C 0.11149 0.62104 0.20911
 C566 C 0.08531 0.59412 0.20799
 H567 H 0.16625 0.58742 0.27408
 H568 H 0.11749 0.53764 0.27212
 H569 H 0.03766 0.61495 0.28262
 H570 H 0.08587 0.66470 0.28450
 H571 H 0.12096 0.63517 0.18450
 H572 H 0.07261 0.58541 0.18238
 C573 C 0.74880 -0.12999 0.62693
 C574 C 0.70981 -0.12174 0.61220
 C575 C 0.70881 -0.09462 0.58628
 C576 C 0.74701 -0.07827 0.57717
 C577 C 0.76259 -0.06560 0.61437
 C578 C 0.76346 -0.09263 0.64040
 C579 C 0.77168 -0.13876 0.59225
 C580 C 0.77066 -0.11172 0.56628
 H581 H 0.68512 -0.13626 0.62106
 H582 H 0.68322 -0.08611 0.57321
 H583 H 0.77198 -0.03771 0.61982
 H584 H 0.77370 -0.08785 0.66807
 H585 H 0.78651 -0.16435 0.58775
 H586 H 0.78481 -0.11425 0.54003
 C587 C 0.25150 -0.12983 0.37355
 C588 C 0.22834 -0.13874 0.40803
 C589 C 0.22898 -0.11177 0.43402
 C590 C 0.25259 -0.07823 0.42338
 C591 C 0.29095 -0.09443 0.41459
 C592 C 0.29031 -0.12148 0.38862
 C593 C 0.23680 -0.09248 0.35997
 C594 C 0.23731 -0.06552 0.38604
 H595 H 0.21360 -0.16440 0.41243
 H596 H 0.21462 -0.11442 0.46014
 H597 H 0.31639 -0.08586 0.42787
 H598 H 0.31513 -0.13586 0.37993
 H599 H 0.22684 -0.08765 0.33220
 H600 H 0.22788 -0.03763 0.38052
 C601 C 0.74804 0.12588 0.37053
 C602 C 0.78682 0.11035 0.37832
 C603 C 0.78761 0.08434 0.40535
 C604 C 0.74940 0.07595 0.42207
 C605 C 0.73467 0.11349 0.43493
 C606 C 0.73402 0.13961 0.40801
 C607 C 0.72441 0.09163 0.36197
 C608 C 0.72522 0.06555 0.38892
 H609 H 0.81153 0.11878 0.36358
 H610 H 0.81303 0.07074 0.41354
 H611 H 0.72576 0.11912 0.46292
 H612 H 0.72444 0.16754 0.41294
 H613 H 0.70927 0.08745 0.33657
 H614 H 0.71061 0.03951 0.38648
 C615 C 0.25058 0.12663 0.62908
 C616 C 0.21169 0.11149 0.62107
 C617 C 0.21084 0.08531 0.59424
 C618 C 0.24908 0.07636 0.57792
 C619 C 0.26435 0.11365 0.56489
 C620 C 0.26507 0.13994 0.59161
 C621 C 0.27374 0.09214 0.63810
 C622 C 0.27287 0.06590 0.61136
 H623 H 0.18696 0.12028 0.63556
 H624 H 0.18535 0.07193 0.58594
 H625 H 0.27357 0.11900 0.53694
 H626 H 0.27502 0.16772 0.58653
 H627 H 0.28864 0.08795 0.66365
 H628 H 0.28719 0.03973 0.61412
   
