data_POSCAR
  _audit_creation_date              2014-09-24
  _audit_creation_method            'ToBaCCo'
  _symmetry_space_group_name_H-M    'P1'
  _symmetry_Int_Tables_number       1
  _symmetry_cell_setting            triclinic
  loop_
  _symmetry_equiv_pos_as_xyz
 x,y,z
_cell_length_a 24.7001
_cell_length_b 24.2143
_cell_length_c 18.4881
_cell_angle_alpha 90.023500
_cell_angle_beta 90.187400
_cell_angle_gamma 90.445600
loop_
  _atom_site_label
  _atom_site_type_symbol
  _atom_site_fract_x
  _atom_site_fract_y
  _atom_site_fract_z
C1 C 1.24175 0.24578 0.24964
 C2 C 0.75679 -0.24498 0.25684
 C3 C 0.75619 0.25651 -0.24480
 C4 C 1.24314 -0.25408 -0.25080
 C5 C 0.24315 0.24521 0.74979
 C6 C 0.75627 0.75329 0.74185
 C7 C 0.75650 0.25413 0.24313
 C8 C 0.24273 0.74642 0.24888
 O9 O 1.10062 -0.07078 0.12598
 O10 O 1.05704 -0.13796 0.05968
 C11 C 1.09398 -0.12124 0.10528
 O12 O 0.89333 0.06695 0.11728
 O13 O 0.94076 0.13339 0.05482
 C14 C 0.90133 0.11724 0.09647
 O15 O 0.90796 -0.08276 0.13001
 O16 O 0.95670 -0.14385 0.06099
 C17 C 0.91909 -0.13179 0.10733
 O18 O 1.10246 0.07809 0.10835
 O19 O 1.04436 0.13917 0.05417
 C20 C 1.08773 0.12728 0.09102
 Zr21 Zr 1.06537 0.00201 0.09021
 O22 O 1.05552 0.00992 0.20350
 O23 O 1.14999 0.00301 0.10781
 Zr24 Zr 0.93316 -0.00591 0.09124
 O25 O 0.94195 -0.00131 0.20491
 O26 O 0.84756 -0.01354 0.09277
 O27 O 1.00206 -0.05321 0.10531
 O28 O 0.99692 0.04869 0.10320
 O29 O 1.10106 0.07639 -0.11400
 O30 O 1.04370 0.13830 -0.06054
 C31 C 1.08671 0.12584 -0.09743
 O32 O 0.90374 -0.08466 -0.12544
 O33 O 0.95546 -0.14484 -0.05875
 C34 C 0.91625 -0.13346 -0.10335
 O35 O 0.88989 0.06416 -0.11722
 O36 O 0.93940 0.13192 -0.05970
 C37 C 0.89895 0.11493 -0.09948
 O38 O 1.09819 -0.07284 -0.12821
 O39 O 1.05558 -0.13908 -0.05971
 C40 C 1.09182 -0.12294 -0.10617
 Zr41 Zr 1.06391 0.00066 -0.09389
 O42 O 1.05241 0.00753 -0.20709
 O43 O 1.14817 0.00116 -0.11372
 Zr44 Zr 0.93188 -0.00737 -0.09208
 O45 O 0.93848 -0.00134 -0.20599
 O46 O 0.84691 -0.01604 -0.10166
 Zr47 Zr 1.00336 -0.08670 -0.00015
 Zr48 Zr 0.99468 0.08118 -0.00216
 O49 O 0.99532 0.04713 -0.10681
 O50 O 1.00045 -0.05491 -0.10661
 O51 O 1.07362 0.04908 -0.00247
 O52 O 0.92457 -0.05428 0.00041
 O53 O 1.07821 -0.04464 -0.00140
 O54 O 0.91924 0.04058 -0.00085
 H55 H 0.99600 0.07564 0.14357
 H56 H 0.89166 -0.07784 0.00155
 H57 H 0.99372 0.07369 -0.14756
 H58 H 1.11333 -0.06406 -0.00149
 H59 H 0.83577 -0.01450 0.14398
 H60 H 0.83203 -0.01068 -0.05249
 H61 H 0.94911 -0.03807 -0.22442
 H62 H 1.04909 -0.03038 -0.22675
 H63 H 1.16614 0.00336 -0.06587
 H64 H 1.16701 0.00509 0.05948
 H65 H 1.04867 -0.02753 0.22306
 H66 H 0.90498 -0.00027 0.22529
 O67 O 1.10563 0.43077 0.61926
 O68 O 1.05842 0.36343 0.55765
 C69 C 1.09703 0.38015 0.60061
 O70 O 0.89763 0.56907 0.62037
 O71 O 0.94369 0.63538 0.55606
 C72 C 0.90487 0.61922 0.59881
 O73 O 0.91605 0.42114 0.63931
 O74 O 0.95873 0.35850 0.56601
 C75 C 0.92575 0.37148 0.61801
 O76 O 1.10809 0.57979 0.59990
 O77 O 1.04775 0.64083 0.55020
 C78 C 1.09232 0.62899 0.58439
 Zr79 Zr 1.07022 0.50376 0.58491
 O80 O 1.06615 0.51285 0.69870
 O81 O 1.15551 0.50387 0.59496
 Zr82 Zr 0.93867 0.49688 0.59593
 O83 O 0.95417 0.50463 0.70793
 O84 O 0.85498 0.48749 0.61700
 O85 O 1.00740 0.44916 0.60542
 O86 O 1.00280 0.55122 0.60258
 O87 O 1.09920 0.57629 0.37912
 O88 O 1.04442 0.63910 0.43549
 C89 C 1.08631 0.62604 0.39657
 O90 O 0.89891 0.41655 0.38377
 O91 O 0.95377 0.35633 0.44548
 C92 C 0.91285 0.36766 0.40375
 O93 O 0.88582 0.56588 0.39420
 O94 O 0.94008 0.63398 0.44256
 C95 C 0.89706 0.61694 0.40818
 O96 O 1.09335 0.42691 0.36551
 O97 O 1.05365 0.36166 0.43855
 C98 C 1.08821 0.37718 0.38954
 Zr99 Zr 1.06122 0.50110 0.40134
 O100 O 1.04559 0.50777 0.28902
 O101 O 1.14439 0.50043 0.37467
 Zr102 Zr 0.92952 0.49402 0.41249
 O103 O 0.93414 0.49986 0.29843
 O104 O 0.84478 0.48590 0.39953
 Zr105 Zr 1.00361 0.41475 0.50042
 Zr106 Zr 0.99631 0.58279 0.49700
 O107 O 0.99259 0.54811 0.39265
 O108 O 0.99698 0.44582 0.39378
 O109 O 1.07491 0.55011 0.49141
 O110 O 0.92519 0.44789 0.50645
 O111 O 1.07873 0.45619 0.49326
 O112 O 0.92077 0.54220 0.50413
 H113 H 1.00340 0.57866 0.64242
 H114 H 0.89255 0.42417 0.51106
 H115 H 0.98968 0.57470 0.35207
 H116 H 1.11364 0.43645 0.49129
 H117 H 0.83599 0.49357 0.57054
 H118 H 0.82927 0.48501 0.44876
 H119 H 0.93881 0.46197 0.27943
 H120 H 1.04072 0.46983 0.27001
 H121 H 1.16458 0.50122 0.42099
 H122 H 1.17010 0.50710 0.54535
 H123 H 1.05910 0.47579 0.71941
 H124 H 0.91825 0.50519 0.73157
 O125 O 0.56824 0.10706 0.62535
 O126 O 0.63393 0.06339 0.55933
 C127 C 0.61812 0.10033 0.60657
 O128 O 0.43420 -0.10723 0.62291
 O129 O 0.36758 -0.06175 0.56004
 C130 C 0.38418 -0.09994 0.60500
 O131 O 0.57988 -0.09155 0.63026
 O132 O 0.63945 -0.04037 0.56168
 C133 C 0.62830 -0.07780 0.61092
 O134 O 0.42163 0.10386 0.61462
 O135 O 0.36095 0.04450 0.55991
 C136 C 0.37286 0.08769 0.59991
 Zr137 Zr 0.49643 0.06883 0.58980
 O138 O 0.49103 0.05725 0.70316
 O139 O 0.49442 0.15498 0.60793
 Zr140 Zr 0.50480 -0.06660 0.58958
 O141 O 0.49861 -0.06134 0.70370
 O142 O 0.51542 -0.15323 0.59402
 O143 O 0.55094 0.00494 0.60359
 O144 O 0.45145 -0.00232 0.60308
 O145 O 0.41949 0.10190 0.37991
 O146 O 0.35990 0.04432 0.43924
 C147 C 0.37108 0.08660 0.39745
 O148 O 0.57908 -0.09145 0.36712
 O149 O 0.63931 -0.04040 0.43544
 C150 C 0.62770 -0.07758 0.38617
 O151 O 0.43334 -0.11105 0.38007
 O152 O 0.36692 -0.06277 0.43902
 C153 C 0.38318 -0.10268 0.39634
 O154 O 0.56604 0.10520 0.36707
 O155 O 0.63245 0.06145 0.43245
 C156 C 0.61613 0.09773 0.38462
 Zr157 Zr 0.49494 0.06878 0.40689
 O158 O 0.48731 0.06012 0.29323
 O159 O 0.49445 0.15577 0.39662
 Zr160 Zr 0.50358 -0.06648 0.40674
 O161 O 0.49476 -0.05719 0.29331
 O162 O 0.51278 -0.15246 0.39191
 Zr163 Zr 0.58331 0.00737 0.49786
 Zr164 Zr 0.41683 -0.00504 0.49895
 O165 O 0.44980 -0.00252 0.39419
 O166 O 0.54941 0.00485 0.39251
 O167 O 0.44750 0.07660 0.49872
 O168 O 0.55174 -0.07376 0.49789
 O169 O 0.54172 0.08306 0.49782
 O170 O 0.45718 -0.08151 0.49861
 H171 H 0.42609 -0.00381 0.64451
 H172 H 0.57645 -0.10576 0.49807
 H173 H 0.42366 -0.00440 0.35344
 H174 H 0.56177 0.11861 0.49684
 H175 H 0.49203 -0.16990 0.55622
 H176 H 0.51790 -0.16874 0.44039
 H177 H 0.53029 -0.04598 0.27328
 H178 H 0.52357 0.05194 0.27348
 H179 H 0.47872 0.17059 0.44167
 H180 H 0.49626 0.17281 0.55994
 H181 H 0.52832 0.05649 0.72287
 H182 H 0.53160 -0.04262 0.72227
 O183 O 0.56702 0.60750 0.12944
 O184 O 0.63290 0.56250 0.06528
 C185 C 0.61697 0.59944 0.11231
 O186 O 0.43345 0.39173 0.12224
 O187 O 0.36671 0.43943 0.06256
 C188 C 0.38327 0.40004 0.10582
 O189 O 0.57927 0.41000 0.13350
 O190 O 0.63916 0.46005 0.06399
 C191 C 0.62782 0.42309 0.11365
 O192 O 0.42076 0.60698 0.11466
 O193 O 0.36020 0.54678 0.06144
 C194 C 0.37196 0.59069 0.10032
 Zr195 Zr 0.49538 0.57064 0.09180
 O196 O 0.48825 0.56111 0.20532
 O197 O 0.49423 0.65712 0.10740
 Zr198 Zr 0.50359 0.43548 0.09429
 O199 O 0.49614 0.44592 0.20764
 O200 O 0.51231 0.34961 0.11070
 O201 O 0.54984 0.50677 0.10705
 O202 O 0.45002 0.49975 0.10617
 O203 O 0.41980 0.60126 -0.12011
 O204 O 0.35975 0.54501 -0.05938
 C205 C 0.37129 0.58652 -0.10224
 O206 O 0.57831 0.40764 -0.12854
 O207 O 0.63844 0.45931 -0.06082
 C208 C 0.62687 0.42150 -0.10938
 O209 O 0.43255 0.39216 -0.12012
 O210 O 0.36635 0.43866 -0.05831
 C211 C 0.38265 0.39972 -0.10237
 O212 O 0.56626 0.60515 -0.13089
 O213 O 0.63228 0.56198 -0.06423
 C214 C 0.61626 0.59784 -0.11290
 Zr215 Zr 0.49516 0.56894 -0.09097
 O216 O 0.48828 0.55921 -0.20459
 O217 O 0.49491 0.65592 -0.10157
 Zr218 Zr 0.50333 0.43335 -0.08848
 O219 O 0.49600 0.43828 -0.20256
 O220 O 0.51366 0.34670 -0.09288
 Zr221 Zr 0.58278 0.50798 0.00139
 Zr222 Zr 0.41621 0.49619 0.00161
 O223 O 0.45007 0.49762 -0.10267
 O224 O 0.54933 0.50455 -0.10393
 O225 O 0.44708 0.57771 0.00012
 O226 O 0.55085 0.42699 0.00299
 O227 O 0.54160 0.58384 0.00023
 O228 O 0.45641 0.41961 0.00300
 H229 H 0.42405 0.49847 0.14694
 H230 H 0.57522 0.39471 0.00316
 H231 H 0.42453 0.49561 -0.14408
 H232 H 0.56224 0.61905 -0.00050
 H233 H 0.51673 0.33270 0.06250
 H234 H 0.49179 0.33033 -0.05350
 H235 H 0.52986 0.45459 -0.22184
 H236 H 0.52469 0.55106 -0.22389
 H237 H 0.47687 0.67083 -0.05814
 H238 H 0.49776 0.67421 0.05914
 H239 H 0.52513 0.55691 0.22556
 H240 H 0.53186 0.45764 0.22691
 N241 N 1.21680 0.18217 0.14842
 C242 C 1.20127 0.22105 0.19642
 N243 N 1.14825 0.23670 0.19680
 N244 N 1.11131 0.21082 0.15650
 C245 C 1.12651 0.16922 0.11270
 N246 N 1.17990 0.15636 0.10805
 N247 N 1.21999 0.68408 0.64563
 C248 C 1.20339 0.72151 0.69496
 N249 N 1.15029 0.73673 0.69466
 N250 N 1.11420 0.71155 0.65233
 C251 C 1.13038 0.67123 0.60711
 N252 N 1.18393 0.65898 0.60322
 N253 N 0.74092 0.18212 0.65954
 C254 C 0.71954 0.21985 0.70650
 N255 N 0.66564 0.21678 0.71973
 N256 N 0.63476 0.17876 0.68739
 C257 C 0.65590 0.14102 0.64099
 N258 N 0.70981 0.14387 0.62686
 N259 N 0.66655 0.71000 0.23313
 C260 C 0.71894 0.71678 0.21324
 N261 N 0.73901 0.68232 0.16130
 N262 N 0.70772 0.64413 0.12917
 C263 C 0.65514 0.63808 0.14888
 N264 N 0.63543 0.67202 0.20114
 N265 N 0.85281 -0.23891 0.21195
 C266 C 0.80008 -0.22279 0.20613
 N267 N 0.78744 -0.18389 0.15656
 N268 N 0.82640 -0.15901 0.11922
 C269 C 0.87922 -0.17252 0.12889
 N270 N 0.89192 -0.21373 0.17488
 N271 N 0.81721 0.27077 0.64617
 C272 C 0.80186 0.28484 0.71443
 N273 N 0.83322 0.32116 0.75183
 N274 N 0.87684 0.34364 0.72248
 C275 C 0.89175 0.33083 0.65424
 N276 N 0.86080 0.29431 0.61600
 N277 N 0.26020 -0.17609 0.66143
 C278 C 0.28105 -0.21536 0.70663
 N279 N 0.33541 -0.21623 0.71656
 N280 N 0.36715 -0.17941 0.68360
 C281 C 0.34637 -0.13982 0.63941
 N282 N 0.29209 -0.13915 0.62830
 N283 N 0.33414 0.28336 0.21670
 C284 C 0.27982 0.28397 0.20622
 N285 N 0.25915 0.32303 0.16054
 N286 N 0.29112 0.36010 0.12772
 C287 C 0.34534 0.35976 0.13953
 N288 N 0.36597 0.32025 0.18397
 N289 N 0.78032 0.16418 -0.19607
 C290 C 0.78481 0.21975 -0.19009
 N291 N 0.82457 0.24084 -0.14631
 N292 N 0.86069 0.20804 -0.11469
 C293 C 0.85802 0.15286 -0.12588
 N294 N 0.81601 0.13155 -0.16441
 N295 N 0.82713 0.74330 0.35319
 C296 C 0.78466 0.72132 0.31515
 N297 N 0.77623 0.66608 0.31786
 N298 N 0.81109 0.63382 0.35165
 C299 C 0.85599 0.65524 0.38364
 N300 N 0.86251 0.71076 0.38674
 N301 N 0.30862 0.21688 0.34429
 C302 C 0.27242 0.20129 0.29264
 N303 N 0.26384 0.14601 0.28230
 N304 N 0.29193 0.10834 0.31954
 C305 C 0.32890 0.12440 0.37012
 N306 N 0.33655 0.17940 0.38128
 N307 N 0.26537 0.64611 -0.21916
 C308 C 0.27376 0.70133 -0.20820
 N309 N 0.30939 0.71679 -0.15580
 N310 N 0.33694 0.67923 -0.11850
 C311 C 0.32943 0.62428 -0.13016
 N312 N 0.29312 0.60835 -0.18164
 N313 N 1.16960 -0.24563 -0.15880
 C314 C 1.21077 -0.22117 -0.19660
 N315 N 1.21451 -0.16551 -0.19688
 N316 N 1.17681 -0.13550 -0.16553
 C317 C 1.13360 -0.15956 -0.13291
 N318 N 1.13149 -0.21529 -0.12714
 N319 N 1.21120 0.33511 0.29895
 C320 C 1.20965 0.27945 0.30343
 N321 N 1.16942 0.25513 0.34319
 N322 N 1.13038 0.28534 0.37304
 C323 C 1.13029 0.34076 0.36299
 N324 N 1.17249 0.36495 0.32830
 N325 N 0.73465 -0.18058 0.36110
 C326 C 0.72644 -0.19617 0.29090
 N327 N 0.69058 -0.16678 0.25085
 N328 N 0.66254 -0.12574 0.28036
 C329 C 0.66999 -0.11083 0.35067
 N330 N 0.70679 -0.13914 0.39053
 N331 N 0.72713 0.31178 -0.13469
 C332 C 0.72353 0.30229 -0.20732
 N333 N 0.69322 0.33748 -0.24759
 N334 N 0.66592 0.37841 -0.21647
 C335 C 0.66916 0.38767 -0.14401
 N336 N 0.70013 0.35315 -0.10364
 N337 N 1.14904 0.23611 -0.20012
 C338 C 1.20192 0.22001 -0.19889
 N339 N 1.21669 0.18006 -0.15189
 N340 N 1.17924 0.15384 -0.11329
 C341 C 1.12603 0.16728 -0.11878
 N342 N 1.11152 0.20981 -0.16158
 N343 N 1.15046 0.73876 0.29890
 C344 C 1.20322 0.72165 0.29781
 N345 N 1.21735 0.67970 0.34239
 N346 N 1.17956 0.65249 0.37933
 C347 C 1.12653 0.66689 0.37513
 N348 N 1.11265 0.71159 0.33597
 N349 N 0.73803 0.18096 0.33754
 C350 C 0.71826 0.21533 0.28516
 N351 N 0.66602 0.20834 0.26411
 N352 N 0.63477 0.17022 0.29544
 C353 C 0.65425 0.13636 0.34814
 N354 N 0.70666 0.14267 0.36895
 N355 N 0.66608 0.70681 -0.23645
 C356 C 0.71823 0.71453 -0.21540
 N357 N 0.73804 0.68117 -0.16189
 N358 N 0.70682 0.64318 -0.12947
 C359 C 0.65447 0.63616 -0.15027
 N360 N 0.63498 0.66901 -0.20412
 N361 N 0.85185 -0.24002 -0.21077
 C362 C 0.79894 -0.22440 -0.20600
 N363 N 0.78549 -0.18656 -0.15547
 N364 N 0.82391 -0.16205 -0.11629
 C365 C 0.87696 -0.17495 -0.12494
 N366 N 0.89038 -0.21522 -0.17190
 N367 N 0.85179 0.26241 0.29124
 C368 C 0.79850 0.27648 0.29616
 N369 N 0.78377 0.31246 0.34839
 N370 N 0.82126 0.33680 0.38931
 C371 C 0.87467 0.32547 0.38084
 N372 N 0.88937 0.28701 0.33194
 N373 N 0.25848 -0.17889 0.33836
 C374 C 0.27906 -0.21835 0.29300
 N375 N 0.33373 -0.21987 0.28537
 N376 N 0.36561 -0.18348 0.31934
 C377 C 0.34497 -0.14335 0.36266
 N378 N 0.29053 -0.14225 0.37239
 N379 N 0.25898 0.32280 -0.16080
 C380 C 0.28038 0.28315 -0.20488
 N381 N 0.33488 0.28195 -0.21257
 N382 N 0.36620 0.31893 -0.17894
 C383 C 0.34494 0.35911 -0.13625
 N384 N 0.29049 0.35997 -0.12700
 N385 N 1.21536 -0.16451 0.20066
 C386 C 1.21315 -0.22034 0.19685
 N387 N 1.17351 -0.24401 0.15477
 N388 N 1.13544 -0.21334 0.12321
 C389 C 1.13580 -0.15790 0.13301
 N390 N 1.17767 -0.13418 0.16936
 N391 N 1.21741 0.33478 0.69553
 C392 C 1.21231 0.27919 0.69493
 N393 N 1.17132 0.25581 0.65533
 N394 N 1.13449 0.28714 0.62244
 C395 C 1.13784 0.34280 0.62841
 N396 N 1.18102 0.36578 0.66277
 N397 N 0.73363 -0.18303 0.63644
 C398 C 0.72596 -0.19785 0.70699
 N399 N 0.69109 -0.16731 0.74688
 N400 N 0.66367 -0.12582 0.71708
 C401 C 0.67071 -0.11149 0.64651
 N402 N 0.70634 -0.14118 0.60668
 N403 N 0.73371 0.31810 0.13808
 C404 C 0.72616 0.30300 0.20854
 N405 N 0.69105 0.33307 0.24865
 N406 N 0.66326 0.37443 0.21921
 C407 C 0.67014 0.38904 0.14876
 N408 N 0.70605 0.35986 0.10868
 N409 N 0.77926 0.16507 0.18470
 C410 C 0.78601 0.22058 0.18604
 N411 N 0.82843 0.24309 0.14868
 N412 N 0.86490 0.21097 0.11661
 C413 C 0.85988 0.15531 0.12104
 N414 N 0.81532 0.13327 0.15274
 N415 N 0.82730 0.74325 0.64632
 C416 C 0.78574 0.71992 0.68464
 N417 N 0.78120 0.66424 0.68564
 N418 N 0.81856 0.63329 0.65498
 C419 C 0.86235 0.65637 0.62252
 N420 N 0.86510 0.71199 0.61557
 N421 N 0.26465 0.14584 0.71416
 C422 C 0.27447 0.20121 0.70704
 N423 N 0.31201 0.21754 0.65789
 N424 N 0.34004 0.18061 0.62035
 C425 C 0.33119 0.12549 0.62838
 N426 N 0.29284 0.10869 0.67632
 N427 N 0.26223 0.64901 0.21250
 C428 C 0.27249 0.70456 0.20703
 N429 N 0.31080 0.72086 0.15864
 N430 N 0.33921 0.68401 0.12134
 C431 C 0.33008 0.62882 0.12843
 N432 N 0.29072 0.61197 0.17482
   
