data_POSCAR
  _audit_creation_date              2014-09-24
  _audit_creation_method            'ToBaCCo'
  _symmetry_space_group_name_H-M    'P1'
  _symmetry_Int_Tables_number       1
  _symmetry_cell_setting            triclinic
  loop_
  _symmetry_equiv_pos_as_xyz
 x,y,z
_cell_length_a 36.2567
_cell_length_b 35.9269
_cell_length_c 67.7960
_cell_angle_alpha 87.503600
_cell_angle_beta 91.167900
_cell_angle_gamma 120.137400
loop_
  _atom_site_label
  _atom_site_type_symbol
  _atom_site_fract_x
  _atom_site_fract_y
  _atom_site_fract_z
C1 C 0.02060 0.07357 0.52624
 H2 H 0.05022 0.07324 0.52565
 C3 C 0.01766 0.10315 0.53778
 H4 H 0.04505 0.12506 0.54632
 C5 C -0.05092 0.04539 0.51562
 H6 H -0.07720 0.02345 0.50660
 C7 C -0.05528 0.07451 0.52701
 H8 H -0.08507 0.07467 0.52665
 N9 N -0.01336 0.04549 0.51548
 C10 C 0.01424 -0.05666 0.50461
 H11 H 0.01497 -0.05520 0.48864
 C12 C 0.01812 -0.08887 0.51506
 H13 H 0.02267 -0.11164 0.50701
 C14 C 0.00614 -0.02938 0.53441
 H15 H 0.00006 -0.00705 0.54188
 C16 C 0.00987 -0.06107 0.54545
 H17 H 0.00674 -0.06259 0.56135
 Zn18 Zn -0.00369 0.01010 0.49903
 N19 N 0.00814 -0.02791 0.51436
 C20 C 0.07988 0.04673 0.48247
 N21 N 0.04282 0.04762 0.48256
 C22 C 0.03834 0.07775 0.47165
 C23 C 0.07178 0.10841 0.45987
 C24 C 0.11429 0.07697 0.47091
 C25 C -0.08795 -0.05482 0.49334
 C26 C -0.12311 -0.08507 0.48288
 C27 C -0.08438 -0.05241 0.45258
 C28 C -0.05002 -0.02291 0.46370
 N29 N -0.05225 -0.02480 0.48369
 H30 H 0.08308 0.02307 0.49157
 H31 H 0.00877 0.07819 0.47232
 H32 H 0.06774 0.13258 0.45159
 H33 H 0.14354 0.07578 0.47094
 H34 H -0.08881 -0.05575 0.50931
 H35 H -0.15097 -0.10701 0.49147
 H36 H -0.07925 -0.05060 0.43686
 H37 H -0.02085 0.00032 0.45628
 C38 C 0.01532 -0.09176 0.53576
 C39 C -0.02052 0.10419 0.53813
 C40 C -0.12200 -0.08535 0.46197
 C41 C 0.11048 0.10842 0.45944
 C42 C 1.08334 0.03646 0.13615
 H43 H 1.08395 0.06688 0.13620
 C44 C 1.11188 0.03218 0.12431
 H45 H 1.13458 0.05964 0.11535
 C46 C 1.05428 -0.03546 0.14866
 H47 H 1.03226 -0.06143 0.15844
 C48 C 1.08244 -0.04113 0.13707
 H49 H 1.08131 -0.07185 0.13778
 N50 N 1.05527 0.00292 0.14796
 C51 C 0.95623 0.03406 0.15935
 H52 H 0.95801 0.03560 0.17527
 C53 C 0.92430 0.03778 0.14917
 H54 H 0.90210 0.04307 0.15734
 C55 C 0.98224 0.02378 0.12949
 H56 H 1.00388 0.01679 0.12195
 C57 C 0.95082 0.02731 0.11872
 H58 H 0.94885 0.02315 0.10294
 Zn59 Zn 1.02125 0.01435 0.16460
 N60 N 0.98416 0.02687 0.14946
 C61 C 1.05933 0.09920 0.17949
 N62 N 1.05943 0.06137 0.17974
 C63 C 1.08918 0.05624 0.19008
 C64 C 1.12041 0.08984 0.20083
 C65 C 1.09008 0.13378 0.19009
 C66 C 0.95537 -0.06980 0.17260
 C67 C 0.92487 -0.10444 0.18412
 C68 C 0.95865 -0.06486 0.21331
 C69 C 0.98849 -0.03097 0.20124
 N70 N 0.98613 -0.03388 0.18127
 H71 H 1.03597 0.10290 0.17081
 H72 H 1.08874 0.02593 0.18982
 H73 H 1.14356 0.08488 0.20909
 H74 H 1.09007 0.16393 0.18950
 H75 H 0.95368 -0.07086 0.15667
 H76 H 0.89975 -0.13208 0.17689
 H77 H 0.96079 -0.06176 0.22917
 H78 H 1.01255 -0.00182 0.20785
 C79 C 0.92086 0.03367 0.12860
 C80 C 1.11188 -0.00692 0.12476
 C81 C 0.92584 -0.10193 0.20476
 C82 C 1.12136 0.12939 0.20083
 C83 C 0.03100 0.95072 0.86180
 H84 H 0.00048 0.92126 0.86134
 C85 C 0.06428 0.95170 0.87286
 H86 H 0.05888 0.92297 0.88117
 C87 C 0.07483 1.02382 0.85134
 H88 H 0.07901 1.05152 0.84258
 C89 C 0.10909 1.02625 0.86225
 H90 H 0.13945 1.05599 0.86179
 N91 N 0.03673 0.98641 0.85136
 C92 C -0.09219 0.96351 0.84262
 H93 H -0.09348 0.96477 0.82666
 C94 C -0.12600 0.95991 0.85366
 H95 H -0.15236 0.95922 0.84562
 C96 C -0.05356 0.96733 0.87171
 H97 H -0.02492 0.97108 0.87871
 C98 C -0.08653 0.96385 0.88337
 H99 H -0.08282 0.96295 0.89921
 Zn100 Zn -0.00976 0.97956 0.83565
 N101 N -0.05678 0.96746 0.85173
 C102 C -0.06132 0.89709 0.81900
 N103 N -0.02273 0.93396 0.81886
 C104 C 0.00986 0.93879 0.80743
 C105 C 0.00432 0.90595 0.79536
 C106 C -0.06823 0.86323 0.80717
 C107 C 0.01231 1.06594 0.83057
 C108 C 0.01739 1.10284 0.82036
 C109 C 0.00534 1.06620 0.78981
 C110 C 0.00046 1.03000 0.80060
 N111 N 0.00376 1.03042 0.82062
 H112 H -0.08653 0.89359 0.82850
 H113 H 0.04046 0.96815 0.80792
 H114 H 0.03099 0.91021 0.78667
 H115 H -0.09911 0.83408 0.80741
 H116 H 0.01400 1.06513 0.84652
 H117 H 0.02384 1.13067 0.82856
 H118 H 0.00110 1.06466 0.77396
 H119 H -0.00760 1.00110 0.79299
 C120 C -0.12348 0.96092 0.87449
 C121 C 0.10410 0.98972 0.87308
 C122 C 0.01329 1.10305 0.79972
 C123 C -0.03507 0.86744 0.79517
 C124 C 0.46965 -0.00916 -0.00998
 C125 C 0.47147 -0.00616 0.01080
 C126 C 0.50653 -0.00377 0.02107
 C127 C 0.53962 -0.00475 0.01116
 C128 C 0.53730 -0.00876 -0.00957
 C129 C 0.50247 -0.01064 -0.01986
 H130 H 0.50088 -0.01331 -0.03577
 H131 H 0.50809 -0.00111 0.03698
 C132 C -0.01976 0.45535 0.65779
 C133 C -0.01941 0.45418 0.67869
 C134 C -0.02141 0.48652 0.68867
 C135 C -0.02218 0.52083 0.67834
 C136 C -0.01966 0.52349 0.65747
 C137 C -0.01928 0.49030 0.64747
 H138 H -0.01839 0.49181 0.63147
 H139 H -0.02215 0.48510 0.70468
 C140 C 0.54455 0.54850 0.32213
 C141 C 0.54015 0.54989 0.34275
 C142 C 0.50438 0.51631 0.35250
 C143 C 0.47280 0.48151 0.34219
 C144 C 0.47617 0.48121 0.32144
 C145 C 0.51241 0.51426 0.31176
 H146 H 0.51506 0.51404 0.29586
 H147 H 0.50182 0.51659 0.36840
 C148 C -0.06257 0.15691 0.57152
 C149 C -0.02782 0.19897 0.57183
 C150 C 0.00892 0.21010 0.56098
 C151 C 0.01114 0.17933 0.54996
 C152 C -0.02343 0.13686 0.54965
 C153 C -0.06044 0.12602 0.56046
 C154 C -0.02941 0.23085 0.58336
 C155 C -0.02970 0.25821 0.59293
 C156 C -0.02905 0.29086 0.60403
 C157 C -0.02787 0.31914 0.61343
 C158 C -0.02594 0.35328 0.62458
 C159 C 0.00609 0.39595 0.62059
 C160 C 0.00812 0.42919 0.63139
 C161 C -0.02179 0.42005 0.64637
 C162 C -0.05403 0.37718 0.65021
 C163 C -0.05600 0.34396 0.63940
 H164 H -0.09116 0.14794 0.57990
 H165 H 0.03593 0.24259 0.56105
 H166 H 0.03978 0.18890 0.54153
 H167 H -0.08741 0.09352 0.56065
 H168 H 0.02952 0.40352 0.60914
 H169 H 0.03323 0.46200 0.62821
 H170 H -0.07778 0.36949 0.66150
 H171 H -0.08099 0.31108 0.64257
 C172 C 0.84029 0.78747 0.22394
 C173 C 0.82316 0.79828 0.23954
 C174 C 0.84040 0.84148 0.24413
 C175 C 0.87428 0.87382 0.23305
 C176 C 0.89141 0.86339 0.21717
 C177 C 0.87421 0.81980 0.21281
 C178 C 0.78717 0.76527 0.25052
 C179 C 0.75673 0.73792 0.25965
 C180 C 0.72084 0.70609 0.27028
 C181 C 0.69007 0.67891 0.27929
 C182 C 0.65331 0.64629 0.28997
 C183 C 0.62847 0.65766 0.30101
 C184 C 0.59280 0.62588 0.31140
 C185 C 0.58184 0.58245 0.31094
 C186 C 0.60663 0.57125 0.29965
 C187 C 0.64222 0.60301 0.28927
 H188 H 0.82721 0.75411 0.22027
 H189 H 0.82725 0.85022 0.25611
 H190 H 0.88628 0.90707 0.23658
 H191 H 0.88696 0.81072 0.20081
 H192 H 0.63666 0.69104 0.30158
 H193 H 0.57376 0.63512 0.31979
 H194 H 0.59866 0.53794 0.29910
 H195 H 0.66116 0.59385 0.28073
 C196 C 0.20204 0.02729 -0.09434
 C197 C 0.20810 -0.00825 -0.09438
 C198 C 0.18054 -0.04412 -0.10519
 C199 C 0.14690 -0.04465 -0.11583
 C200 C 0.14030 -0.00924 -0.11580
 C201 C 0.16837 0.02685 -0.10501
 C202 C 0.24243 -0.00818 -0.08331
 C203 C 0.27098 -0.00865 -0.07409
 C204 C 0.30432 -0.00952 -0.06336
 C205 C 0.33285 -0.01026 -0.05424
 C206 C 0.36711 -0.01083 -0.04341
 C207 C 0.35832 -0.04278 -0.02868
 C208 C 0.39168 -0.04280 -0.01795
 C209 C 0.43411 -0.01063 -0.02177
 C210 C 0.44273 0.02087 -0.03679
 C211 C 0.40938 0.02082 -0.04751
 H212 H 0.22318 0.05522 -0.08600
 H213 H 0.18505 -0.07172 -0.10539
 H214 H 0.12629 -0.07262 -0.12425
 H215 H 0.16388 0.05441 -0.10455
 H216 H 0.32573 -0.06752 -0.02543
 H217 H 0.38443 -0.06766 -0.00659
 H218 H 0.47523 0.04592 -0.03994
 H219 H 0.41654 0.04564 -0.05889
 C220 C 0.03493 0.84428 0.57654
 C221 C 0.01250 0.80260 0.56943
 C222 C -0.00788 0.79568 0.55110
 C223 C -0.00632 0.83015 0.54001
 C224 C 0.01567 0.87211 0.54712
 C225 C 0.03652 0.87884 0.56546
 C226 C 0.00941 0.76671 0.58111
 C227 C 0.00620 0.73633 0.59085
 C228 C 0.00194 0.70050 0.60220
 C229 C -0.00192 0.66978 0.61186
 C230 C -0.00659 0.63305 0.62338
 C231 C -0.03904 0.59152 0.61897
 C232 C -0.04340 0.55582 0.63009
 C233 C -0.01546 0.56134 0.64581
 C234 C 0.01718 0.60310 0.65008
 C235 C 0.02148 0.63875 0.63896
 H236 H 0.05087 0.85001 0.59070
 H237 H -0.02549 0.76352 0.54550
 H238 H -0.02328 0.82375 0.52611
 H239 H 0.05406 0.91081 0.57124
 H240 H -0.06091 0.58675 0.60693
 H241 H -0.06873 0.52391 0.62655
 H242 H 0.03949 0.60802 0.66193
 H243 H 0.04680 0.67071 0.64246
 C244 C 0.22935 0.20731 0.22221
 C245 C 0.21960 0.23332 0.23319
 C246 C 0.17786 0.22602 0.23330
 C247 C 0.14588 0.19253 0.22260
 C248 C 0.15531 0.16586 0.21172
 C249 C 0.19749 0.17386 0.21153
 C250 C 0.25243 0.26691 0.24459
 C251 C 0.28035 0.29457 0.25416
 C252 C 0.31337 0.32653 0.26541
 C253 C 0.34170 0.35359 0.27505
 C254 C 0.37553 0.38573 0.28662
 C255 C 0.36669 0.40890 0.29995
 C256 C 0.39946 0.44002 0.31125
 C257 C 0.44143 0.44810 0.30944
 C258 C 0.45016 0.42497 0.29592
 C259 C 0.41734 0.39386 0.28461
 H260 H 0.26157 0.21277 0.22196
 H261 H 0.16995 0.24592 0.24180
 H262 H 0.11365 0.18693 0.22317
 H263 H 0.20592 0.15436 0.20304
 H264 H 0.33449 0.40298 0.30159
 H265 H 0.39213 0.45796 0.32136
 H266 H 0.48229 0.43073 0.29428
 H267 H 0.42453 0.37611 0.27432
 C268 C 0.77052 -0.05445 -0.11033
 C269 C 0.78037 -0.03565 -0.09194
 C270 C 0.82146 -0.01935 -0.08434
 C271 C 0.85287 -0.02117 -0.09516
 C272 C 0.84394 -0.03929 -0.11402
 C273 C 0.80180 -0.05633 -0.12125
 C274 C 0.74861 -0.03218 -0.08106
 C275 C 0.72220 -0.02885 -0.07201
 C276 C 0.69135 -0.02473 -0.06148
 C277 C 0.66487 -0.02129 -0.05254
 C278 C 0.63296 -0.01758 -0.04193
 C279 C 0.64452 0.01838 -0.03062
 C280 C 0.61341 0.02166 -0.02021
 C281 C 0.57049 -0.01120 -0.02091
 C282 C 0.55908 -0.04690 -0.03248
 C283 C 0.59016 -0.05010 -0.04289
 H284 H 0.73859 -0.06760 -0.11628
 H285 H 0.82953 -0.00443 -0.07015
 H286 H 0.88459 -0.00614 -0.08896
 H287 H 0.79214 -0.07231 -0.13512
 H288 H 0.67753 0.04382 -0.02983
 H289 H 0.62278 0.04969 -0.01156
 H290 H 0.52616 -0.07254 -0.03321
 H291 H 0.58086 -0.07803 -0.05162
 C292 C 0.18645 0.00614 0.08318
 C293 C 0.20787 -0.01391 0.09161
 C294 C 0.19669 -0.03331 0.11056
 C295 C 0.16472 -0.03200 0.12118
 C296 C 0.14361 -0.01111 0.11298
 C297 C 0.15452 0.00753 0.09377
 C298 C 0.24223 -0.01331 0.08107
 C299 C 0.27137 -0.01219 0.07229
 C300 C 0.30574 -0.01046 0.06205
 C301 C 0.33516 -0.00893 0.05335
 C302 C 0.37019 -0.00734 0.04298
 C303 C 0.38215 -0.03824 0.04742
 C304 C 0.41560 -0.03733 0.03712
 C305 C 0.43730 -0.00563 0.02219
 C306 C 0.42570 0.02580 0.01805
 C307 C 0.39218 0.02482 0.02835
 H308 H 0.19477 0.02116 0.06850
 H309 H 0.21317 -0.04880 0.11725
 H310 H 0.15743 -0.04615 0.13602
 H311 H 0.13848 0.02335 0.08696
 H312 H 0.36540 -0.06322 0.05873
 H313 H 0.42408 -0.06183 0.04052
 H314 H 0.44239 0.05080 0.00675
 H315 H 0.38329 0.04898 0.02484
 C316 C 0.80863 0.85565 0.41988
 C317 C 0.77966 0.81657 0.42921
 C318 C 0.78229 0.81075 0.44955
 C319 C 0.81426 0.84349 0.46053
 C320 C 0.84504 0.88331 0.45140
 C321 C 0.84075 0.88858 0.43073
 C322 C 0.74789 0.78200 0.41786
 C323 C 0.72158 0.75277 0.40838
 C324 C 0.69099 0.71833 0.39732
 C325 C 0.66490 0.68884 0.38791
 C326 C 0.63363 0.65362 0.37670
 C327 C 0.59092 0.64328 0.37694
 C328 C 0.56052 0.60927 0.36599
 C329 C 0.57256 0.58538 0.35459
 C330 C 0.61538 0.59552 0.35461
 C331 C 0.64579 0.62959 0.36556
 H332 H 0.80650 0.86074 0.40412
 H333 H 0.76010 0.78040 0.45692
 H334 H 0.81567 0.83557 0.47596
 H335 H 0.86090 0.91848 0.42265
 H336 H 0.58115 0.66159 0.38554
 H337 H 0.52766 0.60190 0.36618
 H338 H 0.62521 0.57710 0.34613
 H339 H 0.67872 0.63720 0.36534
 C340 C 0.03332 0.18737 0.75911
 C341 C 0.01273 0.20775 0.76675
 C342 C -0.00627 0.19499 0.78544
 C343 C -0.00528 0.16157 0.79633
 C344 C 0.01472 0.14037 0.78865
 C345 C 0.03434 0.15390 0.76998
 C346 C 0.00986 0.24078 0.75521
 C347 C 0.00676 0.26805 0.74554
 C348 C 0.00257 0.29963 0.73422
 C349 C -0.00128 0.32643 0.72455
 C350 C -0.00596 0.35837 0.71300
 C351 C -0.03977 0.36542 0.71677
 C352 C -0.04424 0.39655 0.70558
 C353 C -0.01504 0.42079 0.69043
 C354 C 0.01895 0.41371 0.68682
 C355 C 0.02336 0.38257 0.69800
 H356 H 0.04818 0.19703 0.74466
 H357 H -0.02246 0.21041 0.79146
 H358 H -0.02127 0.15150 0.81050
 H359 H 0.05036 0.13853 0.76376
 H360 H -0.06263 0.34689 0.72835
 H361 H -0.07063 0.40153 0.70861
 H362 H 0.04222 0.43252 0.67543
 H363 H 0.04972 0.37750 0.69501
 C364 C 0.85634 0.05056 0.08800
 C365 C 0.81528 0.02833 0.09614
 C366 C 0.80898 0.00913 0.11510
 C367 C 0.84345 0.01161 0.12579
 C368 C 0.88479 0.03336 0.11765
 C369 C 0.89090 0.05308 0.09867
 C370 C 0.77941 0.02429 0.08491
 C371 C 0.74909 0.02040 0.07557
 C372 C 0.71340 0.01553 0.06472
 C373 C 0.68285 0.01139 0.05551
 C374 C 0.64644 0.00676 0.04457
 C375 C 0.63502 0.03857 0.04525
 C376 C 0.59996 0.03447 0.03451
 C377 C 0.57605 -0.00140 0.02288
 C378 C 0.58725 -0.03355 0.02247
 C379 C 0.62240 -0.02939 0.03321
 H380 H 0.86158 0.06562 0.07334
 H381 H 0.77732 -0.00829 0.12151
 H382 H 0.83754 -0.00451 0.14022
 H383 H 0.92237 0.07040 0.09209
 H384 H 0.65335 0.06662 0.05402
 H385 H 0.59181 0.05958 0.03502
 H386 H 0.56889 -0.06172 0.01379
 H387 H 0.63086 -0.05427 0.03264
 C388 C 0.17377 0.18861 0.41795
 C389 C 0.21499 0.20881 0.42582
 C390 C 0.22239 0.19519 0.44438
 C391 C 0.18856 0.16192 0.45518
 C392 C 0.14686 0.14193 0.44754
 C393 C 0.13992 0.15539 0.42871
 C394 C 0.24939 0.24423 0.41504
 C395 C 0.27788 0.27416 0.40598
 C396 C 0.31097 0.30936 0.39534
 C397 C 0.33911 0.33944 0.38620
 C398 C 0.37267 0.37520 0.37521
 C399 C 0.38067 0.41712 0.37769
 C400 C 0.41328 0.45180 0.36696
 C401 C 0.43805 0.44483 0.35356
 C402 C 0.43006 0.40271 0.35128
 C403 C 0.39746 0.36810 0.36199
 H404 H 0.16771 0.19881 0.40357
 H405 H 0.25417 0.21070 0.45064
 H406 H 0.19484 0.15265 0.46971
 H407 H 0.10829 0.14026 0.42233
 H408 H 0.36169 0.42297 0.38790
 H409 H 0.41896 0.48401 0.36896
 H410 H 0.44923 0.39669 0.34127
 H411 H 0.39166 0.33583 0.36001
 C412 C -0.02525 0.80672 0.75310
 C413 C -0.04561 0.76451 0.76105
 C414 C -0.06437 0.75554 0.77979
 C415 C -0.06201 0.78883 0.79071
 C416 C -0.04066 0.83156 0.78303
 C417 C -0.02281 0.84003 0.76399
 C418 C -0.04549 0.73089 0.75031
 C419 C -0.04428 0.70330 0.74132
 C420 C -0.04183 0.67158 0.73079
 C421 C -0.03907 0.64487 0.72179
 C422 C -0.03520 0.61333 0.71104
 C423 C -0.06362 0.59200 0.69572
 C424 C -0.05952 0.56174 0.68514
 C425 C -0.02673 0.55272 0.68967
 C426 C 0.00144 0.57395 0.70517
 C427 C -0.00273 0.60418 0.71576
 H428 H -0.01068 0.81402 0.73860
 H429 H -0.08005 0.72299 0.78613
 H430 H -0.07562 0.78137 0.80541
 H431 H -0.00667 0.87249 0.75757
 H432 H -0.08892 0.59876 0.69197
 H433 H -0.08196 0.54529 0.67343
 H434 H 0.02693 0.56748 0.70890
 H435 H 0.01946 0.62052 0.72758
   
