data_POSCAR
  _audit_creation_date              2014-09-24
  _audit_creation_method            'ToBaCCo'
  _symmetry_space_group_name_H-M    'P1'
  _symmetry_Int_Tables_number       1
  _symmetry_cell_setting            triclinic
  loop_
  _symmetry_equiv_pos_as_xyz
 x,y,z
_cell_length_a 67.7886
_cell_length_b 67.8389
_cell_length_c 20.4139
_cell_angle_alpha 89.926600
_cell_angle_beta 90.020400
_cell_angle_gamma 120.030300
loop_
  _atom_site_label
  _atom_site_type_symbol
  _atom_site_fract_x
  _atom_site_fract_y
  _atom_site_fract_z
C1 C 0.25559 0.51077 0.52959
 C2 C 0.25486 0.51027 0.46293
 C3 C 0.23512 0.50835 0.42591
 C4 C 0.27362 0.51085 0.42416
 C5 C 0.27414 0.50991 0.56555
 C6 C 0.23750 0.51113 0.56953
 C7 C 0.21298 0.49018 0.43735
 C8 C 0.19447 0.48876 0.40297
 C9 C 0.19793 0.50541 0.35642
 C10 C 0.22005 0.52335 0.34400
 C11 C 0.23855 0.52473 0.37835
 C12 C 0.26935 0.49221 0.38470
 C13 C 0.28725 0.49184 0.35184
 C14 C 0.30950 0.51020 0.35763
 C15 C 0.31377 0.52908 0.39568
 C16 C 0.29589 0.52943 0.42873
 C17 C 0.28930 0.52839 0.60436
 C18 C 0.30726 0.52792 0.63667
 C19 C 0.31002 0.50886 0.63091
 C20 C 0.29472 0.49026 0.59297
 C21 C 0.27683 0.49076 0.56051
 C22 C 0.23164 0.52810 0.56039
 C23 C 0.21372 0.52747 0.59610
 C24 C 0.20162 0.50995 0.64135
 C25 C 0.20776 0.49334 0.65177
 C26 C 0.22572 0.49401 0.61639
 H27 H 0.21005 0.47715 0.47300
 H28 H 0.17750 0.47469 0.41291
 H29 H 0.22305 0.53635 0.30807
 H30 H 0.25552 0.53878 0.36864
 H31 H 0.25229 0.47770 0.38100
 H32 H 0.28381 0.47712 0.32273
 H33 H 0.29942 0.54399 0.45869
 H34 H 0.28742 0.54328 0.60863
 H35 H 0.31900 0.54239 0.66596
 H36 H 0.29663 0.47539 0.58853
 H37 H 0.26510 0.47626 0.53135
 H38 H 0.24075 0.54164 0.52517
 H39 H 0.20915 0.54046 0.58794
 H40 H 0.19848 0.47969 0.68660
 H41 H 0.23005 0.48083 0.62430
 H42 H 0.33093 0.54336 0.40044
 C43 C 0.49155 -0.25509 0.53413
 C44 C 0.49124 -0.25509 0.46732
 C45 C 0.48968 -0.27442 0.42884
 C46 C 0.49330 -0.23545 0.42946
 C47 C 0.49120 -0.23675 0.57295
 C48 C 0.49290 -0.27318 0.57142
 C49 C 0.50631 -0.27033 0.38144
 C50 C 0.50573 -0.28844 0.34725
 C51 C 0.48843 -0.31080 0.35970
 C52 C 0.47143 -0.31497 0.40561
 C53 C 0.47196 -0.29685 0.43976
 C54 C 0.51182 -0.21340 0.43945
 C55 C 0.51349 -0.19501 0.40389
 C56 C 0.49681 -0.19852 0.35755
 C57 C 0.47855 -0.22050 0.34653
 C58 C 0.47686 -0.23890 0.38207
 C59 C 0.47417 -0.23099 0.56307
 C60 C 0.47461 -0.21307 0.59812
 C61 C 0.49193 -0.20090 0.64381
 C62 C 0.50861 -0.20691 0.65498
 C63 C 0.50820 -0.22480 0.61999
 C64 C 0.47610 -0.28621 0.61790
 C65 C 0.47678 -0.30386 0.65135
 C66 C 0.49442 -0.30846 0.63904
 C67 C 0.51154 -0.29513 0.59389
 C68 C 0.51085 -0.27750 0.56048
 H69 H 0.52004 -0.25317 0.37209
 H70 H 0.51895 -0.28503 0.31175
 H71 H 0.45793 -0.33221 0.41543
 H72 H 0.45874 -0.30031 0.47527
 H73 H 0.52494 -0.21047 0.47473
 H74 H 0.52775 -0.17808 0.41255
 H75 H 0.46258 -0.25581 0.37327
 H76 H 0.46068 -0.24025 0.52788
 H77 H 0.46157 -0.20861 0.58926
 H78 H 0.52208 -0.19761 0.69025
 H79 H 0.52142 -0.22903 0.62856
 H80 H 0.46223 -0.28300 0.62725
 H81 H 0.46349 -0.31397 0.68639
 H82 H 0.52537 -0.29840 0.58425
 H83 H 0.52420 -0.26734 0.52570
 H84 H 0.46559 -0.22338 0.31067
 C85 C 1.25252 0.74756 0.53422
 C86 C 1.25255 0.74772 0.46741
 C87 C 1.27030 0.76724 0.42937
 C88 C 1.23461 0.72854 0.42894
 C89 C 1.23325 0.72944 0.57213
 C90 C 1.27154 0.76572 0.57267
 C91 C 1.27448 0.78947 0.43996
 C92 C 1.29142 0.80772 0.40436
 C93 C 1.30417 0.80389 0.35731
 C94 C 1.29975 0.78170 0.34563
 C95 C 1.28284 0.76346 0.38127
 C96 C 1.22218 0.73286 0.38169
 C97 C 1.20487 0.71496 0.34627
 C98 C 1.19990 0.69257 0.35736
 C99 C 1.21251 0.68815 0.40344
 C100 C 1.22989 0.70607 0.43885
 C101 C 1.23739 0.71683 0.61919
 C102 C 1.21934 0.69945 0.65422
 C103 C 1.19696 0.69462 0.64293
 C104 C 1.19277 0.70745 0.59699
 C105 C 1.21083 0.72485 0.56199
 C106 C 1.29419 0.77113 0.56198
 C107 C 1.31198 0.78882 0.59689
 C108 C 1.30727 0.80109 0.64336
 C109 C 1.28468 0.79543 0.65525
 C110 C 1.26691 0.77778 0.62031
 H111 H 1.26465 0.79267 0.47585
 H112 H 1.29457 0.82479 0.41371
 H113 H 1.30944 0.77847 0.30927
 H114 H 1.27974 0.74642 0.37204
 H115 H 1.22563 0.75006 0.37312
 H116 H 1.19522 0.71854 0.31067
 H117 H 1.23956 0.70244 0.47422
 H118 H 1.25458 0.72025 0.62801
 H119 H 1.22284 0.68972 0.68980
 H120 H 1.17557 0.70401 0.58805
 H121 H 1.20734 0.73468 0.52685
 H122 H 1.29808 0.76177 0.52627
 H123 H 1.32938 0.79299 0.58729
 H124 H 1.28079 0.80478 0.69106
 H125 H 1.24956 0.77380 0.62947
 H126 H 1.20884 0.67089 0.41220
 C127 C 0.74531 0.48949 0.53594
 C128 C 0.74487 0.48880 0.46951
 C129 C 0.76353 0.48879 0.43225
 C130 C 0.72695 0.49004 0.43150
 C131 C 0.72695 0.48978 0.57460
 C132 C 0.76444 0.49012 0.57237
 C133 C 0.78256 0.50954 0.41406
 C134 C 0.80082 0.50980 0.38158
 C135 C 0.80012 0.48931 0.36668
 C136 C 0.78102 0.46853 0.38418
 C137 C 0.76278 0.46827 0.41704
 C138 C 0.72421 0.50917 0.43677
 C139 C 0.70687 0.51005 0.40230
 C140 C 0.69218 0.49188 0.36208
 C141 C 0.69502 0.47289 0.35595
 C142 C 0.71243 0.47202 0.39029
 C143 C 0.70427 0.47201 0.56898
 C144 C 0.68689 0.47292 0.60329
 C145 C 0.69203 0.49157 0.64372
 C146 C 0.71467 0.50914 0.65029
 C147 C 0.73204 0.50821 0.61613
 C148 C 0.76318 0.46978 0.59274
 C149 C 0.78158 0.47028 0.62525
 C150 C 0.80132 0.49115 0.63778
 C151 C 0.80259 0.51150 0.61745
 C152 C 0.78424 0.51098 0.58463
 H153 H 0.78337 0.52549 0.42594
 H154 H 0.81554 0.52596 0.36843
 H155 H 0.78030 0.45259 0.37278
 H156 H 0.74819 0.45215 0.43105
 H157 H 0.73546 0.52334 0.46778
 H158 H 0.70488 0.52487 0.40711
 H159 H 0.71431 0.45715 0.38569
 H160 H 0.70006 0.45757 0.53760
 H161 H 0.66947 0.45917 0.59787
 H162 H 0.71889 0.52370 0.68125
 H163 H 0.74937 0.52214 0.62089
 H164 H 0.74806 0.45357 0.58278
 H165 H 0.78042 0.45441 0.64037
 H166 H 0.81776 0.52776 0.62671
 H167 H 0.78551 0.52678 0.56843
 H168 H 0.68374 0.45874 0.32492
 C169 C 0.51074 0.25493 0.53690
 C170 C 0.51034 0.25459 0.47010
 C171 C 0.51077 0.27333 0.43111
 C172 C 0.50875 0.23507 0.43283
 C173 C 0.51202 0.23700 0.57546
 C174 C 0.50902 0.27271 0.57459
 C175 C 0.49376 0.26830 0.38408
 C176 C 0.49347 0.28577 0.34858
 C177 C 0.51026 0.30845 0.35931
 C178 C 0.52756 0.31359 0.40510
 C179 C 0.52790 0.29611 0.44061
 C180 C 0.49069 0.21284 0.44393
 C181 C 0.48971 0.19450 0.41004
 C182 C 0.50661 0.19822 0.36429
 C183 C 0.52434 0.22038 0.35189
 C184 C 0.52535 0.23875 0.38579
 C185 C 0.52953 0.23199 0.56454
 C186 C 0.52971 0.21414 0.59835
 C187 C 0.51255 0.20130 0.64393
 C188 C 0.49547 0.20668 0.65646
 C189 C 0.49526 0.22449 0.62261
 C190 C 0.52569 0.28572 0.62137
 C191 C 0.52446 0.30280 0.65622
 C192 C 0.50641 0.30687 0.64506
 C193 C 0.48948 0.29364 0.59939
 C194 C 0.49070 0.27656 0.56459
 H195 H 0.48045 0.25087 0.37585
 H196 H 0.48002 0.28161 0.31323
 H197 H 0.54068 0.33108 0.41364
 H198 H 0.54138 0.30032 0.47583
 H199 H 0.47747 0.20973 0.47908
 H200 H 0.47583 0.17743 0.41963
 H201 H 0.53928 0.25579 0.37624
 H202 H 0.54283 0.24170 0.52918
 H203 H 0.54308 0.21022 0.58835
 H204 H 0.48210 0.19692 0.69168
 H205 H 0.48168 0.22813 0.63192
 H206 H 0.53983 0.28286 0.63010
 H207 H 0.53764 0.31285 0.69157
 H208 H 0.47535 0.29651 0.59053
 H209 H 0.47743 0.26638 0.52970
 H210 H 0.53744 0.22343 0.31634
 C211 C 0.74276 0.25794 0.53482
 C212 C 0.74235 0.25757 0.46801
 C213 C 0.72437 0.23786 0.43127
 C214 C 0.76034 0.27645 0.42866
 C215 C 0.76259 0.27575 0.57161
 C216 C 0.72385 0.23999 0.57411
 C217 C 0.72042 0.21573 0.44269
 C218 C 0.70305 0.19720 0.40930
 C219 C 0.68962 0.20061 0.36366
 C220 C 0.69381 0.22267 0.35093
 C221 C 0.71118 0.24123 0.38438
 C222 C 0.77254 0.27174 0.38169
 C223 C 0.79046 0.28946 0.34728
 C224 C 0.79625 0.31205 0.35907
 C225 C 0.78372 0.31685 0.40437
 C226 C 0.76575 0.29912 0.43875
 C227 C 0.75938 0.28896 0.61868
 C228 C 0.77805 0.30616 0.65223
 C229 C 0.80006 0.31015 0.63946
 C230 C 0.80328 0.29663 0.59372
 C231 C 0.78463 0.27944 0.56023
 C232 C 0.70120 0.23473 0.56415
 C233 C 0.68341 0.21665 0.59801
 C234 C 0.68812 0.20387 0.64267
 C235 C 0.71070 0.20953 0.65443
 C236 C 0.72849 0.22756 0.62055
 H237 H 0.73072 0.21284 0.47767
 H238 H 0.70007 0.18023 0.41914
 H239 H 0.68361 0.22550 0.31540
 H240 H 0.71411 0.25818 0.37456
 H241 H 0.76859 0.25439 0.37300
 H242 H 0.80004 0.28558 0.31227
 H243 H 0.75627 0.30306 0.47394
 H244 H 0.74248 0.28617 0.62861
 H245 H 0.77530 0.31640 0.68778
 H246 H 0.82019 0.29940 0.58375
 H247 H 0.78737 0.26906 0.52522
 H248 H 0.69731 0.24436 0.52930
 H249 H 0.66599 0.21244 0.58870
 H250 H 0.71452 0.19975 0.68891
 H251 H 0.74582 0.23140 0.62909
 H252 H 0.78802 0.33427 0.41367
 O253 O 0.96825 0.44997 0.12188
 O254 O 0.94325 0.45493 0.05770
 C255 C 0.94788 0.44504 0.10455
 O256 O 1.03238 0.55139 0.11417
 O257 O 1.05729 0.54508 0.05392
 C258 C 1.05274 0.55619 0.09701
 O259 O 0.96849 0.51757 0.12131
 O260 O 0.94332 0.48765 0.05741
 C261 C 0.94806 0.50221 0.10412
 O262 O 1.03213 0.47998 0.11559
 O263 O 1.05721 0.51110 0.05506
 C264 C 1.05254 0.49546 0.09853
 Zr265 Zr 1.00014 0.47470 0.08250
 O266 O 1.00271 0.47514 0.18590
 O267 O 0.99746 0.44224 0.07907
 Zr268 Zr 1.00029 0.52474 0.08144
 O269 O 1.00282 0.52766 0.18465
 O270 O 0.99762 0.55451 0.07560
 O271 O 0.98001 0.48967 0.09491
 O272 O 1.01987 0.50953 0.09415
 O273 O 1.03217 0.47971 -0.11520
 O274 O 1.05719 0.51090 -0.05504
 C275 C 1.05257 0.49522 -0.09817
 O276 O 0.96848 0.51774 -0.12209
 O277 O 0.94333 0.48766 -0.05845
 C278 C 0.94807 0.50237 -0.10487
 O279 O 1.03219 0.55126 -0.11611
 O280 O 1.05716 0.54488 -0.05637
 C281 C 1.05256 0.55605 -0.09928
 O282 O 0.96831 0.44973 -0.12165
 O283 O 0.94325 0.45477 -0.05806
 C284 C 0.94792 0.44476 -0.10441
 Zr285 Zr 1.00016 0.47444 -0.08229
 O286 O 1.00260 0.47412 -0.18556
 O287 O 0.99743 0.44199 -0.07635
 Zr288 Zr 1.00027 0.52445 -0.08344
 O289 O 1.00281 0.52600 -0.18691
 O290 O 0.99777 0.55433 -0.08126
 Zr291 Zr 0.96610 0.48261 -0.00044
 Zr292 Zr 1.03418 0.51650 -0.00043
 O293 O 1.01989 0.50924 -0.09501
 O294 O 0.97997 0.48935 -0.09581
 O295 O 1.02062 0.48094 0.00018
 O296 O 0.98028 0.51819 -0.00099
 O297 O 0.98011 0.46106 0.00017
 O298 O 1.02076 0.53863 -0.00108
 H299 H 1.02994 0.51460 0.13308
 H300 H 0.96981 0.52442 -0.00101
 H301 H 1.02998 0.51423 -0.13392
 H302 H 0.96956 0.44437 0.00041
 H303 H 1.01198 0.56676 0.05654
 H304 H 1.01112 0.56607 -0.05699
 H305 H 0.99044 0.51141 -0.20431
 H306 H 0.99207 0.47885 -0.20365
 H307 H 1.01163 0.44404 -0.05632
 H308 H 1.01139 0.44409 0.05777
 H309 H 0.99108 0.47840 0.20367
 H310 H 0.99259 0.51234 0.20288
 O311 O 0.45027 0.48133 0.12001
 O312 O 0.45518 0.51127 0.05579
 C313 C 0.44525 0.49668 0.10249
 O314 O 0.55162 0.51898 0.11581
 O315 O 0.54553 0.48781 0.05579
 C316 C 0.55648 0.50344 0.09913
 O317 O 0.51768 0.54891 0.12134
 O318 O 0.48784 0.54399 0.05665
 C319 C 0.50228 0.55385 0.10368
 O320 O 0.48048 0.44769 0.11450
 O321 O 0.51177 0.45400 0.05444
 C322 C 0.49608 0.44292 0.09767
 Zr323 Zr 0.47499 0.47422 0.08075
 O324 O 0.47420 0.47114 0.18398
 O325 O 0.44259 0.44440 0.07416
 Zr326 Zr 0.52500 0.52432 0.08215
 O327 O 0.52714 0.52411 0.18555
 O328 O 0.55479 0.55682 0.07834
 O329 O 0.48983 0.50928 0.09410
 O330 O 0.50980 0.48949 0.09400
 O331 O 0.48085 0.44774 -0.11563
 O332 O 0.51209 0.45413 -0.05511
 C333 C 0.49638 0.44295 -0.09820
 O334 O 0.51861 0.54945 -0.12207
 O335 O 0.48836 0.54434 -0.05901
 C336 C 0.50319 0.55443 -0.10507
 O337 O 0.55228 0.51946 -0.11569
 O338 O 0.54593 0.48820 -0.05545
 C339 C 0.55709 0.50392 -0.09857
 O340 O 0.45076 0.48146 -0.12376
 O341 O 0.45554 0.51145 -0.06028
 C342 C 0.44571 0.49684 -0.10692
 Zr343 Zr 0.47557 0.47456 -0.08397
 O344 O 0.47653 0.47268 -0.18735
 O345 O 0.44311 0.44471 -0.08180
 Zr346 Zr 0.52553 0.52461 -0.08269
 O347 O 0.52826 0.52485 -0.18595
 O348 O 0.55536 0.55703 -0.07708
 Zr349 Zr 0.48315 0.51639 -0.00145
 Zr350 Zr 0.51734 0.48257 -0.00037
 O351 O 0.51044 0.48981 -0.09520
 O352 O 0.49044 0.50967 -0.09659
 O353 O 0.48174 0.46038 -0.00135
 O354 O 0.51875 0.53796 -0.00045
 O355 O 0.46169 0.48080 -0.00199
 O356 O 0.53940 0.51813 0.00013
 H357 H 0.51470 0.48443 0.13322
 H358 H 0.52493 0.55464 -0.00026
 H359 H 0.51556 0.48478 -0.13396
 H360 H 0.44499 0.47461 -0.00240
 H361 H 0.56698 0.55494 0.05798
 H362 H 0.56737 0.55498 -0.05610
 H363 H 0.51304 0.52029 -0.20401
 H364 H 0.47945 0.48747 -0.20511
 H365 H 0.44468 0.43295 -0.05745
 H366 H 0.44487 0.43212 0.05644
 H367 H 0.47940 0.48647 0.20216
 H368 H 0.51198 0.52008 0.20304
 O369 O 0.48163 0.03149 0.11962
 O370 O 0.51188 0.05666 0.05631
 C371 C 0.49704 0.05191 0.10236
 O372 O 0.51979 -0.03226 0.11442
 O373 O 0.48850 -0.05733 0.05451
 C374 C 0.50435 -0.05265 0.09727
 O375 O 0.54967 0.03149 0.12131
 O376 O 0.54445 0.05643 0.05770
 C377 C 0.55453 0.05184 0.10412
 O378 O 0.44771 -0.03241 0.11354
 O379 O 0.45431 -0.05731 0.05443
 C380 C 0.44294 -0.05275 0.09673
 Zr381 Zr 0.47462 -0.00047 0.08148
 O382 O 0.47245 -0.00304 0.18484
 O383 O 0.44472 0.00202 0.07817
 Zr384 Zr 0.52467 -0.00033 0.08271
 O385 O 0.52326 -0.00307 0.18617
 O386 O 0.55718 0.00240 0.08209
 O387 O 0.50968 0.01981 0.09510
 O388 O 0.48981 -0.02012 0.09414
 O389 O 0.44840 -0.03256 -0.11651
 O390 O 0.45484 -0.05745 -0.05641
 C391 C 0.44371 -0.05290 -0.09960
 O392 O 0.54982 0.03216 -0.12079
 O393 O 0.54445 0.05696 -0.05690
 C394 C 0.55459 0.05248 -0.10332
 O395 O 0.52015 -0.03195 -0.11529
 O396 O 0.48878 -0.05706 -0.05570
 C397 C 0.50462 -0.05236 -0.09842
 O398 O 0.48181 0.03129 -0.12283
 O399 O 0.51168 0.05630 -0.05859
 C400 C 0.49717 0.05166 -0.10544
 Zr401 Zr 0.47498 -0.00050 -0.08367
 O402 O 0.47329 -0.00299 -0.18713
 O403 O 0.44501 0.00189 -0.08143
 Zr404 Zr 0.52522 -0.00004 -0.08239
 O405 O 0.52549 -0.00233 -0.18570
 O406 O 0.55776 0.00280 -0.07758
 Zr407 Zr 0.51669 0.03358 -0.00035
 Zr408 Zr 0.48300 -0.03428 -0.00051
 O409 O 0.49039 -0.01991 -0.09512
 O410 O 0.51012 0.01991 -0.09587
 O411 O 0.46080 -0.02093 -0.00119
 O412 O 0.53841 0.01975 0.00032
 O413 O 0.48109 0.01941 -0.00119
 O414 O 0.51864 -0.02059 0.00011
 H415 H 0.48468 -0.03035 0.13279
 H416 H 0.55510 0.03029 0.00048
 H417 H 0.48549 -0.02994 -0.13411
 H418 H 0.47480 0.02982 -0.00147
 H419 H 0.55597 -0.01036 0.05562
 H420 H 0.55582 -0.01133 -0.05741
 H421 H 0.52093 0.00836 -0.20352
 H422 H 0.48805 0.00906 -0.20461
 H423 H 0.43306 -0.01185 -0.05895
 H424 H 0.43302 -0.01139 0.05400
 H425 H 0.48750 0.00832 0.20245
 H426 H 0.52150 0.00956 0.20361
 C427 C 1.10694 0.49844 0.19449
 C428 C 1.10649 0.47841 0.21636
 C429 C 1.12560 0.47997 0.24997
 C430 C 1.14500 0.50156 0.26178
 C431 C 1.14540 0.52161 0.24017
 C432 C 1.12635 0.52004 0.20625
 C433 C 1.12722 0.54032 0.18473
 C434 C 1.14637 0.56152 0.19635
 C435 C 1.16492 0.56306 0.22992
 C436 C 1.16455 0.54339 0.25164
 C437 C 1.12478 0.45969 0.27111
 C438 C 1.10563 0.43849 0.25951
 C439 C 1.08693 0.43697 0.22682
 C440 C 1.08726 0.45664 0.20536
 C441 C 1.16449 0.50311 0.29619
 C442 C 1.18058 0.50425 0.32496
 C443 C 1.08745 0.49686 0.16006
 C444 C 1.07138 0.49589 0.13170
 H445 H 1.11315 0.54002 0.15879
 H446 H 1.14674 0.57685 0.17963
 H447 H 1.17970 0.57958 0.23915
 H448 H 1.17942 0.54545 0.27740
 H449 H 1.13890 0.45998 0.29677
 H450 H 1.10530 0.42315 0.27599
 H451 H 1.07208 0.42046 0.21800
 H452 H 1.07231 0.45459 0.18011
 C453 C 0.49667 0.60350 0.20074
 C454 C 0.48072 0.59754 0.25238
 C455 C 0.47798 0.61469 0.28399
 C456 C 0.49145 0.63772 0.26438
 C457 C 0.50733 0.64365 0.21254
 C458 C 0.50991 0.62648 0.18056
 C459 C 0.52585 0.63282 0.12877
 C460 C 0.53886 0.65546 0.10912
 C461 C 0.53636 0.67226 0.14045
 C462 C 0.52082 0.66652 0.19159
 C463 C 0.46171 0.60829 0.33483
 C464 C 0.44858 0.58561 0.35412
 C465 C 0.45141 0.56888 0.32366
 C466 C 0.46729 0.57468 0.27338
 C467 C 0.48952 0.65546 0.29844
 C468 C 0.48862 0.67062 0.32646
 C469 C 0.49912 0.58596 0.16736
 C470 C 0.50087 0.57138 0.13874
 H471 H 0.52845 0.62037 0.10296
 H472 H 0.55095 0.66000 0.06938
 H473 H 0.54652 0.68983 0.12503
 H474 H 0.51947 0.68021 0.21431
 H475 H 0.45892 0.62072 0.36001
 H476 H 0.43615 0.58099 0.39293
 H477 H 0.44114 0.55127 0.33870
 H478 H 0.46879 0.56104 0.25094
 C479 C 0.39029 -0.10655 0.19107
 C480 C 0.36908 -0.12020 0.15968
 C481 C 0.35108 -0.13878 0.19380
 C482 C 0.35442 -0.14361 0.25905
 C483 C 0.37571 -0.13006 0.29024
 C484 C 0.39370 -0.11148 0.25614
 C485 C 0.41485 -0.09823 0.28829
 C486 C 0.41812 -0.10318 0.35228
 C487 C 0.40052 -0.12132 0.38565
 C488 C 0.37952 -0.13466 0.35526
 C489 C 0.33002 -0.15219 0.16143
 C490 C 0.32686 -0.14743 0.09710
 C491 C 0.34448 -0.12930 0.06371
 C492 C 0.36537 -0.11576 0.09440
 C493 C 0.33607 -0.16257 0.29404
 C494 C 0.32100 -0.17831 0.32357
 C495 C 0.40865 -0.08746 0.15655
 C496 C 0.42414 -0.07158 0.12871
 H497 H 0.42907 -0.08394 0.26438
 H498 H 0.43441 -0.09288 0.37608
 H499 H 0.40315 -0.12510 0.43536
 H500 H 0.36636 -0.14859 0.38326
 H501 H 0.31581 -0.16648 0.18537
 H502 H 0.31065 -0.15787 0.07302
 H503 H 0.34194 -0.12571 0.01377
 H504 H 0.37856 -0.10185 0.06639
 C505 C 0.89358 0.49704 0.20507
 C506 C 0.89421 0.51659 0.23182
 C507 C 0.87495 0.51447 0.26579
 C508 C 0.85519 0.49279 0.27310
 C509 C 0.85468 0.47319 0.24717
 C510 C 0.87387 0.47534 0.21264
 C511 C 0.87282 0.45555 0.18622
 C512 C 0.85342 0.43423 0.19403
 C513 C 0.83478 0.43209 0.22854
 C514 C 0.83528 0.45130 0.25481
 C515 C 0.87595 0.53429 0.29181
 C516 C 0.89543 0.55558 0.28449
 C517 C 0.91427 0.55764 0.25133
 C518 C 0.91377 0.53843 0.22524
 C519 C 0.83536 0.49083 0.30637
 C520 C 0.81913 0.48980 0.33386
 C521 C 0.91314 0.49927 0.16950
 C522 C 0.92925 0.50091 0.13976
 H523 H 0.88698 0.45630 0.15960
 H524 H 0.85295 0.41926 0.17378
 H525 H 0.81984 0.41547 0.23501
 H526 H 0.82036 0.44880 0.28119
 H527 H 0.86175 0.53358 0.31812
 H528 H 0.89590 0.57055 0.30472
 H529 H 0.92936 0.57421 0.24579
 H530 H 0.92887 0.54089 0.19995
 C531 C 0.50093 0.39257 0.19335
 C532 C 0.48788 0.36953 0.17372
 C533 C 0.49043 0.35252 0.20696
 C534 C 0.50607 0.35866 0.25952
 C535 C 0.51934 0.38175 0.27857
 C536 C 0.51670 0.39875 0.24558
 C537 C 0.52999 0.42169 0.26596
 C538 C 0.54553 0.42768 0.31725
 C539 C 0.54825 0.41108 0.34912
 C540 C 0.53533 0.38835 0.33028
 C541 C 0.47712 0.32958 0.18658
 C542 C 0.46174 0.32364 0.13490
 C543 C 0.45924 0.34028 0.10246
 C544 C 0.47214 0.36300 0.12136
 C545 C 0.50810 0.34114 0.29478
 C546 C 0.50935 0.32638 0.32418
 C547 C 0.49838 0.40996 0.15934
 C548 C 0.49680 0.42471 0.13105
 H549 H 0.52861 0.43525 0.24239
 H550 H 0.55564 0.44532 0.33198
 H551 H 0.56045 0.41584 0.38864
 H552 H 0.53804 0.37604 0.35657
 H553 H 0.47847 0.31602 0.21023
 H554 H 0.45169 0.30602 0.11996
 H555 H 0.44722 0.33557 0.06252
 H556 H 0.46961 0.37533 0.09456
 C557 C 0.60458 0.10657 0.20226
 C558 C 0.62770 0.11564 0.18428
 C559 C 0.64496 0.13516 0.21704
 C560 C 0.63899 0.14552 0.26751
 C561 C 0.61585 0.13648 0.28537
 C562 C 0.59861 0.11686 0.25291
 C563 C 0.57563 0.10796 0.27218
 C564 C 0.56983 0.11823 0.32179
 C565 C 0.58666 0.13756 0.35303
 C566 C 0.60944 0.14663 0.33530
 C567 C 0.66796 0.14390 0.19826
 C568 C 0.67375 0.13365 0.14857
 C569 C 0.65688 0.11456 0.11654
 C570 C 0.63409 0.10560 0.13396
 C571 C 0.65671 0.16523 0.30159
 C572 C 0.67164 0.18145 0.32982
 C573 C 0.58694 0.08688 0.16795
 C574 C 0.57224 0.07072 0.13899
 H575 H 0.56191 0.09304 0.24904
 H576 H 0.55216 0.11127 0.33565
 H577 H 0.58205 0.14556 0.39123
 H578 H 0.62194 0.16167 0.36107
 H579 H 0.68171 0.15873 0.22164
 H580 H 0.69143 0.14055 0.13485
 H581 H 0.66146 0.10666 0.07799
 H582 H 0.62159 0.09071 0.10765
 C583 C 0.50287 0.10706 -0.20219
 C584 C 0.48987 0.11698 -0.18135
 C585 C 0.49270 0.13695 -0.21267
 C586 C 0.50857 0.14695 -0.26451
 C587 C 0.52176 0.13717 -0.28489
 C588 C 0.51876 0.11706 -0.25398
 C589 C 0.53190 0.10742 -0.27577
 C590 C 0.54776 0.11751 -0.32612
 C591 C 0.55085 0.13731 -0.35586
 C592 C 0.53801 0.14707 -0.33580
 C593 C 0.47945 0.14651 -0.19106
 C594 C 0.46389 0.13663 -0.13994
 C595 C 0.46116 0.11712 -0.10927
 C596 C 0.47394 0.10733 -0.12953
 C597 C 0.51081 0.16690 -0.29778
 C598 C 0.51197 0.18321 -0.32519
 C599 C 0.50030 0.08696 -0.16911
 C600 C 0.49850 0.07058 -0.14057
 H601 H 0.53020 0.09211 -0.25387
 H602 H 0.55781 0.11002 -0.34177
 H603 H 0.56327 0.14514 -0.39471
 H604 H 0.54100 0.16246 -0.36043
 H605 H 0.48099 0.16171 -0.21325
 H606 H 0.45391 0.14417 -0.12403
 H607 H 0.44905 0.10951 -0.06957
 H608 H 0.47117 0.09213 -0.10420
 C609 C 0.60813 0.50013 -0.19398
 C610 C 0.60530 0.47832 -0.20656
 C611 C 0.62250 0.47634 -0.24073
 C612 C 0.64252 0.49619 -0.26157
 C613 C 0.64536 0.51798 -0.24888
 C614 C 0.62810 0.51995 -0.21506
 C615 C 0.63130 0.54191 -0.20305
 C616 C 0.65099 0.56138 -0.22388
 C617 C 0.66788 0.55947 -0.25688
 C618 C 0.66520 0.53807 -0.26936
 C619 C 0.61921 0.45438 -0.25327
 C620 C 0.59956 0.43490 -0.23218
 C621 C 0.58286 0.43683 -0.19816
 C622 C 0.58554 0.45823 -0.18562
 C623 C 0.66025 0.49423 -0.29578
 C624 C 0.67510 0.49284 -0.32417
 C625 C 0.59044 0.50213 -0.15974
 C626 C 0.57548 0.50339 -0.13154
 H627 H 0.61865 0.54427 -0.17747
 H628 H 0.65315 0.57804 -0.21436
 H629 H 0.68315 0.57465 -0.27295
 H630 H 0.67881 0.53747 -0.29524
 H631 H 0.63176 0.45202 -0.27944
 H632 H 0.59730 0.41823 -0.24225
 H633 H 0.56763 0.42165 -0.18184
 H634 H 0.57198 0.45883 -0.15939
 C635 C 0.89313 0.39464 -0.20211
 C636 C 0.87347 0.39667 -0.21019
 C637 C 0.85412 0.37934 -0.24345
 C638 C 0.85447 0.35998 -0.26778
 C639 C 0.87413 0.35795 -0.25964
 C640 C 0.89353 0.37535 -0.22682
 C641 C 0.91300 0.37297 -0.21938
 C642 C 0.91326 0.35390 -0.24347
 C643 C 0.89429 0.33687 -0.27551
 C644 C 0.87491 0.33878 -0.28370
 C645 C 0.83475 0.38186 -0.25153
 C646 C 0.83442 0.40084 -0.22688
 C647 C 0.85323 0.41764 -0.19368
 C648 C 0.87261 0.41573 -0.18553
 C649 C 0.83463 0.34209 -0.30097
 C650 C 0.81832 0.32712 -0.32875
 C651 C 0.91285 0.41229 -0.16797
 C652 C 0.92905 0.42702 -0.13922
 H653 H 0.92820 0.38580 -0.19494
 H654 H 0.92828 0.35234 -0.23725
 H655 H 0.89458 0.32209 -0.29418
 H656 H 0.86059 0.32510 -0.30908
 H657 H 0.81970 0.36921 -0.27692
 H658 H 0.81949 0.40252 -0.23360
 H659 H 0.85290 0.43237 -0.17470
 H660 H 0.88691 0.42937 -0.15998
 C661 C 0.50092 -0.10743 -0.19154
 C662 C 0.52046 -0.10701 -0.21769
 C663 C 0.51826 -0.12638 -0.25111
 C664 C 0.49650 -0.14604 -0.25846
 C665 C 0.47696 -0.14649 -0.23212
 C666 C 0.47919 -0.12716 -0.19829
 C667 C 0.45943 -0.12810 -0.17184
 C668 C 0.43809 -0.14754 -0.17865
 C669 C 0.43589 -0.16634 -0.21225
 C670 C 0.45505 -0.16592 -0.23876
 C671 C 0.53807 -0.12557 -0.27662
 C672 C 0.55942 -0.10618 -0.26938
 C673 C 0.56156 -0.08723 -0.23687
 C674 C 0.54236 -0.08754 -0.21122
 C675 C 0.49433 -0.16575 -0.29295
 C676 C 0.49297 -0.18191 -0.32171
 C677 C 0.50307 -0.08754 -0.15828
 C678 C 0.50428 -0.07125 -0.13087
 H679 H 0.46022 -0.11384 -0.14574
 H680 H 0.42316 -0.14793 -0.15829
 H681 H 0.41925 -0.18134 -0.21782
 H682 H 0.45249 -0.18098 -0.26440
 H683 H 0.53730 -0.13988 -0.30234
 H684 H 0.57440 -0.10587 -0.28914
 H685 H 0.57818 -0.07219 -0.23145
 H686 H 0.54488 -0.07238 -0.18626
 C687 C 0.39568 0.50107 -0.20693
 C688 C 0.40163 0.51754 -0.25709
 C689 C 0.38432 0.51967 -0.29012
 C690 C 0.36115 0.50517 -0.27319
 C691 C 0.35521 0.48862 -0.22326
 C692 C 0.37253 0.48660 -0.18993
 C693 C 0.36618 0.47002 -0.13995
 C694 C 0.34337 0.45582 -0.12341
 C695 C 0.32643 0.45775 -0.15610
 C696 C 0.33218 0.47392 -0.20551
 C697 C 0.39068 0.53641 -0.33962
 C698 C 0.41350 0.55058 -0.35620
 C699 C 0.43041 0.54838 -0.32428
 C700 C 0.42465 0.53210 -0.27520
 C701 C 0.34338 0.50705 -0.30741
 C702 C 0.32832 0.50814 -0.33557
 C703 C 0.41337 0.49924 -0.17206
 C704 C 0.42807 0.49792 -0.14254
 H705 H 0.37873 0.46784 -0.11315
 H706 H 0.33882 0.44325 -0.08502
 H707 H 0.30873 0.44667 -0.14310
 H708 H 0.31838 0.47475 -0.22950
 H709 H 0.37813 0.53872 -0.36593
 H710 H 0.41808 0.56335 -0.39402
 H711 H 0.44812 0.55949 -0.33717
 H712 H 0.43842 0.53114 -0.25147
 C713 C 1.10680 0.60824 -0.19345
 C714 C 1.11537 0.63109 -0.17370
 C715 C 1.13431 0.64897 -0.20695
 C716 C 1.14461 0.64388 -0.25965
 C717 C 1.13617 0.62099 -0.27898
 C718 C 1.11713 0.60312 -0.24601
 C719 C 1.10883 0.58040 -0.26671
 C720 C 1.11914 0.57545 -0.31819
 C721 C 1.13789 0.59291 -0.35003
 C722 C 1.14634 0.61545 -0.33096
 C723 C 1.14252 0.67170 -0.18647
 C724 C 1.13231 0.67661 -0.13464
 C725 C 1.11378 0.65912 -0.10218
 C726 C 1.10535 0.63659 -0.12121
 C727 C 1.16363 0.66220 -0.29453
 C728 C 1.17933 0.67744 -0.32375
 C729 C 1.08743 0.58998 -0.15964
 C730 C 1.07142 0.57465 -0.13181
 H731 H 1.09438 0.56622 -0.24322
 H732 H 1.11266 0.55797 -0.33309
 H733 H 1.14591 0.58896 -0.38975
 H734 H 1.16093 0.62844 -0.35732
 H735 H 1.15688 0.68589 -0.21021
 H736 H 1.13879 0.69409 -0.11963
 H737 H 1.10584 0.66303 -0.06216
 H738 H 1.09090 0.62357 -0.09444
 C739 C 0.89357 0.49836 -0.20264
 C740 C 0.88303 0.48206 -0.25311
 C741 C 0.86348 0.47992 -0.28544
 C742 C 0.85480 0.49430 -0.26773
 C743 C 0.86537 0.51061 -0.21731
 C744 C 0.88479 0.51261 -0.18457
 C745 C 0.89503 0.52900 -0.13420
 C746 C 0.88633 0.54301 -0.11669
 C747 C 0.86736 0.54109 -0.14880
 C748 C 0.85693 0.52511 -0.19855
 C749 C 0.85304 0.46330 -0.33510
 C750 C 0.86177 0.44931 -0.35267
 C751 C 0.88104 0.45158 -0.32154
 C752 C 0.89161 0.46772 -0.27226
 C753 C 0.83529 0.49268 -0.30202
 C754 C 0.81925 0.49176 -0.33036
 C755 C 0.91319 0.50017 -0.16852
 C756 C 0.92928 0.50142 -0.13968
 H757 H 0.90984 0.53117 -0.10788
 H758 H 0.89436 0.55544 -0.07803
 H759 H 0.86069 0.55204 -0.13510
 H760 H 0.84220 0.52425 -0.22198
 H761 H 0.83803 0.46092 -0.36075
 H762 H 0.85354 0.43665 -0.39064
 H763 H 0.88771 0.44062 -0.33520
 H764 H 0.90646 0.46874 -0.24920
 C765 C 0.49941 0.39134 -0.19177
 C766 C 0.51498 0.39695 -0.24429
 C767 C 0.51682 0.37949 -0.27716
 C768 C 0.50291 0.35650 -0.25775
 C769 C 0.48738 0.35090 -0.20511
 C770 C 0.48565 0.36838 -0.17196
 C771 C 0.47002 0.36239 -0.11949
 C772 C 0.45644 0.33975 -0.10042
 C773 C 0.45814 0.32265 -0.13279
 C774 C 0.47341 0.32806 -0.18454
 C775 C 0.53267 0.38554 -0.32907
 C776 C 0.54621 0.40818 -0.34826
 C777 C 0.54426 0.42523 -0.31652
 C778 C 0.52889 0.41979 -0.26503
 C779 C 0.50431 0.33858 -0.29251
 C780 C 0.50534 0.32369 -0.32168
 C781 C 0.49772 0.40923 -0.15798
 C782 C 0.49674 0.42440 -0.13035
 H783 H 0.46809 0.37509 -0.09277
 H784 H 0.44450 0.33544 -0.06040
 H785 H 0.44756 0.30508 -0.11775
 H786 H 0.47414 0.31416 -0.20814
 H787 H 0.53480 0.37287 -0.35527
 H788 H 0.55828 0.41251 -0.38794
 H789 H 0.55485 0.44280 -0.33147
 H790 H 0.52813 0.43369 -0.24156
 C791 C 0.60357 0.10803 -0.20127
 C792 C 0.60071 0.12723 -0.20841
 C793 C 0.61755 0.14695 -0.24156
 C794 C 0.63728 0.14745 -0.26653
 C795 C 0.64010 0.12822 -0.25949
 C796 C 0.62316 0.10844 -0.22688
 C797 C 0.62634 0.08943 -0.22044
 C798 C 0.64573 0.08996 -0.24542
 C799 C 0.66232 0.10932 -0.27723
 C800 C 0.65963 0.12828 -0.28436
 C801 C 0.61422 0.16584 -0.24875
 C802 C 0.59491 0.16535 -0.22331
 C803 C 0.57858 0.14619 -0.19014
 C804 C 0.58132 0.12726 -0.18283
 C805 C 0.65488 0.16778 -0.29861
 C806 C 0.66986 0.18442 -0.32524
 C807 C 0.58644 0.08796 -0.16712
 C808 C 0.57207 0.07151 -0.13830
 H809 H 0.61391 0.07398 -0.19607
 H810 H 0.64788 0.07528 -0.24004
 H811 H 0.67736 0.10966 -0.29652
 H812 H 0.67300 0.14292 -0.30957
 H813 H 0.62649 0.18114 -0.27405
 H814 H 0.59260 0.17993 -0.22933
 H815 H 0.56360 0.14589 -0.17050
 H816 H 0.56804 0.11268 -0.15716
 C817 C 1.10769 0.49967 -0.19330
 C818 C 1.12642 0.52168 -0.20580
 C819 C 1.14579 0.52411 -0.23996
 C820 C 1.14639 0.50453 -0.26090
 C821 C 1.12772 0.48254 -0.24806
 C822 C 1.10830 0.48010 -0.21423
 C823 C 1.08985 0.45795 -0.20197
 C824 C 1.09057 0.43873 -0.22252
 C825 C 1.10956 0.44111 -0.25558
 C826 C 1.12797 0.46271 -0.26833
 C827 C 1.16424 0.54627 -0.25230
 C828 C 1.16366 0.56548 -0.23098
 C829 C 1.14484 0.56310 -0.19695
 C830 C 1.12633 0.54151 -0.18468
 C831 C 1.16621 0.50695 -0.29537
 C832 C 1.18249 0.50857 -0.32410
 C833 C 1.08780 0.49724 -0.15923
 C834 C 1.07150 0.49581 -0.13116
 H835 H 1.07472 0.45523 -0.17632
 H836 H 1.07631 0.42191 -0.21269
 H837 H 1.11004 0.42613 -0.27140
 H838 H 1.14236 0.46367 -0.29416
 H839 H 1.17929 0.54897 -0.27838
 H840 H 1.17791 0.58230 -0.24082
 H841 H 1.14451 0.57809 -0.18035
 H842 H 1.11202 0.54057 -0.15840
 C843 C 0.49982 0.60530 -0.20260
 C844 C 0.47833 0.60363 -0.21211
 C845 C 0.47692 0.62129 -0.24543
 C846 C 0.49702 0.64059 -0.26850
 C847 C 0.51849 0.64223 -0.25908
 C848 C 0.51988 0.62451 -0.22610
 C849 C 0.54153 0.62651 -0.21730
 C850 C 0.56124 0.64549 -0.24038
 C851 C 0.55988 0.66283 -0.27259
 C852 C 0.53880 0.66131 -0.28198
 C853 C 0.45526 0.61919 -0.25484
 C854 C 0.43555 0.60023 -0.23161
 C855 C 0.43695 0.58306 -0.19846
 C856 C 0.45804 0.58462 -0.18884
 C857 C 0.49571 0.65884 -0.30162
 C858 C 0.49497 0.67416 -0.32930
 C859 C 0.50128 0.58732 -0.16838
 C860 C 0.50236 0.57236 -0.13967
 H861 H 0.54346 0.61346 -0.19255
 H862 H 0.57765 0.64674 -0.23323
 H863 H 0.57524 0.67754 -0.29043
 H864 H 0.53863 0.67524 -0.30738
 H865 H 0.45332 0.63213 -0.28021
 H866 H 0.41911 0.59885 -0.23935
 H867 H 0.42159 0.56835 -0.18062
 H868 H 0.45823 0.57073 -0.16324
 C869 C 0.39241 -0.10762 -0.19420
 C870 C 0.36928 -0.11520 -0.17980
 C871 C 0.35179 -0.13448 -0.21282
 C872 C 0.35755 -0.14608 -0.25992
 C873 C 0.38070 -0.13855 -0.27410
 C874 C 0.39819 -0.11920 -0.24133
 C875 C 0.42121 -0.11182 -0.25688
 C876 C 0.42679 -0.12322 -0.30352
 C877 C 0.40969 -0.14225 -0.33518
 C878 C 0.38688 -0.14992 -0.32079
 C879 C 0.32876 -0.14167 -0.19788
 C880 C 0.32319 -0.13007 -0.15190
 C881 C 0.34030 -0.11122 -0.11964
 C882 C 0.36311 -0.10385 -0.13304
 C883 C 0.33964 -0.16541 -0.29477
 C884 C 0.32455 -0.18125 -0.32381
 C885 C 0.41028 -0.08797 -0.16044
 C886 C 0.42535 -0.07180 -0.13249
 H887 H 0.43513 -0.09722 -0.23318
 H888 H 0.44449 -0.11738 -0.31467
 H889 H 0.41412 -0.15112 -0.37106
 H890 H 0.37418 -0.16481 -0.34663
 H891 H 0.31484 -0.15628 -0.22154
 H892 H 0.30550 -0.13575 -0.14126
 H893 H 0.33589 -0.10229 -0.08388
 H894 H 0.37581 -0.08914 -0.10650
 C895 C 0.50328 -0.10677 0.18900
 C896 C 0.52156 -0.10365 0.22964
 C897 C 0.52038 -0.12253 0.26347
 C898 C 0.50096 -0.14444 0.25629
 C899 C 0.48276 -0.14760 0.21522
 C900 C 0.48393 -0.12871 0.18143
 C901 C 0.46551 -0.13228 0.14077
 C902 C 0.44646 -0.15388 0.13379
 C903 C 0.44529 -0.17234 0.16695
 C904 C 0.46319 -0.16934 0.20721
 C905 C 0.53878 -0.11897 0.30421
 C906 C 0.55781 -0.09736 0.31127
 C907 C 0.55900 -0.07890 0.27803
 C908 C 0.54112 -0.08191 0.23762
 C909 C 0.49958 -0.16365 0.29178
 C910 C 0.49836 -0.17956 0.32161
 C911 C 0.50413 -0.08740 0.15603
 C912 C 0.50447 -0.07143 0.12899
 H913 H 0.46562 -0.11845 0.11394
 H914 H 0.43252 -0.15630 0.10249
 H915 H 0.43044 -0.18908 0.16145
 H916 H 0.46151 -0.18423 0.23193
 H917 H 0.53866 -0.13280 0.33103
 H918 H 0.57172 -0.09493 0.34271
 H919 H 0.57384 -0.06216 0.28359
 H920 H 0.54283 -0.06703 0.21278
 C921 C 0.39569 0.50181 0.20179
 C922 C 0.39781 0.52355 0.20907
 C923 C 0.38060 0.52573 0.24240
 C924 C 0.36125 0.50612 0.26748
 C925 C 0.35923 0.48441 0.26068
 C926 C 0.37652 0.48226 0.22784
 C927 C 0.37413 0.46038 0.22160
 C928 C 0.35517 0.44118 0.24700
 C929 C 0.33824 0.44328 0.27910
 C930 C 0.34015 0.46460 0.28601
 C931 C 0.38318 0.54765 0.24966
 C932 C 0.40213 0.56686 0.22419
 C933 C 0.41883 0.56470 0.19088
 C934 C 0.41683 0.54335 0.18344
 C935 C 0.34321 0.50814 0.29940
 C936 C 0.32796 0.50933 0.32583
 C937 C 0.41310 0.49954 0.16697
 C938 C 0.42765 0.49792 0.13768
 H939 H 0.38687 0.45788 0.19710
 H940 H 0.35360 0.42457 0.24174
 H941 H 0.32354 0.42831 0.29878
 H942 H 0.32654 0.46535 0.31145
 H943 H 0.37060 0.55016 0.27508
 H944 H 0.40387 0.58350 0.23031
 H945 H 0.43353 0.57968 0.17121
 H946 H 0.43037 0.54258 0.15767
 C947 C 1.10793 0.60701 0.19105
 C948 C 1.11785 0.60107 0.24295
 C949 C 1.13735 0.61830 0.27585
 C950 C 1.14666 0.64137 0.25707
 C951 C 1.13690 0.64727 0.20462
 C952 C 1.11749 0.63002 0.17144
 C953 C 1.10803 0.63630 0.11915
 C954 C 1.11746 0.65899 0.10026
 C955 C 1.13643 0.67587 0.13270
 C956 C 1.14610 0.67018 0.18434
 C957 C 1.14710 0.61196 0.32719
 C958 C 1.13777 0.58923 0.34573
 C959 C 1.11857 0.57240 0.31397
 C960 C 1.10867 0.57814 0.26307
 C961 C 1.16586 0.65914 0.29267
 C962 C 1.18154 0.67420 0.32223
 C963 C 1.08804 0.58942 0.15749
 C964 C 1.07171 0.57451 0.12972
 H965 H 1.09327 0.62378 0.09238
 H966 H 1.10997 0.66351 0.06033
 H967 H 1.14369 0.69348 0.11780
 H968 H 1.16087 0.68392 0.20800
 H969 H 1.16203 0.62445 0.35338
 H970 H 1.14549 0.58466 0.38494
 H971 H 1.11142 0.55477 0.32845
 H972 H 1.09385 0.56442 0.23958
 C973 C 0.50048 0.10594 0.20078
 C974 C 0.48046 0.10499 0.22500
 C975 C 0.48193 0.12399 0.25872
 C976 C 0.50343 0.14379 0.26815
 C977 C 0.52347 0.14468 0.24430
 C978 C 0.52198 0.12573 0.21021
 C979 C 0.54222 0.12710 0.18612
 C980 C 0.56333 0.14662 0.19561
 C981 C 0.56480 0.16506 0.22954
 C982 C 0.54516 0.16421 0.25365
 C983 C 0.46168 0.12268 0.28237
 C984 C 0.44057 0.10316 0.27289
 C985 C 0.43914 0.08458 0.23991
 C986 C 0.45880 0.08538 0.21617
 C987 C 0.50483 0.16325 0.30203
 C988 C 0.50574 0.17927 0.33027
 C989 C 0.49897 0.08660 0.16600
 C990 C 0.49789 0.07064 0.13698
 H991 H 0.54197 0.11312 0.15991
 H992 H 0.57864 0.14735 0.17704
 H993 H 0.58126 0.18011 0.23722
 H994 H 0.54716 0.17900 0.27964
 H995 H 0.46191 0.13668 0.30841
 H996 H 0.42525 0.10245 0.29128
 H997 H 0.42271 0.06945 0.23266
 H998 H 0.45681 0.07048 0.19090
 C999 C 0.60738 0.49973 0.19538
 C1000 C 0.62703 0.51955 0.21790
 C1001 C 0.64425 0.51762 0.25206
 C1002 C 0.64170 0.49587 0.26352
 C1003 C 0.62200 0.47602 0.24118
 C1004 C 0.60481 0.47796 0.20678
 C1005 C 0.58534 0.45790 0.18446
 C1006 C 0.58292 0.43654 0.19587
 C1007 C 0.59962 0.43463 0.23006
 C1008 C 0.61899 0.45409 0.25249
 C1009 C 0.66375 0.53769 0.27416
 C1010 C 0.66616 0.55905 0.26283
 C1011 C 0.64931 0.56093 0.22938
 C1012 C 0.62993 0.54147 0.20707
 C1013 C 0.65938 0.49399 0.29819
 C1014 C 0.67426 0.49282 0.32716
 C1015 C 0.58970 0.50167 0.16098
 C1016 C 0.57476 0.50289 0.13259
 H1017 H 0.57180 0.45848 0.15805
 H1018 H 0.56791 0.42136 0.17855
 H1019 H 0.59756 0.41798 0.23924
 H1020 H 0.63155 0.45175 0.27872
 H1021 H 0.67732 0.53712 0.30045
 H1022 H 0.68117 0.57422 0.28012
 H1023 H 0.65125 0.57756 0.22067
 H1024 H 0.61730 0.54380 0.18130
 C1025 C 0.89239 0.39589 0.20235
 C1026 C 0.88208 0.37288 0.18222
 C1027 C 0.86194 0.35609 0.21377
 C1028 C 0.85219 0.36242 0.26513
 C1029 C 0.86241 0.38547 0.28494
 C1030 C 0.88269 0.40223 0.25381
 C1031 C 0.89279 0.42511 0.27504
 C1032 C 0.88299 0.43130 0.32509
 C1033 C 0.86302 0.41495 0.35502
 C1034 C 0.85280 0.39225 0.33548
 C1035 C 0.85195 0.33317 0.19284
 C1036 C 0.86157 0.32705 0.14214
 C1037 C 0.88126 0.34348 0.11126
 C1038 C 0.89148 0.36616 0.13089
 C1039 C 0.83202 0.34507 0.29852
 C1040 C 0.81553 0.33023 0.32611
 C1041 C 0.91255 0.41313 0.16873
 C1042 C 0.92895 0.42755 0.13988
 H1043 H 0.90826 0.43847 0.25301
 H1044 H 0.89082 0.44892 0.34028
 H1045 H 0.85540 0.41987 0.39357
 H1046 H 0.83729 0.38014 0.36024
 H1047 H 0.83661 0.31976 0.21523
 H1048 H 0.85370 0.30945 0.12675
 H1049 H 0.88867 0.33864 0.07188
 H1050 H 0.90681 0.37831 0.10547
   
