data_POSCAR
  _audit_creation_date              2014-09-24
  _audit_creation_method            'ToBaCCo'
  _symmetry_space_group_name_H-M    'P1'
  _symmetry_Int_Tables_number       1
  _symmetry_cell_setting            triclinic
  loop_
  _symmetry_equiv_pos_as_xyz
 x,y,z
_cell_length_a 47.3167
_cell_length_b 48.9292
_cell_length_c 47.8506
_cell_angle_alpha 91.415600
_cell_angle_beta 90.358000
_cell_angle_gamma 91.669100
loop_
  _atom_site_label
  _atom_site_type_symbol
  _atom_site_fract_x
  _atom_site_fract_y
  _atom_site_fract_z
N1 N 0.28324 0.20948 0.21556
 N2 N 0.27713 0.23162 0.20205
 C3 C 0.29162 0.23195 0.17792
 C4 C 0.30768 0.20870 0.17612
 C5 C 0.30178 0.19499 0.20053
 H6 H 0.29048 0.24793 0.16279
 H7 H 0.31015 0.17584 0.20696
 Cu8 Cu 0.25047 0.25744 0.21741
 Cu9 Cu 0.26679 0.20092 0.25162
 Cu10 Cu 0.21887 0.24668 0.27894
 N11 N 0.22401 0.28331 0.23306
 N12 N 0.21109 0.27848 0.25675
 C13 C 0.19277 0.29845 0.26208
 C14 C 0.19441 0.31691 0.24067
 C15 C 0.21457 0.30673 0.22269
 H16 H 0.17918 0.29941 0.28012
 H17 H 0.22103 0.31525 0.20301
 N18 N 0.22971 0.21338 0.29817
 N19 N 0.24789 0.19596 0.28778
 C20 C 0.25056 0.17529 0.30558
 C21 C 0.23325 0.17989 0.32834
 C22 C 0.22038 0.20427 0.32288
 H23 H 0.26413 0.15816 0.30222
 H24 H 0.20493 0.21439 0.33568
 H25 H 0.22986 0.22145 0.24585
 H26 H 0.25935 0.24084 0.26418
 N27 N 0.70895 -0.25336 0.21507
 N28 N 0.71526 -0.27862 0.20833
 C29 C 0.69999 -0.28709 0.18586
 C30 C 0.68300 -0.26598 0.17771
 C31 C 0.68932 -0.24482 0.19698
 H32 H 0.70193 -0.30701 0.17595
 H33 H 0.68052 -0.22468 0.19791
 Cu34 Cu 0.74366 -0.29823 0.22845
 Cu35 Cu 0.72695 -0.23428 0.24717
 Cu36 Cu 0.79324 -0.25910 0.26156
 N37 N 0.77945 -0.31288 0.23972
 N38 N 0.79927 -0.29738 0.25185
 C39 C 0.82272 -0.31201 0.25484
 C40 C 0.81733 -0.33830 0.24392
 C41 C 0.78941 -0.33794 0.23469
 H42 H 0.84227 -0.30378 0.26383
 H43 H 0.77740 -0.35412 0.22391
 N44 N 0.77956 -0.22444 0.27765
 N45 N 0.75433 -0.21485 0.27235
 C46 C 0.75054 -0.19232 0.28853
 C47 C 0.77438 -0.18786 0.30514
 C48 C 0.79231 -0.20855 0.29757
 H49 H 0.73124 -0.18102 0.28940
 H50 H 0.81271 -0.21244 0.30673
 H51 H 0.76187 -0.25129 0.23212
 H52 H 0.75024 -0.26476 0.26658
 N53 N 0.72301 0.20139 0.79600
 N54 N 0.73021 0.22291 0.81164
 C55 C 0.71140 0.22550 0.83247
 C56 C 0.69132 0.20433 0.82978
 C57 C 0.69950 0.18944 0.80633
 H58 H 0.71242 0.24156 0.84839
 H59 H 0.68945 0.17105 0.79751
 Cu60 Cu 0.76421 0.24467 0.80408
 Cu61 Cu 0.74524 0.18983 0.76412
 Cu62 Cu 0.79412 0.23809 0.74059
 N63 N 0.79241 0.27096 0.79115
 N64 N 0.80431 0.26815 0.76656
 C65 C 0.82369 0.28851 0.76346
 C66 C 0.82387 0.30529 0.78735
 C67 C 0.80350 0.29341 0.80439
 H68 H 0.83651 0.29086 0.74502
 H69 H 0.79750 0.30009 0.82515
 N70 N 0.78104 0.20592 0.71782
 N71 N 0.76299 0.18731 0.72718
 C72 C 0.75864 0.16766 0.70734
 C73 C 0.77480 0.17407 0.68426
 C74 C 0.78872 0.19853 0.69170
 H75 H 0.74445 0.15015 0.70950
 H76 H 0.80374 0.20986 0.67922
 H77 H 0.78379 0.21121 0.77076
 H78 H 0.75379 0.23032 0.75609
 N79 N 0.28307 -0.21541 0.79070
 N80 N 0.27276 -0.23202 0.80948
 C81 C 0.29085 -0.23239 0.83131
 C82 C 0.31382 -0.21509 0.82586
 C83 C 0.30806 -0.20473 0.79980
 H84 H 0.28767 -0.24463 0.84957
 H85 H 0.32087 -0.19037 0.78821
 Cu86 Cu 0.23713 -0.25214 0.80295
 Cu87 Cu 0.26393 -0.20944 0.75540
 Cu88 Cu 0.19432 -0.23355 0.75116
 N89 N 0.20298 -0.27346 0.79305
 N90 N 0.18626 -0.26595 0.77282
 C91 C 0.16364 -0.28318 0.77107
 C92 C 0.16620 -0.30287 0.79132
 C93 C 0.19164 -0.29593 0.80482
 H94 H 0.14660 -0.28113 0.75620
 H95 H 0.20118 -0.30610 0.82213
 N96 N 0.21089 -0.20764 0.72462
 N97 N 0.23728 -0.19824 0.72640
 C98 C 0.24192 -0.18023 0.70597
 C99 C 0.21741 -0.17866 0.69031
 C100 C 0.19821 -0.19638 0.70263
 H101 H 0.26167 -0.16914 0.70267
 H102 H 0.17645 -0.20035 0.69636
 H103 H 0.22606 -0.21270 0.77491
 H104 H 0.23547 -0.24319 0.75305
 N105 N 0.72216 -0.20300 0.78057
 N106 N 0.72915 -0.22396 0.79552
 C107 C 0.71319 -0.22454 0.81868
 C108 C 0.69502 -0.20281 0.81826
 C109 C 0.70132 -0.18963 0.79360
 H110 H 0.71503 -0.23948 0.83479
 H111 H 0.69163 -0.17165 0.78562
 Cu112 Cu 0.75877 -0.24808 0.78332
 Cu113 Cu 0.74066 -0.19504 0.74519
 Cu114 Cu 0.80512 -0.22654 0.73596
 N115 N 0.78731 -0.27225 0.76863
 N116 N 0.80633 -0.26324 0.75095
 C117 C 0.82553 -0.28261 0.74652
 C118 C 0.81798 -0.30532 0.76203
 C119 C 0.79337 -0.29789 0.77564
 H120 H 0.84360 -0.28009 0.73302
 H121 H 0.78146 -0.30960 0.79063
 N122 N 0.79328 -0.19523 0.71396
 N123 N 0.76861 -0.18364 0.71705
 C124 C 0.76657 -0.16353 0.69852
 C125 C 0.79105 -0.16252 0.68277
 C126 C 0.80747 -0.18299 0.69320
 H127 H 0.74843 -0.15080 0.69647
 H128 H 0.82819 -0.18870 0.68617
 H129 H 0.76246 -0.23094 0.73615
 H130 H 0.77737 -0.20605 0.76287
 N131 N 0.27702 0.23230 0.77721
 N132 N 0.26996 0.25369 0.79248
 C133 C 0.28838 0.25711 0.81396
 C134 C 0.30826 0.23693 0.81175
 C135 C 0.30038 0.22162 0.78810
 H136 H 0.28774 0.27337 0.82965
 H137 H 0.31055 0.20375 0.77963
 Cu138 Cu 0.23847 0.27578 0.78135
 Cu139 Cu 0.25535 0.21986 0.74433
 Cu140 Cu 0.18744 0.24476 0.74240
 N141 N 0.20454 0.29477 0.77114
 N142 N 0.18460 0.28249 0.75582
 C143 C 0.16324 0.29966 0.75239
 C144 C 0.17019 0.32424 0.76618
 C145 C 0.19664 0.32028 0.77786
 H146 H 0.14413 0.29448 0.74070
 H147 H 0.20907 0.33465 0.79069
 N148 N 0.19873 0.21196 0.72106
 N149 N 0.22471 0.20288 0.72130
 C150 C 0.22585 0.18059 0.70434
 C151 C 0.19931 0.17548 0.69264
 C152 C 0.18269 0.19587 0.70371
 H153 H 0.24470 0.16910 0.70067
 H154 H 0.16053 0.19882 0.69949
 H155 H 0.22902 0.25273 0.73619
 H156 H 0.22091 0.23042 0.76634
 N157 N 0.28354 -0.20338 0.20973
 N158 N 0.27629 -0.22373 0.19248
 C159 C 0.29482 -0.22456 0.17128
 C160 C 0.31495 -0.20365 0.17549
 C161 C 0.30707 -0.19069 0.20024
 H162 H 0.29387 -0.23955 0.15431
 H163 H 0.31743 -0.17321 0.21058
 Cu164 Cu 0.24400 -0.24790 0.20008
 Cu165 Cu 0.26204 -0.19538 0.24345
 Cu166 Cu 0.19336 -0.22222 0.24071
 N167 N 0.20878 -0.26828 0.20643
 N168 N 0.18901 -0.25800 0.22234
 C169 C 0.16675 -0.27568 0.22287
 C170 C 0.17286 -0.29850 0.20651
 C171 C 0.19980 -0.29299 0.19635
 H172 H 0.14753 -0.27197 0.23427
 H173 H 0.21205 -0.30598 0.18279
 N174 N 0.20567 -0.19248 0.26684
 N175 N 0.23190 -0.18261 0.26834
 C176 C 0.23372 -0.16333 0.28890
 C177 C 0.20739 -0.16120 0.30116
 C178 C 0.19017 -0.18002 0.28659
 H179 H 0.25292 -0.15206 0.29480
 H180 H 0.16800 -0.18451 0.29018
 H181 H 0.23482 -0.22990 0.24716
 H182 H 0.22780 -0.20459 0.21959
 N183 N 0.72032 0.21855 0.20949
 N184 N 0.72988 0.23699 0.19215
 C185 C 0.71034 0.24063 0.17217
 C186 C 0.68713 0.22360 0.17724
 C187 C 0.69422 0.20994 0.20124
 H188 H 0.71278 0.25478 0.15531
 H189 H 0.68167 0.19453 0.21170
 Cu190 Cu 0.76673 0.25482 0.19760
 Cu191 Cu 0.74252 0.20740 0.24153
 Cu192 Cu 0.81365 0.22736 0.24030
 N193 N 0.80263 0.27339 0.20642
 N194 N 0.82115 0.26247 0.22302
 C195 C 0.84462 0.27868 0.22443
 C196 C 0.84057 0.30111 0.20783
 C197 C 0.81356 0.29700 0.19681
 H198 H 0.86336 0.27411 0.23627
 H199 H 0.80265 0.31007 0.18270
 N200 N 0.79844 0.19885 0.26483
 N201 N 0.77143 0.19137 0.26553
 C202 C 0.76789 0.17163 0.28444
 C203 C 0.79389 0.16670 0.29647
 C204 C 0.81273 0.18438 0.28353
 H205 H 0.74782 0.16180 0.28931
 H206 H 0.83524 0.18652 0.28734
 H207 H 0.77333 0.23908 0.24509
 H208 H 0.77802 0.21128 0.21829
 C209 C 0.20319 0.00519 0.43296
 C210 C 0.20867 0.02820 0.45046
 C211 C 0.20904 0.02496 0.47954
 C212 C 0.20171 -0.00032 0.49142
 C213 C 0.19560 -0.02293 0.47337
 C214 C 0.19708 -0.02047 0.44423
 C215 C 0.19980 -0.00274 0.52249
 C216 C 0.20442 -0.02776 0.53550
 C217 C 0.20180 -0.03013 0.56458
 C218 C 0.19614 -0.00685 0.58109
 C219 C 0.19141 0.01821 0.56858
 C220 C 0.19266 0.01996 0.53941
 H221 H 0.20260 0.00732 0.41049
 H222 H 0.21509 0.04235 0.49286
 H223 H 0.18963 -0.04256 0.48176
 H224 H 0.21016 -0.04558 0.52323
 H225 H 0.19402 -0.00849 0.60353
 H226 H 0.18794 0.03923 0.53007
 C227 C 0.79092 0.00599 0.56175
 C228 C 0.78480 0.02906 0.54618
 C229 C 0.78226 0.02625 0.51695
 C230 C 0.78757 0.00122 0.50298
 C231 C 0.79442 -0.02139 0.51919
 C232 C 0.79537 -0.01934 0.54848
 C233 C 0.78690 -0.00113 0.47165
 C234 C 0.78133 -0.02653 0.45791
 C235 C 0.78353 -0.02953 0.42872
 C236 C 0.78870 -0.00627 0.41275
 C237 C 0.79352 0.01941 0.42588
 C238 C 0.79324 0.02170 0.45519
 H239 H 0.79331 0.00787 0.58425
 H240 H 0.77602 0.04373 0.50524
 H241 H 0.79914 -0.04077 0.50923
 H242 H 0.77571 -0.04439 0.46977
 H243 H 0.79063 -0.00832 0.39025
 H244 H 0.79840 0.04139 0.46497
 C245 C 0.41709 0.20902 -0.00892
 C246 C 0.42970 0.20279 0.01666
 C247 C 0.45928 0.20282 0.01894
 C248 C 0.47654 0.21015 -0.00365
 C249 C 0.46341 0.21709 -0.02889
 C250 C 0.43386 0.21546 -0.03210
 C251 C 0.50804 0.20922 -0.00130
 C252 C 0.52445 0.20281 -0.02489
 C253 C 0.55396 0.20130 -0.02289
 C254 C 0.56714 0.20511 0.00329
 C255 C 0.55126 0.21096 0.02728
 C256 C 0.52189 0.21375 0.02464
 H257 H 0.39428 0.20756 -0.01104
 H258 H 0.46869 0.19687 0.03846
 H259 H 0.47610 0.22359 -0.04637
 H260 H 0.51440 0.19883 -0.04499
 H261 H 0.58973 0.20250 0.00507
 H262 H 0.50996 0.21958 0.04294
 C263 C 0.58447 0.78958 -0.00038
 C264 C 0.56875 0.78172 0.02289
 C265 C 0.53969 0.78624 0.02378
 C266 C 0.52612 0.79916 0.00162
 C267 C 0.54249 0.80766 -0.02132
 C268 C 0.57148 0.80237 -0.02279
 C269 C 0.49483 0.80265 0.00171
 C270 C 0.47940 0.80118 -0.02355
 C271 C 0.45007 0.80467 -0.02405
 C272 C 0.43580 0.80850 0.00129
 C273 C 0.45053 0.80923 0.02688
 C274 C 0.48008 0.80683 0.02688
 H275 H 0.60687 0.78559 -0.00100
 H276 H 0.52769 0.77877 0.04136
 H277 H 0.53260 0.81782 -0.03850
 H278 H 0.49004 0.79667 -0.04300
 H279 H 0.41322 0.81155 0.00109
 H280 H 0.49147 0.80796 0.04657
 C281 C 0.01917 0.42448 0.21818
 C282 C 0.04295 0.44138 0.22459
 C283 C 0.03992 0.46987 0.22667
 C284 C 0.01374 0.48168 0.22116
 C285 C -0.00953 0.46429 0.21394
 C286 C -0.00711 0.43578 0.21278
 C287 C 0.01071 0.51202 0.22167
 C288 C -0.01537 0.52351 0.22839
 C289 C -0.01975 0.55158 0.22555
 C290 C 0.00317 0.56876 0.21824
 C291 C 0.02984 0.55798 0.21277
 C292 C 0.03325 0.52959 0.21399
 H293 H 0.02138 0.40254 0.21607
 H294 H 0.05809 0.48269 0.23263
 H295 H -0.02970 0.47282 0.20887
 H296 H -0.03261 0.51055 0.23557
 H297 H 0.00007 0.59040 0.21565
 H298 H 0.05350 0.52127 0.20864
 C299 C -0.01395 0.57934 0.78588
 C300 C 0.01170 0.56686 0.79150
 C301 C 0.01264 0.53822 0.79079
 C302 C -0.01138 0.52186 0.78340
 C303 C -0.03680 0.53491 0.77742
 C304 C -0.03844 0.56354 0.77929
 C305 C -0.00990 0.49132 0.78262
 C306 C -0.03370 0.47470 0.78896
 C307 C -0.03206 0.44610 0.78878
 C308 C -0.00602 0.43401 0.78375
 C309 C 0.01822 0.45011 0.77810
 C310 C 0.01573 0.47857 0.77642
 H311 H -0.01505 0.60140 0.78775
 H312 H 0.03230 0.52879 0.79606
 H313 H -0.05544 0.52293 0.77111
 H314 H -0.05361 0.48380 0.79419
 H315 H -0.00455 0.41206 0.78541
 H316 H 0.03399 0.49074 0.77030
 C317 C 0.34952 0.20853 0.10885
 C318 C 0.36511 0.18553 0.11196
 C319 C 0.36273 0.16908 0.13512
 C320 C 0.34356 0.17667 0.15597
 C321 C 0.32725 0.20048 0.15344
 C322 C 0.33034 0.21649 0.12930
 O323 O 0.35560 0.22185 0.08571
 C324 C 0.37553 0.20694 0.07400
 C325 C 0.38214 0.18450 0.08924
 C326 C 0.40325 0.16673 0.08138
 C327 C 0.41838 0.17254 0.05699
 C328 C 0.41213 0.19574 0.04106
 C329 C 0.39009 0.21293 0.04954
 H330 H 0.37540 0.15118 0.13722
 H331 H 0.34183 0.16406 0.17413
 H332 H 0.31849 0.23478 0.12644
 H333 H 0.40823 0.14932 0.09382
 H334 H 0.43514 0.15917 0.05063
 H335 H 0.38520 0.23101 0.03805
 C336 C 0.63337 0.75741 0.12304
 C337 C 0.62949 0.73367 0.10740
 C338 C 0.64210 0.70944 0.11414
 C339 C 0.65961 0.70967 0.13788
 C340 C 0.66438 0.73397 0.15454
 C341 C 0.65055 0.75813 0.14691
 O342 O 0.62037 0.77849 0.11230
 C343 C 0.60808 0.76775 0.08936
 C344 C 0.61298 0.74034 0.08545
 C345 C 0.60312 0.72523 0.06218
 C346 C 0.58782 0.73903 0.04195
 C347 C 0.58271 0.76727 0.04546
 C348 C 0.59274 0.78181 0.06958
 H349 H 0.63886 0.69104 0.10136
 H350 H 0.66936 0.69071 0.14292
 H351 H 0.65355 0.77722 0.15855
 H352 H 0.60752 0.70375 0.05943
 H353 H 0.58036 0.72796 0.02333
 H354 H 0.58946 0.80352 0.07233
 C355 C 0.64100 0.20667 -0.10908
 C356 C 0.62127 0.18685 -0.11726
 C357 C 0.62303 0.17217 -0.14238
 C358 C 0.64611 0.17810 -0.15974
 C359 C 0.66689 0.19845 -0.15177
 C360 C 0.66409 0.21291 -0.12596
 O361 O 0.63537 0.21839 -0.08452
 C362 C 0.61155 0.20568 -0.07704
 C363 C 0.60201 0.18619 -0.09633
 C364 C 0.57729 0.17064 -0.09273
 C365 C 0.56169 0.17550 -0.06833
 C366 C 0.57101 0.19565 -0.04817
 C367 C 0.59645 0.21080 -0.05266
 H368 H 0.60717 0.15672 -0.14844
 H369 H 0.64752 0.16688 -0.17939
 H370 H 0.67942 0.22846 -0.11897
 H371 H 0.57021 0.15538 -0.10818
 H372 H 0.54248 0.16349 -0.06506
 H373 H 0.60397 0.22653 -0.03789
 C374 C 0.36386 0.78860 -0.11196
 C375 C 0.38638 0.80301 -0.12291
 C376 C 0.38670 0.81188 -0.15026
 C377 C 0.36278 0.80573 -0.16700
 C378 C 0.33909 0.79096 -0.15623
 C379 C 0.33986 0.78225 -0.12820
 O380 O 0.36773 0.78222 -0.08543
 C381 C 0.39327 0.79286 -0.07952
 C382 C 0.40559 0.80579 -0.10175
 C383 C 0.43221 0.81853 -0.10008
 C384 C 0.44671 0.81795 -0.07444
 C385 C 0.43450 0.80471 -0.05111
 C386 C 0.40732 0.79196 -0.05386
 H387 H 0.40470 0.82317 -0.15843
 H388 H 0.36296 0.81244 -0.18835
 H389 H 0.32228 0.77113 -0.11906
 H390 H 0.44141 0.82871 -0.11782
 H391 H 0.46725 0.82820 -0.07265
 H392 H 0.39746 0.78148 -0.03663
 C393 C 0.13379 0.36529 0.24350
 C394 C 0.14460 0.38658 0.22823
 C395 C 0.17158 0.38656 0.21686
 C396 C 0.18801 0.36359 0.22129
 C397 C 0.17733 0.34141 0.23704
 C398 C 0.14989 0.34250 0.24853
 O399 O 0.10716 0.36858 0.25110
 C400 C 0.10100 0.39247 0.24041
 C401 C 0.12322 0.40443 0.22637
 C402 C 0.12102 0.42904 0.21271
 C403 C 0.09472 0.44161 0.21318
 C404 C 0.07125 0.42936 0.22699
 C405 C 0.07468 0.40457 0.24112
 H406 H 0.17950 0.40340 0.20463
 H407 H 0.20902 0.36314 0.21248
 H408 H 0.14092 0.32568 0.26014
 H409 H 0.13871 0.43793 0.20155
 H410 H 0.09238 0.46034 0.20191
 H411 H 0.05720 0.39467 0.25177
 C412 C 0.10306 0.64992 0.78775
 C413 C 0.10909 0.63258 0.80898
 C414 C 0.13359 0.63540 0.82505
 C415 C 0.15263 0.65699 0.81904
 C416 C 0.14701 0.67539 0.79716
 C417 C 0.12161 0.67147 0.78137
 O418 O 0.07878 0.64364 0.77478
 C419 C 0.06926 0.62183 0.78813
 C420 C 0.08699 0.61418 0.80924
 C421 C 0.08118 0.59164 0.82563
 C422 C 0.05616 0.57631 0.81990
 C423 C 0.03758 0.58371 0.79809
 C424 C 0.04429 0.60697 0.78214
 H425 H 0.13794 0.62144 0.84164
 H426 H 0.17166 0.65909 0.83160
 H427 H 0.11610 0.68461 0.76448
 H428 H 0.09544 0.58600 0.84215
 H429 H 0.05121 0.55876 0.83252
 H430 H 0.03079 0.61296 0.76513
 C431 C -0.11646 0.62219 0.24437
 C432 C -0.12624 0.59782 0.23261
 C433 C -0.15431 0.59298 0.22502
 C434 C -0.17312 0.61425 0.22940
 C435 C -0.16372 0.64004 0.24111
 C436 C -0.13480 0.64367 0.24904
 O437 O -0.08877 0.62280 0.24926
 C438 C -0.08094 0.59826 0.24027
 C439 C -0.10313 0.58222 0.22992
 C440 C -0.09969 0.55621 0.21845
 C441 C -0.07222 0.54629 0.21750
 C442 C -0.04877 0.56230 0.22810
 C443 C -0.05339 0.58872 0.23975
 H444 H -0.16146 0.57357 0.21574
 H445 H -0.19492 0.61033 0.22335
 H446 H -0.12636 0.66276 0.25791
 H447 H -0.11745 0.54416 0.21002
 H448 H -0.06921 0.52639 0.20777
 H449 H -0.03610 0.60154 0.24799
 C450 C -0.11917 0.35892 0.78189
 C451 C -0.12442 0.37484 0.80523
 C452 C -0.14637 0.36889 0.82344
 C453 C -0.16356 0.34557 0.81739
 C454 C -0.15885 0.32876 0.79319
 C455 C -0.13620 0.33594 0.77520
 O456 O -0.09680 0.36759 0.76769
 C457 C -0.08776 0.38953 0.78235
 C458 C -0.10400 0.39501 0.80544
 C459 C -0.09821 0.41713 0.82364
 C460 C -0.07467 0.43420 0.81782
 C461 C -0.05738 0.42865 0.79435
 C462 C -0.06415 0.40599 0.77637
 H463 H -0.15003 0.38163 0.84180
 H464 H -0.18066 0.34104 0.83157
 H465 H -0.13127 0.32383 0.75677
 H466 H -0.11128 0.42106 0.84170
 H467 H -0.06958 0.45138 0.83182
 H468 H -0.05143 0.40137 0.75822
 C469 C 0.23170 0.11832 0.37464
 C470 C 0.21798 0.12864 0.39766
 C471 C 0.20932 0.15550 0.39965
 C472 C 0.21484 0.17238 0.37691
 C473 C 0.22870 0.16218 0.35270
 C474 C 0.23746 0.13473 0.35183
 O475 O 0.23724 0.09199 0.37649
 C476 C 0.22669 0.08552 0.40118
 C477 C 0.21470 0.10723 0.41498
 C478 C 0.20137 0.10474 0.44061
 C479 C 0.20010 0.07877 0.45238
 C480 C 0.21218 0.05589 0.43854
 C481 C 0.22595 0.05957 0.41263
 H482 H 0.19841 0.16312 0.41794
 H483 H 0.20819 0.19333 0.37826
 H484 H 0.24772 0.12602 0.33370
 H485 H 0.19169 0.12204 0.45087
 H486 H 0.18887 0.07639 0.47185
 H487 H 0.23546 0.04272 0.40146
 C488 C 0.77036 0.11532 0.63139
 C489 C 0.78319 0.12698 0.60872
 C490 C 0.79333 0.15395 0.60915
 C491 C 0.79019 0.16947 0.63399
 C492 C 0.77717 0.15785 0.65779
 C493 C 0.76697 0.13034 0.65619
 O494 O 0.76324 0.08911 0.62716
 C495 C 0.77184 0.08406 0.60126
 C496 C 0.78414 0.10652 0.58899
 C497 C 0.79570 0.10538 0.56236
 C498 C 0.79496 0.07997 0.54801
 C499 C 0.78275 0.05632 0.56040
 C500 C 0.77060 0.05871 0.58731
 H501 H 0.80356 0.16266 0.59112
 H502 H 0.79800 0.19048 0.63457
 H503 H 0.75734 0.12050 0.67390
 H504 H 0.80562 0.12324 0.55324
 H505 H 0.80486 0.07855 0.52772
 H506 H 0.76103 0.04123 0.59743
 C507 C 0.21950 -0.11880 0.64215
 C508 C 0.20173 -0.12848 0.62106
 C509 C 0.18858 -0.15428 0.62130
 C510 C 0.19393 -0.17073 0.64426
 C511 C 0.21246 -0.16133 0.66608
 C512 C 0.22560 -0.13504 0.66484
 O513 O 0.22857 -0.09318 0.63868
 C514 C 0.21633 -0.08657 0.61484
 C515 C 0.19989 -0.10754 0.60310
 C516 C 0.18476 -0.10491 0.57837
 C517 C 0.18638 -0.07953 0.56537
 C518 C 0.20265 -0.05734 0.57739
 C519 C 0.21800 -0.06106 0.60243
 H520 H 0.17438 -0.16131 0.60465
 H521 H 0.18378 -0.19082 0.64498
 H522 H 0.23941 -0.12715 0.68146
 H523 H 0.17185 -0.12166 0.56960
 H524 H 0.17423 -0.07686 0.54643
 H525 H 0.23051 -0.04449 0.61212
 C526 C 0.77096 -0.12355 0.35049
 C527 C 0.78732 -0.13085 0.37280
 C528 C 0.79990 -0.15606 0.37427
 C529 C 0.79551 -0.17459 0.35177
 C530 C 0.77857 -0.16777 0.32850
 C531 C 0.76594 -0.14188 0.32799
 O532 O 0.76183 -0.09816 0.35294
 C533 C 0.77264 -0.08934 0.37737
 C534 C 0.78825 -0.10868 0.39036
 C535 C 0.80183 -0.10384 0.41588
 C536 C 0.79942 -0.07791 0.42852
 C537 C 0.78374 -0.05732 0.41554
 C538 C 0.77008 -0.06324 0.38953
 H539 H 0.81281 -0.16123 0.39201
 H540 H 0.80504 -0.19438 0.35271
 H541 H 0.75315 -0.13601 0.31041
 H542 H 0.81415 -0.11937 0.42556
 H543 H 0.81052 -0.07362 0.44807
 H544 H 0.75806 -0.04799 0.37905
 C545 C 0.64817 0.79458 -0.11800
 C546 C 0.63508 0.81923 -0.11937
 C547 C 0.64041 0.83752 -0.14064
 C548 C 0.66006 0.83011 -0.16121
 C549 C 0.67395 0.80476 -0.16020
 C550 C 0.66766 0.78680 -0.13816
 O551 O 0.64026 0.78005 -0.09622
 C552 C 0.62178 0.79587 -0.08348
 C553 C 0.61778 0.82009 -0.09674
 C554 C 0.59914 0.83953 -0.08685
 C555 C 0.58405 0.83371 -0.06236
 C556 C 0.58788 0.80882 -0.04830
 C557 C 0.60710 0.78971 -0.05919
 H558 H 0.62990 0.85685 -0.14133
 H559 H 0.66453 0.84430 -0.17769
 H560 H 0.67747 0.76722 -0.13659
 H561 H 0.59630 0.85846 -0.09760
 H562 H 0.56960 0.84865 -0.05423
 H563 H 0.61020 0.77033 -0.04935
 C564 C 0.35547 0.23604 -0.12423
 C565 C 0.37805 0.22219 -0.13483
 C566 C 0.37935 0.21307 -0.16251
 C567 C 0.35633 0.21829 -0.17999
 C568 C 0.33269 0.23251 -0.16963
 C569 C 0.33246 0.24173 -0.14134
 O570 O 0.35798 0.24192 -0.09705
 C571 C 0.38269 0.23152 -0.09039
 C572 C 0.39583 0.21933 -0.11280
 C573 C 0.42146 0.20644 -0.11047
 C574 C 0.43401 0.20589 -0.08390
 C575 C 0.42088 0.21811 -0.06024
 C576 C 0.39483 0.23126 -0.06370
 H577 H 0.39730 0.20205 -0.17030
 H578 H 0.35703 0.21130 -0.20160
 H579 H 0.31459 0.25226 -0.13267
 H580 H 0.43122 0.19673 -0.12839
 H581 H 0.45357 0.19518 -0.08166
 H582 H 0.38419 0.24072 -0.04616
 C583 C 0.36509 0.79785 0.11418
 C584 C 0.38588 0.81578 0.12419
 C585 C 0.38479 0.82812 0.15064
 C586 C 0.36135 0.82168 0.16741
 C587 C 0.33958 0.80314 0.15758
 C588 C 0.34169 0.79114 0.13045
 O589 O 0.36999 0.78840 0.08850
 C590 C 0.39442 0.80062 0.08213
 C591 C 0.40512 0.81757 0.10322
 C592 C 0.43057 0.83230 0.10082
 C593 C 0.44552 0.82944 0.07565
 C594 C 0.43482 0.81212 0.05353
 C595 C 0.40886 0.79750 0.05703
 H596 H 0.40139 0.84217 0.15812
 H597 H 0.36042 0.83101 0.18808
 H598 H 0.32555 0.77712 0.12198
 H599 H 0.43858 0.84557 0.11767
 H600 H 0.46517 0.84100 0.07326
 H601 H 0.40025 0.78384 0.04077
 C602 C 0.63561 0.22596 0.11673
 C603 C 0.61224 0.21292 0.12772
 C604 C 0.61178 0.20318 0.15479
 C605 C 0.63646 0.20697 0.17111
 C606 C 0.66092 0.22030 0.16019
 C607 C 0.66024 0.23003 0.13256
 O608 O 0.63216 0.23275 0.09029
 C609 C 0.60604 0.22377 0.08440
 C610 C 0.59286 0.21153 0.10658
 C611 C 0.56576 0.19984 0.10458
 C612 C 0.55187 0.20047 0.07858
 C613 C 0.56519 0.21265 0.05521
 C614 C 0.59259 0.22479 0.05847
 H615 H 0.59320 0.19281 0.16296
 H616 H 0.63638 0.19951 0.19220
 H617 H 0.67851 0.23987 0.12324
 H618 H 0.55591 0.19003 0.12221
 H619 H 0.53116 0.19062 0.07644
 H620 H 0.60338 0.23434 0.04120
 C621 C -0.12483 0.64405 0.75866
 C622 C -0.13712 0.62297 0.77313
 C623 C -0.16431 0.62402 0.78374
 C624 C -0.17938 0.64789 0.77955
 C625 C -0.16722 0.67024 0.76479
 C626 C -0.13954 0.66779 0.75381
 O627 O -0.09816 0.63968 0.75182
 C628 C -0.09352 0.61530 0.76224
 C629 C -0.11674 0.60412 0.77535
 C630 C -0.11617 0.57926 0.78878
 C631 C -0.09051 0.56556 0.78904
 C632 C -0.06603 0.57692 0.77616
 C633 C -0.06781 0.60204 0.76223
 H634 H -0.17345 0.60726 0.79533
 H635 H -0.20050 0.64866 0.78795
 H636 H -0.12902 0.68421 0.74286
 H637 H -0.13462 0.57103 0.79927
 H638 H -0.08946 0.54664 0.80023
 H639 H -0.04957 0.61132 0.75225
 C640 C -0.09585 0.34985 0.21304
 C641 C -0.10164 0.36726 0.19177
 C642 C -0.12569 0.36425 0.17505
 C643 C -0.14456 0.34239 0.18047
 C644 C -0.13917 0.32405 0.20234
 C645 C -0.11429 0.32796 0.21878
 O646 O -0.07209 0.35658 0.22676
 C647 C -0.06268 0.37873 0.21385
 C648 C -0.08000 0.38611 0.19228
 C649 C -0.07443 0.40895 0.17628
 C650 C -0.05013 0.42497 0.18293
 C651 C -0.03201 0.41796 0.20526
 C652 C -0.03835 0.39430 0.22075
 H653 H -0.12984 0.37827 0.15847
 H654 H -0.16322 0.33983 0.16741
 H655 H -0.10947 0.31466 0.23578
 H656 H -0.08838 0.41434 0.15941
 H657 H -0.04538 0.44281 0.17066
 H658 H -0.02514 0.38859 0.23809
 C659 C 0.10832 0.37147 0.76288
 C660 C 0.11998 0.39487 0.77517
 C661 C 0.14788 0.39678 0.78444
 C662 C 0.16439 0.37357 0.78103
 C663 C 0.15281 0.34897 0.76866
 C664 C 0.12431 0.34817 0.75927
 O665 O 0.08115 0.37358 0.75642
 C666 C 0.07553 0.39885 0.76493
 C667 C 0.09857 0.41275 0.77654
 C668 C 0.09708 0.43905 0.78793
 C669 C 0.07070 0.45142 0.78765
 C670 C 0.04642 0.43749 0.77596
 C671 C 0.04917 0.41086 0.76410
 H672 H 0.15656 0.41540 0.79421
 H673 H 0.18609 0.37490 0.78822
 H674 H 0.11448 0.32985 0.75003
 H675 H 0.11542 0.44943 0.79734
 H676 H 0.06908 0.47147 0.79748
 H677 H 0.03127 0.39957 0.75493
 C678 C 0.11337 0.64861 0.21219
 C679 C 0.12053 0.63011 0.19153
 C680 C 0.14437 0.63366 0.17502
 C681 C 0.16150 0.65725 0.18001
 C682 C 0.15458 0.67671 0.20125
 C683 C 0.13003 0.67213 0.21749
 O684 O 0.09008 0.64135 0.22576
 C685 C 0.08231 0.61774 0.21338
 C686 C 0.10021 0.60990 0.19231
 C687 C 0.09613 0.58563 0.17686
 C688 C 0.07273 0.56874 0.18351
 C689 C 0.05402 0.57632 0.20530
 C690 C 0.05894 0.60133 0.22029
 H691 H 0.14963 0.61881 0.15888
 H692 H 0.18000 0.66029 0.16718
 H693 H 0.12407 0.68620 0.23406
 H694 H 0.11048 0.57987 0.16035
 H695 H 0.06911 0.54986 0.17159
 H696 H 0.04531 0.60756 0.23724
 C697 C 0.78901 -0.10340 0.63337
 C698 C 0.81057 -0.10981 0.61545
 C699 C 0.82661 -0.13293 0.61841
 C700 C 0.82015 -0.15012 0.64072
 C701 C 0.79790 -0.14402 0.65949
 C702 C 0.78217 -0.12020 0.65560
 O703 O 0.77628 -0.08056 0.62692
 C704 C 0.79007 -0.07239 0.60441
 C705 C 0.81123 -0.08957 0.59646
 C706 C 0.82808 -0.08493 0.57323
 C707 C 0.82283 -0.06169 0.55753
 C708 C 0.80110 -0.04365 0.56533
 C709 C 0.78460 -0.04916 0.58923
 H710 H 0.84344 -0.13763 0.60401
 H711 H 0.83232 -0.16831 0.64304
 H712 H 0.76521 -0.11468 0.66950
 H713 H 0.84463 -0.09872 0.56737
 H714 H 0.83583 -0.05762 0.53948
 H715 H 0.76765 -0.03599 0.59554
 C716 C 0.20802 -0.10328 0.35496
 C717 C 0.18446 -0.11013 0.37026
 C718 C 0.16750 -0.13318 0.36406
 C719 C 0.17514 -0.14983 0.34117
 C720 C 0.19948 -0.14331 0.32512
 C721 C 0.21612 -0.11963 0.33228
 O722 O 0.22118 -0.08046 0.36418
 C723 C 0.20561 -0.07276 0.38579
 C724 C 0.18294 -0.09024 0.39049
 C725 C 0.16409 -0.08612 0.41230
 C726 C 0.16885 -0.06307 0.42998
 C727 C 0.19204 -0.04467 0.42545
 C728 C 0.21060 -0.04967 0.40294
 H729 H 0.14906 -0.13819 0.37641
 H730 H 0.16226 -0.16797 0.33628
 H731 H 0.23467 -0.11386 0.32042
 H732 H 0.14640 -0.10016 0.41561
 H733 H 0.15435 -0.05938 0.44699
 H734 H 0.22865 -0.03618 0.39914
 C735 C 0.78899 0.10608 0.34392
 C736 C 0.81251 0.11097 0.36053
 C737 C 0.83074 0.13344 0.35726
 C738 C 0.82450 0.15160 0.33597
 C739 C 0.80022 0.14718 0.31865
 C740 C 0.78221 0.12403 0.32282
 O741 O 0.77453 0.08348 0.35040
 C742 C 0.78919 0.07395 0.37162
 C743 C 0.81256 0.09009 0.37871
 C744 C 0.83059 0.08419 0.40068
 C745 C 0.82419 0.06076 0.41604
 C746 C 0.80026 0.04372 0.40909
 C747 C 0.78264 0.05037 0.38639
 H748 H 0.84911 0.13688 0.37061
 H749 H 0.83838 0.16930 0.33332
 H750 H 0.76367 0.11988 0.30988
 H751 H 0.84881 0.09723 0.40592
 H752 H 0.83793 0.05576 0.43325
 H753 H 0.76410 0.03787 0.38080
 C754 C 0.19895 0.10981 0.64929
 C755 C 0.17520 0.11284 0.63309
 C756 C 0.15825 0.13550 0.63556
 C757 C 0.16615 0.15589 0.65550
 C758 C 0.19076 0.15341 0.67230
 C759 C 0.20729 0.12987 0.66909
 O760 O 0.21244 0.08700 0.64332
 C761 C 0.19691 0.07542 0.62282
 C762 C 0.17392 0.09044 0.61571
 C763 C 0.15547 0.08261 0.59403
 C764 C 0.16113 0.05846 0.57890
 C765 C 0.18475 0.04266 0.58580
 C766 C 0.20269 0.05116 0.60832
 H767 H 0.13974 0.13752 0.62246
 H768 H 0.15336 0.17380 0.65736
 H769 H 0.22609 0.12716 0.68158
 H770 H 0.13765 0.09488 0.58867
 H771 H 0.14725 0.05210 0.56172
 H772 H 0.22111 0.03972 0.61371
   
