data_POSCAR
  _audit_creation_date              2014-09-24
  _audit_creation_method            'ToBaCCo'
  _symmetry_space_group_name_H-M    'P1'
  _symmetry_Int_Tables_number       1
  _symmetry_cell_setting            triclinic
  loop_
  _symmetry_equiv_pos_as_xyz
 x,y,z
_cell_length_a 43.1832
_cell_length_b 43.4687
_cell_length_c 34.0218
_cell_angle_alpha 90.071400
_cell_angle_beta 89.870200
_cell_angle_gamma 120.738500
loop_
  _atom_site_label
  _atom_site_type_symbol
  _atom_site_fract_x
  _atom_site_fract_y
  _atom_site_fract_z
C1 C 0.08883 0.56038 0.07247
 C2 C 0.08919 0.52904 0.07232
 C3 C 0.05795 0.50385 0.05350
 N4 N 0.03854 0.51871 0.04208
 C5 C 0.05737 0.55327 0.05374
 C6 C 0.04606 0.46704 0.05073
 C7 C 0.01672 0.44308 0.02709
 C8 C -0.00148 0.40614 0.03049
 C9 C -0.02745 0.39273 0.00169
 C10 C -0.02398 0.42188 -0.01895
 N11 N 0.00297 0.45247 -0.00315
 C12 C -0.04484 0.42008 -0.05193
 C13 C -0.04559 0.45064 -0.06501
 C14 C -0.05472 0.45511 -0.10275
 C15 C -0.05503 0.48639 -0.10267
 C16 C -0.04610 0.50011 -0.06487
 N17 N -0.03978 0.47848 -0.04189
 C18 C -0.04592 0.53113 -0.05161
 C19 C -0.02541 0.55049 -0.01841
 C20 C -0.02958 0.57559 0.00253
 C21 C -0.00367 0.58883 0.03139
 C22 C 0.01520 0.57105 0.02771
 N23 N 0.00189 0.54782 -0.00273
 C24 C 0.04476 0.57743 0.05124
 H25 H 0.10905 0.58536 0.08556
 H26 H 0.10975 0.52505 0.08529
 H27 H 0.01292 0.53337 -0.01442
 H28 H 0.00319 0.39049 0.05181
 H29 H -0.04684 0.36470 -0.00316
 H30 H -0.06050 0.43761 -0.12778
 H31 H -0.06108 0.49783 -0.12763
 H32 H 0.00053 0.60896 0.05292
 H33 H 0.01347 0.47813 -0.01462
 H34 H -0.04938 0.58340 -0.00218
 C35 C 0.51638 0.45522 -0.10121
 C36 C 0.54802 0.48740 -0.10010
 C37 C 0.54905 0.50255 -0.06396
 N38 N 0.51924 0.48059 -0.04270
 C39 C 0.49932 0.45137 -0.06536
 C40 C 0.57856 0.53491 -0.05016
 C41 C 0.57629 0.55381 -0.01766
 C42 C 0.60547 0.58204 0.00108
 C43 C 0.59163 0.59410 0.02969
 C44 C 0.55441 0.57286 0.02753
 N45 N 0.54533 0.54860 -0.00164
 C46 C 0.52989 0.57712 0.05106
 C47 C 0.49282 0.55118 0.05353
 C48 C 0.46733 0.55625 0.07253
 C49 C 0.43562 0.52404 0.07150
 C50 C 0.44275 0.50036 0.05187
 N51 N 0.47774 0.51698 0.04092
 C52 C 0.41804 0.46333 0.04788
 C53 C 0.42436 0.44053 0.02395
 C54 C 0.40524 0.40352 0.02635
 C55 C 0.41906 0.39132 -0.00205
 C56 C 0.44592 0.42121 -0.02151
 N57 N 0.44891 0.45113 -0.00543
 C58 C 0.46680 0.42039 -0.05338
 H59 H 0.50703 0.43672 -0.12568
 H60 H 0.56800 0.49845 -0.12329
 H61 H 0.46458 0.47709 -0.01610
 H62 H 0.63376 0.59294 -0.00533
 H63 H 0.60719 0.61606 0.04971
 H64 H 0.47131 0.58049 0.08624
 H65 H 0.41033 0.51851 0.08437
 H66 H 0.41054 0.36355 -0.00733
 H67 H 0.51958 0.53190 -0.01269
 H68 H 0.38389 0.38702 0.04681
 C69 C 0.43415 0.90897 0.06950
 C70 C 0.46542 0.90811 0.07046
 C71 C 0.49129 0.93858 0.05112
 N72 N 0.47687 0.95801 0.03836
 C73 C 0.44193 0.93992 0.04956
 C74 C 0.52815 0.94942 0.04844
 C75 C 0.55292 0.97805 0.02451
 C76 C 0.59010 0.99400 0.02649
 C77 C 0.60422 1.01971 -0.00248
 C78 C 0.57526 1.01869 -0.02125
 N79 N 0.54413 0.99305 -0.00490
 C80 C 0.57782 1.03966 -0.05404
 C81 C 0.54867 1.04259 -0.06790
 C82 C 0.54780 1.05644 -0.10423
 C83 C 0.51658 1.05729 -0.10532
 C84 C 0.49965 1.04459 -0.06927
 N85 N 0.51920 1.03525 -0.04651
 C86 C 0.46765 1.04359 -0.05717
 C87 C 0.44683 1.02237 -0.02486
 C88 C 0.42075 1.02619 -0.00520
 C89 C 0.40665 1.00039 0.02358
 C90 C 0.42483 0.98185 0.02122
 N91 N 0.44910 0.99521 -0.00849
 C92 C 0.41789 0.95267 0.04548
 H93 H 0.40874 0.88937 0.08259
 H94 H 0.46886 0.88766 0.08434
 H95 H 0.46406 0.98433 -0.01916
 H96 H 0.60545 0.98772 0.04665
 H97 H 0.63255 1.03703 -0.00909
 H98 H 0.56762 1.06499 -0.12753
 H99 H 0.50746 1.06637 -0.12989
 H100 H 0.38573 0.99610 0.04427
 H101 H 0.51842 0.98396 -0.01583
 H102 H 0.41294 1.04582 -0.01058
 C103 C 0.91110 0.47087 0.57181
 C104 C 0.91145 0.43952 0.57163
 C105 C 0.94304 0.44676 0.55294
 N106 N 0.96196 0.48141 0.54161
 C107 C 0.94248 0.49619 0.55321
 C108 C 0.95568 0.42263 0.55026
 C109 C 0.98544 0.42918 0.52683
 C110 C 1.00424 0.41134 0.53038
 C111 C 1.03045 0.42485 0.50173
 C112 C 1.02651 0.45016 0.48103
 N113 N 0.99907 0.45269 0.49667
 C114 C 1.04736 0.46981 0.44807
 C115 C 1.04769 0.50096 0.43510
 C116 C 1.05692 0.51496 0.39744
 C117 C 1.05657 0.54622 0.39761
 C118 C 1.04711 0.55040 0.43537
 N119 N 1.04114 0.52239 0.45824
 C120 C 1.04612 0.58080 0.44867
 C121 C 1.02504 0.57873 0.48167
 C122 C 1.02835 0.60771 0.50260
 C123 C 1.00216 0.59408 0.53126
 C124 C 0.98398 0.55716 0.52747
 N125 N 0.99797 0.54801 0.49716
 C126 C 0.95444 0.53302 0.55086
 H127 H 0.89048 0.47477 0.58486
 H128 H 0.89115 0.41444 0.58453
 H129 H 0.98755 0.52246 0.48541
 H130 H 0.99980 0.39100 0.55168
 H131 H 1.05029 0.41706 0.49699
 H132 H 1.06317 0.50371 0.37238
 H133 H 1.06250 0.56388 0.37272
 H134 H 0.99733 0.60956 0.55273
 H135 H 0.98817 0.46727 0.48509
 H136 H 1.04778 0.63578 0.49801
 C137 C 0.44639 0.52277 0.41142
 C138 C 0.47762 0.55535 0.41282
 C139 C 0.49898 0.55292 0.44158
 N140 N 0.48162 0.51991 0.45782
 C141 C 0.44944 0.50138 0.43952
 C142 C 0.53420 0.58081 0.45120
 C143 C 0.55678 0.57824 0.47952
 C144 C 0.59285 0.60382 0.48476
 C145 C 0.60569 0.59131 0.51374
 C146 C 0.57718 0.55839 0.52557
 N147 N 0.54730 0.55096 0.50507
 C148 C 0.57988 0.53637 0.55440
 C149 C 0.55259 0.50074 0.56302
 C150 C 0.55586 0.47916 0.59069
 C151 C 0.52455 0.44663 0.58943
 C152 C 0.50292 0.44929 0.56119
 N153 N 0.52019 0.48237 0.54512
 C154 C 0.46752 0.42155 0.55190
 C155 C 0.44492 0.42422 0.52370
 C156 C 0.40871 0.39891 0.51885
 C157 C 0.39594 0.41135 0.48971
 C158 C 0.42463 0.44398 0.47744
 N159 N 0.45454 0.45129 0.49780
 C160 C 0.42208 0.46582 0.44827
 H161 H 0.42393 0.51577 0.39197
 H162 H 0.48390 0.57816 0.39448
 H163 H 0.48046 0.47218 0.49243
 H164 H 0.60853 0.62870 0.46889
 H165 H 0.63314 0.60475 0.52441
 H166 H 0.57851 0.48601 0.60977
 H167 H 0.51841 0.42371 0.60749
 H168 H 0.36844 0.39807 0.47923
 H169 H 0.52148 0.52976 0.51003
 H170 H 0.39291 0.37423 0.53504
 C171 C 0.43721 -0.08834 0.43087
 C172 C 0.46845 -0.08912 0.43104
 C173 C 0.49541 -0.05570 0.44368
 N174 N 0.48157 -0.03460 0.45187
 C175 C 0.44599 -0.05448 0.44346
 C176 C 0.53249 -0.04454 0.44531
 C177 C 0.55644 -0.01609 0.47018
 C178 C 0.59378 0.00242 0.46759
 C179 C 0.60657 0.02689 0.49781
 C180 C 0.57673 0.02305 0.51762
 N181 N 0.54631 -0.00324 0.50073
 C182 C 0.57812 0.04271 0.55127
 C183 C 0.54835 0.04482 0.56484
 C184 C 0.54716 0.05993 0.60029
 C185 C 0.51569 0.06045 0.60039
 C186 C 0.49874 0.04567 0.56498
 N187 N 0.51870 0.03605 0.54329
 C188 C 0.46731 0.04462 0.55157
 C189 C 0.44835 0.02552 0.51775
 C190 C 0.42331 0.03058 0.49792
 C191 C 0.41052 0.00638 0.46744
 C192 C 0.42768 -0.01322 0.46993
 N193 N 0.45078 -0.00127 0.50065
 C194 C 0.42156 -0.04184 0.44483
 H195 H 0.41093 -0.11026 0.42251
 H196 H 0.47106 -0.11176 0.42284
 H197 H 0.46495 -0.01292 0.51143
 H198 H 0.61020 -0.00103 0.44600
 H199 H 0.63464 0.04564 0.50420
 H200 H 0.56723 0.07017 0.62333
 H201 H 0.50668 0.07116 0.62354
 H202 H 0.39103 0.00381 0.44578
 H203 H 0.52021 -0.01403 0.51157
 H204 H 0.41539 0.04999 0.50444
 O205 O 0.16441 0.39262 0.21333
 O206 O 0.22568 0.39246 0.28901
 O207 O 0.16576 0.39382 0.28998
 O208 O 0.22424 0.39074 0.21236
 O209 O 0.25560 0.44991 0.21123
 O210 O 0.19767 0.45297 0.28825
 O211 O 0.25708 0.45162 0.28727
 O212 O 0.19632 0.45178 0.21219
 Cu213 Cu 0.19180 0.38639 0.25125
 Cu214 Cu 0.22983 0.45748 0.24954
 C215 C 0.16995 0.42239 0.20030
 C216 C 0.25184 0.42216 0.30074
 C217 C 0.17189 0.42408 0.30204
 C218 C 0.25002 0.41994 0.19901
 O219 O 0.60357 0.77177 0.21192
 O220 O 0.60506 0.83375 0.28742
 O221 O 0.60507 0.77337 0.28853
 O222 O 0.60289 0.83177 0.21097
 O223 O 0.54333 0.80099 0.21300
 O224 O 0.54550 0.74311 0.28999
 O225 O 0.54549 0.80296 0.28892
 O226 O 0.54401 0.74149 0.21393
 Cu227 Cu 0.61021 0.80574 0.24953
 Cu228 Cu 0.53863 0.76906 0.25166
 C229 C 0.57344 0.74601 0.20044
 C230 C 0.57537 0.82893 0.30055
 C231 C 0.57549 0.74818 0.30209
 C232 C 0.57260 0.82634 0.19923
 O233 O 0.22252 0.83590 0.20995
 O234 O 0.16345 0.77597 0.28894
 O235 O 0.22392 0.83787 0.28652
 O236 O 0.16188 0.77396 0.21218
 O237 O 0.19294 0.74632 0.21267
 O238 O 0.25436 0.80959 0.28632
 O239 O 0.19455 0.74836 0.28868
 O240 O 0.25292 0.80759 0.21045
 Cu241 Cu 0.18977 0.80874 0.24934
 Cu242 Cu 0.22673 0.77515 0.24954
 C243 C 0.24796 0.83197 0.19723
 C244 C 0.16910 0.75190 0.30195
 C245 C 0.24984 0.83455 0.29866
 C246 C 0.16692 0.74920 0.20014
 O247 O 0.77542 0.60814 0.79077
 O248 O 0.83609 0.60742 0.71435
 O249 O 0.77585 0.60854 0.71403
 O250 O 0.83537 0.60687 0.79102
 O251 O 0.80373 0.54769 0.79009
 O252 O 0.74482 0.54936 0.71376
 O253 O 0.80449 0.54824 0.71406
 O254 O 0.74433 0.54895 0.78986
 Cu255 Cu 0.80886 0.61377 0.75253
 Cu256 Cu 0.77119 0.54265 0.75184
 C257 C 0.74955 0.57850 0.80310
 C258 C 0.83063 0.57757 0.70163
 C259 C 0.75010 0.57909 0.70117
 C260 C 0.82953 0.57680 0.80337
 O261 O 0.39453 0.22665 0.71187
 O262 O 0.39545 0.16607 0.78754
 O263 O 0.39460 0.22591 0.78858
 O264 O 0.39530 0.16666 0.71082
 O265 O 0.45487 0.19779 0.71081
 O266 O 0.45418 0.25646 0.78787
 O267 O 0.45502 0.19719 0.78687
 O268 O 0.45411 0.25721 0.71182
 Cu269 Cu 0.38890 0.19318 0.74969
 Cu270 Cu 0.46050 0.23024 0.74929
 C271 C 0.42430 0.25233 0.69933
 C272 C 0.42558 0.17146 0.79979
 C273 C 0.42447 0.25133 0.80117
 C274 C 0.42535 0.17219 0.69795
 O275 O 0.83610 0.22514 0.78809
 O276 O 0.77577 0.16505 0.71008
 O277 O 0.83687 0.22655 0.71140
 O278 O 0.77524 0.16377 0.78687
 O279 O 0.74538 0.19263 0.78717
 O280 O 0.80647 0.25486 0.71236
 O281 O 0.74600 0.19400 0.71110
 O282 O 0.80562 0.25338 0.78836
 Cu283 Cu 0.80905 0.19219 0.74897
 Cu284 Cu 0.77284 0.22656 0.74977
 C285 C 0.83096 0.24954 0.80121
 C286 C 0.75053 0.16937 0.69767
 C287 C 0.83215 0.25152 0.69946
 C288 C 0.74983 0.16770 0.79965
 C289 C 0.10262 0.43247 0.12484
 C290 C 0.08014 0.44350 0.14136
 C291 C 0.06076 0.45355 0.11713
 C292 C 0.06371 0.45273 0.07610
 C293 C 0.08524 0.44044 0.05957
 C294 C 0.10476 0.43046 0.08389
 C295 C 0.12564 0.42639 0.15014
 C296 C 0.14558 0.42340 0.17247
 H297 H 0.07845 0.44537 0.17297
 H298 H 0.04423 0.46295 0.13030
 H299 H 0.08784 0.43977 0.02796
 H300 H 0.12226 0.42220 0.07081
 C301 C 0.56329 0.66870 0.12486
 C302 C 0.55347 0.63546 0.14143
 C303 C 0.54381 0.60594 0.11726
 C304 C 0.54382 0.60937 0.07625
 C305 C 0.55482 0.64298 0.05964
 C306 C 0.56443 0.67256 0.08390
 C307 C 0.56915 0.69773 0.15018
 C308 C 0.57216 0.72063 0.17255
 H309 H 0.55228 0.63212 0.17305
 H310 H 0.53534 0.58015 0.13047
 H311 H 0.55482 0.64596 0.02804
 H312 H 0.57174 0.69810 0.07080
 C313 C 0.32480 0.89854 0.11948
 C314 C 0.35844 0.92275 0.13566
 C315 C 0.38847 0.94148 0.11131
 C316 C 0.38513 0.93616 0.07050
 C317 C 0.35113 0.91298 0.05415
 C318 C 0.32105 0.89410 0.07862
 C319 C 0.29548 0.87577 0.14532
 C320 C 0.27269 0.85605 0.16834
 H321 H 0.36173 0.92616 0.16723
 H322 H 0.41457 0.95922 0.12431
 H323 H 0.34824 0.90852 0.02270
 H324 H 0.29522 0.87518 0.06582
 C325 C 0.89769 0.56726 0.62558
 C326 C 0.91996 0.55594 0.64188
 C327 C 0.93938 0.54598 0.61746
 C328 C 0.93667 0.54715 0.57646
 C329 C 0.91533 0.55970 0.56015
 C330 C 0.89578 0.56960 0.58467
 C331 C 0.87471 0.57336 0.65106
 C332 C 0.85485 0.57643 0.67357
 H333 H 0.92148 0.55382 0.67346
 H334 H 0.95577 0.53638 0.63046
 H335 H 0.91293 0.56066 0.52856
 H336 H 0.87844 0.57808 0.57176
 C337 C 0.43270 0.32784 0.62223
 C338 C 0.42908 0.35611 0.63642
 C339 C 0.43898 0.38605 0.61283
 C340 C 0.45265 0.38796 0.57489
 C341 C 0.45506 0.35908 0.56022
 C342 C 0.44517 0.32913 0.58385
 C343 C 0.42730 0.29950 0.64838
 C344 C 0.42478 0.27712 0.67119
 H345 H 0.41981 0.35556 0.66617
 H346 H 0.43723 0.40829 0.62455
 H347 H 0.46581 0.36036 0.53108
 H348 H 0.44842 0.30758 0.57272
 C349 C 0.67480 0.10562 0.61759
 C350 C 0.66126 0.12233 0.59383
 C351 C 0.63055 0.10180 0.57108
 C352 C 0.61300 0.06430 0.57192
 C353 C 0.62739 0.04761 0.59456
 C354 C 0.65814 0.06823 0.61748
 C355 C 0.70337 0.12692 0.64480
 C356 C 0.72583 0.14581 0.66851
 H357 H 0.67374 0.15120 0.59392
 H358 H 0.61973 0.11503 0.55375
 H359 H 0.61405 0.01869 0.59557
 H360 H 0.66821 0.05502 0.63602
 C361 C 0.43855 0.10803 0.87772
 C362 C 0.41230 0.07277 0.88716
 C363 C 0.42147 0.05168 0.90979
 C364 C 0.45720 0.06549 0.92280
 C365 C 0.48289 0.10148 0.91420
 C366 C 0.47364 0.12243 0.89184
 C367 C 0.43082 0.12908 0.85133
 C368 C 0.42700 0.14789 0.82822
 H369 H 0.38507 0.06129 0.87617
 H370 H 0.40106 0.02406 0.91544
 H371 H 0.51035 0.11340 0.92466
 H372 H 0.49415 0.14972 0.88483
 C373 C 0.67494 0.56826 0.88349
 C374 C 0.65845 0.58889 0.88263
 C375 C 0.62796 0.57915 0.90581
 C376 C 0.61371 0.54859 0.92973
 C377 C 0.63115 0.52885 0.93159
 C378 C 0.66161 0.53866 0.90859
 C379 C 0.70300 0.57480 0.85597
 C380 C 0.72509 0.57782 0.83215
 H381 H 0.66835 0.61165 0.86305
 H382 H 0.61459 0.59446 0.90388
 H383 H 0.62035 0.50512 0.94978
 H384 H 0.67396 0.52234 0.90926
 C385 C 0.89280 0.32545 0.88164
 C386 C 0.92752 0.33479 0.89371
 C387 C 0.94786 0.36533 0.91693
 C388 C 0.93386 0.38720 0.92787
 C389 C 0.89834 0.37654 0.91658
 C390 C 0.87814 0.34606 0.89372
 C391 C 0.87267 0.29659 0.85447
 C392 C 0.85431 0.27409 0.83059
 H393 H 0.93923 0.31914 0.88424
 H394 H 0.97521 0.37288 0.92445
 H395 H 0.88621 0.39202 0.92528
 H396 H 0.85127 0.33905 0.88464
 C397 C 0.56553 0.89787 0.37307
 C398 C 0.57838 0.90652 0.41165
 C399 C 0.56864 0.92667 0.43532
 C400 C 0.54547 0.93800 0.42078
 C401 C 0.53394 0.93009 0.38138
 C402 C 0.54384 0.91023 0.35789
 C403 C 0.57208 0.87435 0.34933
 C404 C 0.57494 0.85388 0.32783
 H405 H 0.59503 0.89688 0.42378
 H406 H 0.57763 0.93169 0.46558
 H407 H 0.51698 0.93916 0.36872
 H408 H 0.53385 0.90381 0.32802
 C409 C 0.32713 0.43137 0.37932
 C410 C 0.33211 0.45066 0.41408
 C411 C 0.36229 0.46053 0.43757
 C412 C 0.38773 0.45122 0.42639
 C413 C 0.38202 0.43077 0.39234
 C414 C 0.35182 0.42093 0.36884
 C415 C 0.29895 0.42569 0.35251
 C416 C 0.27666 0.42295 0.32925
 H417 H 0.31338 0.45918 0.42227
 H418 H 0.36656 0.47654 0.46365
 H419 H 0.40162 0.42366 0.38328
 H420 H 0.34843 0.40631 0.34183
 C421 C 0.10810 0.67583 0.38271
 C422 C 0.07329 0.66618 0.39489
 C423 C 0.05308 0.63551 0.41797
 C424 C 0.06730 0.61380 0.42865
 C425 C 0.10292 0.62479 0.41727
 C426 C 0.12300 0.65541 0.39456
 C427 C 0.12804 0.70478 0.35555
 C428 C 0.14614 0.72732 0.33157
 H429 H 0.06139 0.68169 0.38561
 H430 H 0.02565 0.62772 0.42556
 H431 H 0.11522 0.60944 0.42578
 H432 H 0.14995 0.66266 0.38537
 C433 C 0.89125 0.56207 0.88243
 C434 C 0.87695 0.52645 0.89379
 C435 C 0.89731 0.51656 0.91641
 C436 C 0.93263 0.54215 0.92818
 C437 C 0.94627 0.57830 0.91785
 C438 C 0.92577 0.58812 0.89490
 C439 C 0.87095 0.57066 0.85576
 C440 C 0.85265 0.57500 0.83230
 H441 H 0.85022 0.50607 0.88440
 H442 H 0.88543 0.48869 0.92465
 H443 H 0.97347 0.59869 0.92571
 H444 H 0.93721 0.61577 0.88601
 C445 C 0.43657 0.32619 0.88127
 C446 C 0.47141 0.34652 0.89637
 C447 C 0.48096 0.37685 0.91895
 C448 C 0.45581 0.38763 0.92682
 C449 C 0.42022 0.36594 0.91304
 C450 C 0.41078 0.33558 0.89013
 C451 C 0.42889 0.29772 0.85417
 C452 C 0.42533 0.27554 0.83041
 H453 H 0.49158 0.33946 0.88979
 H454 H 0.50826 0.39220 0.93002
 H455 H 0.40024 0.37353 0.91815
 H456 H 0.38375 0.32012 0.87837
 C457 C 0.67447 0.10261 0.87954
 C458 C 0.66174 0.11920 0.90475
 C459 C 0.63116 0.09854 0.92774
 C460 C 0.61301 0.06106 0.92577
 C461 C 0.62664 0.04442 0.90171
 C462 C 0.65725 0.06518 0.87852
 C463 C 0.70275 0.12422 0.85209
 C464 C 0.72506 0.14351 0.82841
 H465 H 0.67466 0.14810 0.90554
 H466 H 0.62083 0.11171 0.94604
 H467 H 0.61272 0.01552 0.89969
 H468 H 0.66669 0.05208 0.85885
 C469 C 0.11050 0.43922 0.38168
 C470 C 0.07589 0.41313 0.39396
 C471 C 0.05529 0.42282 0.41706
 C472 C 0.06893 0.45890 0.42774
 C473 C 0.10434 0.48453 0.41617
 C474 C 0.12480 0.47476 0.39339
 C475 C 0.13086 0.43074 0.35482
 C476 C 0.14906 0.42629 0.33120
 H477 H 0.06445 0.38554 0.38480
 H478 H 0.02803 0.40240 0.42475
 H479 H 0.11621 0.51234 0.42468
 H480 H 0.15159 0.49517 0.38414
 C481 C 0.56828 0.67424 0.38071
 C482 C 0.55405 0.67216 0.41832
 C483 C 0.54445 0.64238 0.44212
 C484 C 0.54895 0.61447 0.42838
 C485 C 0.56439 0.61720 0.39128
 C486 C 0.57399 0.64699 0.36752
 C487 C 0.57328 0.70214 0.35410
 C488 C 0.57543 0.72405 0.33084
 H489 H 0.54916 0.69290 0.42865
 H490 H 0.53228 0.64042 0.47059
 H491 H 0.56771 0.59568 0.38025
 H492 H 0.58462 0.64813 0.33833
 C493 C 0.33000 0.90357 0.37137
 C494 C 0.36443 0.91512 0.35658
 C495 C 0.39457 0.93408 0.38046
 C496 C 0.39095 0.94192 0.41987
 C497 C 0.35618 0.93155 0.43398
 C498 C 0.32589 0.91225 0.40993
 C499 C 0.29935 0.88037 0.34744
 C500 C 0.27559 0.85987 0.32586
 H501 H 0.36796 0.90862 0.32676
 H502 H 0.42088 0.94242 0.36816
 H503 H 0.35217 0.93653 0.46423
 H504 H 0.29927 0.90317 0.42177
 C505 C 0.56130 0.89190 0.12273
 C506 C 0.56251 0.88904 0.08179
 C507 C 0.55281 0.90867 0.05739
 C508 C 0.54165 0.93107 0.07384
 C509 C 0.54148 0.93458 0.11483
 C510 C 0.55122 0.91506 0.13914
 C511 C 0.56757 0.86924 0.14823
 C512 C 0.57094 0.84983 0.17086
 H513 H 0.57004 0.87103 0.06880
 H514 H 0.55299 0.90565 0.02580
 H515 H 0.53293 0.95177 0.12793
 H516 H 0.54998 0.91732 0.17075
 C517 C 0.32541 0.42691 0.12172
 C518 C 0.32186 0.42791 0.08087
 C519 C 0.35168 0.43806 0.05640
 C520 C 0.38520 0.44748 0.07273
 C521 C 0.38824 0.44508 0.11351
 C522 C 0.35848 0.43484 0.13787
 C523 C 0.29668 0.42169 0.14756
 C524 C 0.27435 0.41963 0.17045
 H525 H 0.29649 0.42216 0.06810
 H526 H 0.34906 0.44005 0.02499
 H527 H 0.41401 0.45245 0.12650
 H528 H 0.36162 0.43446 0.16943
 C529 C 0.09992 0.66982 0.12530
 C530 C 0.10161 0.67393 0.08436
 C531 C 0.08256 0.64396 0.06008
 C532 C 0.06196 0.60971 0.07665
 C533 C 0.05943 0.60594 0.11769
 C534 C 0.07836 0.63584 0.14187
 C535 C 0.12264 0.69956 0.15046
 C536 C 0.14247 0.72309 0.17261
 H537 H 0.11842 0.70006 0.07123
 H538 H 0.08481 0.64725 0.02846
 H539 H 0.04361 0.57969 0.13089
 H540 H 0.07705 0.63232 0.17347
 C541 C 0.43670 0.10857 0.61841
 C542 C 0.46804 0.12493 0.59544
 C543 C 0.47730 0.10412 0.57260
 C544 C 0.45533 0.06668 0.57257
 C545 C 0.42324 0.05039 0.59449
 C546 C 0.41403 0.07128 0.61748
 C547 C 0.42996 0.13000 0.64543
 C548 C 0.42658 0.14884 0.66897
 H549 H 0.48590 0.15371 0.59614
 H550 H 0.50212 0.11706 0.55580
 H551 H 0.40608 0.02153 0.59481
 H552 H 0.38986 0.05833 0.63536
 C553 C 0.67523 0.57085 0.62266
 C554 C 0.65043 0.58104 0.63358
 C555 C 0.62008 0.57116 0.61034
 C556 C 0.61431 0.55093 0.57610
 C557 C 0.63985 0.54188 0.56447
 C558 C 0.67018 0.55178 0.58771
 C559 C 0.70345 0.57636 0.64931
 C560 C 0.72565 0.57883 0.67254
 H561 H 0.65386 0.59545 0.66076
 H562 H 0.60042 0.57808 0.61974
 H563 H 0.63554 0.52606 0.53822
 H564 H 0.68897 0.54343 0.57919
 C565 C 0.89971 0.33026 0.62416
 C566 C 0.92186 0.36411 0.64074
 C567 C 0.94112 0.39397 0.61658
 C568 C 0.93836 0.39028 0.57555
 C569 C 0.91720 0.35614 0.55894
 C570 C 0.89781 0.32621 0.58320
 C571 C 0.87666 0.30067 0.64939
 C572 C 0.85665 0.27734 0.67167
 H573 H 0.92336 0.36760 0.67236
 H574 H 0.95735 0.42016 0.62980
 H575 H 0.91475 0.35293 0.52732
 H576 H 0.88055 0.30018 0.57007
   
