data_POSCAR
  _audit_creation_date              2014-09-24
  _audit_creation_method            'ToBaCCo'
  _symmetry_space_group_name_H-M    'P1'
  _symmetry_Int_Tables_number       1
  _symmetry_cell_setting            triclinic
  loop_
  _symmetry_equiv_pos_as_xyz
 x,y,z
_cell_length_a 27.1253
_cell_length_b 27.8406
_cell_length_c 27.8030
_cell_angle_alpha 89.582800
_cell_angle_beta 90.576900
_cell_angle_gamma 89.589700
loop_
  _atom_site_label
  _atom_site_type_symbol
  _atom_site_fract_x
  _atom_site_fract_y
  _atom_site_fract_z
N1 N 0.35570 0.34089 1.34596
 N2 N 1.13449 0.66172 0.84353
 N3 N 0.67187 -0.16442 0.16368
 N4 N -0.13433 1.13617 -0.36147
 N5 N 0.63481 0.62863 0.63685
 N6 N 0.84880 0.36230 0.14492
 N7 N 0.35848 0.15675 0.84145
 N8 N 0.13202 0.85632 0.36276
 Zn9 Zn 0.03457 1.00295 -0.05374
 Zn10 Zn 0.04755 1.05194 0.04189
 Zn11 Zn -0.05295 1.04281 -0.00319
 Zn12 Zn -0.00155 0.95719 0.03647
 O13 O 0.00706 1.01388 0.00523
 O14 O 0.09222 1.03338 -0.06021
 O15 O 0.01869 1.10777 0.05736
 O16 O -0.06872 1.05212 -0.06497
 O17 O 0.10287 1.06752 0.01089
 O18 O -0.00398 1.02328 -0.10322
 O19 O -0.05534 1.10048 0.02416
 O20 O -0.06421 0.94518 0.05045
 O21 O 0.06645 1.02451 0.09834
 O22 O -0.10302 1.00926 0.02150
 O23 O 0.03008 0.95411 0.09239
 O24 O 0.02037 0.90733 0.00349
 O25 O 0.04744 0.94010 -0.06386
 C26 C 0.11758 1.05872 -0.03141
 C27 C -0.02416 1.12438 0.04833
 C28 C -0.04637 1.04305 -0.10375
 C29 C -0.10357 0.96903 0.04316
 C30 C 0.05681 0.98325 0.11547
 C31 C 0.04038 0.90346 -0.03729
 Zn32 Zn 0.47827 0.00526 0.44010
 Zn33 Zn 0.45683 -0.04479 0.53366
 Zn34 Zn 0.55864 -0.04583 0.49248
 Zn35 Zn 0.51684 0.04538 0.53079
 O36 O 0.50252 -0.01017 0.49949
 O37 O 0.42065 -0.02217 0.42924
 O38 O 0.48099 -0.10213 0.55391
 O39 O 0.57342 -0.05711 0.43101
 O40 O 0.40187 -0.05756 0.49821
 O41 O 0.51655 -0.01445 0.39197
 O42 O 0.55502 -0.10326 0.52093
 O43 O 0.58118 0.05110 0.54478
 O44 O 0.43792 -0.01459 0.58780
 O45 O 0.61174 -0.01760 0.51832
 O46 O 0.48552 0.04962 0.58646
 O47 O 0.49752 0.09847 0.49857
 O48 O 0.46721 0.06816 0.43148
 C49 C 0.39169 -0.04716 0.45452
 C50 C 0.52205 -0.12285 0.54624
 C51 C 0.55419 -0.04175 0.39201
 C52 C 0.61738 0.02259 0.53890
 C53 C 0.45312 0.02411 0.60676
 C54 C 0.47574 0.10391 0.45826
 Zn55 Zn 1.00262 0.43524 0.47089
 Zn56 Zn 1.06653 0.51342 0.50567
 Zn57 Zn 0.96791 0.53799 0.46267
 Zn58 Zn 0.97522 0.48921 0.55847
 O59 O 1.00290 0.49405 0.49923
 O60 O 1.06303 0.41443 0.45482
 O61 O 1.07720 0.56858 0.47565
 O62 O 0.94544 0.51205 0.40748
 O63 O 1.11088 0.47218 0.48205
 O64 O 0.96780 0.43570 0.41614
 O65 O 1.00417 0.58967 0.44608
 O66 O 0.91789 0.52093 0.56233
 O67 O 1.08343 0.52573 0.56635
 O68 O 0.91407 0.56068 0.49307
 O69 O 1.01368 0.51325 0.60490
 O70 O 0.96221 0.42864 0.57552
 O71 O 0.97820 0.38897 0.50878
 C72 C 1.10553 0.43234 0.46086
 C73 C 1.04965 0.59820 0.45315
 C74 C 0.94674 0.46912 0.39211
 C75 C 0.89613 0.55010 0.53385
 C76 C 1.05813 0.52717 0.60442
 C77 C 0.96388 0.38971 0.55212
 Zn78 Zn 0.49078 0.44931 1.02520
 Zn79 Zn 0.45040 0.54868 1.03921
 Zn80 Zn 0.54961 0.53392 0.99508
 Zn81 Zn 0.45933 0.50743 0.94021
 O82 O 0.48741 0.50993 0.99999
 O83 O 0.45746 0.44424 1.07966
 O84 O 0.48454 0.59888 1.06176
 O85 O 0.59583 0.49481 1.02038
 O86 O 0.42696 0.51720 1.09108
 O87 O 0.55183 0.43198 1.04236
 O88 O 0.55676 0.58889 1.02693
 O89 O 0.49948 0.52818 0.89332
 O90 O 0.39795 0.57434 1.00865
 O91 O 0.56700 0.54627 0.93433
 O92 O 0.40440 0.54282 0.93594
 O93 O 0.44100 0.44814 0.92396
 O94 O 0.46653 0.40389 0.98585
 C95 C 0.43282 0.47376 1.10443
 C96 C 0.52832 0.61260 1.05402
 C97 C 0.59262 0.45382 1.04025
 C98 C 0.54361 0.54321 0.89469
 C99 C 0.38216 0.56914 0.96593
 C100 C 0.44548 0.40770 0.94496
 C101 C 1.32018 0.40970 0.38944
 C102 C 1.31567 0.36290 0.37161
 C103 C 1.27126 0.33809 0.37778
 C104 C 1.23106 0.36038 0.40013
 C105 C 1.23564 0.40778 0.41743
 C106 C 1.28055 0.43195 0.41235
 C107 C 1.19497 0.43057 0.43856
 C108 C 1.14937 0.40696 0.44184
 C109 C 1.14548 0.35965 0.42491
 C110 C 1.18600 0.33648 0.40451
 H111 H 1.26771 0.30202 0.36382
 H112 H 1.28477 0.46827 0.42542
 H113 H 1.19850 0.46714 0.45120
 H114 H 1.18185 0.30015 0.39144
 H115 H 1.35437 0.42903 0.38516
 H116 H 1.11091 0.34057 0.42710
 C117 C 0.17777 0.58718 0.86952
 C118 C 0.17428 0.63768 0.86942
 C119 C 0.21136 0.66420 0.89282
 C120 C 0.25223 0.64078 0.91392
 C121 C 0.25662 0.59026 0.91077
 C122 C 0.21880 0.56376 0.88937
 C123 C 0.29914 0.56712 0.92840
 C124 C 0.33664 0.59361 0.95050
 C125 C 0.33113 0.64338 0.95589
 C126 C 0.28940 0.66698 0.93717
 H127 H 0.20925 0.70307 0.89330
 H128 H 0.22120 0.52495 0.88748
 H129 H 0.30325 0.52852 0.92483
 H130 H 0.28647 0.70565 0.94034
 H131 H 0.14916 0.56574 0.85306
 H132 H 0.35992 0.66413 0.97303
 C133 C -0.23850 0.84449 0.17019
 C134 C -0.28332 0.85753 0.14813
 C135 C -0.28408 0.89081 0.11008
 C136 C -0.23992 0.91096 0.09385
 C137 C -0.19464 0.89679 0.11554
 C138 C -0.19435 0.86375 0.15385
 C139 C -0.15038 0.91578 0.09855
 C140 C -0.15060 0.94954 0.06074
 C141 C -0.19578 0.96430 0.04013
 C142 C -0.24009 0.94486 0.05629
 H143 H -0.31899 0.90074 0.09335
 H144 H -0.16001 0.85269 0.17099
 H145 H -0.11575 0.90462 0.11511
 H146 H -0.27443 0.95629 0.03942
 H147 H -0.23787 0.81866 0.19950
 H148 H -0.19677 0.99030 0.01096
 C149 C 0.77948 0.15685 0.61822
 C150 C 0.81712 0.12219 0.62288
 C151 C 0.80746 0.07432 0.61080
 C152 C 0.76075 0.06132 0.59312
 C153 C 0.72303 0.09649 0.58867
 C154 C 0.73272 0.14408 0.60158
 C155 C 0.67635 0.08361 0.57107
 C156 C 0.66687 0.03614 0.55702
 C157 C 0.70479 0.00156 0.56111
 C158 C 0.75121 0.01397 0.57924
 H159 H 0.83669 0.04771 0.61409
 H160 H 0.70429 0.17149 0.59838
 H161 H 0.64757 0.11071 0.56790
 H162 H 0.77967 -0.01342 0.58224
 H163 H 0.78645 0.19387 0.62765
 H164 H 0.69842 -0.03532 0.55076
 C165 C 0.36673 0.25463 0.33022
 C166 C 0.37246 0.29392 0.36099
 C167 C 0.39761 0.28791 0.40496
 C168 C 0.41792 0.24300 0.41775
 C169 C 0.41209 0.20353 0.38651
 C170 C 0.38614 0.20966 0.34297
 C171 C 0.43219 0.15858 0.39934
 C172 C 0.45814 0.15232 0.44306
 C173 C 0.46425 0.19203 0.47351
 C174 C 0.44432 0.23692 0.46099
 H175 H 0.40240 0.31856 0.42833
 H176 H 0.38133 0.17984 0.31858
 H177 H 0.42700 0.12836 0.37549
 H178 H 0.44930 0.26680 0.48528
 H179 H 0.34759 0.25915 0.29610
 H180 H 0.48382 0.18827 0.50749
 C181 C 0.89270 0.17926 0.56592
 C182 C 0.88785 0.17732 0.61607
 C183 C 0.90121 0.21717 0.64378
 C184 C 0.91799 0.25923 0.62145
 C185 C 0.92270 0.26099 0.57085
 C186 C 0.91048 0.22061 0.54345
 C187 C 0.93852 0.30341 0.54844
 C188 C 0.94868 0.34451 0.57582
 C189 C 0.94382 0.34230 0.62610
 C190 C 0.92894 0.29995 0.64874
 H191 H 0.89662 0.21590 0.68245
 H192 H 0.91370 0.22134 0.50464
 H193 H 0.94186 0.30471 0.50962
 H194 H 0.92541 0.29926 0.68753
 H195 H 0.88222 0.14876 0.54424
 H196 H 0.95168 0.37335 0.64805
 C197 C 0.11389 0.74598 -0.17657
 C198 C 0.11737 0.70860 -0.14250
 C199 C 0.10415 0.71723 -0.09473
 C200 C 0.08794 0.76295 -0.08089
 C201 C 0.08528 0.80073 -0.11517
 C202 C 0.09821 0.79179 -0.16300
 C203 C 0.06978 0.84672 -0.10099
 C204 C 0.05630 0.85519 -0.05309
 C205 C 0.05856 0.81707 -0.01958
 C206 C 0.07440 0.77148 -0.03329
 H207 H 0.10639 0.68819 -0.06860
 H208 H 0.09628 0.82018 -0.18983
 H209 H 0.06799 0.87571 -0.12721
 H210 H 0.07612 0.74293 -0.00661
 H211 H 0.12406 0.73970 -0.21357
 H212 H 0.04858 0.82257 0.01760
 C213 C 0.68109 0.76816 1.10637
 C214 C 0.65197 0.79435 1.13885
 C215 C 0.60311 0.77955 1.14680
 C216 C 0.58407 0.73905 1.12347
 C217 C 0.61405 0.71297 1.09149
 C218 C 0.66236 0.72795 1.08303
 C219 C 0.59542 0.67213 1.06865
 C220 C 0.54704 0.65666 1.07731
 C221 C 0.51730 0.68312 1.10888
 C222 C 0.53565 0.72395 1.13173
 H223 H 0.57986 0.79956 1.17111
 H224 H 0.68582 0.70838 1.05855
 H225 H 0.61884 0.65224 1.04437
 H226 H 0.51207 0.74354 1.15609
 H227 H 0.71877 0.77829 1.09928
 H228 H 0.47991 0.67207 1.11621
 C229 C 0.42456 0.34974 1.28868
 C230 C 0.37732 0.36374 1.30417
 C231 C 0.35129 0.39917 1.27738
 C232 C 0.37175 0.41943 1.23570
 C233 C 0.41831 0.40335 1.21990
 C234 C 0.44458 0.36894 1.24685
 C235 C 0.43780 0.42162 1.17714
 C236 C 0.41204 0.45671 1.15024
 C237 C 0.36666 0.47402 1.16697
 C238 C 0.34636 0.45512 1.20916
 H239 H 0.31480 0.41039 1.28830
 H240 H 0.48063 0.35671 1.23549
 H241 H 0.47326 0.40864 1.16480
 H242 H 0.31077 0.46820 1.22088
 H243 H 0.44608 0.32338 1.30873
 H244 H 0.34633 0.50115 1.14673
 C245 C 0.65646 -0.17869 0.24951
 C246 C 0.65227 -0.14896 0.20877
 C247 C 0.63023 -0.10349 0.21244
 C248 C 0.61195 -0.08777 0.25669
 C249 C 0.61701 -0.11757 0.29791
 C250 C 0.63926 -0.16300 0.29393
 C251 C 0.59927 -0.10166 0.34228
 C252 C 0.57518 -0.05698 0.34576
 C253 C 0.56968 -0.02796 0.30449
 C254 C 0.58840 -0.04298 0.26040
 H255 H 0.62705 -0.08078 0.18071
 H256 H 0.64322 -0.18637 0.32508
 H257 H 0.60302 -0.12458 0.37383
 H258 H 0.58403 -0.01982 0.22914
 H259 H 0.67372 -0.21374 0.24683
 H260 H 0.55115 0.00656 0.30644
 C261 C -0.06053 1.10584 -0.31794
 C262 C -0.11162 1.11445 -0.31942
 C263 C -0.13981 1.10423 -0.27855
 C264 C -0.11706 1.08706 -0.23619
 C265 C -0.06555 1.07876 -0.23490
 C266 C -0.03772 1.08776 -0.27620
 C267 C -0.04265 1.06283 -0.19200
 C268 C -0.07046 1.05636 -0.15004
 C269 C -0.12169 1.06448 -0.15197
 C270 C -0.14481 1.07930 -0.19469
 H271 H -0.17913 1.11144 -0.27922
 H272 H 0.00179 1.08173 -0.27593
 H273 H -0.00309 1.05702 -0.19088
 H274 H -0.18430 1.08551 -0.19502
 H275 H -0.03830 1.11348 -0.34917
 H276 H -0.14400 1.05950 -0.12026
 C277 C 1.06144 0.63505 0.79783
 C278 C 1.11279 0.63953 0.80184
 C279 C 1.14305 0.62043 0.76597
 C280 C 1.12239 0.59588 0.72703
 C281 C 1.07066 0.59071 0.72361
 C282 C 1.04047 0.61071 0.75903
 C283 C 1.04999 0.56625 0.68450
 C284 C 1.08031 0.54775 0.64824
 C285 C 1.13169 0.55285 0.65219
 C286 C 1.15259 0.57646 0.69142
 H287 H 1.18270 0.62439 0.76887
 H288 H 1.00074 0.60729 0.75685
 H289 H 1.01027 0.56308 0.68149
 H290 H 1.19230 0.58008 0.69358
 H291 H 1.03777 0.64955 0.82537
 H292 H 1.15576 0.53900 0.62462
 C293 C 0.69065 0.55827 0.62824
 C294 C 0.68099 0.60756 0.62089
 C295 C 0.71711 0.63572 0.59810
 C296 C 0.76094 0.61471 0.58139
 C297 C 0.77032 0.56538 0.58992
 C298 C 0.73502 0.53756 0.61352
 C299 C 0.81474 0.54464 0.57453
 C300 C 0.84915 0.57211 0.54900
 C301 C 0.83886 0.62071 0.53924
 C302 C 0.79545 0.64205 0.55594
 H303 H 0.71105 0.67393 0.59310
 H304 H 0.74144 0.49960 0.62005
 H305 H 0.82227 0.50695 0.58173
 H306 H 0.78873 0.67984 0.54871
 H307 H 0.66364 0.53557 0.64536
 H308 H 0.86503 0.64246 0.51975
 C309 C 0.81414 0.42093 1.08708
 C310 C 0.80742 0.38811 1.12483
 C311 C 0.75974 0.37623 1.13934
 C312 C 0.71870 0.39517 1.11467
 C313 C 0.72544 0.42845 1.07663
 C314 C 0.77336 0.44166 1.06358
 C315 C 0.68419 0.44730 1.05191
 C316 C 0.63648 0.43218 1.06386
 C317 C 0.63045 0.39829 1.10103
 C318 C 0.67115 0.38029 1.12651
 H319 H 0.75502 0.35007 1.16797
 H320 H 0.77927 0.46691 1.03440
 H321 H 0.68921 0.47333 1.02322
 H322 H 0.66544 0.35456 1.15532
 H323 H 0.85099 0.42974 1.07548
 H324 H 0.59402 0.38654 1.11127
 C325 C 0.27429 1.12745 -0.17647
 C326 C 0.31130 1.13904 -0.14281
 C327 C 0.30159 1.13371 -0.09347
 C328 C 0.25613 1.11582 -0.07800
 C329 C 0.21990 1.10272 -0.11228
 C330 C 0.22922 1.10900 -0.16140
 C331 C 0.17490 1.08374 -0.09687
 C332 C 0.16516 1.07850 -0.04754
 C333 C 0.20107 1.09252 -0.01375
 C334 C 0.24630 1.11068 -0.02884
 H335 H 0.32970 1.14294 -0.06723
 H336 H 0.20163 1.09975 -0.18816
 H337 H 0.14725 1.07357 -0.12326
 H338 H 0.27356 1.12072 -0.00206
 H339 H 0.28039 1.13257 -0.21458
 H340 H 0.19443 1.08882 0.02444
 C341 C 0.17678 -0.12176 0.43746
 C342 C 0.17500 -0.12454 0.38697
 C343 C 0.21669 -0.11124 0.36060
 C344 C 0.25944 -0.09541 0.38411
 C345 C 0.26121 -0.09330 0.43492
 C346 C 0.21949 -0.10637 0.46125
 C347 C 0.30465 -0.07822 0.45833
 C348 C 0.34584 -0.06443 0.43131
 C349 C 0.34319 -0.06643 0.38079
 C350 C 0.30061 -0.08200 0.35746
 H351 H 0.21620 -0.11416 0.32175
 H352 H 0.21996 -0.10490 0.50018
 H353 H 0.30615 -0.07656 0.49726
 H354 H 0.29986 -0.08342 0.31851
 H355 H 0.14508 -0.13197 0.45847
 H356 H 0.37442 -0.05629 0.35906
 C357 C 0.61589 -0.32535 0.56178
 C358 C 0.61221 -0.33063 0.61201
 C359 C 0.58632 -0.29533 0.63792
 C360 C 0.56646 -0.25466 0.61451
 C361 C 0.57368 -0.24823 0.56463
 C362 C 0.59768 -0.28416 0.53846
 C363 C 0.55761 -0.20557 0.54203
 C364 C 0.53302 -0.16999 0.56839
 C365 C 0.52330 -0.17795 0.61725
 C366 C 0.54040 -0.21974 0.64032
 H367 H 0.58256 -0.29895 0.67653
 H368 H 0.60262 -0.28030 0.50000
 H369 H 0.56483 -0.19965 0.50416
 H370 H 0.53405 -0.22434 0.67848
 H371 H 0.63383 -0.35275 0.54063
 H372 H 0.50460 -0.15076 0.63811
 C373 C 1.05747 0.81036 0.38351
 C374 C 1.10907 0.81379 0.38193
 C375 C 1.13815 0.77389 0.39511
 C376 C 1.11610 0.73069 0.40892
 C377 C 1.06412 0.72718 0.40995
 C378 C 1.03512 0.76742 0.39756
 C379 C 1.04218 0.68350 0.42328
 C380 C 1.07172 0.64358 0.43603
 C381 C 1.12336 0.64773 0.43467
 C382 C 1.14531 0.69077 0.42114
 H383 H 1.17796 0.77619 0.39308
 H384 H 0.99525 0.76553 0.39816
 H385 H 1.00236 0.68087 0.42452
 H386 H 1.18518 0.69286 0.42039
 H387 H 1.03465 0.84082 0.37307
 H388 H 1.14702 0.61757 0.44423
 C389 C -0.16609 1.29220 0.09218
 C390 C -0.13371 1.31964 0.12068
 C391 C -0.08437 1.30423 0.12601
 C392 C -0.06846 1.26096 0.10543
 C393 C -0.10190 1.23339 0.07807
 C394 C -0.15033 1.24966 0.07108
 C395 C -0.08677 1.18948 0.05877
 C396 C -0.03863 1.17209 0.06681
 C397 C -0.00527 1.20005 0.09348
 C398 C -0.02002 1.24421 0.11249
 H399 H -0.05875 1.32547 0.14695
 H400 H -0.17636 1.22901 0.05001
 H401 H -0.11293 1.16846 0.03822
 H402 H 0.00620 1.26486 0.13332
 H403 H -0.20416 1.30283 0.08689
 H404 H 0.03212 1.18759 0.10008
 C405 C 0.41904 0.19165 0.89758
 C406 C 0.37913 0.19755 0.86565
 C407 C 0.36015 0.24361 0.85617
 C408 C 0.38140 0.28390 0.87790
 C409 C 0.42117 0.27786 0.91079
 C410 C 0.43963 0.23149 0.92047
 C411 C 0.44196 0.31831 0.93300
 C412 C 0.42437 0.36474 0.92166
 C413 C 0.38547 0.37017 0.88821
 C414 C 0.36389 0.33015 0.86688
 H415 H 0.32963 0.24787 0.83099
 H416 H 0.47023 0.22612 0.94532
 H417 H 0.47217 0.31373 0.95848
 H418 H 0.33363 0.33541 0.84160
 H419 H 0.43393 0.15612 0.90483
 H420 H 0.37106 0.40551 0.87911
 C421 C 0.56166 0.59686 0.67840
 C422 C 0.61160 0.60979 0.67952
 C423 C 0.63840 0.60553 0.72283
 C424 C 0.61541 0.58913 0.76484
 C425 C 0.56504 0.57642 0.76348
 C426 C 0.53857 0.58018 0.71998
 C427 C 0.54187 0.56074 0.80574
 C428 C 0.56827 0.55803 0.84956
 C429 C 0.61845 0.57057 0.85024
 C430 C 0.64179 0.58582 0.80831
 H431 H 0.67684 0.61587 0.72381
 H432 H 0.49995 0.57063 0.71820
 H433 H 0.50316 0.55134 0.80459
 H434 H 0.68042 0.59541 0.81000
 H435 H 0.54062 0.59991 0.64520
 H436 H 0.63978 0.56875 0.88334
 C437 C 0.41095 0.16828 0.76968
 C438 C 0.38199 0.13818 0.79873
 C439 C 0.37534 0.09002 0.78477
 C440 C 0.39490 0.07309 0.74142
 C441 C 0.42314 0.10410 0.71245
 C442 C 0.43145 0.15137 0.72717
 C443 C 0.44223 0.08759 0.66890
 C444 C 0.43294 0.04054 0.65320
 C445 C 0.40465 0.00993 0.68218
 C446 C 0.38607 0.02597 0.72608
 H447 H 0.35418 0.06598 0.80722
 H448 H 0.45311 0.17558 0.70535
 H449 H 0.46377 0.11175 0.64689
 H450 H 0.36439 0.00168 0.74779
 H451 H 0.41703 0.20538 0.77921
 H452 H 0.39714 -0.02651 0.67103
 C453 C 0.10368 0.83963 0.27975
 C454 C 0.11788 0.87289 0.31506
 C455 C 0.11886 0.92212 0.30296
 C456 C 0.10559 0.93775 0.25634
 C457 C 0.09049 0.90379 0.22178
 C458 C 0.08986 0.85491 0.23375
 C459 C 0.07582 0.91911 0.17578
 C460 C 0.07607 0.96809 0.16324
 C461 C 0.09240 1.00168 0.19725
 C462 C 0.10686 0.98664 0.24355
 H463 H 0.12980 0.94803 0.32987
 H464 H 0.07873 0.82843 0.20749
 H465 H 0.06379 0.89272 0.14976
 H466 H 0.11858 1.01323 0.26945
 H467 H 0.10356 0.80151 0.28767
 H468 H 0.09284 1.03963 0.18844
 C469 C 0.87656 0.33801 0.22670
 C470 C 0.86568 0.37436 0.19276
 C471 C 0.87048 0.42271 0.20634
 C472 C 0.88734 0.43456 0.25265
 C473 C 0.89962 0.39758 0.28583
 C474 C 0.89371 0.34948 0.27264
 C475 C 0.91803 0.40923 0.33152
 C476 C 0.92428 0.45747 0.34487
 C477 C 0.91079 0.49404 0.31206
 C478 C 0.89261 0.48268 0.26629
 H479 H 0.86176 0.45099 0.18058
 H480 H 0.90242 0.32070 0.29784
 H481 H 0.92790 0.38061 0.35655
 H482 H 0.88317 0.51151 0.24140
 H483 H 0.87172 0.30059 0.21762
 H484 H 0.91527 0.53146 0.32139
   
