data_POSCAR
  _audit_creation_date              2014-09-24
  _audit_creation_method            'ToBaCCo'
  _symmetry_space_group_name_H-M    'P1'
  _symmetry_Int_Tables_number       1
  _symmetry_cell_setting            triclinic
  loop_
  _symmetry_equiv_pos_as_xyz
 x,y,z
_cell_length_a 37.1011
_cell_length_b 35.9942
_cell_length_c 36.4342
_cell_angle_alpha 90.459900
_cell_angle_beta 90.088900
_cell_angle_gamma 90.550000
loop_
  _atom_site_label
  _atom_site_type_symbol
  _atom_site_fract_x
  _atom_site_fract_y
  _atom_site_fract_z
N1 N 0.18978 1.26802 0.16511
 N2 N 0.16422 1.26694 0.19002
 C3 C 0.14199 1.29579 0.18500
 C4 C 0.15400 1.31605 0.15510
 C5 C 0.18465 1.29757 0.14337
 H6 H 0.11870 1.30148 0.20179
 H7 H 0.20153 1.30433 0.12018
 Cu8 Cu 0.16163 1.22705 0.22563
 Cu9 Cu 0.22655 1.22979 0.16127
 Cu10 Cu 0.22103 1.15753 0.22356
 N11 N 0.15988 1.18738 0.26157
 N12 N 0.18318 1.16016 0.26038
 C13 C 0.17643 1.13658 0.28801
 C14 C 0.14710 1.14954 0.30776
 C15 C 0.13736 1.18196 0.29005
 H16 H 0.19180 1.11180 0.29308
 H17 H 0.11587 1.20053 0.29763
 N18 N 0.25757 1.15994 0.18454
 N19 N 0.26087 1.18819 0.16185
 C20 C 0.28915 1.18204 0.13942
 C21 C 0.30388 1.14809 0.14820
 C22 C 0.28318 1.13488 0.17679
 H23 H 0.29781 1.20030 0.11767
 H24 H 0.28684 1.10895 0.19103
 H25 H 0.19537 1.18790 0.18323
 H26 H 0.22526 1.21430 0.21563
 N27 N 0.80269 0.73548 0.15937
 N28 N 0.82597 0.73487 0.18656
 C29 C 0.85191 0.71021 0.17875
 C30 C 0.84453 0.69428 0.14480
 C31 C 0.81295 0.71101 0.13337
 H32 H 0.87523 0.70552 0.19584
 H33 H 0.79916 0.70688 0.10748
 Cu34 Cu 0.82206 0.76848 0.22812
 Cu35 Cu 0.76292 0.77057 0.15828
 Cu36 Cu 0.76335 0.83872 0.22613
 N37 N 0.82669 0.81056 0.26133
 N38 N 0.80342 0.83782 0.26082
 C39 C 0.81394 0.86418 0.28506
 C40 C 0.84583 0.85304 0.30149
 C41 C 0.85295 0.81865 0.28569
 H42 H 0.80033 0.89032 0.28900
 H43 H 0.87591 0.80111 0.29059
 N44 N 0.72545 0.83463 0.18826
 N45 N 0.72532 0.80882 0.16231
 C46 C 0.69703 0.81440 0.13986
 C47 C 0.67853 0.84529 0.15218
 C48 C 0.69726 0.85724 0.18302
 H49 H 0.69090 0.79776 0.11579
 H50 H 0.69102 0.88095 0.20015
 H51 H 0.79232 0.81057 0.18648
 H52 H 0.75944 0.78251 0.21379
 N53 N 0.81547 1.25774 -0.15817
 N54 N 0.84186 1.25542 -0.18205
 C55 C 0.86674 1.28178 -0.17433
 C56 C 0.85538 1.30182 -0.14392
 C57 C 0.82259 1.28575 -0.13447
 H58 H 0.89091 1.28647 -0.19020
 H59 H 0.80492 1.29389 -0.11232
 Cu60 Cu 0.84059 1.21959 -0.22223
 Cu61 Cu 0.77316 1.22543 -0.16119
 Cu62 Cu 0.78742 1.14444 -0.21100
 N63 N 0.84322 1.17687 -0.25499
 N64 N 0.82212 1.14773 -0.25080
 C65 C 0.83095 1.12157 -0.27569
 C66 C 0.85951 1.13486 -0.29661
 C67 C 0.86641 1.17022 -0.28257
 H68 H 0.81824 1.09447 -0.27731
 H69 H 0.88764 1.18916 -0.29068
 N70 N 0.74664 1.15086 -0.17707
 N71 N 0.74100 1.18174 -0.15831
 C72 C 0.71095 1.17754 -0.13801
 C73 C 0.69680 1.14229 -0.14448
 C74 C 0.72014 1.12634 -0.16957
 H75 H 0.70026 1.19867 -0.11994
 H76 H 0.71777 1.09906 -0.18194
 H77 H 0.80809 1.18513 -0.17517
 H78 H 0.77780 1.19994 -0.21319
 N79 N 0.18876 0.73786 -0.16927
 N80 N 0.15868 0.74287 -0.18764
 C81 C 0.13277 0.72060 -0.17392
 C82 C 0.14755 0.70017 -0.14575
 C83 C 0.18325 0.71154 -0.14377
 H84 H 0.10516 0.71962 -0.18344
 H85 H 0.20319 0.70273 -0.12406
 Cu86 Cu 0.15607 0.77825 -0.22751
 Cu87 Cu 0.23159 0.76850 -0.17784
 Cu88 Cu 0.21344 0.85001 -0.22428
 N89 N 0.15673 0.81530 -0.26605
 N90 N 0.17950 0.84342 -0.26463
 C91 C 0.17381 0.86566 -0.29347
 C92 C 0.14575 0.85079 -0.31433
 C93 C 0.13569 0.81860 -0.29596
 H94 H 0.18913 0.89074 -0.29865
 H95 H 0.11440 0.79924 -0.30332
 N96 N 0.25592 0.84382 -0.19283
 N97 N 0.26396 0.81233 -0.17655
 C98 C 0.29474 0.81718 -0.15729
 C99 C 0.30636 0.85358 -0.16156
 C100 C 0.28115 0.86951 -0.18438
 H101 H 0.30686 0.79627 -0.14020
 H102 H 0.28112 0.89783 -0.19406
 H103 H 0.19677 0.81074 -0.18537
 H104 H 0.22017 0.79469 -0.22786
 C105 C 0.54749 1.05524 -0.01371
 H106 H 0.54382 1.06072 0.01528
 C107 C 0.57238 1.07625 -0.03375
 H108 H 0.58792 1.09776 -0.01987
 C109 C 0.53285 1.01929 -0.06650
 H110 H 0.51815 0.99642 -0.07899
 C111 C 0.55753 1.03940 -0.08747
 H112 H 0.56086 1.03231 -0.11619
 N113 N 0.52799 1.02772 -0.03040
 C114 C 0.44477 1.01109 0.05229
 H115 H 0.44795 0.98156 0.05633
 C116 C 0.42070 1.03084 0.07408
 H117 H 0.40649 1.01609 0.09543
 C118 C 0.46052 1.06554 0.01985
 H119 H 0.47567 1.07873 -0.00185
 C120 C 0.43573 1.08623 0.04026
 H121 H 0.43226 1.11517 0.03355
 Zn122 Zn 0.49605 0.99863 -0.00172
 N123 N 0.46481 1.02873 0.02647
 C124 C 0.52642 0.97527 0.06587
 N125 N 0.52472 0.96866 0.02909
 C126 C 0.54495 0.94172 0.01311
 C127 C 0.56712 0.91932 0.03445
 C128 C 0.54816 0.95354 0.08822
 C129 C 0.44784 0.98779 -0.05896
 C130 C 0.42452 0.96884 -0.08270
 C131 C 0.43703 0.91217 -0.05022
 C132 C 0.46087 0.93217 -0.02754
 N133 N 0.46597 0.96926 -0.03250
 H134 H 0.51138 0.99777 0.07797
 H135 H 0.54388 0.93772 -0.01634
 H136 H 0.58327 0.89833 0.02106
 H137 H 0.54875 0.95903 0.11748
 H138 H 0.45188 1.01743 -0.06185
 H139 H 0.41144 0.98427 -0.10422
 H140 H 0.43273 0.88293 -0.04501
 H141 H 0.47462 0.91820 -0.00550
 C142 C 0.41551 1.06904 0.06824
 C143 C 0.57768 1.06836 -0.07117
 C144 C 0.41850 0.93046 -0.07849
 C145 C 0.56882 0.92498 0.07263
 C146 C -0.01016 0.55801 1.05391
 H147 H 0.01889 0.55808 1.05650
 C148 C -0.03034 0.58449 1.07273
 H149 H -0.01653 0.60484 1.08985
 C150 C -0.06306 0.53247 1.02683
 H151 H -0.07562 0.51276 1.00820
 C152 C -0.08430 0.55867 1.04499
 H153 H -0.11319 0.55816 1.04081
 N154 N -0.02667 0.53263 1.03158
 C155 C 0.05745 0.44970 1.01891
 H156 H 0.05935 0.44882 0.98928
 C157 C 0.07979 0.42739 1.04010
 H158 H 0.09853 0.40906 1.02644
 C159 C 0.02954 0.47379 1.07237
 H160 H 0.00954 0.49146 1.08481
 C161 C 0.05129 0.45188 1.09462
 H162 H 0.04817 0.45343 1.12413
 Zn163 Zn 0.00384 0.50117 1.00408
 N164 N 0.03322 0.47256 1.03525
 C165 C 0.06825 0.53814 0.98223
 N166 N 0.03254 0.53314 0.97507
 C167 C 0.01537 0.55403 0.94967
 C168 C 0.03419 0.58110 0.93011
 C169 C 0.08799 0.56544 0.96379
 C170 C -0.04706 0.44464 0.99187
 C171 C -0.06830 0.41956 0.97171
 C172 C -0.03937 0.44110 0.91636
 C173 C -0.01885 0.46593 0.93757
 N174 N -0.02347 0.46770 0.97457
 H175 H 0.08115 0.52209 1.00337
 H176 H -0.01321 0.55001 0.94505
 H177 H 0.01983 0.59679 0.90966
 H178 H 0.11602 0.56983 0.97099
 H179 H -0.04956 0.44600 1.02144
 H180 H -0.08692 0.40147 0.98604
 H181 H -0.03568 0.44045 0.88689
 H182 H 0.00086 0.48359 0.92440
 C183 C 0.07694 0.42836 1.07854
 C184 C -0.06790 0.58538 1.06804
 C185 C -0.06480 0.41777 0.93336
 C186 C 0.07090 0.58783 0.93762
 C187 C 1.06560 -0.03036 0.52218
 H188 H 1.07798 -0.01014 0.50434
 C189 C 1.08733 -0.05205 0.54460
 H190 H 1.11634 -0.04874 0.54323
 C191 C 1.01293 -0.05821 0.54686
 H192 H 0.98382 -0.05978 0.54808
 C193 C 1.03365 -0.08059 0.56965
 H194 H 1.02021 -0.09921 0.58850
 N195 N 1.02909 -0.03388 0.52358
 C196 C 1.02619 0.06699 0.46912
 H197 H 1.00888 0.07992 0.48920
 C198 C 1.04732 0.08920 0.44617
 H199 H 1.04650 0.11912 0.44925
 C200 C 1.04786 0.01247 0.44009
 H201 H 1.04754 -0.01751 0.43770
 C202 C 1.06951 0.03355 0.41676
 H203 H 1.08557 0.01951 0.39622
 Zn204 Zn 0.99907 -0.00223 0.49606
 N205 N 1.02727 0.02932 0.46605
 C206 C 0.99098 0.04683 0.55474
 N207 N 0.97207 0.02543 0.53043
 C208 C 0.93565 0.02158 0.53294
 C209 C 0.91686 0.03952 0.56109
 C210 C 0.97327 0.06561 0.58294
 C211 C 0.97050 -0.06758 0.46182
 C212 C 0.95020 -0.08697 0.43550
 C213 C 0.92615 -0.02859 0.41488
 C214 C 0.94678 -0.01035 0.44166
 N215 N 0.96857 -0.02993 0.46427
 H216 H 1.02002 0.04872 0.55256
 H217 H 0.92124 0.00379 0.51380
 H218 H 0.88792 0.03593 0.56295
 H219 H 0.98889 0.08204 0.60239
 H220 H 0.98846 -0.08260 0.47957
 H221 H 0.95215 -0.11693 0.43409
 H222 H 0.90980 -0.01230 0.39650
 H223 H 0.94622 0.01963 0.44385
 C224 C 1.06965 0.07247 0.41981
 C225 C 1.07140 -0.07749 0.56885
 C226 C 0.92809 -0.06741 0.41111
 C227 C 0.93579 0.06163 0.58672
 C228 C 0.10497 0.36126 1.15260
 C229 C 0.13802 0.34765 1.13967
 C230 C 0.15410 0.36693 1.11011
 C231 C 0.13526 0.39486 1.09142
 C232 C 0.09985 0.40432 1.10172
 C233 C 0.08653 0.38885 1.13415
 C234 C 0.05064 0.37162 1.14171
 C235 C 0.07062 0.34128 1.16180
 H236 H 0.18047 0.35948 1.10001
 H237 H 0.14781 0.40770 1.06784
 H238 H 0.03679 0.36161 1.11636
 H239 H 0.03401 0.38918 1.16020
 H240 H 0.06833 0.31363 1.14811
 H241 H 0.06517 0.34135 1.19179
 C242 C -0.10022 0.65508 1.13892
 C243 C -0.13235 0.66833 1.12385
 C244 C -0.14067 0.65736 1.08748
 C245 C -0.11943 0.63100 1.06886
 C246 C -0.08930 0.61497 1.08610
 C247 C -0.07927 0.62926 1.12050
 C248 C -0.07026 0.60918 1.15491
 C249 C -0.09326 0.63736 1.17517
 H250 H -0.16413 0.66811 1.07366
 H251 H -0.12711 0.62265 1.04131
 H252 H -0.04113 0.61151 1.16183
 H253 H -0.08163 0.58049 1.15540
 H254 H -0.07727 0.65571 1.19385
 H255 H -0.11802 0.62505 1.18745
 C256 C -0.09240 0.34648 0.86135
 C257 C -0.12639 0.33439 0.87332
 C258 C -0.14260 0.35485 0.90201
 C259 C -0.12326 0.38313 0.92071
 C260 C -0.08729 0.39169 0.91112
 C261 C -0.07347 0.37443 0.87968
 C262 C -0.03818 0.35575 0.87407
 C263 C -0.05882 0.32504 0.85407
 H264 H -0.16956 0.34813 0.91121
 H265 H -0.13605 0.39725 0.94350
 H266 H -0.02578 0.34658 0.90024
 H267 H -0.02003 0.37191 0.85578
 H268 H -0.05841 0.29801 0.86862
 H269 H -0.05233 0.32353 0.82432
 C270 C 0.14693 0.64581 0.89667
 C271 C 0.12860 0.67427 0.87892
 C272 C 0.09143 0.67765 0.88584
 C273 C 0.07285 0.65057 0.90630
 C274 C 0.09083 0.61891 0.91964
 C275 C 0.12850 0.61871 0.91628
 C276 C 0.15293 0.58876 0.90298
 C277 C 0.17311 0.61846 0.88158
 H278 H 0.07646 0.70059 0.87459
 H279 H 0.04424 0.65411 0.91053
 H280 H 0.13883 0.56801 0.88516
 H281 H 0.16923 0.57684 0.92556
 H282 H 0.17078 0.61495 0.85131
 H283 H 0.20091 0.62366 0.89194
 C284 C 1.09966 0.14822 0.35468
 C285 C 1.13107 0.13356 0.33896
 C286 C 1.14575 0.10186 0.35594
 C287 C 1.12686 0.08310 0.38380
 C288 C 1.09276 0.09542 0.39549
 C289 C 1.08111 0.12965 0.38223
 C290 C 1.04522 0.14027 0.36742
 C291 C 1.06531 0.16051 0.33717
 H292 H 1.17101 0.09024 0.34686
 H293 H 1.13824 0.05799 0.39490
 H294 H 1.03065 0.15928 0.38632
 H295 H 1.02925 0.11594 0.35736
 H296 H 1.06203 0.19115 0.33864
 H297 H 1.06099 0.14794 0.30951
 C298 C 1.14286 -0.10062 0.63894
 C299 C 1.13074 -0.13458 0.65339
 C300 C 1.10264 -0.15311 0.63405
 C301 C 1.08449 -0.13561 0.60498
 C302 C 1.09407 -0.09927 0.59429
 C303 C 1.12509 -0.08362 0.61014
 C304 C 1.13108 -0.04563 0.62570
 C305 C 1.15040 -0.06403 0.65737
 H306 H 1.09316 -0.18028 0.64229
 H307 H 1.06188 -0.14986 0.59214
 H308 H 1.10556 -0.03193 0.63391
 H309 H 1.14929 -0.02858 0.60828
 H310 H 1.13609 -0.06099 0.68401
 H311 H 1.17968 -0.05723 0.65821
 C312 C 0.85619 -0.09213 0.34048
 C313 C 0.86740 -0.12653 0.32639
 C314 C 0.90187 -0.13886 0.33730
 C315 C 0.92211 -0.11923 0.36397
 C316 C 0.90842 -0.08690 0.38088
 C317 C 0.87614 -0.07295 0.36690
 C318 C 0.84329 -0.06041 0.38680
 C319 C 0.82134 -0.08143 0.35803
 H320 H 0.91319 -0.16406 0.32609
 H321 H 0.94812 -0.12998 0.37182
 H322 H 0.83988 -0.02981 0.38548
 H323 H 0.84107 -0.07246 0.41473
 H324 H 0.80522 -0.06280 0.34036
 H325 H 0.80632 -0.10569 0.36924
 C326 C 0.90923 0.13214 0.65929
 C327 C 0.87910 0.11577 0.67620
 C328 C 0.87051 0.07872 0.66582
 C329 C 0.88921 0.06079 0.63719
 C330 C 0.91713 0.07922 0.61823
 C331 C 0.92782 0.11423 0.63136
 C332 C 0.93398 0.14931 0.61074
 C333 C 0.91353 0.16904 0.64113
 H334 H 0.84869 0.06367 0.67876
 H335 H 0.88127 0.03278 0.62945
 H336 H 0.91978 0.14947 0.58385
 H337 H 0.96300 0.15719 0.60974
 H338 H 0.88740 0.18068 0.63190
 H339 H 0.93087 0.18848 0.65734
 C340 C 0.33636 1.09032 0.13111
 C341 C 0.33449 1.12902 0.13074
 C342 C 0.36286 1.14861 0.11373
 C343 C 0.39017 1.12942 0.09464
 C344 C 0.38920 1.09016 0.09128
 C345 C 0.36265 1.07146 0.11166
 C346 C 0.33660 1.04157 0.10019
 C347 C 0.30794 1.06224 0.12165
 H348 H 0.36352 1.17868 0.11442
 H349 H 0.41125 1.14568 0.08188
 H350 H 0.34312 1.01422 0.11235
 H351 H 0.33169 1.04110 0.07006
 H352 H 0.29835 1.04692 0.14619
 H353 H 0.28630 1.07372 0.10403
 C354 C 0.65318 1.08898 -0.13799
 C355 C 0.66359 1.12543 -0.12892
 C356 C 0.64101 1.14528 -0.10467
 C357 C 0.61197 1.12738 -0.08687
 C358 C 0.60470 1.08928 -0.09307
 C359 C 0.62447 1.07151 -0.12066
 C360 C 0.64303 1.03495 -0.12006
 C361 C 0.67457 1.05399 -0.13893
 H362 H 0.64660 1.17409 -0.09797
 H363 H 0.59617 1.14304 -0.06728
 H364 H 0.62923 1.01390 -0.13775
 H365 H 0.64934 1.02564 -0.09176
 H366 H 0.67892 1.04364 -0.16739
 H367 H 0.69923 1.05575 -0.12158
 C368 C 0.33878 0.91129 -0.14157
 C369 C 0.33761 0.87255 -0.14428
 C370 C 0.36701 0.85287 -0.12983
 C371 C 0.39440 0.87158 -0.10979
 C372 C 0.39265 0.91034 -0.10322
 C373 C 0.36535 0.92959 -0.12147
 C374 C 0.33943 0.95768 -0.10709
 C375 C 0.31035 0.93765 -0.12917
 H376 H 0.36828 0.82297 -0.13287
 H377 H 0.41611 0.85534 -0.09857
 H378 H 0.34535 0.98607 -0.11740
 H379 H 0.33549 0.95575 -0.07691
 H380 H 0.29975 0.95450 -0.15215
 H381 H 0.28945 0.92410 -0.11184
 C382 C 0.63526 0.89810 0.14667
 C383 C 0.64659 0.86281 0.13539
 C384 C 0.62681 0.84518 0.10695
 C385 C 0.60007 0.86456 0.08755
 C386 C 0.59254 0.90203 0.09611
 C387 C 0.60895 0.91712 0.12757
 C388 C 0.62772 0.95362 0.13292
 C389 C 0.65659 0.93285 0.15380
 H390 H 0.63305 0.81713 0.09839
 H391 H 0.58651 0.85066 0.06490
 H392 H 0.61203 0.97285 0.15062
 H393 H 0.63750 0.96569 0.10671
 H394 H 0.65750 0.94028 0.18346
 H395 H 0.68317 0.93285 0.13973
   
