data_POSCAR
  _audit_creation_date              2014-09-24
  _audit_creation_method            'ToBaCCo'
  _symmetry_space_group_name_H-M    'P1'
  _symmetry_Int_Tables_number       1
  _symmetry_cell_setting            triclinic
  loop_
  _symmetry_equiv_pos_as_xyz
 x,y,z
_cell_length_a 52.7904
_cell_length_b 54.0755
_cell_length_c 51.3459
_cell_angle_alpha 92.105600
_cell_angle_beta 90.553800
_cell_angle_gamma 94.134400
loop_
  _atom_site_label
  _atom_site_type_symbol
  _atom_site_fract_x
  _atom_site_fract_y
  _atom_site_fract_z
C1 C 0.21189 0.52338 1.03377
 H2 H 0.21209 0.53751 1.01938
 C3 C 0.19496 0.52403 1.05444
 H4 H 0.18312 0.53951 1.05591
 C5 C 0.22799 0.48676 1.04889
 H6 H 0.24031 0.47179 1.04620
 C7 C 0.21143 0.48666 1.06992
 H8 H 0.21139 0.47113 1.08257
 N9 N 0.22792 0.50493 1.03134
 C10 C 0.28801 0.53301 0.98030
 H11 H 0.28697 0.51825 0.96544
 C12 C 0.30637 0.55277 0.97881
 H13 H 0.31921 0.55323 0.96250
 C14 C 0.27240 0.55017 1.01959
 H15 H 0.25945 0.54884 1.03571
 C16 C 0.29051 0.57031 1.01888
 H17 H 0.29132 0.58429 1.03457
 Zn18 Zn 0.24808 0.50390 1.00115
 N19 N 0.27142 0.53211 1.00037
 C20 C 0.22701 0.52094 0.95447
 N21 N 0.22545 0.50291 0.97228
 C22 C 0.20650 0.48447 0.97103
 C23 C 0.18820 0.48357 0.95114
 C24 C 0.20913 0.52073 0.93424
 C25 C 0.28516 0.47442 1.01951
 C26 C 0.30034 0.45436 1.01996
 C27 C 0.27856 0.43712 0.98111
 C28 C 0.26378 0.45755 0.98139
 N29 N 0.26718 0.47557 1.00055
 H30 H 0.24176 0.53583 0.95620
 H31 H 0.20549 0.47060 0.98570
 H32 H 0.17335 0.46866 0.95039
 H33 H 0.21039 0.53552 0.92056
 H34 H 0.28765 0.48916 1.03433
 H35 H 0.31429 0.45364 1.03546
 H36 H 0.27581 0.42312 0.96552
 H37 H 0.24984 0.45908 0.96612
 C38 C 0.30789 0.57172 0.99835
 C39 C 0.19413 0.50532 1.07298
 C40 C 0.29716 0.43535 1.00057
 C41 C 0.18931 0.50194 0.93247
 C42 C 0.78996 0.51409 -0.02870
 H43 H 0.79105 0.52800 -0.01296
 C44 C 0.80736 0.51568 -0.04891
 H45 H 0.82194 0.53085 -0.04849
 C46 C 0.77008 0.47695 -0.04769
 H47 H 0.75570 0.46174 -0.04694
 C48 C 0.78721 0.47778 -0.06831
 H49 H 0.78556 0.46336 -0.08355
 N50 N 0.77163 0.49512 -0.02857
 C51 C 0.71295 0.52544 0.01978
 H52 H 0.71106 0.51185 0.03472
 C53 C 0.69783 0.54562 0.02041
 H54 H 0.68417 0.54733 0.03585
 C55 C 0.73249 0.53916 -0.01898
 H56 H 0.74575 0.53645 -0.03452
 C57 C 0.71775 0.55957 -0.01911
 H58 H 0.72028 0.57262 -0.03454
 Zn59 Zn 0.74981 0.49480 0.00041
 N60 N 0.73007 0.52273 0.00044
 C61 C 0.77096 0.51416 0.04910
 N62 N 0.77105 0.49571 0.03036
 C63 C 0.78757 0.47762 0.03157
 C64 C 0.80453 0.47727 0.05250
 C65 C 0.78771 0.51456 0.07040
 C66 C 0.71000 0.46247 -0.02033
 C67 C 0.69227 0.44196 -0.02112
 C68 C 0.71035 0.42879 0.01901
 C69 C 0.72768 0.44954 0.01906
 N70 N 0.72729 0.46583 -0.00048
 H71 H 0.75811 0.52870 0.04749
 H72 H 0.78760 0.46349 0.01609
 H73 H 0.81770 0.46283 0.05292
 H74 H 0.78724 0.52923 0.08529
 H75 H 0.70979 0.47595 -0.03538
 H76 H 0.67833 0.43991 -0.03680
 H77 H 0.71112 0.41600 0.03468
 H78 H 0.74117 0.45274 0.03497
 C79 C 0.70015 0.56305 0.00078
 C80 C 0.80609 0.49743 -0.06913
 C81 C 0.69220 0.42485 -0.00117
 C82 C 0.80474 0.49589 0.07230
 C83 C -0.02571 0.27938 0.48729
 H84 H -0.03998 0.28093 0.50214
 C85 C -0.02576 0.29448 0.46586
 H86 H -0.03995 0.30789 0.46527
 C87 C 0.01095 0.26105 0.47205
 H88 H 0.02539 0.24816 0.47463
 C89 C 0.01173 0.27585 0.45030
 H90 H 0.02639 0.27302 0.43618
 N91 N -0.00772 0.26290 0.48987
 C92 C -0.04234 0.20659 0.53973
 H93 H -0.02860 0.20708 0.55555
 C94 C -0.06322 0.18915 0.53926
 H95 H -0.06532 0.17613 0.55476
 C96 C -0.05539 0.22206 0.49956
 H97 H -0.05204 0.23450 0.48380
 C98 C -0.07653 0.20503 0.49835
 H99 H -0.08950 0.20500 0.48188
 Zn100 Zn -0.00887 0.24408 0.52024
 N101 N -0.03878 0.22254 0.52001
 C102 C -0.02700 0.26751 0.56656
 N103 N -0.00811 0.26719 0.54874
 C104 C 0.01144 0.28498 0.54927
 C105 C 0.01249 0.30422 0.56813
 C106 C -0.02672 0.28651 0.58583
 C107 C 0.02095 0.20634 0.50273
 C108 C 0.04163 0.19165 0.50221
 C109 C 0.05829 0.21395 0.54103
 C110 C 0.03726 0.22820 0.54082
 N111 N 0.01934 0.22446 0.52158
 H112 H -0.04266 0.25349 0.56543
 H113 H 0.02602 0.28443 0.53464
 H114 H 0.02824 0.31821 0.56816
 H115 H -0.04225 0.28692 0.59942
 H116 H 0.00627 0.20357 0.48784
 H117 H 0.04288 0.17776 0.48664
 H118 H 0.07235 0.21718 0.55651
 H119 H 0.03534 0.24224 0.55603
 C120 C -0.08051 0.18803 0.51819
 C121 C -0.00682 0.29305 0.44671
 C122 C 0.06077 0.19551 0.52143
 C123 C -0.00695 0.30539 0.58650
 C124 C 0.99189 0.71860 0.51041
 H125 H 0.97820 0.71504 0.49466
 C126 C 0.99108 0.70344 0.53181
 H127 H 0.97680 0.68805 0.53229
 C128 C 1.02762 0.74259 0.52837
 H129 H 1.04200 0.75768 0.52682
 C130 C 1.02754 0.72783 0.55015
 H131 H 1.04166 0.73203 0.56541
 N132 N 1.00974 0.73793 0.50923
 C133 C 0.97506 0.78911 0.45837
 H134 H 0.98904 0.79099 0.44317
 C135 C 0.95358 0.80276 0.45776
 H136 H 0.95123 0.81525 0.44206
 C137 C 0.96182 0.77141 0.49797
 H138 H 0.96528 0.75959 0.51392
 C139 C 0.94012 0.78466 0.49812
 H140 H 0.92685 0.78239 0.51395
 Zn141 Zn 1.00906 0.75711 0.47920
 N142 N 0.97874 0.77376 0.47824
 C143 C 0.99186 0.73137 0.43216
 N144 N 1.01089 0.73474 0.45027
 C145 C 1.03099 0.72039 0.44977
 C146 C 1.03243 0.70158 0.43065
 C147 C 0.99249 0.71267 0.41269
 C148 C 1.03689 0.79941 0.49907
 C149 C 1.05653 0.81809 0.50080
 C150 C 1.07521 0.79981 0.46258
 C151 C 1.05515 0.78145 0.46155
 N152 N 1.03666 0.78144 0.47983
 H153 H 0.97573 0.74256 0.43329
 H154 H 1.04565 0.72324 0.46467
 H155 H 1.04856 0.69031 0.43070
 H156 H 0.97676 0.70968 0.39899
 H157 H 1.02179 0.79909 0.51318
 H158 H 1.05656 0.83197 0.51655
 H159 H 1.08965 0.79968 0.44775
 H160 H 1.05432 0.76737 0.44604
 C161 C 0.93585 0.80075 0.47795
 C162 C 1.00900 0.70804 0.55212
 C163 C 1.07606 0.81846 0.48241
 C164 C 1.01279 0.69722 0.41204
 C165 C 0.46589 -0.01288 0.28360
 H166 H 0.47966 -0.02673 0.28423
 C167 C 0.44656 -0.01271 0.30198
 H168 H 0.44566 -0.02650 0.31677
 C169 C 0.45135 0.02276 0.26439
 H170 H 0.45358 0.03687 0.25008
 C171 C 0.43174 0.02362 0.28240
 H172 H 0.41873 0.03815 0.28133
 N173 N 0.46794 0.00470 0.26531
 C174 C 0.51379 -0.02569 0.20338
 H175 H 0.52815 -0.01047 0.20211
 C176 C 0.51448 -0.04648 0.18659
 H177 H 0.52923 -0.04622 0.17212
 C178 C 0.47646 -0.04275 0.22296
 H179 H 0.46162 -0.04116 0.23713
 C180 C 0.47631 -0.06392 0.20646
 H181 H 0.46159 -0.07851 0.20921
 Zn182 Zn 0.49636 0.00481 0.24307
 N183 N 0.49522 -0.02433 0.22135
 C184 C 0.54196 -0.01173 0.26387
 N185 N 0.52564 0.00662 0.26489
 C186 C 0.52873 0.02572 0.28289
 C187 C 0.54893 0.02690 0.30079
 C188 C 0.56242 -0.01126 0.28135
 C189 C 0.47775 0.03216 0.20301
 C190 C 0.47729 0.05117 0.18539
 C191 C 0.51641 0.06966 0.20467
 C192 C 0.51614 0.05024 0.22194
 N193 N 0.49688 0.03210 0.22092
 H194 H 0.53882 -0.02715 0.24998
 H195 H 0.51523 0.03985 0.28356
 H196 H 0.55109 0.04226 0.31495
 H197 H 0.57481 -0.02637 0.28061
 H198 H 0.46284 0.01733 0.20243
 H199 H 0.46168 0.05103 0.17153
 H200 H 0.53205 0.08377 0.20556
 H201 H 0.53150 0.04956 0.23588
 C202 C 0.49566 -0.06634 0.18787
 C203 C 0.42930 0.00587 0.30170
 C204 C 0.49682 0.07026 0.18603
 C205 C 0.56602 0.00815 0.30026
 C206 C 0.53703 -0.02492 0.71588
 H207 H 0.52181 -0.03943 0.71443
 C208 C 0.55747 -0.02544 0.69894
 H209 H 0.55776 -0.04041 0.68437
 C210 C 0.55434 0.01281 0.73594
 H211 H 0.55280 0.02787 0.75012
 C212 C 0.57514 0.01308 0.71926
 H213 H 0.58973 0.02820 0.72107
 N214 N 0.53588 -0.00610 0.73402
 C215 C 0.48453 -0.03791 0.79211
 H216 H 0.46995 -0.02483 0.79233
 C217 C 0.48300 -0.05769 0.80894
 H218 H 0.46694 -0.05991 0.82181
 C219 C 0.52329 -0.05067 0.77518
 H220 H 0.53931 -0.04756 0.76251
 C221 C 0.52250 -0.07069 0.79165
 H222 H 0.53800 -0.08276 0.79137
 Zn223 Zn 0.50626 -0.00672 0.75450
 N224 N 0.50439 -0.03485 0.77558
 C225 C 0.45941 -0.02600 0.73029
 N226 N 0.47851 -0.00770 0.73076
 C227 C 0.47926 0.01049 0.71314
 C228 C 0.46012 0.01102 0.69432
 C229 C 0.43977 -0.02616 0.71177
 C230 C 0.52447 0.02548 0.79589
 C231 C 0.52418 0.04553 0.81384
 C232 C 0.48618 0.05770 0.79272
 C233 C 0.48720 0.03746 0.77520
 N234 N 0.50618 0.02186 0.77701
 H235 H 0.45946 -0.04062 0.74406
 H236 H 0.49483 0.02466 0.71379
 H237 H 0.46090 0.02593 0.68077
 H238 H 0.42481 -0.04096 0.71151
 H239 H 0.53908 0.01253 0.79720
 H240 H 0.53863 0.04783 0.82902
 H241 H 0.47098 0.06995 0.79082
 H242 H 0.47253 0.03405 0.76045
 C243 C 0.50221 -0.07438 0.80889
 C244 C 0.57687 -0.00625 0.70044
 C245 C 0.50472 0.06186 0.81251
 C246 C 0.44002 -0.00748 0.69343
 C247 C 0.23754 0.05008 0.50704
 C248 C 0.25577 0.04621 0.52984
 C249 C 0.26824 0.02503 0.52740
 C250 C 0.26154 0.00966 0.50211
 C251 C 0.25458 0.04909 0.48299
 C252 C 0.26721 0.02801 0.48028
 C253 C 0.22019 0.02625 0.50487
 C254 C 0.23247 0.00510 0.50248
 H255 H 0.26000 0.05991 0.54545
 H256 H 0.27148 -0.00769 0.50033
 H257 H 0.25706 0.06422 0.46983
 H258 H 0.19967 0.02627 0.50532
 C259 C 0.76407 -0.04811 0.49216
 C260 C 0.74770 -0.04651 0.51665
 C261 C 0.73541 -0.02523 0.51940
 C262 C 0.74011 -0.00764 0.49665
 C263 C 0.74527 -0.04487 0.46980
 C264 C 0.73292 -0.02360 0.47175
 C265 C 0.78143 -0.02421 0.49327
 C266 C 0.76912 -0.00305 0.49561
 H267 H 0.74479 -0.06159 0.52981
 H268 H 0.73038 0.00982 0.49834
 H269 H 0.74132 -0.05878 0.45432
 H270 H 0.80195 -0.02423 0.49303
 C271 C 0.45365 0.26851 1.00088
 C272 C 0.45614 0.25068 0.97720
 C273 C 0.47779 0.23831 0.97717
 C274 C 0.49518 0.24512 1.00102
 C275 C 0.45624 0.25187 1.02429
 C276 C 0.47797 0.23965 1.02446
 C277 C 0.47802 0.28549 1.00133
 C278 C 0.49977 0.27354 1.00155
 H279 H 0.44140 0.24734 0.96244
 H280 H 0.51298 0.23542 1.00142
 H281 H 0.44115 0.24801 1.03798
 H282 H 0.47791 0.30552 1.00132
 C283 C 0.54441 0.73051 -0.00152
 C284 C 0.54298 0.74802 -0.02426
 C285 C 0.52113 0.76000 -0.02532
 C286 C 0.50273 0.75360 -0.00292
 C287 C 0.54056 0.74739 0.02261
 C288 C 0.51861 0.75933 0.02234
 C289 C 0.52017 0.71336 -0.00394
 C290 C 0.49839 0.72521 -0.00473
 H291 H 0.55857 0.75184 -0.03738
 H292 H 0.48468 0.76277 -0.00397
 H293 H 0.55507 0.75100 0.03754
 H294 H 0.52036 0.69333 -0.00435
 C295 C 0.99865 0.45284 0.27320
 C296 C 0.97522 0.45531 0.25577
 C297 C 0.97609 0.47637 0.24190
 C298 C 1.00095 0.49287 0.24622
 C299 C 1.02083 0.45466 0.25412
 C300 C 1.02245 0.47572 0.24025
 C301 C 1.00150 0.47701 0.28974
 C302 C 1.00272 0.49795 0.27581
 H303 H 0.96008 0.44085 0.25316
 H304 H 1.00213 0.51012 0.23517
 H305 H 1.03366 0.44008 0.25128
 H306 H 1.00189 0.47736 0.31085
 C307 C 0.00003 0.54861 0.72709
 C308 C -0.02313 0.54637 0.74493
 C309 C -0.02486 0.52547 0.75909
 C310 C -0.00301 0.50856 0.75405
 C311 C 0.02263 0.54653 0.74581
 C312 C 0.02119 0.52555 0.75978
 C313 C -0.00151 0.52449 0.71053
 C314 C -0.00290 0.50350 0.72438
 H315 H -0.03650 0.56056 0.74678
 H316 H -0.00398 0.49147 0.76538
 H317 H 0.03744 0.56120 0.74933
 H318 H -0.00137 0.52423 0.68943
 C319 C 0.12589 0.15213 0.51894
 C320 C 0.12887 0.17748 0.52574
 C321 C 0.10768 0.19158 0.52675
 C322 C 0.08323 0.18048 0.52091
 C323 C 0.08046 0.15496 0.51425
 C324 C 0.10165 0.14091 0.51328
 C325 C 0.14759 0.13753 0.51752
 C326 C 0.16527 0.12465 0.51604
 C327 C 0.18562 0.10840 0.51392
 C328 C 0.19313 0.09989 0.48935
 C329 C 0.21087 0.08199 0.48717
 C330 C 0.22182 0.07256 0.50957
 C331 C 0.21410 0.08143 0.53423
 C332 C 0.19633 0.09933 0.53634
 H333 H 0.14756 0.18636 0.53009
 H334 H 0.11046 0.21125 0.53163
 H335 H 0.06188 0.14581 0.51000
 H336 H 0.09913 0.12128 0.50807
 H337 H 0.18455 0.10639 0.47186
 H338 H 0.21512 0.07477 0.46790
 H339 H 0.22080 0.07378 0.55197
 H340 H 0.19023 0.10540 0.55547
 C341 C 0.65353 0.62512 0.00085
 C342 C 0.66373 0.61756 0.02427
 C343 C 0.67894 0.59742 0.02429
 C344 C 0.68414 0.58456 0.00084
 C345 C 0.67384 0.59238 -0.02261
 C346 C 0.65864 0.61250 -0.02258
 C347 C 0.63717 0.64530 0.00086
 C348 C 0.62299 0.66182 0.00071
 C349 C 0.60537 0.68093 0.00040
 C350 C 0.59437 0.68894 0.02359
 C351 C 0.57554 0.70581 0.02308
 C352 C 0.56765 0.71537 -0.00063
 C353 C 0.57890 0.70705 -0.02386
 C354 C 0.59774 0.69017 -0.02329
 H355 H 0.65986 0.62717 0.04253
 H356 H 0.68683 0.59205 0.04261
 H357 H 0.67716 0.58266 -0.04094
 H358 H 0.65069 0.61807 -0.04080
 H359 H 0.59975 0.68152 0.04199
 H360 H 0.56647 0.71054 0.04122
 H361 H 0.57249 0.71271 -0.04265
 H362 H 0.60574 0.68369 -0.04143
 C363 C 0.87168 -0.15458 0.47987
 C364 C 0.88499 -0.15860 0.50283
 C365 C 0.90574 -0.17322 0.50219
 C366 C 0.91350 -0.18407 0.47852
 C367 C 0.89992 -0.18001 0.45552
 C368 C 0.87913 -0.16535 0.45622
 C369 C 0.85096 -0.13870 0.48069
 C370 C 0.83408 -0.12486 0.48200
 C371 C 0.81463 -0.10761 0.48423
 C372 C 0.80602 -0.10048 0.50885
 C373 C 0.78891 -0.08202 0.51142
 C374 C 0.77966 -0.07067 0.48929
 C375 C 0.78863 -0.07802 0.46460
 C376 C 0.80577 -0.09648 0.46210
 H377 H 0.87951 -0.15019 0.52122
 H378 H 0.91603 -0.17562 0.52016
 H379 H 0.90528 -0.18831 0.43706
 H380 H 0.86898 -0.16230 0.43831
 H381 H 0.81321 -0.10858 0.52618
 H382 H 0.78385 -0.07604 0.53089
 H383 H 0.78316 -0.06889 0.44723
 H384 H 0.81273 -0.10148 0.44298
 C385 C 0.34447 0.37381 1.00018
 C386 C 0.35483 0.39782 1.00662
 C387 C 0.33946 0.41780 1.00676
 C388 C 0.31344 0.41404 1.00044
 C389 C 0.30318 0.38982 0.99395
 C390 C 0.31862 0.36983 0.99384
 C391 C 0.36057 0.35342 0.99997
 C392 C 0.37470 0.33686 0.99989
 C393 C 0.39239 0.31781 0.99990
 C394 C 0.40001 0.30825 1.02343
 C395 C 0.41900 0.29153 1.02377
 C396 C 0.43043 0.28370 1.00045
 C397 C 0.42254 0.29357 0.97690
 C398 C 0.40356 0.31029 0.97663
 H399 H 0.37485 0.40113 1.01145
 H400 H 0.34802 0.43624 1.01144
 H401 H 0.28317 0.38628 0.98928
 H402 H 0.31039 0.35131 0.98886
 H403 H 0.39188 0.31438 1.04165
 H404 H 0.42535 0.28566 1.04249
 H405 H 0.43170 0.28910 0.95874
 H406 H 0.39819 0.31796 0.95835
 C407 C 0.85954 0.12983 0.51215
 C408 C 0.86543 0.14177 0.53634
 C409 C 0.88465 0.16101 0.53834
 C410 C 0.89822 0.16848 0.51615
 C411 C 0.89186 0.15653 0.49191
 C412 C 0.87268 0.13737 0.48996
 C413 C 0.84127 0.10876 0.51010
 C414 C 0.82696 0.09042 0.50755
 C415 C 0.81125 0.06770 0.50364
 C416 C 0.78886 0.06331 0.51769
 C417 C 0.77465 0.04046 0.51459
 C418 C 0.78285 0.02180 0.49755
 C419 C 0.80502 0.02667 0.48309
 C420 C 0.81909 0.04944 0.48614
 H421 H 0.85546 0.13597 0.55367
 H422 H 0.88893 0.17000 0.55722
 H423 H 0.90222 0.16148 0.47453
 H424 H 0.86846 0.12807 0.47120
 H425 H 0.78265 0.07732 0.53134
 H426 H 0.75778 0.03712 0.52614
 H427 H 0.81157 0.01279 0.46951
 H428 H 0.83633 0.05267 0.47510
 C429 C 0.36640 0.63122 -0.00377
 C430 C 0.37172 0.60693 -0.01083
 C431 C 0.35270 0.58765 -0.01014
 C432 C 0.32798 0.59238 -0.00238
 C433 C 0.32277 0.61688 0.00477
 C434 C 0.34189 0.63619 0.00405
 C435 C 0.38643 0.65070 -0.00444
 C436 C 0.40425 0.66587 -0.00538
 C437 C 0.42678 0.68238 -0.00692
 C438 C 0.44678 0.67516 -0.02242
 C439 C 0.46977 0.68957 -0.02235
 C440 C 0.47312 0.71148 -0.00670
 C441 C 0.45265 0.71920 0.00808
 C442 C 0.42959 0.70461 0.00808
 H443 H 0.39066 0.60284 -0.01678
 H444 H 0.35746 0.56897 -0.01532
 H445 H 0.30387 0.62114 0.01060
 H446 H 0.33756 0.65494 0.00956
 H447 H 0.44482 0.65802 -0.03412
 H448 H 0.48509 0.68339 -0.03425
 H449 H 0.45482 0.73589 0.02044
 H450 H 0.41425 0.71032 0.02025
 C451 C 0.13645 -0.12379 0.48765
 C452 C 0.11133 -0.11828 0.49213
 C453 C 0.09173 -0.13702 0.49022
 C454 C 0.09696 -0.16163 0.48381
 C455 C 0.12225 -0.16699 0.47907
 C456 C 0.14189 -0.14816 0.48103
 C457 C 0.15635 -0.10421 0.49027
 C458 C 0.17190 -0.08684 0.49301
 C459 C 0.18884 -0.06494 0.49689
 C460 C 0.18227 -0.04642 0.51475
 C461 C 0.19700 -0.02398 0.51713
 C462 C 0.21856 -0.01969 0.50160
 C463 C 0.22568 -0.03873 0.48444
 C464 C 0.21078 -0.06124 0.48198
 H465 H 0.10690 -0.09945 0.49718
 H466 H 0.07244 -0.13222 0.49357
 H467 H 0.12688 -0.18581 0.47434
 H468 H 0.16128 -0.15263 0.47757
 H469 H 0.16537 -0.04909 0.52643
 H470 H 0.19131 -0.00982 0.53089
 H471 H 0.24208 -0.03589 0.47219
 H472 H 0.21599 -0.07545 0.46802
 C473 C 0.63426 0.36471 0.99986
 C474 C 0.64233 0.37733 1.02307
 C475 C 0.66141 0.39661 1.02277
 C476 C 0.67273 0.40359 0.99918
 C477 C 0.66475 0.39052 0.97596
 C478 C 0.64562 0.37123 0.97632
 C479 C 0.61315 0.34631 1.00016
 C480 C 0.59473 0.33183 1.00094
 C481 C 0.57177 0.31590 1.00242
 C482 C 0.55182 0.32375 1.01761
 C483 C 0.52870 0.30955 1.01788
 C484 C 0.52512 0.28724 1.00289
 C485 C 0.54553 0.27899 0.98839
 C486 C 0.56873 0.29332 0.98805
 H487 H 0.63348 0.37263 1.04137
 H488 H 0.66679 0.40652 1.04092
 H489 H 0.67328 0.39526 0.95754
 H490 H 0.63942 0.36166 0.95821
 H491 H 0.55397 0.34112 1.02889
 H492 H 0.51350 0.31617 1.02967
 H493 H 0.54330 0.26200 0.97658
 H494 H 0.58406 0.28708 0.97618
 C495 C 0.49570 0.12897 1.13175
 C496 C 0.50336 0.13432 1.15765
 C497 C 0.50395 0.11523 1.17528
 C498 C 0.49678 0.09053 1.16724
 C499 C 0.48931 0.08535 1.14110
 C500 C 0.48877 0.10444 1.12351
 C501 C 0.49432 0.14864 1.11373
 C502 C 0.49272 0.16495 1.09852
 C503 C 0.49020 0.18425 1.08025
 C504 C 0.49832 0.18107 1.05454
 C505 C 0.49475 0.19930 1.03648
 C506 C 0.48295 0.22092 1.04392
 C507 C 0.47518 0.22411 1.06989
 C508 C 0.47879 0.20588 1.08792
 H509 H 0.50866 0.15325 1.16427
 H510 H 0.50951 0.11986 1.19532
 H511 H 0.48406 0.06650 1.13419
 H512 H 0.48284 0.10008 1.10351
 H513 H 0.50703 0.16433 1.04835
 H514 H 0.50054 0.19608 1.01655
 H515 H 0.46629 0.24068 1.07627
 H516 H 0.47244 0.20854 1.10776
 C517 C 0.00707 0.66015 0.61710
 C518 C -0.01553 0.66796 0.60683
 C519 C -0.01488 0.68381 0.58594
 C520 C 0.00842 0.69204 0.57500
 C521 C 0.03108 0.68439 0.58572
 C522 C 0.03038 0.66851 0.60662
 C523 C 0.00622 0.64277 0.63765
 C524 C 0.00529 0.62775 0.65444
 C525 C 0.00400 0.60927 0.67390
 C526 C -0.01953 0.59818 0.68100
 C527 C -0.02078 0.57909 0.69865
 C528 C 0.00151 0.57109 0.70998
 C529 C 0.02513 0.58219 0.70225
 C530 C 0.02631 0.60127 0.68458
 H531 H -0.03367 0.66158 0.61481
 H532 H -0.03261 0.68965 0.57834
 H533 H 0.04928 0.69019 0.57753
 H534 H 0.04798 0.66245 0.61434
 H535 H -0.03691 0.60387 0.67240
 H536 H -0.03921 0.57018 0.70288
 H537 H 0.04282 0.57570 0.70908
 H538 H 0.04467 0.60936 0.67874
 C539 C 0.50262 0.86645 -0.13734
 C540 C 0.50996 0.86246 -0.16319
 C541 C 0.50944 0.88156 -0.18079
 C542 C 0.50159 0.90495 -0.17277
 C543 C 0.49389 0.90864 -0.14683
 C544 C 0.49444 0.88952 -0.12926
 C545 C 0.50433 0.84719 -0.11889
 C546 C 0.50616 0.83133 -0.10320
 C547 C 0.50882 0.81276 -0.08415
 C548 C 0.52236 0.79201 -0.09007
 C549 C 0.52601 0.77464 -0.07110
 C550 C 0.51623 0.77784 -0.04585
 C551 C 0.50225 0.79852 -0.04034
 C552 C 0.49863 0.81587 -0.05930
 H553 H 0.51631 0.84467 -0.16967
 H554 H 0.51517 0.87802 -0.20070
 H555 H 0.48808 0.92651 -0.13993
 H556 H 0.48884 0.89286 -0.10926
 H557 H 0.53030 0.78936 -0.10926
 H558 H 0.53646 0.75870 -0.07624
 H559 H 0.49467 0.80179 -0.02123
 H560 H 0.48819 0.83192 -0.05445
 C561 C 0.99506 0.34099 0.38280
 C562 C 0.97217 0.33482 0.39517
 C563 C 0.97144 0.31884 0.41595
 C564 C 0.99373 0.30863 0.42494
 C565 C 1.01663 0.31480 0.41175
 C566 C 1.01723 0.33085 0.39100
 C567 C 0.99589 0.35847 0.36233
 C568 C 0.99645 0.37356 0.34562
 C569 C 0.99696 0.39210 0.32624
 C570 C 0.97423 0.40010 0.31658
 C571 C 0.97462 0.41923 0.29899
 C572 C 0.99786 0.43038 0.29032
 C573 C 1.02061 0.42238 0.30063
 C574 C 1.02015 0.40325 0.31822
 H575 H 0.95482 0.34246 0.38881
 H576 H 0.95308 0.31408 0.42428
 H577 H 1.03454 0.30841 0.41806
 H578 H 1.03514 0.33572 0.38168
 H579 H 0.95615 0.39197 0.32315
 H580 H 0.95664 0.42569 0.29299
 H581 H 1.03882 0.43132 0.29562
 H582 H 1.03787 0.39756 0.32603
 C583 C 0.49743 0.87012 0.13654
 C584 C 0.47452 0.87625 0.14758
 C585 C 0.47387 0.89697 0.16467
 C586 C 0.49622 0.91218 0.17100
 C587 C 0.51922 0.90535 0.15979
 C588 C 0.51974 0.88463 0.14281
 C589 C 0.49821 0.84935 0.11827
 C590 C 0.49966 0.83238 0.10258
 C591 C 0.50235 0.81270 0.08336
 C592 C 0.49074 0.81350 0.05886
 C593 C 0.49527 0.79571 0.03933
 C594 C 0.51180 0.77696 0.04383
 C595 C 0.52241 0.77572 0.06905
 C596 C 0.51784 0.79352 0.08855
 H597 H 0.45705 0.86523 0.14269
 H598 H 0.45550 0.90146 0.17180
 H599 H 0.53721 0.91536 0.16462
 H600 H 0.53767 0.87992 0.13454
 H601 H 0.47861 0.82823 0.05464
 H602 H 0.48624 0.79730 0.02067
 H603 H 0.53442 0.76112 0.07384
 H604 H 0.52679 0.79258 0.10753
 C605 C -0.00698 0.36798 0.64055
 C606 C -0.00001 0.37127 0.61464
 C607 C -0.00009 0.35091 0.59716
 C608 C -0.00710 0.32686 0.60533
 C609 C -0.01429 0.32369 0.63140
 C610 C -0.01418 0.34417 0.64894
 C611 C -0.00657 0.38932 0.65814
 C612 C -0.00571 0.40811 0.67157
 C613 C -0.00411 0.43150 0.68597
 C614 C 0.01056 0.45154 0.67616
 C615 C 0.01125 0.47480 0.68891
 C616 C -0.00282 0.47842 0.71170
 C617 C -0.01701 0.45804 0.72182
 C618 C -0.01774 0.43470 0.70895
 H619 H 0.00546 0.38963 0.60791
 H620 H 0.00506 0.35404 0.57712
 H621 H -0.01963 0.30538 0.63829
 H622 H -0.01960 0.34144 0.66898
 H623 H 0.02126 0.44925 0.65844
 H624 H 0.02285 0.48995 0.68092
 H625 H -0.02810 0.46021 0.73920
 H626 H -0.02922 0.41931 0.71667
 C627 C 0.50004 0.12230 0.86877
 C628 C 0.52369 0.11656 0.85905
 C629 C 0.52531 0.09686 0.84080
 C630 C 0.50325 0.08271 0.83201
 C631 C 0.47961 0.08859 0.84203
 C632 C 0.47805 0.10823 0.86024
 C633 C 0.49805 0.14261 0.88741
 C634 C 0.49547 0.15947 0.90298
 C635 C 0.49130 0.17937 0.92149
 C636 C 0.51176 0.19419 0.93251
 C637 C 0.50740 0.21343 0.95055
 C638 C 0.48251 0.21817 0.95771
 C639 C 0.46210 0.20304 0.94657
 C640 C 0.46649 0.18385 0.92860
 H641 H 0.54085 0.12736 0.86549
 H642 H 0.54375 0.09294 0.83328
 H643 H 0.46233 0.07781 0.83602
 H644 H 0.45965 0.11243 0.86771
 H645 H 0.53106 0.19089 0.92716
 H646 H 0.52353 0.22470 0.95860
 H647 H 0.44271 0.20565 0.95208
 H648 H 0.45050 0.17240 0.92034
 C649 C 1.01143 0.63427 0.35830
 C650 C 1.00363 0.65690 0.34993
 C651 C 1.00428 0.67755 0.36727
 C652 C 1.01277 0.67575 0.39317
 C653 C 1.02066 0.65291 0.40126
 C654 C 1.02000 0.63238 0.38395
 C655 C 1.01022 0.61262 0.34110
 C656 C 1.00943 0.59368 0.32790
 C657 C 1.00877 0.57023 0.31367
 C658 C 0.99423 0.56604 0.29077
 C659 C 0.99261 0.54260 0.27809
 C660 C 1.00539 0.52312 0.28832
 C661 C 1.02031 0.52768 0.31105
 C662 C 1.02196 0.55107 0.32362
 H663 H 0.99695 0.65855 0.33010
 H664 H 0.99827 0.69493 0.36041
 H665 H 1.02681 0.65074 0.42117
 H666 H 1.02593 0.61490 0.39068
 H667 H 0.98383 0.58073 0.28300
 H668 H 0.98076 0.53954 0.26077
 H669 H 1.03071 0.51316 0.31915
 H670 H 1.03328 0.55411 0.34132
 C671 C 1.13899 0.50151 0.13286
 C672 C 1.16190 0.49053 0.13598
 C673 C 1.18026 0.49213 0.11657
 C674 C 1.17608 0.50476 0.09342
 C675 C 1.15292 0.51623 0.09100
 C676 C 1.13463 0.51452 0.11047
 C677 C 1.11953 0.49858 0.15215
 C678 C 1.10303 0.49564 0.16802
 C679 C 1.08314 0.49157 0.18666
 C680 C 1.08739 0.47807 0.20880
 C681 C 1.06775 0.47315 0.22633
 C682 C 1.04348 0.48157 0.22191
 C683 C 1.03961 0.49552 0.19984
 C684 C 1.05927 0.50041 0.18230
 H685 H 1.16555 0.48056 0.15340
 H686 H 1.19793 0.48389 0.12030
 H687 H 1.14798 0.52546 0.07354
 H688 H 1.11681 0.52292 0.10776
 H689 H 1.10583 0.47121 0.21242
 H690 H 1.07168 0.46288 0.24344
 H691 H 1.02134 0.50225 0.19569
 H692 H 1.05576 0.51084 0.16517
 C693 C 0.63656 -0.00697 0.64413
 C694 C 0.62818 -0.02881 0.65617
 C695 C 0.60920 -0.02846 0.67492
 C696 C 0.59828 -0.00621 0.68189
 C697 C 0.60724 0.01579 0.67013
 C698 C 0.62623 0.01538 0.65131
 C699 C 0.65491 -0.00786 0.62363
 C700 C 0.66986 -0.00932 0.60612
 C701 C 0.68723 -0.01188 0.58492
 C702 C 0.70820 -0.02598 0.58770
 C703 C 0.72411 -0.02992 0.56657
 C704 C 0.71918 -0.01994 0.54221
 C705 C 0.69844 -0.00520 0.53990
 C706 C 0.68253 -0.00130 0.56106
 H707 H 0.63606 -0.04621 0.65079
 H708 H 0.60294 -0.04563 0.68388
 H709 H 0.59902 0.03315 0.67487
 H710 H 0.63250 0.03239 0.64203
 H711 H 0.71209 -0.03420 0.60611
 H712 H 0.74027 -0.04079 0.56940
 H713 H 0.69396 0.00283 0.52168
 H714 H 0.66630 0.00963 0.55866
 C715 C -0.13864 0.50245 0.87005
 C716 C -0.14600 0.47937 0.88016
 C717 C -0.16433 0.47758 0.89965
 C718 C -0.17542 0.49892 0.90930
 C719 C -0.16816 0.52195 0.89869
 C720 C -0.14990 0.52368 0.87923
 C721 C -0.11913 0.50471 0.85074
 C722 C -0.10267 0.50746 0.83479
 C723 C -0.08299 0.51174 0.81595
 C724 C -0.07304 0.49185 0.80230
 C725 C -0.05402 0.49628 0.78390
 C726 C -0.04481 0.52067 0.77883
 C727 C -0.05479 0.54050 0.79293
 C728 C -0.07375 0.53604 0.81130
 H729 H -0.13735 0.46283 0.87323
 H730 H -0.16935 0.45965 0.90762
 H731 H -0.17662 0.53864 0.90545
 H732 H -0.14440 0.54163 0.87149
 H733 H -0.08004 0.47295 0.80578
 H734 H -0.04691 0.48062 0.77340
 H735 H -0.04775 0.55948 0.79008
 H736 H -0.08118 0.55157 0.82191
 C737 C 0.37309 0.01024 0.36151
 C738 C 0.37840 -0.01287 0.35053
 C739 C 0.39652 -0.01434 0.33091
 C740 C 0.40954 0.00732 0.32201
 C741 C 0.40394 0.03044 0.33312
 C742 C 0.38585 0.03186 0.35271
 C743 C 0.35476 0.01193 0.38196
 C744 C 0.33956 0.01400 0.39916
 C745 C 0.32159 0.01729 0.41969
 C746 C 0.30750 -0.00315 0.42952
 C747 C 0.28991 0.00029 0.44932
 C748 C 0.28608 0.02424 0.45946
 C749 C 0.30060 0.04461 0.44960
 C750 C 0.31816 0.04114 0.42986
 H751 H 0.36859 -0.02973 0.35715
 H752 H 0.40021 -0.03239 0.32258
 H753 H 0.41390 0.04743 0.32703
 H754 H 0.38196 0.04984 0.36113
 H755 H 0.31002 -0.02172 0.42181
 H756 H 0.27909 -0.01577 0.45632
 H757 H 0.29872 0.06326 0.45735
 H758 H 0.32910 0.05708 0.42255
 C759 C 0.13175 0.50395 0.87296
 C760 C 0.15731 0.50939 0.86700
 C761 C 0.17608 0.50842 0.88624
 C762 C 0.16951 0.50199 0.91174
 C763 C 0.14378 0.49623 0.91744
 C764 C 0.12503 0.49724 0.89817
 C765 C 0.11240 0.50608 0.85343
 C766 C 0.09636 0.50840 0.83701
 C767 C 0.07751 0.51182 0.81732
 C768 C 0.08471 0.52319 0.79423
 C769 C 0.06641 0.52745 0.77541
 C770 C 0.04062 0.52039 0.77945
 C771 C 0.03356 0.50871 0.80258
 C772 C 0.05192 0.50450 0.82142
 H773 H 0.16270 0.51461 0.84754
 H774 H 0.19574 0.51265 0.88118
 H775 H 0.13808 0.49155 0.93696
 H776 H 0.10529 0.49312 0.90302
 H777 H 0.10446 0.52892 0.79085
 H778 H 0.07246 0.53617 0.75764
 H779 H 0.01383 0.50340 0.80642
 H780 H 0.04613 0.49580 0.83931
 C781 C 0.62541 0.00534 0.35777
 C782 C 0.63000 -0.00077 0.33160
 C783 C 0.61089 0.00063 0.31279
 C784 C 0.58686 0.00816 0.31993
 C785 C 0.58259 0.01474 0.34622
 C786 C 0.60174 0.01329 0.36500
 C787 C 0.64457 0.00234 0.37731
 C788 C 0.66047 -0.00081 0.39365
 C789 C 0.67927 -0.00533 0.41305
 C790 C 0.70025 -0.01841 0.40612
 C791 C 0.71786 -0.02401 0.42513
 C792 C 0.71469 -0.01670 0.45145
 C793 C 0.69384 -0.00307 0.45808
 C794 C 0.67621 0.00249 0.43903
 H795 H 0.64825 -0.00696 0.32579
 H796 H 0.61486 -0.00425 0.29268
 H797 H 0.56421 0.02027 0.35240
 H798 H 0.59792 0.01793 0.38522
 H799 H 0.70288 -0.02450 0.38605
 H800 H 0.73399 -0.03401 0.41914
 H801 H 0.69068 0.00279 0.47799
 H802 H 0.65999 0.01259 0.44464
 C803 C 0.85935 0.49543 0.13483
 C804 C 0.84617 0.47332 0.12592
 C805 C 0.82810 0.47354 0.10591
 C806 C 0.82297 0.49593 0.09449
 C807 C 0.83597 0.51815 0.10390
 C808 C 0.85410 0.51787 0.12392
 C809 C 0.87886 0.49475 0.15449
 C810 C 0.89540 0.49341 0.17060
 C811 C 0.91531 0.49085 0.18943
 C812 C 0.91010 0.47799 0.21211
 C813 C 0.92976 0.47378 0.22944
 C814 C 0.95502 0.48224 0.22424
 C815 C 0.95987 0.49584 0.20178
 C816 C 0.94017 0.50002 0.18445
 H817 H 0.85006 0.45584 0.13426
 H818 H 0.81814 0.45619 0.09933
 H819 H 0.83263 0.53563 0.09530
 H820 H 0.86429 0.53508 0.13061
 H821 H 0.89089 0.47087 0.21621
 H822 H 0.92513 0.46382 0.24687
 H823 H 0.97888 0.50266 0.19706
 H824 H 0.94443 0.50996 0.16689
 C825 C 0.38051 -0.00390 0.63619
 C826 C 0.40590 0.00105 0.62934
 C827 C 0.42526 -0.00055 0.64782
 C828 C 0.41949 -0.00709 0.67349
 C829 C 0.39392 -0.01251 0.68007
 C830 C 0.37456 -0.01086 0.66153
 C831 C 0.36061 -0.00079 0.61748
 C832 C 0.34412 0.00245 0.60182
 C833 C 0.32458 0.00706 0.58322
 C834 C 0.32760 0.00113 0.55671
 C835 C 0.30912 0.00669 0.53854
 C836 C 0.28743 0.01835 0.54669
 C837 C 0.28444 0.02398 0.57341
 C838 C 0.30290 0.01837 0.59152
 H839 H 0.41073 0.00643 0.60978
 H840 H 0.44477 0.00336 0.64204
 H841 H 0.38886 -0.01735 0.69972
 H842 H 0.35495 -0.01462 0.66709
 H843 H 0.34440 -0.00748 0.55004
 H844 H 0.31217 0.00247 0.51809
 H845 H 0.26778 0.03265 0.58032
 H846 H 0.30037 0.02306 0.61199
   
