data_POSCAR
  _audit_creation_date              2014-09-24
  _audit_creation_method            'ToBaCCo'
  _symmetry_space_group_name_H-M    'P1'
  _symmetry_Int_Tables_number       1
  _symmetry_cell_setting            triclinic
  loop_
  _symmetry_equiv_pos_as_xyz
 x,y,z
_cell_length_a 39.8587
_cell_length_b 37.9738
_cell_length_c 36.8148
_cell_angle_alpha 88.037900
_cell_angle_beta 92.342600
_cell_angle_gamma 92.524700
loop_
  _atom_site_label
  _atom_site_type_symbol
  _atom_site_fract_x
  _atom_site_fract_y
  _atom_site_fract_z
C1 C 0.30175 0.30698 0.22628
 H2 H 0.30760 0.30690 0.25524
 C3 C 0.32264 0.32594 0.20241
 H4 H 0.34475 0.33994 0.21343
 C5 C 0.26668 0.28682 0.17708
 H6 H 0.24523 0.27103 0.16725
 C7 C 0.28691 0.30535 0.15223
 H8 H 0.28066 0.30385 0.12339
 N9 N 0.27424 0.28819 0.21337
 C10 C 0.20566 0.27848 0.30265
 H11 H 0.20203 0.25012 0.30545
 C12 C 0.18784 0.30030 0.32399
 H13 H 0.17125 0.28822 0.34378
 C14 C 0.23212 0.32820 0.27341
 H15 H 0.24881 0.33907 0.25316
 C16 C 0.21490 0.35096 0.29423
 H17 H 0.21885 0.37919 0.29003
 Zn18 Zn 0.24832 0.26193 0.24754
 N19 N 0.22728 0.29267 0.27797
 C20 C 0.28041 0.23097 0.31136
 N21 N 0.27801 0.23235 0.27438
 C22 C 0.29769 0.21280 0.25441
 C23 C 0.32038 0.19012 0.27147
 C24 C 0.30276 0.20842 0.32969
 C25 C 0.18898 0.25114 0.20483
 C26 C 0.16365 0.23187 0.18592
 C27 C 0.18992 0.17823 0.20641
 C28 C 0.21458 0.19855 0.22508
 N29 N 0.21413 0.23432 0.22333
 H30 H 0.26493 0.24719 0.32674
 H31 H 0.29554 0.21474 0.22502
 H32 H 0.33554 0.17464 0.25476
 H33 H 0.30351 0.20777 0.35905
 H34 H 0.18887 0.27964 0.20444
 H35 H 0.14417 0.24594 0.17091
 H36 H 0.19126 0.14992 0.20898
 H37 H 0.23410 0.18557 0.24092
 C38 C 0.19205 0.33715 0.31948
 C39 C 0.31515 0.32540 0.16478
 C40 C 0.16417 0.19487 0.18576
 C41 C 0.32318 0.18738 0.30964
 C42 C 0.80148 0.80893 0.23919
 H43 H 0.80623 0.81051 0.26825
 C44 C 0.82117 0.82958 0.21532
 H45 H 0.84060 0.84680 0.22716
 C46 C 0.77120 0.78261 0.18984
 H47 H 0.75251 0.76353 0.17984
 C48 C 0.79010 0.80273 0.16501
 H49 H 0.78498 0.79899 0.13621
 N50 N 0.77717 0.78591 0.22620
 C51 C 0.70965 0.75961 0.31510
 H52 H 0.71037 0.73116 0.31548
 C53 C 0.68888 0.77592 0.33850
 H54 H 0.67377 0.75982 0.35701
 C55 C 0.72809 0.81506 0.29003
 H56 H 0.74323 0.83019 0.27090
 C57 C 0.70760 0.83247 0.31292
 H58 H 0.70804 0.86097 0.31157
 Zn59 Zn 0.75493 0.75470 0.25972
 N60 N 0.72883 0.77926 0.29161
 C61 C 0.79063 0.72640 0.32260
 N62 N 0.78875 0.72956 0.28568
 C63 C 0.81127 0.71429 0.26515
 C64 C 0.83619 0.69381 0.28152
 C65 C 0.81513 0.70593 0.34022
 C66 C 0.69922 0.73503 0.21408
 C67 C 0.67824 0.71227 0.19339
 C68 C 0.71077 0.66366 0.21665
 C69 C 0.73115 0.68736 0.23666
 N70 N 0.72561 0.72243 0.23438
 H71 H 0.77286 0.73926 0.33849
 H72 H 0.80940 0.71751 0.23583
 H73 H 0.85341 0.68143 0.26436
 H74 H 0.81519 0.70350 0.36951
 H75 H 0.69503 0.76301 0.21324
 H76 H 0.65826 0.72367 0.17687
 H77 H 0.71621 0.63592 0.21846
 H78 H 0.75161 0.67760 0.25371
 C79 C 0.68735 0.81276 0.33735
 C80 C 0.81595 0.82638 0.17734
 C81 C 0.68418 0.67589 0.19406
 C82 C 0.83825 0.68884 0.31954
 C83 C 0.78840 0.29623 0.73402
 H84 H 0.79566 0.29535 0.76266
 C85 C 0.80805 0.31603 0.70953
 H86 H 0.83055 0.32987 0.71981
 C87 C 0.75127 0.27716 0.68607
 H88 H 0.72964 0.26140 0.67678
 C89 C 0.77015 0.29659 0.66068
 H90 H 0.76257 0.29578 0.63211
 N91 N 0.76040 0.27763 0.72206
 C92 C 0.69219 0.26492 0.81175
 H93 H 0.68655 0.23679 0.81166
 C94 C 0.67620 0.28589 0.83567
 H95 H 0.65848 0.27364 0.85425
 C96 C 0.72259 0.31498 0.78797
 H97 H 0.74031 0.32641 0.76910
 C98 C 0.70769 0.33675 0.81183
 H99 H 0.71425 0.36475 0.81123
 Zn100 Zn 0.73603 0.25015 0.75690
 N101 N 0.71497 0.27969 0.78862
 C102 C 0.76993 0.22047 0.81996
 N103 N 0.76741 0.22206 0.78300
 C104 C 0.78798 0.20379 0.76277
 C105 C 0.81181 0.18226 0.77959
 C106 C 0.79344 0.19911 0.83804
 C107 C 0.67731 0.23535 0.71321
 C108 C 0.65476 0.21419 0.69254
 C109 C 0.68333 0.16293 0.71596
 C110 C 0.70534 0.18510 0.73597
 N111 N 0.70278 0.22066 0.73328
 H112 H 0.75356 0.23557 0.83551
 H113 H 0.78563 0.20581 0.73340
 H114 H 0.82766 0.16775 0.76271
 H115 H 0.79422 0.19817 0.86740
 H116 H 0.67532 0.26370 0.71218
 H117 H 0.63548 0.22667 0.67566
 H118 H 0.68676 0.13496 0.71900
 H119 H 0.72489 0.17372 0.75316
 C120 C 0.68403 0.32231 0.83580
 C121 C 0.79880 0.31652 0.67226
 C122 C 0.65819 0.17745 0.69263
 C123 C 0.81484 0.17941 0.81774
 C124 C 0.29022 0.80724 0.72655
 H125 H 0.29524 0.80871 0.75558
 C126 C 0.31023 0.82726 0.70251
 H127 H 0.33045 0.84393 0.71373
 C128 C 0.25913 0.78143 0.67737
 H129 H 0.24004 0.76269 0.66752
 C130 C 0.27837 0.80105 0.65241
 H131 H 0.27338 0.79749 0.62359
 N132 N 0.26538 0.78473 0.71371
 C133 C 0.19891 0.75891 0.80343
 H134 H 0.19935 0.73045 0.80330
 C135 C 0.17904 0.77503 0.82781
 H136 H 0.16426 0.75880 0.84651
 C137 C 0.21751 0.81455 0.77890
 H138 H 0.23247 0.82979 0.75968
 C139 C 0.19787 0.83181 0.80279
 H140 H 0.19868 0.86032 0.80207
 Zn141 Zn 0.24321 0.75396 0.74762
 N142 N 0.21781 0.77873 0.77983
 C143 C 0.27969 0.72743 0.81050
 N144 N 0.27702 0.72889 0.77355
 C145 C 0.29881 0.71226 0.75327
 C146 C 0.32380 0.69214 0.77004
 C147 C 0.30429 0.70744 0.82851
 C148 C 0.18691 0.73430 0.70285
 C149 C 0.16489 0.71124 0.68381
 C150 C 0.19632 0.66247 0.70868
 C151 C 0.21780 0.68650 0.72698
 N152 N 0.21324 0.72170 0.72319
 H153 H 0.26256 0.74142 0.82616
 H154 H 0.29634 0.71421 0.72390
 H155 H 0.34048 0.67870 0.75314
 H156 H 0.30499 0.70645 0.85786
 H157 H 0.18337 0.76240 0.70094
 H158 H 0.14453 0.72204 0.66715
 H159 H 0.20132 0.63490 0.71263
 H160 H 0.23813 0.67683 0.74428
 C161 C 0.17810 0.81189 0.82753
 C162 C 0.30457 0.82404 0.66474
 C163 C 0.16957 0.67470 0.68601
 C164 C 0.32671 0.68904 0.80818
 C165 C 0.01931 -0.02584 -0.03473
 C166 C 0.04421 -0.00345 -0.01223
 C167 C 0.02911 0.01935 0.01459
 C168 C -0.01230 0.01300 0.01068
 C169 C -0.00170 -0.04727 -0.00748
 C170 C -0.01885 -0.02668 0.01677
 C171 C -0.00442 0.00014 -0.05329
 C172 C -0.02172 0.02071 -0.02931
 H173 H 0.07115 -0.00394 -0.01486
 H174 H -0.02563 0.02922 0.02964
 H175 H -0.00266 -0.07577 -0.00688
 H176 H -0.00663 0.00300 -0.08258
 C177 C 0.01898 0.46314 0.47627
 C178 C 0.04232 0.48235 0.50361
 C179 C 0.02560 0.50528 0.52591
 C180 C -0.01243 0.50529 0.51765
 C181 C -0.00764 0.44411 0.49914
 C182 C -0.02475 0.46658 0.52150
 C183 C 0.00063 0.49193 0.45475
 C184 C -0.01653 0.51470 0.47689
 H185 H 0.06910 0.47892 0.50482
 H186 H -0.02569 0.52305 0.53514
 H187 H -0.01145 0.41577 0.49919
 H188 H 0.00093 0.49412 0.42543
 C189 C 0.51968 -0.02413 0.46240
 C190 C 0.54230 -0.00178 0.48781
 C191 C 0.52446 0.01836 0.51187
 C192 C 0.48622 0.01370 0.50628
 C193 C 0.49667 -0.04638 0.48714
 C194 C 0.47850 -0.02609 0.51085
 C195 C 0.49686 0.00203 0.44249
 C196 C 0.47861 0.02242 0.46591
 H197 H 0.56936 -0.00142 0.48672
 H198 H 0.47212 0.02968 0.52478
 H199 H 0.49502 -0.07484 0.48646
 H200 H 0.49577 0.00497 0.41318
 C201 C 0.52734 0.48472 -0.03287
 C202 C 0.54910 0.50888 -0.00839
 C203 C 0.53028 0.52942 0.01440
 C204 C 0.49217 0.52302 0.00884
 C205 C 0.50489 0.46282 -0.00744
 C206 C 0.48574 0.48322 0.01505
 C207 C 0.50384 0.50919 -0.05422
 C208 C 0.48474 0.52991 -0.03191
 H209 H 0.57616 0.51058 -0.00963
 H210 H 0.47731 0.53915 0.02645
 H211 H 0.50438 0.43434 -0.00695
 H212 H 0.50302 0.51093 -0.08359
 C213 C 0.15687 -0.17165 -0.14621
 C214 C 0.14508 -0.13765 -0.15119
 C215 C 0.12328 -0.12143 -0.12529
 C216 C 0.10417 -0.09294 -0.13762
 C217 C 0.08377 -0.07634 -0.11404
 C218 C 0.08203 -0.08794 -0.07741
 C219 C 0.10153 -0.11609 -0.06492
 C220 C 0.12194 -0.13272 -0.08854
 C221 C 0.06196 -0.06994 -0.05114
 C222 C 0.03591 -0.04789 -0.06160
 H223 H 0.15025 -0.12291 -0.17615
 H224 H 0.10515 -0.08333 -0.16562
 H225 H 0.07020 -0.05392 -0.12455
 H226 H 0.10118 -0.12508 -0.03668
 H227 H 0.13713 -0.15378 -0.07759
 H228 H 0.06832 -0.07355 -0.02239
 H229 H 0.14851 -0.18796 -0.12337
 H230 H 0.02708 -0.04642 -0.08976
 C231 C 0.17331 0.36196 0.34032
 C232 C 0.14275 0.35286 0.35617
 C233 C 0.12340 0.37794 0.37597
 C234 C 0.10046 0.36440 0.40129
 C235 C 0.08147 0.38695 0.42048
 C236 C 0.08456 0.42371 0.41423
 C237 C 0.10746 0.43728 0.38883
 C238 C 0.12658 0.41468 0.36970
 C239 C 0.06538 0.44853 0.43461
 C240 C 0.03641 0.43833 0.45296
 H241 H 0.13246 0.32610 0.35463
 H242 H 0.09757 0.33621 0.40665
 H243 H 0.06499 0.37534 0.44063
 H244 H 0.11038 0.46547 0.38357
 H245 H 0.14325 0.42616 0.34966
 H246 H 0.07438 0.47585 0.43539
 H247 H 0.18364 0.38870 0.34204
 H248 H 0.02504 0.41223 0.44942
 C249 C 0.66486 -0.17054 0.36223
 C250 C 0.65267 -0.13683 0.35581
 C251 C 0.62952 -0.12017 0.38005
 C252 C 0.61128 -0.09158 0.36621
 C253 C 0.58965 -0.07456 0.38812
 C254 C 0.58573 -0.08581 0.42459
 C255 C 0.60436 -0.11407 0.43862
 C256 C 0.62602 -0.13112 0.41667
 C257 C 0.56406 -0.06756 0.44915
 C258 C 0.53876 -0.04528 0.43678
 H259 H 0.65868 -0.12257 0.33081
 H260 H 0.61388 -0.08222 0.33829
 H261 H 0.57681 -0.05211 0.37647
 H262 H 0.60231 -0.12285 0.46678
 H263 H 0.64040 -0.15227 0.42883
 H264 H 0.56832 -0.07150 0.47824
 H265 H 0.65593 -0.18648 0.38505
 H266 H 0.53202 -0.04329 0.40806
 C267 C 0.66857 0.34575 -0.13911
 C268 C 0.63556 0.34042 -0.12835
 C269 C 0.61954 0.36586 -0.10586
 C270 C 0.58525 0.37173 -0.11182
 C271 C 0.56969 0.39646 -0.09169
 C272 C 0.58812 0.41530 -0.06477
 C273 C 0.62210 0.40846 -0.05785
 C274 C 0.63782 0.38418 -0.07844
 C275 C 0.57215 0.44111 -0.04271
 C276 C 0.54659 0.46214 -0.05681
 H277 H 0.62003 0.31905 -0.13968
 H278 H 0.57060 0.35754 -0.13248
 H279 H 0.54315 0.40033 -0.09679
 H280 H 0.63660 0.42225 -0.03679
 H281 H 0.66410 0.37946 -0.07258
 H282 H 0.58126 0.44430 -0.01483
 H283 H 0.68251 0.36975 -0.13170
 H284 H 0.53834 0.46001 -0.08508
 C285 C -0.16135 0.15659 -0.16651
 C286 C -0.15462 0.15090 -0.12915
 C287 C -0.13041 0.12471 -0.11508
 C288 C -0.11334 0.12969 -0.08140
 C289 C -0.08975 0.10571 -0.06801
 C290 C -0.08319 0.07600 -0.08798
 C291 C -0.10080 0.07073 -0.12125
 C292 C -0.12434 0.09455 -0.13453
 C293 C -0.05750 0.05057 -0.07614
 C294 C -0.04563 0.04546 -0.04010
 H295 H -0.16579 0.16678 -0.10947
 H296 H -0.11774 0.15260 -0.06580
 H297 H -0.07626 0.11106 -0.04258
 H298 H -0.09642 0.04793 -0.13705
 H299 H -0.13792 0.08897 -0.15986
 H300 H -0.04929 0.03391 -0.09694
 H301 H -0.14676 0.14245 -0.18497
 H302 H -0.05624 0.06015 -0.01902
 C303 C -0.13743 0.66626 0.33474
 C304 C -0.13229 0.65800 0.37189
 C305 C -0.10871 0.63099 0.38558
 C306 C -0.09516 0.63269 0.42130
 C307 C -0.07341 0.60715 0.43527
 C308 C -0.06516 0.57903 0.41382
 C309 C -0.07872 0.57740 0.37812
 C310 C -0.10045 0.60284 0.36421
 C311 C -0.04244 0.55113 0.42722
 C312 C -0.03635 0.54249 0.46410
 H313 H -0.14500 0.67192 0.39201
 H314 H -0.10120 0.65403 0.43836
 H315 H -0.06286 0.60993 0.46260
 H316 H -0.07291 0.55597 0.36105
 H317 H -0.11124 0.59978 0.33701
 H318 H -0.03197 0.53562 0.40676
 H319 H -0.12152 0.65411 0.31603
 H320 H -0.04841 0.55704 0.48425
 C321 C 0.34589 0.16345 0.32563
 C322 C 0.35203 0.15741 0.36305
 C323 C 0.37528 0.13038 0.37747
 C324 C 0.39144 0.13448 0.41177
 C325 C 0.41408 0.10973 0.42565
 C326 C 0.42065 0.08013 0.40550
 C327 C 0.40399 0.07576 0.37156
 C328 C 0.38134 0.10033 0.35782
 C329 C 0.44542 0.05393 0.41797
 C330 C 0.45547 0.04772 0.45442
 H331 H 0.34105 0.17357 0.38260
 H332 H 0.38705 0.15727 0.42755
 H333 H 0.42691 0.11439 0.45160
 H334 H 0.40840 0.05307 0.35561
 H335 H 0.36842 0.09537 0.33198
 H336 H 0.45444 0.03769 0.39724
 H337 H 0.36004 0.14871 0.30730
 H338 H 0.44402 0.06204 0.47522
 C339 C 0.35126 0.66708 -0.17604
 C340 C 0.35735 0.66094 -0.13865
 C341 C 0.38167 0.63505 -0.12414
 C342 C 0.39665 0.63932 -0.08931
 C343 C 0.41965 0.61526 -0.07487
 C344 C 0.42773 0.58611 -0.09493
 C345 C 0.41248 0.58173 -0.12958
 C346 C 0.38951 0.60568 -0.14395
 C347 C 0.45249 0.56031 -0.08143
 C348 C 0.46139 0.55448 -0.04461
 H349 H 0.34517 0.67598 -0.11902
 H350 H 0.39091 0.66164 -0.07345
 H351 H 0.43143 0.62007 -0.04843
 H352 H 0.41814 0.55943 -0.14553
 H353 H 0.37759 0.60067 -0.17029
 H354 H 0.46261 0.54425 -0.10164
 H355 H 0.36666 0.65385 -0.19443
 H356 H 0.44911 0.56884 -0.02445
 C357 C -0.16488 -0.15632 0.15230
 C358 C -0.13806 -0.13210 0.15975
 C359 C -0.11578 -0.11756 0.13108
 C360 C -0.09884 -0.08475 0.13578
 C361 C -0.07712 -0.07068 0.10955
 C362 C -0.07178 -0.08936 0.07806
 C363 C -0.08807 -0.12256 0.07386
 C364 C -0.10983 -0.13655 0.09998
 C365 C -0.04869 -0.07585 0.04971
 C366 C -0.04010 -0.04002 0.04391
 H367 H -0.13332 -0.12232 0.18676
 H368 H -0.10244 -0.06993 0.15985
 H369 H -0.06413 -0.04560 0.11450
 H370 H -0.08395 -0.13780 0.05022
 H371 H -0.12130 -0.16256 0.09606
 H372 H -0.03987 -0.09501 0.03170
 H373 H -0.17052 -0.16166 0.12392
 H374 H -0.05117 -0.02100 0.06049
 C375 C -0.18075 0.33546 0.64451
 C376 C -0.15621 0.36182 0.65239
 C377 C -0.13359 0.37755 0.62471
 C378 C -0.11723 0.41044 0.63078
 C379 C -0.09459 0.42527 0.60586
 C380 C -0.08786 0.40728 0.57435
 C381 C -0.10408 0.37430 0.56850
 C382 C -0.12659 0.35952 0.59334
 C383 C -0.06285 0.42054 0.54796
 C384 C -0.04977 0.45534 0.54554
 H385 H -0.15382 0.37204 0.67948
 H386 H -0.12176 0.42458 0.65504
 H387 H -0.08194 0.45025 0.61198
 H388 H -0.09897 0.35960 0.54478
 H389 H -0.13759 0.33354 0.58825
 H390 H -0.05534 0.40162 0.52895
 H391 H -0.18589 0.32865 0.61647
 H392 H -0.05961 0.47496 0.56233
 C393 C 0.32638 -0.15802 0.63739
 C394 C 0.35159 -0.13231 0.64530
 C395 C 0.37517 -0.11770 0.61790
 C396 C 0.39179 -0.08489 0.62364
 C397 C 0.41481 -0.07068 0.59883
 C398 C 0.42176 -0.08913 0.56767
 C399 C 0.40569 -0.12228 0.56238
 C400 C 0.38266 -0.13646 0.58713
 C401 C 0.44630 -0.07543 0.54084
 C402 C 0.45554 -0.03962 0.53620
 H403 H 0.35382 -0.12153 0.67212
 H404 H 0.38701 -0.07021 0.64748
 H405 H 0.42753 -0.04566 0.60470
 H406 H 0.41100 -0.13735 0.53898
 H407 H 0.37146 -0.16243 0.58239
 H408 H 0.45596 -0.09439 0.52316
 H409 H 0.32219 -0.16562 0.60946
 H410 H 0.44381 -0.02073 0.55235
 C411 C 0.33702 0.34363 0.13788
 C412 C 0.35997 0.37130 0.14637
 C413 C 0.38349 0.38738 0.11981
 C414 C 0.39721 0.42156 0.12528
 C415 C 0.42016 0.43715 0.10117
 C416 C 0.42991 0.41866 0.07112
 C417 C 0.41663 0.38427 0.06611
 C418 C 0.39370 0.36874 0.09012
 C419 C 0.45470 0.43343 0.04521
 C420 C 0.46269 0.46949 0.04020
 H421 H 0.36001 0.38261 0.17295
 H422 H 0.39021 0.43621 0.14834
 H423 H 0.43062 0.46325 0.10672
 H424 H 0.42412 0.36922 0.04354
 H425 H 0.38474 0.34188 0.08571
 H426 H 0.46569 0.41467 0.02833
 H427 H 0.33404 0.33552 0.11000
 H428 H 0.44988 0.48820 0.05557
 C429 C 0.13921 0.17622 0.16504
 C430 C 0.13980 0.14024 0.15798
 C431 C 0.11424 0.12193 0.13429
 C432 C 0.12380 0.09310 0.11492
 C433 C 0.10056 0.07496 0.09231
 C434 C 0.06696 0.08494 0.08901
 C435 C 0.05718 0.11337 0.10895
 C436 C 0.08062 0.13185 0.13131
 C437 C 0.04188 0.06574 0.06547
 C438 C 0.05195 0.04243 0.04021
 H439 H 0.16118 0.12524 0.16690
 H440 H 0.14948 0.08477 0.11703
 H441 H 0.10892 0.05290 0.07770
 H442 H 0.03139 0.12134 0.10714
 H443 H 0.07222 0.15337 0.14667
 H444 H 0.01539 0.07038 0.06776
 H445 H 0.11928 0.19111 0.15191
 H446 H 0.03493 0.03194 0.02869
 C447 C 0.14785 0.65231 0.66511
 C448 C 0.15043 0.61568 0.66350
 C449 C 0.12961 0.59326 0.63839
 C450 C 0.14205 0.56095 0.62900
 C451 C 0.12402 0.53927 0.60462
 C452 C 0.09284 0.54908 0.58941
 C453 C 0.07993 0.58117 0.59923
 C454 C 0.09808 0.60298 0.62364
 C455 C 0.07564 0.52587 0.56231
 C456 C 0.04133 0.52648 0.55264
 H457 H 0.17000 0.60254 0.67902
 H458 H 0.16617 0.55269 0.64007
 H459 H 0.13460 0.51476 0.59748
 H460 H 0.05628 0.59000 0.58765
 H461 H 0.08717 0.62722 0.63088
 H462 H 0.09095 0.50675 0.55065
 H463 H 0.12873 0.66463 0.64795
 H464 H 0.02566 0.54359 0.56677
 C465 C 0.63729 0.15716 0.66871
 C466 C 0.64097 0.12127 0.66275
 C467 C 0.62227 0.10168 0.63367
 C468 C 0.63691 0.07216 0.62008
 C469 C 0.62081 0.05315 0.59217
 C470 C 0.58935 0.06275 0.57757
 C471 C 0.57432 0.09210 0.59138
 C472 C 0.59061 0.11136 0.61925
 C473 C 0.57380 0.04198 0.54749
 C474 C 0.53922 0.03970 0.53906
 H475 H 0.66060 0.10718 0.67716
 H476 H 0.66121 0.06404 0.63073
 H477 H 0.63298 0.03071 0.58202
 H478 H 0.55036 0.10070 0.58038
 H479 H 0.57819 0.13351 0.62954
 H480 H 0.59049 0.02607 0.53330
 H481 H 0.61874 0.17088 0.65198
 H482 H 0.52254 0.05376 0.55529
 C483 C 0.66569 0.65137 0.17247
 C484 C 0.63881 0.65921 0.14825
 C485 C 0.62321 0.63299 0.12307
 C486 C 0.59013 0.63716 0.10958
 C487 C 0.57502 0.61339 0.08500
 C488 C 0.59288 0.58495 0.07332
 C489 C 0.62617 0.58127 0.08628
 C490 C 0.64122 0.60496 0.11081
 C491 C 0.57845 0.55945 0.04672
 C492 C 0.54394 0.55360 0.03951
 H493 H 0.62803 0.68482 0.14776
 H494 H 0.57594 0.65894 0.11802
 H495 H 0.54974 0.61796 0.07476
 H496 H 0.64072 0.56000 0.07725
 H497 H 0.66721 0.60164 0.11932
 H498 H 0.59612 0.54372 0.03370
 H499 H 0.67312 0.62426 0.17458
 H500 H 0.52642 0.56769 0.05462
   
