data_POSCAR
  _audit_creation_date              2014-09-24
  _audit_creation_method            'ToBaCCo'
  _symmetry_space_group_name_H-M    'P1'
  _symmetry_Int_Tables_number       1
  _symmetry_cell_setting            triclinic
  loop_
  _symmetry_equiv_pos_as_xyz
 x,y,z
_cell_length_a 26.7689
_cell_length_b 26.5545
_cell_length_c 26.4847
_cell_angle_alpha 89.789000
_cell_angle_beta 90.072700
_cell_angle_gamma 87.810800
loop_
  _atom_site_label
  _atom_site_type_symbol
  _atom_site_fract_x
  _atom_site_fract_y
  _atom_site_fract_z
C1 C 0.30479 0.21778 0.21637
 C2 C 0.28314 0.19692 0.25956
 C3 C 0.23630 0.21426 0.27548
 C4 C 0.21065 0.25287 0.24849
 C5 C 0.23207 0.27303 0.20587
 C6 C 0.27933 0.25579 0.19007
 C7 C 0.34998 0.20941 0.19236
 N8 N 0.35209 0.24180 0.15255
 C9 C 0.30928 0.27049 0.15118
 C10 C 0.20029 0.31065 0.18793
 N11 N 0.16034 0.31463 0.21905
 C12 C 0.16602 0.27929 0.25619
 C13 C 0.22527 0.18820 0.31888
 N14 N 0.26428 0.15554 0.32957
 C15 C 0.29986 0.16089 0.29370
 H16 H 0.37930 0.18241 0.20347
 H17 H 0.30050 0.29966 0.12353
 H18 H 0.20664 0.33485 0.15575
 H19 H 0.14018 0.27370 0.28691
 H20 H 0.19186 0.19359 0.34147
 H21 H 0.33550 0.14019 0.29276
 C22 C 0.71479 -0.22726 0.21260
 C23 C 0.74310 -0.20572 0.25125
 C24 C 0.78935 -0.22722 0.26376
 C25 C 0.80767 -0.27025 0.23880
 C26 C 0.78008 -0.29162 0.20109
 C27 C 0.73315 -0.27016 0.18813
 C28 C 0.66868 -0.21499 0.19164
 N29 N 0.65877 -0.24967 0.15541
 C30 C 0.69785 -0.28367 0.15361
 C31 C 0.80684 -0.33385 0.18477
 N32 N 0.84938 -0.33902 0.21267
 C33 C 0.85024 -0.29974 0.24552
 C34 C 0.80864 -0.19990 0.30247
 N35 N 0.77522 -0.16243 0.31460
 C36 C 0.73486 -0.16536 0.28344
 H37 H 0.64439 -0.18343 0.20258
 H38 H 0.70081 -0.31553 0.12820
 H39 H 0.79529 -0.35999 0.15611
 H40 H 0.87929 -0.29262 0.27268
 H41 H 0.84421 -0.20718 0.32116
 H42 H 0.70214 -0.14016 0.28394
 C43 C 0.72194 0.22459 0.76558
 C44 C 0.74273 0.19950 0.72395
 C45 C 0.78242 0.21932 0.69831
 C46 C 0.80147 0.26526 0.71413
 C47 C 0.78095 0.28992 0.75570
 C48 C 0.74056 0.26957 0.78148
 C49 C 0.68327 0.21324 0.79684
 N50 N 0.67755 0.25036 0.83192
 C51 C 0.71227 0.28527 0.82245
 C52 C 0.80700 0.33294 0.76276
 N53 N 0.84270 0.33531 0.72626
 C54 C 0.83915 0.29427 0.69616
 C55 C 0.79390 0.18696 0.65896
 N56 N 0.76169 0.14856 0.66050
 C57 C 0.73025 0.15615 0.69991
 H58 H 0.66081 0.18048 0.79312
 H59 H 0.71697 0.31927 0.84413
 H60 H 0.79946 0.36058 0.79193
 H61 H 0.86279 0.28577 0.66389
 H62 H 0.82213 0.19203 0.63035
 H63 H 0.69982 0.13223 0.70969
 C64 C 0.27657 -0.22783 0.78212
 C65 C 0.25478 -0.20715 0.73781
 C66 C 0.21537 -0.23079 0.71509
 C67 C 0.19742 -0.27531 0.73576
 C68 C 0.21876 -0.29543 0.77920
 C69 C 0.25875 -0.27184 0.80225
 C70 C 0.31474 -0.21321 0.81340
 N71 N 0.32060 -0.24771 0.85156
 C72 C 0.28653 -0.28361 0.84465
 C73 C 0.19252 -0.33714 0.79200
 N74 N 0.15604 -0.34329 0.75712
 C75 C 0.15888 -0.30555 0.72233
 C76 C 0.20047 -0.20209 0.67407
 N77 N 0.23002 -0.16188 0.67063
 C78 C 0.26342 -0.16448 0.70951
 H79 H 0.33676 -0.18034 0.80790
 H80 H 0.28200 -0.31595 0.86906
 H81 H 0.19917 -0.36107 0.82472
 H82 H 0.13398 -0.29912 0.69057
 H83 H 0.17009 -0.20978 0.64853
 H84 H 0.29113 -0.13695 0.71743
 C85 C 0.69137 -0.20919 0.78117
 C86 C 0.71248 -0.19389 0.73559
 C87 C 0.75310 -0.22051 0.71576
 C88 C 0.77319 -0.26295 0.74127
 C89 C 0.75265 -0.27830 0.78647
 C90 C 0.71073 -0.25136 0.80640
 C91 C 0.65138 -0.19021 0.80842
 N92 N 0.64478 -0.22015 0.84925
 C93 C 0.68110 -0.25774 0.84851
 C94 C 0.78097 -0.32003 0.80257
 N95 N 0.81746 -0.33054 0.76791
 C96 C 0.81271 -0.29550 0.73032
 C97 C 0.76555 -0.19725 0.67122
 N98 N 0.73322 -0.15715 0.66369
 C99 C 0.70052 -0.15505 0.70274
 H100 H 0.62792 -0.15748 0.79855
 H101 H 0.68620 -0.28741 0.87634
 H102 H 0.77522 -0.34137 0.83686
 H103 H 0.83673 -0.29247 0.69775
 H104 H 0.79551 -0.20918 0.64609
 H105 H 0.67037 -0.12703 0.70701
 C106 C 0.29039 0.23302 0.78917
 C107 C 0.26968 0.21300 0.74561
 C108 C 0.22650 0.23455 0.72479
 C109 C 0.20379 0.27748 0.74762
 C110 C 0.22468 0.29746 0.79081
 C111 C 0.26852 0.27514 0.81159
 C112 C 0.33234 0.21925 0.81638
 N113 N 0.33706 0.25231 0.85506
 C114 C 0.29829 0.28687 0.85216
 C115 C 0.19524 0.33877 0.80456
 N116 N 0.15735 0.34490 0.77075
 C117 C 0.16218 0.30751 0.73579
 C118 C 0.21623 0.20701 0.68194
 N119 N 0.25260 0.17008 0.67677
 C120 C 0.28533 0.17376 0.71539
 H121 H 0.35802 0.18822 0.80722
 H122 H 0.29220 0.31826 0.87771
 H123 H 0.20113 0.36297 0.83667
 H124 H 0.13710 0.30199 0.70439
 H125 H 0.18566 0.21430 0.65581
 H126 H 0.31855 0.14975 0.72075
 C127 C 0.27823 -0.22990 0.24318
 C128 C 0.25873 -0.21078 0.28895
 C129 C 0.22225 -0.23664 0.31420
 C130 C 0.20517 -0.28183 0.29483
 C131 C 0.22442 -0.30076 0.25021
 C132 C 0.26133 -0.27482 0.22440
 C133 C 0.31332 -0.21308 0.20937
 N134 N 0.31833 -0.24721 0.17113
 C135 C 0.28664 -0.28489 0.18030
 C136 C 0.19932 -0.34374 0.23935
 N137 N 0.16512 -0.35123 0.27651
 C138 C 0.16899 -0.31369 0.31079
 C139 C 0.20837 -0.20895 0.35585
 N140 N 0.23586 -0.16724 0.35733
 C141 C 0.26686 -0.16778 0.31658
 H142 H 0.33429 -0.17929 0.21336
 H143 H 0.28243 -0.31759 0.15654
 H144 H 0.20549 -0.36698 0.20634
 H145 H 0.14594 -0.30894 0.34415
 H146 H 0.17989 -0.21817 0.38302
 H147 H 0.29216 -0.13844 0.30686
 C148 C 0.71113 0.24043 0.22947
 C149 C 0.72650 0.21831 0.27505
 C150 C 0.76558 0.23779 0.30191
 C151 C 0.78900 0.28064 0.28389
 C152 C 0.77356 0.30268 0.23877
 C153 C 0.73423 0.28244 0.21127
 C154 C 0.67604 0.22732 0.19474
 N155 N 0.67709 0.26038 0.15562
 C156 C 0.71216 0.29462 0.16552
 C157 C 0.80447 0.34175 0.22928
 N158 N 0.83831 0.34411 0.26769
 C159 C 0.82868 0.30705 0.30137
 C160 C 0.77459 0.20638 0.34263
 N161 N 0.74151 0.16885 0.34086
 C162 C 0.71166 0.17611 0.30006
 H163 H 0.65122 0.19625 0.19808
 H164 H 0.72132 0.32557 0.14091
 H165 H 0.80206 0.36618 0.19655
 H166 H 0.84998 0.29896 0.33545
 H167 H 0.80322 0.21024 0.37111
 H168 H 0.68249 0.15140 0.28856
 O169 O 0.27866 0.06028 0.45951
 O170 O 0.29221 -0.03286 0.56275
 O171 O 0.29465 -0.03625 0.46374
 O172 O 0.27371 0.06433 0.55786
 O173 O 0.19239 0.05352 0.55560
 O174 O 0.21335 -0.04740 0.46197
 O175 O 0.21098 -0.04419 0.56043
 O176 O 0.19725 0.04969 0.45757
 Cu177 Cu 0.29292 0.01500 0.51144
 Cu178 Cu 0.19538 0.00169 0.50882
 C179 C 0.23577 0.07054 0.44068
 C180 C 0.25400 -0.05464 0.57903
 C181 C 0.25727 -0.05867 0.44645
 C182 C 0.22964 0.07626 0.57262
 O183 O 0.74182 0.04301 0.54446
 O184 O 0.71920 -0.04584 0.44199
 O185 O 0.73109 -0.05331 0.54036
 O186 O 0.73496 0.04996 0.44792
 O187 O 0.81668 0.03721 0.44039
 O188 O 0.81249 -0.06700 0.53168
 O189 O 0.80069 -0.05867 0.43327
 O190 O 0.82350 0.03049 0.53661
 Cu191 Cu 0.72351 -0.00063 0.49444
 Cu192 Cu 0.82153 -0.01650 0.48465
 C193 C 0.78610 0.05272 0.55743
 C194 C 0.75614 -0.06688 0.41956
 C195 C 0.77141 -0.07719 0.55243
 C196 C 0.77667 0.06185 0.42931
 O197 O 0.47063 0.25229 0.04605
 O198 O 0.56212 0.25676 -0.05787
 O199 O 0.46412 0.25756 -0.05154
 O200 O 0.56698 0.25943 0.04015
 O201 O 0.57225 0.17619 0.04002
 O202 O 0.46959 0.17433 -0.05236
 O203 O 0.56620 0.17348 -0.05823
 O204 O 0.47664 0.16906 0.04553
 Cu205 Cu 0.51545 0.26493 -0.00588
 Cu206 Cu 0.52186 0.16495 -0.00650
 C207 C 0.45822 0.20979 0.06345
 C208 C 0.57965 0.21531 -0.07565
 C209 C 0.44908 0.21569 -0.06730
 C210 C 0.58663 0.21820 0.05624
 O211 O 0.52810 0.74368 0.06573
 O212 O 0.43400 0.74519 -0.03697
 O213 O 0.53244 0.72472 -0.02774
 O214 O 0.43176 0.74228 0.06426
 O215 O 0.43433 0.82501 0.05772
 O216 O 0.53598 0.80718 -0.03673
 O217 O 0.43740 0.82801 -0.04119
 O218 O 0.52929 0.82680 0.06131
 Cu219 Cu 0.47980 0.73125 0.01595
 Cu220 Cu 0.48504 0.82896 0.00849
 C221 C 0.54499 0.78543 0.08058
 C222 C 0.41997 0.78725 -0.05684
 C223 C 0.55222 0.76263 -0.04729
 C224 C 0.41651 0.78592 0.07791
 O225 O 0.04725 0.43583 0.29097
 O226 O -0.03539 0.54820 0.28590
 O227 O -0.04873 0.45141 0.28141
 O228 O 0.06034 0.53309 0.28453
 O229 O 0.06320 0.53084 0.20120
 O230 O -0.04577 0.45201 0.19802
 O231 O -0.03377 0.54774 0.20243
 O232 O 0.05012 0.43431 0.20764
 Cu233 Cu 0.00565 0.49209 0.29402
 Cu234 Cu 0.00895 0.49111 0.19401
 C235 C 0.06283 0.41582 0.25040
 C236 C -0.04881 0.56706 0.24385
 C237 C -0.06586 0.43820 0.23876
 C238 C 0.07993 0.54618 0.24292
 O239 O 0.03220 0.55367 0.68903
 O240 O -0.06305 0.45759 0.70308
 O241 O -0.06456 0.55590 0.69457
 O242 O 0.03342 0.45519 0.69402
 O243 O 0.03919 0.45970 0.77705
 O244 O -0.05959 0.56189 0.77758
 O245 O -0.05817 0.46448 0.78603
 O246 O 0.03857 0.55797 0.77203
 Cu247 Cu -0.01611 0.50508 0.68693
 Cu248 Cu -0.00929 0.51159 0.78647
 C249 C 0.05175 0.57199 0.72829
 C250 C -0.07681 0.44484 0.74711
 C251 C -0.07885 0.57610 0.73569
 C252 C 0.05290 0.44001 0.73528
 C253 C 0.39170 0.24626 0.11674
 C254 C 0.42162 0.20692 0.10442
 H255 H 0.39424 0.28143 0.09613
 H256 H 0.41681 0.17070 0.12231
 C257 C 0.61836 0.74853 0.12421
 C258 C 0.58412 0.78641 0.11954
 H259 H 0.61559 0.71625 0.09947
 H260 H 0.58763 0.82100 0.14043
 C261 C 0.64368 0.25308 -0.12967
 C262 C 0.61540 0.21422 -0.11749
 H263 H 0.64091 0.28703 -0.10703
 H264 H 0.61999 0.17858 -0.13675
 C265 C 0.35419 0.75124 -0.10956
 C266 C 0.38380 0.78946 -0.09901
 H267 H 0.35605 0.71835 -0.08509
 H268 H 0.38078 0.82418 -0.12044
 C269 C 0.12167 0.35309 0.21396
 C270 C 0.09673 0.37123 0.25393
 H271 H 0.11643 0.37113 0.17745
 H272 H 0.10406 0.35541 0.29105
 C273 C 0.12204 0.61987 0.75986
 C274 C 0.08950 0.61055 0.72272
 H275 H 0.12188 0.59636 0.79346
 H276 H 0.09093 0.63034 0.68703
 C277 C -0.11689 0.62145 0.20909
 C278 C -0.08185 0.61214 0.24442
 H279 H -0.12068 0.59472 0.17856
 H280 H -0.08006 0.63515 0.27787
 C281 C -0.12317 0.37154 0.71950
 C282 C -0.11499 0.40716 0.75399
 H283 H -0.10014 0.37015 0.68581
 H284 H -0.13417 0.40726 0.78987
 C285 C 0.26950 0.12190 0.37205
 C286 C 0.23016 0.10671 0.39852
 H287 H 0.30658 0.10673 0.38129
 H288 H 0.19267 0.11918 0.38778
 C289 C 0.75623 0.10916 0.62439
 C290 C 0.79416 0.09117 0.59615
 H291 H 0.71987 0.09280 0.62109
 H292 H 0.83136 0.10499 0.60125
 C293 C 0.22381 -0.12326 0.63261
 C294 C 0.26027 -0.09245 0.61989
 H295 H 0.18885 -0.12095 0.61186
 H296 H 0.29632 -0.09624 0.63835
 C297 C 0.78374 -0.12694 0.35414
 C298 C 0.74661 -0.10102 0.37717
 H299 H 0.82175 -0.12344 0.36748
 H300 H 0.70826 -0.10578 0.36570
 C301 C 0.60700 0.78791 -0.11684
 C302 C 0.59477 0.75399 -0.08188
 H303 H 0.58409 0.82239 -0.12001
 H304 H 0.61417 0.71755 -0.08011
 C305 C 0.37434 0.25279 -0.10984
 C306 C 0.40803 0.21437 -0.10402
 H307 H 0.37609 0.28496 -0.08486
 H308 H 0.40493 0.17988 -0.12513
 C309 C 0.35043 0.75244 0.13117
 C310 C 0.37892 0.79114 0.11860
 H311 H 0.35290 0.71880 0.10801
 H312 H 0.37523 0.82677 0.13815
 C313 C 0.64499 0.26074 0.11226
 C314 C 0.62507 0.21835 0.09572
 H315 H 0.63652 0.29626 0.09324
 H316 H 0.63598 0.18251 0.11285
 C317 C -0.14741 0.63082 0.77169
 C318 C -0.11720 0.61735 0.73309
 H319 H -0.14492 0.60918 0.80647
 H320 H -0.12181 0.63528 0.69662
 C321 C -0.12326 0.37601 0.27251
 C322 C -0.10955 0.40667 0.23514
 H323 H -0.10131 0.37463 0.30698
 H324 H -0.12828 0.40647 0.19899
 C325 C 0.11904 0.38439 0.77359
 C326 C 0.09146 0.39879 0.73348
 H327 H 0.11402 0.40434 0.80897
 H328 H 0.09811 0.38082 0.69739
 C329 C 0.13042 0.61255 0.27951
 C330 C 0.12190 0.58035 0.24185
 H331 H 0.10661 0.61177 0.31260
 H332 H 0.14283 0.58184 0.20706
 C333 C 0.73217 -0.12198 0.62235
 C334 C 0.77131 -0.11655 0.59165
 H335 H 0.69935 -0.09714 0.61796
 H336 H 0.80534 -0.13917 0.59725
 C337 C 0.22896 -0.12850 0.39459
 C338 C 0.26523 -0.09775 0.40755
 H339 H 0.19356 -0.12600 0.41445
 H340 H 0.30175 -0.10199 0.39021
 C341 C 0.73834 0.12724 0.37490
 C342 C 0.77930 0.10521 0.39517
 H343 H 0.70210 0.11153 0.38137
 H344 H 0.81580 0.11869 0.38564
 C345 C 0.25944 0.13414 0.63683
 C346 C 0.22139 0.11649 0.61032
 H347 H 0.29682 0.11814 0.63077
 H348 H 0.18347 0.12978 0.61820
   
