data_POSCAR
  _audit_creation_date              2014-09-24
  _audit_creation_method            'ToBaCCo'
  _symmetry_space_group_name_H-M    'P1'
  _symmetry_Int_Tables_number       1
  _symmetry_cell_setting            triclinic
  loop_
  _symmetry_equiv_pos_as_xyz
 x,y,z
_cell_length_a 54.3496
_cell_length_b 54.2249
_cell_length_c 47.7199
_cell_angle_alpha 89.990400
_cell_angle_beta 89.989900
_cell_angle_gamma 86.188300
loop_
  _atom_site_label
  _atom_site_type_symbol
  _atom_site_fract_x
  _atom_site_fract_y
  _atom_site_fract_z
C1 C -0.07646 0.26970 -0.01215
 C2 C -0.07717 0.26875 0.01653
 C3 C -0.05676 0.28032 0.02614
 N4 N -0.04338 0.28790 0.00423
 C5 C -0.05547 0.28147 -0.01914
 C6 C -0.05098 0.28439 0.05469
 C7 C -0.02696 0.29036 0.06280
 C8 C -0.02094 0.30106 0.08813
 C9 C 0.00427 0.30207 0.08852
 C10 C 0.01292 0.29236 0.06327
 N11 N -0.00618 0.28545 0.04760
 C12 C 0.03803 0.28811 0.05616
 C13 C 0.04598 0.28462 0.02824
 C14 C 0.06929 0.27533 0.02032
 C15 C 0.06999 0.27644 -0.00835
 C16 C 0.04717 0.28673 -0.01700
 N17 N 0.03242 0.29151 0.00546
 C18 C 0.04032 0.29218 -0.04513
 C19 C 0.01515 0.29638 -0.05279
 C20 C 0.00659 0.30808 -0.07715
 C21 C -0.01858 0.30669 -0.07757
 C22 C -0.02475 0.29459 -0.05326
 N23 N -0.00419 0.28853 -0.03815
 C24 C -0.04859 0.28757 -0.04663
 H25 H -0.08978 0.26239 -0.02625
 H26 H -0.09105 0.26029 0.02884
 H27 H -0.00318 0.27715 -0.02054
 H28 H -0.03338 0.30735 0.10474
 H29 H 0.01503 0.30902 0.10552
 H30 H 0.08418 0.26830 0.03378
 H31 H 0.08548 0.27014 -0.02132
 H32 H -0.03092 0.31366 -0.09396
 H33 H -0.00474 0.27532 0.02906
 H34 H 0.01736 0.31659 -0.09310
 C35 C 0.57850 0.77698 0.51789
 C36 C 0.57855 0.77840 0.48921
 C37 C 0.55483 0.78643 0.48125
 N38 N 0.54035 0.79014 0.50409
 C39 C 0.55475 0.78423 0.52651
 C40 C 0.54723 0.79117 0.45336
 C41 C 0.52235 0.79607 0.44539
 C42 C 0.51467 0.80524 0.41948
 C43 C 0.48933 0.80568 0.41930
 C44 C 0.48224 0.79670 0.44508
 N45 N 0.50248 0.79084 0.46082
 C46 C 0.45769 0.79265 0.45271
 C47 C 0.45034 0.78821 0.48058
 C48 C 0.42729 0.78107 0.48841
 C49 C 0.42722 0.77998 0.51711
 C50 C 0.45025 0.78638 0.52587
 N51 N 0.46430 0.79156 0.50353
 C52 C 0.45748 0.78847 0.55416
 C53 C 0.48200 0.79154 0.56262
 C54 C 0.48897 0.79793 0.58948
 C55 C 0.51432 0.79730 0.58965
 C56 C 0.52213 0.79054 0.56289
 N57 N 0.50232 0.78699 0.54660
 C58 C 0.54705 0.78626 0.55474
 H59 H 0.59417 0.77123 0.53088
 H60 H 0.59427 0.77397 0.47577
 H61 H 0.50276 0.77901 0.52682
 H62 H 0.52614 0.81080 0.40237
 H63 H 0.47749 0.81167 0.40202
 H64 H 0.41209 0.77704 0.47488
 H65 H 0.41195 0.77499 0.53003
 H66 H 0.52571 0.80113 0.60752
 H67 H 0.50288 0.78103 0.47951
 H68 H 0.47704 0.80232 0.60720
 C69 C 1.08223 0.72068 -0.00902
 C70 C 1.08176 0.71961 0.01964
 C71 C 1.05790 0.72697 0.02778
 N72 N 1.04366 0.73222 0.00497
 C73 C 1.05863 0.72860 -0.01755
 C74 C 1.04963 0.72918 0.05591
 C75 C 1.02417 0.73061 0.06256
 C76 C 1.01402 0.74027 0.08722
 C77 C 0.98922 0.73687 0.08626
 C78 C 0.98486 0.72527 0.06102
 N79 N 1.00624 0.72172 0.04654
 C80 C 0.96184 0.71700 0.05270
 C81 C 0.95661 0.71119 0.02462
 C82 C 0.93603 0.69965 0.01559
 C83 C 0.93668 0.69992 -0.01317
 C84 C 0.95759 0.71168 -0.02065
 N85 N 0.96977 0.71847 0.00246
 C86 C 0.96400 0.71818 -0.04819
 C87 C 0.98701 0.72748 -0.05465
 C88 C 0.99194 0.74051 -0.07877
 C89 C 1.01655 0.74478 -0.07803
 C90 C 1.02607 0.73401 -0.05360
 N91 N 1.00785 0.72377 -0.03925
 C92 C 1.05128 0.73275 -0.04575
 H93 H 1.09805 0.71570 -0.02210
 H94 H 1.09716 0.71364 0.03291
 H95 H 1.01014 0.71255 -0.02160
 H96 H 1.02351 0.74890 0.10417
 H97 H 0.97594 0.74228 0.10239
 H98 H 0.92187 0.69217 0.02838
 H99 H 0.92310 0.69269 -0.02698
 H100 H 1.02634 0.75463 -0.09378
 H101 H 1.00896 0.71142 0.02825
 H102 H 0.97913 0.74636 -0.09521
 C103 C 0.57363 0.21495 0.49069
 C104 C 0.57325 0.21488 0.51946
 C105 C 0.54918 0.22157 0.52739
 N106 N 0.53485 0.22553 0.50446
 C107 C 0.54975 0.22141 0.48203
 C108 C 0.54108 0.22576 0.55527
 C109 C 0.51587 0.22991 0.56233
 C110 C 0.50711 0.24047 0.58718
 C111 C 0.48185 0.23987 0.58664
 C112 C 0.47589 0.22889 0.56152
 N113 N 0.49673 0.22288 0.54682
 C114 C 0.45183 0.22348 0.55338
 C115 C 0.44590 0.21745 0.52554
 C116 C 0.42400 0.20800 0.51712
 C117 C 0.42442 0.20745 0.48839
 C118 C 0.44655 0.21658 0.48027
 N119 N 0.45968 0.22260 0.50300
 C120 C 0.45328 0.22154 0.45236
 C121 C 0.47755 0.22672 0.44477
 C122 C 0.48424 0.23662 0.41930
 C123 C 0.50946 0.23757 0.41974
 C124 C 0.51746 0.22838 0.44553
 N125 N 0.49793 0.22168 0.46060
 C126 C 0.54240 0.22520 0.45390
 H127 H 0.58967 0.21087 0.47763
 H128 H 0.58897 0.21066 0.53294
 H129 H 0.49876 0.21187 0.47935
 H130 H 0.51779 0.24785 0.60398
 H131 H 0.46935 0.24666 0.60296
 H132 H 0.40912 0.20245 0.53028
 H133 H 0.40992 0.20140 0.47500
 H134 H 0.52064 0.24427 0.40295
 H135 H 0.49805 0.21216 0.52873
 H136 H 0.47224 0.24251 0.40213
 C137 C 0.68936 -0.07888 -0.02460
 C138 C 0.68953 -0.08015 0.00406
 C139 C 0.70009 -0.05912 0.01358
 N140 N 0.70561 -0.04468 -0.00833
 C141 C 0.69910 -0.05672 -0.03174
 C142 C 0.70635 -0.05433 0.04183
 C143 C 0.71149 -0.03018 0.05059
 C144 C 0.72419 -0.02451 0.07477
 C145 C 0.72433 0.00082 0.07599
 C146 C 0.71205 0.00992 0.05235
 N147 N 0.70439 -0.00902 0.03689
 C148 C 0.70689 0.03520 0.04624
 C149 C 0.70118 0.04349 0.01886
 C150 C 0.69077 0.06671 0.01208
 C151 C 0.69070 0.06813 -0.01661
 C152 C 0.70146 0.04583 -0.02639
 N153 N 0.70756 0.03066 -0.00462
 C154 C 0.70675 0.04005 -0.05484
 C155 C 0.71190 0.01514 -0.06337
 C156 C 0.72389 0.00764 -0.08793
 C157 C 0.72343 -0.01763 -0.08925
 C158 C 0.71185 -0.02507 -0.06504
 N159 N 0.70491 -0.00496 -0.04940
 C160 C 0.70540 -0.04942 -0.05913
 H161 H 0.68324 -0.09304 -0.03839
 H162 H 0.68312 -0.09517 0.01644
 H163 H 0.69352 -0.00474 -0.03182
 H164 H 0.73270 -0.03725 0.08991
 H165 H 0.73269 0.01131 0.09231
 H166 H 0.68402 0.08114 0.02634
 H167 H 0.68362 0.08384 -0.02885
 H168 H 0.73051 -0.02901 -0.10642
 H169 H 0.69289 -0.00740 0.01942
 H170 H 0.73195 0.01914 -0.10352
 C171 C 0.21910 0.42256 0.51050
 C172 C 0.21970 0.42300 0.48176
 C173 C 0.22277 0.44726 0.47407
 N174 N 0.22419 0.46160 0.49708
 C175 C 0.22185 0.44656 0.51937
 C176 C 0.22612 0.45539 0.44632
 C177 C 0.22720 0.48051 0.43882
 C178 C 0.23583 0.48870 0.41335
 C179 C 0.23306 0.51408 0.41383
 C180 C 0.22260 0.52072 0.43949
 N181 N 0.21898 0.50011 0.45455
 C182 C 0.21568 0.54525 0.44784
 C183 C 0.21008 0.55179 0.47590
 C184 C 0.19994 0.57467 0.48453
 C185 C 0.19971 0.57424 0.51327
 C186 C 0.20967 0.55111 0.52122
 N187 N 0.21598 0.53741 0.49836
 C188 C 0.21474 0.54372 0.54913
 C189 C 0.22124 0.51891 0.55673
 C190 C 0.23105 0.51143 0.58245
 C191 C 0.23343 0.48604 0.58209
 C192 C 0.22529 0.47869 0.55606
 N193 N 0.21772 0.49880 0.54079
 C194 C 0.22410 0.45384 0.54758
 H195 H 0.21727 0.40637 0.52341
 H196 H 0.21842 0.40721 0.46809
 H197 H 0.20832 0.49870 0.52183
 H198 H 0.24341 0.47755 0.39621
 H199 H 0.23816 0.52622 0.39711
 H200 H 0.19365 0.59015 0.47149
 H201 H 0.19319 0.58933 0.52677
 H202 H 0.24047 0.47433 0.59904
 H203 H 0.20916 0.49937 0.47319
 H204 H 0.23594 0.52302 0.59976
 C205 C 0.27899 0.92120 -0.01692
 C206 C 0.27982 0.92109 0.01179
 C207 C 0.29032 0.94260 0.01965
 N208 N 0.29617 0.95576 -0.00317
 C209 C 0.28949 0.94257 -0.02563
 C210 C 0.29579 0.94914 0.04739
 C211 C 0.30129 0.97329 0.05487
 C212 C 0.31247 0.97965 0.07967
 C213 C 0.31226 1.00503 0.08005
 C214 C 0.30050 1.01344 0.05569
 N215 N 0.29426 0.99391 0.04024
 C216 C 0.29437 1.03855 0.04886
 C217 C 0.28867 1.04568 0.02089
 C218 C 0.27550 1.06737 0.01308
 C219 C 0.27473 1.06750 -0.01559
 C220 C 0.28751 1.04591 -0.02444
 N221 N 0.29575 1.03238 -0.00208
 C222 C 0.29206 1.03915 -0.05273
 C223 C 0.29823 1.01419 -0.06006
 C224 C 0.31059 1.00640 -0.08425
 C225 C 0.31095 0.98105 -0.08459
 C226 C 0.29881 0.97401 -0.06059
 N227 N 0.29158 0.99432 -0.04541
 C228 C 0.29367 0.94942 -0.05379
 H229 H 0.27137 0.90719 -0.02983
 H230 H 0.27326 0.90692 0.02533
 H231 H 0.28029 0.99478 -0.02772
 H232 H 0.31980 0.96730 0.09590
 H233 H 0.31964 1.01601 0.09660
 H234 H 0.26689 1.08143 0.02663
 H235 H 0.26544 1.08169 -0.02843
 H236 H 0.31918 0.96914 -0.10072
 H237 H 0.28318 0.99469 0.02240
 H238 H 0.31844 1.01781 -0.10009
 C239 C 0.77458 0.41328 0.51252
 C240 C 0.77374 0.41257 0.48382
 C241 C 0.77924 0.43578 0.47449
 N242 N 0.78358 0.45057 0.49649
 C243 C 0.78056 0.43691 0.51977
 C244 C 0.78120 0.44260 0.44605
 C245 C 0.78377 0.46714 0.43706
 C246 C 0.79034 0.47376 0.41014
 C247 C 0.78923 0.49916 0.40937
 C248 C 0.78199 0.50737 0.43583
 N249 N 0.77863 0.48774 0.45254
 C250 C 0.77715 0.53248 0.44326
 C251 C 0.77428 0.54082 0.47120
 C252 C 0.76658 0.56474 0.47891
 C253 C 0.76708 0.56544 0.50765
 C254 C 0.77518 0.54195 0.51655
 N255 N 0.77971 0.52699 0.49422
 C256 C 0.77925 0.53497 0.54481
 C257 C 0.78497 0.51027 0.55334
 C258 C 0.79399 0.50332 0.57958
 C259 C 0.79536 0.47792 0.58032
 C260 C 0.78719 0.47003 0.55452
 N261 N 0.78085 0.48985 0.53822
 C262 C 0.78416 0.44512 0.54745
 H263 H 0.77114 0.39814 0.52645
 H264 H 0.76952 0.39677 0.47128
 H265 H 0.77138 0.48953 0.51935
 H266 H 0.79519 0.46155 0.39277
 H267 H 0.79305 0.51031 0.39126
 H268 H 0.76112 0.58009 0.46526
 H269 H 0.76205 0.58144 0.52049
 H270 H 0.80142 0.46656 0.59799
 H271 H 0.77044 0.48839 0.47219
 H272 H 0.79882 0.51532 0.59655
 O273 O 0.25405 0.21409 0.22958
 O274 O 0.23739 0.26667 0.27625
 O275 O 0.21859 0.24868 0.23107
 O276 O 0.27288 0.23219 0.27492
 O277 O 0.29537 0.25539 0.24852
 O278 O 0.24065 0.27301 0.20560
 O279 O 0.26029 0.29030 0.25089
 O280 O 0.27579 0.23812 0.20336
 Cu281 Cu 0.24352 0.23799 0.25554
 Cu282 Cu 0.27024 0.26660 0.22449
 C283 C 0.26757 0.21717 0.20830
 C284 C 0.24621 0.28742 0.27173
 C285 C 0.22030 0.26367 0.21082
 C286 C 0.29340 0.24101 0.26930
 O287 O 0.71004 0.73954 0.25531
 O288 O 0.76313 0.72442 0.20948
 O289 O 0.74565 0.70498 0.25502
 O290 O 0.72843 0.75952 0.21118
 O291 O 0.75120 0.78215 0.23789
 O292 O 0.76860 0.72781 0.28126
 O293 O 0.78624 0.74707 0.23577
 O294 O 0.73288 0.76207 0.28207
 Cu295 Cu 0.73457 0.72977 0.23013
 Cu296 Cu 0.76209 0.75699 0.26189
 C297 C 0.71228 0.75337 0.27650
 C298 C 0.78365 0.73343 0.21443
 C299 C 0.75990 0.70719 0.27588
 C300 C 0.73691 0.78019 0.21709
 O301 O 0.77536 0.23985 0.22924
 O302 O 0.72466 0.22460 0.27597
 O303 O 0.74315 0.20637 0.22929
 O304 O 0.75636 0.25853 0.27539
 O305 O 0.73093 0.28319 0.25047
 O306 O 0.71729 0.23113 0.20504
 O307 O 0.69896 0.24974 0.25199
 O308 O 0.74953 0.26428 0.20458
 Cu309 Cu 0.75244 0.22984 0.25493
 Cu310 Cu 0.72152 0.25948 0.22558
 C311 C 0.77114 0.25457 0.20883
 C312 C 0.70321 0.23484 0.27224
 C313 C 0.72813 0.20995 0.20905
 C314 C 0.74589 0.27982 0.27075
 O315 O 0.26805 0.76970 0.22312
 O316 O 0.25150 0.71896 0.26941
 O317 O 0.23214 0.74045 0.22499
 O318 O 0.28780 0.74791 0.26720
 O319 O 0.26683 0.77467 0.29437
 O320 O 0.21133 0.76792 0.25146
 O321 O 0.23045 0.74587 0.29632
 O322 O 0.24755 0.79659 0.25058
 Cu323 Cu 0.26196 0.74153 0.24350
 Cu324 Cu 0.23685 0.77385 0.27595
 C325 C 0.26059 0.79184 0.22892
 C326 C 0.23830 0.72379 0.29095
 C327 C 0.21236 0.75326 0.23066
 C328 C 0.28686 0.76254 0.28803
 O329 O 0.76317 0.26742 0.72642
 O330 O 0.74714 0.21528 0.77097
 O331 O 0.73077 0.23477 0.72370
 O332 O 0.78022 0.24793 0.77295
 O333 O 0.75432 0.27309 0.79663
 O334 O 0.70451 0.25930 0.74771
 O335 O 0.72149 0.24041 0.79499
 O336 O 0.73702 0.29228 0.75018
 Cu337 Cu 0.75791 0.23875 0.74620
 Cu338 Cu 0.72667 0.26869 0.77479
 C339 C 0.75267 0.28875 0.73057
 C340 C 0.73179 0.21902 0.79086
 C341 C 0.70930 0.24508 0.72696
 C342 C 0.77582 0.26285 0.79313
 O343 O 0.29078 0.73666 0.74165
 O344 O 0.23572 0.72601 0.78366
 O345 O 0.25461 0.70768 0.73741
 O346 O 0.27153 0.75543 0.78752
 O347 O 0.25043 0.78382 0.76258
 O348 O 0.23297 0.73609 0.71306
 O349 O 0.21439 0.75496 0.75972
 O350 O 0.26922 0.76475 0.71677
 Cu351 Cu 0.26530 0.72858 0.76501
 Cu352 Cu 0.23954 0.76270 0.73555
 C353 C 0.28942 0.75244 0.72194
 C354 C 0.21575 0.73889 0.77915
 C355 C 0.24102 0.71378 0.71653
 C356 C 0.26387 0.77782 0.78359
 O357 O 0.20907 0.24739 0.76382
 O358 O 0.26534 0.23314 0.72247
 O359 O 0.24579 0.21422 0.76686
 O360 O 0.22877 0.26631 0.71955
 O361 O 0.24969 0.29085 0.74606
 O362 O 0.26562 0.23913 0.79406
 O363 O 0.28588 0.25727 0.74990
 O364 O 0.22917 0.27251 0.79047
 Cu365 Cu 0.23519 0.23779 0.74049
 Cu366 Cu 0.25956 0.26746 0.77283
 C367 C 0.20949 0.26230 0.78432
 C368 C 0.28522 0.24278 0.72903
 C369 C 0.25848 0.21780 0.78868
 C370 C 0.23667 0.28741 0.72448
 O371 O 0.75627 0.70609 0.73572
 O372 O 0.74134 0.76164 0.77872
 O373 O 0.72294 0.74279 0.73412
 O374 O 0.77393 0.72466 0.78184
 O375 O 0.79921 0.74562 0.75637
 O376 O 0.74805 0.76337 0.70797
 O377 O 0.76639 0.78245 0.75274
 O378 O 0.78172 0.72697 0.71040
 Cu379 Cu 0.74618 0.73157 0.76014
 Cu380 Cu 0.77642 0.75659 0.72925
 C381 C 0.77139 0.70713 0.71548
 C382 C 0.75135 0.78158 0.77304
 C383 C 0.72666 0.75623 0.71296
 C384 C 0.79514 0.73247 0.77773
 C385 C 0.28242 0.05260 0.09636
 C386 C 0.28073 0.07102 0.11688
 C387 C 0.28999 0.09416 0.11194
 C388 C 0.30190 0.09818 0.08632
 C389 C 0.30353 0.07982 0.06576
 C390 C 0.29357 0.05681 0.07027
 C391 C 0.28689 0.11343 0.13400
 C392 C 0.28739 0.13772 0.12880
 C393 C 0.28307 0.15719 0.15040
 C394 C 0.29179 0.18057 0.14534
 C395 C 0.28716 0.19989 0.16437
 C396 C 0.27345 0.19634 0.18884
 C397 C 0.26477 0.17292 0.19401
 C398 C 0.26946 0.15355 0.17500
 H399 H 0.27410 0.03537 0.10055
 H400 H 0.27159 0.06736 0.13648
 H401 H 0.31030 0.11530 0.08204
 H402 H 0.31304 0.08349 0.04639
 H403 H 0.28331 0.10719 0.15505
 H404 H 0.29094 0.14400 0.10777
 H405 H 0.30215 0.18394 0.12647
 H406 H 0.29405 0.21772 0.15968
 H407 H 0.25399 0.16964 0.21257
 H408 H 0.26174 0.13609 0.17932
 C409 C 0.75896 0.55432 0.58720
 C410 C 0.75716 0.57255 0.60792
 C411 C 0.77392 0.59117 0.60876
 C412 C 0.79245 0.59129 0.58807
 C413 C 0.79424 0.57300 0.56736
 C414 C 0.77749 0.55443 0.56677
 C415 C 0.77067 0.61049 0.63075
 C416 C 0.78829 0.62532 0.63846
 C417 C 0.78423 0.64540 0.65939
 C418 C 0.79844 0.66600 0.65750
 C419 C 0.79457 0.68583 0.67601
 C420 C 0.77657 0.68537 0.69713
 C421 C 0.76295 0.66434 0.69973
 C422 C 0.76673 0.64453 0.68108
 H423 H 0.74584 0.54013 0.58700
 H424 H 0.74260 0.57209 0.62339
 H425 H 0.80530 0.60564 0.58729
 H426 H 0.80860 0.57339 0.55166
 H427 H 0.75279 0.61254 0.64078
 H428 H 0.80617 0.62358 0.62845
 H429 H 0.81222 0.66701 0.64120
 H430 H 0.80549 0.70168 0.67354
 H431 H 0.74908 0.66332 0.71591
 H432 H 0.75603 0.62860 0.68387
 C433 C 0.72088 0.90294 0.05343
 C434 C 0.72287 0.88314 0.07212
 C435 C 0.71324 0.88556 0.09928
 C436 C 0.70123 0.90823 0.10735
 C437 C 0.69908 0.92807 0.08856
 C438 C 0.70875 0.92572 0.06119
 C439 C 0.71559 0.86383 0.11814
 C440 C 0.71602 0.86551 0.14616
 C441 C 0.72020 0.84356 0.16445
 C442 C 0.73224 0.84610 0.19017
 C443 C 0.73748 0.82557 0.20739
 C444 C 0.73042 0.80210 0.19941
 C445 C 0.71757 0.79971 0.17410
 C446 C 0.71250 0.82022 0.15679
 H447 H 0.72930 0.90053 0.03295
 H448 H 0.73226 0.86590 0.06541
 H449 H 0.69295 0.91056 0.12788
 H450 H 0.68912 0.94505 0.09516
 H451 H 0.71881 0.84588 0.10838
 H452 H 0.71532 0.88352 0.15602
 H453 H 0.73812 0.86392 0.19666
 H454 H 0.74722 0.82807 0.22687
 H455 H 0.71170 0.78193 0.16748
 H456 H 0.70246 0.81775 0.13752
 C457 C 0.24963 0.42109 0.57316
 C458 C 0.25244 0.40317 0.59417
 C459 C 0.23245 0.39796 0.61134
 C460 C 0.20963 0.41139 0.60745
 C461 C 0.20692 0.42950 0.58662
 C462 C 0.22687 0.43436 0.56933
 C463 C 0.23631 0.37913 0.63366
 C464 C 0.21835 0.36551 0.64314
 C465 C 0.22277 0.34611 0.66472
 C466 C 0.20913 0.32506 0.66384
 C467 C 0.21344 0.30605 0.68340
 C468 C 0.23117 0.30799 0.70460
 C469 C 0.24421 0.32948 0.70605
 C470 C 0.24011 0.34833 0.68629
 H471 H 0.26523 0.42481 0.56006
 H472 H 0.27023 0.39323 0.59692
 H473 H 0.19404 0.40834 0.62083
 H474 H 0.18931 0.43983 0.58402
 H475 H 0.25495 0.37539 0.64129
 H476 H 0.20028 0.36735 0.63350
 H477 H 0.19548 0.32307 0.64760
 H478 H 0.20298 0.28979 0.68184
 H479 H 0.25791 0.33158 0.72221
 H480 H 0.25041 0.36467 0.68805
 C481 C 0.93543 0.26987 0.10071
 C482 C 0.91684 0.26735 0.12056
 C483 C 0.89277 0.27742 0.11572
 C484 C 0.88788 0.29096 0.09095
 C485 C 0.90642 0.29343 0.07106
 C486 C 0.93043 0.28264 0.07540
 C487 C 0.87351 0.27353 0.13705
 C488 C 0.84925 0.27503 0.13139
 C489 C 0.82996 0.27021 0.15231
 C490 C 0.80581 0.28013 0.14755
 C491 C 0.78679 0.27534 0.16608
 C492 C 0.79145 0.26027 0.18969
 C493 C 0.81562 0.25027 0.19447
 C494 C 0.83467 0.25512 0.17598
 H495 H 0.95353 0.26101 0.10475
 H496 H 0.92119 0.25700 0.13954
 H497 H 0.86992 0.30001 0.08687
 H498 H 0.90205 0.30424 0.05241
 H499 H 0.87981 0.26860 0.15794
 H500 H 0.84290 0.27997 0.11054
 H501 H 0.80162 0.29163 0.12938
 H502 H 0.76837 0.28326 0.16171
 H503 H 0.81979 0.23842 0.21236
 H504 H 0.85281 0.24645 0.17998
 C505 C 0.42013 0.80688 0.57900
 C506 C 0.40108 0.80518 0.59842
 C507 C 0.39970 0.78400 0.61521
 C508 C 0.41815 0.76460 0.61229
 C509 C 0.43729 0.76642 0.59298
 C510 C 0.43823 0.78743 0.57605
 C511 C 0.37810 0.78263 0.63415
 C512 C 0.37579 0.76497 0.65355
 C513 C 0.35344 0.76299 0.67114
 C514 C 0.35526 0.74814 0.69526
 C515 C 0.33456 0.74486 0.71188
 C516 C 0.31148 0.75635 0.70472
 C517 C 0.30960 0.77124 0.68062
 C518 C 0.33027 0.77441 0.66390
 H519 H 0.42059 0.82319 0.56595
 H520 H 0.38714 0.82035 0.60003
 H521 H 0.41776 0.74768 0.62415
 H522 H 0.45106 0.75117 0.59070
 H523 H 0.36360 0.79714 0.63196
 H524 H 0.39092 0.75147 0.65740
 H525 H 0.37278 0.73894 0.70123
 H526 H 0.33663 0.73323 0.73029
 H527 H 0.29202 0.78013 0.67436
 H528 H 0.32770 0.78531 0.64504
 C529 C 0.06500 0.71555 0.10217
 C530 C 0.08256 0.71587 0.12353
 C531 C 0.10214 0.73133 0.12164
 C532 C 0.10417 0.74620 0.09775
 C533 C 0.08695 0.74549 0.07607
 C534 C 0.06708 0.73013 0.07793
 C535 C 0.12089 0.73072 0.14410
 C536 C 0.13170 0.75097 0.15236
 C537 C 0.15130 0.75032 0.17387
 C538 C 0.15332 0.77086 0.19138
 C539 C 0.17262 0.77139 0.21069
 C540 C 0.19065 0.75163 0.21229
 C541 C 0.18856 0.73100 0.19485
 C542 C 0.16899 0.73026 0.17594
 H543 H 0.05022 0.70321 0.10417
 H544 H 0.08081 0.70407 0.14165
 H545 H 0.11938 0.75797 0.09551
 H546 H 0.08893 0.75731 0.05802
 H547 H 0.12517 0.71332 0.15476
 H548 H 0.12553 0.76880 0.14369
 H549 H 0.14001 0.78659 0.18996
 H550 H 0.17392 0.78762 0.22369
 H551 H 0.20226 0.71556 0.19556
 H552 H 0.16823 0.71441 0.16226
 C553 C 0.55867 0.21146 0.60157
 C554 C 0.57573 0.21292 0.62333
 C555 C 0.59447 0.22944 0.62167
 C556 C 0.59546 0.24501 0.59815
 C557 C 0.57814 0.24385 0.57663
 C558 C 0.55973 0.22691 0.57802
 C559 C 0.61223 0.23064 0.64504
 C560 C 0.63586 0.23523 0.64090
 C561 C 0.65395 0.23642 0.66394
 C562 C 0.67883 0.22969 0.65845
 C563 C 0.69665 0.23173 0.67925
 C564 C 0.69002 0.24110 0.70585
 C565 C 0.66508 0.24782 0.71142
 C566 C 0.64717 0.24538 0.69071
 H567 H 0.54453 0.19836 0.60312
 H568 H 0.57448 0.20092 0.64136
 H569 H 0.60927 0.25844 0.59666
 H570 H 0.57899 0.25626 0.55892
 H571 H 0.60597 0.22625 0.66590
 H572 H 0.64261 0.23702 0.61967
 H573 H 0.68451 0.22291 0.63793
 H574 H 0.71575 0.22662 0.67422
 H575 H 0.65944 0.25522 0.73168
 H576 H 0.62820 0.25127 0.69540
 C577 C 0.69779 0.05729 0.89814
 C578 C 0.69973 0.07599 0.87825
 C579 C 0.71139 0.09750 0.88495
 C580 C 0.72149 0.09982 0.91186
 C581 C 0.71977 0.08106 0.93167
 C582 C 0.70790 0.05942 0.92519
 C583 C 0.71379 0.11664 0.86315
 C584 C 0.71475 0.14068 0.86929
 C585 C 0.71798 0.15998 0.84789
 C586 C 0.70915 0.18434 0.85367
 C587 C 0.71306 0.20336 0.83478
 C588 C 0.72629 0.19850 0.80985
 C589 C 0.73506 0.17408 0.80397
 C590 C 0.73093 0.15499 0.82276
 H591 H 0.68804 0.04125 0.89243
 H592 H 0.69189 0.07374 0.85761
 H593 H 0.73141 0.11577 0.91742
 H594 H 0.72862 0.08312 0.95180
 H595 H 0.71378 0.11079 0.84145
 H596 H 0.71223 0.14673 0.89079
 H597 H 0.69931 0.18868 0.87298
 H598 H 0.70618 0.22199 0.84004
 H599 H 0.74544 0.16978 0.78501
 H600 H 0.73859 0.13654 0.81796
 C601 C 0.20107 0.56500 0.40258
 C602 C 0.20189 0.58369 0.38244
 C603 C 0.21723 0.60325 0.38624
 C604 C 0.23223 0.60346 0.41024
 C605 C 0.23166 0.58464 0.43014
 C606 C 0.21599 0.56533 0.42658
 C607 C 0.21813 0.62255 0.36438
 C608 C 0.22249 0.64600 0.37042
 C609 C 0.22479 0.66536 0.34887
 C610 C 0.21947 0.69017 0.35630
 C611 C 0.22311 0.70910 0.33718
 C612 C 0.23260 0.70363 0.31034
 C613 C 0.23774 0.67876 0.30278
 C614 C 0.23382 0.65979 0.32181
 H615 H 0.18893 0.55020 0.39941
 H616 H 0.19037 0.58299 0.36397
 H617 H 0.24486 0.61783 0.41337
 H618 H 0.24360 0.58500 0.44829
 H619 H 0.21424 0.61741 0.34298
 H620 H 0.22384 0.65154 0.39215
 H621 H 0.21270 0.69492 0.37709
 H622 H 0.21911 0.72807 0.34371
 H623 H 0.24517 0.67396 0.28229
 H624 H 0.23873 0.64091 0.31561
 C625 C 0.28108 0.93737 0.89892
 C626 C 0.27942 0.91950 0.87805
 C627 C 0.28950 0.89529 0.88216
 C628 C 0.30229 0.88956 0.90719
 C629 C 0.30398 0.90742 0.92807
 C630 C 0.29299 0.93151 0.92453
 C631 C 0.28621 0.87674 0.85988
 C632 C 0.28671 0.85231 0.86469
 C633 C 0.28152 0.83387 0.84288
 C634 C 0.29003 0.80912 0.84699
 C635 C 0.28463 0.79094 0.82759
 C636 C 0.27036 0.79710 0.80374
 C637 C 0.26180 0.82187 0.79962
 C638 C 0.26722 0.84004 0.81899
 H639 H 0.27215 0.95556 0.89538
 H640 H 0.26964 0.92447 0.85887
 H641 H 0.31131 0.87144 0.91069
 H642 H 0.31430 0.90245 0.94689
 H643 H 0.28223 0.88377 0.83904
 H644 H 0.29075 0.84526 0.88550
 H645 H 0.30087 0.80383 0.86534
 H646 H 0.29142 0.77201 0.83144
 H647 H 0.25058 0.82721 0.78159
 H648 H 0.25953 0.85868 0.81545
 C649 C 0.79978 0.40471 0.42205
 C650 C 0.79837 0.38556 0.40263
 C651 C 0.77760 0.38435 0.38526
 C652 C 0.75817 0.40279 0.38785
 C653 C 0.75969 0.42198 0.40717
 C654 C 0.78040 0.42296 0.42449
 C655 C 0.77642 0.36297 0.36593
 C656 C 0.76099 0.36267 0.34398
 C657 C 0.75866 0.34106 0.32523
 C658 C 0.74543 0.34471 0.30015
 C659 C 0.74156 0.32490 0.28235
 C660 C 0.75086 0.30087 0.28921
 C661 C 0.76431 0.29713 0.31416
 C662 C 0.76806 0.31695 0.33209
 H663 H 0.81585 0.40519 0.43541
 H664 H 0.81348 0.37155 0.40130
 H665 H 0.74145 0.40223 0.37570
 H666 H 0.74445 0.43580 0.40910
 H667 H 0.78925 0.34726 0.36982
 H668 H 0.74966 0.37919 0.33886
 H669 H 0.73784 0.36298 0.29436
 H670 H 0.73113 0.32843 0.26327
 H671 H 0.77152 0.27878 0.32013
 H672 H 0.77779 0.31301 0.35148
 C673 C 0.08046 0.30588 0.93946
 C674 C 0.09926 0.30618 0.91953
 C675 C 0.09725 0.29400 0.89380
 C676 C 0.07545 0.28239 0.88787
 C677 C 0.05659 0.28212 0.90777
 C678 C 0.05895 0.29349 0.93411
 C679 C 0.11829 0.29382 0.87395
 C680 C 0.12284 0.27610 0.85463
 C681 C 0.14486 0.27445 0.83612
 C682 C 0.14445 0.25943 0.81220
 C683 C 0.16522 0.25595 0.79504
 C684 C 0.18701 0.26731 0.80151
 C685 C 0.18739 0.28259 0.82526
 C686 C 0.16661 0.28608 0.84246
 H687 H 0.08267 0.31558 0.95904
 H688 H 0.11567 0.31563 0.92446
 H689 H 0.07277 0.27351 0.86792
 H690 H 0.04046 0.27223 0.90285
 H691 H 0.13091 0.30826 0.87642
 H692 H 0.11020 0.26164 0.85240
 H693 H 0.12804 0.25012 0.80690
 H694 H 0.16430 0.24401 0.77693
 H695 H 0.20396 0.29145 0.83096
 H696 H 0.16808 0.29722 0.86107
 C697 C 0.58342 0.80892 0.43017
 C698 C 0.60247 0.80739 0.41044
 C699 C 0.60483 0.78759 0.39142
 C700 C 0.58754 0.76933 0.39254
 C701 C 0.56843 0.77098 0.41216
 C702 C 0.56641 0.79063 0.43123
 C703 C 0.62629 0.78595 0.37206
 C704 C 0.62771 0.77149 0.34921
 C705 C 0.64965 0.76840 0.33066
 C706 C 0.64705 0.75664 0.30473
 C707 C 0.66730 0.75203 0.28706
 C708 C 0.69073 0.75909 0.29489
 C709 C 0.69340 0.77108 0.32070
 C710 C 0.67315 0.77556 0.33850
 H711 H 0.58214 0.82414 0.44491
 H712 H 0.61559 0.82158 0.41025
 H713 H 0.58900 0.75330 0.37905
 H714 H 0.55558 0.75656 0.41302
 H715 H 0.64118 0.79752 0.37685
 H716 H 0.61194 0.76154 0.34324
 H717 H 0.62927 0.75076 0.29818
 H718 H 0.66460 0.74277 0.26730
 H719 H 0.71127 0.77656 0.32742
 H720 H 0.67630 0.78404 0.35855
 C721 C 0.95092 0.70342 0.90457
 C722 C 0.93388 0.70335 0.88261
 C723 C 0.91083 0.71645 0.88498
 C724 C 0.90527 0.73001 0.90959
 C725 C 0.92241 0.73032 0.93137
 C726 C 0.94535 0.71698 0.92909
 C727 C 0.89348 0.71671 0.86104
 C728 C 0.86895 0.71890 0.86443
 C729 C 0.85121 0.72045 0.84085
 C730 C 0.82722 0.71331 0.84546
 C731 C 0.80930 0.71634 0.82454
 C732 C 0.81489 0.72698 0.79864
 C733 C 0.83904 0.73378 0.79380
 C734 C 0.85705 0.73053 0.81468
 H735 H 0.96859 0.69314 0.90234
 H736 H 0.93868 0.69299 0.86376
 H737 H 0.88799 0.74098 0.91174
 H738 H 0.91795 0.74130 0.94987
 H739 H 0.90119 0.71416 0.84023
 H740 H 0.86137 0.71892 0.88543
 H741 H 0.82222 0.70567 0.86549
 H742 H 0.79085 0.71102 0.82903
 H743 H 0.84388 0.74216 0.77413
 H744 H 0.87519 0.73682 0.81062
 C745 C 0.41282 0.23973 0.43432
 C746 C 0.39377 0.24085 0.41468
 C747 C 0.39532 0.22592 0.39067
 C748 C 0.41625 0.20956 0.38677
 C749 C 0.43518 0.20817 0.40670
 C750 C 0.43357 0.22321 0.43067
 C751 C 0.37434 0.22726 0.37090
 C752 C 0.37679 0.22327 0.34330
 C753 C 0.35552 0.22635 0.32399
 C754 C 0.35888 0.23611 0.29714
 C755 C 0.33875 0.24062 0.27916
 C756 C 0.31497 0.23495 0.28752
 C757 C 0.31183 0.22418 0.31396
 C758 C 0.33188 0.21999 0.33205
 H759 H 0.41128 0.25160 0.45258
 H760 H 0.37780 0.25352 0.41818
 H761 H 0.41772 0.19741 0.36877
 H762 H 0.45097 0.19519 0.40363
 H763 H 0.35642 0.23345 0.37920
 H764 H 0.39498 0.21967 0.33433
 H765 H 0.37698 0.24092 0.29040
 H766 H 0.34178 0.24875 0.25882
 H767 H 0.29378 0.21947 0.32095
 H768 H 0.32884 0.21178 0.35233
 C769 C 0.68666 0.92191 0.90902
 C770 C 0.68912 0.90280 0.88935
 C771 C 0.71253 0.89401 0.87981
 C772 C 0.73350 0.90469 0.89050
 C773 C 0.73104 0.92375 0.91017
 C774 C 0.70761 0.93250 0.91970
 C775 C 0.71446 0.87280 0.86015
 C776 C 0.73389 0.86797 0.84323
 C777 C 0.73678 0.84600 0.82474
 C778 C 0.75303 0.84652 0.80194
 C779 C 0.75742 0.82576 0.78487
 C780 C 0.74580 0.80389 0.79040
 C781 C 0.72942 0.80336 0.81316
 C782 C 0.72499 0.82415 0.83021
 H783 H 0.66840 0.92832 0.91612
 H784 H 0.67270 0.89475 0.88167
 H785 H 0.75191 0.89788 0.88452
 H786 H 0.74750 0.93122 0.91860
 H787 H 0.69900 0.86123 0.85925
 H788 H 0.74819 0.88092 0.84219
 H789 H 0.76250 0.86301 0.79740
 H790 H 0.77019 0.82678 0.76756
 H791 H 0.72032 0.78673 0.81810
 H792 H 0.71293 0.82270 0.84808
 C793 C 0.25330 0.42383 0.42099
 C794 C 0.25715 0.40603 0.40001
 C795 C 0.23781 0.40032 0.38214
 C796 C 0.21463 0.41326 0.38518
 C797 C 0.21087 0.43125 0.40600
 C798 C 0.23013 0.43649 0.42410
 C799 C 0.24265 0.38129 0.36023
 C800 C 0.22525 0.36710 0.35051
 C801 C 0.23057 0.34723 0.32967
 C802 C 0.21685 0.32622 0.33041
 C803 C 0.22183 0.30683 0.31152
 C804 C 0.24035 0.30828 0.29114
 C805 C 0.25357 0.32967 0.28985
 C806 C 0.24877 0.34893 0.30894
 H807 H 0.26836 0.42783 0.43477
 H808 H 0.27521 0.39648 0.39792
 H809 H 0.19953 0.40983 0.37125
 H810 H 0.19295 0.44109 0.40807
 H811 H 0.26154 0.37779 0.35333
 H812 H 0.20692 0.36880 0.35951
 H813 H 0.20256 0.32461 0.34601
 H814 H 0.21120 0.29068 0.31292
 H815 H 0.26786 0.33140 0.27428
 H816 H 0.25918 0.36521 0.30725
 C817 C 0.27895 0.05311 0.90012
 C818 C 0.27639 0.07156 0.87969
 C819 C 0.28505 0.09498 0.88449
 C820 C 0.29729 0.09926 0.90982
 C821 C 0.29982 0.08085 0.93029
 C822 C 0.29037 0.05756 0.92600
 C823 C 0.28107 0.11425 0.86256
 C824 C 0.28052 0.13857 0.86796
 C825 C 0.27549 0.15807 0.84651
 C826 C 0.28304 0.18184 0.85195
 C827 C 0.27785 0.20112 0.83300
 C828 C 0.26474 0.19710 0.80821
 C829 C 0.25717 0.17330 0.80270
 C830 C 0.26241 0.15398 0.82165
 H831 H 0.27109 0.03563 0.89603
 H832 H 0.26705 0.06769 0.86027
 H833 H 0.30528 0.11664 0.91390
 H834 H 0.30966 0.08472 0.94936
 H835 H 0.27772 0.10796 0.84148
 H836 H 0.28379 0.14483 0.88907
 H837 H 0.29296 0.18556 0.87102
 H838 H 0.28389 0.21925 0.83795
 H839 H 0.24686 0.16965 0.78389
 H840 H 0.25556 0.13617 0.81701
 C841 C 0.75443 0.55264 0.40293
 C842 C 0.75230 0.57042 0.38171
 C843 C 0.77083 0.58695 0.37758
 C844 C 0.79195 0.58482 0.39484
 C845 C 0.79395 0.56714 0.41619
 C846 C 0.77516 0.55107 0.42044
 C847 C 0.76728 0.60587 0.35512
 C848 C 0.78012 0.62614 0.35342
 C849 C 0.77535 0.64604 0.33230
 C850 C 0.78457 0.66916 0.33754
 C851 C 0.77994 0.68881 0.31897
 C852 C 0.76599 0.68582 0.29456
 C853 C 0.75733 0.66251 0.28880
 C854 C 0.76205 0.64276 0.30736
 H855 H 0.73983 0.54023 0.40589
 H856 H 0.73596 0.57143 0.36865
 H857 H 0.80711 0.59647 0.39194
 H858 H 0.81021 0.56588 0.42937
 H859 H 0.75238 0.60355 0.34056
 H860 H 0.79375 0.62942 0.36923
 H861 H 0.79507 0.67220 0.35638
 H862 H 0.78697 0.70650 0.32402
 H863 H 0.74675 0.65953 0.27001
 H864 H 0.75532 0.62509 0.30191
 C865 C 0.08878 0.75143 0.93798
 C866 C 0.10654 0.75452 0.91732
 C867 C 0.10583 0.74162 0.89192
 C868 C 0.08660 0.72608 0.88712
 C869 C 0.06855 0.72333 0.90753
 C870 C 0.06946 0.73580 0.93340
 C871 C 0.12504 0.74512 0.87062
 C872 C 0.13397 0.72678 0.85395
 C873 C 0.15428 0.72997 0.83395
 C874 C 0.17214 0.71045 0.82981
 C875 C 0.19207 0.71328 0.81185
 C876 C 0.19410 0.73548 0.79710
 C877 C 0.17570 0.75470 0.80044
 C878 C 0.15605 0.75206 0.81887
 H879 H 0.08978 0.76180 0.95730
 H880 H 0.12105 0.76682 0.92132
 H881 H 0.08530 0.71628 0.86747
 H882 H 0.05417 0.71091 0.90334
 H883 H 0.13329 0.76277 0.87012
 H884 H 0.12765 0.70838 0.85655
 H885 H 0.17099 0.69320 0.84105
 H886 H 0.20591 0.69811 0.80950
 H887 H 0.17681 0.77200 0.78931
 H888 H 0.14219 0.76721 0.82120
 C889 C 0.57537 0.24831 0.43128
 C890 C 0.59268 0.25095 0.41003
 C891 C 0.59692 0.23245 0.38968
 C892 C 0.58324 0.21131 0.39078
 C893 C 0.56571 0.20882 0.41188
 C894 C 0.56171 0.22729 0.43225
 C895 C 0.61493 0.23628 0.36706
 C896 C 0.62786 0.21767 0.35415
 C897 C 0.64649 0.22193 0.33235
 C898 C 0.66752 0.20559 0.33031
 C899 C 0.68586 0.20962 0.31059
 C900 C 0.68323 0.22980 0.29208
 C901 C 0.66173 0.24564 0.29344
 C902 C 0.64357 0.24182 0.31345
 H903 H 0.57229 0.26282 0.44672
 H904 H 0.60284 0.26747 0.40948
 H905 H 0.58556 0.19702 0.37500
 H906 H 0.55508 0.19262 0.41222
 H907 H 0.61865 0.25517 0.36207
 H908 H 0.62612 0.19885 0.36108
 H909 H 0.67004 0.19000 0.34446
 H910 H 0.70215 0.19700 0.30992
 H911 H 0.65914 0.26129 0.27940
 H912 H 0.62721 0.25434 0.31398
 C913 C 0.93735 0.27084 0.90757
 C914 C 0.91937 0.26886 0.88691
 C915 C 0.89648 0.28236 0.88901
 C916 C 0.89233 0.29876 0.91167
 C917 C 0.91036 0.30078 0.93227
 C918 C 0.93285 0.28657 0.93059
 C919 C 0.87759 0.27881 0.86721
 C920 C 0.85326 0.28271 0.87176
 C921 C 0.83411 0.27784 0.85066
 C922 C 0.81033 0.28921 0.85408
 C923 C 0.79145 0.28455 0.83532
 C924 C 0.79589 0.26820 0.81276
 C925 C 0.81966 0.25672 0.80935
 C926 C 0.83854 0.26139 0.82811
 H927 H 0.95462 0.25977 0.90588
 H928 H 0.92313 0.25630 0.86955
 H929 H 0.87534 0.31020 0.91352
 H930 H 0.90672 0.31330 0.94970
 H931 H 0.88418 0.27185 0.84715
 H932 H 0.84677 0.28960 0.89190
 H933 H 0.80633 0.30178 0.87139
 H934 H 0.77333 0.29364 0.83860
 H935 H 0.82364 0.24386 0.79233
 H936 H 0.85629 0.25154 0.82515
 C937 C 0.41878 0.81104 0.43079
 C938 C 0.39995 0.81040 0.41093
 C939 C 0.40053 0.79181 0.39039
 C940 C 0.42100 0.77445 0.38939
 C941 C 0.43980 0.77508 0.40932
 C942 C 0.43861 0.79313 0.43040
 C943 C 0.37935 0.79119 0.37081
 C944 C 0.37384 0.77102 0.35640
 C945 C 0.35163 0.77005 0.33851
 C946 C 0.35182 0.75268 0.31671
 C947 C 0.33092 0.75044 0.30008
 C948 C 0.30922 0.76534 0.30515
 C949 C 0.30897 0.78267 0.32706
 C950 C 0.32991 0.78499 0.34360
 H951 H 0.41769 0.82522 0.44681
 H952 H 0.38458 0.82415 0.41202
 H953 H 0.42274 0.76037 0.37336
 H954 H 0.45512 0.76126 0.40860
 H955 H 0.36736 0.80787 0.36915
 H956 H 0.38577 0.75430 0.35766
 H957 H 0.36821 0.74077 0.31254
 H958 H 0.33169 0.73683 0.28344
 H959 H 0.29250 0.79431 0.33164
 H960 H 0.32872 0.79801 0.36079
 C961 C 0.31179 0.90881 0.06826
 C962 C 0.31056 0.89015 0.08830
 C963 C 0.29307 0.89224 0.11001
 C964 C 0.27682 0.91361 0.11124
 C965 C 0.27819 0.93232 0.09127
 C966 C 0.29552 0.92995 0.06953
 C967 C 0.29154 0.87118 0.12973
 C968 C 0.27941 0.87268 0.15425
 C969 C 0.27626 0.85139 0.17328
 C970 C 0.26611 0.85624 0.19994
 C971 C 0.26138 0.83695 0.21813
 C972 C 0.26674 0.81225 0.21014
 C973 C 0.27723 0.80729 0.18367
 C974 C 0.28181 0.82659 0.16534
 H975 H 0.32524 0.90668 0.05153
 H976 H 0.32316 0.87387 0.08666
 H977 H 0.26251 0.91581 0.12691
 H978 H 0.26530 0.94841 0.09233
 H979 H 0.30117 0.85395 0.12361
 H980 H 0.27140 0.89040 0.16121
 H981 H 0.26153 0.87508 0.20664
 H982 H 0.25331 0.84141 0.23841
 H983 H 0.28139 0.78843 0.17682
 H984 H 0.28908 0.82173 0.14488
 C985 C 0.80396 0.40849 0.57274
 C986 C 0.80351 0.39038 0.59355
 C987 C 0.78363 0.39013 0.61238
 C988 C 0.76415 0.40853 0.60990
 C989 C 0.76471 0.42668 0.58920
 C990 C 0.78449 0.42664 0.57038
 C991 C 0.78325 0.36960 0.63295
 C992 C 0.76859 0.37012 0.65563
 C993 C 0.76645 0.34900 0.67515
 C994 C 0.75318 0.35320 0.70014
 C995 C 0.74909 0.33375 0.71838
 C996 C 0.75825 0.30956 0.71209
 C997 C 0.77192 0.30532 0.68738
 C998 C 0.77586 0.32475 0.66900
 H999 H 0.81931 0.40819 0.55824
 H1000 H 0.81862 0.37636 0.59476
 H1001 H 0.74806 0.40867 0.62320
 H1002 H 0.74942 0.44046 0.58738
 H1003 H 0.79584 0.35370 0.62910
 H1004 H 0.75753 0.38686 0.66054
 H1005 H 0.74559 0.37160 0.70541
 H1006 H 0.73850 0.33764 0.73727
 H1007 H 0.77905 0.28683 0.68183
 H1008 H 0.78568 0.32033 0.64978
 C1009 C 0.69583 0.05184 0.09419
 C1010 C 0.69773 0.06947 0.11536
 C1011 C 0.71228 0.08962 0.11145
 C1012 C 0.72563 0.09138 0.08636
 C1013 C 0.72403 0.07359 0.06541
 C1014 C 0.70889 0.05382 0.06896
 C1015 C 0.71374 0.10825 0.13397
 C1016 C 0.71600 0.13222 0.12839
 C1017 C 0.71778 0.15132 0.15031
 C1018 C 0.70960 0.17577 0.14405
 C1019 C 0.71229 0.19464 0.16349
 C1020 C 0.72370 0.18954 0.18947
 C1021 C 0.73181 0.16502 0.19584
 C1022 C 0.72880 0.14605 0.17650
 H1023 H 0.68411 0.03670 0.09741
 H1024 H 0.68748 0.06762 0.13463
 H1025 H 0.73764 0.10626 0.08307
 H1026 H 0.73463 0.07523 0.04635
 H1027 H 0.71159 0.10225 0.15543
 H1028 H 0.71554 0.13841 0.10679
 H1029 H 0.70123 0.18031 0.12394
 H1030 H 0.70601 0.21336 0.15785
 H1031 H 0.74077 0.16055 0.21564
 H1032 H 0.73585 0.12749 0.18173
 C1033 C 0.19978 0.56224 0.59488
 C1034 C 0.20086 0.58004 0.61597
 C1035 C 0.21672 0.59932 0.61340
 C1036 C 0.23186 0.60022 0.58955
 C1037 C 0.23102 0.58225 0.56869
 C1038 C 0.21496 0.56315 0.57113
 C1039 C 0.21812 0.61746 0.63641
 C1040 C 0.22325 0.64096 0.63186
 C1041 C 0.22617 0.65904 0.65465
 C1042 C 0.22127 0.68426 0.64900
 C1043 C 0.22540 0.70200 0.66939
 C1044 C 0.23501 0.69487 0.69573
 C1045 C 0.23981 0.66958 0.70147
 C1046 C 0.23537 0.65182 0.68117
 H1047 H 0.18733 0.54758 0.59717
 H1048 H 0.18922 0.57884 0.63429
 H1049 H 0.24485 0.61437 0.58733
 H1050 H 0.24315 0.58305 0.55074
 H1051 H 0.21405 0.61144 0.65745
 H1052 H 0.22479 0.64754 0.61053
 H1053 H 0.21440 0.69028 0.62863
 H1054 H 0.22167 0.72134 0.66426
 H1055 H 0.24730 0.66353 0.72154
 H1056 H 0.23996 0.63256 0.68598
 C1057 C 0.94548 0.70204 0.09850
 C1058 C 0.92720 0.70242 0.11915
 C1059 C 0.90484 0.71652 0.11541
 C1060 C 0.90123 0.73058 0.09078
 C1061 C 0.91962 0.73043 0.07033
 C1062 C 0.94189 0.71616 0.07399
 C1063 C 0.88611 0.71723 0.13799
 C1064 C 0.86189 0.72032 0.13274
 C1065 C 0.84283 0.72210 0.15493
 C1066 C 0.81908 0.71518 0.14854
 C1067 C 0.80011 0.71815 0.16822
 C1068 C 0.80436 0.72855 0.19461
 C1069 C 0.82821 0.73533 0.20115
 C1070 C 0.84730 0.73208 0.18154
 H1071 H 0.96259 0.69101 0.10176
 H1072 H 0.93047 0.69164 0.13805
 H1073 H 0.88453 0.74226 0.08762
 H1074 H 0.91666 0.74180 0.05181
 H1075 H 0.89248 0.71421 0.15930
 H1076 H 0.85555 0.72078 0.11120
 H1077 H 0.81514 0.70764 0.12813
 H1078 H 0.78191 0.71288 0.16244
 H1079 H 0.83202 0.74351 0.22126
 H1080 H 0.86526 0.73819 0.18691
 C1081 C 0.41084 0.24209 0.56936
 C1082 C 0.39118 0.24361 0.58821
 C1083 C 0.39205 0.22936 0.61276
 C1084 C 0.41298 0.21334 0.61806
 C1085 C 0.43255 0.21155 0.59893
 C1086 C 0.43155 0.22583 0.57436
 C1087 C 0.37035 0.23086 0.63151
 C1088 C 0.37176 0.22730 0.65926
 C1089 C 0.34967 0.23004 0.67742
 C1090 C 0.35167 0.24006 0.70435
 C1091 C 0.33078 0.24402 0.72130
 C1092 C 0.30759 0.23751 0.71182
 C1093 C 0.30582 0.22656 0.68528
 C1094 C 0.32662 0.22292 0.66821
 H1095 H 0.40978 0.25338 0.55061
 H1096 H 0.37522 0.25601 0.58364
 H1097 H 0.41397 0.20168 0.63649
 H1098 H 0.44831 0.19877 0.60304
 H1099 H 0.35269 0.23660 0.62222
 H1100 H 0.38960 0.22415 0.66921
 H1101 H 0.36931 0.24545 0.71196
 H1102 H 0.33276 0.25232 0.74176
 H1103 H 0.28825 0.22122 0.67744
 H1104 H 0.32463 0.21449 0.64784
 C1105 C 0.05574 0.26990 0.10063
 C1106 C 0.07408 0.26813 0.12119
 C1107 C 0.09394 0.28341 0.12021
 C1108 C 0.09449 0.30134 0.09891
 C1109 C 0.07607 0.30318 0.07844
 C1110 C 0.05678 0.28722 0.07889
 C1111 C 0.11360 0.27999 0.14166
 C1112 C 0.13702 0.28540 0.13707
 C1113 C 0.15748 0.28037 0.15735
 C1114 C 0.17959 0.29185 0.15307
 C1115 C 0.19986 0.28676 0.17066
 C1116 C 0.19852 0.26995 0.19292
 C1117 C 0.17636 0.25858 0.19738
 C1118 C 0.15611 0.26361 0.17977
 H1119 H 0.04096 0.25747 0.10137
 H1120 H 0.07309 0.25435 0.13751
 H1121 H 0.10896 0.31408 0.09803
 H1122 H 0.07695 0.31692 0.06205
 H1123 H 0.10857 0.27169 0.16125
 H1124 H 0.14181 0.29348 0.11723
 H1125 H 0.18126 0.30469 0.13589
 H1126 H 0.21667 0.29581 0.16660
 H1127 H 0.17479 0.24538 0.21422
 H1128 H 0.13980 0.25373 0.18349
 C1129 C 0.56708 0.76288 0.59466
 C1130 C 0.58582 0.75947 0.61457
 C1131 C 0.60401 0.77658 0.61710
 C1132 C 0.60251 0.79774 0.59986
 C1133 C 0.58377 0.80109 0.57988
 C1134 C 0.56612 0.78354 0.57697
 C1135 C 0.62391 0.77164 0.63805
 C1136 C 0.64570 0.78195 0.63728
 C1137 C 0.66599 0.77574 0.65745
 C1138 C 0.69016 0.78073 0.64998
 C1139 C 0.70990 0.77465 0.66805
 C1140 C 0.70585 0.76343 0.69403
 C1141 C 0.68161 0.75897 0.70181
 C1142 C 0.66188 0.76521 0.68387
 H1143 H 0.55355 0.74919 0.59269
 H1144 H 0.58635 0.74317 0.62774
 H1145 H 0.61558 0.81183 0.60173
 H1146 H 0.58308 0.81727 0.56653
 H1147 H 0.62084 0.75767 0.65360
 H1148 H 0.64963 0.79428 0.62029
 H1149 H 0.69384 0.78907 0.62991
 H1150 H 0.72836 0.77843 0.66151
 H1151 H 0.67783 0.75073 0.72190
 H1152 H 0.64352 0.76195 0.69105
   
