data_POSCAR
  _audit_creation_date              2014-09-24
  _audit_creation_method            'ToBaCCo'
  _symmetry_space_group_name_H-M    'P1'
  _symmetry_Int_Tables_number       1
  _symmetry_cell_setting            triclinic
  loop_
  _symmetry_equiv_pos_as_xyz
 x,y,z
_cell_length_a 41.4891
_cell_length_b 41.1379
_cell_length_c 41.0384
_cell_angle_alpha 91.816500
_cell_angle_beta 91.801800
_cell_angle_gamma 91.981600
loop_
  _atom_site_label
  _atom_site_type_symbol
  _atom_site_fract_x
  _atom_site_fract_y
  _atom_site_fract_z
N1 N 0.20190 1.26930 0.18125
 N2 N 0.17984 1.26865 0.20348
 C3 C 0.15813 1.29135 0.19698
 C4 C 0.16696 1.30721 0.16901
 C5 C 0.19511 1.29247 0.15993
 H6 H 0.13708 1.29531 0.21120
 H7 H 0.20921 1.29733 0.13884
 Cu8 Cu 0.18018 1.23701 0.23773
 Cu9 Cu 0.23628 1.23842 0.18001
 Cu10 Cu 0.23638 1.17966 0.23850
 N11 N 0.18005 1.20274 0.26935
 N12 N 0.20210 1.18061 0.26970
 C13 C 0.19550 1.15931 0.29299
 C14 C 0.16752 1.16832 0.30815
 C15 C 0.15856 1.19620 0.29238
 H16 H 0.20967 1.13834 0.29773
 H17 H 0.13760 1.21038 0.29665
 N18 N 0.26908 1.18264 0.20489
 N19 N 0.26907 1.20506 0.18264
 C20 C 0.29304 1.19952 0.16204
 C21 C 0.30896 1.17218 0.17166
 C22 C 0.29307 1.16223 0.19903
 H23 H 0.29793 1.21385 0.14103
 H24 H 0.29772 1.14089 0.21286
 H25 H 0.21027 1.20157 0.20186
 H26 H 0.23727 1.22864 0.22905
 N27 N 0.81206 0.74671 0.15051
 N28 N 0.83315 0.74610 0.17503
 C29 C 0.85408 0.72252 0.16904
 C30 C 0.84570 0.70740 0.13915
 C31 C 0.81883 0.72351 0.12813
 H32 H 0.87425 0.71715 0.18503
 H33 H 0.80518 0.71883 0.10551
 Cu34 Cu 0.83168 0.77690 0.21185
 Cu35 Cu 0.77780 0.77803 0.14915
 Cu36 Cu 0.77477 0.83258 0.21525
 N37 N 0.83011 0.80768 0.24871
 N38 N 0.80756 0.82926 0.24993
 C39 C 0.81264 0.84852 0.27684
 C40 C 0.84015 0.83874 0.29353
 C41 C 0.85041 0.81252 0.27480
 H42 H 0.79788 0.86879 0.28298
 H43 H 0.87157 0.79852 0.27917
 N44 N 0.74384 0.83212 0.17777
 N45 N 0.74505 0.81157 0.15252
 C46 C 0.72163 0.81839 0.13054
 C47 C 0.70486 0.84457 0.14244
 C48 C 0.71967 0.85250 0.17251
 H49 H 0.71762 0.80570 0.10725
 H50 H 0.71362 0.87197 0.18923
 H51 H 0.80176 0.81382 0.17794
 H52 H 0.77479 0.78451 0.19893
 N53 N 0.80356 1.25108 -0.17411
 N54 N 0.82533 1.25050 -0.19664
 C55 C 0.84526 1.27694 -0.19235
 C56 C 0.83553 1.29512 -0.16559
 C57 C 0.80884 1.27788 -0.15477
 H58 H 0.86598 1.28193 -0.20693
 H59 H 0.79514 1.28347 -0.13348
 Cu60 Cu 0.82740 1.21365 -0.22732
 Cu61 Cu 0.77196 1.21554 -0.16955
 Cu62 Cu 0.77546 1.14939 -0.22379
 N63 N 0.82902 1.17656 -0.25777
 N64 N 0.80883 1.15142 -0.25617
 C65 C 0.81610 1.12878 -0.27893
 C66 C 0.84250 1.14022 -0.29583
 C67 C 0.84986 1.17080 -0.28158
 H68 H 0.80330 1.10557 -0.28239
 H69 H 0.86930 1.18749 -0.28752
 N70 N 0.74346 1.15205 -0.18931
 N71 N 0.74211 1.17729 -0.16881
 C72 C 0.71854 1.17154 -0.14773
 C73 C 0.70426 1.14117 -0.15518
 C74 C 0.72071 1.12959 -0.18179
 H75 H 0.71243 1.18820 -0.12819
 H76 H 0.71691 1.10621 -0.19431
 H77 H 0.79967 1.17923 -0.18899
 H78 H 0.77118 1.19896 -0.21769
 N79 N 0.17948 0.74280 -0.16860
 N80 N 0.15544 0.74370 -0.19012
 C81 C 0.13277 0.72095 -0.18313
 C82 C 0.14314 0.70490 -0.15570
 C83 C 0.17297 0.71950 -0.14726
 H84 H 0.11011 0.71689 -0.19659
 H85 H 0.18879 0.71386 -0.12696
 Cu86 Cu 0.15543 0.77529 -0.22450
 Cu87 Cu 0.21679 0.77273 -0.16881
 Cu88 Cu 0.21697 0.83065 -0.22809
 N89 N 0.15550 0.80915 -0.25664
 N90 N 0.17969 0.83042 -0.25805
 C91 C 0.17326 0.85144 -0.28162
 C92 C 0.14316 0.84315 -0.29593
 C93 C 0.13273 0.81598 -0.27929
 H94 H 0.18922 0.87163 -0.28727
 H95 H 0.11008 0.80241 -0.28292
 N96 N 0.25252 0.82711 -0.19559
 N97 N 0.25242 0.80509 -0.17293
 C98 C 0.27874 0.81029 -0.15315
 C99 C 0.29633 0.83699 -0.16373
 C100 C 0.27891 0.84688 -0.19082
 H101 H 0.28392 0.79650 -0.13177
 H102 H 0.28441 0.86763 -0.20540
 H103 H 0.19243 0.81000 -0.19029
 H104 H 0.21404 0.78179 -0.21798
 C105 C 0.47485 1.02680 0.02875
 C106 C 0.49678 1.00399 0.04732
 C107 C 0.51360 0.98408 0.02736
 C108 C 0.50699 0.98866 -0.00928
 C109 C 0.49724 1.04519 0.00609
 C110 C 0.51405 1.02517 -0.01376
 C111 C 0.45332 1.00444 0.00614
 C112 C 0.47012 0.98452 -0.01371
 H113 H 0.49981 1.00453 0.07373
 H114 H 0.52062 0.97235 -0.02553
 H115 H 0.50049 1.07153 0.00663
 H116 H 0.42711 1.00439 0.00582
 C117 C 0.02480 0.47390 1.02570
 C118 C 0.04363 0.49615 1.00319
 C119 C 0.02425 0.51352 0.98324
 C120 C -0.01209 0.50709 0.98748
 C121 C 0.00249 0.49645 1.04415
 C122 C -0.01676 0.51382 1.02408
 C123 C 0.00239 0.45262 1.00293
 C124 C -0.01687 0.46997 0.98298
 H125 H 0.06978 0.49898 1.00395
 H126 H -0.02786 0.52115 0.97114
 H127 H 0.00283 0.49943 1.07056
 H128 H 0.00179 0.42617 1.00261
 C129 C 1.02594 0.02564 0.47653
 C130 C 1.00336 0.04400 0.49889
 C131 C 0.98379 0.02394 0.51605
 C132 C 0.98845 -0.01257 0.50932
 C133 C 1.04439 0.00315 0.49898
 C134 C 1.02471 -0.01680 0.51613
 C135 C 1.00375 0.00296 0.45494
 C136 C 0.98418 -0.01699 0.47207
 H137 H 1.00361 0.07036 0.50176
 H138 H 0.97243 -0.02890 0.52322
 H139 H 1.07053 0.00374 0.50191
 H140 H 1.00350 0.00271 0.42844
 C141 C 0.14484 0.36758 1.10670
 C142 C 0.11541 0.37798 1.11808
 C143 C 0.10354 0.36573 1.14690
 C144 C 0.12076 0.34279 1.16407
 C145 C 0.15023 0.33149 1.15257
 C146 C 0.16215 0.34463 1.12374
 C147 C 0.09679 0.40016 1.09946
 C148 C 0.08089 0.41809 1.08337
 C149 C 0.06191 0.43828 1.06399
 C150 C 0.04537 0.45479 1.04697
 H151 H 0.15425 0.37691 1.08436
 H152 H 0.08071 0.37359 1.15591
 H153 H 0.11048 0.33378 1.18604
 H154 H 0.18466 0.33716 1.11385
 C155 C -0.09740 0.63872 1.12338
 C156 C -0.10506 0.63013 1.09075
 C157 C -0.12912 0.64648 1.07394
 C158 C -0.14534 0.67146 1.08967
 C159 C -0.13764 0.68047 1.12247
 C160 C -0.11354 0.66365 1.13915
 C161 C -0.08773 0.60488 1.07462
 C162 C -0.07251 0.58383 1.06184
 C163 C -0.05391 0.55931 1.04777
 C164 C -0.03735 0.53850 1.03654
 H165 H -0.07883 0.62621 1.13666
 H166 H -0.13521 0.64006 1.04863
 H167 H -0.16359 0.68387 1.07593
 H168 H -0.10707 0.66955 1.16442
 C169 C -0.10035 0.36082 0.85705
 C170 C -0.11386 0.37633 0.88391
 C171 C -0.14471 0.36660 0.89343
 C172 C -0.16162 0.34087 0.87671
 C173 C -0.14782 0.32433 0.85030
 C174 C -0.11719 0.33509 0.84030
 C175 C -0.09492 0.40014 0.90336
 C176 C -0.07823 0.41870 0.92043
 C177 C -0.05776 0.43866 0.94131
 C178 C -0.03952 0.45397 0.95990
 H179 H -0.07639 0.36801 0.84960
 H180 H -0.15535 0.37834 0.91430
 H181 H -0.18522 0.33365 0.88498
 H182 H -0.10565 0.32313 0.82019
 C183 C 0.12078 0.64461 0.90875
 C184 C 0.09293 0.62922 0.89466
 C185 C 0.08142 0.63844 0.86402
 C186 C 0.09772 0.66300 0.84755
 C187 C 0.12580 0.67868 0.86154
 C188 C 0.13710 0.66912 0.89238
 C189 C 0.07637 0.60405 0.91189
 C190 C 0.06324 0.58308 0.92710
 C191 C 0.04874 0.55870 0.94579
 C192 C 0.03715 0.53802 0.96246
 H193 H 0.12988 0.63771 0.93250
 H194 H 0.05989 0.62664 0.85285
 H195 H 0.08835 0.66948 0.82383
 H196 H 0.15838 0.68066 0.90416
 C197 C 1.10484 0.14639 0.36789
 C198 C 1.11679 0.11768 0.38004
 C199 C 1.14603 0.10629 0.36915
 C200 C 1.16308 0.12323 0.34582
 C201 C 1.15107 0.15196 0.33278
 C202 C 1.12179 0.16345 0.34458
 C203 C 1.09835 0.09914 0.40256
 C204 C 1.08251 0.08313 0.42070
 C205 C 1.06348 0.06384 0.44104
 C206 C 1.04680 0.04688 0.45757
 H207 H 1.08214 0.15539 0.37611
 H208 H 1.15549 0.08401 0.37839
 H209 H 1.18545 0.11333 0.33797
 H210 H 1.11145 0.18535 0.33567
 C211 C 1.12428 -0.09655 0.64067
 C212 C 1.09338 -0.10736 0.62986
 C213 C 1.07905 -0.13490 0.64328
 C214 C 1.09549 -0.15147 0.66762
 C215 C 1.12665 -0.14068 0.67904
 C216 C 1.14079 -0.11297 0.66495
 C217 C 1.07652 -0.08977 0.60521
 C218 C 1.06326 -0.07421 0.58466
 C219 C 1.04875 -0.05508 0.56071
 C220 C 1.03729 -0.03801 0.54035
 H221 H 1.13563 -0.07525 0.63040
 H222 H 1.05510 -0.14351 0.63505
 H223 H 1.08346 -0.17256 0.67740
 H224 H 1.16458 -0.10357 0.67250
 C225 C 0.90090 -0.14203 0.36115
 C226 C 0.88836 -0.11407 0.37538
 C227 C 0.85894 -0.10280 0.36366
 C228 C 0.84253 -0.11885 0.33721
 C229 C 0.85542 -0.14648 0.32177
 C230 C 0.88459 -0.15819 0.33471
 C231 C 0.90701 -0.09536 0.39999
 C232 C 0.92345 -0.07877 0.41921
 C233 C 0.94363 -0.05830 0.43987
 C234 C 0.96168 -0.03993 0.45568
 H235 H 0.92377 -0.15089 0.36995
 H236 H 0.84906 -0.08107 0.37442
 H237 H 0.82014 -0.10893 0.32869
 H238 H 0.89551 -0.17937 0.32417
 C239 C 0.86582 0.07634 0.64325
 C240 C 0.89261 0.09160 0.62964
 C241 C 0.90242 0.12307 0.64032
 C242 C 0.88578 0.13922 0.66468
 C243 C 0.85885 0.12413 0.67899
 C244 C 0.84904 0.09242 0.66766
 C245 C 0.91045 0.07507 0.60498
 C246 C 0.92617 0.06203 0.58445
 C247 C 0.94542 0.04772 0.56053
 C248 C 0.96254 0.03639 0.54021
 H249 H 0.85798 0.05195 0.63513
 H250 H 0.92313 0.13515 0.62991
 H251 H 0.89441 0.16348 0.67214
 H252 H 0.82857 0.07966 0.67761
 C253 C 0.37378 1.11219 0.15216
 C254 C 0.38154 1.12072 0.12056
 C255 C 0.36672 1.14699 0.10623
 C256 C 0.34370 1.16425 0.12312
 C257 C 0.33505 1.15536 0.15462
 C258 C 0.35077 1.12940 0.16912
 C259 C 0.40336 1.10152 0.10214
 C260 C 0.42085 1.08503 0.08616
 C261 C 0.44042 1.06530 0.06687
 C262 C 0.45638 1.04811 0.04993
 H263 H 0.38512 1.09188 0.16349
 H264 H 0.37248 1.15376 0.08173
 H265 H 0.33222 1.18397 0.11103
 H266 H 0.34513 1.12205 0.19342
 C267 C 0.64379 1.12086 -0.09064
 C268 C 0.62881 1.09224 -0.10387
 C269 C 0.63826 1.07964 -0.13403
 C270 C 0.66270 1.09556 -0.15083
 C271 C 0.67802 1.12435 -0.13767
 C272 C 0.66818 1.13681 -0.10735
 C273 C 0.60386 1.07597 -0.08624
 C274 C 0.58310 1.06308 -0.07073
 C275 C 0.55893 1.04888 -0.05173
 C276 C 0.53841 1.03760 -0.03481
 H277 H 0.63670 1.13082 -0.06728
 H278 H 0.62677 1.05752 -0.14454
 H279 H 0.66937 1.08533 -0.17416
 H280 H 0.67943 1.15868 -0.09621
 C281 C 0.36624 0.85661 -0.10341
 C282 C 0.37659 0.88744 -0.11310
 C283 C 0.36206 0.90091 -0.14050
 C284 C 0.33666 0.88410 -0.15761
 C285 C 0.32524 0.85353 -0.14743
 C286 C 0.34083 0.83971 -0.12048
 C287 C 0.40013 0.90641 -0.09342
 C288 C 0.41855 0.92312 -0.07623
 C289 C 0.43846 0.94361 -0.05528
 C290 C 0.45386 0.96186 -0.03671
 H291 H 0.37725 0.84596 -0.08216
 H292 H 0.36977 0.92485 -0.14813
 H293 H 0.32549 0.89563 -0.17817
 H294 H 0.33313 0.81614 -0.11206
 C295 C 0.64252 0.90733 0.12351
 C296 C 0.62813 0.89443 0.09444
 C297 C 0.63845 0.86496 0.08119
 C298 C 0.66322 0.84856 0.09686
 C299 C 0.67804 0.86147 0.12604
 C300 C 0.66724 0.89103 0.13921
 C301 C 0.60306 0.91183 0.07828
 C302 C 0.58227 0.92722 0.06544
 C303 C 0.55815 0.94614 0.05126
 C304 C 0.53775 0.96304 0.03993
 H305 H 0.63474 0.93016 0.13399
 H306 H 0.62743 0.85472 0.05870
 H307 H 0.67062 0.82581 0.08605
 H308 H 0.67800 0.90195 0.16144
   
