data_POSCAR
  _audit_creation_date              2014-09-24
  _audit_creation_method            'ToBaCCo'
  _symmetry_space_group_name_H-M    'P1'
  _symmetry_Int_Tables_number       1
  _symmetry_cell_setting            triclinic
  loop_
  _symmetry_equiv_pos_as_xyz
 x,y,z
_cell_length_a 22.5218
_cell_length_b 24.1611
_cell_length_c 24.9156
_cell_angle_alpha 89.627200
_cell_angle_beta 90.392500
_cell_angle_gamma 122.381400
loop_
  _atom_site_label
  _atom_site_type_symbol
  _atom_site_fract_x
  _atom_site_fract_y
  _atom_site_fract_z
O1 O 0.36658 0.57831 0.29080
 O2 O 0.25080 0.57457 0.30867
 C3 C 0.21832 0.60228 0.32062
 O4 O 0.22767 0.65254 0.29567
 O5 O 0.34658 0.76222 0.31400
 C6 C 0.41214 0.79590 0.32284
 O7 O 0.45559 0.79004 0.29498
 O8 O 0.45144 0.68100 0.31069
 C9 C 0.41882 0.61978 0.31924
 O10 O 0.34639 0.58442 0.18422
 O11 O 0.22746 0.57533 0.20217
 C12 C 0.21770 0.61596 0.17696
 O13 O 0.25071 0.67620 0.18918
 O14 O 0.36651 0.78808 0.20749
 C15 C 0.41883 0.79880 0.17945
 O16 O 0.45150 0.77021 0.18830
 O17 O 0.45546 0.66522 0.20403
 C18 C 0.41196 0.61609 0.17582
 Cr19 Cr 0.29968 0.58166 0.24653
 Cr20 Cr 0.29972 0.71811 0.25152
 Cr21 Cr 0.44977 0.72476 0.24949
 O22 O 0.34961 0.67479 0.24922
 O23 O 0.54783 0.31824 0.68857
 O24 O 0.54385 0.20930 0.70439
 C25 C 0.58730 0.20343 0.67654
 O26 O 0.65285 0.23715 0.68536
 O27 O 0.77171 0.34689 0.70350
 C28 C 0.78111 0.39719 0.67862
 O29 O 0.74869 0.42495 0.69061
 O30 O 0.63275 0.42101 0.70821
 C31 C 0.58045 0.37944 0.67988
 O32 O 0.54381 0.33411 0.79521
 O33 O 0.54801 0.22925 0.81104
 C34 C 0.58076 0.20075 0.81994
 O35 O 0.63313 0.21151 0.79193
 O36 O 0.74903 0.32346 0.81001
 C37 C 0.78143 0.38361 0.82209
 O38 O 0.77177 0.42439 0.79719
 O39 O 0.65280 0.41519 0.81485
 C40 C 0.58724 0.38339 0.82331
 Cr41 Cr 0.54963 0.27460 0.74981
 Cr42 Cr 0.69981 0.28139 0.74777
 Cr43 Cr 0.69964 0.41787 0.75264
 O44 O 0.64983 0.32469 0.75009
 C45 C 0.51166 -0.11604 0.37776
 C46 C 0.53718 -0.06791 0.41754
 C47 C 0.49110 -0.05739 0.44648
 C48 C 0.41864 -0.09623 0.43565
 C49 C 0.39298 -0.14442 0.39598
 C50 C 0.43922 -0.15466 0.36630
 N51 N 0.51916 -0.00687 0.48626
 N52 N 0.48027 0.00609 0.51321
 C53 C 0.50833 0.05662 0.55298
 C54 C 0.46225 0.06715 0.58192
 C55 C 0.48777 0.11530 0.62167
 C56 C 0.56021 0.15394 0.63312
 C57 C 0.60645 0.14369 0.60345
 C58 C 0.58080 0.09547 0.56380
 H59 H 0.54873 -0.12262 0.35576
 H60 H 0.59314 -0.03837 0.42560
 H61 H 0.38189 -0.08916 0.45759
 H62 H 0.33692 -0.17323 0.38826
 H63 H 0.40629 0.03760 0.57386
 H64 H 0.45070 0.12189 0.64366
 H65 H 0.66252 0.17252 0.61117
 H66 H 0.61755 0.08840 0.54187
 C67 C 1.15594 0.51865 0.39331
 C68 C 1.10717 0.49134 0.43496
 C69 C 1.06819 0.51847 0.44927
 C70 C 1.07865 0.57380 0.42139
 C71 C 1.12754 0.60130 0.37963
 C72 C 1.16669 0.57393 0.36502
 N73 N 1.01847 0.48882 0.49209
 N74 N 0.98093 0.51066 0.50712
 C75 C 0.93121 0.48101 0.54993
 C76 C 0.89225 0.50815 0.56427
 C77 C 0.84349 0.48084 0.60593
 C78 C 0.83273 0.42554 0.63420
 C79 C 0.87185 0.39816 0.61956
 C80 C 0.92073 0.42565 0.57780
 H81 H 1.18518 0.49628 0.38328
 H82 H 1.09963 0.44876 0.45617
 H83 H 1.04911 0.59572 0.43179
 H84 H 1.13453 0.64385 0.35876
 H85 H 0.89980 0.55074 0.54308
 H86 H 0.81427 0.50322 0.61598
 H87 H 0.86485 0.35560 0.64042
 H88 H 0.95025 0.40373 0.56738
 C89 C 0.50175 0.64005 0.39518
 C90 C 0.52453 0.61757 0.43745
 C91 C 0.48956 0.55064 0.44918
 C92 C 0.43120 0.50598 0.41794
 C93 C 0.40830 0.52834 0.37558
 C94 C 0.44330 0.59570 0.36371
 N95 N 0.51430 0.52949 0.49297
 N96 N 0.48480 0.46939 0.50601
 C97 C 0.50957 0.44829 0.54980
 C98 C 0.47463 0.38138 0.56161
 C99 C 0.49746 0.35898 0.60392
 C100 C 0.55592 0.40340 0.63535
 C101 C 0.59089 0.47073 0.62340
 C102 C 0.56795 0.49301 0.58101
 H103 H 0.52993 0.69223 0.38726
 H104 H 0.56956 0.65244 0.46125
 H105 H 0.40326 0.45391 0.42626
 H106 H 0.36307 0.49288 0.35226
 H107 H 0.42960 0.34646 0.53784
 H108 H 0.46931 0.30681 0.61190
 H109 H 0.63612 0.50625 0.64668
 H110 H 0.59587 0.54506 0.57264
 C111 C 0.50185 -0.13868 1.10406
 C112 C 0.52471 -0.09343 1.06194
 C113 C 0.48977 -0.06140 1.04994
 C114 C 0.43134 -0.07504 1.08076
 C115 C 0.40836 -0.12030 1.12297
 C116 C 0.44335 -0.15270 1.13511
 N117 N 0.51459 -0.01551 1.00634
 N118 N 0.48512 0.01517 0.99312
 C119 C 0.50993 0.06106 0.94952
 C120 C 0.47497 0.09307 0.93752
 C121 C 0.49781 0.13829 0.89538
 C122 C 0.55630 0.15230 0.86432
 C123 C 0.59131 0.11992 0.87647
 C124 C 0.56836 0.07469 0.91869
 H125 H 0.53003 -0.16272 1.11220
 H126 H 0.56978 -0.08333 1.03846
 H127 H 0.40341 -0.05087 1.07224
 H128 H 0.36309 -0.13000 1.14596
 H129 H 0.42991 0.08297 0.96100
 H130 H 0.46961 0.16232 0.88723
 H131 H 0.63656 0.12961 0.85347
 H132 H 0.59629 0.05053 0.92723
 C133 C 1.15817 0.63849 1.10782
 C134 C 1.10898 0.61658 1.06615
 C135 C 1.07050 0.55060 1.05164
 C136 C 1.08190 0.50619 1.07927
 C137 C 1.13118 0.52782 1.12107
 C138 C 1.17022 0.59450 1.13629
 N139 N 1.02028 0.53018 1.00885
 N140 N 0.98290 0.47079 0.99371
 C141 C 0.93271 0.45048 0.95090
 C142 C 0.89384 0.38438 0.93646
 C143 C 0.84466 0.36272 0.89478
 C144 C 0.83338 0.40704 0.86660
 C145 C 0.87239 0.47353 0.88135
 C146 C 0.92168 0.49511 0.92314
 H147 H 1.18657 0.69020 1.11755
 H148 H 1.10068 0.65126 1.04508
 H149 H 1.05273 0.45479 1.06866
 H150 H 1.13831 0.49198 1.14138
 H151 H 0.90182 0.34953 0.95758
 H152 H 0.81555 0.31116 0.88464
 H153 H 0.86500 0.50892 0.86057
 H154 H 0.95111 0.54655 0.93363
 C155 C 0.51145 0.62736 1.12149
 C156 C 0.53697 0.60471 1.08188
 C157 C 0.49087 0.54818 1.05265
 C158 C 0.41841 0.51470 1.06302
 C159 C 0.39275 0.53729 1.10252
 C160 C 0.43901 0.59369 1.13250
 N161 N 0.51895 0.52565 1.01307
 N162 N 0.48008 0.47383 0.98592
 C163 C 0.50818 0.45131 0.94635
 C164 C 0.46213 0.39474 0.91716
 C165 C 0.48769 0.37209 0.87758
 C166 C 0.56013 0.40581 0.86657
 C167 C 0.60634 0.46226 0.89650
 C168 C 0.58064 0.48485 0.93597
 H169 H 0.54853 0.67095 1.14372
 H170 H 0.59292 0.63101 1.07417
 H171 H 0.38165 0.47094 1.04086
 H172 H 0.33669 0.51016 1.10990
 H173 H 0.40617 0.36839 0.92487
 H174 H 0.45064 0.32845 0.85538
 H175 H 0.66240 0.48944 0.88912
 H176 H 0.61737 0.52865 0.95810
   
