data_POSCAR
  _audit_creation_date              2014-09-24
  _audit_creation_method            'ToBaCCo'
  _symmetry_space_group_name_H-M    'P1'
  _symmetry_Int_Tables_number       1
  _symmetry_cell_setting            triclinic
  loop_
  _symmetry_equiv_pos_as_xyz
 x,y,z
_cell_length_a 38.0656
_cell_length_b 38.0727
_cell_length_c 38.1335
_cell_angle_alpha 90.048100
_cell_angle_beta 89.942600
_cell_angle_gamma 90.054700
loop_
  _atom_site_label
  _atom_site_type_symbol
  _atom_site_fract_x
  _atom_site_fract_y
  _atom_site_fract_z
C1 C 0.32310 0.36591 1.37053
 C2 C 0.33992 0.33591 1.38360
 C3 C 0.36992 0.32274 1.36677
 C4 C 0.38311 0.33965 1.33688
 C5 C 0.36632 0.36963 1.32380
 C6 C 0.33636 0.38277 1.34063
 H7 H 0.32946 0.32264 1.40655
 H8 H 0.40611 0.32933 1.32357
 H9 H 0.32322 0.40578 1.33021
 C10 C 1.17798 0.63336 0.87057
 C11 C 1.16104 0.66330 0.88369
 C12 C 1.13109 0.67640 0.86685
 C13 C 1.11802 0.65951 0.83693
 C14 C 1.13490 0.62958 0.82377
 C15 C 1.16485 0.61649 0.84060
 H16 H 1.17131 0.67664 0.90666
 H17 H 1.09505 0.66987 0.82370
 H18 H 1.17807 0.59351 0.83014
 C19 C 0.67745 -0.13400 0.12953
 C20 C 0.66064 -0.16403 0.11638
 C21 C 0.63061 -0.17725 0.13315
 C22 C 0.61737 -0.16035 0.16304
 C23 C 0.63415 -0.13034 0.17620
 C24 C 0.66414 -0.11716 0.15944
 H25 H 0.67112 -0.17728 0.09343
 H26 H 0.59435 -0.17070 0.17629
 H27 H 0.67726 -0.09411 0.16991
 C28 C -0.17656 1.13427 -0.37011
 C29 C -0.15963 1.16419 -0.38325
 C30 C -0.12963 1.17737 -0.36645
 C31 C -0.11657 1.16051 -0.33651
 C32 C -0.13350 1.13059 -0.32336
 C33 C -0.16346 1.11747 -0.34019
 H34 H -0.17005 1.17735 -0.40623
 H35 H -0.09357 1.17082 -0.32321
 H36 H -0.17678 1.09452 -0.32980
 C37 C 0.67783 0.63441 0.63117
 C38 C 0.66416 0.61814 0.66117
 C39 C 0.63415 0.63180 0.67751
 C40 C 0.61777 0.66171 0.66378
 C41 C 0.63141 0.67800 0.63378
 C42 C 0.66142 0.66432 0.61746
 H43 H 0.67705 0.59519 0.67199
 H44 H 0.59474 0.67250 0.67662
 H45 H 0.67220 0.67712 0.59444
 C46 C 0.82258 0.36525 0.13140
 C47 C 0.83885 0.33523 0.11770
 C48 C 0.86880 0.32142 0.13402
 C49 C 0.88248 0.33776 0.16401
 C50 C 0.86620 0.36779 0.17770
 C51 C 0.83628 0.38154 0.16137
 H52 H 0.82797 0.32248 0.09468
 H53 H 0.90545 0.32697 0.17691
 H54 H 0.82348 0.40458 0.17218
 C55 C 0.32074 0.13424 0.86853
 C56 C 0.33439 0.11794 0.83847
 C57 C 0.36439 0.13161 0.82212
 C58 C 0.38081 0.16156 0.83584
 C59 C 0.36723 0.17788 0.86585
 C60 C 0.33722 0.16420 0.88221
 H61 H 0.32153 0.09493 0.82759
 H62 H 0.40385 0.17235 0.82298
 H63 H 0.32655 0.17710 0.90527
 C64 C 0.17829 0.86632 0.36850
 C65 C 0.16451 0.88266 0.33859
 C66 C 0.13452 0.86891 0.32230
 C67 C 0.11826 0.83885 0.33594
 C68 C 0.13199 0.82249 0.36581
 C69 C 0.16198 0.83624 0.38211
 H70 H 0.17724 0.90575 0.32777
 H71 H 0.09525 0.82800 0.32312
 H72 H 0.17275 0.82331 0.40505
 Zn73 Zn 0.04212 0.97893 0.00630
 Zn74 Zn -0.02843 0.97195 -0.02797
 Zn75 Zn -0.02176 1.00637 0.04248
 Zn76 Zn 0.00582 1.04260 -0.02121
 O77 O -0.00061 0.99992 -0.00014
 O78 O 0.04527 0.93762 -0.01570
 O79 O -0.06829 0.95863 -0.00641
 O80 O 0.00400 0.99029 0.07833
 O81 O -0.00678 0.93213 -0.04119
 O82 O 0.05145 0.96996 0.05143
 O83 O -0.06303 0.98420 0.04558
 O84 O -0.01040 1.07850 0.00452
 O85 O -0.04167 0.99347 -0.06777
 O86 O -0.03088 1.05156 0.05181
 O87 O -0.01623 1.04562 -0.06242
 O88 O 0.05103 1.05203 -0.03031
 O89 O 0.07801 1.00474 -0.00990
 C90 C 0.02376 0.92063 -0.03455
 C91 C -0.07990 0.96525 0.02407
 C92 C 0.03381 0.97552 0.07908
 C93 C -0.02530 1.07925 0.03425
 C94 C -0.03507 1.02401 -0.07931
 C95 C 0.07874 1.03448 -0.02476
 Zn96 Zn 0.49324 -0.04192 0.47802
 Zn97 Zn 0.52071 -0.00566 0.54175
 Zn98 Zn 0.52761 0.02867 0.47131
 Zn99 Zn 0.45698 0.02186 0.50557
 O100 O 0.49968 0.00078 0.49912
 O101 O 0.50937 -0.07781 0.50373
 O102 O 0.56200 0.01644 0.54487
 O103 O 0.54092 0.00708 0.43151
 O104 O 0.52977 -0.05085 0.55105
 O105 O 0.51537 -0.04502 0.43681
 O106 O 0.56744 0.04194 0.49289
 O107 O 0.45394 0.06315 0.48357
 O108 O 0.49488 0.01048 0.57760
 O109 O 0.50606 0.06851 0.45810
 O110 O 0.44755 0.03090 0.55070
 O111 O 0.42109 -0.00393 0.48936
 O112 O 0.44804 -0.05130 0.46894
 C113 C 0.52421 -0.07855 0.53345
 C114 C 0.57896 0.03533 0.52338
 C115 C 0.53430 -0.02346 0.41995
 C116 C 0.47552 0.08007 0.46472
 C117 C 0.46510 0.02531 0.57835
 C118 C 0.42034 -0.03370 0.47451
 Zn119 Zn 0.95842 0.47789 0.49408
 Zn120 Zn 1.02897 0.47109 0.52832
 Zn121 Zn 1.02228 0.50541 0.45789
 Zn122 Zn 0.99474 0.54167 0.52162
 O123 O 1.00114 0.49897 0.50052
 O124 O 0.95524 0.43663 0.51613
 O125 O 1.06882 0.45780 0.50674
 O126 O 0.99651 0.48922 0.42205
 O127 O 1.00731 0.43127 0.54156
 O128 O 0.94909 0.46879 0.44895
 O129 O 1.06355 0.48334 0.45477
 O130 O 1.01096 0.57756 0.49590
 O131 O 1.04225 0.49268 0.56811
 O132 O 1.03137 0.55061 0.44856
 O133 O 1.01680 0.54477 0.56284
 O134 O 0.94953 0.55105 0.53068
 O135 O 0.92253 0.50370 0.51022
 C136 C 0.97676 0.41972 0.53498
 C137 C 1.08042 0.46443 0.47626
 C138 C 0.96672 0.47436 0.42130
 C139 C 1.02581 0.57830 0.46615
 C140 C 1.03567 0.52322 0.57969
 C141 C 0.92181 0.53348 0.52507
 Zn142 Zn 0.47856 0.49433 0.95806
 Zn143 Zn 0.54246 0.52185 0.99410
 Zn144 Zn 0.47193 0.52874 1.02853
 Zn145 Zn 0.50612 0.45812 1.02167
 O146 O 0.49973 0.50080 1.00063
 O147 O 0.50432 0.51046 0.92216
 O148 O 0.54568 0.56314 1.01613
 O149 O 0.43206 0.54202 1.00706
 O150 O 0.55178 0.53087 0.94895
 O151 O 0.43732 0.51644 0.95506
 O152 O 0.49363 0.56858 1.04172
 O153 O 0.48409 0.45508 1.06293
 O154 O 0.57834 0.49605 1.01016
 O155 O 0.45868 0.50719 1.06835
 O156 O 0.55132 0.44872 1.03062
 O157 O 0.48983 0.42221 0.99598
 O158 O 0.46939 0.44914 0.94873
 C159 C 0.53412 0.52529 0.92134
 C160 C 0.52418 0.58010 1.03504
 C161 C 0.42045 0.53537 0.97660
 C162 C 0.46527 0.47665 1.07987
 C163 C 0.57905 0.46628 1.02499
 C164 C 0.47493 0.42145 0.96628
 C165 C 1.20321 0.40658 0.46276
 C166 C 1.20630 0.37865 0.43330
 C167 C 1.23390 0.40173 0.41498
 C168 C 1.23137 0.42943 0.44419
 C169 C 1.17457 0.42527 0.44143
 C170 C 1.20219 0.44832 0.42311
 C171 C 1.17715 0.39756 0.41223
 C172 C 1.20523 0.42042 0.39372
 C173 C 1.26665 0.38873 0.39952
 C174 C 1.29329 0.37805 0.38616
 C175 C 1.14124 0.43871 0.45520
 C176 C 1.11358 0.45020 0.46544
 H177 H 1.20199 0.40103 0.49131
 H178 H 1.20837 0.34985 0.43730
 H179 H 1.25404 0.44240 0.45715
 H180 H 1.20015 0.47711 0.41908
 H181 H 1.15450 0.38459 0.39924
 H182 H 1.20640 0.42599 0.36517
 C183 C 0.31516 0.56969 0.90335
 C184 C 0.27800 0.55895 0.91591
 C185 C 0.26708 0.59777 0.91517
 C186 C 0.30379 0.60869 0.90240
 C187 C 0.32635 0.57441 0.94178
 C188 C 0.31545 0.61324 0.94105
 C189 C 0.28965 0.56346 0.95458
 C190 C 0.27820 0.60253 0.95362
 C191 C 0.23437 0.61067 0.89963
 C192 C 0.20776 0.62128 0.88623
 C193 C 0.35965 0.56104 0.95559
 C194 C 0.38730 0.54959 0.96584
 H195 H 0.33072 0.55605 0.88281
 H196 H 0.26225 0.53676 0.90539
 H197 H 0.30925 0.62742 0.88077
 H198 H 0.33121 0.63542 0.95156
 H199 H 0.28422 0.54472 0.97621
 H200 H 0.26260 0.61618 0.97410
 C201 C -0.17684 0.90347 0.09225
 C202 C -0.20787 0.92663 0.10461
 C203 C -0.23334 0.90208 0.08521
 C204 C -0.20278 0.87870 0.07305
 C205 C -0.17403 0.92582 0.05883
 C206 C -0.19946 0.90127 0.03938
 C207 C -0.20460 0.94919 0.07100
 C208 C -0.23059 0.92443 0.05179
 C209 C -0.26608 0.88897 0.10063
 C210 C -0.29273 0.87822 0.11395
 C211 C -0.14071 0.93938 0.04510
 C212 C -0.11306 0.95094 0.03488
 H213 H -0.15438 0.89498 0.10874
 H214 H -0.21167 0.93693 0.13159
 H215 H -0.20239 0.84957 0.07407
 H216 H -0.19562 0.89099 0.01240
 H217 H -0.20500 0.97832 0.07000
 H218 H -0.25307 0.93291 0.03534
 C219 C 0.69877 0.09880 0.53877
 C220 C 0.70211 0.12139 0.57245
 C221 C 0.73252 0.09786 0.58462
 C222 C 0.72973 0.07549 0.55119
 C223 C 0.67315 0.07441 0.55819
 C224 C 0.70356 0.05090 0.57037
 C225 C 0.67599 0.09679 0.59162
 C226 C 0.70686 0.07347 0.60400
 C227 C 0.76528 0.11081 0.60007
 C228 C 0.79195 0.12146 0.61339
 C229 C 0.63981 0.06101 0.54443
 C230 C 0.61213 0.04955 0.53420
 H231 H 0.69505 0.10907 0.51179
 H232 H 0.70189 0.15053 0.57349
 H233 H 0.75221 0.06687 0.53475
 H234 H 0.70380 0.02176 0.56935
 H235 H 0.65354 0.10542 0.60809
 H236 H 0.71053 0.06319 0.63097
 C237 C 0.41062 0.19439 0.44345
 C238 C 0.43148 0.22898 0.43852
 C239 C 0.41434 0.23354 0.40236
 C240 C 0.39327 0.19943 0.40711
 C241 C 0.44077 0.17421 0.42575
 C242 C 0.42361 0.17879 0.38960
 C243 C 0.46188 0.20830 0.42102
 C244 C 0.44448 0.21340 0.38462
 C245 C 0.39888 0.26628 0.38944
 C246 C 0.38553 0.29293 0.37883
 C247 C 0.45451 0.14089 0.43913
 C248 C 0.46473 0.11323 0.45055
 H249 H 0.39684 0.18623 0.46778
 H250 H 0.43453 0.24999 0.45850
 H251 H 0.36489 0.19613 0.40127
 H252 H 0.42054 0.15779 0.36961
 H253 H 0.49026 0.21155 0.42688
 H254 H 0.45823 0.22161 0.36028
 C255 C 0.91947 0.30018 0.55216
 C256 C 0.94109 0.26911 0.56698
 C257 C 0.91511 0.26642 0.59772
 C258 C 0.89329 0.29698 0.58308
 C259 C 0.94172 0.32567 0.57415
 C260 C 0.91573 0.32294 0.60489
 C261 C 0.96360 0.29514 0.58878
 C262 C 0.93736 0.29188 0.61975
 C263 C 0.89955 0.23372 0.61073
 C264 C 0.88610 0.20713 0.62142
 C265 C 0.95557 0.35895 0.56069
 C266 C 0.96587 0.38658 0.54920
 H267 H 0.91226 0.30394 0.52421
 H268 H 0.95133 0.24661 0.55154
 H269 H 0.86422 0.29740 0.58086
 H270 H 0.90547 0.34542 0.62034
 H271 H 0.99268 0.29477 0.59098
 H272 H 0.94454 0.28809 0.64770
 C273 C 0.05592 0.81361 -0.11155
 C274 C 0.09539 0.80375 -0.11075
 C275 C 0.08549 0.76720 -0.09683
 C276 C 0.04624 0.77651 -0.09783
 C277 C 0.05883 0.82649 -0.07347
 C278 C 0.04891 0.78995 -0.05952
 C279 C 0.09807 0.81712 -0.07251
 C280 C 0.08839 0.78010 -0.05877
 C281 C 0.10106 0.73447 -0.10974
 C282 C 0.11448 0.70785 -0.12036
 C283 C 0.04496 0.85980 -0.06012
 C284 C 0.03464 0.88747 -0.04871
 H285 H 0.04240 0.82775 -0.13310
 H286 H 0.11468 0.80908 -0.13195
 H287 H 0.02510 0.75941 -0.10839
 H288 H 0.02962 0.78465 -0.03832
 H289 H 0.11925 0.83417 -0.06196
 H290 H 0.10192 0.76598 -0.03721
 C291 C 0.55552 0.70989 1.05555
 C292 C 0.54664 0.72703 1.09137
 C293 C 0.58602 0.73354 1.09742
 C294 C 0.59510 0.71693 1.06183
 C295 C 0.55934 0.67424 1.07401
 C296 C 0.59870 0.68082 1.08009
 C297 C 0.55023 0.69082 1.10961
 C298 C 0.58983 0.69789 1.11587
 C299 C 0.60158 0.76628 1.11036
 C300 C 0.61498 0.79293 1.12101
 C301 C 0.54545 0.64092 1.06064
 C302 C 0.53511 0.61327 1.04921
 H303 H 0.54123 0.71446 1.03060
 H304 H 0.52542 0.74643 1.09615
 H305 H 0.61372 0.72800 1.04233
 H306 H 0.61997 0.66146 1.07532
 H307 H 0.53161 0.67972 1.12910
 H308 H 0.60412 0.69331 1.14081
 C309 C 0.42635 0.46124 1.20921
 C310 C 0.38820 0.44848 1.21580
 C311 C 0.40282 0.41514 1.23314
 C312 C 0.44073 0.42765 1.22710
 C313 C 0.42625 0.44175 1.17392
 C314 C 0.44082 0.40841 1.19130
 C315 C 0.38834 0.42923 1.17996
 C316 C 0.40275 0.39570 1.19782
 C317 C 0.38987 0.39960 1.26582
 C318 C 0.37919 0.38620 1.29240
 C319 C 0.43963 0.45558 1.14064
 C320 C 0.45107 0.46585 1.11301
 H321 H 0.43619 0.48836 1.21351
 H322 H 0.36641 0.46477 1.22627
 H323 H 0.46213 0.42681 1.24683
 H324 H 0.46261 0.39208 1.18087
 H325 H 0.36694 0.43006 1.16023
 H326 H 0.39292 0.36858 1.19348
 C327 C 0.60316 -0.08577 0.32339
 C328 C 0.58085 -0.10659 0.29654
 C329 C 0.59735 -0.08490 0.26682
 C330 C 0.61987 -0.06428 0.29318
 C331 C 0.57366 -0.05837 0.32600
 C332 C 0.59015 -0.03663 0.29631
 C333 C 0.55116 -0.07900 0.29962
 C334 C 0.56785 -0.05751 0.26939
 C335 C 0.61044 -0.10041 0.23416
 C336 C 0.62120 -0.11378 0.20759
 C337 C 0.56013 -0.04457 0.35924
 C338 C 0.54860 -0.03430 0.38685
 H339 H 0.61755 -0.09723 0.34594
 H340 H 0.57715 -0.13551 0.29630
 H341 H 0.64829 -0.05841 0.29016
 H342 H 0.59382 -0.00770 0.29660
 H343 H 0.52275 -0.08490 0.30262
 H344 H 0.55346 -0.04608 0.24682
 C345 C -0.05675 1.05280 -0.20930
 C346 C -0.09357 1.04576 -0.22520
 C347 C -0.09732 1.08524 -0.23260
 C348 C -0.06073 1.09249 -0.21723
 C349 C -0.07400 1.05876 -0.17335
 C350 C -0.07778 1.09823 -0.18081
 C351 C -0.11060 1.05149 -0.18868
 C352 C -0.11455 1.09119 -0.19664
 C353 C -0.11019 1.10071 -0.26531
 C354 C -0.12077 1.11406 -0.29192
 C355 C -0.06066 1.04500 -0.14006
 C356 C -0.04925 1.03478 -0.11243
 H357 H -0.03284 1.03683 -0.21414
 H358 H -0.10020 1.02436 -0.24385
 H359 H -0.04037 1.10952 -0.22932
 H360 H -0.07116 1.11968 -0.16221
 H361 H -0.13095 1.03446 -0.17657
 H362 H -0.13845 1.10717 -0.19178
 C363 C 1.05159 0.57459 0.70216
 C364 C 1.07211 0.55380 0.73040
 C365 C 1.09845 0.58429 0.73298
 C366 C 1.07813 0.60527 0.70524
 C367 C 1.07487 0.55795 0.67371
 C368 C 1.10121 0.58844 0.67633
 C369 C 1.09520 0.53692 0.70141
 C370 C 1.12176 0.56766 0.70455
 C371 C 1.11146 0.59971 0.76570
 C372 C 1.12212 0.61303 0.79233
 C373 C 1.06140 0.54424 0.64042
 C374 C 1.04991 0.53402 0.61280
 H375 H 1.02259 0.57727 0.70082
 H376 H 1.06029 0.53974 0.75302
 H377 H 1.07124 0.63353 0.70715
 H378 H 1.11305 0.60253 0.65374
 H379 H 1.10207 0.50865 0.69945
 H380 H 1.15076 0.56500 0.70591
 C381 C 0.81098 0.55926 0.59514
 C382 C 0.80426 0.59785 0.60603
 C383 C 0.76870 0.59650 0.58705
 C384 C 0.77493 0.55809 0.57637
 C385 C 0.82794 0.57235 0.56098
 C386 C 0.79241 0.57097 0.54197
 C387 C 0.82171 0.61076 0.57167
 C388 C 0.78563 0.60962 0.55289
 C389 C 0.73598 0.60993 0.60217
 C390 C 0.70932 0.62103 0.61513
 C391 C 0.86119 0.55875 0.54719
 C392 C 0.88876 0.54735 0.53664
 H393 H 0.82176 0.53840 0.61236
 H394 H 0.80878 0.60904 0.63254
 H395 H 0.75533 0.53658 0.57848
 H396 H 0.78792 0.55977 0.51546
 H397 H 0.84131 0.63227 0.56958
 H398 H 0.77482 0.63048 0.53570
 C399 C 0.67523 0.40265 1.09264
 C400 C 0.70239 0.38016 1.07237
 C401 C 0.73193 0.40333 1.08719
 C402 C 0.70525 0.42561 1.10767
 C403 C 0.67281 0.42747 1.06099
 C404 C 0.70236 0.45063 1.07581
 C405 C 0.69947 0.40519 1.04046
 C406 C 0.72956 0.42814 1.05553
 C407 C 0.76458 0.38988 1.10237
 C408 C 0.79116 0.37873 1.11536
 C409 C 0.63962 0.44105 1.04713
 C410 C 0.61208 0.45243 1.03656
 H411 H 0.65253 0.39230 1.10775
 H412 H 0.70277 0.35103 1.07113
 H413 H 0.70798 0.43386 1.13546
 H414 H 0.70199 0.47976 1.07706
 H415 H 0.69671 0.39695 1.01267
 H416 H 0.75229 0.43848 1.04045
 C417 C 0.20917 1.06479 -0.04663
 C418 C 0.22229 1.05802 -0.08453
 C419 C 0.23167 1.09714 -0.08777
 C420 C 0.21909 1.10414 -0.05011
 C421 C 0.17252 1.07317 -0.06124
 C422 C 0.18190 1.11229 -0.06448
 C423 C 0.18515 1.06620 -0.09889
 C424 C 0.19501 1.10550 -0.10235
 C425 C 0.26433 1.11050 -0.10311
 C426 C 0.29094 1.12157 -0.11623
 C427 C 0.13933 1.05966 -0.04721
 C428 C 0.11178 1.04832 -0.03649
 H429 H 0.21461 1.04790 -0.02355
 H430 H 0.23925 1.03586 -0.09295
 H431 H 0.23343 1.11990 -0.03023
 H432 H 0.16493 1.13445 -0.05607
 H433 H 0.17083 1.05045 -0.11881
 H434 H 0.18954 1.12237 -0.12543
 C435 C 0.29472 -0.04943 0.42896
 C436 C 0.29123 -0.06944 0.39376
 C437 C 0.26737 -0.09644 0.41193
 C438 C 0.27034 -0.07664 0.44693
 C439 C 0.32654 -0.07240 0.43826
 C440 C 0.30271 -0.09941 0.45647
 C441 C 0.32352 -0.09220 0.40326
 C442 C 0.29918 -0.11941 0.42123
 C443 C 0.23469 -0.10984 0.39670
 C444 C 0.20808 -0.12096 0.38366
 C445 C 0.35975 -0.05887 0.45219
 C446 C 0.38730 -0.04752 0.46284
 H447 H 0.29325 -0.02050 0.43231
 H448 H 0.28615 -0.05726 0.36782
 H449 H 0.24809 -0.07039 0.46470
 H450 H 0.30781 -0.11157 0.48241
 H451 H 0.34574 -0.09847 0.38546
 H452 H 0.30065 -0.14834 0.41787
 C453 C 0.54902 -0.19010 0.60628
 C454 C 0.54800 -0.22588 0.58685
 C455 C 0.58692 -0.23139 0.59594
 C456 C 0.58817 -0.19616 0.61557
 C457 C 0.56051 -0.17230 0.57199
 C458 C 0.59942 -0.17786 0.58109
 C459 C 0.55925 -0.20752 0.55234
 C460 C 0.59839 -0.21356 0.56166
 C461 C 0.60221 -0.26403 0.60929
 C462 C 0.61529 -0.29060 0.62037
 C463 C 0.54654 -0.13912 0.55851
 C464 C 0.53587 -0.11158 0.54721
 H465 H 0.52856 -0.18008 0.62447
 H466 H 0.52705 -0.24602 0.58937
 H467 H 0.60024 -0.19184 0.64171
 H468 H 0.62041 -0.15776 0.57859
 H469 H 0.54719 -0.21182 0.52620
 H470 H 0.61885 -0.22356 0.54346
 C471 C 1.10088 0.68232 0.42901
 C472 C 1.09869 0.69487 0.39047
 C473 C 1.08793 0.73150 0.40351
 C474 C 1.09033 0.71943 0.44186
 C475 C 1.06183 0.67221 0.42750
 C476 C 1.05104 0.70883 0.44057
 C477 C 1.05941 0.68426 0.38914
 C478 C 1.04886 0.72144 0.40198
 C479 C 1.10304 0.76426 0.39017
 C480 C 1.11599 0.79095 0.37913
 C481 C 1.04801 0.63894 0.44101
 C482 C 1.03743 0.61136 0.45235
 H483 H 1.12213 0.66588 0.44026
 H484 H 1.11846 0.68948 0.36973
 H485 H 1.10322 0.73425 0.46339
 H486 H 1.03128 0.71419 0.46131
 H487 H 1.04654 0.66944 0.36761
 H488 H 1.02765 0.73791 0.39071
 C489 C -0.08357 1.17630 0.10651
 C490 C -0.06179 1.20904 0.11704
 C491 C -0.08783 1.23227 0.09687
 C492 C -0.10982 1.20003 0.08656
 C493 C -0.06154 1.17307 0.07288
 C494 C -0.08759 1.19633 0.05274
 C495 C -0.03951 1.20530 0.08318
 C496 C -0.06581 1.22907 0.06324
 C497 C -0.10304 1.26497 0.11025
 C498 C -0.11606 1.29160 0.12133
 C499 C -0.04763 1.13985 0.05937
 C500 C -0.03697 1.11229 0.04804
 H501 H -0.09071 1.15425 0.12416
 H502 H -0.05136 1.21466 0.14363
 H503 H -0.13889 1.19822 0.08808
 H504 H -0.09804 1.19073 0.02614
 H505 H -0.01044 1.20707 0.08165
 H506 H -0.05869 1.25114 0.04560
 C507 C 0.46037 0.29574 0.91647
 C508 C 0.43468 0.27154 0.93680
 C509 C 0.41189 0.26855 0.90371
 C510 C 0.43732 0.29220 0.88315
 C511 C 0.43841 0.32767 0.92769
 C512 C 0.41561 0.32465 0.89461
 C513 C 0.41298 0.30400 0.94823
 C514 C 0.38998 0.30050 0.91495
 C515 C 0.39654 0.23589 0.89034
 C516 C 0.38341 0.20930 0.87926
 C517 C 0.45245 0.36086 0.94120
 C518 C 0.46318 0.38841 0.95251
 H519 H 0.48947 0.29417 0.91724
 H520 H 0.44234 0.24933 0.95400
 H521 H 0.44715 0.28697 0.85623
 H522 H 0.40793 0.34685 0.87739
 H523 H 0.40313 0.30921 0.97514
 H524 H 0.36087 0.30211 0.91419
 C525 C 0.60999 0.55562 0.81339
 C526 C 0.59438 0.54821 0.77658
 C527 C 0.59649 0.58765 0.76834
 C528 C 0.61231 0.59527 0.80460
 C529 C 0.57264 0.56141 0.82754
 C530 C 0.57478 0.60084 0.81924
 C531 C 0.55680 0.55377 0.79128
 C532 C 0.55915 0.59343 0.78250
 C533 C 0.60979 0.60282 0.73563
 C534 C 0.62081 0.61581 0.70899
 C535 C 0.55920 0.54753 0.86076
 C536 C 0.54790 0.53692 0.88831
 H537 H 0.63074 0.53991 0.82647
 H538 H 0.60259 0.52674 0.75865
 H539 H 0.63528 0.61252 0.80973
 H540 H 0.56658 0.62234 0.83714
 H541 H 0.53383 0.53652 0.78618
 H542 H 0.53839 0.60914 0.76944
 C543 C 0.42336 0.10076 0.68019
 C544 C 0.38603 0.09447 0.69506
 C545 C 0.40219 0.08747 0.73129
 C546 C 0.43933 0.09398 0.71689
 C547 C 0.42626 0.06133 0.67211
 C548 C 0.44244 0.05431 0.70833
 C549 C 0.38911 0.05481 0.68649
 C550 C 0.40507 0.04803 0.72326
 C551 C 0.38880 0.10262 0.76399
 C552 C 0.37773 0.11559 0.79063
 C553 C 0.43984 0.04749 0.63890
 C554 C 0.45123 0.03691 0.61136
 H555 H 0.43103 0.12230 0.66213
 H556 H 0.36269 0.11116 0.68997
 H557 H 0.45983 0.11025 0.72974
 H558 H 0.46579 0.03763 0.71340
 H559 H 0.36862 0.03854 0.67362
 H560 H 0.39739 0.02652 0.74136
 C561 C 0.05043 0.91797 0.19879
 C562 C 0.08092 0.89125 0.20177
 C563 C 0.09655 0.91320 0.23178
 C564 C 0.06625 0.93971 0.22930
 C565 C 0.07250 0.93946 0.17273
 C566 C 0.08812 0.96145 0.20271
 C567 C 0.10279 0.91294 0.17524
 C568 C 0.11863 0.93469 0.20573
 C569 C 0.10995 0.89799 0.26438
 C570 C 0.12107 0.88497 0.29093
 C571 C 0.05896 0.95334 0.13958
 C572 C 0.04762 0.96393 0.11207
 H573 H 0.02223 0.91125 0.19557
 H574 H 0.07809 0.86223 0.20174
 H575 H 0.05138 0.95054 0.25190
 H576 H 0.09093 0.99047 0.20270
 H577 H 0.11767 0.90209 0.15266
 H578 H 0.14683 0.94138 0.20897
 C579 C 0.94496 0.40746 0.30768
 C580 C 0.90808 0.39106 0.30262
 C581 C 0.90404 0.41199 0.26844
 C582 C 0.94073 0.42818 0.27300
 C583 C 0.92804 0.43821 0.32759
 C584 C 0.92402 0.45918 0.29343
 C585 C 0.89135 0.42201 0.32301
 C586 C 0.88709 0.44275 0.28832
 C587 C 0.89066 0.39681 0.23577
 C588 C 0.87958 0.38382 0.20916
 C589 C 0.94157 0.45209 0.36077
 C590 C 0.95291 0.46271 0.38830
 H591 H 0.96891 0.39309 0.31600
 H592 H 0.90139 0.36288 0.30605
 H593 H 0.96089 0.43054 0.25208
 H594 H 0.93072 0.48736 0.29003
 H595 H 0.87119 0.41964 0.34393
 H596 H 0.86314 0.45708 0.27997
   
