data_POSCAR
  _audit_creation_date              2014-09-24
  _audit_creation_method            'ToBaCCo'
  _symmetry_space_group_name_H-M    'P1'
  _symmetry_Int_Tables_number       1
  _symmetry_cell_setting            triclinic
  loop_
  _symmetry_equiv_pos_as_xyz
 x,y,z
_cell_length_a 12.8744
_cell_length_b 12.8744
_cell_length_c 34.3892
_cell_angle_alpha 89.670500
_cell_angle_beta 90.329400
_cell_angle_gamma 121.076400
loop_
  _atom_site_label
  _atom_site_type_symbol
  _atom_site_fract_x
  _atom_site_fract_y
  _atom_site_fract_z
Si1 Si 0.00100 0.00136 0.50297
 Si2 Si 1.00136 0.00100 0.16370
 Si3 Si 0.00098 1.00097 0.83333
 O4 O 0.34713 -0.08704 -0.03890
 O5 O 0.55742 -0.08693 0.03434
 O6 O 0.34224 -0.11241 0.03612
 O7 O 0.53721 -0.11259 -0.04116
 O8 O 0.64422 0.08730 -0.04050
 O9 O 0.44184 0.08754 0.03468
 O10 O 0.65745 0.11303 0.03494
 O11 O 0.45604 0.11305 -0.04070
 Cu12 Cu 0.43624 -0.11915 -0.00246
 Cu13 Cu 0.56006 0.11956 -0.00290
 C14 C 0.36593 0.01393 -0.05216
 C15 C 0.64377 0.01384 0.04724
 C16 C 0.35659 -0.01305 0.04815
 C17 C 0.62503 -0.01344 -0.05373
 O18 O 0.08754 0.44184 0.63198
 O19 O 0.08730 0.64422 0.70717
 O20 O 0.11305 0.45604 0.70736
 O21 O 0.11302 0.65745 0.63172
 O22 O -0.08693 0.55742 0.63232
 O23 O -0.08704 0.34713 0.70557
 O24 O -0.11259 0.53721 0.70783
 O25 O -0.11241 0.34224 0.63055
 Cu26 Cu 0.11956 0.56006 0.66956
 Cu27 Cu -0.11915 0.43624 0.66913
 C28 C -0.01305 0.35658 0.61851
 C29 C -0.01344 0.62503 0.72040
 C30 C 0.01393 0.36593 0.71882
 C31 C 0.01384 0.64377 0.61943
 O32 O 0.64721 0.56213 0.37116
 O33 O 0.44030 0.35507 0.29593
 O34 O 0.65874 0.54709 0.29575
 O35 O 0.45523 0.34372 0.37144
 O36 O 0.35507 0.44030 0.37074
 O37 O 0.56213 0.64721 0.29551
 O38 O 0.34372 0.45523 0.29522
 O39 O 0.54709 0.65874 0.37092
 Cu40 Cu 0.55986 0.44253 0.33361
 Cu41 Cu 0.44253 0.55986 0.33305
 C42 C 0.63232 0.64641 0.38391
 C43 C 0.35604 0.36992 0.28271
 C44 C 0.64641 0.63233 0.28275
 C45 C 0.36992 0.35604 0.38396
 C46 C -0.12208 0.09768 0.54606
 C47 C -0.01239 0.10626 0.53651
 C48 C 0.09562 0.19667 0.55369
 C49 C 0.09525 0.27909 0.57957
 C50 C -0.01380 0.27186 0.58942
 C51 C -0.12281 0.18020 0.57242
 H52 H -0.20671 0.02663 0.53394
 H53 H 0.18127 0.20377 0.54709
 H54 H 0.18050 0.34743 0.59231
 H55 H -0.20859 0.17160 0.57977
 C56 C 0.80464 0.89792 0.21389
 C57 C 0.89491 0.88145 0.19778
 C58 C 0.90441 0.78247 0.20960
 C59 C 0.82272 0.69994 0.23703
 C60 C 0.73128 0.71618 0.25296
 C61 C 0.72321 0.81595 0.24090
 H62 H 0.79721 0.97526 0.20573
 H63 H 0.97578 0.77032 0.19847
 H64 H 0.83186 0.62433 0.24606
 H65 H 0.65488 0.83191 0.25271
 C66 C 0.23483 0.10884 -0.13456
 C67 C 0.11154 0.01861 -0.13238
 C68 C 0.07424 -0.07352 -0.10426
 C69 C 0.15736 -0.07533 -0.07864
 C70 C 0.27984 0.01584 -0.08016
 C71 C 0.31802 0.10882 -0.10805
 H72 H 0.26876 0.17613 -0.15736
 H73 H -0.01948 -0.14675 -0.10248
 H74 H 0.12554 -0.14775 -0.05736
 H75 H 0.41277 0.17917 -0.11009
 C76 C 0.12361 0.90432 0.54693
 C77 C 0.01419 0.89670 0.53719
 C78 C -0.09378 0.80701 0.55453
 C79 C -0.09371 0.72410 0.58063
 C80 C 0.01501 0.73010 0.59053
 C81 C 0.12405 0.82133 0.57351
 H82 H 0.20825 0.97481 0.53470
 H83 H -0.17921 0.80064 0.54779
 H84 H -0.17896 0.65612 0.59340
 H85 H 0.20958 0.82894 0.58088
 C86 C 0.19763 0.10392 0.21447
 C87 C 0.10754 0.12048 0.19780
 C88 C 0.09815 0.21960 0.20906
 C89 C 0.17983 0.30221 0.23647
 C90 C 0.27114 0.28593 0.25294
 C91 C 0.27904 0.18597 0.24146
 H92 H 0.20497 0.02647 0.20676
 H93 H 0.02690 0.23182 0.19751
 H94 H 0.17079 0.37795 0.24505
 H95 H 0.34726 0.16996 0.25371
 C96 C 0.77461 -0.12244 -0.12465
 C97 C 0.87650 -0.01203 -0.13577
 C98 C 0.89316 0.09644 -0.12057
 C99 C 0.80968 0.09560 -0.09492
 C100 C 0.70800 -0.01424 -0.08321
 C101 C 0.69058 -0.12356 -0.09854
 H102 H 0.76199 -0.20743 -0.13486
 H103 H 0.97254 0.18280 -0.12798
 H104 H 0.82660 0.18129 -0.08356
 H105 H 0.61353 -0.20990 -0.08974
 C106 C 0.09768 -0.12207 0.12060
 C107 C 0.10626 -0.01239 0.13016
 C108 C 0.19667 0.09562 0.11297
 C109 C 0.27908 0.09525 0.08709
 C110 C 0.27186 -0.01380 0.07725
 C111 C 0.18020 -0.12281 0.09424
 H112 H 0.02663 -0.20670 0.13273
 H113 H 0.20377 0.18127 0.11957
 H114 H 0.34743 0.18050 0.07435
 H115 H 0.17160 -0.20859 0.08690
 C116 C 0.89792 0.80464 0.45277
 C117 C 0.88145 0.89491 0.46889
 C118 C 0.78247 0.90441 0.45707
 C119 C 0.69994 0.82271 0.42964
 C120 C 0.71618 0.73128 0.41370
 C121 C 0.81595 0.72321 0.42577
 H122 H 0.97526 0.79721 0.46093
 H123 H 0.77032 0.97577 0.46820
 H124 H 0.62433 0.83185 0.42061
 H125 H 0.83191 0.65488 0.41395
 C126 C 0.10884 0.23483 0.80123
 C127 C 0.01861 0.11154 0.79904
 C128 C -0.07352 0.07424 0.77093
 C129 C -0.07533 0.15736 0.74530
 C130 C 0.01584 0.27984 0.74683
 C131 C 0.10882 0.31801 0.77471
 H132 H 0.17613 0.26876 0.82403
 H133 H -0.14675 -0.01949 0.76915
 H134 H -0.14774 0.12554 0.72402
 H135 H 0.17917 0.41277 0.77676
 C136 C 0.90432 0.12361 0.11974
 C137 C 0.89670 0.01419 0.12947
 C138 C 0.80701 -0.09378 0.11214
 C139 C 0.72411 -0.09371 0.08604
 C140 C 0.73010 0.01501 0.07613
 C141 C 0.82133 0.12405 0.09316
 H142 H 0.97480 0.20825 0.13197
 H143 H 0.80065 -0.17921 0.11888
 H144 H 0.65613 -0.17896 0.07327
 H145 H 0.82893 0.20958 0.08578
 C146 C 0.21960 0.09816 0.45761
 C147 C 0.12048 0.10754 0.46887
 C148 C 0.10391 0.19762 0.45219
 C149 C 0.18597 0.27904 0.42520
 C150 C 0.28593 0.27114 0.41372
 C151 C 0.30222 0.17983 0.43020
 H152 H 0.23183 0.02691 0.46916
 H153 H 0.02646 0.20496 0.45990
 H154 H 0.16995 0.34725 0.41295
 H155 H 0.37796 0.17080 0.42162
 C156 C -0.12244 0.77461 0.79132
 C157 C -0.01202 0.87649 0.80244
 C158 C 0.09644 0.89316 0.78724
 C159 C 0.09560 0.80967 0.76159
 C160 C -0.01424 0.70800 0.74988
 C161 C -0.12356 0.69058 0.76521
 H162 H -0.20743 0.76198 0.80153
 H163 H 0.18280 0.97254 0.79464
 H164 H 0.18129 0.82660 0.75023
 H165 H -0.20990 0.61353 0.75640
   
