data_POSCAR
  _audit_creation_date              2014-09-24
  _audit_creation_method            'ToBaCCo'
  _symmetry_space_group_name_H-M    'P1'
  _symmetry_Int_Tables_number       1
  _symmetry_cell_setting            triclinic
  loop_
  _symmetry_equiv_pos_as_xyz
 x,y,z
_cell_length_a 39.3334
_cell_length_b 39.0131
_cell_length_c 44.4432
_cell_angle_alpha 88.667300
_cell_angle_beta 90.754000
_cell_angle_gamma 90.006800
loop_
  _atom_site_label
  _atom_site_type_symbol
  _atom_site_fract_x
  _atom_site_fract_y
  _atom_site_fract_z
C1 C 1.18393 0.27807 0.28751
 H2 H 1.17854 0.25120 0.28459
 C3 C 1.16396 0.29702 0.30685
 H4 H 1.14376 0.28419 0.31900
 C5 C 1.21606 0.32741 0.27457
 H6 H 1.23624 0.33935 0.26192
 C7 C 1.19667 0.34737 0.29364
 H8 H 1.20249 0.37437 0.29549
 N9 N 1.20993 0.29322 0.27232
 C10 C 1.21941 0.20214 0.22284
 H11 H 1.24337 0.19347 0.23245
 C12 C 1.19921 0.17937 0.20673
 H13 H 1.20790 0.15328 0.20421
 C14 C 1.17955 0.24691 0.21392
 H15 H 1.17220 0.27334 0.21680
 C16 C 1.15857 0.22500 0.19759
 H17 H 1.13506 0.23494 0.18791
 Zn18 Zn 1.23763 0.26521 0.24799
 N19 N 1.20934 0.23519 0.22610
 C20 C 1.30106 0.23676 0.26935
 N21 N 1.26680 0.23772 0.27313
 C22 C 1.25158 0.21721 0.29408
 C23 C 1.27070 0.19471 0.31225
 C24 C 1.32136 0.21473 0.28723
 C25 C 1.25583 0.29196 0.19067
 C26 C 1.27364 0.31261 0.17017
 C27 C 1.30672 0.33468 0.21158
 C28 C 1.28806 0.31384 0.23131
 N29 N 1.26315 0.29299 0.22065
 H30 H 1.31273 0.25246 0.25204
 H31 H 1.22433 0.21762 0.29628
 H32 H 1.25737 0.17869 0.32846
 H33 H 1.34852 0.21453 0.28349
 H34 H 1.23604 0.27523 0.18255
 H35 H 1.26738 0.31131 0.14643
 H36 H 1.32644 0.35100 0.22061
 H37 H 1.29347 0.31426 0.25523
 C38 C 1.16838 0.19072 0.19372
 C39 C 1.17052 0.33209 0.31047
 C40 C 1.29954 0.33431 0.18053
 C41 C 1.30628 0.19294 0.30907
 C42 C 0.70122 -0.23608 0.29012
 H43 H 0.70207 -0.26378 0.29171
 C44 C 0.67789 -0.21805 0.30720
 H45 H 0.66088 -0.23221 0.32187
 C46 C 0.72284 -0.18415 0.26944
 H47 H 0.74071 -0.17088 0.25510
 C48 C 0.70010 -0.16512 0.28623
 H49 H 0.70065 -0.13741 0.28425
 N50 N 0.72273 -0.21902 0.27131
 C51 C 0.74950 -0.29196 0.20179
 H52 H 0.77684 -0.28898 0.20179
 C53 C 0.73389 -0.31489 0.18222
 H54 H 0.74945 -0.32944 0.16717
 C55 C 0.69616 -0.27657 0.22159
 H56 H 0.68143 -0.26138 0.23666
 C57 C 0.67955 -0.29926 0.20255
 H58 H 0.65212 -0.30122 0.20344
 Zn59 Zn 0.75387 -0.24474 0.24835
 N60 N 0.73060 -0.27383 0.22133
 C61 C 0.78055 -0.30654 0.27384
 N62 N 0.78096 -0.27175 0.27548
 C63 C 0.79948 -0.25586 0.29713
 C64 C 0.81926 -0.27506 0.31774
 C65 C 0.79984 -0.32671 0.29402
 C66 C 0.76457 -0.19563 0.20303
 C67 C 0.78240 -0.17213 0.18512
 C68 C 0.83399 -0.18840 0.21187
 C69 C 0.81512 -0.21162 0.22932
 N70 N 0.78096 -0.21444 0.22489
 H71 H 0.76499 -0.31887 0.25709
 H72 H 0.79886 -0.22821 0.29835
 H73 H 0.83388 -0.26184 0.33470
 H74 H 0.79908 -0.35433 0.29220
 H75 H 0.73745 -0.19870 0.19975
 H76 H 0.76869 -0.15729 0.16803
 H77 H 0.86113 -0.18644 0.21586
 H78 H 0.82784 -0.22729 0.24635
 C79 C 0.69845 -0.31908 0.18270
 C80 C 0.67705 -0.18203 0.30533
 C81 C 0.81760 -0.16811 0.18951
 C82 C 0.81964 -0.31104 0.31633
 C83 C 0.67910 0.25179 -0.21633
 H84 H 0.67966 0.22408 -0.21669
 C85 C 0.65903 0.26827 -0.19534
 H86 H 0.64405 0.25299 -0.17977
 C87 C 0.69878 0.30512 -0.23575
 H88 H 0.71514 0.31947 -0.25070
 C89 C 0.67884 0.32265 -0.21534
 H90 H 0.67981 0.35038 -0.21535
 N91 N 0.69828 0.27028 -0.23615
 C92 C 0.71449 0.19148 -0.30310
 H93 H 0.74195 0.18971 -0.30286
 C94 C 0.69522 0.16898 -0.32045
 H95 H 0.70809 0.15001 -0.33359
 C96 C 0.66450 0.21867 -0.28653
 H97 H 0.65259 0.23825 -0.27347
 C98 C 0.64429 0.19714 -0.30400
 H99 H 0.61693 0.20023 -0.30394
 Zn100 Zn 0.72620 0.24438 -0.26191
 N101 N 0.69894 0.21527 -0.28610
 C102 C 0.75564 0.18375 -0.23442
 N103 N 0.75539 0.21860 -0.23586
 C104 C 0.77647 0.23731 -0.21816
 C105 C 0.79983 0.22108 -0.19874
 C106 C 0.77860 0.16641 -0.21523
 C107 C 0.74076 0.29968 -0.30356
 C108 C 0.76203 0.32084 -0.32093
 C109 C 0.80909 0.28353 -0.30753
 C110 C 0.78712 0.26378 -0.28987
 N111 N 0.75378 0.27245 -0.28759
 H112 H 0.73809 0.16931 -0.24805
 H113 H 0.77541 0.26502 -0.21952
 H114 H 0.81658 0.23658 -0.18514
 H115 H 0.77857 0.13865 -0.21456
 H116 H 0.71390 0.30538 -0.30244
 H117 H 0.75092 0.34279 -0.33275
 H118 H 0.83548 0.27573 -0.30844
 H119 H 0.79686 0.24127 -0.27807
 C120 C 0.65960 0.17163 -0.32102
 C121 C 0.65869 0.30421 -0.19466
 C122 C 0.79702 0.31314 -0.32304
 C123 C 0.80130 0.18513 -0.19722
 C124 C 1.19431 -0.22662 -0.19662
 H125 H 1.19481 -0.25425 -0.19394
 C126 C 1.17177 -0.20736 -0.17991
 H127 H 1.15509 -0.22047 -0.16425
 C128 C 1.21582 -0.17621 -0.22027
 H129 H 1.23326 -0.16414 -0.23580
 C130 C 1.19383 -0.15591 -0.20387
 H131 H 1.19451 -0.12834 -0.20717
 N132 N 1.21534 -0.21092 -0.21667
 C133 C 1.23405 -0.29146 -0.28080
 H134 H 1.26154 -0.29248 -0.28040
 C135 C 1.21558 -0.31367 -0.29902
 H136 H 1.22906 -0.33177 -0.31261
 C137 C 1.18319 -0.26594 -0.26416
 H138 H 1.17062 -0.24695 -0.25097
 C139 C 1.16378 -0.28718 -0.28247
 H140 H 1.13637 -0.28458 -0.28279
 Zn141 Zn 1.24410 -0.23920 -0.23908
 N142 N 1.21767 -0.26871 -0.26333
 C143 C 1.27235 -0.29945 -0.21173
 N144 N 1.27193 -0.26461 -0.21153
 C145 C 1.29154 -0.24701 -0.19172
 C146 C 1.31387 -0.26446 -0.17202
 C147 C 1.29449 -0.31786 -0.19269
 C148 C 1.25499 -0.19396 -0.28746
 C149 C 1.27350 -0.17443 -0.30820
 C150 C 1.32532 -0.19365 -0.28334
 C151 C 1.30578 -0.21281 -0.26305
 N152 N 1.27126 -0.21242 -0.26532
 H153 H 1.25576 -0.31315 -0.22676
 H154 H 1.29031 -0.21931 -0.19170
 H155 H 1.32981 -0.24998 -0.15686
 H156 H 1.29476 -0.34557 -0.19360
 H157 H 1.22752 -0.19457 -0.28902
 H158 H 1.25996 -0.15999 -0.32565
 H159 H 1.35276 -0.19444 -0.28120
 H160 H 1.31832 -0.22831 -0.24579
 C161 C 1.17996 -0.31161 -0.30001
 C162 C 1.17123 -0.17149 -0.18351
 C163 C 1.30919 -0.17416 -0.30635
 C164 C 1.31595 -0.30035 -0.17277
 C165 C 0.27528 0.19203 0.70690
 H166 H 0.24831 0.18941 0.71083
 C167 C 0.29080 0.17248 0.68503
 H168 H 0.27554 0.15465 0.67232
 C169 C 0.32759 0.21937 0.71814
 H170 H 0.34167 0.23817 0.73070
 C171 C 0.34403 0.20070 0.69618
 H172 H 0.37086 0.20495 0.69244
 N173 N 0.29381 0.21475 0.72305
 C174 C 0.22693 0.23435 0.79806
 H175 H 0.22600 0.26203 0.79603
 C176 C 0.20783 0.21738 0.81996
 H177 H 0.19218 0.23251 0.83449
 C178 C 0.24908 0.18170 0.78148
 H179 H 0.26552 0.16803 0.76661
 C180 C 0.23111 0.16364 0.80372
 H181 H 0.23364 0.13601 0.80529
 Zn182 Zn 0.27080 0.24278 0.75025
 N183 N 0.24628 0.21640 0.77885
 C184 C 0.20646 0.26873 0.73002
 N185 N 0.24077 0.27146 0.72715
 C186 C 0.25454 0.29350 0.70653
 C187 C 0.23367 0.31478 0.68857
 C188 C 0.18463 0.28942 0.71245
 C189 C 0.32369 0.25028 0.79138
 C190 C 0.34677 0.26699 0.81010
 C191 C 0.32642 0.32118 0.78951
 C192 C 0.30342 0.30342 0.77142
 N193 N 0.30259 0.26857 0.77259
 H194 H 0.19579 0.25013 0.74557
 H195 H 0.28185 0.29454 0.70406
 H196 H 0.24529 0.33223 0.67244
 H197 H 0.15744 0.28680 0.71519
 H198 H 0.32221 0.22258 0.79206
 H199 H 0.36311 0.25192 0.82508
 H200 H 0.32645 0.34893 0.78849
 H201 H 0.28591 0.31755 0.75693
 C202 C 0.20961 0.18143 0.82311
 C203 C 0.32557 0.17693 0.67925
 C204 C 0.34828 0.30293 0.80938
 C205 C 0.19816 0.31297 0.69144
 C206 C 0.76422 0.70800 0.71134
 H207 H 0.73712 0.71088 0.70764
 C208 C 0.78286 0.68619 0.69333
 H209 H 0.76976 0.67226 0.67587
 C210 C 0.81418 0.72363 0.73804
 H211 H 0.82644 0.73869 0.75513
 C212 C 0.83382 0.70228 0.72045
 H213 H 0.86100 0.70097 0.72449
 N214 N 0.78001 0.72600 0.73331
 C215 C 0.70461 0.75144 0.80045
 H216 H 0.70920 0.77867 0.80222
 C217 C 0.68137 0.73517 0.81953
 H218 H 0.66823 0.75026 0.83590
 C219 C 0.71696 0.69898 0.77716
 H220 H 0.73124 0.68482 0.76102
 C221 C 0.69378 0.68173 0.79550
 H222 H 0.69065 0.65439 0.79283
 Zn223 Zn 0.75379 0.75690 0.75562
 N224 N 0.72177 0.73325 0.77978
 C225 C 0.69620 0.78717 0.72751
 N226 N 0.73076 0.78633 0.72753
 C227 C 0.74870 0.80315 0.70578
 C228 C 0.73177 0.82140 0.68258
 C229 C 0.67833 0.80501 0.70484
 C230 C 0.79557 0.76263 0.80600
 C231 C 0.81727 0.77814 0.82670
 C232 C 0.81191 0.83115 0.79780
 C233 C 0.79003 0.81468 0.77778
 N234 N 0.78263 0.78092 0.78206
 H235 H 0.68228 0.77308 0.74451
 H236 H 0.77616 0.80148 0.70591
 H237 H 0.74648 0.83406 0.66516
 H238 H 0.65081 0.80473 0.70515
 H239 H 0.78907 0.73582 0.80889
 H240 H 0.82739 0.76305 0.84551
 H241 H 0.81761 0.85804 0.79395
 H242 H 0.77914 0.82881 0.75881
 C243 C 0.67566 0.69971 0.81730
 C244 C 0.81821 0.68327 0.69765
 C245 C 0.82587 0.81281 0.82265
 C246 C 0.69604 0.82204 0.68167
 C247 C 0.76777 0.20210 0.21183
 H248 H 0.74037 0.20461 0.21119
 C249 C 0.78402 0.18222 0.19070
 H250 H 0.76889 0.16946 0.17379
 C251 C 0.82064 0.21673 0.23434
 H252 H 0.83472 0.23023 0.25141
 C253 C 0.83799 0.19737 0.21344
 H254 H 0.86548 0.19625 0.21461
 N255 N 0.78620 0.21916 0.23279
 C256 C 0.70852 0.23618 0.29936
 H257 H 0.70519 0.26369 0.29780
 C258 C 0.68903 0.21686 0.31951
 H259 H 0.67021 0.22962 0.33285
 C260 C 0.73854 0.18651 0.28527
 H261 H 0.75833 0.17488 0.27231
 C262 C 0.72011 0.16633 0.30565
 H263 H 0.72543 0.13914 0.30777
 Zn264 Zn 0.76145 0.24805 0.25772
 N265 N 0.73256 0.22081 0.28253
 C266 C 0.70160 0.27950 0.23215
 N267 N 0.73615 0.27808 0.23161
 C268 C 0.75393 0.29693 0.21103
 C269 C 0.73716 0.31911 0.19070
 C270 C 0.68383 0.30159 0.21246
 C271 C 0.78599 0.27166 0.31320
 C272 C 0.80471 0.29198 0.33266
 C273 C 0.83537 0.31504 0.29009
 C274 C 0.81547 0.29470 0.27125
 N275 N 0.79090 0.27389 0.28296
 H276 H 0.68753 0.26314 0.24737
 H277 H 0.78116 0.29423 0.20986
 H278 H 0.75189 0.33385 0.17456
 H279 H 0.65634 0.30227 0.21336
 H280 H 0.76730 0.25439 0.32249
 H281 H 0.79987 0.29018 0.35659
 H282 H 0.85449 0.33180 0.28042
 H283 H 0.81980 0.29558 0.24733
 C284 C 0.69502 0.18155 0.32306
 C285 C 0.81964 0.18020 0.19099
 C286 C 0.82947 0.31428 0.32113
 C287 C 0.70164 0.32183 0.19142
 C288 C 0.25516 0.68129 0.19799
 H289 H 0.22816 0.68606 0.19554
 C290 C 0.27095 0.65775 0.17954
 H291 H 0.25589 0.64443 0.16293
 C292 C 0.30756 0.69346 0.22241
 H293 H 0.32184 0.70783 0.23876
 C294 C 0.32430 0.66986 0.20468
 H295 H 0.35145 0.66634 0.20774
 N296 N 0.27354 0.69855 0.21890
 C297 C 0.19812 0.72605 0.28513
 H298 H 0.19859 0.75376 0.28346
 C299 C 0.17638 0.70957 0.30546
 H300 H 0.16009 0.72479 0.31936
 C301 C 0.21973 0.67261 0.26978
 H302 H 0.23706 0.65829 0.25621
 C303 C 0.19896 0.65516 0.29023
 H304 H 0.20023 0.62745 0.29190
 Zn305 Zn 0.24974 0.73076 0.24181
 N306 N 0.21897 0.70744 0.26758
 C307 C 0.19198 0.76242 0.21347
 N308 N 0.22648 0.76023 0.21383
 C309 C 0.24538 0.77771 0.19313
 C310 C 0.22969 0.79922 0.17152
 C311 C 0.17526 0.78354 0.19225
 C312 C 0.29744 0.73917 0.28893
 C313 C 0.31858 0.75702 0.30872
 C314 C 0.30272 0.80968 0.28251
 C315 C 0.28198 0.79079 0.26331
 N316 N 0.27982 0.75615 0.26667
 H317 H 0.17726 0.74753 0.22939
 H318 H 0.27275 0.77493 0.19348
 H319 H 0.24526 0.81305 0.15542
 H320 H 0.14777 0.78493 0.19254
 H321 H 0.29480 0.71166 0.29150
 H322 H 0.33210 0.74260 0.32622
 H323 H 0.30354 0.83725 0.27910
 H324 H 0.26716 0.80403 0.24606
 C325 C 0.17694 0.67367 0.30840
 C326 C 0.30600 0.65177 0.18278
 C327 C 0.32143 0.79302 0.30593
 C328 C 0.19412 0.80244 0.17093
 O329 O 1.05007 0.02340 0.04024
 O330 O 0.93413 -0.01872 0.02238
 O331 O 0.97226 0.07974 0.02468
 O332 O 1.04029 -0.03601 0.03596
 O333 O 0.92989 0.04424 0.01428
 O334 O 1.08530 -0.01875 0.01214
 O335 O 0.98045 -0.03334 0.04635
 O336 O 1.03529 0.07379 0.02422
 C337 C 1.04786 0.05474 0.04448
 C338 C 0.94898 -0.03000 0.04591
 C339 C 0.94220 0.06946 0.02837
 C340 C 1.07137 -0.04133 0.03038
 O341 O 1.05071 -0.00838 -0.03623
 O342 O 0.94188 0.03515 -0.04440
 O343 O 1.03119 0.06826 -0.03618
 O344 O 0.96535 -0.06036 -0.00625
 O345 O 0.95137 -0.02242 -0.03800
 O346 O 1.07226 0.04360 -0.01239
 O347 O 1.02549 -0.05432 -0.02134
 O348 O 0.97009 0.08023 -0.03313
 Co349 Co 1.04806 0.00674 0.00175
 Co350 Co 0.94422 0.00947 -0.01033
 Co351 Co 1.00228 0.06967 -0.00472
 Co352 Co 1.00261 -0.04050 0.01198
 O353 O 0.99714 0.01407 -0.00159
 C354 C 1.04255 -0.03854 -0.04082
 C355 C 0.94898 0.06548 -0.04932
 C356 C 1.06223 0.06326 -0.03320
 C357 C 0.95402 -0.05286 -0.03167
 O358 O 1.05992 0.52112 0.54864
 O359 O 0.94321 0.48340 0.54822
 O360 O 0.98207 0.56030 0.54893
 O361 O 1.02202 0.44419 0.54872
 O362 O 0.93562 0.54128 0.53124
 O363 O 1.06768 0.46448 0.53085
 O364 O 0.96431 0.43677 0.53290
 O365 O 1.03899 0.56853 0.53283
 C366 C 1.05505 0.55191 0.55264
 C367 C 0.94674 0.45213 0.55156
 C368 C 0.95119 0.55612 0.55175
 C369 C 1.05305 0.44811 0.55127
 O370 O 1.05918 0.48823 0.47328
 O371 O 0.94232 0.52131 0.47324
 O372 O 1.01756 0.56379 0.47424
 O373 O 0.98394 0.44530 0.47411
 O374 O 0.93708 0.46270 0.49091
 O375 O 1.06484 0.54540 0.49110
 O376 O 1.04130 0.44003 0.48977
 O377 O 0.96062 0.56835 0.49036
 Co378 Co 1.05684 0.50470 0.51100
 Co379 Co 0.94568 0.50234 0.51087
 Co380 Co 1.00000 0.55926 0.51160
 Co381 Co 1.00270 0.44762 0.51141
 O382 O 1.00131 0.50347 0.51130
 C383 C 1.05537 0.45721 0.46944
 C384 C 0.94562 0.55267 0.46998
 C385 C 1.04834 0.56027 0.47062
 C386 C 0.95299 0.44835 0.47076
 O387 O 0.53909 0.00149 0.53003
 O388 O 0.42479 -0.05026 0.51047
 O389 O 0.45724 0.05681 0.50456
 O390 O 0.53083 -0.06009 0.52427
 O391 O 0.42454 0.01346 0.51883
 O392 O 0.57560 -0.03936 0.50216
 O393 O 0.47165 -0.06168 0.53287
 O394 O 0.51927 0.05069 0.51384
 C395 C 0.53407 0.03275 0.53414
 C396 C 0.44030 -0.06051 0.53348
 C397 C 0.43405 0.04410 0.52115
 C398 C 0.56269 -0.06215 0.52036
 O399 O 0.54300 -0.02673 0.45272
 O400 O 0.42200 0.02426 0.46195
 O401 O 0.52584 0.03798 0.45302
 O402 O 0.45915 -0.08039 0.47403
 O403 O 0.43052 -0.03823 0.45282
 O404 O 0.56572 0.02312 0.48171
 O405 O 0.51981 -0.07450 0.46502
 O406 O 0.46854 0.04451 0.44509
 Co407 Co 0.53882 -0.01383 0.49140
 Co408 Co 0.43143 -0.01272 0.48617
 Co409 Co 0.49258 0.04293 0.48003
 Co410 Co 0.49465 -0.06416 0.49795
 O411 O 0.48729 -0.01025 0.48786
 C412 C 0.53707 -0.05708 0.44685
 C413 C 0.43739 0.04206 0.44309
 C414 C 0.55609 0.04118 0.46006
 C415 C 0.44012 -0.06870 0.45296
 O416 O 0.57868 0.52300 0.02125
 O417 O 0.43774 0.46217 0.00886
 O418 O 0.47496 0.54090 0.04299
 O419 O 0.53577 0.45028 0.04441
 O420 O 0.43553 0.52377 0.01227
 O421 O 0.57696 0.45981 0.01528
 O422 O 0.47648 0.45429 0.04174
 O423 O 0.53764 0.55308 0.04068
 C424 C 0.56787 0.54341 0.04051
 C425 C 0.44597 0.45426 0.03532
 C426 C 0.44462 0.53397 0.03796
 C427 C 0.56663 0.45080 0.04061
 O428 O 0.55581 0.46869 -0.04137
 O429 O 0.46392 0.52852 -0.04451
 O430 O 0.53128 0.57084 -0.01662
 O431 O 0.47653 0.42682 -0.01485
 O432 O 0.46948 0.46879 -0.04547
 O433 O 0.56469 0.53213 -0.03601
 O434 O 0.53785 0.42630 -0.01357
 O435 O 0.46851 0.56703 -0.01227
 Co436 Co 0.56299 0.49581 -0.00931
 Co437 Co 0.45632 0.49594 -0.01569
 Co438 Co 0.50341 0.55188 0.01246
 Co439 Co 0.50669 0.44422 0.01319
 O440 O 0.50795 0.49748 0.00022
 C441 C 0.54963 0.43763 -0.03820
 C442 C 0.46119 0.55889 -0.03841
 C443 C 0.55300 0.56188 -0.03559
 C444 C 0.47007 0.43755 -0.04101
 C445 C 1.11036 0.12621 0.13883
 N446 N 1.10058 0.15903 0.14332
 N447 N 1.11860 0.17921 0.16124
 C448 C 1.14727 0.16745 0.17533
 N449 N 1.15682 0.13440 0.17111
 N450 N 1.13875 0.11416 0.15318
 C451 C 1.09201 0.10557 0.11669
 N452 N 1.10108 0.07265 0.11124
 N453 N 1.08612 0.05550 0.08902
 C454 C 1.06173 0.07083 0.07146
 N455 N 1.05244 0.10347 0.07728
 N456 N 1.06716 0.12044 0.09950
 C457 C 1.12331 0.62584 0.64255
 N458 N 1.11019 0.65567 0.65237
 N459 N 1.12803 0.67525 0.67096
 C460 C 1.15983 0.66595 0.68020
 N461 N 1.17291 0.63602 0.67040
 N462 N 1.15494 0.61628 0.65199
 C463 C 1.10429 0.60541 0.62074
 N464 N 1.11427 0.57311 0.61423
 N465 N 1.09793 0.55548 0.59315
 C466 C 1.07125 0.56968 0.57769
 N467 N 1.06118 0.60185 0.58435
 N468 N 1.07728 0.61932 0.60560
 C469 C 0.60061 0.10699 0.62485
 N470 N 0.58798 0.13730 0.63413
 N471 N 0.60652 0.15753 0.65167
 C472 C 0.63860 0.14848 0.66035
 N473 N 0.65117 0.11807 0.65112
 N474 N 0.63252 0.09769 0.63377
 C475 C 0.58100 0.08592 0.60374
 N476 N 0.59110 0.05360 0.59739
 N477 N 0.57496 0.03577 0.57629
 C478 C 0.54825 0.04971 0.56067
 N479 N 0.53793 0.08184 0.56730
 N480 N 0.55383 0.09950 0.58857
 C481 C 0.64786 0.61237 0.12595
 N482 N 0.63111 0.62855 0.14802
 N483 N 0.64732 0.64999 0.16607
 C484 C 0.68101 0.65627 0.16282
 N485 N 0.69794 0.63980 0.14087
 N486 N 0.68165 0.61832 0.12269
 C487 C 0.62855 0.59090 0.10503
 N488 N 0.64340 0.57554 0.08135
 N489 N 0.62452 0.55882 0.06120
 C490 C 0.59020 0.55701 0.06412
 N491 N 0.57568 0.57187 0.08806
 N492 N 0.59444 0.58834 0.10813
 C493 C 0.87275 -0.09964 0.13450
 N494 N 0.83856 -0.10273 0.13106
 N495 N 0.82106 -0.12413 0.14877
 C496 C 0.83701 -0.14341 0.17055
 N497 N 0.87121 -0.14003 0.17412
 N498 N 0.88874 -0.11863 0.15641
 C499 C 0.89236 -0.07812 0.11343
 N500 N 0.92680 -0.07697 0.11552
 N501 N 0.94481 -0.06020 0.09470
 C502 C 0.92905 -0.04388 0.07108
 N503 N 0.89457 -0.04447 0.06931
 N504 N 0.87656 -0.06123 0.09013
 C505 C 0.86180 0.37373 0.62817
 N506 N 0.82887 0.38314 0.63164
 N507 N 0.80762 0.36329 0.64742
 C508 C 0.81843 0.33332 0.66065
 N509 N 0.85157 0.32425 0.65720
 N510 N 0.87270 0.34385 0.64116
 C511 C 0.88502 0.39489 0.60984
 N512 N 0.91381 0.38109 0.59870
 N513 N 0.93400 0.39961 0.58078
 C514 C 0.92646 0.43281 0.57373
 N515 N 0.89795 0.44679 0.58525
 N516 N 0.87753 0.42815 0.60289
 C517 C 0.36613 -0.12021 0.62891
 N518 N 0.33165 -0.11980 0.62772
 N519 N 0.31363 -0.13658 0.64849
 C520 C 0.32935 -0.15449 0.67125
 N521 N 0.36390 -0.15466 0.67251
 N522 N 0.38196 -0.13785 0.65174
 C523 C 0.38576 -0.10309 0.60509
 N524 N 0.42029 -0.10394 0.60552
 N525 N 0.43786 -0.08979 0.58299
 C526 C 0.42147 -0.07436 0.55925
 N527 N 0.38699 -0.07328 0.55898
 N528 N 0.36946 -0.08736 0.58149
 C529 C 0.35697 0.39360 0.11960
 N530 N 0.32786 0.37810 0.11041
 N531 N 0.30943 0.35957 0.12980
 C532 C 0.31934 0.35586 0.15913
 N533 N 0.34831 0.37171 0.16828
 N534 N 0.36680 0.39010 0.14890
 C535 C 0.37873 0.41202 0.09798
 N536 N 0.41036 0.42212 0.10648
 N537 N 0.43131 0.43649 0.08657
 C538 C 0.42136 0.44156 0.05746
 N539 N 0.38949 0.43204 0.04899
 N540 N 0.36857 0.41745 0.06891
 C541 C 0.87064 0.13481 -0.13871
 N542 N 0.87012 0.16955 -0.14098
 N543 N 0.84827 0.18551 -0.15971
 C544 C 0.82606 0.16739 -0.17684
 N545 N 0.82684 0.13262 -0.17464
 N546 N 0.84864 0.11666 -0.15591
 C547 C 0.89324 0.11698 -0.11697
 N548 N 0.89138 0.08243 -0.11349
 N549 N 0.91002 0.06612 -0.09248
 C550 C 0.93137 0.08369 -0.07421
 N551 N 0.93366 0.11826 -0.07791
 N552 N 0.91490 0.13463 -0.09894
 C553 C 0.87667 0.62947 0.37880
 N554 N 0.87832 0.66423 0.37882
 N555 N 0.86038 0.68307 0.35892
 C556 C 0.84005 0.66793 0.33817
 N557 N 0.83856 0.63310 0.33811
 N558 N 0.85647 0.61423 0.35804
 C559 C 0.89571 0.60896 0.40149
 N560 N 0.89301 0.57421 0.40285
 N561 N 0.90935 0.55598 0.42432
 C562 C 0.92898 0.57190 0.44512
 N563 N 0.93185 0.60656 0.44356
 N564 N 0.91555 0.62474 0.42216
 C565 C 0.36239 0.12619 0.36136
 N566 N 0.32812 0.12763 0.36384
 N567 N 0.30991 0.14942 0.34674
 C568 C 0.32508 0.17078 0.32633
 N569 N 0.35952 0.16911 0.32385
 N570 N 0.37781 0.14735 0.34106
 C571 C 0.38224 0.10285 0.38115
 N572 N 0.41677 0.10322 0.38113
 N573 N 0.43448 0.08320 0.40034
 C574 C 0.41828 0.06201 0.42016
 N575 N 0.38379 0.06140 0.41992
 N576 N 0.36611 0.08143 0.40078
 C577 C 0.38499 0.64417 -0.11785
 N578 N 0.37763 0.67729 -0.11180
 N579 N 0.35589 0.69512 -0.12933
 C580 C 0.34048 0.68037 -0.15336
 N581 N 0.34802 0.64729 -0.15933
 N582 N 0.36984 0.62957 -0.14196
 C583 C 0.40754 0.62355 -0.09808
 N584 N 0.41547 0.59106 -0.10561
 N585 N 0.43369 0.57102 -0.08694
 C586 C 0.44469 0.58268 -0.06000
 N587 N 0.43722 0.61538 -0.05255
 N588 N 0.41901 0.63552 -0.07133
 C589 C 1.10662 -0.11239 -0.13109
 N590 N 1.10398 -0.14707 -0.13085
 N591 N 1.12416 -0.16577 -0.14783
 C592 C 1.14782 -0.15055 -0.16568
 N593 N 1.15012 -0.11578 -0.16616
 N594 N 1.12999 -0.09706 -0.14912
 C595 C 1.08664 -0.09219 -0.11023
 N596 N 1.09224 -0.05803 -0.10764
 N597 N 1.07687 -0.04045 -0.08636
 C598 C 1.05526 -0.05639 -0.06701
 N599 N 1.04909 -0.09037 -0.07004
 N600 N 1.06448 -0.10794 -0.09128
 C601 C 1.11690 0.38807 0.37408
 N602 N 1.11111 0.35407 0.37083
 N603 N 1.12773 0.33650 0.35032
 C604 C 1.15089 0.35217 0.33225
 N605 N 1.15649 0.38631 0.33541
 N606 N 1.13982 0.40393 0.35591
 C607 C 1.09970 0.40679 0.39784
 N608 N 1.10486 0.44093 0.40134
 N609 N 1.09030 0.45731 0.42383
 C610 C 1.07017 0.44007 0.44365
 N611 N 1.06486 0.40605 0.43999
 N612 N 1.07931 0.38973 0.41750
 C613 C 0.60979 -0.12616 0.35825
 N614 N 0.60760 -0.16084 0.35713
 N615 N 0.62869 -0.17851 0.34012
 C616 C 0.65286 -0.16224 0.32355
 N617 N 0.65480 -0.12748 0.32450
 N618 N 0.63376 -0.10979 0.34157
 C619 C 0.58812 -0.10708 0.37878
 N620 N 0.59271 -0.07293 0.38268
 N621 N 0.57523 -0.05644 0.40341
 C622 C 0.55240 -0.07348 0.42088
 N623 N 0.54738 -0.10745 0.41655
 N624 N 0.56485 -0.12392 0.39587
 C625 C 0.60309 0.35686 -0.13011
 N626 N 0.60717 0.32235 -0.12753
 N627 N 0.62436 0.30547 -0.14824
 C628 C 0.63829 0.32246 -0.17218
 N629 N 0.63391 0.35691 -0.17472
 N630 N 0.61667 0.37372 -0.15415
 C631 C 0.58608 0.37652 -0.10677
 N632 N 0.58317 0.41095 -0.11046
 N633 N 0.57044 0.42984 -0.08882
 C634 C 0.55999 0.41516 -0.06256
 N635 N 0.56226 0.38054 -0.05890
 N636 N 0.57511 0.36152 -0.08068
 C637 C 1.15081 0.13072 -0.11385
 N638 N 1.17504 0.11354 -0.12891
 N639 N 1.19414 0.12985 -0.14928
 C640 C 1.19002 0.16402 -0.15511
 N641 N 1.16597 0.18106 -0.13965
 N642 N 1.14661 0.16472 -0.11963
 C643 C 1.12838 0.11294 -0.09252
 N644 N 1.09733 0.12623 -0.08683
 N645 N 1.07639 0.11024 -0.06790
 C646 C 1.08592 0.08065 -0.05357
 N647 N 1.11712 0.06740 -0.05900
 N648 N 1.13793 0.08317 -0.07834
 C649 C 1.11864 0.62319 0.37418
 N650 N 1.14740 0.60869 0.36374
 N651 N 1.16555 0.62452 0.34251
 C652 C 1.15588 0.65566 0.33110
 N653 N 1.12706 0.67018 0.34156
 N654 N 1.10870 0.65417 0.36262
 C655 C 1.09957 0.60617 0.39847
 N656 N 1.06746 0.61611 0.40501
 N657 N 1.05074 0.60110 0.42767
 C658 C 1.06573 0.57589 0.44475
 N659 N 1.09779 0.56597 0.43817
 N660 N 1.11433 0.58070 0.41535
 C661 C 0.63890 0.12333 0.38525
 N662 N 0.67052 0.11317 0.37745
 N663 N 0.68840 0.13161 0.35759
 C664 C 0.67539 0.16096 0.34500
 N665 N 0.64388 0.17116 0.35305
 N666 N 0.62590 0.15258 0.37264
 C667 C 0.61818 0.10250 0.40583
 N668 N 0.58411 0.10751 0.40640
 N669 N 0.56463 0.08806 0.42405
 C670 C 0.57851 0.06316 0.44211
 N671 N 0.61269 0.05829 0.44190
 N672 N 0.63220 0.07756 0.42391
 C673 C 0.61283 0.64689 -0.12424
 N674 N 0.62836 0.63080 -0.14701
 N675 N 0.64810 0.64804 -0.16608
 C676 C 0.65328 0.68221 -0.16325
 N677 N 0.63720 0.69850 -0.14066
 N678 N 0.61743 0.68117 -0.12143
 C679 C 0.59393 0.62627 -0.10207
 N680 N 0.57879 0.64024 -0.07784
 N681 N 0.56441 0.62014 -0.05680
 C682 C 0.56498 0.58548 -0.05932
 N683 N 0.57966 0.57185 -0.08372
 N684 N 0.59372 0.59178 -0.10468
 C685 C 0.89001 -0.13744 -0.11606
 N686 N 0.87747 -0.16904 -0.10920
 N687 N 0.85744 -0.18512 -0.12880
 C688 C 0.84899 -0.17011 -0.15583
 N689 N 0.86180 -0.13863 -0.16262
 N690 N 0.88187 -0.12266 -0.14315
 C691 C 0.91007 -0.11793 -0.09426
 N692 N 0.92060 -0.08599 -0.10218
 N693 N 0.93584 -0.06621 -0.08221
 C694 C 0.94141 -0.07754 -0.05351
 N695 N 0.93162 -0.10986 -0.04551
 N696 N 0.91615 -0.12975 -0.06562
 C697 C 0.88241 0.37716 0.38065
 N698 N 0.85027 0.36672 0.38656
 N699 N 0.83354 0.34687 0.36748
 C700 C 0.84819 0.33689 0.34164
 N701 N 0.88027 0.34769 0.33550
 N702 N 0.89718 0.36732 0.35478
 C703 C 0.90092 0.39761 0.40269
 N704 N 0.93525 0.40105 0.40162
 N705 N 0.95198 0.41775 0.42306
 C706 C 0.93490 0.43173 0.44613
 N707 N 0.90058 0.42869 0.44691
 N708 N 0.88392 0.41181 0.42565
 C709 C 0.37784 -0.15153 0.36529
 N710 N 0.37662 -0.18625 0.36798
 N711 N 0.35850 -0.20447 0.34841
 C712 C 0.34080 -0.18878 0.32538
 N713 N 0.34252 -0.15402 0.32274
 N714 N 0.36054 -0.13584 0.34225
 C715 C 0.39603 -0.13068 0.38750
 N716 N 0.39361 -0.09603 0.38557
 N717 N 0.40830 -0.07660 0.40620
 C718 C 0.42618 -0.09096 0.42957
 N719 N 0.42905 -0.12567 0.43143
 N720 N 0.41416 -0.14521 0.41076
 C721 C 0.41111 0.35610 -0.13061
 N722 N 0.40518 0.32209 -0.12623
 N723 N 0.38582 0.30501 -0.14565
 C724 C 0.37146 0.32133 -0.17003
 N725 N 0.37770 0.35528 -0.17445
 N726 N 0.39717 0.37230 -0.15516
 C727 C 0.43002 0.37591 -0.10824
 N728 N 0.43577 0.40977 -0.11346
 N729 N 0.44984 0.42891 -0.09230
 C730 C 0.45872 0.41498 -0.06506
 N731 N 0.45359 0.38093 -0.05992
 N732 N 0.43951 0.36170 -0.08119
 C733 C 1.14408 -0.13275 0.10778
 N734 N 1.17855 -0.13482 0.10828
 N735 N 1.19451 -0.15550 0.12820
 C736 C 1.17665 -0.17483 0.14839
 N737 N 1.14220 -0.17270 0.14770
 N738 N 1.12627 -0.15211 0.12784
 C739 C 1.12588 -0.10955 0.08659
 N740 N 1.09149 -0.10776 0.08747
 N741 N 1.07446 -0.08627 0.06918
 C742 C 1.09107 -0.06573 0.04921
 N743 N 1.12552 -0.06756 0.04806
 N744 N 1.14265 -0.08914 0.06647
 C745 C 1.13428 0.37445 0.63616
 N746 N 1.16857 0.37803 0.63523
 N747 N 1.18876 0.35871 0.65291
 C748 C 1.17550 0.33498 0.67228
 N749 N 1.14111 0.33157 0.67332
 N750 N 1.12088 0.35089 0.65558
 C751 C 1.11242 0.39492 0.61554
 N752 N 1.07812 0.39060 0.61484
 N753 N 1.05883 0.40810 0.59488
 C754 C 1.07322 0.43053 0.57498
 N755 N 1.10742 0.43504 0.57596
 N756 N 1.12664 0.41762 0.59585
 C757 C 0.64160 -0.13118 0.60979
 N758 N 0.67600 -0.12840 0.61142
 N759 N 0.69340 -0.14309 0.63425
 C760 C 0.67705 -0.16095 0.65639
 N761 N 0.64266 -0.16359 0.65461
 N762 N 0.62531 -0.14901 0.63183
 C763 C 0.62182 -0.11466 0.58518
 N764 N 0.58751 -0.11821 0.58429
 N765 N 0.56896 -0.10220 0.56303
 C766 C 0.58397 -0.08207 0.54175
 N767 N 0.61836 -0.07873 0.54236
 N768 N 0.63698 -0.09481 0.56369
 C769 C 0.64812 0.38503 0.12961
 N770 N 0.68169 0.37870 0.12576
 N771 N 0.69888 0.35903 0.14561
 C772 C 0.68310 0.34479 0.16992
 N773 N 0.64959 0.35140 0.17376
 N774 N 0.63246 0.37113 0.15402
 C775 C 0.62822 0.40483 0.10715
 N776 N 0.59474 0.41052 0.11185
 N777 N 0.57559 0.42614 0.09084
 C778 C 0.58914 0.43669 0.06429
 N779 N 0.62279 0.43150 0.05963
 N780 N 0.64203 0.41583 0.08075
 C781 C 0.87016 0.13083 0.12178
 N782 N 0.88736 0.15139 0.14091
 N783 N 0.87139 0.16653 0.16321
 C784 C 0.83755 0.16178 0.16722
 N785 N 0.82038 0.14105 0.14810
 N786 N 0.83640 0.12574 0.12584
 C787 C 0.88804 0.11504 0.09694
 N788 N 0.87269 0.09137 0.07937
 N789 N 0.88961 0.07697 0.05710
 C790 C 0.92231 0.08603 0.05156
 N791 N 0.93744 0.10983 0.06903
 N792 N 0.92065 0.12404 0.09129
 C793 C 0.87626 0.62347 0.64013
 N794 N 0.89170 0.64347 0.66082
 N795 N 0.87327 0.66206 0.67939
 C796 C 0.83872 0.66148 0.67792
 N797 N 0.82339 0.64125 0.65732
 N798 N 0.84178 0.62261 0.63881
 C799 C 0.89627 0.60431 0.61852
 N800 N 0.88034 0.58470 0.59784
 N801 N 0.89808 0.56878 0.57704
 C802 C 0.93241 0.57187 0.57612
 N803 N 0.94847 0.59120 0.59698
 N804 N 0.93069 0.60713 0.61784
 C805 C 0.37229 0.12177 0.61115
 N806 N 0.38744 0.15007 0.62240
 N807 N 0.37272 0.16749 0.64416
 C808 C 0.34223 0.15738 0.65538
 N809 N 0.32713 0.12910 0.64400
 N810 N 0.34192 0.11158 0.62240
 C811 C 0.38842 0.10212 0.58743
 N812 N 0.37551 0.07127 0.57971
 N813 N 0.39008 0.05302 0.55849
 C814 C 0.41797 0.06502 0.54400
 N815 N 0.43087 0.09599 0.55158
 N816 N 0.41638 0.11419 0.57299
 C817 C 0.35810 0.58713 0.12492
 N818 N 0.37285 0.59777 0.15085
 N819 N 0.35602 0.61767 0.16945
 C820 C 0.32370 0.62779 0.16291
 N821 N 0.30870 0.61666 0.13716
 N822 N 0.32562 0.59681 0.11843
 C823 C 0.37855 0.56850 0.10323
 N824 N 0.36633 0.56120 0.07532
 N825 N 0.38678 0.54829 0.05465
 C826 C 0.42011 0.54234 0.06127
 N827 N 0.43194 0.54886 0.08936
 N828 N 0.41158 0.56159 0.10993
   
