data_POSCAR
  _audit_creation_date              2014-09-24
  _audit_creation_method            'ToBaCCo'
  _symmetry_space_group_name_H-M    'P1'
  _symmetry_Int_Tables_number       1
  _symmetry_cell_setting            triclinic
  loop_
  _symmetry_equiv_pos_as_xyz
 x,y,z
_cell_length_a 21.5518
_cell_length_b 18.6922
_cell_length_c 19.9038
_cell_angle_alpha 90.707600
_cell_angle_beta 89.351000
_cell_angle_gamma 91.065900
loop_
  _atom_site_label
  _atom_site_type_symbol
  _atom_site_fract_x
  _atom_site_fract_y
  _atom_site_fract_z
N1 N 0.20480 0.19990 0.20089
 N2 N -0.20284 0.78531 0.20302
 N3 N -0.23962 0.20703 -0.22152
 N4 N 0.22391 0.82300 -0.20445
 N5 N 0.21940 1.19438 0.78660
 N6 N 0.80294 0.81364 0.82681
 N7 N 0.22027 0.80354 1.21349
 N8 N 0.80117 1.17077 1.19004
 N9 N 0.55263 1.14465 0.94840
 N10 N 0.59711 1.19379 0.94206
 N11 N 0.42548 1.07818 0.90486
 N12 N 0.37914 1.08879 0.86313
 N13 N 0.42361 1.12472 0.95484
 N14 N 0.37629 1.16770 0.94916
 N15 N 0.55469 1.09824 0.89840
 N16 N 0.60037 1.11410 0.85660
 C17 C 0.62578 1.17387 0.88429
 C18 C 0.34888 1.14436 0.89240
 N19 N 0.45134 0.87223 0.93699
 N20 N 0.40560 0.82438 0.93175
 N21 N 0.57277 0.94662 0.88782
 N22 N 0.61862 0.94883 0.84306
 N23 N 0.58149 0.89564 0.93161
 N24 N 0.63343 0.86158 0.91749
 N25 N 0.44333 0.92480 0.89480
 N26 N 0.39250 0.91421 0.85961
 Mn27 Mn 0.49881 1.01180 0.89572
 C28 C 0.37002 0.85121 0.88287
 C29 C 0.65574 0.89533 0.86196
 N30 N 0.42831 1.11665 1.09732
 N31 N 0.37655 1.15143 1.10873
 N32 N 0.56429 1.08529 1.13567
 N33 N 0.61834 1.09282 1.16612
 N34 N 0.55726 1.13697 1.09238
 N35 N 0.60541 1.18142 1.09288
 N36 N 0.43410 1.06453 1.14018
 N37 N 0.38667 1.06232 1.18253
 Mn38 Mn 0.49054 1.13137 1.02339
 C39 C 0.35170 1.11682 1.16207
 C40 C 0.64241 1.15387 1.13963
 N41 N 0.58548 0.88712 1.07888
 N42 N 0.63587 0.84893 1.08896
 N43 N 0.44863 0.91186 1.13005
 N44 N 0.39693 0.89923 1.16489
 N45 N 0.45477 0.86427 1.08123
 N46 N 0.40749 0.81815 1.08171
 N47 N 0.57841 0.93407 1.12791
 N48 N 0.62314 0.93007 1.17194
 Mn49 Mn 0.51885 0.87874 1.00706
 Mn50 Mn 0.50615 0.99885 1.13417
 Cl51 Cl 0.50371 1.00496 1.01496
 C52 C 0.65858 0.87749 1.14718
 C53 C 0.37245 0.84002 1.13453
 N54 N 0.08161 0.42919 0.09656
 N55 N 0.09725 0.37505 0.13473
 N56 N 0.10628 0.58687 0.05935
 N57 N 0.14378 0.64059 0.07835
 N58 N 0.06154 0.57809 0.10432
 N59 N 0.06695 0.62497 0.15411
 N60 N 0.12245 0.43780 0.04762
 N61 N 0.16713 0.39084 0.05125
 C62 C 0.15073 0.35228 0.10557
 C63 C 0.11776 0.66403 0.13725
 N64 N 0.05907 0.58926 -0.13216
 N65 N 0.06591 0.64151 -0.17589
 N66 N 0.11800 0.44221 -0.09869
 N67 N 0.15650 0.38863 -0.11102
 N68 N 0.07379 0.44127 -0.14384
 N69 N 0.08084 0.38871 -0.18764
 N70 N 0.10335 0.59290 -0.08724
 N71 N 0.14143 0.64758 -0.09906
 Mn72 Mn 0.11348 0.51494 -0.01986
 C73 C 0.11687 0.67757 -0.15390
 C74 C 0.13244 0.35670 -0.16728
 N75 N -0.07239 0.55307 0.10534
 N76 N -0.08873 0.60786 0.14437
 N77 N -0.09364 0.39543 0.05436
 N78 N -0.12900 0.33876 0.06843
 N79 N -0.04998 0.40391 0.09949
 N80 N -0.05310 0.35263 0.14427
 N81 N -0.11546 0.54054 0.06045
 N82 N -0.16205 0.58404 0.06754
 Mn83 Mn 0.00518 0.49149 0.10227
 C84 C -0.14509 0.62542 0.11935
 C85 C -0.10211 0.31254 0.12409
 N86 N -0.05786 0.41731 -0.14004
 N87 N -0.07050 0.37428 -0.19156
 N88 N -0.11657 0.55253 -0.08122
 N89 N -0.15023 0.60997 -0.07064
 N90 N -0.07402 0.56595 -0.12748
 N91 N -0.07807 0.63229 -0.14881
 N92 N -0.09654 0.40434 -0.09008
 N93 N -0.13661 0.35323 -0.10577
 Mn94 Mn 0.00021 0.50379 -0.13641
 Mn95 Mn -0.10565 0.47253 -0.01440
 Cl96 Cl 0.00365 0.49581 -0.01691
 C97 C -0.11915 0.33445 -0.16843
 C98 C -0.12729 0.65832 -0.11462
 N99 N 0.92061 -0.12132 0.58635
 N100 N 0.91907 -0.14564 0.64877
 N101 N 0.87962 -0.09098 0.43859
 N102 N 0.84527 -0.10487 0.38530
 N103 N 0.92244 -0.13938 0.44481
 N104 N 0.91879 -0.18757 0.39632
 N105 N 0.87639 -0.07457 0.57887
 N106 N 0.84395 -0.06684 0.63497
 C107 C 0.86915 -0.11321 0.67764
 C108 C 0.87047 -0.16552 0.36038
 N109 N 0.92254 0.11332 0.42227
 N110 N 0.92547 0.14024 0.36120
 N111 N 0.87696 0.07780 0.56520
 N112 N 0.83611 0.09384 0.61258
 N113 N 0.92150 0.12647 0.56299
 N114 N 0.91264 0.17728 0.60806
 N115 N 0.87990 0.06215 0.42487
 N116 N 0.85280 0.05364 0.36607
 Mn117 Mn 0.87755 -0.00650 0.50163
 C118 C 0.88021 0.10438 0.32763
 C119 C 0.85951 0.15594 0.63813
 N120 N 1.05603 -0.13617 0.44013
 N121 N 1.06323 -0.18428 0.39112
 N122 N 1.09992 -0.07205 0.57642
 N123 N 1.14061 -0.07929 0.62509
 N124 N 1.05530 -0.12059 0.58178
 N125 N 1.06412 -0.16223 0.63351
 N126 N 1.09846 -0.08483 0.43468
 N127 N 1.13560 -0.09681 0.38253
 Mn128 Mn 0.98854 -0.13028 0.51363
 C129 C 1.11313 -0.15896 0.35579
 C130 C 1.11697 -0.13561 0.66001
 N131 N 1.05514 0.12972 0.56523
 N132 N 1.06296 0.17757 0.61422
 N133 N 1.09790 0.07112 0.42450
 N134 N 1.13641 0.08274 0.37315
 N135 N 1.05386 0.11865 0.42495
 N136 N 1.06014 0.16318 0.37493
 N137 N 1.09912 0.08186 0.56635
 N138 N 1.13779 0.09550 0.61611
 Mn139 Mn 0.98816 0.12259 0.49428
 Mn140 Mn 1.09981 -0.00105 0.50017
 Cl141 Cl 0.98874 -0.00399 0.50251
 C142 C 1.11473 0.15534 0.64525
 C143 C 1.11104 0.14021 0.34315
 N144 N 1.18478 0.16005 0.25647
 N145 N 1.13464 0.17625 0.28588
 N146 N 0.81022 -0.17712 0.26259
 N147 N 0.85280 -0.19988 0.29973
 N148 N 0.78394 0.17197 0.72138
 N149 N 0.83379 0.19325 0.69338
 N150 N 1.19648 -0.14445 0.74006
 N151 N 1.14505 -0.16682 0.71668
 N152 N 0.26153 1.18413 1.16987
 N153 N 0.29402 1.13400 1.19234
 N154 N 0.28145 0.85033 0.81686
 N155 N 0.31228 0.82020 0.86230
 N156 N 0.74597 0.80321 1.16370
 N157 N 0.71210 0.85485 1.18213
 N158 N 0.70468 1.18066 0.80556
 N159 N 0.68088 1.20677 0.85884
 N160 N 0.16907 0.25692 0.17851
 N161 N 0.18643 0.29403 0.12848
 N162 N -0.20463 0.25876 -0.18568
 N163 N -0.15329 0.28418 -0.20789
 N164 N 0.19594 0.76464 -0.17044
 N165 N 0.14432 0.73681 -0.18847
 N166 N -0.16533 0.72750 0.18529
 N167 N -0.18162 0.68446 0.13923
 N168 N 1.19000 0.16493 0.72924
 N169 N 1.14140 0.19005 0.70315
 N170 N 0.83179 -0.14467 0.78533
 N171 N 0.86181 -0.10356 0.74875
 N172 N 1.18860 -0.16721 0.26994
 N173 N 1.13978 -0.19395 0.29738
 N174 N 0.83987 0.13544 0.22466
 N175 N 0.87814 0.10169 0.25619
 N176 N 0.19938 0.25705 -0.17954
 N177 N 0.15464 0.29355 -0.20057
 N178 N -0.17955 0.22793 0.15561
 N179 N -0.12425 0.25210 0.16081
 N180 N -0.16468 0.77103 -0.13863
 N181 N -0.13362 0.73292 -0.10263
 N182 N 0.19548 0.74888 0.17107
 N183 N 0.14230 0.71983 0.18053
 N184 N 0.27064 1.15808 0.81134
 N185 N 0.29636 1.17883 0.86542
 N186 N 0.27910 0.83350 1.19809
 N187 N 0.31297 0.80865 1.15077
 N188 N 0.74303 1.14665 1.18475
 N189 N 0.70425 1.17969 1.14948
 N190 N 0.74668 0.82892 0.85094
 N191 N 0.71408 0.87991 0.82976
   
