data_POSCAR
  _audit_creation_date              2014-09-24
  _audit_creation_method            'ToBaCCo'
  _symmetry_space_group_name_H-M    'P1'
  _symmetry_Int_Tables_number       1
  _symmetry_cell_setting            triclinic
  loop_
  _symmetry_equiv_pos_as_xyz
 x,y,z
_cell_length_a 42.5111
_cell_length_b 42.4933
_cell_length_c 56.3096
_cell_angle_alpha 90.014700
_cell_angle_beta 90.040600
_cell_angle_gamma 89.440500
loop_
  _atom_site_label
  _atom_site_type_symbol
  _atom_site_fract_x
  _atom_site_fract_y
  _atom_site_fract_z
C1 C 1.20606 0.26018 0.28522
 H2 H 1.20603 0.23473 0.28575
 C3 C 1.18792 0.27738 0.30140
 H4 H 1.17407 0.26494 0.31444
 C5 C 1.22549 0.30718 0.26828
 H6 H 1.24063 0.31871 0.25566
 C7 C 1.20775 0.32531 0.28415
 H8 H 1.20895 0.35072 0.28322
 N9 N 1.22426 0.27522 0.26904
 C10 C 1.24149 0.20645 0.21298
 H11 H 1.26693 0.20665 0.21275
 C12 C 1.22516 0.18817 0.19660
 H13 H 1.23828 0.17394 0.18402
 C14 C 1.19364 0.22504 0.22968
 H15 H 1.18146 0.24000 0.24224
 C16 C 1.17634 0.20709 0.21358
 H17 H 1.15090 0.20846 0.21395
 Zn18 Zn 1.25012 0.25008 0.24917
 N19 N 1.22563 0.22432 0.22912
 C20 C 1.27477 0.19328 0.26872
 N21 N 1.27589 0.22517 0.26927
 C22 C 1.29403 0.24032 0.28536
 C23 C 1.31223 0.22339 0.30167
 C24 C 1.29250 0.17530 0.28471
 C25 C 1.25895 0.29337 0.21280
 C26 C 1.27536 0.31153 0.19642
 C27 C 1.32409 0.29275 0.21368
 C28 C 1.30671 0.27491 0.22977
 N29 N 1.27472 0.27563 0.22908
 H30 H 1.25989 0.18159 0.25599
 H31 H 1.29384 0.26578 0.28582
 H32 H 1.32476 0.23707 0.31469
 H33 H 1.29153 0.15009 0.28257
 H34 H 1.23351 0.29316 0.21246
 H35 H 1.26232 0.32567 0.18373
 H36 H 1.34953 0.29140 0.21417
 H37 H 1.31882 0.26005 0.24244
 C38 C 1.19213 0.18850 0.19664
 C39 C 1.18876 0.31042 0.30109
 C40 C 1.30840 0.31122 0.19661
 C41 C 1.31179 0.19000 0.30196
 C42 C 0.70573 -0.23942 0.28445
 H43 H 0.70583 -0.26486 0.28521
 C44 C 0.68752 -0.22205 0.30048
 H45 H 0.67375 -0.23436 0.31364
 C46 C 0.72495 -0.19259 0.26709
 H47 H 0.74004 -0.18118 0.25438
 C48 C 0.70714 -0.17430 0.28281
 H49 H 0.70823 -0.14890 0.28167
 N50 N 0.72387 -0.22455 0.26815
 C51 C 0.74161 -0.29442 0.21297
 H52 H 0.76705 -0.29427 0.21284
 C53 C 0.72537 -0.31299 0.19672
 H54 H 0.73855 -0.32750 0.18436
 C55 C 0.69366 -0.27535 0.22921
 H56 H 0.68141 -0.26008 0.24152
 C57 C 0.67645 -0.29358 0.21324
 H58 H 0.65102 -0.29212 0.21346
 Zn59 Zn 0.74994 -0.24990 0.24862
 N60 N 0.72566 -0.27616 0.22881
 C61 C 0.77474 -0.30622 0.26895
 N62 N 0.77571 -0.27423 0.26910
 C63 C 0.79351 -0.25848 0.28517
 C64 C 0.81140 -0.27495 0.30193
 C65 C 0.79229 -0.32364 0.28540
 C66 C 0.75868 -0.20721 0.21185
 C67 C 0.77506 -0.18907 0.19544
 C68 C 0.82381 -0.20714 0.21308
 C69 C 0.80646 -0.22497 0.22920
 N70 N 0.77448 -0.22457 0.22835
 H71 H 0.75980 -0.31831 0.25648
 H72 H 0.79347 -0.23302 0.28511
 H73 H 0.82552 -0.26195 0.31449
 H74 H 0.79067 -0.34905 0.28536
 H75 H 0.73325 -0.20765 0.21141
 H76 H 0.76198 -0.17520 0.18260
 H77 H 0.84926 -0.20819 0.21372
 H78 H 0.81861 -0.23953 0.24205
 C79 C 0.69233 -0.31255 0.19659
 C80 C 0.68823 -0.18902 0.29989
 C81 C 0.80809 -0.18901 0.19582
 C82 C 0.81075 -0.30799 0.30231
 C83 C 0.70644 0.26007 -0.21542
 H84 H 0.70642 0.23461 -0.21498
 C85 C 0.68832 0.27716 -0.19917
 H86 H 0.67449 0.26464 -0.18616
 C87 C 0.72581 0.30717 -0.23223
 H88 H 0.74091 0.31879 -0.24482
 C89 C 0.70809 0.32520 -0.21627
 H90 H 0.70926 0.35061 -0.21713
 N91 N 0.72460 0.27520 -0.23157
 C92 C 0.74140 0.20679 -0.28797
 H93 H 0.76685 0.20696 -0.28830
 C94 C 0.72494 0.18859 -0.30432
 H95 H 0.73795 0.17438 -0.31698
 C96 C 0.69370 0.22537 -0.27104
 H97 H 0.68162 0.24029 -0.25839
 C98 C 0.67626 0.20750 -0.28710
 H99 H 0.65083 0.20888 -0.28662
 Zn100 Zn 0.75034 0.25019 -0.25164
 N101 N 0.72568 0.22461 -0.27172
 C102 C 0.77489 0.19311 -0.23243
 N103 N 0.77618 0.22507 -0.23171
 C104 C 0.79442 0.24011 -0.21553
 C105 C 0.81250 0.22292 -0.19929
 C106 C 0.79257 0.17499 -0.21650
 C107 C 0.75906 0.29374 -0.28781
 C108 C 0.77530 0.31217 -0.30411
 C109 C 0.82408 0.29340 -0.28706
 C110 C 0.80675 0.27533 -0.27109
 N111 N 0.77484 0.27590 -0.27169
 H112 H 0.75974 0.18156 -0.24505
 H113 H 0.79450 0.26556 -0.21503
 H114 H 0.82637 0.23537 -0.18625
 H115 H 0.79132 0.14958 -0.21740
 H116 H 0.73361 0.29368 -0.28794
 H117 H 0.76113 0.32691 -0.31557
 H118 H 0.84932 0.29055 -0.28637
 H119 H 0.81892 0.26024 -0.25860
 C120 C 0.69190 0.18894 -0.30414
 C121 C 0.68912 0.31020 -0.19937
 C122 C 0.80868 0.31234 -0.30439
 C123 C 0.81158 0.18988 -0.19955
 C124 C 1.20593 -0.23900 -0.21534
 H125 H 1.20602 -0.26444 -0.21464
 C126 C 1.18776 -0.22169 -0.19925
 H127 H 1.17399 -0.23405 -0.18611
 C128 C 1.22518 -0.19210 -0.23258
 H129 H 1.24027 -0.18065 -0.24526
 C130 C 1.20740 -0.17387 -0.21679
 H131 H 1.20852 -0.14847 -0.21786
 N132 N 1.22408 -0.22406 -0.23161
 C133 C 1.24183 -0.29366 -0.28697
 H134 H 1.26727 -0.29346 -0.28710
 C135 C 1.22562 -0.31222 -0.30323
 H136 H 1.23883 -0.32666 -0.31563
 C137 C 1.19386 -0.27479 -0.27065
 H138 H 1.18158 -0.25960 -0.25829
 C139 C 1.17668 -0.29301 -0.28664
 H140 H 1.15123 -0.29162 -0.28639
 Zn141 Zn 1.25013 -0.24934 -0.25121
 N142 N 1.22585 -0.27551 -0.27107
 C143 C 1.27490 -0.30577 -0.23105
 N144 N 1.27589 -0.27378 -0.23080
 C145 C 1.29374 -0.25813 -0.21471
 C146 C 1.31166 -0.27470 -0.19803
 C147 C 1.29248 -0.32329 -0.21468
 C148 C 1.25889 -0.20651 -0.28787
 C149 C 1.27527 -0.18839 -0.30429
 C150 C 1.32402 -0.20664 -0.28673
 C151 C 1.30666 -0.22444 -0.27061
 N152 N 1.27468 -0.22395 -0.27142
 H153 H 1.25992 -0.31777 -0.24354
 H154 H 1.29372 -0.23266 -0.21469
 H155 H 1.32583 -0.26178 -0.18544
 H156 H 1.29084 -0.34870 -0.21480
 H157 H 1.23345 -0.20689 -0.28829
 H158 H 1.26221 -0.17447 -0.31710
 H159 H 1.34946 -0.20778 -0.28614
 H160 H 1.31879 -0.23907 -0.25779
 C161 C 1.19258 -0.31188 -0.30334
 C162 C 1.18851 -0.18866 -0.19974
 C163 C 1.30831 -0.18844 -0.30396
 C164 C 1.31100 -0.30774 -0.19776
 C165 C 0.26005 0.20567 0.71466
 H166 H 0.23461 0.20561 0.71406
 C167 C 0.27733 0.18782 0.69834
 H168 H 0.26495 0.17416 0.68514
 C169 C 0.30694 0.22489 0.73194
 H170 H 0.31841 0.23981 0.74475
 C171 C 0.32514 0.20743 0.71592
 H172 H 0.35054 0.20863 0.71695
 N173 N 0.27500 0.22361 0.73108
 C174 C 0.20619 0.23911 0.78731
 H175 H 0.20656 0.26455 0.78813
 C176 C 0.18770 0.22230 0.80324
 H177 H 0.17482 0.23562 0.81645
 C178 C 0.22503 0.19191 0.76995
 H179 H 0.23984 0.18014 0.75708
 C180 C 0.20697 0.17406 0.78559
 H181 H 0.20761 0.14878 0.78350
 Zn182 Zn 0.24970 0.24893 0.75123
 N183 N 0.22420 0.22383 0.77101
 C184 C 0.19252 0.27331 0.73208
 N185 N 0.22446 0.27474 0.73138
 C186 C 0.23942 0.29316 0.71529
 C187 C 0.22215 0.31131 0.69915
 C188 C 0.17433 0.29105 0.71624
 C189 C 0.29300 0.25779 0.78766
 C190 C 0.31112 0.27425 0.80407
 C191 C 0.29184 0.32296 0.78709
 C192 C 0.27405 0.30553 0.77097
 N193 N 0.27505 0.27353 0.77150
 H194 H 0.18105 0.25802 0.74462
 H195 H 0.26485 0.29336 0.71481
 H196 H 0.23453 0.32534 0.68618
 H197 H 0.14894 0.28969 0.71712
 H198 H 0.29302 0.23233 0.78787
 H199 H 0.32545 0.26123 0.81665
 H200 H 0.29029 0.34840 0.78671
 H201 H 0.25904 0.31762 0.75839
 C202 C 0.18779 0.18904 0.80280
 C203 C 0.31034 0.18867 0.69877
 C204 C 0.31056 0.30730 0.80402
 C205 C 0.18913 0.31026 0.69940
 C206 C 0.75958 0.70567 0.71537
 H207 H 0.73415 0.70549 0.71479
 C208 C 0.77693 0.68764 0.69921
 H209 H 0.76461 0.67371 0.68613
 C210 C 0.80640 0.72540 0.73243
 H211 H 0.81781 0.74061 0.74508
 C212 C 0.82467 0.70778 0.71657
 H213 H 0.85005 0.70913 0.71756
 N214 N 0.77446 0.72398 0.73160
 C215 C 0.70555 0.74085 0.78753
 H216 H 0.70554 0.76632 0.78769
 C217 C 0.68722 0.72450 0.80383
 H218 H 0.67249 0.73822 0.81564
 C219 C 0.72425 0.69316 0.77085
 H220 H 0.73937 0.68104 0.75837
 C221 C 0.70625 0.67576 0.78683
 H222 H 0.70869 0.65043 0.78629
 Zn223 Zn 0.74916 0.74973 0.75144
 N224 N 0.72350 0.72511 0.77144
 C225 C 0.69219 0.77400 0.73188
 N226 N 0.72413 0.77537 0.73131
 C227 C 0.73924 0.79357 0.71516
 C228 C 0.72213 0.81156 0.69882
 C229 C 0.67414 0.79158 0.71584
 C230 C 0.79232 0.75874 0.78789
 C231 C 0.81048 0.77522 0.80426
 C232 C 0.79170 0.82391 0.78693
 C233 C 0.77386 0.80646 0.77086
 N234 N 0.77458 0.77446 0.77158
 H235 H 0.68059 0.75887 0.74447
 H236 H 0.76468 0.79371 0.71478
 H237 H 0.73463 0.82541 0.68581
 H238 H 0.64874 0.79028 0.71663
 H239 H 0.79213 0.73329 0.78825
 H240 H 0.82463 0.76221 0.81696
 H241 H 0.79037 0.84936 0.78641
 H242 H 0.75901 0.81853 0.75815
 C243 C 0.68736 0.69123 0.80399
 C244 C 0.80994 0.68870 0.69958
 C245 C 0.81019 0.80827 0.80403
 C246 C 0.68911 0.81057 0.69893
 C247 C 0.76129 0.20579 0.21544
 H248 H 0.73585 0.20544 0.21498
 C249 C 0.77861 0.18774 0.19927
 H250 H 0.76626 0.17362 0.18633
 C251 C 0.80812 0.22601 0.23214
 H252 H 0.81954 0.24141 0.24465
 C253 C 0.82636 0.20837 0.21627
 H254 H 0.85174 0.20992 0.21711
 N255 N 0.77619 0.22436 0.23148
 C256 C 0.70772 0.24142 0.28773
 H257 H 0.70767 0.26688 0.28787
 C258 C 0.68959 0.22502 0.30414
 H259 H 0.67523 0.23809 0.31666
 C260 C 0.72669 0.19361 0.27116
 H261 H 0.74170 0.18148 0.25861
 C262 C 0.70890 0.17624 0.28728
 H263 H 0.71045 0.15080 0.28696
 Zn264 Zn 0.75087 0.25017 0.25124
 N265 N 0.72567 0.22561 0.27161
 C266 C 0.69347 0.27393 0.23196
 N267 N 0.72541 0.27523 0.23103
 C268 C 0.74025 0.29311 0.21453
 C269 C 0.72287 0.31093 0.19826
 C270 C 0.67517 0.29136 0.21599
 C271 C 0.79439 0.26056 0.28734
 C272 C 0.81271 0.27774 0.30320
 C273 C 0.79312 0.32567 0.28518
 C274 C 0.77517 0.30754 0.26963
 N275 N 0.77626 0.27559 0.27091
 H276 H 0.68209 0.25905 0.24483
 H277 H 0.76568 0.29319 0.21388
 H278 H 0.73516 0.32458 0.18502
 H279 H 0.64978 0.29018 0.21709
 H280 H 0.79433 0.23513 0.28825
 H281 H 0.82655 0.26530 0.31641
 H282 H 0.79212 0.35107 0.28381
 H283 H 0.76013 0.31908 0.25679
 C284 C 0.69015 0.19197 0.30415
 C285 C 0.81161 0.18904 0.19945
 C286 C 0.81215 0.31076 0.30230
 C287 C 0.68986 0.31011 0.19880
 C288 C 0.26007 0.70646 0.21477
 H289 H 0.23463 0.70645 0.21417
 C290 C 0.27731 0.68858 0.19845
 H291 H 0.26490 0.67495 0.18523
 C292 C 0.30700 0.72553 0.23207
 H293 H 0.31850 0.74040 0.24491
 C294 C 0.32516 0.70804 0.21606
 H295 H 0.35056 0.70916 0.21710
 N296 N 0.27505 0.72433 0.23122
 C297 C 0.20626 0.73949 0.28761
 H298 H 0.20641 0.76493 0.28846
 C299 C 0.18793 0.72245 0.30352
 H300 H 0.17417 0.73499 0.31671
 C301 C 0.22526 0.69237 0.26999
 H302 H 0.24022 0.68073 0.25716
 C303 C 0.20729 0.67438 0.28560
 H304 H 0.20820 0.64896 0.28428
 Zn305 Zn 0.24977 0.74959 0.25146
 N306 N 0.22430 0.72434 0.27119
 C307 C 0.19257 0.77406 0.23234
 N308 N 0.22451 0.77551 0.23167
 C309 C 0.23948 0.79397 0.21562
 C310 C 0.22223 0.81210 0.19945
 C311 C 0.17439 0.79178 0.21646
 C312 C 0.29315 0.75836 0.28785
 C313 C 0.31146 0.77467 0.30422
 C314 C 0.29229 0.82341 0.28736
 C315 C 0.27434 0.80601 0.27132
 N316 N 0.27519 0.77409 0.27179
 H317 H 0.18109 0.75874 0.24486
 H318 H 0.26492 0.79418 0.21515
 H319 H 0.23463 0.82614 0.18650
 H320 H 0.14900 0.79039 0.21731
 H321 H 0.29330 0.73289 0.28788
 H322 H 0.32633 0.76055 0.31563
 H323 H 0.28924 0.84864 0.28675
 H324 H 0.25915 0.81814 0.25888
 C325 C 0.18836 0.68941 0.30270
 C326 C 0.31033 0.68932 0.19889
 C327 C 0.31141 0.80807 0.30460
 C328 C 0.18921 0.81101 0.19964
 O329 O 1.06001 0.03613 0.01626
 O330 O 0.94053 -0.03580 0.01625
 O331 O 0.96379 0.06022 0.01630
 O332 O 1.03675 -0.05989 0.01657
 O333 O 0.94642 0.01699 0.02933
 O334 O 1.05407 -0.01659 0.02953
 O335 O 0.98386 -0.05340 0.02954
 O336 O 1.01668 0.05385 0.02941
 C337 C 1.04511 0.04963 0.03248
 C338 C 0.95540 -0.04923 0.03252
 C339 C 0.95045 0.04536 0.03248
 C340 C 1.05009 -0.04497 0.03273
 O341 O 1.06010 -0.03694 -0.01630
 O342 O 0.94047 0.03706 -0.01657
 O343 O 1.03661 0.05951 -0.01657
 O344 O 0.96400 -0.05939 -0.01645
 O345 O 0.94658 -0.01592 -0.02968
 O346 O 1.05407 0.01594 -0.02958
 O347 O 1.01678 -0.05390 -0.02943
 O348 O 0.98381 0.05400 -0.02963
 Co349 Co 1.05162 -0.00032 -0.00003
 Co350 Co 0.94895 0.00054 -0.00016
 Co351 Co 1.00023 0.05146 -0.00011
 Co352 Co 1.00035 -0.05121 0.00005
 O353 O 1.00029 0.00012 -0.00006
 C354 C 1.04518 -0.05011 -0.03254
 C355 C 0.95540 0.05027 -0.03276
 C356 C 1.04996 0.04439 -0.03276
 C357 C 0.95060 -0.04441 -0.03269
 O358 O 1.05982 0.53589 0.51650
 O359 O 0.94014 0.46396 0.51665
 O360 O 0.96367 0.55998 0.51712
 O361 O 1.03631 0.43989 0.51686
 O362 O 0.94624 0.51667 0.53002
 O363 O 1.05387 0.48314 0.52979
 O364 O 0.98346 0.44630 0.52986
 O365 O 1.01661 0.55349 0.52991
 C366 C 1.04507 0.54928 0.53284
 C367 C 0.95502 0.45047 0.53289
 C368 C 0.95028 0.54504 0.53325
 C369 C 1.04977 0.45478 0.53299
 O370 O 1.05970 0.46283 0.48399
 O371 O 0.94003 0.53713 0.48428
 O372 O 1.03617 0.55933 0.48380
 O373 O 0.96355 0.44065 0.48381
 O374 O 0.94604 0.48425 0.47087
 O375 O 1.05358 0.51576 0.47071
 O376 O 1.01634 0.44603 0.47085
 O377 O 0.98329 0.55394 0.47102
 Co378 Co 1.05128 0.49946 0.50026
 Co379 Co 0.94858 0.50045 0.50045
 Co380 Co 0.99993 0.55126 0.50046
 Co381 Co 0.99992 0.44863 0.50035
 O382 O 0.99993 0.49995 0.50038
 C383 C 1.04476 0.44969 0.46775
 C384 C 0.95483 0.55035 0.46804
 C385 C 1.04951 0.54423 0.46759
 C386 C 0.95017 0.45581 0.46765
 O387 O 0.55941 0.03586 0.51608
 O388 O 0.44032 -0.03621 0.51592
 O389 O 0.46309 0.05984 0.51584
 O390 O 0.53663 -0.06021 0.51585
 O391 O 0.44595 0.01658 0.52890
 O392 O 0.55368 -0.01694 0.52901
 O393 O 0.48375 -0.05387 0.52906
 O394 O 0.51597 0.05353 0.52916
 C395 C 0.54442 0.04934 0.53227
 C396 C 0.45531 -0.04964 0.53215
 C397 C 0.44980 0.04498 0.53203
 C398 C 0.54989 -0.04536 0.53208
 O399 O 0.55970 -0.03686 0.48301
 O400 O 0.44002 0.03654 0.48292
 O401 O 0.53611 0.05950 0.48332
 O402 O 0.46365 -0.05983 0.48319
 O403 O 0.44622 -0.01643 0.46990
 O404 O 0.55355 0.01610 0.47005
 O405 O 0.51638 -0.05406 0.47001
 O406 O 0.48337 0.05380 0.47004
 Co407 Co 0.55116 -0.00044 0.49953
 Co408 Co 0.44856 0.00010 0.49941
 Co409 Co 0.49965 0.05120 0.49959
 Co410 Co 0.50008 -0.05153 0.49953
 O411 O 0.49986 -0.00017 0.49952
 C412 C 0.54474 -0.05010 0.46682
 C413 C 0.45499 0.04992 0.46681
 C414 C 0.54955 0.04459 0.46708
 C415 C 0.45024 -0.04493 0.46692
 O416 O 0.55976 0.53546 0.01630
 O417 O 0.44047 0.46352 0.01649
 O418 O 0.46352 0.55955 0.01651
 O419 O 0.53672 0.43945 0.01628
 O420 O 0.44632 0.51630 0.02959
 O421 O 0.55400 0.48269 0.02935
 O422 O 0.48390 0.44579 0.02954
 O423 O 0.51645 0.55310 0.02958
 C424 C 0.54490 0.54885 0.03259
 C425 C 0.45547 0.45003 0.03268
 C426 C 0.45021 0.54470 0.03270
 C427 C 0.55006 0.45430 0.03247
 O428 O 0.55981 0.46265 -0.01660
 O429 O 0.44015 0.53638 -0.01633
 O430 O 0.53626 0.55904 -0.01638
 O431 O 0.46370 0.43998 -0.01632
 O432 O 0.44619 0.48344 -0.02946
 O433 O 0.55361 0.51560 -0.02966
 O434 O 0.51643 0.44558 -0.02957
 O435 O 0.48344 0.55347 -0.02941
 Co436 Co 0.55136 0.49914 -0.00015
 Co437 Co 0.44872 0.49987 0.00006
 Co438 Co 0.49993 0.55084 0.00007
 Co439 Co 0.50018 0.44814 -0.00001
 O440 O 0.50005 0.49950 -0.00001
 C441 C 0.54482 0.44939 -0.03276
 C442 C 0.45502 0.54972 -0.03250
 C443 C 0.54954 0.54408 -0.03267
 C444 C 0.45024 0.45496 -0.03253
 C445 C 1.14055 0.13646 0.14421
 C446 C 1.16810 0.15212 0.13791
 C447 C 1.18489 0.16892 0.15497
 C448 C 1.17434 0.17030 0.17864
 C449 C 1.14660 0.15445 0.18482
 C450 C 1.12983 0.13762 0.16770
 C451 C 1.12320 0.11967 0.12637
 C452 C 1.10907 0.10606 0.11097
 C453 C 1.09266 0.09042 0.09206
 C454 C 1.10942 0.07207 0.07566
 C455 C 1.09387 0.05836 0.05644
 C456 C 1.06131 0.06293 0.05337
 C457 C 1.04452 0.08088 0.07021
 C458 C 1.06014 0.09459 0.08941
 H459 H 1.17651 0.15151 0.11976
 H460 H 1.20584 0.18128 0.14954
 H461 H 1.13806 0.15482 0.20293
 H462 H 1.10852 0.12557 0.17276
 H463 H 1.13460 0.06872 0.07753
 H464 H 1.10736 0.04450 0.04384
 H465 H 1.01941 0.08472 0.06836
 H466 H 1.04695 0.10880 0.10198
 C467 C 1.14119 0.63561 0.64441
 C468 C 1.16887 0.65105 0.63812
 C469 C 1.18562 0.66797 0.65513
 C470 C 1.17492 0.66968 0.67874
 C471 C 1.14708 0.65401 0.68493
 C472 C 1.13034 0.63707 0.66785
 C473 C 1.12380 0.61883 0.62660
 C474 C 1.10960 0.60526 0.61122
 C475 C 1.09305 0.58970 0.59234
 C476 C 1.10971 0.57148 0.57580
 C477 C 1.09401 0.55789 0.55660
 C478 C 1.06143 0.56245 0.55370
 C479 C 1.04475 0.58026 0.57069
 C480 C 1.06052 0.59385 0.58986
 H481 H 1.17738 0.65023 0.61999
 H482 H 1.20666 0.68019 0.64970
 H483 H 1.13842 0.65462 0.70301
 H484 H 1.10893 0.62519 0.67291
 H485 H 1.13491 0.56815 0.57754
 H486 H 1.10742 0.54414 0.54388
 H487 H 1.01962 0.58408 0.56897
 H488 H 1.04741 0.60796 0.60255
 C489 C 0.63990 0.13687 0.64367
 C490 C 0.66740 0.15253 0.63725
 C491 C 0.68431 0.16936 0.65423
 C492 C 0.67395 0.17076 0.67794
 C493 C 0.64626 0.15492 0.68425
 C494 C 0.62936 0.13806 0.66721
 C495 C 0.62247 0.11999 0.62593
 C496 C 0.60830 0.10628 0.61060
 C497 C 0.59187 0.09049 0.59176
 C498 C 0.60864 0.07199 0.57545
 C499 C 0.59311 0.05815 0.55628
 C500 C 0.56056 0.06272 0.55316
 C501 C 0.54375 0.08080 0.56992
 C502 C 0.55936 0.09465 0.58907
 H503 H 0.67569 0.15190 0.61906
 H504 H 0.70523 0.18171 0.64870
 H505 H 0.63786 0.15529 0.70240
 H506 H 0.60810 0.12600 0.67237
 H507 H 0.63382 0.06865 0.57736
 H508 H 0.60662 0.04420 0.54375
 H509 H 0.51864 0.08464 0.56802
 H510 H 0.54616 0.10896 0.60157
 C511 C 0.64081 0.63507 0.14433
 C512 C 0.66856 0.65038 0.13806
 C513 C 0.68536 0.66724 0.15507
 C514 C 0.67463 0.66904 0.17867
 C515 C 0.64671 0.65349 0.18485
 C516 C 0.62992 0.63660 0.16777
 C517 C 0.62338 0.61832 0.12652
 C518 C 0.60917 0.60478 0.11113
 C519 C 0.59266 0.58924 0.09222
 C520 C 0.60935 0.57092 0.07575
 C521 C 0.59371 0.55734 0.05652
 C522 C 0.56116 0.56201 0.05351
 C523 C 0.54445 0.57991 0.07042
 C524 C 0.56015 0.59349 0.08963
 H525 H 0.67710 0.64949 0.11994
 H526 H 0.70646 0.67936 0.14965
 H527 H 0.63802 0.65417 0.20291
 H528 H 0.60846 0.62482 0.17281
 H529 H 0.63453 0.56751 0.07758
 H530 H 0.60715 0.54352 0.04387
 H531 H 0.51934 0.58381 0.06861
 H532 H 0.54702 0.60768 0.10225
 C533 C 0.85978 -0.13675 0.14367
 C534 C 0.83261 -0.15292 0.13715
 C535 C 0.81580 -0.16983 0.15411
 C536 C 0.82594 -0.17080 0.17790
 C537 C 0.85331 -0.15445 0.18430
 C538 C 0.87011 -0.13751 0.16728
 C539 C 0.87713 -0.11980 0.12595
 C540 C 0.89127 -0.10605 0.11065
 C541 C 0.90773 -0.09026 0.09186
 C542 C 0.89097 -0.07192 0.07543
 C543 C 0.90658 -0.05811 0.05630
 C544 C 0.93916 -0.06256 0.05336
 C545 C 0.95594 -0.08048 0.07024
 C546 C 0.94027 -0.09430 0.08934
 H547 H 0.82450 -0.15262 0.11890
 H548 H 0.79513 -0.18256 0.14853
 H549 H 0.86153 -0.15449 0.20251
 H550 H 0.89112 -0.12506 0.17251
 H551 H 0.86577 -0.06868 0.07721
 H552 H 0.89309 -0.04428 0.04367
 H553 H 0.98107 -0.08422 0.06847
 H554 H 0.95345 -0.10849 0.10194
 C555 C 0.85947 0.36409 0.64470
 C556 C 0.82777 0.35758 0.64105
 C557 C 0.81082 0.34067 0.65793
 C558 C 0.82518 0.32957 0.67920
 C559 C 0.85748 0.33686 0.68247
 C560 C 0.87424 0.35382 0.66545
 C561 C 0.87687 0.38065 0.62678
 C562 C 0.89101 0.39412 0.61133
 C563 C 0.90744 0.40966 0.59239
 C564 C 0.89068 0.42801 0.57597
 C565 C 0.90625 0.44170 0.55677
 C566 C 0.93881 0.43714 0.55375
 C567 C 0.95559 0.41919 0.57061
 C568 C 0.93995 0.40549 0.58978
 H569 H 0.81616 0.36511 0.62484
 H570 H 0.78692 0.33511 0.65317
 H571 H 0.87008 0.33090 0.69852
 H572 H 0.89881 0.35900 0.66856
 H573 H 0.86550 0.43137 0.57782
 H574 H 0.89275 0.45556 0.54416
 H575 H 0.98070 0.41537 0.56879
 H576 H 0.95314 0.39130 0.60238
 C577 C 0.36006 -0.13651 0.64375
 C578 C 0.33280 -0.15258 0.63730
 C579 C 0.31596 -0.16937 0.65431
 C580 C 0.32617 -0.17033 0.67808
 C581 C 0.35363 -0.15408 0.68442
 C582 C 0.37045 -0.13726 0.66734
 C583 C 0.37743 -0.11969 0.62598
 C584 C 0.39155 -0.10605 0.61062
 C585 C 0.40794 -0.09037 0.59174
 C586 C 0.39114 -0.07199 0.57537
 C587 C 0.40665 -0.05829 0.55616
 C588 C 0.43919 -0.06290 0.55306
 C589 C 0.45602 -0.08085 0.56988
 C590 C 0.44044 -0.09456 0.58907
 H591 H 0.32464 -0.15229 0.61906
 H592 H 0.29523 -0.18203 0.64877
 H593 H 0.36190 -0.15411 0.70261
 H594 H 0.39154 -0.12489 0.67252
 H595 H 0.36597 -0.06863 0.57726
 H596 H 0.39312 -0.04442 0.54357
 H597 H 0.48113 -0.08471 0.56800
 H598 H 0.45366 -0.10880 0.60162
 C599 C 0.36024 0.36309 0.14431
 C600 C 0.33276 0.34735 0.13791
 C601 C 0.31589 0.33059 0.15493
 C602 C 0.32629 0.32934 0.17865
 C603 C 0.35396 0.34526 0.18493
 C604 C 0.37081 0.36205 0.16785
 C605 C 0.37764 0.37988 0.12652
 C606 C 0.39177 0.39350 0.11115
 C607 C 0.40815 0.40918 0.09227
 C608 C 0.39135 0.42764 0.07594
 C609 C 0.40685 0.44137 0.05673
 C610 C 0.43937 0.43672 0.05359
 C611 C 0.45621 0.41868 0.07036
 C612 C 0.44065 0.40494 0.08955
 H613 H 0.32446 0.34786 0.11972
 H614 H 0.29499 0.31818 0.14943
 H615 H 0.36238 0.34500 0.20308
 H616 H 0.39207 0.37416 0.17299
 H617 H 0.36619 0.43104 0.07787
 H618 H 0.39331 0.45530 0.04419
 H619 H 0.48130 0.41479 0.06845
 H620 H 0.45387 0.39065 0.10206
 C621 C 0.86254 0.13706 -0.14667
 C622 C 0.83238 0.12778 -0.15352
 C623 C 0.81597 0.14468 -0.17095
 C624 C 0.82953 0.17118 -0.18173
 C625 C 0.86001 0.18010 -0.17490
 C626 C 0.87638 0.16314 -0.15748
 C627 C 0.87886 0.12047 -0.12802
 C628 C 0.89239 0.10699 -0.11211
 C629 C 0.90843 0.09149 -0.09280
 C630 C 0.94093 0.09492 -0.09001
 C631 C 0.95632 0.08112 -0.07063
 C632 C 0.93932 0.06380 -0.05374
 C633 C 0.90676 0.06002 -0.05691
 C634 C 0.89142 0.07383 -0.07632
 H635 H 0.82137 0.10773 -0.14517
 H636 H 0.79239 0.13747 -0.17556
 H637 H 0.87123 0.20014 -0.18306
 H638 H 0.89973 0.17053 -0.15230
 H639 H 0.95432 0.10856 -0.10265
 H640 H 0.98144 0.08435 -0.06872
 H641 H 0.89311 0.04667 -0.04427
 H642 H 0.86625 0.07103 -0.07831
 C643 C 0.86097 0.63979 0.35590
 C644 C 0.84554 0.66797 0.36173
 C645 C 0.82937 0.68500 0.34429
 C646 C 0.82839 0.67407 0.32071
 C647 C 0.84400 0.64570 0.31500
 C648 C 0.86021 0.62869 0.33250
 C649 C 0.87748 0.62240 0.37403
 C650 C 0.89117 0.60838 0.38958
 C651 C 0.90739 0.59235 0.40855
 C652 C 0.89047 0.57465 0.42507
 C653 C 0.90597 0.56054 0.44427
 C654 C 0.93860 0.56407 0.44720
 C655 C 0.95551 0.58138 0.43026
 C656 C 0.93995 0.59548 0.41108
 H657 H 0.84590 0.67672 0.37980
 H658 H 0.81718 0.70647 0.34934
 H659 H 0.84395 0.63684 0.29697
 H660 H 0.87215 0.60693 0.32779
 H661 H 0.86525 0.57211 0.42328
 H662 H 0.89239 0.54720 0.45697
 H663 H 0.98068 0.58441 0.43200
 H664 H 0.95326 0.60917 0.39842
 C665 C 0.36240 0.13812 0.35348
 C666 C 0.33789 0.12411 0.34101
 C667 C 0.32132 0.14105 0.32370
 C668 C 0.32872 0.17286 0.31838
 C669 C 0.35418 0.18621 0.33114
 C670 C 0.37062 0.16907 0.34839
 C671 C 0.37862 0.12108 0.37195
 C672 C 0.39210 0.10731 0.38772
 C673 C 0.40813 0.09153 0.40690
 C674 C 0.44061 0.09502 0.40977
 C675 C 0.45597 0.08106 0.42909
 C676 C 0.43897 0.06352 0.44584
 C677 C 0.40643 0.05965 0.44258
 C678 C 0.39112 0.07361 0.42323
 H679 H 0.33112 0.10016 0.34499
 H680 H 0.30160 0.12919 0.31576
 H681 H 0.36279 0.20952 0.32747
 H682 H 0.38988 0.18005 0.35779
 H683 H 0.45399 0.10886 0.39725
 H684 H 0.48107 0.08437 0.43109
 H685 H 0.39278 0.04612 0.45512
 H686 H 0.36596 0.07078 0.42117
 C687 C 0.36131 0.63966 -0.14443
 C688 C 0.36049 0.62872 -0.16787
 C689 C 0.34426 0.64585 -0.18528
 C690 C 0.32868 0.67419 -0.17945
 C691 C 0.32972 0.68498 -0.15584
 C692 C 0.34592 0.66782 -0.13848
 C693 C 0.37782 0.62214 -0.12638
 C694 C 0.39151 0.60801 -0.11089
 C695 C 0.40771 0.59186 -0.09198
 C696 C 0.44026 0.59509 -0.08935
 C697 C 0.45578 0.58093 -0.07019
 C698 C 0.43886 0.56344 -0.05335
 C699 C 0.40626 0.55979 -0.05639
 C700 C 0.39079 0.57397 -0.07558
 H701 H 0.37240 0.60698 -0.17268
 H702 H 0.34416 0.63711 -0.20335
 H703 H 0.31756 0.70642 -0.15069
 H704 H 0.34632 0.67645 -0.12037
 H705 H 0.45356 0.60893 -0.10192
 H706 H 0.48092 0.58405 -0.06836
 H707 H 0.39267 0.54632 -0.04378
 H708 H 0.36558 0.57135 -0.07745
 C709 C 1.13764 -0.13572 -0.14697
 C710 C 1.16772 -0.12634 -0.15392
 C711 C 1.18407 -0.14325 -0.17135
 C712 C 1.17055 -0.16985 -0.18203
 C713 C 1.14013 -0.17884 -0.17513
 C714 C 1.12381 -0.16187 -0.15770
 C715 C 1.12143 -0.11922 -0.12824
 C716 C 1.10798 -0.10588 -0.11226
 C717 C 1.09200 -0.09061 -0.09285
 C718 C 1.10904 -0.07308 -0.07627
 C719 C 1.09376 -0.05953 -0.05676
 C720 C 1.06122 -0.06344 -0.05358
 C721 C 1.04419 -0.08063 -0.07055
 C722 C 1.05953 -0.09417 -0.09003
 H723 H 1.17871 -0.10623 -0.14562
 H724 H 1.20761 -0.13600 -0.17603
 H725 H 1.12895 -0.19897 -0.18322
 H726 H 1.10053 -0.16933 -0.15245
 H727 H 1.13420 -0.07019 -0.07829
 H728 H 1.10742 -0.04626 -0.04405
 H729 H 1.01909 -0.08394 -0.06862
 H730 H 1.04613 -0.10772 -0.10274
 C731 C 1.13761 0.36321 0.35382
 C732 C 1.16777 0.37254 0.34703
 C733 C 1.18423 0.35565 0.32964
 C734 C 1.17074 0.32913 0.31884
 C735 C 1.14026 0.32016 0.32560
 C736 C 1.12383 0.33710 0.34298
 C737 C 1.12125 0.37976 0.37246
 C738 C 1.10770 0.39319 0.38836
 C739 C 1.09167 0.40863 0.40768
 C740 C 1.10869 0.42622 0.42422
 C741 C 1.09337 0.43997 0.44365
 C742 C 1.06081 0.43619 0.44677
 C743 C 1.04379 0.41894 0.42983
 C744 C 1.05917 0.40520 0.41044
 H745 H 1.17873 0.39261 0.35541
 H746 H 1.20782 0.36289 0.32508
 H747 H 1.12910 0.30009 0.31742
 H748 H 1.10048 0.32968 0.34811
 H749 H 1.13386 0.42901 0.42226
 H750 H 1.10703 0.45327 0.45633
 H751 H 1.01867 0.41572 0.43172
 H752 H 1.04577 0.39161 0.39775
 C753 C 0.63723 -0.13587 0.35247
 C754 C 0.66731 -0.12649 0.34552
 C755 C 0.68371 -0.14347 0.32815
 C756 C 0.67023 -0.17014 0.31753
 C757 C 0.63980 -0.17912 0.32444
 C758 C 0.62344 -0.16209 0.34180
 C759 C 0.62098 -0.11930 0.37115
 C760 C 0.60751 -0.10591 0.38710
 C761 C 0.59152 -0.09058 0.40648
 C762 C 0.60854 -0.07290 0.42297
 C763 C 0.59326 -0.05933 0.44249
 C764 C 0.56075 -0.06338 0.44574
 C765 C 0.54374 -0.08072 0.42885
 C766 C 0.55908 -0.09427 0.40937
 H767 H 0.67827 -0.10633 0.35377
 H768 H 0.70725 -0.13622 0.32347
 H769 H 0.62866 -0.19930 0.31639
 H770 H 0.60016 -0.16955 0.34705
 H771 H 0.63367 -0.06992 0.42090
 H772 H 0.60691 -0.04595 0.45513
 H773 H 0.51866 -0.08414 0.43084
 H774 H 0.54569 -0.10795 0.39672
 C775 C 0.63779 0.36279 -0.14661
 C776 C 0.66795 0.37218 -0.15336
 C777 C 0.68448 0.35535 -0.17074
 C778 C 0.67106 0.32881 -0.18159
 C779 C 0.64058 0.31978 -0.17486
 C780 C 0.62408 0.33667 -0.15749
 C781 C 0.62134 0.37932 -0.12800
 C782 C 0.60775 0.39276 -0.11212
 C783 C 0.59169 0.40823 -0.09283
 C784 C 0.60867 0.42608 -0.07641
 C785 C 0.59335 0.43986 -0.05700
 C786 C 0.56084 0.43588 -0.05376
 C787 C 0.54385 0.41839 -0.07058
 C788 C 0.55923 0.40461 -0.08996
 H789 H 0.67885 0.39226 -0.14496
 H790 H 0.70806 0.36264 -0.17527
 H791 H 0.62947 0.29970 -0.18308
 H792 H 0.60074 0.32920 -0.15240
 H793 H 0.63381 0.42903 -0.07846
 H794 H 0.60699 0.45335 -0.04442
 H795 H 0.51877 0.41501 -0.06860
 H796 H 0.54587 0.39082 -0.10255
 C797 C 1.13545 0.13736 -0.14620
 C798 C 1.12609 0.16784 -0.15242
 C799 C 1.14295 0.18469 -0.16941
 C800 C 1.16980 0.17143 -0.18061
 C801 C 1.17844 0.14024 -0.17434
 C802 C 1.16150 0.12354 -0.15731
 C803 C 1.11903 0.12073 -0.12781
 C804 C 1.10571 0.10707 -0.11205
 C805 C 1.09038 0.09104 -0.09282
 C806 C 1.07236 0.10813 -0.07640
 C807 C 1.05881 0.09288 -0.05700
 C808 C 1.06321 0.06032 -0.05377
 C809 C 1.08086 0.04322 -0.07060
 C810 C 1.09441 0.05853 -0.08998
 H811 H 1.10576 0.17869 -0.14405
 H812 H 1.13409 0.20781 -0.17406
 H813 H 1.19923 0.12893 -0.18152
 H814 H 1.16912 0.10000 -0.15245
 H815 H 1.06911 0.13331 -0.07843
 H816 H 1.04517 0.10661 -0.04440
 H817 H 1.08456 0.01810 -0.06863
 H818 H 1.10835 0.04509 -0.10257
 C819 C 1.13597 0.63711 0.35446
 C820 C 1.16598 0.62683 0.34756
 C821 C 1.18283 0.64354 0.33048
 C822 C 1.16989 0.67085 0.32007
 C823 C 1.13952 0.68076 0.32690
 C824 C 1.12270 0.66400 0.34398
 C825 C 1.11931 0.62067 0.37284
 C826 C 1.10582 0.60709 0.38856
 C827 C 1.09033 0.59104 0.40772
 C828 C 1.09420 0.55850 0.41047
 C829 C 1.08051 0.54314 0.42977
 C830 C 1.06285 0.56022 0.44662
 C831 C 1.05859 0.59282 0.44347
 C832 C 1.07229 0.60812 0.42414
 H833 H 1.17654 0.60614 0.35565
 H834 H 1.20630 0.63554 0.32586
 H835 H 1.12875 0.70146 0.31900
 H836 H 1.09949 0.67216 0.34918
 H837 H 1.10814 0.54507 0.39788
 H838 H 1.08410 0.51800 0.43168
 H839 H 1.04497 0.60653 0.45608
 H840 H 1.06916 0.63332 0.42218
 C841 C 0.63780 0.14024 0.35623
 C842 C 0.63928 0.12947 0.33276
 C843 C 0.65624 0.14628 0.31576
 C844 C 0.67190 0.17411 0.32205
 C845 C 0.67022 0.18470 0.34570
 C846 C 0.65328 0.16787 0.36264
 C847 C 0.62082 0.12288 0.37393
 C848 C 0.60701 0.10872 0.38920
 C849 C 0.59111 0.09227 0.40794
 C850 C 0.59501 0.05970 0.41044
 C851 C 0.58103 0.04402 0.42948
 C852 C 0.56308 0.06083 0.44631
 C853 C 0.55877 0.09345 0.44338
 C854 C 0.57275 0.10906 0.42433
 H855 H 0.62737 0.10811 0.32761
 H856 H 0.65683 0.13771 0.29765
 H857 H 0.68241 0.20573 0.35121
 H858 H 0.65243 0.17632 0.38079
 H859 H 0.60922 0.04649 0.39788
 H860 H 0.58466 0.01886 0.43123
 H861 H 0.54493 0.10696 0.45598
 H862 H 0.56961 0.13428 0.42256
 C863 C 0.63557 0.63974 -0.14456
 C864 C 0.64358 0.62575 -0.16619
 C865 C 0.66043 0.64263 -0.18322
 C866 C 0.66968 0.67407 -0.17896
 C867 C 0.66106 0.68775 -0.15694
 C868 C 0.64427 0.67075 -0.14002
 C869 C 0.61905 0.62224 -0.12668
 C870 C 0.60561 0.60804 -0.11124
 C871 C 0.59011 0.59161 -0.09229
 C872 C 0.59425 0.55907 -0.08968
 C873 C 0.58061 0.54344 -0.07047
 C874 C 0.56278 0.56026 -0.05358
 C875 C 0.55825 0.59284 -0.05660
 C876 C 0.57188 0.60839 -0.07583
 H877 H 0.63677 0.60175 -0.16995
 H878 H 0.66511 0.63104 -0.19995
 H879 H 0.66836 0.71113 -0.15198
 H880 H 0.63847 0.68172 -0.12319
 H881 H 0.60836 0.54586 -0.10230
 H882 H 0.58441 0.51832 -0.06865
 H883 H 0.54449 0.60636 -0.04396
 H884 H 0.56855 0.63359 -0.07768
 C885 C 0.86245 -0.13982 -0.14385
 C886 C 0.84666 -0.16723 -0.13738
 C887 C 0.82975 -0.18411 -0.15434
 C888 C 0.82838 -0.17378 -0.17806
 C889 C 0.84434 -0.14616 -0.18441
 C890 C 0.86128 -0.12930 -0.16740
 C891 C 0.87944 -0.12244 -0.12614
 C892 C 0.89325 -0.10830 -0.11084
 C893 C 0.90914 -0.09190 -0.09204
 C894 C 0.92749 -0.10874 -0.07566
 C895 C 0.94143 -0.09319 -0.05653
 C896 C 0.93711 -0.06058 -0.05353
 C897 C 0.91919 -0.04372 -0.07036
 C898 C 0.90524 -0.05933 -0.08947
 H899 H 0.84727 -0.17549 -0.11918
 H900 H 0.81732 -0.20497 -0.14878
 H901 H 0.84400 -0.13780 -0.20257
 H902 H 0.87343 -0.10810 -0.17259
 H903 H 0.93063 -0.13396 -0.07747
 H904 H 0.95526 -0.10675 -0.04394
 H905 H 0.91555 -0.01857 -0.06856
 H906 H 0.89105 -0.04609 -0.10202
 C907 C 0.86440 0.36335 0.35399
 C908 C 0.87779 0.33655 0.34350
 C909 C 0.86103 0.31970 0.32641
 C910 C 0.83059 0.32945 0.31961
 C911 C 0.81753 0.35670 0.33002
 C912 C 0.83433 0.37350 0.34711
 C913 C 0.88096 0.37979 0.37243
 C914 C 0.89436 0.39335 0.38822
 C915 C 0.90972 0.40931 0.40748
 C916 C 0.92779 0.39218 0.42386
 C917 C 0.94135 0.40739 0.44331
 C918 C 0.93692 0.43993 0.44660
 C919 C 0.91923 0.45707 0.42980
 C920 C 0.90566 0.44180 0.41039
 H921 H 0.90106 0.32849 0.34870
 H922 H 0.87187 0.29906 0.31851
 H923 H 0.79401 0.36458 0.32542
 H924 H 0.82368 0.39412 0.35522
 H925 H 0.93106 0.36701 0.42178
 H926 H 0.95502 0.39363 0.45587
 H927 H 0.91551 0.48218 0.43183
 H928 H 0.89169 0.45527 0.39782
 C929 C 0.36315 -0.14091 0.35547
 C930 C 0.35687 -0.17268 0.35907
 C931 C 0.33996 -0.18970 0.34221
 C932 C 0.32862 -0.17536 0.32101
 C933 C 0.33567 -0.14299 0.31778
 C934 C 0.35264 -0.12615 0.33478
 C935 C 0.37977 -0.12343 0.37335
 C936 C 0.39331 -0.10921 0.38874
 C937 C 0.40898 -0.09271 0.40761
 C938 C 0.42736 -0.10944 0.42404
 C939 C 0.44120 -0.09380 0.44316
 C940 C 0.43677 -0.06120 0.44611
 C941 C 0.41879 -0.04444 0.42925
 C942 C 0.40494 -0.06015 0.41015
 H943 H 0.36461 -0.18429 0.37522
 H944 H 0.33460 -0.21366 0.34692
 H945 H 0.32952 -0.13037 0.30178
 H946 H 0.35764 -0.10153 0.33170
 H947 H 0.43063 -0.13465 0.42224
 H948 H 0.45507 -0.10728 0.45577
 H949 H 0.41506 -0.01930 0.43102
 H950 H 0.39073 -0.04698 0.39756
 C951 C 0.36255 0.35932 -0.14377
 C952 C 0.34709 0.33168 -0.13738
 C953 C 0.33029 0.31475 -0.15437
 C954 C 0.32872 0.32524 -0.17804
 C955 C 0.34437 0.35307 -0.18432
 C956 C 0.36119 0.36998 -0.16727
 C957 C 0.37940 0.37677 -0.12602
 C958 C 0.39309 0.39097 -0.11070
 C959 C 0.40889 0.40742 -0.09188
 C960 C 0.42737 0.39064 -0.07556
 C961 C 0.44126 0.40621 -0.05642
 C962 C 0.43675 0.43878 -0.05336
 C963 C 0.41868 0.45559 -0.07013
 C964 C 0.40478 0.43995 -0.08924
 H965 H 0.34785 0.32330 -0.11922
 H966 H 0.31809 0.29372 -0.14888
 H967 H 0.34387 0.36157 -0.20244
 H968 H 0.37310 0.39135 -0.17240
 H969 H 0.43068 0.36545 -0.07743
 H970 H 0.45521 0.39270 -0.04388
 H971 H 0.41489 0.48072 -0.06827
 H972 H 0.39048 0.45315 -0.10176
 C973 C 1.13636 -0.13794 0.14682
 C974 C 1.12719 -0.16819 0.15353
 C975 C 1.14409 -0.18462 0.17095
 C976 C 1.17046 -0.17100 0.18187
 C977 C 1.17926 -0.14042 0.17519
 C978 C 1.16230 -0.12402 0.15778
 C979 C 1.11981 -0.12159 0.12815
 C980 C 1.10639 -0.10804 0.11223
 C981 C 1.09098 -0.09197 0.09289
 C982 C 1.07315 -0.10892 0.07645
 C983 C 1.05945 -0.09357 0.05700
 C984 C 1.06351 -0.06105 0.05376
 C985 C 1.08099 -0.04410 0.07061
 C986 C 1.09468 -0.05951 0.09002
 H987 H 1.10725 -0.17926 0.14507
 H988 H 1.13698 -0.20829 0.17544
 H989 H 1.19920 -0.12915 0.18346
 H990 H 1.16960 -0.10060 0.15272
 H991 H 1.07015 -0.13407 0.07850
 H992 H 1.04597 -0.10718 0.04440
 H993 H 1.08443 -0.01901 0.06863
 H994 H 1.10845 -0.04616 0.10262
 C995 C 1.13614 0.36151 0.64681
 C996 C 1.12699 0.33123 0.65346
 C997 C 1.14395 0.31473 0.67080
 C998 C 1.17036 0.32830 0.68170
 C999 C 1.17914 0.35892 0.67508
 C1000 C 1.16213 0.37539 0.65775
 C1001 C 1.11954 0.37793 0.62822
 C1002 C 1.10609 0.39153 0.61235
 C1003 C 1.09065 0.40766 0.59307
 C1004 C 1.07269 0.39077 0.57667
 C1005 C 1.05898 0.40616 0.55725
 C1006 C 1.06317 0.43866 0.55399
 C1007 C 1.08078 0.45555 0.57080
 C1008 C 1.09447 0.44010 0.59018
 H1009 H 1.10702 0.32021 0.64501
 H1010 H 1.13686 0.29105 0.67525
 H1011 H 1.19912 0.37014 0.68334
 H1012 H 1.16941 0.39883 0.65273
 H1013 H 1.06959 0.36564 0.57874
 H1014 H 1.04540 0.39260 0.54468
 H1015 H 1.08432 0.48063 0.56880
 H1016 H 1.10835 0.45339 0.60276
 C1017 C 0.63649 -0.13857 0.64589
 C1018 C 0.62724 -0.16876 0.65268
 C1019 C 0.64409 -0.18515 0.67015
 C1020 C 0.67049 -0.17153 0.68104
 C1021 C 0.67939 -0.14102 0.67426
 C1022 C 0.66249 -0.12467 0.65680
 C1023 C 0.61993 -0.12224 0.62723
 C1024 C 0.60649 -0.10868 0.61132
 C1025 C 0.59104 -0.09257 0.59203
 C1026 C 0.57335 -0.10952 0.57550
 C1027 C 0.55957 -0.09410 0.55611
 C1028 C 0.56341 -0.06153 0.55302
 C1029 C 0.58076 -0.04459 0.56995
 C1030 C 0.59453 -0.06006 0.58930
 H1031 H 0.60726 -0.17981 0.64426
 H1032 H 0.63691 -0.20876 0.67473
 H1033 H 0.69935 -0.12976 0.68251
 H1034 H 0.66984 -0.10129 0.65168
 H1035 H 0.57051 -0.13470 0.57744
 H1036 H 0.54619 -0.10771 0.54343
 H1037 H 0.58403 -0.01946 0.56809
 H1038 H 0.60819 -0.04673 0.60198
 C1039 C 0.63653 0.36103 0.14623
 C1040 C 0.62722 0.33093 0.15320
 C1041 C 0.64428 0.31452 0.17054
 C1042 C 0.67097 0.32803 0.18110
 C1043 C 0.67991 0.35846 0.17415
 C1044 C 0.66279 0.37483 0.15683
 C1045 C 0.61983 0.37735 0.12764
 C1046 C 0.60634 0.39093 0.11178
 C1047 C 0.59090 0.40707 0.09251
 C1048 C 0.57309 0.39018 0.07602
 C1049 C 0.55941 0.40561 0.05661
 C1050 C 0.56347 0.43814 0.05345
 C1051 C 0.58092 0.45503 0.07035
 C1052 C 0.59459 0.43955 0.08972
 H1053 H 0.60702 0.31996 0.14501
 H1054 H 0.63705 0.29098 0.17526
 H1055 H 0.70009 0.36964 0.18216
 H1056 H 0.67020 0.39813 0.15156
 H1057 H 0.57010 0.36502 0.07801
 H1058 H 0.54594 0.39205 0.04396
 H1059 H 0.58435 0.48013 0.06843
 H1060 H 0.60836 0.45284 0.10237
 C1061 C 0.86460 0.13831 0.14662
 C1062 C 0.83881 0.12421 0.15762
 C1063 C 0.82182 0.14050 0.17505
 C1064 C 0.83042 0.17117 0.18169
 C1065 C 0.85664 0.18497 0.17073
 C1066 C 0.87358 0.16864 0.15330
 C1067 C 0.88115 0.12206 0.12794
 C1068 C 0.89454 0.10855 0.11200
 C1069 C 0.90987 0.09248 0.09265
 C1070 C 0.90616 0.06001 0.08981
 C1071 C 0.91974 0.04458 0.07039
 C1072 C 0.93712 0.06150 0.05349
 C1073 C 0.94119 0.09403 0.05670
 C1074 C 0.92760 0.10941 0.07616
 H1075 H 0.83166 0.10073 0.15259
 H1076 H 0.80199 0.12911 0.18335
 H1077 H 0.86358 0.20869 0.17520
 H1078 H 0.89340 0.17984 0.14480
 H1079 H 0.89246 0.04669 0.10246
 H1080 H 0.91630 0.01948 0.06844
 H1081 H 0.95460 0.10762 0.04405
 H1082 H 0.93059 0.13456 0.07819
 C1083 C 0.86324 0.63787 0.64695
 C1084 C 0.83718 0.62392 0.65769
 C1085 C 0.82006 0.64025 0.67502
 C1086 C 0.82881 0.67080 0.68185
 C1087 C 0.85529 0.68446 0.67115
 C1088 C 0.87235 0.66810 0.65380
 C1089 C 0.87999 0.62158 0.62838
 C1090 C 0.89356 0.60806 0.61253
 C1091 C 0.90914 0.59201 0.59328
 C1092 C 0.90552 0.55953 0.59040
 C1093 C 0.91932 0.54413 0.57104
 C1094 C 0.93684 0.56110 0.55425
 C1095 C 0.94084 0.59363 0.55751
 C1096 C 0.92703 0.60898 0.57691
 H1097 H 0.82993 0.60053 0.65252
 H1098 H 0.80003 0.62896 0.68313
 H1099 H 0.86237 0.70810 0.67575
 H1100 H 0.89239 0.67918 0.64551
 H1101 H 0.89170 0.54618 0.60295
 H1102 H 0.91591 0.51904 0.56905
 H1103 H 0.95435 0.60725 0.54495
 H1104 H 0.92997 0.63413 0.57897
 C1105 C 0.36336 0.13799 0.64591
 C1106 C 0.33719 0.12412 0.65656
 C1107 C 0.32017 0.14041 0.67397
 C1108 C 0.32912 0.17083 0.68096
 C1109 C 0.35572 0.18440 0.67035
 C1110 C 0.37268 0.16808 0.65293
 C1111 C 0.37999 0.12174 0.62726
 C1112 C 0.39345 0.10821 0.61136
 C1113 C 0.40887 0.09213 0.59206
 C1114 C 0.40531 0.05963 0.58927
 C1115 C 0.41900 0.04418 0.56990
 C1116 C 0.43636 0.06112 0.55299
 C1117 C 0.44028 0.09368 0.55615
 C1118 C 0.42657 0.10908 0.57556
 H1119 H 0.32977 0.10083 0.65126
 H1120 H 0.30005 0.12918 0.68201
 H1121 H 0.36295 0.20794 0.67510
 H1122 H 0.39280 0.17910 0.64470
 H1123 H 0.39163 0.04629 0.60193
 H1124 H 0.41568 0.01906 0.56799
 H1125 H 0.45367 0.10728 0.54349
 H1126 H 0.42947 0.13424 0.57755
 C1127 C 0.36333 0.63826 0.14619
 C1128 C 0.33704 0.62456 0.15679
 C1129 C 0.32001 0.64097 0.17414
 C1130 C 0.32908 0.67137 0.18112
 C1131 C 0.35579 0.68478 0.17056
 C1132 C 0.37276 0.66833 0.15320
 C1133 C 0.38001 0.62187 0.12763
 C1134 C 0.39352 0.60824 0.11180
 C1135 C 0.40905 0.59205 0.09258
 C1136 C 0.40544 0.55955 0.08983
 C1137 C 0.41923 0.54403 0.07051
 C1138 C 0.43672 0.56089 0.05365
 C1139 C 0.44069 0.59345 0.05678
 C1140 C 0.42689 0.60892 0.07612
 H1141 H 0.32954 0.60129 0.15151
 H1142 H 0.29981 0.62985 0.18214
 H1143 H 0.36312 0.70829 0.17530
 H1144 H 0.39298 0.67923 0.14502
 H1145 H 0.39166 0.54627 0.10245
 H1146 H 0.41586 0.51891 0.06862
 H1147 H 0.45417 0.60700 0.04415
 H1148 H 0.42982 0.63409 0.07808
   
