data_POSCAR
  _audit_creation_date              2014-09-24
  _audit_creation_method            'ToBaCCo'
  _symmetry_space_group_name_H-M    'P1'
  _symmetry_Int_Tables_number       1
  _symmetry_cell_setting            triclinic
  loop_
  _symmetry_equiv_pos_as_xyz
 x,y,z
_cell_length_a 12.6132
_cell_length_b 12.4320
_cell_length_c 24.4126
_cell_angle_alpha 81.267300
_cell_angle_beta 94.547600
_cell_angle_gamma 119.511200
loop_
  _atom_site_label
  _atom_site_type_symbol
  _atom_site_fract_x
  _atom_site_fract_y
  _atom_site_fract_z
C1 C 0.03431 0.18940 0.56951
 H2 H 0.11080 0.17244 0.57072
 C3 C 0.03563 0.27182 0.60253
 H4 H 0.11282 0.31780 0.62953
 C5 C -0.15747 0.15299 0.53092
 H6 H -0.23090 0.10785 0.50217
 C7 C -0.16035 0.23456 0.56387
 H8 H -0.23741 0.25104 0.56108
 N9 N -0.06038 0.13297 0.53429
 C10 C 0.06338 -0.12960 0.53186
 H11 H 0.12707 -0.08817 0.49823
 C12 C 0.05203 -0.23722 0.56459
 H13 H 0.10947 -0.27484 0.55612
 C14 C -0.08797 -0.13318 0.58458
 H15 H -0.14470 -0.09398 0.59173
 C16 C -0.10622 -0.24377 0.61656
 H17 H -0.17700 -0.28816 0.64759
 Zn18 Zn -0.03248 0.03796 0.48976
 N19 N -0.00880 -0.08146 0.54124
 C20 C 0.17373 0.12227 0.41906
 N21 N 0.10529 0.15517 0.44554
 C22 C 0.13130 0.27648 0.44055
 C23 C 0.23251 0.37036 0.41085
 C24 C 0.27888 0.21392 0.39085
 C25 C -0.25382 -0.16459 0.46972
 C26 C -0.32729 -0.26506 0.44123
 C27 C -0.23920 -0.13498 0.35579
 C28 C -0.15872 -0.03925 0.38686
 N29 N -0.16499 -0.05753 0.44320
 H30 H 0.14748 0.02551 0.41958
 H31 H 0.07281 0.30131 0.45911
 H32 H 0.25063 0.46584 0.40710
 H33 H 0.33631 0.18645 0.37305
 H34 H -0.26082 -0.17742 0.51410
 H35 H -0.38124 -0.35216 0.46700
 H36 H -0.23678 -0.11393 0.31116
 H37 H -0.08864 0.04754 0.36598
 C38 C -0.03623 -0.29792 0.60657
 C39 C -0.06287 0.29436 0.60027
 C40 C -0.31934 -0.25529 0.38280
 C41 C 0.30894 0.33991 0.38619
 C42 C 1.27171 0.13100 0.10159
 H43 H 1.28045 0.21805 0.10988
 C44 C 1.36433 0.13165 0.07386
 H45 H 1.44346 0.21923 0.05953
 C46 C 1.15924 -0.09014 0.11165
 H47 H 1.08075 -0.17591 0.12797
 C48 C 1.24780 -0.09350 0.08222
 H49 H 1.23634 -0.18222 0.07458
 N50 N 1.17298 0.02124 0.12060
 C51 C 0.86075 0.05143 0.15149
 H52 H 0.85517 0.02589 0.19598
 C53 C 0.75522 0.02871 0.12132
 H54 H 0.67045 -0.01428 0.14379
 C55 C 0.97488 0.11858 0.06898
 H56 H 1.05873 0.14527 0.04840
 C57 C 0.87347 0.11020 0.03743
 H58 H 0.88265 0.13818 -0.00690
 Zn59 Zn 1.06950 0.03304 0.16746
 N60 N 0.96494 0.08443 0.12489
 C61 C 1.15987 0.24686 0.22293
 N62 N 1.17347 0.14882 0.21452
 C63 C 1.27271 0.13836 0.23380
 C64 C 1.36592 0.23128 0.26127
 C65 C 1.24904 0.33976 0.25208
 C66 C 0.85936 -0.19219 0.18300
 C67 C 0.75416 -0.27346 0.21314
 C68 C 0.87486 -0.24001 0.29689
 C69 C 0.97611 -0.14795 0.26545
 N70 N 0.96487 -0.12274 0.20963
 H71 H 1.08107 0.25379 0.20635
 H72 H 1.28145 0.05984 0.22584
 H73 H 1.44541 0.22325 0.27584
 H74 H 1.23762 0.41728 0.25931
 H75 H 0.85276 -0.17183 0.13856
 H76 H 0.66857 -0.31365 0.19077
 H77 H 0.88482 -0.25933 0.34118
 H78 H 1.06094 -0.09215 0.28608
 C79 C 0.75870 0.05344 0.06300
 C80 C 1.35196 0.01846 0.06364
 C81 C 0.75913 -0.29537 0.27141
 C82 C 1.35369 0.33254 0.27093
 C83 C 0.12867 0.85326 0.89223
 H84 H 0.07032 0.77052 0.87306
 C85 C 0.22954 0.85966 0.92251
 H86 H 0.24763 0.78229 0.92602
 C87 C 0.17117 1.04932 0.91462
 H88 H 0.14520 1.12003 0.91411
 C89 C 0.27583 1.06177 0.94353
 H90 H 0.33318 1.14618 0.96189
 N91 N 0.10288 0.94874 0.88741
 C92 C -0.16242 0.87607 0.94490
 H93 H -0.09491 0.85417 0.96546
 C94 C -0.24165 0.89126 0.97659
 H95 H -0.24035 0.87006 1.02118
 C96 C -0.25092 0.92161 0.86221
 H97 H -0.25608 0.93334 0.81774
 C98 C -0.32283 0.94835 0.89164
 H99 H -0.37554 0.98581 0.86736
 Zn100 Zn -0.03444 0.92992 0.84245
 N101 N -0.16649 0.89468 0.88847
 C102 C -0.16002 0.68986 0.80050
 N103 N -0.06303 0.80686 0.79771
 C104 C 0.03185 0.84513 0.76302
 C105 C 0.03354 0.76424 0.73001
 C106 C -0.16252 0.60558 0.76752
 C107 C 0.06156 1.19338 0.80148
 C108 C 0.05053 1.28987 0.76868
 C109 C -0.10506 1.13918 0.71477
 C110 C -0.08690 1.04670 0.74680
 N111 N -0.00920 1.07351 0.79107
 H112 H -0.23359 0.66148 0.82886
 H113 H 0.10831 0.93843 0.76229
 H114 H 0.11097 0.79550 0.70351
 H115 H -0.23944 0.51211 0.76987
 H116 H 0.12365 1.21506 0.83603
 H117 H 0.10692 1.38455 0.77795
 H118 H -0.17511 1.11306 0.68307
 H119 H -0.14348 0.95098 0.73921
 C120 C -0.31793 0.93728 0.95018
 C121 C 0.30568 0.96566 0.94805
 C122 C -0.03629 1.26290 0.72565
 C123 C -0.06477 0.64331 0.73170
 C124 C 0.41663 -0.02318 -0.02113
 C125 C 0.44458 0.01630 0.03130
 C126 C 0.55756 0.04373 0.05537
 C127 C 0.64187 0.02105 0.03120
 C128 C 0.60937 -0.03061 -0.02064
 C129 C 0.49635 -0.04986 -0.04531
 H130 H 0.46571 -0.09080 -0.08343
 H131 H 0.57865 0.08254 0.09417
 C132 C -0.06293 0.38177 0.63521
 C133 C -0.05570 0.36425 0.69391
 C134 C -0.06314 0.44857 0.72369
 C135 C -0.06412 0.55607 0.69681
 C136 C -0.05571 0.58136 0.63818
 C137 C -0.06198 0.49020 0.60835
 H138 H -0.06172 0.50582 0.56341
 H139 H -0.06375 0.43281 0.76863
 C140 C 0.64263 0.62211 0.30324
 C141 C 0.61151 0.64166 0.35544
 C142 C 0.49965 0.54569 0.38023
 C143 C 0.41994 0.43921 0.35582
 C144 C 0.44662 0.42807 0.30325
 C145 C 0.55838 0.51456 0.27907
 H146 H 0.57873 0.49690 0.24017
 H147 H 0.46737 0.55483 0.41796
   
