data_POSCAR
  _audit_creation_date              2014-09-24
  _audit_creation_method            'ToBaCCo'
  _symmetry_space_group_name_H-M    'P1'
  _symmetry_Int_Tables_number       1
  _symmetry_cell_setting            triclinic
  loop_
  _symmetry_equiv_pos_as_xyz
 x,y,z
_cell_length_a 58.0592
_cell_length_b 58.5167
_cell_length_c 18.1277
_cell_angle_alpha 89.994800
_cell_angle_beta 90.160500
_cell_angle_gamma 120.286800
loop_
  _atom_site_label
  _atom_site_type_symbol
  _atom_site_fract_x
  _atom_site_fract_y
  _atom_site_fract_z
C1 C 0.25937 0.51441 0.53114
 C2 C 0.25741 0.51307 0.45622
 C3 C 0.23556 0.51416 0.41637
 C4 C 0.27603 0.50859 0.41152
 C5 C 0.28237 0.51535 0.57004
 C6 C 0.23776 0.51343 0.57662
 C7 C 0.21959 0.49433 0.36577
 C8 C 0.19811 0.49444 0.33118
 C9 C 0.19162 0.51427 0.34682
 C10 C 0.20884 0.53486 0.39558
 C11 C 0.23053 0.53484 0.42902
 C12 C 0.27467 0.48399 0.41349
 C13 C 0.29241 0.47977 0.37193
 C14 C 0.31203 0.50027 0.32887
 C15 C 0.31337 0.52491 0.32717
 C16 C 0.29518 0.52891 0.36733
 C17 C 0.30850 0.53561 0.55513
 C18 C 0.33025 0.53557 0.58825
 C19 C 0.32630 0.51518 0.63705
 C20 C 0.30000 0.49548 0.65396
 C21 C 0.27826 0.49559 0.62085
 C22 C 0.24177 0.53596 0.61497
 C23 C 0.22041 0.53594 0.65060
 C24 C 0.19496 0.51311 0.64993
 C25 C 0.19138 0.49021 0.61449
 C26 C 0.21255 0.49044 0.57746
 H27 H 0.22330 0.47831 0.35429
 H28 H 0.18614 0.47825 0.29378
 H29 H 0.20647 0.55156 0.40803
 H30 H 0.24337 0.55101 0.46540
 H31 H 0.25991 0.46813 0.44737
 H32 H 0.29126 0.46073 0.37493
 H33 H 0.29639 0.54798 0.36535
 H34 H 0.31205 0.55141 0.51741
 H35 H 0.35006 0.55166 0.57580
 H36 H 0.29620 0.47959 0.69158
 H37 H 0.25824 0.47984 0.63335
 H38 H 0.26115 0.55384 0.61475
 H39 H 0.22374 0.55371 0.67855
 H40 H 0.17196 0.47238 0.61338
 H41 H 0.20920 0.47289 0.54814
 H42 H 0.32840 0.54098 0.29443
 C43 C 0.50700 -0.24469 0.53929
 C44 C 0.50684 -0.24405 0.46449
 C45 C 0.50576 -0.26581 0.42037
 C46 C 0.50952 -0.22104 0.42362
 C47 C 0.50845 -0.22296 0.58471
 C48 C 0.50584 -0.26740 0.57845
 C49 C 0.52894 -0.26258 0.38698
 C50 C 0.52860 -0.28380 0.35061
 C51 C 0.50509 -0.30863 0.34757
 C52 C 0.48161 -0.31142 0.37863
 C53 C 0.48195 -0.29013 0.41449
 C54 C 0.53443 -0.19789 0.41748
 C55 C 0.53702 -0.17647 0.37655
 C56 C 0.51461 -0.17785 0.34216
 C57 C 0.48964 -0.20097 0.34945
 C58 C 0.48719 -0.22256 0.38903
 C59 C 0.48795 -0.21694 0.58179
 C60 C 0.48931 -0.19653 0.62512
 C61 C 0.51111 -0.18186 0.67275
 C62 C 0.53163 -0.18800 0.67533
 C63 C 0.53020 -0.20844 0.63207
 C64 C 0.48115 -0.28965 0.59475
 C65 C 0.47983 -0.31211 0.62604
 C66 C 0.50336 -0.31251 0.64362
 C67 C 0.52812 -0.28946 0.62943
 C68 C 0.52930 -0.26740 0.59600
 H69 H 0.54746 -0.24385 0.39095
 H70 H 0.54694 -0.28103 0.32696
 H71 H 0.46298 -0.33004 0.37536
 H72 H 0.46378 -0.29273 0.43890
 H73 H 0.55183 -0.19653 0.44392
 H74 H 0.55640 -0.15871 0.37274
 H75 H 0.46786 -0.24040 0.39325
 H76 H 0.47082 -0.22816 0.54627
 H77 H 0.47316 -0.19237 0.62172
 H78 H 0.54913 -0.17673 0.70938
 H79 H 0.54635 -0.21261 0.63472
 H80 H 0.46285 -0.28979 0.58187
 H81 H 0.46027 -0.32861 0.63823
 H82 H 0.54677 -0.28868 0.64164
 H83 H 0.54854 -0.25043 0.58291
 H84 H 0.47210 -0.20246 0.32349
 C85 C 1.25613 0.74648 0.53988
 C86 C 1.25612 0.74688 0.46484
 C87 C 1.27799 0.76881 0.42297
 C88 C 1.23389 0.72554 0.42233
 C89 C 1.23522 0.72379 0.58193
 C90 C 1.27702 0.76879 0.58289
 C91 C 1.27291 0.78537 0.37865
 C92 C 1.29387 0.80720 0.34333
 C93 C 1.32056 0.81320 0.35215
 C94 C 1.32509 0.79539 0.39391
 C95 C 1.30407 0.77349 0.42833
 C96 C 1.20844 0.72269 0.42448
 C97 C 1.18686 0.70101 0.39051
 C98 C 1.19030 0.68156 0.35531
 C99 C 1.21595 0.68475 0.35195
 C100 C 1.23766 0.70678 0.38451
 C101 C 1.23110 0.69830 0.57136
 C102 C 1.21013 0.67660 0.60660
 C103 C 1.19276 0.67987 0.65433
 C104 C 1.19824 0.70594 0.66793
 C105 C 1.21910 0.72755 0.63191
 C106 C 1.29904 0.76760 0.60919
 C107 C 1.31969 0.78923 0.64596
 C108 C 1.31832 0.81230 0.65944
 C109 C 1.29522 0.81257 0.63620
 C110 C 1.27506 0.79125 0.59701
 H111 H 1.25278 0.78181 0.37302
 H112 H 1.28908 0.81987 0.31120
 H113 H 1.34463 0.79764 0.39967
 H114 H 1.30819 0.76022 0.45980
 H115 H 1.20525 0.73701 0.45369
 H116 H 1.16729 0.69900 0.39359
 H117 H 1.25722 0.70872 0.38266
 H118 H 1.24404 0.69515 0.53507
 H119 H 1.20825 0.65757 0.59643
 H120 H 1.18588 0.70978 0.70459
 H121 H 1.22216 0.74716 0.64154
 H122 H 1.30049 0.75008 0.59981
 H123 H 1.33618 0.78722 0.66558
 H124 H 1.29312 0.82972 0.64544
 H125 H 1.25798 0.79229 0.57735
 H126 H 1.21919 0.67025 0.32404
 C127 C 0.74428 0.48401 0.53375
 C128 C 0.74148 0.47873 0.45984
 C129 C 0.76142 0.47539 0.41724
 C130 C 0.72045 0.48012 0.41746
 C131 C 0.72215 0.48346 0.57668
 C132 C 0.76995 0.49198 0.57231
 C133 C 0.77444 0.49196 0.35711
 C134 C 0.79604 0.49181 0.32397
 C135 C 0.80499 0.47489 0.34961
 C136 C 0.79051 0.45688 0.40645
 C137 C 0.76905 0.45723 0.44004
 C138 C 0.72127 0.50440 0.41142
 C139 C 0.70126 0.50601 0.37340
 C140 C 0.67983 0.48325 0.34215
 C141 C 0.67913 0.45894 0.34754
 C142 C 0.69959 0.45748 0.38414
 C143 C 0.69622 0.46164 0.57159
 C144 C 0.67483 0.46212 0.60506
 C145 C 0.67881 0.48442 0.64589
 C146 C 0.70534 0.50552 0.65477
 C147 C 0.72665 0.50508 0.62028
 C148 C 0.77042 0.48038 0.63955
 C149 C 0.79477 0.48620 0.67167
 C150 C 0.81911 0.50304 0.63572
 C151 C 0.81840 0.51596 0.57084
 C152 C 0.79420 0.51101 0.54090
 H153 H 0.76886 0.50608 0.33837
 H154 H 0.80635 0.50577 0.27993
 H155 H 0.79575 0.44267 0.42616
 H156 H 0.75887 0.44391 0.48548
 H157 H 0.73741 0.52206 0.43650
 H158 H 0.70216 0.52492 0.36992
 H159 H 0.69885 0.43865 0.38816
 H160 H 0.69243 0.44429 0.54043
 H161 H 0.65545 0.44462 0.59907
 H162 H 0.70973 0.52300 0.68622
 H163 H 0.74656 0.52205 0.62566
 H164 H 0.75196 0.46616 0.66592
 H165 H 0.79436 0.47624 0.72243
 H166 H 0.83648 0.53051 0.54371
 H167 H 0.79442 0.52158 0.49164
 H168 H 0.66291 0.44122 0.32303
 C169 C 0.47774 0.24436 0.54058
 C170 C 0.47594 0.24287 0.46584
 C171 C 0.47566 0.26391 0.42125
 C172 C 0.47339 0.21991 0.42489
 C173 C 0.47659 0.22274 0.58640
 C174 C 0.48147 0.26821 0.57949
 C175 C 0.45169 0.25953 0.38985
 C176 C 0.45106 0.27926 0.34790
 C177 C 0.47451 0.30371 0.33634
 C178 C 0.49853 0.30791 0.36776
 C179 C 0.49914 0.28809 0.40928
 C180 C 0.44919 0.19580 0.42351
 C181 C 0.44701 0.17440 0.38322
 C182 C 0.46915 0.17680 0.34486
 C183 C 0.49336 0.20094 0.34703
 C184 C 0.49534 0.22245 0.38584
 C185 C 0.49525 0.21449 0.57743
 C186 C 0.49380 0.19395 0.62041
 C187 C 0.47389 0.18132 0.67490
 C188 C 0.45542 0.19014 0.68387
 C189 C 0.45684 0.21052 0.64032
 C190 C 0.50722 0.28973 0.58994
 C191 C 0.51107 0.31296 0.62300
 C192 C 0.48914 0.31492 0.64847
 C193 C 0.46333 0.29264 0.63996
 C194 C 0.45954 0.26977 0.60451
 H195 H 0.43339 0.24093 0.39864
 H196 H 0.43210 0.27551 0.32612
 H197 H 0.51692 0.32648 0.35968
 H198 H 0.51790 0.29159 0.43208
 H199 H 0.43207 0.19366 0.45334
 H200 H 0.42823 0.15587 0.38312
 H201 H 0.51411 0.24102 0.38633
 H202 H 0.51108 0.22404 0.53729
 H203 H 0.50865 0.18827 0.61108
 H204 H 0.43921 0.18121 0.72270
 H205 H 0.44209 0.21641 0.64809
 H206 H 0.52437 0.28863 0.57156
 H207 H 0.53139 0.32881 0.63065
 H208 H 0.44584 0.29310 0.65833
 H209 H 0.43947 0.25337 0.59614
 H210 H 0.51066 0.20324 0.31783
 C211 C 0.75146 0.24569 0.54174
 C212 C 0.75324 0.24618 0.46666
 C213 C 0.73044 0.22632 0.42183
 C214 C 0.77747 0.26609 0.42668
 C215 C 0.77267 0.26584 0.59020
 C216 C 0.72818 0.22382 0.57912
 C217 C 0.73268 0.20700 0.38211
 C218 C 0.71028 0.18631 0.34746
 C219 C 0.68526 0.18460 0.35209
 C220 C 0.68351 0.20489 0.38870
 C221 C 0.70590 0.22553 0.42315
 C222 C 0.80309 0.27185 0.44877
 C223 C 0.82574 0.29275 0.41645
 C224 C 0.82315 0.30743 0.35920
 C225 C 0.79765 0.30041 0.33314
 C226 C 0.77496 0.28002 0.36701
 C227 C 0.78269 0.29294 0.57934
 C228 C 0.80388 0.31161 0.62233
 C229 C 0.81534 0.30374 0.67869
 C230 C 0.80420 0.27629 0.69090
 C231 C 0.78321 0.25773 0.64731
 C232 C 0.70864 0.22811 0.61042
 C233 C 0.68599 0.20713 0.64253
 C234 C 0.68299 0.18177 0.64521
 C235 C 0.70296 0.17773 0.61546
 C236 C 0.72527 0.19856 0.58187
 H237 H 0.75151 0.20737 0.38042
 H238 H 0.71236 0.17114 0.31925
 H239 H 0.66487 0.20483 0.39120
 H240 H 0.70397 0.24060 0.45254
 H241 H 0.80559 0.26070 0.49258
 H242 H 0.84530 0.29753 0.43622
 H243 H 0.75545 0.27571 0.34823
 H244 H 0.77445 0.29966 0.53654
 H245 H 0.81125 0.33232 0.61079
 H246 H 0.81191 0.26852 0.73189
 H247 H 0.77573 0.23688 0.65685
 H248 H 0.71073 0.24757 0.60863
 H249 H 0.67101 0.21075 0.66610
 H250 H 0.70102 0.15833 0.61703
 H251 H 0.74029 0.19505 0.55789
 H252 H 0.79530 0.31141 0.28859
 N253 N 0.97213 0.52403 0.07998
 N254 N 0.95050 0.52588 0.08660
 N255 N 1.02870 0.53656 0.13226
 N256 N 1.04863 0.54943 0.17936
 N257 N 1.02808 0.55303 0.08420
 N258 N 1.04724 0.57746 0.09755
 N259 N 0.97231 0.50772 0.12944
 N260 N 0.95079 0.49805 0.17111
 C261 C 0.93746 0.50966 0.14390
 C262 C 1.05994 0.57496 0.15686
 N263 N 1.02886 0.47191 0.07180
 N264 N 1.04951 0.46838 0.07909
 N265 N 0.97288 0.45885 0.12217
 N266 N 0.95285 0.44470 0.16742
 N267 N 0.97267 0.44420 0.06702
 N268 N 0.95236 0.41982 0.07263
 N269 N 1.02893 0.48737 0.12443
 N270 N 1.04959 0.49486 0.16867
 Mn271 Mn 1.00078 0.49766 0.12809
 C272 C 1.06216 0.48276 0.13992
 C273 C 0.94019 0.42045 0.13548
 N274 N 1.02990 0.55616 -0.07403
 N275 N 1.05037 0.58057 -0.07884
 N276 N 0.97505 0.51329 -0.13333
 N277 N 0.95469 0.50591 -0.17884
 N278 N 0.97360 0.52707 -0.07825
 N279 N 0.95202 0.52905 -0.08394
 N280 N 1.03101 0.54129 -0.12650
 N281 N 1.05214 0.55501 -0.16827
 Mn282 Mn 1.00087 0.54032 0.00298
 C283 C 1.06398 0.57947 -0.13808
 C284 C 0.94058 0.51592 -0.14718
 N285 N 0.97412 0.44730 -0.09197
 N286 N 0.95323 0.42362 -0.10479
 N287 N 1.03149 0.49235 -0.13420
 N288 N 1.05239 0.50029 -0.17775
 N289 N 1.03017 0.47482 -0.08660
 N290 N 1.04990 0.47016 -0.09676
 N291 N 0.97529 0.46443 -0.14079
 N292 N 0.95527 0.45299 -0.18782
 Mn293 Mn 1.00137 0.45922 -0.00994
 Mn294 Mn 1.00331 0.50290 -0.13458
 Cl295 Cl 1.00160 0.50002 -0.00331
 C296 C 0.94172 0.42755 -0.16493
 C297 C 1.06362 0.48619 -0.15363
 N298 N 0.45134 0.48206 -0.06995
 N299 N 0.42736 0.47911 -0.07732
 N300 N 0.49257 0.46625 -0.12161
 N301 N 0.49682 0.45133 -0.16783
 N302 N 0.47647 0.45180 -0.06841
 N303 N 0.46903 0.42664 -0.07755
 N304 N 0.46693 0.49632 -0.12423
 N305 N 0.45393 0.50345 -0.16999
 C306 C 0.42927 0.49255 -0.13999
 C307 C 0.48203 0.42670 -0.13950
 N308 N 0.56112 0.53097 -0.08253
 N309 N 0.58499 0.53411 -0.09334
 N310 N 0.51807 0.54433 -0.13299
 N311 N 0.51129 0.55723 -0.17994
 N312 N 0.53570 0.56079 -0.08526
 N313 N 0.54174 0.58531 -0.09904
 N314 N 0.54390 0.51421 -0.13053
 N315 N 0.55565 0.50531 -0.17508
 Mn316 Mn 0.50536 0.50525 -0.12838
 C317 C 0.58131 0.51800 -0.15116
 C318 C 0.52632 0.58277 -0.15806
 N319 N 0.47950 0.45498 0.09074
 N320 N 0.47403 0.43058 0.10489
 N321 N 0.47172 0.50192 0.13616
 N322 N 0.46084 0.51172 0.18032
 N323 N 0.45406 0.48518 0.08905
 N324 N 0.43051 0.48287 0.10052
 N325 N 0.49702 0.47167 0.13825
 N326 N 0.50402 0.45919 0.18573
 Mn327 Mn 0.46504 0.46822 0.01040
 C328 C 0.48957 0.43359 0.16431
 C329 C 0.43515 0.49963 0.15757
 N330 N 0.53809 0.56405 0.07343
 N331 N 0.54279 0.58856 0.07854
 N332 N 0.54795 0.51925 0.12875
 N333 N 0.56032 0.51062 0.17167
 N334 N 0.56373 0.53414 0.07574
 N335 N 0.58742 0.53631 0.08156
 N336 N 0.52252 0.54946 0.12719
 N337 N 0.51608 0.56355 0.17013
 Mn338 Mn 0.54991 0.54775 -0.00468
 Mn339 Mn 0.50984 0.51059 0.13338
 Cl340 Cl 0.50751 0.50792 0.00255
 C341 C 0.52894 0.58789 0.13935
 C342 C 0.58495 0.52158 0.14180
 N343 N 0.44057 -0.02260 0.08211
 N344 N 0.41593 -0.04261 0.08994
 N345 N 0.48834 0.03204 0.13132
 N346 N 0.49608 0.05150 0.17934
 N347 N 0.47223 0.03293 0.08190
 N348 N 0.46832 0.05290 0.09554
 N349 N 0.45629 -0.02351 0.13282
 N350 N 0.44289 -0.04420 0.17600
 C351 C 0.41775 -0.05582 0.14910
 C352 C 0.48355 0.06441 0.15610
 N353 N 0.55049 0.02541 0.08008
 N354 N 0.57557 0.04448 0.08733
 N355 N 0.50312 -0.02809 0.13260
 N356 N 0.49494 -0.04759 0.18052
 N357 N 0.51818 -0.03001 0.08196
 N358 N 0.52101 -0.05069 0.09477
 N359 N 0.53555 0.02751 0.13079
 N360 N 0.55009 0.04806 0.17402
 Mn361 Mn 0.49586 0.00206 0.13269
 C362 C 0.57503 0.05839 0.14630
 C363 C 0.50620 -0.06155 0.15617
 N364 N 0.47201 0.03290 -0.07763
 N365 N 0.46872 0.05333 -0.09037
 N366 N 0.45564 -0.02403 -0.12792
 N367 N 0.44194 -0.04472 -0.17107
 N368 N 0.44015 -0.02264 -0.07767
 N369 N 0.41529 -0.04217 -0.08619
 N370 N 0.48753 0.03154 -0.12788
 N371 N 0.49528 0.05097 -0.17589
 Mn372 Mn 0.45592 0.00515 0.00219
 C373 C 0.48352 0.06449 -0.15169
 C374 C 0.41682 -0.05568 -0.14490
 N375 N 0.51749 -0.03055 -0.07790
 N376 N 0.52037 -0.05119 -0.09109
 N377 N 0.53464 0.02696 -0.12800
 N378 N 0.54897 0.04688 -0.17299
 N379 N 0.54994 0.02483 -0.07830
 N380 N 0.57512 0.04311 -0.08835
 N381 N 0.50249 -0.02852 -0.12881
 N382 N 0.49466 -0.04772 -0.17768
 Mn383 Mn 0.53424 -0.00269 0.00149
 Mn384 Mn 0.49510 0.00156 -0.12890
 Cl385 Cl 0.49528 0.00153 0.00188
 C386 C 0.50582 -0.06178 -0.15339
 C387 C 0.57417 0.05669 -0.14758
 C388 C 1.13291 0.49110 0.23172
 C389 C 1.12337 0.50777 0.25315
 N390 N 1.13692 0.52674 0.30448
 C391 C 1.15965 0.52991 0.33585
 C392 C 1.16946 0.51290 0.31573
 N393 N 1.15536 0.49393 0.26364
 N394 N 1.11951 0.47225 0.17961
 C395 C 1.09683 0.46927 0.14821
 C396 C 1.08694 0.48567 0.17070
 N397 N 1.10056 0.50459 0.22272
 H398 H 1.16891 0.54503 0.37748
 H399 H 1.08648 0.45405 0.10694
 C400 C 0.52409 0.65228 0.22627
 C401 C 0.50830 0.62663 0.25440
 N402 N 0.49141 0.62240 0.31107
 C403 C 0.48958 0.64269 0.34117
 C404 C 0.50551 0.66855 0.31364
 N405 N 0.52247 0.67262 0.25673
 N406 N 0.54097 0.65644 0.16945
 C407 C 0.54284 0.63609 0.13964
 C408 C 0.52728 0.61045 0.16843
 N409 N 0.51033 0.60640 0.22516
 H410 H 0.47635 0.63870 0.38741
 H411 H 0.55648 0.63994 0.09450
 C412 C 0.35552 -0.12684 0.23890
 C413 C 0.38212 -0.11711 0.25941
 N414 N 0.38815 -0.13054 0.30926
 C415 C 0.36881 -0.15340 0.33982
 C416 C 0.34172 -0.16349 0.32021
 N417 N 0.33607 -0.14953 0.26999
 N418 N 0.34956 -0.11340 0.18840
 C419 C 0.36912 -0.09056 0.15773
 C420 C 0.39579 -0.08058 0.17919
 N421 N 0.40156 -0.09422 0.22961
 H422 H 0.37492 -0.16264 0.38081
 H423 H 0.36387 -0.08021 0.11770
 C424 C 0.86330 0.49534 0.22574
 C425 C 0.87757 0.48520 0.26203
 N426 N 0.86776 0.47127 0.32529
 C427 C 0.84434 0.46705 0.35424
 C428 C 0.82980 0.47720 0.31813
 N429 N 0.83994 0.49113 0.25448
 N430 N 0.87333 0.50977 0.16326
 C431 C 0.89712 0.51462 0.13552
 C432 C 0.91155 0.50457 0.17192
 N433 N 0.90129 0.48996 0.23434
 H434 H 0.83783 0.45656 0.40591
 H435 H 0.90465 0.52619 0.08563
 C436 C 0.49170 0.37122 0.27573
 C437 C 0.47342 0.36584 0.21820
 N438 N 0.45603 0.34033 0.19932
 C439 C 0.45593 0.31994 0.23572
 C440 C 0.47407 0.32522 0.29403
 N441 N 0.49164 0.35091 0.31196
 N442 N 0.50903 0.39667 0.29503
 C443 C 0.50885 0.41705 0.25963
 C444 C 0.49050 0.41179 0.20214
 N445 N 0.47323 0.38620 0.18261
 H446 H 0.44203 0.29988 0.21853
 H447 H 0.52288 0.43715 0.27641
 C448 C 0.64250 0.12650 0.23236
 C449 C 0.61713 0.11719 0.26292
 N450 N 0.61428 0.13006 0.32126
 C451 C 0.63565 0.15189 0.35049
 C452 C 0.66123 0.16142 0.32007
 N453 N 0.66388 0.14824 0.26167
 N454 N 0.64537 0.11355 0.17420
 C455 C 0.62400 0.09164 0.14524
 C456 C 0.59856 0.08215 0.17597
 N457 N 0.59578 0.09526 0.23422
 H458 H 0.63266 0.16120 0.39812
 H459 H 0.62689 0.08171 0.09887
 C460 C 0.48824 0.12993 -0.26468
 C461 C 0.47091 0.11855 -0.20489
 N462 N 0.45510 0.12830 -0.18450
 C463 C 0.45553 0.14875 -0.22150
 C464 C 0.47274 0.16029 -0.28275
 N465 N 0.48877 0.15035 -0.30160
 N466 N 0.50400 0.12014 -0.28566
 C467 C 0.50308 0.09931 -0.24966
 C468 C 0.48560 0.08770 -0.18981
 N469 N 0.46997 0.09775 -0.16866
 H470 H 0.44278 0.15581 -0.20146
 H471 H 0.51579 0.09183 -0.26788
 C472 C 0.64317 0.50916 -0.24351
 C473 C 0.61651 0.49175 -0.26275
 N474 N 0.61067 0.47192 -0.31125
 C475 C 0.63022 0.46859 -0.34146
 C476 C 0.65733 0.48619 -0.32294
 N477 N 0.66273 0.50610 -0.27419
 N478 N 0.64913 0.52890 -0.19445
 C479 C 0.62957 0.53204 -0.16378
 C480 C 0.60278 0.51482 -0.18354
 N481 N 0.59690 0.49501 -0.23280
 H482 H 0.62427 0.45287 -0.38117
 H483 H 0.63493 0.54797 -0.12478
 C484 C 0.87185 0.36837 -0.26959
 C485 C 0.88282 0.36212 -0.20940
 N486 N 0.87098 0.33677 -0.18542
 C487 C 0.84884 0.31722 -0.21932
 C488 C 0.83776 0.32318 -0.28113
 N489 N 0.84980 0.34895 -0.30348
 N490 N 0.88363 0.39369 -0.29402
 C491 C 0.90604 0.41310 -0.26101
 C492 C 0.91725 0.40691 -0.20080
 N493 N 0.90524 0.38147 -0.17622
 H494 H 0.84022 0.29759 -0.19666
 H495 H 0.91503 0.43312 -0.28179
 C496 C 0.50005 -0.12713 -0.26928
 C497 C 0.51509 -0.11814 -0.20405
 N498 N 0.52818 -0.13036 -0.17899
 C499 C 0.52718 -0.15098 -0.21659
 C500 C 0.51247 -0.15981 -0.28293
 N501 N 0.49912 -0.14760 -0.30694
 N502 N 0.48683 -0.11507 -0.29442
 C503 C 0.48809 -0.09427 -0.25750
 C504 C 0.50338 -0.08495 -0.19252
 N505 N 0.51648 -0.09725 -0.16715
 H506 H 0.53750 -0.16047 -0.19409
 H507 H 0.47742 -0.08498 -0.27912
 C508 C 0.36592 0.49908 -0.23280
 C509 C 0.39081 0.51046 -0.26776
 N510 N 0.39440 0.52333 -0.33274
 C511 C 0.37427 0.52541 -0.36441
 C512 C 0.34919 0.51411 -0.32950
 N513 N 0.34579 0.50111 -0.26438
 N514 N 0.36221 0.48598 -0.16815
 C515 C 0.38228 0.48368 -0.13688
 C516 C 0.40724 0.49498 -0.17188
 N517 N 0.41086 0.50817 -0.23666
 H518 H 0.37778 0.53525 -0.41709
 H519 H 0.37873 0.47309 -0.08535
 C520 C 1.13445 0.64280 -0.22686
 C521 C 1.12487 0.61674 -0.25020
 N522 N 1.13805 0.61171 -0.30336
 C523 C 1.16046 0.63156 -0.33476
 C524 C 1.17025 0.65812 -0.31260
 N525 N 1.15662 0.66272 -0.25875
 N526 N 1.12123 0.64781 -0.17331
 C527 C 1.09869 0.62781 -0.14244
 C528 C 1.08878 0.60171 -0.16696
 N529 N 1.10225 0.59688 -0.22023
 H530 H 1.16950 0.62624 -0.37826
 H531 H 1.08844 0.63230 -0.10016
 C532 C 0.86843 0.50557 -0.23337
 C533 C 0.89032 0.51239 -0.27948
 N534 N 0.88850 0.51639 -0.35233
 C535 C 0.86581 0.51401 -0.38147
 C536 C 0.84338 0.50661 -0.33589
 N537 N 0.84544 0.50236 -0.26273
 N538 N 0.87068 0.50271 -0.15981
 C539 C 0.89387 0.50632 -0.13039
 C540 C 0.91551 0.51237 -0.17690
 N541 N 0.91319 0.51520 -0.25053
 H542 H 0.86514 0.51669 -0.44027
 H543 H 0.89525 0.50401 -0.07155
 C544 C 0.47455 0.35830 -0.24050
 C545 C 0.49742 0.38308 -0.25128
 N546 N 0.51737 0.38500 -0.29432
 C547 C 0.51562 0.36326 -0.32705
 C548 C 0.49243 0.33818 -0.31761
 N549 N 0.47247 0.33669 -0.27450
 N550 N 0.45487 0.35618 -0.19572
 C551 C 0.45700 0.37783 -0.16142
 C552 C 0.47960 0.40282 -0.17362
 N553 N 0.49931 0.40483 -0.21848
 H554 H 0.53179 0.36607 -0.36234
 H555 H 0.44099 0.37563 -0.12615
 C556 C 0.64136 0.12182 -0.24300
 C557 C 0.61555 0.11704 -0.25772
 N558 N 0.61221 0.13370 -0.30274
 C559 C 0.63356 0.15493 -0.33390
 C560 C 0.65941 0.15952 -0.32019
 N561 N 0.66261 0.14273 -0.27504
 N562 N 0.64477 0.10553 -0.19674
 C563 C 0.62349 0.08456 -0.16459
 C564 C 0.59759 0.07943 -0.18027
 N565 N 0.59426 0.09586 -0.22660
 H566 H 0.63035 0.16777 -0.37015
 H567 H 0.62675 0.07184 -0.12796
 C568 C 1.13227 0.48995 -0.24505
 C569 C 1.12729 0.51086 -0.25520
 N570 N 1.14489 0.53250 -0.29414
 C571 C 1.16719 0.53410 -0.32371
 C572 C 1.17194 0.51293 -0.31492
 N573 N 1.15421 0.49132 -0.27572
 N574 N 1.11506 0.46856 -0.20483
 C575 C 1.09299 0.46706 -0.17434
 C576 C 1.08760 0.48768 -0.18554
 N577 N 1.10495 0.50918 -0.22587
 H578 H 1.18070 0.55141 -0.35537
 H579 H 1.07960 0.44975 -0.14250
 C580 C 0.52577 0.64754 -0.25830
 C581 C 0.50328 0.62212 -0.26230
 N582 N 0.48100 0.61861 -0.29701
 C583 C 0.48007 0.63936 -0.32767
 C584 C 0.50278 0.66509 -0.32470
 N585 N 0.52508 0.66814 -0.29011
 N586 N 0.54785 0.65135 -0.22172
 C587 C 0.54845 0.63080 -0.18881
 C588 C 0.52612 0.60519 -0.19375
 N589 N 0.50401 0.60143 -0.23070
 H590 H 0.46205 0.63529 -0.35623
 H591 H 0.56628 0.63438 -0.15975
 C592 C 0.35383 -0.12509 -0.23922
 C593 C 0.38005 -0.12020 -0.24000
 N594 N 0.38542 -0.13789 -0.27214
 C595 C 0.36576 -0.16036 -0.30383
 C596 C 0.33928 -0.16526 -0.30523
 N597 N 0.33425 -0.14715 -0.27272
 N598 N 0.34838 -0.10769 -0.20501
 C599 C 0.36812 -0.08545 -0.17208
 C600 C 0.39455 -0.08011 -0.17518
 N601 N 0.39982 -0.09771 -0.20909
 H602 H 0.37132 -0.17335 -0.33063
 H603 H 0.36336 -0.07178 -0.14557
 C604 C 0.49913 -0.12779 0.26942
 C605 C 0.52062 -0.11310 0.22158
 N606 N 0.53980 -0.11970 0.21406
 C607 C 0.53852 -0.14030 0.25240
 C608 C 0.51692 -0.15519 0.30000
 N609 N 0.49766 -0.14855 0.30689
 N610 N 0.48031 -0.12081 0.27857
 C611 C 0.48204 -0.09968 0.24228
 C612 C 0.50343 -0.08501 0.19397
 N613 N 0.52220 -0.09217 0.18453
 H614 H 0.55400 -0.14524 0.24498
 H615 H 0.46683 -0.09444 0.25090
 C616 C 0.37705 0.51219 0.25847
 C617 C 0.36949 0.48915 0.21717
 N618 N 0.34331 0.47029 0.21236
 C619 C 0.32435 0.47335 0.24737
 C620 C 0.33186 0.49646 0.28851
 N621 N 0.35812 0.51540 0.29260
 N622 N 0.40326 0.53070 0.26528
 C623 C 0.42232 0.52717 0.23294
 C624 C 0.41485 0.50420 0.19123
 N625 N 0.38851 0.48575 0.18402
 H626 H 0.30361 0.45801 0.24275
 H627 H 0.44310 0.54219 0.23954
 C628 C 1.12687 0.64053 0.25365
 C629 C 1.12281 0.61491 0.26250
 N630 N 1.14105 0.61151 0.30053
 C631 C 1.16315 0.63257 0.33013
 C632 C 1.16707 0.65822 0.32211
 N633 N 1.14866 0.66146 0.28414
 N634 N 1.10912 0.64415 0.21409
 C635 C 1.08745 0.62329 0.18270
 C636 C 1.08306 0.59755 0.19207
 N637 N 1.10088 0.59393 0.23208
 H638 H 1.17724 0.62927 0.36077
 H639 H 1.07367 0.62678 0.15113
 C640 C 0.48744 0.12899 0.27088
 C641 C 0.46552 0.11293 0.22539
 N642 N 0.44499 0.11773 0.22043
 C643 C 0.44540 0.13789 0.25892
 C644 C 0.46750 0.15424 0.30378
 N645 N 0.48804 0.14935 0.30830
 N646 N 0.50763 0.12379 0.27760
 C647 C 0.50689 0.10317 0.24097
 C648 C 0.48514 0.08722 0.19470
 N649 N 0.46495 0.09256 0.18785
 H650 H 0.42888 0.14142 0.25351
 H651 H 0.52319 0.09936 0.24759
 C652 C 0.64562 0.50989 0.22863
 C653 C 0.61871 0.49205 0.24430
 N654 N 0.61216 0.47095 0.28864
 C655 C 0.63137 0.46702 0.31873
 C656 C 0.65838 0.48531 0.30494
 N657 N 0.66479 0.50632 0.25997
 N658 N 0.65217 0.53073 0.18325
 C659 C 0.63299 0.53468 0.15319
 C660 C 0.60609 0.51730 0.17055
 N661 N 0.59959 0.49631 0.21563
 H662 H 0.62566 0.45032 0.35499
 H663 H 0.63872 0.55151 0.11743
 C664 C 0.87229 0.35394 0.22387
 C665 C 0.89060 0.37438 0.27007
 N666 N 0.88681 0.37232 0.34417
 C667 C 0.86551 0.35076 0.37425
 C668 C 0.84689 0.33051 0.32809
 N669 N 0.85071 0.33267 0.25375
 N670 N 0.87657 0.35558 0.14999
 C671 C 0.89836 0.37674 0.12014
 C672 C 0.91644 0.39743 0.16609
 N673 N 0.91206 0.39576 0.24014
 H674 H 0.86284 0.34963 0.43348
 H675 H 0.90136 0.37755 0.06107
   
