data_POSCAR
  _audit_creation_date              2014-09-24
  _audit_creation_method            'ToBaCCo'
  _symmetry_space_group_name_H-M    'P1'
  _symmetry_Int_Tables_number       1
  _symmetry_cell_setting            triclinic
  loop_
  _symmetry_equiv_pos_as_xyz
 x,y,z
_cell_length_a 21.6986
_cell_length_b 22.0576
_cell_length_c 20.3630
_cell_angle_alpha 92.105900
_cell_angle_beta 90.161800
_cell_angle_gamma 92.696100
loop_
  _atom_site_label
  _atom_site_type_symbol
  _atom_site_fract_x
  _atom_site_fract_y
  _atom_site_fract_z
C1 C 0.29111 0.43166 0.99288
 C2 C 0.24217 0.42844 1.04730
 C3 C 0.20963 0.47957 1.05483
 C4 C 0.22758 0.52900 1.00604
 C5 C 0.25391 0.44536 0.93139
 C6 C 0.21983 0.49587 0.93787
 C7 C 0.32979 0.48958 1.00907
 C8 C 0.29745 0.54024 1.01597
 H9 H 0.23173 0.38850 1.07528
 H10 H 0.20147 0.57090 1.01224
 H11 H 0.24895 0.41332 0.88995
 H12 H 0.37973 0.49064 1.01259
 C13 C 0.70664 0.56848 0.00667
 C14 C 0.75131 0.56296 0.06481
 C15 C 0.78475 0.51211 0.06061
 C16 C 0.77159 0.47168 -0.00161
 C17 C 0.74824 0.56548 -0.05387
 C18 C 0.78298 0.51521 -0.05908
 C19 C 0.66871 0.50879 0.00437
 C20 C 0.70159 0.45854 -0.00003
 H21 H 0.75987 0.59745 0.10321
 H22 H 0.79770 0.42968 -0.00364
 H23 H 0.75331 0.60351 -0.08569
 H24 H 0.61878 0.50644 0.00828
 C25 C 0.07154 0.20400 0.50028
 C26 C 0.06591 0.24106 0.44314
 C27 C 0.01231 0.27764 0.44241
 C28 C -0.02716 0.26727 0.50017
 C29 C 0.06811 0.24949 0.55930
 C30 C 0.01627 0.28245 0.55942
 C31 C 0.01116 0.16621 0.50323
 C32 C -0.04040 0.19793 0.50133
 H33 H 0.10377 0.24519 0.40912
 H34 H -0.07030 0.29190 0.50283
 H35 H 0.10521 0.25978 0.59402
 H36 H 0.00931 0.11703 0.50483
 C37 C 0.92872 0.79618 0.49845
 C38 C 0.93463 0.75138 0.43918
 C39 C 0.98658 0.71828 0.44074
 C40 C 1.02844 0.73399 0.50123
 C41 C 0.93325 0.75606 0.55829
 C42 C 0.98501 0.72333 0.55972
 C43 C 0.98890 0.83442 0.49796
 C44 C 1.04074 0.80325 0.50101
 H45 H 0.89847 0.74154 0.40327
 H46 H 1.07116 0.70827 0.50286
 H47 H 0.89571 0.74938 0.59262
 H48 H 0.99032 0.88355 0.49583
 C49 C 0.50084 0.07123 0.20021
 C50 C 0.44153 0.05958 0.23909
 C51 C 0.44071 0.00834 0.27487
 C52 C 0.50065 -0.02673 0.26771
 C53 C 0.55117 0.07276 0.25308
 C54 C 0.55323 0.02070 0.28721
 C55 C 0.50954 0.01629 0.16124
 C56 C 0.50858 -0.03761 0.19750
 H57 H 0.40648 0.09283 0.24290
 H58 H 0.50096 -0.06900 0.29531
 H59 H 0.57985 0.11283 0.26557
 H60 H 0.51201 0.01574 0.10802
 C61 C 0.49762 -0.07279 0.79936
 C62 C 0.44104 -0.06837 0.75553
 C63 C 0.44109 -0.01763 0.71899
 C64 C 0.49974 0.02423 0.72974
 C65 C 0.55172 -0.06830 0.75127
 C66 C 0.55420 -0.01688 0.71592
 C67 C 0.50235 -0.01306 0.83992
 C68 C 0.50315 0.03723 0.80375
 H69 H 0.40664 -0.10536 0.75086
 H70 H 0.50110 0.06676 0.70254
 H71 H 0.58294 -0.10413 0.74201
 H72 H 0.50557 -0.01083 0.89310
 C73 C 0.28888 0.01389 0.36447
 H74 H 0.24584 0.03547 0.35899
 C75 C 0.33176 0.01718 0.31385
 H76 H 0.31965 0.03993 0.26978
 C77 C 0.35669 -0.04147 0.42784
 H78 H 0.36645 -0.06370 0.47292
 C79 C 0.40174 -0.03771 0.37910
 H80 H 0.44584 -0.05656 0.38813
 N81 N 0.30258 -0.01351 0.42103
 C82 C 0.21172 0.11061 0.54146
 H83 H 0.24629 0.10808 0.57947
 C84 C 0.17156 0.15875 0.54347
 H85 H 0.17621 0.19210 0.58349
 C86 C 0.16133 0.06704 0.44673
 H87 H 0.15476 0.02942 0.41148
 C88 C 0.12236 0.11532 0.44512
 H89 H 0.08700 0.11464 0.40739
 Zn90 Zn 0.25170 -0.00587 0.49631
 N91 N 0.20523 0.06540 0.49416
 C92 C 0.35660 0.03450 0.56915
 N93 N 0.30402 -0.00144 0.57097
 C94 C 0.29187 -0.03750 0.62242
 C95 C 0.33427 -0.04006 0.67342
 C96 C 0.40154 0.03155 0.61803
 C97 C 0.19441 -0.12249 0.45782
 C98 C 0.14690 -0.16790 0.46030
 C99 C 0.10528 -0.11379 0.55419
 C100 C 0.15219 -0.06922 0.54903
 N101 N 0.19521 -0.07377 0.50109
 H102 H 0.36517 0.06292 0.52764
 H103 H 0.25014 -0.06583 0.62358
 H104 H 0.32235 -0.06877 0.71378
 H105 H 0.44430 0.05782 0.61274
 H106 H 0.22890 -0.12478 0.41968
 H107 H 0.14388 -0.20418 0.42297
 H108 H 0.06999 -0.10789 0.59112
 H109 H 0.15332 -0.02967 0.58214
 C110 C 0.12485 0.16089 0.49555
 C111 C 0.39045 -0.00595 0.32213
 C112 C 0.10070 -0.16254 0.50788
 C113 C 0.39152 -0.00757 0.67034
 C114 C 0.64510 0.04156 0.57082
 H115 H 0.63812 0.06817 0.52809
 C116 C 0.59784 0.03476 0.61677
 H117 H 0.55505 0.05643 0.60853
 C118 C 0.70758 -0.02308 0.62959
 H119 H 0.74905 -0.04745 0.63396
 C120 C 0.66266 -0.02937 0.67764
 H121 H 0.67236 -0.05646 0.71932
 N122 N 0.69765 0.01080 0.57659
 C123 C 0.84671 0.07270 0.44933
 H124 H 0.84481 0.03469 0.41414
 C125 C 0.89358 0.11757 0.44540
 H126 H 0.92808 0.11337 0.40734
 C127 C 0.80679 0.12155 0.54459
 H128 H 0.77338 0.12191 0.58390
 C129 C 0.85426 0.16717 0.54327
 H130 H 0.85822 0.20164 0.58251
 Zn131 Zn 0.74904 0.00590 0.50201
 N132 N 0.80491 0.07481 0.49874
 C133 C 0.70426 0.04194 0.37999
 N134 N 0.69552 0.00227 0.42880
 C135 C 0.64417 -0.03550 0.43055
 C136 C 0.59711 -0.03133 0.38417
 C137 C 0.65961 0.04614 0.33165
 C138 C 0.83817 -0.06788 0.55145
 C139 C 0.87633 -0.11668 0.55370
 C140 C 0.83053 -0.15762 0.45243
 C141 C 0.79070 -0.10920 0.45401
 N142 N 0.79592 -0.06502 0.50254
 H143 H 0.74488 0.07193 0.37929
 H144 H 0.63821 -0.06641 0.47032
 H145 H 0.55553 -0.05963 0.38885
 H146 H 0.66891 0.07756 0.29299
 H147 H 0.84346 -0.03114 0.58798
 H148 H 0.91025 -0.11713 0.59282
 H149 H 0.82730 -0.19007 0.41145
 H150 H 0.75740 -0.10567 0.41490
 C151 C 0.89929 0.16420 0.49415
 C152 C 0.60549 -0.00292 0.66995
 C153 C 0.87526 -0.16115 0.50221
 C154 C 0.60369 0.01129 0.33483
 C155 C 0.45076 0.17192 1.06521
 H156 H 0.41267 0.17374 1.03105
 C157 C 0.44832 0.13000 1.11453
 H158 H 0.40817 0.09920 1.11769
 C159 C 0.55171 0.20617 1.09808
 H160 H 0.59308 0.23375 1.08929
 C161 C 0.55176 0.16412 1.14735
 H162 H 0.59392 0.16029 1.17481
 N163 N 0.50171 0.20916 1.05827
 C164 C 0.41966 0.33473 0.92846
 H165 H 0.44905 0.33184 0.88574
 C166 C 0.36987 0.37267 0.92893
 H167 H 0.36221 0.39968 0.88660
 C168 C 0.39848 0.30822 1.03796
 H169 H 0.41151 0.28557 1.08164
 C170 C 0.34879 0.34591 1.04079
 H171 H 0.32555 0.35183 1.08727
 Zn172 Zn 0.50441 0.25751 0.98460
 N173 N 0.43291 0.30335 0.98251
 C174 C 0.46288 0.19146 0.86827
 N175 N 0.50904 0.20243 0.91313
 C176 C 0.55709 0.16544 0.91720
 C177 C 0.55798 0.11251 0.87826
 C178 C 0.46258 0.13923 0.82728
 C179 C 0.57893 0.34616 1.04570
 C180 C 0.62660 0.38997 1.05361
 C181 C 0.66563 0.35976 0.94679
 C182 C 0.61768 0.31502 0.94158
 N183 N 0.57470 0.31050 0.99000
 H184 H 0.42419 0.22047 0.86742
 H185 H 0.59236 0.17487 0.95431
 H186 H 0.59449 0.08136 0.88470
 H187 H 0.42407 0.12858 0.79421
 H188 H 0.54396 0.34156 1.08319
 H189 H 0.62736 0.42032 1.09672
 H190 H 0.69659 0.36680 0.90585
 H191 H 0.61293 0.28629 0.89751
 C192 C 0.33353 0.37898 0.98579
 C193 C 0.49943 0.12518 1.15632
 C194 C 0.66883 0.39896 1.00249
 C195 C 0.50925 0.09823 0.83449
 C196 C 0.44233 0.82598 -0.06418
 H197 H 0.40576 0.82501 -0.02818
 C198 C 0.44286 0.86857 -0.11293
 H199 H 0.40594 0.89987 -0.11465
 C200 C 0.53770 0.79012 -0.10167
 H201 H 0.57642 0.76206 -0.09500
 C202 C 0.54059 0.83258 -0.15055
 H203 H 0.58148 0.83456 -0.18038
 N204 N 0.48948 0.78804 -0.05924
 C205 C 0.41951 0.65357 0.07621
 H206 H 0.45568 0.65699 0.11302
 C207 C 0.37401 0.60690 0.07805
 H208 H 0.37561 0.57399 0.11615
 C209 C 0.37750 0.68769 -0.02274
 H210 H 0.38073 0.71712 -0.06386
 C211 C 0.33071 0.64193 -0.02240
 H212 H 0.29879 0.63630 -0.06342
 Zn213 Zn 0.49343 0.74284 0.01720
 N214 N 0.42165 0.69158 0.02520
 C215 C 0.46940 0.80322 0.14253
 N216 N 0.50313 0.80081 0.08635
 C217 C 0.54442 0.84619 0.07125
 C218 C 0.54865 0.89939 0.10944
 C219 C 0.47463 0.85500 0.18457
 C220 C 0.56870 0.65673 -0.03911
 C221 C 0.61910 0.62030 -0.04458
 C222 C 0.65635 0.66136 0.06060
 C223 C 0.60633 0.69913 0.06265
 N224 N 0.56329 0.69527 0.01376
 H225 H 0.43668 0.76650 0.15329
 H226 H 0.57153 0.84242 0.02697
 H227 H 0.57992 0.93600 0.09441
 H228 H 0.44522 0.85773 0.22735
 H229 H 0.53362 0.65441 -0.07710
 H230 H 0.62185 0.58907 -0.08669
 H231 H 0.68780 0.66342 0.10181
 H232 H 0.60081 0.73004 0.10443
 C233 C 0.33047 0.59950 0.02693
 C234 C 0.49323 0.87354 -0.15606
 C235 C 0.66258 0.62013 0.00691
 C236 C 0.51199 0.90528 0.16575
 C237 C 1.06639 0.44243 0.15192
 H238 H 1.02929 0.40792 0.15238
 C239 C 1.11264 0.43859 0.10487
 H240 H 1.11158 0.40054 0.06964
 C241 C 1.11199 0.53482 0.19643
 H242 H 1.11093 0.57247 0.23190
 C243 C 1.15856 0.53351 0.14885
 H244 H 1.19410 0.56965 0.14849
 N245 N 1.06744 0.48928 0.19734
 C246 C 0.95502 0.41444 0.35814
 H247 H 0.92044 0.44788 0.36485
 C248 C 0.95792 0.36687 0.40204
 H249 H 0.92471 0.36616 0.44127
 C250 C 1.04125 0.37947 0.30054
 H251 H 1.07511 0.38477 0.26230
 C252 C 1.04493 0.33063 0.34192
 H253 H 1.08048 0.29937 0.33089
 Zn254 Zn 0.99886 0.49095 0.25504
 N255 N 0.99704 0.42063 0.30908
 C256 C 0.87601 0.45794 0.20404
 N257 N 0.92935 0.49231 0.19781
 C258 C 0.93772 0.52981 0.14658
 C259 C 0.89099 0.53590 0.10069
 C260 C 0.82779 0.46246 0.15856
 C261 C 1.02244 0.56112 0.37351
 C262 C 1.01971 0.61198 0.41654
 C263 C 0.97762 0.66757 0.32841
 C264 C 0.98150 0.61592 0.28703
 N265 N 1.00257 0.56352 0.31019
 H266 H 0.87063 0.42759 0.24434
 H267 H 0.98099 0.55551 0.14145
 H268 H 0.89805 0.56679 0.06094
 H269 H 0.78495 0.43597 0.16418
 H270 H 1.03915 0.51926 0.39120
 H271 H 1.03369 0.60828 0.46725
 H272 H 0.95966 0.70833 0.30911
 H273 H 0.96605 0.61764 0.23684
 C274 C 1.00435 0.32393 0.39569
 C275 C 1.15937 0.48446 0.10307
 C276 C 0.99592 0.66581 0.39441
 C277 C 0.83527 0.50243 0.10681
 C278 C -0.07164 0.46752 0.85124
 H279 H -0.03380 0.43817 0.85831
 C280 C -0.11954 0.46895 0.89728
 H281 H -0.11678 0.44091 0.93944
 C282 C -0.11741 0.54259 0.79003
 H283 H -0.11623 0.57250 0.74933
 C284 C -0.16719 0.54382 0.83332
 H285 H -0.20389 0.57349 0.82279
 N286 N -0.07038 0.50527 0.79977
 C287 C 0.04549 0.43800 0.63919
 H288 H 0.07528 0.47798 0.63258
 C289 C 0.05023 0.38746 0.59648
 H290 H 0.08450 0.38824 0.55789
 C291 C -0.03692 0.38894 0.69567
 H292 H -0.07102 0.38982 0.73424
 C293 C -0.03446 0.33764 0.65304
 H294 H -0.06634 0.29901 0.65920
 Zn295 Zn 0.00138 0.50904 0.74461
 N296 N 0.00345 0.43751 0.68870
 C297 C 0.12814 0.49566 0.77882
 N298 N 0.07324 0.51592 0.80055
 C299 C 0.06700 0.53649 0.86400
 C300 C 0.11540 0.53311 0.90919
 C301 C 0.17786 0.49204 0.82216
 C302 C -0.04673 0.57502 0.64255
 C303 C -0.05219 0.62306 0.60043
 C304 C 0.03925 0.67203 0.64999
 C305 C 0.04220 0.62350 0.69246
 N306 N -0.00097 0.57656 0.68852
 H307 H 0.13313 0.48018 0.72840
 H308 H 0.02354 0.55350 0.88046
 H309 H 0.10769 0.54636 0.96008
 H310 H 0.22048 0.47439 0.80380
 H311 H -0.07954 0.53655 0.63916
 H312 H -0.08939 0.62153 0.56473
 H313 H 0.07360 0.70926 0.65351
 H314 H 0.07888 0.62335 0.72851
 C315 C 0.01024 0.33647 0.60354
 C316 C -0.16808 0.50831 0.88951
 C317 C -0.00909 0.67240 0.60421
 C318 C 0.17130 0.50893 0.88895
   
