data_POSCAR
  _audit_creation_date              2014-09-24
  _audit_creation_method            'ToBaCCo'
  _symmetry_space_group_name_H-M    'P1'
  _symmetry_Int_Tables_number       1
  _symmetry_cell_setting            triclinic
  loop_
  _symmetry_equiv_pos_as_xyz
 x,y,z
_cell_length_a 39.8936
_cell_length_b 39.5502
_cell_length_c 39.8164
_cell_angle_alpha 89.276200
_cell_angle_beta 91.987400
_cell_angle_gamma 84.496800
loop_
  _atom_site_label
  _atom_site_type_symbol
  _atom_site_fract_x
  _atom_site_fract_y
  _atom_site_fract_z
N1 N 0.59074 0.67314 0.60525
 N2 N 0.57485 0.65808 0.62870
 C3 C 0.54535 0.67647 0.63388
 C4 C 0.54260 0.70453 0.61243
 C5 C 0.57190 0.70153 0.59461
 H6 H 0.52733 0.67005 0.65201
 H7 H 0.57949 0.71918 0.57602
 Cu8 Cu 0.59528 0.61690 0.65133
 Cu9 Cu 0.63579 0.65614 0.59221
 Cu10 Cu 0.65837 0.57162 0.61394
 N11 N 0.61532 0.57377 0.67032
 N12 N 0.64080 0.55678 0.65609
 C13 C 0.65036 0.52838 0.67423
 C14 C 0.62958 0.52718 0.70144
 C15 C 0.60750 0.55655 0.69791
 H16 H 0.67051 0.50978 0.66742
 H17 H 0.58765 0.56522 0.71442
 N18 N 0.68140 0.59621 0.57971
 N19 N 0.67341 0.62859 0.57208
 C20 C 0.69415 0.63815 0.54853
 C21 C 0.71645 0.61043 0.54099
 C22 C 0.70753 0.58431 0.56136
 H23 H 0.69267 0.66333 0.53740
 H24 H 0.71945 0.55861 0.56317
 H25 H 0.62065 0.60912 0.59678
 H26 H 0.65170 0.62006 0.63008
 N27 N 0.91163 0.33195 0.11813
 N28 N 0.92308 0.34444 0.14622
 C29 C 0.95108 0.32515 0.15708
 C30 C 0.95796 0.29921 0.13436
 C31 C 0.93220 0.30457 0.10989
 H32 H 0.96570 0.33018 0.17948
 H33 H 0.92816 0.28944 0.08798
 Cu34 Cu 0.90088 0.38547 0.16513
 Cu35 Cu 0.87037 0.35156 0.09478
 Cu36 Cu 0.82981 0.42396 0.12911
 N37 N 0.87806 0.42615 0.18411
 N38 N 0.85005 0.44087 0.16999
 C39 C 0.83940 0.46822 0.18788
 C40 C 0.86204 0.47100 0.21461
 C41 C 0.88630 0.44384 0.21139
 H42 H 0.81713 0.48517 0.18153
 H43 H 0.90814 0.43733 0.22784
 N44 N 0.81325 0.40303 0.08791
 N45 N 0.82830 0.37520 0.07505
 C46 C 0.81040 0.36696 0.04751
 C47 C 0.78297 0.39093 0.04267
 C48 C 0.78564 0.41339 0.06873
 H49 H 0.81700 0.34536 0.03187
 H50 H 0.76837 0.43537 0.07365
 H51 H 0.87381 0.40065 0.11045
 H52 H 0.84847 0.37362 0.13638
 N53 N 0.42268 0.17560 -0.10625
 N54 N 0.44141 0.15437 -0.12457
 C55 C 0.47012 0.16797 -0.13136
 C56 C 0.46925 0.19957 -0.11671
 C57 C 0.43871 0.20362 -0.10104
 H58 H 0.48993 0.15600 -0.14628
 H59 H 0.42926 0.22499 -0.08627
 Cu60 Cu 0.42644 0.11137 -0.13880
 Cu61 Cu 0.38018 0.16405 -0.08861
 Cu62 Cu 0.34818 0.09282 -0.12138
 N63 N 0.40450 0.07693 -0.16321
 N64 N 0.37387 0.06992 -0.15659
 C65 C 0.36467 0.04591 -0.17774
 C66 C 0.39099 0.03735 -0.19884
 C67 C 0.41589 0.05761 -0.18877
 H68 H 0.34061 0.03547 -0.17768
 H69 H 0.44021 0.05884 -0.19964
 N70 N 0.32620 0.11984 -0.08569
 N71 N 0.33789 0.14758 -0.07381
 C72 C 0.31786 0.15996 -0.04940
 C73 C 0.29248 0.13884 -0.04554
 C74 C 0.29858 0.11369 -0.06902
 H75 H 0.32221 0.18191 -0.03454
 H76 H 0.28414 0.09230 -0.07344
 H77 H 0.38705 0.11183 -0.09345
 H78 H 0.36974 0.13728 -0.13134
 N79 N 0.08294 0.81916 0.37947
 N80 N 0.07361 0.82998 0.34896
 C81 C 0.04770 0.81326 0.33781
 C82 C 0.04009 0.79064 0.36282
 C83 C 0.06313 0.79535 0.38896
 H84 H 0.03524 0.81768 0.31341
 H85 H 0.06601 0.78201 0.41288
 Cu86 Cu 0.09603 0.86497 0.32662
 Cu87 Cu 0.12119 0.83555 0.40380
 Cu88 Cu 0.15565 0.90428 0.36867
 N89 N 0.11060 0.90754 0.31061
 N90 N 0.13447 0.92241 0.32649
 C91 C 0.14006 0.95078 0.30934
 C92 C 0.11824 0.95401 0.28140
 C93 C 0.09988 0.92611 0.28310
 H94 H 0.15821 0.96808 0.31693
 H95 H 0.08047 0.91956 0.26539
 N96 N 0.17314 0.88200 0.41122
 N97 N 0.16006 0.85567 0.42441
 C98 C 0.17785 0.84551 0.45267
 C99 C 0.20329 0.86652 0.45770
 C100 C 0.19946 0.88946 0.43097
 H101 H 0.17265 0.82439 0.46851
 H102 H 0.21519 0.90959 0.42588
 H103 H 0.11235 0.88370 0.38213
 H104 H 0.14604 0.85417 0.36361
 C105 C 0.10165 0.14866 0.11441
 C106 C 0.10489 0.12494 0.14110
 C107 C 0.13175 0.09925 0.14287
 C108 C 0.15564 0.09760 0.11772
 C109 C 0.15271 0.12115 0.09082
 C110 C 0.12558 0.14659 0.08931
 H111 H 0.08638 0.12638 0.16046
 H112 H 0.17645 0.07784 0.11902
 H113 H 0.12304 0.16478 0.06858
 C114 C 0.39338 0.85192 0.63095
 C115 C 0.39187 0.87624 0.65634
 C116 C 0.36714 0.90407 0.65486
 C117 C 0.34358 0.90720 0.62764
 C118 C 0.34455 0.88285 0.60223
 C119 C 0.36968 0.85542 0.60397
 H120 H 0.41000 0.87343 0.67733
 H121 H 0.32432 0.92849 0.62633
 H122 H 0.37068 0.83660 0.58439
 C123 C 0.90849 0.65476 0.38528
 C124 C 0.90918 0.63017 0.36015
 C125 C 0.88491 0.60673 0.35857
 C126 C 0.85952 0.60838 0.38224
 C127 C 0.85847 0.63284 0.40758
 C128 C 0.88322 0.65583 0.40900
 H129 H 0.92872 0.62925 0.34185
 H130 H 0.84059 0.59050 0.38095
 H131 H 0.88284 0.67466 0.42855
 C132 C 0.58806 0.35059 -0.12087
 C133 C 0.61617 0.34700 -0.09843
 C134 C 0.64117 0.36963 -0.09993
 C135 C 0.63848 0.39508 -0.12504
 C136 C 0.61067 0.39873 -0.14775
 C137 C 0.58521 0.37683 -0.14518
 H138 H 0.61796 0.32731 -0.07910
 H139 H 0.65797 0.41225 -0.12684
 H140 H 0.56379 0.37947 -0.16283
 C141 C 0.00646 0.26867 0.16479
 C142 C -0.01496 0.27341 0.13582
 C143 C -0.00855 0.25182 0.10833
 C144 C 0.01864 0.22645 0.10966
 C145 C 0.03943 0.22181 0.13911
 C146 C 0.03311 0.24302 0.16649
 C147 C 0.06632 0.19616 0.14062
 C148 C 0.07319 0.17557 0.11275
 C149 C 0.05279 0.18072 0.08334
 C150 C 0.02556 0.20578 0.08188
 H151 H -0.02407 0.25496 0.08547
 H152 H 0.04886 0.23987 0.18925
 H153 H 0.08226 0.19252 0.16325
 H154 H 0.01000 0.20904 0.05901
 H155 H 0.00253 0.28426 0.18666
 H156 H 0.05766 0.16496 0.06166
 C157 C 0.50932 0.75213 0.58051
 C158 C 0.51522 0.73257 0.61021
 C159 C 0.49522 0.74037 0.63798
 C160 C 0.46993 0.76763 0.63627
 C161 C 0.46407 0.78698 0.60618
 C162 C 0.48382 0.77895 0.57843
 C163 C 0.43878 0.81424 0.60448
 C164 C 0.41966 0.82280 0.63266
 C165 C 0.42586 0.80358 0.66252
 C166 C 0.45065 0.77610 0.66427
 H167 H 0.49981 0.72579 0.66118
 H168 H 0.47971 0.79354 0.55519
 H169 H 0.43438 0.82921 0.58147
 H170 H 0.45484 0.76159 0.68755
 H171 H 0.52422 0.74649 0.55872
 H172 H 0.41122 0.80964 0.68442
 C173 C 0.99632 0.76300 0.33170
 C174 C 1.01505 0.76769 0.36172
 C175 C 1.00824 0.74873 0.39057
 C176 C 0.98352 0.72576 0.38944
 C177 C 0.96552 0.72100 0.35897
 C178 C 0.97205 0.73980 0.33032
 C179 C 0.94120 0.69762 0.35771
 C180 C 0.93420 0.67934 0.38670
 C181 C 0.95183 0.68462 0.41703
 C182 C 0.97644 0.70748 0.41835
 H183 H 1.02166 0.75194 0.41422
 H184 H 0.95837 0.73656 0.30677
 H185 H 0.92736 0.69395 0.33432
 H186 H 0.98992 0.71086 0.44198
 H187 H 1.00058 0.77672 0.30884
 H188 H 0.94688 0.67064 0.43960
 C189 C 0.52953 0.21130 -0.11999
 C190 C 0.49550 0.22351 -0.11731
 C191 C 0.48669 0.25869 -0.11538
 C192 C 0.51157 0.28145 -0.11651
 C193 C 0.54581 0.26884 -0.11872
 C194 C 0.55451 0.23374 -0.12040
 C195 C 0.57071 0.29156 -0.11956
 C196 C 0.56178 0.32676 -0.11910
 C197 C 0.52770 0.33910 -0.11740
 C198 C 0.50280 0.31663 -0.11581
 H199 H 0.46046 0.26838 -0.11374
 H200 H 0.58060 0.22365 -0.12221
 H201 H 0.59698 0.28196 -0.12128
 H202 H 0.47669 0.32676 -0.11427
 H203 H 0.53692 0.18430 -0.12128
 H204 H 0.52042 0.36619 -0.11694
 C205 C 0.08459 -0.01120 0.23689
 C206 C 0.11516 -0.01885 0.25525
 C207 C 0.14282 -0.00079 0.24810
 C208 C 0.14014 0.02422 0.22254
 C209 C 0.10918 0.03182 0.20439
 C210 C 0.08154 0.01406 0.21185
 C211 C 0.10648 0.05674 0.17880
 C212 C 0.13451 0.07374 0.17060
 C213 C 0.16525 0.06585 0.18858
 C214 C 0.16799 0.04147 0.21450
 H215 H 0.16664 -0.00674 0.26181
 H216 H 0.05764 0.01953 0.19817
 H217 H 0.08280 0.06241 0.16473
 H218 H 0.19194 0.03593 0.22807
 H219 H 0.06283 -0.02453 0.24211
 H220 H 0.18709 0.07882 0.18271
 C221 C 0.65815 0.47654 -0.27011
 C222 C 0.63074 0.50185 -0.27315
 C223 C 0.60458 0.50117 -0.25021
 C224 C 0.60573 0.47579 -0.22510
 C225 C 0.63378 0.45116 -0.22208
 C226 C 0.65979 0.45175 -0.24469
 C227 C 0.63531 0.42623 -0.19658
 C228 C 0.60872 0.42505 -0.17455
 C229 C 0.58052 0.44907 -0.17816
 C230 C 0.57916 0.47447 -0.20305
 H231 H 0.58285 0.51979 -0.25211
 H232 H 0.68143 0.43295 -0.24279
 H233 H 0.65694 0.40743 -0.19407
 H234 H 0.55732 0.49300 -0.20511
 H235 H 0.67898 0.47606 -0.28681
 H236 H 0.55983 0.44846 -0.16132
 C237 C 0.42304 1.00038 0.76009
 C238 C 0.39211 1.01246 0.77355
 C239 C 0.36226 1.00064 0.76037
 C240 C 0.36329 0.97715 0.73420
 C241 C 0.39457 0.96511 0.72104
 C242 C 0.42427 0.97692 0.73413
 C243 C 0.39565 0.94146 0.69504
 C244 C 0.36582 0.92961 0.68191
 C245 C 0.33482 0.94195 0.69504
 C246 C 0.33356 0.96548 0.72096
 H247 H 0.33815 1.00991 0.77012
 H248 H 0.44848 0.96794 0.72435
 H249 H 0.41966 0.93249 0.68482
 H250 H 0.30935 0.97441 0.73075
 H251 H 0.44647 1.00873 0.76982
 H252 H 0.31154 0.93294 0.68562
 C253 C 0.83009 0.51642 0.24729
 C254 C 0.86073 0.49749 0.24064
 C255 C 0.89012 0.50418 0.25889
 C256 C 0.88896 0.52950 0.28332
 C257 C 0.85796 0.54819 0.28993
 C258 C 0.82868 0.54145 0.27178
 C259 C 0.85676 0.57335 0.31450
 C260 C 0.88623 0.58033 0.33241
 C261 C 0.91698 0.56180 0.32543
 C262 C 0.91833 0.53654 0.30117
 H263 H 0.91401 0.49012 0.25379
 H264 H 0.80470 0.55553 0.27651
 H265 H 0.83299 0.58780 0.31942
 H266 H 0.94232 0.52249 0.29643
 H267 H 0.80701 0.51164 0.23385
 H268 H 0.93994 0.56653 0.33914
 C269 C 0.25579 0.17280 -0.00585
 C270 C 0.26590 0.14142 -0.02037
 C271 C 0.25090 0.11237 -0.01024
 C272 C 0.22645 0.11452 0.01433
 C273 C 0.21638 0.14624 0.02867
 C274 C 0.23112 0.17523 0.01831
 C275 C 0.19200 0.14834 0.05335
 C276 C 0.17793 0.11904 0.06427
 C277 C 0.18823 0.08762 0.04994
 C278 C 0.21216 0.08540 0.02508
 H279 H 0.25875 0.08791 -0.02086
 H280 H 0.22372 0.19975 0.02904
 H281 H 0.18447 0.17261 0.06455
 H282 H 0.21960 0.06088 0.01438
 H283 H 0.26674 0.19560 -0.01337
 H284 H 0.17747 0.06480 0.05778
 C285 C 0.75987 0.57750 0.50695
 C286 C 0.74379 0.60897 0.51649
 C287 C 0.75403 0.63898 0.50242
 C288 C 0.77981 0.63760 0.47923
 C289 C 0.79567 0.60581 0.46985
 C290 C 0.78554 0.57594 0.48389
 C291 C 0.82138 0.60441 0.44660
 C292 C 0.83150 0.63441 0.43246
 C293 C 0.81560 0.66590 0.44206
 C294 C 0.79000 0.66749 0.46522
 H295 H 0.74225 0.66349 0.50961
 H296 H 0.79740 0.55134 0.47695
 H297 H 0.83376 0.57998 0.43978
 H298 H 0.77808 0.69209 0.47206
 H299 H 0.75250 0.55391 0.51701
 H300 H 0.82263 0.68935 0.43124
 C301 C 0.73815 0.42361 0.00674
 C302 C 0.75630 0.39241 0.01575
 C303 C 0.74842 0.36276 -0.00070
 C304 C 0.72234 0.36421 -0.02547
 C305 C 0.70436 0.39579 -0.03431
 C306 C 0.71254 0.42532 -0.01817
 C307 C 0.67823 0.39732 -0.05890
 C308 C 0.66941 0.36764 -0.07458
 C309 C 0.68723 0.33630 -0.06550
 C310 C 0.71362 0.33461 -0.04128
 H311 H 0.76199 0.33850 0.00626
 H312 H 0.69900 0.44973 -0.02467
 H313 H 0.66426 0.42154 -0.06537
 H314 H 0.72706 0.31017 -0.03479
 H315 H 0.74392 0.44687 0.01873
 H316 H 0.68092 0.31315 -0.07740
 C317 C 0.23767 0.83335 0.50287
 C318 C 0.22931 0.86423 0.48531
 C319 C 0.24584 0.89279 0.49443
 C320 C 0.27019 0.89058 0.52091
 C321 C 0.27848 0.85929 0.53819
 C322 C 0.26211 0.83085 0.52896
 C323 C 0.30288 0.85696 0.56454
 C324 C 0.31895 0.88558 0.57420
 C325 C 0.31033 0.91668 0.55712
 C326 C 0.28627 0.91913 0.53059
 H327 H 0.23941 0.91686 0.48135
 H328 H 0.26816 0.80668 0.54194
 H329 H 0.30901 0.83298 0.57790
 H330 H 0.28022 0.94334 0.51768
 H331 H 0.22564 0.81086 0.49620
 H332 H 0.32257 0.93900 0.56403
   
