data_POSCAR
  _audit_creation_date              2014-09-24
  _audit_creation_method            'ToBaCCo'
  _symmetry_space_group_name_H-M    'P1'
  _symmetry_Int_Tables_number       1
  _symmetry_cell_setting            triclinic
  loop_
  _symmetry_equiv_pos_as_xyz
 x,y,z
_cell_length_a 31.0908
_cell_length_b 34.6558
_cell_length_c 33.4348
_cell_angle_alpha 82.709200
_cell_angle_beta 88.959100
_cell_angle_gamma 88.478400
loop_
  _atom_site_label
  _atom_site_type_symbol
  _atom_site_fract_x
  _atom_site_fract_y
  _atom_site_fract_z
C1 C 0.61506 0.67297 0.64086
 N2 N 0.63717 0.67049 0.60589
 C3 C 0.65439 0.63601 0.59747
 N4 N 0.64916 0.60360 0.62435
 C5 C 0.62787 0.60568 0.65998
 N6 N 0.61093 0.64056 0.66796
 C7 C 0.88911 0.34946 0.15096
 N8 N 0.89351 0.38174 0.16968
 C9 C 0.86348 0.41110 0.16522
 N10 N 0.82875 0.40812 0.14184
 C11 C 0.82395 0.37612 0.12293
 N12 N 0.85415 0.34694 0.12766
 C13 C 0.39077 0.16067 -0.14313
 N14 N 0.35684 0.16201 -0.11715
 C15 C 0.32387 0.13717 -0.11773
 N16 N 0.32502 0.11079 -0.14454
 C17 C 0.35887 0.10917 -0.17061
 N18 N 0.39161 0.13424 -0.16984
 C19 C 0.11955 0.82557 0.37086
 N20 N 0.13734 0.82876 0.40707
 C21 C 0.15586 0.86217 0.41411
 N22 N 0.15669 0.89278 0.38451
 C23 C 0.14002 0.88995 0.34769
 N24 N 0.12162 0.85614 0.34107
 N25 N 0.08020 0.20415 0.13225
 N26 N 0.06934 0.18465 0.16715
 C27 C 0.03574 0.20301 0.18312
 C28 C 0.02513 0.23564 0.15669
 C29 C 0.05375 0.23552 0.12465
 H30 H 0.01916 0.19256 0.21096
 H31 H 0.05450 0.25601 0.09741
 Cu32 Cu 0.09811 0.13559 0.18695
 Cu33 Cu 0.12669 0.18574 0.09901
 Cu34 Cu 0.13498 0.08518 0.11341
 N35 N 0.11673 0.08151 0.19832
 N36 N 0.12869 0.06122 0.16916
 C37 C 0.13714 0.02416 0.18494
 C38 C 0.13115 0.02144 0.22627
 C39 C 0.11827 0.05837 0.23378
 H40 H 0.14832 0.00128 0.16782
 H41 H 0.11012 0.06755 0.26277
 N42 N 0.15789 0.11733 0.06496
 N43 N 0.15666 0.15570 0.06067
 C44 C 0.17902 0.16924 0.02729
 C45 C 0.19540 0.13785 0.00950
 C46 C 0.18092 0.10537 0.03411
 H47 H 0.18318 0.19977 0.01701
 H48 H 0.18802 0.07523 0.03099
 H49 H 0.09684 0.13522 0.11399
 H50 H 0.15264 0.13531 0.13383
 N51 N 0.43278 0.82709 0.63525
 N52 N 0.44847 0.84510 0.66388
 C53 C 0.48683 0.82845 0.67506
 C54 C 0.49563 0.79902 0.65163
 C55 C 0.46066 0.79880 0.62690
 H56 H 0.50720 0.83737 0.69793
 H57 H 0.45554 0.77914 0.60491
 Cu58 Cu 0.41761 0.88925 0.68254
 Cu59 Cu 0.37770 0.84152 0.61041
 Cu60 Cu 0.32294 0.92106 0.64130
 N61 N 0.38690 0.93466 0.69857
 N62 N 0.34925 0.94598 0.68341
 C63 C 0.33478 0.97726 0.70013
 C64 C 0.36517 0.98643 0.72689
 C65 C 0.39800 0.95889 0.72493
 H66 H 0.30497 0.99299 0.69241
 H67 H 0.42767 0.95655 0.74143
 N68 N 0.30161 0.89189 0.59912
 N69 N 0.32165 0.86060 0.58864
 C70 C 0.29911 0.84685 0.55974
 C71 C 0.26356 0.87105 0.55097
 C72 C 0.26619 0.89930 0.57653
 H73 H 0.30885 0.82188 0.54526
 H74 H 0.24384 0.92345 0.57847
 H75 H 0.37981 0.89967 0.61870
 H76 H 0.35043 0.86675 0.65799
 N77 N 0.94099 0.67584 0.37747
 N78 N 0.95716 0.66049 0.34632
 C79 C 0.99451 0.67790 0.33487
 C80 C 1.00223 0.70495 0.36079
 C81 C 0.96758 0.70299 0.38726
 H82 H 1.01495 0.67110 0.31007
 H83 H 0.96152 0.72060 0.41127
 Cu84 Cu 0.92787 0.61867 0.32491
 Cu85 Cu 0.88660 0.66009 0.40318
 Cu86 Cu 0.83351 0.58620 0.36558
 N87 N 0.89773 0.57693 0.30425
 N88 N 0.86015 0.56552 0.31933
 C89 C 0.84535 0.53801 0.29849
 C90 C 0.87557 0.53128 0.26913
 C91 C 0.90846 0.55643 0.27374
 H92 H 0.81511 0.52373 0.30476
 H93 H 0.93751 0.56008 0.25554
 N94 N 0.81187 0.61097 0.41219
 N95 N 0.83133 0.64019 0.42534
 C96 C 0.80817 0.65199 0.45614
 C97 C 0.77278 0.62866 0.46330
 C98 C 0.77619 0.60291 0.43490
 H99 H 0.81701 0.67537 0.47253
 H100 H 0.75383 0.58045 0.43071
 H101 H 0.88965 0.60358 0.38909
 H102 H 0.86001 0.64037 0.35341
 N103 N 0.58895 0.29353 -0.11545
 N104 N 0.58120 0.30941 -0.15251
 C105 C 0.54917 0.29046 -0.16745
 C106 C 0.53568 0.26145 -0.13796
 C107 C 0.56169 0.26424 -0.10528
 H108 H 0.53492 0.29878 -0.19666
 H109 H 0.56036 0.24704 -0.07599
 Cu110 Cu 0.60955 0.35652 -0.17600
 Cu111 Cu 0.63278 0.31388 -0.08335
 Cu112 Cu 0.63867 0.41353 -0.10711
 N113 N 0.62232 0.41093 -0.19106
 N114 N 0.63093 0.43369 -0.16376
 C115 C 0.63259 0.47070 -0.18161
 C116 C 0.62531 0.47092 -0.22234
 C117 C 0.61919 0.43247 -0.22735
 H118 H 0.63841 0.49557 -0.16609
 H119 H 0.61068 0.42137 -0.25489
 N120 N 0.66107 0.38497 -0.05639
 N121 N 0.66034 0.34675 -0.04826
 C122 C 0.68168 0.33554 -0.01399
 C123 C 0.69688 0.36834 0.00039
 C124 C 0.68277 0.39920 -0.02721
 H125 H 0.68612 0.30557 -0.00092
 H126 H 0.68906 0.42966 -0.02708
 H127 H 0.60240 0.36415 -0.10470
 H128 H 0.65984 0.36095 -0.12199
 C129 C -0.04479 0.31991 0.18151
 C130 C -0.08013 0.31885 0.15609
 C131 C -0.08342 0.28542 0.13605
 C132 C -0.04968 0.25735 0.13748
 C133 C -0.01240 0.26168 0.15948
 C134 C -0.01196 0.29182 0.18343
 C135 C 0.02186 0.32074 0.18746
 C136 C -0.01400 0.35160 0.18529
 H137 H -0.11075 0.28189 0.11734
 H138 H -0.05180 0.23333 0.11985
 H139 H 0.04440 0.32432 0.16110
 H140 H 0.03746 0.31569 0.21738
 H141 H -0.01226 0.37310 0.15766
 H142 H -0.01893 0.36438 0.21394
 C143 C 0.58990 0.74112 0.61680
 C144 C 0.59327 0.71004 0.64786
 C145 C 0.57154 0.71442 0.68459
 C146 C 0.54217 0.74586 0.68716
 C147 C 0.53367 0.77287 0.65290
 C148 C 0.56047 0.77144 0.61908
 C149 C 0.55145 0.77535 0.57503
 C150 C 0.58371 0.74195 0.57246
 H151 H 0.57447 0.69210 0.71023
 H152 H 0.52322 0.74682 0.71453
 H153 H 0.56249 0.80347 0.55893
 H154 H 0.51819 0.76760 0.56823
 H155 H 0.61321 0.75087 0.55478
 H156 H 0.56881 0.71513 0.56462
 C157 C 1.09282 0.76127 0.39674
 C158 C 1.09807 0.79158 0.36507
 C159 C 1.07856 0.78696 0.32803
 C160 C 1.04964 0.75655 0.32561
 C161 C 1.03911 0.73077 0.36025
 C162 C 1.06370 0.73218 0.39458
 C163 C 1.05258 0.72929 0.43845
 C164 C 1.08458 0.76131 0.44095
 H165 H 1.08307 0.80820 0.30170
 H166 H 1.03273 0.75542 0.29776
 H167 H 1.06293 0.70086 0.45511
 H168 H 1.01909 0.73887 0.44476
 H169 H 1.11327 0.75125 0.45911
 H170 H 1.06918 0.78894 0.44826
 C171 C 0.43525 0.20461 -0.10797
 C172 C 0.42571 0.18857 -0.14300
 C173 C 0.45011 0.20056 -0.17813
 C174 C 0.48542 0.22500 -0.17669
 C175 C 0.49786 0.23691 -0.13987
 C176 C 0.47082 0.22769 -0.10626
 C177 C 0.48071 0.20995 -0.06426
 C178 C 0.44151 0.18499 -0.06607
 H179 H 0.44262 0.19032 -0.20642
 H180 H 0.50418 0.23296 -0.20395
 H181 H 0.47689 0.23132 -0.04224
 H182 H 0.51143 0.19268 -0.06235
 H183 H 0.41496 0.19222 -0.04537
 H184 H 0.44955 0.15342 -0.06505
 C185 C 0.13070 -0.08211 0.27712
 C186 C 0.14255 -0.07863 0.31681
 C187 C 0.15784 -0.04208 0.32416
 C188 C 0.15528 -0.00957 0.29431
 C189 C 0.13875 -0.01304 0.25605
 C190 C 0.12955 -0.05031 0.24737
 C191 C 0.09078 -0.06437 0.22849
 C192 C 0.09193 -0.09920 0.26111
 H193 H 0.16927 -0.03775 0.35363
 H194 H 0.16479 0.01850 0.30166
 H195 H 0.09797 -0.07226 0.19782
 H196 H 0.06207 -0.04488 0.23071
 H197 H 0.09970 -0.12710 0.24917
 H198 H 0.06390 -0.09987 0.28231
 C199 C 0.63480 0.53506 -0.32182
 C200 C 0.62264 0.57213 -0.31220
 C201 C 0.60449 0.57403 -0.27332
 C202 C 0.60447 0.54091 -0.24410
 C203 C 0.62127 0.50491 -0.25341
 C204 C 0.63341 0.50226 -0.29342
 C205 C 0.67322 0.48487 -0.31010
 C206 C 0.67485 0.52086 -0.34121
 H207 H 0.59272 0.60143 -0.26445
 H208 H 0.59260 0.54378 -0.21395
 H209 H 0.66658 0.45788 -0.32343
 H210 H 0.70038 0.48239 -0.28866
 H211 H 0.66926 0.51455 -0.37244
 H212 H 0.70295 0.53930 -0.33776
 C213 C 0.39884 1.06820 0.78404
 C214 C 0.35982 1.08096 0.79988
 C215 C 0.32168 1.06579 0.78670
 C216 C 0.32341 1.03590 0.76177
 C217 C 0.36329 1.01980 0.75042
 C218 C 0.40062 1.03795 0.76049
 C219 C 0.44125 1.02146 0.77971
 C220 C 0.43945 1.05485 0.80513
 H221 H 0.29060 1.07603 0.79674
 H222 H 0.29354 1.02394 0.75343
 H223 H 0.46885 1.02298 0.75801
 H224 H 0.43685 0.99264 0.79791
 H225 H 0.46575 1.07581 0.79778
 H226 H 0.43424 1.04529 0.83785
 C227 C 0.83173 0.46775 0.19575
 C228 C 0.86792 0.44565 0.18630
 C229 C 0.90824 0.45673 0.19914
 C230 C 0.91094 0.48606 0.22459
 C231 C 0.87331 0.50393 0.23875
 C232 C 0.83419 0.49556 0.22197
 C233 C 0.79148 0.48500 0.24088
 C234 C 0.78863 0.45493 0.21173
 H235 H 0.93743 0.44159 0.19110
 H236 H 0.94219 0.49270 0.23536
 H237 H 0.76716 0.50908 0.23525
 H238 H 0.79389 0.47145 0.27275
 H239 H 0.76306 0.46196 0.18895
 H240 H 0.78921 0.42442 0.22683
 C241 C 0.26111 0.10706 -0.07862
 C242 C 0.28677 0.13929 -0.08988
 C243 C 0.27662 0.17356 -0.07273
 C244 C 0.24523 0.17364 -0.04185
 C245 C 0.22384 0.13923 -0.02675
 C246 C 0.23089 0.10679 -0.04744
 C247 C 0.24133 0.06517 -0.03241
 C248 C 0.27400 0.06550 -0.06679
 H249 H 0.29432 0.19982 -0.08177
 H250 H 0.24009 0.20006 -0.02815
 H251 H 0.21385 0.04594 -0.03552
 H252 H 0.25648 0.06143 -0.00225
 H253 H 0.26511 0.04681 -0.08986
 H254 H 0.30785 0.06184 -0.05648
 C255 C 0.69560 0.66802 0.53816
 C256 C 0.67893 0.63423 0.55951
 C257 C 0.68790 0.59876 0.54410
 C258 C 0.71687 0.59722 0.51130
 C259 C 0.73842 0.63085 0.49414
 C260 C 0.72522 0.66632 0.50693
 C261 C 0.75011 0.69909 0.51927
 C262 C 0.71718 0.70124 0.55310
 H263 H 0.67423 0.57200 0.55849
 H264 H 0.72463 0.56928 0.50138
 H265 H 0.74922 0.72518 0.49621
 H266 H 0.78256 0.68984 0.53083
 H267 H 0.69689 0.72831 0.54921
 H268 H 0.73078 0.69346 0.58368
 C269 C 0.76304 0.40634 0.08087
 C270 C 0.78634 0.37316 0.09723
 C271 C 0.77373 0.33704 0.08675
 C272 C 0.74269 0.33526 0.05690
 C273 C 0.72407 0.36962 0.03625
 C274 C 0.73310 0.40473 0.05081
 C275 C 0.74627 0.44318 0.02929
 C276 C 0.77869 0.44495 0.06241
 H277 H 0.78945 0.31030 0.09996
 H278 H 0.73579 0.30706 0.04830
 H279 H 0.72013 0.46570 0.02925
 H280 H 0.76166 0.44074 -0.00061
 H281 H 0.77098 0.46820 0.08163
 H282 H 0.81270 0.44365 0.05166
 C283 C 0.19102 0.83086 0.47701
 C284 C 0.17621 0.86453 0.45320
 C285 C 0.18397 0.90057 0.46681
 C286 C 0.21043 0.90249 0.50029
 C287 C 0.23076 0.86857 0.51996
 C288 C 0.21840 0.83282 0.50894
 C289 C 0.24405 0.79789 0.49955
 C290 C 0.21356 0.79549 0.46501
 H291 H 0.17160 0.92738 0.45036
 H292 H 0.21757 0.93079 0.50863
 H293 H 0.24147 0.77301 0.52390
 H294 H 0.27728 0.80484 0.48868
 H295 H 0.19297 0.76953 0.46974
 H296 H 0.22934 0.80084 0.43476
   
