data_POSCAR
  _audit_creation_date              2014-09-24
  _audit_creation_method            'ToBaCCo'
  _symmetry_space_group_name_H-M    'P1'
  _symmetry_Int_Tables_number       1
  _symmetry_cell_setting            triclinic
  loop_
  _symmetry_equiv_pos_as_xyz
 x,y,z
_cell_length_a 55.9594
_cell_length_b 39.7078
_cell_length_c 50.7468
_cell_angle_alpha 89.929700
_cell_angle_beta 90.003800
_cell_angle_gamma 90.059600
loop_
  _atom_site_label
  _atom_site_type_symbol
  _atom_site_fract_x
  _atom_site_fract_y
  _atom_site_fract_z
C1 C 0.24977 0.26725 0.25255
 C2 C 0.24878 0.23295 0.25249
 C3 C 0.23093 0.21423 0.23644
 C4 C 0.26572 0.21268 0.26841
 C5 C 0.26575 0.28594 0.27074
 C6 C 0.23483 0.28759 0.23447
 C7 C 0.20656 0.22193 0.23793
 C8 C 0.19005 0.20549 0.22182
 C9 C 0.19724 0.17991 0.20400
 C10 C 0.22187 0.17135 0.20380
 C11 C 0.23834 0.18835 0.21966
 C12 C 0.25709 0.19114 0.28815
 C13 C 0.27301 0.17348 0.30426
 C14 C 0.29780 0.17664 0.30054
 C15 C 0.30637 0.19743 0.28019
 C16 C 0.29045 0.21536 0.26429
 C17 C 0.28249 0.30887 0.26065
 C18 C 0.29825 0.32558 0.27754
 C19 C 0.29743 0.31984 0.30488
 C20 C 0.28019 0.29749 0.31498
 C21 C 0.26443 0.28082 0.29807
 C22 C 0.23772 0.28506 0.20707
 C23 C 0.22253 0.30272 0.19012
 C24 C 0.20405 0.32268 0.20039
 C25 C 0.20151 0.32569 0.22780
 C26 C 0.21702 0.30863 0.24473
 H27 H 0.20023 0.24073 0.25169
 H28 H 0.17150 0.21209 0.22462
 H29 H 0.22914 0.15308 0.19026
 H30 H 0.25710 0.18188 0.21827
 H31 H 0.23805 0.18868 0.29148
 H32 H 0.26597 0.15734 0.31963
 H33 H 0.29739 0.23167 0.24896
 H34 H 0.28372 0.31322 0.23962
 H35 H 0.31146 0.34238 0.26913
 H36 H 0.27879 0.29304 0.33597
 H37 H 0.25127 0.26377 0.30629
 H38 H 0.25149 0.26903 0.19889
 H39 H 0.22470 0.30002 0.16902
 H40 H 0.18742 0.34110 0.23605
 H41 H 0.21462 0.31085 0.26584
 H42 H 0.32539 0.20044 0.27703
 C43 C 0.74859 0.23110 0.24811
 C44 C 0.75002 0.26530 0.25010
 C45 C 0.76836 0.28487 0.23540
 C46 C 0.73319 0.28454 0.26702
 C47 C 0.73280 0.21132 0.26574
 C48 C 0.76297 0.21197 0.22864
 C49 C 0.79264 0.27614 0.23688
 C50 C 0.80952 0.29303 0.22150
 C51 C 0.80252 0.31944 0.20476
 C52 C 0.77838 0.32918 0.20422
 C53 C 0.76145 0.31203 0.21942
 C54 C 0.74196 0.30713 0.28595
 C55 C 0.72622 0.32429 0.30258
 C56 C 0.70144 0.31908 0.30056
 C57 C 0.69268 0.29720 0.28109
 C58 C 0.70839 0.28039 0.26429
 C59 C 0.71349 0.19326 0.25524
 C60 C 0.69754 0.17658 0.27196
 C61 C 0.70110 0.17699 0.29935
 C62 C 0.72094 0.19406 0.30977
 C63 C 0.73659 0.21134 0.29308
 C64 C 0.76232 0.22033 0.20175
 C65 C 0.77719 0.20380 0.18385
 C66 C 0.79284 0.17837 0.19245
 C67 C 0.79280 0.16925 0.21925
 C68 C 0.77793 0.18581 0.23714
 H69 H 0.79845 0.25583 0.24962
 H70 H 0.82807 0.28543 0.22265
 H71 H 0.77250 0.34936 0.19140
 H72 H 0.74284 0.31931 0.21814
 H73 H 0.76102 0.31090 0.28822
 H74 H 0.73342 0.34097 0.31747
 H75 H 0.70120 0.26393 0.24926
 H76 H 0.71039 0.19299 0.23417
 H77 H 0.68241 0.16339 0.26356
 H78 H 0.72392 0.19475 0.33085
 H79 H 0.75151 0.22504 0.30145
 H80 H 0.75054 0.24001 0.19473
 H81 H 0.77647 0.21094 0.16327
 H82 H 0.80480 0.15001 0.22655
 H83 H 0.77866 0.17897 0.25779
 H84 H 0.67364 0.29325 0.27878
 C85 C 0.74896 0.76759 0.75344
 C86 C 0.74930 0.73329 0.75358
 C87 C 0.73405 0.71355 0.73543
 C88 C 0.76493 0.71412 0.77182
 C89 C 0.76630 0.78732 0.76920
 C90 C 0.73146 0.78678 0.73734
 C91 C 0.71549 0.69361 0.74553
 C92 C 0.69976 0.67719 0.72844
 C93 C 0.70281 0.67975 0.70105
 C94 C 0.72196 0.69865 0.69098
 C95 C 0.73738 0.71569 0.70807
 C96 C 0.76358 0.71924 0.79913
 C97 C 0.77908 0.70226 0.81612
 C98 C 0.79611 0.67959 0.80613
 C99 C 0.79693 0.67380 0.77881
 C100 C 0.78141 0.69082 0.76183
 C101 C 0.79086 0.78460 0.76444
 C102 C 0.80722 0.80222 0.78000
 C103 C 0.79942 0.82278 0.80104
 C104 C 0.77452 0.82566 0.80527
 C105 C 0.75822 0.80843 0.78935
 C106 C 0.73945 0.81140 0.71954
 C107 C 0.72317 0.82847 0.70345
 C108 C 0.69863 0.82117 0.70492
 C109 C 0.69060 0.79726 0.72334
 C110 C 0.70684 0.78049 0.73959
 H111 H 0.71273 0.69173 0.76661
 H112 H 0.68514 0.66258 0.73655
 H113 H 0.72454 0.70099 0.66990
 H114 H 0.75170 0.73092 0.70001
 H115 H 0.75061 0.73658 0.80727
 H116 H 0.77767 0.70675 0.83710
 H117 H 0.78265 0.68647 0.74080
 H118 H 0.79738 0.76840 0.74885
 H119 H 0.82601 0.79812 0.77619
 H120 H 0.76735 0.84205 0.82032
 H121 H 0.73925 0.81106 0.79308
 H122 H 0.75834 0.81680 0.71764
 H123 H 0.72983 0.84669 0.68935
 H124 H 0.67174 0.79163 0.72522
 H125 H 0.70022 0.76237 0.75378
 H126 H 0.80998 0.65674 0.77048
 C127 C 0.24769 0.73090 0.74762
 C128 C 0.24884 0.76514 0.74944
 C129 C 0.26695 0.78484 0.73450
 C130 C 0.23192 0.78427 0.76635
 C131 C 0.23189 0.71102 0.76513
 C132 C 0.26243 0.71176 0.72850
 C133 C 0.29133 0.77667 0.73604
 C134 C 0.30798 0.79346 0.72027
 C135 C 0.30063 0.81921 0.70308
 C136 C 0.27640 0.82844 0.70250
 C137 C 0.25970 0.81140 0.71809
 C138 C 0.24055 0.80731 0.78494
 C139 C 0.22478 0.82450 0.80154
 C140 C 0.19985 0.81885 0.80011
 C141 C 0.19141 0.79634 0.78066
 C142 C 0.20719 0.77972 0.76385
 C143 C 0.21224 0.69389 0.75462
 C144 C 0.19631 0.67700 0.77122
 C145 C 0.20013 0.67588 0.79874
 C146 C 0.22064 0.69212 0.80889
 C147 C 0.23613 0.70982 0.79229
 C148 C 0.26182 0.71952 0.70151
 C149 C 0.27698 0.70294 0.68392
 C150 C 0.29287 0.67806 0.69297
 C151 C 0.29280 0.66955 0.71988
 C152 C 0.27765 0.68615 0.73744
 H153 H 0.29738 0.75684 0.74908
 H154 H 0.32661 0.78627 0.72146
 H155 H 0.27025 0.84811 0.68936
 H156 H 0.24101 0.81822 0.71674
 H157 H 0.25960 0.81138 0.78707
 H158 H 0.23247 0.84078 0.81635
 H159 H 0.20005 0.76320 0.74883
 H160 H 0.20890 0.69435 0.73360
 H161 H 0.18144 0.66395 0.76219
 H162 H 0.22419 0.69290 0.82984
 H163 H 0.25132 0.72295 0.80065
 H164 H 0.24985 0.73878 0.69415
 H165 H 0.27629 0.70961 0.66324
 H166 H 0.30499 0.65076 0.72752
 H167 H 0.27835 0.67978 0.75819
 H168 H 0.17250 0.79227 0.77757
 O169 O 0.97705 -0.00173 0.03225
 O170 O 1.02388 -0.04038 -0.00862
 O171 O 1.02363 -0.00265 0.03351
 O172 O 0.97744 -0.03920 -0.00957
 O173 O 0.97937 0.00558 -0.03528
 O174 O 1.02383 0.04347 0.00922
 O175 O 1.02583 0.00576 -0.03279
 O176 O 0.97748 0.04328 0.00674
 Cu177 Cu 1.00046 -0.02554 0.01442
 Cu178 Cu 1.00176 0.02908 -0.01554
 C179 C 0.96909 0.02728 0.02637
 C180 C 1.03288 -0.02395 -0.02768
 C181 C 1.03139 0.02687 0.02894
 C182 C 0.97064 -0.02317 -0.02991
 O183 O 0.52496 0.46040 0.49211
 O184 O 0.47850 0.49853 0.53381
 O185 O 0.47862 0.46034 0.49218
 O186 O 0.52521 0.49842 0.53383
 O187 O 0.52447 0.54426 0.50920
 O188 O 0.47898 0.50523 0.46654
 O189 O 0.47812 0.54340 0.50815
 O190 O 0.52559 0.50606 0.46732
 Cu191 Cu 0.50183 0.47493 0.51556
 Cu192 Cu 0.50183 0.52926 0.48525
 C193 C 0.53323 0.47668 0.47257
 C194 C 0.47023 0.52740 0.52803
 C195 C 0.47091 0.47616 0.47214
 C196 C 0.53266 0.52795 0.52876
 O197 O -0.02231 0.54039 -0.00671
 O198 O 0.02591 0.50418 0.03371
 O199 O 0.02390 0.54125 -0.00874
 O200 O -0.02075 0.50338 0.03563
 O201 O -0.02173 0.45794 0.01069
 O202 O 0.02456 0.49449 -0.03223
 O203 O 0.02444 0.45750 0.01018
 O204 O -0.02217 0.49504 -0.03176
 Cu205 Cu 0.00176 0.52688 0.01597
 Cu206 Cu 0.00122 0.47169 -0.01330
 C207 C -0.03033 0.52407 -0.02633
 C208 C 0.03318 0.47446 0.02907
 C209 C 0.03193 0.52426 -0.02798
 C210 C -0.02896 0.47421 0.03070
 O211 O 0.47614 1.03972 0.49145
 O212 O 0.52343 1.00442 0.53378
 O213 O 0.52254 1.04153 0.49115
 O214 O 0.47688 1.00311 0.53391
 O215 O 0.47715 0.95746 0.50918
 O216 O 0.52412 0.99492 0.46755
 O217 O 0.52344 0.95803 0.50991
 O218 O 0.47755 0.99433 0.46647
 Cu219 Cu 0.49972 1.02681 0.51502
 Cu220 Cu 0.50061 0.97161 0.48580
 C221 C 0.46889 1.02316 0.47159
 C222 C 0.53130 0.97497 0.52928
 C223 C 0.53118 1.02477 0.47209
 C224 C 0.46916 0.97372 0.52885
 C225 C 1.14797 0.13295 0.15265
 C226 C 1.14308 0.16463 0.16347
 C227 C 1.15917 0.17997 0.18075
 C228 C 1.18113 0.16441 0.18758
 C229 C 1.18576 0.13234 0.17637
 C230 C 1.16938 0.11688 0.15945
 C231 C 1.13089 0.11695 0.13421
 N232 N 1.13195 0.08340 0.12910
 N233 N 1.11654 0.06910 0.11250
 C234 C 1.09955 0.08779 0.10018
 N235 N 1.09855 0.12134 0.10523
 N236 N 1.11385 0.13559 0.12195
 C237 C 1.08242 0.07201 0.08168
 C238 C 1.06951 0.09191 0.06374
 C239 C 1.05320 0.07716 0.04638
 C240 C 1.04918 0.04223 0.04684
 C241 C 1.06205 0.02230 0.06479
 C242 C 1.07864 0.03701 0.08190
 H243 H 1.12673 0.17779 0.15853
 H244 H 1.15461 0.20504 0.18728
 H245 H 1.20143 0.11787 0.18145
 H246 H 1.17361 0.09226 0.15156
 H247 H 1.07209 0.11893 0.06299
 H248 H 1.04350 0.09319 0.03282
 H249 H 1.05937 -0.00470 0.06555
 H250 H 1.08825 0.02101 0.09555
 C251 C 0.65249 0.63364 0.64835
 C252 C 0.64477 0.65660 0.66760
 C253 C 0.66114 0.67118 0.68497
 C254 C 0.68556 0.66364 0.68302
 C255 C 0.69338 0.64103 0.66364
 C256 C 0.67693 0.62582 0.64664
 C257 C 0.63509 0.61804 0.63016
 N258 N 0.63942 0.58740 0.61930
 N259 N 0.62356 0.57321 0.60316
 C260 C 0.60286 0.58925 0.59703
 N261 N 0.59861 0.61998 0.60776
 N262 N 0.61435 0.63401 0.62410
 C263 C 0.58520 0.57353 0.57921
 C264 C 0.56940 0.59361 0.56452
 C265 C 0.55259 0.57878 0.54778
 C266 C 0.55090 0.54357 0.54587
 C267 C 0.56660 0.52347 0.56067
 C268 C 0.58379 0.53832 0.57696
 H269 H 0.62603 0.66297 0.66943
 H270 H 0.65481 0.68874 0.69972
 H271 H 0.71217 0.63491 0.66187
 H272 H 0.68336 0.60833 0.63190
 H273 H 0.57017 0.62081 0.56580
 H274 H 0.54063 0.59484 0.53665
 H275 H 0.56572 0.49627 0.55948
 H276 H 0.59568 0.52225 0.58815
 C277 C -0.14660 0.36721 0.15310
 C278 C -0.14696 0.33200 0.15606
 C279 C -0.16331 0.31661 0.17304
 C280 C -0.17978 0.33604 0.18731
 C281 C -0.17948 0.37121 0.18440
 C282 C -0.16298 0.38667 0.16757
 C283 C -0.12935 0.38341 0.13488
 N284 N -0.12628 0.41736 0.13477
 N285 N -0.11076 0.43181 0.11836
 C286 C -0.09773 0.41294 0.10129
 N287 N -0.10084 0.37902 0.10139
 N288 N -0.11629 0.36456 0.11785
 C289 C -0.08041 0.42889 0.08302
 C290 C -0.06985 0.41003 0.06270
 C291 C -0.05336 0.42486 0.04558
 C292 C -0.04688 0.45885 0.04849
 C293 C -0.05746 0.47778 0.06876
 C294 C -0.07412 0.46300 0.08576
 H295 H -0.13460 0.31624 0.14525
 H296 H -0.16335 0.28941 0.17467
 H297 H -0.19189 0.38678 0.19531
 H298 H -0.16320 0.41383 0.16574
 H299 H -0.07434 0.38373 0.05995
 H300 H -0.04551 0.40956 0.03021
 H301 H -0.05286 0.50405 0.07148
 H302 H -0.08188 0.47825 0.10122
 C303 C 0.35088 0.86655 0.65042
 C304 C 0.35089 0.83142 0.65396
 C305 C 0.33473 0.81617 0.67125
 C306 C 0.31809 0.83565 0.68525
 C307 C 0.31801 0.87073 0.68171
 C308 C 0.33431 0.88605 0.66458
 C309 C 0.36802 0.88267 0.63203
 N310 N 0.37070 0.91667 0.63143
 N311 N 0.38619 0.93108 0.61497
 C312 C 0.39960 0.91212 0.59833
 N313 N 0.39686 0.87814 0.59887
 N314 N 0.38143 0.86372 0.61539
 C315 C 0.41701 0.92809 0.58016
 C316 C 0.42821 0.90910 0.56033
 C317 C 0.44490 0.92401 0.54346
 C318 C 0.45091 0.95820 0.54616
 C319 C 0.43964 0.97725 0.56589
 C320 C 0.42280 0.96240 0.58263
 H321 H 0.36340 0.81564 0.64341
 H322 H 0.33498 0.78902 0.67336
 H323 H 0.30546 0.88634 0.69240
 H324 H 0.33380 0.91316 0.66231
 H325 H 0.42410 0.88264 0.55781
 H326 H 0.45329 0.90863 0.52849
 H327 H 0.44385 1.00367 0.56845
 H328 H 0.41455 0.97777 0.59770
 C329 C -0.15344 0.63086 -0.14210
 C330 C -0.16393 0.61304 -0.16306
 C331 C -0.18039 0.62874 -0.17976
 C332 C -0.18674 0.66261 -0.17589
 C333 C -0.17633 0.68038 -0.15488
 C334 C -0.15990 0.66469 -0.13818
 C335 C -0.13571 0.61445 -0.12456
 N336 N -0.12617 0.63140 -0.10384
 N337 N -0.11005 0.61688 -0.08823
 C338 C -0.10274 0.58478 -0.09267
 N339 N -0.11230 0.56778 -0.11337
 N340 N -0.12845 0.58230 -0.12897
 C341 C -0.08452 0.56887 -0.07545
 C342 C -0.07610 0.53620 -0.08069
 C343 C -0.05861 0.52155 -0.06468
 C344 C -0.04918 0.53921 -0.04305
 C345 C -0.05774 0.57175 -0.03770
 C346 C -0.07518 0.58641 -0.05371
 H347 H -0.15944 0.58692 -0.16661
 H348 H -0.18832 0.61425 -0.19558
 H349 H -0.18055 0.70665 -0.15162
 H350 H -0.15213 0.67925 -0.12231
 H351 H -0.08289 0.52196 -0.09726
 H352 H -0.05240 0.49642 -0.06932
 H353 H -0.05086 0.58605 -0.02120
 H354 H -0.08126 0.61158 -0.04905
 C355 C 0.34755 1.12683 0.35221
 C356 C 0.32771 1.14410 0.36248
 C357 C 0.31139 1.15983 0.34566
 C358 C 0.31470 1.15897 0.31825
 C359 C 0.33448 1.14171 0.30793
 C360 C 0.35066 1.12560 0.32473
 C361 C 0.36505 1.11063 0.37007
 N362 N 0.38127 1.08821 0.36069
 N363 N 0.39717 1.07395 0.37674
 C364 C 0.39760 1.08165 0.40281
 N365 N 0.38138 1.10406 0.41218
 N366 N 0.36541 1.11818 0.39617
 C367 C 0.41556 1.06628 0.42058
 C368 C 0.41986 1.07998 0.44566
 C369 C 0.43717 1.06597 0.46221
 C370 C 0.45036 1.03770 0.45418
 C371 C 0.44586 1.02372 0.42924
 C372 C 0.42875 1.03798 0.41255
 H373 H 0.32476 1.14546 0.38354
 H374 H 0.29640 1.17326 0.35412
 H375 H 0.33733 1.14050 0.28684
 H376 H 0.36577 1.11258 0.31618
 H377 H 0.41006 1.10183 0.45242
 H378 H 0.44018 1.07726 0.48135
 H379 H 0.45577 1.00198 0.42247
 H380 H 0.42580 1.02674 0.39339
 C381 C 1.15160 -0.13328 -0.14680
 C382 C 1.17327 -0.11775 -0.15361
 C383 C 1.18924 -0.13348 -0.17086
 C384 C 1.18378 -0.16503 -0.18226
 C385 C 1.16181 -0.18026 -0.17536
 C386 C 1.14611 -0.16474 -0.15779
 C387 C 1.13473 -0.11686 -0.12838
 N388 N 1.11725 -0.13503 -0.11639
 N389 N 1.10190 -0.12033 -0.10000
 C390 C 1.10328 -0.08680 -0.09501
 N391 N 1.12075 -0.06859 -0.10701
 N392 N 1.13621 -0.08334 -0.12329
 C393 C 1.08585 -0.07046 -0.07719
 C394 C 1.08254 -0.03538 -0.07771
 C395 C 1.06540 -0.02021 -0.06156
 C396 C 1.05148 -0.03975 -0.04428
 C397 C 1.05512 -0.07473 -0.04339
 C398 C 1.07200 -0.08994 -0.05980
 H399 H 1.17799 -0.09342 -0.14551
 H400 H 1.20539 -0.11998 -0.17595
 H401 H 1.15694 -0.20496 -0.18255
 H402 H 1.12957 -0.17746 -0.15287
 H403 H 1.09288 -0.01969 -0.09094
 H404 H 1.06304 0.00683 -0.06261
 H405 H 1.04463 -0.09047 -0.03033
 H406 H 1.07420 -0.11701 -0.05883
 C407 C 0.65258 0.36763 0.35388
 C408 C 0.67109 0.38609 0.34189
 C409 C 0.68710 0.37031 0.32472
 C410 C 0.68473 0.33589 0.31896
 C411 C 0.66623 0.31745 0.33089
 C412 C 0.65041 0.33310 0.34826
 C413 C 0.63552 0.38419 0.37205
 N414 N 0.62069 0.36550 0.38740
 N415 N 0.60517 0.38027 0.40356
 C416 C 0.60374 0.41435 0.40498
 N417 N 0.61857 0.43307 0.38963
 N418 N 0.63418 0.41829 0.37354
 C419 C 0.58615 0.43064 0.42268
 C420 C 0.58095 0.46514 0.42028
 C421 C 0.56382 0.48017 0.43653
 C422 C 0.55171 0.46109 0.45569
 C423 C 0.55717 0.42672 0.45832
 C424 C 0.57410 0.41164 0.44193
 H425 H 0.67329 0.41270 0.34585
 H426 H 0.70114 0.38511 0.31564
 H427 H 0.66418 0.29079 0.32699
 H428 H 0.63635 0.31814 0.35712
 H429 H 0.58987 0.48048 0.40562
 H430 H 0.56005 0.50673 0.43406
 H431 H 0.54813 0.41131 0.47286
 H432 H 0.57774 0.38504 0.44438
 C433 C 0.84964 -0.12806 -0.14887
 C434 C 0.85528 -0.13467 -0.17529
 C435 C 0.83887 -0.15085 -0.19174
 C436 C 0.81605 -0.16039 -0.18239
 C437 C 0.81044 -0.15302 -0.15586
 C438 C 0.82706 -0.13742 -0.13934
 C439 C 0.86730 -0.11186 -0.13124
 N440 N 0.86529 -0.11469 -0.10466
 N441 N 0.88136 -0.10055 -0.08877
 C442 C 0.90002 -0.08278 -0.09880
 N443 N 0.90197 -0.07979 -0.12538
 N444 N 0.88599 -0.09414 -0.14128
 C445 C 0.91796 -0.06728 -0.08113
 C446 C 0.93273 -0.04104 -0.09016
 C447 C 0.94966 -0.02643 -0.07343
 C448 C 0.95246 -0.03817 -0.04748
 C449 C 0.93779 -0.06452 -0.03850
 C450 C 0.92059 -0.07873 -0.05508
 H451 H 0.87254 -0.12764 -0.18325
 H452 H 0.84396 -0.15464 -0.21208
 H453 H 0.79361 -0.16065 -0.14721
 H454 H 0.82219 -0.13270 -0.11903
 H455 H 0.93106 -0.03158 -0.11010
 H456 H 0.96077 -0.00622 -0.08091
 H457 H 0.93949 -0.07401 -0.01857
 H458 H 0.90955 -0.09901 -0.04758
 C459 C 0.34833 0.36820 0.35631
 C460 C 0.33791 0.38604 0.33530
 C461 C 0.32131 0.37045 0.31872
 C462 C 0.31473 0.33666 0.32275
 C463 C 0.32506 0.31887 0.34382
 C464 C 0.34164 0.33445 0.36041
 C465 C 0.36619 0.38455 0.37372
 N466 N 0.37570 0.36765 0.39451
 N467 N 0.39189 0.38218 0.41003
 C468 C 0.39929 0.41425 0.40543
 N469 N 0.38976 0.43117 0.38467
 N470 N 0.37355 0.41664 0.36915
 C471 C 0.41747 0.43028 0.42261
 C472 C 0.42589 0.46295 0.41721
 C473 C 0.44320 0.47788 0.43329
 C474 C 0.45246 0.46051 0.45517
 C475 C 0.44398 0.42791 0.46063
 C476 C 0.42672 0.41297 0.44454
 H477 H 0.34256 0.41210 0.33162
 H478 H 0.31344 0.38496 0.30287
 H479 H 0.32064 0.29267 0.34722
 H480 H 0.34935 0.31989 0.37633
 H481 H 0.41919 0.47703 0.40049
 H482 H 0.44934 0.50304 0.42855
 H483 H 0.45074 0.41383 0.47733
 H484 H 0.42065 0.38779 0.44932
 C485 C 0.15044 0.62805 -0.14994
 C486 C 0.17483 0.62862 -0.14371
 C487 C 0.19119 0.64454 -0.16043
 C488 C 0.18365 0.65947 -0.18431
 C489 C 0.15908 0.65801 -0.19063
 C490 C 0.14271 0.64297 -0.17348
 C491 C 0.13304 0.61239 -0.13183
 N492 N 0.11056 0.62491 -0.12971
 N493 N 0.09488 0.61108 -0.11317
 C494 C 0.10099 0.58393 -0.09835
 N495 N 0.12343 0.57124 -0.10060
 N496 N 0.13921 0.58535 -0.11690
 C497 C 0.08355 0.56861 -0.08011
 C498 C 0.08385 0.53380 -0.07516
 C499 C 0.06689 0.51926 -0.05839
 C500 C 0.04982 0.53944 -0.04571
 C501 C 0.04980 0.57431 -0.05029
 C502 C 0.06631 0.58871 -0.06763
 H503 H 0.18124 0.61720 -0.12565
 H504 H 0.20986 0.64393 -0.15493
 H505 H 0.15211 0.66990 -0.20821
 H506 H 0.12394 0.64288 -0.17871
 H507 H 0.09691 0.51778 -0.08465
 H508 H 0.06728 0.49231 -0.05508
 H509 H 0.03673 0.59036 -0.04083
 H510 H 0.06579 0.61563 -0.07105
 C511 C 0.65061 1.13004 0.35155
 C512 C 0.67496 1.12153 0.35280
 C513 C 0.69144 1.13692 0.33591
 C514 C 0.68375 1.16047 0.31710
 C515 C 0.65940 1.16863 0.31556
 C516 C 0.64301 1.15382 0.33282
 C517 C 0.63322 1.11438 0.36976
 N518 N 0.61261 1.13050 0.37605
 N519 N 0.59693 1.11651 0.39251
 C520 C 0.60113 1.08568 0.40316
 N521 N 0.62170 1.06948 0.39678
 N522 N 0.63749 1.08363 0.38051
 C523 C 0.58357 1.07005 0.42118
 C524 C 0.58229 1.03487 0.42381
 C525 C 0.56520 1.02011 0.44029
 C526 C 0.54942 1.04028 0.45489
 C527 C 0.55098 1.07547 0.45262
 C528 C 0.56772 1.09020 0.43571
 H529 H 0.68132 1.10339 0.36712
 H530 H 0.71016 1.13027 0.33736
 H531 H 0.65316 1.18692 0.30128
 H532 H 0.62434 1.16075 0.33134
 H533 H 0.59423 1.01873 0.41276
 H534 H 0.56442 0.99291 0.44175
 H535 H 0.53897 1.09161 0.46357
 H536 H 0.56838 1.11739 0.43416
 C537 C 0.15374 0.36981 0.14824
 C538 C 0.17829 0.37669 0.14587
 C539 C 0.19475 0.36117 0.16271
 C540 C 0.18684 0.33922 0.18257
 C541 C 0.16231 0.33270 0.18520
 C542 C 0.14593 0.34757 0.16800
 C543 C 0.13631 0.38547 0.13013
 N544 N 0.11528 0.36987 0.12472
 N545 N 0.09950 0.38387 0.10841
 C546 C 0.10402 0.41418 0.09705
 N547 N 0.12502 0.42988 0.10253
 N548 N 0.14092 0.41571 0.11864
 C549 C 0.08632 0.42974 0.07920
 C550 C 0.08516 0.46490 0.07630
 C551 C 0.06781 0.47953 0.06008
 C552 C 0.05171 0.45922 0.04599
 C553 C 0.05320 0.42406 0.04850
 C554 C 0.07016 0.40948 0.06516
 H555 H 0.18479 0.39361 0.13072
 H556 H 0.21362 0.36650 0.16042
 H557 H 0.15590 0.31566 0.20032
 H558 H 0.12711 0.34193 0.17034
 H559 H 0.09735 0.48110 0.08699
 H560 H 0.06708 0.50671 0.05842
 H561 H 0.04093 0.40783 0.03794
 H562 H 0.07073 0.38231 0.06693
 C563 C 0.64899 0.86902 0.65194
 C564 C 0.66659 0.88811 0.66492
 C565 C 0.68276 0.87261 0.68210
 C566 C 0.68147 0.83781 0.68688
 C567 C 0.66380 0.81877 0.67406
 C568 C 0.64781 0.83417 0.65670
 C569 C 0.63199 0.88520 0.63347
 N570 N 0.61798 0.86619 0.61747
 N571 N 0.60266 0.88058 0.60086
 C572 C 0.60061 0.91462 0.59959
 N573 N 0.61460 0.93368 0.61560
 N574 N 0.63001 0.91927 0.63216
 C575 C 0.58333 0.93046 0.58124
 C576 C 0.57769 0.96487 0.58325
 C577 C 0.56088 0.97943 0.56631
 C578 C 0.54953 0.95997 0.54686
 C579 C 0.55543 0.92571 0.54463
 C580 C 0.57205 0.91110 0.56168
 H581 H 0.66802 0.91499 0.66167
 H582 H 0.69612 0.88789 0.69189
 H583 H 0.66259 0.79183 0.67716
 H584 H 0.63447 0.81871 0.64707
 H585 H 0.58602 0.98048 0.59812
 H586 H 0.55674 1.00592 0.56849
 H587 H 0.54699 0.91000 0.52989
 H588 H 0.57604 0.88457 0.55950
 C589 C 0.84304 0.13161 0.13941
 C590 C 0.83801 0.16621 0.13750
 C591 C 0.82153 0.18126 0.15449
 C592 C 0.80964 0.16206 0.17374
 C593 C 0.81442 0.12739 0.17543
 C594 C 0.83094 0.11234 0.15848
 C595 C 0.86111 0.11584 0.12197
 N596 N 0.86742 0.08307 0.12520
 N597 N 0.88399 0.06907 0.10991
 C598 C 0.89498 0.08722 0.09070
 N599 N 0.88861 0.11996 0.08739
 N600 N 0.87205 0.13397 0.10271
 C601 C 0.91372 0.07176 0.07396
 C602 C 0.92413 0.08995 0.05311
 C603 C 0.94201 0.07548 0.03758
 C604 C 0.94995 0.04252 0.04259
 C605 C 0.93950 0.02429 0.06337
 C606 C 0.92157 0.03871 0.07883
 H607 H 0.84704 0.18185 0.12311
 H608 H 0.81851 0.20813 0.15294
 H609 H 0.80532 0.11183 0.18981
 H610 H 0.83426 0.08560 0.16042
 H611 H 0.91850 0.11544 0.04877
 H612 H 0.94969 0.09021 0.02173
 H613 H 0.94518 -0.00118 0.06772
 H614 H 0.91398 0.02395 0.09472
 C615 C 0.34386 0.63126 0.64089
 C616 C 0.33190 0.61215 0.66016
 C617 C 0.31513 0.62720 0.67680
 C618 C 0.30995 0.66171 0.67460
 C619 C 0.32171 0.68074 0.65515
 C620 C 0.33844 0.66569 0.63847
 C621 C 0.36215 0.61552 0.62372
 N622 N 0.37283 0.63347 0.60419
 N623 N 0.38953 0.61951 0.58903
 C624 C 0.39630 0.58701 0.59278
 N625 N 0.38559 0.56904 0.61227
 N626 N 0.36886 0.58299 0.62741
 C627 C 0.41511 0.57162 0.57610
 C628 C 0.42337 0.53883 0.58124
 C629 C 0.44127 0.52448 0.56567
 C630 C 0.45127 0.54255 0.54454
 C631 C 0.44296 0.57528 0.53933
 C632 C 0.42513 0.58966 0.55495
 H633 H 0.33552 0.58553 0.66249
 H634 H 0.30613 0.61176 0.69135
 H635 H 0.31839 0.70750 0.65321
 H636 H 0.34735 0.68121 0.62392
 H637 H 0.41609 0.52421 0.59739
 H638 H 0.44725 0.49920 0.57019
 H639 H 0.45029 0.58989 0.52321
 H640 H 0.41920 0.61495 0.55039
   
