data_POSCAR
  _audit_creation_date              2014-09-24
  _audit_creation_method            'ToBaCCo'
  _symmetry_space_group_name_H-M    'P1'
  _symmetry_Int_Tables_number       1
  _symmetry_cell_setting            triclinic
  loop_
  _symmetry_equiv_pos_as_xyz
 x,y,z
_cell_length_a 38.6883
_cell_length_b 36.5106
_cell_length_c 36.4471
_cell_angle_alpha 89.845400
_cell_angle_beta 89.601300
_cell_angle_gamma 89.984000
loop_
  _atom_site_label
  _atom_site_type_symbol
  _atom_site_fract_x
  _atom_site_fract_y
  _atom_site_fract_z
N1 N 0.58532 0.68436 0.60883
 N2 N 0.57151 0.66884 0.63806
 C3 C 0.54247 0.68710 0.64736
 C4 C 0.53796 0.71528 0.62255
 C5 C 0.56552 0.71282 0.59848
 H6 H 0.52558 0.68028 0.67013
 H7 H 0.57068 0.73036 0.57513
 Cu8 Cu 0.59242 0.62581 0.66049
 Cu9 Cu 0.62779 0.66655 0.58621
 Cu10 Cu 0.66474 0.58898 0.62431
 N11 N 0.61306 0.58162 0.68089
 N12 N 0.64140 0.56751 0.66663
 C13 C 0.65059 0.53777 0.68615
 C14 C 0.62668 0.53300 0.71402
 C15 C 0.60316 0.56115 0.70996
 H16 H 0.67313 0.52110 0.68067
 H17 H 0.58089 0.56649 0.72722
 N18 N 0.68459 0.61459 0.58149
 N19 N 0.67075 0.64441 0.56721
 C20 C 0.69051 0.65571 0.53877
 C21 C 0.71787 0.63178 0.53505
 C22 C 0.71341 0.60605 0.56239
 H23 H 0.68539 0.67947 0.52189
 H24 H 0.73011 0.58297 0.56793
 H25 H 0.62099 0.61265 0.60216
 H26 H 0.64788 0.64208 0.63259
 N27 N 0.91402 0.31445 0.10783
 N28 N 0.92694 0.32835 0.13802
 C29 C 0.95613 0.31021 0.14655
 C30 C 0.96167 0.28373 0.12024
 C31 C 0.93456 0.28705 0.09605
 H32 H 0.97232 0.31587 0.16992
 H33 H 0.93007 0.27077 0.07181
 Cu34 Cu 0.90504 0.36931 0.16303
 Cu35 Cu 0.87161 0.33283 0.08623
 Cu36 Cu 0.83307 0.40767 0.12802
 N37 N 0.88374 0.41230 0.18494
 N38 N 0.85564 0.42717 0.17131
 C39 C 0.84706 0.45680 0.19135
 C40 C 0.87117 0.46064 0.21877
 C41 C 0.89407 0.43208 0.21399
 H42 H 0.82533 0.47463 0.18605
 H43 H 0.91681 0.42652 0.23015
 N44 N 0.81409 0.38402 0.08403
 N45 N 0.82860 0.35523 0.06838
 C46 C 0.80942 0.34507 0.03943
 C47 C 0.78174 0.36867 0.03677
 C48 C 0.78541 0.39305 0.06529
 H49 H 0.81515 0.32230 0.02151
 H50 H 0.76826 0.41550 0.07190
 H51 H 0.87766 0.38586 0.10526
 H52 H 0.85029 0.35440 0.13372
 N53 N 0.41628 0.18390 -0.11074
 N54 N 0.43048 0.16791 -0.13941
 C55 C 0.45899 0.18678 -0.14946
 C56 C 0.46273 0.21584 -0.12566
 C57 C 0.43528 0.21327 -0.10147
 H58 H 0.47615 0.17965 -0.17186
 H59 H 0.42978 0.23118 -0.07860
 Cu60 Cu 0.41084 0.12330 -0.15974
 Cu61 Cu 0.37464 0.16530 -0.08699
 Cu62 Cu 0.33848 0.08667 -0.12333
 N63 N 0.38975 0.07959 -0.18039
 N64 N 0.36145 0.06551 -0.16596
 C65 C 0.35195 0.03608 -0.18560
 C66 C 0.37556 0.03149 -0.21373
 C67 C 0.39924 0.05944 -0.20972
 H68 H 0.32937 0.01947 -0.18007
 H69 H 0.42136 0.06483 -0.22720
 N70 N 0.31901 0.11213 -0.08031
 N71 N 0.33257 0.14235 -0.06676
 C72 C 0.31303 0.15366 -0.03823
 C73 C 0.28608 0.12935 -0.03368
 C74 C 0.29057 0.10335 -0.06063
 H75 H 0.31787 0.17785 -0.02202
 H76 H 0.27401 0.08008 -0.06570
 H77 H 0.38177 0.11109 -0.10135
 H78 H 0.35506 0.13965 -0.13291
 N79 N 0.08169 0.81836 0.39292
 N80 N 0.06829 0.83428 0.36389
 C81 C 0.03959 0.81604 0.35401
 C82 C 0.03482 0.78734 0.37823
 C83 C 0.06186 0.78955 0.40264
 H84 H 0.02352 0.82289 0.33085
 H85 H 0.06699 0.77122 0.42532
 Cu86 Cu 0.08982 0.87702 0.34160
 Cu87 Cu 0.12442 0.83557 0.41506
 Cu88 Cu 0.16325 0.91193 0.37543
 N89 N 0.11168 0.91974 0.31964
 N90 N 0.14049 0.93328 0.33291
 C91 C 0.14992 0.96269 0.31282
 C92 C 0.12567 0.96774 0.28570
 C93 C 0.10178 0.94013 0.29073
 H94 H 0.17253 0.97936 0.31767
 H95 H 0.07887 0.93544 0.27460
 N96 N 0.18227 0.88639 0.41854
 N97 N 0.16770 0.85713 0.43340
 C98 C 0.18708 0.84576 0.46182
 C99 C 0.21494 0.86905 0.46494
 C100 C 0.21117 0.89449 0.43727
 H101 H 0.18140 0.82237 0.47907
 H102 H 0.22840 0.91705 0.43122
 H103 H 0.11930 0.88964 0.39909
 H104 H 0.14500 0.85922 0.36817
 C105 C 0.09730 0.13218 0.14922
 C106 C 0.07080 0.15829 0.14740
 C107 C 0.07058 0.18466 0.11936
 C108 C 0.09731 0.18519 0.09314
 C109 C 0.12414 0.15938 0.09471
 C110 C 0.12411 0.13266 0.12278
 C111 C 0.09730 0.10547 0.17691
 C112 C 0.12374 0.07919 0.17848
 C113 C 0.15046 0.07982 0.15225
 C114 C 0.15081 0.10636 0.12434
 C115 C 0.17729 0.10697 0.09787
 C116 C 0.17755 0.13367 0.07010
 C117 C 0.15094 0.15977 0.06861
 H118 H 0.05013 0.15805 0.16765
 H119 H 0.09733 0.20562 0.07156
 H120 H 0.07663 0.10516 0.19706
 H121 H 0.17083 0.05946 0.15355
 H122 H 0.19781 0.08677 0.09882
 H123 H 0.15087 0.18024 0.04708
 C124 C 0.40121 0.87057 0.64800
 C125 C 0.42765 0.84426 0.64741
 C126 C 0.42832 0.81697 0.62036
 C127 C 0.40207 0.81572 0.59399
 C128 C 0.37531 0.84164 0.59436
 C129 C 0.37493 0.86928 0.62136
 C130 C 0.40058 0.89815 0.67474
 C131 C 0.37399 0.92430 0.67525
 C132 C 0.34796 0.92298 0.64864
 C133 C 0.34826 0.89565 0.62170
 C134 C 0.32227 0.89422 0.59512
 C135 C 0.32239 0.86659 0.56845
 C136 C 0.34895 0.84040 0.56813
 H137 H 0.44790 0.84506 0.66781
 H138 H 0.40230 0.79457 0.57324
 H139 H 0.42068 0.89929 0.69530
 H140 H 0.32744 0.94313 0.64879
 H141 H 0.30177 0.91447 0.59518
 H142 H 0.34930 0.81919 0.54744
 C143 C 0.90451 0.62760 0.34981
 C144 C 0.93102 0.65375 0.34971
 C145 C 0.93170 0.68145 0.37630
 C146 C 0.90571 0.68285 0.40331
 C147 C 0.87882 0.65705 0.40363
 C148 C 0.87823 0.62925 0.37679
 C149 C 0.90385 0.59985 0.32332
 C150 C 0.87721 0.57377 0.32338
 C151 C 0.85101 0.57557 0.35012
 C152 C 0.85137 0.60309 0.37691
 C153 C 0.82536 0.60492 0.40381
 C154 C 0.82569 0.63267 0.43036
 C155 C 0.85248 0.65861 0.43023
 H156 H 0.95112 0.65235 0.32896
 H157 H 0.90636 0.70426 0.42387
 H158 H 0.92406 0.59873 0.30268
 H159 H 0.83043 0.55541 0.35004
 H160 H 0.80469 0.58486 0.40410
 H161 H 0.85296 0.67994 0.45080
 C162 C 0.59864 0.37267 -0.14991
 C163 C 0.57240 0.34614 -0.14999
 C164 C 0.57133 0.31870 -0.12294
 C165 C 0.59702 0.31752 -0.09595
 C166 C 0.62354 0.34364 -0.09563
 C167 C 0.62432 0.37145 -0.12259
 C168 C 0.59970 0.40041 -0.17662
 C169 C 0.62615 0.42673 -0.17647
 C170 C 0.65155 0.42546 -0.14917
 C171 C 0.65081 0.39801 -0.12223
 C172 C 0.67622 0.39657 -0.09499
 C173 C 0.67572 0.36873 -0.06841
 C174 C 0.64931 0.34240 -0.06877
 H175 H 0.55260 0.34689 -0.17088
 H176 H 0.59654 0.29625 -0.07522
 H177 H 0.58009 0.40152 -0.19771
 H178 H 0.67193 0.44575 -0.14879
 H179 H 0.69661 0.41693 -0.09455
 H180 H 0.64865 0.32102 -0.04815
 C181 C 0.03510 0.24143 0.08844
 C182 C -0.00364 0.23063 0.08808
 C183 C -0.01057 0.25849 0.11882
 C184 C 0.02771 0.26966 0.11917
 C185 C -0.00419 0.22915 0.14830
 C186 C 0.00317 0.20093 0.11758
 C187 C 0.04157 0.21198 0.11797
 C188 C 0.03449 0.23992 0.14865
 H189 H 0.05099 0.24688 0.06356
 H190 H -0.01944 0.22680 0.06308
 H191 H 0.03753 0.29822 0.11987
 H192 H -0.02064 0.22431 0.17292
 H193 H -0.00669 0.17240 0.11690
 H194 H 0.05046 0.24355 0.17356
 C195 C 0.46441 0.76029 0.59035
 C196 C 0.50320 0.77066 0.59097
 C197 C 0.50891 0.74225 0.62155
 C198 C 0.47050 0.73158 0.62097
 C199 C 0.50184 0.77128 0.65113
 C200 C 0.49575 0.80003 0.62053
 C201 C 0.45724 0.78943 0.61996
 C202 C 0.46304 0.76099 0.65055
 H203 H 0.44944 0.75527 0.56501
 H204 H 0.51986 0.77463 0.56637
 H205 H 0.46039 0.70313 0.62121
 H206 H 0.51755 0.77554 0.67613
 H207 H 0.50594 0.82844 0.62030
 H208 H 0.44622 0.75720 0.67507
 C209 C 0.98714 0.71351 0.40640
 C210 C 1.01541 0.71903 0.37655
 C211 C 1.00845 0.76045 0.37745
 C212 C 0.98063 0.75536 0.40732
 C213 C 0.98126 0.75682 0.34711
 C214 C 0.98789 0.71502 0.34619
 C215 C 0.95991 0.70977 0.37605
 C216 C 0.95306 0.75130 0.37695
 H217 H 0.98934 0.69539 0.43077
 H218 H 1.04134 0.70599 0.37643
 H219 H 0.97790 0.77224 0.43245
 H220 H 0.97871 0.77466 0.32257
 H221 H 0.99144 0.69890 0.32068
 H222 H 0.92715 0.76438 0.37707
 C223 C 0.53508 0.26210 -0.09311
 C224 C 0.49626 0.27208 -0.09481
 C225 C 0.49143 0.24321 -0.12498
 C226 C 0.52991 0.23296 -0.12333
 C227 C 0.49882 0.27192 -0.15494
 C228 C 0.50404 0.30114 -0.12473
 C229 C 0.54261 0.29094 -0.12306
 C230 C 0.53772 0.26207 -0.15328
 H231 H 0.54948 0.25748 -0.06729
 H232 H 0.47910 0.27625 -0.07066
 H233 H 0.54029 0.20462 -0.12281
 H234 H 0.48359 0.27569 -0.18037
 H235 H 0.49358 0.32945 -0.12525
 H236 H 0.55507 0.25815 -0.17732
 C237 C 0.12394 0.00876 0.19891
 C238 C 0.15280 0.00324 0.22762
 C239 C 0.12497 -0.00266 0.25735
 C240 C 0.09612 0.00248 0.22899
 C241 C 0.12457 0.03847 0.26616
 C242 C 0.15239 0.04479 0.23602
 C243 C 0.12351 0.04998 0.20763
 C244 C 0.09567 0.04397 0.23749
 H245 H 0.12363 -0.00326 0.17097
 H246 H 0.17630 -0.01383 0.22385
 H247 H 0.07288 -0.01507 0.22606
 H248 H 0.12489 0.05040 0.29413
 H249 H 0.17553 0.06252 0.23870
 H250 H 0.07188 0.06030 0.24220
 C251 C 0.59866 0.48490 -0.21090
 C252 C 0.62697 0.51438 -0.21693
 C253 C 0.62688 0.50580 -0.25817
 C254 C 0.59856 0.47678 -0.25259
 C255 C 0.65529 0.47680 -0.25312
 C256 C 0.65539 0.48504 -0.21148
 C257 C 0.62708 0.45585 -0.20574
 C258 C 0.62697 0.44739 -0.24709
 H259 H 0.57537 0.48801 -0.19322
 H260 H 0.62692 0.54222 -0.20476
 H261 H 0.57519 0.47363 -0.26979
 H262 H 0.67871 0.47333 -0.27053
 H263 H 0.67910 0.48906 -0.19503
 H264 H 0.62701 0.41957 -0.25929
 C265 C 0.40223 0.98218 0.70907
 C266 C 0.37416 1.01177 0.71563
 C267 C 0.37493 1.00304 0.75688
 C268 C 0.40301 0.97386 0.75073
 C269 C 0.34633 0.97420 0.75236
 C270 C 0.34552 0.98262 0.71074
 C271 C 0.37361 0.95331 0.70448
 C272 C 0.37440 0.94466 0.74582
 H273 H 0.42523 0.98527 0.69095
 H274 H 0.37412 1.03968 0.70348
 H275 H 0.42666 0.97054 0.76749
 H276 H 0.32325 0.97088 0.77031
 H277 H 0.32156 0.98684 0.69474
 H278 H 0.37445 0.91678 0.75805
 C279 C 0.84731 0.53932 0.26695
 C280 C 0.87480 0.53142 0.23689
 C281 C 0.87302 0.49049 0.24663
 C282 C 0.84550 0.49797 0.27629
 C283 C 0.90212 0.49497 0.27477
 C284 C 0.90395 0.53627 0.26533
 C285 C 0.87644 0.54387 0.29512
 C286 C 0.87463 0.50285 0.30480
 H287 H 0.82478 0.55788 0.26393
 H288 H 0.87479 0.54288 0.20865
 H289 H 0.82145 0.48189 0.28052
 H290 H 0.92474 0.47657 0.27801
 H291 H 0.92830 0.55155 0.26020
 H292 H 0.87462 0.49132 0.33301
 C293 C 0.21220 0.10241 0.01457
 C294 C 0.21892 0.13110 -0.01603
 C295 C 0.25744 0.13116 -0.00606
 C296 C 0.25110 0.10246 0.02417
 C297 C 0.25159 0.16248 0.02141
 C298 C 0.21268 0.16245 0.01174
 C299 C 0.20625 0.13373 0.04208
 C300 C 0.24486 0.13379 0.05199
 H301 H 0.19570 0.07770 0.01196
 H302 H 0.20853 0.12992 -0.04431
 H303 H 0.26721 0.07777 0.02901
 H304 H 0.26797 0.18725 0.02418
 H305 H 0.19727 0.18745 0.00613
 H306 H 0.25533 0.13496 0.08025
 C307 C 0.75863 0.63410 0.44911
 C308 C 0.75241 0.60357 0.47795
 C309 C 0.74643 0.63309 0.50729
 C310 C 0.75229 0.66363 0.47881
 C311 C 0.78503 0.63301 0.51698
 C312 C 0.79136 0.60347 0.48727
 C313 C 0.79732 0.63399 0.45871
 C314 C 0.79129 0.66357 0.48815
 H315 H 0.74797 0.63459 0.42091
 H316 H 0.73612 0.57889 0.47401
 H317 H 0.73602 0.68844 0.47541
 H318 H 0.79561 0.63250 0.54521
 H319 H 0.80771 0.57871 0.49056
 H320 H 0.80699 0.68854 0.49276
 C321 C 0.74243 0.36836 -0.04930
 C322 C 0.74766 0.39823 -0.01978
 C323 C 0.75360 0.36803 0.00895
 C324 C 0.74872 0.33817 -0.02022
 C325 C 0.71484 0.36716 0.01844
 C326 C 0.70854 0.39737 -0.01069
 C327 C 0.70358 0.36751 -0.03990
 C328 C 0.70959 0.33727 -0.01106
 H329 H 0.75359 0.36882 -0.07744
 H330 H 0.76362 0.42330 -0.02310
 H331 H 0.76542 0.31374 -0.02411
 H332 H 0.70377 0.36671 0.04662
 H333 H 0.69172 0.42173 -0.00696
 H334 H 0.69429 0.31187 -0.00702
 C335 C 0.28764 0.83610 0.51122
 C336 C 0.24862 0.83685 0.52098
 C337 C 0.24338 0.86736 0.49240
 C338 C 0.28201 0.86663 0.48230
 C339 C 0.24975 0.89691 0.52153
 C340 C 0.25536 0.86640 0.55046
 C341 C 0.29407 0.86570 0.54044
 C342 C 0.28873 0.89619 0.51180
 H343 H 0.30293 0.81080 0.50657
 H344 H 0.23192 0.81239 0.52468
 H345 H 0.29269 0.86679 0.45395
 H346 H 0.23387 0.92193 0.52552
 H347 H 0.24459 0.86626 0.57877
 H348 H 0.30552 0.92061 0.50821
   
