data_POSCAR
  _audit_creation_date              2014-09-24
  _audit_creation_method            'ToBaCCo'
  _symmetry_space_group_name_H-M    'P1'
  _symmetry_Int_Tables_number       1
  _symmetry_cell_setting            triclinic
  loop_
  _symmetry_equiv_pos_as_xyz
 x,y,z
_cell_length_a 34.9553
_cell_length_b 34.6362
_cell_length_c 38.6821
_cell_angle_alpha 89.978400
_cell_angle_beta 89.482200
_cell_angle_gamma 117.274800
loop_
  _atom_site_label
  _atom_site_type_symbol
  _atom_site_fract_x
  _atom_site_fract_y
  _atom_site_fract_z
C1 C 0.03764 0.49848 0.01356
 C2 C 0.03741 0.53892 0.00976
 C3 C 0.02072 0.54755 -0.02044
 C4 C 0.00536 0.51737 -0.04765
 C5 C 0.00611 0.47652 -0.04374
 C6 C 0.02360 0.46862 -0.01350
 H7 H 0.02253 0.43714 -0.00940
 H8 H 0.02204 0.57925 -0.02351
 C9 C 0.49275 0.50152 0.03650
 C10 C 0.46592 0.45782 0.04640
 C11 C 0.46510 0.42415 0.02578
 C12 C 0.48898 0.43302 -0.00496
 C13 C 0.51380 0.47679 -0.01621
 C14 C 0.51665 0.51051 0.00553
 H15 H 0.53576 0.54406 -0.00243
 H16 H 0.44560 0.39062 0.03362
 C17 C 0.51649 0.94680 0.00609
 C18 C 0.56194 0.96438 0.00752
 C19 C 0.58709 0.99101 -0.01955
 C20 C 0.56825 1.00087 -0.04775
 C21 C 0.52289 0.98609 -0.04825
 C22 C 0.49775 0.95864 -0.02113
 H23 H 0.46315 0.94647 -0.02069
 H24 H 0.62167 1.00276 -0.01943
 C25 C 0.98292 0.57658 0.51645
 C26 C 0.97685 0.53407 0.52443
 C27 C 0.99020 0.51252 0.50028
 C28 C 1.00765 0.53103 0.46812
 C29 C 1.01354 0.57351 0.45991
 C30 C 1.00289 0.59644 0.48510
 H31 H 1.00649 0.62854 0.47910
 H32 H 0.98721 0.48077 0.50668
 C33 C 0.46053 0.48135 0.56045
 C34 C 0.49056 0.52582 0.56175
 C35 C 0.49144 0.55352 0.53498
 C36 C 0.46435 0.53742 0.50640
 C37 C 0.43607 0.49236 0.50405
 C38 C 0.43433 0.46497 0.53145
 H39 H 0.41145 0.43077 0.53070
 H40 H 0.51407 0.58779 0.53596
 C41 C 0.52422 0.01531 0.52939
 C42 C 0.48094 0.00537 0.52157
 C43 C 0.46042 -0.02231 0.49377
 C44 C 0.48208 -0.03966 0.47320
 C45 C 0.52671 -0.02520 0.47857
 C46 C 0.54692 0.00112 0.50690
 H47 H 0.58077 0.01106 0.51108
 H48 H 0.42682 -0.03159 0.48900
 O49 O 0.15180 0.39778 0.22610
 O50 O 0.21922 0.39371 0.29741
 O51 O 0.14761 0.39939 0.29297
 O52 O 0.22360 0.39062 0.23122
 O53 O 0.26070 0.46219 0.22915
 O54 O 0.18463 0.47089 0.29119
 O55 O 0.25561 0.46536 0.29630
 O56 O 0.18988 0.46928 0.22396
 Cu57 Cu 0.18170 0.38815 0.26188
 Cu58 Cu 0.22644 0.47412 0.25982
 C59 C 0.15918 0.43431 0.21323
 C60 C 0.24885 0.42895 0.30902
 C61 C 0.15322 0.43657 0.30280
 C62 C 0.25553 0.42484 0.22025
 O63 O 0.55426 0.71936 0.22681
 O64 O 0.59239 0.80992 0.28941
 O65 O 0.54953 0.72547 0.29454
 O66 O 0.59641 0.80322 0.22226
 O67 O 0.53550 0.80755 0.21785
 O68 O 0.48906 0.73042 0.28963
 O69 O 0.53154 0.81401 0.28290
 O70 O 0.49392 0.72440 0.22109
 Cu71 Cu 0.57911 0.76376 0.25895
 Cu72 Cu 0.50583 0.76861 0.25256
 C73 C 0.51830 0.70791 0.21217
 C74 C 0.56849 0.82773 0.29618
 C75 C 0.51170 0.71586 0.30505
 C76 C 0.57381 0.81866 0.20781
 O77 O 0.30236 0.81193 0.20253
 O78 O 0.21258 0.76143 0.26644
 O79 O 0.29541 0.81369 0.27076
 O80 O 0.21886 0.76494 0.19963
 O81 O 0.23166 0.70811 0.19975
 O82 O 0.30360 0.75439 0.27365
 O83 O 0.21986 0.70136 0.26374
 O84 O 0.31172 0.75320 0.20491
 Cu85 Cu 0.25675 0.79421 0.23484
 Cu86 Cu 0.26893 0.72444 0.23686
 C87 C 0.32182 0.79050 0.19238
 C88 C 0.19996 0.72180 0.27458
 C89 C 0.31197 0.79189 0.28484
 C90 C 0.21216 0.72828 0.18759
 O91 O 0.82520 0.62584 0.72803
 O92 O 0.74606 0.58524 0.80026
 O93 O 0.82622 0.59807 0.79116
 O94 O 0.74542 0.61118 0.73761
 O95 O 0.72219 0.54407 0.71877
 O96 O 0.80360 0.53205 0.77008
 O97 O 0.72300 0.51863 0.78029
 O98 O 0.79945 0.55889 0.70827
 Cu99 Cu 0.78842 0.61182 0.76648
 Cu100 Cu 0.76013 0.53147 0.74302
 C101 C 0.82487 0.59913 0.70534
 C102 C 0.71960 0.54506 0.80129
 C103 C 0.82930 0.56301 0.78877
 C104 C 0.71981 0.57954 0.71922
 O105 O 0.41116 0.14382 0.78392
 O106 O 0.40662 0.23435 0.73775
 O107 O 0.39737 0.15685 0.72036
 O108 O 0.42349 0.22117 0.80105
 O109 O 0.49247 0.24910 0.78732
 O110 O 0.46677 0.18447 0.70821
 O111 O 0.47541 0.26090 0.72352
 O112 O 0.48083 0.17220 0.77243
 Cu113 Cu 0.40263 0.18649 0.76182
 Cu114 Cu 0.48576 0.21951 0.74645
 C115 C 0.44693 0.14302 0.78661
 C116 C 0.44004 0.26289 0.72267
 C117 C 0.42791 0.15928 0.70085
 C118 C 0.46278 0.24563 0.80813
 O119 O 0.75075 0.21558 0.69044
 O120 O 0.83547 0.26929 0.75526
 O121 O 0.76638 0.19517 0.75084
 O122 O 0.81992 0.29106 0.69397
 O123 O 0.78161 0.31995 0.71822
 O124 O 0.73091 0.22598 0.77699
 O125 O 0.79773 0.29929 0.77857
 O126 O 0.71145 0.24208 0.71654
 Cu127 Cu 0.79717 0.24025 0.71993
 Cu128 Cu 0.75145 0.27515 0.74936
 C129 C 0.71563 0.21769 0.69391
 C130 C 0.83084 0.29315 0.77820
 C131 C 0.73973 0.19445 0.77372
 C132 C 0.81048 0.32219 0.69699
 C133 C 0.09123 0.46832 0.08582
 C134 C 0.06064 0.45818 0.11157
 C135 C 0.02238 0.46059 0.10692
 C136 C 0.01537 0.47405 0.07442
 C137 C 0.04610 0.48408 0.04736
 C138 C 0.08432 0.48058 0.05297
 O139 O 0.12635 0.46620 0.09620
 C140 C 0.11761 0.45419 0.12914
 C141 C 0.07758 0.44837 0.13967
 C142 C 0.06187 0.43592 0.17316
 C143 C 0.08869 0.42962 0.19687
 C144 C 0.13045 0.43663 0.18686
 C145 C 0.14516 0.44898 0.15253
 H146 H -0.00091 0.45307 0.12771
 H147 H -0.01391 0.47674 0.07019
 H148 H 0.10836 0.48848 0.03271
 H149 H 0.03030 0.43161 0.18083
 H150 H 0.07756 0.42061 0.22328
 H151 H 0.17716 0.45486 0.14452
 C152 C 0.50841 0.57857 0.11034
 C153 C 0.48849 0.60154 0.09714
 C154 C 0.47216 0.59543 0.06382
 C155 C 0.47576 0.56373 0.04346
 C156 C 0.49438 0.53826 0.05701
 C157 C 0.51141 0.54610 0.09080
 O158 O 0.52297 0.59052 0.14219
 C159 C 0.51167 0.62146 0.14931
 C160 C 0.48996 0.62894 0.12275
 C161 C 0.47439 0.65928 0.12484
 C162 C 0.48219 0.68352 0.15532
 C163 C 0.50598 0.67774 0.18263
 C164 C 0.52071 0.64599 0.17962
 H165 H 0.45705 0.61426 0.05391
 H166 H 0.46257 0.55773 0.01765
 H167 H 0.52585 0.52706 0.10160
 H168 H 0.45716 0.66439 0.10366
 H169 H 0.47113 0.70800 0.15707
 H170 H 0.53902 0.64094 0.19999
 C171 C 0.43574 0.89254 0.07850
 C172 C 0.44090 0.85588 0.08349
 C173 C 0.46793 0.84582 0.06297
 C174 C 0.49127 0.87517 0.03657
 C175 C 0.48787 0.91408 0.03166
 C176 C 0.45895 0.92241 0.05249
 O177 O 0.40803 0.89560 0.10074
 C178 C 0.39553 0.86014 0.12022
 C179 C 0.41494 0.83497 0.11076
 C180 C 0.40691 0.79659 0.12763
 C181 C 0.37705 0.78308 0.15502
 C182 C 0.35564 0.80780 0.16504
 C183 C 0.36552 0.84726 0.14747
 H184 H 0.47117 0.81659 0.06727
 H185 H 0.51292 0.86830 0.02050
 H186 H 0.45575 0.95184 0.04922
 H187 H 0.42283 0.77751 0.11983
 H188 H 0.37022 0.75292 0.16808
 H189 H 0.34980 0.86686 0.15431
 C190 C 0.90730 0.59407 0.57592
 C191 C 0.93509 0.63156 0.59251
 C192 C 0.97812 0.65531 0.58251
 C193 C 0.99327 0.63875 0.55534
 C194 C 0.96537 0.59909 0.53922
 C195 C 0.92136 0.57781 0.54851
 O196 O 0.86938 0.57340 0.59150
 C197 C 0.87315 0.59806 0.61865
 C198 C 0.91253 0.63428 0.62055
 C199 C 0.92412 0.66228 0.64878
 C200 C 0.89420 0.65201 0.67623
 C201 C 0.85414 0.61387 0.67510
 C202 C 0.84334 0.58727 0.64547
 H203 H 0.99976 0.68415 0.59634
 H204 H 1.02713 0.65509 0.54843
 H205 H 0.89963 0.54713 0.53693
 H206 H 0.95556 0.69016 0.65015
 H207 H 0.90299 0.67248 0.69891
 H208 H 0.81327 0.55767 0.64393
 C209 C 0.45945 0.39421 0.61962
 C210 C 0.43547 0.39741 0.64687
 C211 C 0.41959 0.42762 0.64761
 C212 C 0.42881 0.45564 0.61909
 C213 C 0.45275 0.45237 0.59051
 C214 C 0.46800 0.42100 0.59061
 O215 O 0.47206 0.36381 0.62432
 C216 C 0.45543 0.34727 0.65508
 C217 C 0.43235 0.36637 0.66979
 C218 C 0.41083 0.35289 0.70135
 C219 C 0.41323 0.31832 0.71844
 C220 C 0.43765 0.29881 0.70417
 C221 C 0.45923 0.31367 0.67210
 H222 H 0.40095 0.42964 0.66939
 H223 H 0.41695 0.47956 0.61895
 H224 H 0.48625 0.41795 0.56895
 H225 H 0.39248 0.36812 0.71222
 H226 H 0.39658 0.30708 0.74298
 H227 H 0.47758 0.29887 0.66046
 C228 C 0.60627 0.10057 0.58754
 C229 C 0.58348 0.09132 0.61818
 C230 C 0.54313 0.05589 0.62232
 C231 C 0.52502 0.02958 0.59341
 C232 C 0.54632 0.04033 0.56072
 C233 C 0.58814 0.07582 0.55810
 O234 O 0.64523 0.13416 0.58973
 C235 C 0.64685 0.14663 0.62238
 C236 C 0.60953 0.12195 0.64068
 C237 C 0.60386 0.12976 0.67512
 C238 C 0.63847 0.16374 0.69164
 C239 C 0.67804 0.18818 0.67387
 C240 C 0.68218 0.17976 0.63863
 H241 H 0.52635 0.04853 0.64698
 H242 H 0.49382 0.00154 0.59621
 H243 H 0.60558 0.08456 0.53374
 H244 H 0.57409 0.11005 0.68889
 H245 H 0.63525 0.16955 0.71878
 H246 H 0.71220 0.19774 0.62463
 C247 C 0.50269 0.05229 0.88513
 C248 C 0.46252 0.02329 0.87402
 C249 C 0.44040 -0.01847 0.88758
 C250 C 0.46075 -0.03089 0.91335
 C251 C 0.50262 -0.00155 0.92532
 C252 C 0.52298 0.04103 0.91109
 O253 O 0.51803 0.09074 0.86969
 C254 C 0.48682 0.08600 0.84829
 C255 C 0.45190 0.04545 0.85006
 C256 C 0.41469 0.03448 0.83113
 C257 C 0.41342 0.06673 0.80977
 C258 C 0.44932 0.10857 0.80736
 C259 C 0.48666 0.11807 0.82667
 H260 H 0.40868 -0.04081 0.87852
 H261 H 0.44420 -0.06387 0.92309
 H262 H 0.55280 0.06590 0.92111
 H263 H 0.38733 0.00260 0.83325
 H264 H 0.38455 0.05923 0.79522
 H265 H 0.51413 0.15002 0.82595
 C266 C 0.59938 0.52047 0.91585
 C267 C 0.57757 0.49353 0.88905
 C268 C 0.53405 0.46484 0.89059
 C269 C 0.51235 0.46224 0.92167
 C270 C 0.53456 0.48658 0.95109
 C271 C 0.57835 0.51813 0.94737
 O272 O 0.64100 0.54492 0.90879
 C273 C 0.64538 0.53269 0.87700
 C274 C 0.60747 0.50097 0.86408
 C275 C 0.60469 0.48131 0.83232
 C276 C 0.64251 0.49533 0.81268
 C277 C 0.68196 0.52895 0.82471
 C278 C 0.68345 0.54804 0.85739
 H279 H 0.51748 0.44469 0.86880
 H280 H 0.47820 0.44052 0.92303
 H281 H 0.59641 0.53749 0.96904
 H282 H 0.57451 0.45589 0.82307
 H283 H 0.64081 0.48079 0.78758
 H284 H 0.71318 0.57359 0.86722
 C285 C 0.92769 0.40096 0.89359
 C286 C 0.94927 0.37864 0.88218
 C287 C 0.98823 0.38493 0.89614
 C288 C 1.00623 0.41646 0.92209
 C289 C 0.98563 0.44168 0.93294
 C290 C 0.94470 0.43200 0.91936
 O291 O 0.89179 0.39130 0.87654
 C292 C 0.89071 0.36241 0.85365
 C293 C 0.92507 0.35343 0.85587
 C294 C 0.93072 0.32509 0.83331
 C295 C 0.89962 0.30523 0.80757
 C296 C 0.86386 0.31405 0.80496
 C297 C 0.85957 0.34308 0.82853
 H298 H 1.00472 0.36703 0.88680
 H299 H 1.03741 0.42296 0.93217
 H300 H 0.92694 0.44900 0.92792
 H301 H 0.95820 0.31875 0.83527
 H302 H 0.90341 0.28308 0.78977
 H303 H 0.83296 0.35089 0.82724
 C304 C 0.57927 0.92776 0.41821
 C305 C 0.58517 0.95374 0.38965
 C306 C 0.57763 0.98981 0.39025
 C307 C 0.56162 0.99838 0.42104
 C308 C 0.55388 0.97129 0.45040
 C309 C 0.56533 0.93708 0.44966
 O310 O 0.58078 0.89106 0.41068
 C311 C 0.58747 0.89378 0.37670
 C312 C 0.59078 0.93176 0.36267
 C313 C 0.59152 0.93883 0.32722
 C314 C 0.58757 0.90503 0.30532
 C315 C 0.58309 0.86531 0.31912
 C316 C 0.58419 0.85992 0.35525
 H317 H 0.58089 1.00875 0.36715
 H318 H 0.55251 1.02436 0.42142
 H319 H 0.55873 0.91541 0.47157
 H320 H 0.59248 0.96828 0.31683
 H321 H 0.58556 0.90877 0.27769
 H322 H 0.57838 0.82894 0.36627
 C323 C 0.35737 0.47198 0.43118
 C324 C 0.35751 0.43616 0.41600
 C325 C 0.38209 0.41704 0.42839
 C326 C 0.40784 0.43593 0.45737
 C327 C 0.40812 0.47285 0.47359
 C328 C 0.38156 0.49032 0.46060
 O329 O 0.33300 0.48614 0.41480
 C330 C 0.31728 0.45857 0.38874
 C331 C 0.33082 0.42701 0.38850
 C332 C 0.31756 0.39442 0.36372
 C333 C 0.28947 0.39462 0.33804
 C334 C 0.27620 0.42765 0.33722
 C335 C 0.29030 0.46002 0.36300
 H336 H 0.38199 0.38906 0.41588
 H337 H 0.42792 0.42213 0.46702
 H338 H 0.37950 0.51723 0.47302
 H339 H 0.32846 0.36979 0.36412
 H340 H 0.27895 0.36981 0.31829
 H341 H 0.28042 0.48544 0.36306
 C342 C 0.07925 0.64961 0.39016
 C343 C 0.06264 0.62345 0.36181
 C344 C 0.02775 0.58237 0.36386
 C345 C 0.01001 0.56692 0.39662
 C346 C 0.02767 0.59216 0.42679
 C347 C 0.06152 0.63514 0.42310
 O348 O 0.11492 0.68588 0.38288
 C349 C 0.12100 0.68234 0.34928
 C350 C 0.08978 0.64465 0.33525
 C351 C 0.09183 0.63197 0.30149
 C352 C 0.12784 0.65891 0.28145
 C353 C 0.16057 0.69779 0.29523
 C354 C 0.15682 0.71021 0.32944
 H355 H 0.01549 0.56229 0.34117
 H356 H -0.01702 0.53477 0.39858
 H357 H 0.07627 0.65511 0.44545
 H358 H 0.06742 0.60161 0.29136
 H359 H 0.13085 0.64905 0.25540
 H360 H 0.18220 0.73902 0.34082
 C361 C 0.94633 0.55523 0.89263
 C362 C 0.95504 0.54151 0.86157
 C363 C 0.98359 0.52405 0.85831
 C364 C 1.00270 0.51891 0.88851
 C365 C 0.99189 0.52964 0.92151
 C366 C 0.96491 0.55031 0.92308
 O367 O 0.91664 0.56900 0.89029
 C368 C 0.90615 0.56348 0.85707
 C369 C 0.92856 0.54642 0.83847
 C370 C 0.92014 0.53443 0.80401
 C371 C 0.88726 0.54023 0.78804
 C372 C 0.86411 0.55837 0.80644
 C373 C 0.87404 0.57067 0.84137
 H374 H 0.99015 0.51375 0.83351
 H375 H 1.02492 0.50522 0.88626
 H376 H 0.95544 0.55872 0.94755
 H377 H 0.93752 0.52014 0.79014
 H378 H 0.87981 0.53067 0.76130
 H379 H 0.85616 0.58368 0.85615
 C380 C 0.46256 0.34013 0.93372
 C381 C 0.50278 0.34261 0.92954
 C382 C 0.53800 0.36990 0.94911
 C383 C 0.53200 0.39707 0.97301
 C384 C 0.49140 0.39661 0.97669
 C385 C 0.45567 0.36630 0.95795
 O386 O 0.43462 0.31520 0.91026
 C387 C 0.45776 0.30187 0.89078
 C388 C 0.49966 0.31782 0.90153
 C389 C 0.53052 0.31114 0.88332
 C390 C 0.51773 0.28695 0.85278
 C391 C 0.47470 0.26999 0.84099
 C392 C 0.44417 0.27725 0.86058
 H393 H 0.56948 0.37185 0.94485
 H394 H 0.55949 0.42049 0.98708
 H395 H 0.42478 0.36640 0.95958
 H396 H 0.56351 0.32481 0.89192
 H397 H 0.54153 0.28170 0.83823
 H398 H 0.41134 0.26547 0.85196
 C399 C 0.64909 0.08207 0.89032
 C400 C 0.64343 0.05627 0.86181
 C401 C 0.61465 0.01218 0.86157
 C402 C 0.59036 -0.00583 0.89177
 C403 C 0.59588 0.02015 0.92143
 C404 C 0.62663 0.06442 0.92104
 O405 O 0.67488 0.12381 0.88424
 C406 C 0.68594 0.12438 0.85127
 C407 C 0.66812 0.08383 0.83646
 C408 C 0.67479 0.07720 0.80190
 C409 C 0.70043 0.11394 0.78171
 C410 C 0.71760 0.15612 0.79613
 C411 C 0.71054 0.16134 0.83146
 H412 H 0.61005 -0.00729 0.83864
 H413 H 0.56685 -0.03980 0.89206
 H414 H 0.63081 0.08492 0.94327
 H415 H 0.66028 0.04501 0.79077
 H416 H 0.70536 0.10976 0.75456
 H417 H 0.72309 0.19328 0.84297
 C418 C 0.07409 0.50082 0.40651
 C419 C 0.04491 0.45891 0.39851
 C420 C 0.00377 0.43840 0.41294
 C421 C -0.00792 0.46229 0.43625
 C422 C 0.02150 0.50572 0.44468
 C423 C 0.06344 0.52485 0.43006
 O424 O 0.11103 0.51469 0.38926
 C425 C 0.10507 0.48078 0.36997
 C426 C 0.06525 0.44573 0.37477
 C427 C 0.05233 0.40685 0.35711
 C428 C 0.08171 0.40398 0.33357
 C429 C 0.12285 0.43988 0.32790
 C430 C 0.13453 0.47884 0.34643
 H431 H -0.01873 0.40548 0.40607
 H432 H -0.04015 0.44739 0.44720
 H433 H 0.08665 0.55779 0.43623
 H434 H 0.02080 0.37972 0.36130
 H435 H 0.07221 0.37400 0.31950
 H436 H 0.16571 0.50673 0.34283
 C437 C 0.48601 0.60056 0.42290
 C438 C 0.46437 0.62450 0.42941
 C439 C 0.44405 0.62290 0.46084
 C440 C 0.44561 0.59502 0.48646
 C441 C 0.46604 0.56863 0.47978
 C442 C 0.48689 0.57167 0.44769
 O443 O 0.50498 0.60859 0.39199
 C444 C 0.49482 0.63798 0.37862
 C445 C 0.46951 0.64833 0.40031
 C446 C 0.45482 0.67809 0.39144
 C447 C 0.46733 0.69859 0.35909
 C448 C 0.49480 0.68977 0.33679
 C449 C 0.50848 0.65874 0.34664
 H450 H 0.42786 0.64261 0.46554
 H451 H 0.42988 0.59288 0.51116
 H452 H 0.50315 0.55217 0.44233
 H453 H 0.43483 0.68558 0.40893
 H454 H 0.45702 0.72261 0.35200
 H455 H 0.52956 0.65151 0.33017
 C456 C 0.41000 0.90098 0.40028
 C457 C 0.41777 0.86554 0.39838
 C458 C 0.44453 0.85876 0.42112
 C459 C 0.46487 0.89023 0.44645
 C460 C 0.45917 0.92829 0.44834
 C461 C 0.42987 0.93277 0.42548
 O462 O 0.38333 0.90102 0.37602
 C463 C 0.37416 0.86481 0.35857
 C464 C 0.39440 0.84196 0.37129
 C465 C 0.38953 0.80319 0.35697
 C466 C 0.36245 0.78712 0.32838
 C467 C 0.34098 0.80991 0.31465
 C468 C 0.34715 0.84949 0.33005
 H469 H 0.44934 0.83007 0.41961
 H470 H 0.48395 0.88413 0.46544
 H471 H 0.42426 0.96103 0.42618
 H472 H 0.40596 0.78591 0.36745
 H473 H 0.35826 0.75690 0.31698
 H474 H 0.33124 0.86766 0.32031
 C475 C 0.58436 0.93442 0.09586
 C476 C 0.61132 0.91667 0.08760
 C477 C 0.62663 0.91745 0.05413
 C478 C 0.61230 0.93581 0.02805
 C479 C 0.58344 0.95308 0.03592
 C480 C 0.57131 0.95443 0.07069
 O481 O 0.56851 0.92509 0.12773
 C482 C 0.58567 0.90083 0.13990
 C483 C 0.61260 0.89508 0.11661
 C484 C 0.63099 0.86768 0.12316
 C485 C 0.62041 0.84461 0.15463
 C486 C 0.59109 0.84858 0.17817
 C487 C 0.57439 0.87791 0.17097
 H488 H 0.64672 0.90212 0.04795
 H489 H 0.62151 0.93417 0.00150
 H490 H 0.54917 0.96717 0.07748
 H491 H 0.65142 0.86298 0.10421
 H492 H 0.63297 0.82183 0.15969
 H493 H 0.55134 0.88101 0.18818
 C494 C 0.38215 0.45195 0.11157
 C495 C 0.38197 0.42114 0.13408
 C496 C 0.40892 0.40184 0.12991
 C497 C 0.43716 0.41487 0.10133
 C498 C 0.43745 0.44613 0.07744
 C499 C 0.40899 0.46439 0.08257
 O500 O 0.35452 0.46676 0.12035
 C501 C 0.33628 0.44464 0.14896
 C502 C 0.35153 0.41588 0.15825
 C503 C 0.33569 0.38833 0.18672
 C504 C 0.30303 0.39078 0.20652
 C505 C 0.28779 0.42108 0.19794
 C506 C 0.30471 0.44845 0.16880
 H507 H 0.40836 0.37778 0.14805
 H508 H 0.45869 0.40055 0.09768
 H509 H 0.40712 0.48702 0.06422
 H510 H 0.34791 0.36570 0.19336
 H511 H 0.29033 0.36990 0.22898
 H512 H 0.29332 0.47162 0.16167
 C513 C 0.11458 0.61540 0.07498
 C514 C 0.09259 0.63743 0.08614
 C515 C 0.05246 0.62906 0.07326
 C516 C 0.03431 0.59649 0.04808
 C517 C 0.05656 0.57342 0.03626
 C518 C 0.09771 0.58392 0.04951
 O519 O 0.15133 0.62672 0.09127
 C520 C 0.15274 0.65665 0.11324
 C521 C 0.11786 0.66485 0.11098
 C522 C 0.11309 0.69511 0.13188
 C523 C 0.14527 0.71725 0.15635
 C524 C 0.18074 0.70815 0.15978
 C525 C 0.18456 0.67766 0.13763
 H526 H 0.03549 0.64648 0.08261
 H527 H 0.00280 0.58885 0.03810
 H528 H 0.11617 0.56801 0.04028
 H529 H 0.08544 0.70112 0.12968
 H530 H 0.14186 0.74037 0.17331
 H531 H 0.21126 0.67005 0.13962
 C532 C 0.45509 0.08053 0.57650
 C533 C 0.41609 0.05173 0.59067
 C534 C 0.39490 0.00827 0.58100
 C535 C 0.41543 -0.00630 0.55665
 C536 C 0.45625 0.02263 0.54245
 C537 C 0.47513 0.06715 0.55132
 O538 O 0.47256 0.11876 0.59209
 C539 C 0.44408 0.11409 0.61669
 C540 C 0.40864 0.07389 0.61677
 C541 C 0.37650 0.06118 0.64207
 C542 C 0.38161 0.09075 0.66871
 C543 C 0.41888 0.13160 0.66992
 C544 C 0.44998 0.14364 0.64303
 H545 H 0.36483 -0.01414 0.59315
 H546 H 0.40073 -0.04051 0.55035
 H547 H 0.50634 0.08995 0.54110
 H548 H 0.34924 0.02912 0.64198
 H549 H 0.35779 0.08090 0.68932
 H550 H 0.47910 0.17428 0.64349
 C551 C 0.58094 0.54106 0.62145
 C552 C 0.58682 0.57779 0.63915
 C553 C 0.56174 0.59882 0.63318
 C554 C 0.52950 0.58124 0.60796
 C555 C 0.52307 0.54337 0.58948
 C556 C 0.54957 0.52343 0.59625
 O557 O 0.60781 0.52578 0.63073
 C558 C 0.63129 0.55340 0.65484
 C559 C 0.62008 0.58604 0.66098
 C560 C 0.64122 0.61857 0.68518
 C561 C 0.67486 0.61701 0.70394
 C562 C 0.68631 0.58308 0.69834
 C563 C 0.66417 0.55110 0.67320
 H564 H 0.56684 0.62771 0.64733
 H565 H 0.50959 0.59698 0.60277
 H566 H 0.54649 0.49545 0.58177
 H567 H 0.63204 0.64408 0.68958
 H568 H 0.69138 0.64168 0.72316
 H569 H 0.67207 0.52483 0.66809
 C570 C 0.90512 0.44529 0.58679
 C571 C 0.91436 0.46742 0.61756
 C572 C 0.94512 0.51068 0.62015
 C573 C 0.96678 0.53204 0.58972
 C574 C 0.95598 0.51069 0.55722
 C575 C 0.92491 0.46636 0.55610
 O576 O 0.87697 0.40364 0.59011
 C577 C 0.86793 0.39939 0.62371
 C578 C 0.88939 0.43763 0.64162
 C579 C 0.88410 0.44058 0.67706
 C580 C 0.85611 0.40244 0.69478
 C581 C 0.83516 0.36236 0.67706
 C582 C 0.84101 0.36086 0.64100
 H583 H 0.95279 0.52715 0.64480
 H584 H 0.99177 0.56523 0.59147
 H585 H 0.91610 0.44877 0.53195
 H586 H 0.90109 0.47103 0.69060
 H587 H 0.85202 0.40369 0.72248
 H588 H 0.82545 0.33058 0.62698
   
