data_POSCAR
  _audit_creation_date              2014-09-24
  _audit_creation_method            'ToBaCCo'
  _symmetry_space_group_name_H-M    'P1'
  _symmetry_Int_Tables_number       1
  _symmetry_cell_setting            triclinic
  loop_
  _symmetry_equiv_pos_as_xyz
 x,y,z
_cell_length_a 27.2212
_cell_length_b 27.4388
_cell_length_c 31.3648
_cell_angle_alpha 89.929200
_cell_angle_beta 89.946300
_cell_angle_gamma 90.018500
loop_
  _atom_site_label
  _atom_site_type_symbol
  _atom_site_fract_x
  _atom_site_fract_y
  _atom_site_fract_z
Zr1 Zr 0.23937 0.24006 0.32393
 O2 O 0.25087 0.25148 0.39001
 O3 O 0.18678 0.18812 0.34591
 O4 O 0.20140 0.29489 0.35908
 O5 O 0.34413 0.16715 0.30895
 O6 O 0.16294 0.34133 0.30882
 O7 O 0.29783 0.20715 0.35841
 O8 O 0.15048 0.15404 0.28786
 O9 O 0.17903 0.24502 0.28276
 O10 O 0.24575 0.18007 0.28298
 O11 O 0.24778 0.30791 0.29279
 O12 O 0.30857 0.24573 0.29366
 Zr13 Zr 0.25988 0.26081 0.17603
 Zr14 Zr 0.18825 0.31168 0.25010
 Zr15 Zr 0.31227 0.18798 0.24982
 Zr16 Zr 0.18812 0.18710 0.23931
 O17 O 0.38980 0.19268 0.24624
 O18 O 0.11119 0.19671 0.23148
 O19 O 0.25382 0.19219 0.20624
 O20 O 0.19147 0.25282 0.20721
 O21 O 0.25542 0.32044 0.21745
 O22 O 0.32058 0.25403 0.21669
 C23 C 0.15613 0.15900 0.32758
 C24 C 0.33433 0.17988 0.34768
 C25 C 0.17429 0.33127 0.34783
 O26 O 0.11091 0.30498 0.25233
 O27 O 0.15862 0.33742 0.19142
 O28 O 0.20489 0.29892 0.14102
 C29 C 0.16864 0.32628 0.15234
 O30 O 0.33903 0.32596 0.32353
 Zr31 Zr 0.31399 0.31094 0.26065
 O32 O 0.31167 0.31352 0.15412
 O33 O 0.19558 0.38838 0.24804
 O34 O 0.30553 0.38724 0.26966
 O35 O 0.39066 0.29716 0.26302
 O36 O 0.34621 0.34932 0.21218
 C37 C 0.34064 0.34426 0.17246
 O38 O 0.24845 0.24944 0.10993
 O39 O 0.30732 0.11106 0.25315
 O40 O 0.29260 0.20269 0.14136
 O41 O 0.33253 0.15616 0.19065
 O42 O 0.20145 0.11100 0.23578
 O43 O 0.17191 0.16273 0.17650
 C44 C 0.31961 0.16607 0.15199
 H45 H 0.24548 0.14878 0.29875
 H46 H 0.16260 0.25055 0.18828
 H47 H 0.35196 0.25434 0.20068
 H48 H 0.25042 0.33645 0.31178
 H49 H 0.09573 0.16411 0.22909
 H50 H 0.09749 0.33854 0.25193
 H51 H 0.16184 0.40195 0.24844
 H52 H 0.33862 0.40200 0.27236
 H53 H 0.16926 0.09414 0.23474
 H54 H 0.34140 0.09857 0.25489
 H55 H 0.40226 0.15884 0.24444
 H56 H 0.40785 0.32899 0.26389
 H57 H 0.14518 0.13831 0.17758
 H58 H 0.27170 0.27084 0.09417
 H59 H 0.22940 0.22835 0.40580
 H60 H 0.36500 0.35118 0.32249
 Zr61 Zr 0.75749 0.76076 0.32410
 O62 O 0.74485 0.74841 0.38995
 O63 O 0.80965 0.81247 0.34701
 O64 O 0.79584 0.70642 0.35929
 O65 O 0.65161 0.83216 0.30853
 O66 O 0.83593 0.66118 0.30915
 O67 O 0.69789 0.79257 0.35823
 O68 O 0.84660 0.84737 0.28951
 O69 O 0.81845 0.75687 0.28336
 O70 O 0.75117 0.82120 0.28363
 O71 O 0.75056 0.69313 0.29239
 O72 O 0.68887 0.75456 0.29319
 Zr73 Zr 0.73924 0.74178 0.17588
 Zr74 Zr 0.81067 0.69054 0.25009
 Zr75 Zr 0.68516 0.81285 0.24985
 Zr76 Zr 0.80945 0.81525 0.24034
 O77 O 0.60777 0.80736 0.24502
 O78 O 0.88653 0.80669 0.23259
 O79 O 0.74423 0.80991 0.20679
 O80 O 0.80727 0.74991 0.20759
 O81 O 0.74400 0.68162 0.21686
 O82 O 0.67796 0.74717 0.21608
 C83 C 0.84071 0.84161 0.32916
 C84 C 0.66090 0.81915 0.34724
 C85 C 0.82400 0.67085 0.34818
 O86 O 0.88792 0.69803 0.25234
 O87 O 0.84066 0.66553 0.19106
 O88 O 0.79457 0.70451 0.14078
 C89 C 0.83069 0.67695 0.15194
 O90 O 0.65906 0.67385 0.32222
 Zr91 Zr 0.68479 0.68973 0.25965
 O92 O 0.68855 0.68864 0.15305
 O93 O 0.80435 0.61377 0.24804
 O94 O 0.69387 0.61347 0.26861
 O95 O 0.60789 0.70235 0.26102
 O96 O 0.65441 0.65109 0.21058
 C97 C 0.66031 0.65682 0.17094
 O98 O 0.75117 0.75445 0.10998
 O99 O 0.68913 0.88975 0.25438
 O100 O 0.70665 0.80052 0.14162
 O101 O 0.66578 0.84588 0.19111
 O102 O 0.79553 0.89130 0.23774
 O103 O 0.82582 0.84077 0.17784
 C104 C 0.67944 0.83693 0.15252
 H105 H 0.75100 0.85223 0.29973
 H106 H 0.83626 0.75254 0.18877
 H107 H 0.64683 0.74664 0.19976
 H108 H 0.74822 0.66437 0.31123
 H109 H 0.90159 0.83951 0.23055
 H110 H 0.90164 0.66459 0.25199
 H111 H 0.83828 0.60069 0.24841
 H112 H 0.66087 0.59839 0.27097
 H113 H 0.82761 0.90840 0.23723
 H114 H 0.65489 0.90186 0.25577
 H115 H 0.59493 0.84109 0.24348
 H116 H 0.59120 0.67025 0.26137
 H117 H 0.85201 0.86574 0.17929
 H118 H 0.72814 0.73325 0.09385
 H119 H 0.76566 0.77168 0.40617
 H120 H 0.63295 0.64881 0.32079
 Zr121 Zr 0.76132 0.23807 -0.32514
 O122 O 0.75036 0.24846 -0.39144
 O123 O 0.81573 0.18755 -0.34649
 O124 O 0.79853 0.29321 -0.36029
 O125 O 0.65681 0.16456 -0.31064
 O126 O 0.83615 0.34021 -0.31004
 O127 O 0.70307 0.20495 -0.35992
 O128 O 0.85288 0.15507 -0.28810
 O129 O 0.82115 0.24417 -0.28353
 O130 O 0.75576 0.17787 -0.28430
 O131 O 0.75157 0.30587 -0.29419
 O132 O 0.69198 0.24292 -0.29515
 Zr133 Zr 0.73943 0.25834 -0.17728
 Zr134 Zr 0.81068 0.31067 -0.25115
 Zr135 Zr 0.68884 0.18489 -0.25156
 Zr136 Zr 0.81279 0.18601 -0.24011
 O137 O 0.61121 0.18805 -0.24804
 O138 O 0.88941 0.19616 -0.23060
 O139 O 0.74677 0.18994 -0.20752
 O140 O 0.80813 0.25169 -0.20819
 O141 O 0.74322 0.31828 -0.21862
 O142 O 0.67924 0.25064 -0.21839
 C143 C 0.84758 0.15988 -0.32787
 C144 C 0.66642 0.17772 -0.34929
 C145 C 0.82529 0.32975 -0.34909
 O146 O 0.88814 0.30521 -0.25271
 O147 O 0.83952 0.33689 -0.19236
 O148 O 0.79354 0.29764 -0.14208
 C149 C 0.82948 0.32560 -0.15329
 O150 O 0.66021 0.32395 -0.32488
 Zr151 Zr 0.68517 0.30796 -0.26214
 O152 O 0.68602 0.30941 -0.15538
 O153 O 0.80222 0.38725 -0.24958
 O154 O 0.69352 0.38445 -0.27004
 O155 O 0.60884 0.29281 -0.26592
 O156 O 0.65084 0.34447 -0.21356
 C157 C 0.65609 0.33924 -0.17378
 O158 O 0.75109 0.24682 -0.11122
 O159 O 0.69516 0.10811 -0.25533
 O160 O 0.70749 0.19922 -0.14307
 O161 O 0.66863 0.15241 -0.19275
 O162 O 0.80073 0.10964 -0.23767
 O163 O 0.82782 0.16175 -0.17700
 C164 C 0.68112 0.16224 -0.15404
 H165 H 0.75685 0.14672 -0.30019
 H166 H 0.83686 0.24993 -0.18907
 H167 H 0.64768 0.25022 -0.20267
 H168 H 0.74872 0.33436 -0.31328
 H169 H 0.90495 0.16369 -0.22736
 H170 H 0.90102 0.33900 -0.25261
 H171 H 0.83577 0.40129 -0.24988
 H172 H 0.66038 0.39923 -0.27218
 H173 H 0.83322 0.09339 -0.23647
 H174 H 0.66132 0.09504 -0.25735
 H175 H 0.59933 0.15397 -0.24644
 H176 H 0.59102 0.32430 -0.26669
 H177 H 0.85369 0.13644 -0.17772
 H178 H 0.72720 0.26743 -0.09545
 H179 H 0.77238 0.22552 -0.40680
 H180 H 0.63499 0.34988 -0.32368
 Zr181 Zr 0.24088 0.76107 -0.32350
 O182 O 0.25403 0.74875 -0.38923
 O183 O 0.18784 0.81187 -0.34654
 O184 O 0.20321 0.70594 -0.35850
 O185 O 0.34523 0.83478 -0.30775
 O186 O 0.16414 0.65990 -0.30818
 O187 O 0.29993 0.79447 -0.35759
 O188 O 0.15002 0.84575 -0.28915
 O189 O 0.18002 0.75587 -0.28270
 O190 O 0.24603 0.82148 -0.28293
 O191 O 0.24898 0.69350 -0.29174
 O192 O 0.30957 0.75614 -0.29251
 Zr193 Zr 0.25945 0.74161 -0.17505
 Zr194 Zr 0.18901 0.68963 -0.24932
 Zr195 Zr 0.31212 0.81429 -0.24902
 Zr196 Zr 0.18785 0.81429 -0.23969
 O197 O 0.38964 0.81043 -0.24468
 O198 O 0.11097 0.80395 -0.23200
 O199 O 0.25314 0.80995 -0.20585
 O200 O 0.19136 0.74889 -0.20683
 O201 O 0.25587 0.68158 -0.21613
 O202 O 0.32046 0.74856 -0.21546
 C203 C 0.15609 0.84041 -0.32888
 C204 C 0.33637 0.82187 -0.34658
 C205 C 0.17573 0.66980 -0.34723
 O206 O 0.11164 0.69584 -0.25168
 O207 O 0.15897 0.66391 -0.19050
 O208 O 0.20452 0.70291 -0.14003
 C209 C 0.16857 0.67505 -0.15129
 O210 O 0.34044 0.67541 -0.32166
 Zr211 Zr 0.31480 0.69119 -0.25907
 O212 O 0.31192 0.68978 -0.15244
 O213 O 0.19678 0.61299 -0.24720
 O214 O 0.30655 0.61473 -0.26713
 O215 O 0.39139 0.70545 -0.26149
 O216 O 0.34744 0.65405 -0.21016
 C217 C 0.34166 0.65942 -0.17048
 O218 O 0.24678 0.75360 -0.10920
 O219 O 0.30629 0.89111 -0.25292
 O220 O 0.29166 0.80023 -0.14056
 O221 O 0.33168 0.84664 -0.18997
 O222 O 0.20035 0.89058 -0.23711
 O223 O 0.17058 0.83957 -0.17736
 C224 C 0.31861 0.83691 -0.15130
 H225 H 0.24562 0.85257 -0.29900
 H226 H 0.16239 0.75090 -0.18795
 H227 H 0.35171 0.74869 -0.19933
 H228 H 0.25180 0.66481 -0.31056
 H229 H 0.09514 0.83641 -0.23028
 H230 H 0.09843 0.66219 -0.25139
 H231 H 0.16312 0.59924 -0.24758
 H232 H 0.33969 0.60000 -0.26936
 H233 H 0.16796 0.90708 -0.23699
 H234 H 0.34024 0.90400 -0.25443
 H235 H 0.40178 0.84441 -0.24299
 H236 H 0.40881 0.67375 -0.26229
 H237 H 0.14393 0.86402 -0.17902
 H238 H 0.27009 0.73271 -0.09303
 H239 H 0.23279 0.77153 -0.40558
 H240 H 0.36603 0.64985 -0.32027
 Zr241 Zr 1.25856 1.26108 0.82386
 O242 O 1.24615 1.24943 0.88983
 O243 O 1.31185 1.31182 0.84632
 O244 O 1.29629 1.20632 0.85901
 O245 O 1.15400 1.33435 0.80851
 O246 O 1.33509 1.16017 0.80878
 O247 O 1.19955 1.29373 0.85808
 O248 O 1.34970 1.34515 0.78855
 O249 O 1.31909 1.25592 0.78278
 O250 O 1.25318 1.32159 0.78332
 O251 O 1.25005 1.19345 0.79249
 O252 O 1.18973 1.25614 0.79323
 Zr253 Zr 1.23879 1.24212 0.67583
 Zr254 Zr 1.30969 1.18966 0.74983
 Zr255 Zr 1.18683 1.31443 0.74984
 Zr256 Zr 1.31095 1.31437 0.73968
 O257 O 1.10928 1.31060 0.74560
 O258 O 1.38777 1.30467 0.73099
 O259 O 1.24543 1.31031 0.70641
 O260 O 1.30716 1.24898 0.70722
 O261 O 1.24267 1.18191 0.71687
 O262 O 1.17802 1.24879 0.71641
 C263 C 1.34372 1.33988 0.82822
 C264 C 1.16305 1.32095 0.84712
 C265 C 1.32380 1.17030 0.84785
 O266 O 1.38711 1.19566 0.75153
 O267 O 1.33879 1.16400 0.69084
 O268 O 1.29319 1.20369 0.64065
 C269 C 1.32889 1.17562 0.65180
 O270 O 1.15852 1.17565 0.82271
 Zr271 Zr 1.18403 1.19127 0.76002
 O272 O 1.18658 1.19027 0.65340
 O273 O 1.30186 1.11302 0.74805
 O274 O 1.19228 1.11484 0.76836
 O275 O 1.10742 1.20535 0.76256
 O276 O 1.15161 1.15398 0.71117
 C277 C 1.15735 1.15951 0.67150
 O278 O 1.25078 1.25422 0.60986
 O279 O 1.19254 1.39123 0.75416
 O280 O 1.20690 1.30121 0.64157
 O281 O 1.16727 1.34744 0.69118
 O282 O 1.29853 1.39069 0.73756
 O283 O 1.32709 1.33945 0.67700
 C284 C 1.18031 1.33804 0.65253
 H285 H 1.25376 1.35263 0.79939
 H286 H 1.33607 1.25106 0.68828
 H287 H 1.14670 1.24893 0.70037
 H288 H 1.24739 1.16482 0.81146
 H289 H 1.40327 1.33726 0.72861
 H290 H 1.40018 1.16196 0.75124
 H291 H 1.33552 1.09928 0.74829
 H292 H 1.15912 1.10010 0.77066
 H293 H 1.33095 1.40714 0.73698
 H294 H 1.15858 1.40407 0.75576
 H295 H 1.09714 1.34458 0.74406
 H296 H 1.09008 1.17359 0.76325
 H297 H 1.35302 1.36468 0.67826
 H298 H 1.22717 1.23352 0.59386
 H299 H 1.26749 1.27243 0.90582
 H300 H 1.13295 1.15004 0.82147
 Zr301 Zr 0.73867 0.74039 0.82384
 O302 O 0.74994 0.75123 0.89003
 O303 O 0.68464 0.68991 0.84566
 O304 O 0.70137 0.79581 0.85869
 O305 O 0.84291 0.66652 0.80941
 O306 O 0.66371 0.84247 0.80814
 O307 O 0.79700 0.70749 0.85855
 O308 O 0.64732 0.65707 0.78755
 O309 O 0.67876 0.74601 0.78231
 O310 O 0.74430 0.67992 0.78331
 O311 O 0.74822 0.80804 0.79262
 O312 O 0.80790 0.74486 0.79365
 Zr313 Zr 0.76030 0.76001 0.67598
 Zr314 Zr 0.68909 0.81237 0.74960
 Zr315 Zr 0.81105 0.68671 0.75022
 Zr316 Zr 0.68719 0.68763 0.73921
 O317 O 0.88869 0.68979 0.74684
 O318 O 0.61050 0.69731 0.72971
 O319 O 0.75304 0.69152 0.70628
 O320 O 0.69171 0.75316 0.70704
 O321 O 0.75652 0.82006 0.71703
 O322 O 0.82052 0.75247 0.71704
 C323 C 0.65285 0.66210 0.82726
 C324 C 0.83343 0.68001 0.84798
 C325 C 0.67463 0.83235 0.84724
 O326 O 0.61164 0.80676 0.75164
 O327 O 0.65976 0.83780 0.69082
 O328 O 0.70577 0.79852 0.64070
 C329 C 0.66959 0.82607 0.65188
 O330 O 0.83926 0.82556 0.82349
 Zr331 Zr 0.81456 0.80985 0.76064
 O332 O 0.81392 0.81095 0.65413
 O333 O 0.69749 0.88894 0.74711
 O334 O 0.80639 0.88640 0.76806
 O335 O 0.89093 0.79496 0.76466
 O336 O 0.84916 0.84603 0.71222
 C337 C 0.84407 0.84052 0.67252
 O338 O 0.74888 0.74904 0.60983
 O339 O 0.80463 0.60994 0.75413
 O340 O 0.79213 0.70125 0.64162
 O341 O 0.83140 0.65454 0.69117
 O342 O 0.69946 0.61128 0.73735
 O343 O 0.67190 0.66297 0.67631
 C344 C 0.81883 0.66449 0.65242
 H345 H 0.74331 0.64885 0.79938
 H346 H 0.66289 0.75099 0.68807
 H347 H 0.85211 0.75199 0.70137
 H348 H 0.75113 0.83666 0.81149
 H349 H 0.59510 0.66474 0.72680
 H350 H 0.59868 0.84050 0.75110
 H351 H 0.66395 0.90296 0.74747
 H352 H 0.83954 0.90109 0.77049
 H353 H 0.66701 0.59492 0.73651
 H354 H 0.83847 0.59687 0.75604
 H355 H 0.90049 0.65570 0.74520
 H356 H 0.90864 0.82651 0.76583
 H357 H 0.64643 0.63725 0.67732
 H358 H 0.77276 0.76984 0.59416
 H359 H 0.72793 0.72844 0.90562
 H360 H 0.86405 0.85192 0.82245
 Zr361 Zr 1.26094 0.73848 0.17485
 O362 O 1.25031 0.74947 0.10857
 O363 O 1.31388 0.68667 0.15328
 O364 O 1.29888 0.79313 0.13973
 O365 O 1.15555 0.66643 0.18898
 O366 O 1.33721 0.83954 0.18998
 O367 O 1.20245 0.70651 0.13995
 O368 O 1.35000 0.65267 0.21150
 O369 O 1.32102 0.74334 0.21628
 O370 O 1.25425 0.67829 0.21557
 O371 O 1.25231 0.80628 0.20595
 O372 O 1.19160 0.74431 0.20477
 Zr373 Zr 1.23951 0.75844 0.32255
 Zr374 Zr 1.31162 0.80992 0.24883
 Zr375 Zr 1.18745 0.68625 0.24828
 Zr376 Zr 1.31157 0.68522 0.25962
 O377 O 1.10993 0.69099 0.25191
 O378 O 1.38844 0.69443 0.26828
 O379 O 1.24562 0.69011 0.29215
 O380 O 1.30814 0.75084 0.29168
 O381 O 1.24432 0.81838 0.28133
 O382 O 1.17899 0.75205 0.28167
 C383 C 1.34465 0.65776 0.17178
 C384 C 1.16560 0.67958 0.15040
 C385 C 1.32599 0.82941 0.15093
 O386 O 1.38898 0.80329 0.24715
 O387 O 1.34052 0.83554 0.30781
 O388 O 1.29407 0.79649 0.35789
 C389 C 1.33018 0.82416 0.34681
 O390 O 1.16095 0.82486 0.17515
 Zr391 Zr 1.18595 0.80930 0.23796
 O392 O 1.18792 0.81105 0.34462
 O393 O 1.30448 0.88662 0.25069
 O394 O 1.19475 0.88560 0.22905
 O395 O 1.10926 0.79563 0.23541
 O396 O 1.15388 0.84756 0.28661
 C397 C 1.15937 0.84223 0.32635
 O398 O 1.25062 0.74632 0.38861
 O399 O 1.19209 0.60935 0.24429
 O400 O 1.20675 0.69972 0.35670
 O401 O 1.16714 0.65359 0.30701
 O402 O 1.29818 0.60909 0.26270
 O403 O 1.32672 0.66078 0.32266
 C404 C 1.17999 0.66304 0.34571
 H405 H 1.25464 0.64711 0.19970
 H406 H 1.33689 0.74857 0.31074
 H407 H 1.14757 0.75231 0.29761
 H408 H 1.24980 0.83485 0.18692
 H409 H 1.40363 0.66176 0.27116
 H410 H 1.40234 0.83689 0.24749
 H411 H 1.33826 0.90011 0.25046
 H412 H 1.16171 0.90052 0.22653
 H413 H 1.33035 0.59226 0.26415
 H414 H 1.15798 0.59700 0.24225
 H415 H 1.09738 0.65714 0.25334
 H416 H 1.09214 0.82750 0.23490
 H417 H 1.35306 0.63595 0.32189
 H418 H 1.22721 0.76743 0.40442
 H419 H 1.27185 0.72617 0.09311
 H420 H 1.13501 0.85009 0.17628
 Zr421 Zr 0.74266 1.25950 0.17703
 O422 O 0.75602 1.24675 0.11138
 O423 O 0.69047 1.31097 0.15392
 O424 O 0.70443 1.20489 0.14185
 O425 O 0.84693 1.33311 0.19298
 O426 O 0.66525 1.15882 0.19205
 O427 O 0.80147 1.29296 0.14308
 O428 O 0.65307 1.34529 0.21140
 O429 O 0.68169 1.25466 0.21769
 O430 O 0.74821 1.31975 0.21777
 O431 O 0.75043 1.19184 0.20856
 O432 O 0.81138 1.25423 0.20797
 Zr433 Zr 0.76113 1.23980 0.32524
 Zr434 Zr 0.69040 1.18828 0.25089
 Zr435 Zr 0.81423 1.31221 0.25164
 Zr436 Zr 0.68990 1.31288 0.26086
 O437 O 0.89170 1.30765 0.25600
 O438 O 0.61292 1.30280 0.26795
 O439 O 0.75515 1.30818 0.29464
 O440 O 0.69302 1.24741 0.29352
 O441 O 0.75719 1.17992 0.28403
 O442 O 0.82232 1.24635 0.28507
 C443 C 0.65934 1.33999 0.17172
 C444 C 0.83775 1.32039 0.15419
 C445 C 0.67679 1.16884 0.15303
 O446 O 0.61305 1.19476 0.24871
 O447 O 0.66066 1.16246 0.30967
 O448 O 0.70616 1.20163 0.36014
 C449 C 0.67038 1.17377 0.34879
 O450 O 0.84205 1.17428 0.17854
 Zr451 Zr 0.81627 1.18918 0.24124
 O452 O 0.81244 1.18699 0.34779
 O453 O 0.69787 1.11160 0.25275
 O454 O 0.80828 1.11287 0.23200
 O455 O 0.89301 1.20282 0.23988
 O456 O 0.84730 1.15061 0.29010
 C457 C 0.84123 1.15581 0.32976
 O458 O 0.74895 1.25173 0.39118
 O459 O 0.80912 1.38911 0.24791
 O460 O 0.79332 1.29826 0.35992
 O461 O 0.83355 1.34467 0.31068
 O462 O 0.70285 1.38907 0.26410
 O463 O 0.67233 1.33790 0.32322
 C464 C 0.82021 1.33502 0.34928
 H465 H 0.74810 1.35094 0.20184
 H466 H 0.66399 1.24956 0.31232
 H467 H 0.85346 1.24610 0.30137
 H468 H 0.75303 1.16325 0.18961
 H469 H 0.59718 1.33532 0.26950
 H470 H 0.59972 1.16114 0.24905
 H471 H 0.66415 1.09797 0.25246
 H472 H 0.84149 1.09831 0.22947
 H473 H 0.67058 1.40579 0.26435
 H474 H 0.84319 1.40174 0.24658
 H475 H 0.90412 1.34152 0.25782
 H476 H 0.91010 1.17094 0.23922
 H477 H 0.64540 1.36205 0.32156
 H478 H 0.77207 1.23054 0.40724
 H479 H 0.73504 1.26963 0.09486
 H480 H 0.86848 1.14956 0.17978
 O481 O 0.56465 1.08886 0.07780
 O482 O 0.62305 1.04611 0.03995
 C483 C 0.60940 1.07830 0.06878
 O484 O 0.43571 0.90905 0.07365
 O485 O 0.37695 0.95491 0.03924
 C486 C 0.39093 0.92041 0.06583
 O487 O 0.56582 0.91509 0.07813
 O488 O 0.62383 0.95733 0.03943
 C489 C 0.61054 0.92569 0.06866
 O490 O 0.43406 1.09214 0.07401
 O491 O 0.37597 1.04645 0.03870
 C492 C 0.38932 1.08038 0.06581
 Zr493 Zr 0.49969 1.06166 0.05306
 O494 O 0.49917 1.05275 0.12007
 O495 O 0.49778 1.13874 0.05715
 Zr496 Zr 0.50013 0.94167 0.05369
 O497 O 0.49899 0.95250 0.12044
 O498 O 0.50093 0.86495 0.06088
 O499 O 0.54515 1.00173 0.06173
 O500 O 0.45547 1.00155 0.06134
 O501 O 0.43569 1.09165 -0.07534
 O502 O 0.37703 1.04749 -0.03894
 C503 C 0.39090 1.08100 -0.06659
 O504 O 0.56404 0.91341 -0.07754
 O505 O 0.62273 0.95607 -0.04007
 C506 C 0.60882 0.92390 -0.06876
 O507 O 0.43360 0.91177 -0.07468
 O508 O 0.37577 0.95657 -0.03817
 C509 C 0.38891 0.92312 -0.06583
 O510 O 0.56617 1.08696 -0.07814
 O511 O 0.62400 1.04422 -0.03979
 C512 C 0.61084 1.07579 -0.06906
 Zr513 Zr 0.50029 1.06147 -0.05284
 O514 O 0.49497 1.05939 -0.12026
 O515 O 0.50477 1.13855 -0.05172
 Zr516 Zr 0.49940 0.94056 -0.05230
 O517 O 0.49425 0.94199 -0.11974
 O518 O 0.50292 0.86343 -0.05035
 Zr519 Zr 0.57620 1.00112 0.00000
 Zr520 Zr 0.42352 1.00136 0.00030
 O521 O 0.45613 1.00119 -0.06053
 O522 O 0.54471 1.00077 -0.06144
 O523 O 0.45531 1.07147 -0.00000
 O524 O 0.54338 0.93174 0.00056
 O525 O 0.54379 1.07067 0.00001
 O526 O 0.45517 0.93119 0.00082
 H527 H 0.43364 1.00139 0.08666
 H528 H 0.56471 0.90251 0.00061
 H529 H 0.43482 1.00128 -0.08612
 H530 H 0.56554 1.09958 -0.00046
 H531 H 0.51239 0.85079 0.03371
 H532 H 0.47589 0.85162 -0.03188
 H533 H 0.52296 0.95994 -0.13108
 H534 H 0.52386 1.04173 -0.13152
 H535 H 0.48011 1.15056 -0.03103
 H536 H 0.51933 1.15231 0.03472
 H537 H 0.49663 1.08586 0.13249
 H538 H 0.49723 0.91968 0.13357
 O539 O 1.06428 0.58908 0.57763
 O540 O 1.12283 0.54648 0.53981
 C541 C 1.10906 0.57866 0.56862
 O542 O 0.93575 0.40906 0.57375
 O543 O 0.87693 0.45466 0.53914
 C544 C 0.89094 0.42029 0.56582
 O545 O 1.06611 0.41542 0.57814
 O546 O 1.12396 0.45779 0.53934
 C547 C 1.11079 0.42618 0.56863
 O548 O 0.93364 0.59171 0.57401
 O549 O 0.87573 0.54587 0.53864
 C550 C 0.88894 0.57972 0.56586
 Zr551 Zr 0.99942 0.56168 0.55289
 O552 O 0.99905 0.55299 0.61992
 O553 O 0.99705 0.63878 0.55665
 Zr554 Zr 1.00023 0.44167 0.55370
 O555 O 0.99914 0.45257 0.62044
 O556 O 1.00111 0.36496 0.56098
 O557 O 1.04507 0.50190 0.56163
 O558 O 0.95543 0.50143 0.56125
 O559 O 0.93548 0.59144 0.42454
 O560 O 0.87690 0.54724 0.46099
 C561 C 0.89072 0.58081 0.43337
 O562 O 1.06415 0.41313 0.42263
 O563 O 1.12277 0.45605 0.45997
 C564 C 1.10890 0.42364 0.43143
 O565 O 0.93391 0.41122 0.42552
 O566 O 0.87589 0.45595 0.46187
 C567 C 0.88919 0.42239 0.43438
 O568 O 1.06572 0.58700 0.42163
 O569 O 1.12374 0.54451 0.45998
 C570 C 1.11043 0.57601 0.43069
 Zr571 Zr 1.00004 0.56127 0.44700
 O572 O 0.99464 0.55886 0.37958
 O573 O 1.00433 0.63837 0.44793
 Zr574 Zr 0.99953 0.44043 0.44770
 O575 O 0.99437 0.44210 0.38026
 O576 O 1.00324 0.36330 0.44953
 Zr577 Zr 1.07615 0.50127 0.49991
 Zr578 Zr 0.92346 0.50106 0.50022
 O579 O 0.95601 0.50088 0.43938
 O580 O 1.04468 0.50072 0.43846
 O581 O 0.95503 0.57126 0.49983
 O582 O 1.04350 0.43181 0.50059
 O583 O 1.04351 0.57071 0.49983
 O584 O 0.95533 0.43099 0.50084
 H585 H 0.93365 0.50120 0.58660
 H586 H 1.06489 0.40262 0.50071
 H587 H 0.93462 0.50088 0.41384
 H588 H 1.06517 0.59968 0.49931
 H589 H 1.01324 0.35078 0.53404
 H590 H 0.97670 0.35144 0.46850
 H591 H 1.02342 0.45948 0.36891
 H592 H 1.02366 0.54138 0.36835
 H593 H 0.98001 0.65035 0.46893
 H594 H 1.01929 0.65238 0.53474
 H595 H 0.99639 0.58611 0.63228
 H596 H 0.99744 0.41976 0.63359
 O597 O 1.08837 0.43723 0.07656
 O598 O 1.04479 0.37919 0.03933
 C599 C 1.07745 0.39283 0.06792
 O600 O 0.90830 0.56568 0.07375
 O601 O 0.95402 0.62360 0.03817
 C602 C 0.91981 0.61006 0.06554
 O603 O 0.91344 0.43620 0.07815
 O604 O 0.95571 0.37852 0.03949
 C605 C 0.92423 0.39176 0.06900
 O606 O 1.09194 0.56672 0.07202
 O607 O 1.04578 0.62433 0.03670
 C608 C 1.08001 0.61108 0.06377
 Zr609 Zr 1.06102 0.50158 0.05157
 O610 O 1.05259 0.50236 0.11864
 O611 O 1.13876 0.50337 0.05525
 Zr612 Zr 0.93997 0.50140 0.05299
 O613 O 0.95117 0.50238 0.11972
 O614 O 0.86254 0.50192 0.05982
 O615 O 1.00052 0.45670 0.06088
 O616 O 1.00063 0.54552 0.05998
 O617 O 1.09079 0.56416 -0.07765
 O618 O 1.04707 0.62268 -0.04110
 C619 C 1.08066 0.60873 -0.06895
 O620 O 0.91021 0.43747 -0.07790
 O621 O 0.95347 0.37935 -0.04043
 C622 C 0.92082 0.39303 -0.06908
 O623 O 0.90887 0.56679 -0.07514
 O624 O 0.95477 0.62430 -0.03951
 C625 C 0.92063 0.61113 -0.06667
 O626 O 1.08558 0.43491 -0.07901
 O627 O 1.04261 0.37780 -0.04013
 C628 C 1.07448 0.39066 -0.06943
 Zr629 Zr 1.05992 0.50050 -0.05435
 O630 O 1.05648 0.50533 -0.12177
 O631 O 1.13762 0.49600 -0.05401
 Zr632 Zr 0.93808 0.50158 -0.05293
 O633 O 0.93887 0.50650 -0.12040
 O634 O 0.86035 0.49824 -0.05032
 Zr635 Zr 0.99936 0.42554 -0.00064
 Zr636 Zr 1.00012 0.57705 -0.00118
 O637 O 0.99923 0.54445 -0.06183
 O638 O 0.99858 0.45645 -0.06227
 O639 O 1.07065 0.54532 -0.00178
 O640 O 0.92951 0.45814 0.00019
 O641 O 1.06953 0.45762 -0.00127
 O642 O 0.92926 0.54585 -0.00001
 H643 H 1.00085 0.56713 0.08528
 H644 H 0.90017 0.43680 0.00048
 H645 H 0.99920 0.56557 -0.08747
 H646 H 1.09867 0.43605 -0.00167
 H647 H 0.84819 0.48597 0.03452
 H648 H 0.84885 0.52435 -0.03098
 H649 H 0.95719 0.47820 -0.13171
 H650 H 1.03980 0.47586 -0.13270
 H651 H 1.14998 0.51993 -0.03301
 H652 H 1.15224 0.48171 0.03299
 H653 H 1.08605 0.50497 0.13086
 H654 H 0.91815 0.50408 0.13298
 O655 O 0.40917 0.93529 0.42321
 O656 O 0.45194 0.87714 0.46114
 C657 C 0.41976 0.89087 0.43218
 O658 O 0.59066 1.06216 0.42598
 O659 O 0.54534 1.12079 0.46082
 C660 C 0.57969 1.10673 0.43391
 O661 O 0.58381 0.93283 0.42227
 O662 O 0.54095 0.87572 0.46128
 C663 C 0.57273 0.88856 0.43180
 O664 O 0.40676 1.06502 0.42647
 O665 O 0.45343 1.12236 0.46153
 C666 C 0.41913 1.10934 0.43443
 Zr667 Zr 0.43677 0.99969 0.44785
 O668 O 0.44508 0.99982 0.38077
 O669 O 0.35903 1.00248 0.44452
 Zr670 Zr 0.55778 0.99833 0.44672
 O671 O 0.54650 0.99904 0.38000
 O672 O 0.63512 0.99732 0.43951
 O673 O 0.49680 0.95413 0.43915
 O674 O 0.49771 1.04299 0.43916
 O675 O 0.40760 1.06395 0.57581
 O676 O 0.45249 1.12163 0.53913
 C677 C 0.41863 1.10825 0.56680
 O678 O 0.58668 0.93514 0.57771
 O679 O 0.54296 0.87704 0.54071
 C680 C 0.57590 0.89077 0.56898
 O681 O 0.58928 1.06429 0.57471
 O682 O 0.54446 1.12198 0.53823
 C683 C 0.57827 1.10870 0.56574
 O684 O 0.41077 0.93484 0.57962
 O685 O 0.45324 0.87681 0.54156
 C686 C 0.42146 0.89031 0.57088
 Zr687 Zr 0.43751 0.99949 0.55370
 O688 O 0.44027 1.00512 0.62108
 O689 O 0.35976 0.99572 0.55279
 Zr690 Zr 0.55932 0.99935 0.55271
 O691 O 0.55773 1.00467 0.62015
 O692 O 0.63704 0.99529 0.55083
 Zr693 Zr 0.49742 0.92341 0.50094
 Zr694 Zr 0.49851 1.07496 0.50006
 O695 O 0.49865 1.04289 0.56101
 O696 O 0.49834 0.95487 0.56226
 O697 O 0.42757 1.04402 0.50075
 O698 O 0.56760 0.95549 0.49993
 O699 O 0.42761 0.95614 0.50104
 O700 O 0.56896 1.04300 0.49941
 H701 H 0.49794 1.06446 0.41373
 H702 H 0.59690 0.93412 0.49975
 H703 H 0.49888 1.06422 0.58648
 H704 H 0.39836 0.93470 0.50165
 H705 H 0.64937 0.98440 0.46616
 H706 H 0.64907 1.02126 0.53152
 H707 H 0.54054 0.97571 0.63161
 H708 H 0.45793 0.97637 0.63235
 H709 H 0.34785 1.01967 0.53156
 H710 H 0.34533 0.97965 0.46583
 H711 H 0.41162 1.00248 0.36854
 H712 H 0.57952 1.00057 0.36673
 O713 O 0.91311 0.91093 0.44426
 O714 O 0.95707 0.95485 0.39461
 C715 C 0.92418 0.92283 0.40587
 O716 O 0.91883 1.08858 0.55834
 O717 O 0.96166 1.04280 0.60733
 C718 C 0.93068 1.07684 0.59655
 O719 O 0.91035 1.08230 0.44441
 O720 O 0.95595 1.04039 0.39467
 C721 C 0.92207 1.07128 0.40600
 O722 O 0.92059 0.90565 0.55838
 O723 O 0.96069 0.95383 0.60725
 C724 C 0.93069 0.91901 0.59653
 Zr725 Zr 0.94108 0.93683 0.50113
 O726 O 0.86391 0.94528 0.50329
 O727 O 0.93434 0.85996 0.50081
 Zr728 Zr 0.93925 1.05717 0.50122
 O729 O 0.86239 1.04631 0.50384
 O730 O 0.92977 1.13369 0.49979
 O731 O 0.93000 0.99695 0.46245
 O732 O 0.93150 0.99692 0.53950
 O733 O 1.08886 0.90911 0.55687
 O734 O 1.04508 0.95308 0.60649
 C735 C 1.07694 0.92004 0.59530
 O736 O 1.08904 1.08508 0.44235
 O737 O 1.04374 1.04150 0.39361
 C738 C 1.07669 1.07365 0.40422
 O739 O 1.08694 1.08816 0.55679
 O740 O 1.04584 1.04160 0.60639
 C741 C 1.07631 1.07583 0.59515
 O742 O 1.09199 0.91426 0.44207
 O743 O 1.04506 0.95648 0.39347
 C744 C 1.07929 0.92562 0.40394
 Zr745 Zr 1.06405 0.93812 0.49980
 O746 O 1.14172 0.94052 0.50403
 O747 O 1.06478 0.86107 0.49559
 Zr748 Zr 1.06237 1.05932 0.49984
 O749 O 1.14011 1.05835 0.50372
 O750 O 1.06153 1.13641 0.49604
 Zr751 Zr 1.00106 0.99811 0.43574
 Zr752 Zr 1.00271 0.99783 0.56518
 O753 O 1.07295 0.99870 0.53735
 O754 O 1.07270 0.99898 0.46114
 O755 O 1.00320 0.92742 0.53851
 O756 O 1.00018 1.06783 0.46331
 O757 O 1.00225 0.92818 0.46310
 O758 O 1.00130 1.06828 0.53849
 H759 H 0.90303 0.99689 0.55924
 H760 H 0.99952 1.09706 0.44475
 H761 H 1.10233 0.99876 0.55599
 H762 H 1.00261 0.89924 0.44426
 H763 H 0.96201 1.14821 0.49293
 H764 H 1.03958 1.14865 0.51882
 H765 H 1.15298 1.04157 0.47815
 H766 H 1.15425 0.95919 0.47932
 H767 H 1.04211 0.84829 0.51763
 H768 H 0.96505 0.84646 0.48893
 H769 H 0.84995 0.91199 0.50522
 H770 H 0.84745 1.07914 0.50597
 O771 O 0.58986 0.41174 0.05586
 O772 O 0.54567 0.45532 0.10547
 C773 C 0.57847 0.42327 0.09427
 O774 O 0.58384 0.58993 -0.05831
 O775 O 0.54091 0.54432 -0.10730
 C776 C 0.57175 0.57839 -0.09651
 O777 O 0.59262 0.58309 0.05583
 O778 O 0.54691 0.54093 0.10545
 C779 C 0.58078 0.57192 0.09421
 O780 O 0.58293 0.40715 -0.05859
 O781 O 0.54234 0.45522 -0.10733
 C782 C 0.57241 0.42032 -0.09678
 Zr783 Zr 0.56216 0.43794 -0.00119
 O784 O 0.63931 0.44659 -0.00317
 O785 O 0.56889 0.36107 -0.00121
 Zr786 Zr 0.56381 0.55825 -0.00109
 O787 O 0.64067 0.54757 -0.00383
 O788 O 0.57337 0.63475 0.00051
 O789 O 0.57307 0.49786 0.03763
 O790 O 0.57158 0.49823 -0.03951
 O791 O 0.41466 0.41040 -0.05698
 O792 O 0.45818 0.45484 -0.10657
 C793 C 0.42651 0.42168 -0.09533
 O794 O 0.41389 0.58564 0.05772
 O795 O 0.45909 0.54186 0.10645
 C796 C 0.42606 0.57393 0.09583
 O797 O 0.41558 0.58935 -0.05640
 O798 O 0.45673 0.54325 -0.10616
 C799 C 0.42592 0.57718 -0.09480
 O800 O 0.41082 0.41505 0.05758
 O801 O 0.45767 0.45695 0.10636
 C802 C 0.42328 0.42633 0.09573
 Zr803 Zr 0.43918 0.43904 0.00012
 O804 O 0.36151 0.44082 -0.00429
 O805 O 0.43881 0.36197 0.00428
 Zr806 Zr 0.44073 0.56031 0.00029
 O807 O 0.36298 0.55960 -0.00354
 O808 O 0.44206 0.63740 0.00418
 Zr809 Zr 0.50195 0.49879 0.06429
 Zr810 Zr 0.50033 0.49919 -0.06514
 O811 O 0.43014 0.49982 -0.03726
 O812 O 0.43038 0.49973 0.03881
 O813 O 0.50003 0.42864 -0.03859
 O814 O 0.50286 0.56866 0.03686
 O815 O 0.50092 0.42901 0.03682
 O816 O 0.50174 0.56951 -0.03835
 H817 H 0.60001 0.49834 -0.05931
 H818 H 0.50346 0.59779 0.05548
 H819 H 0.40069 0.49988 -0.05582
 H820 H 0.50041 0.39999 0.05563
 H821 H 0.54113 0.64924 0.00738
 H822 H 0.46358 0.64966 -0.01893
 H823 H 0.35007 0.54226 0.02178
 H824 H 0.34884 0.46016 0.01991
 H825 H 0.46152 0.34938 -0.01778
 H826 H 0.53859 0.34746 0.01141
 H827 H 0.65332 0.41332 -0.00498
 H828 H 0.65553 0.58044 -0.00600
 C829 C 0.33619 1.13367 0.11839
 C830 C 0.35516 1.10743 0.09192
 C831 C 0.83556 0.63218 0.61885
 C832 C 0.85468 0.60628 0.59222
 C833 C 0.66357 0.87048 0.11957
 C834 C 0.64478 0.89789 0.09396
 C835 C 1.16424 0.37143 0.61956
 C836 C 1.14521 0.39864 0.59394
 C837 C 0.66459 1.12927 -0.12090
 C838 C 0.64532 1.10261 -0.09494
 C839 C 1.16368 0.62988 0.37879
 C840 C 1.14470 0.60304 0.40477
 C841 C 0.33526 0.86954 -0.11785
 C842 C 0.35448 0.89597 -0.09165
 C843 C 0.83623 0.36795 0.38268
 C844 C 0.85500 0.39479 0.40877
 C845 C 1.13464 0.34234 0.11946
 C846 C 1.10632 0.35980 0.09365
 C847 C 0.63496 0.84116 0.61924
 C848 C 0.60572 0.85798 0.59396
 C849 C 1.13816 0.65928 -0.12129
 C850 C 1.11007 0.64159 -0.09505
 C851 C 0.63676 1.15713 0.38186
 C852 C 0.60883 1.13950 0.40799
 C853 C 0.86411 0.66062 0.11854
 C854 C 0.89154 0.64310 0.09194
 C855 C 0.36230 1.15919 0.61862
 C856 C 0.39004 1.14151 0.59248
 C857 C 0.86326 0.34219 -0.12032
 C858 C 0.89162 0.35994 -0.09463
 C859 C 0.36358 0.84035 0.38001
 C860 C 0.39134 0.85786 0.40618
 C861 C 1.12649 1.12792 0.35243
 C862 C 1.10190 1.10117 0.37340
 C863 C 0.62174 0.63253 -0.14801
 C864 C 0.59645 0.60641 -0.12717
 C865 C 0.87927 1.13039 0.64767
 C866 C 0.90522 1.10449 0.62714
 C867 C 0.37499 0.62720 0.14720
 C868 C 0.40026 0.60090 0.12653
 C869 C 1.12835 0.86713 0.64751
 C870 C 1.10292 0.89264 0.62597
 C871 C 0.62960 0.37028 0.14622
 C872 C 0.60463 0.39626 0.12488
 C873 C 0.87124 0.87122 0.35445
 C874 C 0.89715 0.89658 0.37545
 C875 C 0.37476 0.36909 -0.14672
 C876 C 0.40053 0.39457 -0.12577
 C877 C 1.12949 0.33720 -0.12003
 C878 C 1.10208 0.35631 -0.09457
 C879 C 0.62730 0.83531 0.38031
 C880 C 0.60012 0.85428 0.40616
 C881 C 0.86634 0.66380 -0.11861
 C882 C 0.89314 0.64506 -0.09243
 C883 C 0.36662 1.16271 0.38131
 C884 C 0.39253 1.14344 0.40796
 C885 C 1.13315 0.66348 0.11666
 C886 C 1.10697 0.64488 0.08998
 C887 C 0.63338 1.16135 0.61731
 C888 C 0.60631 1.14258 0.59127
 C889 C 0.87065 0.33789 0.12109
 C890 C 0.89720 0.35754 0.09509
 C891 C 0.36652 0.83765 0.62341
 C892 C 0.39371 0.85652 0.59723
 C893 C 0.34008 1.13703 -0.11888
 C894 C 0.35768 1.10948 -0.09257
 C895 C 0.84011 0.63738 0.38138
 C896 C 0.85754 0.60957 0.40756
 C897 C 0.66059 1.13518 0.12006
 C898 C 0.64284 1.10707 0.09432
 C899 C 1.15984 0.63590 0.61987
 C900 C 1.14234 0.60761 0.59415
 C901 C 0.65911 0.86649 -0.12002
 C902 C 0.64191 0.89493 -0.09433
 C903 C 1.15900 0.36553 0.38061
 C904 C 1.14197 0.39428 0.40613
 C905 C 0.34132 0.86322 0.11781
 C906 C 0.35812 0.89135 0.09162
 C907 C 0.84089 0.36336 0.61774
 C908 C 0.85800 0.39132 0.59157
 C909 C 1.12774 1.12886 0.64645
 C910 C 1.10246 1.10286 0.62554
 C911 C 0.63195 0.62517 0.14566
 C912 C 0.60724 0.59869 0.12465
 C913 C 1.13031 0.87352 0.35145
 C914 C 1.10545 0.89948 0.37285
 C915 C 0.62500 0.36893 -0.14885
 C916 C 0.59883 0.39399 -0.12771
 C917 C 0.87009 1.12431 0.35486
 C918 C 0.89523 1.09797 0.37568
 C919 C 0.37221 0.62929 -0.14550
 C920 C 0.39860 0.60378 -0.12496
 C921 C 0.87606 0.86921 0.64784
 C922 C 0.90331 0.89345 0.62712
 C923 C 0.37046 0.37511 0.14759
 C924 C 0.39624 0.40065 0.12657
   
