data_POSCAR
  _audit_creation_date              2014-09-24
  _audit_creation_method            'ToBaCCo'
  _symmetry_space_group_name_H-M    'P1'
  _symmetry_Int_Tables_number       1
  _symmetry_cell_setting            triclinic
  loop_
  _symmetry_equiv_pos_as_xyz
 x,y,z
_cell_length_a 51.0320
_cell_length_b 51.2058
_cell_length_c 50.9849
_cell_angle_alpha 89.959200
_cell_angle_beta 89.978700
_cell_angle_gamma 90.019300
loop_
  _atom_site_label
  _atom_site_type_symbol
  _atom_site_fract_x
  _atom_site_fract_y
  _atom_site_fract_z
C1 C 0.16875 0.17153 0.20149
 C2 C 0.19144 0.16041 0.19015
 C3 C 0.20316 0.17087 0.16731
 C4 C 0.19153 0.19311 0.15588
 C5 C 0.16902 0.20453 0.16662
 C6 C 0.15784 0.19374 0.18929
 H7 H 0.19868 0.14213 0.19782
 H8 H 0.20057 0.20263 0.13924
 H9 H 0.14089 0.20331 0.19760
 C10 C -0.16727 0.82970 0.20552
 C11 C -0.19015 0.84060 0.19436
 C12 C -0.20198 0.82958 0.17208
 C13 C -0.19092 0.80722 0.16075
 C14 C -0.16828 0.79588 0.17133
 C15 C -0.15665 0.80714 0.19359
 H16 H -0.19815 0.85866 0.20186
 H17 H -0.20028 0.79828 0.14393
 H18 H -0.13958 0.79768 0.20178
 C19 C -0.17059 0.16784 -0.20354
 C20 C -0.19303 0.15654 -0.19184
 C21 C -0.20483 0.16728 -0.16919
 C22 C -0.19359 0.19002 -0.15838
 C23 C -0.17142 0.20171 -0.16958
 C24 C -0.16016 0.19063 -0.19205
 H25 H -0.20133 0.13917 -0.20039
 H26 H -0.20275 0.19968 -0.14190
 H27 H -0.14223 0.19915 -0.19948
 C28 C 0.17039 0.83119 -0.20269
 C29 C 0.15862 0.80892 -0.19185
 C30 C 0.16902 0.79708 -0.16936
 C31 C 0.19155 0.80772 -0.15770
 C32 C 0.20390 0.83019 -0.16807
 C33 C 0.19290 0.84162 -0.19080
 H34 H 0.14121 0.80083 -0.20089
 H35 H 0.20003 0.79745 -0.14123
 H36 H 0.20075 0.85963 -0.19861
 C37 C 0.17206 1.17047 0.79763
 C38 C 0.16082 1.19292 0.80878
 C39 C 0.17145 1.20418 0.83154
 C40 C 0.19366 1.19277 0.84307
 C41 C 0.20517 1.17033 0.83223
 C42 C 0.19426 1.15935 0.80948
 H43 H 0.14365 1.20157 0.79981
 H44 H 0.20234 1.20171 0.86025
 H45 H 0.20257 1.14160 0.80146
 C46 C 0.83077 0.83245 0.79522
 C47 C 0.80823 0.84311 0.80711
 C48 C 0.79690 0.83159 0.82932
 C49 C 0.80811 0.80894 0.83992
 C50 C 0.83061 0.79747 0.82870
 C51 C 0.84160 0.80955 0.80630
 H52 H 0.80013 0.86137 0.80020
 H53 H 0.79824 0.79966 0.85622
 H54 H 0.85881 0.80111 0.79746
 C55 C 0.16754 0.82875 1.20353
 C56 C 0.15621 0.80634 1.19198
 C57 C 0.16699 0.79485 1.16942
 C58 C 0.18953 0.80578 1.15817
 C59 C 0.20129 0.82797 1.16912
 C60 C 0.19027 0.83927 1.19167
 H61 H 0.13800 0.79847 1.19941
 H62 H 0.19829 0.79665 1.14113
 H63 H 0.20003 0.85599 1.20014
 C64 C 0.83165 1.17053 1.20365
 C65 C 0.80892 1.15919 1.19279
 C66 C 0.79693 1.16973 1.17044
 C67 C 0.80766 1.19204 1.15864
 C68 C 0.83038 1.20407 1.16875
 C69 C 0.84196 1.19306 1.19138
 H70 H 0.80114 1.14115 1.20062
 H71 H 0.79851 1.19935 1.14098
 H72 H 0.85789 1.20332 1.20074
 O73 O 0.46330 0.95024 0.95731
 O74 O 0.43463 0.97533 0.98104
 C75 C 0.43974 0.95713 0.96412
 O76 O 0.53689 0.95254 1.05079
 O77 O 0.56554 0.97583 1.02524
 C78 C 0.56044 0.95915 1.04370
 O79 O 0.46309 0.95013 1.04811
 O80 O 0.43453 0.97530 1.02432
 C81 C 0.43956 0.95704 1.04121
 O82 O 0.53714 0.95287 0.95482
 O83 O 0.56573 0.97654 0.98009
 C84 C 0.56068 0.95974 0.96174
 Zr85 Zr 0.50020 0.96487 0.96969
 O86 O 0.50323 0.92363 0.97007
 O87 O 0.49731 0.96456 0.92828
 Zr88 Zr 0.50006 0.96482 1.03591
 O89 O 0.50302 0.92358 1.03568
 O90 O 0.49701 0.96466 1.07732
 O91 O 0.47674 0.95980 1.00276
 O92 O 0.52291 0.96012 1.00283
 O93 O 0.53710 1.04322 0.95488
 O94 O 0.56570 1.01964 0.98021
 C95 C 0.56064 1.03645 0.96187
 O96 O 0.46321 1.04562 1.04836
 O97 O 0.43463 1.02020 1.02491
 C98 C 0.43968 1.03855 1.04168
 O99 O 0.53695 1.04313 1.05088
 O100 O 0.56562 1.01946 1.02574
 C101 C 0.56051 1.03629 1.04403
 O102 O 0.46340 1.04566 0.95712
 O103 O 0.43471 1.02024 0.98047
 C104 C 0.43984 1.03859 0.96371
 Zr105 Zr 0.50020 1.03096 0.96960
 O106 O 0.50316 1.07220 0.96966
 O107 O 0.49734 1.03091 0.92817
 Zr108 Zr 0.50008 1.03096 1.03599
 O109 O 0.50308 1.07220 1.03581
 O110 O 0.49705 1.03099 1.07740
 Zr111 Zr 0.46124 0.99798 1.00274
 Zr112 Zr 0.53900 0.99798 1.00289
 O113 O 0.52288 1.03577 1.00284
 O114 O 0.47676 1.03613 1.00275
 O115 O 0.52353 0.99794 0.96455
 O116 O 0.47736 0.99788 1.04073
 O117 O 0.47750 0.99791 0.96480
 O118 O 0.52339 0.99789 1.04117
 H119 H 0.53481 0.94484 1.00277
 H120 H 0.46546 0.99781 1.05609
 H121 H 0.53483 1.05103 1.00287
 H122 H 0.46568 0.99786 0.94939
 H123 H 0.51151 0.97546 1.08424
 H124 H 0.51152 1.02012 1.08429
 H125 H 0.48832 1.07903 1.02527
 H126 H 0.48850 1.07903 0.98034
 H127 H 0.51204 1.02033 0.92134
 H128 H 0.51154 0.97574 0.92138
 H129 H 0.48823 0.91679 0.98027
 H130 H 0.48824 0.91677 1.02518
 O131 O 0.04292 0.53702 -0.05045
 O132 O 0.01944 0.56538 -0.02482
 C133 C 0.03623 0.56044 -0.04326
 O134 O -0.05034 0.46317 -0.04833
 O135 O -0.02515 0.43466 -0.02452
 C136 C -0.04338 0.43971 -0.04148
 O137 O -0.04797 0.53678 -0.05080
 O138 O -0.02433 0.56530 -0.02549
 C139 C -0.04114 0.56025 -0.04385
 O140 O 0.04542 0.46357 -0.04834
 O141 O 0.01990 0.43489 -0.02510
 C142 C 0.03835 0.44006 -0.04180
 Zr143 Zr 0.03064 0.50021 -0.03578
 O144 O 0.03088 0.49747 -0.07721
 O145 O 0.07201 0.50327 -0.03538
 Zr146 Zr -0.03581 0.50001 -0.03589
 O147 O -0.03613 0.49717 -0.07730
 O148 O -0.07720 0.50289 -0.03548
 O149 O -0.00263 0.52334 -0.04099
 O150 O -0.00252 0.47753 -0.04074
 O151 O 0.04523 0.46330 0.04287
 O152 O 0.01987 0.43475 0.01933
 C153 C 0.03822 0.43983 0.03616
 O154 O -0.04814 0.53649 0.04535
 O155 O -0.02456 0.56517 0.02011
 C156 C -0.04137 0.56000 0.03847
 O157 O -0.05041 0.46297 0.04272
 O158 O -0.02474 0.43460 0.01929
 C159 C -0.04319 0.43955 0.03605
 O160 O 0.04242 0.53681 0.04545
 O161 O 0.01862 0.56534 0.02026
 C162 C 0.03548 0.56028 0.03860
 Zr163 Zr 0.03046 0.50002 0.03049
 O164 O 0.03057 0.49696 0.07190
 O165 O 0.07183 0.50316 0.03031
 Zr166 Zr -0.03588 0.49981 0.03035
 O167 O -0.03631 0.49678 0.07176
 O168 O -0.07727 0.50265 0.02984
 Zr169 Zr -0.00278 0.53874 -0.00266
 Zr170 Zr -0.00249 0.46124 -0.00284
 O171 O -0.00265 0.47730 0.03516
 O172 O -0.00280 0.52312 0.03562
 O173 O 0.03577 0.47679 -0.00270
 O174 O -0.04070 0.52262 -0.00273
 O175 O 0.03523 0.52281 -0.00257
 O176 O -0.04085 0.47656 -0.00282
 H177 H -0.00251 0.46577 -0.05617
 H178 H -0.05600 0.53452 -0.00274
 H179 H -0.00263 0.46553 0.05059
 H180 H 0.05054 0.53471 -0.00243
 H181 H -0.08400 0.48788 -0.02533
 H182 H -0.08403 0.48765 0.01968
 H183 H -0.02514 0.51095 0.07872
 H184 H 0.01956 0.51128 0.07882
 H185 H 0.07875 0.48840 0.01991
 H186 H 0.07885 0.48840 -0.02506
 H187 H 0.02000 0.51193 -0.08407
 H188 H -0.02476 0.51125 -0.08417
 O189 O 1.05015 -0.04319 0.53690
 O190 O 1.02513 -0.01932 0.56553
 C191 C 1.04333 -0.03625 0.56046
 O192 O 1.04794 0.04967 0.46273
 O193 O 1.02401 0.02458 0.43423
 C194 C 1.04098 0.04276 0.43920
 O195 O 1.05065 0.04730 0.53658
 O196 O 1.02537 0.02385 0.56537
 C197 C 1.04374 0.04056 0.56019
 O198 O 1.04740 -0.04595 0.46308
 O199 O 1.02377 -0.02078 0.43439
 C200 C 1.04053 -0.03911 0.43951
 Zr201 Zr 1.03534 -0.03100 0.49997
 O202 O 1.07671 -0.03113 0.49685
 O203 O 1.03511 -0.07223 0.50314
 Zr204 Zr 1.03571 0.03506 0.49974
 O205 O 1.07707 0.03475 0.49662
 O206 O 1.03592 0.07631 0.50261
 O207 O 1.04070 0.00207 0.52320
 O208 O 1.04027 0.00194 0.47707
 O209 O 0.95666 -0.04548 0.46330
 O210 O 0.98046 -0.02056 0.43450
 C211 C 0.96351 -0.03871 0.43969
 O212 O 0.95474 0.04780 0.53680
 O213 O 0.97987 0.02409 0.56547
 C214 C 0.96166 0.04100 0.56037
 O215 O 0.95714 0.05010 0.46296
 O216 O 0.98069 0.02479 0.43434
 C217 C 0.96390 0.04311 0.43940
 O218 O 0.95423 -0.04268 0.53711
 O219 O 0.97962 -0.01910 0.56563
 C220 C 0.96122 -0.03583 0.56064
 Zr221 Zr 0.96904 -0.03067 0.50013
 O222 O 0.92767 -0.03041 0.49720
 O223 O 0.96887 -0.07189 0.50330
 Zr224 Zr 0.96941 0.03541 0.49990
 O225 O 0.92803 0.03557 0.49699
 O226 O 0.96972 0.07665 0.50275
 Zr227 Zr 1.00245 0.00231 0.53884
 Zr228 Zr 1.00229 0.00209 0.46103
 O229 O 0.96438 0.00233 0.47725
 O230 O 0.96414 0.00246 0.52338
 O231 O 1.00212 -0.03602 0.47672
 O232 O 1.00263 0.04007 0.52257
 O233 O 1.00221 -0.03555 0.52284
 O234 O 1.00254 0.04028 0.47644
 H235 H 1.05554 0.00183 0.46506
 H236 H 1.00274 0.05536 0.53447
 H237 H 0.94905 0.00236 0.46533
 H238 H 1.00215 -0.05077 0.53485
 H239 H 1.02518 0.08318 0.48801
 H240 H 0.98037 0.08340 0.48803
 H241 H 0.92112 0.02499 0.51169
 H242 H 0.92087 -0.01967 0.51181
 H243 H 0.97949 -0.07885 0.48866
 H244 H 1.02429 -0.07908 0.48861
 H245 H 1.08367 -0.02052 0.51148
 H246 H 1.08392 0.02416 0.51132
 C247 C 1.16052 0.13472 0.26471
 C248 C 1.13373 0.13780 0.26935
 C249 C 1.11851 0.15216 0.25175
 C250 C 1.12995 0.16335 0.22951
 C251 C 1.15705 0.16039 0.22428
 C252 C 1.17209 0.14583 0.24249
 C253 C 1.12177 0.12599 0.29203
 C254 C 1.11165 0.11599 0.31090
 C255 C 1.09970 0.10411 0.33285
 C256 C 1.08943 0.09381 0.35146
 C257 C 1.07709 0.08128 0.37353
 C258 C 1.08442 0.08790 0.39913
 C259 C 1.07262 0.07549 0.42054
 C260 C 1.05332 0.05623 0.41660
 C261 C 1.04602 0.04982 0.39076
 C262 C 1.05784 0.06227 0.36941
 H263 H 1.17255 0.12379 0.27836
 H264 H 1.09766 0.15446 0.25504
 H265 H 1.11705 0.17329 0.21598
 H266 H 1.19306 0.14368 0.24033
 H267 H 1.09931 0.10259 0.40254
 H268 H 1.07871 0.08091 0.44013
 H269 H 1.03121 0.03515 0.38697
 H270 H 1.05201 0.05700 0.34967
 C271 C 0.88381 -0.15023 0.25454
 C272 C 0.86895 -0.13536 0.27202
 C273 C 0.84214 -0.13214 0.26768
 C274 C 0.83017 -0.14364 0.24591
 C275 C 0.84482 -0.15875 0.22785
 C276 C 0.87197 -0.16182 0.23275
 C277 C 0.88130 -0.12322 0.29427
 C278 C 0.89172 -0.11296 0.31281
 C279 C 0.90397 -0.10083 0.33441
 C280 C 0.91445 -0.09035 0.35278
 C281 C 0.92698 -0.07766 0.37462
 C282 C 0.94618 -0.05867 0.37018
 C283 C 0.95816 -0.04607 0.39133
 C284 C 0.95105 -0.05232 0.41729
 C285 C 0.93180 -0.07157 0.42153
 C286 C 0.91985 -0.08412 0.40032
 H287 H 0.90468 -0.15265 0.25759
 H288 H 0.83039 -0.12081 0.28124
 H289 H 0.80919 -0.14135 0.24402
 H290 H 0.88460 -0.17215 0.21928
 H291 H 0.95186 -0.05352 0.35036
 H292 H 0.97292 -0.03141 0.38731
 H293 H 0.92585 -0.07687 0.44122
 H294 H 0.90499 -0.09881 0.40397
 C295 C 0.85118 0.11814 0.74688
 C296 C 0.86530 0.13367 0.72935
 C297 C 0.86760 0.16046 0.73391
 C298 C 0.85584 0.17173 0.75594
 C299 C 0.84137 0.15640 0.77398
 C300 C 0.83934 0.12928 0.76891
 C301 C 0.87759 0.12200 0.70680
 C302 C 0.88789 0.11203 0.68804
 C303 C 0.90002 0.10015 0.66621
 C304 C 0.91047 0.08988 0.64770
 C305 C 0.92309 0.07749 0.62574
 C306 C 0.91645 0.08460 0.60009
 C307 C 0.92888 0.07267 0.57878
 C308 C 0.94817 0.05345 0.58287
 C309 C 0.95461 0.04637 0.60878
 C310 C 0.94215 0.05832 0.63003
 H311 H 0.84952 0.09728 0.74368
 H312 H 0.87837 0.17272 0.72034
 H313 H 0.85737 0.19269 0.75803
 H314 H 0.82966 0.11616 0.78240
 H315 H 0.90170 0.09941 0.59655
 H316 H 0.92343 0.07860 0.55913
 H317 H 0.96932 0.03164 0.61269
 H318 H 0.94743 0.05265 0.64981
 C319 C 1.12064 -0.14074 0.74966
 C320 C 1.13689 -0.13149 0.72958
 C321 C 1.16408 -0.13449 0.73156
 C322 C 1.17499 -0.14667 0.75355
 C323 C 1.15882 -0.15602 0.77385
 C324 C 1.13151 -0.15293 0.77165
 C325 C 1.12561 -0.11883 0.70704
 C326 C 1.11595 -0.10823 0.68827
 C327 C 1.10439 -0.09581 0.66643
 C328 C 1.09428 -0.08522 0.64790
 C329 C 1.08192 -0.07261 0.62591
 C330 C 1.08851 -0.07982 0.60027
 C331 C 1.07611 -0.06790 0.57894
 C332 C 1.05689 -0.04859 0.58299
 C333 C 1.05055 -0.04137 0.60887
 C334 C 1.06299 -0.05331 0.63015
 H335 H 1.09958 -0.13844 0.74837
 H336 H 1.17683 -0.12744 0.71610
 H337 H 1.19606 -0.14902 0.75456
 H338 H 1.11857 -0.15959 0.78711
 H339 H 1.10313 -0.09475 0.59677
 H340 H 1.08148 -0.07393 0.55931
 H341 H 1.03591 -0.02656 0.61275
 H342 H 1.05773 -0.04758 0.64992
 C343 C 0.25346 1.14998 1.11781
 C344 C 0.27064 1.13552 1.13340
 C345 C 0.26568 1.13283 1.16020
 C346 C 0.24358 1.14445 1.17142
 C347 C 0.22581 1.15915 1.15600
 C348 C 0.23134 1.16168 1.12889
 C349 C 0.29321 1.12324 1.12179
 C350 C 0.31198 1.11289 1.11192
 C351 C 0.33382 1.10065 1.10020
 C352 C 0.35234 1.09008 1.09008
 C353 C 0.37430 1.07730 1.07787
 C354 C 0.39992 1.08415 1.08482
 C355 C 0.42123 1.07162 1.07303
 C356 C 0.41717 1.05202 1.05410
 C357 C 0.39130 1.04535 1.04721
 C358 C 0.37005 1.05791 1.05902
 H359 H 0.25699 1.15199 1.09694
 H360 H 0.27901 1.12182 1.17252
 H361 H 0.24118 1.14259 1.19241
 H362 H 0.21813 1.17172 1.11573
 H363 H 0.40343 1.09914 1.09939
 H364 H 0.44085 1.07725 1.07880
 H365 H 0.38741 1.03041 1.03270
 H366 H 0.35029 1.05248 1.05348
 C367 C 0.26679 0.86703 0.84173
 C368 C 0.27116 0.86322 0.86850
 C369 C 0.25349 0.84837 0.88316
 C370 C 0.23146 0.83740 0.87119
 C371 C 0.22651 0.84108 0.84411
 C372 C 0.24477 0.85614 0.82964
 C373 C 0.29362 0.87479 0.88100
 C374 C 0.31232 0.88462 0.89155
 C375 C 0.33408 0.89629 0.90397
 C376 C 0.35255 0.90643 0.91461
 C377 C 0.37447 0.91879 0.92732
 C378 C 0.40011 0.91207 0.92030
 C379 C 0.42138 0.92439 0.93237
 C380 C 0.41727 0.94365 0.95163
 C381 C 0.39138 0.95013 0.95864
 C382 C 0.37016 0.93777 0.94655
 H383 H 0.28050 0.87835 0.83013
 H384 H 0.25657 0.84550 0.90399
 H385 H 0.21786 0.82703 0.88369
 H386 H 0.24284 0.85889 0.80870
 H387 H 0.40366 0.89739 0.90542
 H388 H 0.44102 0.91892 0.92649
 H389 H 0.38745 0.96482 0.97340
 H390 H 0.35039 0.94312 0.95213
 C391 C 0.74973 0.85582 1.12195
 C392 C 0.72971 0.86527 1.13812
 C393 C 0.73190 0.86295 1.16538
 C394 C 0.75407 0.85128 1.17646
 C395 C 0.77433 0.84176 1.16036
 C396 C 0.77190 0.84413 1.13297
 C397 C 0.70704 0.87751 1.12668
 C398 C 0.68819 0.88781 1.11689
 C399 C 0.66629 0.89994 1.10517
 C400 C 0.64774 0.91034 1.09493
 C401 C 0.62577 0.92281 1.08240
 C402 C 0.60015 0.91587 1.08928
 C403 C 0.57885 0.92776 1.07681
 C404 C 0.58293 0.94674 1.05724
 C405 C 0.60881 0.95365 1.05058
 C406 C 0.63004 0.94175 1.06308
 H407 H 0.74828 0.85760 1.10083
 H408 H 0.71649 0.87016 1.17807
 H409 H 0.75525 0.84946 1.19758
 H410 H 0.78732 0.83732 1.12009
 H411 H 0.59663 0.90122 1.10421
 H412 H 0.55922 0.92198 1.08243
 H413 H 0.61271 0.96821 1.03566
 H414 H 0.64980 0.94727 1.05761
 C415 C 0.74574 1.14630 0.88114
 C416 C 0.72852 1.13149 0.86593
 C417 C 0.73307 1.12871 0.83908
 C418 C 0.75486 1.14054 0.82743
 C419 C 0.77270 1.15551 0.84246
 C420 C 0.76753 1.15821 0.86962
 C421 C 0.70629 1.11898 0.87795
 C422 C 0.68776 1.10844 0.88811
 C423 C 0.66615 1.09607 0.90013
 C424 C 0.64777 1.08551 0.91052
 C425 C 0.62589 1.07293 0.92310
 C426 C 0.60025 1.07992 0.91638
 C427 C 0.57898 1.06797 0.92886
 C428 C 0.58311 1.04885 0.94829
 C429 C 0.60900 1.04187 0.95478
 C430 C 0.63021 1.05385 0.94226
 H431 H 0.74250 1.14841 0.90204
 H432 H 0.71968 1.11748 0.82705
 H433 H 0.75686 1.13861 0.80641
 H434 H 0.78083 1.16852 0.88247
 H435 H 0.59668 1.09468 0.90157
 H436 H 0.55935 1.07381 0.92337
 H437 H 0.61293 1.02722 0.96960
 H438 H 0.64999 1.04829 0.94761
 C439 C 0.14311 0.25112 0.11485
 C440 C 0.13435 0.27197 0.13026
 C441 C 0.13707 0.27091 0.15755
 C442 C 0.14841 0.24905 0.16943
 C443 C 0.15720 0.22794 0.15411
 C444 C 0.15448 0.22925 0.12668
 C445 C 0.12236 0.29432 0.11804
 C446 C 0.11219 0.31292 0.10773
 C447 C 0.10012 0.33458 0.09559
 C448 C 0.08967 0.35296 0.08517
 C449 C 0.07700 0.37479 0.07270
 C450 C 0.08390 0.40035 0.07953
 C451 C 0.07138 0.42154 0.06760
 C452 C 0.05175 0.41743 0.04865
 C453 C 0.04506 0.39162 0.04185
 C454 C 0.05760 0.37049 0.05381
 H455 H 0.14104 0.25170 0.09371
 H456 H 0.13040 0.28698 0.16966
 H457 H 0.15056 0.24875 0.19055
 H458 H 0.16079 0.21318 0.11441
 H459 H 0.09889 0.40389 0.09414
 H460 H 0.07704 0.44112 0.07330
 H461 H 0.03008 0.38771 0.02733
 H462 H 0.05212 0.35078 0.04836
 C463 C -0.14632 0.24974 -0.11875
 C464 C -0.13751 0.27026 -0.13460
 C465 C -0.13984 0.26846 -0.16190
 C466 C -0.15089 0.24620 -0.17331
 C467 C -0.15978 0.22545 -0.15753
 C468 C -0.15738 0.22748 -0.13011
 C469 C -0.12589 0.29303 -0.12282
 C470 C -0.11605 0.31194 -0.11278
 C471 C -0.10435 0.33390 -0.10084
 C472 C -0.09416 0.35248 -0.09051
 C473 C -0.08173 0.37444 -0.07803
 C474 C -0.08851 0.39995 -0.08519
 C475 C -0.07617 0.42123 -0.07323
 C476 C -0.05684 0.41726 -0.05394
 C477 C -0.05029 0.39149 -0.04681
 C478 C -0.06266 0.37027 -0.05878
 H479 H -0.14452 0.25088 -0.09761
 H480 H -0.13311 0.28425 -0.17435
 H481 H -0.15273 0.24533 -0.19445
 H482 H -0.16373 0.21170 -0.11747
 H483 H -0.10326 0.40339 -0.10007
 H484 H -0.08170 0.44077 -0.07919
 H485 H -0.03555 0.38767 -0.03202
 H486 H -0.05727 0.35061 -0.05308
 C487 C 0.14121 0.74920 -0.11977
 C488 C 0.13189 0.72931 -0.13611
 C489 C 0.13479 0.73146 -0.16332
 C490 C 0.14691 0.75346 -0.17418
 C491 C 0.15631 0.77358 -0.15792
 C492 C 0.15334 0.77119 -0.13058
 C493 C 0.11925 0.70678 -0.12489
 C494 C 0.10865 0.68803 -0.11528
 C495 C 0.09623 0.66623 -0.10377
 C496 C 0.08561 0.64773 -0.09371
 C497 C 0.07294 0.62578 -0.08142
 C498 C 0.07985 0.60029 -0.08844
 C499 C 0.06783 0.57899 -0.07617
 C500 C 0.04872 0.58294 -0.05664
 C501 C 0.04182 0.60869 -0.04984
 C502 C 0.05386 0.62993 -0.06216
 H503 H 0.13899 0.74776 -0.09869
 H504 H 0.12770 0.71615 -0.17614
 H505 H 0.14920 0.75460 -0.19526
 H506 H 0.16008 0.78650 -0.11758
 H507 H 0.09461 0.59686 -0.10333
 H508 H 0.07361 0.55946 -0.08189
 H509 H 0.02718 0.61248 -0.03495
 H510 H 0.04837 0.64959 -0.05657
 C511 C -0.14317 0.74848 0.11997
 C512 C -0.13399 0.72797 0.13560
 C513 C -0.13623 0.72949 0.16292
 C514 C -0.14750 0.75150 0.17458
 C515 C -0.15667 0.77229 0.15903
 C516 C -0.15446 0.77050 0.13158
 C517 C -0.12204 0.70550 0.12359
 C518 C -0.11194 0.68682 0.11338
 C519 C -0.10001 0.66511 0.10124
 C520 C -0.08975 0.64670 0.09069
 C521 C -0.07743 0.62489 0.07786
 C522 C -0.08462 0.59932 0.08438
 C523 C -0.07284 0.57816 0.07168
 C524 C -0.05369 0.58233 0.05223
 C525 C -0.04653 0.60815 0.04592
 C526 C -0.05833 0.62924 0.05866
 H527 H -0.14147 0.74754 0.09881
 H528 H -0.12925 0.71368 0.17520
 H529 H -0.14926 0.75216 0.19573
 H530 H -0.16107 0.78631 0.11912
 H531 H -0.09940 0.59574 0.09922
 H532 H -0.07882 0.55858 0.07703
 H533 H -0.03184 0.61211 0.03111
 H534 H -0.05261 0.64896 0.05347
 C535 C 1.12200 0.14435 0.74924
 C536 C 1.13817 0.13478 0.72927
 C537 C 1.16541 0.13702 0.73152
 C538 C 1.17645 0.14872 0.75369
 C539 C 1.16036 0.15835 0.77391
 C540 C 1.13299 0.15607 0.77141
 C541 C 1.12677 0.12246 0.70662
 C542 C 1.11702 0.11207 0.68779
 C543 C 1.10536 0.09985 0.66591
 C544 C 1.09516 0.08938 0.64738
 C545 C 1.08266 0.07684 0.62544
 C546 C 1.06355 0.05773 0.62977
 C547 C 1.05101 0.04582 0.60856
 C548 C 1.05742 0.05288 0.58264
 C549 C 1.07682 0.07200 0.57849
 C550 C 1.08933 0.08390 0.59977
 H551 H 1.10089 0.14263 0.74774
 H552 H 1.17810 0.12971 0.71615
 H553 H 1.19756 0.15046 0.75492
 H554 H 1.12010 0.16294 0.78680
 H555 H 1.05824 0.05211 0.64957
 H556 H 1.03622 0.03116 0.61252
 H557 H 1.08225 0.07791 0.55883
 H558 H 1.10410 0.09868 0.59620
 C559 C 0.83872 -0.12790 0.73373
 C560 C 0.86553 -0.13056 0.72896
 C561 C 0.88088 -0.14552 0.74594
 C562 C 0.86954 -0.15777 0.76766
 C563 C 0.84241 -0.15530 0.77298
 C564 C 0.82725 -0.14006 0.75545
 C565 C 0.87735 -0.11786 0.70672
 C566 C 0.88740 -0.10723 0.68816
 C567 C 0.89934 -0.09483 0.66651
 C568 C 0.90970 -0.08430 0.64807
 C569 C 0.92227 -0.07182 0.62611
 C570 C 0.91552 -0.07887 0.60048
 C571 C 0.92805 -0.06707 0.57915
 C572 C 0.94756 -0.04805 0.58319
 C573 C 0.95408 -0.04099 0.60908
 C574 C 0.94151 -0.05282 0.63036
 H575 H 0.82659 -0.11651 0.72056
 H576 H 0.90174 -0.14750 0.74256
 H577 H 0.88254 -0.16812 0.78077
 H578 H 0.80627 -0.13818 0.75769
 H579 H 0.90066 -0.09357 0.59698
 H580 H 0.92254 -0.07297 0.55952
 H581 H 0.96895 -0.02641 0.61294
 H582 H 0.94688 -0.04721 0.65013
 C583 C 1.12949 -0.16263 0.26600
 C584 C 1.13305 -0.13603 0.27083
 C585 C 1.14818 -0.12108 0.25363
 C586 C 1.15965 -0.13260 0.23159
 C587 C 1.15619 -0.15950 0.22616
 C588 C 1.14087 -0.17427 0.24398
 C589 C 1.12098 -0.12399 0.29329
 C590 C 1.11080 -0.11379 0.31199
 C591 C 1.09882 -0.10167 0.33376
 C592 C 1.08855 -0.09116 0.35225
 C593 C 1.07628 -0.07840 0.37419
 C594 C 1.08350 -0.08494 0.39984
 C595 C 1.07180 -0.07228 0.42113
 C596 C 1.05272 -0.05285 0.41702
 C597 C 1.04552 -0.04653 0.39112
 C598 C 1.05724 -0.05923 0.36988
 H599 H 1.11797 -0.17446 0.27934
 H600 H 1.15088 -0.10037 0.25707
 H601 H 1.17020 -0.11987 0.21836
 H602 H 1.13830 -0.19510 0.24170
 H603 H 1.09823 -0.09976 0.40339
 H604 H 1.07781 -0.07763 0.44078
 H605 H 1.03088 -0.03172 0.38720
 H606 H 1.05150 -0.05402 0.35010
 C607 C 0.88306 0.15199 0.25292
 C608 C 0.86844 0.13725 0.27073
 C609 C 0.84164 0.13362 0.26655
 C610 C 0.82947 0.14458 0.24459
 C611 C 0.84389 0.15954 0.22621
 C612 C 0.87101 0.16304 0.23095
 C613 C 0.88100 0.12563 0.29315
 C614 C 0.89158 0.11577 0.31182
 C615 C 0.90402 0.10406 0.33357
 C616 C 0.91464 0.09390 0.35205
 C617 C 0.92731 0.08153 0.37400
 C618 C 0.94646 0.06245 0.36973
 C619 C 0.95848 0.05007 0.39098
 C620 C 0.95149 0.05661 0.41689
 C621 C 0.93233 0.07597 0.42097
 C622 C 0.92033 0.08831 0.39965
 H623 H 0.90391 0.15472 0.25585
 H624 H 0.83007 0.12238 0.28036
 H625 H 0.80852 0.14197 0.24280
 H626 H 0.88346 0.17332 0.21722
 H627 H 0.95201 0.05706 0.34995
 H628 H 0.97317 0.03532 0.38709
 H629 H 0.92647 0.08149 0.44061
 H630 H 0.90552 0.10305 0.40318
 C631 C 0.13856 0.27030 -0.16122
 C632 C 0.13577 0.27201 -0.13396
 C633 C 0.14473 0.25166 -0.11799
 C634 C 0.15639 0.22964 -0.12920
 C635 C 0.15924 0.22769 -0.15659
 C636 C 0.15021 0.24828 -0.17248
 C637 C 0.12353 0.29452 -0.12234
 C638 C 0.11317 0.31323 -0.11244
 C639 C 0.10091 0.33497 -0.10068
 C640 C 0.09029 0.35338 -0.09051
 C641 C 0.07743 0.37519 -0.07822
 C642 C 0.05790 0.37081 -0.05946
 C643 C 0.04523 0.39190 -0.04758
 C644 C 0.05194 0.41773 -0.05431
 C645 C 0.07168 0.42192 -0.07316
 C646 C 0.08431 0.40077 -0.08502
 H647 H 0.13173 0.28597 -0.17375
 H648 H 0.14258 0.25274 -0.09688
 H649 H 0.16283 0.21397 -0.11648
 H650 H 0.15241 0.24749 -0.19359
 H651 H 0.05243 0.35108 -0.05404
 H652 H 0.03018 0.38792 -0.03313
 H653 H 0.07734 0.44151 -0.07880
 H654 H 0.09941 0.40436 -0.09952
 C655 C -0.12075 0.25426 0.14656
 C656 C -0.13655 0.27103 0.13185
 C657 C -0.16330 0.26584 0.12941
 C658 C -0.17426 0.24391 0.14155
 C659 C -0.15864 0.22659 0.15653
 C660 C -0.13158 0.23234 0.15877
 C661 C -0.12521 0.29345 0.11913
 C662 C -0.11551 0.31212 0.10848
 C663 C -0.10391 0.33385 0.09601
 C664 C -0.09378 0.35232 0.08539
 C665 C -0.08143 0.37423 0.07274
 C666 C -0.08854 0.39974 0.07954
 C667 C -0.07622 0.42103 0.06753
 C668 C -0.05658 0.41706 0.04855
 C669 C -0.04970 0.39130 0.04176
 C670 C -0.06205 0.37007 0.05379
 H671 H -0.09992 0.25798 0.14837
 H672 H -0.17577 0.27884 0.11822
 H673 H -0.19522 0.24136 0.13986
 H674 H -0.11828 0.21943 0.16899
 H675 H -0.10352 0.40318 0.09420
 H676 H -0.08202 0.44056 0.07323
 H677 H -0.03471 0.38749 0.02722
 H678 H -0.05639 0.35040 0.04838
 C679 C -0.14941 0.74643 -0.12233
 C680 C -0.13497 0.72934 -0.13802
 C681 C -0.13214 0.73451 -0.16476
 C682 C -0.14352 0.75678 -0.17581
 C683 C -0.15810 0.77451 -0.16027
 C684 C -0.16089 0.76870 -0.13325
 C685 C -0.12282 0.70667 -0.12659
 C686 C -0.11253 0.68782 -0.11684
 C687 C -0.10039 0.66593 -0.10521
 C688 C -0.08996 0.64739 -0.09504
 C689 C -0.07743 0.62546 -0.08260
 C690 C -0.08463 0.59994 -0.08927
 C691 C -0.07274 0.57867 -0.07683
 C692 C -0.05347 0.58268 -0.05748
 C693 C -0.04627 0.60845 -0.05106
 C694 C -0.05818 0.62965 -0.06354
 H695 H -0.15155 0.74271 -0.10151
 H696 H -0.12118 0.72125 -0.17717
 H697 H -0.14158 0.75928 -0.19677
 H698 H -0.17089 0.78184 -0.12001
 H699 H -0.09952 0.59648 -0.10401
 H700 H -0.07875 0.55913 -0.08226
 H701 H -0.03149 0.61229 -0.03632
 H702 H -0.05245 0.64932 -0.05822
 C703 C 0.13257 0.72955 0.16169
 C704 C 0.13006 0.72792 0.13441
 C705 C 0.13972 0.74806 0.11856
 C706 C 0.15181 0.76978 0.12992
 C707 C 0.15438 0.77165 0.15733
 C708 C 0.14464 0.75127 0.17310
 C709 C 0.11748 0.70567 0.12264
 C710 C 0.10693 0.68713 0.11262
 C711 C 0.09458 0.66553 0.10070
 C712 C 0.08406 0.64716 0.09033
 C713 C 0.07155 0.62533 0.07772
 C714 C 0.05241 0.62962 0.05856
 C715 C 0.04055 0.60847 0.04595
 C716 C 0.04772 0.58267 0.05233
 C717 C 0.06688 0.57858 0.07177
 C718 C 0.07871 0.59978 0.08435
 H719 H 0.12521 0.71403 0.17414
 H720 H 0.13781 0.74704 0.09742
 H721 H 0.15880 0.78531 0.11728
 H722 H 0.14660 0.75201 0.19424
 H723 H 0.04673 0.64932 0.05329
 H724 H 0.02586 0.61237 0.03113
 H725 H 0.07286 0.55902 0.07718
 H726 H 0.09352 0.59625 0.09915
 C727 C 0.27096 1.13696 0.84154
 C728 C 0.27214 1.13480 0.86888
 C729 C 0.25153 1.14432 0.88425
 C730 C 0.22979 1.15594 0.87235
 C731 C 0.22838 1.15817 0.84487
 C732 C 0.24922 1.14856 0.82959
 C733 C 0.29439 1.12264 0.88119
 C734 C 0.31293 1.11238 0.89159
 C735 C 0.33453 1.10027 0.90384
 C736 C 0.35290 1.08981 0.91434
 C737 C 0.37474 1.07718 0.92690
 C738 C 0.40040 1.08408 0.92017
 C739 C 0.42162 1.07163 0.93219
 C740 C 0.41742 1.05205 0.95114
 C741 C 0.39150 1.04534 0.95784
 C742 C 0.37033 1.05783 0.94578
 H743 H 0.28683 1.12969 0.82947
 H744 H 0.25221 1.14266 0.90542
 H745 H 0.21391 1.16282 0.88461
 H746 H 0.24883 1.15027 0.80842
 H747 H 0.40402 1.09904 0.90557
 H748 H 0.44128 1.07729 0.92657
 H749 H 0.38751 1.03040 0.97235
 H750 H 0.35054 1.05234 0.95115
 C751 C 0.24912 0.85306 1.11794
 C752 C 0.26992 0.86161 1.13363
 C753 C 0.26842 0.85899 1.16091
 C754 C 0.24617 0.84797 1.17250
 C755 C 0.22510 0.83942 1.15690
 C756 C 0.22686 0.84202 1.12948
 C757 C 0.29263 0.87333 1.12171
 C758 C 0.31151 0.88331 1.11163
 C759 C 0.33346 0.89520 1.09972
 C760 C 0.35205 0.90555 1.08948
 C761 C 0.37407 0.91817 1.07717
 C762 C 0.39966 0.91151 1.08441
 C763 C 0.42102 0.92404 1.07265
 C764 C 0.41703 0.94344 1.05349
 C765 C 0.39118 0.94989 1.04628
 C766 C 0.36989 0.93733 1.05805
 H767 H 0.25003 0.85507 1.09681
 H768 H 0.28443 0.86549 1.17324
 H769 H 0.24554 0.84589 1.19363
 H770 H 0.21084 0.83590 1.11699
 H771 H 0.40311 0.89671 1.09920
 H772 H 0.44061 0.91859 1.07867
 H773 H 0.38735 0.96468 1.03158
 H774 H 0.35016 0.94263 1.05230
 C775 C 0.73115 1.13558 1.16440
 C776 C 0.72928 1.13215 1.13723
 C777 C 0.74944 1.14107 1.12090
 C778 C 0.77140 1.15335 1.13166
 C779 C 0.77349 1.15688 1.15895
 C780 C 0.75312 1.14785 1.17521
 C781 C 0.70677 1.11939 1.12606
 C782 C 0.68803 1.10869 1.11649
 C783 C 0.66623 1.09617 1.10502
 C784 C 0.64773 1.08549 1.09497
 C785 C 0.62579 1.07278 1.08265
 C786 C 0.63008 1.05354 1.06367
 C787 C 0.60886 1.04153 1.05124
 C788 C 0.58297 1.04864 1.05764
 C789 C 0.57887 1.06788 1.07693
 C790 C 0.60016 1.07986 1.08932
 H791 H 0.71564 1.12878 1.17721
 H792 H 0.74823 1.13843 1.09985
 H793 H 0.78694 1.15973 1.11868
 H794 H 0.75409 1.15051 1.19626
 H795 H 0.64985 1.04791 1.05835
 H796 H 0.61277 1.02678 1.03654
 H797 H 0.55924 1.07382 1.08234
 H798 H 0.59662 1.09475 1.10399
 C799 C 0.74956 0.85693 0.88083
 C800 C 0.72927 0.86672 0.86521
 C801 C 0.73093 0.86483 0.83788
 C802 C 0.75285 0.85331 0.82618
 C803 C 0.77341 0.84350 0.84172
 C804 C 0.77149 0.84538 0.86919
 C805 C 0.70686 0.87888 0.87725
 C806 C 0.68820 0.88913 0.88744
 C807 C 0.66646 0.90119 0.89952
 C808 C 0.64799 0.91152 0.90998
 C809 C 0.62605 0.92386 0.92267
 C810 C 0.60043 0.91672 0.91601
 C811 C 0.57912 0.92846 0.92859
 C812 C 0.58318 0.94752 0.94806
 C813 C 0.60905 0.95465 0.95450
 C814 C 0.63030 0.94288 0.94188
 H815 H 0.74851 0.85836 0.90200
 H816 H 0.71530 0.87230 0.82560
 H817 H 0.75363 0.85186 0.80501
 H818 H 0.78714 0.83831 0.88164
 H819 H 0.59692 0.90200 0.90116
 H820 H 0.55951 0.92251 0.92315
 H821 H 0.61293 0.96927 0.96934
 H822 H 0.65006 0.94857 0.94718
   
