data_POSCAR
  _audit_creation_date              2014-09-24
  _audit_creation_method            'ToBaCCo'
  _symmetry_space_group_name_H-M    'P1'
  _symmetry_Int_Tables_number       1
  _symmetry_cell_setting            triclinic
  loop_
  _symmetry_equiv_pos_as_xyz
 x,y,z
_cell_length_a 30.4003
_cell_length_b 30.2533
_cell_length_c 30.6499
_cell_angle_alpha 88.518400
_cell_angle_beta 93.511800
_cell_angle_gamma 93.681000
loop_
  _atom_site_label
  _atom_site_type_symbol
  _atom_site_fract_x
  _atom_site_fract_y
  _atom_site_fract_z
O1 O 0.53575 0.49628 -0.01938
 O2 O 0.41495 0.49683 -0.01423
 O3 O 0.47140 0.43563 -0.01574
 O4 O 0.47970 0.55755 -0.01835
 O5 O 0.47304 0.55759 -0.09052
 O6 O 0.46211 0.43567 -0.08777
 O7 O 0.40757 0.49872 -0.08635
 O8 O 0.52802 0.49477 -0.09146
 Cu9 Cu 0.47616 0.49656 -0.00967
 Cu10 Cu 0.46695 0.49665 -0.09627
 C11 C 0.55241 0.49511 -0.05632
 C12 C 0.39068 0.49834 -0.04946
 C13 C 0.46533 0.41490 -0.05133
 C14 C 0.47792 0.57831 -0.05491
 O15 O -0.05923 0.55725 0.49302
 O16 O -0.05422 0.43603 0.48958
 O17 O -0.06627 0.49195 0.55017
 O18 O -0.04720 0.50086 0.43279
 O19 O 0.02477 0.50825 0.44829
 O20 O 0.00571 0.49914 0.56571
 O21 O 0.01771 0.44285 0.50547
 O22 O 0.01261 0.56405 0.50919
 Cu23 Cu -0.06396 0.49588 0.48983
 Cu24 Cu 0.02245 0.50422 0.50865
 C25 C -0.02421 0.58135 0.50181
 C26 C -0.01745 0.41880 0.49705
 C27 C -0.03351 0.49406 0.57792
 C28 C -0.00800 0.50604 0.42055
 O29 O 0.52808 0.02893 0.56551
 O30 O 0.53248 0.04449 0.44619
 O31 O 0.47053 0.04561 0.50140
 O32 O 0.58946 0.02783 0.51030
 O33 O 0.57467 -0.04380 0.50059
 O34 O 0.45580 -0.02638 0.49436
 O35 O 0.51625 -0.02709 0.43763
 O36 O 0.51383 -0.04292 0.55712
 Cu37 Cu 0.53157 0.04395 0.50667
 Cu38 Cu 0.51367 -0.04226 0.49654
 C39 C 0.52029 -0.00969 0.58171
 C40 C 0.52511 0.01137 0.42160
 C41 C 0.44292 0.01253 0.49691
 C42 C 0.60230 -0.01097 0.50672
 O43 O 0.49482 0.00018 -0.06605
 O44 O 0.47651 -0.00805 0.05170
 O45 O 0.48293 0.05682 -0.00594
 O46 O 0.48889 -0.06414 -0.00867
 O47 O 0.56085 -0.05674 0.00690
 O48 O 0.55488 0.06433 0.00971
 O49 O 0.54850 -0.00014 0.06693
 O50 O 0.56680 0.00825 -0.05085
 Cu51 Cu 0.47855 -0.00451 -0.00873
 Cu52 Cu 0.56501 0.00462 0.00965
 C53 C 0.53393 0.00562 -0.07849
 C54 C 0.50937 -0.00546 0.07936
 C55 C 0.51791 0.08116 0.00233
 C56 C 0.52589 -0.08104 -0.00138
 O57 O -0.07496 0.54438 1.00022
 O58 O 0.04433 0.52809 1.00568
 O59 O -0.01427 0.54418 0.94348
 O60 O -0.01587 0.52834 1.06284
 O61 O -0.03196 0.45670 1.05449
 O62 O -0.02757 0.47213 0.93532
 O63 O 0.03005 0.45595 0.99938
 O64 O -0.08925 0.47270 0.99038
 Cu65 Cu -0.01381 0.54347 1.00396
 Cu66 Cu -0.03109 0.45713 0.99409
 C67 C -0.10240 0.51137 0.99408
 C68 C 0.05749 0.48925 1.00338
 C69 C -0.02025 0.51078 0.91912
 C70 C -0.02454 0.48988 1.07895
 O71 O 0.01914 -0.05898 0.51829
 O72 O 0.02726 0.06308 0.51604
 O73 O 0.08373 0.00178 0.51454
 O74 O -0.03682 0.00225 0.52017
 O75 O -0.02890 0.00334 0.59226
 O76 O 0.09141 0.00006 0.58670
 O77 O 0.03658 0.06285 0.58807
 O78 O 0.02635 -0.05922 0.59045
 Cu79 Cu 0.02259 0.00209 0.51000
 Cu80 Cu 0.03211 0.00178 0.59662
 C81 C 0.02133 -0.07987 0.55478
 C82 C 0.03325 0.08374 0.55168
 C83 C 0.10803 0.00036 0.54972
 C84 C -0.05334 0.00316 0.55718
 C85 C -0.39954 0.49355 0.94114
 C86 C -0.37029 0.50065 0.97753
 C87 C -0.32199 0.49758 0.97628
 C88 C -0.29376 0.52190 1.00605
 C89 C -0.24802 0.51883 1.00658
 C90 C -0.22969 0.49081 0.97761
 C91 C -0.25798 0.46587 0.94839
 C92 C -0.30368 0.46938 0.94747
 C93 C -0.18162 0.48525 0.97856
 C94 C -0.14994 0.51839 0.99183
 H95 H -0.38307 0.51050 1.00781
 H96 H -0.30715 0.54332 1.02902
 H97 H -0.22730 0.53750 1.03045
 H98 H -0.24467 0.44354 0.92623
 H99 H -0.32455 0.44911 0.92502
 H100 H -0.17078 0.45451 0.96680
 H101 H -0.38703 0.48762 0.90964
 H102 H -0.15999 0.55072 0.99992
 C103 C 0.34507 0.50021 0.95167
 C104 C 0.32311 0.49673 0.99046
 C105 C 0.27507 0.50144 0.99120
 C106 C 0.25052 0.47633 1.02142
 C107 C 0.20505 0.48058 1.02283
 C108 C 0.18364 0.51084 0.99460
 C109 C 0.20846 0.53681 0.96525
 C110 C 0.25367 0.53189 0.96321
 C111 C 0.13594 0.51708 0.99597
 C112 C 0.10504 0.48248 1.00500
 H113 H 0.34109 0.48835 1.02087
 H114 H 0.26650 0.45313 1.04371
 H115 H 0.18693 0.46091 1.04657
 H116 H 0.19273 0.56073 0.94360
 H117 H 0.27201 0.55260 0.94040
 H118 H 0.12436 0.54920 0.98613
 H119 H 0.32600 0.50401 0.92091
 H120 H 0.11556 0.44915 1.01039
 C121 C -0.02670 -0.37284 0.50318
 C122 C 0.00974 -0.34437 0.51551
 C123 C 0.00771 -0.29570 0.51686
 C124 C 0.03676 -0.27174 0.54619
 C125 C 0.03640 -0.22563 0.54777
 C126 C 0.00728 -0.20251 0.51952
 C127 C -0.02112 -0.22638 0.48952
 C128 C -0.02119 -0.27258 0.48835
 C129 C 0.00736 -0.15359 0.51918
 C130 C 0.01888 -0.12859 0.55624
 H131 H 0.04051 -0.35830 0.52680
 H132 H 0.05978 -0.28878 0.56800
 H133 H 0.05971 -0.20817 0.57035
 H134 H -0.04333 -0.20921 0.46696
 H135 H -0.04307 -0.28990 0.46442
 H136 H -0.00343 -0.13683 0.48911
 H137 H -0.05845 -0.35931 0.49544
 H138 H 0.02580 -0.14504 0.58746
 C139 C -0.01622 0.37034 0.49577
 C140 C 0.02121 0.34836 0.50998
 C141 C 0.02238 0.29951 0.51023
 C142 C 0.05099 0.27875 0.54079
 C143 C 0.05240 0.23260 0.54235
 C144 C 0.02544 0.20636 0.51291
 C145 C -0.00201 0.22725 0.48137
 C146 C -0.00375 0.27333 0.48011
 C147 C 0.02573 0.15744 0.51360
 C148 C 0.03607 0.13248 0.55135
 H149 H 0.04978 0.36743 0.52399
 H150 H 0.07199 0.29827 0.56385
 H151 H 0.07504 0.21775 0.56618
 H152 H -0.02255 0.20780 0.45789
 H153 H -0.02508 0.28830 0.45513
 H154 H 0.01437 0.14029 0.48400
 H155 H -0.04630 0.35155 0.48518
 H156 H 0.04408 0.14876 0.58211
 C157 C 0.51827 -0.01620 -0.37322
 C158 C 0.52720 0.01811 -0.34365
 C159 C 0.52305 0.01186 -0.29599
 C160 C 0.54925 0.03924 -0.26716
 C161 C 0.54531 0.03494 -0.22199
 C162 C 0.51453 0.00346 -0.20486
 C163 C 0.48773 -0.02331 -0.23376
 C164 C 0.49208 -0.01941 -0.27887
 C165 C 0.50812 -0.00079 -0.15743
 C166 C 0.54164 0.00931 -0.12541
 H167 H 0.53929 0.05044 -0.35550
 H168 H 0.57285 0.06405 -0.27963
 H169 H 0.56557 0.05704 -0.20074
 H170 H 0.46331 -0.04732 -0.22138
 H171 H 0.47038 -0.04010 -0.30024
 H172 H 0.47631 -0.01421 -0.14737
 H173 H 0.51000 -0.04941 -0.36099
 H174 H 0.57473 0.01893 -0.13474
 C175 C 0.52768 0.01809 0.37410
 C176 C 0.51531 -0.01552 0.34464
 C177 C 0.51989 -0.01017 0.29695
 C178 C 0.49203 -0.03621 0.26828
 C179 C 0.49621 -0.03273 0.22310
 C180 C 0.52882 -0.00340 0.20578
 C181 C 0.55724 0.02196 0.23452
 C182 C 0.55274 0.01885 0.27963
 C183 C 0.53535 0.00011 0.15832
 C184 C 0.50158 -0.00895 0.12627
 H185 H 0.50034 -0.04655 0.35678
 H186 H 0.46695 -0.05933 0.28089
 H187 H 0.47462 -0.05381 0.20203
 H188 H 0.58305 0.04427 0.22201
 H189 H 0.57574 0.03837 0.30082
 H190 H 0.56758 0.01221 0.14824
 H191 H 0.53912 0.05055 0.36219
 H192 H 0.46825 -0.01746 0.13552
 C193 C 0.48083 -0.37303 -0.05653
 C194 C 0.49166 -0.34806 -0.01934
 C195 C 0.49257 -0.29914 -0.01993
 C196 C 0.52014 -0.27567 0.01101
 C197 C 0.52107 -0.22944 0.01185
 C198 C 0.49390 -0.20588 -0.01803
 C199 C 0.46564 -0.22943 -0.04834
 C200 C 0.46509 -0.27559 -0.04950
 C201 C 0.49275 -0.15714 -0.01722
 C202 C 0.52856 -0.12934 -0.00220
 H203 H 0.50134 -0.36487 0.01105
 H204 H 0.54106 -0.29318 0.03457
 H205 H 0.54224 -0.21243 0.03656
 H206 H 0.44391 -0.21203 -0.07121
 H207 H 0.44236 -0.29271 -0.07285
 H208 H 0.46316 -0.14248 -0.03079
 H209 H 0.47494 -0.35664 -0.08797
 H210 H 0.55971 -0.14294 0.00802
 C211 C 0.46230 0.36622 -0.05083
 C212 C 0.47225 0.34145 -0.01289
 C213 C 0.47266 0.29260 -0.01212
 C214 C 0.50036 0.27187 0.01929
 C215 C 0.50245 0.22586 0.02039
 C216 C 0.47644 0.19964 -0.00977
 C217 C 0.44748 0.22022 -0.04012
 C218 C 0.44572 0.26630 -0.04151
 C219 C 0.47821 0.15093 -0.00983
 C220 C 0.51617 0.12952 0.00361
 H221 H 0.48339 0.35868 0.01673
 H222 H 0.52087 0.29141 0.04274
 H223 H 0.52402 0.21096 0.04520
 H224 H 0.42657 0.20061 -0.06318
 H225 H 0.42290 0.28108 -0.06521
 H226 H 0.44965 0.13155 -0.02345
 H227 H 0.45452 0.34982 -0.08156
 H228 H 0.54617 0.14868 0.01378
 C229 C -0.35031 -0.01830 0.50908
 C230 C -0.31858 0.01479 0.52223
 C231 C -0.27065 0.00898 0.52313
 C232 C -0.24226 0.03362 0.55248
 C233 C -0.19665 0.02978 0.55340
 C234 C -0.17858 0.00155 0.52447
 C235 C -0.20690 -0.02242 0.49452
 C236 C -0.25255 -0.01901 0.49399
 C237 C -0.13041 -0.00187 0.52327
 C238 C -0.10130 0.00465 0.55982
 H239 H -0.32927 0.04564 0.53389
 H240 H -0.25544 0.05593 0.57475
 H241 H -0.17565 0.04980 0.57597
 H242 H -0.19364 -0.04383 0.47146
 H243 H -0.27340 -0.03741 0.47000
 H244 H -0.11762 -0.01143 0.49289
 H245 H -0.34041 -0.05073 0.50113
 H246 H -0.11385 0.01024 0.59138
 C247 C 0.39547 0.01959 0.49510
 C248 C 0.36425 -0.01546 0.50132
 C249 C 0.31665 -0.00922 0.50309
 C250 C 0.29142 -0.03785 0.52981
 C251 C 0.24636 -0.03279 0.53256
 C252 C 0.22556 0.00063 0.50796
 C253 C 0.25047 0.02840 0.48014
 C254 C 0.29579 0.02386 0.47800
 C255 C 0.17779 0.00597 0.50983
 C256 C 0.15597 -0.00202 0.54820
 H257 H 0.37549 -0.04824 0.50878
 H258 H 0.30673 -0.06395 0.54896
 H259 H 0.22771 -0.05556 0.55331
 H260 H 0.23491 0.05392 0.46040
 H261 H 0.31422 0.04566 0.45618
 H262 H 0.15979 0.01823 0.48087
 H263 H 0.38528 0.05321 0.49179
 H264 H 0.17464 -0.00984 0.57834
 C265 C -0.00014 0.50976 1.37372
 C266 C -0.03409 0.50132 1.34176
 C267 C -0.02768 0.50494 1.29436
 C268 C -0.05648 0.47997 1.26565
 C269 C -0.05208 0.48313 1.22056
 C270 C -0.01893 0.51180 1.20329
 C271 C 0.00927 0.53750 1.23192
 C272 C 0.00518 0.53397 1.27708
 C273 C -0.01439 0.51703 1.15566
 C274 C -0.02685 0.48329 1.12642
 H275 H -0.06643 0.48956 1.35185
 H276 H -0.08249 0.45791 1.27816
 H277 H -0.07534 0.46392 1.19937
 H278 H 0.03457 0.56035 1.21928
 H279 H 0.02705 0.55476 1.29817
 H280 H 0.00057 0.54802 1.14340
 H281 H 0.03324 0.51793 1.36447
 H282 H -0.03819 0.45086 1.13849
 C283 C -0.04144 0.49029 0.62471
 C284 C -0.00765 0.49902 0.65676
 C285 C -0.01434 0.49531 0.70408
 C286 C 0.01360 0.52102 0.73293
 C287 C 0.00879 0.51785 0.77795
 C288 C -0.02387 0.48843 0.79500
 C289 C -0.05116 0.46198 0.76625
 C290 C -0.04669 0.46553 0.72115
 C291 C -0.02878 0.48319 0.84256
 C292 C -0.01777 0.51736 0.87168
 H293 H 0.02463 0.51113 0.64680
 H294 H 0.03921 0.54367 0.72056
 H295 H 0.03136 0.53767 0.79929
 H296 H -0.07605 0.43855 0.77873
 H297 H -0.06786 0.44420 0.69994
 H298 H -0.04286 0.45182 0.85484
 H299 H -0.07481 0.48188 0.63390
 H300 H -0.00740 0.55006 0.85953
   
