data_POSCAR
  _audit_creation_date              2014-09-24
  _audit_creation_method            'ToBaCCo'
  _symmetry_space_group_name_H-M    'P1'
  _symmetry_Int_Tables_number       1
  _symmetry_cell_setting            triclinic
  loop_
  _symmetry_equiv_pos_as_xyz
 x,y,z
_cell_length_a 24.5186
_cell_length_b 25.1693
_cell_length_c 25.2099
_cell_angle_alpha 89.780100
_cell_angle_beta 93.110200
_cell_angle_gamma 89.274000
loop_
  _atom_site_label
  _atom_site_type_symbol
  _atom_site_fract_x
  _atom_site_fract_y
  _atom_site_fract_z
C1 C 0.28900 0.36554 0.21361
 H2 H 0.26299 0.38577 0.24049
 C3 C 0.32415 0.39497 0.18325
 H4 H 0.32446 0.43789 0.18617
 C5 C 0.32108 0.28522 0.17675
 H6 H 0.31972 0.24233 0.17463
 C7 C 0.35661 0.31303 0.14569
 H8 H 0.38231 0.29162 0.11920
 N9 N 0.28736 0.31168 0.20904
 C10 C 0.20169 0.29527 0.34859
 H11 H 0.22645 0.26179 0.36252
 C12 C 0.17204 0.32386 0.38486
 H13 H 0.17503 0.31274 0.42648
 C14 C 0.16539 0.34922 0.27765
 H15 H 0.16262 0.35848 0.23565
 C16 C 0.13490 0.37899 0.31276
 H17 H 0.10904 0.41150 0.29781
 Zn18 Zn 0.24060 0.26865 0.24821
 N19 N 0.19896 0.30896 0.29618
 C20 C 0.32342 0.23796 0.32437
 N21 N 0.28664 0.21923 0.28680
 C22 C 0.28332 0.16635 0.27624
 C23 C 0.31538 0.12986 0.30619
 C24 C 0.35590 0.20272 0.35571
 C25 C 0.19338 0.23510 0.14773
 C26 C 0.16218 0.20144 0.11450
 C27 C 0.12476 0.16260 0.19221
 C28 C 0.15646 0.19707 0.22393
 N29 N 0.19142 0.23102 0.20149
 H30 H 0.32629 0.28030 0.33099
 H31 H 0.25576 0.15222 0.24472
 H32 H 0.31183 0.08780 0.29794
 H33 H 0.38370 0.21789 0.38674
 H34 H 0.22045 0.26309 0.13052
 H35 H 0.16574 0.20330 0.07190
 H36 H 0.09907 0.13391 0.21057
 H37 H 0.15534 0.19493 0.26673
 C38 C 0.13898 0.36685 0.36719
 C39 C 0.35777 0.36854 0.14834
 C40 C 0.12872 0.16373 0.13699
 C41 C 0.35084 0.14792 0.34756
 C42 C 0.84436 0.83777 0.23722
 H43 H 0.83897 0.84667 0.27858
 C44 C 0.87966 0.86821 0.20826
 H45 H 0.90208 0.89987 0.22816
 C46 C 0.82163 0.78510 0.16175
 H47 H 0.79820 0.75325 0.14361
 C48 C 0.85679 0.81416 0.13144
 H49 H 0.85912 0.80479 0.08971
 N50 N 0.81681 0.79675 0.21384
 C51 C 0.71815 0.80015 0.34331
 H52 H 0.73843 0.76805 0.36534
 C53 C 0.68302 0.83425 0.36889
 H54 H 0.67592 0.82806 0.41049
 C55 C 0.70155 0.84739 0.26227
 H56 H 0.70898 0.85192 0.22060
 C57 C 0.66602 0.88244 0.28633
 H58 H 0.64565 0.91399 0.26325
 Zn59 Zn 0.76906 0.75755 0.25467
 N60 N 0.72557 0.80642 0.29060
 C61 C 0.86419 0.71761 0.31170
 N62 N 0.80911 0.71300 0.30378
 C63 C 0.78131 0.67501 0.32926
 C64 C 0.80883 0.64030 0.36507
 C65 C 0.89326 0.68399 0.34758
 C66 C 0.67158 0.72911 0.19606
 C67 C 0.63832 0.69652 0.16387
 C68 C 0.71200 0.63186 0.16391
 C69 C 0.74427 0.66615 0.19523
 N70 N 0.72379 0.71388 0.21043
 H71 H 0.88568 0.74737 0.29034
 H72 H 0.73767 0.67163 0.32151
 H73 H 0.78634 0.61006 0.38498
 H74 H 0.93700 0.68832 0.35407
 H75 H 0.65556 0.76664 0.20914
 H76 H 0.59723 0.70959 0.15181
 H77 H 0.72861 0.59385 0.15222
 H78 H 0.78565 0.65465 0.20773
 C79 C 0.65579 0.87507 0.33990
 C80 C 0.88772 0.85558 0.15487
 C81 C 0.65878 0.64760 0.14689
 C82 C 0.86533 0.64526 0.37515
 C83 C 0.81712 0.31734 0.73083
 H84 H 0.82268 0.31802 0.77368
 C85 C 0.85337 0.34428 0.69973
 H86 H 0.88633 0.36663 0.71885
 C87 C 0.76723 0.28772 0.65359
 H88 H 0.73339 0.26594 0.63567
 C89 C 0.80300 0.31345 0.62103
 H90 H 0.79661 0.31101 0.57827
 N91 N 0.77541 0.28927 0.70743
 C92 C 0.64860 0.26907 0.82216
 H93 H 0.64412 0.22637 0.82174
 C94 C 0.61744 0.29979 0.85546
 H95 H 0.58927 0.28076 0.88094
 C96 C 0.69125 0.34602 0.79030
 H97 H 0.72023 0.36388 0.76507
 C98 C 0.66076 0.37829 0.82301
 H99 H 0.66662 0.42087 0.82314
 Zn100 Zn 0.73128 0.24796 0.75096
 N101 N 0.68560 0.29228 0.79129
 C102 C 0.76644 0.19686 0.84875
 N103 N 0.77836 0.20575 0.79743
 C104 C 0.82410 0.18420 0.77764
 C105 C 0.85835 0.15037 0.80887
 C106 C 0.79880 0.16245 0.88099
 C107 C 0.63260 0.20536 0.70391
 C108 C 0.60191 0.17063 0.67154
 C109 C 0.68597 0.13217 0.64272
 C110 C 0.71500 0.16647 0.67675
 N111 N 0.68816 0.20210 0.70668
 H112 H 0.73167 0.21596 0.86512
 H113 H 0.83380 0.19277 0.73719
 H114 H 0.89312 0.13239 0.79080
 H115 H 0.78858 0.15714 0.92194
 H116 H 0.61180 0.23498 0.72644
 H117 H 0.55773 0.17305 0.67042
 H118 H 0.70801 0.10488 0.61829
 H119 H 0.75911 0.16537 0.67854
 C120 C 0.62432 0.35487 0.85676
 C121 C 0.84736 0.34122 0.64409
 C122 C 0.62868 0.13297 0.64099
 C123 C 0.84459 0.13656 0.86084
 C124 C 0.33640 0.83566 0.72381
 H125 H 0.34131 0.83958 0.76651
 C126 C 0.37067 0.86309 0.69121
 H127 H 0.40226 0.88822 0.70876
 C128 C 0.28993 0.79709 0.64872
 H129 H 0.25911 0.77066 0.63236
 C130 C 0.32294 0.82420 0.61466
 H131 H 0.31697 0.81908 0.57211
 N132 N 0.29708 0.80346 0.70218
 C133 C 0.17949 0.79246 0.82362
 H134 H 0.18051 0.74995 0.83025
 C135 C 0.14477 0.82466 0.85177
 H136 H 0.11929 0.80693 0.88066
 C137 C 0.21149 0.86740 0.77777
 H138 H 0.23707 0.88368 0.74832
 C139 C 0.17696 0.90115 0.80491
 H140 H 0.17629 0.94340 0.79658
 Zn141 Zn 0.25491 0.76631 0.74972
 N142 N 0.21204 0.81415 0.78760
 C143 C 0.30807 0.74016 0.84938
 N144 N 0.30379 0.72802 0.79681
 C145 C 0.33410 0.68799 0.77670
 C146 C 0.36550 0.65443 0.81067
 C147 C 0.34072 0.70887 0.88451
 C148 C 0.16723 0.74035 0.67835
 C149 C 0.13022 0.70734 0.65070
 C150 C 0.17352 0.63167 0.69556
 C151 C 0.20914 0.66603 0.72273
 N152 N 0.20622 0.71926 0.71304
 H153 H 0.28579 0.77375 0.86425
 H154 H 0.33159 0.68049 0.73441
 H155 H 0.38684 0.62080 0.79440
 H156 H 0.34363 0.71880 0.92632
 H157 H 0.16499 0.78290 0.67215
 H158 H 0.09938 0.72447 0.62313
 H159 H 0.17686 0.58932 0.70310
 H160 H 0.23851 0.64984 0.75194
 C161 C 0.14258 0.87953 0.84179
 C162 C 0.36440 0.85685 0.63606
 C163 C 0.13310 0.65235 0.65958
 C164 C 0.36747 0.66365 0.86558
 Si165 Si 0.00149 -0.00295 -0.00057
 Si166 Si -0.00146 0.48971 0.52580
 Si167 Si 0.49651 -0.01108 0.48233
 Si168 Si 0.50431 0.50417 0.00818
 C169 C 0.09394 -0.01957 -0.06135
 C170 C 0.12634 -0.04606 -0.09674
 C171 C 0.10463 -0.08640 -0.12924
 C172 C 0.04808 -0.09700 -0.12935
 C173 C 0.01539 -0.07148 -0.09210
 C174 C 0.03938 -0.03379 -0.05614
 C175 C -0.03965 -0.08648 -0.09096
 N176 N -0.06075 -0.12210 -0.12640
 N177 N -0.03049 -0.14426 -0.16277
 C178 C 0.02314 -0.13295 -0.16547
 H179 H 0.11265 0.01070 -0.03642
 H180 H 0.16932 -0.03666 -0.09701
 H181 H -0.06610 -0.07101 -0.06208
 H182 H 0.04567 -0.15182 -0.19611
 C183 C 0.02186 0.42222 0.44162
 C184 C 0.05186 0.39622 0.40391
 C185 C 0.10884 0.39853 0.40599
 C186 C 0.13613 0.42730 0.44746
 C187 C 0.10577 0.45221 0.48730
 C188 C 0.04744 0.45204 0.48265
 C189 C 0.13567 0.47444 0.53081
 N190 N 0.19095 0.47607 0.53171
 N191 N 0.21886 0.45619 0.49243
 C192 C 0.19339 0.43178 0.45043
 H193 H -0.02228 0.41990 0.43788
 H194 H 0.03038 0.37364 0.37300
 H195 H 0.11661 0.48821 0.56545
 H196 H 0.21820 0.41606 0.41983
 C197 C 0.59657 -0.02906 0.43485
 C198 C 0.63315 -0.05517 0.40344
 C199 C 0.61477 -0.09213 0.36564
 C200 C 0.55810 -0.10086 0.35705
 C201 C 0.52065 -0.07449 0.38928
 C202 C 0.54064 -0.04036 0.43064
 C203 C 0.46483 -0.08574 0.38066
 N204 N 0.44801 -0.12045 0.34238
 N205 N 0.48324 -0.14519 0.31229
 C206 C 0.53768 -0.13685 0.31849
 H207 H 0.61296 -0.00134 0.46395
 H208 H 0.67644 -0.04773 0.40982
 H209 H 0.43435 -0.06795 0.40410
 H210 H 0.56436 -0.15852 0.29329
 C211 C 0.52508 0.45334 -0.08936
 C212 C 0.55267 0.42078 -0.12378
 C213 C 0.59550 0.38761 -0.10478
 C214 C 0.61068 0.38683 -0.04980
 C215 C 0.58272 0.42010 -0.01453
 C216 C 0.53978 0.45439 -0.03476
 C217 C 0.60001 0.41855 0.03966
 N218 N 0.64193 0.38616 0.05688
 N219 N 0.66813 0.35524 0.02368
 C220 C 0.65411 0.35458 -0.02901
 H221 H 0.49247 0.47832 -0.10626
 H222 H 0.54061 0.42159 -0.16577
 H223 H 0.58121 0.44279 0.06870
 H224 H 0.67732 0.32910 -0.05411
 C225 C -0.03339 0.07112 -0.07738
 C226 C -0.06726 0.10226 -0.11101
 C227 C -0.12445 0.10098 -0.10899
 C228 C -0.14710 0.06223 -0.07490
 C229 C -0.11198 0.02958 -0.04087
 C230 C -0.05417 0.03563 -0.04085
 C231 C -0.13638 -0.00994 -0.01082
 N232 N -0.19109 -0.01682 -0.01442
 N233 N -0.22354 0.01223 -0.04723
 C234 C -0.20346 0.05045 -0.07826
 H235 H 0.01033 0.07570 -0.07963
 H236 H -0.04771 0.13054 -0.13608
 H237 H -0.11315 -0.03786 0.01302
 H238 H -0.23178 0.06936 -0.10685
 C239 C -0.03370 0.54202 0.42891
 C240 C -0.06270 0.57734 0.39511
 C241 C -0.10463 0.60928 0.41354
 C242 C -0.11674 0.60635 0.46776
 C243 C -0.08803 0.56940 0.50215
 C244 C -0.04627 0.53620 0.48226
 C245 C -0.10193 0.56781 0.55557
 N246 N -0.14060 0.60129 0.57326
 N247 N -0.16642 0.63665 0.54126
 C248 C -0.15572 0.64047 0.48926
 H249 H -0.00040 0.52014 0.41274
 H250 H -0.05216 0.57986 0.35399
 H251 H -0.08301 0.54015 0.58351
 H252 H -0.17729 0.67068 0.46555
 C253 C 0.47048 0.07268 0.41215
 C254 C 0.43918 0.11012 0.38291
 C255 C 0.38220 0.10933 0.38217
 C256 C 0.35623 0.06969 0.41144
 C257 C 0.38798 0.02949 0.43887
 C258 C 0.44619 0.03293 0.44178
 C259 C 0.35956 -0.01309 0.46032
 N260 N 0.30424 -0.01219 0.45973
 N261 N 0.27495 0.02797 0.43822
 C262 C 0.29901 0.06888 0.41399
 H263 H 0.51456 0.07536 0.41208
 H264 H 0.45968 0.13979 0.36025
 H265 H 0.37975 -0.04844 0.47505
 H266 H 0.27312 0.10032 0.39697
 C267 C 0.48254 0.57828 -0.07476
 C268 C 0.45189 0.61300 -0.10781
 C269 C 0.39797 0.62642 -0.09734
 C270 C 0.37529 0.60534 -0.05120
 C271 C 0.40832 0.57364 -0.01509
 C272 C 0.46100 0.55626 -0.02940
 C273 C 0.38722 0.56160 0.03427
 N274 N 0.33464 0.57392 0.04357
 N275 N 0.30189 0.59842 0.00720
 C276 C 0.32032 0.61437 -0.03990
 H277 H 0.52329 0.56811 -0.08567
 H278 H 0.47046 0.62927 -0.14226
 H279 H 0.41203 0.54409 0.06626
 H280 H 0.29166 0.63370 -0.06796
 C281 C -0.04821 -0.02851 0.09320
 C282 C -0.07562 -0.05945 0.12879
 C283 C -0.07578 -0.11511 0.12475
 C284 C -0.04014 -0.13965 0.08910
 C285 C -0.01149 -0.10798 0.05307
 C286 C -0.02002 -0.05172 0.05205
 C287 C 0.02627 -0.13416 0.02172
 N288 N 0.03364 -0.18750 0.02500
 N289 N 0.00690 -0.21690 0.05860
 C290 C -0.02889 -0.19480 0.09128
 H291 H -0.05291 0.01428 0.09534
 H292 H -0.10076 -0.03915 0.15657
 H293 H 0.05295 -0.11344 -0.00281
 H294 H -0.04645 -0.22048 0.12003
 C295 C -0.10000 0.43690 0.54421
 C296 C -0.13464 0.40473 0.57180
 C297 C -0.11372 0.36860 0.61031
 C298 C -0.05634 0.36151 0.61744
 C299 C -0.02096 0.39551 0.59062
 C300 C -0.04339 0.43566 0.55563
 C301 C 0.03560 0.38902 0.60137
 N302 N 0.05517 0.34990 0.63455
 N303 N 0.02201 0.31685 0.65806
 C304 C -0.03299 0.32122 0.65057
 H305 H -0.11834 0.46459 0.51547
 H306 H -0.17836 0.40968 0.56448
 H307 H 0.06459 0.41434 0.58391
 H308 H -0.05785 0.29271 0.67005
 C309 C 0.43289 -0.03195 0.56728
 C310 C 0.40172 -0.06014 0.60177
 C311 C 0.40115 -0.11557 0.60080
 C312 C 0.43539 -0.14334 0.56662
 C313 C 0.46774 -0.11469 0.53138
 C314 C 0.46418 -0.05799 0.53001
 C315 C 0.50318 -0.14437 0.50054
 N316 N 0.50472 -0.19814 0.50346
 N317 N 0.47375 -0.22474 0.53582
 C318 C 0.43953 -0.19922 0.56779
 H319 H 0.43048 0.01106 0.56828
 H320 H 0.37649 -0.03840 0.62846
 H321 H 0.53180 -0.12620 0.47617
 H322 H 0.41678 -0.22295 0.59449
 C323 C 0.47363 0.45078 0.10206
 C324 C 0.44007 0.42171 0.13402
 C325 C 0.39215 0.39884 0.11270
 C326 C 0.37809 0.40465 0.05780
 C327 C 0.41214 0.43427 0.02503
 C328 C 0.45997 0.45890 0.04779
 C329 C 0.39601 0.43897 -0.02929
 N330 N 0.34942 0.41612 -0.04886
 N331 N 0.31748 0.38882 -0.01794
 C332 C 0.33010 0.38242 0.03466
 H333 H 0.51041 0.46707 0.12055
 H334 H 0.45169 0.41690 0.17586
 H335 H 0.41934 0.46078 -0.05661
 H336 H 0.30231 0.36024 0.05787
 C337 C 0.02631 0.09891 0.04184
 C338 C 0.05431 0.13668 0.07267
 C339 C 0.10146 0.12272 0.10339
 C340 C 0.12138 0.06974 0.10242
 C341 C 0.09307 0.03113 0.07087
 C342 C 0.04498 0.04597 0.03976
 C343 C 0.11426 -0.02108 0.07193
 N344 N 0.16040 -0.03339 0.10174
 N345 N 0.18705 0.00297 0.13080
 C346 C 0.16923 0.05407 0.13209
 H347 H -0.01101 0.11153 0.02051
 H348 H 0.03841 0.17702 0.07340
 H349 H 0.09526 -0.05221 0.04904
 H350 H 0.19278 0.08194 0.15616
 C351 C 0.06224 0.57838 0.54718
 C352 C 0.09331 0.61540 0.57572
 C353 C 0.09454 0.61609 0.63113
 C354 C 0.06085 0.58094 0.65822
 C355 C 0.02905 0.54275 0.62925
 C356 C 0.03190 0.53994 0.57284
 C357 C -0.00509 0.51039 0.65831
 N358 N -0.00637 0.51509 0.71176
 N359 N 0.02370 0.55055 0.73861
 C360 C 0.05686 0.58390 0.71367
 H361 H 0.06406 0.57837 0.50432
 H362 H 0.11820 0.64258 0.55435
 H363 H -0.03284 0.48318 0.63981
 H364 H 0.07887 0.61307 0.73744
 C365 C 0.52782 0.08471 0.53421
 C366 C 0.55670 0.11706 0.57015
 C367 C 0.59700 0.09586 0.60588
 C368 C 0.60721 0.04029 0.60616
 C369 C 0.58003 0.00765 0.56748
 C370 C 0.53964 0.03020 0.53096
 C371 C 0.59413 -0.04674 0.56739
 N372 N 0.63017 -0.06721 0.60492
 N373 N 0.65332 -0.03703 0.64278
 C374 C 0.64290 0.01585 0.64486
 H375 H 0.49581 0.10308 0.50919
 H376 H 0.54757 0.15930 0.56982
 H377 H 0.57751 -0.07327 0.53774
 H378 H 0.66202 0.03798 0.67729
 C379 C 0.53943 0.56621 0.09582
 C380 C 0.57345 0.59812 0.12763
 C381 C 0.62450 0.61337 0.11116
 C382 C 0.64068 0.59763 0.06040
 C383 C 0.60638 0.56419 0.02804
 C384 C 0.55573 0.54657 0.04711
 C385 C 0.62379 0.55160 -0.02285
 N386 N 0.67154 0.57035 -0.03949
 N387 N 0.70324 0.60167 -0.00919
 C388 C 0.68927 0.61631 0.03988
 H389 H 0.49964 0.55729 0.10973
 H390 H 0.55963 0.61124 0.16559
 H391 H 0.60009 0.52841 -0.05064
 H392 H 0.71588 0.64331 0.06168
   
