data_POSCAR
  _audit_creation_date              2014-09-24
  _audit_creation_method            'ToBaCCo'
  _symmetry_space_group_name_H-M    'P1'
  _symmetry_Int_Tables_number       1
  _symmetry_cell_setting            triclinic
  loop_
  _symmetry_equiv_pos_as_xyz
 x,y,z
_cell_length_a 60.6631
_cell_length_b 59.6269
_cell_length_c 60.8404
_cell_angle_alpha 89.714000
_cell_angle_beta 89.735500
_cell_angle_gamma 90.059300
loop_
  _atom_site_label
  _atom_site_type_symbol
  _atom_site_fract_x
  _atom_site_fract_y
  _atom_site_fract_z
N1 N 0.60045 0.66137 0.61540
 N2 N 0.59217 0.65245 0.63346
 C3 C 0.57426 0.66427 0.63960
 C4 C 0.57133 0.68137 0.62459
 C5 C 0.58813 0.67915 0.60945
 H6 H 0.56410 0.66075 0.65386
 H7 H 0.59114 0.68966 0.59520
 Cu8 Cu 0.60557 0.62628 0.64714
 Cu9 Cu 0.62652 0.64928 0.60095
 Cu10 Cu 0.65024 0.60210 0.62449
 N11 N 0.61878 0.59951 0.65987
 N12 N 0.63626 0.59013 0.65092
 C13 C 0.64200 0.57199 0.66286
 C14 C 0.62729 0.57003 0.68009
 C15 C 0.61276 0.58763 0.67783
 H16 H 0.65577 0.56108 0.65928
 H17 H 0.59892 0.59143 0.68843
 N18 N 0.66199 0.61665 0.59774
 N19 N 0.65295 0.63463 0.58877
 C20 C 0.66470 0.64056 0.57081
 C21 C 0.68182 0.62560 0.56849
 C22 C 0.67973 0.61067 0.58571
 H23 H 0.66114 0.65468 0.56019
 H24 H 0.69037 0.59657 0.58918
 H25 H 0.62207 0.61667 0.61182
 H26 H 0.64034 0.63497 0.62865
 N27 N 0.90002 0.34021 0.11430
 N28 N 0.90880 0.34965 0.13170
 C29 C 0.92665 0.33777 0.13787
 C30 C 0.92900 0.32011 0.12353
 C31 C 0.91195 0.32204 0.10877
 H32 H 0.93711 0.34161 0.15170
 H33 H 0.90847 0.31108 0.09510
 Cu34 Cu 0.89604 0.37648 0.14460
 Cu35 Cu 0.87379 0.35215 0.10013
 Cu36 Cu 0.85017 0.39945 0.12330
 N37 N 0.88230 0.40272 0.15769
 N38 N 0.86437 0.41162 0.14927
 C39 C 0.85834 0.42945 0.16139
 C40 C 0.87330 0.43172 0.17821
 C41 C 0.88828 0.41459 0.17550
 H42 H 0.84417 0.43996 0.15824
 H43 H 0.90240 0.41110 0.18573
 N44 N 0.83823 0.38470 0.09700
 N45 N 0.84723 0.36667 0.08817
 C46 C 0.83537 0.36063 0.07048
 C47 C 0.81823 0.37556 0.06819
 C48 C 0.82042 0.39059 0.08515
 H49 H 0.83890 0.34646 0.06001
 H50 H 0.80981 0.40473 0.08854
 H51 H 0.87805 0.38505 0.10977
 H52 H 0.86077 0.36684 0.12804
 N53 N 0.39911 0.16083 -0.11430
 N54 N 0.40743 0.15201 -0.13229
 C55 C 0.42546 0.16379 -0.13836
 C56 C 0.42842 0.18075 -0.12336
 C57 C 0.41152 0.17850 -0.10831
 H58 H 0.43567 0.16034 -0.15256
 H59 H 0.40848 0.18892 -0.09412
 Cu60 Cu 0.39392 0.12603 -0.14600
 Cu61 Cu 0.37284 0.14880 -0.10000
 Cu62 Cu 0.34891 0.10194 -0.12357
 N63 N 0.38060 0.09942 -0.15872
 N64 N 0.36299 0.09008 -0.14987
 C65 C 0.35722 0.07205 -0.16178
 C66 C 0.37202 0.07008 -0.17891
 C67 C 0.38664 0.08760 -0.17658
 H68 H 0.34335 0.06118 -0.15827
 H69 H 0.40060 0.09137 -0.18710
 N70 N 0.33708 0.11637 -0.09695
 N71 N 0.34621 0.13422 -0.08796
 C72 C 0.33438 0.14009 -0.07010
 C73 C 0.31713 0.12523 -0.06786
 C74 C 0.31921 0.11042 -0.08503
 H75 H 0.33799 0.15411 -0.05949
 H76 H 0.30849 0.09640 -0.08854
 H77 H 0.37711 0.11623 -0.11076
 H78 H 0.35909 0.13477 -0.12776
 N79 N 0.10316 0.83584 0.38393
 N80 N 0.09665 0.84314 0.36458
 C81 C 0.07890 0.83128 0.35821
 C82 C 0.07422 0.81580 0.37448
 C83 C 0.08981 0.81903 0.39056
 H84 H 0.07011 0.83372 0.34296
 H85 H 0.09135 0.80986 0.40587
 Cu86 Cu 0.11195 0.86732 0.34939
 Cu87 Cu 0.12849 0.84860 0.39895
 Cu88 Cu 0.15172 0.89610 0.37548
 N89 N 0.12255 0.89603 0.33843
 N90 N 0.13810 0.90723 0.34864
 C91 C 0.14235 0.92633 0.33749
 C92 C 0.12869 0.92701 0.31946
 C93 C 0.11633 0.90762 0.32045
 H94 H 0.15445 0.93876 0.34211
 H95 H 0.10380 0.90237 0.30897
 N96 N 0.16309 0.88215 0.40257
 N97 N 0.15422 0.86401 0.41152
 C98 C 0.16571 0.85843 0.42964
 C99 C 0.18247 0.87380 0.43208
 C100 C 0.18045 0.88859 0.41475
 H101 H 0.16227 0.84421 0.44021
 H102 H 0.19094 0.90285 0.41125
 H103 H 0.12312 0.88006 0.38552
 H104 H 0.14469 0.86233 0.37205
 C105 C 0.10699 0.14091 0.12595
 N106 N 0.10707 0.12485 0.14183
 C107 C 0.12299 0.10888 0.14189
 N108 N 0.13883 0.10898 0.12606
 C109 C 0.13876 0.12504 0.11019
 N110 N 0.12284 0.14101 0.11013
 C111 C 0.39044 0.85939 0.62626
 N112 N 0.37469 0.85938 0.61050
 C113 C 0.35866 0.87523 0.61064
 N114 N 0.35838 0.89111 0.62655
 C115 C 0.37414 0.89112 0.64231
 N116 N 0.39017 0.87527 0.64216
 C117 C 0.89128 0.64145 0.37382
 N118 N 0.89093 0.62565 0.35786
 C119 C 0.87474 0.60992 0.35771
 N120 N 0.85892 0.60999 0.37354
 C121 C 0.85926 0.62579 0.38952
 N122 N 0.87545 0.64152 0.38966
 C123 C 0.60932 0.35915 -0.12496
 N124 N 0.62506 0.35915 -0.10918
 C125 C 0.64102 0.37511 -0.10937
 N126 N 0.64124 0.39108 -0.12534
 C127 C 0.62550 0.39109 -0.14112
 N128 N 0.60954 0.37513 -0.14092
 C129 C -0.05510 0.30407 0.12387
 C130 C -0.04100 0.28984 0.12415
 C131 C -0.02416 0.27287 0.12448
 C132 C -0.00286 0.27816 0.13152
 C133 C 0.01353 0.26169 0.13179
 C134 C 0.00880 0.23967 0.12503
 C135 C -0.01268 0.23452 0.11800
 C136 C -0.02903 0.25102 0.11772
 C137 C 0.02621 0.22217 0.12527
 C138 C 0.02133 0.20018 0.13228
 C139 C 0.03772 0.18371 0.13247
 C140 C 0.05918 0.18898 0.12565
 C141 C 0.06421 0.21079 0.11866
 C142 C 0.04785 0.22729 0.11847
 C143 C 0.07603 0.17201 0.12579
 C144 C 0.09016 0.15780 0.12588
 H145 H 0.00107 0.29500 0.13684
 H146 H 0.02981 0.26611 0.13756
 H147 H -0.01675 0.21781 0.11243
 H148 H -0.04545 0.24676 0.11218
 H149 H 0.00491 0.19578 0.13788
 H150 H 0.03367 0.16689 0.13797
 H151 H 0.08075 0.21503 0.11328
 H152 H 0.05205 0.24397 0.11272
 C153 C 0.55430 0.69808 0.62471
 C154 C 0.54001 0.71211 0.62482
 C155 C 0.52295 0.72887 0.62496
 C156 C 0.52688 0.75001 0.61565
 C157 C 0.51034 0.76632 0.61580
 C158 C 0.48961 0.76167 0.62527
 C159 C 0.48583 0.74035 0.63458
 C160 C 0.50241 0.72407 0.63442
 C161 C 0.47203 0.77898 0.62545
 C162 C 0.44998 0.77309 0.62125
 C163 C 0.43344 0.78941 0.62141
 C164 C 0.43870 0.81180 0.62578
 C165 C 0.46057 0.81783 0.62999
 C166 C 0.47714 0.80155 0.62981
 C167 C 0.42167 0.82858 0.62595
 C168 C 0.40741 0.84264 0.62610
 H169 H 0.54272 0.75388 0.60823
 H170 H 0.51367 0.78246 0.60825
 H171 H 0.47016 0.73635 0.64224
 H172 H 0.49921 0.70778 0.64174
 H173 H 0.44556 0.75593 0.61755
 H174 H 0.41657 0.78457 0.61808
 H175 H 0.46481 0.83511 0.63345
 H176 H 0.49390 0.80656 0.63339
 C177 C 1.05773 0.80036 0.37455
 C178 C 1.04314 0.78661 0.37460
 C179 C 1.02577 0.77016 0.37464
 C180 C 1.02995 0.74828 0.38191
 C181 C 1.01313 0.73224 0.38187
 C182 C 0.99186 0.73789 0.37456
 C183 C 0.98782 0.75995 0.36732
 C184 C 1.00467 0.77596 0.36735
 C185 C 0.97400 0.72083 0.37445
 C186 C 0.95242 0.72655 0.38091
 C187 C 0.93563 0.71047 0.38081
 C188 C 0.94016 0.68849 0.37423
 C189 C 0.96154 0.68263 0.36776
 C190 C 0.97836 0.69868 0.36787
 C191 C 0.92287 0.67194 0.37411
 C192 C 0.90843 0.65804 0.37399
 H193 H 1.04621 0.74362 0.38764
 H194 H 1.01669 0.71549 0.38782
 H195 H 0.97171 0.76474 0.36133
 H196 H 1.00127 0.79283 0.36163
 H197 H 0.94860 0.74338 0.38633
 H198 H 0.91914 0.71517 0.38590
 H199 H 0.96521 0.66568 0.36258
 H200 H 0.99472 0.69382 0.36253
 C201 C 0.44554 0.19741 -0.12345
 C202 C 0.45989 0.21140 -0.12355
 C203 C 0.47700 0.22813 -0.12370
 C204 C 0.48468 0.23700 -0.14365
 C205 C 0.50125 0.25331 -0.14383
 C206 C 0.51039 0.26096 -0.12400
 C207 C 0.50258 0.25191 -0.10403
 C208 C 0.48599 0.23561 -0.10390
 C209 C 0.52796 0.27833 -0.12417
 C210 C 0.54596 0.27673 -0.10973
 C211 C 0.56247 0.29310 -0.10990
 C212 C 0.56123 0.31129 -0.12446
 C213 C 0.54340 0.31304 -0.13888
 C214 C 0.52687 0.29669 -0.13876
 C215 C 0.57822 0.32815 -0.12461
 C216 C 0.59243 0.34229 -0.12476
 H217 H 0.47788 0.23128 -0.15908
 H218 H 0.50712 0.25973 -0.15947
 H219 H 0.50907 0.25765 -0.08849
 H220 H 0.48012 0.22890 -0.08835
 H221 H 0.54741 0.26266 -0.09851
 H222 H 0.57623 0.29154 -0.09870
 H223 H 0.54224 0.32709 -0.15018
 H224 H 0.51309 0.29855 -0.14986
 C225 C 0.12775 -0.05577 0.30291
 C226 C 0.12701 -0.04134 0.28899
 C227 C 0.12621 -0.02413 0.27234
 C228 C 0.13728 -0.00380 0.27547
 C229 C 0.13664 0.01287 0.25924
 C230 C 0.12491 0.00940 0.23964
 C231 C 0.11381 -0.01109 0.23668
 C232 C 0.11446 -0.02773 0.25294
 C233 C 0.12435 0.02704 0.22233
 C234 C 0.12609 0.02129 0.19998
 C235 C 0.12569 0.03792 0.18370
 C236 C 0.12353 0.06049 0.18952
 C237 C 0.12174 0.06638 0.21168
 C238 C 0.12215 0.04979 0.22800
 C239 C 0.12326 0.07759 0.17274
 C240 C 0.12310 0.09189 0.15867
 H241 H 0.14649 -0.00087 0.29040
 H242 H 0.14559 0.02834 0.26188
 H243 H 0.10441 -0.01415 0.22191
 H244 H 0.10579 -0.04339 0.25038
 H245 H 0.12809 0.00397 0.19510
 H246 H 0.12716 0.03317 0.16659
 H247 H 0.12000 0.08381 0.21636
 H248 H 0.12048 0.05473 0.24503
 C249 C 0.62715 0.55401 -0.30395
 C250 C 0.62701 0.53980 -0.28978
 C251 C 0.62685 0.52286 -0.27285
 C252 C 0.61110 0.52362 -0.25599
 C253 C 0.61092 0.50717 -0.23954
 C254 C 0.62653 0.48972 -0.23972
 C255 C 0.64230 0.48912 -0.25675
 C256 C 0.64243 0.50558 -0.27320
 C257 C 0.62636 0.47224 -0.22224
 C258 C 0.64625 0.46432 -0.21327
 C259 C 0.64607 0.44787 -0.19681
 C260 C 0.62605 0.43912 -0.18911
 C261 C 0.60618 0.44687 -0.19792
 C262 C 0.60632 0.46333 -0.21437
 C263 C 0.62588 0.42218 -0.17217
 C264 C 0.62572 0.40799 -0.15799
 H265 H 0.59900 0.53696 -0.25553
 H266 H 0.59876 0.50826 -0.22650
 H267 H 0.65434 0.47575 -0.25752
 H268 H 0.65466 0.50479 -0.28621
 H269 H 0.66192 0.47105 -0.21877
 H270 H 0.66154 0.44203 -0.19005
 H271 H 0.59059 0.44016 -0.19212
 H272 H 0.59076 0.46887 -0.22114
 C273 C 0.37219 1.05324 0.80431
 C274 C 0.37235 1.03910 0.79022
 C275 C 0.37254 1.02223 0.77339
 C276 C 0.39021 1.02101 0.75857
 C277 C 0.39042 1.00463 0.74221
 C278 C 0.37291 0.98924 0.74045
 C279 C 0.35522 0.99061 0.75543
 C280 C 0.35506 1.00700 0.77178
 C281 C 0.37311 0.97184 0.72306
 C282 C 0.35368 0.96641 0.71169
 C283 C 0.35389 0.95005 0.69532
 C284 C 0.37348 0.93888 0.69009
 C285 C 0.39289 0.94413 0.70130
 C286 C 0.39273 0.96051 0.71767
 C287 C 0.37369 0.92203 0.67323
 C288 C 0.37388 0.90792 0.65911
 H289 H 0.40380 1.03275 0.75963
 H290 H 0.40412 1.00419 0.73076
 H291 H 0.34166 0.97883 0.75468
 H292 H 0.34133 1.00775 0.78321
 H293 H 0.33839 0.97504 0.71526
 H294 H 0.33878 0.94615 0.68670
 H295 H 0.40814 0.93554 0.69743
 H296 H 0.40788 0.96409 0.72631
 C297 C 0.87328 0.44847 0.19508
 C298 C 0.87328 0.46254 0.20925
 C299 C 0.87331 0.47932 0.22616
 C300 C 0.86642 0.50120 0.22140
 C301 C 0.86650 0.51753 0.23781
 C302 C 0.87345 0.51218 0.25923
 C303 C 0.88032 0.49012 0.26386
 C304 C 0.88025 0.47382 0.24742
 C305 C 0.87358 0.52952 0.27667
 C306 C 0.86673 0.52420 0.29821
 C307 C 0.86690 0.54053 0.31462
 C308 C 0.87392 0.56237 0.30975
 C309 C 0.88075 0.56783 0.28838
 C310 C 0.88058 0.55154 0.27194
 C311 C 0.87417 0.57914 0.32667
 C312 C 0.87441 0.59319 0.34084
 H313 H 0.86096 0.50562 0.20501
 H314 H 0.86084 0.53427 0.23380
 H315 H 0.88604 0.48555 0.28010
 H316 H 0.88568 0.45695 0.25127
 H317 H 0.86098 0.50749 0.30230
 H318 H 0.86152 0.53613 0.33110
 H319 H 0.88628 0.58467 0.28445
 H320 H 0.88622 0.55608 0.25560
 C321 C 0.30038 0.12521 -0.05111
 C322 C 0.28631 0.12520 -0.03705
 C323 C 0.26951 0.12519 -0.02027
 C324 C 0.27082 0.14020 -0.00272
 C325 C 0.25449 0.14022 0.01358
 C326 C 0.23663 0.12519 0.01253
 C327 C 0.23548 0.11016 -0.00519
 C328 C 0.25181 0.11018 -0.02147
 C329 C 0.21928 0.12519 0.02984
 C330 C 0.21046 0.10487 0.03783
 C331 C 0.19414 0.10489 0.05413
 C332 C 0.18640 0.12518 0.06264
 C333 C 0.19505 0.14548 0.05481
 C334 C 0.21139 0.14551 0.03852
 C335 C 0.16959 0.12517 0.07941
 C336 C 0.15551 0.12513 0.09346
 H337 H 0.28448 0.15185 -0.00160
 H338 H 0.25600 0.15179 0.02715
 H339 H 0.22180 0.09859 -0.00661
 H340 H 0.25061 0.09853 -0.03503
 H341 H 0.21640 0.08896 0.03170
 H342 H 0.18760 0.08908 0.06013
 H343 H 0.18913 0.16129 0.06124
 H344 H 0.21763 0.16142 0.03252
 C345 C 0.69847 0.62562 0.55163
 C346 C 0.71245 0.62564 0.53749
 C347 C 0.72915 0.62567 0.52061
 C348 C 0.72404 0.63286 0.49931
 C349 C 0.74026 0.63291 0.48291
 C350 C 0.76184 0.62576 0.48762
 C351 C 0.76680 0.61857 0.50910
 C352 C 0.75056 0.61852 0.52547
 C353 C 0.77909 0.62581 0.47021
 C354 C 0.80073 0.63274 0.47494
 C355 C 0.81696 0.63276 0.45855
 C356 C 0.81180 0.62586 0.43723
 C357 C 0.79033 0.61894 0.43235
 C358 C 0.77407 0.61892 0.44871
 C359 C 0.82853 0.62585 0.42038
 C360 C 0.84256 0.62583 0.40628
 H361 H 0.70754 0.63849 0.49539
 H362 H 0.73599 0.63881 0.46662
 H363 H 0.78318 0.61270 0.51317
 H364 H 0.75467 0.61286 0.54189
 H365 H 0.80504 0.63841 0.49124
 H366 H 0.83351 0.63821 0.46249
 H367 H 0.78617 0.61350 0.41592
 H368 H 0.75764 0.61322 0.44463
 C369 C 0.80153 0.37549 0.05154
 C370 C 0.78753 0.37543 0.03755
 C371 C 0.77081 0.37537 0.02085
 C372 C 0.76875 0.35700 0.00678
 C373 C 0.75253 0.35693 -0.00947
 C374 C 0.73815 0.37528 -0.01188
 C375 C 0.74037 0.39367 0.00236
 C376 C 0.75659 0.39370 0.01861
 C377 C 0.72093 0.37524 -0.02915
 C378 C 0.71636 0.39484 -0.04128
 C379 C 0.70016 0.39478 -0.05755
 C380 C 0.68830 0.37516 -0.06191
 C381 C 0.69271 0.35559 -0.04994
 C382 C 0.70892 0.35560 -0.03367
 C383 C 0.67162 0.37513 -0.07865
 C384 C 0.65765 0.37511 -0.09268
 H385 H 0.77972 0.34276 0.00833
 H386 H 0.75143 0.34266 -0.02035
 H387 H 0.72937 0.40791 0.00112
 H388 H 0.75800 0.40798 0.02945
 H389 H 0.72551 0.41013 -0.03839
 H390 H 0.69692 0.41001 -0.06676
 H391 H 0.68359 0.34033 -0.05314
 H392 H 0.71185 0.34034 -0.02444
 C393 C 0.19892 0.87410 0.44898
 C394 C 0.21276 0.87433 0.46313
 C395 C 0.22932 0.87458 0.47998
 C396 C 0.22401 0.86778 0.50141
 C397 C 0.24012 0.86794 0.51778
 C398 C 0.26178 0.87489 0.51290
 C399 C 0.26694 0.88170 0.49130
 C400 C 0.25080 0.88155 0.47497
 C401 C 0.27893 0.87498 0.53025
 C402 C 0.30053 0.86782 0.52554
 C403 C 0.31666 0.86790 0.54188
 C404 C 0.31144 0.87514 0.56312
 C405 C 0.29001 0.88230 0.56797
 C406 C 0.27385 0.88222 0.55166
 C407 C 0.32807 0.87520 0.57991
 C408 C 0.34202 0.87522 0.59396
 H409 H 0.20744 0.86229 0.50546
 H410 H 0.23570 0.86232 0.53417
 H411 H 0.28338 0.88742 0.48709
 H412 H 0.25507 0.88690 0.45844
 H413 H 0.30489 0.86188 0.50930
 H414 H 0.33319 0.86226 0.53796
 H415 H 0.28581 0.88799 0.58435
 H416 H 0.25745 0.88810 0.55573
   
