data_POSCAR
  _audit_creation_date              2014-09-24
  _audit_creation_method            'ToBaCCo'
  _symmetry_space_group_name_H-M    'P1'
  _symmetry_Int_Tables_number       1
  _symmetry_cell_setting            triclinic
  loop_
  _symmetry_equiv_pos_as_xyz
 x,y,z
_cell_length_a 71.1049
_cell_length_b 71.0986
_cell_length_c 23.9984
_cell_angle_alpha 89.982900
_cell_angle_beta 90.021500
_cell_angle_gamma 119.987900
loop_
  _atom_site_label
  _atom_site_type_symbol
  _atom_site_fract_x
  _atom_site_fract_y
  _atom_site_fract_z
O1 O 0.21764 0.47433 0.44647
 O2 O 0.25430 0.47393 0.55454
 O3 O 0.21775 0.47427 0.55491
 O4 O 0.25427 0.47413 0.44609
 O5 O 0.27230 0.50994 0.44650
 O6 O 0.23593 0.51009 0.55504
 O7 O 0.27249 0.50971 0.55430
 O8 O 0.23568 0.51015 0.44717
 Cu9 Cu 0.23417 0.47057 0.50048
 Cu10 Cu 0.25590 0.51355 0.50080
 C11 C 0.22024 0.49233 0.42879
 C12 C 0.26989 0.49177 0.57251
 C13 C 0.22047 0.49224 0.57317
 C14 C 0.26969 0.49204 0.42810
 O15 O 0.52431 -0.25633 0.44522
 O16 O 0.52411 -0.21962 0.55334
 O17 O 0.52424 -0.25628 0.55368
 O18 O 0.52408 -0.21974 0.44495
 O19 O 0.48826 -0.23779 0.44513
 O20 O 0.48846 -0.27434 0.55330
 O21 O 0.48830 -0.23764 0.55301
 O22 O 0.48853 -0.27442 0.44552
 Cu23 Cu 0.52777 -0.23619 0.49931
 Cu24 Cu 0.48482 -0.25785 0.49924
 C25 C 0.50645 -0.27187 0.42723
 C26 C 0.50615 -0.22220 0.57121
 C27 C 0.50636 -0.27177 0.57171
 C28 C 0.50612 -0.22238 0.42688
 O29 O 1.25547 0.78214 0.44675
 O30 O 1.21837 0.74539 0.55454
 O31 O 1.25526 0.78194 0.55516
 O32 O 1.21865 0.74553 0.44608
 O33 O 1.23642 0.72748 0.44640
 O34 O 1.27289 0.76374 0.55524
 O35 O 1.23593 0.72717 0.55421
 O36 O 1.27324 0.76409 0.44739
 Cu37 Cu 1.23516 0.76557 0.50062
 Cu38 Cu 1.25639 0.74381 0.50086
 C39 C 1.27086 0.77954 0.42908
 C40 C 1.22059 0.72977 0.57240
 C41 C 1.27050 0.77920 0.57341
 C42 C 1.22116 0.73014 0.42797
 O43 O 0.78030 0.52674 0.44631
 O44 O 0.74334 0.52673 0.55397
 O45 O 0.78004 0.52669 0.55472
 O46 O 0.74350 0.52659 0.44553
 O47 O 0.72572 0.49077 0.44578
 O48 O 0.76208 0.49087 0.55476
 O49 O 0.72535 0.49095 0.55356
 O50 O 0.76251 0.49092 0.44691
 Cu51 Cu 0.76359 0.53028 0.50013
 Cu52 Cu 0.74213 0.48730 0.50029
 C53 C 0.77788 0.50881 0.42865
 C54 C 0.72779 0.50884 0.57177
 C55 C 0.77744 0.50876 0.57297
 C56 C 0.72821 0.50862 0.42737
 O57 O 0.47496 0.21916 0.55450
 O58 O 0.47503 0.25616 0.44679
 O59 O 0.47518 0.21951 0.44608
 O60 O 0.47500 0.25590 0.55520
 O61 O 0.51082 0.27375 0.55543
 O62 O 0.51100 0.23752 0.44649
 O63 O 0.51084 0.27419 0.44755
 O64 O 0.51073 0.23693 0.55427
 Cu65 Cu 0.47145 0.23589 0.50061
 Cu66 Cu 0.51442 0.25739 0.50098
 C67 C 0.49284 0.22149 0.57240
 C68 C 0.49296 0.27168 0.42921
 C69 C 0.49315 0.22216 0.42805
 C70 C 0.49291 0.27121 0.57356
 O71 O 0.74738 0.21619 0.44772
 O72 O 0.78494 0.25278 0.55490
 O73 O 0.74747 0.21663 0.55637
 O74 O 0.78491 0.25224 0.44795
 O75 O 0.76788 0.27106 0.44653
 O76 O 0.73031 0.23529 0.55474
 O77 O 0.76763 0.27125 0.55530
 O78 O 0.73045 0.23506 0.44701
 Cu79 Cu 0.76779 0.23249 0.50183
 Cu80 Cu 0.74740 0.25508 0.50076
 C81 C 0.73236 0.21926 0.42935
 C82 C 0.78293 0.26849 0.57303
 C83 C 0.73234 0.21971 0.57371
 C84 C 0.78303 0.26796 0.42945
 N85 N 1.02257 0.53324 0.09714
 N86 N 1.03917 0.54371 0.13123
 N87 N 0.97678 0.52361 0.05939
 N88 N 0.96035 0.52705 0.06716
 N89 N 0.97686 0.51048 0.09776
 N90 N 0.96043 0.50450 0.13234
 N91 N 1.02247 0.54642 0.05899
 N92 N 1.03897 0.56628 0.06631
 C93 C 1.04926 0.56431 0.11157
 C94 C 0.95027 0.51497 0.11285
 N95 N 0.97671 0.51022 -0.09925
 N96 N 0.96018 0.50415 -0.13358
 N97 N 1.02238 0.54627 -0.06113
 N98 N 1.03881 0.56613 -0.06891
 N99 N 1.02244 0.53300 -0.09906
 N100 N 1.03896 0.54342 -0.13343
 N101 N 0.97672 0.52346 -0.06105
 N102 N 0.96026 0.52686 -0.06866
 Mn103 Mn 0.99957 0.53518 -0.00096
 C104 C 0.95007 0.51467 -0.11408
 C105 C 1.04904 0.56408 -0.11418
 N106 N 0.97682 0.47002 0.09861
 N107 N 0.96125 0.45941 0.13538
 N108 N 1.02210 0.47928 0.05965
 N109 N 1.03844 0.47568 0.06726
 N110 N 1.02241 0.49275 0.09753
 N111 N 1.03896 0.49875 0.13172
 N112 N 0.97632 0.45682 0.05967
 N113 N 0.96019 0.43688 0.06847
 Mn114 Mn 0.99968 0.50165 0.09836
 C115 C 0.95092 0.43879 0.11583
 C116 C 1.04884 0.48798 0.11240
 N117 N 1.02226 0.49247 -0.09869
 N118 N 1.03883 0.49845 -0.13277
 N119 N 0.97620 0.45665 -0.06016
 N120 N 0.96013 0.43665 -0.06870
 N121 N 0.97667 0.46971 -0.09949
 N122 N 0.96116 0.45893 -0.13634
 N123 N 1.02199 0.47911 -0.06051
 N124 N 1.03837 0.47555 -0.06780
 Mn125 Mn 0.99953 0.50138 -0.09975
 Mn126 Mn 0.99913 0.46771 -0.00034
 Cl127 Cl 0.99947 0.50147 -0.00068
 C128 C 1.04874 0.48776 -0.11307
 C129 C 0.95088 0.43837 -0.11634
 N130 N 0.46708 0.49105 0.09732
 N131 N 0.45661 0.49713 0.13159
 N132 N 0.47691 0.45506 0.05951
 N133 N 0.47364 0.43525 0.06737
 N134 N 0.49014 0.46839 0.09752
 N135 N 0.49634 0.45808 0.13200
 N136 N 0.45386 0.47771 0.05933
 N137 N 0.43397 0.47423 0.06697
 C138 C 0.43597 0.48650 0.11223
 C139 C 0.48592 0.43741 0.11278
 N140 N 0.48996 0.46816 -0.09902
 N141 N 0.49618 0.45777 -0.13312
 N142 N 0.45375 0.47758 -0.06090
 N143 N 0.43384 0.47406 -0.06850
 N144 N 0.46691 0.49085 -0.09909
 N145 N 0.45638 0.49685 -0.13343
 N146 N 0.47680 0.45495 -0.06074
 N147 N 0.47360 0.43515 -0.06801
 Mn148 Mn 0.46508 0.46607 -0.00070
 C149 C 0.48583 0.43719 -0.11336
 C150 C 0.43576 0.48624 -0.11392
 N151 N 0.53041 0.50889 0.09712
 N152 N 0.54093 0.50287 0.13141
 N153 N 0.52057 0.54479 0.05877
 N154 N 0.52397 0.56465 0.06641
 N155 N 0.50736 0.53157 0.09697
 N156 N 0.50129 0.54202 0.13135
 N157 N 0.54356 0.52211 0.05884
 N158 N 0.56345 0.52556 0.06630
 Mn159 Mn 0.49875 0.49998 0.09786
 C160 C 0.56152 0.51340 0.11175
 C161 C 0.51178 0.56264 0.11184
 N162 N 0.50721 0.53137 -0.09944
 N163 N 0.50107 0.54176 -0.13384
 N164 N 0.54347 0.52198 -0.06138
 N165 N 0.56338 0.52554 -0.06921
 N166 N 0.53025 0.50866 -0.09940
 N167 N 0.54074 0.50267 -0.13386
 N168 N 0.52047 0.54465 -0.06141
 N169 N 0.52384 0.56449 -0.06915
 Mn170 Mn 0.49858 0.49976 -0.09988
 Mn171 Mn 0.53227 0.53363 -0.00129
 Cl172 Cl 0.49867 0.49986 -0.00101
 C173 C 0.51158 0.56241 -0.11449
 C174 C 0.56140 0.51333 -0.11458
 N175 N 0.45556 -0.02212 0.05999
 N176 N 0.43566 -0.03851 0.06765
 N177 N 0.49192 0.02349 0.09805
 N178 N 0.49810 0.04003 0.13240
 N179 N 0.47870 0.02355 0.05995
 N180 N 0.47542 0.04009 0.06756
 N181 N 0.46875 -0.02223 0.09813
 N182 N 0.45825 -0.03873 0.13250
 C183 C 0.43762 -0.04875 0.11307
 C184 C 0.48767 0.05024 0.11292
 N185 N 0.54528 0.02288 0.05997
 N186 N 0.56527 0.03906 0.06793
 N187 N 0.50892 -0.02264 0.09809
 N188 N 0.50265 -0.03923 0.13233
 N189 N 0.52205 -0.02279 0.05987
 N190 N 0.52519 -0.03942 0.06733
 N191 N 0.53215 0.02309 0.09808
 N192 N 0.54278 0.03946 0.13276
 Mn193 Mn 0.50044 0.00044 0.09872
 C194 C 0.56343 0.04930 0.11349
 C195 C 0.51294 -0.04955 0.11272
 N196 N 0.47868 0.02360 -0.06024
 N197 N 0.47530 0.04007 -0.06804
 N198 N 0.46871 -0.02218 -0.09849
 N199 N 0.45819 -0.03872 -0.13274
 N200 N 0.45556 -0.02207 -0.06028
 N201 N 0.43567 -0.03849 -0.06775
 N202 N 0.49191 0.02356 -0.09833
 N203 N 0.49801 0.04006 -0.13280
 Mn204 Mn 0.46687 0.00073 -0.00014
 C205 C 0.48752 0.05023 -0.11345
 C206 C 0.43759 -0.04874 -0.11314
 N207 N 0.52204 -0.02277 -0.06037
 N208 N 0.52522 -0.03936 -0.06806
 N209 N 0.53212 0.02314 -0.09832
 N210 N 0.54272 0.03967 -0.13256
 N211 N 0.54524 0.02290 -0.06019
 N212 N 0.56518 0.03923 -0.06765
 N213 N 0.50889 -0.02260 -0.09854
 N214 N 0.50267 -0.03912 -0.13297
 Mn215 Mn 0.53390 0.00005 -0.00018
 Mn216 Mn 0.50041 0.00049 -0.09906
 Cl217 Cl 0.50041 0.00043 -0.00017
 C218 C 0.51299 -0.04944 -0.11353
 C219 C 0.56333 0.04957 -0.11297
 C220 C 1.17357 0.49281 0.31526
 C221 C 1.18966 0.51217 0.33978
 C222 C 1.20517 0.51208 0.37536
 C223 C 1.20484 0.49259 0.38767
 C224 C 1.18906 0.47329 0.36220
 C225 C 1.17365 0.47342 0.32616
 C226 C 1.15629 0.49277 0.28057
 N227 N 1.14262 0.47510 0.24982
 N228 N 1.12652 0.47482 0.22064
 C229 C 1.12336 0.49216 0.22124
 N230 N 1.13712 0.50985 0.25170
 N231 N 1.15326 0.51017 0.28063
 C232 C 1.10483 0.49152 0.19127
 C233 C 1.09832 0.50673 0.20381
 C234 C 1.08022 0.50561 0.17781
 C235 C 1.06838 0.48943 0.13816
 C236 C 1.07512 0.47451 0.12448
 C237 C 1.09309 0.47544 0.15109
 H238 H 1.19015 0.52741 0.33204
 H239 H 1.21710 0.52722 0.39429
 H240 H 1.18842 0.45803 0.37071
 H241 H 1.16147 0.45822 0.30799
 H242 H 1.10695 0.51930 0.23461
 H243 H 1.07545 0.51740 0.18893
 H244 H 1.06626 0.46188 0.09400
 H245 H 1.09775 0.46354 0.14032
 C246 C 0.50658 0.68220 0.31498
 C247 C 0.52613 0.70077 0.33017
 C248 C 0.52611 0.71615 0.36646
 C249 C 0.50647 0.71344 0.38803
 C250 C 0.48686 0.69520 0.37101
 C251 C 0.48694 0.67973 0.33529
 C252 C 0.50668 0.66503 0.28020
 N253 N 0.48895 0.64483 0.27826
 N254 N 0.48931 0.62903 0.24932
 C255 C 0.50736 0.63279 0.22083
 N256 N 0.52502 0.65306 0.22221
 N257 N 0.52470 0.66884 0.25144
 C258 C 0.50802 0.61492 0.19084
 C259 C 0.52424 0.61933 0.15110
 C260 C 0.52523 0.60234 0.12444
 C261 C 0.51023 0.58066 0.13770
 C262 C 0.49391 0.57625 0.17696
 C263 C 0.49272 0.59319 0.20296
 H264 H 0.54154 0.70316 0.31525
 H265 H 0.54155 0.72999 0.37817
 H266 H 0.47137 0.69251 0.38632
 H267 H 0.47158 0.66569 0.32403
 H268 H 0.53621 0.63590 0.14067
 H269 H 0.53797 0.60616 0.09427
 H270 H 0.48206 0.55967 0.18774
 H271 H 0.48005 0.58923 0.23346
 C272 C 0.31801 -0.17368 0.31581
 C273 C 0.32134 -0.18972 0.34047
 C274 C 0.30574 -0.20526 0.37597
 C275 C 0.28653 -0.20502 0.38806
 C276 C 0.28296 -0.18929 0.36246
 C277 C 0.29848 -0.17386 0.32649
 C278 C 0.33522 -0.15637 0.28120
 N279 N 0.33115 -0.14280 0.25020
 N280 N 0.34694 -0.12667 0.22107
 C281 C 0.36748 -0.12338 0.22197
 N282 N 0.37149 -0.13704 0.25268
 N283 N 0.35570 -0.15321 0.28155
 C284 C 0.38533 -0.10481 0.19203
 C285 C 0.40707 -0.09814 0.20486
 C286 C 0.42400 -0.08001 0.17885
 C287 C 0.41959 -0.06831 0.13891
 C288 C 0.39792 -0.07520 0.12496
 C289 C 0.38093 -0.09321 0.15158
 H290 H 0.33613 -0.19014 0.33290
 H291 H 0.30900 -0.21715 0.39501
 H292 H 0.26828 -0.18872 0.37080
 H293 H 0.29541 -0.16172 0.30821
 H294 H 0.41105 -0.10667 0.23587
 H295 H 0.44057 -0.07512 0.19018
 H296 H 0.39409 -0.06646 0.09425
 H297 H 0.36436 -0.09799 0.14058
 C298 C 0.82496 0.50889 0.31567
 C299 C 0.82457 0.52814 0.32625
 C300 C 0.80903 0.52808 0.36212
 C301 C 0.79342 0.50873 0.38772
 C302 C 0.79339 0.48937 0.37573
 C303 C 0.80903 0.48947 0.34033
 C304 C 0.84238 0.50914 0.28117
 N305 N 0.84578 0.49198 0.28180
 N306 N 0.86203 0.49249 0.25300
 C307 C 0.87553 0.51016 0.22211
 N308 N 0.87201 0.52726 0.22094
 N309 N 0.85580 0.52679 0.25000
 C310 C 0.89418 0.51101 0.19221
 C311 C 0.90555 0.52687 0.15128
 C312 C 0.92358 0.52796 0.12458
 C313 C 0.93072 0.51341 0.13890
 C314 C 0.91927 0.49747 0.17940
 C315 C 0.90112 0.49619 0.20549
 H316 H 0.83661 0.54338 0.30796
 H317 H 0.80943 0.54325 0.37039
 H318 H 0.78159 0.47419 0.39477
 H319 H 0.80878 0.47433 0.33283
 H320 H 0.90056 0.53847 0.13995
 H321 H 0.93213 0.54040 0.09345
 H322 H 0.92436 0.48597 0.19108
 H323 H 0.89278 0.48381 0.23690
 C324 C 0.49283 0.31868 0.31621
 C325 C 0.47362 0.29898 0.32657
 C326 C 0.47371 0.28351 0.36245
 C327 C 0.49305 0.28731 0.38828
 C328 C 0.51237 0.30671 0.37653
 C329 C 0.51224 0.32225 0.34113
 C330 C 0.49252 0.33581 0.28162
 N331 N 0.50963 0.35641 0.28221
 N332 N 0.50904 0.37209 0.25330
 C333 C 0.49136 0.36785 0.22233
 N334 N 0.47432 0.34719 0.22121
 N335 N 0.47487 0.33151 0.25037
 C336 C 0.49041 0.38557 0.19226
 C337 C 0.47439 0.38096 0.15168
 C338 C 0.47315 0.39781 0.12492
 C339 C 0.48769 0.41954 0.13882
 C340 C 0.50382 0.42416 0.17890
 C341 C 0.50525 0.40738 0.20507
 H342 H 0.45839 0.29572 0.30810
 H343 H 0.45857 0.26870 0.37053
 H344 H 0.52754 0.31014 0.39577
 H345 H 0.52735 0.33719 0.33380
 H346 H 0.46278 0.36434 0.14069
 H347 H 0.46057 0.39382 0.09411
 H348 H 0.51533 0.44078 0.19021
 H349 H 0.51775 0.41151 0.23618
 C350 C 0.68459 0.17280 0.31666
 C351 C 0.68178 0.18925 0.34071
 C352 C 0.69760 0.20470 0.37593
 C353 C 0.71652 0.20394 0.38840
 C354 C 0.71959 0.18780 0.36341
 C355 C 0.70384 0.17245 0.32767
 C356 C 0.66712 0.15562 0.28231
 N357 N 0.67080 0.14178 0.25132
 N358 N 0.65479 0.12582 0.22232
 C359 C 0.63441 0.12294 0.22336
 N360 N 0.63078 0.13685 0.25411
 N361 N 0.64679 0.15286 0.28285
 C362 C 0.61632 0.10460 0.19336
 C363 C 0.59468 0.09824 0.20640
 C364 C 0.57754 0.08035 0.18014
 C365 C 0.58166 0.06859 0.13975
 C366 C 0.60324 0.07517 0.12567
 C367 C 0.62043 0.09292 0.15252
 H368 H 0.66721 0.19008 0.33284
 H369 H 0.69473 0.21692 0.39452
 H370 H 0.73402 0.18682 0.37207
 H371 H 0.70651 0.15999 0.30986
 H372 H 0.59093 0.10683 0.23772
 H373 H 0.56104 0.07569 0.19160
 H374 H 0.60685 0.06637 0.09463
 H375 H 0.63692 0.09746 0.14135
 C376 C 0.49276 0.17515 -0.31632
 C377 C 0.47320 0.17421 -0.33128
 C378 C 0.47322 0.18970 -0.36726
 C379 C 0.49284 0.20668 -0.38872
 C380 C 0.51246 0.20800 -0.37194
 C381 C 0.51239 0.19235 -0.33654
 C382 C 0.49266 0.15782 -0.28178
 N383 N 0.51034 0.15526 -0.28013
 N384 N 0.50998 0.13907 -0.25134
 C385 C 0.49196 0.12481 -0.22268
 N386 N 0.47434 0.12750 -0.22379
 N387 N 0.47466 0.14362 -0.25288
 C388 C 0.49129 0.10626 -0.19273
 C389 C 0.47511 0.09449 -0.15283
 C390 C 0.47412 0.07651 -0.12612
 C391 C 0.48907 0.06978 -0.13947
 C392 C 0.50534 0.08163 -0.17891
 C393 C 0.50654 0.09976 -0.20497
 H394 H 0.45779 0.16116 -0.31643
 H395 H 0.45776 0.18812 -0.37880
 H396 H 0.52794 0.22083 -0.38718
 H397 H 0.52775 0.19364 -0.32545
 H398 H 0.46319 0.09914 -0.14230
 H399 H 0.46142 0.06765 -0.09582
 H400 H 0.51715 0.07685 -0.18976
 H401 H 0.51917 0.10842 -0.23558
 C402 C 0.68146 0.50876 -0.31704
 C403 C 0.67910 0.48916 -0.33728
 C404 C 0.69470 0.48914 -0.37265
 C405 C 0.71296 0.50879 -0.38937
 C406 C 0.71555 0.52839 -0.36788
 C407 C 0.70005 0.52835 -0.33194
 C408 C 0.66419 0.50879 -0.28256
 N409 N 0.66790 0.52678 -0.25378
 N410 N 0.65204 0.52703 -0.22474
 C411 C 0.63179 0.50934 -0.22359
 N412 N 0.62813 0.49132 -0.25212
 N413 N 0.64400 0.49104 -0.28086
 C414 C 0.61386 0.50991 -0.19371
 C415 C 0.59215 0.49453 -0.20586
 C416 C 0.57515 0.49562 -0.17985
 C417 C 0.57947 0.51191 -0.14055
 C418 C 0.60113 0.52700 -0.12730
 C419 C 0.61817 0.52611 -0.15396
 H420 H 0.66505 0.47377 -0.32623
 H421 H 0.69209 0.47368 -0.38791
 H422 H 0.72940 0.54387 -0.37938
 H423 H 0.70235 0.54374 -0.31707
 H424 H 0.58825 0.48188 -0.23636
 H425 H 0.55859 0.48371 -0.19064
 H426 H 0.60489 0.53972 -0.09711
 H427 H 0.63472 0.53813 -0.14350
 C428 C 0.83031 0.31488 -0.31850
 C429 C 0.81088 0.31492 -0.32828
 C430 C 0.79506 0.29945 -0.36362
 C431 C 0.79808 0.28319 -0.38855
 C432 C 0.81718 0.28264 -0.37620
 C433 C 0.83326 0.29855 -0.34240
 C434 C 0.84794 0.33247 -0.28618
 N435 N 0.86884 0.34131 -0.30353
 N436 N 0.88481 0.35783 -0.27598
 C437 C 0.88053 0.36594 -0.22956
 N438 N 0.85966 0.35696 -0.21176
 N439 N 0.84363 0.34063 -0.23985
 C440 C 0.89823 0.38453 -0.20010
 C441 C 0.89927 0.38499 -0.14166
 C442 C 0.91658 0.40242 -0.11418
 C443 C 0.93261 0.41995 -0.14478
 C444 C 0.93126 0.41969 -0.20312
 C445 C 0.91441 0.40195 -0.23059
 H446 H 0.80832 0.32744 -0.31037
 H447 H 0.78055 0.30038 -0.37168
 H448 H 0.82018 0.27044 -0.39439
 H449 H 0.84811 0.29818 -0.33513
 H450 H 0.88698 0.37166 -0.11741
 H451 H 0.91732 0.40235 -0.06910
 H452 H 0.94350 0.43302 -0.22751
 H453 H 0.91384 0.40196 -0.27570
 C454 C 0.50611 -0.17523 -0.31566
 C455 C 0.48671 -0.19113 -0.34049
 C456 C 0.48664 -0.20676 -0.37588
 C457 C 0.50600 -0.20674 -0.38772
 C458 C 0.52532 -0.19116 -0.36194
 C459 C 0.52536 -0.17564 -0.32606
 C460 C 0.50637 -0.15780 -0.28120
 N461 N 0.52399 -0.14444 -0.24989
 N462 N 0.52451 -0.12820 -0.22090
 C463 C 0.50748 -0.12457 -0.22226
 N464 N 0.48983 -0.13802 -0.25329
 N465 N 0.48926 -0.15430 -0.28203
 C466 C 0.50842 -0.10587 -0.19242
 C467 C 0.49366 -0.09884 -0.20560
 C468 C 0.49511 -0.08059 -0.17963
 C469 C 0.51117 -0.06912 -0.13941
 C470 C 0.52564 -0.07637 -0.12514
 C471 C 0.52438 -0.09450 -0.15169
 H472 H 0.47157 -0.19136 -0.33312
 H473 H 0.47148 -0.21853 -0.39509
 H474 H 0.54050 -0.19076 -0.37009
 H475 H 0.54058 -0.16363 -0.30765
 H476 H 0.48121 -0.10718 -0.23684
 H477 H 0.48367 -0.07541 -0.19122
 H478 H 0.53817 -0.06782 -0.09421
 H479 H 0.53593 -0.09956 -0.14042
 C480 C 0.31590 0.49146 -0.31576
 C481 C 0.31838 0.51113 -0.33590
 C482 C 0.30289 0.51127 -0.37144
 C483 C 0.28460 0.49168 -0.38843
 C484 C 0.28189 0.47202 -0.36701
 C485 C 0.29729 0.47193 -0.33090
 C486 C 0.33311 0.49131 -0.28121
 N487 N 0.32934 0.47324 -0.25267
 N488 N 0.34515 0.47290 -0.22364
 C489 C 0.36542 0.49057 -0.22225
 N490 N 0.36914 0.50866 -0.25052
 N491 N 0.35331 0.50904 -0.27925
 C492 C 0.38333 0.48989 -0.19248
 C493 C 0.40504 0.50525 -0.20462
 C494 C 0.42203 0.50408 -0.17878
 C495 C 0.41769 0.48772 -0.13966
 C496 C 0.39603 0.47266 -0.12639
 C497 C 0.37899 0.47362 -0.15290
 H498 H 0.33245 0.52647 -0.32467
 H499 H 0.30559 0.52677 -0.38664
 H500 H 0.26801 0.45659 -0.37870
 H501 H 0.29490 0.45650 -0.31610
 H502 H 0.40895 0.51795 -0.23499
 H503 H 0.43859 0.51598 -0.18956
 H504 H 0.39226 0.45989 -0.09633
 H505 H 0.36244 0.46162 -0.14247
 C506 C 1.17418 0.68368 -0.31625
 C507 C 1.17332 0.70234 -0.33124
 C508 C 1.18884 0.71776 -0.36723
 C509 C 1.20576 0.71502 -0.38867
 C510 C 1.20700 0.69668 -0.37185
 C511 C 1.19134 0.68116 -0.33643
 C512 C 1.15681 0.66648 -0.28177
 N513 N 1.15425 0.64624 -0.27998
 N514 N 1.13802 0.63043 -0.25128
 C515 C 1.12373 0.63420 -0.22286
 N516 N 1.12642 0.65451 -0.22410
 N517 N 1.14258 0.67030 -0.25310
 C518 C 1.10514 0.61634 -0.19305
 C519 C 1.09328 0.62075 -0.15342
 C520 C 1.07528 0.60376 -0.12684
 C521 C 1.06860 0.58208 -0.14007
 C522 C 1.08053 0.57766 -0.17925
 C523 C 1.09869 0.59459 -0.20517
 H524 H 1.16031 0.70476 -0.31641
 H525 H 1.18732 0.73168 -0.37880
 H526 H 1.21979 0.69395 -0.38707
 H527 H 1.19256 0.66705 -0.32531
 H528 H 1.09790 0.63732 -0.14299
 H529 H 1.06635 0.60760 -0.09673
 H530 H 1.07580 0.56108 -0.19000
 H531 H 1.10742 0.59063 -0.23558
 C532 C 0.82422 0.50869 -0.31339
 C533 C 0.82408 0.52803 -0.32454
 C534 C 0.80859 0.52803 -0.36051
 C535 C 0.79280 0.50864 -0.38560
 C536 C 0.79249 0.48920 -0.37286
 C537 C 0.80808 0.48924 -0.33738
 C538 C 0.84167 0.50888 -0.27922
 N539 N 0.84493 0.49162 -0.27986
 N540 N 0.86126 0.49210 -0.25154
 C541 C 0.87499 0.50983 -0.22115
 N542 N 0.87161 0.52701 -0.21994
 N543 N 0.85532 0.52658 -0.24852
 C544 C 0.89373 0.51065 -0.19186
 C545 C 0.90527 0.52655 -0.15116
 C546 C 0.92339 0.52765 -0.12503
 C547 C 0.93046 0.51308 -0.13972
 C548 C 0.91885 0.49711 -0.18001
 C549 C 0.90060 0.49581 -0.20555
 H550 H 0.83630 0.54330 -0.30676
 H551 H 0.80920 0.54326 -0.36937
 H552 H 0.78054 0.47399 -0.39148
 H553 H 0.80763 0.47403 -0.32937
 H554 H 0.90032 0.53815 -0.13954
 H555 H 0.93206 0.54011 -0.09403
 H556 H 0.92390 0.48561 -0.19194
 H557 H 0.89213 0.48342 -0.23683
 C558 C 0.49281 0.31788 -0.31252
 C559 C 0.47351 0.29837 -0.32374
 C560 C 0.47358 0.28296 -0.35982
 C561 C 0.49298 0.28664 -0.38495
 C562 C 0.51238 0.30580 -0.37217
 C563 C 0.51228 0.32128 -0.33658
 C564 C 0.49253 0.33506 -0.27818
 N565 N 0.50975 0.35559 -0.27860
 N566 N 0.50918 0.37137 -0.25017
 C567 C 0.49141 0.36728 -0.21988
 N568 N 0.47426 0.34669 -0.21889
 N569 N 0.47479 0.33091 -0.24758
 C570 C 0.49045 0.38511 -0.19056
 C571 C 0.47441 0.38064 -0.15022
 C572 C 0.47313 0.39758 -0.12422
 C573 C 0.48766 0.41925 -0.13869
 C574 C 0.50381 0.42373 -0.17853
 C575 C 0.50528 0.40686 -0.20393
 H576 H 0.45823 0.29525 -0.30591
 H577 H 0.45837 0.26831 -0.36870
 H578 H 0.52761 0.30913 -0.39084
 H579 H 0.52745 0.33606 -0.32853
 H580 H 0.46281 0.36407 -0.13883
 H581 H 0.46053 0.39371 -0.09355
 H582 H 0.51530 0.44032 -0.19024
 H583 H 0.51780 0.41087 -0.23490
 C584 C 0.68458 0.17385 -0.31280
 C585 C 0.70396 0.17364 -0.32272
 C586 C 0.71972 0.18882 -0.35867
 C587 C 0.71652 0.20467 -0.38498
 C588 C 0.69748 0.20533 -0.37353
 C589 C 0.68165 0.19004 -0.33806
 C590 C 0.66708 0.15672 -0.27850
 N591 N 0.64669 0.15377 -0.27994
 N592 N 0.63063 0.13769 -0.25148
 C593 C 0.63429 0.12394 -0.22015
 N594 N 0.65474 0.12703 -0.21816
 N595 N 0.67080 0.14306 -0.24687
 C596 C 0.61618 0.10546 -0.19069
 C597 C 0.62026 0.09380 -0.14976
 C598 C 0.60307 0.07584 -0.12363
 C599 C 0.58151 0.06906 -0.13851
 C600 C 0.57740 0.08083 -0.17893
 C601 C 0.59454 0.09892 -0.20451
 H602 H 0.70673 0.16138 -0.30395
 H603 H 0.73425 0.18794 -0.36652
 H604 H 0.69452 0.21733 -0.39314
 H605 H 0.66698 0.19075 -0.33103
 H606 H 0.63674 0.09849 -0.13801
 H607 H 0.60666 0.06705 -0.09252
 H608 H 0.56092 0.07601 -0.19097
 H609 H 0.59082 0.10750 -0.23593
 C610 C 1.17392 0.49266 -0.31297
 C611 C 1.17384 0.47322 -0.32442
 C612 C 1.18923 0.47311 -0.36051
 C613 C 1.20515 0.49246 -0.38543
 C614 C 1.20568 0.51199 -0.37245
 C615 C 1.19019 0.51207 -0.33684
 C616 C 1.15661 0.49262 -0.27855
 N617 N 1.15367 0.51008 -0.27860
 N618 N 1.13746 0.50976 -0.25005
 C619 C 1.12355 0.49201 -0.22000
 N620 N 1.12663 0.47462 -0.21938
 N621 N 1.14279 0.47490 -0.24819
 C622 C 1.10494 0.49136 -0.19055
 C623 C 1.09313 0.47530 -0.15040
 C624 C 1.07508 0.47435 -0.12427
 C625 C 1.06833 0.48923 -0.13843
 C626 C 1.08023 0.50538 -0.17809
 C627 C 1.09842 0.50653 -0.20360
 H628 H 1.16152 0.45798 -0.30674
 H629 H 1.18844 0.45781 -0.36955
 H630 H 1.21773 0.52718 -0.39093
 H631 H 1.19082 0.52735 -0.32862
 H632 H 1.09780 0.46344 -0.13926
 H633 H 1.06618 0.46174 -0.09376
 H634 H 1.07546 0.51714 -0.18956
 H635 H 1.10710 0.51907 -0.23442
 C636 C 0.50637 0.68225 -0.31602
 C637 C 0.48675 0.67983 -0.33632
 C638 C 0.48671 0.69534 -0.37199
 C639 C 0.50635 0.71356 -0.38896
 C640 C 0.52596 0.71623 -0.36732
 C641 C 0.52594 0.70082 -0.33108
 C642 C 0.50643 0.66502 -0.28148
 N643 N 0.52443 0.66877 -0.25265
 N644 N 0.52473 0.65293 -0.22369
 C645 C 0.50709 0.63264 -0.22267
 N646 N 0.48906 0.62894 -0.25123
 N647 N 0.48872 0.64480 -0.27990
 C648 C 0.50775 0.61473 -0.19298
 C649 C 0.49250 0.59301 -0.20544
 C650 C 0.49372 0.57604 -0.17966
 C651 C 0.51001 0.58041 -0.14029
 C652 C 0.52495 0.60207 -0.12673
 C653 C 0.52394 0.61909 -0.15315
 H654 H 0.47138 0.66580 -0.32513
 H655 H 0.47124 0.69268 -0.38734
 H656 H 0.54142 0.73006 -0.37899
 H657 H 0.54134 0.70316 -0.31614
 H658 H 0.47987 0.58909 -0.23602
 H659 H 0.48192 0.55947 -0.19065
 H660 H 0.53766 0.60588 -0.09647
 H661 H 0.53585 0.63565 -0.14247
 C662 C 0.31750 -0.17420 -0.31289
 C663 C 0.32070 -0.19041 -0.33694
 C664 C 0.30511 -0.20592 -0.37247
 C665 C 0.28604 -0.20549 -0.38518
 C666 C 0.28256 -0.18963 -0.36006
 C667 C 0.29808 -0.17421 -0.32405
 C668 C 0.33479 -0.15684 -0.27858
 N669 N 0.33082 -0.14311 -0.24796
 N670 N 0.34670 -0.12691 -0.21925
 C671 C 0.36721 -0.12368 -0.22023
 N672 N 0.37112 -0.13749 -0.25055
 N673 N 0.35524 -0.15374 -0.27900
 C674 C 0.38515 -0.10502 -0.19082
 C675 C 0.40685 -0.09834 -0.20410
 C676 C 0.42384 -0.08013 -0.17855
 C677 C 0.41953 -0.06835 -0.13866
 C678 C 0.39789 -0.07525 -0.12430
 C679 C 0.38084 -0.09333 -0.15044
 H680 H 0.33541 -0.19095 -0.32895
 H681 H 0.30829 -0.21793 -0.39112
 H682 H 0.26800 -0.18892 -0.36890
 H683 H 0.29512 -0.16194 -0.30622
 H684 H 0.41074 -0.10694 -0.23509
 H685 H 0.44039 -0.07523 -0.19018
 H686 H 0.39414 -0.06645 -0.09360
 H687 H 0.36431 -0.09812 -0.13912
 C688 C 0.50599 -0.17563 0.31318
 C689 C 0.52528 -0.17594 0.32386
 C690 C 0.52527 -0.19140 0.35991
 C691 C 0.50595 -0.20702 0.38555
 C692 C 0.48654 -0.20716 0.37336
 C693 C 0.48658 -0.19159 0.33779
 C694 C 0.50622 -0.15822 0.27875
 N695 N 0.48907 -0.15478 0.27952
 N696 N 0.48962 -0.13847 0.25093
 C697 C 0.50730 -0.12493 0.22013
 N698 N 0.52437 -0.12851 0.21880
 N699 N 0.52386 -0.14478 0.24763
 C700 C 0.50825 -0.10619 0.19058
 C701 C 0.52422 -0.09474 0.14996
 C702 C 0.52552 -0.07655 0.12376
 C703 C 0.51108 -0.06929 0.13826
 C704 C 0.49499 -0.08084 0.17836
 C705 C 0.49350 -0.09917 0.20399
 H706 H 0.54050 -0.16386 0.30561
 H707 H 0.54048 -0.19091 0.36833
 H708 H 0.47138 -0.21898 0.39244
 H709 H 0.47142 -0.19191 0.33018
 H710 H 0.53575 -0.09980 0.13853
 H711 H 0.53806 -0.06793 0.09290
 H712 H 0.48357 -0.07566 0.19010
 H713 H 0.48104 -0.10757 0.23516
 C714 C 0.31641 0.49211 0.31399
 C715 C 0.29698 0.47276 0.32540
 C716 C 0.28156 0.47275 0.36158
 C717 C 0.28515 0.49214 0.38666
 C718 C 0.30424 0.51159 0.37375
 C719 C 0.31972 0.51156 0.33803
 C720 C 0.33359 0.49196 0.27939
 N721 N 0.35403 0.50933 0.27933
 N722 N 0.36982 0.50891 0.25057
 C723 C 0.36583 0.49114 0.22041
 N724 N 0.34533 0.47383 0.21990
 N725 N 0.32954 0.47421 0.24893
 C726 C 0.38369 0.49038 0.19067
 C727 C 0.37929 0.47430 0.15048
 C728 C 0.39629 0.47325 0.12405
 C729 C 0.41795 0.48806 0.13793
 C730 C 0.42236 0.50425 0.17762
 C731 C 0.40542 0.50549 0.20344
 H732 H 0.29393 0.45749 0.30758
 H733 H 0.26697 0.45751 0.37057
 H734 H 0.30751 0.52681 0.39234
 H735 H 0.33444 0.52678 0.32986
 H736 H 0.36273 0.46249 0.13955
 H737 H 0.39247 0.46063 0.09353
 H738 H 0.43893 0.51595 0.18888
 H739 H 0.40939 0.51804 0.23427
 C740 C 1.17463 0.68363 0.31322
 C741 C 1.17470 0.70305 0.32483
 C742 C 1.19008 0.71840 0.36123
 C743 C 1.20584 0.71475 0.38633
 C744 C 1.20620 0.69568 0.37321
 C745 C 1.19073 0.68026 0.33728
 C746 C 1.15732 0.66651 0.27844
 N747 N 1.15424 0.64606 0.27820
 N748 N 1.13803 0.63031 0.24935
 C749 C 1.12426 0.63435 0.21927
 N750 N 1.12747 0.65486 0.21893
 N751 N 1.14364 0.67061 0.24805
 C752 C 1.10561 0.61652 0.18954
 C753 C 1.09393 0.62095 0.14942
 C754 C 1.07583 0.60398 0.12309
 C755 C 1.06892 0.58230 0.13704
 C756 C 1.08072 0.57787 0.17663
 C757 C 1.09894 0.59477 0.20234
 H758 H 1.16251 0.70614 0.30702
 H759 H 1.18942 0.73298 0.37037
 H760 H 1.21813 0.69237 0.39181
 H761 H 1.19124 0.66555 0.32896
 H762 H 1.09872 0.63753 0.13847
 H763 H 1.06701 0.60782 0.09264
 H764 H 1.07581 0.56129 0.18793
 H765 H 1.10753 0.59078 0.23312
 C766 C 0.49349 0.17563 0.31404
 C767 C 0.51288 0.19171 0.33844
 C768 C 0.51283 0.20721 0.37408
 C769 C 0.49336 0.20687 0.38657
 C770 C 0.47404 0.19114 0.36112
 C771 C 0.47412 0.17574 0.32499
 C772 C 0.49338 0.15829 0.27958
 N773 N 0.47574 0.14473 0.24860
 N774 N 0.47537 0.12854 0.21971
 C775 C 0.49257 0.12517 0.22087
 N776 N 0.51024 0.13883 0.25155
 N777 N 0.51066 0.15506 0.28018
 C778 C 0.49179 0.10653 0.19124
 C779 C 0.50669 0.09969 0.20457
 C780 C 0.50538 0.08147 0.17881
 C781 C 0.48934 0.06987 0.13865
 C782 C 0.47475 0.07694 0.12425
 C783 C 0.47586 0.09503 0.15059
 H784 H 0.52810 0.19218 0.33061
 H785 H 0.52800 0.21911 0.39299
 H786 H 0.45879 0.19050 0.36978
 H787 H 0.45890 0.16357 0.30690
 H788 H 0.51913 0.10814 0.23577
 H789 H 0.51692 0.07642 0.19048
 H790 H 0.46223 0.06828 0.09335
 H791 H 0.46422 0.09995 0.13922
 C792 C 0.68144 0.50823 0.31286
 C793 C 0.70079 0.52765 0.32431
 C794 C 0.71624 0.52776 0.36061
 C795 C 0.71275 0.50841 0.38576
 C796 C 0.69374 0.48890 0.37278
 C797 C 0.67823 0.48882 0.33695
 C798 C 0.66421 0.50828 0.27824
 N799 N 0.64379 0.49087 0.27836
 N800 N 0.62794 0.49121 0.24965
 C801 C 0.63185 0.50894 0.21937
 N802 N 0.65233 0.52627 0.21868
 N803 N 0.66817 0.52597 0.24765
 C804 C 0.61393 0.50962 0.18975
 C805 C 0.61825 0.52562 0.14936
 C806 C 0.60121 0.52662 0.12308
 C807 C 0.57957 0.51186 0.13732
 C808 C 0.57524 0.49576 0.17720
 C809 C 0.59223 0.49456 0.20288
 H810 H 0.70376 0.54288 0.30646
 H811 H 0.73077 0.54305 0.36965
 H812 H 0.69055 0.47371 0.39142
 H813 H 0.66357 0.47356 0.32873
 H814 H 0.63479 0.53739 0.13815
 H815 H 0.60497 0.53919 0.09239
 H816 H 0.55870 0.48410 0.18873
 H817 H 0.58832 0.48207 0.23388
 C818 C 0.83151 0.31520 0.32079
 C819 C 0.83659 0.30295 0.35729
 C820 C 0.82054 0.28695 0.39084
 C821 C 0.79923 0.28329 0.38960
 C822 C 0.79404 0.29532 0.35253
 C823 C 0.81001 0.31095 0.31776
 C824 C 0.84889 0.33308 0.28851
 N825 N 0.84503 0.33832 0.23697
 N826 N 0.86082 0.35476 0.20861
 C827 C 0.88094 0.36675 0.23113
 N828 N 0.88473 0.36154 0.28271
 N829 N 0.86906 0.34495 0.31069
 C830 C 0.89837 0.38532 0.20087
 C831 C 0.91344 0.40381 0.23038
 C832 C 0.93022 0.42138 0.20235
 C833 C 0.93260 0.42051 0.14454
 C834 C 0.91760 0.40201 0.11490
 C835 C 0.90038 0.38465 0.14279
 H836 H 0.85304 0.30588 0.36018
 H837 H 0.82499 0.27800 0.41932
 H838 H 0.77770 0.29276 0.35083
 H839 H 0.80575 0.32028 0.29009
 H840 H 0.91213 0.40473 0.27514
 H841 H 0.94164 0.43546 0.22608
 H842 H 0.91911 0.40106 0.07022
 H843 H 0.88897 0.37051 0.11925
   
