data_POSCAR
  _audit_creation_date              2014-09-24
  _audit_creation_method            'ToBaCCo'
  _symmetry_space_group_name_H-M    'P1'
  _symmetry_Int_Tables_number       1
  _symmetry_cell_setting            triclinic
  loop_
  _symmetry_equiv_pos_as_xyz
 x,y,z
_cell_length_a 12.5650
_cell_length_b 12.2604
_cell_length_c 34.8638
_cell_angle_alpha 90.033300
_cell_angle_beta 90.581300
_cell_angle_gamma 120.459000
loop_
  _atom_site_label
  _atom_site_type_symbol
  _atom_site_fract_x
  _atom_site_fract_y
  _atom_site_fract_z
C1 C -0.01565 -0.05434 0.49731
 C2 C 0.94694 -0.03929 0.16493
 C3 C -0.02839 0.97917 0.83409
 O4 O 0.55869 -0.03709 0.03515
 O5 O 0.35134 -0.03941 -0.03858
 O6 O 0.57059 -0.01552 -0.03917
 O7 O 0.35439 -0.02958 0.03585
 O8 O 0.45713 0.17944 0.03705
 O9 O 0.66628 0.19314 -0.03647
 O10 O 0.44673 0.16912 -0.03738
 O11 O 0.66093 0.17141 0.03796
 Cu12 Cu 0.44931 -0.05088 -0.00189
 Cu13 Cu 0.56748 0.19872 0.00042
 C14 C 0.64535 0.06540 0.04915
 C15 C 0.36106 0.06291 -0.05031
 C16 C 0.65607 0.09281 -0.05021
 C17 C 0.36998 0.07485 0.04883
 O18 O 0.17897 0.46748 0.62821
 O19 O 0.18520 0.67576 0.70318
 O20 O 0.16083 0.45149 0.70294
 O21 O 0.16567 0.67374 0.62889
 O22 O -0.03824 0.56551 0.62873
 O23 O -0.04271 0.35216 0.70157
 O24 O -0.01862 0.57656 0.70331
 O25 O -0.02494 0.35912 0.62705
 Cu26 Cu 0.19247 0.57673 0.66579
 Cu27 Cu -0.05097 0.45334 0.66509
 C28 C 0.07847 0.37828 0.61478
 C29 C 0.08613 0.66384 0.71591
 C30 C 0.05660 0.36367 0.71482
 C31 C 0.06217 0.65618 0.61654
 O32 O 0.31767 0.40759 0.37157
 O33 O 0.51857 0.61289 0.29442
 O34 O 0.29564 0.41519 0.29690
 O35 O 0.52003 0.62609 0.36900
 O36 O 0.61500 0.51613 0.36707
 O37 O 0.38762 0.30241 0.29492
 O38 O 0.61010 0.49965 0.29237
 O39 O 0.41231 0.29741 0.36912
 Cu40 Cu 0.40347 0.52607 0.33305
 Cu41 Cu 0.51542 0.39299 0.33060
 C42 C 0.33199 0.31780 0.38367
 C43 C 0.59950 0.59118 0.28046
 C44 C 0.30244 0.32281 0.28368
 C45 C 0.60555 0.60767 0.38040
 C46 C -0.05618 0.01297 0.52545
 C47 C 0.02599 0.12491 0.54111
 C48 C -0.00431 0.19223 0.57020
 C49 C 0.08837 0.30023 0.58464
 H50 H 0.12153 0.16896 0.53241
 H51 H -0.09809 0.15411 0.57999
 H52 H -0.15104 -0.03423 0.53501
 H53 H 0.18117 0.33362 0.57443
 C54 C 0.85249 0.85257 0.18943
 C55 C 0.77459 0.86950 0.21151
 C56 C 0.68393 0.77629 0.23829
 C57 C 0.68448 0.67340 0.25068
 H58 H 0.77700 0.95901 0.21003
 H59 H 0.61803 0.79908 0.25006
 H60 H 0.85166 0.76395 0.18969
 H61 H 0.75214 0.65103 0.24038
 C62 C 0.07418 0.00958 -0.13997
 C63 C 0.06919 -0.07500 -0.11447
 C64 C 0.17002 -0.05509 -0.08799
 C65 C 0.26985 0.05685 -0.07863
 H66 H -0.01303 -0.16809 -0.11372
 H67 H 0.15708 -0.14026 -0.07434
 H68 H 0.15788 0.10112 -0.14145
 H69 H 0.28281 0.14437 -0.09034
 C70 C 0.02962 0.87117 0.52058
 C71 C 0.12617 0.92199 0.54521
 C72 C 0.14753 0.84281 0.57292
 C73 C 0.05248 0.73884 0.58796
 H74 H 0.18932 1.02310 0.54578
 H75 H 0.24082 0.87512 0.58287
 H76 H -0.02720 0.76893 0.51940
 H77 H -0.04096 0.71334 0.58007
 C78 C 0.03753 0.06406 0.19230
 C79 C 0.11051 0.04183 0.21562
 C80 C 0.20463 0.13350 0.24259
 C81 C 0.20932 0.23883 0.25521
 H82 H 0.10422 -0.04955 0.21400
 H83 H 0.27015 0.10854 0.25381
 H84 H 0.04372 0.15533 0.19230
 H85 H 0.14148 0.26275 0.24570
 C86 C 0.85910 -0.04999 -0.14182
 C87 C 0.85434 0.03989 -0.12142
 C88 C 0.75100 0.01180 -0.09578
 C89 C 0.74845 0.10744 -0.07844
 H90 H 0.93006 0.13679 -0.12338
 H91 H 0.67959 -0.08526 -0.09061
 H92 H 0.78455 -0.14720 -0.13914
 H93 H 0.82061 0.20360 -0.08453
 C94 C 0.01963 -0.07925 0.13937
 C95 C 0.11234 0.00821 0.11836
 C96 C 0.18922 -0.01799 0.09265
 C97 C 0.28745 0.08102 0.07712
 H98 H 0.13316 0.10543 0.12060
 H99 H 0.16570 -0.11416 0.08617
 H100 H -0.00431 -0.17739 0.13769
 H101 H 0.30830 0.17567 0.08488
 C102 C 0.87521 0.85215 0.47262
 C103 C 0.88802 0.77631 0.44741
 C104 C 0.79107 0.68573 0.42098
 C105 C 0.69441 0.69494 0.40919
 H106 H 0.97527 0.77854 0.44644
 H107 H 0.80554 0.61297 0.40883
 H108 H 0.78796 0.84929 0.47479
 H109 H 0.68182 0.77080 0.41956
 C110 C 0.00045 0.08327 0.80832
 C111 C -0.08206 0.07607 0.78211
 C112 C -0.06121 0.17617 0.75460
 C113 C 0.04925 0.27289 0.74405
 H114 H -0.17329 -0.00772 0.78126
 H115 H -0.14431 0.16455 0.74104
 H116 H 0.08997 0.16901 0.80994
 H117 H 0.13418 0.28409 0.75585
 C118 C 0.87866 0.00539 0.13865
 C119 C 0.79343 -0.07720 0.11381
 C120 C 0.71618 -0.05336 0.08707
 C121 C 0.72883 0.05920 0.07821
 H122 H 0.77556 -0.17350 0.11348
 H123 H 0.64476 -0.13781 0.07279
 H124 H 0.89811 0.10194 0.14038
 H125 H 0.80115 0.14583 0.09115
 C126 C 0.07605 0.04199 0.46930
 C127 C 0.18173 0.05033 0.45821
 C128 C 0.26228 0.13892 0.42833
 C129 C 0.25359 0.23692 0.41481
 H130 H 0.20788 -0.01499 0.46952
 H131 H 0.33208 0.12118 0.41699
 H132 H 0.04602 0.10170 0.45606
 H133 H 0.18836 0.26038 0.42649
 C134 C -0.05677 0.86357 0.80961
 C135 C 0.03073 0.86066 0.78888
 C136 C 0.00421 0.75597 0.76238
 C137 C 0.09832 0.75666 0.74484
 H138 H 0.12471 0.93971 0.79107
 H139 H -0.09005 0.68133 0.75680
 H140 H -0.15122 0.78591 0.80681
 H141 H 0.19164 0.83189 0.75153
   
