data_POSCAR
  _audit_creation_date              2014-09-24
  _audit_creation_method            'ToBaCCo'
  _symmetry_space_group_name_H-M    'P1'
  _symmetry_Int_Tables_number       1
  _symmetry_cell_setting            triclinic
  loop_
  _symmetry_equiv_pos_as_xyz
 x,y,z
_cell_length_a 27.3765
_cell_length_b 27.4429
_cell_length_c 27.3771
_cell_angle_alpha 89.778300
_cell_angle_beta 89.840800
_cell_angle_gamma 90.006300
loop_
  _atom_site_label
  _atom_site_type_symbol
  _atom_site_fract_x
  _atom_site_fract_y
  _atom_site_fract_z
C1 C 0.16486 0.16524 0.22606
 C2 C 0.20496 0.14250 0.20296
 C3 C 0.22436 0.16017 0.15846
 C4 C 0.20409 0.20300 0.13857
 C5 C 0.16128 0.22360 0.15785
 C6 C 0.14260 0.20489 0.20196
 H7 H 0.22106 0.11060 0.21957
 H8 H 0.22169 0.22053 0.10782
 H9 H 0.11026 0.22129 0.21743
 C10 C -0.16296 0.83353 0.23281
 C11 C -0.20346 0.85579 0.21006
 C12 C -0.22389 0.83688 0.16702
 C13 C -0.20512 0.79298 0.14846
 C14 C -0.16446 0.77005 0.16977
 C15 C -0.14223 0.79228 0.21023
 H16 H -0.21867 0.88862 0.22550
 H17 H -0.22153 0.77710 0.11643
 H18 H -0.10776 0.77820 0.22313
 C19 C -0.15908 0.15613 -0.22223
 C20 C -0.14081 0.19979 -0.20242
 C21 C -0.16057 0.21993 -0.15958
 C22 C -0.20268 0.19855 -0.13936
 C23 C -0.22218 0.15491 -0.15800
 C24 C -0.20158 0.13591 -0.20117
 H25 H -0.11141 0.21873 -0.22083
 H26 H -0.22075 0.21657 -0.10929
 H27 H -0.21927 0.10561 -0.21899
 C28 C 0.16313 0.84130 -0.22343
 C29 C 0.14373 0.79761 -0.20473
 C30 C 0.16491 0.77391 -0.16441
 C31 C 0.20482 0.79624 -0.14113
 C32 C 0.22507 0.84021 -0.15878
 C33 C 0.20575 0.86013 -0.20217
 H34 H 0.11173 0.78208 -0.22156
 H35 H 0.22005 0.77931 -0.10893
 H36 H 0.22391 0.89051 -0.21963
 C37 C 0.17023 1.16814 0.76943
 C38 C 0.21106 1.14691 0.79219
 C39 C 0.23251 1.16798 0.83370
 C40 C 0.21002 1.20903 0.85457
 C41 C 0.16923 1.23123 0.83271
 C42 C 0.14869 1.20924 0.79123
 H43 H 0.22506 1.11269 0.77872
 H44 H 0.22312 1.22260 0.88912
 H45 H 0.11462 1.22304 0.77695
 C46 C 0.83598 0.83605 0.76933
 C47 C 0.85809 0.79538 0.79194
 C48 C 0.83937 0.77505 0.83555
 C49 C 0.79514 0.79391 0.85406
 C50 C 0.77251 0.83475 0.83281
 C51 C 0.79507 0.85705 0.79237
 H52 H 0.89068 0.78003 0.77589
 H53 H 0.77864 0.77747 0.88598
 H54 H 0.78128 0.89166 0.77952
 C55 C 0.15651 0.83934 1.22372
 C56 C 0.20121 0.85655 1.20459
 C57 C 0.22419 0.83366 1.16479
 C58 C 0.20056 0.79403 1.14267
 C59 C 0.15618 0.77572 1.16103
 C60 C 0.13648 0.79669 1.20346
 H61 H 0.21824 0.88817 1.22060
 H62 H 0.21657 0.77746 1.11072
 H63 H 0.10551 0.77946 1.22089
 C64 C 0.83963 1.16314 1.22537
 C65 C 0.85726 1.20698 1.20479
 C66 C 0.83405 1.22941 1.16460
 C67 C 0.79313 1.20594 1.14430
 C68 C 0.77171 1.16510 1.16689
 C69 C 0.79542 1.14409 1.20727
 H70 H 0.88983 1.22341 1.21959
 H71 H 0.77844 1.21871 1.10999
 H72 H 0.77981 1.11193 1.22394
 O73 O 0.43146 1.08663 1.08703
 O74 O 0.37844 1.04040 1.04189
 C75 C 0.38775 1.07378 1.07384
 O76 O 0.57031 1.08255 0.91358
 O77 O 0.62289 1.03816 0.96137
 C78 C 0.61389 1.06976 0.92731
 O79 O 0.43266 1.08681 0.91678
 O80 O 0.37883 1.03953 0.96048
 C81 C 0.38870 1.07350 0.92898
 O82 O 0.56915 1.08227 1.09104
 O83 O 0.62241 1.03794 1.04403
 C84 C 0.61296 1.06964 1.07768
 Zr85 Zr 0.50030 1.05911 1.06410
 O86 O 0.50568 1.13606 1.06439
 O87 O 0.49479 1.05816 1.14126
 Zr88 Zr 0.50120 1.05956 0.94051
 O89 O 0.50668 1.13652 0.94100
 O90 O 0.49665 1.06004 0.86333
 O91 O 0.45723 1.06907 1.00209
 O92 O 0.54303 1.06795 1.00245
 O93 O 0.56820 0.91225 1.09185
 O94 O 0.62190 0.95688 1.04524
 C95 C 0.61212 0.92504 1.07891
 O96 O 0.43168 0.90962 0.91680
 O97 O 0.37850 0.95717 0.96066
 C98 C 0.38791 0.92335 0.92915
 O99 O 0.56947 0.91278 0.91355
 O100 O 0.62253 0.95594 0.96153
 C101 C 0.61322 0.92490 0.92729
 O102 O 0.43032 0.90906 1.08728
 O103 O 0.37792 0.95697 1.04291
 C104 C 0.38674 0.92292 1.07451
 Zr105 Zr 0.49961 0.93574 1.06424
 O106 O 0.50433 0.85874 1.06399
 O107 O 0.49393 0.93553 1.14137
 Zr108 Zr 0.50055 0.93614 0.94048
 O109 O 0.50531 0.85914 0.94090
 O110 O 0.49596 0.93636 0.86330
 Zr111 Zr 0.42809 0.99796 1.00202
 Zr112 Zr 0.57276 0.99719 1.00255
 O113 O 0.54231 0.92678 1.00256
 O114 O 0.45647 0.92657 1.00217
 O115 O 0.54346 0.99719 1.07386
 O116 O 0.45876 0.99809 0.93140
 O117 O 0.45761 0.99764 1.07291
 O118 O 0.54450 0.99765 0.93103
 H119 H 0.56505 1.09661 1.00245
 H120 H 0.43708 0.99829 0.90248
 H121 H 0.56427 0.89808 1.00277
 H122 H 0.43533 0.99778 1.10150
 H123 H 0.52379 1.03982 0.85078
 H124 H 0.52338 0.95630 0.85073
 H125 H 0.47747 0.84665 0.96035
 H126 H 0.47676 0.84637 1.04432
 H127 H 0.52096 0.95571 1.15408
 H128 H 0.52291 1.03939 1.15393
 H129 H 0.47905 1.14887 1.04365
 H130 H 0.47860 1.14918 0.95990
 O131 O -0.09107 0.43027 0.08322
 O132 O -0.04331 0.37765 0.03906
 C133 C -0.07724 0.38671 0.07080
 O134 O -0.08762 0.56858 -0.09135
 O135 O -0.04295 0.62153 -0.04459
 C136 C -0.07471 0.61223 -0.07825
 O137 O -0.09105 0.43089 -0.08744
 O138 O -0.04329 0.37810 -0.04323
 C139 C -0.07723 0.38730 -0.07477
 O140 O -0.08763 0.56771 0.08731
 O141 O -0.04436 0.62113 0.03922
 C142 C -0.07539 0.61151 0.07372
 Zr143 Zr -0.06459 0.49923 0.05959
 O144 O -0.14176 0.50415 0.05859
 O145 O -0.06550 0.49374 0.13673
 Zr146 Zr -0.06445 0.49978 -0.06399
 O147 O -0.14163 0.50462 -0.06310
 O148 O -0.06479 0.49504 -0.14114
 O149 O -0.07387 0.45592 -0.00218
 O150 O -0.07357 0.54173 -0.00216
 O151 O 0.08214 0.56829 0.08666
 O152 O 0.03686 0.62138 0.04030
 C153 C 0.06889 0.61192 0.07373
 O154 O 0.08680 0.43194 -0.08748
 O155 O 0.03937 0.37841 -0.04359
 C156 C 0.07349 0.38812 -0.07503
 O157 O 0.08289 0.56946 -0.09075
 O158 O 0.03818 0.62193 -0.04335
 C159 C 0.07017 0.61299 -0.07706
 O160 O 0.08666 0.43124 0.08273
 O161 O 0.04040 0.37820 0.03773
 C162 C 0.07381 0.38762 0.06971
 Zr163 Zr 0.05930 0.49977 0.05932
 O164 O 0.13645 0.50527 0.05852
 O165 O 0.05955 0.49431 0.13647
 Zr166 Zr 0.05927 0.50043 -0.06427
 O167 O 0.13641 0.50567 -0.06494
 O168 O 0.05844 0.49587 -0.14146
 Zr169 Zr -0.00228 0.42763 -0.00227
 Zr170 Zr -0.00290 0.57193 -0.00219
 O171 O 0.06800 0.54230 -0.00238
 O172 O 0.06901 0.45668 -0.00255
 O173 O -0.00284 0.54277 0.06914
 O174 O -0.00237 0.45801 -0.07302
 O175 O -0.00243 0.45739 0.06845
 O176 O -0.00274 0.54358 -0.07364
 H177 H -0.10224 0.56377 -0.00217
 H178 H -0.00221 0.43625 -0.10182
 H179 H 0.09665 0.56437 -0.00221
 H180 H -0.00223 0.43533 0.09719
 H181 H -0.04374 0.52153 -0.15381
 H182 H 0.04017 0.52441 -0.15391
 H183 H 0.14918 0.47890 -0.04433
 H184 H 0.14919 0.47752 0.03937
 H185 H 0.03913 0.52115 0.14924
 H186 H -0.04436 0.51998 0.14948
 H187 H -0.15419 0.47579 0.04020
 H188 H -0.15408 0.47657 -0.04399
 O189 O 0.91247 0.08695 0.56901
 O190 O 0.96055 0.04301 0.62175
 C191 C 0.92629 0.07425 0.61265
 O192 O 0.91658 -0.08662 0.43165
 O193 O 0.95969 -0.03870 0.37792
 C194 C 0.92861 -0.07299 0.38772
 O195 O 0.91339 -0.08304 0.56915
 O196 O 0.96090 -0.03910 0.62198
 C197 C 0.92706 -0.07073 0.61282
 O198 O 0.91579 0.09118 0.43112
 O199 O 0.96074 0.04492 0.37772
 C200 C 0.92866 0.07825 0.38729
 Zr201 Zr 0.93941 0.06402 0.49989
 O202 O 0.86223 0.06354 0.49530
 O203 O 0.93927 0.14097 0.50488
 Zr204 Zr 0.93987 -0.05931 0.50015
 O205 O 0.86267 -0.05887 0.49554
 O206 O 0.93978 -0.13629 0.50545
 O207 O 0.93025 0.00220 0.54370
 O208 O 0.93051 0.00239 0.45778
 O209 O 1.08635 0.09131 0.42959
 O210 O 1.04193 0.04393 0.37706
 C211 C 1.07365 0.07773 0.38596
 O212 O 1.09101 -0.08243 0.56784
 O213 O 1.04462 -0.03759 0.62119
 C214 C 1.07804 -0.06956 0.61163
 O215 O 1.08632 -0.08607 0.43031
 O216 O 1.04095 -0.03958 0.37737
 C217 C 1.07293 -0.07310 0.38664
 O218 O 1.09045 0.08762 0.56755
 O219 O 1.04323 0.04356 0.62120
 C220 C 1.07713 0.07510 0.61149
 Zr221 Zr 1.06311 0.06449 0.49885
 O222 O 1.14025 0.06494 0.49331
 O223 O 1.06229 0.14147 0.50363
 Zr224 Zr 1.06374 -0.05874 0.49920
 O225 O 1.14088 -0.05718 0.49339
 O226 O 1.06497 -0.13570 0.50444
 Zr227 Zr 1.00181 0.00236 0.57188
 Zr228 Zr 1.00112 0.00263 0.42719
 O229 O 1.07207 0.00289 0.45662
 O230 O 1.07312 0.00285 0.54257
 O231 O 1.00102 0.07384 0.45580
 O232 O 1.00205 -0.06811 0.54186
 O233 O 1.00144 0.07302 0.54159
 O234 O 1.00160 -0.06858 0.45627
 H235 H 0.90174 0.00239 0.43589
 H236 H 1.00234 -0.09685 0.56388
 H237 H 1.10064 0.00282 0.43432
 H238 H 1.00141 0.10168 0.56350
 H239 H 0.96012 -0.14887 0.47838
 H240 H 1.04357 -0.14848 0.47842
 H241 H 1.15349 -0.03896 0.52180
 H242 H 1.15307 0.04476 0.52040
 H243 H 1.04325 0.15395 0.47559
 H244 H 0.95929 0.15367 0.47753
 H245 H 0.84981 0.04360 0.52283
 H246 H 0.85013 -0.04013 0.52370
 C247 C 1.14234 0.14375 0.26900
 C248 C 1.17702 0.11640 0.30422
 C249 C 1.15387 0.09420 0.34238
 C250 C 1.09833 0.10183 0.34297
 C251 C 1.09167 0.15732 0.34139
 C252 C 1.11498 0.17939 0.30323
 C253 C 1.10381 0.10581 0.25443
 C254 C 1.08091 0.08400 0.29271
 H255 H 1.21656 0.11691 0.30160
 H256 H 1.17361 0.07493 0.37086
 H257 H 1.07220 0.17776 0.36918
 H258 H 1.11620 0.21878 0.29989
 H259 H 1.09513 0.09682 0.21683
 H260 H 1.05283 0.05663 0.28732
 C261 C 0.86040 -0.14344 0.27414
 C262 C 0.89596 -0.10325 0.25751
 C263 C 0.91875 -0.07977 0.29462
 C264 C 0.90417 -0.09834 0.34572
 C265 C 0.84829 -0.09414 0.34726
 C266 C 0.82533 -0.11806 0.31040
 C267 C 0.89113 -0.17707 0.30762
 C268 C 0.91422 -0.15332 0.34454
 H269 H 0.90276 -0.09406 0.21947
 H270 H 0.94483 -0.05069 0.28789
 H271 H 0.82835 -0.07561 0.37605
 H272 H 0.78580 -0.12062 0.30895
 H273 H 0.89228 -0.21649 0.30498
 H274 H 0.93586 -0.17233 0.37179
 C275 C 0.86342 0.13438 0.73512
 C276 C 0.85813 0.07838 0.73118
 C277 C 0.87791 0.05922 0.68988
 C278 C 0.90229 0.09706 0.65637
 C279 C 0.86235 0.13503 0.64602
 C280 C 0.84214 0.15444 0.68710
 C281 C 0.91922 0.14223 0.73052
 C282 C 0.93916 0.12329 0.68922
 H283 H 0.84288 0.05508 0.75948
 H284 H 0.87803 0.02033 0.68277
 H285 H 0.85079 0.14584 0.60967
 H286 H 0.81345 0.18172 0.68556
 H287 H 0.94194 0.15857 0.75844
 H288 H 0.97812 0.12490 0.68176
 C289 C 1.13993 -0.13383 0.73243
 C290 C 1.15969 -0.15403 0.68394
 C291 C 1.13985 -0.13312 0.64343
 C292 C 1.10170 -0.09364 0.65485
 C293 C 1.06422 -0.11889 0.68825
 C294 C 1.08394 -0.13937 0.72894
 C295 C 1.14776 -0.07815 0.72886
 C296 C 1.12814 -0.05740 0.68817
 H297 H 1.18717 -0.18247 0.68174
 H298 H 1.15050 -0.14383 0.60680
 H299 H 1.02515 -0.11896 0.68145
 H300 H 1.06112 -0.15557 0.75710
 H301 H 1.16472 -0.05619 0.75697
 H302 H 1.12964 -0.01843 0.68133
 C303 C 0.26631 1.13715 1.13580
 C304 C 0.31475 1.15718 1.15584
 C305 C 0.35540 1.13679 1.13576
 C306 C 0.34430 1.09786 1.09716
 C307 C 0.31072 1.06110 1.12313
 C308 C 0.26980 1.08129 1.14276
 C309 C 0.27032 1.14340 1.07968
 C310 C 0.31124 1.12340 1.05985
 H311 H 0.31689 1.18524 1.18362
 H312 H 0.39195 1.14756 1.14652
 H313 H 0.31738 1.02209 1.12397
 H314 H 0.24136 1.05878 1.15884
 H315 H 0.24218 1.15922 1.05672
 H316 H 0.31823 1.12372 1.02079
 C317 C 0.26686 0.86230 0.86482
 C318 C 0.27165 0.91813 0.85811
 C319 C 0.31243 0.93746 0.87856
 C320 C 0.34459 0.90003 0.90508
 C321 C 0.31007 0.87503 0.94167
 C322 C 0.26928 0.85580 0.92095
 C323 C 0.31540 0.84137 0.84570
 C324 C 0.35591 0.86096 0.86661
 H325 H 0.24404 0.94133 0.84174
 H326 H 0.31981 0.97635 0.87803
 H327 H 0.31613 0.87437 0.98084
 H328 H 0.24033 0.84018 0.94317
 H329 H 0.31770 0.81331 0.81793
 H330 H 0.39251 0.84950 0.85657
 C331 C 0.73242 0.86162 1.14275
 C332 C 0.72922 0.91746 1.14915
 C333 C 0.68872 0.93792 1.12889
 C334 C 0.65521 0.90126 1.10320
 C335 C 0.68860 0.87518 1.06648
 C336 C 0.72908 0.85495 1.08688
 C337 C 0.68366 0.84203 1.16278
 C338 C 0.64338 0.86262 1.14225
 H339 H 0.75752 0.93972 1.16545
 H340 H 0.68221 0.97694 1.12935
 H341 H 0.68203 0.87448 1.02738
 H342 H 0.75727 0.83833 1.06456
 H343 H 0.68111 0.81418 1.19095
 H344 H 0.60664 0.85223 1.15303
 C345 C 0.73564 1.13217 0.86459
 C346 C 0.68735 1.15191 0.84380
 C347 C 0.64660 1.13167 0.86399
 C348 C 0.65748 1.09322 0.90346
 C349 C 0.69119 1.05617 0.87850
 C350 C 0.73220 1.07620 0.85868
 C351 C 0.73129 1.13910 0.92051
 C352 C 0.69029 1.11930 0.94046
 H353 H 0.68539 1.17960 0.81542
 H354 H 0.61011 1.14219 0.85271
 H355 H 0.68444 1.01719 0.87826
 H356 H 0.76063 1.05356 0.84295
 H357 H 0.75922 1.15540 0.94327
 H358 H 0.68305 1.12015 0.97947
 C359 C 0.13729 0.26737 0.13319
 C360 C 0.14488 0.27127 0.07734
 C361 C 0.12466 0.31175 0.05686
 C362 C 0.09790 0.34452 0.09350
 C363 C 0.06093 0.31070 0.11884
 C364 C 0.08126 0.27022 0.13908
 C365 C 0.15646 0.31584 0.15355
 C366 C 0.13602 0.35612 0.13291
 H367 H 0.16207 0.24348 0.05507
 H368 H 0.12592 0.31875 0.01782
 H369 H 0.02178 0.31708 0.11916
 H370 H 0.05889 0.24180 0.15534
 H371 H 0.18398 0.31821 0.18192
 H372 H 0.14622 0.39271 0.14380
 C373 C -0.13786 0.26508 -0.13644
 C374 C -0.14369 0.26836 -0.08041
 C375 C -0.12466 0.30957 -0.06066
 C376 C -0.10056 0.34372 -0.09816
 C377 C -0.06304 0.31170 -0.12474
 C378 C -0.08224 0.27050 -0.14427
 C379 C -0.15988 0.31280 -0.15617
 C380 C -0.14048 0.35390 -0.13625
 H381 H -0.15922 0.23983 -0.05762
 H382 H -0.12518 0.31639 -0.02163
 H383 H -0.02423 0.31977 -0.12637
 H384 H -0.05914 0.24324 -0.16126
 H385 H -0.18844 0.31407 -0.18357
 H386 H -0.15258 0.39011 -0.14672
 C387 C 0.14045 0.72910 -0.14205
 C388 C 0.17443 0.69395 -0.11402
 C389 C 0.15075 0.65599 -0.09222
 C390 C 0.09535 0.65575 -0.10079
 C391 C 0.07781 0.70602 -0.08318
 C392 C 0.10133 0.74402 -0.10470
 C393 C 0.11356 0.69538 -0.17821
 C394 C 0.08972 0.65741 -0.15652
 H395 H 0.21395 0.69681 -0.11343
 H396 H 0.16999 0.62765 -0.07226
 H397 H 0.04923 0.71160 -0.05622
 H398 H 0.09275 0.78163 -0.09595
 H399 H 0.11514 0.69919 -0.21764
 H400 H 0.07023 0.63003 -0.17733
 C401 C -0.14108 0.72604 0.14511
 C402 C -0.17708 0.69073 0.12019
 C403 C -0.15508 0.65334 0.09605
 C404 C -0.09913 0.65375 0.09948
 C405 C -0.08392 0.70446 0.08056
 C406 C -0.10580 0.74193 0.10436
 C407 C -0.11051 0.69232 0.17845
 C408 C -0.08840 0.65490 0.15446
 H409 H -0.21653 0.69336 0.12303
 H410 H -0.17573 0.62509 0.07765
 H411 H -0.05813 0.71069 0.05100
 H412 H -0.09859 0.77974 0.09503
 H413 H -0.10841 0.69565 0.21785
 H414 H -0.06673 0.62755 0.17325
 C415 C 1.14608 0.14359 0.72580
 C416 C 1.11910 0.17827 0.69046
 C417 C 1.09586 0.15522 0.65321
 C418 C 1.10208 0.09964 0.65374
 C419 C 1.15754 0.09152 0.65459
 C420 C 1.18065 0.11471 0.69188
 C421 C 1.10726 0.10651 0.74211
 C422 C 1.08430 0.08356 0.70474
 H423 H 1.11990 0.21771 0.69296
 H424 H 1.07621 0.17494 0.62498
 H425 H 1.17717 0.07067 0.62723
 H426 H 1.22012 0.11428 0.69519
 H427 H 1.09861 0.09888 0.78011
 H428 H 1.05615 0.05642 0.71121
 C429 C 0.85868 -0.14046 0.72759
 C430 C 0.82400 -0.11118 0.69388
 C431 C 0.84705 -0.08750 0.65660
 C432 C 0.90246 -0.09567 0.65526
 C433 C 0.92050 -0.08022 0.70608
 C434 C 0.89770 -0.10355 0.74358
 C435 C 0.88536 -0.17477 0.69164
 C436 C 0.90857 -0.15126 0.65437
 H437 H 0.78447 -0.11127 0.69686
 H438 H 0.82731 -0.06665 0.62925
 H439 H 0.94875 -0.05321 0.71233
 H440 H 0.90665 -0.09629 0.78149
 H441 H 0.88393 -0.21426 0.69335
 H442 H 0.92773 -0.17066 0.62563
 C443 C 1.13398 -0.13740 0.26549
 C444 C 1.07791 -0.14356 0.26999
 C445 C 1.05838 -0.12317 0.31081
 C446 C 1.09591 -0.09743 0.34326
 C447 C 1.13468 -0.13634 0.35451
 C448 C 1.15447 -0.15709 0.31398
 C449 C 1.14086 -0.08153 0.26825
 C450 C 1.12152 -0.06097 0.30907
 H451 H 1.05475 -0.15948 0.24220
 H452 H 1.01938 -0.12327 0.31807
 H453 H 1.14578 -0.14684 0.39110
 H454 H 1.18232 -0.18518 0.31623
 H455 H 1.15680 -0.05932 0.23945
 H456 H 1.12238 -0.02191 0.31530
 C457 C 0.86382 0.14058 0.26673
 C458 C 0.91984 0.14782 0.26951
 C459 C 0.94074 0.12813 0.31011
 C460 C 0.90447 0.10198 0.34408
 C461 C 0.86524 0.14026 0.35581
 C462 C 0.84414 0.16027 0.31552
 C463 C 0.85815 0.08459 0.27063
 C464 C 0.87877 0.06478 0.31122
 H465 H 0.94201 0.16388 0.24075
 H466 H 0.97990 0.12900 0.31623
 H467 H 0.85484 0.15092 0.39252
 H468 H 0.81585 0.18789 0.31816
 H469 H 0.84234 0.06173 0.24254
 H470 H 0.87894 0.02576 0.31800
 C471 C 0.14418 0.27453 -0.14302
 C472 C 0.11693 0.30934 -0.17802
 C473 C 0.09307 0.34635 -0.15513
 C474 C 0.09897 0.34609 -0.09940
 C475 C 0.08175 0.29511 -0.08314
 C476 C 0.10536 0.25798 -0.10591
 C477 C 0.17812 0.30886 -0.11411
 C478 C 0.15438 0.34586 -0.09107
 H479 H 0.11801 0.30673 -0.21754
 H480 H 0.07315 0.37423 -0.17506
 H481 H 0.05350 0.28849 -0.05601
 H482 H 0.09716 0.22001 -0.09816
 H483 H 0.21763 0.30599 -0.11354
 H484 H 0.17353 0.37343 -0.07020
 C485 C -0.14414 0.27140 0.14084
 C486 C -0.10469 0.25598 0.10395
 C487 C -0.08247 0.29368 0.08053
 C488 C -0.10146 0.34416 0.09588
 C489 C -0.15680 0.34197 0.08758
 C490 C -0.17930 0.30443 0.11133
 C491 C -0.11828 0.30775 0.17520
 C492 C -0.09563 0.34524 0.15160
 H493 H -0.09504 0.21829 0.09674
 H494 H -0.05403 0.28777 0.05350
 H495 H -0.17692 0.36895 0.06664
 H496 H -0.21877 0.30090 0.11139
 H497 H -0.11978 0.30600 0.21478
 H498 H -0.07704 0.37421 0.17104
 C499 C -0.13737 0.73336 -0.14151
 C500 C -0.15721 0.68496 -0.16162
 C501 C -0.13688 0.64446 -0.14129
 C502 C -0.09822 0.65560 -0.10233
 C503 C -0.06116 0.68906 -0.12796
 C504 C -0.08127 0.72986 -0.14792
 C505 C -0.14409 0.72947 -0.08549
 C506 C -0.12422 0.68868 -0.06538
 H507 H -0.18504 0.68275 -0.18971
 H508 H -0.14748 0.60798 -0.15215
 H509 H -0.02206 0.68243 -0.12831
 H510 H -0.05851 0.75828 -0.16363
 H511 H -0.16002 0.75764 -0.06277
 H512 H -0.12481 0.68186 -0.02627
 C513 C 0.13172 0.73201 0.13712
 C514 C 0.15211 0.68352 0.15655
 C515 C 0.13168 0.64329 0.13613
 C516 C 0.09243 0.65497 0.09778
 C517 C 0.05557 0.68776 0.12425
 C518 C 0.07584 0.72819 0.14445
 C519 C 0.13792 0.72920 0.08114
 C520 C 0.11787 0.68877 0.06082
 H521 H 0.18034 0.68110 0.18423
 H522 H 0.14261 0.60668 0.14651
 H523 H 0.01654 0.68084 0.12526
 H524 H 0.05339 0.75602 0.16135
 H525 H 0.15432 0.75759 0.05880
 H526 H 0.11841 0.68242 0.02169
 C527 C 0.27558 1.14331 0.85893
 C528 C 0.25855 1.10469 0.89601
 C529 C 0.29551 1.08137 0.91952
 C530 C 0.34677 1.09865 0.90396
 C531 C 0.34787 1.09249 0.84826
 C532 C 0.31107 1.11608 0.82465
 C533 C 0.30943 1.17741 0.88820
 C534 C 0.34625 1.15395 0.91196
 H535 H 0.22041 1.09643 0.90320
 H536 H 0.28859 1.05329 0.94671
 H537 H 0.37614 1.07259 0.82889
 H538 H 0.30901 1.11694 0.78509
 H539 H 0.30648 1.21683 0.88845
 H540 H 0.37352 1.17325 0.93314
 C541 C 0.26952 0.85623 1.14145
 C542 C 0.25512 0.89555 1.10416
 C543 C 0.29352 0.91767 1.08185
 C544 C 0.34366 0.89863 1.09866
 C545 C 0.34318 0.90446 1.15441
 C546 C 0.30479 0.88202 1.17688
 C547 C 0.30315 0.82108 1.11294
 C548 C 0.34156 0.84340 1.09034
 H549 H 0.21756 0.90519 1.09592
 H550 H 0.28828 0.94606 1.05466
 H551 H 0.37160 0.92310 1.17466
 H552 H 0.30154 0.88078 1.21636
 H553 H 0.29910 0.78177 1.11270
 H554 H 0.36902 0.82328 1.07004
 C555 C 0.72768 1.14006 1.14394
 C556 C 0.74369 1.10150 1.10667
 C557 C 0.70618 1.07786 1.08468
 C558 C 0.65533 1.09474 1.10181
 C559 C 0.65611 1.08864 1.15755
 C560 C 0.69355 1.11261 1.17969
 C561 C 0.69258 1.17384 1.11558
 C562 C 0.65518 1.15006 1.09333
 H563 H 0.78163 1.09340 1.09835
 H564 H 0.71245 1.04963 1.05772
 H565 H 0.62854 1.06869 1.17802
 H566 H 0.69675 1.11380 1.21915
 H567 H 0.69513 1.21329 1.11499
 H568 H 0.62699 1.16914 1.07302
 C569 C 0.72833 0.85828 0.85725
 C570 C 0.69474 0.88836 0.82334
 C571 C 0.65718 0.91084 0.84690
 C572 C 0.65571 0.90088 0.90207
 C573 C 0.65517 0.84511 0.90665
 C574 C 0.69275 0.82276 0.88294
 C575 C 0.74410 0.89400 0.89727
 C576 C 0.70644 0.91622 0.92066
 H577 H 0.69828 0.88988 0.78389
 H578 H 0.62991 0.93226 0.82770
 H579 H 0.62668 0.82482 0.92545
 H580 H 0.69524 0.78337 0.88082
 H581 H 0.78197 0.90123 0.90644
 H582 H 0.71254 0.94232 0.94971
   
