data_POSCAR
  _audit_creation_date              2014-09-24
  _audit_creation_method            'ToBaCCo'
  _symmetry_space_group_name_H-M    'P1'
  _symmetry_Int_Tables_number       1
  _symmetry_cell_setting            triclinic
  loop_
  _symmetry_equiv_pos_as_xyz
 x,y,z
_cell_length_a 39.0528
_cell_length_b 39.1534
_cell_length_c 39.1051
_cell_angle_alpha 105.082700
_cell_angle_beta 74.996500
_cell_angle_gamma 74.605500
loop_
  _atom_site_label
  _atom_site_type_symbol
  _atom_site_fract_x
  _atom_site_fract_y
  _atom_site_fract_z
C1 C 0.52304 0.47472 -0.00209
 C2 C 0.49579 0.50198 -0.00587
 C3 C 0.45931 0.49797 -0.00709
 C4 C 0.50065 0.53758 -0.00884
 C5 C 0.55861 0.47970 0.00122
 C6 C 0.51900 0.43820 -0.00137
 C7 C 0.44796 0.50182 -0.03747
 C8 C 0.41304 0.49989 -0.03846
 C9 C 0.38820 0.49437 -0.00873
 C10 C 0.40005 0.49034 0.02172
 C11 C 0.43508 0.49230 0.02255
 C12 C 0.53126 0.53702 -0.03759
 C13 C 0.53434 0.57094 -0.04083
 C14 C 0.50669 0.60599 -0.01554
 C15 C 0.47615 0.60629 0.01320
 C16 C 0.47312 0.57246 0.01640
 C17 C 0.55781 0.51055 0.02985
 C18 C 0.59167 0.51434 0.03279
 C19 C 0.62694 0.48716 0.00735
 C20 C 0.62749 0.45616 -0.02106
 C21 C 0.59370 0.45244 -0.02397
 C22 C 0.52259 0.42651 0.02892
 C23 C 0.51976 0.39190 0.02972
 C24 C 0.51357 0.36806 0.00003
 C25 C 0.51016 0.37979 -0.03043
 C26 C 0.51302 0.41446 -0.03119
 H27 H 0.46623 0.50640 -0.06053
 H28 H 0.40559 0.50312 -0.06256
 H29 H 0.38219 0.48609 0.04531
 H30 H 0.44307 0.48993 0.04660
 H31 H 0.55245 0.51034 -0.05779
 H32 H 0.55816 0.56965 -0.06337
 H33 H 0.44918 0.57346 0.03863
 H34 H 0.53098 0.53153 0.05003
 H35 H 0.59017 0.53846 0.05511
 H36 H 0.65406 0.43464 -0.04109
 H37 H 0.59491 0.42832 -0.04611
 H38 H 0.52745 0.44434 0.05207
 H39 H 0.52262 0.38379 0.05356
 H40 H 0.50558 0.36208 -0.05385
 H41 H 0.51091 0.42263 -0.05520
 H42 H 0.45431 0.63268 0.03316
 C43 C -0.00124 0.52539 0.52362
 C44 C -0.00537 0.49831 0.49676
 C45 C -0.00826 0.46276 0.50184
 C46 C -0.00700 0.50245 0.46049
 C47 C -0.00066 0.56189 0.51941
 C48 C 0.00264 0.52020 0.55889
 C49 C 0.01684 0.42785 0.47431
 C50 C 0.01364 0.39408 0.47750
 C51 C -0.01497 0.39446 0.50821
 C52 C -0.04010 0.42954 0.53588
 C53 C -0.03685 0.46341 0.53264
 C54 C 0.02264 0.50793 0.43597
 C55 C 0.02140 0.50998 0.40113
 C56 C -0.00937 0.50629 0.39006
 C57 C -0.03902 0.50093 0.41483
 C58 C -0.03774 0.49889 0.44959
 C59 C -0.03083 0.58584 0.51379
 C60 C -0.03022 0.62053 0.51084
 C61 C 0.00043 0.63207 0.51379
 C62 C 0.03048 0.60801 0.51959
 C63 C 0.02983 0.57338 0.52252
 C64 C -0.02231 0.54740 0.59400
 C65 C -0.01889 0.54344 0.62753
 C66 C 0.00978 0.51225 0.62665
 C67 C 0.03500 0.48514 0.59136
 C68 C 0.03155 0.48918 0.55777
 H69 H 0.03895 0.42679 0.45022
 H70 H 0.03348 0.36766 0.45564
 H71 H -0.06253 0.43090 0.55983
 H72 H -0.05694 0.49012 0.55384
 H73 H 0.04696 0.51005 0.44359
 H74 H 0.04478 0.51400 0.38270
 H75 H -0.06077 0.49442 0.46806
 H76 H -0.05499 0.57783 0.51205
 H77 H -0.05392 0.63841 0.50656
 H78 H 0.05448 0.61596 0.52209
 H79 H 0.05326 0.55539 0.52709
 H80 H -0.04466 0.57165 0.59543
 H81 H -0.03876 0.56492 0.65413
 H82 H 0.05752 0.46089 0.58964
 H83 H 0.05155 0.46825 0.53090
 H84 H -0.06312 0.49792 0.40726
 C85 C 0.50758 0.00214 0.48062
 C86 C 0.48093 -0.00266 0.50737
 C87 C 0.48653 -0.00647 0.54258
 C88 C 0.44435 -0.00369 0.50341
 C89 C 0.50362 0.00292 0.44399
 C90 C 0.54259 0.00645 0.48631
 C91 C 0.51809 -0.03491 0.54124
 C92 C 0.52250 -0.03849 0.57468
 C93 C 0.49519 -0.01384 0.61026
 C94 C 0.46347 0.01447 0.61122
 C95 C 0.45919 0.01796 0.57781
 C96 C 0.43289 -0.03389 0.50750
 C97 C 0.39765 -0.03432 0.50608
 C98 C 0.37293 -0.00435 0.50083
 C99 C 0.38459 0.02583 0.49651
 C100 C 0.41991 0.02622 0.49794
 C101 C 0.50749 0.03307 0.43226
 C102 C 0.50604 0.03332 0.39702
 C103 C 0.50097 0.00323 0.37254
 C104 C 0.49688 -0.02690 0.38447
 C105 C 0.49834 -0.02711 0.41980
 C106 C 0.54074 0.03529 0.51760
 C107 C 0.57400 0.03929 0.52217
 C108 C 0.60989 0.01467 0.49529
 C109 C 0.61135 -0.01401 0.46381
 C110 C 0.57811 -0.01791 0.45937
 H111 H 0.53918 -0.05451 0.51427
 H112 H 0.54725 -0.06075 0.57249
 H113 H 0.44169 0.03405 0.63780
 H114 H 0.43453 0.03996 0.57943
 H115 H 0.45125 -0.05711 0.51199
 H116 H 0.38965 -0.05799 0.50954
 H117 H 0.42789 0.05017 0.49547
 H118 H 0.51182 0.05640 0.45040
 H119 H 0.50932 0.05697 0.38883
 H120 H 0.49306 -0.05059 0.36634
 H121 H 0.49603 -0.05102 0.42799
 H122 H 0.51352 0.05485 0.53836
 H123 H 0.57143 0.06183 0.54671
 H124 H 0.63818 -0.03357 0.44236
 H125 H 0.58010 -0.04021 0.43492
 H126 H 0.36625 0.04943 0.49255
 O127 O 0.48004 -0.01137 -0.05398
 O128 O 0.47799 0.00152 0.04323
 O129 O 0.47840 0.04366 0.00120
 O130 O 0.48054 -0.05371 -0.01232
 O131 O 0.54322 -0.07476 -0.03324
 O132 O 0.54107 0.02256 -0.01945
 O133 O 0.54066 -0.01968 0.02257
 O134 O 0.54271 -0.03227 -0.07494
 Cu135 Cu 0.47297 -0.00286 -0.00338
 Cu136 Cu 0.54821 -0.02813 -0.02834
 C137 C 0.51162 -0.02367 -0.08094
 C138 C 0.50894 -0.00727 0.04942
 C139 C 0.50943 0.04960 -0.00717
 C140 C 0.51224 -0.08074 -0.02478
 O141 O -0.05391 0.53139 1.02048
 O142 O 0.04349 0.52942 1.00844
 O143 O 0.00198 0.52952 0.96578
 O144 O -0.01238 0.53188 1.06316
 O145 O 0.00899 0.46933 1.04253
 O146 O 0.02292 0.46698 0.94494
 O147 O 0.06459 0.46687 0.98752
 O148 O -0.03266 0.46886 0.99997
 Cu149 Cu -0.00736 0.53684 1.01651
 Cu150 Cu 0.01805 0.46172 0.99163
 C151 C -0.05978 0.50038 1.01208
 C152 C 0.07053 0.49779 0.99629
 C153 C 0.01461 0.49794 0.93884
 C154 C -0.00370 0.50103 1.06937
 O155 O 0.00038 -0.04280 0.47940
 O156 O -0.01281 0.05467 0.48190
 O157 O 0.04273 -0.00117 0.47905
 O158 O -0.05481 0.01284 0.48131
 O159 O -0.07570 0.03326 0.54380
 O160 O 0.02217 0.01959 0.54154
 O161 O -0.03367 0.07527 0.54440
 O162 O -0.02017 -0.02216 0.54189
 Cu163 Cu -0.00405 0.00381 0.47415
 Cu164 Cu -0.02891 0.02854 0.54919
 C165 C -0.00797 -0.04899 0.51028
 C166 C -0.02519 0.08149 0.51357
 C167 C 0.04903 0.00721 0.50986
 C168 C -0.08179 0.02508 0.51283
 N169 N -0.30437 0.52331 1.04037
 C170 C -0.27071 0.49669 1.01566
 N171 N -0.27060 0.46712 0.98831
 N172 N -0.30310 0.46421 0.98572
 C173 C -0.33698 0.49074 1.01037
 N174 N -0.33692 0.52038 1.03776
 C175 C -0.23547 0.49950 1.01814
 C176 C -0.20522 0.50077 1.01916
 C177 C -0.16852 0.50101 1.01907
 N178 N -0.16222 0.53406 1.02864
 N179 N -0.12765 0.53396 1.02696
 C180 C -0.09825 0.50079 1.01561
 N181 N -0.10472 0.46778 1.00619
 N182 N -0.13926 0.46790 1.00788
 N183 N 0.30845 0.49777 0.96128
 C184 C 0.28447 0.49317 0.99016
 N185 N 0.29554 0.48861 1.01929
 N186 N 0.32955 0.48877 1.01957
 C187 C 0.35386 0.49353 0.99075
 N188 N 0.34243 0.49793 0.96158
 C189 C 0.24762 0.49366 0.99013
 C190 C 0.21657 0.49430 0.99021
 C191 C 0.17950 0.49519 0.99063
 N192 N 0.17272 0.46252 0.98005
 N193 N 0.13807 0.46337 0.98134
 C194 C 0.10904 0.49691 0.99320
 N195 N 0.11596 0.52958 1.00363
 N196 N 0.15062 0.52872 1.00234
 N197 N 0.03046 -0.28596 0.51341
 C198 C 0.00120 -0.26239 0.50858
 N199 N -0.02820 -0.27344 0.50514
 N200 N -0.02836 -0.30705 0.50655
 C201 C 0.00086 -0.33081 0.51148
 N202 N 0.03029 -0.31955 0.51481
 C203 C 0.00098 -0.22584 0.50797
 C204 C 0.00053 -0.19495 0.50792
 C205 C -0.00050 -0.15792 0.50837
 N206 N -0.01211 -0.12906 0.54172
 N207 N -0.01400 -0.09443 0.54229
 C208 C -0.00430 -0.08750 0.50951
 N209 N 0.00745 -0.11649 0.47613
 N210 N 0.00933 -0.15114 0.47558
 N211 N 0.00207 0.29231 0.48546
 C212 C -0.02580 0.29224 0.51444
 N213 N -0.05010 0.32565 0.54167
 N214 N -0.04665 0.35817 0.53984
 C215 C -0.01875 0.35842 0.51077
 N216 N 0.00551 0.32478 0.48365
 C217 C -0.02916 0.25705 0.51609
 C218 C -0.03086 0.22686 0.51648
 C219 C -0.03149 0.19026 0.51596
 N220 N -0.04163 0.18340 0.54867
 N221 N -0.04031 0.14884 0.54795
 C222 C -0.02875 0.12001 0.51449
 N223 N -0.01880 0.12704 0.48180
 N224 N -0.02014 0.16158 0.48253
 N225 N 0.47607 0.00312 -0.28968
 C226 C 0.50632 -0.02415 -0.29042
 N227 N 0.53306 -0.04804 -0.32426
 N228 N 0.52955 -0.04472 -0.35638
 C229 C 0.49919 -0.01740 -0.35590
 N230 N 0.47258 0.00642 -0.32176
 C231 C 0.50970 -0.02744 -0.25561
 C232 C 0.51132 -0.02907 -0.22566
 C233 C 0.51181 -0.02961 -0.18922
 N234 N 0.54502 -0.03944 -0.18292
 N235 N 0.54508 -0.03819 -0.14853
 C236 C 0.51193 -0.02703 -0.11931
 N237 N 0.47877 -0.01737 -0.12580
 N238 N 0.47872 -0.01864 -0.16015
 N239 N 0.50611 0.03139 0.28857
 C240 C 0.50228 0.00197 0.26449
 N241 N 0.49764 -0.02691 0.27587
 N242 N 0.49696 -0.02642 0.31026
 C243 C 0.50088 0.00297 0.33454
 N244 N 0.50543 0.03186 0.32294
 C245 C 0.50347 0.00127 0.22729
 C246 C 0.50454 0.00063 0.19601
 C247 C 0.50573 -0.00037 0.15873
 N248 N 0.53945 -0.01256 0.13011
 N249 N 0.54052 -0.01429 0.09533
 C250 C 0.50789 -0.00384 0.08802
 N251 N 0.47418 0.00848 0.11679
 N252 N 0.47312 0.01021 0.15155
 N253 N 0.53987 -0.32498 -0.05054
 C254 C 0.51267 -0.29158 -0.02608
 N255 N 0.48377 -0.29174 0.00182
 N256 N 0.48203 -0.32428 0.00516
 C257 C 0.50913 -0.35790 -0.01925
 N258 N 0.53811 -0.35756 -0.04719
 C259 C 0.51429 -0.25632 -0.02930
 C260 C 0.51471 -0.22609 -0.03088
 C261 C 0.51428 -0.18948 -0.03140
 N262 N 0.48081 -0.16056 -0.01994
 N263 N 0.48019 -0.12602 -0.01850
 C264 C 0.51303 -0.11924 -0.02846
 N265 N 0.54653 -0.14831 -0.04012
 N266 N 0.54715 -0.18286 -0.04155
 N267 N 0.50451 0.27390 -0.02784
 C268 C 0.50837 0.26266 0.00137
 N269 N 0.51365 0.28599 0.03025
 N270 N 0.51506 0.31953 0.02990
 C271 C 0.51130 0.33098 0.00066
 N272 N 0.50593 0.30746 -0.02818
 C273 C 0.50770 0.22618 0.00135
 C274 C 0.50757 0.19535 0.00106
 C275 C 0.50790 0.15838 0.00018
 N276 N 0.47494 0.15187 0.01011
 N277 N 0.47538 0.11727 0.00829
 C278 C 0.50880 0.08806 -0.00348
 N279 N 0.54173 0.09473 -0.01326
 N280 N 0.54128 0.12932 -0.01144
 N281 N -0.29011 -0.00158 0.47705
 C282 C -0.29133 0.02600 0.50711
 N283 N -0.32547 0.04988 0.53340
 N284 N -0.35743 0.04624 0.52966
 C285 C -0.35646 0.01860 0.49951
 N286 N -0.32203 -0.00520 0.47333
 C287 C -0.25670 0.02956 0.51074
 C288 C -0.22681 0.03131 0.51250
 C289 C -0.19037 0.03186 0.51305
 N290 N -0.16129 0.02116 0.48007
 N291 N -0.12684 0.01968 0.48013
 C292 C -0.12029 0.02883 0.51318
 N293 N -0.14953 0.03973 0.54622
 N294 N -0.18401 0.04120 0.54615
 N295 N 0.27597 0.02549 0.49754
 C296 C 0.26476 -0.00336 0.50248
 N297 N 0.28906 -0.03270 0.50648
 N298 N 0.32348 -0.03310 0.50567
 C299 C 0.33491 -0.00422 0.50082
 N300 N 0.31041 0.02507 0.49673
 C301 C 0.22751 -0.00270 0.50383
 C302 C 0.19616 -0.00199 0.50502
 C303 C 0.15878 -0.00081 0.50633
 N304 N 0.13017 0.01135 0.54001
 N305 N 0.09523 0.01340 0.54119
 C306 C 0.08779 0.00333 0.50871
 N307 N 0.11656 -0.00897 0.47504
 N308 N 0.15147 -0.01102 0.47387
 N309 N -0.04022 0.50281 1.30784
 C310 C -0.01124 0.50693 1.28346
 N311 N 0.01821 0.51125 1.29407
 N312 N 0.01870 0.51134 1.32803
 C313 C -0.01024 0.50711 1.35261
 N314 N -0.03972 0.50290 1.34178
 C315 C -0.01145 0.50616 1.24667
 C316 C -0.01139 0.50530 1.21563
 C317 C -0.01083 0.50419 1.17856
 N318 N 0.00136 0.47056 1.14992
 N319 N 0.00305 0.46952 1.11518
 C320 C -0.00744 0.50209 1.10796
 N321 N -0.01980 0.53573 1.13675
 N322 N -0.02148 0.53676 1.17148
 N323 N -0.00814 0.53169 0.72860
 C324 C 0.01936 0.50186 0.72820
 N325 N 0.04384 0.47527 0.69453
 N326 N 0.04085 0.47848 0.66222
 C327 C 0.01329 0.50839 0.66244
 N328 N -0.01112 0.53488 0.69633
 C329 C 0.02216 0.49873 0.76319
 C330 C 0.02326 0.49733 0.79332
 C331 C 0.02306 0.49709 0.82998
 N332 N 0.03252 0.46407 0.83648
 N333 N 0.03045 0.46423 0.87110
 C334 C 0.01879 0.49743 0.90032
 N335 N 0.00951 0.53040 0.89363
 N336 N 0.01159 0.53023 0.85905
   
