data_POSCAR
  _audit_creation_date              2014-09-24
  _audit_creation_method            'ToBaCCo'
  _symmetry_space_group_name_H-M    'P1'
  _symmetry_Int_Tables_number       1
  _symmetry_cell_setting            triclinic
  loop_
  _symmetry_equiv_pos_as_xyz
 x,y,z
_cell_length_a 28.9098
_cell_length_b 29.0208
_cell_length_c 29.0044
_cell_angle_alpha 89.842600
_cell_angle_beta 90.120000
_cell_angle_gamma 90.083300
loop_
  _atom_site_label
  _atom_site_type_symbol
  _atom_site_fract_x
  _atom_site_fract_y
  _atom_site_fract_z
C1 C 0.17244 0.17430 0.22720
 N2 N 0.15171 0.21004 0.20496
 C3 C 0.17051 0.22852 0.16630
 N4 N 0.21078 0.21116 0.14995
 C5 C 0.23228 0.17544 0.17152
 N6 N 0.21274 0.15699 0.21016
 C7 C -0.17115 0.83109 0.23148
 N8 N -0.15257 0.79323 0.21154
 C9 C -0.17309 0.77282 0.17481
 N10 N -0.21329 0.79054 0.15792
 C11 C -0.23262 0.82865 0.17747
 N12 N -0.21113 0.84869 0.21416
 C13 C -0.16838 0.17284 -0.22665
 N14 N -0.20774 0.15532 -0.20794
 C15 C -0.22685 0.17463 -0.16990
 N16 N -0.20608 0.21184 -0.15066
 C17 C -0.16676 0.22985 -0.16876
 N18 N -0.14794 0.21025 -0.20693
 C19 C 0.17063 0.83720 -0.22584
 N20 N 0.14899 0.80078 -0.20537
 C21 C 0.16633 0.78188 -0.16596
 N22 N 0.20559 0.79959 -0.14726
 C23 C 0.22762 0.83582 -0.16721
 N24 N 0.20982 0.85444 -0.20640
 C25 C 0.16910 1.17734 0.77204
 N26 N 0.15280 1.21738 0.78983
 C27 C 0.17264 1.23681 0.82765
 N28 N 0.20955 1.21553 0.84776
 C29 C 0.22629 1.17540 0.83028
 N30 N 0.20590 1.15667 0.79250
 C31 C 0.82961 0.82872 0.76672
 N32 N 0.79221 0.84925 0.78620
 C33 C 0.77073 0.82975 0.82304
 N34 N 0.78702 0.78949 0.84054
 C35 C 0.82438 0.76863 0.82163
 N36 N 0.84537 0.78834 0.78463
 C37 C 0.17125 0.83520 1.22742
 N38 N 0.15196 0.79662 1.20853
 C39 C 0.16946 0.77840 1.16887
 N40 N 0.20614 0.79938 1.14830
 C41 C 0.22557 0.83770 1.16668
 N42 N 0.20799 0.85525 1.20616
 C43 C 0.83466 1.17411 1.22639
 N44 N 0.79508 1.15703 1.20797
 C45 C 0.77668 1.17504 1.16896
 N46 N 0.79834 1.21085 1.14793
 C47 C 0.83816 1.22874 1.16564
 N48 N 0.85620 1.21009 1.20502
 N49 N 0.45382 0.92191 0.95106
 N50 N 0.41813 0.89390 0.94643
 N51 N 0.55053 0.95501 0.91875
 N52 N 0.58489 0.94925 0.88952
 N53 N 0.55115 0.92295 0.95079
 N54 N 0.58590 0.89426 0.94399
 N55 N 0.45327 0.95381 0.91888
 N56 N 0.41719 0.94832 0.89144
 C57 C 0.39567 0.91072 0.90903
 C58 C 0.60663 0.91122 0.90562
 N59 N 0.54941 1.08611 0.94998
 N60 N 0.58447 1.11469 0.94443
 N61 N 0.45232 1.05299 0.91823
 N62 N 0.41619 1.05734 0.89069
 N63 N 0.45211 1.08509 0.95002
 N64 N 0.41576 1.11212 0.94505
 N65 N 0.54971 1.05411 0.91809
 N66 N 0.58508 1.06004 0.88994
 Mn67 Mn 0.50145 1.00398 0.91793
 C68 C 0.60637 1.09806 0.90682
 C69 C 0.39378 1.09446 0.90779
 N70 N 0.55119 0.92332 1.05071
 N71 N 0.58458 0.89341 1.05899
 N72 N 0.45336 0.95459 1.08195
 N73 N 0.41618 0.95083 1.10801
 N74 N 0.45371 0.92242 1.05020
 N75 N 0.41663 0.89603 1.05372
 N76 N 0.55072 0.95549 1.08246
 N77 N 0.58388 0.94843 1.11305
 Mn78 Mn 0.50257 0.92206 1.00071
 C79 C 0.60491 0.90970 1.09784
 C80 C 0.39377 0.91392 1.09021
 N81 N 0.45244 1.08574 1.04905
 N82 N 0.41835 1.11517 1.05560
 N83 N 0.54980 1.05467 1.08146
 N84 N 0.58529 1.06026 1.10951
 N85 N 0.54982 1.08644 1.04915
 N86 N 0.58546 1.11450 1.05430
 N87 N 0.45255 1.05393 1.08130
 N88 N 0.41856 1.06094 1.11078
 Mn89 Mn 0.50096 1.08639 0.99952
 Mn90 Mn 0.50159 1.00466 1.08233
 Cl91 Cl 0.50170 1.00423 1.00013
 C92 C 0.39738 1.09916 1.09414
 C93 C 0.60718 1.09774 1.09221
 N94 N 0.05315 0.45508 0.08140
 N95 N 0.05684 0.41767 0.10711
 N96 N 0.08460 0.55271 0.05003
 N97 N 0.11180 0.58897 0.05458
 N98 N 0.05280 0.55228 0.08228
 N99 N 0.05757 0.58827 0.10968
 N100 N 0.08511 0.45561 0.04930
 N101 N 0.11150 0.41862 0.05244
 C102 C 0.09362 0.39544 0.08889
 C103 C 0.09465 0.61075 0.09203
 N104 N 0.05129 0.55378 -0.08106
 N105 N 0.05417 0.59115 -0.10691
 N106 N 0.08434 0.45673 -0.05005
 N107 N 0.11366 0.42266 -0.05712
 N108 N 0.05192 0.45688 -0.08179
 N109 N 0.05827 0.42298 -0.11132
 N110 N 0.08361 0.55387 -0.04917
 N111 N 0.10926 0.59141 -0.05242
 Mn112 Mn 0.08502 0.50472 0.00004
 C113 C 0.09072 0.61412 -0.08886
 C114 C 0.09684 0.40181 -0.09541
 N115 N -0.04685 0.55162 0.08282
 N116 N -0.05230 0.58660 0.11127
 N117 N -0.07880 0.45487 0.05016
 N118 N -0.10473 0.41751 0.05316
 N119 N -0.04640 0.45449 0.08193
 N120 N -0.04942 0.41681 0.10736
 N121 N -0.07913 0.55188 0.05092
 N122 N -0.10742 0.58702 0.05676
 Mn123 Mn 0.00319 0.50338 0.08273
 C124 C -0.09026 0.60832 0.09460
 C125 C -0.08622 0.39424 0.08922
 N126 N -0.04753 0.45604 -0.08094
 N127 N -0.05199 0.41974 -0.10792
 N128 N -0.07997 0.55273 -0.04836
 N129 N -0.11057 0.58565 -0.05579
 N130 N -0.04824 0.55290 -0.08066
 N131 N -0.05639 0.58590 -0.11097
 N132 N -0.07947 0.45588 -0.04882
 N133 N -0.10651 0.41951 -0.05306
 Mn134 Mn 0.00188 0.50489 -0.08166
 Mn135 Mn -0.07990 0.50391 0.00101
 Cl136 Cl 0.00256 0.50425 0.00054
 C137 C -0.08907 0.39741 -0.09015
 C138 C -0.09521 0.60624 -0.09483
 N139 N 0.91998 0.05241 0.54780
 N140 N 0.89210 0.05659 0.58349
 N141 N 0.95173 0.08529 0.45093
 N142 N 0.94628 0.11299 0.41520
 N143 N 0.92009 0.05280 0.45088
 N144 N 0.89216 0.05757 0.41514
 N145 N 0.95154 0.08497 0.54802
 N146 N 0.94610 0.11213 0.58402
 C147 C 0.90879 0.09405 0.60571
 C148 C 0.90892 0.09533 0.39328
 N149 N 1.08397 0.05622 0.45142
 N150 N 1.11199 0.06220 0.41603
 N151 N 1.05094 0.08730 0.54817
 N152 N 1.05516 0.11523 0.58373
 N153 N 1.08365 0.05598 0.54865
 N154 N 1.11099 0.06169 0.58476
 N155 N 1.05120 0.08748 0.45123
 N156 N 1.05604 0.11561 0.41571
 Mn157 Mn 1.00133 0.08683 0.49957
 C158 C 1.09418 0.09945 0.39414
 C159 C 1.09279 0.09892 0.60621
 N160 N 0.92192 -0.04627 0.45084
 N161 N 0.89378 -0.05208 0.41543
 N162 N 0.95461 -0.07802 0.54786
 N163 N 0.94973 -0.10641 0.58313
 N164 N 0.92193 -0.04666 0.54794
 N165 N 0.89399 -0.05277 0.58338
 N166 N 0.95463 -0.07759 0.45083
 N167 N 0.94962 -0.10562 0.41539
 Mn168 Mn 0.92040 0.00306 0.49936
 C169 C 0.91147 -0.08928 0.39367
 C170 C 0.91176 -0.09025 0.60496
 N171 N 1.08570 -0.04325 0.54840
 N172 N 1.11338 -0.04763 0.58438
 N173 N 1.05424 -0.07558 0.45125
 N174 N 1.06002 -0.10344 0.41587
 N175 N 1.08587 -0.04307 0.45131
 N176 N 1.11409 -0.04798 0.41590
 N177 N 1.05415 -0.07584 0.54833
 N178 N 1.05945 -0.10323 0.58436
 Mn179 Mn 1.08542 0.00648 0.49994
 Mn180 Mn 1.00444 -0.07733 0.49956
 Cl181 Cl 1.00292 0.00474 0.49959
 C182 C 1.09665 -0.08528 0.60642
 C183 C 1.09752 -0.08586 0.39416
 C184 C 1.17104 0.11855 0.29113
 C185 C 1.15269 0.15645 0.26773
 C186 C 1.11263 0.17626 0.28815
 C187 C 1.09359 0.15819 0.32957
 C188 C 1.11348 0.11940 0.35158
 C189 C 1.15239 0.10105 0.33050
 C190 C 1.18689 0.06334 0.33439
 C191 C 1.20814 0.08301 0.28988
 H192 H 1.09603 0.20595 0.27265
 H193 H 1.06353 0.17468 0.34426
 H194 H 1.17090 0.02880 0.32986
 H195 H 1.20951 0.06721 0.36517
 H196 H 1.20436 0.05958 0.25986
 H197 H 1.24304 0.09824 0.29514
 C198 C 0.83306 -0.10995 0.29179
 C199 C 0.85035 -0.14913 0.27007
 C200 C 0.89091 -0.16832 0.29028
 C201 C 0.91110 -0.14886 0.33043
 C202 C 0.89174 -0.10943 0.35144
 C203 C 0.85268 -0.09119 0.33008
 C204 C 0.81726 -0.05425 0.33383
 C205 C 0.79494 -0.07545 0.29050
 H206 H 0.90687 -0.19873 0.27576
 H207 H 0.94144 -0.16504 0.34516
 H208 H 0.83217 -0.01942 0.32791
 H209 H 0.79574 -0.05795 0.36534
 H210 H 0.79685 -0.05280 0.25959
 H211 H 0.76058 -0.09136 0.29710
 C212 C 0.89220 0.16693 0.71143
 C213 C 0.85115 0.15164 0.73140
 C214 C 0.82875 0.11456 0.70851
 C215 C 0.84744 0.09531 0.66761
 C216 C 0.88903 0.11257 0.64848
 C217 C 0.91004 0.14840 0.67232
 C218 C 0.95087 0.17958 0.67185
 C219 C 0.93066 0.20083 0.71600
 H220 H 0.79670 0.10055 0.72178
 H221 H 0.82912 0.06737 0.65093
 H222 H 0.95063 0.20339 0.64178
 H223 H 0.98371 0.16058 0.67769
 H224 H 0.91865 0.23681 0.71100
 H225 H 0.95214 0.19442 0.74717
 C226 C 1.11328 -0.15961 0.71170
 C227 C 1.15293 -0.14295 0.73360
 C228 C 1.17430 -0.10439 0.71186
 C229 C 1.15609 -0.08522 0.67050
 C230 C 1.11593 -0.10384 0.64963
 C231 C 1.09583 -0.14103 0.67225
 C232 C 1.05749 -0.17503 0.66886
 C233 C 1.07741 -0.19650 0.71321
 H234 H 1.20518 -0.08897 0.72636
 H235 H 1.17371 -0.05624 0.65482
 H236 H 1.06079 -0.19757 0.63813
 H237 H 1.02308 -0.15874 0.67367
 H238 H 1.09261 -0.23112 0.70744
 H239 H 1.05423 -0.19329 0.74356
 C240 C 0.29825 1.12220 1.17568
 C241 C 0.27492 1.15923 1.15481
 C242 C 0.29710 1.18062 1.11678
 C243 C 0.33793 1.16218 1.09794
 C244 C 0.35763 1.12177 1.11636
 C245 C 0.33836 1.10401 1.15678
 C246 C 0.32533 1.05579 1.16865
 C247 C 0.28140 1.07538 1.18935
 H248 H 0.28222 1.21067 1.10028
 H249 H 0.35278 1.17841 1.06773
 H250 H 0.34910 1.04086 1.19483
 H251 H 0.31908 1.03402 1.13774
 H252 H 0.28047 1.07091 1.22728
 H253 H 0.24943 1.06492 1.17071
 C254 C 0.29150 0.89133 0.83334
 C255 C 0.26830 0.85360 0.85232
 C256 C 0.28883 0.83436 0.89259
 C257 C 0.33037 0.85280 0.91128
 C258 C 0.35257 0.89105 0.89044
 C259 C 0.33115 0.90899 0.85139
 C260 C 0.33494 0.94573 0.81571
 C261 C 0.29004 0.92579 0.79515
 H262 H 0.27320 0.80504 0.90973
 H263 H 0.34493 0.83708 0.94194
 H264 H 0.36567 0.94107 0.79325
 H265 H 0.33065 0.98070 0.83055
 H266 H 0.29487 0.90962 0.76080
 H267 H 0.25993 0.94938 0.79799
 C268 C 0.70094 0.82544 1.12468
 C269 C 0.72503 0.84634 1.16113
 C270 C 0.70396 0.88542 1.18145
 C271 C 0.66381 0.90531 1.16204
 C272 C 0.64362 0.88667 1.12192
 C273 C 0.66147 0.84508 1.10579
 C274 C 0.67377 0.83082 1.05817
 C275 C 0.71704 0.80922 1.07858
 H276 H 0.71943 0.90211 1.21106
 H277 H 0.65003 0.93647 1.17715
 H278 H 0.68108 0.86066 1.03515
 H279 H 0.64890 0.80501 1.04446
 H280 H 0.74959 0.82624 1.06724
 H281 H 0.71659 0.77113 1.07598
 C282 C 0.71003 1.11827 0.83088
 C283 C 0.73234 1.15681 0.84911
 C284 C 0.71081 1.17688 0.88825
 C285 C 0.66953 1.15809 0.90694
 C286 C 0.64862 1.11858 0.88735
 C287 C 0.67058 1.10025 0.84897
 C288 C 0.66845 1.06203 0.81496
 C289 C 0.71309 1.08241 0.79433
 H290 H 0.72556 1.20702 0.90462
 H291 H 0.65420 1.17449 0.93668
 H292 H 0.63794 1.06480 0.79175
 H293 H 0.67360 1.02793 0.83156
 H294 H 0.70836 1.09707 0.75920
 H295 H 0.74380 1.05982 0.79882
 C296 C 0.16934 0.29074 0.10604
 C297 C 0.14756 0.26739 0.14238
 C298 C 0.10334 0.28299 0.15576
 C299 C 0.08479 0.32387 0.13710
 C300 C 0.11003 0.34998 0.10469
 C301 C 0.15106 0.33109 0.08772
 C302 C 0.19774 0.35259 0.08285
 C303 C 0.21778 0.30831 0.10246
 H304 H 0.08407 0.26504 0.18229
 H305 H 0.05178 0.33607 0.14967
 H306 H 0.20257 0.38282 0.10585
 H307 H 0.20728 0.35858 0.04629
 H308 H 0.23456 0.31290 0.13668
 H309 H 0.23840 0.28862 0.07693
 C310 C -0.10691 0.29309 -0.16500
 C311 C -0.14565 0.27082 -0.14702
 C312 C -0.16474 0.29073 -0.10664
 C313 C -0.14599 0.33162 -0.08746
 C314 C -0.10760 0.35380 -0.10805
 C315 C -0.08894 0.33227 -0.14649
 C316 C -0.05398 0.33815 -0.18356
 C317 C -0.07433 0.29391 -0.20470
 H318 H -0.19461 0.27536 -0.09017
 H319 H -0.16205 0.34609 -0.05708
 H320 H -0.01804 0.33405 -0.17051
 H321 H -0.06039 0.36946 -0.20477
 H322 H -0.04997 0.26436 -0.20403
 H323 H -0.09246 0.30013 -0.23794
 C324 C 0.10519 0.71999 -0.16348
 C325 C 0.14273 0.74274 -0.14299
 C326 C 0.15779 0.72639 -0.09951
 C327 C 0.13970 0.68535 -0.08071
 C328 C 0.10620 0.65976 -0.10500
 C329 C 0.08769 0.67934 -0.14503
 C330 C 0.08062 0.65839 -0.19138
 C331 C 0.09897 0.70306 -0.21167
 H332 H 0.18521 0.74387 -0.08100
 H333 H 0.15357 0.67260 -0.04840
 H334 H 0.04353 0.65231 -0.19920
 H335 H 0.10368 0.62840 -0.19754
 H336 H 0.07172 0.72257 -0.23027
 H337 H 0.13223 0.69903 -0.23041
 C338 C -0.16892 0.70961 0.11528
 C339 C -0.15155 0.73137 0.15444
 C340 C -0.11135 0.71108 0.17410
 C341 C -0.09110 0.67103 0.15475
 C342 C -0.11025 0.65015 0.11502
 C343 C -0.14927 0.67137 0.09663
 C344 C -0.18410 0.66779 0.05902
 C345 C -0.20647 0.71098 0.08011
 H346 H -0.09554 0.72577 0.20458
 H347 H -0.06074 0.65645 0.17105
 H348 H -0.20578 0.63629 0.06219
 H349 H -0.16868 0.67389 0.02445
 H350 H -0.24096 0.70406 0.09551
 H351 H -0.20407 0.74191 0.05755
 C352 C 1.16526 0.11754 0.71268
 C353 C 1.14904 0.15830 0.73233
 C354 C 1.11146 0.17956 0.70884
 C355 C 1.09287 0.16025 0.66781
 C356 C 1.11111 0.11911 0.64905
 C357 C 1.14738 0.09913 0.67341
 C358 C 1.18004 0.05957 0.67336
 C359 C 1.20052 0.08040 0.71774
 H360 H 1.09655 0.21126 0.72160
 H361 H 1.06465 0.17785 0.65067
 H362 H 1.20410 0.06066 0.64354
 H363 H 1.16204 0.02618 0.67902
 H364 H 1.23637 0.09360 0.71343
 H365 H 1.19461 0.05885 0.74892
 C366 C 0.83581 -0.11037 0.70843
 C367 C 0.85119 -0.15152 0.72817
 C368 C 0.88970 -0.17236 0.70607
 C369 C 0.90987 -0.15236 0.66611
 C370 C 0.89228 -0.11096 0.64704
 C371 C 0.85517 -0.09132 0.67017
 C372 C 0.82226 -0.05195 0.66897
 C373 C 0.80018 -0.07349 0.71227
 H374 H 0.90413 -0.20427 0.71908
 H375 H 0.93875 -0.16965 0.64998
 H376 H 0.79940 -0.05283 0.63813
 H377 H 0.83975 -0.01848 0.67561
 H378 H 0.76459 -0.08680 0.70634
 H379 H 0.80476 -0.05235 0.74386
 C380 C 1.11518 -0.16265 0.29114
 C381 C 1.15406 -0.14549 0.26837
 C382 C 1.17530 -0.10649 0.28947
 C383 C 1.15734 -0.08696 0.33059
 C384 C 1.11746 -0.10552 0.35186
 C385 C 1.09793 -0.14362 0.33035
 C386 C 1.05798 -0.17576 0.33280
 C387 C 1.07737 -0.19750 0.28857
 H388 H 1.20578 -0.09079 0.27449
 H389 H 1.17462 -0.05740 0.34547
 H390 H 1.02452 -0.15773 0.32750
 H391 H 1.05974 -0.19881 0.36342
 H392 H 1.05473 -0.19221 0.25802
 H393 H 1.09034 -0.23307 0.29402
 C394 C 0.89258 0.17032 0.28845
 C395 C 0.85246 0.15438 0.26696
 C396 C 0.83040 0.11638 0.28910
 C397 C 0.84861 0.09681 0.33021
 C398 C 0.88936 0.11455 0.35055
 C399 C 0.90989 0.15145 0.32783
 C400 C 0.94987 0.18357 0.33001
 C401 C 0.93022 0.20530 0.28568
 H402 H 0.79905 0.10154 0.27499
 H403 H 0.83065 0.06808 0.34599
 H404 H 0.98322 0.16543 0.32475
 H405 H 0.94833 0.20666 0.36047
 H406 H 0.95267 0.20022 0.25506
 H407 H 0.91700 0.24081 0.29103
 C408 C 0.17615 0.30080 -0.11716
 C409 C 0.15626 0.27927 -0.15573
 C410 C 0.11982 0.30310 -0.17820
 C411 C 0.10136 0.34389 -0.15954
 C412 C 0.11873 0.36197 -0.11795
 C413 C 0.15778 0.34097 -0.09887
 C414 C 0.16687 0.32629 -0.05047
 C415 C 0.18697 0.28227 -0.07020
 H416 H 0.10417 0.28956 -0.20931
 H417 H 0.07227 0.36006 -0.17666
 H418 H 0.13463 0.32070 -0.03033
 H419 H 0.19320 0.34855 -0.03369
 H420 H 0.16660 0.25092 -0.06149
 H421 H 0.22472 0.27968 -0.06402
 C422 C -0.09882 0.28563 0.16026
 C423 C -0.13973 0.26576 0.14315
 C424 C -0.15787 0.28491 0.10188
 C425 C -0.13929 0.32572 0.08296
 C426 C -0.10216 0.34847 0.10474
 C427 C -0.08078 0.32592 0.14161
 C428 C -0.06593 0.34383 0.18738
 C429 C -0.08519 0.29964 0.20795
 H430 H -0.18795 0.26999 0.08532
 H431 H -0.15563 0.34066 0.05281
 H432 H -0.08537 0.37512 0.19786
 H433 H -0.02768 0.34654 0.19028
 H434 H -0.11539 0.30520 0.23095
 H435 H -0.05747 0.27728 0.22206
 C436 C -0.12138 0.70136 -0.17986
 C437 C -0.15872 0.72431 -0.15965
 C438 C -0.17983 0.70310 -0.12113
 C439 C -0.16019 0.66355 -0.10069
 C440 C -0.11917 0.64437 -0.11845
 C441 C -0.10223 0.66239 -0.15986
 C442 C -0.05434 0.67592 -0.17339
 C443 C -0.07526 0.71884 -0.19516
 H444 H -0.21009 0.71822 -0.10532
 H445 H -0.17584 0.64949 -0.06981
 H446 H -0.03964 0.65179 -0.19914
 H447 H -0.03172 0.68338 -0.14325
 H448 H -0.07207 0.71952 -0.23334
 H449 H -0.06500 0.75125 -0.17748
 C450 C 0.11344 0.71425 0.16831
 C451 C 0.15062 0.73829 0.14909
 C452 C 0.16888 0.71894 0.10788
 C453 C 0.15062 0.67763 0.08894
 C454 C 0.11343 0.65425 0.11039
 C455 C 0.09593 0.67471 0.14993
 C456 C 0.06148 0.66806 0.18728
 C457 C 0.08119 0.71261 0.20830
 H458 H 0.19758 0.73519 0.09021
 H459 H 0.16588 0.66400 0.05777
 H460 H 0.06866 0.63680 0.20830
 H461 H 0.02538 0.67157 0.17455
 H462 H 0.09975 0.70661 0.24133
 H463 H 0.05620 0.74162 0.20790
 C464 C 0.28895 1.16931 0.89047
 C465 C 0.26746 1.15297 0.85069
 C466 C 0.28851 1.11399 0.82998
 C467 C 0.32950 1.09437 0.84861
 C468 C 0.35049 1.11299 0.88858
 C469 C 0.32807 1.15034 0.90835
 C470 C 0.33174 1.18465 0.94616
 C471 C 0.28751 1.20627 0.92594
 H472 H 0.27399 1.09904 0.79901
 H473 H 0.34498 1.06524 0.83131
 H474 H 0.36282 1.20697 0.94263
 H475 H 0.32670 1.16873 0.98069
 H476 H 0.29337 1.24098 0.91073
 H477 H 0.25699 1.20289 0.94894
 C478 C 0.28797 0.89769 1.16461
 C479 C 0.26522 0.86046 1.14383
 C480 C 0.28183 0.84555 1.10061
 C481 C 0.32299 0.86395 1.08212
 C482 C 0.34834 0.89757 1.10647
 C483 C 0.32854 0.91570 1.14642
 C484 C 0.34934 0.92242 1.19308
 C485 C 0.30478 0.90313 1.21301
 H486 H 0.26437 0.81823 1.08209
 H487 H 0.33593 0.85038 1.04988
 H488 H 0.35481 0.95934 1.20130
 H489 H 0.37984 0.89990 1.19922
 H490 H 0.28443 0.92920 1.23229
 H491 H 0.30945 0.86959 1.23105
 C492 C 0.71321 1.17158 1.10950
 C493 C 0.73342 1.15555 1.15011
 C494 C 0.70989 1.11886 1.17250
 C495 C 0.66865 1.10002 1.15381
 C496 C 0.64962 1.11735 1.11225
 C497 C 0.67359 1.15354 1.09164
 C498 C 0.67450 1.18412 1.05037
 C499 C 0.71931 1.20468 1.07065
 H500 H 0.72324 1.10444 1.20431
 H501 H 0.65190 1.07191 1.17188
 H502 H 0.64502 1.20866 1.04975
 H503 H 0.68012 1.16446 1.01806
 H504 H 0.71572 1.24108 1.08188
 H505 H 0.75059 1.19701 1.04982
 C506 C 0.70460 0.83038 0.87868
 C507 C 0.72969 0.85166 0.84363
 C508 C 0.71286 0.89510 0.82871
 C509 C 0.67259 0.91466 0.84871
 C510 C 0.64824 0.89148 0.88425
 C511 C 0.66608 0.84910 0.89771
 C512 C 0.65687 0.80818 0.92727
 C513 C 0.70068 0.78700 0.90595
 H514 H 0.73039 0.91388 0.80157
 H515 H 0.66051 0.94763 0.83617
 H516 H 0.62448 0.79005 0.91732
 H517 H 0.66046 0.81619 0.96437
 H518 H 0.69348 0.75659 0.88384
 H519 H 0.72961 0.78284 0.93091
   
