data_POSCAR
  _audit_creation_date              2014-09-24
  _audit_creation_method            'ToBaCCo'
  _symmetry_space_group_name_H-M    'P1'
  _symmetry_Int_Tables_number       1
  _symmetry_cell_setting            triclinic
  loop_
  _symmetry_equiv_pos_as_xyz
 x,y,z
_cell_length_a 38.8831
_cell_length_b 40.5475
_cell_length_c 40.1251
_cell_angle_alpha 89.623400
_cell_angle_beta 90.114500
_cell_angle_gamma 89.281100
loop_
  _atom_site_label
  _atom_site_type_symbol
  _atom_site_fract_x
  _atom_site_fract_y
  _atom_site_fract_z
N1 N 0.19976 0.20457 0.19870
 N2 N -0.18621 0.80786 0.19437
 N3 N -0.16212 0.16654 -0.17283
 N4 N 0.17616 0.81533 -0.17675
 N5 N 0.17718 1.18652 0.81482
 N6 N 0.81291 0.81109 0.80232
 N7 N 0.17323 0.81568 1.17137
 N8 N 0.80527 1.19461 1.19562
 O9 O 0.54693 0.94337 0.93684
 O10 O 0.58518 0.97056 0.97005
 C11 C 0.57803 0.95021 0.94633
 O12 O 0.45386 1.06552 0.94311
 O13 O 0.41510 1.03404 0.97176
 C14 C 0.42268 1.05770 0.95125
 O15 O 0.55017 1.05864 0.93997
 O16 O 0.58696 1.02626 0.97114
 C17 C 0.58080 1.04870 0.94867
 O18 O 0.44980 0.94391 0.94012
 O19 O 0.41339 0.97694 0.97046
 C20 C 0.41923 0.95400 0.94878
 Zr21 Zr 0.49889 0.96049 0.95577
 O22 O 0.49492 0.96268 0.90317
 O23 O 0.50119 0.90834 0.95422
 Zr24 Zr 0.50142 1.04375 0.95756
 O25 O 0.49741 1.04368 0.90492
 O26 O 0.50677 1.09561 0.95698
 O27 O 0.53090 1.00108 0.95016
 O28 O 0.47024 1.00353 0.95052
 O29 O 0.44965 0.94103 1.05517
 O30 O 0.41337 0.97536 1.02557
 C31 C 0.41910 0.95155 1.04663
 O32 O 0.55020 1.05474 1.06092
 O33 O 0.58694 1.02481 1.02786
 C34 C 0.58083 1.04572 1.05150
 O35 O 0.45373 1.06170 1.05788
 O36 O 0.41515 1.03181 1.02757
 C37 C 0.42258 1.05410 1.04936
 O38 O 0.54691 0.94040 1.05888
 O39 O 0.58520 0.96953 1.02718
 C40 C 0.57802 0.94792 1.04998
 Zr41 Zr 0.49884 0.95821 1.04024
 O42 O 0.49483 0.95719 1.09285
 O43 O 0.50119 0.90604 1.03924
 Zr44 Zr 0.50141 1.04139 1.04203
 O45 O 0.49750 1.03923 1.09463
 O46 O 0.50685 1.09323 1.04386
 Zr47 Zr 0.55117 0.99897 0.99889
 Zr48 Zr 0.44918 1.00317 0.99875
 O49 O 0.47025 1.00085 1.04709
 O50 O 0.53088 0.99841 1.04761
 O51 O 0.46809 0.95420 0.99782
 O52 O 0.53125 1.04746 0.99997
 O53 O 0.52844 0.95212 0.99794
 O54 O 0.47110 1.05040 0.99991
 H55 H 0.45444 1.00478 0.93113
 H56 H 0.54714 1.06636 1.00045
 H57 H 0.45465 1.00089 1.06658
 H58 H 0.54339 0.93216 0.99763
 H59 H 0.49042 1.10468 0.97349
 H60 H 0.48834 1.10316 1.02999
 H61 H 0.51722 1.02594 1.10305
 H62 H 0.51452 0.96950 1.10189
 H63 H 0.48179 0.89851 1.02538
 H64 H 0.48250 0.90001 0.96854
 H65 H 0.51487 0.97516 0.89484
 H66 H 0.51794 1.03204 0.89611
 O67 O 0.05058 0.54506 -0.06262
 O68 O 0.01819 0.58092 -0.03128
 C69 C 0.04066 0.57461 -0.05432
 O70 O -0.06713 0.44965 -0.06130
 O71 O -0.03416 0.41466 -0.02898
 C72 C -0.05729 0.42033 -0.05169
 O73 O -0.06815 0.54244 -0.06488
 O74 O -0.03881 0.57961 -0.03306
 C75 C -0.06040 0.57236 -0.05651
 O76 O 0.05765 0.45234 -0.05784
 O77 O 0.02563 0.41605 -0.02710
 C78 C 0.04965 0.42268 -0.04837
 Zr79 Zr 0.03660 0.49856 -0.04279
 O80 O 0.03967 0.49450 -0.09525
 O81 O 0.09065 0.50363 -0.03985
 Zr82 Zr -0.05040 0.49660 -0.04531
 O83 O -0.04862 0.49277 -0.09789
 O84 O -0.10481 0.49876 -0.04667
 O85 O -0.00784 0.52688 -0.05104
 O86 O -0.00566 0.46896 -0.04969
 O87 O 0.05427 0.45345 0.05892
 O88 O 0.02386 0.41653 0.02789
 C89 C 0.04661 0.42357 0.05031
 O90 O -0.07142 0.54339 0.05624
 O91 O -0.04032 0.58014 0.02510
 C92 C -0.06306 0.57317 0.04764
 O93 O -0.07073 0.45046 0.05506
 O94 O -0.03498 0.41513 0.02669
 C95 C -0.05967 0.42104 0.04754
 O96 O 0.04709 0.54604 0.06063
 O97 O 0.01658 0.58135 0.02647
 C98 C 0.03773 0.57543 0.05089
 Zr99 Zr 0.03411 0.49930 0.04139
 O100 O 0.03409 0.49611 0.09405
 O101 O 0.08825 0.50436 0.04152
 Zr102 Zr -0.05295 0.49725 0.03886
 O103 O -0.05467 0.49415 0.09152
 O104 O -0.10734 0.49958 0.03669
 Zr105 Zr -0.00997 0.54691 -0.00271
 Zr106 Zr -0.00635 0.44905 -0.00114
 O107 O -0.00851 0.46986 0.04672
 O108 O -0.01073 0.52763 0.04622
 O109 O 0.04315 0.46965 -0.00002
 O110 O -0.05897 0.52547 -0.00384
 O111 O 0.04056 0.52780 -0.00098
 O112 O -0.05730 0.46732 -0.00296
 H113 H -0.00450 0.45388 -0.06899
 H114 H -0.07962 0.54002 -0.00461
 H115 H -0.00847 0.45524 0.06661
 H116 H 0.05994 0.54343 -0.00065
 H117 H -0.11335 0.47994 -0.03339
 H118 H -0.11512 0.48033 0.02382
 H119 H -0.04174 0.51302 0.10039
 H120 H 0.01673 0.51214 0.10219
 H121 H 0.09820 0.48490 0.03015
 H122 H 0.09990 0.48426 -0.02751
 H123 H 0.02268 0.51023 -0.10486
 H124 H -0.03586 0.51198 -0.10647
 O125 O 1.07276 -0.05785 0.54388
 O126 O 1.03933 -0.02806 0.58017
 C127 C 1.06340 -0.04950 0.57377
 O128 O 1.06793 0.05989 0.44942
 O129 O 1.03663 0.02863 0.41313
 C130 C 1.05850 0.05164 0.41956
 O131 O 1.07207 0.05647 0.54302
 O132 O 1.03855 0.02769 0.57981
 C133 C 1.06265 0.04851 0.57302
 O134 O 1.06922 -0.06072 0.45015
 O135 O 1.03731 -0.02916 0.41353
 C136 C 1.05979 -0.05219 0.42017
 Zr137 Zr 1.05301 -0.04217 0.49697
 O138 O 1.10731 -0.04232 0.49312
 O139 O 1.05326 -0.09425 0.50099
 Zr140 Zr 1.05238 0.04120 0.49643
 O141 O 1.10666 0.04069 0.49234
 O142 O 1.05216 0.09327 0.49999
 O143 O 1.05951 -0.00053 0.52646
 O144 O 1.05890 -0.00048 0.46769
 O145 O 0.94971 -0.06025 0.45032
 O146 O 0.97989 -0.02800 0.41378
 C147 C 0.95805 -0.05102 0.42035
 O148 O 0.94585 0.05714 0.54347
 O149 O 0.98006 0.02779 0.57994
 C150 C 0.95557 0.04885 0.57343
 O151 O 0.94892 0.06048 0.44956
 O152 O 0.97951 0.02792 0.41340
 C153 C 0.95745 0.05128 0.41969
 O154 O 0.94692 -0.05710 0.54425
 O155 O 0.97953 -0.02694 0.58044
 C156 C 0.95572 -0.04810 0.57410
 Zr157 Zr 0.96595 -0.04175 0.49712
 O158 O 0.91162 -0.04146 0.49347
 O159 O 0.96649 -0.09384 0.50122
 Zr160 Zr 0.96536 0.04174 0.49659
 O161 O 0.91104 0.04216 0.49283
 O162 O 0.96522 0.09382 0.50015
 Zr163 Zr 1.00932 -0.00028 0.54626
 Zr164 Zr 1.00902 -0.00021 0.44735
 O165 O 0.95929 0.00005 0.46803
 O166 O 0.95901 0.00003 0.52653
 O167 O 1.00941 -0.04841 0.46738
 O168 O 1.00893 0.04748 0.52534
 O169 O 1.00961 -0.04802 0.52602
 O170 O 1.00870 0.04797 0.46680
 H171 H 1.07885 -0.00051 0.45236
 H172 H 1.00884 0.06688 0.54022
 H173 H 0.93897 0.00018 0.45309
 H174 H 1.00972 -0.06730 0.54133
 H175 H 1.03757 0.10205 0.48169
 H176 H 0.97877 0.10242 0.48123
 H177 H 0.90216 0.02842 0.51128
 H178 H 0.90259 -0.02798 0.51203
 H179 H 0.98043 -0.10253 0.48256
 H180 H 1.03931 -0.10277 0.48237
 H181 H 1.11629 -0.02906 0.51174
 H182 H 1.11590 0.02728 0.51107
 C183 C 1.20657 0.17784 0.25373
 C184 C 1.19274 0.16103 0.28100
 C185 C 1.15754 0.15433 0.28219
 C186 C 1.13601 0.16548 0.25617
 C187 C 1.14975 0.18276 0.22916
 C188 C 1.18521 0.18875 0.22756
 N189 N 1.14438 0.13595 0.30984
 N190 N 1.11439 0.12376 0.30953
 C191 C 1.10108 0.10562 0.33728
 C192 C 1.07039 0.08839 0.33341
 C193 C 1.05676 0.07039 0.36000
 C194 C 1.07344 0.06980 0.39113
 C195 C 1.10416 0.08731 0.39501
 C196 C 1.11800 0.10490 0.36826
 H197 H 1.23396 0.18230 0.25290
 H198 H 1.20955 0.15265 0.30095
 H199 H 1.10868 0.16075 0.25666
 H200 H 1.13291 0.19075 0.20908
 H201 H 1.05709 0.08884 0.30967
 H202 H 1.03290 0.05739 0.35634
 H203 H 1.11760 0.08727 0.41868
 H204 H 1.14170 0.11814 0.37187
 C205 C 0.83984 -0.19905 0.25017
 C206 C 0.85561 -0.18577 0.27833
 C207 C 0.86134 -0.15182 0.28030
 C208 C 0.85027 -0.13107 0.25407
 C209 C 0.83400 -0.14426 0.22620
 C210 C 0.82896 -0.17838 0.22389
 N211 N 0.87869 -0.13899 0.30886
 N212 N 0.89078 -0.10997 0.30882
 C213 C 0.90786 -0.09628 0.33707
 C214 C 0.92558 -0.06677 0.33297
 C215 C 0.94234 -0.05242 0.35991
 C216 C 0.94114 -0.06709 0.39175
 C217 C 0.92321 -0.09676 0.39587
 C218 C 0.90688 -0.11139 0.36868
 H219 H 0.83607 -0.22542 0.24878
 H220 H 0.86394 -0.20200 0.29839
 H221 H 0.85423 -0.10472 0.25510
 H222 H 0.82597 -0.12799 0.20606
 H223 H 0.92647 -0.05489 0.30873
 H224 H 0.95585 -0.02957 0.35585
 H225 H 0.92191 -0.10871 0.42004
 H226 H 0.89319 -0.13419 0.37242
 C227 C 0.89034 0.15105 0.79617
 C228 C 0.90623 0.13800 0.76788
 C229 C 0.88656 0.12883 0.74027
 C230 C 0.85062 0.13283 0.74122
 C231 C 0.83468 0.14540 0.76971
 C232 C 0.85441 0.15455 0.79743
 N233 N 0.90357 0.11457 0.71213
 N234 N 0.88844 0.11036 0.68435
 C235 C 0.90554 0.09496 0.65685
 C236 C 0.89087 0.09724 0.62501
 C237 C 0.90714 0.08246 0.59773
 C238 C 0.93809 0.06461 0.60207
 C239 C 0.95237 0.06191 0.63423
 C240 C 0.93643 0.07716 0.66130
 H241 H 0.90595 0.15773 0.81740
 H242 H 0.93393 0.13489 0.76748
 H243 H 0.83488 0.12573 0.72024
 H244 H 0.80694 0.14803 0.77022
 H245 H 0.86695 0.11073 0.62131
 H246 H 0.89534 0.08480 0.57335
 H247 H 0.97601 0.04816 0.63852
 H248 H 0.94807 0.07474 0.68574
 C249 C 1.12475 -0.16284 0.79380
 C250 C 1.10959 -0.14710 0.76628
 C251 C 1.12952 -0.13823 0.73872
 C252 C 1.16502 -0.14527 0.73894
 C253 C 1.18027 -0.16069 0.76663
 C254 C 1.16027 -0.16959 0.79432
 N255 N 1.11320 -0.12162 0.71120
 N256 N 1.12866 -0.11615 0.68382
 C257 C 1.11220 -0.09898 0.65672
 C258 C 1.12810 -0.09859 0.62546
 C259 C 1.11235 -0.08248 0.59841
 C260 C 1.08060 -0.06600 0.60240
 C261 C 1.06498 -0.06597 0.63399
 C262 C 1.08052 -0.08247 0.66086
 H263 H 1.10891 -0.16920 0.81500
 H264 H 1.08225 -0.14171 0.76644
 H265 H 1.18098 -0.13854 0.71796
 H266 H 1.20767 -0.16575 0.76652
 H267 H 1.15257 -0.11112 0.62198
 H268 H 1.12508 -0.08282 0.57443
 H269 H 1.04045 -0.05365 0.63786
 H270 H 1.06780 -0.08225 0.68483
 C271 C 0.25646 1.20874 1.17163
 C272 C 0.28413 1.19422 1.15476
 C273 C 0.28401 1.16052 1.14742
 C274 C 0.25616 1.14123 1.15779
 C275 C 0.22880 1.15561 1.17513
 C276 C 0.22863 1.18952 1.18199
 N277 N 0.31233 1.14640 1.12952
 N278 N 0.31059 1.11788 1.11663
 C279 C 0.33884 1.10301 1.09929
 C280 C 0.33317 1.07432 1.08105
 C281 C 0.36024 1.05879 1.06429
 C282 C 0.39371 1.07142 1.06602
 C283 C 0.39935 1.10031 1.08435
 C284 C 0.37209 1.11611 1.10070
 H285 H 0.25672 1.23491 1.17679
 H286 H 0.30549 1.20931 1.14698
 H287 H 0.25559 1.11508 1.15258
 H288 H 0.20742 1.14046 1.18271
 H289 H 0.30765 1.06400 1.07983
 H290 H 0.35501 1.03662 1.05039
 H291 H 0.42480 1.11072 1.08606
 H292 H 0.37708 1.13823 1.11479
 C293 C 0.23483 0.80774 0.84602
 C294 C 0.26499 0.82076 0.85936
 C295 C 0.26794 0.85479 0.86407
 C296 C 0.24051 0.87583 0.85468
 C297 C 0.21059 0.86288 0.84091
 C298 C 0.20741 0.82872 0.83666
 N299 N 0.29870 0.86743 0.87870
 N300 N 0.30022 0.89705 0.88882
 C301 C 0.33054 0.91056 0.90338
 C302 C 0.32796 0.94108 0.91919
 C303 C 0.35675 0.95501 0.93406
 C304 C 0.38896 0.93888 0.93285
 C305 C 0.39164 0.90836 0.91654
 C306 C 0.36257 0.89415 0.90210
 H307 H 0.23287 0.78134 0.84279
 H308 H 0.28593 0.80430 0.86645
 H309 H 0.24220 0.90224 0.85794
 H310 H 0.18965 0.87942 0.83403
 H311 H 0.30343 0.95397 0.92026
 H312 H 0.35379 0.97857 0.94632
 H313 H 0.41607 0.89530 0.91529
 H314 H 0.36516 0.87055 0.88984
 C315 C 0.75494 0.83069 1.20072
 C316 C 0.72541 0.84559 1.18708
 C317 C 0.72381 0.85319 1.15302
 C318 C 0.75195 0.84511 1.13253
 C319 C 0.78124 0.82985 1.14605
 C320 C 0.78309 0.82269 1.18029
 N321 N 0.69373 0.86940 1.13981
 N322 N 0.69349 0.88167 1.11054
 C323 C 0.66402 0.89793 1.09627
 C324 C 0.66807 0.91517 1.06633
 C325 C 0.64017 0.93157 1.05155
 C326 C 0.60737 0.93058 1.06624
 C327 C 0.60322 0.91292 1.09623
 C328 C 0.63141 0.89688 1.11130
 H329 H 0.75586 0.82525 1.22716
 H330 H 0.70392 0.85163 1.20314
 H331 H 0.75133 0.85062 1.10610
 H332 H 0.80276 0.82412 1.12992
 H333 H 0.69306 0.91609 1.05450
 H334 H 0.64430 0.94483 1.02844
 H335 H 0.57831 0.91177 1.10818
 H336 H 0.62770 0.88354 1.13445
 C337 C 0.80972 1.11492 0.84438
 C338 C 0.78177 1.09842 0.85826
 C339 C 0.75237 1.11603 0.86813
 C340 C 0.75127 1.15052 0.86421
 C341 C 0.77937 1.16705 0.85077
 C342 C 0.80878 1.14939 0.84069
 N343 N 0.72420 1.09852 0.88244
 N344 N 0.69511 1.11240 0.88717
 C345 C 0.66690 1.09556 0.90216
 C346 C 0.63439 1.11066 0.90157
 C347 C 0.60631 1.09522 0.91628
 C348 C 0.61044 1.06451 0.93238
 C349 C 0.64320 1.04942 0.93310
 C350 C 0.67120 1.06472 0.91792
 H351 H 0.83230 1.10093 0.83697
 H352 H 0.78296 1.07187 0.86126
 H353 H 0.72889 1.16469 0.87182
 H354 H 0.77819 1.19362 0.84802
 H355 H 0.63084 1.13448 0.88960
 H356 H 0.58146 1.10758 0.91550
 H357 H 0.64715 1.02572 0.94524
 H358 H 0.69619 1.05266 0.91882
 C359 C 0.17423 0.26032 0.20377
 C360 C 0.15764 0.28781 0.18951
 C361 C 0.14889 0.28800 0.15564
 C362 C 0.15758 0.26061 0.13592
 C363 C 0.17469 0.23345 0.15001
 C364 C 0.18295 0.23300 0.18407
 N365 N 0.13118 0.31606 0.14175
 N366 N 0.11599 0.31449 0.11370
 C367 C 0.09867 0.34221 0.09877
 C368 C 0.07642 0.33676 0.07204
 C369 C 0.05917 0.36313 0.05666
 C370 C 0.06455 0.39568 0.06723
 C371 C 0.08705 0.40111 0.09411
 C372 C 0.10382 0.37455 0.10992
 H373 H 0.18051 0.26036 0.23006
 H374 H 0.15115 0.30878 0.20494
 H375 H 0.15127 0.26027 0.10964
 H376 H 0.18104 0.21249 0.13450
 H377 H 0.07222 0.31192 0.06330
 H378 H 0.04165 0.35793 0.03644
 H379 H 0.09164 0.42582 0.10301
 H380 H 0.12107 0.37929 0.13050
 C381 C -0.14454 0.19470 -0.12132
 C382 C -0.13255 0.22258 -0.10491
 C383 C -0.12557 0.25145 -0.12279
 C384 C -0.13011 0.25201 -0.15757
 C385 C -0.14163 0.22394 -0.17408
 C386 C -0.14919 0.19515 -0.15604
 N387 N -0.11361 0.27964 -0.10510
 N388 N -0.11188 0.30806 -0.11861
 C389 C -0.09916 0.33597 -0.10092
 C390 C -0.10214 0.36732 -0.11549
 C391 C -0.08927 0.39494 -0.09918
 C392 C -0.07271 0.39150 -0.06815
 C393 C -0.06993 0.35998 -0.05348
 C394 C -0.08319 0.33247 -0.06963
 H395 H -0.15003 0.17265 -0.10703
 H396 H -0.12899 0.22181 -0.07814
 H397 H -0.12465 0.27400 -0.17194
 H398 H -0.14518 0.22475 -0.20084
 H399 H -0.11436 0.37031 -0.13962
 H400 H -0.09163 0.41886 -0.11120
 H401 H -0.05744 0.35653 -0.02953
 H402 H -0.08050 0.30847 -0.05788
 C403 C 0.15536 0.78884 -0.12512
 C404 C 0.13885 0.76292 -0.10880
 C405 C 0.12690 0.73593 -0.12682
 C406 C 0.13127 0.73528 -0.16160
 C407 C 0.14732 0.76144 -0.17799
 C408 C 0.15965 0.78834 -0.15986
 N409 N 0.11046 0.70961 -0.10927
 N410 N 0.10407 0.68217 -0.12307
 C411 C 0.08743 0.65588 -0.10567
 C412 C 0.08757 0.62444 -0.11979
 C413 C 0.07239 0.59802 -0.10311
 C414 C 0.05620 0.60277 -0.07217
 C415 C 0.05541 0.63456 -0.05837
 C416 C 0.07114 0.66087 -0.07484
 H417 H 0.16441 0.80951 -0.11075
 H418 H 0.13557 0.76375 -0.08203
 H419 H 0.12210 0.71474 -0.17608
 H420 H 0.15045 0.76064 -0.20478
 H421 H 0.09992 0.62033 -0.14360
 H422 H 0.07319 0.57389 -0.11453
 H423 H 0.04310 0.63901 -0.03461
 H424 H 0.07050 0.68504 -0.06354
 C425 C -0.13310 0.78230 0.17203
 C426 C -0.11641 0.75709 0.15454
 C427 C -0.13499 0.73040 0.14235
 C428 C -0.17070 0.72926 0.14768
 C429 C -0.18747 0.75468 0.16481
 C430 C -0.16880 0.78137 0.17720
 N431 N -0.11711 0.70491 0.12460
 N432 N -0.13156 0.67802 0.11690
 C433 C -0.11406 0.65247 0.09893
 C434 C -0.12937 0.62156 0.09668
 C435 C -0.11279 0.59580 0.07999
 C436 C -0.08075 0.60075 0.06469
 C437 C -0.06565 0.63202 0.06642
 C438 C -0.08206 0.65766 0.08363
 H439 H -0.11828 0.80284 0.18109
 H440 H -0.08892 0.75828 0.15053
 H441 H -0.18565 0.70893 0.13840
 H442 H -0.21499 0.75353 0.16859
 H443 H -0.15406 0.61732 0.10828
 H444 H -0.12515 0.57204 0.07890
 H445 H -0.04090 0.63649 0.05500
 H446 H -0.06981 0.68145 0.08492
 C447 C 1.12569 0.17479 0.78276
 C448 C 1.10996 0.15934 0.75581
 C449 C 1.12969 0.14220 0.73238
 C450 C 1.16557 0.14061 0.73614
 C451 C 1.18135 0.15552 0.76336
 C452 C 1.16170 0.17281 0.78728
 N453 N 1.11269 0.12596 0.70551
 N454 N 1.12904 0.11498 0.68039
 C455 C 1.11216 0.09790 0.65402
 C456 C 1.12915 0.09388 0.62360
 C457 C 1.11310 0.07781 0.59719
 C458 C 1.08000 0.06479 0.60114
 C459 C 1.06333 0.06816 0.63199
 C460 C 1.07912 0.08486 0.65814
 H461 H 1.10954 0.18720 0.80084
 H462 H 1.08224 0.16057 0.75324
 H463 H 1.18136 0.12743 0.71832
 H464 H 1.20909 0.15389 0.76555
 H465 H 1.15470 0.10366 0.62021
 H466 H 1.12664 0.07538 0.57376
 H467 H 1.03783 0.05843 0.63572
 H468 H 1.06562 0.08741 0.68157
 C469 C 0.83885 -0.19489 0.74657
 C470 C 0.85412 -0.18111 0.71829
 C471 C 0.85897 -0.14702 0.71601
 C472 C 0.84757 -0.12664 0.74208
 C473 C 0.83181 -0.14036 0.77011
 C474 C 0.82763 -0.17462 0.77271
 N475 N 0.87584 -0.13376 0.68729
 N476 N 0.88658 -0.10425 0.68647
 C477 C 0.90339 -0.09066 0.65789
 C478 C 0.92000 -0.06043 0.66091
 C479 C 0.93718 -0.04669 0.63372
 C480 C 0.93752 -0.06279 0.60278
 C481 C 0.92036 -0.09293 0.59964
 C482 C 0.90363 -0.10690 0.62705
 H483 H 0.83572 -0.22135 0.74814
 H484 H 0.86273 -0.19706 0.69835
 H485 H 0.85088 -0.10020 0.74081
 H486 H 0.82352 -0.12437 0.79013
 H487 H 0.91989 -0.04764 0.68452
 H488 H 0.94991 -0.02330 0.63684
 H489 H 0.92024 -0.10590 0.57613
 H490 H 0.89080 -0.13025 0.62410
 C491 C 1.12159 -0.16179 0.19940
 C492 C 1.10598 -0.14651 0.22669
 C493 C 1.12533 -0.13870 0.25494
 C494 C 1.16075 -0.14616 0.25553
 C495 C 1.17646 -0.16108 0.22806
 C496 C 1.15700 -0.16910 0.19979
 N497 N 1.10855 -0.12282 0.28236
 N498 N 1.12334 -0.11893 0.31036
 C499 C 1.10675 -0.10243 0.33753
 C500 C 1.12231 -0.10331 0.36899
 C501 C 1.10692 -0.08730 0.39598
 C502 C 1.07584 -0.06964 0.39177
 C503 C 1.06032 -0.06866 0.36007
 C504 C 1.07553 -0.08507 0.33322
 H505 H 1.10617 -0.16751 0.17774
 H506 H 1.07872 -0.14078 0.22588
 H507 H 1.17628 -0.14022 0.27703
 H508 H 1.20377 -0.16659 0.22887
 H509 H 1.14641 -0.11655 0.37261
 H510 H 1.11958 -0.08839 0.42004
 H511 H 1.03628 -0.05542 0.35606
 H512 H 1.06305 -0.08393 0.30909
 C513 C 0.83204 0.20104 0.25104
 C514 C 0.84930 0.18763 0.27870
 C515 C 0.85834 0.15410 0.27959
 C516 C 0.84948 0.13392 0.25262
 C517 C 0.83179 0.14720 0.22524
 C518 C 0.82304 0.18088 0.22416
 N519 N 0.87624 0.14099 0.30808
 N520 N 0.89020 0.11244 0.30765
 C521 C 0.90750 0.09833 0.33596
 C522 C 0.92678 0.06936 0.33173
 C523 C 0.94345 0.05441 0.35882
 C524 C 0.94061 0.06794 0.39091
 C525 C 0.92123 0.09715 0.39511
 C526 C 0.90494 0.11235 0.36781
 H527 H 0.82539 0.22705 0.25066
 H528 H 0.85590 0.20342 0.29935
 H529 H 0.85602 0.10789 0.25278
 H530 H 0.82528 0.13130 0.20465
 H531 H 0.92889 0.05832 0.30730
 H532 H 0.95820 0.03200 0.35465
 H533 H 0.91865 0.10826 0.41946
 H534 H 0.89002 0.13471 0.37167
 C535 C 0.15342 0.24168 -0.19423
 C536 C 0.14078 0.27146 -0.18146
 C537 C 0.13914 0.27638 -0.14705
 C538 C 0.15112 0.25141 -0.12540
 C539 C 0.16420 0.22184 -0.13804
 C540 C 0.16529 0.21622 -0.17273
 N541 N 0.12437 0.30640 -0.13455
 N542 N 0.11667 0.30937 -0.10390
 C543 C 0.10145 0.33865 -0.09039
 C544 C 0.08735 0.33706 -0.05845
 C545 C 0.07079 0.36450 -0.04483
 C546 C 0.06864 0.39437 -0.06269
 C547 C 0.08373 0.39632 -0.09445
 C548 C 0.09977 0.36851 -0.10839
 H549 H 0.15443 0.23872 -0.22102
 H550 H 0.13174 0.29057 -0.19842
 H551 H 0.15014 0.25461 -0.09865
 H552 H 0.17234 0.20283 -0.12055
 H553 H 0.08859 0.31422 -0.04433
 H554 H 0.05959 0.36231 -0.02028
 H555 H 0.08234 0.41902 -0.10879
 H556 H 0.11069 0.37029 -0.13312
 C557 C -0.20496 0.24893 0.16895
 C558 C -0.19274 0.27691 0.15244
 C559 C -0.15761 0.27998 0.14570
 C560 C -0.13462 0.25501 0.15638
 C561 C -0.14675 0.22731 0.17331
 C562 C -0.18206 0.22389 0.17949
 N563 N -0.14587 0.30840 0.12786
 N564 N -0.11564 0.30949 0.11584
 C565 C -0.10290 0.33764 0.09830
 C566 C -0.07144 0.33476 0.08175
 C567 C -0.05778 0.36171 0.06477
 C568 C -0.07520 0.39233 0.06447
 C569 C -0.10687 0.39522 0.08116
 C570 C -0.12075 0.36801 0.09779
 H571 H -0.23226 0.24675 0.17359
 H572 H -0.21071 0.29599 0.14443
 H573 H -0.10731 0.25690 0.15164
 H574 H -0.12871 0.20817 0.18103
 H575 H -0.05743 0.31150 0.08205
 H576 H -0.03321 0.35868 0.05241
 H577 H -0.12089 0.41847 0.08133
 H578 H -0.14510 0.37080 0.11056
 C579 C -0.13369 0.78561 -0.17544
 C580 C -0.11654 0.75982 -0.15886
 C581 C -0.13458 0.73216 -0.14791
 C582 C -0.17028 0.73074 -0.15334
 C583 C -0.18754 0.75677 -0.16949
 C584 C -0.16935 0.78433 -0.18084
 N585 N -0.11616 0.70604 -0.13122
 N586 N -0.12969 0.67816 -0.12549
 C587 C -0.11161 0.65211 -0.10836
 C588 C -0.12573 0.62056 -0.10799
 C589 C -0.10887 0.59455 -0.09150
 C590 C -0.07776 0.59983 -0.07454
 C591 C -0.06370 0.63162 -0.07474
 C592 C -0.08036 0.65752 -0.09171
 H593 H -0.11926 0.80679 -0.18373
 H594 H -0.08907 0.76126 -0.15471
 H595 H -0.18482 0.70968 -0.14493
 H596 H -0.21503 0.75536 -0.17348
 H597 H -0.14983 0.61611 -0.12067
 H598 H -0.12046 0.57040 -0.09162
 H599 H -0.03969 0.63640 -0.06201
 H600 H -0.06901 0.68176 -0.09155
 C601 C 0.15324 0.78906 0.11975
 C602 C 0.13665 0.76328 0.10357
 C603 C 0.12371 0.73669 0.12186
 C604 C 0.12721 0.73631 0.15675
 C605 C 0.14339 0.76230 0.17298
 C606 C 0.15667 0.78881 0.15460
 N607 N 0.10725 0.71045 0.10448
 N608 N 0.09961 0.68348 0.11890
 C609 C 0.08308 0.65717 0.10173
 C610 C 0.08173 0.62614 0.11704
 C611 C 0.06688 0.59960 0.10059
 C612 C 0.05251 0.60383 0.06863
 C613 C 0.05308 0.63527 0.05362
 C614 C 0.06850 0.66168 0.06991
 H615 H 0.16305 0.80943 0.10517
 H616 H 0.13405 0.76390 0.07670
 H617 H 0.11730 0.71608 0.17145
 H618 H 0.14585 0.76168 0.19986
 H619 H 0.09274 0.62241 0.14161
 H620 H 0.06658 0.57577 0.11292
 H621 H 0.04220 0.63929 0.02905
 H622 H 0.06903 0.68554 0.05767
 C623 C 0.20350 1.13513 0.83402
 C624 C 0.23014 1.11832 0.85051
 C625 C 0.25801 1.13550 0.86345
 C626 C 0.25889 1.16997 0.86006
 C627 C 0.23201 1.18696 0.84403
 C628 C 0.20383 1.16983 0.83060
 N629 N 0.28494 1.11738 0.88000
 N630 N 0.31342 1.13046 0.88770
 C631 C 0.34012 1.11223 0.90448
 C632 C 0.37312 1.12545 0.90596
 C633 C 0.40000 1.10779 0.92122
 C634 C 0.39408 1.07675 0.93582
 C635 C 0.36068 1.06389 0.93502
 C636 C 0.33397 1.08134 0.91924
 H637 H 0.18206 1.12105 0.82476
 H638 H 0.22913 1.09175 0.85314
 H639 H 0.28022 1.18378 0.86993
 H640 H 0.23358 1.21350 0.84147
 H641 H 0.37812 1.14930 0.89479
 H642 H 0.42538 1.11847 0.92167
 H643 H 0.35530 1.04010 0.94609
 H644 H 0.30857 1.07072 0.91862
 C645 C 0.23216 0.80702 1.14985
 C646 C 0.26274 0.81946 1.13678
 C647 C 0.26644 0.85342 1.13166
 C648 C 0.23938 0.87497 1.14052
 C649 C 0.20904 0.86259 1.15403
 C650 C 0.20505 0.82850 1.15855
 N651 N 0.29751 0.86548 1.11705
 N652 N 0.29944 0.89496 1.10621
 C653 C 0.32992 0.90812 1.09155
 C654 C 0.32755 0.93855 1.07516
 C655 C 0.35646 0.95233 1.06034
 C656 C 0.38864 0.93617 1.06215
 C657 C 0.39111 0.90564 1.07893
 C658 C 0.36188 0.89157 1.09334
 H659 H 0.22959 0.78066 1.15330
 H660 H 0.28338 0.80260 1.13012
 H661 H 0.24165 0.90134 1.13696
 H662 H 0.18837 0.87952 1.16042
 H663 H 0.30308 0.95153 1.07367
 H664 H 0.35358 0.97586 1.04769
 H665 H 0.41551 0.89257 1.08068
 H666 H 0.36429 0.86801 1.10605
 C667 C 0.75000 1.16599 1.20172
 C668 C 0.72275 1.14843 1.18801
 C669 C 0.72221 1.14131 1.15393
 C670 C 0.74900 1.15251 1.13345
 C671 C 0.77596 1.17051 1.14707
 C672 C 0.77678 1.17721 1.18134
 N673 N 0.69409 1.12304 1.14066
 N674 N 0.69484 1.11104 1.11144
 C675 C 0.66640 1.09357 1.09771
 C676 C 0.67061 1.07730 1.06733
 C677 C 0.64304 1.06097 1.05268
 C678 C 0.61056 1.06109 1.06806
 C679 C 0.60649 1.07724 1.09874
 C680 C 0.63421 1.09319 1.11355
 H681 H 0.75021 1.17100 1.22819
 H682 H 0.70219 1.14004 1.20400
 H683 H 0.74902 1.14748 1.10699
 H684 H 0.79654 1.17875 1.13102
 H685 H 0.69528 1.07749 1.05486
 H686 H 0.64695 1.04896 1.02893
 H687 H 0.58182 1.07768 1.11123
 H688 H 0.63031 1.10568 1.13702
 C689 C 0.75378 0.83336 0.79613
 C690 C 0.72432 0.84811 0.80974
 C691 C 0.72300 0.85559 0.84373
 C692 C 0.75128 0.84736 0.86422
 C693 C 0.78049 0.83218 0.85071
 C694 C 0.78213 0.82534 0.81650
 N695 N 0.69309 0.87191 0.85684
 N696 N 0.69326 0.88466 0.88573
 C697 C 0.66393 0.90100 0.89984
 C698 C 0.66833 0.91877 0.92921
 C699 C 0.64051 0.93505 0.94394
 C700 C 0.60742 0.93342 0.92982
 C701 C 0.60297 0.91541 0.90029
 C702 C 0.63107 0.89947 0.88527
 H703 H 0.75453 0.82815 0.76971
 H704 H 0.70271 0.85425 0.79370
 H705 H 0.75084 0.85273 0.89060
 H706 H 0.80215 0.82639 0.86680
 H707 H 0.69352 0.92012 0.94065
 H708 H 0.64497 0.94868 0.96661
 H709 H 0.57785 0.91374 0.88876
 H710 H 0.62708 0.88575 0.86256
   
