data_POSCAR
  _audit_creation_date              2014-09-24
  _audit_creation_method            'ToBaCCo'
  _symmetry_space_group_name_H-M    'P1'
  _symmetry_Int_Tables_number       1
  _symmetry_cell_setting            triclinic
  loop_
  _symmetry_equiv_pos_as_xyz
 x,y,z
_cell_length_a 40.2005
_cell_length_b 40.7471
_cell_length_c 40.6919
_cell_angle_alpha 90.146500
_cell_angle_beta 89.465300
_cell_angle_gamma 91.579900
loop_
  _atom_site_label
  _atom_site_type_symbol
  _atom_site_fract_x
  _atom_site_fract_y
  _atom_site_fract_z
N1 N 0.13670 0.20646 0.24545
 N2 N 0.14178 0.17575 0.25344
 C3 C 0.11634 0.16466 0.27251
 C4 C 0.09436 0.18990 0.27684
 C5 C 0.10812 0.21610 0.25946
 H6 H 0.11445 0.14040 0.28319
 H7 H 0.09832 0.24046 0.25739
 Cu8 Cu 0.18239 0.15419 0.23990
 Cu9 Cu 0.16814 0.23182 0.21824
 Cu10 Cu 0.21961 0.18300 0.17160
 N11 N 0.22372 0.13579 0.22366
 N12 N 0.23757 0.14685 0.19632
 C13 C 0.26540 0.13037 0.19008
 C14 C 0.26958 0.10800 0.21504
 C15 C 0.24261 0.11196 0.23600
 H16 H 0.28181 0.13508 0.16931
 H17 H 0.23740 0.09885 0.25863
 N18 N 0.21009 0.22848 0.15990
 N19 N 0.19203 0.24771 0.17865
 C20 C 0.19207 0.27793 0.16531
 C21 C 0.21110 0.27755 0.13683
 C22 C 0.22209 0.24583 0.13410
 H23 H 0.17893 0.29850 0.17540
 H24 H 0.23821 0.23624 0.11516
 H25 H 0.17246 0.18977 0.19292
 H26 H 0.21033 0.20275 0.21631
 N27 N 0.63477 0.73797 0.74860
 N28 N 0.65073 0.71956 0.76930
 C29 C 0.63863 0.72397 0.79981
 C30 C 0.61320 0.74589 0.79818
 C31 C 0.61116 0.75427 0.76526
 H32 H 0.64689 0.71118 0.82138
 H33 H 0.59391 0.77087 0.75429
 Cu34 Cu 0.68333 0.68901 0.75421
 Cu35 Cu 0.64673 0.73839 0.70185
 Cu36 Cu 0.72348 0.70375 0.68313
 N37 N 0.72402 0.66752 0.74364
 N38 N 0.73979 0.67234 0.71555
 C39 C 0.76655 0.65297 0.71463
 C40 C 0.76743 0.63573 0.74399
 C41 C 0.74018 0.64570 0.76170
 H42 H 0.78405 0.65163 0.69434
 H43 H 0.73231 0.63724 0.78578
 N44 N 0.70151 0.73559 0.65402
 N45 N 0.67161 0.74690 0.66046
 C46 C 0.66280 0.76686 0.63593
 C47 C 0.68840 0.76864 0.61313
 C48 C 0.71267 0.74865 0.62534
 H49 H 0.63996 0.78023 0.63535
 H50 H 0.73654 0.74396 0.61408
 H51 H 0.67468 0.69638 0.69488
 H52 H 0.69541 0.73236 0.71504
 N53 N 0.35270 0.79922 0.72310
 N54 N 0.33923 0.82703 0.73170
 C55 C 0.35321 0.83810 0.75964
 C56 C 0.37701 0.81626 0.76890
 C57 C 0.37622 0.79191 0.74511
 H58 H 0.34602 0.86001 0.77266
 H59 H 0.39049 0.76979 0.74478
 Cu60 Cu 0.30334 0.84541 0.70699
 Cu61 Cu 0.33600 0.77315 0.68603
 Cu62 Cu 0.26362 0.79978 0.65016
 N63 N 0.25980 0.85684 0.69155
 N64 N 0.24395 0.83854 0.66978
 C65 C 0.21359 0.85072 0.66498
 C66 C 0.21041 0.87818 0.68477
 C67 C 0.24028 0.88144 0.70121
 H68 H 0.19518 0.84015 0.64858
 H69 H 0.24701 0.89968 0.71950
 N70 N 0.28753 0.76117 0.63416
 N71 N 0.31469 0.75061 0.64826
 C72 C 0.32368 0.72259 0.63339
 C73 C 0.30129 0.71541 0.60866
 C74 C 0.27881 0.74040 0.60970
 H75 H 0.34461 0.70813 0.64038
 H76 H 0.25700 0.74253 0.59458
 H77 H 0.31346 0.80979 0.65993
 H78 H 0.28821 0.78909 0.69311
 N79 N 0.85137 0.30596 0.22260
 N80 N 0.83343 0.32737 0.23862
 C81 C 0.84509 0.33035 0.26952
 C82 C 0.87168 0.30958 0.27273
 C83 C 0.87505 0.29476 0.24237
 H84 H 0.83471 0.34599 0.28829
 H85 H 0.89285 0.27656 0.23525
 Cu86 Cu 0.79639 0.34840 0.21694
 Cu87 Cu 0.84225 0.29297 0.17770
 Cu88 Cu 0.76579 0.31488 0.14776
 N89 N 0.76270 0.37043 0.19132
 N90 N 0.75136 0.35733 0.16389
 C91 C 0.72725 0.37605 0.15195
 C92 C 0.72309 0.40227 0.17305
 C93 C 0.74599 0.39799 0.19781
 H94 H 0.71285 0.37018 0.13030
 H95 H 0.74946 0.41323 0.21937
 N96 N 0.79180 0.27926 0.12849
 N97 N 0.82110 0.27126 0.13990
 C98 C 0.83109 0.24392 0.12458
 C99 C 0.80709 0.23444 0.10225
 C100 C 0.78262 0.25751 0.10505
 H101 H 0.85328 0.23087 0.13059
 H102 H 0.75897 0.25715 0.09260
 H103 H 0.81107 0.33024 0.16155
 H104 H 0.79245 0.29647 0.18736
 N105 N 0.84872 0.72783 0.24406
 N106 N 0.83118 0.70582 0.22744
 C107 C 0.84824 0.69713 0.20043
 C108 C 0.87815 0.71456 0.19986
 C109 C 0.87783 0.73383 0.22801
 H110 H 0.83928 0.67969 0.18227
 H111 H 0.89668 0.75167 0.23555
 Cu112 Cu 0.78702 0.69109 0.24122
 Cu113 Cu 0.83006 0.74864 0.28334
 Cu114 Cu 0.76079 0.70842 0.31756
 N115 N 0.75039 0.66663 0.26161
 N116 N 0.74004 0.67358 0.29148
 C117 C 0.71405 0.65351 0.29933
 C118 C 0.70807 0.63273 0.27303
 C119 C 0.73162 0.64162 0.24952
 H120 H 0.70057 0.65394 0.32244
 H121 H 0.73469 0.63091 0.22537
 N122 N 0.78509 0.74451 0.33985
 N123 N 0.81114 0.76034 0.32686
 C124 C 0.82014 0.78530 0.34705
 C125 C 0.79864 0.78502 0.37384
 C126 C 0.77692 0.75883 0.36851
 H127 H 0.84012 0.80296 0.34216
 H128 H 0.75582 0.75163 0.38377
 H129 H 0.80753 0.70483 0.29558
 H130 H 0.77969 0.73685 0.27965
 N131 N 0.35853 0.19918 -0.22603
 N132 N 0.33986 0.18039 -0.24510
 C133 C 0.35252 0.18097 -0.27578
 C134 C 0.38098 0.20082 -0.27584
 C135 C 0.38425 0.21184 -0.24377
 H136 H 0.34201 0.16762 -0.29638
 H137 H 0.40342 0.22825 -0.23414
 Cu138 Cu 0.30137 0.15634 -0.22769
 Cu139 Cu 0.34707 0.20614 -0.17991
 Cu140 Cu 0.26644 0.18105 -0.15768
 N141 N 0.26465 0.13142 -0.20793
 N142 N 0.25030 0.14172 -0.18077
 C143 C 0.22282 0.12301 -0.17476
 C144 C 0.22006 0.09962 -0.19936
 C145 C 0.24711 0.10551 -0.21987
 H146 H 0.20540 0.12710 -0.15485
 H147 H 0.25230 0.09327 -0.24288
 N148 N 0.29344 0.21258 -0.13164
 N149 N 0.32410 0.22182 -0.14005
 C150 C 0.33464 0.24586 -0.11963
 C151 C 0.30956 0.25186 -0.09718
 C152 C 0.28388 0.23017 -0.10527
 H153 H 0.35810 0.25930 -0.12214
 H154 H 0.25934 0.22887 -0.09418
 H155 H 0.31264 0.16760 -0.16989
 H156 H 0.29808 0.20434 -0.19230
 N157 N 0.65600 0.28462 -0.22438
 N158 N 0.66518 0.31457 -0.23311
 C159 C 0.64444 0.32515 -0.25636
 C160 C 0.62083 0.30050 -0.26219
 C161 C 0.62873 0.27527 -0.24125
 H162 H 0.64687 0.34868 -0.26851
 H163 H 0.61660 0.25130 -0.23960
 Cu164 Cu 0.70410 0.33628 -0.21428
 Cu165 Cu 0.68193 0.25885 -0.19438
 Cu166 Cu 0.75769 0.29287 -0.16984
 N167 N 0.74892 0.35265 -0.20588
 N168 N 0.77025 0.33538 -0.18935
 C169 C 0.79989 0.35172 -0.18912
 C170 C 0.79668 0.38079 -0.20621
 C171 C 0.76401 0.38060 -0.21641
 H172 H 0.82211 0.34304 -0.17758
 H173 H 0.75239 0.39896 -0.23125
 N174 N 0.73990 0.25008 -0.15349
 N175 N 0.71165 0.23672 -0.16407
 C176 C 0.70649 0.20741 -0.14952
 C177 C 0.73235 0.20225 -0.12837
 C178 C 0.75309 0.22978 -0.13126
 H179 H 0.68490 0.19143 -0.15308
 H180 H 0.77598 0.23459 -0.11814
 H181 H 0.70666 0.29683 -0.16947
 H182 H 0.72652 0.28202 -0.20834
 N183 N 0.15820 0.76617 0.26007
 N184 N 0.16884 0.79526 0.24985
 C185 C 0.15181 0.80334 0.22283
 C186 C 0.12906 0.77822 0.21609
 C187 C 0.13368 0.75506 0.24024
 H188 H 0.15573 0.82571 0.20893
 H189 H 0.12099 0.73140 0.24247
 Cu190 Cu 0.20396 0.81970 0.27287
 Cu191 Cu 0.17862 0.74385 0.29679
 Cu192 Cu 0.24073 0.78699 0.33834
 N193 N 0.24000 0.84306 0.29568
 N194 N 0.25340 0.83021 0.32186
 C195 C 0.27792 0.85032 0.33278
 C196 C 0.28031 0.87727 0.31231
 C197 C 0.25575 0.87201 0.28901
 H198 H 0.29353 0.84513 0.35350
 H199 H 0.25029 0.88768 0.26845
 N200 N 0.22496 0.74285 0.35125
 N201 N 0.20238 0.72572 0.33462
 C202 C 0.19956 0.69534 0.34758
 C203 C 0.22115 0.69360 0.37370
 C204 C 0.23668 0.72408 0.37548
 H205 H 0.18323 0.67586 0.33861
 H206 H 0.25604 0.73152 0.39243
 H207 H 0.19227 0.78611 0.32137
 H208 H 0.22433 0.76806 0.29372
 N209 N 0.49313 0.38113 0.47549
 N210 N 0.47276 0.39199 0.49817
 C211 C 0.47190 0.37094 0.52366
 C212 C 0.49320 0.34579 0.51644
 C213 C 0.50615 0.35297 0.48572
 H214 H 0.45822 0.37453 0.54634
 H215 H 0.52483 0.33952 0.47246
 Cu216 Cu 0.45243 0.43420 0.49333
 Cu217 Cu 0.50483 0.40658 0.43678
 Cu218 Cu 0.46102 0.47702 0.42199
 N219 N 0.42251 0.46843 0.48159
 N220 N 0.42533 0.48549 0.45424
 C221 C 0.40054 0.50727 0.45355
 C222 C 0.38141 0.50322 0.48196
 C223 C 0.39614 0.47841 0.49895
 H224 H 0.39661 0.52453 0.43391
 H225 H 0.38822 0.46811 0.52227
 N226 N 0.49824 0.46248 0.39309
 N227 N 0.51387 0.43508 0.39907
 C228 C 0.53892 0.43195 0.37751
 C229 C 0.53960 0.45844 0.35669
 C230 C 0.51321 0.47745 0.36690
 H231 H 0.55627 0.41218 0.37756
 H232 H 0.50642 0.50091 0.35699
 H233 H 0.49272 0.45425 0.45265
 H234 H 0.45802 0.42886 0.43436
 N235 N -0.01386 -0.11600 0.96232
 N236 N -0.03701 -0.11113 0.98471
 C237 C -0.03321 -0.13250 1.00953
 C238 C -0.00617 -0.15155 1.00223
 C239 C 0.00553 -0.14042 0.97216
 H240 H -0.04865 -0.13393 1.03140
 H241 H 0.02648 -0.14953 0.95837
 Cu242 Cu -0.06930 -0.07674 0.97988
 Cu243 Cu -0.01049 -0.09071 0.92198
 Cu244 Cu -0.06645 -0.02865 0.91261
 N245 N -0.09847 -0.03970 0.97499
 N246 N -0.09757 -0.02155 0.94833
 C247 C -0.11932 0.00273 0.95156
 C248 C -0.13458 -0.00020 0.98193
 C249 C -0.12087 -0.02739 0.99624
 H250 H -0.12305 0.02172 0.93357
 H251 H -0.12630 -0.03704 1.02049
 N252 N -0.03304 -0.03927 0.87913
 N253 N -0.01121 -0.06253 0.88281
 C254 C 0.01016 -0.06165 0.85708
 C255 C 0.00128 -0.03654 0.83646
 C256 C -0.02621 -0.02300 0.85107
 H257 H 0.03145 -0.07709 0.85425
 H258 H -0.03926 -0.00181 0.84267
 H259 H -0.03054 -0.04899 0.94208
 H260 H -0.05972 -0.07829 0.92060
 N261 N 1.04145 0.57823 0.97747
 N262 N 1.06806 0.56672 0.99154
 C263 C 1.07726 0.58660 1.01645
 C264 C 1.05484 0.61156 1.01863
 C265 C 1.03222 0.60547 0.99371
 H266 H 1.09850 0.58300 1.03203
 H267 H 1.01143 0.62033 0.98714
 Cu268 Cu 1.08748 0.52599 0.97713
 Cu269 Cu 1.02282 0.55748 0.93781
 Cu270 Cu 1.08249 0.51236 0.89674
 N271 N 1.11076 0.49009 0.95662
 N272 N 1.10954 0.48547 0.92468
 C273 C 1.12930 0.46064 0.91629
 C274 C 1.14316 0.44872 0.94464
 C275 C 1.13092 0.46795 0.96983
 H276 H 1.13313 0.45192 0.89145
 H277 H 1.13691 0.46650 0.99563
 N278 N 1.04248 0.52860 0.87547
 N279 N 1.01876 0.54429 0.89112
 C280 C 0.99294 0.54776 0.87055
 C281 C 1.00095 0.53327 0.84074
 C282 C 1.03252 0.52160 0.84478
 H283 H 0.96961 0.55873 0.87720
 H284 H 1.04650 0.50726 0.82735
 H285 H 1.04782 0.51281 0.93372
 H286 H 1.07078 0.55252 0.92630
 N287 N 0.54328 0.09090 0.51422
 N288 N 0.57585 0.09217 0.51107
 C289 C 0.58847 0.11478 0.53208
 C290 C 0.56227 0.12788 0.54953
 C291 C 0.53398 0.11215 0.53759
 H292 H 0.61463 0.12130 0.53423
 H293 H 0.50847 0.11674 0.54444
 Cu294 Cu 0.59853 0.06466 0.47921
 Cu295 Cu 0.51579 0.06433 0.48523
 Cu296 Cu 0.54972 0.00300 0.44318
 N297 N 0.61697 0.02475 0.45927
 N298 N 0.59835 -0.00006 0.44823
 C299 C 0.61772 -0.02616 0.44335
 C300 C 0.65010 -0.01694 0.45116
 C301 C 0.64874 0.01543 0.46087
 H302 H 0.60876 -0.05030 0.43590
 H303 H 0.66884 0.03009 0.47136
 N304 N 0.50688 0.02107 0.43029
 N305 N 0.49409 0.04539 0.44705
 C306 C 0.46595 0.05470 0.43270
 C307 C 0.46057 0.03523 0.40537
 C308 C 0.48693 0.01391 0.40457
 H309 H 0.45102 0.07477 0.44116
 H310 H 0.49184 -0.00456 0.38614
 H311 H 0.56295 0.02837 0.48703
 H312 H 0.56088 0.05078 0.44720
 N313 N -0.06682 0.12416 0.52620
 N314 N -0.09428 0.11161 0.51336
 C315 C -0.10428 0.13160 0.48919
 C316 C -0.08130 0.15746 0.48654
 C317 C -0.05789 0.15186 0.51024
 H318 H -0.12535 0.12661 0.47342
 H319 H -0.03555 0.16644 0.51502
 Cu320 Cu -0.11202 0.06845 0.52734
 Cu321 Cu -0.04426 0.10319 0.56195
 Cu322 Cu -0.05027 0.02148 0.56146
 N323 N -0.11680 0.02033 0.53317
 N324 N -0.09305 0.00279 0.54606
 C325 C -0.10414 -0.02843 0.54950
 C326 C -0.13618 -0.03091 0.53783
 C327 C -0.14349 0.00039 0.52738
 H328 H -0.09027 -0.04775 0.56072
 H329 H -0.16694 0.00833 0.51782
 N330 N -0.01674 0.04511 0.58709
 N331 N -0.01513 0.07733 0.58838
 C332 C 0.00929 0.08696 0.60895
 C333 C 0.02395 0.05915 0.62082
 C334 C 0.00696 0.03302 0.60635
 H335 H 0.01593 0.11221 0.61470
 H336 H 0.01082 0.00716 0.61028
 H337 H -0.06398 0.05739 0.52796
 H338 H -0.08413 0.05753 0.56945
 N339 N 0.43680 0.63647 0.02122
 N340 N 0.40901 0.62608 0.00739
 C341 C 0.40250 0.64524 -0.01848
 C342 C 0.42778 0.66866 -0.02132
 C343 C 0.44924 0.66247 0.00423
 H344 H 0.38124 0.64201 -0.03439
 H345 H 0.47171 0.67626 0.01043
 Cu346 Cu 0.38461 0.58759 0.02327
 Cu347 Cu 0.45256 0.61639 0.06159
 Cu348 Cu 0.42336 0.53629 0.07388
 N349 N 0.36988 0.54229 0.02835
 N350 N 0.38495 0.52212 0.04809
 C351 C 0.37017 0.49212 0.04590
 C352 C 0.34491 0.49368 0.02318
 C353 C 0.34543 0.52582 0.01252
 H354 H 0.37787 0.47058 0.05899
 H355 H 0.32962 0.53634 -0.00581
 N356 N 0.46151 0.55581 0.09779
 N357 N 0.47141 0.58684 0.09454
 C358 C 0.49584 0.59347 0.11621
 C359 C 0.50187 0.56509 0.13339
 C360 C 0.47992 0.54169 0.12103
 H361 H 0.50864 0.61699 0.11899
 H362 H 0.47696 0.51652 0.12915
 H363 H 0.43951 0.57232 0.04102
 H364 H 0.41303 0.58535 0.07631
 N365 N 0.52393 -0.09424 0.05525
 N366 N 0.54208 -0.07870 0.03283
 C367 C 0.53481 -0.09135 0.00301
 C368 C 0.51049 -0.11573 0.00719
 C369 C 0.50427 -0.11697 0.04057
 H370 H 0.54581 -0.08304 -0.01996
 H371 H 0.48678 -0.13320 0.05332
 Cu372 Cu 0.57284 -0.04309 0.04527
 Cu373 Cu 0.52697 -0.08373 0.10186
 Cu374 Cu 0.55404 -0.00371 0.11517
 N375 N 0.59820 -0.00420 0.05932
 N376 N 0.59137 0.01030 0.08740
 C377 C 0.61319 0.03540 0.09221
 C378 C 0.63470 0.03685 0.06561
 C379 C 0.62447 0.01151 0.04504
 H380 H 0.61336 0.05136 0.11349
 H381 H 0.63589 0.00449 0.02199
 N382 N 0.52646 -0.02873 0.14695
 N383 N 0.51840 -0.06011 0.14309
 C384 C 0.49929 -0.07019 0.16869
 C385 C 0.49473 -0.04363 0.18923
 C386 C 0.51225 -0.01778 0.17477
 H387 H 0.48711 -0.09412 0.17062
 H388 H 0.51347 0.00740 0.18324
 H389 H 0.52810 -0.03719 0.08544
 H390 H 0.56753 -0.04996 0.10492
 N391 N 1.00681 0.41124 0.49255
 N392 N 1.03673 0.42061 0.48248
 C393 C 1.04718 0.40003 0.45904
 C394 C 1.02252 0.37638 0.45390
 C395 C 0.99704 0.38421 0.47551
 H396 H 1.07118 0.40207 0.44691
 H397 H 0.97350 0.37109 0.47891
 Cu398 Cu 1.06008 0.45856 0.50067
 Cu399 Cu 0.98434 0.43565 0.52737
 Cu400 Cu 1.04202 0.47319 0.57966
 N401 N 1.08796 0.48734 0.52704
 N402 N 1.08201 0.49203 0.55850
 C403 C 1.10676 0.51111 0.57109
 C404 C 1.12888 0.51906 0.54585
 C405 C 1.11613 0.50362 0.51831
 H406 H 1.10820 0.51900 0.59645
 H407 H 1.12694 0.50361 0.49387
 N408 N 0.99476 0.46463 0.59190
 N409 N 0.97253 0.45209 0.57133
 C410 C 0.94196 0.45451 0.58471
 C411 C 0.94514 0.46903 0.61526
 C412 C 0.97888 0.47492 0.61918
 H413 H 0.91903 0.44735 0.57261
 H414 H 0.99068 0.48808 0.63925
 H415 H 1.01593 0.47714 0.53678
 H416 H 1.02958 0.43507 0.54750
 C417 C 0.35355 0.02802 0.25745
 C418 C 0.33290 -0.00205 0.26918
 C419 C 0.34998 -0.02265 0.28880
 C420 C 0.38637 -0.01160 0.29449
 C421 C 0.36697 0.04397 0.28901
 C422 C 0.38437 0.02335 0.30830
 C423 C 0.38421 0.01345 0.24067
 C424 C 0.40124 -0.00722 0.26000
 H425 H 0.30695 -0.00614 0.26309
 H426 H 0.40065 -0.02847 0.30995
 H427 H 0.36385 0.06966 0.29478
 H428 H 0.39070 0.01683 0.21507
 C429 C 0.13371 -0.03206 0.71673
 C430 C 0.15680 -0.00912 0.73692
 C431 C 0.14141 0.01786 0.74877
 C432 C 0.10491 0.02003 0.73880
 C433 C 0.10378 -0.03954 0.73956
 C434 C 0.08855 -0.01220 0.75069
 C435 C 0.11995 -0.01012 0.68975
 C436 C 0.10493 0.01708 0.70133
 H437 H 0.18226 -0.01435 0.74287
 H438 H 0.09269 0.04233 0.74817
 H439 H 0.09467 -0.06419 0.74511
 H440 H 0.12078 -0.01637 0.66386
 C441 C 0.63826 0.48611 0.20379
 C442 C 0.65693 0.51642 0.21758
 C443 C 0.63790 0.53559 0.23734
 C444 C 0.60169 0.52300 0.24115
 C445 C 0.62360 0.46863 0.23400
 C446 C 0.60474 0.48778 0.25373
 C447 C 0.60811 0.50000 0.18625
 C448 C 0.58925 0.51957 0.20567
 H449 H 0.68312 0.52151 0.21288
 H450 H 0.58582 0.53849 0.25694
 H451 H 0.62913 0.44347 0.23997
 H452 H 0.60400 0.49784 0.16011
 C453 C 0.84930 0.54340 0.75110
 C454 C 0.83550 0.51028 0.76378
 C455 C 0.85666 0.48507 0.75964
 C456 C 0.88967 0.49521 0.74267
 C457 C 0.88283 0.54838 0.76841
 C458 C 0.90395 0.52325 0.76395
 C459 C 0.85812 0.53685 0.71492
 C460 C 0.87926 0.51166 0.71060
 H461 H 0.81134 0.50732 0.77556
 H462 H 0.90664 0.47451 0.73887
 H463 H 0.88921 0.57002 0.78279
 H464 H 0.84833 0.55041 0.69453
 C465 C 0.24510 0.34650 0.03818
 C466 C 0.26241 0.32129 0.01612
 C467 C 0.27189 0.33349 -0.01365
 C468 C 0.26277 0.36923 -0.01917
 C469 C 0.26963 0.37615 0.03965
 C470 C 0.27832 0.38838 0.00953
 C471 C 0.21604 0.35857 0.01765
 C472 C 0.22534 0.37039 -0.01235
 H473 H 0.26855 0.29682 0.02381
 H474 H 0.27041 0.37861 -0.04377
 H475 H 0.27646 0.38834 0.06238
 H476 H 0.19068 0.35929 0.02680
 C477 C 0.75293 0.13084 -0.02960
 C478 C 0.76795 0.15646 -0.00583
 C479 C 0.77552 0.14405 0.02402
 C480 C 0.76700 0.10740 0.02788
 C481 C 0.77803 0.10316 -0.03071
 C482 C 0.78521 0.09061 -0.00062
 C483 C 0.72270 0.11602 -0.01102
 C484 C 0.73012 0.10389 0.01904
 H485 H 0.77274 0.18197 -0.01193
 H486 H 0.77272 0.09781 0.05259
 H487 H 0.78788 0.09351 -0.05350
 H488 H 0.69766 0.11555 -0.02065
 C489 C 0.25132 0.61981 0.46795
 C490 C 0.26380 0.64466 0.49395
 C491 C 0.27127 0.63059 0.52320
 C492 C 0.26502 0.59330 0.52410
 C493 C 0.27856 0.59417 0.46577
 C494 C 0.28565 0.58012 0.49513
 C495 C 0.22169 0.60187 0.48440
 C496 C 0.22870 0.58803 0.51374
 H497 H 0.26816 0.67054 0.48930
 H498 H 0.27053 0.58229 0.54824
 H499 H 0.29058 0.58743 0.44290
 H500 H 0.19710 0.60065 0.47372
 C501 C 0.72552 0.84544 0.52126
 C502 C 0.74253 0.82803 0.49250
 C503 C 0.76164 0.84838 0.47305
 C504 C 0.76182 0.88451 0.48411
 C505 C 0.75398 0.86344 0.53941
 C506 C 0.77289 0.88386 0.52004
 C507 C 0.70607 0.87308 0.50515
 C508 C 0.72499 0.89349 0.48572
 H509 H 0.73985 0.80186 0.48827
 H510 H 0.77732 0.90104 0.46833
 H511 H 0.75842 0.86052 0.56544
 H512 H 0.68026 0.87776 0.51046
 C513 C 0.00056 0.22615 0.35015
 C514 C -0.02627 0.24339 0.33052
 C515 C -0.04562 0.26373 0.34887
 C516 C -0.03620 0.26482 0.38544
 C517 C 0.02005 0.25399 0.36713
 C518 C 0.00109 0.27457 0.38528
 C519 C -0.01841 0.20869 0.37816
 C520 C -0.03772 0.22877 0.39637
 H521 H -0.02924 0.23978 0.30435
 H522 H -0.05169 0.28077 0.40104
 H523 H 0.04678 0.25688 0.36466
 H524 H -0.01783 0.18264 0.38288
 C525 C -0.01816 0.72705 0.12768
 C526 C 0.00933 0.73851 0.15153
 C527 C 0.03906 0.74541 0.13632
 C528 C 0.03888 0.73952 0.09905
 C529 C -0.01915 0.75412 0.10156
 C530 C 0.01064 0.76051 0.08635
 C531 C -0.00370 0.69752 0.10956
 C532 C 0.02604 0.70406 0.09458
 H533 H 0.00524 0.74289 0.17747
 H534 H 0.06339 0.74450 0.08712
 H535 H -0.04182 0.76613 0.09498
 H536 H -0.01600 0.67354 0.10865
 C537 C 0.47788 0.23574 0.65325
 C538 C 0.50116 0.25357 0.67758
 C539 C 0.53096 0.26289 0.66396
 C540 C 0.53525 0.25312 0.62785
 C541 C 0.47556 0.25930 0.62395
 C542 C 0.50562 0.26793 0.61046
 C543 C 0.49801 0.20703 0.64014
 C544 C 0.52793 0.21607 0.62669
 H545 H 0.49419 0.26024 0.70241
 H546 H 0.55979 0.26085 0.61732
 H547 H 0.45218 0.26652 0.61352
 H548 H 0.48847 0.18190 0.64005
 C549 C 0.51578 0.77856 0.86968
 C550 C 0.49025 0.78909 0.84418
 C551 C 0.46022 0.79641 0.85750
 C552 C 0.45813 0.79214 0.89490
 C553 C 0.51709 0.80659 0.89498
 C554 C 0.48698 0.81329 0.90873
 C555 C 0.49875 0.74972 0.88807
 C556 C 0.46854 0.75684 0.90110
 H557 H 0.49557 0.79175 0.81822
 H558 H 0.43335 0.79771 0.90536
 H559 H 0.54027 0.81748 0.90366
 H560 H 0.50964 0.72583 0.89045
 N561 N 0.02660 0.17230 0.33250
 N562 N 0.05146 0.16317 0.31337
 C563 C 0.06414 0.18972 0.29757
 C564 C 0.04628 0.21690 0.30666
 C565 C 0.02296 0.20500 0.32933
 H566 H 0.05101 0.24220 0.29962
 H567 H 0.01328 0.15619 0.34789
 H568 H 0.06006 0.13925 0.31200
 N569 N 0.57430 0.75998 0.87614
 N570 N 0.59974 0.75138 0.85762
 C571 C 0.59198 0.75589 0.82587
 C572 C 0.56021 0.76802 0.82403
 C573 C 0.54968 0.76999 0.85663
 H574 H 0.54637 0.77284 0.80200
 H575 H 0.57350 0.75810 0.90174
 H576 H 0.62172 0.74197 0.86673
 N577 N 0.40992 0.82963 0.84945
 N578 N 0.38836 0.83526 0.82598
 C579 C 0.39645 0.81738 0.79933
 C580 C 0.42465 0.79984 0.80595
 C581 C 0.43236 0.80837 0.83806
 H582 H 0.43740 0.78297 0.78994
 H583 H 0.40931 0.84049 0.87272
 H584 H 0.36818 0.85070 0.82852
 N585 N -0.09066 0.30522 0.35157
 N586 N -0.11377 0.31812 0.33007
 C587 C -0.10942 0.30364 0.30062
 C588 C -0.08380 0.28157 0.30259
 C589 C -0.07271 0.28312 0.33478
 H590 H -0.07466 0.26607 0.28307
 H591 H -0.08828 0.31216 0.37614
 H592 H -0.13117 0.33567 0.33638
 N593 N -0.07662 0.70454 0.12451
 N594 N -0.10346 0.70107 0.14317
 C595 C -0.09699 0.71389 0.17304
 C596 C -0.06435 0.72601 0.17348
 C597 C -0.05219 0.71927 0.14208
 H598 H -0.05158 0.73801 0.19366
 H599 H -0.07517 0.69696 0.10001
 H600 H -0.12592 0.69047 0.13521
 N601 N 0.42222 0.20773 0.64671
 N602 N 0.39554 0.19733 0.66647
 C603 C 0.40177 0.20776 0.69729
 C604 C 0.43210 0.22499 0.69793
 C605 C 0.44426 0.22411 0.66584
 H606 H 0.44425 0.23542 0.71929
 H607 H 0.42494 0.20222 0.62177
 H608 H 0.37502 0.18350 0.65820
 N609 N 0.56802 0.31215 0.66943
 N610 N 0.59311 0.32300 0.69060
 C611 C 0.59603 0.30001 0.71409
 C612 C 0.57257 0.27482 0.70914
 C613 C 0.55579 0.28336 0.68105
 H614 H 0.56917 0.25238 0.72308
 H615 H 0.56101 0.32406 0.64798
 H616 H 0.60792 0.34417 0.68710
 N617 N 0.08801 0.78391 0.13869
 N618 N 0.11128 0.79300 0.15978
 C619 C 0.10667 0.77577 0.18772
 C620 C 0.07891 0.75502 0.18446
 C621 C 0.06785 0.76101 0.15290
 H622 H 0.06858 0.73774 0.20222
 H623 H 0.08591 0.79355 0.11506
 H624 H 0.13029 0.81029 0.15475
 N625 N 0.34518 0.06406 0.20741
 N626 N 0.32312 0.08476 0.19667
 C627 C 0.29792 0.08617 0.21857
 C628 C 0.30418 0.06530 0.24454
 C629 C 0.33446 0.05153 0.23645
 H630 H 0.28926 0.06114 0.26648
 H631 H 0.36746 0.05969 0.19507
 H632 H 0.32580 0.09805 0.17485
 N633 N 0.81514 0.57819 0.78847
 N634 N 0.79398 0.60227 0.78675
 C635 C 0.79109 0.61127 0.75510
 C636 C 0.81140 0.59206 0.73571
 C637 C 0.82605 0.57105 0.75796
 H638 H 0.81395 0.59264 0.70925
 H639 H 0.82153 0.56644 0.81021
 H640 H 0.78153 0.61201 0.80702
 N641 N 0.87131 0.42931 0.77967
 N642 N 0.85551 0.40203 0.78929
 C643 C 0.82252 0.40613 0.78658
 C644 C 0.81705 0.43742 0.77500
 C645 C 0.84863 0.45136 0.77096
 H646 H 0.79342 0.44840 0.77002
 H647 H 0.89715 0.43275 0.77961
 H648 H 0.86726 0.38096 0.79722
 N649 N 0.34732 -0.06695 0.33076
 N650 N 0.32763 -0.09484 0.33737
 C651 C 0.30382 -0.09693 0.31430
 C652 C 0.30746 -0.07052 0.29288
 C653 C 0.33507 -0.05250 0.30392
 H654 H 0.29258 -0.06553 0.27153
 H655 H 0.36756 -0.05902 0.34488
 H656 H 0.33163 -0.11103 0.35669
 N657 N 0.13204 -0.08330 0.68235
 N658 N 0.15347 -0.10802 0.67294
 C659 C 0.18269 -0.10214 0.68807
 C660 C 0.18068 -0.07389 0.70712
 C661 C 0.14868 -0.06269 0.70272
 H662 H 0.20022 -0.06287 0.72190
 H663 H 0.10760 -0.08123 0.67429
 H664 H 0.14723 -0.12737 0.65710
 N665 N 0.65397 0.45229 0.15343
 N666 N 0.67628 0.43023 0.14577
 C667 C 0.69723 0.42715 0.17116
 C668 C 0.68804 0.44843 0.19598
 C669 C 0.66026 0.46380 0.18395
 H670 H 0.69863 0.45091 0.22024
 H671 H 0.63422 0.45810 0.13827
 H672 H 0.67637 0.41684 0.12386
 N673 N 0.63769 0.57754 0.28219
 N674 N 0.65638 0.60289 0.29182
 C675 C 0.68198 0.60690 0.27051
 C676 C 0.67965 0.58303 0.24634
 C677 C 0.65120 0.56485 0.25468
 H678 H 0.69634 0.57938 0.22572
 H679 H 0.61651 0.56887 0.29480
 H680 H 0.65153 0.61708 0.31264
 N681 N 0.14095 0.05770 0.79523
 N682 N 0.16184 0.07881 0.80941
 C683 C 0.19173 0.07695 0.79441
 C684 C 0.18997 0.05325 0.76993
 C685 C 0.15727 0.04182 0.77118
 H686 H 0.20919 0.04650 0.75258
 H687 H 0.11590 0.05456 0.80182
 H688 H 0.15525 0.09494 0.82821
 N689 N 0.21836 0.35402 0.09373
 N690 N 0.20905 0.33611 0.11940
 C691 C 0.21821 0.30499 0.11419
 C692 C 0.23412 0.30299 0.08395
 C693 C 0.23362 0.33470 0.07162
 H694 H 0.24357 0.28121 0.07233
 H695 H 0.21370 0.37897 0.09114
 H696 H 0.19633 0.34514 0.13985
 N697 N 0.67149 0.82111 0.54512
 N698 N 0.66216 0.80124 0.56928
 C699 C 0.68940 0.78908 0.58325
 C700 C 0.71746 0.80159 0.56703
 C701 C 0.70506 0.82246 0.54331
 H702 H 0.74324 0.79777 0.57299
 H703 H 0.65478 0.83360 0.53060
 H704 H 0.63743 0.79655 0.57630
 N705 N 0.80588 0.85339 0.42933
 N706 N 0.81584 0.83658 0.40337
 C707 C 0.79675 0.80903 0.40089
 C708 C 0.77382 0.80813 0.42651
 C709 C 0.78029 0.83680 0.44394
 H710 H 0.75441 0.78976 0.43116
 H711 H 0.81662 0.87579 0.43671
 H712 H 0.83502 0.84424 0.38745
 N713 N 0.31790 0.32822 -0.05419
 N714 N 0.32827 0.30647 -0.07580
 C715 C 0.30832 0.27941 -0.07383
 C716 C 0.28451 0.28389 -0.04946
 C717 C 0.29152 0.31523 -0.03775
 H718 H 0.26396 0.26755 -0.04255
 H719 H 0.32841 0.35177 -0.05123
 H720 H 0.34778 0.31079 -0.09249
 N721 N 0.72561 0.12612 -0.08487
 N722 N 0.71997 0.14476 -0.11062
 C723 C 0.73539 0.17416 -0.10615
 C724 C 0.75152 0.17433 -0.07630
 C725 C 0.74426 0.14343 -0.06322
 H726 H 0.76523 0.19469 -0.06535
 H727 H 0.71599 0.10223 -0.08183
 H728 H 0.70538 0.13751 -0.13061
 N729 N 0.22772 0.61469 0.41113
 N730 N 0.21890 0.63388 0.38679
 C731 C 0.22749 0.66507 0.39448
 C732 C 0.24246 0.66586 0.42501
 C733 C 0.24185 0.63331 0.43496
 H734 H 0.25123 0.68732 0.43835
 H735 H 0.22327 0.58933 0.41179
 H736 H 0.20704 0.62562 0.36547
 N737 N 0.30807 0.63585 0.57194
 N738 N 0.31643 0.65829 0.59407
 C739 C 0.29996 0.68587 0.58775
 C740 C 0.28051 0.68093 0.56009
 C741 C 0.28637 0.64881 0.55089
 H742 H 0.26389 0.69793 0.54878
 H743 H 0.31730 0.61214 0.57130
 H744 H 0.33263 0.65438 0.61350
 N745 N 0.81346 0.15253 0.07141
 N746 N 0.82241 0.17661 0.09152
 C747 C 0.80556 0.20356 0.08360
 C748 C 0.78528 0.19653 0.05708
 C749 C 0.79110 0.16389 0.05013
 H750 H 0.76823 0.21259 0.04503
 H751 H 0.82272 0.12885 0.07223
 H752 H 0.83917 0.17425 0.11077
 N753 N 0.53433 0.28133 0.55774
 N754 N 0.53070 0.30133 0.53267
 C755 C 0.50366 0.31942 0.53820
 C756 C 0.48917 0.31036 0.56795
 C757 C 0.50954 0.28618 0.57955
 H758 H 0.46741 0.32033 0.57974
 H759 H 0.55332 0.26446 0.55952
 H760 H 0.54689 0.30278 0.51249
 N761 N 0.04070 0.78403 0.03740
 N762 N 0.03613 0.80696 0.01515
 C763 C 0.00745 0.82195 0.02204
 C764 C -0.00694 0.80796 0.04988
 C765 C 0.01493 0.78389 0.05886
 H766 H -0.03019 0.81418 0.06162
 H767 H 0.06081 0.76837 0.03713
 H768 H 0.05238 0.81196 -0.00449
 N769 N 0.07695 0.67675 0.07423
 N770 N 0.08445 0.65209 0.05461
 C771 C 0.05613 0.63928 0.04185
 C772 C 0.02933 0.65618 0.05419
 C773 C 0.04368 0.67965 0.07479
 H774 H 0.00319 0.65197 0.04902
 H775 H 0.09434 0.69091 0.08737
 H776 H 0.10862 0.64446 0.04986
 N777 N 0.58088 0.19786 0.60029
 N778 N 0.59001 0.17439 0.57986
 C779 C 0.56337 0.15457 0.57385
 C780 C 0.53636 0.16552 0.59152
 C781 C 0.54839 0.19309 0.60784
 H782 H 0.51098 0.15599 0.59090
 H783 H 0.59655 0.21708 0.60823
 H784 H 0.61372 0.17283 0.56936
 N785 N -0.09262 0.21744 0.42356
 N786 N -0.10451 0.19724 0.44653
 C787 C -0.07874 0.18286 0.46107
 C788 C -0.04934 0.19411 0.44674
 C789 C -0.05919 0.21583 0.42296
 H790 H -0.02443 0.18594 0.45138
 H791 H -0.10725 0.23054 0.40738
 H792 H -0.12977 0.19294 0.45157
 N793 N 0.41453 0.73116 0.91888
 N794 N 0.40384 0.70773 0.93905
 C795 C 0.43025 0.69496 0.95405
 C796 C 0.45912 0.71059 0.94264
 C797 C 0.44796 0.73329 0.92024
 H798 H 0.48450 0.70622 0.94972
 H799 H 0.39913 0.74513 0.90423
 H800 H 0.37883 0.70099 0.94272
 N801 N 0.45808 0.82985 0.96037
 N802 N 0.46460 0.84801 0.98655
 C803 C 0.49404 0.86391 0.98196
 C804 C 0.50692 0.85562 0.95146
 C805 C 0.48340 0.83362 0.93861
 H806 H 0.53081 0.86305 0.94106
 H807 H 0.43739 0.81394 0.95850
 H808 H 0.44939 0.84878 1.00747
 N809 N 0.04621 0.31682 0.39402
 N810 N 0.05162 0.34345 0.41180
 C811 C 0.02461 0.34872 0.43068
 C812 C 0.00070 0.32424 0.42455
 C813 C 0.01556 0.30434 0.40112
 H814 H -0.02374 0.32131 0.43568
 H815 H 0.06334 0.30795 0.37699
 H816 H 0.07360 0.35768 0.41077
 N817 N 0.31070 0.53395 0.52520
 N818 N 0.33567 0.51390 0.52166
 C819 C 0.35170 0.52072 0.49316
 C820 C 0.33604 0.54630 0.47767
 C821 C 0.31015 0.55408 0.49904
 H822 H 0.34285 0.55788 0.45459
 H823 H 0.29423 0.53327 0.54518
 H824 H 0.34142 0.49589 0.53874
 N825 N 0.80772 0.04400 0.03167
 N826 N 0.82857 0.01987 0.02698
 C827 C 0.84105 0.02210 -0.00375
 C828 C 0.82760 0.04872 -0.01935
 C829 C 0.80654 0.06204 0.00395
 H830 H 0.83251 0.05718 -0.04414
 H831 H 0.79427 0.04742 0.05340
 H832 H 0.83397 0.00226 0.04460
 N833 N 0.70515 0.09175 0.07398
 N834 N 0.67968 0.07448 0.08621
 C835 C 0.66343 0.05950 0.06129
 C836 C 0.67887 0.06792 0.03185
 C837 C 0.70517 0.08847 0.04106
 H838 H 0.67227 0.05984 0.00734
 H839 H 0.72203 0.10564 0.08801
 H840 H 0.67404 0.07253 0.11125
 N841 N 0.20330 0.56538 0.56579
 N842 N 0.17652 0.54767 0.57439
 C843 C 0.15953 0.53955 0.54704
 C844 C 0.17594 0.55281 0.52000
 C845 C 0.20350 0.56908 0.53287
 H846 H 0.16886 0.55076 0.49447
 H847 H 0.22073 0.57508 0.58229
 H848 H 0.17031 0.54108 0.59851
 N849 N 0.20600 0.38914 -0.06699
 N850 N 0.18426 0.40992 -0.07836
 C851 C 0.16716 0.42234 -0.05279
 C852 C 0.17801 0.40847 -0.02395
 C853 C 0.20270 0.38763 -0.03406
 H854 H 0.17048 0.41422 0.00096
 H855 H 0.22321 0.37684 -0.08154
 H856 H 0.18219 0.41631 -0.10308
 N857 N 0.73061 0.94976 0.46167
 N858 N 0.71082 0.97336 0.45257
 C859 C 0.67906 0.96214 0.45452
 C860 C 0.67852 0.93000 0.46547
 C861 C 0.71181 0.92315 0.47014
 H862 H 0.65686 0.91471 0.47138
 H863 H 0.75638 0.95270 0.46358
 H864 H 0.71898 0.99709 0.44626
 N865 N 0.82136 0.89301 0.55700
 N866 N 0.84555 0.91515 0.56122
 C867 C 0.84161 0.93983 0.53975
 C868 C 0.81386 0.93299 0.52075
 C869 C 0.80178 0.90296 0.53247
 H870 H 0.80401 0.94770 0.50121
 H871 H 0.81879 0.87122 0.57036
 H872 H 0.86421 0.91338 0.57876
 N873 N 0.28936 0.44024 -0.02116
 N874 N 0.30628 0.46814 -0.01729
 C875 C 0.32336 0.46676 0.01094
 C876 C 0.31695 0.43668 0.02589
 C877 C 0.29516 0.42059 0.00465
 H878 H 0.32631 0.42802 0.04906
 H879 H 0.27332 0.43539 -0.04072
 H880 H 0.30595 0.48772 -0.03377
 N881 N 0.61112 0.45508 0.30421
 N882 N 0.59427 0.44778 0.33120
 C883 C 0.56567 0.46430 0.33146
 C884 C 0.56454 0.48365 0.30338
 C885 C 0.59380 0.47648 0.28654
 H886 H 0.54457 0.49893 0.29540
 H887 H 0.63409 0.44524 0.29808
 H888 H 0.60231 0.43130 0.34884
 N889 N 0.03482 0.01043 0.76927
 N890 N 0.01160 0.00382 0.79158
 C891 C 0.01952 -0.02375 0.80757
 C892 C 0.04887 -0.03553 0.79457
 C893 C 0.05784 -0.01291 0.77052
 H894 H 0.06264 -0.05646 0.80260
 H895 H 0.03486 0.03077 0.75370
 H896 H -0.00876 0.01858 0.79619
 N897 N 0.08140 0.07106 0.68669
 N898 N 0.06003 0.08226 0.66522
 C899 C 0.05051 0.05741 0.64521
 C900 C 0.06692 0.02939 0.65387
 C901 C 0.08616 0.03907 0.68033
 H902 H 0.06368 0.00492 0.64378
 H903 H 0.09185 0.08498 0.70576
 H904 H 0.05116 0.10611 0.66529
 N905 N 0.55869 0.57165 0.20053
 N906 N 0.53651 0.58412 0.18065
 C907 C 0.52619 0.56054 0.15956
 C908 C 0.54257 0.53191 0.16605
 C909 C 0.56314 0.54006 0.19209
 H910 H 0.54073 0.50882 0.15289
 H911 H 0.57150 0.58501 0.21859
 H912 H 0.52883 0.60839 0.18147
 N913 N 0.43619 -0.05670 0.25504
 N914 N 0.46068 -0.06665 0.23584
 C915 C 0.47077 -0.04146 0.21647
 C916 C 0.45189 -0.01448 0.22338
 C917 C 0.43000 -0.02524 0.24769
 H918 H 0.45249 0.00896 0.21090
 H919 H 0.42285 -0.07179 0.27149
 H920 H 0.46956 -0.09050 0.23540
 N921 N 0.87034 0.49932 0.65122
 N922 N 0.88742 0.48713 0.62634
 C923 C 0.91819 0.48037 0.63675
 C924 C 0.92074 0.48819 0.66978
 C925 C 0.88984 0.50014 0.67796
 H926 H 0.94220 0.48611 0.68542
 H927 H 0.84571 0.50667 0.64983
 H928 H 0.87829 0.48428 0.60252
 N929 N 0.96261 0.50544 0.76621
 N930 N 0.98817 0.50839 0.78622
 C931 C 0.97953 0.52722 0.81204
 C932 C 0.94708 0.53706 0.80809
 C933 C 0.93723 0.52251 0.77872
 H934 H 0.93230 0.55144 0.82484
 H935 H 0.96271 0.49176 0.74449
 H936 H 1.01081 0.49696 0.78241
 N937 N 0.39185 0.06040 0.35680
 N938 N 0.41170 0.06325 0.38237
 C939 C 0.43361 0.03882 0.38142
 C940 C 0.42726 0.01933 0.35411
 C941 C 0.40057 0.03397 0.33909
 H942 H 0.44068 -0.00190 0.34595
 H943 H 0.37263 0.07633 0.35183
 H944 H 0.41033 0.08198 0.39985
   
