data_POSCAR
  _audit_creation_date              2014-09-24
  _audit_creation_method            'ToBaCCo'
  _symmetry_space_group_name_H-M    'P1'
  _symmetry_Int_Tables_number       1
  _symmetry_cell_setting            triclinic
  loop_
  _symmetry_equiv_pos_as_xyz
 x,y,z
_cell_length_a 45.2999
_cell_length_b 46.2105
_cell_length_c 45.0218
_cell_angle_alpha 89.813100
_cell_angle_beta 89.625100
_cell_angle_gamma 89.827900
loop_
  _atom_site_label
  _atom_site_type_symbol
  _atom_site_fract_x
  _atom_site_fract_y
  _atom_site_fract_z
C1 C 0.31921 0.31539 -0.02198
 C2 C 0.31992 0.31330 0.00824
 C3 C 0.30481 0.33503 0.02739
 C4 C 0.33640 0.29016 0.02437
 C5 C 0.33524 0.29491 -0.04184
 C6 C 0.30374 0.33977 -0.03678
 C7 C 0.32119 0.34984 0.04881
 C8 C 0.30729 0.36891 0.06840
 C9 C 0.27675 0.37375 0.06692
 C10 C 0.26026 0.35894 0.04536
 C11 C 0.27420 0.33965 0.02584
 C12 C 0.36645 0.28453 0.01870
 C13 C 0.38190 0.26437 0.03602
 C14 C 0.36777 0.25024 0.05988
 C15 C 0.33791 0.25600 0.06560
 C16 C 0.32230 0.27547 0.04785
 C17 C 0.33211 0.26484 -0.03901
 C18 C 0.34908 0.24615 -0.05661
 C19 C 0.36902 0.25699 -0.07813
 C20 C 0.37097 0.28733 -0.08171
 C21 C 0.35435 0.30589 -0.06375
 C22 C 0.27863 0.33443 -0.05394
 C23 C 0.26438 0.35715 -0.06869
 C24 C 0.27542 0.38551 -0.06690
 C25 C 0.30078 0.39068 -0.04998
 C26 C 0.31468 0.36805 -0.03479
 H27 H 0.34478 0.34639 0.05055
 H28 H 0.32047 0.37985 0.08491
 H29 H 0.23656 0.36142 0.04409
 H30 H 0.26104 0.32781 0.01001
 H31 H 0.37816 0.29629 0.00147
 H32 H 0.40518 0.26092 0.03168
 H33 H 0.29928 0.27966 0.05292
 H34 H 0.31696 0.25582 -0.02277
 H35 H 0.34660 0.22305 -0.05321
 H36 H 0.38587 0.29735 -0.09742
 H37 H 0.35709 0.32903 -0.06645
 H38 H 0.27013 0.31264 -0.05593
 H39 H 0.24535 0.35234 -0.08219
 H40 H 0.30986 0.41229 -0.04856
 H41 H 0.33426 0.37244 -0.02191
 H42 H 0.32671 0.24563 0.08409
 C43 C 0.68222 0.68625 -0.00520
 C44 C 0.68031 0.68811 0.02505
 C45 C 0.70175 0.67279 0.04438
 C46 C 0.65652 0.70515 0.03997
 C47 C 0.66591 0.70689 -0.02451
 C48 C 0.70054 0.66356 -0.02004
 C49 C 0.69171 0.65408 0.06678
 C50 C 0.71172 0.63736 0.08298
 C51 C 0.74231 0.63936 0.07723
 C52 C 0.75224 0.65924 0.05576
 C53 C 0.73221 0.67590 0.03960
 C54 C 0.62704 0.70277 0.03076
 C55 C 0.60506 0.71990 0.04366
 C56 C 0.61185 0.73883 0.06686
 C57 C 0.64109 0.74041 0.07699
 C58 C 0.66325 0.72372 0.06360
 C59 C 0.66780 0.73681 -0.01959
 C60 C 0.65042 0.75602 -0.03589
 C61 C 0.63130 0.74582 -0.05786
 C62 C 0.63028 0.71588 -0.06359
 C63 C 0.64759 0.69663 -0.04713
 C64 C 0.71876 0.67070 -0.04434
 C65 C 0.73661 0.64962 -0.05769
 C66 C 0.73674 0.62112 -0.04671
 C67 C 0.71826 0.61385 -0.02280
 C68 C 0.69978 0.63467 -0.01009
 H69 H 0.66827 0.65151 0.07086
 H70 H 0.70279 0.62239 0.09911
 H71 H 0.77559 0.66140 0.05093
 H72 H 0.74041 0.69063 0.02272
 H73 H 0.62108 0.68792 0.01326
 H74 H 0.58265 0.71830 0.03558
 H75 H 0.68577 0.72580 0.07122
 H76 H 0.68218 0.74520 -0.00256
 H77 H 0.65162 0.77894 -0.03104
 H78 H 0.61534 0.70706 -0.07983
 H79 H 0.64583 0.67362 -0.05124
 H80 H 0.71960 0.69272 -0.05261
 H81 H 0.75095 0.65576 -0.07598
 H82 H 0.71791 0.59194 -0.01419
 H83 H 0.68512 0.62827 0.00783
 H84 H 0.64704 0.75522 0.09454
 C85 C 0.67432 0.31973 1.01459
 C86 C 0.67071 0.32060 0.98452
 C87 C 0.68807 0.34005 0.96459
 C88 C 0.64836 0.30205 0.96983
 C89 C 0.65524 0.30119 1.03370
 C90 C 0.69636 0.33745 1.03075
 C91 C 0.67297 0.35753 0.94411
 C92 C 0.68837 0.37580 0.92481
 C93 C 0.71926 0.37733 0.92566
 C94 C 0.73459 0.35951 0.94585
 C95 C 0.71910 0.34084 0.96497
 C96 C 0.61824 0.30412 0.97717
 C97 C 0.59779 0.28554 0.96411
 C98 C 0.60693 0.26517 0.94288
 C99 C 0.63707 0.26343 0.93525
 C100 C 0.65753 0.28180 0.94853
 C101 C 0.65536 0.27096 1.03098
 C102 C 0.63691 0.25403 1.04898
 C103 C 0.61801 0.26716 1.07005
 C104 C 0.61870 0.29736 1.07317
 C105 C 0.63712 0.31420 1.05522
 C106 C 0.71360 0.32407 1.05266
 C107 C 0.73210 0.34033 1.07066
 C108 C 0.73451 0.37041 1.06684
 C109 C 0.71766 0.38384 1.04431
 C110 C 0.69840 0.36754 1.02686
 H111 H 0.64908 0.35716 0.94317
 H112 H 0.67604 0.38906 0.90932
 H113 H 0.75846 0.35947 0.94648
 H114 H 0.73131 0.32694 0.97993
 H115 H 0.61064 0.31992 0.99322
 H116 H 0.57471 0.28731 0.97034
 H117 H 0.68067 0.27985 0.94264
 H118 H 0.66975 0.26053 1.01494
 H119 H 0.63789 0.23081 1.04643
 H120 H 0.60465 0.30804 1.08936
 H121 H 0.63697 0.33749 1.05782
 H122 H 0.71225 0.30093 1.05631
 H123 H 0.74458 0.32922 1.08774
 H124 H 0.71787 0.40700 1.04097
 H125 H 0.68452 0.37858 1.01092
 H126 H 0.64503 0.24752 0.91951
 C127 C 0.32620 0.67909 1.02055
 C128 C 0.32522 0.67947 0.99028
 C129 C 0.30931 0.65671 0.97369
 C130 C 0.34148 0.70138 0.97241
 C131 C 0.34838 0.69628 1.03730
 C132 C 0.30496 0.66126 1.03796
 C133 C 0.31800 0.62765 0.97636
 C134 C 0.30427 0.60631 0.95950
 C135 C 0.28118 0.61357 0.94023
 C136 C 0.27233 0.64269 0.93772
 C137 C 0.28656 0.66413 0.95410
 C138 C 0.36035 0.69252 0.94933
 C139 C 0.37749 0.71273 0.93394
 C140 C 0.37576 0.74233 0.94113
 C141 C 0.35624 0.75120 0.96368
 C142 C 0.33902 0.73097 0.97898
 C143 C 0.33982 0.71247 1.06224
 C144 C 0.36035 0.72946 1.07734
 C145 C 0.39002 0.73082 1.06755
 C146 C 0.39851 0.71400 1.04294
 C147 C 0.37817 0.69648 1.02847
 C148 C 0.27458 0.66335 1.03253
 C149 C 0.25464 0.64604 1.04816
 C150 C 0.26444 0.62647 1.07001
 C151 C 0.29503 0.62510 1.07600
 C152 C 0.31497 0.64237 1.06013
 H153 H 0.33585 0.62163 0.99107
 H154 H 0.31162 0.58407 0.96152
 H155 H 0.25506 0.64897 0.92248
 H156 H 0.27985 0.68652 0.95154
 H157 H 0.36268 0.66978 0.94398
 H158 H 0.39281 0.70485 0.91731
 H159 H 0.32426 0.73831 0.99644
 H160 H 0.31702 0.71251 1.06964
 H161 H 0.35235 0.74224 1.09577
 H162 H 0.42112 0.71420 1.03491
 H163 H 0.38565 0.68336 1.01000
 H164 H 0.26629 0.67835 1.01601
 H165 H 0.23137 0.64796 1.04300
 H166 H 0.30414 0.61058 1.09239
 H167 H 0.33834 0.64061 1.06478
 H168 H 0.35455 0.77383 0.96969
 C169 C -0.01478 0.31997 0.31306
 C170 C 0.01479 0.31530 0.31534
 C171 C 0.02693 0.29349 0.33619
 C172 C 0.03668 0.33301 0.29870
 C173 C -0.02683 0.34365 0.29450
 C174 C -0.03666 0.30352 0.33113
 C175 C 0.02452 0.29736 0.36701
 C176 C 0.03667 0.27696 0.38645
 C177 C 0.05119 0.25228 0.37529
 C178 C 0.05312 0.24831 0.34446
 C179 C 0.04152 0.26900 0.32504
 C180 C 0.05952 0.34658 0.31422
 C181 C 0.08036 0.36333 0.29914
 C182 C 0.07865 0.36712 0.26829
 C183 C 0.05615 0.35302 0.25257
 C184 C 0.03545 0.33594 0.26767
 C185 C -0.04288 0.33706 0.26895
 C186 C -0.05744 0.35889 0.25322
 C187 C -0.05699 0.38777 0.26343
 C188 C -0.04037 0.39415 0.28891
 C189 C -0.02511 0.37239 0.30405
 C190 C -0.03680 0.27315 0.33166
 C191 C -0.05650 0.25819 0.35012
 C192 C -0.07707 0.27340 0.36796
 C193 C -0.07789 0.30374 0.36590
 C194 C -0.05779 0.31860 0.34799
 H195 H 0.01339 0.31624 0.37591
 H196 H 0.03433 0.28027 0.41014
 H197 H 0.06408 0.22940 0.33541
 H198 H 0.04358 0.26578 0.30130
 H199 H 0.06107 0.34445 0.33812
 H200 H 0.09764 0.37375 0.31170
 H201 H 0.01864 0.32485 0.25513
 H202 H -0.04467 0.31484 0.26160
 H203 H -0.07034 0.35249 0.23426
 H204 H -0.03951 0.41603 0.29746
 H205 H -0.01306 0.37771 0.32399
 H206 H -0.02154 0.26099 0.31790
 H207 H -0.05562 0.23483 0.34972
 H208 H -0.09356 0.31621 0.37894
 H209 H -0.05841 0.34202 0.34781
 H210 H 0.05479 0.35468 0.22864
 C211 C -0.01506 0.68561 0.68716
 C212 C 0.01417 0.69151 0.69140
 C213 C 0.03044 0.71147 0.67130
 C214 C 0.03175 0.67647 0.71455
 C215 C -0.03042 0.66182 0.70362
 C216 C -0.03281 0.70233 0.66522
 C217 C 0.03393 0.70479 0.64110
 C218 C 0.04901 0.72372 0.62211
 C219 C 0.06062 0.74978 0.63300
 C220 C 0.05685 0.75653 0.66316
 C221 C 0.04233 0.73727 0.68230
 C222 C 0.05672 0.66037 0.70619
 C223 C 0.07105 0.64268 0.72680
 C224 C 0.06093 0.64110 0.75644
 C225 C 0.03678 0.65837 0.76502
 C226 C 0.02245 0.67608 0.74436
 C227 C -0.05775 0.66704 0.71748
 C228 C -0.07188 0.64526 0.73387
 C229 C -0.05870 0.61768 0.73710
 C230 C -0.03158 0.61247 0.72265
 C231 C -0.01806 0.63395 0.70548
 C232 C -0.03304 0.73272 0.66533
 C233 C -0.04866 0.74823 0.64381
 C234 C -0.06514 0.73358 0.62202
 C235 C -0.06587 0.70313 0.62297
 C236 C -0.04977 0.68771 0.64415
 H237 H 0.02492 0.68493 0.63229
 H238 H 0.05112 0.71822 0.59883
 H239 H 0.06550 0.77655 0.67197
 H240 H 0.03979 0.74272 0.70556
 H241 H 0.06416 0.66025 0.68328
 H242 H 0.08906 0.62938 0.71885
 H243 H 0.00338 0.68858 0.75131
 H244 H -0.06788 0.68827 0.71616
 H245 H -0.09236 0.65080 0.74492
 H246 H -0.02089 0.59152 0.72431
 H247 H 0.00238 0.62891 0.69401
 H248 H -0.02104 0.74450 0.68210
 H249 H -0.04807 0.77155 0.64503
 H250 H -0.07852 0.69106 0.60687
 H251 H -0.05022 0.66428 0.64383
 H252 H 0.02850 0.65761 0.78764
 C253 C 1.01597 0.66437 0.33030
 C254 C 0.98591 0.66173 0.33038
 C255 C 0.96661 0.68091 0.34866
 C256 C 0.97086 0.63991 0.31153
 C257 C 1.03458 0.64923 0.30775
 C258 C 1.03174 0.68239 0.35254
 C259 C 0.94504 0.66886 0.36743
 C260 C 0.92708 0.68667 0.38495
 C261 C 0.93024 0.71689 0.38407
 C262 C 0.95126 0.72898 0.36446
 C263 C 0.96922 0.71114 0.34695
 C264 C 0.98059 0.61099 0.31079
 C265 C 0.96793 0.59131 0.29120
 C266 C 0.94441 0.59981 0.27309
 C267 C 0.93368 0.62832 0.27480
 C268 C 0.94689 0.64823 0.29379
 C269 C 1.02891 0.65239 0.27732
 C270 C 1.04546 0.63695 0.25639
 C271 C 1.06842 0.61827 0.26525
 C272 C 1.07471 0.61607 0.29591
 C273 C 1.05797 0.63144 0.31679
 C274 C 1.05526 0.70009 0.34343
 C275 C 1.07050 0.71686 0.36399
 C276 C 1.06219 0.71668 0.39426
 C277 C 1.03858 0.69895 0.40324
 C278 C 1.02410 0.68142 0.38282
 H279 H 0.94242 0.64561 0.36883
 H280 H 0.91087 0.67677 0.39954
 H281 H 0.95374 0.75213 0.36215
 H282 H 0.98516 0.72090 0.33197
 H283 H 0.99843 0.60380 0.32493
 H284 H 0.97640 0.56938 0.29027
 H285 H 0.93890 0.67034 0.29406
 H286 H 1.01133 0.66650 0.26980
 H287 H 1.04002 0.63949 0.23311
 H288 H 1.09200 0.60228 0.30436
 H289 H 1.06284 0.62890 0.34018
 H290 H 1.06166 0.70122 0.32024
 H291 H 1.08786 0.73070 0.35561
 H292 H 1.03168 0.69810 0.42632
 H293 H 1.00684 0.66714 0.39073
 H294 H 0.91577 0.63547 0.26072
 C295 C 1.01184 0.32328 0.69178
 C296 C 0.98302 0.32442 0.68316
 C297 C 0.97118 0.30600 0.65884
 C298 C 0.96164 0.34424 0.69791
 C299 C 1.02366 0.34365 0.71412
 C300 C 1.03365 0.30316 0.67809
 C301 C 0.98498 0.30467 0.63080
 C302 C 0.97424 0.28613 0.60887
 C303 C 0.94880 0.26957 0.61408
 C304 C 0.93441 0.27166 0.64176
 C305 C 0.94553 0.28966 0.66389
 C306 C 0.94492 0.36358 0.68076
 C307 C 0.92444 0.38206 0.69429
 C308 C 0.92046 0.38169 0.72521
 C309 C 0.93670 0.36176 0.74233
 C310 C 0.95696 0.34310 0.72875
 C311 C 1.03247 0.33331 0.74201
 C312 C 1.04515 0.35204 0.76261
 C313 C 1.05029 0.38110 0.75517
 C314 C 1.04138 0.39148 0.72722
 C315 C 1.02790 0.37291 0.70694
 C316 C 1.02791 0.27344 0.67538
 C317 C 1.04734 0.25554 0.65955
 C318 C 1.07342 0.26698 0.64680
 C319 C 1.08008 0.29625 0.65182
 C320 C 1.06036 0.31415 0.66700
 H321 H 1.00432 0.31763 0.62604
 H322 H 0.98566 0.28489 0.58769
 H323 H 0.91506 0.25876 0.64664
 H324 H 0.93441 0.29041 0.68525
 H325 H 0.94789 0.36449 0.65688
 H326 H 0.91193 0.39695 0.68060
 H327 H 0.96878 0.32755 0.74226
 H328 H 1.02946 0.31073 0.74779
 H329 H 1.05169 0.34368 0.78410
 H330 H 1.04464 0.41395 0.72118
 H331 H 1.02138 0.38115 0.68540
 H332 H 1.00796 0.26425 0.68479
 H333 H 1.04163 0.23296 0.65759
 H334 H 1.10009 0.30577 0.64283
 H335 H 1.06556 0.33690 0.66915
 H336 H 0.93337 0.36009 0.76609
 C337 C 0.31087 -0.00384 0.32185
 C338 C 0.31046 0.02548 0.32520
 C339 C 0.33029 0.04447 0.30729
 C340 C 0.29072 0.03959 0.34738
 C341 C 0.28921 -0.02300 0.33723
 C342 C 0.33519 -0.01834 0.30551
 C343 C 0.34809 0.06508 0.32129
 C344 C 0.36720 0.08252 0.30456
 C345 C 0.36895 0.07966 0.27355
 C346 C 0.35028 0.05969 0.25947
 C347 C 0.33115 0.04233 0.27620
 C348 C 0.28992 0.02979 0.37696
 C349 C 0.26944 0.04120 0.39704
 C350 C 0.25035 0.06351 0.38834
 C351 C 0.25213 0.07443 0.35920
 C352 C 0.27216 0.06248 0.33885
 C353 C 0.25866 -0.01828 0.33481
 C354 C 0.23875 -0.03489 0.35154
 C355 C 0.24894 -0.05686 0.37056
 C356 C 0.27957 -0.06191 0.37238
 C357 C 0.29939 -0.04533 0.35572
 C358 C 0.32932 -0.03457 0.28004
 C359 C 0.35204 -0.04965 0.26563
 C360 C 0.38105 -0.04939 0.27706
 C361 C 0.38655 -0.03311 0.30280
 C362 C 0.36396 -0.01749 0.31665
 H363 H 0.34754 0.06733 0.34522
 H364 H 0.38103 0.09797 0.31593
 H365 H 0.35000 0.05763 0.23556
 H366 H 0.31690 0.02726 0.26485
 H367 H 0.30468 0.01278 0.38431
 H368 H 0.26856 0.03265 0.41947
 H369 H 0.27259 0.07051 0.31622
 H370 H 0.25029 -0.00130 0.32050
 H371 H 0.21533 -0.03041 0.34983
 H372 H 0.28857 -0.07785 0.38746
 H373 H 0.32284 -0.04919 0.35822
 H374 H 0.30707 -0.03570 0.27146
 H375 H 0.34622 -0.06237 0.24647
 H376 H 0.40844 -0.03247 0.31233
 H377 H 0.36872 -0.00532 0.33658
 H378 H 0.23740 0.09147 0.35187
 C379 C 0.67280 -0.01743 0.66648
 C380 C 0.67417 0.01177 0.66256
 C381 C 0.65311 0.03175 0.67763
 C382 C 0.69648 0.02559 0.64286
 C383 C 0.69297 -0.03797 0.65094
 C384 C 0.64964 -0.03067 0.68530
 C385 C 0.63647 0.05117 0.66052
 C386 C 0.61806 0.07150 0.67418
 C387 C 0.61584 0.07291 0.70526
 C388 C 0.63263 0.05342 0.72247
 C389 C 0.65113 0.03307 0.70873
 C390 C 0.70006 0.01716 0.61309
 C391 C 0.72142 0.03038 0.59515
 C392 C 0.73864 0.05301 0.60630
 C393 C 0.73467 0.06182 0.63588
 C394 C 0.71380 0.04819 0.65398
 C395 C 0.72382 -0.03547 0.65266
 C396 C 0.74218 -0.05434 0.63666
 C397 C 0.72994 -0.07631 0.61898
 C398 C 0.69918 -0.07952 0.61845
 C399 C 0.68090 -0.06052 0.63412
 C400 C 0.65748 -0.04448 0.71180
 C401 C 0.63627 -0.05911 0.72868
 C402 C 0.60675 -0.06077 0.71887
 C403 C 0.59915 -0.04663 0.69222
 C404 C 0.62031 -0.03147 0.67576
 H405 H 0.63794 0.05072 0.63650
 H406 H 0.60560 0.08632 0.66037
 H407 H 0.63234 0.05428 0.74645
 H408 H 0.66446 0.01886 0.72235
 H409 H 0.68640 0.00032 0.60378
 H410 H 0.72414 0.02334 0.57237
 H411 H 0.71130 0.05511 0.67683
 H412 H 0.73365 -0.01875 0.66616
 H413 H 0.76583 -0.05183 0.63842
 H414 H 0.68919 -0.09641 0.60528
 H415 H 0.65721 -0.06309 0.63261
 H416 H 0.68019 -0.04426 0.71919
 H417 H 0.64373 -0.07007 0.74848
 H418 H 0.57677 -0.04747 0.68390
 H419 H 0.61407 -0.02112 0.65510
 H420 H 0.74805 0.07888 0.64519
 C421 C 0.32392 1.01141 0.67316
 C422 C 0.32891 0.98253 0.67087
 C423 C 0.35181 0.96799 0.68886
 C424 C 0.31314 0.96403 0.64933
 C425 C 0.30555 1.02714 0.65133
 C426 C 0.33957 1.02912 0.69552
 C427 C 0.38177 0.97363 0.68349
 C428 C 0.40344 0.95788 0.69848
 C429 C 0.39543 0.93677 0.71946
 C430 C 0.36535 0.93154 0.72519
 C431 C 0.34370 0.94689 0.70975
 C432 C 0.32941 0.94596 0.63030
 C433 C 0.31511 0.92620 0.61207
 C434 C 0.28423 0.92400 0.61242
 C435 C 0.26784 0.94242 0.63127
 C436 C 0.28223 0.96229 0.64953
 C437 C 0.28017 1.04200 0.66074
 C438 C 0.26426 1.05907 0.64071
 C439 C 0.27397 1.06199 0.61111
 C440 C 0.29940 1.04708 0.60179
 C441 C 0.31490 1.02951 0.62166
 C442 C 0.33752 1.02265 0.72596
 C443 C 0.35405 1.03827 0.74655
 C444 C 0.37256 1.06087 0.73714
 C445 C 0.37420 1.06751 0.70659
 C446 C 0.35769 1.05193 0.68609
 H447 H 0.38830 0.98958 0.66706
 H448 H 0.42648 0.96199 0.69353
 H449 H 0.35855 0.91485 0.74069
 H450 H 0.32063 0.94209 0.71377
 H451 H 0.35330 0.94686 0.62988
 H452 H 0.32830 0.91230 0.59786
 H453 H 0.26932 0.97558 0.66457
 H454 H 0.27297 1.04070 0.68370
 H455 H 0.24513 1.07087 0.64868
 H456 H 0.30741 1.04927 0.57918
 H457 H 0.33476 1.01855 0.61421
 H458 H 0.32346 1.00524 0.73370
 H459 H 0.35252 1.03257 0.76986
 H460 H 0.38893 1.08400 0.69815
 H461 H 0.35986 1.05704 0.66269
 H462 H 0.24408 0.94106 0.63284
 C463 C 0.68194 1.01810 0.31865
 C464 C 0.68597 0.98889 0.32054
 C465 C 0.66422 0.96910 0.30696
 C466 C 0.71108 0.97540 0.33672
 C467 C 0.69969 1.03917 0.33613
 C468 C 0.65805 1.02977 0.29961
 C469 C 0.63948 0.96021 0.32340
 C470 C 0.61828 0.94245 0.31056
 C471 C 0.62104 0.93382 0.28083
 C472 C 0.64587 0.94282 0.26427
 C473 C 0.66736 0.96031 0.27733
 C474 C 0.70570 0.95385 0.35810
 C475 C 0.72885 0.94184 0.37432
 C476 C 0.75812 0.95081 0.36927
 C477 C 0.76359 0.97221 0.34774
 C478 C 0.74034 0.98418 0.33136
 C479 C 0.70983 1.06496 0.32303
 C480 C 0.72637 1.08474 0.33939
 C481 C 0.73389 1.07900 0.36909
 C482 C 0.72296 1.05349 0.38247
 C483 C 0.70560 1.03425 0.36635
 C484 C 0.66411 1.03771 0.27011
 C485 C 0.64127 1.04652 0.25140
 C486 C 0.61192 1.04664 0.26169
 C487 C 0.60583 1.03826 0.29106
 C488 C 0.62881 1.03035 0.31006
 H489 H 0.63649 0.96724 0.34616
 H490 H 0.59941 0.93575 0.32377
 H491 H 0.64900 0.93603 0.24149
 H492 H 0.68629 0.96720 0.26433
 H493 H 0.68345 0.94683 0.36302
 H494 H 0.72350 0.92620 0.39143
 H495 H 0.74512 1.00055 0.31476
 H496 H 0.70528 1.06983 0.30001
 H497 H 0.73393 1.10432 0.32846
 H498 H 0.72661 1.04864 0.40566
 H499 H 0.69667 1.01547 0.37764
 H500 H 0.68646 1.03662 0.26149
 H501 H 0.64639 1.05239 0.22863
 H502 H 0.58332 1.03804 0.29931
 H503 H 0.62375 1.02387 0.33267
 H504 H 0.78589 0.97965 0.34357
 O505 O 0.85416 0.89112 0.52175
 O506 O 0.89456 0.84781 0.46689
 O507 O 0.84569 0.88067 0.46404
 O508 O 0.89369 0.85162 0.52361
 O509 O 0.86332 0.81459 0.52860
 O510 O 0.81619 0.84311 0.46985
 O511 O 0.86291 0.81185 0.47224
 O512 O 0.82189 0.85582 0.52750
 Cu513 Cu 0.87435 0.87148 0.49274
 Cu514 Cu 0.83767 0.82856 0.50072
 C515 C 0.83127 0.88095 0.53416
 C516 C 0.88613 0.82248 0.46042
 C517 C 0.82267 0.86659 0.45687
 C518 C 0.88659 0.82782 0.53607
 O519 O 0.15010 0.12103 0.53066
 O520 O 0.11508 0.17397 0.48054
 O521 O 0.15686 0.13513 0.47495
 O522 O 0.10926 0.16009 0.53653
 O523 O 0.14382 0.19120 0.54926
 O524 O 0.18910 0.16941 0.48517
 O525 O 0.14734 0.20706 0.49412
 O526 O 0.18516 0.15268 0.54037
 Cu527 Cu 0.12944 0.14429 0.50437
 Cu528 Cu 0.16975 0.18330 0.51847
 C529 C 0.17382 0.12774 0.54373
 C530 C 0.12496 0.19966 0.47916
 C531 C 0.18095 0.14821 0.46946
 C532 C 0.11865 0.17981 0.55356
 O533 O 0.17831 0.85531 0.46603
 O534 O 0.13769 0.81470 0.52471
 O535 O 0.16691 0.86202 0.52417
 O536 O 0.13923 0.81170 0.46842
 O537 O 0.17974 0.78509 0.47158
 O538 O 0.20682 0.83495 0.52912
 O539 O 0.17585 0.78499 0.52799
 O540 O 0.21638 0.82586 0.47157
 Cu541 Cu 0.15241 0.83911 0.49461
 Cu542 Cu 0.19868 0.80567 0.50162
 C543 C 0.20433 0.84722 0.45880
 C544 C 0.14995 0.79229 0.53576
 C545 C 0.19163 0.85718 0.53615
 C546 C 0.15445 0.78994 0.46046
 O547 O 0.83882 0.12525 0.47907
 O548 O 0.87238 0.17859 0.52949
 O549 O 0.83222 0.13788 0.53409
 O550 O 0.87951 0.16471 0.47348
 O551 O 0.84565 0.19737 0.46230
 O552 O 0.79766 0.16962 0.52209
 O553 O 0.83715 0.20987 0.51837
 O554 O 0.80509 0.15753 0.46631
 Cu555 Cu 0.85938 0.14858 0.50528
 Cu556 Cu 0.81807 0.18691 0.49097
 C557 C 0.81604 0.13225 0.46438
 C558 C 0.86013 0.20318 0.53282
 C559 C 0.80665 0.14865 0.53792
 C560 C 0.87063 0.18561 0.45755
 O561 O 0.47392 0.86823 0.83990
 O562 O 0.53183 0.81952 0.86804
 O563 O 0.53157 0.86870 0.83987
 O564 O 0.47435 0.81916 0.86807
 O565 O 0.47496 0.79566 0.82543
 O566 O 0.53158 0.84554 0.79701
 O567 O 0.53242 0.79607 0.82538
 O568 O 0.47485 0.84494 0.79711
 Cu569 Cu 0.50289 0.84624 0.85830
 Cu570 Cu 0.50354 0.81812 0.80696
 C571 C 0.46475 0.86499 0.81356
 C572 C 0.54192 0.79947 0.85158
 C573 C 0.54101 0.86574 0.81346
 C574 C 0.46493 0.79898 0.85157
 O575 O 0.52977 0.14099 0.10973
 O576 O 0.47059 0.10381 0.15067
 O577 O 0.47313 0.13854 0.10435
 O578 O 0.52765 0.10879 0.15725
 O579 O 0.52316 0.14833 0.18439
 O580 O 0.46584 0.17567 0.13427
 O581 O 0.46579 0.14119 0.18075
 O582 O 0.52279 0.18003 0.13713
 Cu583 Cu 0.50070 0.11907 0.12778
 Cu584 Cu 0.49360 0.16505 0.16213
 C585 C 0.53611 0.16694 0.11610
 C586 C 0.45840 0.11582 0.17287
 C587 C 0.46045 0.16243 0.11025
 C588 C 0.53525 0.12406 0.17937
 O589 O 0.46729 0.18678 0.84929
 O590 O 0.52230 0.13501 0.82114
 O591 O 0.52425 0.18094 0.85534
 O592 O 0.46613 0.14388 0.81220
 O593 O 0.47429 0.17427 0.77507
 O594 O 0.53474 0.20767 0.81592
 O595 O 0.52998 0.16262 0.78174
 O596 O 0.47796 0.21678 0.81254
 Cu597 Cu 0.49419 0.15876 0.83835
 Cu598 Cu 0.50519 0.19323 0.79256
 C599 C 0.46333 0.21070 0.83595
 C600 C 0.53502 0.13956 0.79640
 C601 C 0.53954 0.20053 0.84263
 C602 C 0.46019 0.15322 0.78627
 O603 O 0.52425 0.87864 0.16496
 O604 O 0.46759 0.82801 0.13824
 O605 O 0.46625 0.87847 0.16376
 O606 O 0.52455 0.82843 0.13887
 O607 O 0.52365 0.80657 0.18257
 O608 O 0.46665 0.85797 0.20815
 O609 O 0.46576 0.80747 0.18259
 O610 O 0.52389 0.85660 0.20854
 Cu611 Cu 0.49573 0.85567 0.14710
 Cu612 Cu 0.49487 0.82996 0.19986
 C613 C 0.53397 0.87600 0.19123
 C614 C 0.45700 0.80916 0.15591
 C615 C 0.45660 0.87682 0.19023
 C616 C 0.53387 0.80885 0.15635
 O617 O 0.86338 0.53635 0.83017
 O618 O 0.83218 0.48139 0.88106
 O619 O 0.87259 0.48153 0.83978
 O620 O 0.82277 0.53634 0.87183
 O621 O 0.78899 0.52588 0.83839
 O622 O 0.83916 0.47150 0.80588
 O623 O 0.79850 0.47074 0.84764
 O624 O 0.82879 0.52655 0.79735
 Cu625 Cu 0.85110 0.50998 0.85906
 Cu626 Cu 0.81050 0.49741 0.81899
 C627 C 0.85120 0.54097 0.80523
 C628 C 0.81003 0.46668 0.87300
 C629 C 0.86444 0.46732 0.81724
 C630 C 0.79748 0.54053 0.86052
 O631 O 0.16878 0.47855 0.12179
 O632 O 0.14102 0.52915 0.17870
 O633 O 0.18247 0.53081 0.13804
 O634 O 0.12811 0.47655 0.16291
 O635 O 0.16069 0.45945 0.19479
 O636 O 0.21476 0.51365 0.17020
 O637 O 0.17336 0.51186 0.21073
 O638 O 0.20138 0.46164 0.15376
 Cu639 Cu 0.15185 0.50557 0.14715
 Cu640 Cu 0.19078 0.48493 0.18559
 C641 C 0.18993 0.46157 0.12806
 C642 C 0.15229 0.52895 0.20448
 C643 C 0.20794 0.53130 0.14973
 C644 C 0.13520 0.45878 0.18322
 O645 O 0.82131 0.53600 0.13843
 O646 O 0.87208 0.47594 0.15574
 O647 O 0.82935 0.48455 0.11779
 O648 O 0.86376 0.52820 0.17627
 O649 O 0.82952 0.51400 0.20829
 O650 O 0.79932 0.46557 0.15139
 O651 O 0.84152 0.46161 0.19126
 O652 O 0.78820 0.51781 0.16947
 Cu653 Cu 0.84999 0.50777 0.14380
 Cu654 Cu 0.81147 0.48776 0.18337
 C655 C 0.79591 0.53681 0.15059
 C656 C 0.86577 0.45913 0.17718
 C657 C 0.80840 0.46762 0.12468
 C658 C 0.85202 0.52914 0.20198
 O659 O 0.12453 0.48022 0.82935
 O660 O 0.15866 0.53281 0.87984
 O661 O 0.12868 0.53652 0.83110
 O662 O 0.15637 0.47616 0.87740
 O663 O 0.19734 0.47511 0.85057
 O664 O 0.16997 0.53524 0.80475
 O665 O 0.19994 0.53108 0.85352
 O666 O 0.16532 0.47935 0.80224
 Cu667 Cu 0.13796 0.50645 0.85715
 Cu668 Cu 0.18724 0.50491 0.82511
 C669 C 0.13895 0.47114 0.80695
 C670 C 0.18501 0.54099 0.87524
 C671 C 0.14480 0.54621 0.81009
 C672 C 0.18175 0.46556 0.87196
 C673 C 0.26302 0.39315 0.08924
 C674 C 0.23710 0.40663 0.08564
 C675 C 0.22548 0.42577 0.10910
 C676 C 0.20124 0.44180 0.10501
 H677 H 0.22477 0.40426 0.06528
 H678 H 0.23729 0.42708 0.12992
 H679 H 0.27540 0.39725 0.10933
 H680 H 0.18975 0.44092 0.08398
 C681 C 0.76448 0.62008 0.09135
 C682 C 0.75846 0.60091 0.11286
 C683 C 0.78114 0.58022 0.12271
 C684 C 0.77467 0.55956 0.14250
 H685 H 0.73671 0.59943 0.12270
 H686 H 0.80297 0.58112 0.11272
 H687 H 0.78686 0.62094 0.08266
 H688 H 0.75279 0.55870 0.15236
 C689 C 0.73438 0.39708 0.90447
 C690 C 0.76077 0.40908 0.90928
 C691 C 0.77325 0.42996 0.88773
 C692 C 0.79778 0.44486 0.89365
 H693 H 0.77267 0.40453 0.92955
 H694 H 0.76178 0.43368 0.86699
 H695 H 0.72237 0.40333 0.88468
 H696 H 0.80895 0.44142 0.91460
 C697 C 0.26786 0.59071 0.92183
 C698 C 0.23912 0.59021 0.91535
 C699 C 0.22696 0.56745 0.89624
 C700 C 0.19792 0.56267 0.89515
 H701 H 0.22438 0.60647 0.92449
 H702 H 0.24197 0.55440 0.88299
 H703 H 0.28197 0.57315 0.91434
 H704 H 0.18313 0.57486 0.90946
 C705 C 0.06406 0.23016 0.39520
 C706 C 0.07751 0.23697 0.42057
 C707 C 0.09121 0.21446 0.43920
 C708 C 0.11048 0.22149 0.46031
 H709 H 0.07948 0.25944 0.42710
 H710 H 0.08605 0.19193 0.43511
 H711 H 0.06418 0.20785 0.38781
 H712 H 0.11649 0.24397 0.46338
 C713 C 0.07613 0.77041 0.61315
 C714 C 0.09469 0.76149 0.59184
 C715 C 0.11014 0.78208 0.57213
 C716 C 0.13409 0.77360 0.55699
 H717 H 0.09922 0.73857 0.58933
 H718 H 0.10206 0.80411 0.57014
 H719 H 0.07341 0.79339 0.61717
 H720 H 0.14271 0.75194 0.56043
 C721 C 0.91094 0.73481 0.40355
 C722 C 0.91692 0.76218 0.41106
 C723 C 0.89746 0.77841 0.43151
 C724 C 0.90402 0.80554 0.43924
 H725 H 0.93672 0.77266 0.40296
 H726 H 0.87794 0.76801 0.44056
 H727 H 0.89154 0.72460 0.41311
 H728 H 0.92362 0.81569 0.43006
 C729 C 0.93835 0.24940 0.59094
 C730 C 0.90966 0.24457 0.58623
 C731 C 0.89967 0.22360 0.56384
 C732 C 0.87186 0.22427 0.55412
 H733 H 0.89319 0.25653 0.59877
 H734 H 0.91510 0.20768 0.55523
 H735 H 0.95466 0.23902 0.57680
 H736 H 0.85712 0.24128 0.56169
 C737 C 0.39011 0.09802 0.25667
 C738 C 0.40134 0.09050 0.23021
 C739 C 0.42324 0.10871 0.21459
 C740 C 0.43564 0.09950 0.18928
 H741 H 0.39521 0.07015 0.22018
 H742 H 0.42957 0.12932 0.22401
 H743 H 0.39782 0.11772 0.26706
 H744 H 0.42935 0.07863 0.18041
 C745 C 0.59675 0.09573 0.71850
 C746 C 0.58671 0.09537 0.74652
 C747 C 0.56734 0.11872 0.75764
 C748 C 0.55552 0.11740 0.78489
 H749 H 0.59195 0.07755 0.76123
 H750 H 0.56226 0.13686 0.74320
 H751 H 0.58992 0.11336 0.70410
 H752 H 0.56032 0.09895 0.79902
 C753 C 0.41869 0.91897 0.73328
 C754 C 0.41666 0.90891 0.76106
 C755 C 0.43956 0.88960 0.77288
 C756 C 0.44216 0.88480 0.80199
 H757 H 0.39815 0.91495 0.77513
 H758 H 0.45479 0.87934 0.75744
 H759 H 0.43838 0.91441 0.72027
 H760 H 0.42816 0.89633 0.81761
 C761 C 0.59812 0.91468 0.26840
 C762 C 0.59090 0.91408 0.23965
 C763 C 0.56731 0.89471 0.22940
 C764 C 0.55735 0.89562 0.20151
 H765 H 0.60177 0.92823 0.22380
 H766 H 0.55781 0.87949 0.24513
 H767 H 0.58567 0.90142 0.28395
 H768 H 0.56654 0.91110 0.18587
 C769 C 0.38594 0.23801 0.90636
 C770 C 0.40551 0.24519 0.88318
 C771 C 0.42445 0.22438 0.87119
 C772 C 0.44293 0.23068 0.84703
 H773 H 0.40632 0.26678 0.87397
 H774 H 0.42488 0.20290 0.88098
 H775 H 0.38445 0.21524 0.91225
 H776 H 0.44129 0.25164 0.83625
 C777 C 0.61138 0.76679 0.92741
 C778 C 0.59835 0.76210 0.90130
 C779 C 0.57712 0.78324 0.88940
 C780 C 0.56460 0.77951 0.86291
 H781 H 0.60302 0.74269 0.88871
 H782 H 0.57118 0.80184 0.90284
 H783 H 0.60726 0.78714 0.93868
 H784 H 0.57085 0.76113 0.84933
 C785 C 0.41132 0.74893 0.08048
 C786 C 0.40826 0.76260 0.10656
 C787 C 0.43145 0.78237 0.11689
 C788 C 0.43414 0.78909 0.14559
 H789 H 0.38935 0.75899 0.12086
 H790 H 0.44693 0.79117 0.10077
 H791 H 0.43213 0.75161 0.06869
 H792 H 0.41990 0.77890 0.16197
 C793 C 0.59748 0.25051 0.08940
 C794 C 0.58919 0.22324 0.08422
 C795 C 0.56731 0.20888 0.10358
 C796 C 0.55892 0.18170 0.09831
 H797 H 0.59759 0.21155 0.06517
 H798 H 0.55766 0.22078 0.12196
 H799 H 0.58771 0.26173 0.10818
 H800 H 0.56880 0.16991 0.07996
 C801 C 0.25928 0.08205 0.59024
 C802 C 0.23006 0.08608 0.58995
 C803 C 0.21662 0.10735 0.56971
 C804 C 0.18792 0.10627 0.56326
 H805 H 0.21591 0.07341 0.60447
 H806 H 0.23045 0.12388 0.55971
 H807 H 0.27294 0.09329 0.57406
 H808 H 0.17451 0.08872 0.57189
 C809 C 0.75115 0.09934 0.38445
 C810 C 0.76521 0.09388 0.41000
 C811 C 0.78146 0.11682 0.42554
 C812 C 0.80170 0.11018 0.44596
 H813 H 0.76559 0.07236 0.41952
 H814 H 0.77644 0.13927 0.42059
 H815 H 0.75419 0.12052 0.37441
 H816 H 0.80755 0.08772 0.44978
 C817 C 0.74820 0.90367 0.60082
 C818 C 0.77482 0.91053 0.58989
 C819 C 0.79054 0.89081 0.56945
 C820 C 0.81566 0.89896 0.55620
 H821 H 0.78449 0.93139 0.59466
 H822 H 0.78102 0.86989 0.56452
 H823 H 0.73840 0.88327 0.59437
 H824 H 0.82483 0.92006 0.56107
 C825 C 0.22741 0.92714 0.38945
 C826 C 0.23319 0.90108 0.40113
 C827 C 0.21296 0.88678 0.42235
 C828 C 0.22147 0.86225 0.43561
 H829 H 0.25359 0.89006 0.39555
 H830 H 0.19199 0.89675 0.42799
 H831 H 0.20626 0.93727 0.39409
 H832 H 0.24283 0.85303 0.42998
 C833 C 0.06455 0.40024 0.77702
 C834 C 0.08550 0.41919 0.76926
 C835 C 0.09964 0.43770 0.79162
 C836 C 0.12499 0.45138 0.78563
 H837 H 0.09279 0.42060 0.74631
 H838 H 0.08925 0.44002 0.81325
 H839 H 0.05898 0.39737 0.80030
 H840 H 0.13590 0.44800 0.76441
 C841 C 0.08339 0.60225 0.24310
 C842 C 0.10586 0.58382 0.24784
 C843 C 0.11840 0.56662 0.22324
 C844 C 0.14069 0.54814 0.22788
 H845 H 0.11502 0.58058 0.26968
 H846 H 0.10877 0.56850 0.20134
 H847 H 0.07585 0.60469 0.22038
 H848 H 0.15026 0.54640 0.24983
 C849 C 0.92593 0.40998 0.25059
 C850 C 0.91270 0.40843 0.22408
 C851 C 0.89218 0.43136 0.21465
 C852 C 0.88696 0.43667 0.18600
 H853 H 0.91680 0.39066 0.20903
 H854 H 0.88135 0.44439 0.23153
 H855 H 0.92328 0.42990 0.26307
 H856 H 0.89945 0.42546 0.16892
 C857 C 0.92909 0.59548 0.75487
 C858 C 0.90116 0.59496 0.76497
 C859 C 0.89087 0.57139 0.78458
 C860 C 0.86246 0.56374 0.78528
 H861 H 0.88523 0.61109 0.75813
 H862 H 0.90676 0.55987 0.79815
 H863 H 0.94301 0.57699 0.76003
 H864 H 0.84707 0.57387 0.77008
 C865 C 0.75674 0.59892 0.94093
 C866 C 0.76073 0.59557 0.91174
 C867 C 0.78059 0.57293 0.90027
 C868 C 0.77771 0.56288 0.87267
 H869 H 0.74859 0.60899 0.89621
 H870 H 0.79728 0.56391 0.91481
 H871 H 0.76708 0.58387 0.95621
 H872 H 0.75988 0.57073 0.85884
 C873 C 0.26224 0.40965 0.91599
 C874 C 0.23335 0.41173 0.91024
 C875 C 0.22195 0.43567 0.89188
 C876 C 0.19311 0.44189 0.89074
 H877 H 0.21805 0.39596 0.91926
 H878 H 0.23754 0.44864 0.87925
 H879 H 0.27686 0.42675 0.90845
 H880 H 0.17763 0.42990 0.90446
 C881 C 0.24321 0.60886 0.08420
 C882 C 0.24875 0.58975 0.10595
 C883 C 0.22506 0.57106 0.11760
 C884 C 0.23035 0.55198 0.13927
 H885 H 0.27055 0.58711 0.11515
 H886 H 0.20331 0.57234 0.10775
 H887 H 0.22054 0.61069 0.07673
 H888 H 0.25212 0.55084 0.14909
 C889 C 0.75238 0.38578 0.08677
 C890 C 0.76091 0.41330 0.08325
 C891 C 0.77740 0.42792 0.10689
 C892 C 0.79395 0.45110 0.10105
 H893 H 0.75635 0.42521 0.06306
 H894 H 0.77579 0.41966 0.12942
 H895 H 0.76027 0.37433 0.10628
 H896 H 0.79681 0.45836 0.07829
 C897 C 0.91868 0.74788 0.59967
 C898 C 0.92017 0.77626 0.59330
 C899 C 0.90158 0.78862 0.56968
 C900 C 0.90560 0.81554 0.55941
 H901 H 0.93522 0.79049 0.60464
 H902 H 0.88434 0.77525 0.56037
 H903 H 0.90438 0.73472 0.58598
 H904 H 0.92337 0.82867 0.56800
 C905 C 0.90328 0.25985 0.38791
 C906 C 0.90484 0.23209 0.39644
 C907 C 0.88427 0.22093 0.41911
 C908 C 0.88985 0.19623 0.43350
 H909 H 0.92210 0.21784 0.38847
 H910 H 0.86501 0.23373 0.42501
 H911 H 0.88656 0.27329 0.39847
 H912 H 0.90969 0.18402 0.42830
 C913 C 0.09274 0.25098 0.62853
 C914 C 0.08703 0.22486 0.61707
 C915 C 0.10752 0.21229 0.59509
 C916 C 0.09972 0.18995 0.57811
 H917 H 0.06661 0.21362 0.62168
 H918 H 0.12868 0.22269 0.59147
 H919 H 0.11305 0.26148 0.62149
 H920 H 0.07833 0.17989 0.58126
 C921 C 0.07589 0.73411 0.41566
 C922 C 0.10222 0.74682 0.41202
 C923 C 0.11388 0.76598 0.43507
 C924 C 0.14286 0.77008 0.43805
 H925 H 0.11590 0.74262 0.39271
 H926 H 0.09851 0.77653 0.45015
 H927 H 0.06487 0.73665 0.43699
 H928 H 0.15835 0.75795 0.42446
 C929 C 0.58500 0.92276 0.73360
 C930 C 0.58778 0.91136 0.76087
 C931 C 0.56498 0.89191 0.77281
 C932 C 0.56313 0.88602 0.80182
 H933 H 0.60649 0.91617 0.77477
 H934 H 0.54939 0.88227 0.75759
 H935 H 0.56439 0.91908 0.72206
 H936 H 0.57743 0.89698 0.81734
 C937 C 0.40439 0.93427 0.26479
 C938 C 0.40398 0.92155 0.23808
 C939 C 0.42864 0.90290 0.22853
 C940 C 0.43310 0.89673 0.19990
 H941 H 0.38597 0.92492 0.22280
 H942 H 0.44337 0.89412 0.24521
 H943 H 0.42442 0.93215 0.27774
 H944 H 0.41946 0.90685 0.18308
 C945 C 0.58744 0.05464 0.24179
 C946 C 0.58865 0.07832 0.22477
 C947 C 0.56403 0.08656 0.20530
 C948 C 0.55902 0.11439 0.19911
 H949 H 0.60760 0.09254 0.22609
 H950 H 0.54954 0.06998 0.19671
 H951 H 0.56742 0.04185 0.24251
 H952 H 0.57220 0.13089 0.20976
 C953 C 0.39108 0.07588 0.75935
 C954 C 0.40248 0.10219 0.75474
 C955 C 0.42336 0.11531 0.77568
 C956 C 0.43708 0.13983 0.76821
 H957 H 0.39704 0.11421 0.73484
 H958 H 0.42852 0.10433 0.79633
 H959 H 0.39572 0.06475 0.78005
 H960 H 0.43211 0.15007 0.74711
 C961 C 0.58838 0.75782 0.07878
 C962 C 0.58677 0.76563 0.10729
 C963 C 0.56326 0.78533 0.11744
 C964 C 0.55696 0.78864 0.14626
 H965 H 0.60251 0.75726 0.12321
 H966 H 0.55067 0.79713 0.10092
 H967 H 0.57121 0.76481 0.06366
 H968 H 0.56858 0.77588 0.16273
 C969 C 0.38427 0.23186 0.08097
 C970 C 0.40565 0.21354 0.07269
 C971 C 0.42292 0.19795 0.09532
 C972 C 0.44024 0.17545 0.08839
 H973 H 0.41074 0.21042 0.04936
 H974 H 0.42199 0.20562 0.11806
 H975 H 0.37819 0.23322 0.10427
 H976 H 0.44035 0.16703 0.06594
 C977 C 0.58466 0.24590 0.92934
 C978 C 0.58726 0.23599 0.90157
 C979 C 0.56393 0.21847 0.88782
 C980 C 0.56331 0.21554 0.85833
 H981 H 0.60607 0.24220 0.88803
 H982 H 0.54657 0.20924 0.90152
 H983 H 0.56469 0.24130 0.94187
 H984 H 0.57987 0.22637 0.84485
 C985 C 0.39530 0.76417 0.92713
 C986 C 0.40834 0.76061 0.90066
 C987 C 0.42943 0.78213 0.88924
 C988 C 0.44239 0.77880 0.86273
 H989 H 0.40384 0.74169 0.88734
 H990 H 0.43493 0.80054 0.90300
 H991 H 0.39915 0.78405 0.93924
 H992 H 0.43660 0.76051 0.84893
 C993 C 0.78292 0.93929 0.38723
 C994 C 0.78227 0.91299 0.39977
 C995 C 0.80543 0.90292 0.42024
 C996 C 0.80256 0.87726 0.43374
 H997 H 0.76392 0.89865 0.39551
 H998 H 0.82388 0.91690 0.42532
 H999 H 0.80212 0.95287 0.39032
 H1000 H 0.78371 0.86380 0.42860
 C1001 C 0.27052 0.90144 0.59369
 C1002 C 0.24184 0.90044 0.58696
 C1003 C 0.23058 0.87760 0.56736
 C1004 C 0.20273 0.87810 0.55789
 H1005 H 0.22667 0.91686 0.59485
 H1006 H 0.24556 0.86081 0.55971
 H1007 H 0.28507 0.88513 0.58425
 H1008 H 0.18805 0.89535 0.56499
 C1009 C 0.22811 0.07414 0.40977
 C1010 C 0.22073 0.10204 0.41193
 C1011 C 0.19969 0.11164 0.43487
 C1012 C 0.20005 0.13879 0.44484
 H1013 H 0.23145 0.11802 0.39790
 H1014 H 0.18495 0.09591 0.44495
 H1015 H 0.21902 0.05878 0.42562
 H1016 H 0.21620 0.15393 0.43614
 C1017 C 0.76094 0.06675 0.58691
 C1018 C 0.76628 0.09516 0.58764
 C1019 C 0.78796 0.10816 0.56728
 C1020 C 0.78674 0.13625 0.56036
 H1021 H 0.75367 0.10910 0.60234
 H1022 H 0.80411 0.09426 0.55653
 H1023 H 0.77195 0.05344 0.57040
 H1024 H 0.76924 0.14972 0.56937
 C1025 C 0.93232 0.57911 0.25155
 C1026 C 0.90343 0.57710 0.24642
 C1027 C 0.89217 0.55701 0.22401
 C1028 C 0.86413 0.54830 0.22476
 H1029 H 0.88790 0.59007 0.25913
 H1030 H 0.90706 0.54903 0.20691
 H1031 H 0.94750 0.56445 0.24045
 H1032 H 0.84982 0.55488 0.24292
 C1033 C 0.89879 0.40181 0.73876
 C1034 C 0.90149 0.41205 0.76635
 C1035 C 0.87996 0.43282 0.77857
 C1036 C 0.88490 0.44587 0.80449
 H1037 H 0.92026 0.40592 0.77979
 H1038 H 0.86024 0.43787 0.76602
 H1039 H 0.88087 0.40963 0.72502
 H1040 H 0.90504 0.44122 0.81650
 C1041 C 0.07330 0.62021 0.77826
 C1042 C 0.09936 0.60685 0.77486
 C1043 C 0.10902 0.58406 0.79564
 C1044 C 0.13461 0.57022 0.79118
 H1045 H 0.11374 0.61220 0.75639
 H1046 H 0.09483 0.57805 0.81413
 H1047 H 0.06003 0.61518 0.79773
 H1048 H 0.14862 0.57650 0.77265
 C1049 C 0.10106 0.38546 0.25349
 C1050 C 0.09619 0.40007 0.22831
 C1051 C 0.11886 0.41977 0.21646
 C1052 C 0.11331 0.43753 0.19367
 H1053 H 0.07508 0.39875 0.21724
 H1054 H 0.14016 0.42046 0.22730
 H1055 H 0.12183 0.38857 0.26490
 H1056 H 0.09188 0.43716 0.18311
   
