data_POSCAR
  _audit_creation_date              2014-09-24
  _audit_creation_method            'ToBaCCo'
  _symmetry_space_group_name_H-M    'P1'
  _symmetry_Int_Tables_number       1
  _symmetry_cell_setting            triclinic
  loop_
  _symmetry_equiv_pos_as_xyz
 x,y,z
_cell_length_a 31.8468
_cell_length_b 33.4155
_cell_length_c 27.6491
_cell_angle_alpha 89.741800
_cell_angle_beta 90.511200
_cell_angle_gamma 89.694900
loop_
  _atom_site_label
  _atom_site_type_symbol
  _atom_site_fract_x
  _atom_site_fract_y
  _atom_site_fract_z
N1 N 0.23190 0.35588 1.35623
 N2 N 0.22156 0.31788 1.35441
 C3 C 0.18106 0.31379 1.36692
 C4 C 0.16551 0.35128 1.37829
 C5 C 0.19862 0.37732 1.37109
 H6 H 0.16504 0.28546 1.37016
 H7 H 0.19867 0.40938 1.37632
 Cu8 Cu 0.26350 0.27690 1.34359
 Cu9 Cu 0.28782 0.37439 1.33936
 Cu10 Cu 0.35858 0.30194 1.30299
 N11 N 0.31223 0.24290 1.35450
 N12 N 0.35016 0.25302 1.34077
 C13 C 0.37779 0.22490 1.35640
 C14 C 0.35552 0.19565 1.38088
 C15 C 0.31409 0.20806 1.37866
 H16 H 0.41125 0.22560 1.35007
 H17 H 0.28721 0.19358 1.39455
 N18 N 0.36475 0.35877 1.28594
 N19 N 0.33896 0.38663 1.30216
 C20 C 0.34930 0.42204 1.28232
 C21 C 0.38267 0.41601 1.25162
 C22 C 0.39179 0.37556 1.25476
 H23 H 0.33175 0.44955 1.28692
 H24 H 0.41521 0.35934 1.23450
 H25 H 0.29716 0.32684 1.29369
 H26 H 0.32160 0.32308 1.35548
 N27 N 1.24787 0.65155 0.87610
 N28 N 1.24244 0.68410 0.90190
 C29 C 1.27518 0.68782 0.93292
 C30 C 1.30244 0.65599 0.92564
 C31 C 1.28413 0.63375 0.88932
 H32 H 1.27877 0.71163 0.95898
 H33 H 1.29579 0.60597 0.87456
 Cu34 Cu 1.19291 0.71824 0.89253
 Cu35 Cu 1.20659 0.63259 0.82979
 Cu36 Cu 1.12493 0.69635 0.80140
 N37 N 1.14964 0.75611 0.87072
 N38 N 1.12471 0.74781 0.83396
 C39 C 1.09817 0.77860 0.82634
 C40 C 1.10624 0.80771 0.86052
 C41 C 1.13925 0.79252 0.88818
 H42 H 1.07366 0.77896 0.79905
 H43 H 1.15417 0.80662 0.91893
 N44 N 1.13047 0.64275 0.77266
 N45 N 1.16176 0.61835 0.78393
 C46 C 1.15722 0.58404 0.75919
 C47 C 1.12137 0.58695 0.73093
 C48 C 1.10511 0.62456 0.74027
 H49 H 1.17858 0.55884 0.76131
 H50 H 1.07705 0.63768 0.72444
 H51 H 1.18878 0.69068 0.81148
 H52 H 1.15425 0.66336 0.85516
 N53 N 0.76950 -0.16524 0.18174
 N54 N 0.77416 -0.19997 0.16024
 C55 C 0.80499 -0.19740 0.12760
 C56 C 0.82062 -0.15902 0.12870
 C57 C 0.79784 -0.13938 0.16387
 H58 H 0.81366 -0.22110 0.10304
 H59 H 0.79931 -0.10793 0.17280
 Cu60 Cu 0.73614 -0.24393 0.17159
 Cu61 Cu 0.72160 -0.15548 0.22397
 Cu62 Cu 0.63720 -0.21279 0.18484
 N63 N 0.68983 -0.28049 0.16556
 N64 N 0.65067 -0.26820 0.16853
 C65 C 0.62504 -0.29833 0.15544
 C66 C 0.64983 -0.33111 0.14385
 C67 C 0.69073 -0.31877 0.15130
 H68 H 0.59121 -0.29596 0.15267
 H69 H 0.71920 -0.33525 0.14370
 N70 N 0.63102 -0.16239 0.22149
 N71 N 0.66323 -0.14246 0.23957
 C72 C 0.64894 -0.11211 0.26673
 C73 C 0.60565 -0.11263 0.26486
 C74 C 0.59523 -0.14468 0.23591
 H75 H 0.66856 -0.09090 0.28570
 H76 H 0.56396 -0.15522 0.22759
 H77 H 0.68907 -0.21107 0.22806
 H78 H 0.69240 -0.18387 0.16921
 N79 N -0.24464 1.15403 -0.38449
 N80 N -0.22751 1.17475 -0.41967
 C81 C -0.24803 1.16670 -0.46142
 C82 C -0.28021 1.14036 -0.45111
 C83 C -0.27727 1.13319 -0.40207
 H84 H -0.24067 1.17952 -0.49630
 H85 H -0.29634 1.11296 -0.38106
 Cu86 Cu -0.18215 1.21238 -0.40621
 Cu87 Cu -0.22157 1.15227 -0.31935
 Cu88 Cu -0.13189 1.20640 -0.29897
 N89 N -0.14930 1.25702 -0.38065
 N90 N -0.13220 1.25530 -0.33721
 C91 C -0.11369 1.29036 -0.32714
 C92 C -0.11870 1.31529 -0.36681
 C93 C -0.14126 1.29313 -0.40035
 H94 H -0.09664 1.29657 -0.29403
 H95 H -0.15177 1.30277 -0.43586
 N96 N -0.14879 1.16257 -0.25638
 N97 N -0.18351 1.14211 -0.26398
 C98 C -0.18431 1.11095 -0.23305
 C99 C -0.14843 1.11202 -0.20461
 C100 C -0.12673 1.14535 -0.22004
 H101 H -0.20791 1.08780 -0.23340
 H102 H -0.09587 1.15469 -0.20813
 H103 H -0.19271 1.20783 -0.31923
 H104 H -0.16257 1.16413 -0.34407
 N105 N 0.73399 0.64699 0.60094
 N106 N 0.73601 0.68341 0.58295
 C107 C 0.77107 0.68653 0.55623
 C108 C 0.79209 0.65017 0.55815
 C109 C 0.76768 0.62581 0.58679
 H110 H 0.78062 0.71318 0.53701
 H111 H 0.77348 0.59474 0.59589
 Cu112 Cu 0.69212 0.72282 0.59599
 Cu113 Cu 0.68642 0.62899 0.63853
 Cu114 Cu 0.63320 0.70586 0.69493
 N115 N 0.65348 0.76314 0.62060
 N116 N 0.63149 0.75658 0.65987
 C117 C 0.60871 0.78943 0.66995
 C118 C 0.61645 0.81804 0.63493
 C119 C 0.64498 0.80037 0.60403
 H120 H 0.58738 0.79192 0.70002
 H121 H 0.65853 0.81366 0.57207
 N122 N 0.62803 0.64924 0.71479
 N123 N 0.64825 0.62010 0.69272
 C124 C 0.64018 0.58524 0.71514
 C125 C 0.61323 0.59262 0.75292
 C126 C 0.60590 0.63349 0.75160
 H127 H 0.65393 0.55675 0.70550
 H128 H 0.58719 0.65059 0.77668
 H129 H 0.64221 0.67606 0.63205
 H130 H 0.69028 0.68310 0.67024
 N131 N 0.75666 0.35425 0.09706
 N132 N 0.75045 0.31582 0.09015
 C133 C 0.71158 0.31040 0.07171
 C134 C 0.69287 0.34761 0.06618
 C135 C 0.72245 0.37473 0.08220
 H136 H 0.69784 0.28163 0.06363
 H137 H 0.71855 0.40678 0.08545
 Cu138 Cu 0.79400 0.27709 0.10677
 Cu139 Cu 0.80623 0.37412 0.13115
 Cu140 Cu 0.85042 0.30077 0.20493
 N141 N 0.83802 0.24176 0.13109
 N142 N 0.85832 0.24988 0.17148
 C143 C 0.88487 0.21950 0.18199
 C144 C 0.88174 0.19154 0.14546
 C145 C 0.85184 0.20659 0.11365
 H146 H 0.90579 0.21848 0.21302
 H147 H 0.84047 0.19266 0.08086
 N148 N 0.85576 0.35865 0.21774
 N149 N 0.84175 0.38649 0.18753
 C150 C 0.85256 0.42277 0.20444
 C151 C 0.87401 0.41744 0.24764
 C152 C 0.87549 0.37648 0.25503
 H153 H 0.84426 0.45093 0.18733
 H154 H 0.89047 0.36080 0.28488
 H155 H 0.84631 0.32394 0.13770
 H156 H 0.79660 0.32532 0.17279
 N157 N 0.26744 0.13650 0.89419
 N158 N 0.26355 0.17036 0.91796
 C159 C 0.22829 0.16941 0.94420
 C160 C 0.20902 0.13299 0.93690
 C161 C 0.23486 0.11255 0.90525
 H162 H 0.21666 0.19416 0.96542
 H163 H 0.22891 0.08373 0.88895
 Cu164 Cu 0.30219 0.21472 0.90941
 Cu165 Cu 0.31185 0.12951 0.84601
 Cu166 Cu 0.33426 0.22203 0.79590
 N167 N 0.32858 0.26343 0.88598
 N168 N 0.33835 0.26690 0.84008
 C169 C 0.35304 0.30388 0.83165
 C170 C 0.35364 0.32434 0.87488
 C171 C 0.33798 0.29784 0.90885
 H172 H 0.36422 0.31439 0.79704
 H173 H 0.33337 0.30330 0.94697
 N174 N 0.34890 0.17087 0.76490
 N175 N 0.34221 0.13531 0.78438
 C176 C 0.36375 0.10749 0.75922
 C177 C 0.38533 0.12692 0.72277
 C178 C 0.37503 0.16677 0.72746
 H179 H 0.36681 0.07635 0.76957
 H180 H 0.38881 0.19148 0.70792
 H181 H 0.34780 0.18274 0.85116
 H182 H 0.29213 0.18451 0.82955
 N183 N 0.28235 0.83705 0.35083
 N184 N 0.28266 0.80581 0.37988
 C185 C 0.30747 0.81329 0.41838
 C186 C 0.32388 0.85114 0.41287
 C187 C 0.30768 0.86531 0.36941
 H188 H 0.31257 0.79294 0.44842
 H189 H 0.31256 0.89453 0.35347
 Cu190 Cu 0.24900 0.75917 0.36619
 Cu191 Cu 0.24630 0.83931 0.29345
 Cu192 Cu 0.16497 0.76993 0.29458
 N193 N 0.20285 0.72205 0.36895
 N194 N 0.16869 0.72702 0.34255
 C195 C 0.14078 0.69842 0.35436
 C196 C 0.15879 0.67453 0.39007
 C197 C 0.19812 0.69039 0.39831
 H198 H 0.10989 0.69528 0.33828
 H199 H 0.22129 0.68039 0.42456
 N200 N 0.16391 0.81893 0.25445
 N201 N 0.19569 0.84413 0.25198
 C202 C 0.18404 0.87597 0.22479
 C203 C 0.14302 0.87054 0.20986
 C204 C 0.13114 0.83441 0.22961
 H205 H 0.20228 0.90297 0.22077
 H206 H 0.09988 0.82191 0.22895
 H207 H 0.20227 0.80949 0.33290
 H208 H 0.22771 0.78057 0.28382
 Zn209 Zn 0.05322 0.98268 0.00697
 Zn210 Zn -0.01077 1.04935 -0.00684
 Zn211 Zn -0.03270 0.96606 -0.03179
 Zn212 Zn -0.02271 0.98917 0.07087
 O213 O -0.00292 0.99688 0.00984
 O214 O 0.08571 1.02500 -0.00900
 O215 O -0.04497 1.05653 -0.05842
 O216 O -0.00019 0.93518 -0.06780
 O217 O 0.03796 1.07316 -0.01922
 O218 O 0.06367 0.94416 -0.03756
 O219 O -0.06447 0.99426 -0.07294
 O220 O -0.06338 0.95241 0.07410
 O221 O -0.03451 1.07835 0.04019
 O222 O -0.06740 0.93269 -0.00205
 O223 O -0.04240 1.03366 0.09859
 O224 O 0.01674 0.97051 0.11029
 O225 O 0.07288 0.96317 0.06427
 C226 C 0.07587 1.06115 -0.01872
 C227 C -0.06701 1.03144 -0.08164
 C228 C 0.03875 0.92729 -0.06720
 C229 C -0.07823 0.92960 0.04175
 C230 C -0.04611 1.06907 0.08252
 C231 C 0.05453 0.95966 0.10475
 Zn232 Zn 0.47334 0.00595 0.44274
 Zn233 Zn 0.47957 -0.01058 0.54659
 Zn234 Zn 0.55638 -0.01019 0.48478
 Zn235 Zn 0.51072 0.06496 0.50839
 O236 O 0.50555 0.01245 0.49554
 O237 O 0.43674 -0.03339 0.44986
 O238 O 0.51577 -0.04045 0.58089
 O239 O 0.55841 -0.03435 0.42680
 O240 O 0.43929 -0.04514 0.52863
 O241 O 0.50258 -0.00729 0.39067
 O242 O 0.56974 -0.04688 0.53093
 O243 O 0.56260 0.08309 0.49833
 O244 O 0.45655 0.02583 0.58703
 O245 O 0.59759 0.02670 0.48388
 O246 O 0.50096 0.07457 0.57069
 O247 O 0.47263 0.09531 0.47520
 O248 O 0.44266 0.04890 0.42943
 C249 C 0.42502 -0.05283 0.48671
 C250 C 0.55092 -0.05597 0.56991
 C251 C 0.53553 -0.02873 0.38941
 C252 C 0.59656 0.06444 0.48968
 C253 C 0.47281 0.05944 0.59719
 C254 C 0.44438 0.08435 0.44531
 Zn255 Zn 0.96822 0.45651 0.47209
 Zn256 Zn 1.04563 0.49451 0.50333
 Zn257 Zn 0.98243 0.54088 0.44746
 Zn258 Zn 0.97041 0.51710 0.54932
 O259 O 0.99121 0.50238 0.49231
 O260 O 1.00712 0.42206 0.44975
 O261 O 1.07488 0.53536 0.48135
 O262 O 0.96413 0.51894 0.39139
 O263 O 1.06577 0.45176 0.47335
 O264 O 0.93318 0.46531 0.42245
 O265 O 1.02943 0.57007 0.43627
 O266 O 0.93066 0.55487 0.54235
 O267 O 1.05772 0.49066 0.56659
 O268 O 0.94181 0.57499 0.46675
 O269 O 1.01130 0.53608 0.58872
 O270 O 0.94749 0.47488 0.57956
 O271 O 0.94138 0.43099 0.51970
 C272 C 1.04693 0.42381 0.45139
 C273 C 1.06614 0.56485 0.45402
 C274 C 0.93989 0.48887 0.38712
 C275 C 0.92174 0.57724 0.50629
 C276 C 1.04537 0.51696 0.59633
 C277 C 0.93666 0.44071 0.56375
 Zn278 Zn 0.47219 0.51701 0.94510
 Zn279 Zn 0.48461 0.54133 1.04818
 Zn280 Zn 0.48077 0.45358 1.02227
 Zn281 Zn 0.55389 0.50238 0.99365
 O282 O 0.49762 0.50356 1.00244
 O283 O 0.43749 0.55890 0.95070
 O284 O 0.46016 0.51913 1.09988
 O285 O 0.44435 0.43125 0.98052
 O286 O 0.44770 0.57843 1.02634
 O287 O 0.44041 0.47712 0.92236
 O288 O 0.45624 0.45487 1.08044
 O289 O 0.57720 0.45555 1.00757
 O290 O 0.53008 0.56766 1.07103
 O291 O 0.52343 0.41801 1.02861
 O292 O 0.58060 0.53662 1.03123
 O293 O 0.56912 0.51403 0.93350
 O294 O 0.50869 0.52935 0.89765
 C295 C 0.42938 0.58218 0.98557
 C296 C 0.44974 0.48339 1.10972
 C297 C 0.43059 0.44319 0.93965
 C298 C 0.56247 0.42256 1.02195
 C299 C 0.56870 0.56227 1.06177
 C300 C 0.54839 0.52577 0.89677
 N301 N 1.05934 0.35554 0.41806
 N302 N 1.09333 0.33495 0.39825
 C303 C 1.12571 0.36071 0.39566
 C304 C 1.11358 0.39750 0.41388
 C305 C 1.07224 0.39295 0.42778
 H306 H 1.13255 0.42411 0.41756
 H307 H 1.02996 0.34323 0.42524
 H308 H 1.09285 0.30504 0.38749
 N309 N 0.38764 0.64245 1.01020
 N310 N 0.35411 0.66218 0.99413
 C311 C 0.34130 0.64556 0.95223
 C312 C 0.36811 0.61434 0.94087
 C313 C 0.39690 0.61319 0.97856
 H314 H 0.36579 0.59391 0.91071
 H315 H 0.40311 0.64835 1.04285
 H316 H 0.33952 0.68559 1.01255
 N317 N -0.11625 0.86624 0.02689
 N318 N -0.14190 0.84228 0.05035
 C319 C -0.15033 0.85853 0.09372
 C320 C -0.12895 0.89431 0.09833
 C321 C -0.10765 0.89796 0.05508
 H322 H -0.12878 0.91460 0.12872
 H323 H -0.10448 0.86054 -0.00756
 H324 H -0.15373 0.81559 0.03640
 N325 N 0.66718 0.08319 0.45797
 N326 N 0.69955 0.10461 0.47315
 C327 C 0.68958 0.12159 0.51568
 C328 C 0.64900 0.11121 0.52760
 C329 C 0.63593 0.08695 0.49016
 H330 H 0.63250 0.11778 0.56072
 H331 H 0.66708 0.06541 0.42700
 H332 H 0.72873 0.10539 0.45623
 N333 N 0.36958 0.10101 0.43799
 N334 N 0.34461 0.13221 0.42062
 C335 C 0.37028 0.16068 0.40319
 C336 C 0.41201 0.14882 0.40997
 C337 C 0.40990 0.11135 0.43187
 H338 H 0.44001 0.16478 0.39952
 H339 H 0.35837 0.07441 0.45296
 H340 H 0.31183 0.13195 0.42015
 N341 N 0.92775 0.41150 0.64558
 N342 N 0.91372 0.37536 0.66476
 C343 C 0.89685 0.35406 0.62821
 C344 C 0.89972 0.37573 0.58538
 C345 C 0.91978 0.41110 0.59770
 H346 H 0.89093 0.36599 0.54942
 H347 H 0.94451 0.43310 0.66481
 H348 H 0.91685 0.36684 0.70100
 N349 N 0.03254 0.88808 -0.14230
 N350 N 0.05107 0.85425 -0.16225
 C351 C 0.08336 0.84316 -0.13321
 C352 C 0.08683 0.87013 -0.09499
 C353 C 0.05397 0.89732 -0.10175
 H354 H 0.10803 0.86828 -0.06424
 H355 H 0.00521 0.90187 -0.15547
 H356 H 0.03980 0.83965 -0.19299
 N357 N 0.64203 0.57405 1.08716
 N358 N 0.66477 0.60373 1.11060
 C359 C 0.63747 0.63258 1.12371
 C360 C 0.59689 0.62170 1.11010
 C361 C 0.60136 0.58519 1.08684
 H362 H 0.56830 0.63899 1.11406
 H363 H 0.65507 0.54847 1.07160
 H364 H 0.69737 0.60348 1.11483
 N365 N 0.41429 0.50329 1.18595
 N366 N 0.39658 0.48554 1.22331
 C367 C 0.40062 0.44563 1.21830
 C368 C 0.42162 0.43753 1.17575
 C369 C 0.42949 0.47498 1.15621
 H370 H 0.42902 0.40858 1.16052
 H371 H 0.41517 0.53425 1.18064
 H372 H 0.38177 0.50063 1.25148
 N373 N 0.51917 -0.05442 0.30729
 N374 N 0.53731 -0.07744 0.27478
 C375 C 0.57666 -0.08586 0.28997
 C376 C 0.58399 -0.06767 0.33405
 C377 C 0.54656 -0.04830 0.34391
 H378 H 0.61173 -0.06999 0.35683
 H379 H 0.48804 -0.04452 0.30520
 H380 H 0.52268 -0.08762 0.24323
 N381 N -0.12804 1.02237 -0.13691
 N382 N -0.15014 1.04379 -0.16836
 C383 C -0.13352 1.08071 -0.17101
 C384 C -0.09941 1.08303 -0.13960
 C385 C -0.09708 1.04529 -0.11873
 H386 H -0.07905 1.10832 -0.13320
 H387 H -0.13433 0.99260 -0.12798
 H388 H -0.17570 1.03289 -0.18810
 N389 N 1.10472 0.50310 0.65291
 N390 N 1.12488 0.52159 0.68817
 C391 C 1.10544 0.55671 0.69685
 C392 C 1.07096 0.56053 0.66610
 C393 C 1.07187 0.52591 0.63863
 H394 H 1.04976 0.58579 0.66230
 H395 H 1.11412 0.47582 0.63809
 H396 H 1.15219 0.51065 0.70484
 N397 N 0.88176 0.63872 0.48168
 N398 N 0.84791 0.65837 0.49590
 C399 C 0.83132 0.63886 0.53390
 C400 C 0.85587 0.60564 0.54470
 C401 C 0.88752 0.60665 0.51077
 H402 H 0.85106 0.58349 0.57277
 H403 H 0.90047 0.64722 0.45259
 H404 H 0.83606 0.68418 0.47916
 N405 N 0.58242 0.35113 1.03925
 N406 N 0.61731 0.33116 1.05015
 C407 C 0.64963 0.35707 1.05074
 C408 C 0.63488 0.39484 1.03918
 C409 C 0.59223 0.38988 1.03230
 H410 H 0.65246 0.42245 1.03776
 H411 H 0.55255 0.33845 1.03733
 H412 H 0.61856 0.30067 1.05856
 N413 N 0.10279 1.13045 -0.02227
 N414 N 0.13786 1.14922 -0.03291
 C415 C 0.16678 1.12206 -0.04652
 C416 C 0.14944 1.08403 -0.04396
 C417 C 0.10870 1.09086 -0.02828
 H418 H 0.16414 1.05570 -0.05258
 H419 H 0.07537 1.14466 -0.01077
 H420 H 0.14144 1.18025 -0.03165
 N421 N 0.38490 -0.11293 0.51312
 N422 N 0.35878 -0.13883 0.49317
 C423 C 0.35113 -0.12747 0.44706
 C424 C 0.37326 -0.09303 0.43716
 C425 C 0.39437 -0.08489 0.47989
 H426 H 0.37468 -0.07674 0.40329
 H427 H 0.39663 -0.11506 0.54844
 H428 H 0.34667 -0.16383 0.51092
 N429 N 0.55414 -0.09323 0.64767
 N430 N 0.57098 -0.12669 0.66464
 C431 C 0.59650 -0.14216 0.63085
 C432 C 0.59643 -0.11700 0.59071
 C433 C 0.56870 -0.08651 0.60279
 H434 H 0.61144 -0.12195 0.55627
 H435 H 0.53167 -0.07629 0.66589
 H436 H 0.56371 -0.13930 0.69813
 N437 N 1.13892 0.58871 0.46368
 N438 N 1.16327 0.61726 0.44701
 C439 C 1.14103 0.63983 0.41539
 C440 C 1.10040 0.62500 0.41175
 C441 C 1.10057 0.59247 0.44320
 H442 H 1.07468 0.63617 0.38962
 H443 H 1.14866 0.56702 0.48875
 H444 H 1.19466 0.62084 0.45723
 N445 N -0.06181 1.09948 0.16248
 N446 N -0.08006 1.13222 0.17907
 C447 C -0.09478 1.15378 0.14125
 C448 C -0.08503 1.13431 0.09866
 C449 C -0.06401 1.10005 0.11380
 H450 H -0.09223 1.14368 0.06198
 H451 H -0.04772 1.07746 0.18419
 H452 H -0.08286 1.13923 0.21568
 N453 N 0.39285 0.42405 0.86424
 N454 N 0.37285 0.39259 0.84705
 C455 C 0.36999 0.36490 0.88240
 C456 C 0.38903 0.37929 0.92404
 C457 C 0.40352 0.41682 0.91073
 H458 H 0.39400 0.36372 0.95804
 H459 H 0.40040 0.44932 0.84378
 H460 H 0.36227 0.38990 0.81136
 N461 N 0.60344 0.51136 0.83664
 N462 N 0.62025 0.52871 0.79853
 C463 C 0.59990 0.56347 0.78974
 C464 C 0.56806 0.56814 0.82330
 C465 C 0.57154 0.53430 0.85234
 H466 H 0.54696 0.59336 0.82753
 H467 H 0.61421 0.48459 0.85211
 H468 H 0.64632 0.51753 0.78023
 N469 N 0.47860 0.11609 0.65382
 N470 N 0.45546 0.13394 0.68665
 C471 C 0.42069 0.11212 0.69404
 C472 C 0.42178 0.07844 0.66479
 C473 C 0.45899 0.08258 0.63928
 H474 H 0.39737 0.05644 0.65949
 H475 H 0.50645 0.12780 0.64013
 H476 H 0.46279 0.16142 0.70239
 N477 N 0.05751 0.93771 0.19020
 N478 N 0.08047 0.91369 0.21771
 C479 C 0.11403 0.90160 0.19242
 C480 C 0.11265 0.91867 0.14660
 C481 C 0.07582 0.94111 0.14661
 H482 H 0.13328 0.91281 0.11653
 H483 H 0.02870 0.94992 0.20052
 H484 H 0.07241 0.90464 0.25262
 N485 N 0.91630 0.50570 0.30285
 N486 N 0.89860 0.48676 0.26608
 C487 C 0.89139 0.44856 0.27940
 C488 C 0.90451 0.44306 0.32674
 C489 C 0.92007 0.47996 0.34029
 H490 H 0.90381 0.41581 0.34802
 H491 H 0.92582 0.53555 0.30203
 H492 H 0.89249 0.49966 0.23225
   
