data_POSCAR
  _audit_creation_date              2014-09-24
  _audit_creation_method            'ToBaCCo'
  _symmetry_space_group_name_H-M    'P1'
  _symmetry_Int_Tables_number       1
  _symmetry_cell_setting            triclinic
  loop_
  _symmetry_equiv_pos_as_xyz
 x,y,z
_cell_length_a 57.6937
_cell_length_b 56.4818
_cell_length_c 57.7413
_cell_angle_alpha 90.122400
_cell_angle_beta 90.213200
_cell_angle_gamma 90.342900
loop_
  _atom_site_label
  _atom_site_type_symbol
  _atom_site_fract_x
  _atom_site_fract_y
  _atom_site_fract_z
Si1 Si 0.24864 0.50034 1.00051
 Si2 Si 0.75261 0.50015 0.00178
 Si3 Si 0.00258 0.24990 0.50034
 Si4 Si 0.99582 0.74987 0.50215
 Si5 Si 0.49995 0.00125 0.25088
 Si6 Si 0.49896 -0.00068 0.74708
 C7 C 0.28669 0.01592 0.47093
 H8 H 0.28707 0.02921 0.48445
 C9 C 0.30278 0.01689 0.45297
 H10 H 0.31529 0.03124 0.45259
 C11 C 0.26991 -0.01901 0.45521
 H12 H 0.25744 -0.03327 0.45644
 C13 C 0.28569 -0.01872 0.43691
 H14 H 0.28514 -0.03283 0.42420
 N15 N 0.27064 -0.00177 0.47169
 C16 C 0.21559 0.02581 0.51549
 H17 H 0.21479 0.01203 0.52845
 C18 C 0.20001 0.04461 0.51628
 H19 H 0.18716 0.04509 0.52989
 C20 C 0.23267 0.04118 0.48138
 H21 H 0.24514 0.03958 0.46758
 C22 C 0.21740 0.06028 0.48150
 H23 H 0.21863 0.07347 0.46797
 Zn24 Zn 0.25082 -0.00251 0.49771
 N25 N 0.23156 0.02449 0.49829
 C26 C 0.26952 0.01388 0.54063
 N27 N 0.27014 -0.00342 0.52423
 C28 C 0.28580 -0.02126 0.52542
 C29 C 0.30163 -0.02227 0.54370
 C30 C 0.28506 0.01356 0.55925
 C31 C 0.21541 -0.03048 0.47896
 C32 C 0.19939 -0.04906 0.47776
 C33 C 0.21572 -0.06495 0.51301
 C34 C 0.23144 -0.04604 0.51353
 N35 N 0.23104 -0.02933 0.49660
 H36 H 0.25736 0.02826 0.53908
 H37 H 0.28611 -0.03460 0.51195
 H38 H 0.31387 -0.03672 0.54439
 H39 H 0.28465 0.02775 0.57187
 H40 H 0.21528 -0.01677 0.46591
 H41 H 0.18720 -0.04972 0.46348
 H42 H 0.21597 -0.07779 0.52690
 H43 H 0.24359 -0.04450 0.52774
 C44 C 0.20072 0.06213 0.49907
 C45 C 0.30250 -0.00067 0.43570
 C46 C 0.19931 -0.06655 0.49502
 C47 C 0.30151 -0.00461 0.56086
 C48 C 0.71302 0.01956 0.52751
 H49 H 0.71325 0.03321 0.51439
 C50 C 0.69700 0.02063 0.54553
 H51 H 0.68517 0.03541 0.54636
 C52 C 0.72814 -0.01636 0.54214
 H53 H 0.73992 -0.03104 0.54046
 C54 C 0.71240 -0.01599 0.56047
 H55 H 0.71228 -0.03047 0.57273
 N56 N 0.72822 0.00132 0.52618
 C57 C 0.78469 0.02763 0.48313
 H58 H 0.78490 0.01403 0.46992
 C59 C 0.80104 0.04593 0.48267
 H60 H 0.81391 0.04620 0.46908
 C61 C 0.76818 0.04311 0.51746
 H62 H 0.75559 0.04174 0.53119
 C63 C 0.78425 0.06171 0.51768
 H64 H 0.78353 0.07478 0.53141
 Zn65 Zn 0.74799 0.00044 0.50013
 N66 N 0.76860 0.02663 0.50025
 C67 C 0.73044 0.01845 0.45749
 N68 N 0.72869 0.00097 0.47357
 C69 C 0.71207 -0.01612 0.47189
 C70 C 0.69653 -0.01626 0.45332
 C71 C 0.71521 0.01901 0.43864
 C72 C 0.78196 -0.02950 0.51797
 C73 C 0.79677 -0.04893 0.51870
 C74 C 0.77937 -0.06326 0.48318
 C75 C 0.76486 -0.04355 0.48314
 N76 N 0.76633 -0.02722 0.50045
 H77 H 0.74344 0.03217 0.45938
 H78 H 0.71079 -0.02953 0.48518
 H79 H 0.68320 -0.02981 0.45252
 H80 H 0.71697 0.03295 0.42592
 H81 H 0.78306 -0.01601 0.53126
 H82 H 0.80936 -0.05019 0.53259
 H83 H 0.77785 -0.07615 0.46934
 H84 H 0.75269 -0.04120 0.46910
 C85 C 0.80100 0.06328 0.50014
 C86 C 0.69645 0.00262 0.56225
 C87 C 0.79565 -0.06611 0.50110
 C88 C 0.69794 0.00151 0.43640
 C89 C 0.48152 0.21367 1.02580
 H90 H 0.46822 0.21316 1.01254
 C91 C 0.48081 0.19758 1.04409
 H92 H 0.46667 0.18493 1.04497
 C93 C 0.51610 0.23087 1.04061
 H94 H 0.53008 0.24353 1.03893
 C95 C 0.51606 0.21510 1.05921
 H96 H 0.53010 0.21583 1.07170
 N97 N 0.49888 0.22998 1.02446
 C98 C 0.47108 0.28659 0.98154
 H99 H 0.48430 0.28754 0.96833
 C100 C 0.45256 0.30237 0.98111
 H101 H 0.45174 0.31555 0.96755
 C102 C 0.45673 0.26882 1.01579
 H103 H 0.45859 0.25597 1.02948
 C104 C 0.43793 0.28428 1.01605
 H105 H 0.42524 0.28282 1.02975
 Zn106 Zn 0.49900 0.25021 0.99839
 N107 N 0.47274 0.27012 0.99859
 C108 C 0.48154 0.23182 0.95576
 N109 N 0.49883 0.23059 0.97178
 C110 C 0.51598 0.21429 0.96996
 C111 C 0.51637 0.19857 0.95128
 C112 C 0.48124 0.21641 0.93680
 C113 C 0.52732 0.28617 1.01622
 C114 C 0.54600 0.30196 1.01710
 C115 C 0.56050 0.28469 0.98172
 C116 C 0.54153 0.26920 0.98154
 N117 N 0.52551 0.27010 0.99874
 H118 H 0.46778 0.24453 0.95775
 H119 H 0.52926 0.21340 0.98320
 H120 H 0.52998 0.18550 0.95035
 H121 H 0.46744 0.21778 0.92413
 H122 H 0.51408 0.28680 1.02943
 H123 H 0.54693 0.31483 1.03100
 H124 H 0.57319 0.28356 0.96801
 H125 H 0.53956 0.25666 0.96752
 C126 C 0.43568 0.30137 0.99855
 C127 C 0.49828 0.19813 1.06110
 C128 C 0.56290 0.30138 0.99966
 C129 C 0.49880 0.19947 0.93441
 C130 C 0.48427 0.78589 -0.02856
 H131 H 0.47111 0.78627 -0.01527
 C132 C 0.48329 0.80183 -0.04696
 H133 H 0.46907 0.81422 -0.04790
 C134 C 0.51885 0.76928 -0.04330
 H135 H 0.53296 0.75693 -0.04153
 C136 C 0.51854 0.78491 -0.06201
 H137 H 0.53249 0.78439 -0.07449
 N138 N 0.50180 0.76998 -0.02711
 C139 C 0.47518 0.71379 0.01728
 H140 H 0.48858 0.71355 0.03043
 C141 C 0.45686 0.69759 0.01825
 H142 H 0.45609 0.68513 0.03245
 C143 C 0.46005 0.73041 -0.01722
 H144 H 0.46160 0.74289 -0.03127
 C145 C 0.44139 0.71453 -0.01691
 H146 H 0.42876 0.71499 -0.03081
 Zn147 Zn 0.50249 0.75028 -0.00066
 N148 N 0.47638 0.72987 -0.00017
 C149 C 0.48562 0.76934 0.04173
 N150 N 0.50264 0.77047 0.02552
 C151 C 0.51974 0.78709 0.02681
 C152 C 0.52035 0.80328 0.04509
 C153 C 0.48556 0.78520 0.06033
 C154 C 0.53083 0.71452 -0.01800
 C155 C 0.54948 0.69891 -0.01853
 C156 C 0.56418 0.71703 0.01655
 C157 C 0.54525 0.73232 0.01639
 N158 N 0.52911 0.73088 -0.00080
 H159 H 0.47182 0.75644 0.04009
 H160 H 0.53288 0.78779 0.01351
 H161 H 0.53426 0.81621 0.04592
 H162 H 0.47166 0.78429 0.07284
 H163 H 0.51750 0.71346 -0.03120
 H164 H 0.55031 0.68576 -0.03216
 H165 H 0.57694 0.71855 0.03028
 H166 H 0.54334 0.74508 0.03019
 C167 C 0.43966 0.69779 0.00097
 C168 C 0.50064 0.80156 -0.06396
 C169 C 0.56645 0.69999 -0.00104
 C170 C 0.50305 0.80252 0.06213
 C171 C 1.02840 0.48235 0.21397
 H172 H 1.01496 0.46891 0.21392
 C173 C 1.04630 0.48131 0.19783
 H174 H 1.04672 0.46676 0.18560
 C175 C 1.04399 0.51770 0.22999
 H176 H 1.04274 0.53214 0.24220
 C177 C 1.06223 0.51735 0.21414
 H178 H 1.07487 0.53160 0.21436
 N179 N 1.02761 0.50028 0.22969
 C180 C 0.98467 0.47316 0.28579
 H181 H 0.97168 0.48686 0.28652
 C182 C 0.98413 0.45458 0.30169
 H183 H 0.97069 0.45421 0.31471
 C184 C 1.01859 0.45773 0.26850
 H185 H 1.03221 0.45923 0.25581
 C186 C 1.01873 0.43885 0.28410
 H187 H 1.03226 0.42571 0.28290
 Zn188 Zn 1.00179 0.50102 0.24977
 N189 N 1.00164 0.47433 0.26955
 C190 C 0.95866 0.48385 0.23212
 N191 N 0.97496 0.50129 0.23082
 C192 C 0.97334 0.51885 0.21485
 C193 C 0.95464 0.51948 0.19946
 C194 C 0.93968 0.48377 0.21703
 C195 C 1.02071 0.52971 0.28447
 C196 C 1.02190 0.54850 0.30017
 C197 C 0.98633 0.56373 0.28397
 C198 C 0.98583 0.54464 0.26854
 N199 N 1.00291 0.52815 0.26903
 H200 H 0.96050 0.46976 0.24460
 H201 H 0.98679 0.53224 0.21390
 H202 H 0.95391 0.53338 0.18660
 H203 H 0.92681 0.46981 0.21840
 H204 H 1.03389 0.51617 0.28468
 H205 H 1.03630 0.54947 0.31222
 H206 H 0.97231 0.57638 0.28366
 H207 H 0.97151 0.54277 0.25657
 C208 C 1.00137 0.43714 0.30103
 C209 C 1.06349 0.49903 0.19770
 C210 C 1.00446 0.56575 0.30017
 C211 C 0.93753 0.50171 0.20036
 C212 C -0.02767 0.48111 0.78784
 H213 H -0.01414 0.46793 0.78800
 C214 C -0.04564 0.47986 0.80391
 H215 H -0.04601 0.46539 0.81618
 C216 C -0.04338 0.51608 0.77169
 H217 H -0.04213 0.53049 0.75949
 C218 C -0.06167 0.51551 0.78747
 H219 H -0.07436 0.52956 0.78719
 N220 N -0.02689 0.49897 0.77212
 C221 C 0.01730 0.47263 0.71676
 H222 H 0.03018 0.48662 0.71627
 C223 C 0.01829 0.45403 0.70085
 H224 H 0.03196 0.45392 0.68805
 C225 C -0.01678 0.45651 0.73342
 H226 H -0.03064 0.45775 0.74586
 C227 C -0.01647 0.43759 0.71780
 H228 H -0.02991 0.42417 0.71873
 Zn229 Zn -0.00079 0.50026 0.75241
 N230 N 0.00003 0.47349 0.73268
 C231 C 0.04222 0.48431 0.77092
 N232 N 0.02568 0.50135 0.77182
 C233 C 0.02670 0.51903 0.78780
 C234 C 0.04496 0.52016 0.80368
 C235 C 0.06082 0.48477 0.78650
 C236 C -0.01959 0.52831 0.71747
 C237 C -0.02091 0.54709 0.70187
 C238 C 0.01416 0.56338 0.71865
 C239 C 0.01481 0.54426 0.73394
 N240 N -0.00199 0.52727 0.73315
 H241 H 0.04080 0.47005 0.75850
 H242 H 0.01313 0.53216 0.78832
 H243 H 0.04551 0.53449 0.81616
 H244 H 0.07356 0.47079 0.78585
 H245 H -0.03254 0.51439 0.71702
 H246 H -0.03518 0.54768 0.68966
 H247 H 0.02793 0.57649 0.71923
 H248 H 0.02899 0.54282 0.74611
 C249 C 0.00119 0.43623 0.70116
 C250 C -0.06288 0.49730 0.80397
 C251 C -0.00381 0.56490 0.70224
 C252 C 0.06227 0.50278 0.80327
 C253 C 0.04909 0.19794 0.48162
 C254 C 0.06550 0.19842 0.49954
 C255 C 0.06325 0.21475 0.51766
 C256 C 0.04463 0.23050 0.51790
 C257 C 0.02819 0.23010 0.49994
 C258 C 0.03048 0.21366 0.48186
 C259 C 0.08427 0.18174 0.49959
 C260 C 0.09977 0.16753 0.49959
 C261 C 0.11766 0.15058 0.49955
 C262 C 0.13270 0.13586 0.49946
 C263 C 0.15037 0.11798 0.49931
 C264 C 0.16057 0.11063 0.52009
 C265 C 0.17714 0.09266 0.52002
 C266 C 0.18374 0.08179 0.49911
 C267 C 0.17355 0.08950 0.47828
 C268 C 0.15698 0.10745 0.47840
 H269 H 0.05057 0.18529 0.46758
 H270 H 0.07575 0.21515 0.53171
 H271 H 0.04301 0.24266 0.53228
 H272 H 0.01778 0.21291 0.46801
 H273 H 0.15560 0.11867 0.53637
 H274 H 0.18486 0.08733 0.53629
 H275 H 0.17800 0.08127 0.46195
 H276 H 0.14911 0.11293 0.46222
 C277 C 0.70187 0.54744 -0.01783
 C278 C 0.70223 0.56437 -0.00009
 C279 C 0.71820 0.56233 0.01811
 C280 C 0.73367 0.54337 0.01863
 C281 C 0.73335 0.52637 0.00088
 C282 C 0.71732 0.52849 -0.01731
 C283 C 0.68572 0.58337 -0.00024
 C284 C 0.67158 0.59900 -0.00035
 C285 C 0.65470 0.61697 -0.00048
 C286 C 0.64001 0.63206 -0.00056
 C287 C 0.62215 0.64974 -0.00061
 C288 C 0.61149 0.65628 0.02015
 C289 C 0.59356 0.67282 0.02006
 C290 C 0.58602 0.68302 -0.00085
 C291 C 0.59701 0.67649 -0.02161
 C292 C 0.61495 0.65995 -0.02147
 H293 H 0.68949 0.54875 -0.03192
 H294 H 0.71850 0.57523 0.03202
 H295 H 0.74554 0.54188 0.03308
 H296 H 0.71663 0.51536 -0.03099
 H297 H 0.61684 0.64838 0.03638
 H298 H 0.58525 0.67721 0.03627
 H299 H 0.59179 0.68424 -0.03794
 H300 H 0.62309 0.65503 -0.03764
 C301 C 0.93313 -0.21904 0.48433
 C302 C 0.92938 -0.20348 0.50285
 C303 C 0.94505 -0.20280 0.52141
 C304 C 0.96462 -0.21724 0.52123
 C305 C 0.96882 -0.23232 0.50240
 C306 C 0.95273 -0.23350 0.48415
 C307 C 0.91005 -0.18750 0.50245
 C308 C 0.89428 -0.17360 0.50216
 C309 C 0.87631 -0.15676 0.50186
 C310 C 0.86137 -0.14194 0.50162
 C311 C 0.84400 -0.12375 0.50134
 C312 C 0.83365 -0.11645 0.52202
 C313 C 0.81767 -0.09794 0.52193
 C314 C 0.81184 -0.08646 0.50111
 C315 C 0.82211 -0.09416 0.48037
 C316 C 0.83809 -0.11266 0.48051
 H317 H 0.92107 -0.21976 0.46992
 H318 H 0.94233 -0.19086 0.53584
 H319 H 0.97675 -0.21629 0.53557
 H320 H 0.95532 -0.24532 0.46966
 H321 H 0.83811 -0.12490 0.53825
 H322 H 0.80985 -0.09261 0.53813
 H323 H 0.81824 -0.08549 0.46411
 H324 H 0.84611 -0.11807 0.46442
 C325 C 0.28318 0.43828 1.01701
 C326 C 0.29923 0.43629 0.99899
 C327 C 0.29957 0.45319 0.98129
 C328 C 0.28404 0.47207 0.98169
 C329 C 0.26794 0.47414 0.99971
 C330 C 0.26762 0.45717 1.01741
 C331 C 0.31587 0.41741 0.99900
 C332 C 0.33011 0.40189 0.99899
 C333 C 0.34713 0.38405 0.99897
 C334 C 0.36193 0.36908 0.99895
 C335 C 0.37990 0.35151 0.99892
 C336 C 0.38707 0.34131 0.97806
 C337 C 0.40506 0.32484 0.97794
 C338 C 0.41613 0.31836 0.99872
 C339 C 0.40864 0.32856 1.01963
 C340 C 0.39065 0.34504 1.01970
 H341 H 0.28289 0.42540 1.03089
 H342 H 0.31202 0.45193 0.96734
 H343 H 0.28473 0.48519 0.96805
 H344 H 0.25569 0.45863 1.03173
 H345 H 0.37885 0.34619 0.96187
 H346 H 0.41024 0.31708 0.96160
 H347 H 0.41700 0.32419 1.03587
 H348 H 0.38531 0.35292 1.03594
 C349 C 0.94168 0.21447 0.48276
 C350 C 0.93936 0.19801 0.50072
 C351 C 0.95585 0.19745 0.51855
 C352 C 0.97458 0.21326 0.51841
 C353 C 0.97691 0.22985 0.50053
 C354 C 0.96042 0.23030 0.48262
 C355 C 0.92038 0.18135 0.50062
 C356 C 0.90467 0.16718 0.50057
 C357 C 0.88648 0.15036 0.50052
 C358 C 0.87114 0.13578 0.50050
 C359 C 0.85305 0.11811 0.50048
 C360 C 0.84620 0.10752 0.52127
 C361 C 0.82911 0.08986 0.52121
 C362 C 0.81865 0.08254 0.50031
 C363 C 0.82552 0.09345 0.47952
 C364 C 0.84261 0.11111 0.47963
 H365 H 0.92911 0.21494 0.46878
 H366 H 0.95432 0.18471 0.53247
 H367 H 0.98732 0.21247 0.53222
 H368 H 0.96206 0.24259 0.46839
 H369 H 0.85424 0.11273 0.53750
 H370 H 0.82444 0.08159 0.53745
 H371 H 0.81760 0.08842 0.46320
 H372 H 0.84775 0.11922 0.46344
 C373 C 0.28446 0.56198 -0.01600
 C374 C 0.30062 0.56385 0.00209
 C375 C 0.30061 0.54704 0.01987
 C376 C 0.28464 0.52834 0.01947
 C377 C 0.26846 0.52637 0.00138
 C378 C 0.26847 0.54328 -0.01639
 C379 C 0.31774 0.58248 0.00202
 C380 C 0.33241 0.59776 0.00196
 C381 C 0.34995 0.61528 0.00189
 C382 C 0.36521 0.62995 0.00184
 C383 C 0.38376 0.64710 0.00179
 C384 C 0.40621 0.64019 0.00788
 C385 C 0.42436 0.65668 0.00768
 C386 C 0.42030 0.68035 0.00136
 C387 C 0.39764 0.68713 -0.00472
 C388 C 0.37950 0.67060 -0.00449
 H389 H 0.28444 0.57479 -0.02994
 H390 H 0.31313 0.54821 0.03386
 H391 H 0.28508 0.51527 0.03316
 H392 H 0.25649 0.54189 -0.03077
 H393 H 0.40972 0.62203 0.01268
 H394 H 0.44165 0.65082 0.01211
 H395 H 0.39391 0.70527 -0.00940
 H396 H 0.36217 0.67614 -0.00920
 C397 C 0.03862 -0.19096 0.49856
 C398 C 0.06086 -0.20072 0.49847
 C399 C 0.06352 -0.22533 0.49929
 C400 C 0.04397 -0.24009 0.50037
 C401 C 0.02167 -0.23033 0.50086
 C402 C 0.01912 -0.20567 0.49965
 C403 C 0.08076 -0.18527 0.49756
 C404 C 0.09693 -0.17168 0.49686
 C405 C 0.11528 -0.15507 0.49612
 C406 C 0.13046 -0.14032 0.49555
 C407 C 0.14798 -0.12209 0.49492
 C408 C 0.17090 -0.12710 0.50115
 C409 C 0.18768 -0.10910 0.50104
 C410 C 0.18172 -0.08587 0.49468
 C411 C 0.15865 -0.08109 0.48834
 C412 C 0.14193 -0.09908 0.48847
 H413 H 0.03635 -0.17195 0.49776
 H414 H 0.08064 -0.23309 0.49910
 H415 H 0.04624 -0.25910 0.50092
 H416 H 0.00217 -0.19765 0.49942
 H417 H 0.17578 -0.14486 0.50617
 H418 H 0.20534 -0.11339 0.50578
 H419 H 0.15340 -0.06334 0.48372
 H420 H 0.12421 -0.09498 0.48373
 C421 C 0.71707 0.43839 0.98455
 C422 C 0.70082 0.43645 1.00242
 C423 C 0.70062 0.45330 1.02022
 C424 C 0.71649 0.47209 1.02009
 C425 C 0.73279 0.47410 1.00224
 C426 C 0.73296 0.45718 0.98442
 C427 C 0.68389 0.41763 1.00212
 C428 C 0.66944 0.40214 1.00184
 C429 C 0.65222 0.38429 1.00146
 C430 C 0.63726 0.36930 1.00111
 C431 C 0.61913 0.35170 1.00066
 C432 C 0.61183 0.34101 1.02125
 C433 C 0.59369 0.32448 1.02092
 C434 C 0.58261 0.31842 0.99996
 C435 C 0.59023 0.32911 0.97932
 C436 C 0.60835 0.34565 0.97970
 H437 H 0.71726 0.42555 0.97058
 H438 H 0.68803 0.45207 1.03406
 H439 H 0.71592 0.48517 1.03382
 H440 H 0.74503 0.45860 0.97021
 H441 H 0.62006 0.34555 1.03757
 H442 H 0.58842 0.31634 1.03704
 H443 H 0.58185 0.32507 0.96296
 H444 H 0.61379 0.35390 0.96368
 C445 C 0.48067 0.04783 1.19935
 C446 C 0.49846 0.06479 1.19950
 C447 C 0.51655 0.06306 1.21564
 C448 C 0.51692 0.04434 1.23146
 C449 C 0.49914 0.02730 1.23131
 C450 C 0.48105 0.02913 1.21513
 C451 C 0.49853 0.08342 1.18254
 C452 C 0.49853 0.09868 1.16798
 C453 C 0.49849 0.11615 1.15055
 C454 C 0.49840 0.13074 1.13535
 C455 C 0.49824 0.14777 1.11685
 C456 C 0.50446 0.17138 1.12110
 C457 C 0.50444 0.18780 1.10300
 C458 C 0.49817 0.18080 1.08041
 C459 C 0.49193 0.15702 1.07635
 C460 C 0.49198 0.14065 1.09445
 H461 H 0.46667 0.04890 1.18684
 H462 H 0.53050 0.07598 1.21579
 H463 H 0.53130 0.04306 1.24344
 H464 H 0.46734 0.01595 1.21458
 H465 H 0.50930 0.17709 1.13838
 H466 H 0.50907 0.20603 1.10672
 H467 H 0.48737 0.15099 1.05910
 H468 H 0.48723 0.12239 1.09095
 C469 C 0.01311 0.71847 0.56488
 C470 C -0.00548 0.70285 0.56845
 C471 C -0.02396 0.70228 0.55268
 C472 C -0.02362 0.71686 0.53318
 C473 C -0.00470 0.73198 0.52914
 C474 C 0.01346 0.73307 0.54534
 C475 C -0.00521 0.68665 0.58765
 C476 C -0.00504 0.67250 0.60324
 C477 C -0.00492 0.65531 0.62094
 C478 C -0.00487 0.64014 0.63559
 C479 C -0.00486 0.62147 0.65251
 C480 C -0.01088 0.59842 0.64581
 C481 C -0.01064 0.58008 0.66199
 C482 C -0.00436 0.58453 0.68517
 C483 C 0.00162 0.60779 0.69178
 C484 C 0.00136 0.62614 0.67554
 H485 H 0.02748 0.71911 0.57701
 H486 H -0.03845 0.69029 0.55527
 H487 H -0.03789 0.71596 0.52096
 H488 H 0.02802 0.74492 0.54287
 H489 H -0.01562 0.59458 0.62801
 H490 H -0.01498 0.56232 0.65627
 H491 H 0.00630 0.61183 0.70954
 H492 H 0.00602 0.64393 0.68092
 C493 C 0.51843 0.95263 -0.20151
 C494 C 0.50067 0.93564 -0.20169
 C495 C 0.48254 0.93740 -0.21777
 C496 C 0.48209 0.95618 -0.23352
 C497 C 0.49985 0.97326 -0.23335
 C498 C 0.51798 0.97140 -0.21723
 C499 C 0.50067 0.91691 -0.18482
 C500 C 0.50063 0.90155 -0.17036
 C501 C 0.50056 0.88395 -0.15305
 C502 C 0.50046 0.86925 -0.13795
 C503 C 0.50031 0.85211 -0.11954
 C504 C 0.50655 0.82861 -0.12385
 C505 C 0.50661 0.81210 -0.10582
 C506 C 0.50038 0.81892 -0.08323
 C507 C 0.49409 0.84259 -0.07912
 C508 C 0.49406 0.85905 -0.09716
 H509 H 0.53246 0.95154 -0.18904
 H510 H 0.46860 0.92446 -0.21794
 H511 H 0.46768 0.95748 -0.24546
 H512 H 0.53166 0.98461 -0.21666
 H513 H 0.51139 0.82304 -0.14113
 H514 H 0.51129 0.79397 -0.10958
 H515 H 0.48956 0.84850 -0.06188
 H516 H 0.48929 0.87722 -0.09361
 C517 C 0.98396 0.30212 0.45392
 C518 C 1.00178 0.30173 0.43754
 C519 C 1.01984 0.28542 0.43983
 C520 C 1.02009 0.26961 0.45844
 C521 C 1.00221 0.26991 0.47483
 C522 C 0.98422 0.28633 0.47252
 C523 C 1.00179 0.31840 0.41872
 C524 C 1.00178 0.33258 0.40315
 C525 C 1.00176 0.34945 0.38514
 C526 C 1.00174 0.36407 0.36996
 C527 C 1.00172 0.38182 0.35210
 C528 C 1.02256 0.39235 0.34512
 C529 C 1.02249 0.41013 0.32831
 C530 C 1.00153 0.41766 0.31828
 C531 C 0.98069 0.40679 0.32526
 C532 C 0.98080 0.38899 0.34206
 H533 H 0.96997 0.31475 0.45242
 H534 H 1.03381 0.28508 0.42735
 H535 H 1.03440 0.25746 0.46007
 H536 H 0.97043 0.28700 0.48518
 H537 H 1.03884 0.38700 0.35286
 H538 H 1.03878 0.41837 0.32356
 H539 H 0.96431 0.41198 0.31766
 H540 H 0.96457 0.38094 0.34731
 C541 C 0.48343 0.93913 0.21572
 C542 C 0.50149 0.93733 0.19968
 C543 C 0.51920 0.95438 0.19953
 C544 C 0.51878 0.97322 0.21523
 C545 C 0.50073 0.97511 0.23132
 C546 C 0.48302 0.95799 0.23146
 C547 C 0.50152 0.91851 0.18286
 C548 C 0.50163 0.90308 0.16841
 C549 C 0.50185 0.88541 0.15110
 C550 C 0.50210 0.87065 0.13600
 C551 C 0.50248 0.85342 0.11761
 C552 C 0.50843 0.86045 0.09517
 C553 C 0.50869 0.84389 0.07717
 C554 C 0.50297 0.82003 0.08136
 C555 C 0.49702 0.81313 0.10399
 C556 C 0.49679 0.82974 0.12199
 H557 H 0.46954 0.92614 0.21587
 H558 H 0.53317 0.95327 0.18710
 H559 H 0.53243 0.98646 0.21469
 H560 H 0.46867 0.95930 0.24338
 H561 H 0.51278 0.87876 0.09157
 H562 H 0.51300 0.84984 0.05989
 H563 H 0.49278 0.79485 0.10781
 H564 H 0.49219 0.82410 0.13931
 C565 C -0.01481 0.28478 0.56119
 C566 C 0.00326 0.30126 0.56373
 C567 C 0.02116 0.30194 0.54744
 C568 C 0.02096 0.28627 0.52867
 C569 C 0.00294 0.26968 0.52611
 C570 C -0.01502 0.26910 0.54242
 C571 C 0.00314 0.31785 0.58268
 C572 C 0.00297 0.33197 0.59837
 C573 C 0.00272 0.34875 0.61652
 C574 C 0.00245 0.36332 0.63180
 C575 C 0.00208 0.38100 0.64979
 C576 C 0.02278 0.38856 0.66021
 C577 C 0.02249 0.40632 0.67712
 C578 C 0.00146 0.41676 0.68382
 C579 C -0.01928 0.40884 0.67341
 C580 C -0.01895 0.39110 0.65650
 H581 H -0.02886 0.28422 0.57359
 H582 H 0.03516 0.31471 0.54914
 H583 H 0.03481 0.28717 0.51608
 H584 H -0.02935 0.25682 0.54059
 H585 H 0.03915 0.38084 0.65517
 H586 H 0.03871 0.41182 0.68501
 H587 H -0.03571 0.41674 0.67794
 H588 H -0.03507 0.38545 0.64847
 C589 C 0.47997 0.04649 0.79830
 C590 C 0.49771 0.06351 0.79797
 C591 C 0.51570 0.06157 0.78188
 C592 C 0.51602 0.04262 0.76626
 C593 C 0.49827 0.02553 0.76655
 C594 C 0.48030 0.02755 0.78271
 C595 C 0.49778 0.08251 0.81462
 C596 C 0.49785 0.09816 0.82885
 C597 C 0.49795 0.11617 0.84583
 C598 C 0.49803 0.13129 0.86059
 C599 C 0.49814 0.14902 0.87853
 C600 C 0.51904 0.15942 0.88570
 C601 C 0.51926 0.17602 0.90370
 C602 C 0.49852 0.18243 0.91478
 C603 C 0.47756 0.17205 0.90726
 C604 C 0.47740 0.15544 0.88927
 H605 H 0.46604 0.04773 0.81077
 H606 H 0.52961 0.07454 0.78159
 H607 H 0.53032 0.04121 0.75430
 H608 H 0.46662 0.01435 0.78337
 H609 H 0.53520 0.15459 0.87748
 H610 H 0.53562 0.18392 0.90889
 H611 H 0.46136 0.17635 0.91564
 H612 H 0.46113 0.14741 0.88394
 C613 C 0.99975 0.69076 0.45957
 C614 C 1.00003 0.70054 0.43732
 C615 C 0.99924 0.72516 0.43459
 C616 C 0.99799 0.73989 0.45407
 C617 C 0.99731 0.73010 0.47638
 C618 C 0.99850 0.70545 0.47900
 C619 C 1.00112 0.68511 0.41749
 C620 C 1.00195 0.67151 0.40141
 C621 C 1.00285 0.65484 0.38319
 C622 C 1.00355 0.64003 0.36815
 C623 C 1.00432 0.62170 0.35082
 C624 C 0.99786 0.62642 0.32791
 C625 C 0.99807 0.60831 0.31134
 C626 C 1.00476 0.58523 0.31751
 C627 C 1.01134 0.58074 0.34057
 C628 C 1.01112 0.59885 0.35708
 H629 H 1.00054 0.67175 0.46190
 H630 H 0.99957 0.73294 0.41746
 H631 H 0.99746 0.75890 0.45174
 H632 H 0.99859 0.69741 0.49595
 H633 H 0.99258 0.64406 0.32288
 H634 H 0.99314 0.61237 0.29369
 H635 H 1.01622 0.56311 0.34598
 H636 H 1.01603 0.59497 0.37479
 C637 C 1.21409 0.51733 0.06124
 C638 C 1.19788 0.49889 0.06317
 C639 C 1.19736 0.48080 0.04656
 C640 C 1.21289 0.48121 0.02805
 C641 C 1.22917 0.49962 0.02606
 C642 C 1.22965 0.51774 0.04272
 C643 C 1.18133 0.49886 0.08175
 C644 C 1.16717 0.49882 0.09706
 C645 C 1.15026 0.49875 0.11466
 C646 C 1.13554 0.49868 0.12941
 C647 C 1.11761 0.49856 0.14668
 C648 C 1.09495 0.49216 0.14050
 C649 C 1.07739 0.49223 0.15710
 C650 C 1.08226 0.49872 0.18016
 C651 C 1.10511 0.50510 0.18622
 C652 C 1.12267 0.50500 0.16958
 H653 H 1.21453 0.53152 0.07389
 H654 H 1.18480 0.46653 0.04779
 H655 H 1.21209 0.46724 0.01518
 H656 H 1.24172 0.53237 0.04132
 H657 H 1.09082 0.48724 0.12280
 H658 H 1.05993 0.48758 0.15179
 H659 H 1.10945 0.50992 0.20388
 H660 H 1.14016 0.50995 0.17456
 C661 C 0.54497 0.01924 0.69594
 C662 C 0.56164 0.00134 0.69634
 C663 C 0.55974 -0.01712 0.71240
 C664 C 0.54119 -0.01772 0.72792
 C665 C 0.52449 0.00023 0.72758
 C666 C 0.52644 0.01865 0.71144
 C667 C 0.58029 0.00160 0.67985
 C668 C 0.59564 0.00184 0.66575
 C669 C 0.61330 0.00215 0.64891
 C670 C 0.62810 0.00243 0.63423
 C671 C 0.64542 0.00277 0.61635
 C672 C 0.66818 -0.00413 0.62122
 C673 C 0.68485 -0.00409 0.60368
 C674 C 0.67894 0.00290 0.58104
 C675 C 0.65602 0.00987 0.57638
 C676 C 0.63940 0.00980 0.59392
 H677 H 0.54618 0.03353 0.68350
 H678 H 0.57244 -0.03117 0.71274
 H679 H 0.53983 -0.03235 0.73988
 H680 H 0.51353 0.03248 0.71074
 H681 H 0.67303 -0.00958 0.63854
 H682 H 0.70240 -0.00930 0.60787
 H683 H 0.65082 0.01499 0.55907
 H684 H 0.62181 0.01508 0.58994
 C685 C -0.21233 0.51676 0.94120
 C686 C -0.19650 0.49817 0.93924
 C687 C -0.19632 0.48014 0.95584
 C688 C -0.21184 0.48074 0.97435
 C689 C -0.22777 0.49928 0.97634
 C690 C -0.22787 0.51736 0.95972
 C691 C -0.18003 0.49787 0.92058
 C692 C -0.16597 0.49763 0.90520
 C693 C -0.14918 0.49734 0.88749
 C694 C -0.13457 0.49711 0.87263
 C695 C -0.11676 0.49684 0.85524
 C696 C -0.09409 0.49073 0.86135
 C697 C -0.07662 0.49075 0.84466
 C698 C -0.08159 0.49690 0.82157
 C699 C -0.10447 0.50296 0.81557
 C700 C -0.12193 0.50291 0.83231
 H701 H -0.21249 0.53090 0.92855
 H702 H -0.18406 0.46575 0.95459
 H703 H -0.21134 0.46680 0.98719
 H704 H -0.23966 0.53210 0.96111
 H705 H -0.08987 0.48610 0.87907
 H706 H -0.05913 0.48636 0.84991
 H707 H -0.10889 0.50753 0.79790
 H708 H -0.13944 0.50765 0.82739
 C709 C 0.43916 0.01787 0.28542
 C710 C 0.43712 -0.00061 0.30142
 C711 C 0.45367 -0.01863 0.30181
 C712 C 0.47224 -0.01810 0.28635
 C713 C 0.47434 0.00035 0.27027
 C714 C 0.45774 0.01840 0.26993
 C715 C 0.41849 -0.00072 0.31793
 C716 C 0.40315 -0.00076 0.33205
 C717 C 0.38552 -0.00074 0.34892
 C718 C 0.37075 -0.00067 0.36364
 C719 C 0.35350 -0.00052 0.38157
 C720 C 0.35983 0.00553 0.40424
 C721 C 0.34324 0.00555 0.42180
 C722 C 0.32003 -0.00048 0.41693
 C723 C 0.31381 -0.00652 0.39406
 C724 C 0.33045 -0.00652 0.37650
 H725 H 0.42655 0.03201 0.28509
 H726 H 0.45236 -0.03293 0.31422
 H727 H 0.48507 -0.03201 0.28704
 H728 H 0.45922 0.03307 0.25803
 H729 H 0.37764 0.01011 0.40838
 H730 H 0.34866 0.00992 0.43928
 H731 H 0.29604 -0.01099 0.38972
 H732 H 0.32535 -0.01118 0.35899
 C733 C 0.19770 0.52030 0.95413
 C734 C 0.19785 0.50220 0.93753
 C735 C 0.21369 0.48362 0.93957
 C736 C 0.22924 0.48308 0.95820
 C737 C 0.22915 0.50121 0.97485
 C738 C 0.21324 0.51976 0.97275
 C739 C 0.18127 0.50236 0.91885
 C740 C 0.16706 0.50251 0.90350
 C741 C 0.15006 0.50268 0.88587
 C742 C 0.13521 0.50285 0.87113
 C743 C 0.11709 0.50307 0.85394
 C744 C 0.12187 0.49724 0.83088
 C745 C 0.10409 0.49722 0.81433
 C746 C 0.08129 0.50307 0.82067
 C747 C 0.07671 0.50895 0.84389
 C748 C 0.09449 0.50895 0.86039
 H749 H 0.18543 0.53468 0.95282
 H750 H 0.21382 0.46942 0.92693
 H751 H 0.24101 0.46834 0.95967
 H752 H 0.21273 0.53374 0.98561
 H753 H 0.13932 0.49270 0.82570
 H754 H 0.10821 0.49286 0.79656
 H755 H 0.05929 0.51316 0.84941
 H756 H 0.09057 0.51339 0.87821
 C757 C 0.54651 0.02130 0.30194
 C758 C 0.56304 0.00326 0.30158
 C759 C 0.56088 -0.01530 0.28559
 C760 C 0.54222 -0.01587 0.27007
 C761 C 0.52564 0.00220 0.27036
 C762 C 0.52785 0.02073 0.28644
 C763 C 0.58181 0.00343 0.31807
 C764 C 0.59731 0.00347 0.33212
 C765 C 0.61520 0.00340 0.34886
 C766 C 0.63024 0.00323 0.36339
 C767 C 0.64789 0.00291 0.38106
 C768 C 0.65745 -0.01861 0.38816
 C769 C 0.67394 -0.01905 0.40595
 C770 C 0.68110 0.00206 0.41690
 C771 C 0.67159 0.02364 0.40943
 C772 C 0.65508 0.02404 0.39165
 H773 H 0.54792 0.03567 0.31434
 H774 H 0.57347 -0.02945 0.28528
 H775 H 0.54066 -0.03060 0.25817
 H776 H 0.51504 0.03466 0.28710
 H777 H 0.65202 -0.03506 0.38007
 H778 H 0.68115 -0.03591 0.41110
 H779 H 0.67650 0.04015 0.41771
 H780 H 0.64771 0.04079 0.38636
 C781 C 0.80363 0.51956 0.04865
 C782 C 0.80293 0.50148 0.06518
 C783 C 0.78670 0.48307 0.06293
 C784 C 0.77130 0.48269 0.04417
 C785 C 0.77194 0.50081 0.02759
 C786 C 0.78825 0.51918 0.02989
 C787 C 0.81929 0.50150 0.08406
 C788 C 0.83327 0.50151 0.09963
 C789 C 0.84995 0.50150 0.11758
 C790 C 0.86446 0.50149 0.13266
 C791 C 0.88212 0.50145 0.15033
 C792 C 0.89252 0.48017 0.15692
 C793 C 0.91032 0.48020 0.17342
 C794 C 0.91798 0.50156 0.18354
 C795 C 0.90721 0.52283 0.17700
 C796 C 0.88940 0.52275 0.16050
 H797 H 0.81621 0.53381 0.05013
 H798 H 0.78613 0.46889 0.07553
 H799 H 0.75921 0.46808 0.04254
 H800 H 0.78918 0.53314 0.01709
 H801 H 0.88710 0.46359 0.14908
 H802 H 0.91846 0.46359 0.17784
 H803 H 0.91251 0.53952 0.18468
 H804 H 0.88145 0.53933 0.15554
 C805 C 0.45245 -0.02093 0.69607
 C806 C 0.43584 -0.00296 0.69641
 C807 C 0.43791 0.01560 0.71241
 C808 C 0.45657 0.01626 0.72794
 C809 C 0.47323 -0.00173 0.72764
 C810 C 0.47110 -0.02027 0.71157
 C811 C 0.41714 -0.00324 0.67985
 C812 C 0.40176 -0.00349 0.66566
 C813 C 0.38411 -0.00381 0.64867
 C814 C 0.36936 -0.00410 0.63383
 C815 C 0.35217 -0.00448 0.61570
 C816 C 0.32919 0.00167 0.62040
 C817 C 0.31265 0.00155 0.60262
 C818 C 0.31890 -0.00477 0.57990
 C819 C 0.34204 -0.01097 0.57540
 C820 C 0.35853 -0.01082 0.59318
 H821 H 0.45112 -0.03530 0.68367
 H822 H 0.42526 0.02970 0.71270
 H823 H 0.45807 0.03099 0.73984
 H824 H 0.48397 -0.03414 0.71091
 H825 H 0.32407 0.00658 0.63779
 H826 H 0.29493 0.00617 0.60668
 H827 H 0.34750 -0.01555 0.55805
 H828 H 0.37629 -0.01552 0.58933
   
