data_POSCAR
  _audit_creation_date              2014-09-24
  _audit_creation_method            'ToBaCCo'
  _symmetry_space_group_name_H-M    'P1'
  _symmetry_Int_Tables_number       1
  _symmetry_cell_setting            triclinic
  loop_
  _symmetry_equiv_pos_as_xyz
 x,y,z
_cell_length_a 48.2451
_cell_length_b 49.6693
_cell_length_c 46.3298
_cell_angle_alpha 91.253100
_cell_angle_beta 90.048900
_cell_angle_gamma 92.490000
loop_
  _atom_site_label
  _atom_site_type_symbol
  _atom_site_fract_x
  _atom_site_fract_y
  _atom_site_fract_z
C1 C 0.20821 0.52461 1.03316
 H2 H 0.20839 0.54052 1.01756
 C3 C 0.18908 0.52455 1.05573
 H4 H 0.17560 0.54133 1.05748
 C5 C 0.22660 0.48425 1.04939
 H6 H 0.24064 0.46809 1.04632
 C7 C 0.20788 0.48337 1.07235
 H8 H 0.20799 0.46602 1.08602
 N9 N 0.22645 0.50467 1.03039
 C10 C 0.29273 0.53743 0.97580
 H11 H 0.29253 0.52200 0.95893
 C12 C 0.31215 0.55904 0.97502
 H13 H 0.32663 0.56026 0.95721
 C14 C 0.27397 0.55438 1.01946
 H15 H 0.25940 0.55220 1.03703
 C16 C 0.29310 0.57634 1.01956
 H17 H 0.29307 0.59085 1.03734
 Zn18 Zn 0.24950 0.50476 0.99740
 N19 N 0.27406 0.53554 0.99769
 C20 C 0.22716 0.52512 0.94585
 N21 N 0.22568 0.50471 0.96496
 C22 C 0.20566 0.48465 0.96272
 C23 C 0.18609 0.48454 0.94050
 C24 C 0.20800 0.52580 0.92331
 C25 C 0.29055 0.47230 1.01796
 C26 C 0.30798 0.45062 1.01844
 C27 C 0.28610 0.43303 0.97463
 C28 C 0.26906 0.45509 0.97499
 N29 N 0.27145 0.47406 0.99658
 H30 H 0.24280 0.54122 0.94834
 H31 H 0.20462 0.46898 0.97858
 H32 H 0.16994 0.46871 0.93948
 H33 H 0.20954 0.54219 0.90828
 H34 H 0.29220 0.48783 1.03469
 H35 H 0.32279 0.44945 1.03589
 H36 H 0.28419 0.41834 0.95705
 H37 H 0.25421 0.45716 0.95781
 C38 C 0.31263 0.57881 0.99719
 C39 C 0.18829 0.50355 1.07586
 C40 C 0.30595 0.43063 0.99653
 C41 C 0.18697 0.50544 0.92056
 C42 C 0.79432 0.51719 -0.02904
 H43 H 0.79494 0.53188 -0.01144
 C44 C 0.81397 0.51903 -0.05103
 H45 H 0.82942 0.53551 -0.05044
 C46 C 0.77337 0.47781 -0.05094
 H47 H 0.75791 0.46143 -0.05045
 C48 C 0.79265 0.47889 -0.07343
 H49 H 0.79177 0.46329 -0.09014
 N50 N 0.77448 0.49690 -0.02942
 C51 C 0.70976 0.52797 0.02611
 H52 H 0.70819 0.51238 0.04205
 C53 C 0.69240 0.54972 0.02783
 H54 H 0.67774 0.55090 0.04545
 C55 C 0.73079 0.54519 -0.01624
 H56 H 0.74534 0.54308 -0.03376
 C57 C 0.71383 0.56728 -0.01535
 H58 H 0.71556 0.58193 -0.03230
 Zn59 Zn 0.75043 0.49540 0.00273
 N60 N 0.72859 0.52617 0.00442
 C61 C 0.77369 0.51350 0.05679
 N62 N 0.77345 0.49404 0.03565
 C63 C 0.79140 0.47371 0.03612
 C64 C 0.81046 0.47221 0.05860
 C65 C 0.79249 0.51281 0.07970
 C66 C 0.70763 0.46286 -0.02210
 C67 C 0.68824 0.44122 -0.02442
 C68 C 0.70662 0.42361 0.01950
 C69 C 0.72571 0.44557 0.02095
 N70 N 0.72594 0.46459 0.00025
 H71 H 0.75971 0.52984 0.05568
 H72 H 0.79115 0.45885 0.01868
 H73 H 0.82492 0.45614 0.05824
 H74 H 0.79239 0.52841 0.09638
 H75 H 0.70803 0.47844 -0.03807
 H76 H 0.67400 0.44013 -0.04253
 H77 H 0.70637 0.40903 0.03654
 H78 H 0.73991 0.44765 0.03897
 C79 C 0.69424 0.56973 0.00686
 C80 C 0.81340 0.49963 -0.07355
 C81 C 0.68743 0.42129 -0.00333
 C82 C 0.81128 0.49202 0.08072
 C83 C -0.02639 0.28385 0.48753
 H84 H -0.04252 0.28409 0.50373
 C85 C -0.02623 0.30234 0.46531
 H86 H -0.04319 0.31582 0.46451
 C87 C 0.01425 0.26477 0.46921
 H88 H 0.03045 0.25060 0.47126
 C89 C 0.01525 0.28287 0.44655
 H90 H 0.03275 0.28221 0.43205
 N91 N -0.00646 0.26546 0.48901
 C92 C -0.04366 0.20104 0.54060
 H93 H -0.02843 0.20010 0.55767
 C94 C -0.06662 0.18292 0.53988
 H95 H -0.06878 0.16789 0.55640
 C96 C -0.05849 0.22101 0.49758
 H97 H -0.05503 0.23554 0.48083
 C98 C -0.08174 0.20332 0.49604
 H99 H -0.09622 0.20483 0.47834
 Zn100 Zn -0.00764 0.24249 0.52104
 N101 N -0.04007 0.21965 0.51969
 C102 C -0.02822 0.26429 0.57395
 N103 N -0.00728 0.26519 0.55429
 C104 C 0.01390 0.28407 0.55642
 C105 C 0.01464 0.30311 0.57898
 C106 C -0.02834 0.28306 0.59687
 C107 C 0.02562 0.20243 0.49852
 C108 C 0.04826 0.18590 0.49686
 C109 C 0.06558 0.20624 0.54155
 C110 C 0.04261 0.22241 0.54233
 N111 N 0.02342 0.22050 0.52077
 H112 H -0.04518 0.24949 0.57153
 H113 H 0.02995 0.28466 0.54012
 H114 H 0.03131 0.31844 0.57977
 H115 H -0.04524 0.28222 0.61223
 H116 H 0.00979 0.20101 0.48193
 H117 H 0.04957 0.17157 0.47902
 H118 H 0.08091 0.20841 0.55862
 H119 H 0.04023 0.23647 0.56016
 C120 C -0.08598 0.18383 0.51728
 C121 C -0.00510 0.30235 0.44420
 C122 C 0.06871 0.18779 0.51849
 C123 C -0.00681 0.30294 0.59944
 C124 C 0.98584 0.71358 0.50933
 H125 H 0.97063 0.71250 0.49212
 C126 C 0.98421 0.69497 0.53143
 H127 H 0.96740 0.67980 0.53130
 C128 C 1.02622 0.73479 0.53024
 H129 H 1.04289 0.74998 0.52937
 C130 C 1.02538 0.71657 0.55279
 H131 H 1.04149 0.71795 0.56910
 N132 N 1.00647 0.73310 0.50922
 C133 C 0.97342 0.79579 0.45644
 H134 H 0.98930 0.79758 0.44004
 C135 C 0.95094 0.81255 0.45609
 H136 H 0.94945 0.82699 0.43904
 C137 C 0.95628 0.77484 0.49869
 H138 H 0.95875 0.76058 0.51566
 C139 C 0.93347 0.79119 0.49916
 H140 H 0.91862 0.78929 0.51659
 Zn141 Zn 1.00749 0.75642 0.47752
 N142 N 0.97561 0.77730 0.47744
 C143 C 0.98836 0.73390 0.42368
 N144 N 1.00879 0.73424 0.44395
 C145 C 1.02964 0.71673 0.44233
 C146 C 1.03035 0.69766 0.41983
 C147 C 0.98826 0.71513 0.40078
 C148 C 1.03968 0.79849 0.50254
 C149 C 1.06163 0.81757 0.50540
 C150 C 1.08140 0.79964 0.46149
 C151 C 1.05903 0.78084 0.45949
 N152 N 1.03882 0.78055 0.47996
 H153 H 0.97164 0.74758 0.42567
 H154 H 1.04528 0.71708 0.45910
 H155 H 1.04659 0.68329 0.41955
 H156 H 0.97167 0.71494 0.38501
 H157 H 1.02317 0.79798 0.51833
 H158 H 1.06203 0.83149 0.52372
 H159 H 1.09703 0.79992 0.44473
 H160 H 1.05764 0.76681 0.44135
 C161 C 0.93062 0.81044 0.47773
 C162 C 1.00420 0.69628 0.55352
 C163 C 1.08281 0.81843 0.48461
 C164 C 1.00924 0.69642 0.39889
 C165 C 0.46554 -0.01363 0.28720
 H166 H 0.48086 -0.02889 0.28745
 C167 C 0.44412 -0.01411 0.30747
 H168 H 0.44318 -0.02981 0.32333
 C169 C 0.44917 0.02619 0.26713
 H170 H 0.45150 0.04217 0.25178
 C171 C 0.42743 0.02649 0.28702
 H172 H 0.41289 0.04246 0.28629
 N173 N 0.46765 0.00629 0.26754
 C174 C 0.51858 -0.02514 0.19785
 H175 H 0.53419 -0.00889 0.19674
 C176 C 0.51954 -0.04714 0.17869
 H177 H 0.53573 -0.04668 0.16259
 C178 C 0.47777 -0.04353 0.21932
 H179 H 0.46144 -0.04200 0.23513
 C180 C 0.47782 -0.06593 0.20052
 H181 H 0.46182 -0.08155 0.20335
 Zn182 Zn 0.49891 0.00690 0.24281
 N183 N 0.49817 -0.02389 0.21791
 C184 C 0.54877 -0.01278 0.26528
 N185 N 0.53066 0.00743 0.26694
 C186 C 0.53347 0.02734 0.28750
 C187 C 0.55514 0.02738 0.30753
 C188 C 0.57072 -0.01352 0.28486
 C189 C 0.47834 0.03877 0.19961
 C190 C 0.47748 0.06038 0.18093
 C191 C 0.51997 0.07894 0.20242
 C192 C 0.51999 0.05696 0.22076
 N193 N 0.49922 0.03756 0.21920
 H194 H 0.54591 -0.02875 0.24924
 H195 H 0.51844 0.04286 0.28871
 H196 H 0.55659 0.04302 0.32417
 H197 H 0.58489 -0.02979 0.28317
 H198 H 0.46237 0.02280 0.19847
 H199 H 0.46081 0.06079 0.16531
 H200 H 0.53649 0.09436 0.20420
 H201 H 0.53670 0.05537 0.23608
 C202 C 0.49907 -0.06835 0.17973
 C203 C 0.42482 0.00626 0.30770
 C204 C 0.49846 0.08088 0.18220
 C205 C 0.57396 0.00657 0.30656
 C206 C 0.53301 -0.02692 0.71252
 H207 H 0.51660 -0.04248 0.71229
 C208 C 0.55411 -0.02766 0.69201
 H209 H 0.55404 -0.04416 0.67634
 C210 C 0.55275 0.01353 0.73325
 H211 H 0.55177 0.02987 0.74893
 C212 C 0.57432 0.01358 0.71309
 H213 H 0.58982 0.03001 0.71354
 N214 N 0.53271 -0.00660 0.73263
 C215 C 0.48052 -0.04003 0.80128
 H216 H 0.46450 -0.02547 0.80243
 C217 C 0.48017 -0.06142 0.82041
 H218 H 0.46382 -0.06310 0.83634
 C219 C 0.52199 -0.05472 0.77991
 H220 H 0.53854 -0.05181 0.76447
 C221 C 0.52245 -0.07636 0.79861
 H222 H 0.53912 -0.09021 0.79685
 Zn223 Zn 0.50163 -0.00662 0.75756
 N224 N 0.50117 -0.03713 0.78148
 C225 C 0.44959 -0.02686 0.73406
 N226 N 0.47000 -0.00710 0.73333
 C227 C 0.46946 0.01288 0.71379
 C228 C 0.44752 0.01392 0.69431
 C229 C 0.42722 -0.02666 0.71483
 C230 C 0.52378 0.02824 0.80125
 C231 C 0.52481 0.05054 0.82022
 C232 C 0.48204 0.06473 0.79944
 C233 C 0.48181 0.04217 0.78093
 N234 N 0.50262 0.02459 0.78194
 H235 H 0.45070 -0.04290 0.74934
 H236 H 0.48626 0.02802 0.71332
 H237 H 0.44770 0.02988 0.67876
 H238 H 0.41099 -0.04236 0.71584
 H239 H 0.53985 0.01374 0.80191
 H240 H 0.54199 0.05326 0.83520
 H241 H 0.46504 0.07822 0.79855
 H242 H 0.46472 0.03857 0.76610
 C243 C 0.50145 -0.07986 0.81934
 C244 C 0.57506 -0.00712 0.69197
 C245 C 0.50374 0.06918 0.81943
 C246 C 0.42597 -0.00599 0.69468
 C247 C 0.23076 0.03975 0.50523
 C248 C 0.24950 0.03654 0.53156
 C249 C 0.26527 0.01441 0.52960
 C250 C 0.26092 -0.00251 0.50162
 C251 C 0.25039 0.03994 0.47922
 C252 C 0.26616 0.01780 0.47740
 C253 C 0.21375 0.01311 0.50236
 C254 C 0.22948 -0.00894 0.50047
 H255 H 0.25075 0.05081 0.54967
 H256 H 0.27372 -0.02056 0.50008
 H257 H 0.25201 0.05624 0.46396
 H258 H 0.19120 0.01179 0.50191
 C259 C 0.77012 -0.03984 0.49504
 C260 C 0.75108 -0.04027 0.52153
 C261 C 0.73517 -0.01825 0.52383
 C262 C 0.73968 0.00214 0.49957
 C263 C 0.75075 -0.03671 0.46920
 C264 C 0.73483 -0.01474 0.47164
 C265 C 0.78698 -0.01308 0.49761
 C266 C 0.77109 0.00882 0.49999
 H267 H 0.74986 -0.05667 0.53669
 H268 H 0.72676 0.02008 0.50149
 H269 H 0.74916 -0.05097 0.45109
 H270 H 0.80953 -0.01159 0.49769
 C271 C 0.46035 0.27452 0.99721
 C272 C 0.46251 0.25463 0.97158
 C273 C 0.48568 0.23981 0.97247
 C274 C 0.50459 0.24623 0.99871
 C275 C 0.46206 0.25720 1.02411
 C276 C 0.48522 0.24236 1.02481
 C277 C 0.48751 0.29158 0.99698
 C278 C 0.51059 0.27685 0.99776
 H279 H 0.44660 0.25164 0.95507
 H280 H 0.52351 0.23427 0.99936
 H281 H 0.44575 0.25563 1.04023
 H282 H 0.48841 0.31346 0.99613
 C283 C 0.53932 0.72542 0.00370
 C284 C 0.53800 0.74325 -0.02286
 C285 C 0.51498 0.75831 -0.02342
 C286 C 0.49538 0.75413 0.00243
 C287 C 0.53713 0.74489 0.02968
 C288 C 0.51413 0.75994 0.02892
 C289 C 0.51204 0.70858 0.00337
 C290 C 0.48910 0.72352 0.00270
 H291 H 0.55442 0.74494 -0.03883
 H292 H 0.47656 0.76626 0.00190
 H293 H 0.55305 0.74764 0.04621
 H294 H 0.51094 0.68667 0.00350
 C295 C 1.00245 0.45789 0.27974
 C296 C 0.97681 0.45777 0.26017
 C297 C 0.97698 0.47891 0.24189
 C298 C 1.00265 0.49823 0.24471
 C299 C 1.02731 0.45878 0.25913
 C300 C 1.02733 0.47994 0.24084
 C301 C 1.00339 0.48550 0.29520
 C302 C 1.00350 0.50655 0.27683
 H303 H 0.96016 0.44233 0.26060
 H304 H 1.00273 0.51545 0.22977
 H305 H 1.04334 0.44408 0.25897
 H306 H 1.00391 0.48817 0.31855
 C307 C -0.00181 0.54063 0.71917
 C308 C -0.02681 0.54012 0.73960
 C309 C -0.02724 0.51903 0.75799
 C310 C -0.00280 0.50041 0.75438
 C311 C 0.02367 0.54052 0.73895
 C312 C 0.02307 0.51944 0.75734
 C313 C -0.00301 0.51297 0.70383
 C314 C -0.00353 0.49199 0.72230
 H315 H -0.04251 0.55517 0.73975
 H316 H -0.00322 0.48323 0.76938
 H317 H 0.04043 0.55586 0.73872
 H318 H -0.00342 0.51022 0.68049
 C319 C 0.12855 0.14831 0.48915
 C320 C 0.13813 0.13644 0.51417
 C321 C 0.12542 0.14177 0.54071
 C322 C 0.10304 0.15870 0.54220
 C323 C 0.09301 0.17047 0.51710
 C324 C 0.10616 0.16523 0.49059
 C325 C 0.15999 0.11769 0.51239
 C326 C 0.17762 0.10126 0.51082
 C327 C 0.19729 0.08110 0.50892
 C328 C 0.21308 0.06299 0.50726
 H329 H 0.13818 0.14426 0.46849
 H330 H 0.13252 0.13250 0.56017
 H331 H 0.09316 0.16206 0.56286
 H332 H 0.09917 0.17428 0.47096
 C333 C 0.66681 0.63996 0.00029
 C334 C 0.63888 0.63536 0.00756
 C335 C 0.62918 0.60948 0.01504
 C336 C 0.64723 0.58823 0.01508
 C337 C 0.67531 0.59255 0.00761
 C338 C 0.68493 0.61870 0.00031
 C339 C 0.61982 0.65686 0.00676
 C340 C 0.60300 0.67410 0.00604
 C341 C 0.58223 0.69323 0.00518
 C342 C 0.56348 0.70848 0.00448
 H343 H 0.67454 0.65991 -0.00552
 H344 H 0.60757 0.60566 0.02056
 H345 H 0.63905 0.56830 0.02036
 H346 H 0.70648 0.62274 -0.00522
 C347 C 0.85853 -0.16309 0.48826
 C348 C 0.86320 -0.13581 0.48210
 C349 C 0.88968 -0.12625 0.47392
 C350 C 0.91150 -0.14379 0.47214
 C351 C 0.90714 -0.17120 0.47857
 C352 C 0.88035 -0.18070 0.48650
 C353 C 0.84117 -0.11731 0.48483
 C354 C 0.82347 -0.10103 0.48721
 C355 C 0.80375 -0.08099 0.49003
 C356 C 0.78792 -0.06296 0.49236
 H357 H 0.83809 -0.17070 0.49459
 H358 H 0.89355 -0.10514 0.46924
 H359 H 0.93193 -0.13576 0.46641
 H360 H 0.87627 -0.20174 0.49126
 C361 C 0.37079 0.39072 1.00370
 C362 C 0.36091 0.36468 0.99589
 C363 C 0.33301 0.36009 0.98820
 C364 C 0.31506 0.38151 0.98836
 C365 C 0.32484 0.40777 0.99626
 C366 C 0.35293 0.41211 1.00389
 C367 C 0.37971 0.34294 0.99565
 C368 C 0.39644 0.32559 0.99569
 C369 C 0.41722 0.30645 0.99599
 C370 C 0.43604 0.29127 0.99644
 H371 H 0.39238 0.39453 1.00956
 H372 H 0.32513 0.34001 0.98213
 H373 H 0.29349 0.37748 0.98266
 H374 H 0.36122 0.43212 1.00962
 C375 C 0.85472 0.13532 0.53816
 C376 C 0.84744 0.12356 0.51134
 C377 C 0.86112 0.13225 0.48639
 C378 C 0.88236 0.15225 0.48826
 C379 C 0.89027 0.16382 0.51518
 C380 C 0.87597 0.15536 0.54009
 C381 C 0.82764 0.10107 0.50955
 C382 C 0.81226 0.08133 0.50772
 C383 C 0.79589 0.05716 0.50524
 C384 C 0.78355 0.03561 0.50292
 H385 H 0.84437 0.12863 0.55764
 H386 H 0.85587 0.12307 0.46555
 H387 H 0.89320 0.15798 0.46874
 H388 H 0.88135 0.16411 0.56108
 C389 C 0.38172 0.61737 -0.01039
 C390 C 0.37505 0.64339 -0.00150
 C391 C 0.34785 0.64848 0.00681
 C392 C 0.32742 0.62755 0.00628
 C393 C 0.33401 0.60128 -0.00258
 C394 C 0.36141 0.59648 -0.01093
 C395 C 0.39661 0.66436 -0.00033
 C396 C 0.41591 0.68062 0.00050
 C397 C 0.43996 0.69785 0.00134
 C398 C 0.46172 0.71072 0.00199
 H399 H 0.40275 0.61314 -0.01667
 H400 H 0.34247 0.66855 0.01377
 H401 H 0.30646 0.63195 0.01257
 H402 H 0.36730 0.57644 -0.01736
 C403 C 0.12130 -0.11420 0.49716
 C404 C 0.14854 -0.12040 0.49027
 C405 C 0.15447 -0.14668 0.48151
 C406 C 0.13314 -0.16669 0.47967
 C407 C 0.10566 -0.16060 0.48661
 C408 C 0.10002 -0.13410 0.49534
 C409 C 0.16996 -0.09933 0.49187
 C410 C 0.18646 -0.08044 0.49351
 C411 C 0.20382 -0.05690 0.49572
 C412 C 0.21672 -0.03563 0.49781
 H413 H 0.11645 -0.09388 0.50378
 H414 H 0.17550 -0.15168 0.47611
 H415 H 0.13816 -0.18696 0.47313
 H416 H 0.07905 -0.12863 0.50033
 C417 C 0.61823 0.38296 0.98680
 C418 C 0.62467 0.35701 0.99496
 C419 C 0.65182 0.35182 1.00317
 C420 C 0.67239 0.37262 1.00343
 C421 C 0.66600 0.39886 0.99549
 C422 C 0.63869 0.40373 0.98706
 C423 C 0.60295 0.33622 0.99567
 C424 C 0.58361 0.32003 0.99626
 C425 C 0.55958 0.30279 0.99689
 C426 C 0.53788 0.28984 0.99734
 H427 H 0.59724 0.38725 0.98059
 H428 H 0.65704 0.33181 1.00955
 H429 H 0.69328 0.36816 1.00973
 H430 H 0.63295 0.42375 0.98130
 C431 C 0.52184 0.13519 1.12988
 C432 C 0.49661 0.14650 1.12319
 C433 C 0.47212 0.13676 1.13621
 C434 C 0.47277 0.11564 1.15562
 C435 C 0.49797 0.10392 1.16228
 C436 C 0.52255 0.11406 1.14933
 C437 C 0.49559 0.16766 1.10248
 C438 C 0.49416 0.18515 1.08495
 C439 C 0.49179 0.20536 1.06422
 C440 C 0.48915 0.22236 1.04635
 H441 H 0.54091 0.14250 1.11984
 H442 H 0.45248 0.14538 1.13124
 H443 H 0.45357 0.10856 1.16552
 H444 H 0.54221 0.10527 1.15374
 C445 C 0.00839 0.66517 0.62746
 C446 C 0.00150 0.63807 0.62083
 C447 C -0.00451 0.63002 0.59231
 C448 C -0.00366 0.64895 0.57045
 C449 C 0.00323 0.67625 0.57684
 C450 C 0.00928 0.68416 0.60559
 C451 C 0.00077 0.61837 0.64312
 C452 C 0.00013 0.60138 0.66130
 C453 C -0.00061 0.58095 0.68196
 C454 C -0.00120 0.56302 0.69907
 H455 H 0.01305 0.67161 0.64949
 H456 H -0.00974 0.60907 0.58694
 H457 H -0.00800 0.64215 0.54848
 H458 H 0.01436 0.70507 0.61122
 C459 C 0.47849 0.86255 -0.13216
 C460 C 0.50382 0.85568 -0.12020
 C461 C 0.52829 0.86981 -0.12801
 C462 C 0.52751 0.89070 -0.14767
 C463 C 0.50218 0.89780 -0.15986
 C464 C 0.47765 0.88349 -0.15185
 C465 C 0.50486 0.83429 -0.09976
 C466 C 0.50633 0.81655 -0.08252
 C467 C 0.50870 0.79600 -0.06216
 C468 C 0.51127 0.77868 -0.04463
 H469 H 0.45941 0.85173 -0.12630
 H470 H 0.54800 0.86476 -0.11879
 H471 H 0.54669 0.90158 -0.15300
 H472 H 0.45787 0.88826 -0.16107
 C473 C 0.98451 0.36547 0.40325
 C474 C 0.99833 0.35994 0.37750
 C475 C 1.01087 0.33532 0.37357
 C476 C 1.00971 0.31629 0.39538
 C477 C 0.99587 0.32148 0.42175
 C478 C 0.98323 0.34656 0.42511
 C479 C 0.99981 0.37977 0.35534
 C480 C 1.00081 0.39686 0.33728
 C481 C 1.00170 0.41741 0.31674
 C482 C 1.00220 0.43542 0.29974
 H483 H 0.97494 0.38463 0.40661
 H484 H 1.02148 0.33075 0.35356
 H485 H 1.01891 0.29720 0.39084
 H486 H 0.97330 0.35243 0.44503
 C487 C 0.52593 0.87895 0.12891
 C488 C 0.50172 0.86368 0.12224
 C489 C 0.47658 0.87069 0.13463
 C490 C 0.47562 0.89294 0.15360
 C491 C 0.49989 0.90884 0.16058
 C492 C 0.52511 0.90122 0.14780
 C493 C 0.50284 0.84091 0.10253
 C494 C 0.50442 0.82204 0.08588
 C495 C 0.50702 0.80016 0.06623
 C496 C 0.50989 0.78170 0.04932
 H497 H 0.54559 0.87354 0.11963
 H498 H 0.45762 0.85910 0.12943
 H499 H 0.45547 0.89807 0.16169
 H500 H 0.54467 0.91162 0.15302
 C501 C -0.03242 0.35931 0.64752
 C502 C -0.00764 0.36932 0.66024
 C503 C 0.01707 0.35640 0.65474
 C504 C 0.01718 0.33410 0.63583
 C505 C -0.00745 0.32450 0.62209
 C506 C -0.03237 0.33700 0.62862
 C507 C -0.00711 0.39424 0.67667
 C508 C -0.00647 0.41581 0.68912
 C509 C -0.00555 0.44174 0.70217
 C510 C -0.00466 0.46440 0.71203
 H511 H -0.05162 0.36932 0.65143
 H512 H 0.03639 0.36405 0.66440
 H513 H 0.03661 0.32469 0.63150
 H514 H -0.05159 0.33031 0.61811
 C515 C 0.51068 0.11229 0.88805
 C516 C 0.50201 0.13714 0.87854
 C517 C 0.49468 0.13998 0.84957
 C518 C 0.49564 0.11801 0.83026
 C519 C 0.50395 0.09283 0.83968
 C520 C 0.51169 0.09029 0.86876
 C521 C 0.49973 0.15947 0.89864
 C522 C 0.49728 0.17809 0.91547
 C523 C 0.49381 0.19977 0.93519
 C524 C 0.49036 0.21812 0.95210
 H525 H 0.51628 0.10983 0.91045
 H526 H 0.48796 0.15911 0.84195
 H527 H 0.48992 0.12072 0.80794
 H528 H 0.51784 0.07111 0.87676
 C529 C 1.03177 0.64316 0.34491
 C530 C 1.00652 0.62923 0.33892
 C531 C 0.98196 0.63837 0.35095
 C532 C 0.98272 0.66087 0.36962
 C533 C 1.00812 0.67448 0.37658
 C534 C 1.03259 0.66568 0.36358
 C535 C 1.00603 0.60425 0.32258
 C536 C 1.00554 0.58267 0.31017
 C537 C 1.00488 0.55674 0.29711
 C538 C 1.00426 0.53410 0.28720
 H539 H 1.05092 0.63619 0.33579
 H540 H 0.96234 0.62758 0.34667
 H541 H 0.96359 0.66686 0.37958
 H542 H 1.05240 0.67593 0.36826
 C543 C 1.15227 0.48577 0.14513
 C544 C 1.12702 0.49805 0.14175
 C545 C 1.12227 0.51279 0.11706
 C546 C 1.14252 0.51499 0.09558
 C547 C 1.16811 0.50231 0.09826
 C548 C 1.17259 0.48784 0.12373
 C549 C 1.10571 0.49493 0.16328
 C550 C 1.08776 0.49197 0.18114
 C551 C 1.06670 0.48812 0.20194
 C552 C 1.04873 0.48453 0.21966
 H553 H 1.15626 0.47448 0.16434
 H554 H 1.10266 0.52222 0.11412
 H555 H 1.13718 0.52556 0.07635
 H556 H 1.19206 0.47864 0.12785
 C557 C 0.64559 -0.00038 0.65571
 C558 C 0.63888 -0.00809 0.62721
 C559 C 0.61134 -0.01511 0.61984
 C560 C 0.59061 -0.01462 0.64086
 C561 C 0.59713 -0.00712 0.66962
 C562 C 0.62484 0.00016 0.67679
 C563 C 0.66018 -0.00932 0.60553
 C564 C 0.67770 -0.01077 0.58708
 C565 C 0.69791 -0.01293 0.56522
 C566 C 0.71496 -0.01516 0.54641
 H567 H 0.66686 0.00502 0.66167
 H568 H 0.60590 -0.02104 0.59785
 H569 H 0.56942 -0.01990 0.63453
 H570 H 0.63055 0.00577 0.69879
 C571 C -0.11749 0.50952 0.88833
 C572 C -0.12502 0.50414 0.85955
 C573 C -0.15263 0.49691 0.85259
 C574 C -0.17269 0.49523 0.87434
 C575 C -0.16535 0.50086 0.90332
 C576 C -0.13749 0.50788 0.91008
 C577 C -0.10442 0.50652 0.83723
 C578 C -0.08692 0.50889 0.81881
 C579 C -0.06625 0.51206 0.79750
 C580 C -0.04850 0.51509 0.77945
 H581 H -0.09617 0.51506 0.89396
 H582 H -0.15869 0.49279 0.83035
 H583 H -0.19401 0.49003 0.86844
 H584 H -0.13110 0.51191 0.93222
 C585 C 0.37535 0.03216 0.36453
 C586 C 0.36171 0.00825 0.37319
 C587 C 0.36840 -0.01633 0.36021
 C588 C 0.38877 -0.01702 0.33875
 C589 C 0.40269 0.00692 0.32998
 C590 C 0.39569 0.03153 0.34309
 C591 C 0.34101 0.00907 0.39554
 C592 C 0.32380 0.01025 0.41433
 C593 C 0.30372 0.01223 0.43634
 C594 C 0.28661 0.01447 0.45509
 H595 H 0.37040 0.05129 0.37449
 H596 H 0.35792 -0.03496 0.36669
 H597 H 0.39348 -0.03623 0.32886
 H598 H 0.40630 0.05025 0.33718
 C599 C 0.13348 0.53225 0.86980
 C600 C 0.12376 0.50863 0.85543
 C601 C 0.13494 0.48396 0.86200
 C602 C 0.15567 0.48289 0.88302
 C603 C 0.16549 0.50653 0.89769
 C604 C 0.15419 0.53123 0.89078
 C605 C 0.10214 0.50983 0.83415
 C606 C 0.08397 0.51130 0.81646
 C607 C 0.06271 0.51358 0.79586
 C608 C 0.04460 0.51600 0.77831
 H609 H 0.12489 0.55144 0.86494
 H610 H 0.12760 0.46557 0.85095
 H611 H 0.16416 0.46363 0.88764
 H612 H 0.16097 0.54971 0.90200
 C613 C 0.62303 -0.02112 0.36149
 C614 C 0.63751 0.00233 0.37132
 C615 C 0.63139 0.02724 0.35987
 C616 C 0.61081 0.02870 0.33871
 C617 C 0.59613 0.00520 0.32870
 C618 C 0.60250 -0.01972 0.34037
 C619 C 0.65860 0.00057 0.39313
 C620 C 0.67615 -0.00170 0.41136
 C621 C 0.69661 -0.00528 0.43258
 C622 C 0.71403 -0.00915 0.45050
 H623 H 0.62752 -0.04050 0.37027
 H624 H 0.64253 0.04552 0.36726
 H625 H 0.60657 0.04814 0.32996
 H626 H 0.59127 -0.03811 0.33352
 C627 C 0.85967 0.46586 0.13720
 C628 C 0.87399 0.48961 0.14642
 C629 C 0.86723 0.51429 0.13486
 C630 C 0.84646 0.51517 0.11386
 C631 C 0.83226 0.49133 0.10412
 C632 C 0.83894 0.46669 0.11621
 C633 C 0.89605 0.48846 0.16721
 C634 C 0.91464 0.48702 0.18441
 C635 C 0.93644 0.48478 0.20440
 C636 C 0.95499 0.48238 0.22145
 H637 H 0.86470 0.44666 0.14607
 H638 H 0.87825 0.53278 0.14179
 H639 H 0.84204 0.53439 0.10471
 H640 H 0.82813 0.44806 0.10942
 C641 C 0.37033 0.02065 0.64642
 C642 C 0.36030 -0.00292 0.63217
 C643 C 0.37107 -0.02772 0.63903
 C644 C 0.39208 -0.02888 0.65979
 C645 C 0.40263 -0.00518 0.67382
 C646 C 0.39132 0.01956 0.66709
 C647 C 0.33948 -0.00130 0.61006
 C648 C 0.32228 0.00097 0.59148
 C649 C 0.30234 0.00465 0.56976
 C650 C 0.28542 0.00865 0.55135
 H651 H 0.36210 0.03995 0.64135
 H652 H 0.36350 -0.04609 0.62809
 H653 H 0.40056 -0.04817 0.66429
 H654 H 0.39871 0.03809 0.67782
   
