data_POSCAR
  _audit_creation_date              2014-09-24
  _audit_creation_method            'ToBaCCo'
  _symmetry_space_group_name_H-M    'P1'
  _symmetry_Int_Tables_number       1
  _symmetry_cell_setting            triclinic
  loop_
  _symmetry_equiv_pos_as_xyz
 x,y,z
_cell_length_a 29.8819
_cell_length_b 41.8682
_cell_length_c 29.8029
_cell_angle_alpha 89.821600
_cell_angle_beta 90.000000
_cell_angle_gamma 90.000000
loop_
  _atom_site_label
  _atom_site_type_symbol
  _atom_site_fract_x
  _atom_site_fract_y
  _atom_site_fract_z
O1 O 0.25470 0.28073 0.30725
 O2 O 0.19344 0.21860 0.24531
 O3 O 0.25486 0.21855 0.30728
 O4 O 0.19336 0.28078 0.24521
 O5 O 0.24575 0.28092 0.19310
 O6 O 0.30720 0.21869 0.25520
 O7 O 0.24583 0.21872 0.19318
 O8 O 0.30709 0.28086 0.25514
 Cu9 Cu 0.21884 0.24965 0.28148
 Cu10 Cu 0.28171 0.24981 0.21894
 C11 C 0.29139 0.29145 0.29181
 C12 C 0.20912 0.20801 0.20862
 C13 C 0.29164 0.20789 0.29195
 C14 C 0.20902 0.29152 0.20852
 O15 O 0.80666 0.28078 0.24521
 O16 O 0.74516 0.21855 0.30728
 O17 O 0.80658 0.21860 0.24531
 O18 O 0.74532 0.28073 0.30725
 O19 O 0.69292 0.28086 0.25514
 O20 O 0.75419 0.21872 0.19318
 O21 O 0.69282 0.21869 0.25520
 O22 O 0.75427 0.28092 0.19310
 Cu23 Cu 0.78117 0.24965 0.28148
 Cu24 Cu 0.71831 0.24981 0.21894
 C25 C 0.79100 0.29152 0.20852
 C26 C 0.70838 0.20789 0.29195
 C27 C 0.79090 0.20801 0.20862
 C28 C 0.70862 0.29145 0.29181
 O29 O 0.75470 0.78073 0.80725
 O30 O 0.69344 0.71860 0.74531
 O31 O 0.75486 0.71855 0.80728
 O32 O 0.69336 0.78078 0.74521
 O33 O 0.74575 0.78092 0.69310
 O34 O 0.80720 0.71869 0.75520
 O35 O 0.74583 0.71872 0.69318
 O36 O 0.80709 0.78086 0.75514
 Cu37 Cu 0.71884 0.74965 0.78148
 Cu38 Cu 0.78171 0.74981 0.71894
 C39 C 0.79139 0.79145 0.79181
 C40 C 0.70912 0.70801 0.70862
 C41 C 0.79164 0.70789 0.79195
 C42 C 0.70902 0.79152 0.70852
 O43 O 0.19292 0.78086 0.75514
 O44 O 0.25419 0.71872 0.69318
 O45 O 0.19282 0.71869 0.75520
 O46 O 0.25427 0.78092 0.69310
 O47 O 0.30666 0.78078 0.74521
 O48 O 0.24516 0.71855 0.80728
 O49 O 0.30658 0.71860 0.74531
 O50 O 0.24532 0.78073 0.80725
 Cu51 Cu 0.21831 0.74981 0.71894
 Cu52 Cu 0.28117 0.74965 0.78148
 C53 C 0.20862 0.79145 0.79181
 C54 C 0.29090 0.70801 0.70862
 C55 C 0.20838 0.70789 0.79195
 C56 C 0.29100 0.79152 0.70852
 C57 C 1.02359 0.02351 0.02380
 C58 C 0.97643 0.02351 0.02380
 C59 C 0.95317 -0.00011 0.00015
 C60 C 0.97643 -0.02373 -0.02350
 C61 C 1.02358 -0.02373 -0.02350
 C62 C 1.04685 -0.00011 0.00015
 H63 H 1.08316 -0.00011 0.00015
 H64 H 0.91686 -0.00011 0.00015
 C65 C 0.52359 0.52351 0.52380
 C66 C 0.47643 0.52351 0.52380
 C67 C 0.45317 0.49989 0.50015
 C68 C 0.47643 0.47627 0.47650
 C69 C 0.52358 0.47627 0.47650
 C70 C 0.54685 0.49989 0.50015
 H71 H 0.58316 0.49989 0.50015
 H72 H 0.41686 0.49989 0.50015
 C73 C -0.02357 0.47677 0.02345
 C74 C 0.02358 0.47677 0.02345
 C75 C 0.04685 0.50046 -0.00026
 C76 C 0.02359 0.52416 -0.02398
 C77 C -0.02357 0.52416 -0.02398
 C78 C -0.04683 0.50046 -0.00026
 H79 H -0.08314 0.50046 -0.00026
 H80 H 0.08316 0.50046 -0.00026
 C81 C 0.47643 0.97677 0.52345
 C82 C 0.52358 0.97677 0.52345
 C83 C 0.54685 1.00046 0.49974
 C84 C 0.52359 1.02416 0.47602
 C85 C 0.47643 1.02416 0.47602
 C86 C 0.45317 1.00046 0.49974
 H87 H 0.41686 1.00046 0.49974
 H88 H 0.58316 1.00046 0.49974
 C89 C 1.12033 0.14749 0.17662
 C90 C 1.13746 0.13564 0.13626
 C91 C 1.17802 0.14742 0.11956
 C92 C 1.20139 0.17096 0.14308
 C93 C 1.18445 0.18305 0.18370
 C94 C 1.14364 0.17103 0.20021
 C95 C 1.11337 0.11146 0.11199
 C96 C 1.09310 0.09124 0.09170
 C97 C 1.06921 0.06761 0.06800
 C98 C 1.04860 0.04750 0.04784
 H99 H 1.08895 0.13855 0.18984
 H100 H 1.19157 0.13842 0.08834
 H101 H 1.23269 0.17969 0.12945
 H102 H 1.12967 0.17981 0.23135
 C103 C 0.62033 0.64749 0.67662
 C104 C 0.63746 0.63564 0.63626
 C105 C 0.67802 0.64742 0.61956
 C106 C 0.70139 0.67096 0.64308
 C107 C 0.68445 0.68305 0.68370
 C108 C 0.64364 0.67103 0.70021
 C109 C 0.61337 0.61146 0.61199
 C110 C 0.59310 0.59124 0.59170
 C111 C 0.56921 0.56761 0.56800
 C112 C 0.54860 0.54750 0.54784
 H113 H 0.58895 0.63855 0.68984
 H114 H 0.69157 0.63842 0.58834
 H115 H 0.73269 0.67969 0.62945
 H116 H 0.62967 0.67981 0.73135
 C117 C -0.17787 0.35245 0.11939
 C118 C -0.13731 0.36415 0.13607
 C119 C -0.12016 0.35212 0.17642
 C120 C -0.14346 0.32849 0.20003
 C121 C -0.18429 0.31656 0.18355
 C122 C -0.20124 0.32882 0.14293
 C123 C -0.11324 0.38845 0.11178
 C124 C -0.09300 0.40876 0.09147
 C125 C -0.06916 0.43250 0.06773
 C126 C -0.04858 0.45269 0.04753
 H127 H -0.19144 0.36160 0.08818
 H128 H -0.08876 0.36100 0.18962
 H129 H -0.12948 0.31957 0.23117
 H130 H -0.23256 0.32016 0.12932
 C131 C 0.37984 0.85212 0.67642
 C132 C 0.36269 0.86415 0.63607
 C133 C 0.32213 0.85245 0.61939
 C134 C 0.29876 0.82882 0.64293
 C135 C 0.31571 0.81656 0.68355
 C136 C 0.35654 0.82849 0.70003
 C137 C 0.38676 0.88845 0.61178
 C138 C 0.40700 0.90876 0.59147
 C139 C 0.43084 0.93250 0.56773
 C140 C 0.45142 0.95269 0.54753
 H141 H 0.41124 0.86100 0.68962
 H142 H 0.30856 0.86160 0.58818
 H143 H 0.26744 0.82016 0.62932
 H144 H 0.37052 0.81957 0.73117
 C145 C -0.17812 0.64829 -0.11996
 C146 C -0.13762 0.63657 -0.13670
 C147 C -0.12061 0.64850 -0.17712
 C148 C -0.14395 0.67208 -0.20079
 C149 C -0.18485 0.68415 -0.18433
 C150 C -0.20159 0.67187 -0.14350
 C151 C -0.11346 0.61234 -0.11237
 C152 C -0.09315 0.59207 -0.09204
 C153 C -0.06922 0.56838 -0.06829
 C154 C -0.04859 0.54821 -0.04808
 H155 H -0.19158 0.63920 -0.08867
 H156 H -0.08925 0.63959 -0.19037
 H157 H -0.12983 0.68081 -0.23198
 H158 H -0.23285 0.68043 -0.12960
 C159 C 0.37939 1.14850 0.32288
 C160 C 0.36238 1.13657 0.36330
 C161 C 0.32188 1.14829 0.38004
 C162 C 0.29841 1.17187 0.35650
 C163 C 0.31515 1.18415 0.31567
 C164 C 0.35605 1.17208 0.29921
 C165 C 0.38654 1.11234 0.38763
 C166 C 0.40685 1.09207 0.40796
 C167 C 0.43078 1.06838 0.43171
 C168 C 0.45141 1.04821 0.45192
 H169 H 0.41075 1.13959 0.30963
 H170 H 0.30842 1.13920 0.41133
 H171 H 0.26715 1.18043 0.37040
 H172 H 0.37017 1.18081 0.26802
 C173 C 1.11996 -0.14793 -0.17620
 C174 C 1.13715 -0.13606 -0.13588
 C175 C 1.17768 -0.14788 -0.11918
 C176 C 1.20098 -0.17147 -0.14268
 C177 C 1.18399 -0.18356 -0.18327
 C178 C 1.14319 -0.17151 -0.19977
 C179 C 1.11315 -0.11182 -0.11163
 C180 C 1.09296 -0.09155 -0.09135
 C181 C 1.06915 -0.06788 -0.06767
 C182 C 1.04859 -0.04773 -0.04752
 H183 H 1.08859 -0.13895 -0.18942
 H184 H 1.19128 -0.13886 -0.08798
 H185 H 1.23227 -0.18022 -0.12905
 H186 H 1.12919 -0.18030 -0.23089
 C187 C 0.61996 0.35207 0.32380
 C188 C 0.63715 0.36394 0.36412
 C189 C 0.67768 0.35212 0.38082
 C190 C 0.70098 0.32853 0.35732
 C191 C 0.68399 0.31644 0.31673
 C192 C 0.64319 0.32849 0.30023
 C193 C 0.61315 0.38818 0.38837
 C194 C 0.59296 0.40845 0.40865
 C195 C 0.56915 0.43212 0.43233
 C196 C 0.54859 0.45227 0.45248
 H197 H 0.58859 0.36105 0.31058
 H198 H 0.69128 0.36114 0.41202
 H199 H 0.73227 0.31978 0.37095
 H200 H 0.62919 0.31970 0.26911
 C201 C 0.88006 -0.14793 -0.17620
 C202 C 0.86287 -0.13606 -0.13588
 C203 C 0.82234 -0.14788 -0.11918
 C204 C 0.79904 -0.17147 -0.14268
 C205 C 0.81603 -0.18356 -0.18327
 C206 C 0.85683 -0.17151 -0.19977
 C207 C 0.88687 -0.11182 -0.11163
 C208 C 0.90706 -0.09155 -0.09135
 C209 C 0.93087 -0.06788 -0.06767
 C210 C 0.95143 -0.04773 -0.04752
 H211 H 0.91142 -0.13895 -0.18942
 H212 H 0.80874 -0.13886 -0.08798
 H213 H 0.76775 -0.18022 -0.12905
 H214 H 0.87083 -0.18030 -0.23089
 C215 C 0.38006 0.35207 0.32380
 C216 C 0.36287 0.36394 0.36412
 C217 C 0.32234 0.35212 0.38082
 C218 C 0.29904 0.32853 0.35732
 C219 C 0.31603 0.31644 0.31673
 C220 C 0.35683 0.32849 0.30023
 C221 C 0.38687 0.38818 0.38837
 C222 C 0.40706 0.40845 0.40865
 C223 C 0.43087 0.43212 0.43233
 C224 C 0.45143 0.45227 0.45248
 H225 H 0.41142 0.36105 0.31058
 H226 H 0.30874 0.36114 0.41202
 H227 H 0.26775 0.31978 0.37095
 H228 H 0.37083 0.31970 0.26911
 C229 C 0.17814 0.64829 -0.11996
 C230 C 0.13764 0.63657 -0.13670
 C231 C 0.12062 0.64850 -0.17712
 C232 C 0.14397 0.67208 -0.20079
 C233 C 0.18486 0.68415 -0.18433
 C234 C 0.20161 0.67187 -0.14350
 C235 C 0.11348 0.61234 -0.11237
 C236 C 0.09316 0.59207 -0.09204
 C237 C 0.06924 0.56838 -0.06829
 C238 C 0.04861 0.54821 -0.04808
 H239 H 0.19160 0.63920 -0.08867
 H240 H 0.08927 0.63959 -0.19037
 H241 H 0.12985 0.68081 -0.23198
 H242 H 0.23287 0.68043 -0.12960
 C243 C 0.67814 1.14829 0.38004
 C244 C 0.63764 1.13657 0.36330
 C245 C 0.62062 1.14850 0.32288
 C246 C 0.64397 1.17208 0.29921
 C247 C 0.68486 1.18415 0.31567
 C248 C 0.70161 1.17187 0.35650
 C249 C 0.61348 1.11234 0.38763
 C250 C 0.59316 1.09207 0.40796
 C251 C 0.56924 1.06838 0.43171
 C252 C 0.54861 1.04821 0.45192
 H253 H 0.69160 1.13920 0.41133
 H254 H 0.58927 1.13959 0.30963
 H255 H 0.62985 1.18081 0.26802
 H256 H 0.73287 1.18043 0.37040
 C257 C 0.12017 0.35212 0.17642
 C258 C 0.13732 0.36415 0.13607
 C259 C 0.17789 0.35245 0.11939
 C260 C 0.20126 0.32882 0.14293
 C261 C 0.18431 0.31656 0.18355
 C262 C 0.14348 0.32849 0.20003
 C263 C 0.11326 0.38845 0.11178
 C264 C 0.09302 0.40876 0.09147
 C265 C 0.06918 0.43250 0.06773
 C266 C 0.04859 0.45269 0.04753
 H267 H 0.08878 0.36100 0.18962
 H268 H 0.19146 0.36160 0.08818
 H269 H 0.23258 0.32016 0.12932
 H270 H 0.12950 0.31957 0.23117
 C271 C 0.62017 0.85212 0.67642
 C272 C 0.63732 0.86415 0.63607
 C273 C 0.67789 0.85245 0.61939
 C274 C 0.70126 0.82882 0.64293
 C275 C 0.68431 0.81656 0.68355
 C276 C 0.64348 0.82849 0.70003
 C277 C 0.61326 0.88845 0.61178
 C278 C 0.59302 0.90876 0.59147
 C279 C 0.56918 0.93250 0.56773
 C280 C 0.54859 0.95269 0.54753
 H281 H 0.58878 0.86100 0.68962
 H282 H 0.69146 0.86160 0.58818
 H283 H 0.73258 0.82016 0.62932
 H284 H 0.62950 0.81957 0.73117
 C285 C 0.87968 0.14749 0.17662
 C286 C 0.86256 0.13564 0.13626
 C287 C 0.82200 0.14742 0.11956
 C288 C 0.79863 0.17096 0.14308
 C289 C 0.81557 0.18305 0.18370
 C290 C 0.85638 0.17103 0.20021
 C291 C 0.88664 0.11146 0.11199
 C292 C 0.90692 0.09124 0.09170
 C293 C 0.93081 0.06761 0.06800
 C294 C 0.95142 0.04750 0.04784
 H295 H 0.91107 0.13855 0.18984
 H296 H 0.80845 0.13842 0.08834
 H297 H 0.76733 0.17969 0.12945
 H298 H 0.87035 0.17981 0.23135
 C299 C 0.32200 0.64742 0.61956
 C300 C 0.36256 0.63564 0.63626
 C301 C 0.37968 0.64749 0.67662
 C302 C 0.35638 0.67103 0.70021
 C303 C 0.31557 0.68305 0.68370
 C304 C 0.29863 0.67096 0.64308
 C305 C 0.38664 0.61146 0.61199
 C306 C 0.40692 0.59124 0.59170
 C307 C 0.43081 0.56761 0.56800
 C308 C 0.45142 0.54750 0.54784
 H309 H 0.30845 0.63842 0.58834
 H310 H 0.41107 0.63855 0.68984
 H311 H 0.37035 0.67981 0.73135
 H312 H 0.26733 0.67969 0.62945
   
