data_POSCAR
  _audit_creation_date              2014-09-24
  _audit_creation_method            'ToBaCCo'
  _symmetry_space_group_name_H-M    'P1'
  _symmetry_Int_Tables_number       1
  _symmetry_cell_setting            triclinic
  loop_
  _symmetry_equiv_pos_as_xyz
 x,y,z
_cell_length_a 36.5058
_cell_length_b 39.8492
_cell_length_c 35.9519
_cell_angle_alpha 90.007700
_cell_angle_beta 89.676500
_cell_angle_gamma 89.658900
loop_
  _atom_site_label
  _atom_site_type_symbol
  _atom_site_fract_x
  _atom_site_fract_y
  _atom_site_fract_z
C1 C 0.20078 0.20751 0.24317
 C2 C 0.22589 0.18902 0.22185
 C3 C 0.23597 0.19992 0.18630
 C4 C 0.22127 0.22977 0.17204
 C5 C 0.19620 0.24855 0.19336
 C6 C 0.18586 0.23739 0.22897
 H7 H 0.23682 0.16551 0.23252
 H8 H 0.22858 0.23797 0.14420
 H9 H 0.16573 0.25143 0.24503
 C10 C -0.18827 0.80753 0.23159
 C11 C -0.17648 0.77668 0.21696
 C12 C -0.19896 0.75899 0.19228
 C13 C -0.23327 0.77219 0.18235
 C14 C -0.24503 0.80300 0.19715
 C15 C -0.22257 0.82050 0.22175
 H16 H -0.14967 0.76677 0.22407
 H17 H -0.25027 0.75900 0.16256
 H18 H -0.23142 0.84474 0.23241
 C19 C -0.17766 0.19614 -0.22669
 C20 C -0.16901 0.22846 -0.21420
 C21 C -0.18771 0.24214 -0.18345
 C22 C -0.21490 0.22352 -0.16525
 C23 C -0.22343 0.19125 -0.17780
 C24 C -0.20488 0.17767 -0.20848
 H25 H -0.14776 0.24280 -0.22805
 H26 H -0.22909 0.23403 -0.14129
 H27 H -0.21149 0.15259 -0.21810
 C28 C 0.18508 0.79556 -0.23490
 C29 C 0.17143 0.76536 -0.22059
 C30 C 0.19013 0.74895 -0.19170
 C31 C 0.22225 0.76282 -0.17717
 C32 C 0.23566 0.79303 -0.19154
 C33 C 0.21718 0.80917 -0.22046
 H34 H 0.14613 0.75510 -0.23126
 H35 H 0.23617 0.75057 -0.15426
 H36 H 0.22726 0.83289 -0.23116
 C37 C 0.19061 1.19557 0.76595
 C38 C 0.17225 1.22231 0.78328
 C39 C 0.18564 1.23569 0.81651
 C40 C 0.21757 1.22248 0.83236
 C41 C 0.23605 1.19575 0.81510
 C42 C 0.22257 1.18228 0.78185
 H43 H 0.14716 1.23219 0.77139
 H44 H 0.22757 1.23252 0.85842
 H45 H 0.23639 1.16111 0.76887
 C46 C 0.82808 0.80069 0.74588
 C47 C 0.84354 0.77359 0.76513
 C48 C 0.82667 0.76145 0.79747
 C49 C 0.79417 0.77630 0.81051
 C50 C 0.77864 0.80342 0.79132
 C51 C 0.79556 0.81561 0.75898
 H52 H 0.86906 0.76242 0.75539
 H53 H 0.78139 0.76728 0.83591
 H54 H 0.78390 0.83706 0.74459
 C55 C 0.19670 0.80511 1.23269
 C56 C 0.18027 0.77468 1.22318
 C57 C 0.19561 0.75442 1.19534
 C58 C 0.22769 0.76448 1.17695
 C59 C 0.24437 0.79491 1.18649
 C60 C 0.22884 0.81523 1.21440
 H61 H 0.15509 0.76704 1.23690
 H62 H 0.23918 0.74907 1.15487
 H63 H 0.24134 0.83904 1.22131
 C64 C 0.78557 1.20428 1.23759
 C65 C 0.79899 1.23525 1.22546
 C66 C 0.78451 1.25047 1.19365
 C67 C 0.75627 1.23481 1.17395
 C68 C 0.74267 1.20384 1.18621
 C69 C 0.75733 1.18864 1.21802
 H70 H 0.82140 1.24709 1.24012
 H71 H 0.74558 1.24623 1.14886
 H72 H 0.74736 1.16431 1.22695
 O73 O 0.54099 0.96362 0.91873
 O74 O 0.46410 0.96306 1.06084
 O75 O 0.54233 0.94399 1.03205
 O76 O 0.42658 0.97835 0.95036
 O77 O 0.52865 0.97920 1.07278
 O78 O 0.47331 0.95760 0.92138
 O79 O 0.44250 0.94832 1.00810
 O80 O 0.55795 0.93919 0.96908
 C81 C 0.55808 0.94077 0.93478
 C82 C 0.44747 0.94204 1.04139
 C83 C 0.54157 0.95136 1.06499
 C84 C 0.43980 0.95767 0.92788
 O85 O 0.46730 1.02475 0.92340
 O86 O 0.51673 1.03893 1.04487
 O87 O 0.57761 1.00438 0.96477
 O88 O 0.40466 1.00155 1.01741
 O89 O 0.45039 1.02828 1.04339
 O90 O 0.53732 1.02733 0.92623
 O91 O 0.44602 1.03556 0.97820
 O92 O 0.56655 1.01077 1.03145
 Co93 Co 0.50385 0.99308 0.92879
 Co94 Co 0.49080 1.00075 1.04915
 Co95 Co 0.55637 0.97575 0.99927
 Co96 Co 0.44711 0.99167 0.99392
 O97 O 0.50185 0.98912 0.98983
 C98 C 0.44907 1.04322 0.94488
 C99 C 0.55088 1.03736 1.04253
 C100 C 0.56899 1.02569 0.93995
 C101 C 0.41622 1.02195 1.04339
 O102 O 0.03930 0.47971 0.06354
 O103 O 0.03223 0.52914 -0.06288
 O104 O 0.00060 0.42970 -0.02427
 O105 O 0.04108 0.54043 0.05423
 O106 O 0.03078 0.46569 -0.05903
 O107 O 0.01016 0.52556 0.10289
 O108 O 0.05612 0.54110 -0.01034
 O109 O 0.01105 0.43557 0.04254
 C110 C 0.03852 0.44867 0.05812
 C111 C 0.05759 0.54171 -0.04466
 C112 C 0.02554 0.43638 -0.04768
 C113 C 0.03336 0.54602 0.08800
 O114 O -0.04884 0.52261 0.06586
 O115 O -0.03929 0.46772 -0.06568
 O116 O -0.05928 0.46270 0.04814
 O117 O -0.01040 0.56821 -0.02708
 O118 O -0.03870 0.53096 -0.06147
 O119 O -0.02313 0.46844 0.09192
 O120 O -0.02650 0.56589 0.03895
 O121 O -0.06747 0.45775 -0.01492
 Co122 Co -0.00441 0.50211 0.06244
 Co123 Co -0.00407 0.49849 -0.05566
 Co124 Co -0.02703 0.45036 0.01261
 Co125 Co 0.01315 0.54932 0.01338
 O126 O -0.00681 0.49885 0.00575
 C127 C -0.05121 0.55285 0.05813
 C128 C -0.06642 0.45647 -0.04909
 C129 C -0.05199 0.45612 0.08078
 C130 C -0.03382 0.56069 -0.05145
 O131 O 1.08234 0.02399 0.45886
 O132 O 0.93643 0.04118 0.52351
 O133 O 0.97825 0.06330 0.43538
 O134 O 1.02154 0.04840 0.55091
 O135 O 0.93003 0.03821 0.45498
 O136 O 1.07298 0.03493 0.52621
 O137 O 0.96597 0.01707 0.56770
 O138 O 1.04090 0.05901 0.44742
 C139 C 1.07360 0.05243 0.44826
 C140 C 0.94382 0.03897 0.55715
 C141 C 0.94459 0.06170 0.43784
 C142 C 1.05430 0.05468 0.54576
 O143 O 1.05741 -0.03103 0.53496
 O144 O 0.93811 -0.02531 0.45388
 O145 O 1.04136 -0.00621 0.41908
 O146 O 0.99341 -0.03870 0.54142
 O147 O 0.93853 -0.02629 0.52476
 O148 O 1.05666 -0.03700 0.46673
 O149 O 1.03286 -0.00711 0.58440
 O150 O 0.97456 -0.00124 0.41205
 Co151 Co 1.06102 -0.00067 0.49617
 Co152 Co 0.94208 0.00719 0.48987
 Co153 Co 1.00883 0.02721 0.43335
 Co154 Co 1.00808 0.00531 0.54341
 O155 O 1.00211 0.01117 0.48855
 C156 C 1.05805 -0.02695 0.57015
 C157 C 0.95040 -0.02273 0.42112
 C158 C 1.05369 -0.03331 0.43238
 C159 C 0.96059 -0.04620 0.53964
 C160 C 1.13834 0.11798 0.39148
 C161 C 1.16724 0.10622 0.36848
 C162 C 1.18228 0.12757 0.34075
 C163 C 1.16823 0.16054 0.33616
 C164 C 1.14110 0.17303 0.36083
 C165 C 1.12615 0.15169 0.38866
 C166 C 1.09856 0.16452 0.41262
 C167 C 1.08613 0.19751 0.40922
 C168 C 1.10072 0.21834 0.38195
 C169 C 1.12788 0.20635 0.35791
 C170 C 1.21071 0.11502 0.31757
 C171 C 1.22385 0.08233 0.32169
 C172 C 1.20907 0.06145 0.34879
 C173 C 1.18105 0.07312 0.37198
 C174 C 1.17964 0.18025 0.30419
 C175 C 1.18922 0.19441 0.27617
 C176 C 1.11812 0.09448 0.41449
 C177 C 1.09913 0.07499 0.43132
 H178 H 1.08651 0.14927 0.43434
 H179 H 1.06506 0.20695 0.42784
 H180 H 1.09095 0.24394 0.37941
 H181 H 1.13852 0.22347 0.33719
 H182 H 1.22317 0.13033 0.29618
 H183 H 1.24563 0.07316 0.30375
 H184 H 1.21939 0.03608 0.35189
 H185 H 1.17050 0.05603 0.39279
 C186 C 0.90886 -0.08757 0.34424
 C187 C 0.91332 -0.12260 0.34930
 C188 C 0.89535 -0.14538 0.32514
 C189 C 0.87304 -0.13298 0.29609
 C190 C 0.86956 -0.09793 0.29029
 C191 C 0.88754 -0.07516 0.31443
 C192 C 0.88339 -0.04025 0.30829
 C193 C 0.86214 -0.02817 0.27907
 C194 C 0.84453 -0.05041 0.25549
 C195 C 0.84808 -0.08490 0.26090
 C196 C 0.89991 -0.18027 0.33095
 C197 C 0.92153 -0.19234 0.35990
 C198 C 0.93901 -0.17008 0.38360
 C199 C 0.93515 -0.13558 0.37841
 C200 C 0.85235 -0.15599 0.27309
 C201 C 0.83391 -0.17390 0.25380
 C202 C 0.92462 -0.06436 0.37074
 C203 C 0.93682 -0.04519 0.39338
 H204 H 0.89659 -0.02195 0.32588
 H205 H 0.85935 -0.00140 0.27470
 H206 H 0.82804 -0.04090 0.23284
 H207 H 0.83388 -0.10118 0.24175
 H208 H 0.88687 -0.19854 0.31320
 H209 H 0.92475 -0.21911 0.36395
 H210 H 0.95583 -0.17958 0.40599
 H211 H 0.94952 -0.11927 0.39739
 C212 C 0.89945 0.10453 0.63259
 C213 C 0.92288 0.12551 0.65342
 C214 C 0.90792 0.14717 0.68110
 C215 C 0.86966 0.14771 0.68773
 C216 C 0.84616 0.12745 0.66610
 C217 C 0.86111 0.10579 0.63846
 C218 C 0.83712 0.08558 0.61741
 C219 C 0.79940 0.08674 0.62349
 C220 C 0.78476 0.10791 0.65052
 C221 C 0.80772 0.12807 0.67167
 C222 C 0.93184 0.16771 0.70180
 C223 C 0.96952 0.16694 0.69527
 C224 C 0.98418 0.14578 0.66819
 C225 C 0.96125 0.12522 0.64744
 C226 C 0.85440 0.16737 0.71813
 C227 C 0.84015 0.18193 0.74386
 C228 C 0.91480 0.08118 0.60564
 C229 C 0.92770 0.06173 0.58344
 H230 H 0.84720 0.06872 0.59604
 H231 H 0.78145 0.07112 0.60712
 H232 H 0.75544 0.10874 0.65513
 H233 H 0.79497 0.14418 0.69229
 H234 H 0.92167 0.18462 0.72308
 H235 H 0.98744 0.18285 0.71131
 H236 H 1.01346 0.14528 0.66321
 H237 H 0.97391 0.10920 0.62667
 C238 C 1.10733 -0.09593 0.63777
 C239 C 1.09195 -0.12843 0.64019
 C240 C 1.10646 -0.15220 0.66574
 C241 C 1.13664 -0.14352 0.68822
 C242 C 1.15247 -0.11121 0.68526
 C243 C 1.13775 -0.08737 0.65996
 C244 C 1.15396 -0.05525 0.65752
 C245 C 1.18383 -0.04686 0.67954
 C246 C 1.19821 -0.07013 0.70435
 C247 C 1.18285 -0.10196 0.70728
 C248 C 1.09019 -0.18426 0.66823
 C249 C 1.06052 -0.19270 0.64593
 C250 C 1.04660 -0.16961 0.62063
 C251 C 1.06207 -0.13783 0.61763
 C252 C 1.15165 -0.16747 0.71454
 C253 C 1.16579 -0.18564 0.73717
 C254 C 1.09106 -0.07100 0.61341
 C255 C 1.07671 -0.05050 0.59355
 H256 H 1.14382 -0.03634 0.63852
 H257 H 1.19588 -0.02218 0.67733
 H258 H 1.22143 -0.06352 0.72140
 H259 H 1.19508 -0.11914 0.72699
 H260 H 1.10020 -0.20308 0.68741
 H261 H 1.04834 -0.21731 0.64824
 H262 H 1.02357 -0.17628 0.60335
 H263 H 1.05026 -0.12072 0.59757
 C264 C 0.34660 1.08791 1.09484
 C265 C 0.34228 1.12018 1.07885
 C266 C 0.31896 1.14425 1.09621
 C267 C 0.30069 1.13610 1.12978
 C268 C 0.30498 1.10381 1.14575
 C269 C 0.32795 1.07961 1.12815
 C270 C 0.33184 1.04751 1.14458
 C271 C 0.31358 1.03956 1.17753
 C272 C 0.29114 1.06322 1.19480
 C273 C 0.28678 1.09500 1.17922
 C274 C 0.31459 1.17615 1.07946
 C275 C 0.33292 1.18411 1.04655
 C276 C 0.35611 1.16073 1.02980
 C277 C 0.36092 1.12913 1.04572
 C278 C 0.27777 1.16082 1.14838
 C279 C 0.25839 1.18006 1.16535
 C280 C 0.37059 1.06347 1.07722
 C281 C 0.39104 1.04385 1.06219
 H282 H 0.34901 1.02826 1.13218
 H283 H 0.31689 1.01490 1.18973
 H284 H 0.27703 1.05694 1.22041
 H285 H 0.26898 1.11250 1.19371
 H286 H 0.29694 1.19520 1.09157
 H287 H 0.32920 1.20859 1.03404
 H288 H 0.37035 1.16703 1.00427
 H289 H 0.37925 1.11180 1.03166
 C290 C 0.37167 0.88973 0.87971
 C291 C 0.36293 0.85987 0.89911
 C292 C 0.33658 0.83751 0.88429
 C293 C 0.31937 0.84511 0.85014
 C294 C 0.32899 0.87444 0.83017
 C295 C 0.35522 0.89684 0.84504
 C296 C 0.36414 0.92620 0.82483
 C297 C 0.34757 0.93322 0.79086
 C298 C 0.32188 0.91132 0.77630
 C299 C 0.31259 0.88223 0.79558
 C300 C 0.32783 0.80805 0.90435
 C301 C 0.34484 0.80078 0.93804
 C302 C 0.37080 0.82253 0.95243
 C303 C 0.37975 0.85185 0.93338
 C304 C 0.29033 0.82398 0.83625
 C305 C 0.26514 0.80832 0.82374
 C306 C 0.39647 0.91375 0.89607
 C307 C 0.41650 0.93391 0.91014
 H308 H 0.38401 0.94398 0.83499
 H309 H 0.35471 0.95578 0.77577
 H310 H 0.30906 0.91688 0.74990
 H311 H 0.29253 0.86596 0.78302
 H312 H 0.30791 0.79033 0.89415
 H313 H 0.33784 0.77814 0.95305
 H314 H 0.38391 0.81678 0.97862
 H315 H 0.39999 0.86806 0.94577
 C316 C 0.60934 0.89628 1.13079
 C317 C 0.64549 0.90879 1.13310
 C318 C 0.67371 0.88846 1.14838
 C319 C 0.66565 0.85568 1.16118
 C320 C 0.62923 0.84373 1.16033
 C321 C 0.60094 0.86415 1.14512
 C322 C 0.56478 0.85164 1.14424
 C323 C 0.55674 0.81984 1.15809
 C324 C 0.58440 0.79985 1.17291
 C325 C 0.62031 0.81152 1.17405
 C326 C 0.70973 0.90143 1.15003
 C327 C 0.71764 0.93342 1.13674
 C328 C 0.69008 0.95322 1.12158
 C329 C 0.65435 0.94125 1.11984
 C330 C 0.69530 0.83444 1.17438
 C331 C 0.72165 0.81878 1.18482
 C332 C 0.58207 0.91536 1.11044
 C333 C 0.56191 0.93169 1.09108
 H334 H 0.54239 0.86637 1.13308
 H335 H 0.52889 0.81067 1.15732
 H336 H 0.57801 0.77517 1.18361
 H337 H 0.64094 0.79514 1.18586
 H338 H 0.73217 0.88705 1.16158
 H339 H 0.74534 0.94288 1.13816
 H340 H 0.69640 0.97801 1.11113
 H341 H 0.63383 0.95777 1.10809
 C342 C 0.64764 1.08900 0.90049
 C343 C 0.65141 1.12184 0.91493
 C344 C 0.67833 1.14366 0.89986
 C345 C 0.70124 1.13247 0.87045
 C346 C 0.69775 1.09947 0.85628
 C347 C 0.67086 1.07766 0.87136
 C348 C 0.66777 1.04482 0.85667
 C349 C 0.69054 1.03390 0.82783
 C350 C 0.71690 1.05521 0.81312
 C351 C 0.72059 1.08763 0.82707
 C352 C 0.68158 1.17641 0.91464
 C353 C 0.65878 1.18734 0.94346
 C354 C 0.63237 1.16603 0.95811
 C355 C 0.62864 1.13361 0.94419
 C356 C 0.72811 1.15486 0.85426
 C357 C 0.75068 1.17256 0.83977
 C358 C 0.61961 1.06696 0.91514
 C359 C 0.59639 1.04831 0.92674
 H360 H 0.64778 1.02725 0.86726
 H361 H 0.68775 1.00875 0.81686
 H362 H 0.73457 1.04659 0.79076
 H363 H 0.74153 1.10324 0.81470
 H364 H 0.70172 1.19388 0.90411
 H365 H 0.66157 1.21248 0.95444
 H366 H 0.61461 1.17470 0.98029
 H367 H 0.60774 1.11795 0.95657
 C368 C 0.10671 0.38224 0.10971
 C369 C 0.08916 0.36311 0.13779
 C370 C 0.10863 0.33703 0.15620
 C371 C 0.14554 0.33014 0.14643
 C372 C 0.16339 0.34987 0.11908
 C373 C 0.14392 0.37604 0.10072
 C374 C 0.16229 0.39539 0.07351
 C375 C 0.19893 0.38914 0.06472
 C376 C 0.21791 0.36345 0.08250
 C377 C 0.20048 0.34394 0.10938
 C378 C 0.09042 0.31816 0.18402
 C379 C 0.05401 0.32485 0.19338
 C380 C 0.03494 0.35031 0.17538
 C381 C 0.05215 0.36929 0.14790
 C382 C 0.16450 0.30199 0.16360
 C383 C 0.17932 0.27797 0.17752
 C384 C 0.08574 0.40742 0.08961
 C385 C 0.06575 0.42714 0.07419
 H386 H 0.14857 0.41554 0.05887
 H387 H 0.21260 0.40420 0.04385
 H388 H 0.24633 0.35863 0.07544
 H389 H 0.21639 0.32431 0.12254
 H390 H 0.10409 0.29813 0.19889
 H391 H 0.04054 0.31019 0.21474
 H392 H 0.00666 0.35543 0.18275
 H393 H 0.03611 0.38887 0.13482
 C394 C -0.13014 0.39172 -0.10704
 C395 C -0.16019 0.37473 -0.09088
 C396 C -0.17435 0.34558 -0.10833
 C397 C -0.15840 0.33371 -0.14188
 C398 C -0.12979 0.35188 -0.15917
 C399 C -0.11563 0.38100 -0.14171
 C400 C -0.08653 0.39841 -0.15915
 C401 C -0.07187 0.38738 -0.19289
 C402 C -0.08568 0.35886 -0.20995
 C403 C -0.11431 0.34122 -0.19341
 C404 C -0.20389 0.32856 -0.09123
 C405 C -0.21907 0.34009 -0.05789
 C406 C -0.20528 0.36867 -0.04092
 C407 C -0.17611 0.38586 -0.05707
 C408 C -0.16970 0.30178 -0.15734
 C409 C -0.17817 0.27479 -0.16962
 C410 C -0.11107 0.41734 -0.08615
 C411 C -0.09236 0.43662 -0.06894
 H412 H -0.07496 0.42081 -0.14704
 H413 H -0.04965 0.40102 -0.20586
 H414 H -0.07417 0.35037 -0.23614
 H415 H -0.12422 0.31924 -0.20779
 H416 H -0.21561 0.30628 -0.10347
 H417 H -0.24166 0.32677 -0.04517
 H418 H -0.21714 0.37749 -0.01501
 H419 H -0.16625 0.40798 -0.04289
 C420 C 0.11629 0.61201 -0.10029
 C421 C 0.09473 0.64096 -0.10770
 C422 C 0.10994 0.66806 -0.12814
 C423 C 0.14671 0.66626 -0.14075
 C424 C 0.16821 0.63731 -0.13344
 C425 C 0.15291 0.61008 -0.11316
 C426 C 0.17486 0.58144 -0.10615
 C427 C 0.21099 0.57972 -0.11880
 C428 C 0.22597 0.60633 -0.13862
 C429 C 0.20495 0.63487 -0.14592
 C430 C 0.08781 0.69662 -0.13538
 C431 C 0.05179 0.69849 -0.12248
 C432 C 0.03702 0.67215 -0.10215
 C433 C 0.05800 0.64360 -0.09495
 C434 C 0.16258 0.69475 -0.16003
 C435 C 0.17525 0.71913 -0.17509
 C436 C 0.10000 0.58441 -0.07986
 C437 C 0.08292 0.56335 -0.06325
 H438 H 0.16435 0.56017 -0.09081
 H439 H 0.22744 0.55763 -0.11319
 H440 H 0.25403 0.60486 -0.14840
 H441 H 0.21776 0.65492 -0.16147
 H442 H 0.09805 0.71780 -0.15104
 H443 H 0.03528 0.72052 -0.12824
 H444 H 0.00908 0.67378 -0.09203
 H445 H 0.04506 0.62376 -0.07921
 C446 C -0.12013 0.61888 0.10982
 C447 C -0.10410 0.63438 0.14123
 C448 C -0.12217 0.66177 0.15896
 C449 C -0.15625 0.67349 0.14532
 C450 C -0.17297 0.65711 0.11489
 C451 C -0.15484 0.62971 0.09709
 C452 C -0.17196 0.61386 0.06665
 C453 C -0.20617 0.62463 0.05424
 C454 C -0.22382 0.65149 0.07151
 C455 C -0.20751 0.66769 0.10147
 C456 C -0.10535 0.67712 0.18997
 C457 C -0.07173 0.66564 0.20320
 C458 C -0.05414 0.63877 0.18598
 C459 C -0.06992 0.62330 0.15529
 C460 C -0.17311 0.70316 0.16179
 C461 C -0.18564 0.72834 0.17565
 C462 C -0.09943 0.59340 0.08964
 C463 C -0.07922 0.57375 0.07419
 H464 H -0.15922 0.59288 0.05237
 H465 H -0.21908 0.61204 0.03113
 H466 H -0.25035 0.65979 0.06168
 H467 H -0.22231 0.68840 0.11410
 H468 H -0.11800 0.69804 0.20442
 H469 H -0.05929 0.67765 0.22695
 H470 H -0.02803 0.62992 0.19637
 H471 H -0.05508 0.60251 0.14291
 C472 C 1.10696 0.11588 0.61799
 C473 C 1.12303 0.09734 0.64743
 C474 C 1.14153 0.11433 0.67647
 C475 C 1.14370 0.14979 0.67614
 C476 C 1.12776 0.16832 0.64667
 C477 C 1.10934 0.15129 0.61750
 C478 C 1.09346 0.17030 0.58849
 C479 C 1.09569 0.20520 0.58825
 C480 C 1.11368 0.22186 0.61675
 C481 C 1.12958 0.20375 0.64571
 C482 C 1.15731 0.09523 0.70558
 C483 C 1.15463 0.06038 0.70613
 C484 C 1.13634 0.04377 0.67789
 C485 C 1.12079 0.06185 0.64876
 C486 C 1.16117 0.16699 0.70690
 C487 C 1.17508 0.18036 0.73337
 C488 C 1.08750 0.09800 0.58903
 C489 C 1.07185 0.08009 0.56735
 H490 H 1.07919 0.15839 0.56577
 H491 H 1.08340 0.21939 0.56584
 H492 H 1.11533 0.24897 0.61642
 H493 H 1.14331 0.21779 0.66725
 H494 H 1.17181 0.10698 0.72824
 H495 H 1.16675 0.04619 0.72865
 H496 H 1.13410 0.01672 0.67857
 H497 H 1.10694 0.04764 0.62747
 C498 C 0.91909 -0.12092 0.60432
 C499 C 0.88412 -0.13453 0.59710
 C500 C 0.86586 -0.15348 0.62500
 C501 C 0.88278 -0.15880 0.65984
 C502 C 0.91878 -0.14711 0.66611
 C503 C 0.93690 -0.12791 0.63835
 C504 C 0.97238 -0.11550 0.64571
 C505 C 0.98966 -0.12223 0.67939
 C506 C 0.97213 -0.14137 0.70636
 C507 C 0.93704 -0.15364 0.70000
 C508 C 0.83060 -0.16627 0.61747
 C509 C 0.81389 -0.16057 0.58327
 C510 C 0.83177 -0.14204 0.55596
 C511 C 0.86649 -0.12907 0.56266
 C512 C 0.86245 -0.17429 0.69003
 C513 C 0.84593 -0.18628 0.71589
 C514 C 0.93488 -0.09674 0.57879
 C515 C 0.94717 -0.07472 0.55956
 H516 H 0.98721 -0.10068 0.62547
 H517 H 1.01687 -0.11266 0.68451
 H518 H 0.98573 -0.14666 0.73240
 H519 H 0.92448 -0.16839 0.72184
 H520 H 0.81570 -0.18091 0.63783
 H521 H 0.78693 -0.17060 0.57792
 H522 H 0.81867 -0.13770 0.52944
 H523 H 0.87942 -0.11493 0.54055
 C524 C 1.10498 -0.09736 0.36008
 C525 C 1.08846 -0.12613 0.34455
 C526 C 1.10826 -0.14620 0.31852
 C527 C 1.14442 -0.13729 0.30811
 C528 C 1.16089 -0.10845 0.32355
 C529 C 1.14113 -0.08843 0.34962
 C530 C 1.15817 -0.05960 0.36454
 C531 C 1.19363 -0.05081 0.35400
 C532 C 1.21291 -0.07042 0.32852
 C533 C 1.19688 -0.09895 0.31340
 C534 C 1.09114 -0.17484 0.30332
 C535 C 1.05547 -0.18333 0.31342
 C536 C 1.03611 -0.16365 0.33876
 C537 C 1.05227 -0.13536 0.35429
 C538 C 1.16441 -0.15758 0.28116
 C539 C 1.18021 -0.17479 0.25854
 C540 C 1.08484 -0.07642 0.38628
 C541 C 1.06955 -0.05767 0.40769
 H542 H 1.14432 -0.04351 0.38445
 H543 H 1.20619 -0.02868 0.36567
 H544 H 1.24045 -0.06349 0.32041
 H545 H 1.21298 -0.11340 0.29367
 H546 H 1.10507 -0.19093 0.28347
 H547 H 1.04277 -0.20529 0.30147
 H548 H 1.00842 -0.17035 0.34642
 H549 H 1.03612 -0.12082 0.37391
 C550 C 0.87877 0.12089 0.37397
 C551 C 0.85384 0.10337 0.35108
 C552 C 0.83260 0.12118 0.32453
 C553 C 0.83640 0.15637 0.32104
 C554 C 0.86048 0.17400 0.34471
 C555 C 0.88174 0.15618 0.37127
 C556 C 0.90592 0.17424 0.39436
 C557 C 0.90901 0.20898 0.39130
 C558 C 0.88823 0.22642 0.36532
 C559 C 0.86420 0.20926 0.34220
 C560 C 0.80820 0.10310 0.30164
 C561 C 0.80486 0.06840 0.30492
 C562 C 0.82559 0.05098 0.33093
 C563 C 0.84986 0.06811 0.35378
 C564 C 0.81702 0.17408 0.29183
 C565 C 0.80177 0.18840 0.26673
 C566 C 0.90253 0.10214 0.39872
 C567 C 0.92208 0.08481 0.41768
 H568 H 0.92258 0.16174 0.41501
 H569 H 0.92763 0.22242 0.40919
 H570 H 0.89073 0.25340 0.36305
 H571 H 0.84857 0.22391 0.32246
 H572 H 0.79142 0.11555 0.28105
 H573 H 0.78607 0.05497 0.28720
 H574 H 0.82285 0.02404 0.33345
 H575 H 0.86533 0.05340 0.37360
 C576 C 0.08526 0.36029 -0.09463
 C577 C 0.11790 0.34820 -0.07816
 C578 C 0.13876 0.32268 -0.09620
 C579 C 0.12678 0.30938 -0.13054
 C580 C 0.09378 0.32105 -0.14667
 C581 C 0.07293 0.34658 -0.12865
 C582 C 0.03997 0.35780 -0.14526
 C583 C 0.02795 0.34416 -0.17869
 C584 C 0.04837 0.31923 -0.19635
 C585 C 0.08094 0.30773 -0.18067
 C586 C 0.17133 0.31099 -0.07925
 C587 C 0.18288 0.32407 -0.04536
 C588 C 0.16242 0.34896 -0.02768
 C589 C 0.13031 0.36103 -0.04378
 C590 C 0.14818 0.28354 -0.14918
 C591 C 0.16556 0.26190 -0.16480
 C592 C 0.06456 0.38713 -0.07698
 C593 C 0.04701 0.40959 -0.06311
 H594 H 0.02308 0.37711 -0.13257
 H595 H 0.00267 0.35298 -0.19097
 H596 H 0.03892 0.30872 -0.22232
 H597 H 0.09583 0.28827 -0.19545
 H598 H 0.18814 0.29162 -0.09192
 H599 H 0.20781 0.31480 -0.03272
 H600 H 0.17145 0.35895 -0.00135
 H601 H 0.11531 0.38039 -0.02893
 C602 C -0.11863 0.38759 0.13014
 C603 C -0.13652 0.36646 0.10433
 C604 C -0.15912 0.33997 0.11729
 C605 C -0.16352 0.33463 0.15596
 C606 C -0.14628 0.35620 0.18176
 C607 C -0.12374 0.38277 0.16878
 C608 C -0.10646 0.40378 0.19502
 C609 C -0.11136 0.39872 0.23307
 C610 C -0.13342 0.37277 0.24579
 C611 C -0.15073 0.35166 0.22056
 C612 C -0.17654 0.31907 0.09098
 C613 C -0.17153 0.32403 0.05292
 C614 C -0.14920 0.34976 0.04023
 C615 C -0.13199 0.37090 0.06547
 C616 C -0.18374 0.30567 0.16912
 C617 C -0.19915 0.28086 0.18007
 C618 C -0.09432 0.41354 0.11643
 C619 C -0.07449 0.43390 0.10210
 H620 H -0.08906 0.42428 0.18639
 H621 H -0.09796 0.41503 0.25279
 H622 H -0.13714 0.36896 0.27538
 H623 H -0.16768 0.33185 0.23178
 H624 H -0.19418 0.29871 0.09951
 H625 H -0.18498 0.30778 0.03317
 H626 H -0.14511 0.35336 0.01068
 H627 H -0.11508 0.39064 0.05412
 C628 C -0.08775 0.63597 -0.10569
 C629 C -0.12260 0.64748 -0.09367
 C630 C -0.14071 0.67348 -0.11356
 C631 C -0.12378 0.68782 -0.14526
 C632 C -0.08870 0.67660 -0.15699
 C633 C -0.07069 0.65049 -0.13723
 C634 C -0.03572 0.63951 -0.14960
 C635 C -0.01885 0.65420 -0.18035
 C636 C -0.03638 0.67987 -0.19957
 C637 C -0.07095 0.69098 -0.18823
 C638 C -0.17557 0.68459 -0.10106
 C639 C -0.19203 0.67042 -0.06977
 C640 C -0.17430 0.64500 -0.05032
 C641 C -0.13998 0.63355 -0.06199
 C642 C -0.14230 0.71418 -0.16576
 C643 C -0.15720 0.73624 -0.18298
 C644 C -0.06937 0.60921 -0.08573
 C645 C -0.05353 0.58699 -0.06970
 H646 H -0.02091 0.61969 -0.13551
 H647 H 0.00803 0.64569 -0.18922
 H648 H -0.02315 0.69123 -0.22343
 H649 H -0.08350 0.71098 -0.20413
 H650 H -0.19041 0.70433 -0.11527
 H651 H -0.21869 0.67922 -0.06056
 H652 H -0.18720 0.63406 -0.02608
 H653 H -0.12726 0.61374 -0.04593
 C654 C 0.09307 0.61749 0.14121
 C655 C 0.13110 0.61269 0.14691
 C656 C 0.15301 0.63993 0.15900
 C657 C 0.13673 0.67174 0.16543
 C658 C 0.09846 0.67620 0.16103
 C659 C 0.07658 0.64901 0.14881
 C660 C 0.03849 0.65421 0.14402
 C661 C 0.02246 0.68538 0.15120
 C662 C 0.04381 0.71193 0.16333
 C663 C 0.08138 0.70756 0.16822
 C664 C 0.19102 0.63466 0.16408
 C665 C 0.20694 0.60333 0.15745
 C666 C 0.18551 0.57669 0.14565
 C667 C 0.14801 0.58118 0.14036
 C668 C 0.15922 0.70012 0.17586
 C669 C 0.17672 0.72443 0.18451
 C670 C 0.07149 0.59094 0.12477
 C671 C 0.05381 0.56979 0.10919
 H672 H 0.02070 0.63427 0.13481
 H673 H -0.00669 0.68896 0.14733
 H674 H 0.03121 0.73608 0.16894
 H675 H 0.09681 0.72899 0.17769
 H676 H 0.20878 0.65463 0.17326
 H677 H 0.23606 0.59972 0.16151
 H678 H 0.19800 0.55240 0.14057
 H679 H 0.13244 0.55969 0.13126
 C680 C 0.37973 1.11382 0.90211
 C681 C 0.38639 1.12977 0.86758
 C682 C 0.35802 1.14859 0.85020
 C683 C 0.32324 1.15149 0.86757
 C684 C 0.31719 1.13696 0.90302
 C685 C 0.34542 1.11786 0.92020
 C686 C 0.33833 1.10272 0.95511
 C687 C 0.30451 1.10671 0.97278
 C688 C 0.27708 1.12573 0.95621
 C689 C 0.28315 1.14065 0.92168
 C690 C 0.36514 1.16384 0.81539
 C691 C 0.39934 1.16067 0.79827
 C692 C 0.42707 1.14231 0.81529
 C693 C 0.42080 1.12694 0.84954
 C694 C 0.29315 1.16795 0.84838
 C695 C 0.26748 1.18088 0.83282
 C696 C 0.40679 1.09095 0.91758
 C697 C 0.42743 1.07021 0.93021
 H698 H 0.35886 1.08781 0.96921
 H699 H 0.29965 1.09509 0.99956
 H700 H 0.25091 1.12887 0.97012
 H701 H 0.26093 1.15517 0.90987
 H702 H 0.34444 1.17844 0.80113
 H703 H 0.40435 1.17255 0.77166
 H704 H 0.45359 1.13995 0.80188
 H705 H 0.44322 1.11298 0.86178
 C706 C 0.38722 0.86766 1.08929
 C707 C 0.35423 0.85933 1.07100
 C708 C 0.32670 0.84098 1.09019
 C709 C 0.33223 0.83119 1.12762
 C710 C 0.36628 0.83741 1.14495
 C711 C 0.39389 0.85564 1.12567
 C712 C 0.42752 0.86191 1.14366
 C713 C 0.43379 0.85040 1.17968
 C714 C 0.40677 0.83266 1.19858
 C715 C 0.37331 0.82623 1.18157
 C716 C 0.29378 0.83334 1.07146
 C717 C 0.28820 0.84356 1.03484
 C718 C 0.31502 0.86166 1.01617
 C719 C 0.34771 0.86953 1.03389
 C720 C 0.30202 0.81696 1.14887
 C721 C 0.27612 0.80638 1.16621
 C722 C 0.41197 0.89172 1.07228
 C723 C 0.42995 0.91365 1.05818
 H724 H 0.44935 0.87549 1.12995
 H725 H 0.45975 0.85526 1.19300
 H726 H 0.41178 0.82380 1.22657
 H727 H 0.35316 0.81224 1.19728
 H728 H 0.27214 0.81925 1.08482
 H729 H 0.26291 0.83740 1.02090
 H730 H 0.31055 0.86953 0.98772
 H731 H 0.36790 0.88339 1.01809
 C732 C 0.61741 1.10617 1.09169
 C733 C 0.64221 1.09242 1.11786
 C734 C 0.66715 1.11368 1.13668
 C735 C 0.66714 1.14860 1.12932
 C736 C 0.64197 1.16242 1.10361
 C737 C 0.61698 1.14114 1.08479
 C738 C 0.59185 1.15555 1.05953
 C739 C 0.59129 1.19005 1.05315
 C740 C 0.61589 1.21082 1.07132
 C741 C 0.64104 1.19728 1.09627
 C742 C 0.69162 1.09931 1.16274
 C743 C 0.69126 1.06502 1.17023
 C744 C 0.66676 1.04427 1.15200
 C745 C 0.64260 1.05761 1.12598
 C746 C 0.69305 1.17000 1.14848
 C747 C 0.71528 1.18631 1.16524
 C748 C 0.59245 1.08400 1.07231
 C749 C 0.57276 1.06376 1.05768
 H750 H 0.57234 1.14036 1.04459
 H751 H 0.57179 1.20071 1.03382
 H752 H 0.61544 1.23757 1.06609
 H753 H 0.65958 1.21442 1.10984
 H754 H 0.71116 1.11439 1.17776
 H755 H 0.71004 1.05451 1.19038
 H756 H 0.66640 1.01769 1.15814
 H757 H 0.62413 1.04035 1.11253
 C758 C 0.63251 0.88570 0.87534
 C759 C 0.62765 0.85233 0.86294
 C760 C 0.65661 0.83543 0.84390
 C761 C 0.69024 0.85203 0.83736
 C762 C 0.69481 0.88567 0.84908
 C763 C 0.66591 0.90253 0.86817
 C764 C 0.67133 0.93607 0.87997
 C765 C 0.70433 0.95239 0.87315
 C766 C 0.73250 0.93596 0.85431
 C767 C 0.72796 0.90299 0.84234
 C768 C 0.65119 0.80201 0.83194
 C769 C 0.61808 0.78575 0.83857
 C770 C 0.58978 0.80229 0.85718
 C771 C 0.59437 0.83521 0.86931
 C772 C 0.72067 0.83429 0.81991
 C773 C 0.74671 0.82001 0.80633
 C774 C 0.60375 0.90286 0.89608
 C775 C 0.58162 0.91897 0.91369
 H776 H 0.65023 0.95005 0.89458
 H777 H 0.70805 0.97795 0.88255
 H778 H 0.75804 0.94880 0.84896
 H779 H 0.75069 0.89130 0.82777
 H780 H 0.67239 0.78815 0.81730
 H781 H 0.61437 0.76018 0.82920
 H782 H 0.56413 0.78955 0.86226
 H783 H 0.57159 0.84709 0.88365
   
