data_POSCAR
  _audit_creation_date              2014-09-24
  _audit_creation_method            'ToBaCCo'
  _symmetry_space_group_name_H-M    'P1'
  _symmetry_Int_Tables_number       1
  _symmetry_cell_setting            triclinic
  loop_
  _symmetry_equiv_pos_as_xyz
 x,y,z
_cell_length_a 25.2764
_cell_length_b 25.2284
_cell_length_c 48.8874
_cell_angle_alpha 91.800500
_cell_angle_beta 85.814700
_cell_angle_gamma 120.551000
loop_
  _atom_site_label
  _atom_site_type_symbol
  _atom_site_fract_x
  _atom_site_fract_y
  _atom_site_fract_z
C1 C 0.02544 0.04719 0.54268
 H2 H 0.06584 0.04265 0.54190
 C3 C 0.02308 0.09207 0.55909
 H4 H 0.06115 0.12047 0.57155
 C5 C -0.07289 0.01530 0.52700
 H6 H -0.10919 -0.01363 0.51377
 C7 C -0.07675 0.06051 0.54291
 H8 H -0.11639 0.06588 0.54180
 N9 N -0.02180 0.01028 0.52694
 C10 C 0.03211 -0.12558 0.50672
 H11 H 0.04010 -0.12035 0.48466
 C12 C 0.03949 -0.16933 0.52007
 H13 H 0.05458 -0.19672 0.50816
 C14 C 0.00084 -0.09752 0.54885
 H15 H -0.01674 -0.07132 0.55988
 C16 C 0.00728 -0.14088 0.56296
 H17 H -0.00550 -0.14688 0.58463
 Zn18 Zn -0.00566 -0.03912 0.50208
 N19 N 0.01325 -0.09064 0.52123
 C20 C 0.11793 0.02462 0.47706
 N21 N 0.06071 0.01750 0.47859
 C22 C 0.04885 0.05616 0.46506
 C23 C 0.09533 0.10446 0.44926
 C24 C 0.16623 0.07301 0.46156
 C25 C -0.12595 -0.13466 0.49565
 C26 C -0.17533 -0.17924 0.48152
 C27 C -0.11790 -0.13195 0.43897
 C28 C -0.06946 -0.08888 0.45396
 N29 N -0.07415 -0.09109 0.48177
 H30 H 0.12673 -0.00563 0.48860
 H31 H 0.00310 0.04991 0.46698
 H32 H 0.08438 0.13402 0.43845
 H33 H 0.21201 0.07945 0.46122
 H34 H -0.12839 -0.13551 0.51783
 H35 H -0.21570 -0.21149 0.49386
 H36 H -0.10994 -0.12900 0.41703
 H37 H -0.02717 -0.05517 0.44317
 C38 C 0.02642 -0.17789 0.54858
 C39 C -0.02755 0.10057 0.55874
 C40 C -0.17211 -0.17980 0.45241
 C41 C 0.15527 0.11431 0.44782
 C42 C 1.07175 0.03847 0.12413
 H43 H 1.04365 0.04920 0.11248
 C44 C 1.12383 0.04041 0.11121
 H45 H 1.13480 0.05133 0.08954
 C46 C 1.09454 0.01537 0.16683
 H47 H 1.08428 0.00830 0.18873
 C48 C 1.14611 0.01517 0.15456
 H49 H 1.17494 0.00687 0.16701
 N50 N 1.05823 0.02632 0.15150
 C51 C 0.93966 0.09305 0.14276
 H52 H 0.96380 0.13134 0.15639
 C53 C 0.89804 0.09305 0.12540
 H54 H 0.89060 0.13170 0.12587
 C55 C 0.91678 -0.00581 0.12710
 H56 H 0.92353 -0.04469 0.12838
 C57 C 0.87512 -0.00763 0.10943
 H58 H 0.85081 -0.04778 0.09674
 Zn59 Zn 0.99441 0.03550 0.16949
 N60 N 0.94767 0.04374 0.14342
 C61 C 1.08137 0.15701 0.17860
 N62 N 1.03319 0.10672 0.19125
 C63 C 1.01851 0.10661 0.21857
 C64 C 1.05380 0.15855 0.23435
 C65 C 1.11852 0.20931 0.19364
 C66 C 0.94397 -0.08427 0.19382
 C67 C 0.89651 -0.13752 0.20689
 C68 C 0.83657 -0.08749 0.21331
 C69 C 0.88555 -0.03487 0.20068
 N70 N 0.93758 -0.03437 0.19090
 H71 H 1.09252 0.15545 0.15691
 H72 H 0.98042 0.06584 0.22829
 H73 H 1.04139 0.15745 0.25607
 H74 H 1.15840 0.24715 0.18311
 H75 H 0.98472 -0.08388 0.18522
 H76 H 0.90156 -0.17741 0.20857
 H77 H 0.79491 -0.08758 0.22039
 H78 H 0.88126 0.00507 0.19771
 C79 C 0.86442 0.04175 0.10870
 C80 C 1.16168 0.02889 0.12653
 C81 C 0.84149 -0.13988 0.21620
 C82 C 1.10553 0.21055 0.22205
 C83 C 0.07938 0.99392 0.87852
 H84 H 0.03515 0.97988 0.88912
 C85 C 0.12519 0.99256 0.89232
 H86 H 0.11643 0.97863 0.91368
 C87 C 0.14360 1.02543 0.83739
 H88 H 0.14948 1.03594 0.81571
 C89 C 0.19116 1.02622 0.85056
 H90 H 0.23400 1.03810 0.83901
 N91 N 0.08921 1.00981 0.85150
 C92 C -0.09988 0.94000 0.85652
 H93 H -0.10928 0.90151 0.84326
 C94 C -0.14769 0.93887 0.87336
 H95 H -0.19326 0.89903 0.87231
 C96 C -0.02962 1.03995 0.87186
 H97 H 0.01661 1.07940 0.87096
 C98 C -0.07582 1.04114 0.88871
 H99 H -0.06333 1.08143 0.90123
 Zn100 Zn 0.02340 0.99999 0.83166
 N101 N -0.04233 0.99023 0.85605
 C102 C -0.01663 0.87618 0.82240
 N103 N 0.00068 0.92998 0.80939
 C104 C 0.00780 0.93452 0.78156
 C105 C -0.00240 0.88353 0.76570
 C106 C -0.02733 0.82409 0.80735
 C107 C 0.10001 1.12414 0.81262
 C108 C 0.11135 1.17718 0.79898
 C109 C 0.01099 1.11889 0.78082
 C110 C 0.00139 1.06715 0.79489
 N111 N 0.04568 1.07050 0.81030
 H112 H -0.02038 0.87431 0.84458
 H113 H 0.02333 0.97810 0.77162
 H114 H 0.00396 0.88814 0.74358
 H115 H -0.03922 0.78236 0.81822
 H116 H 0.13361 1.12657 0.82582
 H117 H 0.15411 1.22004 0.80134
 H118 H -0.02518 1.11599 0.76915
 H119 H -0.04213 1.02446 0.79413
 C120 C -0.13656 0.99051 0.88957
 C121 C 0.18169 1.00851 0.87822
 C122 C 0.06638 1.17459 0.78295
 C123 C -0.01963 0.82748 0.77858
 C124 C 0.50960 0.01839 0.01510
 C125 C 0.51079 0.01436 -0.01290
 C126 C 0.46134 0.01028 -0.02923
 C127 C 0.56310 0.01371 -0.02874
 C128 C 0.55860 0.01839 0.03019
 C129 C 0.46104 0.02343 0.03215
 C130 C 0.39871 -0.03078 -0.02221
 C131 C 0.35334 -0.03286 -0.03775
 C132 C 0.36958 0.00432 -0.06137
 C133 C 0.43255 0.04381 -0.06875
 C134 C 0.47765 0.04705 -0.05281
 C135 C 0.55217 -0.03645 -0.04554
 C136 C 0.60139 -0.04027 -0.05840
 C137 C 0.66262 0.00597 -0.05457
 C138 C 0.67306 0.05750 -0.03864
 C139 C 0.62386 0.06170 -0.02620
 C140 C 0.59715 0.06982 0.04566
 C141 C 0.64751 0.07315 0.05743
 C142 C 0.65999 0.02488 0.05405
 C143 C 0.61937 -0.02786 0.03961
 C144 C 0.56898 -0.03122 0.02794
 C145 C 0.44237 0.06503 0.02562
 C146 C 0.39609 0.06811 0.04186
 C147 C 0.36916 0.03152 0.06572
 C148 C 0.38976 -0.00844 0.07262
 C149 C 0.43463 -0.01275 0.05597
 H150 H 0.38481 -0.06095 -0.00456
 H151 H 0.30569 -0.06336 -0.03096
 H152 H 0.44736 0.07211 -0.08705
 H153 H 0.52562 0.07856 -0.05892
 H154 H 0.50552 -0.07351 -0.04809
 H155 H 0.59126 -0.07969 -0.07117
 H156 H 0.63322 0.10150 -0.01380
 H157 H 0.58941 0.10825 0.04783
 H158 H 0.67683 0.11371 0.06903
 H159 H 0.62756 -0.06587 0.03661
 H160 H 0.53916 -0.07165 0.01637
 H161 H 0.46323 0.09486 0.00782
 H162 H 0.38140 0.09893 0.03541
 H163 H 0.37163 -0.03632 0.09106
 H164 H 0.44874 -0.04461 0.06173
 H165 H 0.71935 0.09400 -0.03512
 C166 C 0.00859 0.48161 0.68449
 C167 C 0.00360 0.47553 0.65685
 C168 C -0.00431 0.41970 0.64204
 C169 C 0.00944 0.52672 0.64018
 C170 C -0.00067 0.52870 0.69951
 C171 C 0.02511 0.44318 0.70026
 C172 C 0.02964 0.42567 0.61714
 C173 C 0.02295 0.37362 0.60328
 C174 C -0.01758 0.31437 0.61407
 C175 C -0.05270 0.30832 0.63867
 C176 C -0.04650 0.36042 0.65239
 C177 C 0.06143 0.58576 0.64175
 C178 C 0.06822 0.63387 0.62574
 C179 C 0.02327 0.62396 0.60769
 C180 C -0.02872 0.56458 0.60607
 C181 C -0.03534 0.51631 0.62206
 C182 C -0.05468 0.53056 0.69683
 C183 C -0.06194 0.57726 0.70923
 C184 C -0.01524 0.62293 0.72440
 C185 C 0.03794 0.62014 0.72786
 C186 C 0.04504 0.57305 0.71561
 C187 C -0.00745 0.41532 0.72513
 C188 C 0.00714 0.37783 0.73949
 C189 C 0.05479 0.36776 0.72927
 C190 C 0.08826 0.39695 0.70472
 C191 C 0.07398 0.43470 0.69052
 H192 H 0.06192 0.47074 0.60852
 H193 H 0.04927 0.37990 0.58399
 H194 H -0.08413 0.26339 0.64761
 H195 H -0.07436 0.35448 0.67122
 H196 H 0.09716 0.59439 0.65520
 H197 H 0.10921 0.67869 0.62720
 H198 H -0.07563 0.47096 0.62052
 H199 H -0.09078 0.49630 0.68475
 H200 H -0.10343 0.57856 0.70653
 H201 H 0.07389 0.65433 0.73999
 H202 H 0.08683 0.57216 0.71802
 H203 H -0.04506 0.42151 0.73311
 H204 H -0.01991 0.35550 0.75821
 H205 H 0.12577 0.39079 0.69655
 H206 H 0.10093 0.45708 0.67178
 H207 H -0.06473 0.55548 0.59274
 C208 C 0.48309 0.49872 0.34546
 C209 C 0.47641 0.50827 0.31891
 C210 C 0.52932 0.55681 0.30198
 C211 C 0.41705 0.47059 0.30563
 C212 C 0.43774 0.44153 0.36077
 C213 C 0.53585 0.54605 0.36060
 C214 C 0.52408 0.60261 0.28908
 C215 C 0.57445 0.64913 0.27377
 C216 C 0.63077 0.65003 0.27062
 C217 C 0.63530 0.60331 0.28331
 C218 C 0.58517 0.55730 0.29882
 C219 C 0.36048 0.45545 0.31972
 C220 C 0.30506 0.41833 0.30746
 C221 C 0.30523 0.39790 0.28048
 C222 C 0.36161 0.41508 0.26591
 C223 C 0.41699 0.45074 0.27843
 C224 C 0.41769 0.38321 0.34915
 C225 C 0.37451 0.32991 0.36361
 C226 C 0.35125 0.33387 0.39012
 C227 C 0.37293 0.39219 0.40200
 C228 C 0.41559 0.44540 0.38747
 C229 C 0.56871 0.52880 0.37658
 C230 C 0.61635 0.57273 0.39179
 C231 C 0.63231 0.63472 0.39103
 C232 C 0.59950 0.65203 0.37513
 C233 C 0.55119 0.60800 0.36036
 H234 H 0.48135 0.60305 0.29137
 H235 H 0.56935 0.68484 0.26483
 H236 H 0.67748 0.60189 0.28103
 H237 H 0.58983 0.52182 0.30836
 H238 H 0.35910 0.47199 0.34030
 H239 H 0.26201 0.40600 0.31894
 H240 H 0.45979 0.46208 0.26698
 H241 H 0.43512 0.37901 0.32879
 H242 H 0.35849 0.28572 0.35382
 H243 H 0.35732 0.39681 0.42263
 H244 H 0.43094 0.48978 0.39700
 H245 H 0.55737 0.48127 0.37730
 H246 H 0.64118 0.55847 0.40393
 H247 H 0.61018 0.69936 0.37474
 H248 H 0.52519 0.62216 0.34900
 H249 H 0.36265 0.39946 0.24509
 C250 C 0.02729 0.21001 0.57507
 C251 C -0.02686 0.15328 0.57343
 C252 C -0.08076 0.15023 0.58597
 C253 C -0.07832 0.20234 0.59928
 C254 C -0.02208 0.25935 0.60006
 C255 C 0.02934 0.26018 0.58718
 C256 C 0.09685 0.30031 0.58073
 C257 C 0.09449 0.24376 0.56679
 H258 H -0.12460 0.10770 0.58580
 H259 H -0.12054 0.19804 0.60856
 H260 H 0.12304 0.31484 0.59950
 H261 H 0.10829 0.33781 0.56597
 H262 H 0.12034 0.22671 0.57747
 H263 H 0.10367 0.24862 0.54415
 C264 C 0.79565 0.76694 0.24668
 C265 C 0.78837 0.80231 0.22751
 C266 C 0.72856 0.78051 0.21909
 C267 C 0.67733 0.72918 0.23208
 C268 C 0.68459 0.69900 0.25414
 C269 C 0.74508 0.71691 0.25977
 C270 C 0.77447 0.73201 0.28652
 C271 C 0.82988 0.78665 0.27214
 H272 H 0.72117 0.80437 0.20311
 H273 H 0.63210 0.71478 0.22541
 H274 H 0.78442 0.69634 0.29306
 H275 H 0.74979 0.74547 0.30242
 H276 H 0.87156 0.78224 0.27029
 H277 H 0.83758 0.83187 0.27978
 C278 C 0.29122 0.05160 -0.11090
 C279 C 0.22980 0.00429 -0.10821
 C280 C 0.21596 -0.04828 -0.09302
 C281 C 0.26156 -0.04980 -0.07864
 C282 C 0.32190 0.00188 -0.07860
 C283 C 0.33581 0.05072 -0.09630
 C284 C 0.36671 0.11835 -0.09103
 C285 C 0.31792 0.11915 -0.10713
 H286 H 0.16960 -0.08762 -0.09174
 H287 H 0.24863 -0.09097 -0.06711
 H288 H 0.41355 0.14405 -0.10148
 H289 H 0.36382 0.12907 -0.06892
 H290 H 0.33666 0.14486 -0.12685
 H291 H 0.28671 0.13047 -0.09440
 C292 C 0.05971 0.78317 0.58717
 C293 C 0.03039 0.77298 0.56263
 C294 C 0.00791 0.71433 0.55060
 C295 C 0.00777 0.66620 0.56456
 C296 C 0.03091 0.67565 0.59080
 C297 C 0.06101 0.73618 0.60047
 C298 C 0.05844 0.76121 0.62822
 C299 C 0.05583 0.81231 0.61384
 H300 H -0.01283 0.70450 0.53109
 H301 H -0.01244 0.62123 0.55516
 H302 H 0.10179 0.77783 0.63862
 H303 H 0.01551 0.73005 0.64076
 H304 H 0.09714 0.85844 0.61643
 H305 H 0.01090 0.80958 0.61864
 C306 C 0.15350 0.25692 0.26668
 C307 C 0.14750 0.26407 0.23890
 C308 C 0.18656 0.32334 0.22727
 C309 C 0.23618 0.36897 0.24143
 C310 C 0.24665 0.35703 0.26783
 C311 C 0.20156 0.30246 0.28084
 C312 C 0.20856 0.25681 0.29648
 C313 C 0.15613 0.20684 0.28096
 H314 H 0.18163 0.33353 0.20660
 H315 H 0.26841 0.41205 0.23113
 H316 H 0.19637 0.25721 0.31876
 H317 H 0.25344 0.25943 0.29136
 H318 H 0.11393 0.17829 0.29441
 H319 H 0.17056 0.18046 0.26678
 C320 C 0.82187 0.04907 -0.08539
 C321 C 0.81569 -0.00738 -0.09411
 C322 C 0.75972 -0.06107 -0.08556
 C323 C 0.71076 -0.05716 -0.07184
 C324 C 0.71556 0.00043 -0.06654
 C325 C 0.77334 0.05275 -0.07219
 C326 C 0.78969 0.11055 -0.08688
 C327 C 0.84273 0.10676 -0.10144
 H328 H 0.75292 -0.10649 -0.08938
 H329 H 0.66881 -0.09950 -0.06600
 H330 H 0.80510 0.15046 -0.07281
 H331 H 0.75402 0.10426 -0.10077
 H332 H 0.88845 0.14483 -0.09580
 H333 H 0.83798 0.09832 -0.12384
 C334 C 0.23104 -0.01387 0.11646
 C335 C 0.21851 0.03348 0.11364
 C336 C 0.26213 0.08577 0.09827
 C337 C 0.31292 0.08686 0.08371
 C338 C 0.32041 0.03491 0.08361
 C339 C 0.28020 -0.01347 0.10163
 C340 C 0.24360 -0.08124 0.09673
 C341 C 0.18997 -0.08149 0.11306
 H342 H 0.25591 0.12499 0.09682
 H343 H 0.34478 0.12774 0.07196
 H344 H 0.26162 -0.10677 0.10717
 H345 H 0.23539 -0.09253 0.07471
 H346 H 0.17756 -0.10671 0.13290
 H347 H 0.15049 -0.09305 0.10054
 C348 C 0.77673 0.77961 0.40970
 C349 C 0.78148 0.77507 0.43800
 C350 C 0.73376 0.71843 0.45035
 C351 C 0.68592 0.67241 0.43512
 C352 C 0.68250 0.68112 0.40710
 C353 C 0.72922 0.73601 0.39555
 C354 C 0.74957 0.77102 0.36938
 C355 C 0.80309 0.82101 0.38492
 H356 H 0.73342 0.70707 0.47147
 H357 H 0.65119 0.63033 0.44543
 H358 H 0.71698 0.78520 0.36336
 H359 H 0.76401 0.74829 0.35314
 H360 H 0.80120 0.86392 0.38780
 H361 H 0.84830 0.82762 0.37679
 C362 C 0.08855 0.24096 0.74176
 C363 C 0.07539 0.23069 0.77000
 C364 C 0.06760 0.27436 0.78565
 C365 C 0.06414 0.32151 0.77262
 C366 C 0.06895 0.32599 0.74370
 C367 C 0.08593 0.28776 0.72898
 C368 C 0.06063 0.24993 0.70402
 C369 C 0.06355 0.19857 0.71805
 H370 H 0.05969 0.26935 0.80774
 H371 H 0.05452 0.35223 0.78509
 H372 H 0.09333 0.26907 0.68565
 H373 H 0.01288 0.23890 0.70103
 H374 H 0.09798 0.18829 0.70776
 H375 H 0.01740 0.15769 0.72300
 C376 C 0.76436 -0.01886 0.08634
 C377 C 0.81662 0.03798 0.09142
 C378 C 0.82104 0.09066 0.07970
 C379 C 0.77115 0.08651 0.06660
 C380 C 0.71559 0.02961 0.06497
 C381 C 0.71538 -0.02293 0.07348
 C382 C 0.66907 -0.07501 0.09146
 C383 C 0.72279 -0.07057 0.10558
 H384 H 0.86201 0.13537 0.08145
 H385 H 0.77555 0.12816 0.05858
 H386 H 0.64354 -0.11840 0.07981
 H387 H 0.63978 -0.06247 0.10495
 H388 H 0.72806 -0.11143 0.10203
 H389 H 0.72475 -0.05547 0.12729
 C390 C 0.20909 0.22575 0.43406
 C391 C 0.20613 0.16902 0.43313
 C392 C 0.25484 0.16750 0.41748
 C393 C 0.30251 0.22094 0.40345
 C394 C 0.30343 0.27769 0.40508
 C395 C 0.25542 0.27711 0.42123
 C396 C 0.22886 0.31598 0.43067
 C397 C 0.17670 0.25802 0.44541
 H398 H 0.25567 0.12506 0.41563
 H399 H 0.33866 0.21776 0.39158
 H400 H 0.21361 0.33146 0.41339
 H401 H 0.25790 0.35262 0.44508
 H402 H 0.13146 0.24115 0.43672
 H403 H 0.17640 0.26116 0.46815
 C404 C 0.01022 0.78205 0.73804
 C405 C -0.02673 0.77390 0.76217
 C406 C -0.06885 0.71259 0.77070
 C407 C -0.06688 0.66285 0.75768
 C408 C -0.02227 0.67358 0.73619
 C409 C 0.01264 0.73329 0.72548
 C410 C 0.07971 0.77203 0.71741
 C411 C 0.07712 0.82563 0.73126
 H412 H -0.10131 0.70315 0.78818
 H413 H -0.09752 0.61659 0.76547
 H414 H 0.08887 0.77766 0.69479
 H415 H 0.10858 0.75844 0.72791
 H416 H 0.08498 0.86208 0.71657
 H417 H 0.10397 0.84248 0.74981
   
