data_POSCAR
  _audit_creation_date              2014-09-24
  _audit_creation_method            'ToBaCCo'
  _symmetry_space_group_name_H-M    'P1'
  _symmetry_Int_Tables_number       1
  _symmetry_cell_setting            triclinic
  loop_
  _symmetry_equiv_pos_as_xyz
 x,y,z
_cell_length_a 52.2349
_cell_length_b 52.1897
_cell_length_c 22.5027
_cell_angle_alpha 89.768700
_cell_angle_beta 90.166600
_cell_angle_gamma 119.645500
loop_
  _atom_site_label
  _atom_site_type_symbol
  _atom_site_fract_x
  _atom_site_fract_y
  _atom_site_fract_z
C1 C 0.30377 0.45203 0.50458
 C2 C 0.29926 0.44804 0.56468
 C3 C 0.26990 0.43970 0.57471
 N4 N 0.25637 0.43817 0.52253
 C5 C 0.27710 0.44606 0.47972
 C6 C 0.25603 0.43272 0.63105
 C7 C 0.22702 0.42711 0.64162
 C8 C 0.21158 0.41589 0.69426
 C9 C 0.18575 0.41672 0.68905
 C10 C 0.18605 0.42840 0.63335
 N11 N 0.21128 0.43464 0.60489
 C12 C 0.16458 0.43527 0.61226
 C13 C 0.16251 0.44215 0.55216
 C14 C 0.14335 0.45125 0.53074
 C15 C 0.14768 0.45475 0.47048
 C16 C 0.16940 0.44775 0.45695
 N17 N 0.17813 0.43971 0.50681
 C18 C 0.17981 0.44776 0.39903
 C19 C 0.20398 0.44367 0.38601
 C20 C 0.21158 0.43918 0.32951
 C21 C 0.23777 0.43907 0.33490
 C22 C 0.24544 0.44345 0.39454
 N23 N 0.22477 0.44632 0.42526
 C24 C 0.27204 0.44692 0.41828
 H25 H 0.32434 0.45856 0.48182
 H26 H 0.31575 0.45091 0.59728
 H27 H 0.22667 0.45356 0.46872
 H28 H 0.21854 0.40852 0.73294
 H29 H 0.16893 0.41006 0.72288
 H30 H 0.12780 0.45489 0.55587
 H31 H 0.13612 0.46166 0.44013
 H32 H 0.25002 0.43654 0.29885
 H33 H 0.21919 0.44706 0.56639
 H34 H 0.19977 0.43681 0.28844
 C35 C 0.57547 -0.29387 0.50302
 C36 C 0.57951 -0.28917 0.44294
 C37 C 0.57393 -0.26640 0.42923
 N38 N 0.56665 -0.25712 0.47905
 C39 C 0.56765 -0.27379 0.52426
 C40 C 0.57251 -0.25689 0.37095
 C41 C 0.56822 -0.23275 0.35761
 C42 C 0.56050 -0.22696 0.30206
 C43 C 0.55895 -0.20153 0.30726
 C44 C 0.56581 -0.19237 0.36577
 N45 N 0.57184 -0.21130 0.39592
 C46 C 0.56719 -0.16659 0.38908
 C47 C 0.56908 -0.16032 0.45033
 C48 C 0.57320 -0.13410 0.47415
 C49 C 0.57094 -0.13789 0.53463
 C50 C 0.56536 -0.16638 0.54574
 N51 N 0.56418 -0.18003 0.49413
 C52 C 0.55853 -0.18013 0.60207
 C53 C 0.55385 -0.20877 0.61342
 C54 C 0.54110 -0.22485 0.66473
 C55 C 0.54116 -0.25105 0.65941
 C56 C 0.55405 -0.25026 0.60503
 N57 N 0.56202 -0.22422 0.57765
 C58 C 0.55916 -0.27278 0.58339
 H59 H 0.57748 -0.31054 0.52806
 H60 H 0.58515 -0.30162 0.41252
 H61 H 0.57485 -0.21616 0.53969
 H62 H 0.55629 -0.23981 0.26192
 H63 H 0.55337 -0.19102 0.27193
 H64 H 0.57690 -0.11449 0.45036
 H65 H 0.57246 -0.12177 0.56664
 H66 H 0.53275 -0.26864 0.69203
 H67 H 0.58049 -0.20844 0.43854
 H68 H 0.53258 -0.21843 0.70214
 C69 C 1.14686 0.69788 0.52429
 C70 C 1.14495 0.69818 0.46356
 C71 C 1.16838 0.72470 0.44447
 N72 N 1.18437 0.74059 0.49165
 C73 C 1.17146 0.72425 0.54062
 C74 C 1.17435 0.73368 0.38436
 C75 C 1.19828 0.76076 0.36487
 C76 C 1.20203 0.77099 0.30677
 C77 C 1.22803 0.79727 0.30512
 C78 C 1.23956 0.80258 0.36233
 N79 N 1.22138 0.78009 0.39831
 C80 C 1.26675 0.82730 0.37878
 C81 C 1.27645 0.83590 0.43797
 C82 C 1.30243 0.86107 0.45359
 C83 C 1.30368 0.86168 0.51441
 C84 C 1.27853 0.83674 0.53437
 N85 N 1.26191 0.82121 0.48747
 C86 C 1.27238 0.82812 0.59480
 C87 C 1.24790 0.80137 0.61483
 C88 C 1.24461 0.79083 0.67268
 C89 C 1.21944 0.76385 0.67394
 C90 C 1.20771 0.75837 0.61686
 N91 N 1.22489 0.78170 0.58148
 C92 C 1.18208 0.73192 0.59961
 H93 H 1.13200 0.68005 0.55310
 H94 H 1.12825 0.68077 0.43659
 H95 H 1.22031 0.78465 0.53806
 H96 H 1.18758 0.76056 0.26928
 H97 H 1.23739 0.81097 0.26612
 H98 H 1.31881 0.87738 0.42421
 H99 H 1.32138 0.87834 0.54088
 H100 H 1.21104 0.74961 0.71249
 H101 H 1.22610 0.77678 0.44141
 H102 H 1.25923 0.80118 0.70999
 C103 C 0.68841 0.53828 0.54893
 C104 C 0.68764 0.53381 0.48879
 C105 C 0.71581 0.54039 0.47226
 N106 N 0.73379 0.54905 0.52014
 C107 C 0.71707 0.54750 0.56725
 C108 C 0.72471 0.53970 0.41340
 C109 C 0.75258 0.54367 0.39756
 C110 C 0.76336 0.54790 0.33995
 C111 C 0.78984 0.54824 0.34265
 C112 C 0.79453 0.54422 0.40184
 N113 N 0.77165 0.54135 0.43490
 C114 C 0.81834 0.54112 0.42304
 C115 C 0.82573 0.54246 0.48384
 C116 C 0.84725 0.53697 0.50645
 C117 C 0.84817 0.54157 0.56664
 C118 C 0.82717 0.54979 0.57893
 N119 N 0.81376 0.55061 0.52807
 C120 C 0.82164 0.55750 0.63587
 C121 C 0.79846 0.56330 0.64858
 C122 C 0.79556 0.57549 0.70116
 C123 C 0.76893 0.57484 0.69848
 C124 C 0.75621 0.56227 0.64435
 N125 N 0.77437 0.55530 0.61437
 C126 C 0.72759 0.55549 0.62605
 H127 H 0.67002 0.53524 0.57601
 H128 H 0.66852 0.52664 0.46047
 H129 H 0.76895 0.54230 0.57664
 H130 H 0.75299 0.55002 0.29995
 H131 H 0.80381 0.55070 0.30514
 H132 H 0.86091 0.53040 0.48213
 H133 H 0.86273 0.53924 0.59778
 H134 H 0.75972 0.58226 0.73294
 H135 H 0.76743 0.53440 0.47880
 H136 H 0.81081 0.58349 0.73816
 C137 C 0.42758 0.13720 0.51803
 C138 C 0.42646 0.13848 0.45725
 C139 C 0.43163 0.16654 0.44307
 N140 N 0.43603 0.18244 0.49305
 C141 C 0.43356 0.16459 0.53901
 C142 C 0.43521 0.17787 0.38481
 C143 C 0.43750 0.20527 0.37008
 C144 C 0.44552 0.21857 0.31455
 C145 C 0.44439 0.24427 0.31766
 C146 C 0.43584 0.24610 0.37508
 N147 N 0.43123 0.22199 0.40646
 C148 C 0.43201 0.26940 0.39642
 C149 C 0.43032 0.27468 0.45735
 C150 C 0.42569 0.29679 0.47949
 C151 C 0.42879 0.29660 0.54003
 C152 C 0.43515 0.27430 0.55297
 N153 N 0.43615 0.26103 0.50229
 C154 C 0.44258 0.26844 0.60996
 C155 C 0.44634 0.24399 0.62370
 C156 C 0.45809 0.24049 0.67659
 C157 C 0.45703 0.21370 0.67371
 C158 C 0.44477 0.20149 0.61905
 N159 N 0.43795 0.21993 0.58924
 C160 C 0.43959 0.17365 0.59893
 H161 H 0.42512 0.11854 0.54375
 H162 H 0.42288 0.12097 0.42690
 H163 H 0.42576 0.21517 0.55028
 H164 H 0.45156 0.21059 0.27570
 H165 H 0.44953 0.25995 0.28179
 H166 H 0.42128 0.31196 0.45452
 H167 H 0.42716 0.31157 0.57094
 H168 H 0.46458 0.20434 0.70791
 H169 H 0.42184 0.21602 0.44842
 H170 H 0.46649 0.25565 0.71360
 C171 C 0.69555 0.15277 0.53993
 C172 C 0.69418 0.14862 0.47960
 C173 C 0.72220 0.16727 0.45782
 N174 N 0.74064 0.18247 0.50291
 C175 C 0.72438 0.17396 0.55316
 C176 C 0.73052 0.16910 0.39757
 C177 C 0.75880 0.18946 0.37594
 C178 C 0.76939 0.18839 0.32009
 C179 C 0.79664 0.21325 0.31467
 C180 C 0.80186 0.22886 0.36727
 N181 N 0.77869 0.21422 0.40420
 C182 C 0.82618 0.25714 0.37768
 C183 C 0.83326 0.27155 0.43329
 C184 C 0.85479 0.30071 0.44216
 C185 C 0.85522 0.30603 0.50182
 C186 C 0.83400 0.27996 0.52757
 N187 N 0.82087 0.25884 0.48572
 C188 C 0.82806 0.27573 0.58903
 C189 C 0.80498 0.24959 0.61376
 C190 C 0.80212 0.24229 0.67360
 C191 C 0.77601 0.21620 0.67976
 C192 C 0.76352 0.20833 0.62350
 N193 N 0.78130 0.22890 0.58371
 C194 C 0.73533 0.18408 0.61107
 H195 H 0.67737 0.14147 0.57058
 H196 H 0.67481 0.13346 0.45472
 H197 H 0.77581 0.23067 0.54017
 H198 H 0.75844 0.17169 0.28640
 H199 H 0.81068 0.21948 0.27587
 H200 H 0.86875 0.31658 0.40912
 H201 H 0.86960 0.32671 0.52371
 H202 H 0.76697 0.20462 0.72116
 H203 H 0.77496 0.22260 0.44281
 H204 H 0.81713 0.25462 0.70918
 O205 O 0.98304 0.53431 -0.06888
 O206 O 1.02990 0.53442 0.11351
 O207 O 0.93847 0.48077 0.06132
 O208 O 1.07363 0.54770 -0.04658
 O209 O 0.97499 0.50741 0.12367
 O210 O 1.03548 0.55078 -0.07587
 O211 O 1.04244 0.55548 0.02788
 O212 O 0.94282 0.49369 -0.04638
 C213 C 0.95570 0.52028 -0.06322
 C214 C 1.04144 0.55744 0.08274
 C215 C 0.94852 0.49654 0.10763
 C216 C 1.06230 0.55836 -0.08437
 O217 O 1.02215 0.49638 -0.11462
 O218 O 0.97397 0.45779 0.11486
 O219 O 0.95752 0.44978 -0.06480
 O220 O 1.06214 0.52010 0.05723
 O221 O 1.02660 0.48138 0.09466
 O222 O 0.97014 0.48515 -0.12371
 O223 O 1.04360 0.49206 -0.03660
 O224 O 0.94951 0.43720 0.03526
 Co225 Co 1.00241 0.51479 -0.08614
 Co226 Co 1.00149 0.49587 0.10178
 Co227 Co 0.95133 0.46842 -0.00370
 Co228 Co 1.04107 0.52263 -0.00526
 O229 O 0.99711 0.49835 0.00616
 C230 C 1.03697 0.48641 -0.08989
 C231 C 0.95616 0.43549 0.08716
 C232 C 0.95909 0.45830 -0.11591
 C233 C 1.05346 0.49768 0.08864
 O234 O 0.47824 0.45045 -0.06960
 O235 O 0.47761 0.51033 0.12433
 O236 O 0.48868 0.44799 0.03946
 O237 O 0.44506 0.50813 -0.05487
 O238 O 0.49188 0.47222 0.11846
 O239 O 0.44756 0.46992 -0.08010
 O240 O 0.44537 0.50467 0.05610
 O241 O 0.52046 0.45803 -0.05200
 C242 C 0.49685 0.44282 -0.07775
 C243 C 0.45155 0.50285 0.10897
 C244 C 0.48259 0.44804 0.09268
 C245 C 0.43344 0.48302 -0.07649
 O246 O 0.49208 0.52245 -0.12069
 O247 O 0.54664 0.51378 0.08140
 O248 O 0.55155 0.51185 -0.02591
 O249 O 0.49456 0.55505 0.05837
 O250 O 0.53174 0.54994 0.08092
 O251 O 0.52640 0.50309 -0.10809
 O252 O 0.49622 0.55489 -0.05371
 O253 O 0.54424 0.47339 0.05114
 Co254 Co 0.48706 0.48771 -0.08717
 Co255 Co 0.51048 0.51061 0.09277
 Co256 Co 0.51942 0.48098 0.00840
 Co257 Co 0.47274 0.52792 0.00175
 O258 O 0.49560 0.50199 0.00147
 C259 C 0.49873 0.54847 -0.10618
 C260 C 0.55444 0.49460 0.08919
 C261 C 0.55089 0.51500 -0.08100
 C262 C 0.52012 0.56556 0.07800
 O263 O 0.55084 0.02686 -0.08849
 O264 O 0.49752 -0.02524 0.11181
 O265 O 0.55286 0.05038 0.03975
 O266 O 0.48242 -0.07100 -0.04939
 O267 O 0.52576 0.02801 0.11423
 O268 O 0.52045 -0.02959 -0.08602
 O269 O 0.51134 -0.04209 0.03750
 O270 O 0.54752 0.06480 -0.05982
 C271 C 0.56135 0.05424 -0.08615
 C272 C 0.51137 -0.03761 0.09199
 C273 C 0.55076 0.04407 0.09307
 C274 C 0.50447 -0.05787 -0.08605
 O275 O 0.47410 -0.02533 -0.12563
 O276 O 0.48109 0.03353 0.06744
 O277 O 0.49320 0.04921 -0.04636
 O278 O 0.45537 -0.06038 0.05230
 O279 O 0.45097 -0.02187 0.06496
 O280 O 0.50299 0.02985 -0.12390
 O281 O 0.44925 -0.04903 -0.04868
 O282 O 0.52166 0.07532 0.04270
 Co283 Co 0.51130 0.00063 -0.09766
 Co284 Co 0.48946 0.00333 0.08232
 Co285 Co 0.52083 0.04633 -0.00046
 Co286 Co 0.48215 -0.04237 -0.00732
 O287 O 0.50114 0.00189 -0.00620
 C288 C 0.45007 -0.04353 -0.10264
 C289 C 0.49771 0.06144 0.07457
 C290 C 0.49250 0.04514 -0.10166
 C291 C 0.44071 -0.04905 0.07142
 C292 C 1.09295 0.45215 0.23279
 C293 C 1.11712 0.44444 0.21632
 C294 C 1.13663 0.46506 0.26585
 C295 C 1.11270 0.47263 0.28287
 C296 C 1.10687 0.47834 0.18940
 C297 C 1.12639 0.49890 0.23900
 C298 C 1.13078 0.47078 0.17213
 C299 C 1.15061 0.49126 0.22252
 C300 C 1.15250 0.45812 0.31080
 C301 C 1.16506 0.45302 0.34999
 C302 C 1.08925 0.48567 0.14971
 C303 C 1.07355 0.49142 0.12011
 H304 H 1.06904 0.43616 0.23653
 H305 H 1.11350 0.42197 0.20762
 H306 H 1.10543 0.47327 0.32889
 H307 H 1.13002 0.52137 0.24783
 H308 H 1.13799 0.47014 0.12606
 H309 H 1.17453 0.50723 0.21891
 C310 C 0.57974 0.65665 0.21068
 C311 C 0.58516 0.68763 0.19203
 C312 C 0.56497 0.68631 0.24286
 C313 C 0.55972 0.65582 0.26208
 C314 C 0.55267 0.64260 0.16972
 C315 C 0.53262 0.64148 0.22067
 C316 C 0.55790 0.67306 0.15026
 C317 C 0.53793 0.67221 0.20188
 C318 C 0.56979 0.70887 0.28649
 C319 C 0.57185 0.72568 0.32506
 C320 C 0.54359 0.61666 0.13247
 C321 C 0.53393 0.59390 0.10553
 H322 H 0.59682 0.64995 0.21379
 H323 H 0.60684 0.70696 0.18089
 H324 H 0.56050 0.64900 0.30855
 H325 H 0.51092 0.62225 0.23214
 H326 H 0.55708 0.67981 0.10377
 H327 H 0.52080 0.67887 0.19881
 C328 C 0.37238 -0.10348 0.23795
 C329 C 0.35021 -0.09404 0.25950
 C330 C 0.32517 -0.12583 0.25078
 C331 C 0.34707 -0.13548 0.22979
 C332 C 0.36759 -0.09664 0.17376
 C333 C 0.34257 -0.12844 0.16496
 C334 C 0.34573 -0.08692 0.19467
 C335 C 0.32024 -0.11906 0.18664
 C336 C 0.30276 -0.14230 0.29556
 C337 C 0.28542 -0.15625 0.33402
 C338 C 0.39238 -0.08018 0.13360
 C339 C 0.41393 -0.06624 0.10352
 H340 H 0.39409 -0.09693 0.25859
 H341 H 0.35306 -0.08012 0.29887
 H342 H 0.34736 -0.15562 0.24480
 H343 H 0.33975 -0.14235 0.12560
 H344 H 0.34549 -0.06676 0.17962
 H345 H 0.29847 -0.12567 0.16624
 C346 C 0.87768 0.49257 0.26787
 C347 C 0.89114 0.51797 0.31365
 C348 C 0.86690 0.52549 0.29847
 C349 C 0.85318 0.50016 0.25328
 C350 C 0.89701 0.51420 0.21918
 C351 C 0.87278 0.52172 0.20391
 C352 C 0.91071 0.53953 0.26439
 C353 C 0.88622 0.54715 0.24980
 C354 C 0.85008 0.53151 0.34308
 C355 C 0.83595 0.53611 0.37966
 C356 C 0.91436 0.50783 0.17647
 C357 C 0.92941 0.50261 0.14354
 H358 H 0.87428 0.47003 0.27487
 H359 H 0.89855 0.51651 0.35919
 H360 H 0.82933 0.48400 0.24920
 H361 H 0.86537 0.52318 0.15836
 H362 H 0.93456 0.55570 0.26852
 H363 H 0.88960 0.56969 0.24287
 C364 C 0.42815 0.36552 0.25000
 C365 C 0.41635 0.33267 0.23359
 C366 C 0.43955 0.33213 0.27497
 C367 C 0.45120 0.36451 0.29201
 C368 C 0.45033 0.37469 0.19862
 C369 C 0.47342 0.37400 0.24014
 C370 C 0.43869 0.34232 0.18146
 C371 C 0.46172 0.34136 0.22358
 C372 C 0.43521 0.30915 0.31808
 C373 C 0.43310 0.29085 0.35371
 C374 C 0.45865 0.39954 0.15767
 C375 C 0.46809 0.42112 0.12631
 H376 H 0.41438 0.37567 0.26039
 H377 H 0.39279 0.31539 0.23144
 H378 H 0.45635 0.37344 0.33786
 H379 H 0.49701 0.39121 0.24252
 H380 H 0.43357 0.33341 0.13559
 H381 H 0.47552 0.33124 0.21317
 C382 C 0.63293 0.07179 0.25226
 C383 C 0.66521 0.09362 0.23389
 C384 C 0.66579 0.11611 0.27857
 C385 C 0.63396 0.09458 0.29758
 C386 C 0.62212 0.08534 0.20445
 C387 C 0.62280 0.10785 0.24922
 C388 C 0.65394 0.10688 0.18539
 C389 C 0.65491 0.12959 0.23073
 C390 C 0.68956 0.13408 0.32038
 C391 C 0.70849 0.14961 0.35523
 C392 C 0.59722 0.06920 0.16371
 C393 C 0.57625 0.05706 0.13097
 H394 H 0.62364 0.04784 0.26067
 H395 H 0.68293 0.08798 0.22805
 H396 H 0.62598 0.08971 0.34416
 H397 H 0.60513 0.11357 0.25521
 H398 H 0.66192 0.11176 0.13882
 H399 H 0.66417 0.15353 0.22226
 C400 C 0.44067 0.07705 -0.25925
 C401 C 0.43186 0.10014 -0.23991
 C402 C 0.45330 0.12177 -0.28624
 C403 C 0.46198 0.09898 -0.30622
 C404 C 0.46579 0.08985 -0.21343
 C405 C 0.48718 0.11150 -0.25982
 C406 C 0.45711 0.11264 -0.19342
 C407 C 0.47840 0.13452 -0.24040
 C408 C 0.44730 0.14010 -0.32725
 C409 C 0.44328 0.15562 -0.36151
 C410 C 0.47387 0.07279 -0.17315
 C411 C 0.48169 0.05964 -0.14034
 H412 H 0.42523 0.05323 -0.26657
 H413 H 0.40903 0.09568 -0.23217
 H414 H 0.46393 0.09356 -0.35306
 H415 H 0.51001 0.11601 -0.26765
 H416 H 0.45517 0.11807 -0.14660
 H417 H 0.49386 0.15834 -0.23304
 C418 C 0.63712 0.56716 -0.23291
 C419 C 0.66882 0.57554 -0.21300
 C420 C 0.66797 0.55213 -0.25547
 C421 C 0.63674 0.54388 -0.27598
 C422 C 0.62469 0.54362 -0.18369
 C423 C 0.62400 0.52032 -0.22630
 C424 C 0.65591 0.55186 -0.16307
 C425 C 0.65547 0.52861 -0.20626
 C426 C 0.69094 0.55510 -0.29685
 C427 C 0.70865 0.55595 -0.33230
 C428 C 0.59946 0.53654 -0.14498
 C429 C 0.57772 0.52817 -0.11472
 H430 H 0.62934 0.58297 -0.24347
 H431 H 0.68756 0.59830 -0.20798
 H432 H 0.62908 0.54058 -0.32284
 H433 H 0.60533 0.49752 -0.23152
 H434 H 0.66354 0.55512 -0.11620
 H435 H 0.66321 0.51276 -0.19567
 C436 C 0.89062 0.36244 -0.21304
 C437 C 0.86919 0.36118 -0.26205
 C438 C 0.88113 0.34619 -0.30342
 C439 C 0.90232 0.34710 -0.25493
 C440 C 0.91421 0.39256 -0.23726
 C441 C 0.92620 0.37759 -0.27860
 C442 C 0.89300 0.39164 -0.28575
 C443 C 0.90470 0.37627 -0.32776
 C444 C 0.86234 0.32045 -0.34022
 C445 C 0.84675 0.29974 -0.37143
 C446 C 0.93176 0.41768 -0.19801
 C447 C 0.94503 0.43714 -0.16254
 H448 H 0.88499 0.35699 -0.16542
 H449 H 0.84556 0.35415 -0.25547
 H450 H 0.90592 0.32851 -0.24254
 H451 H 0.94983 0.38464 -0.28512
 H452 H 0.88939 0.41022 -0.29815
 H453 H 0.91028 0.38165 -0.37542
 C454 C 0.53354 -0.13143 -0.17504
 C455 C 0.51412 -0.14942 -0.22825
 C456 C 0.54159 -0.13565 -0.26801
 C457 C 0.56116 -0.11795 -0.21560
 C458 C 0.52819 -0.10597 -0.19235
 C459 C 0.55565 -0.09222 -0.23213
 C460 C 0.50867 -0.12370 -0.24482
 C461 C 0.53622 -0.11019 -0.28516
 C462 C 0.54841 -0.15184 -0.31200
 C463 C 0.55336 -0.16485 -0.35015
 C464 C 0.52022 -0.08917 -0.15217
 C465 C 0.51322 -0.07502 -0.12100
 H466 H 0.53233 -0.13993 -0.12923
 H467 H 0.49717 -0.17313 -0.22725
 H468 H 0.58282 -0.11583 -0.20422
 H469 H 0.57261 -0.06850 -0.23319
 H470 H 0.48701 -0.12585 -0.25634
 H471 H 0.53742 -0.10166 -0.33094
 C472 C 0.32550 0.44764 -0.14561
 C473 C 0.32587 0.46740 -0.19760
 C474 C 0.31152 0.44015 -0.23787
 C475 C 0.31065 0.42017 -0.18672
 C476 C 0.35580 0.45289 -0.16570
 C477 C 0.34148 0.42563 -0.20595
 C478 C 0.35647 0.47273 -0.21695
 C479 C 0.34187 0.44544 -0.25763
 C480 C 0.28892 0.43508 -0.28179
 C481 C 0.27252 0.43303 -0.32139
 C482 C 0.38205 0.46179 -0.12942
 C483 C 0.40500 0.47076 -0.10335
 H484 H 0.31913 0.44864 -0.09903
 H485 H 0.31916 0.48450 -0.19467
 H486 H 0.29147 0.39851 -0.17490
 H487 H 0.34824 0.40857 -0.20888
 H488 H 0.37556 0.49442 -0.22906
 H489 H 0.34837 0.44450 -0.30417
 C490 C 1.12982 0.62525 -0.25009
 C491 C 1.11529 0.63780 -0.29246
 C492 C 1.13932 0.66914 -0.27609
 C493 C 1.15413 0.65697 -0.23436
 C494 C 1.11102 0.62638 -0.19893
 C495 C 1.13505 0.65772 -0.18247
 C496 C 1.09625 0.63857 -0.24069
 C497 C 1.12052 0.67029 -0.22495
 C498 C 1.15482 0.69247 -0.31998
 C499 C 1.16753 0.71118 -0.35715
 C500 C 1.09463 0.60231 -0.15692
 C501 C 1.08035 0.58230 -0.12328
 H502 H 1.13346 0.60646 -0.25990
 H503 H 1.10734 0.62992 -0.33819
 H504 H 1.17813 0.66486 -0.23233
 H505 H 1.14298 0.66559 -0.13673
 H506 H 1.07225 0.63071 -0.24281
 H507 H 1.11689 0.68908 -0.21521
 C508 C 0.88045 0.55310 -0.13766
 C509 C 0.89210 0.57795 -0.18541
 C510 C 0.87270 0.55511 -0.23211
 C511 C 0.86074 0.53042 -0.18525
 C512 C 0.90546 0.54695 -0.15375
 C513 C 0.88598 0.52423 -0.20061
 C514 C 0.91743 0.57164 -0.20064
 C515 C 0.89772 0.54893 -0.24789
 C516 C 0.85442 0.55782 -0.27826
 C517 C 0.83921 0.55836 -0.31801
 C518 C 0.92367 0.54015 -0.11447
 C519 C 0.93852 0.53225 -0.08762
 H520 H 0.87360 0.55477 -0.09186
 H521 H 0.89436 0.60010 -0.17984
 H522 H 0.83724 0.51346 -0.17951
 H523 H 0.88359 0.50204 -0.20651
 H524 H 0.94094 0.58857 -0.20642
 H525 H 0.90461 0.54720 -0.29363
 C526 C 0.45004 0.36105 -0.22788
 C527 C 0.46935 0.36187 -0.28066
 C528 C 0.46247 0.33048 -0.26460
 C529 C 0.44304 0.32929 -0.21242
 C530 C 0.47724 0.37313 -0.18728
 C531 C 0.47037 0.34175 -0.17108
 C532 C 0.49665 0.37429 -0.23950
 C533 C 0.48968 0.34252 -0.22405
 C534 C 0.45454 0.30734 -0.30888
 C535 C 0.44856 0.28887 -0.34644
 C536 C 0.48509 0.39742 -0.14588
 C537 C 0.49092 0.41793 -0.11366
 H538 H 0.43384 0.36895 -0.22897
 H539 H 0.46879 0.36984 -0.32621
 H540 H 0.42090 0.31051 -0.20191
 H541 H 0.47093 0.33380 -0.12553
 H542 H 0.51879 0.39304 -0.25010
 H543 H 0.50585 0.33458 -0.22306
 C544 C 0.64758 0.09454 -0.22904
 C545 C 0.64644 0.11519 -0.27713
 C546 C 0.67749 0.13912 -0.25865
 C547 C 0.67901 0.11873 -0.21111
 C548 C 0.63474 0.10719 -0.18403
 C549 C 0.66575 0.13110 -0.16529
 C550 C 0.63330 0.12761 -0.23165
 C551 C 0.66467 0.15181 -0.21369
 C552 C 0.69995 0.15620 -0.30300
 C553 C 0.71711 0.16956 -0.34218
 C554 C 0.60979 0.08886 -0.14543
 C555 C 0.58816 0.07326 -0.11672
 H556 H 0.64027 0.07079 -0.23491
 H557 H 0.63877 0.10886 -0.32360
 H558 H 0.69811 0.11533 -0.20325
 H559 H 0.67335 0.13738 -0.11878
 H560 H 0.61424 0.13105 -0.23970
 H561 H 0.67200 0.17557 -0.20795
 C562 C 1.09831 0.44200 -0.17754
 C563 C 1.08617 0.41983 -0.22995
 C564 C 1.11027 0.44302 -0.27030
 C565 C 1.12264 0.46501 -0.21860
 C566 C 1.07797 0.45409 -0.19625
 C567 C 1.10210 0.47717 -0.23674
 C568 C 1.06552 0.43208 -0.24794
 C569 C 1.08993 0.45512 -0.28891
 C570 C 1.12916 0.43852 -0.31230
 C571 C 1.14542 0.43635 -0.34741
 C572 C 1.06127 0.46253 -0.15610
 C573 C 1.04914 0.47197 -0.12470
 H574 H 1.10156 0.43664 -0.13133
 H575 H 1.07983 0.39617 -0.22764
 H576 H 1.14631 0.47856 -0.20692
 H577 H 1.10855 0.50086 -0.23926
 H578 H 1.04184 0.41858 -0.25957
 H579 H 1.08669 0.46051 -0.33511
 C580 C 0.55112 0.62590 -0.27432
 C581 C 0.53090 0.62731 -0.32337
 C582 C 0.54053 0.65914 -0.30488
 C583 C 0.56087 0.65814 -0.25654
 C584 C 0.52546 0.61501 -0.23000
 C585 C 0.53510 0.64686 -0.21161
 C586 C 0.50514 0.61603 -0.27836
 C587 C 0.51489 0.64820 -0.26052
 C588 C 0.54822 0.68385 -0.34593
 C589 C 0.55374 0.70419 -0.37916
 C590 C 0.51650 0.59073 -0.18717
 C591 C 0.50864 0.57117 -0.15084
 H592 H 0.56592 0.61647 -0.27959
 H593 H 0.52927 0.61952 -0.36979
 H594 H 0.58388 0.67571 -0.24796
 H595 H 0.53674 0.65469 -0.16522
 H596 H 0.48213 0.59848 -0.28701
 H597 H 0.50007 0.65761 -0.25518
 C598 C 0.36626 -0.07625 -0.25834
 C599 C 0.36648 -0.09813 -0.30440
 C600 C 0.33502 -0.12096 -0.28559
 C601 C 0.33438 -0.09936 -0.24015
 C602 C 0.37816 -0.08907 -0.21117
 C603 C 0.34671 -0.11189 -0.19228
 C604 C 0.37871 -0.11069 -0.25669
 C605 C 0.34695 -0.13374 -0.23841
 C606 C 0.31161 -0.13911 -0.32798
 C607 C 0.29298 -0.15433 -0.36370
 C608 C 0.40295 -0.07188 -0.17075
 C609 C 0.42406 -0.05847 -0.13882
 H610 H 0.37444 -0.05243 -0.26613
 H611 H 0.37439 -0.09266 -0.35094
 H612 H 0.31588 -0.09490 -0.23381
 H613 H 0.33880 -0.11737 -0.14574
 H614 H 0.39717 -0.11520 -0.26318
 H615 H 0.33878 -0.15756 -0.23063
 C616 C 0.54220 -0.07724 0.27330
 C617 C 0.52455 -0.11130 0.27806
 C618 C 0.55359 -0.11203 0.27586
 C619 C 0.57139 -0.07821 0.27170
 C620 C 0.54037 -0.07985 0.20523
 C621 C 0.56943 -0.08053 0.20290
 C622 C 0.52262 -0.11366 0.20953
 C623 C 0.55175 -0.11463 0.20779
 C624 C 0.55979 -0.13075 0.31545
 C625 C 0.56376 -0.14676 0.34848
 C626 C 0.53169 -0.06305 0.16546
 C627 C 0.52318 -0.05060 0.13226
 H628 H 0.53820 -0.06169 0.29987
 H629 H 0.50611 -0.12414 0.30930
 H630 H 0.59155 -0.06383 0.29769
 H631 H 0.58784 -0.06767 0.17161
 H632 H 0.50245 -0.12811 0.18361
 H633 H 0.55573 -0.13020 0.18122
 C634 C 0.38466 0.49845 0.28024
 C635 C 0.35330 0.49133 0.26131
 C636 C 0.34028 0.46453 0.30326
 C637 C 0.37130 0.47153 0.32282
 C638 C 0.38462 0.47849 0.23018
 C639 C 0.37163 0.45167 0.27209
 C640 C 0.35358 0.47148 0.21068
 C641 C 0.34021 0.44455 0.25321
 C642 C 0.31565 0.45740 0.34384
 C643 C 0.29565 0.45224 0.37739
 C644 C 0.40911 0.48676 0.18852
 C645 C 0.42881 0.49394 0.15304
 H646 H 0.40317 0.52070 0.29100
 H647 H 0.34550 0.50756 0.25723
 H648 H 0.37833 0.47147 0.36940
 H649 H 0.37945 0.43545 0.27614
 H650 H 0.34650 0.47153 0.16414
 H651 H 0.32167 0.42231 0.24247
 C652 C 1.10832 0.62975 0.22886
 C653 C 1.13292 0.66111 0.21207
 C654 C 1.12068 0.67384 0.25829
 C655 C 1.09630 0.64274 0.27554
 C656 C 1.08821 0.63214 0.18173
 C657 C 1.07592 0.64484 0.22795
 C658 C 1.11260 0.66323 0.16432
 C659 C 1.10062 0.67639 0.21128
 C660 C 1.13921 0.69604 0.30232
 C661 C 1.15489 0.71346 0.33936
 C662 C 1.07063 0.60737 0.14169
 C663 C 1.05683 0.58540 0.11233
 H664 H 1.11137 0.61036 0.23578
 H665 H 1.15654 0.66797 0.20601
 H666 H 1.08979 0.63450 0.32168
 H667 H 1.05230 0.63796 0.23401
 H668 H 1.11910 0.67143 0.11816
 H669 H 1.09767 0.69585 0.20459
 C670 C 0.48851 0.12434 0.23463
 C671 C 0.48103 0.14867 0.21784
 C672 C 0.45342 0.13333 0.25706
 C673 C 0.46080 0.10923 0.27442
 C674 C 0.46993 0.10598 0.18177
 C675 C 0.44231 0.09063 0.22099
 C676 C 0.46256 0.13008 0.16427
 C677 C 0.43477 0.11499 0.20425
 C678 C 0.44532 0.14871 0.30064
 C679 C 0.43995 0.16172 0.33815
 C680 C 0.47963 0.09058 0.14158
 C681 C 0.48788 0.07753 0.11014
 H682 H 0.51071 0.12802 0.24662
 H683 H 0.49682 0.17273 0.21707
 H684 H 0.45994 0.10083 0.32020
 H685 H 0.42653 0.06657 0.22176
 H686 H 0.46344 0.13845 0.11847
 H687 H 0.41258 0.11134 0.19238
 C688 C 0.65253 0.51766 0.18958
 C689 C 0.66514 0.54399 0.23334
 C690 C 0.66302 0.52305 0.28360
 C691 C 0.65081 0.49683 0.24062
 C692 C 0.62126 0.51112 0.20527
 C693 C 0.61918 0.49020 0.25556
 C694 C 0.63350 0.53734 0.24828
 C695 C 0.63175 0.51651 0.29919
 C696 C 0.68570 0.52946 0.32832
 C697 C 0.70376 0.53437 0.36637
 C698 C 0.59769 0.50468 0.16270
 C699 C 0.57802 0.49978 0.12863
 H700 H 0.66075 0.51803 0.14397
 H701 H 0.68431 0.56617 0.22483
 H702 H 0.65825 0.48028 0.23806
 H703 H 0.60001 0.46803 0.26417
 H704 H 0.62608 0.55390 0.25092
 H705 H 0.62352 0.51615 0.34479
 C706 C 0.92344 0.34433 0.22323
 C707 C 0.90136 0.34354 0.26985
 C708 C 0.87831 0.31293 0.24724
 C709 C 0.90009 0.31322 0.20116
 C710 C 0.91146 0.35813 0.17857
 C711 C 0.88846 0.32757 0.15566
 C712 C 0.88965 0.35763 0.22478
 C713 C 0.86642 0.32680 0.20256
 C714 C 0.85956 0.28998 0.28928
 C715 C 0.84418 0.27365 0.32778
 C716 C 0.92891 0.38469 0.14330
 C717 C 0.94207 0.40758 0.11667
 H718 H 0.94709 0.35189 0.23129
 H719 H 0.90645 0.34987 0.31727
 H720 H 0.90405 0.29460 0.19199
 H721 H 0.88345 0.32139 0.10817
 H722 H 0.88555 0.37616 0.23427
 H723 H 0.84278 0.31930 0.19449
   
