data_POSCAR
  _audit_creation_date              2014-09-24
  _audit_creation_method            'ToBaCCo'
  _symmetry_space_group_name_H-M    'P1'
  _symmetry_Int_Tables_number       1
  _symmetry_cell_setting            triclinic
  loop_
  _symmetry_equiv_pos_as_xyz
 x,y,z
_cell_length_a 27.2056
_cell_length_b 27.6636
_cell_length_c 23.6049
_cell_angle_alpha 89.761900
_cell_angle_beta 90.207300
_cell_angle_gamma 88.086900
loop_
  _atom_site_label
  _atom_site_type_symbol
  _atom_site_fract_x
  _atom_site_fract_y
  _atom_site_fract_z
C1 C 1.20829 0.22566 0.20384
 C2 C 1.24218 0.25835 0.16915
 C3 C 1.27548 0.28312 0.20052
 C4 C 1.27342 0.27110 0.26443
 C5 C 1.24469 0.19227 0.23737
 C6 C 1.27814 0.21569 0.26986
 C7 C 1.18635 0.26092 0.24715
 C8 C 1.21968 0.28330 0.27961
 H9 H 1.23792 0.26584 0.12454
 H10 H 1.30090 0.28940 0.29092
 H11 H 1.24246 0.15325 0.23735
 H12 H 1.14722 0.26929 0.25009
 C13 C 0.73670 -0.30158 0.20533
 C14 C 0.77206 -0.26617 0.18028
 C15 C 0.78967 -0.23385 0.21723
 C16 C 0.77048 -0.24086 0.27905
 C17 C 0.76613 -0.32592 0.25319
 C18 C 0.78342 -0.29457 0.29233
 C19 C 0.69678 -0.27143 0.23684
 C20 C 0.71367 -0.24064 0.27628
 H21 H 0.78235 -0.26661 0.13592
 H22 H 0.78375 -0.21452 0.31039
 H23 H 0.77062 -0.36454 0.25873
 H24 H 0.65783 -0.27684 0.23096
 C25 C 0.70695 0.22458 -0.29286
 C26 C 0.74108 0.25313 -0.32624
 C27 C 0.77383 0.28254 -0.29328
 C28 C 0.76716 0.27483 -0.23203
 C29 C 0.73838 0.19556 -0.25483
 C30 C 0.77160 0.22264 -0.22119
 C31 C 0.68258 0.26130 -0.25788
 C32 C 0.71504 0.28787 -0.22301
 H33 H 0.73338 0.26286 -0.36989
 H34 H 0.79348 0.29356 -0.20468
 H35 H 0.73755 0.15643 -0.25278
 H36 H 0.64371 0.27097 -0.26140
 C37 C 1.22237 -0.30336 -0.29420
 C38 C 1.25805 -0.27164 -0.32663
 C39 C 1.27998 -0.23799 -0.29359
 C40 C 1.26218 -0.23882 -0.23023
 C41 C 1.25416 -0.32386 -0.24662
 C42 C 1.27261 -0.29146 -0.21102
 C43 C 1.18537 -0.26670 -0.26817
 C44 C 1.20488 -0.23385 -0.23246
 H45 H 1.26506 -0.27395 -0.37157
 H46 H 1.27910 -0.21272 -0.20172
 H47 H 1.26168 -0.36246 -0.24166
 H48 H 1.14632 -0.26835 -0.27650
 C49 C 0.22311 0.21466 0.79685
 C50 C 0.24743 0.25043 0.83176
 C51 C 0.27975 0.28180 0.80167
 C52 C 0.28263 0.26973 0.74130
 C53 C 0.19843 0.24543 0.75033
 C54 C 0.22867 0.27444 0.72093
 C55 C 0.26493 0.18654 0.76696
 C56 C 0.29556 0.21479 0.73689
 H57 H 0.23439 0.26038 0.87339
 H58 H 0.30990 0.29075 0.71795
 H59 H 0.15883 0.24746 0.74483
 H60 H 0.26687 0.14742 0.76473
 C61 C 0.73307 0.70301 0.79666
 C62 C 0.76538 0.73777 0.82091
 C63 C 0.78580 0.77014 0.78131
 C64 C 0.76990 0.76107 0.72201
 C65 C 0.69618 0.73043 0.76332
 C66 C 0.71530 0.76178 0.72117
 C67 C 0.76252 0.67828 0.75390
 C68 C 0.78299 0.70962 0.71216
 H69 H 0.77486 0.73830 0.86563
 H70 H 0.78415 0.78645 0.69030
 H71 H 0.65699 0.72649 0.76891
 H72 H 0.76507 0.63953 0.74904
 C73 C 0.71305 0.22370 0.29144
 C74 C 0.74292 0.25895 0.32768
 C75 C 0.77453 0.28707 0.29791
 C76 C 0.77426 0.27608 0.23382
 C77 C 0.68855 0.25732 0.24723
 C78 C 0.71990 0.28482 0.21759
 C79 C 0.75277 0.19414 0.25927
 C80 C 0.78397 0.22103 0.22838
 H81 H 0.73698 0.26540 0.37212
 H82 H 0.80067 0.29660 0.20829
 H83 H 0.64899 0.26311 0.24451
 H84 H 0.75421 0.15497 0.25849
 C85 C 0.22352 0.69843 0.29810
 C86 C 0.26246 0.72954 0.32483
 C87 C 0.28240 0.76204 0.28924
 C88 C 0.26132 0.75936 0.22728
 C89 C 0.18564 0.73370 0.27005
 C90 C 0.20437 0.76559 0.23218
 C91 C 0.25155 0.67490 0.24921
 C92 C 0.26986 0.70577 0.21095
 H93 H 0.27342 0.72625 0.36891
 H94 H 0.27707 0.78405 0.19602
 H95 H 0.14672 0.73188 0.27869
 H96 H 0.26391 0.63740 0.24860
 O97 O 0.90496 -0.06653 -0.10606
 O98 O 0.94891 -0.12370 -0.05371
 C99 C 0.91515 -0.11079 -0.09165
 O100 O 1.08346 0.05943 -0.10288
 O101 O 1.03819 0.11736 -0.05437
 C102 C 1.07265 0.10372 -0.09003
 O103 O 1.08298 -0.07035 -0.10350
 O104 O 1.04157 -0.12597 -0.05088
 C105 C 1.07549 -0.11428 -0.08766
 O106 O 0.89902 0.06375 -0.10200
 O107 O 0.94336 0.11982 -0.05384
 C108 C 0.90789 0.10782 -0.08819
 Zr109 Zr 0.93216 -0.00204 -0.07521
 O110 O 0.94205 -0.00173 -0.16399
 O111 O 0.85490 -0.00258 -0.08395
 Zr112 Zr 1.05285 -0.00434 -0.07508
 O113 O 1.04182 -0.00526 -0.16373
 O114 O 1.12989 -0.00423 -0.08502
 O115 O 0.99326 -0.04837 -0.08511
 O116 O 0.99175 0.04075 -0.08654
 O117 O 0.90397 0.06746 0.09628
 O118 O 0.94761 0.12154 0.04389
 C119 C 0.91496 0.11109 0.08213
 O120 O 1.08336 -0.06793 0.09940
 O121 O 1.04113 -0.12472 0.04963
 C122 C 1.07524 -0.11230 0.08594
 O123 O 1.08011 0.06422 0.09544
 O124 O 1.03582 0.12000 0.04160
 C125 C 1.06837 0.10824 0.08050
 O126 O 0.90571 -0.06398 0.10123
 O127 O 0.94950 -0.12236 0.05141
 C128 C 0.91589 -0.10858 0.08858
 Zr129 Zr 0.93230 -0.00007 0.06741
 O130 O 0.94046 0.00099 0.15653
 O131 O 0.85453 0.00104 0.07070
 Zr132 Zr 1.05379 -0.00228 0.06738
 O133 O 1.04985 0.00124 0.15694
 O134 O 1.13156 -0.00327 0.06998
 Zr135 Zr 0.99413 -0.07739 -0.00204
 Zr136 Zr 0.99157 0.07201 -0.00559
 O137 O 0.99236 0.04198 0.07644
 O138 O 0.99377 -0.04584 0.07936
 O139 O 0.92123 0.04231 -0.00479
 O140 O 1.06358 -0.04549 -0.00282
 O141 O 0.92383 -0.04328 -0.00285
 O142 O 1.06279 0.03969 -0.00481
 H143 H 0.99108 0.06275 -0.11979
 H144 H 1.09433 -0.06554 -0.00221
 H145 H 0.99212 0.06346 0.10981
 H146 H 0.89463 -0.06337 -0.00223
 H147 H 1.14405 -0.00161 -0.04664
 H148 H 1.14309 0.02155 0.04329
 H149 H 1.03192 -0.02710 0.17056
 H150 H 0.90681 0.00371 0.17244
 H151 H 0.84192 0.02563 0.04326
 H152 H 0.84139 -0.00467 -0.04529
 H153 H 0.90869 0.00122 -0.18089
 H154 H 1.07490 -0.00389 -0.18096
 O155 O 1.07401 0.56002 0.61775
 O156 O 1.12789 0.51935 0.55877
 C157 C 1.11788 0.54755 0.60101
 O158 O 0.93079 0.40109 0.59662
 O159 O 0.87687 0.45415 0.55084
 C160 C 0.88702 0.41692 0.58344
 O161 O 1.06778 0.39931 0.60473
 O162 O 1.12443 0.44086 0.55425
 C163 C 1.11276 0.40973 0.59215
 O164 O 0.93985 0.58415 0.60566
 O165 O 0.88158 0.54623 0.55301
 C166 C 0.89561 0.58064 0.58632
 Zr167 Zr 1.00476 0.54612 0.58389
 O168 O 0.99853 0.53368 0.67207
 O169 O 1.01726 0.62086 0.59300
 Zr170 Zr 0.99935 0.42694 0.57392
 O171 O 0.99325 0.42363 0.66325
 O172 O 1.00192 0.35045 0.57007
 O173 O 1.04628 0.48256 0.58996
 O174 O 0.95774 0.48967 0.58881
 O175 O 0.94096 0.59481 0.42297
 O176 O 0.88182 0.55040 0.46591
 C177 C 0.89605 0.58810 0.43774
 O178 O 1.06631 0.40663 0.39995
 O179 O 1.12328 0.44377 0.45538
 C180 C 1.11086 0.41430 0.41575
 O181 O 0.93173 0.40926 0.40775
 O182 O 0.87728 0.45850 0.45699
 C183 C 0.88780 0.42354 0.42177
 O184 O 1.07389 0.57918 0.41533
 O185 O 1.12713 0.52848 0.46484
 C186 C 1.11735 0.56486 0.43138
 Zr187 Zr 1.00555 0.55488 0.44045
 O188 O 1.00230 0.55160 0.35116
 O189 O 1.01462 0.63037 0.43764
 Zr190 Zr 0.99970 0.43606 0.43087
 O191 O 0.99409 0.44963 0.34263
 O192 O 0.99962 0.36113 0.41379
 Zr193 Zr 1.07601 0.48551 0.50770
 Zr194 Zr 0.92795 0.49715 0.50693
 O195 O 0.95809 0.49979 0.42510
 O196 O 1.04772 0.49275 0.42474
 O197 O 0.96329 0.56352 0.51255
 O198 O 1.04158 0.41879 0.50210
 O199 O 1.04731 0.55623 0.51356
 O200 O 0.95579 0.42519 0.50155
 H201 H 0.93444 0.49039 0.62098
 H202 H 1.06192 0.38854 0.50098
 H203 H 0.93454 0.50398 0.39316
 H204 H 1.06935 0.58345 0.51757
 H205 H 0.97706 0.34093 0.54188
 H206 H 1.00221 0.34435 0.45074
 H207 H 1.02679 0.45932 0.32923
 H208 H 1.00269 0.58556 0.33777
 H209 H 1.01634 0.64122 0.47750
 H210 H 1.01444 0.62897 0.63373
 H211 H 0.99993 0.56552 0.69083
 H212 H 1.02024 0.44240 0.67942
 O213 O 0.58790 -0.07400 0.60100
 O214 O 0.54518 -0.12983 0.55067
 C215 C 0.57900 -0.11818 0.58779
 O216 O 0.41069 0.06298 0.59930
 O217 O 0.45373 0.11654 0.54551
 C218 C 0.42175 0.10646 0.58460
 O219 O 0.40830 -0.06878 0.60116
 O220 O 0.45192 -0.12726 0.55130
 C221 C 0.41738 -0.11345 0.58747
 O222 O 0.58911 0.05739 0.59398
 O223 O 0.54293 0.11372 0.54290
 C224 C 0.57717 0.10154 0.57976
 Zr225 Zr 0.55915 -0.00841 0.56862
 O226 O 0.55010 -0.00670 0.65751
 O227 O 0.63671 -0.00929 0.57632
 Zr228 Zr 0.43748 -0.00474 0.56944
 O229 O 0.44328 -0.00176 0.65895
 O230 O 0.35971 -0.00158 0.57265
 O231 O 0.49859 -0.05134 0.58086
 O232 O 0.49833 0.03661 0.57806
 O233 O 0.58492 0.05594 0.39515
 O234 O 0.54136 0.11312 0.44672
 C235 C 0.57388 0.10032 0.40862
 O236 O 0.40833 -0.07144 0.39705
 O237 O 0.45249 -0.12882 0.44860
 C238 C 0.41806 -0.11577 0.41164
 O239 O 0.40543 0.05848 0.39786
 O240 O 0.44913 0.11440 0.44704
 C241 C 0.41437 0.10242 0.41163
 O242 O 0.58206 -0.07556 0.39237
 O243 O 0.54416 -0.13078 0.44860
 C244 C 0.57546 -0.11950 0.40869
 Zr245 Zr 0.55880 -0.00959 0.42699
 O246 O 0.56538 -0.01036 0.33773
 O247 O 0.63654 -0.01501 0.43338
 Zr248 Zr 0.43707 -0.00684 0.42647
 O249 O 0.44343 -0.00462 0.33703
 O250 O 0.35975 -0.00626 0.41897
 Zr251 Zr 0.49827 -0.08242 0.49917
 Zr252 Zr 0.49718 0.06666 0.49606
 O253 O 0.49723 0.03495 0.41524
 O254 O 0.49813 -0.05279 0.41637
 O255 O 0.56857 0.03430 0.49687
 O256 O 0.42840 -0.04746 0.49885
 O257 O 0.56837 -0.05200 0.49835
 O258 O 0.42652 0.03770 0.49704
 H259 H 0.49896 0.05820 0.61119
 H260 H 0.39884 -0.06692 0.49907
 H261 H 0.49610 0.05662 0.38173
 H262 H 0.59807 -0.07367 0.49794
 H263 H 0.34762 0.02393 0.54607
 H264 H 0.34662 -0.00640 0.45789
 H265 H 0.45772 -0.03611 0.32427
 H266 H 0.53380 0.00178 0.32163
 H267 H 0.64801 0.01473 0.45172
 H268 H 0.65059 -0.02372 0.54143
 H269 H 0.58355 -0.00469 0.67390
 H270 H 0.45986 -0.03213 0.67234
 O271 O 0.57007 0.58104 0.10041
 O272 O 0.62543 0.53853 0.04498
 C273 C 0.61411 0.57162 0.08213
 O274 O 0.43662 0.40681 0.09297
 O275 O 0.37942 0.45586 0.04630
 C276 C 0.39197 0.41980 0.07975
 O277 O 0.57219 0.41304 0.10054
 O278 O 0.62711 0.45368 0.04551
 C279 C 0.61635 0.42398 0.08593
 O280 O 0.43608 0.59145 0.09260
 O281 O 0.37878 0.54854 0.04457
 C282 C 0.39154 0.58476 0.07595
 Zr283 Zr 0.50242 0.55515 0.07252
 O284 O 0.50046 0.54133 0.16052
 O285 O 0.50486 0.62945 0.08991
 Zr286 Zr 0.50314 0.43595 0.06820
 O287 O 0.49783 0.43107 0.15747
 O288 O 0.50736 0.35987 0.05955
 O289 O 0.54784 0.49451 0.08092
 O290 O 0.45830 0.49695 0.08117
 O291 O 0.43479 0.59596 -0.08935
 O292 O 0.37825 0.55153 -0.04220
 C293 C 0.39062 0.58908 -0.07210
 O294 O 0.56944 0.41582 -0.10799
 O295 O 0.62565 0.45465 -0.05279
 C296 C 0.61400 0.42578 -0.09360
 O297 O 0.43377 0.41113 -0.09855
 O298 O 0.37803 0.45796 -0.04777
 C299 C 0.38951 0.42345 -0.08326
 O300 O 0.56776 0.58532 -0.10060
 O301 O 0.62433 0.54062 -0.04837
 C302 C 0.61219 0.57547 -0.08341
 Zr303 Zr 0.50085 0.55791 -0.07275
 O304 O 0.49674 0.54730 -0.16116
 O305 O 0.50253 0.63271 -0.08723
 Zr306 Zr 0.50134 0.43872 -0.07376
 O307 O 0.49414 0.43786 -0.16307
 O308 O 0.50513 0.36236 -0.06848
 Zr309 Zr 0.57619 0.49625 -0.00225
 Zr310 Zr 0.42720 0.50043 -0.00052
 O311 O 0.45632 0.50025 -0.08292
 O312 O 0.54606 0.49766 -0.08486
 O313 O 0.45989 0.56826 0.00060
 O314 O 0.54579 0.42735 -0.00341
 O315 O 0.54248 0.56509 -0.00036
 O316 O 0.45829 0.42960 -0.00245
 H317 H 0.43539 0.49744 0.11373
 H318 H 0.56839 0.39850 -0.00406
 H319 H 0.43260 0.50230 -0.11481
 H320 H 0.56229 0.59386 0.00003
 H321 H 0.50993 0.34647 0.09850
 H322 H 0.50609 0.35047 -0.10803
 H323 H 0.51813 0.46044 -0.17859
 H324 H 0.49357 0.58003 -0.17818
 H325 H 0.50194 0.64678 -0.04881
 H326 H 0.50384 0.64513 0.05223
 H327 H 0.49770 0.57342 0.17887
 H328 H 0.52125 0.45387 0.17368
 C329 C 1.12481 0.17712 0.08449
 C330 C 1.16095 0.20207 0.11343
 C331 C 1.16691 0.19833 0.17285
 C332 C 1.13183 0.17016 0.20286
 C333 C 1.09581 0.14429 0.17264
 C334 C 1.09407 0.14592 0.11280
 C335 C 1.06153 0.11769 0.20342
 N336 N 1.06342 0.11633 0.26064
 N337 N 1.09700 0.14017 0.28919
 C338 C 1.13077 0.16691 0.26246
 H339 H 1.12238 0.18062 0.03920
 H340 H 1.18446 0.22345 0.08761
 H341 H 1.03247 0.09890 0.18267
 H342 H 1.15515 0.18622 0.28863
 C343 C 1.18878 0.59918 0.59947
 C344 C 1.20870 0.64016 0.62307
 C345 C 1.19769 0.65372 0.67910
 C346 C 1.16884 0.62207 0.71325
 C347 C 1.15127 0.57944 0.68927
 C348 C 1.15728 0.57098 0.63108
 C349 C 1.12579 0.54686 0.72348
 N350 N 1.11691 0.55735 0.77846
 N351 N 1.13183 0.59818 0.80129
 C352 C 1.15708 0.63079 0.77092
 H353 H 1.19468 0.59184 0.55493
 H354 H 1.23168 0.66150 0.59634
 H355 H 1.11304 0.51309 0.70670
 H356 H 1.16775 0.66258 0.79321
 C357 C 0.64656 0.15712 0.58608
 C358 C 0.67945 0.18419 0.61746
 C359 C 0.67193 0.19476 0.67564
 C360 C 0.63007 0.17336 0.70208
 C361 C 0.59586 0.14746 0.66892
 C362 C 0.60428 0.13915 0.61059
 C363 C 0.55431 0.12899 0.69569
 N364 N 0.54807 0.13405 0.75217
 N365 N 0.58080 0.15620 0.78386
 C366 C 0.62137 0.17551 0.76108
 H367 H 0.65573 0.14793 0.54281
 H368 H 0.71219 0.19473 0.59555
 H369 H 0.52666 0.11062 0.67223
 H370 H 0.64621 0.19181 0.78999
 C371 C 0.69349 0.58561 0.12985
 C372 C 0.72427 0.61615 0.15912
 C373 C 0.71434 0.66657 0.16043
 C374 C 0.67807 0.68674 0.12319
 C375 C 0.64531 0.65573 0.09652
 C376 C 0.65204 0.60462 0.10174
 C377 C 0.60606 0.67718 0.06609
 N378 N 0.60059 0.72577 0.06095
 N379 N 0.63258 0.75504 0.08402
 C380 C 0.67132 0.73730 0.11442
 H381 H 0.70013 0.54681 0.13259
 H382 H 0.75462 0.59938 0.18215
 H383 H 0.58031 0.65587 0.04544
 H384 H 0.69552 0.76337 0.13182
 C385 C 0.90353 -0.18036 0.15313
 C386 C 0.87341 -0.20710 0.18935
 C387 C 0.82254 -0.19636 0.19411
 C388 C 0.80183 -0.15881 0.15994
 C389 C 0.83148 -0.13390 0.12071
 C390 C 0.88337 -0.14349 0.11824
 C391 C 0.80761 -0.10069 0.08364
 N392 N 0.75853 -0.09128 0.08771
 N393 N 0.73127 -0.11321 0.12609
 C394 C 0.75118 -0.14666 0.16221
 H395 H 0.94277 -0.18832 0.15266
 H396 H 0.88976 -0.23749 0.21247
 H397 H 0.82725 -0.08288 0.05065
 H398 H 0.72724 -0.16356 0.19233
 C399 C 0.84099 0.34319 0.59113
 C400 C 0.81720 0.30974 0.62422
 C401 C 0.79980 0.32059 0.67922
 C402 C 0.80714 0.36921 0.69987
 C403 C 0.82973 0.40370 0.66380
 C404 C 0.84771 0.38998 0.61022
 C405 C 0.83502 0.45150 0.68265
 N406 N 0.81922 0.46463 0.73463
 N407 N 0.79876 0.43305 0.76896
 C408 C 0.79238 0.38651 0.75359
 H409 H 0.85692 0.33142 0.55135
 H410 H 0.81479 0.27361 0.60706
 H411 H 0.85099 0.47877 0.65616
 H412 H 0.77615 0.36502 0.78461
 C413 C 0.39889 -0.18757 0.64697
 C414 C 0.36596 -0.21511 0.67897
 C415 C 0.31503 -0.20367 0.67994
 C416 C 0.29711 -0.16486 0.64578
 C417 C 0.32995 -0.13799 0.61197
 C418 C 0.38192 -0.14835 0.61336
 C419 C 0.30911 -0.10183 0.57645
 N420 N 0.25995 -0.09213 0.57620
 N421 N 0.22964 -0.11644 0.60894
 C422 C 0.24647 -0.15246 0.64358
 H423 H 0.43791 -0.19645 0.64936
 H424 H 0.38038 -0.24609 0.70262
 H425 H 0.33118 -0.08171 0.54806
 H426 H 0.22003 -0.17105 0.66903
 C427 C 0.35367 0.34171 0.09001
 C428 C 0.32898 0.30813 0.12219
 C429 C 0.30580 0.32113 0.17321
 C430 C 0.30825 0.37036 0.19154
 C431 C 0.33113 0.40503 0.15653
 C432 C 0.35452 0.39023 0.10608
 C433 C 0.33169 0.45356 0.17417
 N434 N 0.31158 0.46654 0.22440
 N435 N 0.29162 0.43411 0.25822
 C436 C 0.28968 0.38685 0.24366
 H437 H 0.37400 0.32923 0.05323
 H438 H 0.32876 0.27108 0.10746
 H439 H 0.34782 0.48129 0.14846
 H440 H 0.27523 0.36303 0.27407
 C441 C 0.88746 0.18341 -0.14519
 C442 C 0.85361 0.21133 -0.17799
 C443 C 0.80328 0.20054 -0.17962
 C444 C 0.78640 0.16521 -0.14099
 C445 C 0.82049 0.13706 -0.10794
 C446 C 0.87183 0.14466 -0.11198
 C447 C 0.80177 0.10273 -0.07004
 N448 N 0.75263 0.09787 -0.06480
 N449 N 0.72072 0.12547 -0.09425
 C450 C 0.73591 0.15928 -0.13134
 H451 H 0.92632 0.19016 -0.14864
 H452 H 0.86763 0.23885 -0.20584
 H453 H 0.82557 0.08160 -0.04214
 H454 H 0.70847 0.18267 -0.15103
 C455 C 0.81279 0.61521 0.40586
 C456 C 0.78531 0.64557 0.36999
 C457 C 0.80642 0.68628 0.34474
 C458 C 0.85192 0.70213 0.36522
 C459 C 0.87696 0.67406 0.40684
 C460 C 0.86052 0.62705 0.42046
 C461 C 0.91912 0.69298 0.43161
 N462 N 0.93775 0.73456 0.41187
 N463 N 0.91680 0.75854 0.36872
 C464 C 0.87494 0.74342 0.34423
 H465 H 0.79839 0.58059 0.41779
 H466 H 0.74927 0.63421 0.35690
 H467 H 0.93717 0.67501 0.46646
 H468 H 0.86090 0.76385 0.30873
 C469 C 0.39567 0.17389 0.34784
 C470 C 0.36246 0.19934 0.31176
 C471 C 0.31179 0.19041 0.31225
 C472 C 0.29426 0.15766 0.35355
 C473 C 0.32776 0.13134 0.38918
 C474 C 0.37918 0.13875 0.38571
 C475 C 0.30847 0.09800 0.42793
 N476 N 0.25934 0.09254 0.43173
 N477 N 0.22794 0.11857 0.39985
 C478 C 0.24380 0.15110 0.36162
 H479 H 0.43470 0.17951 0.34362
 H480 H 0.37674 0.22480 0.28150
 H481 H 0.33177 0.07784 0.45724
 H482 H 0.21688 0.17304 0.33977
 C483 C 0.30573 0.61777 -0.09901
 C484 C 0.27687 0.64956 -0.13201
 C485 C 0.29752 0.68997 -0.15908
 C486 C 0.34445 0.70431 -0.14185
 C487 C 0.37032 0.67572 -0.10133
 C488 C 0.35431 0.62850 -0.08747
 C489 C 0.41241 0.69470 -0.07713
 N490 N 0.43140 0.73584 -0.09768
 N491 N 0.41044 0.75945 -0.14109
 C492 C 0.36793 0.74472 -0.16443
 H493 H 0.29129 0.58331 -0.08655
 H494 H 0.23991 0.63908 -0.14234
 H495 H 0.42971 0.67706 -0.04187
 H496 H 0.35389 0.76467 -0.20024
 C497 C 1.09537 -0.19315 -0.13849
 C498 C 1.12625 -0.21989 -0.17559
 C499 C 1.17253 -0.20295 -0.19343
 C500 C 1.18778 -0.15881 -0.16983
 C501 C 1.16033 -0.13681 -0.12520
 C502 C 1.11131 -0.15064 -0.11351
 C503 C 1.18268 -0.10020 -0.09425
 N504 N 1.22490 -0.08112 -0.11303
 N505 N 1.24635 -0.09665 -0.16047
 C506 C 1.22872 -0.13430 -0.19001
 H507 H 1.05855 -0.20518 -0.13045
 H508 H 1.11293 -0.25377 -0.19111
 H509 H 1.16672 -0.08676 -0.05536
 H510 H 1.24627 -0.14393 -0.22949
 C511 C 1.15584 0.39593 0.32964
 C512 C 1.18148 0.36318 0.29581
 C513 C 1.20325 0.32102 0.31919
 C514 C 1.19976 0.31198 0.37781
 C515 C 1.17018 0.34324 0.41143
 C516 C 1.14885 0.38581 0.38694
 C517 C 1.16064 0.32913 0.46746
 N518 N 1.18250 0.28828 0.48915
 N519 N 1.21284 0.26043 0.45829
 C520 C 1.22226 0.27103 0.40336
 H521 H 1.13814 0.42755 0.31015
 H522 H 1.18289 0.36977 0.25055
 H523 H 1.13669 0.35044 0.49447
 H524 H 1.24731 0.24775 0.38018
 C525 C 0.65325 -0.13712 0.35632
 C526 C 0.68663 -0.16526 0.32505
 C527 C 0.67973 -0.21431 0.31679
 C528 C 0.63912 -0.23582 0.34456
 C529 C 0.60327 -0.20646 0.37438
 C530 C 0.61000 -0.15592 0.38008
 C531 C 0.56204 -0.22917 0.39666
 N532 N 0.55860 -0.27783 0.39311
 N533 N 0.59341 -0.30542 0.36869
 C534 C 0.63353 -0.28619 0.34468
 H535 H 0.66150 -0.09930 0.36075
 H536 H 0.71754 -0.14794 0.30564
 H537 H 0.53227 -0.20924 0.41667
 H538 H 0.66107 -0.31068 0.32691
 C539 C 0.68350 0.36660 -0.10190
 C540 C 0.70701 0.33086 -0.13460
 C541 C 0.69803 0.32856 -0.19309
 C542 C 0.67148 0.36731 -0.22035
 C543 C 0.64940 0.40431 -0.18723
 C544 C 0.65244 0.40167 -0.12757
 C545 C 0.62421 0.44301 -0.21478
 N546 N 0.62186 0.44446 -0.27211
 N547 N 0.64314 0.40994 -0.30359
 C548 C 0.66799 0.37164 -0.27984
 H549 H 0.68622 0.36439 -0.05619
 H550 H 0.72862 0.30246 -0.11347
 H551 H 0.60742 0.47262 -0.19117
 H552 H 0.68574 0.34578 -0.30781
 C553 C 1.14167 0.15898 -0.08809
 C554 C 1.18080 0.18111 -0.11468
 C555 C 1.18478 0.18262 -0.17421
 C556 C 1.14931 0.15696 -0.20633
 C557 C 1.10770 0.13777 -0.17899
 C558 C 1.10389 0.13868 -0.11920
 C559 C 1.07157 0.11618 -0.21241
 N560 N 1.07802 0.11157 -0.26900
 N561 N 1.11818 0.12699 -0.29438
 C562 C 1.15402 0.14903 -0.26515
 H563 H 1.14282 0.15465 -0.04283
 H564 H 1.20890 0.19538 -0.08766
 H565 H 1.03833 0.10279 -0.19394
 H566 H 1.18594 0.15951 -0.28842
 C567 C 1.17646 0.58016 0.35902
 C568 C 1.19662 0.61375 0.32336
 C569 C 1.20009 0.66291 0.33884
 C570 C 1.17969 0.67796 0.39166
 C571 C 1.15952 0.64313 0.42817
 C572 C 1.15659 0.59441 0.41045
 C573 C 1.14067 0.65856 0.48068
 N574 N 1.14046 0.70593 0.49486
 N575 N 1.15732 0.73909 0.45965
 C576 C 1.17643 0.72690 0.40854
 H577 H 1.17171 0.54370 0.34363
 H578 H 1.20598 0.60041 0.28188
 H579 H 1.12691 0.63339 0.51093
 H580 H 1.18775 0.75599 0.38164
 C581 C 0.63118 0.16813 0.40740
 C582 C 0.66695 0.19479 0.38019
 C583 C 0.67434 0.19229 0.32094
 C584 C 0.64274 0.16181 0.28922
 C585 C 0.60580 0.13552 0.31741
 C586 C 0.60135 0.13734 0.37715
 C587 C 0.57372 0.10805 0.28466
 N588 N 0.57933 0.10532 0.22783
 N589 N 0.61474 0.12840 0.20141
 C590 C 0.64646 0.15632 0.22984
 H591 H 0.62836 0.16989 0.45302
 H592 H 0.68918 0.21635 0.40727
 H593 H 0.54362 0.08939 0.30363
 H594 H 0.67395 0.17369 0.20505
 C595 C 0.69321 0.59201 -0.12548
 C596 C 0.72401 0.62327 -0.15356
 C597 C 0.71101 0.67311 -0.16010
 C598 C 0.67278 0.69259 -0.12503
 C599 C 0.64104 0.66071 -0.09792
 C600 C 0.64960 0.60974 -0.10159
 C601 C 0.60147 0.68106 -0.06764
 N602 N 0.59394 0.72953 -0.06413
 N603 N 0.62436 0.75972 -0.08844
 C604 C 0.66375 0.74306 -0.11805
 H605 H 0.70203 0.55352 -0.12546
 H606 H 0.75708 0.60720 -0.17150
 H607 H 0.57776 0.65895 -0.04484
 H608 H 0.68693 0.76981 -0.13600
 C609 C 0.90060 -0.18021 -0.15888
 C610 C 0.86902 -0.20514 -0.19549
 C611 C 0.81779 -0.19466 -0.19741
 C612 C 0.79866 -0.15960 -0.15897
 C613 C 0.82992 -0.13699 -0.11936
 C614 C 0.88189 -0.14595 -0.12008
 C615 C 0.80769 -0.10603 -0.07912
 N616 N 0.75856 -0.09626 -0.08045
 N617 N 0.72973 -0.11562 -0.11926
 C618 C 0.74805 -0.14681 -0.15853
 H619 H 0.93989 -0.18759 -0.16114
 H620 H 0.88474 -0.23431 -0.22066
 H621 H 0.82884 -0.09016 -0.04608
 H622 H 0.72296 -0.16134 -0.18926
 C623 C 0.84615 0.34750 0.41329
 C624 C 0.82284 0.31376 0.38015
 C625 C 0.80209 0.32622 0.32723
 C626 C 0.80528 0.37545 0.30830
 C627 C 0.82762 0.41009 0.34377
 C628 C 0.84898 0.39556 0.39574
 C629 C 0.82962 0.45842 0.32534
 N630 N 0.81091 0.47145 0.27415
 N631 N 0.79102 0.43922 0.24017
 C632 C 0.78797 0.39208 0.25534
 H633 H 0.86469 0.33527 0.45166
 H634 H 0.82226 0.27684 0.39559
 H635 H 0.84561 0.48597 0.35135
 H636 H 0.77308 0.36865 0.22500
 C637 C 0.40095 -0.18821 0.34965
 C638 C 0.36838 -0.21448 0.31572
 C639 C 0.31744 -0.20288 0.31389
 C640 C 0.29916 -0.16566 0.34972
 C641 C 0.33151 -0.14090 0.38618
 C642 C 0.38344 -0.15090 0.38522
 C643 C 0.31035 -0.10719 0.42400
 N644 N 0.26122 -0.09742 0.42382
 N645 N 0.23126 -0.11952 0.38847
 C646 C 0.24848 -0.15331 0.35159
 H647 H 0.44005 -0.19668 0.34752
 H648 H 0.38305 -0.24486 0.29169
 H649 H 0.33230 -0.08927 0.45447
 H650 H 0.22230 -0.17025 0.32418
 C651 C 0.33758 0.35278 -0.08330
 C652 C 0.31316 0.31738 -0.11298
 C653 C 0.30117 0.32261 -0.17108
 C654 C 0.31186 0.36833 -0.19750
 C655 C 0.33729 0.40393 -0.16653
 C656 C 0.35095 0.39536 -0.10982
 C657 C 0.34839 0.44794 -0.19309
 N658 N 0.33335 0.45697 -0.24679
 N659 N 0.30764 0.42507 -0.27525
 C660 C 0.29614 0.38194 -0.25227
 H661 H 0.34913 0.34532 -0.04018
 H662 H 0.30698 0.28394 -0.09052
 H663 H 0.36773 0.47579 -0.17117
 H664 H 0.27348 0.36025 -0.27668
 C665 C 1.09374 -0.19063 0.13998
 C666 C 1.12450 -0.21805 0.17721
 C667 C 1.17169 -0.20256 0.19375
 C668 C 1.18764 -0.15875 0.16939
 C669 C 1.15987 -0.13588 0.12507
 C670 C 1.11039 -0.14864 0.11394
 C671 C 1.18264 -0.09980 0.09346
 N672 N 1.22579 -0.08194 0.11129
 N673 N 1.24785 -0.09825 0.15835
 C674 C 1.22982 -0.13550 0.18844
 H675 H 1.05653 -0.20183 0.13245
 H676 H 1.11056 -0.25142 0.19369
 H677 H 1.16650 -0.08602 0.05456
 H678 H 1.24828 -0.14598 0.22730
 C679 C 1.13904 0.37328 0.68100
 C680 C 1.16643 0.33961 0.71142
 C681 C 1.20652 0.31458 0.68679
 C682 C 1.22449 0.33071 0.63375
 C683 C 1.19800 0.36801 0.60393
 C684 C 1.15181 0.38492 0.62555
 C685 C 1.21896 0.38636 0.55408
 N686 N 1.26182 0.36680 0.53420
 N687 N 1.28533 0.33035 0.56078
 C688 C 1.26805 0.31161 0.60961
 H689 H 1.10609 0.38879 0.70036
 H690 H 1.15463 0.33162 0.75415
 H691 H 1.20258 0.41603 0.53043
 H692 H 1.28916 0.28268 0.62913
 C693 C 0.66100 -0.13902 0.63081
 C694 C 0.69485 -0.16745 0.66215
 C695 C 0.68385 -0.21414 0.68005
 C696 C 0.63894 -0.23368 0.65902
 C697 C 0.60308 -0.20356 0.62966
 C698 C 0.61380 -0.15505 0.61586
 C699 C 0.55784 -0.22356 0.61537
 N700 N 0.55083 -0.27127 0.62406
 N701 N 0.58591 -0.30036 0.64604
 C702 C 0.62973 -0.28342 0.66299
 H703 H 0.67176 -0.10287 0.61969
 H704 H 0.72851 -0.15103 0.67560
 H705 H 0.52788 -0.20226 0.59719
 H706 H 0.65739 -0.30936 0.67803
 C707 C 0.68625 0.36587 0.09423
 C708 C 0.70978 0.33007 0.12708
 C709 C 0.70116 0.32746 0.18550
 C710 C 0.67448 0.36581 0.21259
 C711 C 0.65263 0.40315 0.17937
 C712 C 0.65540 0.40068 0.11977
 C713 C 0.62734 0.44159 0.20668
 N714 N 0.62405 0.44206 0.26394
 N715 N 0.64432 0.40669 0.29550
 C716 C 0.66932 0.36866 0.27191
 H717 H 0.68892 0.36399 0.04854
 H718 H 0.73228 0.30285 0.10609
 H719 H 0.61092 0.47158 0.18293
 H720 H 0.68562 0.34177 0.29997
 C721 C 0.89763 0.15397 0.17239
 C722 C 0.86464 0.17873 0.20845
 C723 C 0.81988 0.19847 0.18782
 C724 C 0.80941 0.19454 0.12915
 C725 C 0.84464 0.17266 0.09208
 C726 C 0.88801 0.14998 0.11407
 C727 C 0.83420 0.17235 0.03398
 N728 N 0.79031 0.19030 0.01449
 N729 N 0.75591 0.20772 0.04955
 C730 C 0.76376 0.20977 0.10623
 H731 H 0.92997 0.13591 0.19059
 H732 H 0.87312 0.18065 0.25324
 H733 H 0.86082 0.15820 0.00415
 H734 H 0.73400 0.22251 0.13284
 C735 C 0.81272 0.61205 0.61321
 C736 C 0.78450 0.64622 0.64253
 C737 C 0.80515 0.68892 0.66375
 C738 C 0.85166 0.70230 0.64282
 C739 C 0.87857 0.66880 0.60875
 C740 C 0.86135 0.62121 0.60083
 C741 C 0.92296 0.68333 0.58496
 N742 N 0.94137 0.72671 0.59813
 N743 N 0.91824 0.75659 0.63385
 C744 C 0.87454 0.74565 0.65718
 H745 H 0.79770 0.57707 0.60437
 H746 H 0.74740 0.63682 0.65376
 H747 H 0.94300 0.66051 0.55585
 H748 H 0.85915 0.77121 0.68643
 C749 C 0.40963 0.15534 0.67202
 C750 C 0.37794 0.17997 0.70967
 C751 C 0.32966 0.19331 0.69366
 C752 C 0.31416 0.18339 0.63745
 C753 C 0.34799 0.16254 0.59811
 C754 C 0.39509 0.14574 0.61613
 C755 C 0.33294 0.15746 0.54178
 N756 N 0.28604 0.16945 0.52641
 N757 N 0.25316 0.18564 0.56400
 C758 C 0.26544 0.19234 0.61905
 H759 H 0.44485 0.14163 0.68755
 H760 H 0.39030 0.18630 0.75260
 H761 H 0.35857 0.14465 0.51001
 H762 H 0.23714 0.20518 0.64743
 C763 C 0.30699 0.61108 0.10566
 C764 C 0.27746 0.64281 0.13733
 C765 C 0.29669 0.68499 0.16166
 C766 C 0.34336 0.69997 0.14394
 C767 C 0.37000 0.67076 0.10512
 C768 C 0.35498 0.62304 0.09301
 C769 C 0.41178 0.68980 0.08039
 N770 N 0.42980 0.73197 0.09882
 N771 N 0.40815 0.75654 0.14064
 C772 C 0.36595 0.74164 0.16436
 H773 H 0.29344 0.57596 0.09459
 H774 H 0.24091 0.63155 0.14829
 H775 H 0.42963 0.67126 0.04638
 H776 H 0.35167 0.76243 0.19893
   
