data_POSCAR
  _audit_creation_date              2014-09-24
  _audit_creation_method            'ToBaCCo'
  _symmetry_space_group_name_H-M    'P1'
  _symmetry_Int_Tables_number       1
  _symmetry_cell_setting            triclinic
  loop_
  _symmetry_equiv_pos_as_xyz
 x,y,z
_cell_length_a 33.3869
_cell_length_b 33.1919
_cell_length_c 33.3982
_cell_angle_alpha 89.929400
_cell_angle_beta 90.014500
_cell_angle_gamma 90.125700
loop_
  _atom_site_label
  _atom_site_type_symbol
  _atom_site_fract_x
  _atom_site_fract_y
  _atom_site_fract_z
N1 N 0.57685 0.68767 0.60732
 N2 N 0.56166 0.67163 0.64000
 C3 C 0.52979 0.69354 0.65167
 C4 C 0.52448 0.72438 0.62438
 C5 C 0.55468 0.71973 0.59656
 H6 H 0.51148 0.68738 0.67768
 H7 H 0.56054 0.73877 0.57091
 Cu8 Cu 0.58514 0.62343 0.66331
 Cu9 Cu 0.62539 0.66713 0.58220
 Cu10 Cu 0.66847 0.58238 0.62536
 N11 N 0.60869 0.57546 0.68704
 N12 N 0.64248 0.56080 0.67308
 C13 C 0.65382 0.52938 0.69590
 C14 C 0.62527 0.52369 0.72536
 C15 C 0.59693 0.55333 0.71880
 H16 H 0.68050 0.51161 0.69106
 H17 H 0.57026 0.55873 0.73634
 N18 N 0.69003 0.60865 0.57692
 N19 N 0.67449 0.64172 0.56136
 C20 C 0.69667 0.65302 0.52955
 C21 C 0.72699 0.62532 0.52450
 C22 C 0.72189 0.59752 0.55482
 H23 H 0.69081 0.67897 0.51085
 H24 H 0.74039 0.57144 0.56053
 H25 H 0.61815 0.60796 0.60011
 H26 H 0.64919 0.64098 0.63300
 N27 N 0.92337 0.31102 0.10759
 N28 N 0.93854 0.32684 0.14035
 C29 C 0.97027 0.30473 0.15207
 C30 C 0.97562 0.27398 0.12468
 C31 C 0.94545 0.27895 0.09676
 H32 H 0.98858 0.31089 0.17808
 H33 H 0.93962 0.26023 0.07091
 Cu34 Cu 0.91639 0.37577 0.16344
 Cu35 Cu 0.87524 0.33210 0.08231
 Cu36 Cu 0.83286 0.41704 0.12488
 N37 N 0.89204 0.42340 0.18698
 N38 N 0.85840 0.43822 0.17281
 C39 C 0.84707 0.46966 0.19552
 C40 C 0.87549 0.47521 0.22502
 C41 C 0.90372 0.44553 0.21873
 H42 H 0.82057 0.48767 0.19054
 H43 H 0.93035 0.44020 0.23639
 N44 N 0.81140 0.39123 0.07631
 N45 N 0.82655 0.35788 0.06108
 C46 C 0.80439 0.34673 0.02923
 C47 C 0.77448 0.37483 0.02381
 C48 C 0.77981 0.40271 0.05396
 H49 H 0.80996 0.32058 0.01079
 H50 H 0.76162 0.42904 0.05943
 H51 H 0.88335 0.39117 0.10009
 H52 H 0.85213 0.35847 0.13336
 N53 N 0.42299 0.18869 -0.10721
 N54 N 0.43805 0.17284 -0.13998
 C55 C 0.46994 0.19487 -0.15167
 C56 C 0.47543 0.22557 -0.12432
 C57 C 0.44530 0.22071 -0.09641
 H58 H 0.48818 0.18885 -0.17773
 H59 H 0.43960 0.23958 -0.07067
 Cu60 Cu 0.41466 0.12451 -0.16325
 Cu61 Cu 0.37444 0.16790 -0.08208
 Cu62 Cu 0.33168 0.08265 -0.12467
 N63 N 0.39125 0.07619 -0.18652
 N64 N 0.35762 0.06117 -0.17236
 C65 C 0.34643 0.02959 -0.19503
 C66 C 0.37493 0.02416 -0.22446
 C67 C 0.40307 0.05406 -0.21818
 H68 H 0.31988 0.01150 -0.19014
 H69 H 0.42963 0.05963 -0.23588
 N70 N 0.31004 0.10890 -0.07635
 N71 N 0.32535 0.14228 -0.06113
 C72 C 0.30294 0.15374 -0.02961
 C73 C 0.27269 0.12584 -0.02436
 C74 C 0.27810 0.09775 -0.05428
 H75 H 0.30855 0.17998 -0.01127
 H76 H 0.25969 0.07149 -0.05980
 H77 H 0.38201 0.10882 -0.09983
 H78 H 0.35057 0.14139 -0.13272
 N79 N 0.07631 0.81087 0.39253
 N80 N 0.06183 0.82609 0.35917
 C81 C 0.03028 0.80371 0.34726
 C82 C 0.02437 0.77338 0.37510
 C83 C 0.05402 0.77888 0.40349
 H84 H 0.01247 0.80940 0.32080
 H85 H 0.05935 0.76058 0.42977
 Cu86 Cu 0.08466 0.87473 0.33582
 Cu87 Cu 0.12410 0.83239 0.41830
 Cu88 Cu 0.16700 0.91731 0.37532
 N89 N 0.10861 0.92273 0.31230
 N90 N 0.14176 0.93823 0.32704
 C91 C 0.15282 0.97010 0.30463
 C92 C 0.12473 0.97520 0.27473
 C93 C 0.09699 0.94479 0.28046
 H94 H 0.17886 0.98874 0.31013
 H95 H 0.07068 0.93900 0.26245
 N96 N 0.18811 0.89171 0.42422
 N97 N 0.17261 0.85855 0.43975
 C98 C 0.19487 0.84728 0.47150
 C99 C 0.22523 0.87509 0.47651
 C100 C 0.22003 0.90294 0.44626
 H101 H 0.18924 0.82110 0.48997
 H102 H 0.23869 0.92894 0.44038
 H103 H 0.11632 0.89111 0.39953
 H104 H 0.14837 0.85826 0.36752
 C105 C 0.09386 0.15572 0.12549
 C106 C 0.12339 0.15563 0.09567
 C107 C 0.15320 0.12590 0.09549
 C108 C 0.15321 0.09614 0.12538
 C109 C 0.12373 0.09600 0.15533
 C110 C 0.09410 0.12592 0.15527
 H111 H 0.12310 0.17864 0.07261
 H112 H 0.17617 0.07309 0.12533
 H113 H 0.07126 0.12607 0.17834
 C114 C 0.40502 0.84472 0.62540
 C115 C 0.37524 0.84489 0.59575
 C116 C 0.34560 0.87478 0.59551
 C117 C 0.34587 0.90462 0.62523
 C118 C 0.37545 0.90468 0.65508
 C119 C 0.40498 0.87466 0.65502
 H120 H 0.37515 0.82178 0.57284
 H121 H 0.32301 0.92777 0.62514
 H122 H 0.42791 0.87459 0.67801
 C123 C 0.90571 0.65508 0.37453
 C124 C 0.87610 0.65495 0.40426
 C125 C 0.84625 0.62513 0.40448
 C126 C 0.84629 0.59530 0.37473
 C127 C 0.87586 0.59523 0.34486
 C128 C 0.90549 0.62527 0.34487
 H129 H 0.87636 0.67800 0.42723
 H130 H 0.82333 0.57216 0.37483
 H131 H 0.92838 0.62548 0.32185
 C132 C 0.59527 0.34606 -0.12574
 C133 C 0.59526 0.37618 -0.15525
 C134 C 0.62509 0.40597 -0.15550
 C135 C 0.65501 0.40568 -0.12604
 C136 C 0.65525 0.37574 -0.09634
 C137 C 0.62534 0.34597 -0.09637
 H138 H 0.57209 0.37647 -0.17800
 H139 H 0.67810 0.42870 -0.12630
 H140 H 0.62543 0.32275 -0.07353
 N141 N 0.03005 0.24023 0.15688
 C142 C 0.00514 0.24439 0.12498
 N143 N 0.00958 0.21916 0.09329
 N144 N 0.03804 0.19109 0.09335
 C145 C 0.06267 0.18680 0.12538
 N146 N 0.05810 0.21173 0.15722
 N147 N 0.47579 0.76681 0.65960
 C148 C 0.49345 0.75560 0.62476
 N149 N 0.48204 0.77380 0.59020
 N150 N 0.45369 0.80197 0.59039
 C151 C 0.43619 0.81342 0.62525
 N152 N 0.44787 0.79544 0.65988
 N153 N 0.99005 0.71870 0.40670
 C154 C 0.99478 0.74374 0.37483
 N155 N 0.97004 0.73941 0.34282
 N156 N 0.94184 0.71094 0.34257
 C157 C 0.93697 0.68621 0.37460
 N158 N 0.96147 0.69065 0.40671
 N159 N 0.51815 0.27495 -0.09024
 C160 C 0.50653 0.25686 -0.12477
 N161 N 0.52407 0.26823 -0.15968
 N162 N 0.55206 0.29691 -0.16006
 C163 C 0.56394 0.31479 -0.12547
 N164 N 0.54658 0.30318 -0.09054
 N165 N 0.08949 0.01814 0.22639
 C166 C 0.12439 0.00653 0.24371
 N167 N 0.15903 0.02448 0.23201
 N168 N 0.15883 0.05279 0.20370
 C169 C 0.12391 0.06463 0.18655
 N170 N 0.08922 0.04690 0.19851
 N171 N 0.65743 0.47002 -0.23948
 C172 C 0.62521 0.49438 -0.24475
 N173 N 0.59297 0.48959 -0.22038
 N174 N 0.59283 0.46126 -0.19207
 C175 C 0.62518 0.43716 -0.18669
 N176 N 0.65754 0.44212 -0.21078
 N177 N 0.41000 0.98144 0.72701
 C178 C 0.37511 0.99326 0.74416
 N179 N 0.34034 0.97597 0.73189
 N180 N 0.34043 0.94803 0.70329
 C181 C 0.37535 0.93593 0.68635
 N182 N 0.41016 0.95305 0.69883
 N183 N 0.84084 0.52343 0.26835
 C184 C 0.87563 0.50624 0.25624
 N185 N 0.91051 0.51836 0.27333
 N186 N 0.91061 0.54690 0.30135
 C187 C 0.87578 0.56389 0.31370
 N188 N 0.84088 0.55152 0.29680
 N189 N 0.23004 0.16086 0.02416
 C190 C 0.24157 0.12588 0.00665
 N191 N 0.22395 0.09092 0.01836
 N192 N 0.19600 0.09089 0.04683
 C193 C 0.18424 0.12590 0.06417
 N194 N 0.20165 0.16091 0.05220
 N195 N 0.76946 0.66018 0.47552
 C196 C 0.75792 0.62526 0.49332
 N197 N 0.77545 0.59028 0.48183
 N198 N 0.80334 0.59019 0.45330
 C199 C 0.81514 0.62515 0.43571
 N200 N 0.79779 0.66017 0.44744
 N201 N 0.72638 0.41019 -0.01915
 C202 C 0.74366 0.37510 -0.00751
 N203 N 0.73196 0.34026 -0.02527
 N204 N 0.70367 0.34044 -0.05342
 C205 C 0.68655 0.37556 -0.06528
 N206 N 0.69854 0.41046 -0.04774
 N207 N 0.26815 0.83996 0.52483
 C208 C 0.25657 0.87496 0.50730
 N209 N 0.27442 0.90988 0.51873
 N210 N 0.30260 0.90984 0.54699
 C211 C 0.31439 0.87481 0.56436
 N212 N 0.29677 0.83985 0.55264
   
