data_POSCAR
  _audit_creation_date              2014-09-24
  _audit_creation_method            'ToBaCCo'
  _symmetry_space_group_name_H-M    'P1'
  _symmetry_Int_Tables_number       1
  _symmetry_cell_setting            triclinic
  loop_
  _symmetry_equiv_pos_as_xyz
 x,y,z
_cell_length_a 52.9788
_cell_length_b 24.9147
_cell_length_c 15.3139
_cell_angle_alpha 89.907400
_cell_angle_beta 90.082800
_cell_angle_gamma 90.048700
loop_
  _atom_site_label
  _atom_site_type_symbol
  _atom_site_fract_x
  _atom_site_fract_y
  _atom_site_fract_z
C1 C 0.72819 0.26211 0.54703
 C2 C 0.72700 0.25665 0.45547
 C3 C 0.74761 0.23552 0.40991
 C4 C 0.76957 0.22033 0.45458
 C5 C 0.77103 0.22706 0.54612
 C6 C 0.75024 0.24750 0.59178
 H7 H 0.75122 0.25209 0.66222
 H8 H 0.74654 0.23115 0.33948
 C9 C 0.23009 0.77106 0.54863
 C10 C 0.22904 0.76661 0.45703
 C11 C 0.24988 0.74676 0.41125
 C12 C 0.27185 0.73180 0.45598
 C13 C 0.27315 0.73754 0.54758
 C14 C 0.25217 0.75686 0.59341
 H15 H 0.25294 0.76068 0.66396
 H16 H 0.24899 0.74289 0.34076
 C17 C 0.27058 0.26781 -0.54834
 C18 C 0.27210 0.26241 -0.45688
 C19 C 0.25120 0.24384 -0.40981
 C20 C 0.22886 0.22982 -0.45321
 C21 C 0.22754 0.23384 -0.54521
 C22 C 0.24840 0.25310 -0.59210
 H23 H 0.24740 0.25671 -0.66267
 H24 H 0.25236 0.24052 -0.33923
 C25 C -0.23131 0.77678 -0.55102
 C26 C -0.23034 0.77783 -0.45911
 C27 C -0.25118 0.76048 -0.41053
 C28 C -0.27298 0.74189 -0.45283
 C29 C -0.27392 0.74072 -0.54509
 C30 C -0.25306 0.75834 -0.59351
 H31 H -0.25365 0.75742 -0.66434
 H32 H -0.25032 0.76111 -0.33971
 O33 O -0.03569 0.90703 0.15774
 O34 O -0.06291 0.95461 0.07042
 C35 C -0.05814 0.92072 0.13216
 O36 O 0.03384 1.09991 0.15650
 O37 O 0.06231 1.04943 0.07905
 C38 C 0.05665 1.08604 0.13547
 O39 O -0.03728 1.09157 0.15851
 O40 O -0.06398 1.04296 0.07054
 C41 C -0.05960 1.07644 0.13311
 O42 O 0.03508 0.90342 0.15483
 O43 O 0.06282 0.95655 0.07876
 C44 C 0.05768 0.91891 0.13413
 Zr45 Zr -0.00013 0.93312 0.10960
 O46 O 0.00155 0.93007 0.24762
 O47 O -0.00083 0.84856 0.09923
 Zr48 Zr -0.00110 1.06894 0.11067
 O49 O 0.00085 1.06969 0.24874
 O50 O -0.00460 1.15359 0.10866
 O51 O -0.02315 1.00029 0.12521
 O52 O 0.02117 1.00162 0.12788
 O53 O 0.03689 0.90407 -0.14940
 O54 O 0.06376 0.95684 -0.06877
 C55 C 0.05922 0.91948 -0.12519
 O56 O -0.03453 1.09469 -0.16325
 O57 O -0.06245 1.04534 -0.08142
 C58 C -0.05717 1.08007 -0.14154
 O59 O 0.03619 1.10004 -0.15020
 O60 O 0.06351 1.04974 -0.06721
 C61 C 0.05867 1.08602 -0.12527
 O62 O -0.03397 0.90681 -0.16187
 O63 O -0.06233 0.95472 -0.07976
 C64 C -0.05674 0.92034 -0.13983
 Zr65 Zr 0.00112 0.93383 -0.11065
 O66 O 0.00462 0.93505 -0.24838
 O67 O -0.00064 0.84897 -0.11078
 Zr68 Zr 0.00052 1.06976 -0.10977
 O69 O 0.00402 1.07176 -0.24739
 O70 O -0.00260 1.15446 -0.10584
 Zr71 Zr -0.03746 1.00048 -0.00344
 Zr72 Zr 0.03775 1.00251 0.00300
 O73 O 0.02278 1.00234 -0.12443
 O74 O -0.02156 1.00128 -0.12949
 O75 O 0.02315 0.92383 0.00128
 O76 O -0.02234 1.07858 -0.00135
 O77 O -0.02145 0.92320 -0.00216
 O78 O 0.02224 1.08046 0.00245
 H79 H 0.03206 1.00163 0.18053
 H80 H -0.03406 1.10954 -0.00174
 H81 H 0.03442 1.00264 -0.17501
 H82 H -0.03266 0.89134 -0.00282
 H83 H 0.01009 1.16808 0.07651
 H84 H 0.01224 1.16841 -0.07381
 H85 H -0.00860 1.04654 -0.27149
 H86 H -0.01001 0.95500 -0.27207
 H87 H 0.01097 0.83613 -0.06459
 H88 H -0.00120 0.83466 0.15987
 H89 H -0.01133 0.95524 0.26998
 H90 H -0.01269 1.04595 0.27072
 O91 O 0.46427 0.40663 0.15449
 O92 O 0.43706 0.45397 0.06668
 C93 C 0.44181 0.42048 0.12912
 O94 O 0.53477 0.59630 0.15354
 O95 O 0.56292 0.54562 0.07527
 C96 C 0.55749 0.58204 0.13226
 O97 O 0.46405 0.59108 0.15515
 O98 O 0.43696 0.54342 0.06750
 C99 C 0.44165 0.57688 0.12988
 O100 O 0.53493 0.40079 0.15037
 O101 O 0.56297 0.45278 0.07342
 C102 C 0.55761 0.41549 0.12923
 Zr103 Zr 0.49986 0.43043 0.10386
 O104 O 0.49987 0.42141 0.24119
 O105 O 0.49897 0.34628 0.08729
 Zr106 Zr 0.49974 0.56639 0.10699
 O107 O 0.50134 0.56562 0.24515
 O108 O 0.49689 0.65116 0.10614
 O109 O 0.47730 0.49819 0.12079
 O110 O 0.52157 0.49842 0.12329
 O111 O 0.53709 0.40285 -0.15521
 O112 O 0.56420 0.45422 -0.07297
 C113 C 0.55952 0.41756 -0.13048
 O114 O 0.46607 0.59451 -0.16532
 O115 O 0.43789 0.54504 -0.08459
 C116 C 0.44335 0.58028 -0.14377
 O117 O 0.53686 0.59849 -0.15256
 O118 O 0.56405 0.54680 -0.07121
 C119 C 0.55930 0.58392 -0.12799
 O120 O 0.46625 0.40617 -0.16826
 O121 O 0.43796 0.45434 -0.08625
 C122 C 0.44351 0.41990 -0.14637
 Zr123 Zr 0.50123 0.43239 -0.11581
 O124 O 0.50470 0.43357 -0.25351
 O125 O 0.49907 0.34754 -0.11608
 Zr126 Zr 0.50110 0.56816 -0.11342
 O127 O 0.50462 0.56935 -0.25110
 O128 O 0.49836 0.65292 -0.11060
 Zr129 Zr 0.46274 0.49920 -0.00762
 Zr130 Zr 0.53809 0.49971 -0.00157
 O131 O 0.52314 0.50052 -0.12898
 O132 O 0.47872 0.50028 -0.13366
 O133 O 0.52320 0.42126 -0.00425
 O134 O 0.47842 0.57687 -0.00472
 O135 O 0.47839 0.42160 -0.00763
 O136 O 0.52298 0.57798 -0.00123
 H137 H 0.53256 0.49815 0.17567
 H138 H 0.46701 0.60835 -0.00481
 H139 H 0.53479 0.50094 -0.17952
 H140 H 0.46691 0.39018 -0.00844
 H141 H 0.51171 0.66537 0.07441
 H142 H 0.51264 0.66655 -0.07533
 H143 H 0.49083 0.54708 -0.27528
 H144 H 0.49067 0.45550 -0.27685
 H145 H 0.51194 0.33415 -0.07455
 H146 H 0.49819 0.33079 0.14685
 H147 H 0.50297 0.45730 0.26623
 H148 H 0.48741 0.54248 0.26615
 C149 C 0.37836 0.36206 0.24736
 C150 C 0.36168 0.32895 0.19909
 C151 C 0.33861 0.31156 0.23714
 C152 C 0.33219 0.32803 0.32269
 C153 C 0.34835 0.36305 0.36941
 C154 C 0.37182 0.37891 0.33263
 C155 C 0.38832 0.41127 0.38277
 C156 C 0.38166 0.42810 0.46634
 C157 C 0.35827 0.41451 0.50082
 C158 C 0.34170 0.38248 0.45308
 C159 C 0.32234 0.27811 0.18801
 C160 C 0.32863 0.26247 0.10344
 C161 C 0.35115 0.27955 0.06614
 C162 C 0.36755 0.31243 0.11307
 C163 C 0.30974 0.30678 0.36475
 C164 C 0.29164 0.28887 0.40254
 C165 C 0.40163 0.38085 0.20770
 C166 C 0.42042 0.39789 0.17305
 H167 H 0.40661 0.42343 0.35833
 H168 H 0.39473 0.45175 0.50459
 H169 H 0.35309 0.42809 0.56548
 H170 H 0.32380 0.37251 0.48298
 H171 H 0.30455 0.26406 0.21415
 H172 H 0.31593 0.23703 0.06661
 H173 H 0.35592 0.26738 0.00036
 H174 H 0.38484 0.32469 0.08117
 C175 C -0.12226 0.86139 0.24319
 C176 C -0.14272 0.89757 0.25176
 C177 C -0.16596 0.87946 0.28752
 C178 C -0.16850 0.82548 0.31514
 C179 C -0.14811 0.78924 0.30580
 C180 C -0.12492 0.80725 0.26957
 C181 C -0.10476 0.77041 0.26120
 C182 C -0.10742 0.71724 0.28803
 C183 C -0.13008 0.69962 0.32362
 C184 C -0.15025 0.73503 0.33258
 C185 C -0.18601 0.91654 0.29702
 C186 C -0.18310 0.97010 0.27250
 C187 C -0.16037 0.98785 0.23768
 C188 C -0.14037 0.95218 0.22706
 C189 C -0.19140 0.80809 0.35857
 C190 C -0.20990 0.79378 0.39791
 C191 C -0.09861 0.88007 0.20662
 C192 C -0.07956 0.89731 0.17427
 H193 H -0.08675 0.78229 0.23403
 H194 H -0.09180 0.68958 0.28122
 H195 H -0.13205 0.65828 0.34439
 H196 H -0.16752 0.71940 0.36046
 H197 H -0.20404 0.90463 0.32396
 H198 H -0.19857 0.99799 0.28070
 H199 H -0.15821 1.02950 0.21881
 H200 H -0.12303 0.96802 0.20005
 C201 C 0.61882 0.64681 0.25528
 C202 C 0.63133 0.61535 0.31910
 C203 C 0.65399 0.63442 0.35806
 C204 C 0.66375 0.68531 0.33412
 C205 C 0.65114 0.71691 0.27070
 C206 C 0.62865 0.69751 0.23097
 C207 C 0.61648 0.72960 0.16725
 C208 C 0.62622 0.77951 0.14359
 C209 C 0.64817 0.79855 0.18261
 C210 C 0.66057 0.76777 0.24544
 C211 C 0.66648 0.60160 0.42002
 C212 C 0.65680 0.55150 0.44297
 C213 C 0.63438 0.53338 0.40631
 C214 C 0.62174 0.56469 0.34487
 C215 C 0.68651 0.70547 0.37575
 C216 C 0.70519 0.72214 0.41177
 C217 C 0.59642 0.62593 0.21241
 C218 C 0.57828 0.60699 0.17621
 H219 H 0.59933 0.71653 0.13519
 H220 H 0.61668 0.80356 0.09474
 H221 H 0.65565 0.83737 0.16406
 H222 H 0.67763 0.78422 0.27375
 H223 H 0.68393 0.61405 0.45078
 H224 H 0.66681 0.52640 0.48903
 H225 H 0.62693 0.49447 0.42453
 H226 H 0.60450 0.54854 0.31743
 C227 C 0.11813 1.15024 0.25779
 C228 C 0.12872 1.20002 0.23228
 C229 C 0.15164 1.21793 0.27093
 C230 C 0.16391 1.18577 0.33436
 C231 C 0.15332 1.13589 0.35972
 C232 C 0.13023 1.11836 0.32198
 C233 C 0.11983 1.06870 0.34920
 C234 C 0.13211 1.03684 0.41078
 C235 C 0.15497 1.05340 0.44614
 C236 C 0.16544 1.10252 0.42185
 C237 C 0.16186 1.26788 0.24451
 C238 C 0.14980 1.29918 0.18154
 C239 C 0.12743 1.28157 0.14356
 C240 C 0.11693 1.23258 0.16839
 C241 C 0.18716 1.20415 0.37472
 C242 C 0.20625 1.21862 0.41065
 C243 C 0.09552 1.13031 0.21516
 C244 C 0.07733 1.11151 0.17918
 H245 H 0.10222 1.05375 0.32281
 H246 H 0.12406 0.99868 0.43007
 H247 H 0.16471 1.02781 0.49211
 H248 H 0.18319 1.11375 0.45171
 H249 H 0.17925 1.28317 0.27202
 H250 H 0.15787 1.33727 0.16206
 H251 H 0.11816 1.30600 0.09461
 H252 H 0.09948 1.22061 0.13715
 C253 C 0.62228 0.35322 -0.24401
 C254 C 0.64616 0.37240 -0.21630
 C255 C 0.66847 0.35402 -0.25809
 C256 C 0.66680 0.31586 -0.32625
 C257 C 0.64293 0.29614 -0.35314
 C258 C 0.62061 0.31500 -0.31201
 C259 C 0.59696 0.29498 -0.34023
 C260 C 0.59541 0.25709 -0.40681
 C261 C 0.61723 0.23840 -0.44668
 C262 C 0.64076 0.25773 -0.42081
 C263 C 0.69207 0.37466 -0.23065
 C264 C 0.69361 0.41222 -0.16351
 C265 C 0.67182 0.42982 -0.12203
 C266 C 0.64832 0.41020 -0.14772
 C267 C 0.68951 0.29703 -0.36933
 C268 C 0.70794 0.28091 -0.40718
 C269 C 0.59948 0.37405 -0.20416
 C270 C 0.58089 0.39281 -0.17089
 H271 H 0.57946 0.30817 -0.31093
 H272 H 0.57718 0.24201 -0.42734
 H273 H 0.61589 0.20859 -0.49767
 H274 H 0.65717 0.24206 -0.45413
 H275 H 0.70955 0.36208 -0.26081
 H276 H 0.71181 0.42770 -0.14348
 H277 H 0.67311 0.45897 -0.06986
 H278 H 0.63191 0.42528 -0.11369
 C279 C 0.12224 0.85569 -0.23716
 C280 C 0.14601 0.87377 -0.20669
 C281 C 0.16844 0.85675 -0.24914
 C282 C 0.16697 0.82090 -0.32058
 C283 C 0.14321 0.80195 -0.34987
 C284 C 0.12076 0.81952 -0.30809
 C285 C 0.09720 0.80038 -0.33868
 C286 C 0.09585 0.76454 -0.40824
 C287 C 0.11779 0.74713 -0.44883
 C288 C 0.14125 0.76566 -0.42062
 C289 C 0.19196 0.87655 -0.21920
 C290 C 0.19327 0.91203 -0.14907
 C291 C 0.17135 0.92833 -0.10704
 C292 C 0.14794 0.90947 -0.13510
 C293 C 0.18981 0.80376 -0.36454
 C294 C 0.20843 0.78916 -0.40275
 C295 C 0.09933 0.87610 -0.19770
 C296 C 0.08067 0.89476 -0.16492
 H297 H 0.07961 0.81261 -0.30893
 H298 H 0.07769 0.75007 -0.43056
 H299 H 0.11660 0.71892 -0.50221
 H300 H 0.15776 0.75103 -0.45458
 H301 H 0.20953 0.86495 -0.24970
 H302 H 0.21141 0.92689 -0.12718
 H303 H 0.17247 0.95587 -0.05255
 H304 H 0.13142 0.92346 -0.10047
 C305 C 0.38175 0.65147 -0.25515
 C306 C 0.35872 0.64820 -0.20848
 C307 C 0.33627 0.66968 -0.24543
 C308 C 0.33702 0.69464 -0.32846
 C309 C 0.36027 0.70029 -0.37310
 C310 C 0.38263 0.67785 -0.33700
 C311 C 0.40543 0.68191 -0.38460
 C312 C 0.40615 0.70778 -0.46533
 C313 C 0.38438 0.73054 -0.49995
 C314 C 0.36167 0.72720 -0.45444
 C315 C 0.31344 0.66548 -0.19804
 C316 C 0.31281 0.64093 -0.11623
 C317 C 0.33475 0.61988 -0.08007
 C318 C 0.35750 0.62336 -0.12533
 C319 C 0.31374 0.71144 -0.37045
 C320 C 0.29455 0.72408 -0.40762
 C321 C 0.40434 0.62714 -0.21890
 C322 C 0.42256 0.60613 -0.18635
 H323 H 0.42288 0.66504 -0.36011
 H324 H 0.42372 0.71026 -0.50111
 H325 H 0.38503 0.75059 -0.56267
 H326 H 0.34521 0.74530 -0.48418
 H327 H 0.29590 0.68143 -0.22338
 H328 H 0.29521 0.63831 -0.08065
 H329 H 0.33419 0.60098 -0.01639
 H330 H 0.37406 0.60657 -0.09424
 C331 C -0.11951 1.14630 -0.25594
 C332 C -0.11900 1.17173 -0.33863
 C333 C -0.14165 1.19255 -0.37516
 C334 C -0.16478 1.18628 -0.33002
 C335 C -0.16521 1.16188 -0.24654
 C336 C -0.14249 1.14194 -0.20924
 C337 C -0.14341 1.11752 -0.12571
 C338 C -0.16612 1.11286 -0.08050
 C339 C -0.18831 1.13248 -0.11695
 C340 C -0.18798 1.15670 -0.19904
 C341 C -0.14063 1.21851 -0.45738
 C342 C -0.11802 1.22241 -0.50333
 C343 C -0.09595 1.20130 -0.46821
 C344 C -0.09629 1.17645 -0.38660
 C345 C -0.18824 1.20209 -0.37177
 C346 C -0.20751 1.21410 -0.40886
 C347 C -0.09657 1.12400 -0.21883
 C348 C -0.07813 1.10451 -0.18535
 H349 H -0.12665 1.10189 -0.09432
 H350 H -0.16646 1.09423 -0.01659
 H351 H -0.20588 1.12897 -0.08139
 H352 H -0.20571 1.17158 -0.22457
 H353 H -0.15732 1.23543 -0.48748
 H354 H -0.11767 1.24163 -0.56676
 H355 H -0.07846 1.20427 -0.50432
 H356 H -0.07863 1.16084 -0.36174
 C357 C 0.62220 0.64845 -0.24076
 C358 C 0.64048 0.61218 -0.27335
 C359 C 0.66308 0.63214 -0.31127
 C360 C 0.66699 0.68818 -0.31830
 C361 C 0.64886 0.72441 -0.28484
 C362 C 0.62643 0.70447 -0.24559
 C363 C 0.60862 0.74141 -0.21224
 C364 C 0.61284 0.79653 -0.21759
 C365 C 0.63475 0.81604 -0.25619
 C366 C 0.65261 0.78058 -0.28961
 C367 C 0.68135 0.59517 -0.34157
 C368 C 0.67726 0.54005 -0.33553
 C369 C 0.65485 0.52055 -0.30079
 C370 C 0.63668 0.55595 -0.26933
 C371 C 0.68907 0.70839 -0.36358
 C372 C 0.70707 0.72446 -0.40392
 C373 C 0.59927 0.62787 -0.20127
 C374 C 0.58064 0.60909 -0.16811
 H375 H 0.59129 0.72813 -0.18172
 H376 H 0.59903 0.82423 -0.19169
 H377 H 0.63793 0.85889 -0.26022
 H378 H 0.66939 0.79765 -0.31880
 H379 H 0.69895 0.60840 -0.37020
 H380 H 0.69138 0.51231 -0.35926
 H381 H 0.65153 0.47776 -0.29840
 H382 H 0.61965 0.53875 -0.24212
 C383 C 0.12193 1.14568 -0.24261
 C384 C 0.13955 1.10746 -0.27362
 C385 C 0.16260 1.12493 -0.31168
 C386 C 0.16755 1.18047 -0.32086
 C387 C 0.14999 1.21867 -0.28950
 C388 C 0.12716 1.20120 -0.24986
 C389 C 0.10997 1.24008 -0.21853
 C390 C 0.11518 1.29471 -0.22618
 C391 C 0.13746 1.31182 -0.26517
 C392 C 0.15473 1.27442 -0.29667
 C393 C 0.18024 1.08602 -0.33991
 C394 C 0.17507 1.03138 -0.33210
 C395 C 0.15220 1.01435 -0.29762
 C396 C 0.13466 1.05168 -0.26786
 C397 C 0.19017 1.19823 -0.36579
 C398 C 0.20856 1.21295 -0.40546
 C399 C 0.09874 1.12751 -0.20171
 C400 C 0.07999 1.11024 -0.16713
 H401 H 0.09237 1.22868 -0.18788
 H402 H 0.10184 1.32394 -0.20175
 H403 H 0.14142 1.35431 -0.27093
 H404 H 0.17184 1.28966 -0.32622
 H405 H 0.19814 1.09736 -0.36842
 H406 H 0.18870 1.00211 -0.35439
 H407 H 0.14799 0.97198 -0.29412
 H408 H 0.11724 1.03629 -0.24074
 C409 C 0.38212 0.34851 -0.25837
 C410 C 0.38302 0.32263 -0.34049
 C411 C 0.36070 0.30002 -0.37656
 C412 C 0.33747 0.30514 -0.33169
 C413 C 0.33673 0.32948 -0.24830
 C414 C 0.35915 0.35105 -0.21132
 C415 C 0.35795 0.37525 -0.12780
 C416 C 0.33525 0.37806 -0.08223
 C417 C 0.31332 0.35694 -0.11843
 C418 C 0.31393 0.33297 -0.20057
 C419 C 0.36211 0.27349 -0.45806
 C420 C 0.38480 0.27070 -0.50377
 C421 C 0.40653 0.29370 -0.46922
 C422 C 0.40579 0.31921 -0.38834
 C423 C 0.31418 0.28859 -0.37375
 C424 C 0.29491 0.27624 -0.41050
 C425 C 0.40465 0.37304 -0.22215
 C426 C 0.42280 0.39415 -0.18941
 H427 H 0.37450 0.39206 -0.09667
 H428 H 0.33470 0.39650 -0.01829
 H429 H 0.29575 0.35907 -0.08263
 H430 H 0.29641 0.31690 -0.22590
 H431 H 0.34567 0.25521 -0.48772
 H432 H 0.38546 0.25091 -0.56660
 H433 H 0.42407 0.29168 -0.50519
 H434 H 0.42320 0.33629 -0.36390
 C435 C -0.11866 0.85758 -0.26130
 C436 C -0.12478 0.87524 -0.34653
 C437 C -0.14845 0.86139 -0.38406
 C438 C -0.16529 0.82748 -0.33795
 C439 C -0.15893 0.80891 -0.25326
 C440 C -0.13563 0.82438 -0.21453
 C441 C -0.12987 0.80615 -0.12922
 C442 C -0.14662 0.77338 -0.08353
 C443 C -0.16935 0.75804 -0.12156
 C444 C -0.17553 0.77546 -0.20543
 C445 C -0.15477 0.88255 -0.46705
 C446 C -0.13785 0.91500 -0.51260
 C447 C -0.11418 0.92593 -0.47802
 C448 C -0.10772 0.90701 -0.39545
 C449 C -0.18872 0.81040 -0.37875
 C450 C -0.20788 0.79572 -0.41411
 C451 C -0.09585 0.87713 -0.21958
 C452 C -0.07751 0.89568 -0.18417
 H453 H -0.11237 0.81686 -0.09712
 H454 H -0.14193 0.75975 -0.01833
 H455 H -0.18229 0.73255 -0.08584
 H456 H -0.19347 0.76265 -0.23209
 H457 H -0.17289 0.87474 -0.49704
 H458 H -0.14305 0.93189 -0.57497
 H459 H -0.10081 0.94960 -0.51503
 H460 H -0.08923 0.91744 -0.37062
 C461 C 0.37866 0.63580 0.24935
 C462 C 0.37252 0.61955 0.33537
 C463 C 0.34929 0.63581 0.37313
 C464 C 0.33300 0.67064 0.32654
 C465 C 0.33903 0.68659 0.24031
 C466 C 0.36186 0.66881 0.20133
 C467 C 0.36739 0.68483 0.11468
 C468 C 0.35084 0.71755 0.06798
 C469 C 0.32852 0.73495 0.10616
 C470 C 0.32261 0.71987 0.19140
 C471 C 0.34298 0.61693 0.45757
 C472 C 0.35969 0.58506 0.50505
 C473 C 0.38289 0.57110 0.46956
 C474 C 0.38919 0.58738 0.38525
 C475 C 0.31079 0.69215 0.36925
 C476 C 0.29283 0.71031 0.40724
 C477 C 0.40166 0.61659 0.20880
 C478 C 0.42030 0.59936 0.17371
 H479 H 0.38450 0.67227 0.08210
 H480 H 0.35533 0.72931 0.00170
 H481 H 0.31569 0.76021 0.06947
 H482 H 0.30497 0.73420 0.21823
 H483 H 0.32525 0.62723 0.48827
 H484 H 0.35479 0.57189 0.57026
 H485 H 0.39608 0.54755 0.50754
 H486 H 0.40732 0.57490 0.36002
 C487 C -0.12386 1.12952 0.25183
 C488 C -0.14112 1.16111 0.20326
 C489 C -0.16439 1.17690 0.24140
 C490 C -0.17039 1.16042 0.32737
 C491 C -0.15372 1.12655 0.37416
 C492 C -0.13006 1.11236 0.33734
 C493 C -0.11298 1.08156 0.38781
 C494 C -0.11928 1.06469 0.47181
 C495 C -0.14288 1.07638 0.50620
 C496 C -0.16002 1.10687 0.45812
 C497 C -0.18125 1.20892 0.19204
 C498 C -0.17532 1.22473 0.10716
 C499 C -0.15256 1.20933 0.06983
 C500 C -0.13559 1.17784 0.11697
 C501 C -0.19272 1.18135 0.37023
 C502 C -0.21065 1.19953 0.40843
 C503 C -0.10029 1.11268 0.21224
 C504 C -0.08125 1.09731 0.17741
 H505 H -0.09451 1.07082 0.36340
 H506 H -0.10574 1.04260 0.51059
 H507 H -0.14778 1.06264 0.57111
 H508 H -0.17805 1.11555 0.48797
 H509 H -0.19923 1.22167 0.21823
 H510 H -0.18847 1.24900 0.07011
 H511 H -0.14805 1.22167 0.00385
 H512 H -0.11814 1.16686 0.08503
 C513 C 0.61963 0.34963 0.24590
 C514 C 0.62076 0.29526 0.27250
 C515 C 0.64312 0.27489 0.31180
 C516 C 0.66404 0.30926 0.32547
 C517 C 0.66302 0.36350 0.29791
 C518 C 0.64082 0.38363 0.25732
 C519 C 0.64042 0.43773 0.22877
 C520 C 0.66135 0.47094 0.24005
 C521 C 0.68291 0.45149 0.28097
 C522 C 0.68384 0.39842 0.30969
 C523 C 0.64399 0.22017 0.33646
 C524 C 0.62331 0.18655 0.32293
 C525 C 0.60135 0.20662 0.28544
 C526 C 0.59998 0.26034 0.26037
 C527 C 0.68644 0.28926 0.36928
 C528 C 0.70497 0.27370 0.40728
 C529 C 0.59687 0.37073 0.20584
 C530 C 0.57850 0.38999 0.17162
 H531 H 0.62402 0.45495 0.19730
 H532 H 0.66073 0.51217 0.21770
 H533 H 0.69901 0.47762 0.29034
 H534 H 0.70110 0.38507 0.34071
 H535 H 0.66061 0.20279 0.36635
 H536 H 0.62429 0.14479 0.34225
 H537 H 0.58530 0.18042 0.27555
 H538 H 0.58253 0.27410 0.23115
 C539 C 0.12049 0.85514 0.24927
 C540 C 0.14129 0.89021 0.26076
 C541 C 0.16376 0.87113 0.30094
 C542 C 0.16547 0.81686 0.32793
 C543 C 0.14501 0.78137 0.31366
 C544 C 0.12235 0.80067 0.27492
 C545 C 0.10203 0.76461 0.26234
 C546 C 0.10416 0.71079 0.28616
 C547 C 0.12643 0.69175 0.32290
 C548 C 0.14664 0.72651 0.33706
 C549 C 0.18418 0.90712 0.31280
 C550 C 0.18261 0.96017 0.28439
 C551 C 0.16079 0.97860 0.24384
 C552 C 0.14024 0.94435 0.23262
 C553 C 0.18812 0.79792 0.37159
 C554 C 0.20683 0.78306 0.40937
 C555 C 0.09739 0.87525 0.20997
 C556 C 0.07878 0.89387 0.17626
 H557 H 0.08438 0.77754 0.23363
 H558 H 0.08846 0.68369 0.27589
 H559 H 0.12800 0.64990 0.34120
 H560 H 0.16352 0.70991 0.36639
 H561 H 0.20162 0.89458 0.34352
 H562 H 0.19842 0.98711 0.29371
 H563 H 0.15968 1.01983 0.22176
 H564 H 0.12361 0.96080 0.20147
   
