data_POSCAR
  _audit_creation_date              2014-09-24
  _audit_creation_method            'ToBaCCo'
  _symmetry_space_group_name_H-M    'P1'
  _symmetry_Int_Tables_number       1
  _symmetry_cell_setting            triclinic
  loop_
  _symmetry_equiv_pos_as_xyz
 x,y,z
_cell_length_a 52.0439
_cell_length_b 52.0370
_cell_length_c 50.2654
_cell_angle_alpha 89.970400
_cell_angle_beta 89.972600
_cell_angle_gamma 90.007200
loop_
  _atom_site_label
  _atom_site_type_symbol
  _atom_site_fract_x
  _atom_site_fract_y
  _atom_site_fract_z
O1 O -0.02458 0.28537 0.02554
 O2 O 0.02546 0.28543 -0.02631
 O3 O -0.02462 0.28533 -0.02623
 O4 O 0.02549 0.28551 0.02546
 O5 O 0.02559 0.24301 0.02553
 O6 O -0.02452 0.24282 -0.02615
 O7 O 0.02555 0.24294 -0.02623
 O8 O -0.02448 0.24287 0.02561
 Cu9 Cu 0.00043 0.28970 -0.00039
 Cu10 Cu 0.00055 0.23862 -0.00030
 C11 C -0.03301 0.26411 0.03428
 C12 C 0.03399 0.26419 -0.03499
 C13 C -0.03306 0.26404 -0.03487
 C14 C 0.03403 0.26429 0.03418
 O15 O 0.52482 0.78473 0.47406
 O16 O 0.47469 0.78485 0.52580
 O17 O 0.52478 0.78471 0.52584
 O18 O 0.47473 0.78482 0.47401
 O19 O 0.47464 0.74232 0.47404
 O20 O 0.52467 0.74221 0.52586
 O21 O 0.47459 0.74235 0.52582
 O22 O 0.52472 0.74223 0.47408
 Cu23 Cu 0.49976 0.78907 0.49993
 Cu24 Cu 0.49964 0.73799 0.49995
 C25 C 0.53327 0.76346 0.46537
 C26 C 0.46614 0.76362 0.53451
 C27 C 0.53321 0.76344 0.53456
 C28 C 0.46621 0.76359 0.46531
 O29 O 1.02581 0.72364 0.02584
 O30 O 0.97571 0.72373 -0.02591
 O31 O 1.02570 0.72365 -0.02604
 O32 O 0.97582 0.72374 0.02596
 O33 O 0.97589 0.76623 0.02595
 O34 O 1.02579 0.76614 -0.02608
 O35 O 0.97577 0.76623 -0.02595
 O36 O 1.02591 0.76614 0.02583
 Cu37 Cu 1.00076 0.71941 -0.00004
 Cu38 Cu 1.00085 0.77047 -0.00006
 C39 C 1.03427 0.74487 0.03463
 C40 C 0.96733 0.74499 -0.03471
 C41 C 1.03412 0.74488 -0.03490
 C42 C 0.96748 0.74499 0.03478
 O43 O 0.47504 0.22303 0.47419
 O44 O 0.52480 0.22309 0.52623
 O45 O 0.47482 0.22303 0.52605
 O46 O 0.52501 0.22310 0.47437
 O47 O 0.52497 0.26560 0.47434
 O48 O 0.47477 0.26553 0.52605
 O49 O 0.52477 0.26559 0.52622
 O50 O 0.47498 0.26553 0.47416
 Cu51 Cu 0.49992 0.21878 0.50021
 Cu52 Cu 0.49986 0.26985 0.50019
 C53 C 0.46666 0.24426 0.46533
 C54 C 0.53313 0.24434 0.53506
 C55 C 0.46638 0.24427 0.53483
 C56 C 0.53341 0.24436 0.46558
 O57 O 0.71861 0.02332 -0.02513
 O58 O 0.71760 -0.02676 0.02667
 O59 O 0.71874 0.02326 0.02678
 O60 O 0.71744 -0.02670 -0.02505
 O61 O 0.75993 -0.02766 -0.02520
 O62 O 0.76122 0.02231 0.02663
 O63 O 0.76008 -0.02772 0.02653
 O64 O 0.76109 0.02237 -0.02528
 Cu65 Cu 0.71381 -0.00158 0.00083
 Cu66 Cu 0.76487 -0.00273 0.00066
 C67 C 0.74001 0.03124 -0.03400
 C68 C 0.73867 -0.03574 0.03530
 C69 C 0.74019 0.03116 0.03551
 C70 C 0.73847 -0.03566 -0.03382
 O71 O 0.21794 0.47397 0.52581
 O72 O 0.21894 0.52395 0.47391
 O73 O 0.21810 0.47391 0.47408
 O74 O 0.21884 0.52402 0.52583
 O75 O 0.26132 0.52330 0.52593
 O76 O 0.26058 0.47319 0.47417
 O77 O 0.26143 0.52324 0.47399
 O78 O 0.26043 0.47325 0.52591
 Cu79 Cu 0.21417 0.49908 0.49990
 Cu80 Cu 0.26523 0.49822 0.50001
 C81 C 0.23902 0.46513 0.53457
 C82 C 0.24034 0.53197 0.46513
 C83 C 0.23922 0.46505 0.46543
 C84 C 0.24020 0.53206 0.53468
 O85 O 0.28153 0.97392 -0.02707
 O86 O 0.28070 1.02398 0.02473
 O87 O 0.28172 0.97394 0.02466
 O88 O 0.28053 1.02397 -0.02719
 O89 O 0.23805 1.02313 -0.02701
 O90 O 0.23923 0.97309 0.02484
 O91 O 0.23822 1.02314 0.02491
 O92 O 0.23905 0.97308 -0.02690
 Cu93 Cu 0.28540 0.99908 -0.00124
 Cu94 Cu 0.23435 0.99806 -0.00102
 C95 C 0.26043 0.96500 -0.03569
 C96 C 0.25933 1.03195 0.03363
 C97 C 0.26067 0.96503 0.03345
 C98 C 0.25909 1.03195 -0.03591
 O99 O 0.78167 0.52376 0.52621
 O100 O 0.78277 0.47383 0.47435
 O101 O 0.78177 0.52386 0.47431
 O102 O 0.78264 0.47374 0.52606
 O103 O 0.74015 0.47291 0.52599
 O104 O 0.73928 0.52304 0.47423
 O105 O 0.74028 0.47300 0.47427
 O106 O 0.73919 0.52294 0.52614
 Cu107 Cu 0.78650 0.49893 0.50024
 Cu108 Cu 0.73544 0.49793 0.50015
 C109 C 0.76025 0.53172 0.53499
 C110 C 0.76171 0.46494 0.46561
 C111 C 0.76038 0.53185 0.46547
 C112 C 0.76154 0.46482 0.53471
 C113 C 0.24192 0.25845 0.24897
 C114 C 0.26052 0.23999 0.24873
 C115 C 0.26031 0.21871 0.22901
 C116 C 0.28198 0.24024 0.26821
 C117 C 0.24044 0.27801 0.27046
 C118 C 0.22218 0.26010 0.22770
 C119 C 0.23860 0.20296 0.22594
 C120 C 0.23834 0.18354 0.20674
 C121 C 0.25991 0.17930 0.19046
 C122 C 0.28184 0.19470 0.19406
 C123 C 0.28205 0.21415 0.21321
 C124 C 0.28663 0.21856 0.28408
 C125 C 0.30603 0.21897 0.30327
 C126 C 0.32126 0.24103 0.30682
 C127 C 0.31700 0.26247 0.29038
 C128 C 0.29764 0.26202 0.27114
 C129 C 0.24002 0.30422 0.26395
 C130 C 0.23914 0.32282 0.28395
 C131 C 0.23851 0.31556 0.31089
 C132 C 0.23845 0.28926 0.31736
 C133 C 0.23925 0.27066 0.29732
 C134 C 0.22930 0.26167 0.20080
 C135 C 0.21053 0.26275 0.18097
 C136 C 0.18430 0.26259 0.18769
 C137 C 0.17727 0.26155 0.21468
 C138 C 0.19604 0.26040 0.23449
 H139 H 0.22182 0.20579 0.23835
 H140 H 0.22135 0.17170 0.20479
 H141 H 0.29866 0.19208 0.18167
 H142 H 0.29902 0.22604 0.21534
 H143 H 0.27480 0.20155 0.28204
 H144 H 0.30870 0.20223 0.31578
 H145 H 0.29471 0.27875 0.25868
 H146 H 0.24084 0.31027 0.24334
 H147 H 0.23947 0.34291 0.27834
 H148 H 0.23752 0.28307 0.33790
 H149 H 0.23898 0.25052 0.30275
 H150 H 0.24939 0.26205 0.19519
 H151 H 0.21654 0.26400 0.16038
 H152 H 0.15724 0.26114 0.22047
 H153 H 0.19018 0.25930 0.25513
 H154 H 0.32873 0.27955 0.29230
 C155 C 0.76019 0.74015 0.25058
 C156 C 0.74140 0.75843 0.25042
 C157 C 0.73973 0.77801 0.22897
 C158 C 0.72163 0.75981 0.27171
 C159 C 0.76017 0.71881 0.27024
 C160 C 0.78162 0.74061 0.23104
 C161 C 0.73915 0.80420 0.23553
 C162 C 0.73818 0.82283 0.21555
 C163 C 0.73761 0.81562 0.18860
 C164 C 0.73767 0.78934 0.18210
 C165 C 0.73856 0.77071 0.20211
 C166 C 0.72871 0.76134 0.29862
 C167 C 0.70991 0.76223 0.31846
 C168 C 0.68368 0.76193 0.31174
 C169 C 0.67670 0.76091 0.28474
 C170 C 0.69550 0.75995 0.26494
 C171 C 0.73863 0.70283 0.27325
 C172 C 0.73854 0.68337 0.29242
 C173 C 0.76012 0.67933 0.30872
 C174 C 0.78190 0.69496 0.30517
 C175 C 0.78194 0.71445 0.28605
 C176 C 0.78651 0.71895 0.21523
 C177 C 0.80598 0.71948 0.19609
 C178 C 0.82104 0.74166 0.19251
 C179 C 0.81651 0.76311 0.20885
 C180 C 0.79709 0.76253 0.22804
 H181 H 0.73995 0.81021 0.25614
 H182 H 0.73841 0.84291 0.22118
 H183 H 0.73678 0.78319 0.16155
 H184 H 0.73842 0.75057 0.19666
 H185 H 0.74879 0.76184 0.30424
 H186 H 0.71589 0.76346 0.33905
 H187 H 0.68966 0.75887 0.24429
 H188 H 0.72184 0.70551 0.26083
 H189 H 0.72167 0.67134 0.29435
 H190 H 0.79872 0.69248 0.31757
 H191 H 0.79878 0.72652 0.28396
 H192 H 0.77485 0.70183 0.21731
 H193 H 0.80884 0.70274 0.18366
 H194 H 0.82811 0.78029 0.20690
 H195 H 0.79398 0.77925 0.24045
 H196 H 0.65667 0.76038 0.27895
 C197 C 0.74079 0.23962 0.24986
 C198 C 0.75952 0.25796 0.24987
 C199 C 0.77920 0.25938 0.22849
 C200 C 0.76120 0.27758 0.27125
 C201 C 0.71942 0.24006 0.26947
 C202 C 0.74081 0.21823 0.23030
 C203 C 0.80536 0.25970 0.23517
 C204 C 0.82408 0.26077 0.21529
 C205 C 0.81699 0.26173 0.18832
 C206 C 0.79073 0.26183 0.18170
 C207 C 0.77201 0.26082 0.20161
 C208 C 0.76253 0.27031 0.29812
 C209 C 0.76340 0.28897 0.31807
 C210 C 0.76328 0.31524 0.31150
 C211 C 0.76257 0.32242 0.28454
 C212 C 0.76162 0.30376 0.26462
 C213 C 0.70389 0.26194 0.27243
 C214 C 0.68451 0.26250 0.29167
 C215 C 0.68009 0.24107 0.30810
 C216 C 0.69523 0.21894 0.30457
 C217 C 0.71464 0.21843 0.28538
 C218 C 0.71901 0.21375 0.21459
 C219 C 0.71906 0.19419 0.19556
 C220 C 0.74088 0.17864 0.19200
 C221 C 0.76250 0.18281 0.20820
 C222 C 0.76241 0.20232 0.22728
 H223 H 0.81128 0.25869 0.25580
 H224 H 0.84413 0.26040 0.22100
 H225 H 0.78468 0.26301 0.16113
 H226 H 0.75191 0.26119 0.19607
 H227 H 0.76280 0.25019 0.30362
 H228 H 0.76440 0.28286 0.33864
 H229 H 0.76070 0.30973 0.24399
 H230 H 0.70691 0.27864 0.25994
 H231 H 0.67286 0.27964 0.29358
 H232 H 0.69244 0.20222 0.31707
 H233 H 0.72636 0.20134 0.28333
 H234 H 0.70213 0.22576 0.21669
 H235 H 0.70220 0.19161 0.18323
 H236 H 0.77941 0.17084 0.20626
 H237 H 0.77922 0.20511 0.23963
 H238 H 0.76220 0.34249 0.27887
 C239 C 0.25883 0.75814 0.24967
 C240 C 0.24011 0.73979 0.24972
 C241 C 0.21873 0.74021 0.23011
 C242 C 0.24013 0.71842 0.26934
 C243 C 0.27851 0.75959 0.27104
 C244 C 0.26052 0.77776 0.22824
 C245 C 0.20322 0.76210 0.22709
 C246 C 0.18390 0.76266 0.20781
 C247 C 0.17950 0.74123 0.19139
 C248 C 0.19461 0.71910 0.19500
 C249 C 0.21397 0.71858 0.21423
 C250 C 0.21835 0.71394 0.28511
 C251 C 0.21843 0.69446 0.30424
 C252 C 0.24029 0.67895 0.30785
 C253 C 0.26188 0.68309 0.29158
 C254 C 0.26175 0.70254 0.27240
 C255 C 0.30467 0.75989 0.26436
 C256 C 0.32339 0.76091 0.28424
 C257 C 0.31629 0.76183 0.31122
 C258 C 0.29003 0.76196 0.31784
 C259 C 0.27132 0.76101 0.29793
 C260 C 0.26182 0.77047 0.20138
 C261 C 0.26266 0.78912 0.18139
 C262 C 0.26252 0.81540 0.18790
 C263 C 0.26184 0.82259 0.21485
 C264 C 0.26093 0.80394 0.23482
 H265 H 0.20622 0.77880 0.23956
 H266 H 0.17227 0.77981 0.20586
 H267 H 0.19185 0.70237 0.18252
 H268 H 0.22568 0.70148 0.21632
 H269 H 0.20145 0.72593 0.28298
 H270 H 0.20160 0.69191 0.31662
 H271 H 0.27856 0.70531 0.26001
 H272 H 0.31061 0.75889 0.24373
 H273 H 0.34344 0.76052 0.27851
 H274 H 0.28396 0.76312 0.33841
 H275 H 0.25121 0.76138 0.30348
 H276 H 0.26210 0.75034 0.19592
 H277 H 0.26364 0.78298 0.16083
 H278 H 0.26146 0.84267 0.22049
 H279 H 0.26002 0.80993 0.25543
 H280 H 0.27882 0.67116 0.29355
 C281 C 0.75857 0.25784 0.75082
 C282 C 0.73985 0.23951 0.75106
 C283 C 0.71838 0.23990 0.73161
 C284 C 0.73995 0.21819 0.77075
 C285 C 0.77836 0.25932 0.77205
 C286 C 0.76015 0.27742 0.72936
 C287 C 0.70284 0.26178 0.72868
 C288 C 0.68343 0.26233 0.70951
 C289 C 0.67899 0.24090 0.69311
 C290 C 0.69411 0.21876 0.69664
 C291 C 0.71356 0.21825 0.71577
 C292 C 0.71821 0.21377 0.78660
 C293 C 0.71831 0.19428 0.80572
 C294 C 0.74014 0.17871 0.80924
 C295 C 0.76170 0.18283 0.79292
 C296 C 0.76155 0.20228 0.77375
 C297 C 0.80449 0.25952 0.76520
 C298 C 0.82331 0.26062 0.78495
 C299 C 0.81635 0.26170 0.81196
 C300 C 0.79014 0.26192 0.81875
 C301 C 0.77132 0.26090 0.79897
 C302 C 0.76129 0.27011 0.70250
 C303 C 0.76217 0.28874 0.68248
 C304 C 0.76223 0.31502 0.68898
 C305 C 0.76165 0.32224 0.71592
 C306 C 0.76070 0.30361 0.73591
 H307 H 0.70590 0.27848 0.74113
 H308 H 0.67178 0.27947 0.70760
 H309 H 0.69130 0.20204 0.68416
 H310 H 0.72529 0.20117 0.71780
 H311 H 0.70133 0.22578 0.78453
 H312 H 0.70150 0.19175 0.81815
 H313 H 0.77832 0.20502 0.76130
 H314 H 0.81030 0.25841 0.74453
 H315 H 0.84333 0.26015 0.77911
 H316 H 0.78420 0.26320 0.83935
 H317 H 0.75124 0.26135 0.80463
 H318 H 0.76146 0.24998 0.69705
 H319 H 0.76306 0.28259 0.66193
 H320 H 0.76142 0.34232 0.72155
 H321 H 0.75992 0.30963 0.75652
 H322 H 0.77861 0.17085 0.79482
 C323 C 0.23950 0.74037 0.74951
 C324 C 0.25815 0.75879 0.74961
 C325 C 0.27790 0.76029 0.72830
 C326 C 0.25970 0.77844 0.77100
 C327 C 0.21810 0.74069 0.76907
 C328 C 0.23963 0.71902 0.72986
 C329 C 0.30404 0.76057 0.73505
 C330 C 0.32282 0.76157 0.71522
 C331 C 0.31580 0.76249 0.68823
 C332 C 0.28957 0.76266 0.68153
 C333 C 0.27079 0.76173 0.70139
 C334 C 0.26092 0.77121 0.79789
 C335 C 0.26170 0.78989 0.81784
 C336 C 0.26159 0.81616 0.81126
 C337 C 0.26096 0.82331 0.78428
 C338 C 0.26010 0.80462 0.76436
 C339 C 0.20247 0.76251 0.77203
 C340 C 0.18313 0.76300 0.79131
 C341 C 0.17884 0.74157 0.80778
 C342 C 0.19404 0.71950 0.80423
 C343 C 0.21343 0.71905 0.78499
 C344 C 0.21786 0.71449 0.71411
 C345 C 0.21800 0.69500 0.69500
 C346 C 0.23988 0.67953 0.69140
 C347 C 0.26147 0.68374 0.70764
 C348 C 0.26128 0.70320 0.72680
 H349 H 0.30990 0.75956 0.75570
 H350 H 0.34285 0.76115 0.72100
 H351 H 0.28357 0.76382 0.66094
 H352 H 0.25070 0.76212 0.69579
 H353 H 0.26120 0.75109 0.80341
 H354 H 0.26264 0.78379 0.83841
 H355 H 0.25926 0.81058 0.74373
 H356 H 0.20541 0.77921 0.75953
 H357 H 0.17142 0.78010 0.79324
 H358 H 0.19136 0.70278 0.81675
 H359 H 0.22522 0.70201 0.78294
 H360 H 0.20094 0.72643 0.71623
 H361 H 0.20116 0.69241 0.68264
 H362 H 0.27843 0.67184 0.70568
 H363 H 0.27808 0.70600 0.73917
 H364 H 0.26060 0.84337 0.77858
 C365 C 0.25922 0.23969 0.75078
 C366 C 0.24058 0.25812 0.75069
 C367 C 0.23902 0.27775 0.72927
 C368 C 0.22087 0.25964 0.77203
 C369 C 0.25909 0.21832 0.77040
 C370 C 0.28063 0.24004 0.73120
 C371 C 0.23869 0.30393 0.73587
 C372 C 0.23786 0.32260 0.71591
 C373 C 0.23719 0.31543 0.68896
 C374 C 0.23700 0.28916 0.68242
 C375 C 0.23775 0.27049 0.70240
 C376 C 0.22802 0.26106 0.79892
 C377 C 0.20928 0.26210 0.81881
 C378 C 0.18304 0.26206 0.81215
 C379 C 0.17598 0.26114 0.78517
 C380 C 0.19472 0.26002 0.76532
 C381 C 0.23742 0.20251 0.77346
 C382 C 0.23724 0.18299 0.79256
 C383 C 0.25886 0.17871 0.80875
 C384 C 0.28075 0.19418 0.80516
 C385 C 0.28087 0.21373 0.78611
 C386 C 0.28531 0.21841 0.71530
 C387 C 0.30472 0.21887 0.69610
 C388 C 0.31994 0.24094 0.69256
 C389 C 0.31563 0.26237 0.70901
 C390 C 0.29626 0.26186 0.72826
 H391 H 0.23957 0.30991 0.75648
 H392 H 0.23828 0.34267 0.72157
 H393 H 0.23603 0.28304 0.66186
 H394 H 0.23742 0.25037 0.69692
 H395 H 0.24812 0.26137 0.80449
 H396 H 0.21531 0.26326 0.83938
 H397 H 0.18882 0.25903 0.74468
 H398 H 0.22061 0.20537 0.76111
 H399 H 0.22028 0.17109 0.79452
 H400 H 0.29760 0.19152 0.81748
 H401 H 0.29781 0.22566 0.78398
 H402 H 0.27351 0.20137 0.71734
 H403 H 0.30742 0.20216 0.68358
 H404 H 0.32735 0.27946 0.70710
 H405 H 0.29331 0.27855 0.74075
 H406 H 0.15593 0.26081 0.77943
 C407 C 0.74079 0.75781 0.75001
 C408 C 0.75964 0.73959 0.74996
 C409 C 0.75971 0.71822 0.73038
 C410 C 0.78103 0.74014 0.76954
 C411 C 0.73898 0.77737 0.77143
 C412 C 0.72108 0.75913 0.72866
 C413 C 0.73820 0.70219 0.72741
 C414 C 0.73816 0.68272 0.70828
 C415 C 0.75975 0.67873 0.69197
 C416 C 0.78150 0.69439 0.69549
 C417 C 0.78150 0.71389 0.71458
 C418 C 0.78599 0.71851 0.78537
 C419 C 0.80543 0.71910 0.80452
 C420 C 0.82041 0.74133 0.80809
 C421 C 0.81580 0.76278 0.79174
 C422 C 0.79640 0.76213 0.77254
 C423 C 0.73841 0.80356 0.76487
 C424 C 0.73740 0.82217 0.78484
 C425 C 0.73677 0.81492 0.81179
 C426 C 0.73678 0.78864 0.81829
 C427 C 0.73772 0.77003 0.79829
 C428 C 0.72824 0.76061 0.70176
 C429 C 0.70950 0.76153 0.68187
 C430 C 0.68325 0.76130 0.68853
 C431 C 0.67618 0.76029 0.71551
 C432 C 0.69492 0.75930 0.73536
 H433 H 0.72140 0.70485 0.73983
 H434 H 0.72131 0.67066 0.70637
 H435 H 0.79833 0.69194 0.68307
 H436 H 0.79831 0.72600 0.71664
 H437 H 0.77440 0.70133 0.78329
 H438 H 0.80835 0.70236 0.81695
 H439 H 0.79325 0.77885 0.76012
 H440 H 0.73928 0.80959 0.74426
 H441 H 0.73766 0.84226 0.77922
 H442 H 0.73584 0.78247 0.83884
 H443 H 0.73756 0.74989 0.80373
 H444 H 0.74833 0.76109 0.69618
 H445 H 0.71554 0.76275 0.66129
 H446 H 0.65613 0.75981 0.72127
 H447 H 0.68901 0.75826 0.75600
 H448 H 0.82733 0.78000 0.79368
 C449 C 0.23719 0.13651 0.13399
 C450 C 0.25895 0.12130 0.12953
 C451 C 0.28092 0.12485 0.14513
 C452 C 0.28122 0.14360 0.16504
 C453 C 0.25904 0.05123 0.05404
 C454 C 0.23743 0.15527 0.15391
 C455 C 0.25880 0.10215 0.10885
 C456 C 0.25878 0.08612 0.09153
 C457 C 0.25888 0.06733 0.07128
 C458 C 0.25948 0.15907 0.16963
 H459 H 0.22010 0.13398 0.12198
 H460 H 0.29785 0.11313 0.14190
 H461 H 0.29836 0.14584 0.17702
 H462 H 0.22053 0.16709 0.15671
 C463 C 0.78124 0.62452 0.64662
 C464 C 0.75929 0.62080 0.63102
 C465 C 0.73740 0.63582 0.63550
 C466 C 0.73748 0.65454 0.65543
 C467 C 0.75986 0.55093 0.55544
 C468 C 0.78137 0.64325 0.66655
 C469 C 0.75929 0.60170 0.61033
 C470 C 0.75939 0.58572 0.59299
 C471 C 0.75960 0.56699 0.57271
 C472 C 0.75950 0.65851 0.67114
 H473 H 0.79826 0.61295 0.64337
 H474 H 0.72033 0.63315 0.62349
 H475 H 0.72047 0.66622 0.65825
 H476 H 0.79849 0.64563 0.67852
 C477 C 0.72204 0.87661 0.15043
 C478 C 0.73715 0.87355 0.12761
 C479 C 0.75218 0.85145 0.12456
 C480 C 0.75220 0.83251 0.14430
 C481 C 0.73830 0.94566 0.05423
 C482 C 0.72205 0.85771 0.17020
 C483 C 0.73739 0.89321 0.10746
 C484 C 0.73765 0.90973 0.09065
 C485 C 0.73799 0.92911 0.07101
 C486 C 0.73719 0.83547 0.16738
 H487 H 0.71029 0.89362 0.15296
 H488 H 0.76400 0.84893 0.10701
 H489 H 0.76431 0.81577 0.14172
 H490 H 0.71005 0.86038 0.18758
 C491 C 0.25200 0.35119 0.62493
 C492 C 0.23717 0.37343 0.62802
 C493 C 0.22214 0.37660 0.65087
 C494 C 0.22200 0.35768 0.67063
 C495 C 0.23862 0.44550 0.55461
 C496 C 0.25188 0.33223 0.64465
 C497 C 0.23753 0.39308 0.60787
 C498 C 0.23786 0.40960 0.59106
 C499 C 0.23827 0.42897 0.57140
 C500 C 0.23693 0.33531 0.66777
 H501 H 0.26376 0.34858 0.60735
 H502 H 0.21053 0.39371 0.65344
 H503 H 0.21006 0.36045 0.68803
 H504 H 0.26383 0.31539 0.64204
 C505 C 0.87809 0.27808 0.15069
 C506 C 0.87513 0.26342 0.12757
 C507 C 0.85307 0.24840 0.12415
 C508 C 0.83407 0.24795 0.14382
 C509 C 0.94735 0.26406 0.05431
 C510 C 0.85913 0.27765 0.17039
 C511 C 0.89482 0.26366 0.10746
 C512 C 0.91138 0.26383 0.09068
 C513 C 0.93079 0.26397 0.07107
 C514 C 0.83693 0.26252 0.16721
 H515 H 0.89506 0.28983 0.15350
 H516 H 0.85062 0.23692 0.10635
 H517 H 0.81736 0.23587 0.14095
 H518 H 0.86173 0.28933 0.18801
 C519 C 0.35198 0.74871 0.62421
 C520 C 0.37412 0.76362 0.62763
 C521 C 0.37710 0.77835 0.65070
 C522 C 0.35808 0.77811 0.67035
 C523 C 0.44647 0.76366 0.55450
 C524 C 0.33293 0.74845 0.64383
 C525 C 0.39385 0.76367 0.60757
 C526 C 0.41044 0.76369 0.59082
 C527 C 0.42988 0.76368 0.57124
 C528 C 0.33580 0.76310 0.66717
 H529 H 0.34951 0.73717 0.60646
 H530 H 0.39412 0.79002 0.65351
 H531 H 0.36070 0.78984 0.68793
 H532 H 0.31616 0.73645 0.64097
 C533 C 0.12520 0.72125 0.14540
 C534 C 0.12210 0.74337 0.12989
 C535 C 0.13758 0.76489 0.13463
 C536 C 0.15613 0.76426 0.15473
 C537 C 0.05248 0.74479 0.05397
 C538 C 0.14376 0.72057 0.16549
 C539 C 0.10312 0.74394 0.10906
 C540 C 0.08722 0.74432 0.09162
 C541 C 0.06853 0.74463 0.07127
 C542 C 0.15947 0.74206 0.17036
 H543 H 0.11327 0.70451 0.14195
 H544 H 0.13539 0.78209 0.12270
 H545 H 0.16817 0.78098 0.15774
 H546 H 0.14565 0.70332 0.17739
 C547 C 0.62459 0.22093 0.64728
 C548 C 0.62156 0.24303 0.63172
 C549 C 0.63708 0.26452 0.63638
 C550 C 0.65563 0.26391 0.65648
 C551 C 0.55226 0.24432 0.55559
 C552 C 0.64315 0.22027 0.66737
 C553 C 0.60264 0.24356 0.61086
 C554 C 0.58680 0.24391 0.59338
 C555 C 0.56821 0.24419 0.57295
 C556 C 0.65892 0.24174 0.67215
 H557 H 0.61263 0.20421 0.64388
 H558 H 0.63494 0.28170 0.62440
 H559 H 0.66772 0.28060 0.65943
 H560 H 0.64502 0.20304 0.67931
 C561 C 0.71883 0.12433 0.85454
 C562 C 0.74080 0.12063 0.87012
 C563 C 0.76265 0.13572 0.86565
 C564 C 0.76251 0.15450 0.84574
 C565 C 0.74037 0.05052 0.94559
 C566 C 0.71864 0.14311 0.83464
 C567 C 0.74086 0.10147 0.89079
 C568 C 0.74079 0.08543 0.90810
 C569 C 0.74061 0.06663 0.92835
 C570 C 0.74046 0.15845 0.83005
 H571 H 0.70184 0.11270 0.85779
 H572 H 0.77974 0.13307 0.87764
 H573 H 0.77948 0.16623 0.84293
 H574 H 0.70150 0.14547 0.82269
 C575 C 0.26282 0.63620 0.36445
 C576 C 0.24101 0.62107 0.36894
 C577 C 0.21905 0.62465 0.35331
 C578 C 0.21884 0.64336 0.33334
 C579 C 0.24069 0.55120 0.44466
 C580 C 0.26266 0.65492 0.34448
 C581 C 0.24109 0.60197 0.38967
 C582 C 0.24105 0.58599 0.40705
 C583 C 0.24090 0.56726 0.42737
 C584 C 0.24063 0.65875 0.32873
 H585 H 0.27989 0.63365 0.37648
 H586 H 0.20209 0.61299 0.35657
 H587 H 0.20171 0.64564 0.32135
 H588 H 0.27960 0.66669 0.34165
 C589 C 0.24698 0.85203 0.87525
 C590 C 0.26186 0.87423 0.87209
 C591 C 0.27686 0.87734 0.84921
 C592 C 0.27691 0.85841 0.82949
 C593 C 0.26074 0.94640 0.94539
 C594 C 0.24701 0.83305 0.85557
 C595 C 0.26159 0.89391 0.89221
 C596 C 0.26133 0.91045 0.90900
 C597 C 0.26101 0.92984 0.92862
 C598 C 0.26193 0.83607 0.83241
 H599 H 0.23523 0.84946 0.89286
 H600 H 0.28851 0.89442 0.84659
 H601 H 0.28884 0.86113 0.81206
 H602 H 0.23502 0.81624 0.85823
 C603 C 0.74863 0.35106 0.37547
 C604 C 0.76354 0.37324 0.37233
 C605 C 0.77859 0.37635 0.34948
 C606 C 0.77865 0.35743 0.32976
 C607 C 0.76215 0.44533 0.44560
 C608 C 0.74868 0.33209 0.35578
 C609 C 0.76323 0.39290 0.39243
 C610 C 0.76292 0.40943 0.40921
 C611 C 0.76251 0.42880 0.42883
 C612 C 0.76364 0.33511 0.33266
 H613 H 0.73685 0.34850 0.39305
 H614 H 0.79025 0.39342 0.34689
 H615 H 0.79060 0.36015 0.31235
 H616 H 0.73666 0.31529 0.35841
 C617 C 0.12190 0.27840 0.84971
 C618 C 0.12482 0.26370 0.87283
 C619 C 0.14686 0.24866 0.87627
 C620 C 0.16589 0.24823 0.85662
 C621 C 0.05257 0.26420 0.94607
 C622 C 0.14088 0.27798 0.83003
 C623 C 0.10511 0.26392 0.89292
 C624 C 0.08855 0.26405 0.90969
 C625 C 0.06913 0.26416 0.92930
 C626 C 0.16307 0.26284 0.83324
 H627 H 0.10495 0.29016 0.84689
 H628 H 0.14928 0.23715 0.89406
 H629 H 0.18258 0.23613 0.85951
 H630 H 0.13832 0.28969 0.81242
 C631 C 0.64749 0.74829 0.37580
 C632 C 0.62532 0.76314 0.37229
 C633 C 0.62232 0.77777 0.34913
 C634 C 0.64135 0.77749 0.32950
 C635 C 0.55295 0.76342 0.44539
 C636 C 0.66656 0.74800 0.35619
 C637 C 0.60558 0.76324 0.39234
 C638 C 0.58899 0.76331 0.40908
 C639 C 0.56954 0.76337 0.42865
 C640 C 0.66366 0.76255 0.33278
 H641 H 0.64998 0.73684 0.39362
 H642 H 0.60527 0.78938 0.34625
 H643 H 0.63871 0.78914 0.31186
 H644 H 0.68336 0.73606 0.35914
 C645 C 0.87510 0.72151 0.85368
 C646 C 0.87816 0.74360 0.86924
 C647 C 0.86253 0.76504 0.86466
 C648 C 0.84386 0.76437 0.84466
 C649 C 0.94804 0.74497 0.94489
 C650 C 0.85643 0.72080 0.83370
 C651 C 0.89723 0.74419 0.88998
 C652 C 0.91320 0.74455 0.90734
 C653 C 0.93195 0.74484 0.92763
 C654 C 0.84056 0.74221 0.82899
 H655 H 0.88714 0.70483 0.85701
 H656 H 0.86468 0.78221 0.87663
 H657 H 0.83171 0.78103 0.84177
 H658 H 0.85457 0.70358 0.82177
 C659 C 0.36305 0.26451 0.36369
 C660 C 0.37844 0.24295 0.36847
 C661 C 0.37536 0.22085 0.35295
 C662 C 0.35687 0.22024 0.33278
 C663 C 0.44756 0.24420 0.44478
 C664 C 0.34457 0.26395 0.34352
 C665 C 0.39730 0.24344 0.38939
 C666 C 0.41309 0.24377 0.40691
 C667 C 0.43163 0.24405 0.42738
 C668 C 0.34123 0.24178 0.32788
 H669 H 0.36523 0.28169 0.37564
 H670 H 0.38722 0.20408 0.35644
 H671 H 0.35497 0.20301 0.32087
 H672 H 0.33258 0.28070 0.34048
 C673 C 0.75145 0.85064 0.87579
 C674 C 0.73646 0.87277 0.87277
 C675 C 0.72133 0.87588 0.84999
 C676 C 0.72128 0.85700 0.83022
 C677 C 0.73796 0.94474 0.94616
 C678 C 0.75141 0.83172 0.85606
 C679 C 0.73677 0.89239 0.89291
 C680 C 0.73711 0.90889 0.90972
 C681 C 0.73755 0.92823 0.92937
 C682 C 0.73638 0.83474 0.83300
 H683 H 0.76329 0.84808 0.89332
 H684 H 0.70960 0.89292 0.84749
 H685 H 0.70927 0.85972 0.81286
 H686 H 0.76350 0.81496 0.85860
 C687 C 0.25297 0.35122 0.37504
 C688 C 0.23804 0.37338 0.37197
 C689 C 0.22304 0.37654 0.34910
 C690 C 0.22307 0.35768 0.32930
 C691 C 0.23893 0.44539 0.44543
 C692 C 0.25301 0.33231 0.35528
 C693 C 0.23824 0.39299 0.39217
 C694 C 0.23844 0.40949 0.40900
 C695 C 0.23870 0.42885 0.42865
 C696 C 0.23811 0.33538 0.33213
 H697 H 0.26471 0.34861 0.39263
 H698 H 0.21136 0.39360 0.34655
 H699 H 0.21115 0.36044 0.31189
 H700 H 0.26504 0.31552 0.35787
 C701 C 0.23637 0.13564 0.86513
 C702 C 0.25816 0.12044 0.86943
 C703 C 0.28008 0.12408 0.85374
 C704 C 0.28028 0.14291 0.83390
 C705 C 0.25869 0.05019 0.94478
 C706 C 0.23652 0.15448 0.84528
 C707 C 0.25811 0.10123 0.89005
 C708 C 0.25819 0.08515 0.90733
 C709 C 0.25841 0.06632 0.92755
 C710 C 0.25851 0.15838 0.82948
 H711 H 0.21932 0.13303 0.87721
 H712 H 0.29703 0.11237 0.85686
 H713 H 0.29738 0.14523 0.82186
 H714 H 0.21959 0.16630 0.84260
 C715 C 0.73772 0.63629 0.36516
 C716 C 0.75960 0.62127 0.36962
 C717 C 0.78157 0.62502 0.35402
 C718 C 0.78171 0.64379 0.33412
 C719 C 0.76006 0.55114 0.44507
 C720 C 0.73782 0.65507 0.34525
 C721 C 0.75959 0.60210 0.39028
 C722 C 0.75966 0.58606 0.40759
 C723 C 0.75985 0.56725 0.42784
 C724 C 0.75985 0.65907 0.32954
 H725 H 0.72064 0.63360 0.37717
 H726 H 0.79859 0.61345 0.35726
 H727 H 0.79885 0.64620 0.32214
 H728 H 0.72081 0.66675 0.34245
 C729 C 0.13695 0.76511 0.86461
 C730 C 0.12156 0.74355 0.86943
 C731 C 0.12468 0.72143 0.85394
 C732 C 0.14320 0.72080 0.83379
 C733 C 0.05224 0.74481 0.94567
 C734 C 0.15546 0.76454 0.84445
 C735 C 0.10265 0.74405 0.89034
 C736 C 0.08681 0.74438 0.90784
 C737 C 0.06821 0.74466 0.92829
 C738 C 0.15884 0.74235 0.82885
 H739 H 0.13474 0.78231 0.87654
 H740 H 0.11282 0.70465 0.85745
 H741 H 0.14512 0.70356 0.82191
 H742 H 0.16744 0.78130 0.84138
 C743 C 0.63797 0.26464 0.36473
 C744 C 0.62248 0.24312 0.36941
 C745 C 0.62563 0.22101 0.35390
 C746 C 0.64425 0.22037 0.33386
 C747 C 0.55270 0.24434 0.44518
 C748 C 0.65660 0.26405 0.34469
 C749 C 0.60345 0.24364 0.39019
 C750 C 0.58751 0.24397 0.40759
 C751 C 0.56878 0.24423 0.42791
 C752 C 0.65999 0.24187 0.32906
 H753 H 0.63575 0.28183 0.37667
 H754 H 0.61369 0.20427 0.35730
 H755 H 0.64619 0.20314 0.32196
 H756 H 0.66865 0.28077 0.34171
 C757 C 0.85270 0.24838 0.87592
 C758 C 0.87479 0.26333 0.87231
 C759 C 0.87768 0.27794 0.84913
 C760 C 0.85863 0.27752 0.82955
 C761 C 0.94726 0.26396 0.94518
 C762 C 0.83361 0.24795 0.85638
 C763 C 0.89456 0.26356 0.89230
 C764 C 0.91118 0.26371 0.90898
 C765 C 0.93065 0.26386 0.92849
 C766 C 0.83640 0.26247 0.83293
 H767 H 0.85031 0.23694 0.89377
 H768 H 0.89467 0.28963 0.84617
 H769 H 0.86117 0.28916 0.81188
 H770 H 0.81687 0.23593 0.85939
 C771 C 0.35230 0.74832 0.37540
 C772 C 0.37442 0.76326 0.37198
 C773 C 0.37744 0.77793 0.34885
 C774 C 0.35850 0.77758 0.32914
 C775 C 0.44657 0.76361 0.44529
 C776 C 0.33331 0.74795 0.35572
 C777 C 0.39410 0.76342 0.39210
 C778 C 0.41063 0.76352 0.40888
 C779 C 0.43003 0.76359 0.42851
 C780 C 0.33623 0.76254 0.33233
 H781 H 0.34979 0.73683 0.39319
 H782 H 0.39445 0.78962 0.34603
 H783 H 0.36115 0.78927 0.31153
 H784 H 0.31655 0.73593 0.35860
 C785 C 0.27769 0.87652 0.14975
 C786 C 0.26265 0.87335 0.12692
 C787 C 0.24780 0.85113 0.12385
 C788 C 0.24788 0.83218 0.14359
 C789 C 0.26114 0.94540 0.05349
 C790 C 0.27779 0.85761 0.16952
 C791 C 0.26231 0.89299 0.10676
 C792 C 0.26196 0.90950 0.08994
 C793 C 0.26153 0.92887 0.07028
 C794 C 0.26283 0.83525 0.16669
 H795 H 0.28932 0.89362 0.15230
 H796 H 0.23602 0.84852 0.10629
 H797 H 0.23591 0.81535 0.14100
 H798 H 0.28974 0.86038 0.18692
 C799 C 0.74777 0.35088 0.62494
 C800 C 0.76282 0.37296 0.62800
 C801 C 0.77791 0.37600 0.65081
 C802 C 0.77786 0.35710 0.67058
 C803 C 0.76188 0.44514 0.55469
 C804 C 0.74770 0.33193 0.64467
 C805 C 0.76263 0.39263 0.60786
 C806 C 0.76242 0.40916 0.59106
 C807 C 0.76214 0.42857 0.57145
 C808 C 0.76269 0.33487 0.66776
 H809 H 0.73596 0.34837 0.60738
 H810 H 0.78968 0.39299 0.65335
 H811 H 0.78984 0.35975 0.68796
 H812 H 0.73558 0.31520 0.64209
 C813 C 0.71948 0.12414 0.14701
 C814 C 0.74138 0.12048 0.13131
 C815 C 0.76322 0.13561 0.13561
 C816 C 0.76313 0.15441 0.15547
 C817 C 0.74066 0.05041 0.05592
 C818 C 0.71934 0.14294 0.16686
 C819 C 0.74136 0.10131 0.11068
 C820 C 0.74124 0.08528 0.09338
 C821 C 0.74097 0.06650 0.07315
 C822 C 0.74115 0.15833 0.17127
 H823 H 0.70249 0.11248 0.14389
 H824 H 0.78025 0.13298 0.12351
 H825 H 0.78009 0.16618 0.15815
 H826 H 0.70225 0.14529 0.17891
 C827 C 0.21870 0.62510 0.64614
 C828 C 0.24066 0.62148 0.63051
 C829 C 0.26246 0.63663 0.63494
 C830 C 0.26228 0.65540 0.65484
 C831 C 0.24046 0.55135 0.55508
 C832 C 0.21846 0.64386 0.66604
 C833 C 0.24076 0.60231 0.60986
 C834 C 0.24074 0.58627 0.59255
 C835 C 0.24063 0.56746 0.57231
 C836 C 0.24024 0.65928 0.67058
 H837 H 0.20174 0.61342 0.64294
 H838 H 0.27954 0.63405 0.62291
 H839 H 0.27922 0.66719 0.65761
 H840 H 0.20133 0.64616 0.67803
 C841 C 0.86312 0.76524 0.13582
 C842 C 0.87868 0.74376 0.13123
 C843 C 0.87561 0.72169 0.14683
 C844 C 0.85698 0.72103 0.16686
 C845 C 0.94829 0.74499 0.05528
 C846 C 0.84449 0.76464 0.15587
 C847 C 0.89769 0.74429 0.11042
 C848 C 0.91360 0.74462 0.09299
 C849 C 0.93227 0.74487 0.07261
 C850 C 0.84117 0.74249 0.17158
 H851 H 0.86529 0.78241 0.12382
 H852 H 0.88760 0.70498 0.14349
 H853 H 0.85509 0.70382 0.17883
 H854 H 0.83239 0.78132 0.15877
 C855 C 0.37424 0.22080 0.64662
 C856 C 0.37743 0.24292 0.63113
 C857 C 0.36203 0.26448 0.63586
 C858 C 0.34344 0.26391 0.65595
 C859 C 0.44711 0.24420 0.55525
 C860 C 0.35565 0.22017 0.66670
 C861 C 0.39643 0.24344 0.61031
 C862 C 0.41235 0.24377 0.59288
 C863 C 0.43105 0.24406 0.57254
 C864 C 0.34000 0.24172 0.67156
 H865 H 0.38611 0.20402 0.64317
 H866 H 0.36429 0.28169 0.62394
 H867 H 0.33146 0.28067 0.65896
 H868 H 0.35368 0.20292 0.67858
 C869 C 0.12308 0.27878 0.15029
 C870 C 0.12602 0.26410 0.12717
 C871 C 0.14811 0.24914 0.12368
 C872 C 0.16716 0.24876 0.14327
 C873 C 0.05369 0.26435 0.05415
 C874 C 0.14209 0.27841 0.16992
 C875 C 0.10629 0.26425 0.10714
 C876 C 0.08970 0.26433 0.09042
 C877 C 0.07027 0.26436 0.07087
 C878 C 0.16432 0.26334 0.16666
 H879 H 0.10609 0.29048 0.15316
 H880 H 0.15054 0.23765 0.10588
 H881 H 0.18389 0.23672 0.14035
 H882 H 0.13951 0.29009 0.18754
 C883 C 0.62203 0.77738 0.65100
 C884 C 0.62506 0.76280 0.62783
 C885 C 0.64720 0.74791 0.62435
 C886 C 0.66621 0.74752 0.64401
 C887 C 0.55285 0.76338 0.55458
 C888 C 0.64099 0.77700 0.67069
 C889 C 0.60536 0.76300 0.60772
 C890 C 0.58881 0.76315 0.59095
 C891 C 0.56941 0.76329 0.57134
 C892 C 0.66328 0.76201 0.66744
 H893 H 0.60500 0.78903 0.65387
 H894 H 0.64971 0.73649 0.60652
 H895 H 0.68298 0.73554 0.64108
 H896 H 0.63833 0.78862 0.68834
   
