data_POSCAR
  _audit_creation_date              2014-09-24
  _audit_creation_method            'ToBaCCo'
  _symmetry_space_group_name_H-M    'P1'
  _symmetry_Int_Tables_number       1
  _symmetry_cell_setting            triclinic
  loop_
  _symmetry_equiv_pos_as_xyz
 x,y,z
_cell_length_a 37.6190
_cell_length_b 37.9981
_cell_length_c 38.8121
_cell_angle_alpha 90.247400
_cell_angle_beta 90.415400
_cell_angle_gamma 90.245200
loop_
  _atom_site_label
  _atom_site_type_symbol
  _atom_site_fract_x
  _atom_site_fract_y
  _atom_site_fract_z
O1 O 0.33066 0.37433 0.03709
 O2 O 0.37920 0.32247 -0.02684
 O3 O 0.33253 0.37316 -0.02961
 O4 O 0.37788 0.32524 0.03960
 O5 O 0.33609 0.28429 0.03864
 O6 O 0.28852 0.33536 -0.02823
 O7 O 0.33570 0.28332 -0.02847
 O8 O 0.28866 0.33356 0.03835
 Cu9 Cu 0.35937 0.35273 0.00489
 Cu10 Cu 0.30794 0.30505 0.00469
 C11 C 0.30126 0.36290 0.04844
 C12 C 0.36622 0.29367 -0.03794
 C13 C 0.30193 0.36348 -0.04016
 C14 C 0.36496 0.29670 0.05096
 O15 O 0.66953 0.62054 0.02329
 O16 O 0.61253 0.67146 -0.03534
 O17 O 0.65935 0.62202 -0.04268
 O18 O 0.62050 0.66777 0.03114
 O19 O 0.66127 0.70953 0.02786
 O20 O 0.70166 0.66193 -0.04580
 O21 O 0.65416 0.71230 -0.03926
 O22 O 0.71113 0.66167 0.02031
 Cu23 Cu 0.63630 0.64150 -0.00555
 Cu24 Cu 0.68612 0.69061 -0.00957
 C25 C 0.70018 0.63219 0.03135
 C26 C 0.62366 0.70040 -0.04757
 C27 C 0.68740 0.63347 -0.05676
 C28 C 0.63399 0.69633 0.04219
 O29 O 0.68371 0.36952 0.97529
 O30 O 0.63079 0.31609 1.03405
 O31 O 0.67628 0.36576 1.04114
 O32 O 0.63385 0.32255 0.96759
 O33 O 0.67458 0.28091 0.96799
 O34 O 0.71976 0.32754 1.04047
 O35 O 0.67298 0.27578 1.03516
 O36 O 0.72534 0.32864 0.97436
 Cu37 Cu 0.65190 0.34736 1.00429
 Cu38 Cu 0.70229 0.29894 1.00450
 C39 C 0.71383 0.35859 0.96545
 C40 C 0.64310 0.28719 1.04508
 C41 C 0.70576 0.35505 1.05318
 C42 C 0.64641 0.29431 0.95537
 O43 O 0.30937 0.64391 0.96135
 O44 O 0.36293 0.68391 1.03041
 O45 O 0.31488 0.63056 1.02282
 O46 O 0.35633 0.69136 0.96264
 O47 O 0.31524 0.73100 0.97311
 O48 O 0.27559 0.67051 1.03802
 O49 O 0.32156 0.72347 1.03993
 O50 O 0.26576 0.68078 0.97284
 Cu51 Cu 0.34091 0.65956 0.99465
 Cu52 Cu 0.29045 0.70557 1.00705
 C53 C 0.27752 0.65397 0.95695
 C54 C 0.35228 0.71131 1.04598
 C55 C 0.28693 0.63894 1.03894
 C56 C 0.34317 0.72154 0.95724
 O57 O -0.02908 0.38144 0.32626
 O58 O 0.03542 0.31565 0.35520
 O59 O 0.03465 0.36505 0.30925
 O60 O -0.02748 0.32995 0.37277
 O61 O -0.05110 0.29430 0.33390
 O62 O 0.01448 0.32727 0.27036
 O63 O 0.01313 0.27691 0.31827
 O64 O -0.04941 0.34451 0.28660
 Cu65 Cu 0.00516 0.35193 0.34465
 Cu66 Cu -0.02030 0.30697 0.29835
 C67 C -0.04857 0.37499 0.30014
 C68 C 0.03368 0.28451 0.34339
 C69 C 0.03436 0.35315 0.27868
 C70 C -0.04818 0.30460 0.36505
 O71 O 0.03082 0.66812 0.62590
 O72 O -0.02910 0.62287 0.68517
 O73 O -0.03696 0.66421 0.63333
 O74 O 0.03876 0.62075 0.67322
 O75 O 0.04458 0.66381 0.71125
 O76 O -0.03128 0.70916 0.66890
 O77 O -0.02375 0.66677 0.72245
 O78 O 0.03699 0.71172 0.66340
 Cu79 Cu 0.00042 0.63953 0.65088
 Cu80 Cu 0.00709 0.69219 0.69540
 C81 C 0.04346 0.69804 0.63430
 C82 C -0.03661 0.63714 0.71382
 C83 C -0.04692 0.69430 0.64337
 C84 C 0.05469 0.63446 0.69882
 O85 O 1.02532 0.62225 0.31918
 O86 O 0.97053 0.67664 0.37548
 O87 O 0.95833 0.63428 0.32427
 O88 O 1.03851 0.66476 0.36957
 O89 O 1.04272 0.71009 0.33473
 O90 O 0.96271 0.67833 0.28784
 O91 O 0.97484 0.72143 0.33959
 O92 O 1.03116 0.66656 0.28312
 Cu93 Cu 0.99767 0.64522 0.35087
 Cu94 Cu 1.00334 0.69858 0.30761
 C95 C 1.03742 0.63483 0.29139
 C96 C 0.96305 0.70801 0.36718
 C97 C 0.94714 0.65048 0.29781
 C98 C 1.05458 0.69250 0.36012
 O99 O 0.96365 0.34313 0.62383
 O100 O 1.04172 0.37889 0.66888
 O101 O 1.03217 0.33806 0.61568
 O102 O 0.97377 0.38394 0.67626
 O103 O 0.97381 0.33787 0.71070
 O104 O 1.03330 0.29192 0.64949
 O105 O 1.04213 0.33349 0.70423
 O106 O 0.96397 0.29691 0.65797
 Cu107 Cu 1.00288 0.36544 0.64265
 Cu108 Cu 1.00365 0.31013 0.68382
 C109 C 0.94989 0.31436 0.63360
 C110 C 1.05476 0.36289 0.69463
 C111 C 1.04325 0.30728 0.62202
 C112 C 0.96398 0.36904 0.70386
 O113 O 0.37430 0.02795 0.32329
 O114 O 0.32347 -0.03409 0.37581
 O115 O 0.37472 -0.03946 0.33190
 O116 O 0.32837 0.03356 0.37290
 O117 O 0.28659 0.03189 0.33275
 O118 O 0.33330 -0.04332 0.29148
 O119 O 0.28138 -0.03623 0.33574
 O120 O 0.33323 0.02449 0.28235
 Cu121 Cu 0.35432 -0.00266 0.35493
 Cu122 Cu 0.30448 -0.00592 0.30647
 C123 C 0.36273 0.03611 0.29357
 C124 C 0.29364 -0.04536 0.36481
 C125 C 0.36222 -0.05412 0.30503
 C126 C 0.29956 0.04515 0.36039
 O127 O 0.63435 0.03518 0.67696
 O128 O 0.68714 -0.03318 0.63605
 O129 O 0.63569 -0.03276 0.68064
 O130 O 0.68670 0.03398 0.63376
 O131 O 0.72616 0.03653 0.67623
 O132 O 0.67370 -0.02974 0.72418
 O133 O 0.72604 -0.03143 0.67887
 O134 O 0.67291 0.03858 0.72004
 Cu135 Cu 0.65698 0.00046 0.65273
 Cu136 Cu 0.70354 0.00369 0.70432
 C137 C 0.64442 0.04862 0.70534
 C138 C 0.71621 -0.04302 0.64954
 C139 C 0.64560 -0.04237 0.71048
 C140 C 0.71550 0.04589 0.64652
 O141 O 0.31625 1.04049 0.62106
 O142 O 0.37025 0.97565 0.66736
 O143 O 0.31959 0.97269 0.62207
 O144 O 0.36889 1.04375 0.66506
 O145 O 0.32958 1.04473 0.70691
 O146 O 0.28107 0.97095 0.66464
 O147 O 0.33200 0.97595 0.71020
 O148 O 0.27602 1.03892 0.66226
 Cu149 Cu 0.34767 1.00833 0.63976
 Cu150 Cu 0.30081 1.00786 0.69040
 C151 C 0.28652 1.04990 0.63321
 C152 C 0.36029 0.96450 0.69654
 C153 C 0.29187 0.95980 0.63562
 C154 C 0.35788 1.05652 0.69323
 O155 O 0.62888 0.96457 0.33048
 O156 O 0.67574 1.03291 0.38001
 O157 O 0.62943 1.03220 0.33145
 O158 O 0.67495 0.96425 0.38130
 O159 O 0.71836 0.96273 0.34342
 O160 O 0.67299 1.03270 0.29362
 O161 O 0.72001 1.03128 0.34377
 O162 O 0.67192 0.96426 0.29215
 Cu163 Cu 0.64806 0.99824 0.35971
 Cu164 Cu 0.70028 0.99755 0.31448
 C165 C 0.64165 0.95375 0.30219
 C166 C 0.70601 1.04419 0.37059
 C167 C 0.64335 1.04432 0.30429
 C168 C 0.70432 0.95181 0.37113
 C169 C 0.90121 0.76094 0.50834
 C170 C 0.89267 0.77813 0.47773
 C171 C 0.86837 0.80593 0.47794
 C172 C 0.85054 0.81540 0.50855
 C173 C 0.85892 0.79675 0.53907
 C174 C 0.88446 0.77009 0.53905
 C175 C 0.82232 0.84327 0.50852
 C176 C 0.81231 0.85989 0.53959
 C177 C 0.78432 0.88395 0.54032
 C178 C 0.76699 0.89310 0.50974
 C179 C 0.77712 0.87812 0.47842
 C180 C 0.80426 0.85293 0.47783
 H181 H 0.92009 0.73944 0.50801
 H182 H 0.86319 0.81926 0.45391
 H183 H 0.84499 0.80156 0.56285
 H184 H 0.82591 0.85450 0.56359
 H185 H 0.74559 0.91213 0.51029
 H186 H 0.81021 0.84062 0.45342
 C187 C 0.09075 0.23310 0.48209
 C188 C 0.10115 0.21417 0.45296
 C189 C 0.12774 0.18873 0.45571
 C190 C 0.14572 0.18303 0.48728
 C191 C 0.13535 0.20328 0.51631
 C192 C 0.10780 0.22805 0.51382
 C193 C 0.17568 0.15698 0.48950
 C194 C 0.18609 0.14242 0.52149
 C195 C 0.21491 0.11929 0.52362
 C196 C 0.23264 0.10908 0.49378
 C197 C 0.22257 0.12244 0.46173
 C198 C 0.19464 0.14667 0.45965
 H199 H 0.07008 0.25275 0.47979
 H200 H 0.13401 0.17371 0.43287
 H201 H 0.14917 0.20102 0.54070
 H202 H 0.17217 0.14875 0.54496
 H203 H 0.25464 0.09080 0.49556
 H204 H 0.18874 0.15779 0.43471
 C205 C 0.11871 0.74258 0.49461
 C206 C 0.12482 0.75996 0.52573
 C207 C 0.14885 0.78808 0.52738
 C208 C 0.16823 0.79837 0.49802
 C209 C 0.16213 0.77968 0.46679
 C210 C 0.13701 0.75232 0.46498
 C211 C 0.19387 0.82876 0.49990
 C212 C 0.20398 0.84676 0.46970
 C213 C 0.22841 0.87459 0.47117
 C214 C 0.24099 0.88660 0.50299
 C215 C 0.23037 0.87037 0.53337
 C216 C 0.20802 0.84078 0.53185
 H217 H 0.09900 0.72168 0.49335
 H218 H 0.15148 0.80189 0.55164
 H219 H 0.17670 0.78576 0.44368
 H220 H 0.19303 0.83982 0.44478
 H221 H 0.25893 0.90901 0.50414
 H222 H 0.20188 0.82782 0.55580
 C223 C 0.87152 0.26674 0.50325
 C224 C 0.85613 0.25587 0.53398
 C225 C 0.83439 0.22596 0.53420
 C226 C 0.83008 0.20493 0.50434
 C227 C 0.84863 0.21485 0.47415
 C228 C 0.86969 0.24554 0.47373
 C229 C 0.80800 0.17194 0.50543
 C230 C 0.79236 0.15806 0.47506
 C231 C 0.77259 0.12665 0.47582
 C232 C 0.76580 0.11061 0.50748
 C233 C 0.77928 0.12475 0.53816
 C234 C 0.80173 0.15426 0.53692
 H235 H 0.88852 0.28987 0.50336
 H236 H 0.82183 0.21910 0.55820
 H237 H 0.84834 0.19810 0.45154
 H238 H 0.79521 0.17149 0.45071
 H239 H 0.74932 0.08714 0.50831
 H240 H 0.81378 0.16312 0.56079
 C241 C 0.50040 0.89867 0.75963
 C242 C 0.46686 0.88743 0.77000
 C243 C 0.46360 0.86416 0.79767
 C244 C 0.49389 0.85258 0.81629
 C245 C 0.52765 0.86553 0.80581
 C246 C 0.53087 0.88744 0.77694
 C247 C 0.49031 0.82631 0.84529
 C248 C 0.52022 0.80730 0.85736
 C249 C 0.51687 0.78195 0.88322
 C250 C 0.48356 0.77444 0.89687
 C251 C 0.45335 0.79204 0.88521
 C252 C 0.45678 0.81845 0.86022
 H253 H 0.50283 0.91622 0.73779
 H254 H 0.43721 0.85490 0.80352
 H255 H 0.55180 0.85872 0.81933
 H256 H 0.54621 0.81071 0.84626
 H257 H 0.48101 0.75403 0.91618
 H258 H 0.43289 0.83206 0.85266
 C259 C 0.50491 0.09976 0.23911
 C260 C 0.47297 0.10810 0.22279
 C261 C 0.47258 0.13193 0.19544
 C262 C 0.50400 0.14957 0.18544
 C263 C 0.53606 0.14112 0.20292
 C264 C 0.53652 0.11592 0.22912
 C265 C 0.50309 0.17746 0.15812
 C266 C 0.53463 0.18827 0.14153
 C267 C 0.53437 0.21655 0.11865
 C268 C 0.50242 0.23273 0.10992
 C269 C 0.47069 0.22180 0.12482
 C270 C 0.47098 0.19479 0.14925
 H271 H 0.50509 0.08101 0.26011
 H272 H 0.44746 0.13658 0.18265
 H273 H 0.56074 0.15448 0.19738
 H274 H 0.55977 0.17560 0.14650
 H275 H 0.50236 0.25439 0.09179
 H276 H 0.44618 0.18852 0.16168
 C277 C 0.49932 0.11755 0.75170
 C278 C 0.53171 0.12583 0.76750
 C279 C 0.53241 0.14746 0.79671
 C280 C 0.50111 0.16373 0.80888
 C281 C 0.46859 0.15548 0.79178
 C282 C 0.46770 0.13205 0.76371
 C283 C 0.50274 0.18958 0.83846
 C284 C 0.47163 0.19976 0.85618
 C285 C 0.47313 0.22507 0.88252
 C286 C 0.50579 0.23928 0.89274
 C287 C 0.53700 0.22904 0.87649
 C288 C 0.53548 0.20508 0.84904
 H289 H 0.49877 0.09978 0.72975
 H290 H 0.55781 0.15142 0.80923
 H291 H 0.44382 0.16742 0.79922
 H292 H 0.44598 0.18847 0.85005
 H293 H 0.50693 0.25847 0.91351
 H294 H 0.56009 0.19963 0.83601
 C295 C 0.50186 0.88038 0.25084
 C296 C 0.53377 0.87141 0.23509
 C297 C 0.53382 0.84680 0.20805
 C298 C 0.50198 0.82989 0.19714
 C299 C 0.47005 0.83924 0.21420
 C300 C 0.46995 0.86478 0.24037
 C301 C 0.50195 0.80332 0.16800
 C302 C 0.46977 0.79319 0.15146
 C303 C 0.46937 0.76866 0.12440
 C304 C 0.50125 0.75435 0.11293
 C305 C 0.53350 0.76406 0.12820
 C306 C 0.53392 0.78791 0.15593
 H307 H 0.50180 0.90008 0.27115
 H308 H 0.55889 0.84178 0.19567
 H309 H 0.44494 0.82686 0.20807
 H310 H 0.44459 0.80437 0.15863
 H311 H 0.50101 0.73570 0.09168
 H312 H 0.55931 0.79357 0.16785
 C313 C 0.76031 0.49889 0.89521
 C314 C 0.78029 0.46864 0.88976
 C315 C 0.80884 0.46928 0.86692
 C316 C 0.81662 0.49993 0.84789
 C317 C 0.79509 0.53005 0.85297
 C318 C 0.76720 0.52961 0.87677
 C319 C 0.84656 0.50029 0.82261
 C320 C 0.86296 0.53236 0.81334
 C321 C 0.88966 0.53305 0.78851
 C322 C 0.90188 0.50175 0.77413
 C323 C 0.88689 0.46959 0.78342
 C324 C 0.85879 0.46881 0.80698
 H325 H 0.73871 0.49827 0.91357
 H326 H 0.82462 0.44572 0.86430
 H327 H 0.79903 0.55369 0.83806
 H328 H 0.85511 0.55705 0.82486
 H329 H 0.92280 0.50249 0.75504
 H330 H 0.84647 0.44369 0.81233
 C331 C 0.24671 0.49952 0.11672
 C332 C 0.23605 0.46812 0.13176
 C333 C 0.20769 0.46795 0.15470
 C334 C 0.18649 0.49821 0.15911
 C335 C 0.19544 0.52900 0.14036
 C336 C 0.22541 0.52955 0.11885
 C337 C 0.15393 0.49659 0.18112
 C338 C 0.14022 0.52735 0.19648
 C339 C 0.10989 0.52579 0.21717
 C340 C 0.09368 0.49337 0.22375
 C341 C 0.10701 0.46246 0.20927
 C342 C 0.13646 0.46415 0.18749
 H343 H 0.26937 0.49930 0.09959
 H344 H 0.20136 0.44338 0.16718
 H345 H 0.17840 0.55185 0.14092
 H346 H 0.15319 0.55255 0.19306
 H347 H 0.07088 0.49215 0.24063
 H348 H 0.14514 0.43994 0.17560
 C349 C 0.76072 0.49695 0.10522
 C350 C 0.77260 0.53054 0.11435
 C351 C 0.79411 0.53508 0.14365
 C352 C 0.80271 0.50619 0.16503
 C353 C 0.78877 0.47268 0.15605
 C354 C 0.76890 0.46787 0.12566
 C355 C 0.82674 0.51073 0.19586
 C356 C 0.84668 0.48200 0.20863
 C357 C 0.87047 0.48637 0.23630
 C358 C 0.87485 0.51965 0.25114
 C359 C 0.85755 0.54889 0.23751
 C360 C 0.83206 0.54419 0.21136
 H361 H 0.74434 0.49353 0.08233
 H362 H 0.80426 0.56120 0.14893
 H363 H 0.79296 0.45012 0.17243
 H364 H 0.84522 0.45641 0.19641
 H365 H 0.89392 0.52326 0.27197
 H366 H 0.81779 0.56712 0.20261
 C367 C 0.23263 0.50501 0.90306
 C368 C 0.21713 0.53519 0.88926
 C369 C 0.19572 0.53264 0.85987
 C370 C 0.19176 0.50046 0.84181
 C371 C 0.20914 0.47047 0.85539
 C372 C 0.22827 0.47230 0.88670
 C373 C 0.17013 0.49866 0.80899
 C374 C 0.15739 0.46618 0.79558
 C375 C 0.13746 0.46502 0.76488
 C376 C 0.12790 0.49636 0.74864
 C377 C 0.13945 0.52875 0.76158
 C378 C 0.16131 0.52978 0.79084
 H379 H 0.24875 0.50715 0.92624
 H380 H 0.18263 0.55638 0.85161
 H381 H 0.20846 0.44556 0.84190
 H382 H 0.16241 0.44164 0.80864
 H383 H 0.11076 0.49553 0.72604
 H384 H 0.17109 0.55528 0.79880
 C385 C 0.28343 0.42453 0.12202
 C386 C 0.29949 0.39961 0.10090
 C387 C 0.28114 0.38491 0.07271
 C388 C 0.24530 0.39456 0.06634
 C389 C 0.22884 0.41960 0.08812
 C390 C 0.24852 0.43524 0.11562
 C391 C 0.19370 0.42981 0.08035
 N392 N 0.17652 0.41592 0.05263
 N393 N 0.19213 0.39282 0.03190
 C394 C 0.22589 0.38187 0.03759
 H395 H 0.29897 0.43697 0.14232
 H396 H 0.32700 0.39277 0.10577
 H397 H 0.17967 0.44888 0.09574
 H398 H 0.23708 0.36383 0.01916
 C399 C 0.73370 0.58225 0.10811
 C400 C 0.71543 0.60643 0.08776
 C401 C 0.72358 0.61028 0.05286
 C402 C 0.75156 0.59034 0.03844
 C403 C 0.76981 0.56543 0.05901
 C404 C 0.76013 0.56087 0.09390
 C405 C 0.79684 0.54537 0.04375
 N406 N 0.80475 0.54996 0.01002
 N407 N 0.78748 0.57322 -0.00938
 C408 C 0.76118 0.59352 0.00365
 H409 H 0.72572 0.57872 0.13465
 H410 H 0.69396 0.62139 0.09904
 H411 H 0.81182 0.52624 0.05837
 H412 H 0.74811 0.61198 -0.01322
 C413 C 0.73767 0.41999 0.89439
 C414 C 0.72120 0.39345 0.91297
 C415 C 0.73573 0.38188 0.94416
 C416 C 0.76828 0.39647 0.95632
 C417 C 0.78493 0.42372 0.93742
 C418 C 0.76893 0.43591 0.90667
 C419 C 0.81626 0.43894 0.95078
 N420 N 0.82996 0.42740 0.98110
 N421 N 0.81429 0.40191 0.99897
 C422 C 0.78391 0.38615 0.98773
 H423 H 0.72494 0.42950 0.87110
 H424 H 0.69614 0.38280 0.90362
 H425 H 0.82991 0.45991 0.93746
 H426 H 0.77227 0.36590 1.00353
 C427 C 0.25385 0.58888 0.88869
 C428 C 0.26775 0.61892 0.90446
 C429 C 0.25396 0.63134 0.93566
 C430 C 0.22348 0.61448 0.94975
 C431 C 0.20987 0.58342 0.93389
 C432 C 0.22610 0.57007 0.90389
 C433 C 0.18114 0.56592 0.94930
 N434 N 0.16698 0.57873 0.97877
 N435 N 0.17968 0.60776 0.99382
 C436 C 0.20739 0.62598 0.98045
 H437 H 0.26636 0.57894 0.86556
 H438 H 0.29115 0.63113 0.89351
 H439 H 0.16988 0.54217 0.93818
 H440 H 0.21631 0.64915 0.99412
 C441 C 0.10498 0.24758 0.39895
 C442 C 0.08872 0.26426 0.37116
 C443 C 0.05323 0.25700 0.36236
 C444 C 0.03485 0.22987 0.38019
 C445 C 0.05124 0.21358 0.40902
 C446 C 0.08599 0.22363 0.41907
 C447 C 0.03174 0.18865 0.42781
 N448 N -0.00199 0.18046 0.41817
 N449 N -0.01747 0.19560 0.39111
 C450 C -0.00033 0.21999 0.37188
 H451 H 0.13161 0.25556 0.40651
 H452 H 0.10301 0.28513 0.35820
 H453 H 0.04308 0.17559 0.45001
 H454 H -0.01450 0.23116 0.35036
 C455 C 0.11396 0.71418 0.56880
 C456 C 0.09401 0.69899 0.59478
 C457 C 0.06549 0.71705 0.60938
 C458 C 0.05709 0.75145 0.59783
 C459 C 0.07746 0.76690 0.57122
 C460 C 0.10582 0.74779 0.55652
 C461 C 0.06773 0.80040 0.55919
 N462 N 0.03951 0.81722 0.57310
 N463 N 0.02023 0.80269 0.59795
 C464 C 0.02790 0.77039 0.61065
 H465 H 0.13535 0.69918 0.55740
 H466 H 0.10048 0.67259 0.60312
 H467 H 0.08205 0.81327 0.53872
 H468 H 0.01081 0.75984 0.63032
 C469 C 0.93742 0.77751 0.43121
 C470 C 0.95442 0.76043 0.40406
 C471 C 0.94070 0.72887 0.39055
 C472 C 0.90781 0.71576 0.40269
 C473 C 0.89054 0.73314 0.43015
 C474 C 0.90618 0.76357 0.44511
 C475 C 0.85830 0.71907 0.44220
 N476 N 0.84427 0.68978 0.42723
 N477 N 0.86030 0.67366 0.40112
 C478 C 0.89152 0.68564 0.38831
 H479 H 0.94962 0.80072 0.44258
 H480 H 0.97957 0.77071 0.39500
 H481 H 0.84397 0.73124 0.46313
 H482 H 0.90305 0.67179 0.36676
 C483 C 0.89243 0.24922 0.58633
 C484 C 0.91616 0.26363 0.61021
 C485 C 0.91841 0.30016 0.61499
 C486 C 0.89295 0.32207 0.59851
 C487 C 0.86934 0.30737 0.57365
 C488 C 0.87045 0.27092 0.56642
 C489 C 0.84551 0.32973 0.55648
 N490 N 0.84475 0.36447 0.56452
 N491 N 0.86621 0.37822 0.58852
 C492 C 0.89016 0.35826 0.60586
 H493 H 0.89369 0.22122 0.58106
 H494 H 0.93483 0.24627 0.62291
 H495 H 0.82711 0.31972 0.53720
 H496 H 0.90606 0.37077 0.62573
 C497 C 0.43097 0.05848 0.22787
 C498 C 0.40382 0.04103 0.24509
 C499 C 0.38512 0.05793 0.27141
 C500 C 0.39209 0.09369 0.27896
 C501 C 0.41973 0.11146 0.26154
 C502 C 0.43979 0.09325 0.23646
 C503 C 0.42704 0.14663 0.27064
 N504 N 0.40727 0.16287 0.29506
 N505 N 0.38085 0.14628 0.31100
 C506 C 0.37259 0.11225 0.30378
 H507 H 0.44641 0.04424 0.20895
 H508 H 0.39881 0.01351 0.23930
 H509 H 0.44814 0.16138 0.25851
 H510 H 0.35061 0.10009 0.31707
 C511 C 0.58471 0.08765 0.77192
 C512 C 0.61261 0.06932 0.75683
 C513 C 0.62114 0.07455 0.72212
 C514 C 0.60342 0.10116 0.70319
 C515 C 0.57532 0.12002 0.71867
 C516 C 0.56490 0.11185 0.75272
 C517 C 0.55842 0.14652 0.69944
 N518 N 0.56895 0.15330 0.66679
 N519 N 0.59527 0.13548 0.65216
 C520 C 0.61286 0.10971 0.66920
 H521 H 0.57721 0.08145 0.79810
 H522 H 0.62592 0.04911 0.77166
 H523 H 0.53732 0.16226 0.71020
 H524 H 0.63436 0.09661 0.65614
 C525 C 0.41412 0.92579 0.76873
 C526 C 0.38831 0.94462 0.75079
 C527 C 0.38291 0.93918 0.71537
 C528 C 0.40175 0.91186 0.69847
 C529 C 0.42834 0.89307 0.71667
 C530 C 0.43525 0.90107 0.75173
 C531 C 0.44722 0.86671 0.69915
 N532 N 0.43938 0.85933 0.66574
 N533 N 0.41391 0.87643 0.64879
 C534 C 0.39476 0.90229 0.66398
 H535 H 0.41910 0.93206 0.79560
 H536 H 0.37396 0.96510 0.76426
 H537 H 0.46773 0.85156 0.71184
 H538 H 0.37381 0.91447 0.64914
 C539 C 0.57807 0.88060 0.28122
 C540 C 0.60416 0.90076 0.29757
 C541 C 0.62000 0.92935 0.28088
 C542 C 0.61044 0.93667 0.24613
 C543 C 0.58363 0.91612 0.22954
 C544 C 0.56682 0.88849 0.24769
 C545 C 0.57325 0.92511 0.19584
 N546 N 0.58894 0.95264 0.17979
 N547 N 0.61401 0.97197 0.19527
 C548 C 0.62514 0.96509 0.22785
 H549 H 0.56516 0.85978 0.29552
 H550 H 0.61092 0.89495 0.32414
 H551 H 0.55274 0.91066 0.18212
 H552 H 0.64520 0.98208 0.23895
 C553 C 0.43036 0.27277 0.89179
 C554 C 0.40445 0.28944 0.91120
 C555 C 0.38789 0.27209 0.93855
 C556 C 0.39662 0.23642 0.94544
 C557 C 0.42315 0.21949 0.92555
 C558 C 0.44063 0.23827 0.89919
 C559 C 0.43251 0.18473 0.93379
 N560 N 0.41625 0.16807 0.96020
 N561 N 0.39156 0.18393 0.97906
 C562 C 0.38134 0.21749 0.97275
 H563 H 0.44381 0.28752 0.87186
 H564 H 0.39833 0.31671 0.90574
 H565 H 0.45265 0.17070 0.91959
 H566 H 0.36157 0.22885 0.98934
 C567 C 0.57164 0.77738 0.91854
 C568 C 0.59748 0.75746 0.93536
 C569 C 0.60008 0.72110 0.92951
 C570 C 0.57797 0.70517 0.90400
 C571 C 0.55152 0.72539 0.88716
 C572 C 0.54778 0.76148 0.89536
 C573 C 0.52951 0.70874 0.86251
 N574 N 0.53427 0.67424 0.85490
 N575 N 0.55956 0.65538 0.87020
 C576 C 0.58158 0.66967 0.89433
 H577 H 0.56903 0.80501 0.92499
 H578 H 0.61426 0.77021 0.95453
 H579 H 0.50891 0.72294 0.84890
 H580 H 0.60213 0.65338 0.90514
 C581 C 0.42707 0.72121 0.10953
 C582 C 0.39846 0.70751 0.09096
 C583 C 0.37707 0.72915 0.07037
 C584 C 0.38394 0.76607 0.06996
 C585 C 0.41372 0.77990 0.08845
 C586 C 0.43564 0.75703 0.10792
 C587 C 0.42155 0.81602 0.08549
 N588 N 0.40031 0.83703 0.06629
 N589 N 0.37210 0.82432 0.04947
 C590 C 0.36334 0.78971 0.05043
 H591 H 0.44357 0.70341 0.12432
 H592 H 0.39376 0.67936 0.09169
 H593 H 0.44444 0.82782 0.09795
 H594 H 0.34036 0.78145 0.03588
 C595 C 0.58434 0.21524 0.07767
 C596 C 0.61117 0.23257 0.05977
 C597 C 0.62152 0.26675 0.06924
 C598 C 0.60710 0.28249 0.09912
 C599 C 0.57997 0.26489 0.11730
 C600 C 0.56763 0.23171 0.10547
 C601 C 0.56555 0.28142 0.14652
 N602 N 0.57796 0.31338 0.15677
 N603 N 0.60372 0.32986 0.13980
 C604 C 0.61873 0.31554 0.11136
 H605 H 0.57503 0.18984 0.06848
 H606 H 0.62208 0.22028 0.03695
 H607 H 0.54483 0.26907 0.16148
 H608 H 0.63992 0.32988 0.09891
 C609 C 0.21670 0.07336 0.56846
 C610 C 0.23408 0.05658 0.59562
 C611 C 0.26347 0.07236 0.61189
 C612 C 0.27370 0.10684 0.60255
 C613 C 0.25620 0.12386 0.57488
 C614 C 0.22824 0.10638 0.55709
 C615 C 0.26807 0.15753 0.56526
 N616 N 0.29516 0.17317 0.58287
 N617 N 0.31118 0.15738 0.60931
 C618 C 0.30136 0.12475 0.61974
 H619 H 0.19555 0.05959 0.55484
 H620 H 0.22616 0.03005 0.60228
 H621 H 0.25590 0.17161 0.54410
 H622 H 0.31472 0.11327 0.64169
 C623 C 0.72020 0.10481 0.44409
 C624 C 0.70411 0.08461 0.41860
 C625 C 0.72367 0.06999 0.39122
 C626 C 0.76041 0.08000 0.38821
 C627 C 0.77720 0.09888 0.41585
 C628 C 0.75680 0.11079 0.44417
 C629 C 0.81420 0.10434 0.41470
 N630 N 0.83281 0.09422 0.38668
 N631 N 0.81699 0.07881 0.35983
 C632 C 0.78170 0.07148 0.35949
 H633 H 0.70403 0.11441 0.46511
 H634 H 0.67590 0.07956 0.42129
 H635 H 0.82870 0.11651 0.43571
 H636 H 0.77122 0.06019 0.33613
 C637 C 0.73744 0.88897 0.58376
 C638 C 0.72132 0.90595 0.61121
 C639 C 0.73880 0.93314 0.62911
 C640 C 0.77464 0.94139 0.62074
 C641 C 0.79094 0.92417 0.59240
 C642 C 0.77156 0.89866 0.57324
 C643 C 0.82553 0.93438 0.58310
 N644 N 0.84284 0.95970 0.60139
 N645 N 0.82777 0.97572 0.62808
 C646 C 0.79433 0.96761 0.63827
 H647 H 0.72244 0.86932 0.56940
 H648 H 0.69398 0.89932 0.61714
 H649 H 0.83895 0.92266 0.56140
 H650 H 0.78377 0.98197 0.65985
 C651 C 0.23313 0.92788 0.43563
 C652 C 0.24894 0.94740 0.40967
 C653 C 0.27276 0.93156 0.38698
 C654 C 0.27941 0.89508 0.38913
 C655 C 0.26370 0.87519 0.41583
 C656 C 0.24091 0.89209 0.43963
 C657 C 0.27260 0.83937 0.41851
 N658 N 0.29482 0.82456 0.39524
 N659 N 0.30893 0.84316 0.36970
 C660 C 0.30202 0.87792 0.36588
 H661 H 0.21589 0.94113 0.45375
 H662 H 0.24386 0.97542 0.40827
 H663 H 0.26226 0.82298 0.43882
 H664 H 0.31402 0.89180 0.34462
 C665 C 0.09831 0.41245 0.76692
 C666 C 0.07806 0.38703 0.74953
 C667 C 0.08352 0.38034 0.71441
 C668 C 0.11270 0.39632 0.69771
 C669 C 0.13331 0.42201 0.71535
 C670 C 0.12460 0.43151 0.74959
 C671 C 0.16160 0.43805 0.69776
 N672 N 0.16869 0.42861 0.66479
 N673 N 0.14942 0.40426 0.64828
 C674 C 0.12169 0.38780 0.66360
 H675 H 0.09138 0.41936 0.79313
 H676 H 0.05595 0.37491 0.76275
 H677 H 0.17836 0.45767 0.71009
 H678 H 0.10733 0.36777 0.64929
 C679 C 0.10033 0.56230 0.26869
 C680 C 0.08271 0.58875 0.28641
 C681 C 0.05923 0.61154 0.26938
 C682 C 0.05480 0.60836 0.23305
 C683 C 0.07296 0.58128 0.21502
 C684 C 0.09520 0.55778 0.23328
 C685 C 0.06716 0.57771 0.17934
 N686 N 0.04473 0.59989 0.16284
 N687 N 0.02754 0.62516 0.17965
 C688 C 0.03164 0.63004 0.21409
 H689 H 0.11714 0.54433 0.28295
 H690 H 0.08658 0.59068 0.31406
 H691 H 0.08017 0.55747 0.16443
 H692 H 0.01659 0.65074 0.22600
 C693 C 0.87578 0.42630 0.26098
 C694 C 0.89519 0.39993 0.27741
 C695 C 0.93173 0.40397 0.28353
 C696 C 0.94950 0.43436 0.27091
 C697 C 0.93009 0.46009 0.25243
 C698 C 0.89263 0.45685 0.24906
 C699 C 0.94899 0.48810 0.23731
 N700 N 0.98456 0.49111 0.24218
 N701 N 1.00259 0.46780 0.26077
 C702 C 0.98638 0.43962 0.27518
 H703 H 0.84725 0.42324 0.25829
 H704 H 0.88143 0.37658 0.28624
 H705 H 0.93597 0.50739 0.22125
 H706 H 1.00276 0.42154 0.28933
 C707 C 0.93772 0.57704 0.78505
 C708 C 0.95584 0.60276 0.76662
 C709 C 0.94023 0.61798 0.73748
 C710 C 0.90471 0.60966 0.72850
 C711 C 0.88623 0.58364 0.74725
 C712 C 0.90354 0.56638 0.77488
 C713 C 0.85148 0.57472 0.73671
 N714 N 0.83628 0.59151 0.70960
 N715 N 0.85355 0.61638 0.69226
 C716 C 0.88726 0.62599 0.70075
 H717 H 0.95132 0.56368 0.80590
 H718 H 0.98316 0.60882 0.77354
 H719 H 0.83621 0.55474 0.74983
 H720 H 0.90002 0.64654 0.68606
 C721 C 0.76117 0.59152 0.89652
 C722 C 0.74106 0.61753 0.91263
 C723 C 0.70420 0.61305 0.91749
 C724 C 0.68677 0.58492 0.89945
 C725 C 0.70736 0.55893 0.88254
 C726 C 0.74491 0.56099 0.88358
 C727 C 0.68974 0.53135 0.86503
 N728 N 0.65377 0.53013 0.86418
 N729 N 0.63429 0.55473 0.87943
 C730 C 0.64944 0.58205 0.89678
 H731 H 0.78988 0.59390 0.89680
 H732 H 0.75526 0.63924 0.92468
 H733 H 0.70425 0.51117 0.85139
 H734 H 0.63197 0.60166 0.90716
 C735 C 0.28251 0.44298 0.90810
 C736 C 0.30040 0.41636 0.92528
 C737 C 0.28289 0.38560 0.93655
 C738 C 0.24625 0.38102 0.92666
 C739 C 0.22760 0.40953 0.91083
 C740 C 0.24602 0.44077 0.90167
 C741 C 0.19069 0.40618 0.90549
 N742 N 0.17397 0.37554 0.91274
 N743 N 0.19160 0.34803 0.92507
 C744 C 0.22692 0.34956 0.93207
 H745 H 0.29727 0.46630 0.90074
 H746 H 0.32835 0.42082 0.93071
 H747 H 0.17481 0.42758 0.89573
 H748 H 0.23907 0.32556 0.94053
 C749 C 0.23760 0.59361 0.10863
 C750 C 0.25311 0.62022 0.08883
 C751 C 0.26764 0.61267 0.05632
 C752 C 0.26122 0.57872 0.04142
 C753 C 0.24210 0.55313 0.06032
 C754 C 0.23355 0.55946 0.09534
 C755 C 0.23174 0.52171 0.04350
 N756 N 0.24190 0.51535 0.01071
 N757 N 0.26116 0.53858 -0.00667
 C758 C 0.27101 0.56988 0.00736
 H759 H 0.23030 0.59930 0.13501
 H760 H 0.25657 0.64608 0.10028
 H761 H 0.21521 0.50232 0.05602
 H762 H 0.28523 0.58764 -0.00901
 C763 C 0.71759 0.43015 0.11229
 C764 C 0.70211 0.40231 0.09454
 C765 C 0.72275 0.37574 0.07910
 C766 C 0.76005 0.37511 0.08698
 C767 C 0.77597 0.40486 0.10375
 C768 C 0.75443 0.43306 0.11519
 C769 C 0.81317 0.40598 0.10742
 N770 N 0.83303 0.37833 0.09702
 N771 N 0.81824 0.34975 0.08305
 C772 C 0.78267 0.34710 0.07775
 H773 H 0.70068 0.45108 0.12168
 H774 H 0.67348 0.40293 0.09123
 H775 H 0.82674 0.42842 0.11862
 H776 H 0.77297 0.32260 0.06735
 C777 C 0.91105 0.76804 0.59763
 C778 C 0.92722 0.74922 0.62422
 C779 C 0.92686 0.71216 0.62407
 C780 C 0.90389 0.69447 0.60011
 C781 C 0.88761 0.71374 0.57312
 C782 C 0.89328 0.75044 0.57080
 C783 C 0.86593 0.69564 0.54918
 N784 N 0.86017 0.66064 0.55269
 N785 N 0.87446 0.64261 0.57860
 C786 C 0.89584 0.65825 0.60247
 H787 H 0.91478 0.79630 0.59659
 H788 H 0.94325 0.76377 0.64275
 H789 H 0.85288 0.70915 0.52816
 H790 H 0.90526 0.64233 0.62356
 C791 C 0.87859 0.25951 0.41145
 C792 C 0.89879 0.27441 0.38509
 C793 C 0.93356 0.28679 0.39141
 C794 C 0.94988 0.27913 0.42394
 C795 C 0.92991 0.26178 0.44975
 C796 C 0.89327 0.25451 0.44432
 C797 C 0.94746 0.25134 0.48026
 N798 N 0.98233 0.25885 0.48509
 N799 N 1.00106 0.27555 0.46127
 C800 C 0.98628 0.28567 0.43099
 H801 H 0.85089 0.25325 0.40656
 H802 H 0.88617 0.27864 0.36027
 H803 H 0.93401 0.23655 0.50005
 H804 H 1.00386 0.29736 0.41256
 C805 C 0.08192 0.23304 0.57238
 C806 C 0.06653 0.25249 0.59893
 C807 C 0.06518 0.28956 0.59789
 C808 C 0.08424 0.30707 0.57101
 C809 C 0.09955 0.28698 0.54386
 C810 C 0.09703 0.24978 0.54397
 C811 C 0.11790 0.30478 0.51762
 N812 N 0.12142 0.34022 0.51880
 N813 N 0.10826 0.35905 0.54464
 C814 C 0.09024 0.34383 0.57081
 H815 H 0.08039 0.20458 0.57317
 H816 H 0.05343 0.23805 0.61927
 H817 H 0.13027 0.29082 0.49658
 H818 H 0.08231 0.36081 0.59161
 C819 C 0.11180 0.75636 0.40607
 C820 C 0.09114 0.74133 0.37985
 C821 C 0.08405 0.70490 0.37939
 C822 C 0.10414 0.68288 0.40185
 C823 C 0.12518 0.69831 0.42838
 C824 C 0.12670 0.73536 0.43191
 C825 C 0.14408 0.67613 0.45083
 N826 N 0.14274 0.64077 0.44630
 N827 N 0.12395 0.62619 0.42074
 C828 C 0.10485 0.64594 0.39829
 H829 H 0.11327 0.78478 0.40800
 H830 H 0.07748 0.75890 0.36232
 H831 H 0.16052 0.68667 0.47144
 H832 H 0.09156 0.63253 0.37722
 C833 C 0.58462 0.92548 0.77993
 C834 C 0.61273 0.94259 0.76353
 C835 C 0.62260 0.93314 0.72993
 C836 C 0.60617 0.90355 0.71405
 C837 C 0.57763 0.88624 0.73068
 C838 C 0.56586 0.89837 0.76322
 C839 C 0.56126 0.85753 0.71384
 N840 N 0.57315 0.84675 0.68265
 N841 N 0.60026 0.86271 0.66721
 C842 C 0.61719 0.89067 0.68182
 H843 H 0.57585 0.93511 0.80475
 H844 H 0.62499 0.96512 0.77612
 H845 H 0.53942 0.84333 0.72539
 H846 H 0.63946 0.90215 0.66837
 C847 C 0.41382 0.89840 0.23682
 C848 C 0.38742 0.91829 0.25271
 C849 C 0.38316 0.91749 0.28858
 C850 C 0.40336 0.89309 0.30820
 C851 C 0.43025 0.87304 0.29200
 C852 C 0.43655 0.87709 0.25635
 C853 C 0.45047 0.84978 0.31219
 N854 N 0.44376 0.84656 0.34630
 N855 N 0.41826 0.86505 0.36151
 C856 C 0.39786 0.88813 0.34370
 H857 H 0.41833 0.90176 0.20948
 H858 H 0.37221 0.93658 0.23720
 H859 H 0.47121 0.83381 0.30104
 H860 H 0.37723 0.90187 0.35743
 C861 C 0.59307 0.08314 0.23020
 C862 C 0.61962 0.06575 0.24864
 C863 C 0.62326 0.07074 0.28431
 C864 C 0.60272 0.09705 0.30078
 C865 C 0.57560 0.11446 0.28210
 C866 C 0.56977 0.10606 0.24698
 C867 C 0.55466 0.13939 0.29940
 N868 N 0.56116 0.14679 0.33307
 N869 N 0.58711 0.13092 0.35052
 C870 C 0.60812 0.10638 0.33557
 H871 H 0.58893 0.07660 0.20326
 H872 H 0.63538 0.04616 0.23547
 H873 H 0.53353 0.15335 0.28632
 H874 H 0.62924 0.09492 0.35081
 C875 C 0.41050 0.09961 0.76456
 C876 C 0.38374 0.08103 0.74714
 C877 C 0.37990 0.08356 0.71122
 C878 C 0.40097 0.10852 0.69322
 C879 C 0.42802 0.12747 0.71107
 C880 C 0.43395 0.12144 0.74660
 C881 C 0.44880 0.15169 0.69262
 N882 N 0.44269 0.15664 0.65853
 N883 N 0.41724 0.13903 0.64173
 C884 C 0.39621 0.11524 0.65783
 H885 H 0.41466 0.09479 0.79178
 H886 H 0.36786 0.06239 0.76149
 H887 H 0.46945 0.16708 0.70513
 H888 H 0.37573 0.10234 0.64281
 C889 C 0.58425 0.76762 0.08825
 C890 C 0.60887 0.75092 0.06702
 C891 C 0.61608 0.71495 0.07081
 C892 C 0.60110 0.69657 0.09901
 C893 C 0.57594 0.71351 0.12038
 C894 C 0.56643 0.74884 0.11393
 C895 C 0.56036 0.69417 0.14716
 N896 N 0.57014 0.66033 0.15259
 N897 N 0.59430 0.64458 0.13298
 C898 C 0.61012 0.66150 0.10644
 H899 H 0.57703 0.79463 0.08287
 H900 H 0.62006 0.76547 0.04571
 H901 H 0.54085 0.70582 0.16404
 H902 H 0.62997 0.64756 0.09178
 C903 C 0.41488 0.22202 0.09102
 C904 C 0.38895 0.24049 0.07281
 C905 C 0.38522 0.27694 0.07727
 C906 C 0.40509 0.29418 0.10363
 C907 C 0.43163 0.27544 0.12188
 C908 C 0.43754 0.23952 0.11423
 C909 C 0.45194 0.29347 0.14693
 N910 N 0.44537 0.32786 0.15367
 N911 N 0.41993 0.34535 0.13704
 C912 C 0.39954 0.32972 0.11235
 H913 H 0.41914 0.19450 0.08496
 H914 H 0.37371 0.22671 0.05316
 H915 H 0.47259 0.28037 0.16151
 H916 H 0.37878 0.34503 0.10030
 C917 C 0.59103 0.22444 0.91272
 C918 C 0.61829 0.24035 0.93185
 C919 C 0.62610 0.27619 0.92773
 C920 C 0.60880 0.29521 0.90111
 C921 C 0.58095 0.27910 0.88193
 C922 C 0.57111 0.24394 0.88896
 C923 C 0.56324 0.29905 0.85674
 N924 N 0.57347 0.33273 0.85077
 N925 N 0.60006 0.34774 0.86836
 C926 C 0.61807 0.33017 0.89329
 H927 H 0.58370 0.19747 0.91834
 H928 H 0.63118 0.22537 0.95204
 H929 H 0.54168 0.28802 0.84151
 H930 H 0.63980 0.34348 0.90634
 C931 C 0.40818 0.74527 0.88886
 C932 C 0.38082 0.72834 0.90612
 C933 C 0.36231 0.74510 0.93282
 C934 C 0.36899 0.78159 0.93897
 C935 C 0.39762 0.79862 0.92171
 C936 C 0.41822 0.77966 0.89762
 C937 C 0.40559 0.83377 0.93019
 N938 N 0.38541 0.85119 0.95340
 N939 N 0.35808 0.83570 0.96889
 C940 C 0.34928 0.80161 0.96261
 H941 H 0.42342 0.73047 0.87020
 H942 H 0.37585 0.70084 0.90022
 H943 H 0.42749 0.84765 0.91844
 H944 H 0.32656 0.79110 0.97578
 C945 C 0.77766 0.91263 0.42456
 C946 C 0.75989 0.93051 0.39830
 C947 C 0.72318 0.92606 0.39320
 C948 C 0.70486 0.90033 0.41280
 C949 C 0.72287 0.88255 0.43978
 C950 C 0.75921 0.88984 0.44641
 C951 C 0.70379 0.85804 0.45949
 N952 N 0.66914 0.85134 0.45206
 N953 N 0.65238 0.86745 0.42628
 C954 C 0.66902 0.89160 0.40635
 H955 H 0.80550 0.91841 0.42932
 H956 H 0.77447 0.94983 0.38351
 H957 H 0.71625 0.84380 0.48039
 H958 H 0.65426 0.90309 0.38526
 C959 C 0.27805 0.88391 0.57515
 C960 C 0.29296 0.90629 0.59979
 C961 C 0.27240 0.93190 0.61642
 C962 C 0.23517 0.93298 0.60983
 C963 C 0.22003 0.90994 0.58470
 C964 C 0.24204 0.88630 0.56640
 C965 C 0.18348 0.91265 0.57731
 N966 N 0.16347 0.93672 0.59410
 N967 N 0.17759 0.95849 0.61746
 C968 C 0.21266 0.95763 0.62573
 H969 H 0.29526 0.86624 0.56107
 H970 H 0.32136 0.90497 0.60445
 H971 H 0.17061 0.89590 0.55838
 H972 H 0.22224 0.97645 0.64447
 C973 C 0.22403 0.08743 0.40772
 C974 C 0.24287 0.06880 0.38276
 C975 C 0.27991 0.07240 0.38007
 C976 C 0.29755 0.09826 0.40066
 C977 C 0.27834 0.11703 0.42610
 C978 C 0.24166 0.11027 0.43061
 C979 C 0.29661 0.14189 0.44660
 N980 N 0.33176 0.14776 0.44162
 N981 N 0.34979 0.13047 0.41755
 C982 C 0.33396 0.10603 0.39693
 H983 H 0.19592 0.08208 0.41080
 H984 H 0.22877 0.04937 0.36732
 H985 H 0.28317 0.15703 0.46622
 H986 H 0.34995 0.09345 0.37754
 C987 C 0.77661 0.07253 0.57581
 C988 C 0.76100 0.05330 0.60218
 C989 C 0.73744 0.06924 0.62510
 C990 C 0.73095 0.10574 0.62257
 C991 C 0.74624 0.12535 0.59529
 C992 C 0.76869 0.10824 0.57120
 C993 C 0.73699 0.16105 0.59225
 N994 N 0.71504 0.17606 0.61564
 N995 N 0.70143 0.15777 0.64164
 C996 C 0.70858 0.12311 0.64586
 H997 H 0.79335 0.05891 0.55751
 H998 H 0.76566 0.02524 0.60335
 H999 H 0.74680 0.17723 0.57156
 H1000 H 0.69695 0.10945 0.66745
 C1001 C 0.86801 0.59268 0.28342
 C1002 C 0.89066 0.61756 0.29826
 C1003 C 0.91641 0.63506 0.27861
 C1004 C 0.91589 0.63054 0.24218
 C1005 C 0.89341 0.60432 0.22719
 C1006 C 0.87060 0.58411 0.24845
 C1007 C 0.89613 0.59779 0.19155
 N1008 N 0.91861 0.61719 0.17215
 N1009 N 0.93887 0.64239 0.18595
 C1010 C 0.93840 0.64964 0.22016
 H1011 H 0.85085 0.57744 0.30004
 H1012 H 0.89007 0.62094 0.32599
 H1013 H 0.88061 0.57767 0.17872
 H1014 H 0.95530 0.67063 0.22925
 C1015 C 0.89322 0.43181 0.73224
 C1016 C 0.91273 0.40795 0.71284
 C1017 C 0.94072 0.38885 0.72764
 C1018 C 0.94775 0.39253 0.76353
 C1019 C 0.92767 0.41689 0.78328
 C1020 C 0.90104 0.43737 0.76712
 C1021 C 0.93608 0.42123 0.81840
 N1022 N 0.96282 0.40237 0.83275
 N1023 N 0.98188 0.37978 0.81428
 C1024 C 0.97544 0.37436 0.78023
 H1025 H 0.87328 0.44767 0.71942
 H1026 H 0.90690 0.40554 0.68554
 H1027 H 0.92164 0.43940 0.83455
 H1028 H 0.99228 0.35608 0.76680
 C1029 C 0.10355 0.58297 0.76596
 C1030 C 0.08296 0.60915 0.75069
 C1031 C 0.08393 0.61448 0.71502
 C1032 C 0.10906 0.59576 0.69503
 C1033 C 0.12986 0.56908 0.71053
 C1034 C 0.12563 0.56152 0.74594
 C1035 C 0.15410 0.55056 0.68993
 N1036 N 0.15730 0.55855 0.65608
 N1037 N 0.13795 0.58380 0.64152
 C1038 C 0.11401 0.60268 0.65980
 H1039 H 0.10015 0.57765 0.79314
 H1040 H 0.06402 0.62327 0.76641
 H1041 H 0.17088 0.53019 0.70055
 H1042 H 0.09959 0.62333 0.64679
 C1043 C 0.10814 0.40882 0.24486
 C1044 C 0.09048 0.38153 0.26156
 C1045 C 0.05539 0.37248 0.25269
 C1046 C 0.03888 0.38965 0.22429
 C1047 C 0.05675 0.41790 0.20779
 C1048 C 0.09102 0.42831 0.21918
 C1049 C 0.03913 0.43586 0.18113
 N1050 N 0.00574 0.42617 0.17169
 N1051 N -0.01119 0.39986 0.18718
 C1052 C 0.00411 0.38138 0.21313
 H1053 H 0.13433 0.41661 0.25396
 H1054 H 0.10339 0.36907 0.28335
 H1055 H 0.05167 0.45746 0.16772
 H1056 H -0.01125 0.36057 0.22462
   
