data_POSCAR
  _audit_creation_date              2014-09-24
  _audit_creation_method            'ToBaCCo'
  _symmetry_space_group_name_H-M    'P1'
  _symmetry_Int_Tables_number       1
  _symmetry_cell_setting            triclinic
  loop_
  _symmetry_equiv_pos_as_xyz
 x,y,z
_cell_length_a 16.9111
_cell_length_b 16.7967
_cell_length_c 40.2555
_cell_angle_alpha 91.999300
_cell_angle_beta 88.669400
_cell_angle_gamma 119.275500
loop_
  _atom_site_label
  _atom_site_type_symbol
  _atom_site_fract_x
  _atom_site_fract_y
  _atom_site_fract_z
C1 C 0.02997 -0.11592 0.46403
 C2 C 0.08680 -0.07251 0.49116
 C3 C 0.09737 -0.12424 0.51530
 C4 C 0.05329 -0.21994 0.51226
 C5 C -0.00644 -0.26298 0.48541
 C6 C -0.01906 -0.21188 0.46090
 C7 C 0.13146 0.02736 0.49518
 C8 C 0.10830 0.06671 0.52230
 C9 C 0.14576 0.16159 0.52528
 C10 C 0.20787 0.21727 0.50131
 C11 C 0.23297 0.17844 0.47452
 C12 C 0.19363 0.08331 0.47126
 H13 H 0.02350 -0.07411 0.44554
 H14 H 0.14235 -0.08924 0.53599
 H15 H 0.05909 0.02346 0.54051
 H16 H 0.21080 0.05296 0.45006
 H17 H -0.04817 -0.33663 0.48513
 H18 H 0.23627 0.29073 0.50341
 C19 C 1.07328 0.11660 0.14179
 C20 C 1.02522 0.12554 0.16922
 C21 C 1.07227 0.18202 0.19638
 C22 C 1.16705 0.22753 0.19662
 C23 C 1.21464 0.21616 0.16956
 C24 C 1.16885 0.16198 0.14139
 C25 C 0.92562 0.07178 0.16995
 C26 C 0.88165 0.00895 0.19518
 C27 C 0.78733 -0.04851 0.19454
 C28 C 0.73754 -0.04190 0.16830
 C29 C 0.78045 0.02425 0.14408
 C30 C 0.87474 0.07964 0.14457
 H31 H 1.03545 0.07400 0.12074
 H32 H 1.03527 0.18949 0.21751
 H33 H 0.92117 0.00333 0.21487
 H34 H 0.90836 0.12882 0.12525
 H35 H 1.28767 0.24699 0.17132
 H36 H 0.66498 -0.08727 0.16698
 C37 C -0.00870 0.91393 0.85739
 C38 C -0.07362 0.88942 0.83251
 C39 C -0.07789 0.83055 0.80632
 C40 C -0.01740 0.79616 0.80508
 C41 C 0.04950 0.82325 0.82951
 C42 C 0.05698 0.88548 0.85536
 C43 C -0.12403 0.93975 0.83117
 C44 C -0.09854 1.00669 0.80737
 C45 C -0.12782 1.07148 0.81006
 C46 C -0.18969 1.06365 0.83532
 C47 C -0.21832 0.99487 0.85915
 C48 C -0.18495 0.93268 0.85655
 H49 H -0.00743 0.95857 0.87774
 H50 H -0.12589 0.81417 0.78638
 H51 H -0.05093 1.01197 0.78790
 H52 H -0.20613 0.87839 0.87413
 H53 H 0.09903 0.80012 0.82695
 H54 H -0.21170 1.11438 0.83738
 O55 O 0.30963 -0.07626 -0.02296
 O56 O 0.47621 -0.04579 0.03879
 O57 O 0.34657 -0.00855 0.03797
 O58 O 0.47109 -0.06970 -0.02605
 O59 O 0.54849 0.07569 -0.03912
 O60 O 0.42161 0.13334 0.02169
 O61 O 0.55958 0.09899 0.02597
 O62 O 0.39263 0.06576 -0.03870
 Cu63 Cu 0.39346 -0.06357 0.00748
 Cu64 Cu 0.48855 0.10713 -0.00819
 C65 C 0.32178 -0.01220 -0.04172
 C66 C 0.54601 0.03118 0.04336
 C67 C 0.36510 0.07472 0.04115
 C68 C 0.53252 -0.00575 -0.04307
 O69 O -0.03725 0.49456 0.62340
 O70 O -0.07942 0.33470 0.68984
 O71 O -0.06952 0.49508 0.68709
 O72 O -0.03416 0.34178 0.62756
 O73 O 0.11039 0.41134 0.64146
 O74 O 0.07753 0.56935 0.69709
 O75 O 0.06423 0.41004 0.70368
 O76 O 0.10960 0.56474 0.63398
 Cu77 Cu -0.06978 0.40941 0.65586
 Cu78 Cu 0.10495 0.49589 0.67022
 C79 C 0.04303 0.55600 0.61712
 C80 C -0.01527 0.34406 0.70820
 C81 C -0.00099 0.55971 0.70163
 C82 C 0.04457 0.34990 0.62499
 O83 O 0.57603 0.68113 0.31717
 O84 O 0.45728 0.50432 0.37710
 O85 O 0.62047 0.63369 0.37223
 O86 O 0.42319 0.51996 0.31545
 O87 O 0.48026 0.43491 0.29485
 O88 O 0.67987 0.55778 0.34639
 O89 O 0.51502 0.42189 0.35466
 O90 O 0.62413 0.59690 0.28993
 Cu91 Cu 0.51410 0.59254 0.34696
 Cu92 Cu 0.58262 0.49774 0.31903
 C93 C 0.61590 0.66852 0.29229
 C94 C 0.46480 0.43297 0.37646
 C95 C 0.68321 0.61238 0.36941
 C96 C 0.41740 0.45508 0.29635
 C97 C 0.14254 0.20587 0.58596
 C98 C 0.11640 0.20258 0.55255
 C99 C 0.06026 0.23861 0.54461
 C100 C 0.03243 0.28069 0.56895
 C101 C 0.06163 0.28976 0.60181
 C102 C 0.11416 0.24906 0.61089
 C103 C 0.19723 0.16825 0.59511
 C104 C 0.22091 0.17050 0.62822
 C105 C 0.19083 0.21011 0.65275
 C106 C 0.13792 0.24900 0.64429
 H107 H 0.22190 0.13668 0.57685
 H108 H 0.26234 0.14083 0.63493
 H109 H 0.20844 0.21060 0.67847
 H110 H 0.11448 0.27728 0.66421
 H111 H 0.03877 0.23516 0.51920
 H112 H -0.00911 0.30982 0.56173
 C113 C 0.66230 0.87020 0.23759
 C114 C 0.74138 0.88176 0.22044
 C115 C 0.77509 0.82225 0.22666
 C116 C 0.73265 0.75275 0.24941
 C117 C 0.65334 0.73840 0.26613
 C118 C 0.61479 0.79471 0.25888
 C119 C 0.62965 0.93259 0.23432
 C120 C 0.54763 0.91617 0.24880
 C121 C 0.49652 0.83756 0.26668
 C122 C 0.52922 0.77717 0.27165
 H123 H 0.66723 0.99485 0.22078
 H124 H 0.52293 0.96394 0.24566
 H125 H 0.43138 0.82353 0.27696
 H126 H 0.48524 0.71591 0.28483
 H127 H 0.83504 0.82952 0.21369
 H128 H 0.76280 0.71037 0.25423
 C129 C 0.17455 0.01025 -0.10859
 C130 C 0.12814 -0.08207 -0.12113
 C131 C 0.15109 -0.14472 -0.10831
 C132 C 0.21293 -0.11998 -0.08268
 C133 C 0.25465 -0.03170 -0.06834
 C134 C 0.23409 0.03411 -0.08086
 C135 C 0.16770 0.08094 -0.12416
 C136 C 0.20804 0.16913 -0.11037
 C137 C 0.25719 0.18942 -0.08116
 C138 C 0.27057 0.12301 -0.06652
 H139 H 0.13271 0.06947 -0.14745
 H140 H 0.20064 0.22184 -0.12234
 H141 H 0.28653 0.25750 -0.07009
 H142 H 0.30882 0.14240 -0.04376
 H143 H 0.11787 -0.21532 -0.11704
 H144 H 0.22801 -0.17127 -0.07384
 C145 C 0.07473 0.65085 0.53014
 C146 C 0.06273 0.72813 0.53729
 C147 C 0.05606 0.75155 0.57079
 C148 C 0.05270 0.69641 0.59637
 C149 C 0.05810 0.61718 0.58958
 C150 C 0.07117 0.59462 0.55651
 C151 C 0.09600 0.63127 0.49778
 C152 C 0.10638 0.55481 0.49118
 C153 C 0.09862 0.49777 0.51676
 C154 C 0.08222 0.51786 0.54922
 H155 H 0.10779 0.67632 0.47754
 H156 H 0.12185 0.54054 0.46617
 H157 H 0.10742 0.43889 0.51157
 H158 H 0.08016 0.47409 0.56865
 H159 H 0.04693 0.80971 0.57728
 H160 H 0.04235 0.71404 0.62162
 C161 C 0.21868 0.24871 0.25652
 C162 C 0.21794 0.28567 0.22547
 C163 C 0.27294 0.37953 0.22067
 C164 C 0.33179 0.43621 0.24541
 C165 C 0.33738 0.40038 0.27553
 C166 C 0.27865 0.30684 0.28178
 C167 C 0.16420 0.15468 0.26260
 C168 C 0.16692 0.11955 0.29319
 C169 C 0.22443 0.17679 0.31807
 C170 C 0.28022 0.26945 0.31245
 H171 H 0.11943 0.10737 0.24389
 H172 H 0.12439 0.04746 0.29756
 H173 H 0.22623 0.14921 0.34178
 H174 H 0.32413 0.31169 0.33231
 H175 H 0.27307 0.40837 0.19700
 H176 H 0.37753 0.50728 0.24016
 C177 C 0.72975 -0.02640 -0.08124
 C178 C 0.71984 -0.01142 -0.11533
 C179 C 0.64488 -0.00187 -0.12414
 C180 C 0.58117 -0.00713 -0.10066
 C181 C 0.58864 -0.02345 -0.06745
 C182 C 0.66187 -0.03527 -0.05752
 C183 C 0.80923 -0.02371 -0.06932
 C184 C 0.81746 -0.03810 -0.03596
 C185 C 0.74848 -0.05249 -0.01345
 C186 C 0.67193 -0.04990 -0.02393
 H187 H 0.86737 -0.00723 -0.08512
 H188 H 0.87840 -0.03670 -0.02746
 H189 H 0.75538 -0.06329 0.01244
 H190 H 0.62113 -0.05852 -0.00549
 H191 H 0.63456 0.00898 -0.14970
 H192 H 0.52651 0.00416 -0.10836
 C193 C 0.30293 0.21704 0.10291
 C194 C 0.21729 0.14747 0.11463
 C195 C 0.18276 0.05876 0.10066
 C196 C 0.23206 0.03742 0.07740
 C197 C 0.31899 0.10293 0.06727
 C198 C 0.35660 0.19362 0.08100
 C199 C 0.33467 0.31042 0.11106
 C200 C 0.42159 0.37699 0.10212
 C201 C 0.47825 0.35244 0.08450
 C202 C 0.44643 0.26211 0.07391
 H203 H 0.29231 0.33316 0.12406
 H204 H 0.44540 0.44781 0.10921
 H205 H 0.54680 0.40395 0.07846
 H206 H 0.49421 0.24771 0.06068
 H207 H 0.11852 0.00328 0.10887
 H208 H 0.20170 -0.03190 0.06739
 C209 C 0.89439 0.65995 0.41976
 C210 C 0.91403 0.74470 0.43576
 C211 C 0.85944 0.78345 0.42810
 C212 C 0.78572 0.73911 0.40694
 C213 C 0.76127 0.65294 0.39279
 C214 C 0.81439 0.61092 0.40016
 C215 C 0.95509 0.62495 0.42123
 C216 C 0.93181 0.53835 0.40836
 C217 C 0.84847 0.48551 0.39317
 C218 C 0.79043 0.52117 0.38889
 H219 H 1.02174 0.66493 0.43178
 H220 H 0.97837 0.51189 0.41043
 H221 H 0.82937 0.41712 0.38404
 H222 H 0.72666 0.47637 0.37715
 H223 H 0.87051 0.84708 0.43980
 H224 H 0.74674 0.77272 0.40185
 C225 C 0.00119 0.20320 0.77941
 C226 C -0.09272 0.14787 0.78648
 C227 C -0.15566 0.16106 0.76912
 C228 C -0.12797 0.22537 0.74452
 C229 C -0.03618 0.27768 0.73530
 C230 C 0.02973 0.26481 0.75243
 C231 C 0.06752 0.19882 0.79882
 C232 C 0.15889 0.24688 0.79017
 C233 C 0.18610 0.30015 0.76216
 C234 C 0.12276 0.30923 0.74343
 H235 H 0.04963 0.15879 0.82097
 H236 H 0.20866 0.24173 0.80504
 H237 H 0.25696 0.33527 0.75498
 H238 H 0.14881 0.34968 0.72166
 H239 H -0.22754 0.11990 0.77425
 H240 H -0.18004 0.23316 0.73227
 C241 C 0.71149 0.11014 0.11688
 C242 C 0.72611 0.03396 0.11791
 C243 C 0.68433 -0.03755 0.09457
 C244 C 0.62826 -0.03524 0.07044
 C245 C 0.61199 0.03882 0.06862
 C246 C 0.65360 0.11259 0.09211
 C247 C 0.75041 0.18231 0.14075
 C248 C 0.73303 0.25527 0.14029
 C249 C 0.67583 0.25723 0.11644
 C250 C 0.63594 0.18656 0.09272
 H251 H 0.79367 0.18261 0.16019
 H252 H 0.76327 0.31006 0.15877
 H253 H 0.66155 0.31343 0.11651
 H254 H 0.59035 0.19030 0.07542
 H255 H 0.69448 -0.09638 0.09528
 H256 H 0.59627 -0.09291 0.05315
 C257 C 0.38481 0.25252 0.44403
 C258 C 0.29522 0.23773 0.44862
 C259 C 0.26399 0.28327 0.42896
 C260 C 0.31995 0.34387 0.40532
 C261 C 0.40941 0.36148 0.40044
 C262 C 0.44276 0.31533 0.41978
 C263 C 0.41909 0.20872 0.46382
 C264 C 0.50823 0.22613 0.45983
 C265 C 0.56502 0.28804 0.43648
 C266 C 0.53308 0.33275 0.41675
 H267 H 0.37777 0.16145 0.48269
 H268 H 0.53367 0.19209 0.47519
 H269 H 0.63450 0.30210 0.43380
 H270 H 0.58018 0.38156 0.39955
 H271 H 0.19564 0.27243 0.43220
 H272 H 0.29306 0.37825 0.39078
 C273 C 0.04396 0.77822 0.74927
 C274 C -0.01722 0.73978 0.77617
 C275 C -0.07765 0.64580 0.77607
 C276 C -0.07500 0.58876 0.75059
 C277 C -0.01146 0.62427 0.72469
 C278 C 0.04676 0.72010 0.72323
 C279 C 0.10232 0.87342 0.74770
 C280 C 0.16148 0.91057 0.72086
 C281 C 0.16358 0.85397 0.69519
 C282 C 0.10693 0.75973 0.69622
 H283 H 0.10211 0.91992 0.76696
 H284 H 0.20551 0.98368 0.71988
 H285 H 0.20908 0.88326 0.67426
 H286 H 0.10986 0.71875 0.67544
 H287 H -0.12529 0.61610 0.79642
 H288 H -0.11997 0.51580 0.75195
   
