data_POSCAR
  _audit_creation_date              2014-09-24
  _audit_creation_method            'ToBaCCo'
  _symmetry_space_group_name_H-M    'P1'
  _symmetry_Int_Tables_number       1
  _symmetry_cell_setting            triclinic
  loop_
  _symmetry_equiv_pos_as_xyz
 x,y,z
_cell_length_a 45.8542
_cell_length_b 46.9367
_cell_length_c 43.8175
_cell_angle_alpha 91.977500
_cell_angle_beta 89.453900
_cell_angle_gamma 93.251700
loop_
  _atom_site_label
  _atom_site_type_symbol
  _atom_site_fract_x
  _atom_site_fract_y
  _atom_site_fract_z
C1 C 0.20341 0.53037 1.03842
 H2 H 0.20494 0.54869 1.02405
 C3 C 0.18261 0.52887 1.06193
 H4 H 0.16823 0.54625 1.06471
 C5 C 0.21897 0.48471 1.04960
 H6 H 0.23271 0.46724 1.04438
 C7 C 0.19842 0.48218 1.07313
 H8 H 0.19813 0.46316 1.08640
 N9 N 0.22091 0.50840 1.03260
 C10 C 0.28986 0.54400 0.97352
 H11 H 0.28732 0.52887 0.95441
 C12 C 0.31149 0.56601 0.97266
 H13 H 0.32493 0.56795 0.95232
 C14 C 0.27495 0.55958 1.02293
 H15 H 0.26098 0.55658 1.04270
 C16 C 0.29686 0.58162 1.02334
 H17 H 0.29957 0.59528 1.04364
 Zn18 Zn 0.24505 0.50919 0.99739
 N19 N 0.27198 0.54127 0.99826
 C20 C 0.22169 0.53171 0.94386
 N21 N 0.21986 0.50985 0.96350
 C22 C 0.19855 0.48859 0.96073
 C23 C 0.17812 0.48862 0.93732
 C24 C 0.20188 0.53246 0.91997
 C25 C 0.28693 0.47439 1.01814
 C26 C 0.30397 0.45078 1.01915
 C27 C 0.28106 0.43200 0.97268
 C28 C 0.26433 0.45603 0.97261
 N29 N 0.26728 0.47640 0.99540
 H30 H 0.23815 0.54889 0.94688
 H31 H 0.19719 0.47181 0.97709
 H32 H 0.16096 0.47182 0.93596
 H33 H 0.20402 0.54985 0.90438
 H34 H 0.28912 0.49112 1.03571
 H35 H 0.31952 0.44967 1.03745
 H36 H 0.27810 0.41571 0.95470
 H37 H 0.24896 0.45828 0.95443
 C38 C 0.31574 0.58490 0.99804
 C39 C 0.17919 0.50414 1.07943
 C40 C 0.30099 0.42905 0.99638
 C41 C 0.17955 0.51084 0.91657
 C42 C 0.79905 0.51267 -0.03160
 H43 H 0.79906 0.52671 -0.01149
 C44 C 0.82035 0.51690 -0.05411
 H45 H 0.83687 0.53413 -0.05097
 C46 C 0.77790 0.47260 -0.05935
 H47 H 0.76160 0.45512 -0.06109
 C48 C 0.79877 0.47615 -0.08259
 H49 H 0.79784 0.46167 -0.10238
 N50 N 0.77811 0.49113 -0.03477
 C51 C 0.70654 0.52242 0.02068
 H52 H 0.70304 0.50535 0.03652
 C53 C 0.68922 0.54596 0.02260
 H54 H 0.67223 0.54676 0.03990
 C55 C 0.73236 0.54159 -0.02170
 H56 H 0.74892 0.53971 -0.03921
 C57 C 0.71551 0.56547 -0.02065
 H58 H 0.71975 0.58197 -0.03704
 Zn59 Zn 0.75076 0.48838 -0.00226
 N60 N 0.72791 0.52084 -0.00094
 C61 C 0.77044 0.50578 0.05764
 N62 N 0.77298 0.48683 0.03367
 C63 C 0.79372 0.46724 0.03317
 C64 C 0.81348 0.46660 0.05708
 C65 C 0.78944 0.50550 0.08238
 C66 C 0.70839 0.45239 -0.03219
 C67 C 0.68750 0.42970 -0.03535
 C68 C 0.70071 0.41418 0.01439
 C69 C 0.72187 0.43681 0.01626
 N70 N 0.72510 0.45550 -0.00674
 H71 H 0.75425 0.52158 0.05735
 H72 H 0.79542 0.45266 0.01364
 H73 H 0.83026 0.45125 0.05612
 H74 H 0.78758 0.52096 0.10112
 H75 H 0.71102 0.46784 -0.04991
 H76 H 0.67484 0.42756 -0.05609
 H77 H 0.69767 0.40045 0.03363
 H78 H 0.73492 0.44005 0.03662
 C79 C 0.69369 0.56796 0.00182
 C80 C 0.82021 0.49873 -0.08024
 C81 C 0.68285 0.41052 -0.01154
 C82 C 0.81157 0.48606 0.08191
 C83 C -0.03462 0.28151 0.48521
 H84 H -0.05242 0.28201 0.50157
 C85 C -0.03376 0.29977 0.46077
 H86 H -0.05086 0.31462 0.45958
 C87 C 0.01003 0.26267 0.46935
 H88 H 0.02723 0.24839 0.47297
 C89 C 0.01190 0.28067 0.44459
 H90 H 0.03020 0.27875 0.42906
 N91 N -0.01313 0.26324 0.48887
 C92 C -0.05809 0.19937 0.54485
 H93 H -0.04469 0.20066 0.56509
 C94 C -0.08222 0.17983 0.54293
 H95 H -0.08718 0.16596 0.56175
 C96 C -0.06691 0.21480 0.49500
 H97 H -0.06049 0.22792 0.47605
 C98 C -0.09104 0.19548 0.49204
 H99 H -0.10328 0.19429 0.47098
 Zn100 Zn -0.01644 0.24037 0.52350
 N101 N -0.05092 0.21633 0.52106
 C102 C -0.04170 0.26864 0.57519
 N103 N -0.01733 0.26605 0.55757
 C104 C 0.00676 0.28395 0.56178
 C105 C 0.00722 0.30521 0.58477
 C106 C -0.04242 0.29010 0.59809
 C107 C 0.01969 0.19797 0.50189
 C108 C 0.04358 0.18079 0.50143
 C109 C 0.05817 0.20190 0.55038
 C110 C 0.03400 0.21867 0.54990
 N111 N 0.01570 0.21688 0.52557
 H112 H -0.06094 0.25478 0.57082
 H113 H 0.02549 0.28199 0.54680
 H114 H 0.02641 0.31959 0.58749
 H115 H -0.06212 0.29249 0.61154
 H116 H 0.00445 0.19655 0.48313
 H117 H 0.04640 0.16592 0.48233
 H118 H 0.07288 0.20417 0.56960
 H119 H 0.03002 0.23313 0.56897
 C120 C -0.09876 0.17746 0.51606
 C121 C -0.01024 0.29975 0.43972
 C122 C 0.06339 0.18285 0.52577
 C123 C -0.01771 0.30867 0.60296
 C124 C 0.99726 0.71500 0.50181
 H125 H 0.98112 0.71403 0.48391
 C126 C 0.99495 0.69556 0.52513
 H127 H 0.97707 0.67947 0.52488
 C128 C 1.04055 0.73686 0.52330
 H129 H 1.05851 0.75269 0.52228
 C130 C 1.03912 0.71773 0.54710
 H131 H 1.05572 0.71945 0.56458
 N132 N 1.01941 0.73551 0.50163
 C133 C 0.97892 0.79930 0.44878
 H134 H 0.99373 0.80126 0.42950
 C135 C 0.95451 0.81585 0.45085
 H136 H 0.95079 0.83071 0.43313
 C137 C 0.96664 0.77854 0.49606
 H138 H 0.97173 0.76456 0.51407
 C139 C 0.94202 0.79455 0.49899
 H140 H 0.92807 0.79204 0.51890
 Zn141 Zn 1.01898 0.76074 0.46894
 N142 N 0.98449 0.78110 0.47122
 C143 C 0.99596 0.73148 0.41573
 N144 N 1.02006 0.73723 0.43323
 C145 C 1.04459 0.72266 0.42877
 C146 C 1.04537 0.70086 0.40648
 C147 C 0.99557 0.70934 0.39351
 C148 C 1.05481 0.80403 0.49673
 C149 C 1.07842 0.82399 0.49971
 C150 C 1.09363 0.81100 0.44839
 C151 C 1.06994 0.79097 0.44655
 N152 N 1.05134 0.78760 0.47072
 H153 H 0.97639 0.74276 0.42032
 H154 H 1.06319 0.72722 0.44350
 H155 H 1.06509 0.68939 0.40363
 H156 H 0.97558 0.70388 0.38116
 H157 H 1.03924 0.80146 0.51528
 H158 H 1.08088 0.83690 0.52059
 H159 H 1.10832 0.81344 0.42903
 H160 H 1.06628 0.77840 0.42569
 C161 C 0.93581 0.81375 0.47639
 C162 C 1.01587 0.69697 0.54837
 C163 C 1.09819 0.82760 0.47534
 C164 C 1.02025 0.69311 0.38931
 C165 C 0.46424 -0.01025 0.29281
 H166 H 0.47920 -0.02725 0.29316
 C167 C 0.44216 -0.00867 0.31493
 H168 H 0.44028 -0.02458 0.33225
 C169 C 0.44980 0.03216 0.27093
 H170 H 0.45321 0.04841 0.25421
 C171 C 0.42748 0.03456 0.29258
 H172 H 0.41353 0.05238 0.29181
 N173 N 0.46775 0.01010 0.27151
 C174 C 0.51918 -0.02395 0.19606
 H175 H 0.53525 -0.00628 0.19439
 C176 C 0.52007 -0.04723 0.17556
 H177 H 0.53655 -0.04622 0.15776
 C178 C 0.47732 -0.04467 0.22042
 H179 H 0.46070 -0.04353 0.23801
 C180 C 0.47730 -0.06849 0.20029
 H181 H 0.46093 -0.08559 0.20373
 Zn182 Zn 0.50064 0.00931 0.24506
 N183 N 0.49842 -0.02329 0.21830
 C184 C 0.55173 -0.01381 0.26688
 N185 N 0.53408 0.00845 0.27009
 C186 C 0.53805 0.02836 0.29321
 C187 C 0.56003 0.02587 0.31474
 C188 C 0.57397 -0.01704 0.28773
 C189 C 0.48130 0.04131 0.19845
 C190 C 0.48030 0.06377 0.17863
 C191 C 0.52258 0.08660 0.20370
 C192 C 0.52289 0.06345 0.22303
 N193 N 0.50216 0.04161 0.22028
 H194 H 0.54801 -0.02976 0.24880
 H195 H 0.52335 0.04554 0.29563
 H196 H 0.56212 0.04128 0.33366
 H197 H 0.58755 -0.03509 0.28486
 H198 H 0.46538 0.02344 0.19648
 H199 H 0.46365 0.06278 0.16121
 H200 H 0.53880 0.10413 0.20661
 H201 H 0.53952 0.06306 0.24030
 C202 C 0.49929 -0.07051 0.17757
 C203 C 0.42369 0.01422 0.31526
 C204 C 0.50087 0.08706 0.18127
 C205 C 0.57795 0.00255 0.31249
 C206 C 0.53630 -0.03160 0.71549
 H207 H 0.51848 -0.04772 0.71437
 C208 C 0.55932 -0.03278 0.69458
 H209 H 0.55886 -0.04982 0.67728
 C210 C 0.55744 0.01096 0.73858
 H211 H 0.55633 0.02821 0.75544
 C212 C 0.58104 0.01058 0.71807
 H213 H 0.59822 0.02734 0.71978
 N214 N 0.53577 -0.01006 0.73698
 C215 C 0.47740 -0.04635 0.80674
 H216 H 0.45993 -0.03180 0.80696
 C217 C 0.47657 -0.06883 0.82694
 H218 H 0.45805 -0.07169 0.84225
 C219 C 0.52291 -0.05997 0.78674
 H220 H 0.54134 -0.05605 0.77164
 C221 C 0.52302 -0.08260 0.80659
 H222 H 0.54166 -0.09577 0.80644
 Zn223 Zn 0.50189 -0.01015 0.76203
 N224 N 0.50030 -0.04240 0.78710
 C225 C 0.44713 -0.03080 0.73520
 N226 N 0.46988 -0.01088 0.73494
 C227 C 0.47137 0.01002 0.71418
 C228 C 0.44900 0.01216 0.69327
 C229 C 0.42414 -0.02945 0.71455
 C230 C 0.52267 0.02813 0.80932
 C231 C 0.52187 0.05174 0.82967
 C232 C 0.47739 0.06448 0.80582
 C233 C 0.47905 0.04072 0.78599
 N234 N 0.50150 0.02314 0.78794
 H235 H 0.44663 -0.04759 0.75148
 H236 H 0.48997 0.02527 0.71415
 H237 H 0.45072 0.02901 0.67697
 H238 H 0.40584 -0.04503 0.71545
 H239 H 0.54000 0.01353 0.81080
 H240 H 0.53864 0.05511 0.84684
 H241 H 0.45943 0.07826 0.80365
 H242 H 0.46203 0.03617 0.76941
 C243 C 0.49971 -0.08724 0.82720
 C244 C 0.58214 -0.01151 0.69564
 C245 C 0.49884 0.07017 0.82820
 C246 C 0.42476 -0.00749 0.69349
 C247 C 0.23215 0.05184 0.51330
 C248 C 0.25106 0.04735 0.54131
 C249 C 0.26871 0.02499 0.53817
 C250 C 0.26583 0.00894 0.50701
 C251 C 0.25461 0.05483 0.48711
 C252 C 0.27206 0.03229 0.48357
 C253 C 0.21582 0.02304 0.50683
 C254 C 0.23320 0.00073 0.50356
 H255 H 0.25137 0.06152 0.56133
 H256 H 0.27998 -0.00939 0.50427
 H257 H 0.25681 0.07322 0.47289
 H258 H 0.19227 0.02058 0.50467
 C259 C 0.77060 -0.05109 0.49563
 C260 C 0.75215 -0.04997 0.52508
 C261 C 0.73436 -0.02762 0.52742
 C262 C 0.73679 -0.00815 0.49978
 C263 C 0.74775 -0.05110 0.47015
 C264 C 0.73023 -0.02855 0.47212
 C265 C 0.78681 -0.02181 0.49454
 C266 C 0.76939 0.00056 0.49677
 H267 H 0.75270 -0.06605 0.54213
 H268 H 0.72257 0.01020 0.50121
 H269 H 0.74497 -0.06776 0.45260
 H270 H 0.81038 -0.01905 0.49265
 C271 C 0.44737 0.27562 1.00279
 C272 C 0.44864 0.25321 0.97642
 C273 C 0.47347 0.23844 0.97566
 C274 C 0.49489 0.24742 1.00156
 C275 C 0.45172 0.25835 1.03137
 C276 C 0.47636 0.24333 1.03080
 C277 C 0.47547 0.29427 0.99981
 C278 C 0.50037 0.27989 0.99875
 H279 H 0.43101 0.24896 0.96035
 H280 H 0.51503 0.23541 1.00098
 H281 H 0.43550 0.25610 1.04927
 H282 H 0.47541 0.31730 0.99882
 C283 C 0.55017 0.72423 0.00653
 C284 C 0.54714 0.74327 -0.02107
 C285 C 0.52189 0.75740 -0.02105
 C286 C 0.50179 0.75098 0.00654
 C287 C 0.54659 0.74480 0.03414
 C288 C 0.52142 0.75896 0.03420
 C289 C 0.52253 0.70467 0.00642
 C290 C 0.49720 0.71825 0.00594
 H291 H 0.56465 0.74749 -0.03732
 H292 H 0.48109 0.76211 0.00637
 H293 H 0.56369 0.74969 0.05066
 H294 H 0.52323 0.68164 0.00643
 C295 C 0.99391 0.44869 0.27813
 C296 C 0.96601 0.45125 0.25952
 C297 C 0.96657 0.47459 0.24193
 C298 C 0.99505 0.49336 0.24424
 C299 C 1.01840 0.44942 0.25387
 C300 C 1.01927 0.47292 0.23635
 C301 C 0.99807 0.47719 0.29597
 C302 C 0.99882 0.50061 0.27846
 H303 H 0.94859 0.43475 0.25781
 H304 H 0.99523 0.51225 0.22971
 H305 H 1.03393 0.43299 0.25120
 H306 H 0.99975 0.47849 0.32063
 C307 C 0.00155 0.54963 0.71321
 C308 C -0.02376 0.55017 0.73648
 C309 C -0.02519 0.52777 0.75557
 C310 C -0.00077 0.50697 0.74996
 C311 C 0.02867 0.54829 0.73337
 C312 C 0.02753 0.52605 0.75259
 C313 C -0.00209 0.52029 0.69704
 C314 C -0.00334 0.49804 0.71607
 H315 H -0.03886 0.56704 0.73813
 H316 H -0.00171 0.48878 0.76551
 H317 H 0.04638 0.56454 0.73378
 H318 H -0.00381 0.51743 0.67246
 C319 C 0.13823 0.13093 0.52496
 C320 C 0.12949 0.14368 0.49795
 C321 C 0.10526 0.16070 0.49844
 C322 C 0.08928 0.16521 0.52550
 C323 C 0.09815 0.15277 0.55228
 C324 C 0.12229 0.13593 0.55210
 C325 C 0.16372 0.11224 0.52324
 C326 C 0.17345 0.09776 0.54849
 C327 C 0.19620 0.07936 0.54538
 C328 C 0.21061 0.07528 0.51721
 C329 C 0.20091 0.08967 0.49189
 C330 C 0.17788 0.10812 0.49473
 C331 C 0.14480 0.13918 0.47056
 C332 C 0.16842 0.12176 0.46897
 H333 H 0.13819 0.14903 0.44990
 H334 H 0.17927 0.11867 0.44712
 H335 H 0.09892 0.17059 0.47770
 H336 H 0.08608 0.15566 0.57342
 H337 H 0.20177 0.06749 0.56503
 H338 H 0.21032 0.08567 0.46951
 H339 H 0.12787 0.12689 0.57341
 H340 H 0.16332 0.09967 0.57071
 C341 C 0.63935 0.64025 0.00686
 C342 C 0.64713 0.62793 -0.02181
 C343 C 0.66515 0.60468 -0.02332
 C344 C 0.67552 0.59321 0.00342
 C345 C 0.66818 0.60577 0.03176
 C346 C 0.65045 0.62899 0.03353
 C347 C 0.61890 0.66414 0.00751
 C348 C 0.60874 0.67689 0.03485
 C349 C 0.58788 0.69737 0.03440
 C350 C 0.57700 0.70649 0.00668
 C351 C 0.58751 0.69419 -0.02073
 C352 C 0.60824 0.67327 -0.02052
 C353 C 0.63644 0.63850 -0.04878
 C354 C 0.61742 0.66066 -0.04815
 H355 H 0.64252 0.62919 -0.07075
 H356 H 0.60936 0.66769 -0.06964
 H357 H 0.67044 0.59500 -0.04535
 H358 H 0.67633 0.59768 0.05271
 H359 H 0.57933 0.70500 0.05607
 H360 H 0.57842 0.69976 -0.04231
 H361 H 0.64560 0.63761 0.05600
 H362 H 0.61578 0.67066 0.05693
 C363 C 0.86324 -0.13197 0.48813
 C364 C 0.86973 -0.14410 0.45898
 C365 C 0.89325 -0.16189 0.45525
 C366 C 0.91066 -0.16779 0.48020
 C367 C 0.90411 -0.15573 0.50903
 C368 C 0.88075 -0.13818 0.51302
 C369 C 0.83835 -0.11262 0.49105
 C370 C 0.83068 -0.09896 0.51885
 C371 C 0.80826 -0.08010 0.52015
 C372 C 0.79219 -0.07465 0.49404
 C373 C 0.79984 -0.08819 0.46614
 C374 C 0.82250 -0.10716 0.46454
 C375 C 0.85287 -0.13820 0.43371
 C376 C 0.82983 -0.12009 0.43641
 H377 H 0.85775 -0.14751 0.41139
 H378 H 0.81770 -0.11597 0.41608
 H379 H 0.89789 -0.17131 0.43292
 H380 H 0.91743 -0.15949 0.52861
 H381 H 0.80408 -0.06905 0.54171
 H382 H 0.78913 -0.08325 0.44526
 H383 H 0.87702 -0.12957 0.53575
 H384 H 0.84209 -0.10197 0.53978
 C385 C 0.35602 0.35774 1.00119
 C386 C 0.35051 0.36964 0.97268
 C387 C 0.33193 0.39236 0.97105
 C388 C 0.31879 0.40365 0.99755
 C389 C 0.32349 0.39111 1.02555
 C390 C 0.34172 0.36845 1.02740
 C391 C 0.37746 0.33481 1.00228
 C392 C 0.38599 0.32311 1.02974
 C393 C 0.40755 0.30331 1.02992
 C394 C 0.42087 0.29388 1.00262
 C395 C 0.41222 0.30538 0.97508
 C396 C 0.39085 0.32566 0.97471
 C397 C 0.36403 0.35919 0.94611
 C398 C 0.38367 0.33761 0.94708
 H399 H 0.35968 0.36811 0.92424
 H400 H 0.39386 0.33058 0.92593
 H401 H 0.32851 0.40191 0.94929
 H402 H 0.31305 0.39894 1.04622
 H403 H 0.41446 0.29657 1.05187
 H404 H 0.42312 0.29943 0.95394
 H405 H 0.34447 0.35988 1.04963
 H406 H 0.37707 0.32966 1.05155
 C407 C 0.83515 0.10875 0.50609
 C408 C 0.85530 0.11480 0.48216
 C409 C 0.87589 0.13794 0.48520
 C410 C 0.87750 0.15487 0.51220
 C411 C 0.85746 0.14904 0.53584
 C412 C 0.83640 0.12640 0.53282
 C413 C 0.81466 0.08277 0.50257
 C414 C 0.79348 0.07488 0.52477
 C415 C 0.77723 0.04880 0.52189
 C416 C 0.78179 0.03018 0.49692
 C417 C 0.80126 0.03864 0.47372
 C418 C 0.81759 0.06475 0.47626
 C419 C 0.85570 0.09703 0.45585
 C420 C 0.83748 0.07235 0.45312
 H421 H 0.87106 0.10175 0.43751
 H422 H 0.83938 0.05873 0.43280
 H423 H 0.89168 0.14195 0.46704
 H424 H 0.85823 0.16193 0.55683
 H425 H 0.76232 0.04248 0.54004
 H426 H 0.80451 0.02427 0.45421
 H427 H 0.82186 0.12267 0.55192
 H428 H 0.78971 0.08811 0.54487
 C429 C 0.38920 0.64722 -0.00017
 C430 C 0.39099 0.62050 -0.01588
 C431 C 0.36714 0.60052 -0.01602
 C432 C 0.34072 0.60670 -0.00147
 C433 C 0.33870 0.63345 0.01361
 C434 C 0.36261 0.65343 0.01437
 C435 C 0.41590 0.66738 0.00048
 C436 C 0.41738 0.69389 0.01685
 C437 C 0.44349 0.71100 0.01797
 C438 C 0.46857 0.70209 0.00272
 C439 C 0.46678 0.67645 -0.01476
 C440 C 0.44111 0.65892 -0.01551
 C441 C 0.41660 0.61367 -0.03138
 C442 C 0.44101 0.63259 -0.03148
 H443 H 0.41783 0.59330 -0.04363
 H444 H 0.46037 0.62620 -0.04371
 H445 H 0.36947 0.57979 -0.02715
 H446 H 0.31852 0.63909 0.02467
 H447 H 0.44430 0.73070 0.03159
 H448 H 0.48576 0.66972 -0.02745
 H449 H 0.35982 0.67359 0.02631
 H450 H 0.39889 0.70143 0.02952
 C451 C 0.16623 -0.10561 0.48438
 C452 C 0.14869 -0.10828 0.45788
 C453 C 0.12754 -0.13094 0.45447
 C454 C 0.12264 -0.15048 0.47768
 C455 C 0.14007 -0.14797 0.50385
 C456 C 0.16176 -0.12598 0.50712
 C457 C 0.18731 -0.08011 0.48797
 C458 C 0.20627 -0.07564 0.51310
 C459 C 0.22291 -0.04990 0.51714
 C460 C 0.22090 -0.02825 0.49627
 C461 C 0.20385 -0.03322 0.47010
 C462 C 0.18724 -0.05898 0.46567
 C463 C 0.15131 -0.08758 0.43562
 C464 C 0.16985 -0.06323 0.43965
 H465 H 0.13795 -0.08966 0.41530
 H466 H 0.17021 -0.04725 0.42236
 H467 H 0.11378 -0.13251 0.43442
 H468 H 0.13670 -0.16295 0.52198
 H469 H 0.23610 -0.04629 0.53742
 H470 H 0.20266 -0.01645 0.45380
 H471 H 0.17413 -0.12482 0.52798
 H472 H 0.20798 -0.09138 0.53025
 C473 C 0.60975 0.34777 0.98802
 C474 C 0.60825 0.37357 0.97243
 C475 C 0.63217 0.39353 0.97243
 C476 C 0.65830 0.38820 0.98714
 C477 C 0.66017 0.36202 1.00148
 C478 C 0.63625 0.34212 1.00205
 C479 C 0.58276 0.32807 0.98936
 C480 C 0.58087 0.30291 1.00625
 C481 C 0.55441 0.28657 1.00849
 C482 C 0.52935 0.29485 0.99386
 C483 C 0.53154 0.31894 0.97570
 C484 C 0.55760 0.33582 0.97388
 C485 C 0.58276 0.37961 0.95722
 C486 C 0.55811 0.36098 0.95761
 H487 H 0.58176 0.39921 0.94497
 H488 H 0.53881 0.36681 0.94572
 H489 H 0.62994 0.41371 0.96167
 H490 H 0.68018 0.35685 1.01241
 H491 H 0.55333 0.26808 1.02263
 H492 H 0.51257 0.32513 0.96350
 H493 H 0.63890 0.32254 1.01363
 H494 H 0.59929 0.29601 1.01860
 C495 C 0.49499 0.15623 1.11923
 C496 C 0.46954 0.14258 1.13185
 C497 C 0.47183 0.12080 1.15263
 C498 C 0.49917 0.11157 1.16081
 C499 C 0.52445 0.12529 1.14860
 C500 C 0.52245 0.14737 1.12813
 C501 C 0.49133 0.17915 1.09663
 C502 C 0.51502 0.19446 1.08278
 C503 C 0.51021 0.21536 1.06158
 C504 C 0.48174 0.22154 1.05366
 C505 C 0.45812 0.20623 1.06724
 C506 C 0.46263 0.18552 1.08869
 C507 C 0.44182 0.15033 1.12335
 C508 C 0.43844 0.17118 1.10210
 H509 H 0.42236 0.13984 1.13303
 H510 H 0.41648 0.17618 1.09607
 H511 H 0.45212 0.11086 1.16237
 H512 H 0.54585 0.11849 1.15430
 H513 H 0.52886 0.22691 1.05165
 H514 H 0.43596 0.20995 1.06075
 H515 H 0.54258 0.15688 1.11920
 H516 H 0.53737 0.19069 1.08806
 C517 C 0.00716 0.63698 0.62067
 C518 C 0.03495 0.64412 0.60779
 C519 C 0.03776 0.66395 0.58451
 C520 C 0.01319 0.67687 0.57373
 C521 C -0.01420 0.67021 0.58698
 C522 C -0.01723 0.65062 0.61016
 C523 C 0.00496 0.61510 0.64484
 C524 C -0.02182 0.60542 0.65788
 C525 C -0.02280 0.58472 0.68001
 C526 C 0.00292 0.57346 0.69041
 C527 C 0.02960 0.58224 0.67654
 C528 C 0.03083 0.60299 0.65420
 C529 C 0.05973 0.63129 0.61804
 C530 C 0.05772 0.61126 0.64082
 H531 H 0.08102 0.63679 0.60826
 H532 H 0.07755 0.60192 0.64792
 H533 H 0.05901 0.66885 0.57431
 H534 H -0.03340 0.68034 0.57949
 H535 H -0.04398 0.57715 0.68843
 H536 H 0.04949 0.57248 0.68257
 H537 H -0.03885 0.64654 0.61947
 H538 H -0.04238 0.61310 0.65097
 C539 C 0.50412 0.84672 -0.10673
 C540 C 0.51374 0.84193 -0.13718
 C541 C 0.51156 0.86320 -0.15872
 C542 C 0.50024 0.88960 -0.15043
 C543 C 0.49046 0.89415 -0.12030
 C544 C 0.49228 0.87306 -0.09877
 C545 C 0.50752 0.82370 -0.08425
 C546 C 0.49868 0.82634 -0.05343
 C547 C 0.50305 0.80464 -0.03322
 C548 C 0.51632 0.77973 -0.04310
 C549 C 0.52487 0.77669 -0.07382
 C550 C 0.52052 0.79836 -0.09440
 C551 C 0.52587 0.81612 -0.14587
 C552 C 0.52927 0.79487 -0.12494
 H553 H 0.53319 0.81241 -0.16919
 H554 H 0.53909 0.77543 -0.13277
 H555 H 0.51882 0.85920 -0.18201
 H556 H 0.48204 0.91440 -0.11306
 H557 H 0.49667 0.80779 -0.00954
 H558 H 0.53486 0.75736 -0.08176
 H559 H 0.48469 0.87804 -0.07595
 H560 H 0.48860 0.84504 -0.04433
 C561 C 0.99448 0.35884 0.36762
 C562 C 0.96716 0.34917 0.37973
 C563 C 0.96574 0.32937 0.40304
 C564 C 0.99127 0.31867 0.41501
 C565 C 1.01831 0.32777 0.40193
 C566 C 1.01989 0.34746 0.37873
 C567 C 0.99507 0.38097 0.34370
 C568 C 1.02119 0.39342 0.33168
 C569 C 1.02058 0.41465 0.31022
 C570 C 0.99397 0.42371 0.29944
 C571 C 0.96784 0.41182 0.31192
 C572 C 0.96820 0.39059 0.33368
 C573 C 0.94131 0.35938 0.36863
 C574 C 0.94182 0.37955 0.34603
 H575 H 0.92032 0.35181 0.37772
 H576 H 0.92121 0.38691 0.33840
 H577 H 0.94439 0.32181 0.41109
 H578 H 1.03874 0.32097 0.41046
 H579 H 1.04117 0.42446 0.30258
 H580 H 0.94707 0.41968 0.30569
 H581 H 1.04133 0.35370 0.37011
 H582 H 1.04235 0.38761 0.33903
 C583 C 0.50447 0.85617 0.11731
 C584 C 0.52965 0.87382 0.12450
 C585 C 0.52769 0.89773 0.14432
 C586 C 0.50084 0.90496 0.15765
 C587 C 0.47593 0.88692 0.15069
 C588 C 0.47768 0.86305 0.13083
 C589 C 0.50770 0.83085 0.09581
 C590 C 0.48403 0.81213 0.08643
 C591 C 0.48844 0.78881 0.06642
 C592 C 0.51650 0.78347 0.05552
 C593 C 0.54005 0.80223 0.06436
 C594 C 0.53591 0.82566 0.08427
 C595 C 0.55687 0.86748 0.11210
 C596 C 0.55994 0.84391 0.09249
 H597 H 0.57619 0.88097 0.11768
 H598 H 0.58152 0.83994 0.08356
 H599 H 0.54771 0.90990 0.15022
 H600 H 0.45456 0.89163 0.15948
 H601 H 0.46992 0.77470 0.05980
 H602 H 0.56171 0.79894 0.05528
 H603 H 0.45776 0.85036 0.12627
 H604 H 0.46200 0.81512 0.09422
 C605 C -0.01530 0.38407 0.66144
 C606 C -0.03836 0.37844 0.64041
 C607 C -0.04010 0.35278 0.62294
 C608 C -0.01840 0.33312 0.62503
 C609 C 0.00428 0.33853 0.64599
 C610 C 0.00571 0.36354 0.66423
 C611 C -0.01323 0.41247 0.67827
 C612 C 0.00829 0.41992 0.70038
 C613 C 0.01079 0.44750 0.71347
 C614 C -0.00791 0.46822 0.70472
 C615 C -0.03032 0.46070 0.68396
 C616 C -0.03330 0.43298 0.67094
 C617 C -0.05863 0.39904 0.63571
 C618 C -0.05590 0.42588 0.65031
 H619 H -0.07629 0.39472 0.61964
 H620 H -0.07154 0.44145 0.64509
 H621 H -0.05734 0.34888 0.60627
 H622 H 0.02129 0.32357 0.64778
 H623 H 0.02812 0.45294 0.72954
 H624 H -0.04523 0.47661 0.67769
 H625 H 0.02400 0.36681 0.67949
 H626 H 0.02361 0.40495 0.70758
 C627 C 0.49184 0.14258 0.89110
 C628 C 0.46681 0.12509 0.88276
 C629 C 0.46940 0.10150 0.86255
 C630 C 0.49663 0.09483 0.85019
 C631 C 0.52148 0.11196 0.85872
 C632 C 0.51918 0.13553 0.87886
 C633 C 0.48797 0.16776 0.91261
 C634 C 0.51132 0.18667 0.92231
 C635 C 0.50649 0.20967 0.94252
 C636 C 0.47833 0.21451 0.95352
 C637 C 0.45493 0.19589 0.94390
 C638 C 0.45951 0.17270 0.92366
 C639 C 0.43930 0.13118 0.89458
 C640 C 0.43573 0.15444 0.91459
 H641 H 0.42016 0.11775 0.88822
 H642 H 0.41396 0.15821 0.92308
 H643 H 0.45010 0.08810 0.85663
 H644 H 0.54273 0.10743 0.84937
 H645 H 0.52488 0.22390 0.94929
 H646 H 0.43313 0.19906 0.95266
 H647 H 0.53903 0.14798 0.88440
 H648 H 0.53344 0.18412 0.91458
 C649 C 1.01347 0.61416 0.33538
 C650 C 1.03023 0.61653 0.36240
 C651 C 1.03264 0.64240 0.37931
 C652 C 1.01892 0.66651 0.36974
 C653 C 1.00294 0.66440 0.34251
 C654 C 1.00022 0.63860 0.32551
 C655 C 1.01021 0.58553 0.31899
 C656 C 0.99292 0.58028 0.29271
 C657 C 0.98960 0.55283 0.27923
 C658 C 1.00347 0.53003 0.29155
 C659 C 1.02139 0.53525 0.31711
 C660 C 1.02459 0.56253 0.33104
 C661 C 1.04418 0.59299 0.37280
 C662 C 1.04159 0.56662 0.35733
 H663 H 1.05717 0.59492 0.39338
 H664 H 1.05264 0.54900 0.36646
 H665 H 1.04452 0.64338 0.40061
 H666 H 0.99243 0.68273 0.33434
 H667 H 0.97547 0.54934 0.25964
 H668 H 1.03280 0.51795 0.32643
 H669 H 0.98754 0.63821 0.30489
 H670 H 0.98136 0.59690 0.28256
 C671 C 1.11090 0.49443 0.14597
 C672 C 1.12221 0.47029 0.13091
 C673 C 1.14484 0.47367 0.10934
 C674 C 1.15667 0.50099 0.10182
 C675 C 1.14493 0.52491 0.11676
 C676 C 1.12258 0.52171 0.13849
 C677 C 1.08688 0.48977 0.16910
 C678 C 1.07462 0.51227 0.18604
 C679 C 1.05256 0.50671 0.20758
 C680 C 1.04205 0.47864 0.21276
 C681 C 1.05391 0.45612 0.19581
 C682 C 1.07625 0.46142 0.17431
 C683 C 1.11068 0.44280 0.13713
 C684 C 1.08812 0.43847 0.15825
 H685 H 1.11922 0.42428 0.12546
 H686 H 1.07999 0.41677 0.16223
 H687 H 1.15208 0.45472 0.09744
 H688 H 1.15361 0.54636 0.11270
 H689 H 1.04425 0.52448 0.22072
 H690 H 1.04569 0.43435 0.19926
 H691 H 1.11486 0.54093 0.14917
 H692 H 1.08196 0.53427 0.18332
 C693 C 0.64994 -0.01428 0.62651
 C694 C 0.63880 -0.03961 0.64014
 C695 C 0.61746 -0.03837 0.66323
 C696 C 0.60641 -0.01223 0.67288
 C697 C 0.61778 0.01291 0.65970
 C698 C 0.63928 0.01197 0.63688
 C699 C 0.67218 -0.01674 0.60128
 C700 C 0.68466 0.00702 0.58605
 C701 C 0.70486 0.00346 0.56230
 C702 C 0.71325 -0.02382 0.55307
 C703 C 0.70093 -0.04759 0.56819
 C704 C 0.68075 -0.04427 0.59214
 C705 C 0.64861 -0.06613 0.63033
 C706 C 0.66903 -0.06842 0.60678
 H707 H 0.64010 -0.08551 0.64080
 H708 H 0.67568 -0.08949 0.59986
 H709 H 0.60927 -0.05791 0.67360
 H710 H 0.60946 0.03335 0.66643
 H711 H 0.71407 0.02227 0.55142
 H712 H 0.70651 -0.06891 0.56097
 H713 H 0.64686 0.03196 0.62737
 H714 H 0.67915 0.02853 0.59209
 C715 C -0.11461 0.51382 0.84954
 C716 C -0.12371 0.48556 0.85695
 C717 C -0.14502 0.48069 0.87973
 C718 C -0.15776 0.50365 0.89514
 C719 C -0.14922 0.53159 0.88710
 C720 C -0.12797 0.53667 0.86469
 C721 C -0.09131 0.51817 0.82567
 C722 C -0.07979 0.54542 0.81778
 C723 C -0.05829 0.54840 0.79525
 C724 C -0.04768 0.52437 0.77987
 C725 C -0.05868 0.49710 0.78784
 C726 C -0.08019 0.49383 0.81069
 C727 C -0.11156 0.46236 0.84155
 C728 C -0.09048 0.46640 0.81871
 H729 H -0.11860 0.44070 0.84710
 H730 H -0.08191 0.44774 0.80734
 H731 H -0.15133 0.45899 0.88579
 H732 H -0.15921 0.54969 0.89801
 H733 H -0.04968 0.56968 0.79017
 H734 H -0.05085 0.47836 0.77595
 H735 H -0.12253 0.55862 0.85953
 H736 H -0.08684 0.56473 0.82886
 C737 C 0.36001 0.02482 0.38752
 C738 C 0.36407 -0.00258 0.37412
 C739 C 0.38476 -0.00594 0.35056
 C740 C 0.40153 0.01769 0.33990
 C741 C 0.39739 0.04478 0.35321
 C742 C 0.37697 0.04837 0.37664
 C743 C 0.33774 0.02751 0.41264
 C744 C 0.33215 0.05377 0.42753
 C745 C 0.31100 0.05521 0.45056
 C746 C 0.29484 0.03058 0.45944
 C747 C 0.30038 0.00428 0.44497
 C748 C 0.32160 0.00257 0.42172
 C749 C 0.34743 -0.02642 0.38425
 C750 C 0.32664 -0.02390 0.40748
 H751 H 0.35050 -0.04740 0.37400
 H752 H 0.31431 -0.04301 0.41442
 H753 H 0.38756 -0.02695 0.34025
 H754 H 0.41035 0.06332 0.34581
 H755 H 0.30754 0.07571 0.46169
 H756 H 0.28773 -0.01485 0.45133
 H757 H 0.37494 0.06974 0.38590
 H758 H 0.34384 0.07347 0.42183
 C759 C 0.11491 0.51389 0.84581
 C760 C 0.12610 0.53929 0.86089
 C761 C 0.14696 0.53808 0.88394
 C762 C 0.15748 0.51188 0.89206
 C763 C 0.14670 0.48678 0.87674
 C764 C 0.12570 0.48770 0.85397
 C765 C 0.09223 0.51614 0.82168
 C766 C 0.07856 0.49213 0.80640
 C767 C 0.05757 0.49543 0.78410
 C768 C 0.04987 0.52266 0.77620
 C769 C 0.06306 0.54668 0.79158
 C770 C 0.08390 0.54364 0.81429
 C771 C 0.11656 0.56581 0.85281
 C772 C 0.09612 0.56795 0.82982
 H773 H 0.12521 0.58526 0.86428
 H774 H 0.08961 0.58899 0.82427
 H775 H 0.15476 0.55763 0.89584
 H776 H 0.15479 0.46632 0.88210
 H777 H 0.04760 0.47655 0.77280
 H778 H 0.05662 0.56784 0.78638
 H779 H 0.11843 0.46771 0.84291
 H780 H 0.08359 0.47063 0.81142
 C781 C 0.64055 -0.01304 0.38227
 C782 C 0.63716 0.01512 0.37277
 C783 C 0.61671 0.02021 0.35012
 C784 C 0.59950 -0.00245 0.33661
 C785 C 0.60270 -0.03022 0.34645
 C786 C 0.62287 -0.03550 0.36887
 C787 C 0.66297 -0.01769 0.40605
 C788 C 0.66838 -0.04495 0.41652
 C789 C 0.68995 -0.04830 0.43811
 C790 C 0.70669 -0.02463 0.44997
 C791 C 0.70122 0.00268 0.44014
 C792 C 0.67967 0.00629 0.41819
 C793 C 0.65429 0.03796 0.38581
 C794 C 0.67502 0.03365 0.40806
 H795 H 0.65168 0.05953 0.37864
 H796 H 0.68778 0.05204 0.41733
 H797 H 0.61452 0.04175 0.34264
 H798 H 0.58925 -0.04803 0.33701
 H799 H 0.69340 -0.06955 0.44570
 H800 H 0.71429 0.02107 0.44894
 H801 H 0.62416 -0.05734 0.37533
 H802 H 0.65637 -0.06403 0.40827
 C803 C 0.87510 0.48587 0.15353
 C804 C 0.88410 0.48856 0.12272
 C805 C 0.86320 0.48851 0.09954
 C806 C 0.83330 0.48663 0.10662
 C807 C 0.82434 0.48531 0.13719
 C808 C 0.84494 0.48478 0.16043
 C809 C 0.89814 0.48423 0.17736
 C810 C 0.89151 0.47854 0.20812
 C811 C 0.91379 0.47590 0.22913
 C812 C 0.94314 0.47931 0.22016
 C813 C 0.95006 0.48552 0.18983
 C814 C 0.92786 0.48738 0.16827
 C815 C 0.91386 0.49140 0.11521
 C816 C 0.93525 0.49128 0.13757
 H817 H 0.92072 0.49382 0.09166
 H818 H 0.95798 0.49356 0.13058
 H819 H 0.87016 0.49020 0.07591
 H820 H 0.80131 0.48411 0.14305
 H821 H 0.90810 0.47102 0.25251
 H822 H 0.97278 0.48756 0.18271
 H823 H 0.83681 0.48357 0.18354
 H824 H 0.86934 0.47537 0.21625
 C825 C 0.35574 0.00204 0.62877
 C826 C 0.36891 0.02610 0.64473
 C827 C 0.39083 0.02262 0.66615
 C828 C 0.40031 -0.00455 0.67201
 C829 C 0.38688 -0.02847 0.65668
 C830 C 0.36488 -0.02528 0.63533
 C831 C 0.33288 0.00693 0.60544
 C832 C 0.31868 -0.01533 0.58778
 C833 C 0.29785 -0.00947 0.56607
 C834 C 0.29054 0.01866 0.56146
 C835 C 0.30462 0.04093 0.57889
 C836 C 0.32552 0.03533 0.60071
 C837 C 0.36041 0.05358 0.63908
 C838 C 0.33920 0.05810 0.61755
 H839 H 0.37047 0.07197 0.65138
 H840 H 0.33352 0.07982 0.61393
 H841 H 0.40062 0.04122 0.67832
 H842 H 0.39388 -0.04966 0.66068
 H843 H 0.28721 -0.02709 0.55312
 H844 H 0.29979 0.06285 0.57508
 H845 H 0.35558 -0.04440 0.62403
 H846 H 0.32336 -0.03738 0.59034
   
