data_POSCAR
  _audit_creation_date              2014-09-24
  _audit_creation_method            'ToBaCCo'
  _symmetry_space_group_name_H-M    'P1'
  _symmetry_Int_Tables_number       1
  _symmetry_cell_setting            triclinic
  loop_
  _symmetry_equiv_pos_as_xyz
 x,y,z
_cell_length_a 31.4169
_cell_length_b 31.1145
_cell_length_c 32.0151
_cell_angle_alpha 89.852900
_cell_angle_beta 90.195400
_cell_angle_gamma 89.524600
loop_
  _atom_site_label
  _atom_site_type_symbol
  _atom_site_fract_x
  _atom_site_fract_y
  _atom_site_fract_z
N1 N 0.18404 1.27504 0.16280
 N2 N 0.15106 1.27045 0.18746
 C3 C 0.12081 1.29927 0.17661
 C4 C 0.13552 1.32352 0.14313
 C5 C 0.17613 1.30718 0.13560
 H6 H 0.09006 1.30146 0.19145
 H7 H 0.19816 1.31684 0.11157
 Cu8 Cu 0.15036 1.22548 0.22971
 Cu9 Cu 0.23417 1.23775 0.16689
 Cu10 Cu 0.21813 1.14303 0.22230
 N11 N 0.15292 1.18148 0.27294
 N12 N 0.17960 1.14897 0.26961
 C13 C 0.17262 1.12094 0.30082
 C14 C 0.13946 1.13652 0.32533
 C15 C 0.12807 1.17539 0.30658
 H16 H 0.18958 1.09077 0.30411
 H17 H 0.10255 1.19690 0.31550
 N18 N 0.26573 1.15108 0.18326
 N19 N 0.27238 1.18730 0.16288
 C20 C 0.30629 1.18209 0.13772
 C21 C 0.32190 1.14056 0.14260
 C22 C 0.29538 1.12199 0.17192
 H23 H 0.31792 1.20646 0.11663
 H24 H 0.29660 1.08925 0.18321
 H25 H 0.19464 1.18807 0.17888
 H26 H 0.22578 1.20714 0.22484
 N27 N 0.81181 0.72685 0.16344
 N28 N 0.84550 0.73048 0.18757
 C29 C 0.87444 0.70042 0.17675
 C30 C 0.85801 0.67648 0.14404
 C31 C 0.81800 0.69415 0.13664
 H32 H 0.90569 0.69727 0.19068
 H33 H 0.79528 0.68475 0.11301
 Cu34 Cu 0.84886 0.77589 0.22900
 Cu35 Cu 0.76320 0.76603 0.16757
 Cu36 Cu 0.78401 0.86077 0.22087
 N37 N 0.84850 0.82038 0.27160
 N38 N 0.82295 0.85380 0.26800
 C39 C 0.83117 0.88168 0.29894
 C40 C 0.86397 0.86502 0.32356
 C41 C 0.87385 0.82572 0.30513
 H42 H 0.81524 0.91241 0.30202
 H43 H 0.89860 0.80328 0.31430
 N44 N 0.73539 0.85409 0.18256
 N45 N 0.72687 0.81785 0.16306
 C46 C 0.69260 0.82398 0.13832
 C47 C 0.67871 0.86617 0.14252
 C48 C 0.70662 0.88415 0.17103
 H49 H 0.67953 0.79973 0.11798
 H50 H 0.70691 0.91706 0.18170
 H51 H 0.80492 0.81424 0.17803
 H52 H 0.77408 0.79709 0.22479
 N53 N 0.80791 1.27789 -0.16652
 N54 N 0.84136 1.27373 -0.19074
 C55 C 0.87066 1.30285 -0.17955
 C56 C 0.85474 1.32675 -0.14649
 C57 C 0.81462 1.31002 -0.13928
 H58 H 0.90182 1.30535 -0.19347
 H59 H 0.79220 1.31967 -0.11547
 Cu60 Cu 0.84433 1.22912 -0.23308
 Cu61 Cu 0.75911 1.23989 -0.17114
 Cu62 Cu 0.78075 1.14425 -0.22278
 N63 N 0.84456 1.18308 -0.27410
 N64 N 0.81965 1.14971 -0.26967
 C65 C 0.82865 1.12073 -0.29950
 C66 C 0.86132 1.13657 -0.32422
 C67 C 0.87029 1.17655 -0.30705
 H68 H 0.81337 1.08984 -0.30170
 H69 H 0.89476 1.19866 -0.31657
 N70 N 0.73189 1.15202 -0.18515
 N71 N 0.72300 1.18866 -0.16633
 C72 C 0.68855 1.18331 -0.14201
 C73 C 0.67493 1.14121 -0.14581
 C74 C 0.70318 1.12248 -0.17363
 H75 H 0.67519 1.20802 -0.12221
 H76 H 0.70372 1.08939 -0.18380
 H77 H 0.80155 1.19173 -0.18121
 H78 H 0.76979 1.20795 -0.22810
 N79 N 0.18666 0.72365 -0.15555
 N80 N 0.15767 0.72417 -0.18521
 C81 C 0.12903 0.69320 -0.17746
 C82 C 0.14061 0.67209 -0.14089
 C83 C 0.17753 0.69234 -0.12802
 H84 H 0.10119 0.68731 -0.19642
 H85 H 0.19547 0.68613 -0.09975
 Cu86 Cu 0.15816 0.76771 -0.22896
 Cu87 Cu 0.23183 0.76606 -0.15263
 Cu88 Cu 0.23327 0.84392 -0.23033
 N89 N 0.15928 0.81154 -0.27241
 N90 N 0.18879 0.84117 -0.27279
 C91 C 0.18079 0.86892 -0.30420
 C92 C 0.14388 0.85635 -0.32473
 C93 C 0.13139 0.81948 -0.30357
 H94 H 0.19980 0.89696 -0.31042
 H95 H 0.10334 0.80054 -0.30933
 N96 N 0.27549 0.84128 -0.18465
 N97 N 0.27491 0.81169 -0.15508
 C98 C 0.30584 0.82011 -0.12713
 C99 C 0.32696 0.85689 -0.13954
 C100 C 0.30684 0.86927 -0.17628
 H101 H 0.31178 0.80143 -0.09921
 H102 H 0.31330 0.89765 -0.19462
 H103 H 0.19891 0.81473 -0.18327
 H104 H 0.23364 0.77929 -0.21580
 C105 C 0.49994 1.00412 -0.00119
 C106 C -0.00444 0.49876 0.99965
 C107 C 1.00312 -0.00158 0.50188
 C108 C 0.06750 0.41744 1.07315
 C109 C 0.04878 0.39826 1.10797
 C110 C 0.07142 0.36783 1.13153
 C111 C 0.11335 0.35579 1.12056
 C112 C 0.13209 0.37621 1.08579
 C113 C 0.10927 0.40663 1.06232
 C114 C 0.04315 0.44691 1.04770
 C115 C 0.02204 0.47078 1.02612
 H116 H 0.01640 0.40642 1.11664
 H117 H 0.05545 0.35363 1.15796
 H118 H 0.16414 0.36855 1.07601
 H119 H 0.12407 0.42132 1.03535
 C120 C -0.07597 0.57989 1.07280
 C121 C -0.11434 0.59730 1.05796
 C122 C -0.13633 0.62806 1.08148
 C123 C -0.12009 0.64197 1.12017
 C124 C -0.08189 0.62354 1.13514
 C125 C -0.06000 0.59279 1.11158
 C126 C -0.05191 0.55038 1.04745
 C127 C -0.03093 0.52655 1.02597
 H128 H -0.12690 0.58766 1.02788
 H129 H -0.16545 0.64155 1.06877
 H130 H -0.06860 0.63299 1.16491
 H131 H -0.03029 0.57952 1.12336
 C132 C -0.07756 0.42053 0.92578
 C133 C -0.06226 0.40792 0.88668
 C134 C -0.08470 0.37810 0.86280
 C135 C -0.12281 0.36034 0.87776
 C136 C -0.13840 0.37397 0.91677
 C137 C -0.11585 0.40379 0.94062
 C138 C -0.05292 0.44904 0.95140
 C139 C -0.03146 0.47201 0.97309
 H140 H -0.03263 0.42068 0.87489
 H141 H -0.07191 0.36886 0.83278
 H142 H -0.16743 0.36095 0.92947
 H143 H -0.12791 0.41322 0.97094
 C144 C 0.06952 0.57765 0.92737
 C145 C 0.11135 0.58697 0.93908
 C146 C 0.13482 0.61700 0.91639
 C147 C 0.11668 0.63827 0.88167
 C148 C 0.07484 0.62790 0.86968
 C149 C 0.05146 0.59788 0.89243
 C150 C 0.04440 0.54889 0.95224
 C151 C 0.02270 0.52573 0.97347
 H152 H 0.12565 0.57149 0.96611
 H153 H 0.16700 0.62368 0.92637
 H154 H 0.05960 0.64356 0.84335
 H155 H 0.01902 0.59100 0.88317
 C156 C 1.07586 0.07145 0.42297
 C157 C 1.06229 0.11247 0.41068
 C158 C 1.08396 0.13458 0.37929
 C159 C 1.11953 0.11581 0.35929
 C160 C 1.13364 0.07497 0.37318
 C161 C 1.11188 0.05303 0.40458
 C162 C 1.05122 0.04700 0.45229
 C163 C 1.02987 0.02557 0.47549
 H164 H 1.03436 0.12702 0.42472
 H165 H 1.07192 0.16592 0.37036
 H166 H 1.16095 0.05915 0.35947
 H167 H 1.12264 0.02123 0.41386
 C168 C 1.07655 -0.07626 0.58036
 C169 C 1.11546 -0.06078 0.59497
 C170 C 1.13825 -0.08348 0.62556
 C171 C 1.12234 -0.12214 0.64240
 C172 C 1.08358 -0.13794 0.62632
 C173 C 1.06092 -0.11510 0.59573
 C174 C 1.05153 -0.05105 0.55147
 C175 C 1.02997 -0.02913 0.52841
 H176 H 1.12785 -0.03067 0.58328
 H177 H 1.16790 -0.06996 0.63626
 H178 H 1.06997 -0.16753 0.63763
 H179 H 1.03076 -0.12737 0.58463
 C180 C 0.92968 -0.07226 0.42144
 C181 C 0.89417 -0.05272 0.40285
 C182 C 0.87178 -0.07381 0.37130
 C183 C 0.88469 -0.11496 0.35748
 C184 C 0.91981 -0.13482 0.37760
 C185 C 0.94213 -0.11353 0.40914
 C186 C 0.95478 -0.04878 0.45117
 C187 C 0.97634 -0.02804 0.47481
 H188 H 0.88426 -0.02071 0.41214
 H189 H 0.84487 -0.05715 0.35750
 H190 H 0.93097 -0.16642 0.36868
 H191 H 0.96967 -0.12896 0.42333
 C192 C 0.92889 0.07071 0.58084
 C193 C 0.89382 0.05157 0.59983
 C194 C 0.87085 0.07364 0.63043
 C195 C 0.88272 0.11539 0.64288
 C196 C 0.91745 0.13474 0.62242
 C197 C 0.94035 0.11249 0.59183
 C198 C 0.95438 0.04650 0.55184
 C199 C 0.97618 0.02528 0.52865
 H200 H 0.88466 0.01918 0.59153
 H201 H 0.84430 0.05730 0.64457
 H202 H 0.92781 0.16675 0.63029
 H203 H 0.96751 0.12761 0.57729
 C204 C 0.41930 1.07594 0.07197
 C205 C 0.40393 1.11610 0.05885
 C206 C 0.37297 1.13770 0.08230
 C207 C 0.35682 1.11924 0.11913
 C208 C 0.37328 1.07927 0.13250
 C209 C 0.40424 1.05781 0.10904
 C210 C 0.44878 1.05216 0.04646
 C211 C 0.47247 1.03109 0.02497
 H212 H 0.41525 1.13035 0.03009
 H213 H 0.36100 1.16824 0.07088
 H214 H 0.36211 1.06428 0.16088
 H215 H 0.41591 1.02671 0.11948
 C216 C 0.57828 1.07608 -0.07574
 C217 C 0.59144 1.11707 -0.06366
 C218 C 0.62210 1.13882 -0.08700
 C219 C 0.64020 1.11968 -0.12266
 C220 C 0.62591 1.07887 -0.13505
 C221 C 0.59524 1.05725 -0.11171
 C222 C 0.54936 1.05216 -0.05004
 C223 C 0.52633 1.03103 -0.02816
 H224 H 0.57866 1.13185 -0.03573
 H225 H 0.63238 1.17002 -0.07634
 H226 H 0.63862 1.06332 -0.16254
 H227 H 0.58531 1.02550 -0.12132
 C228 C 0.42141 0.92776 -0.07146
 C229 C 0.41264 0.93799 -0.11319
 C230 C 0.38261 0.91439 -0.13564
 C231 C 0.36079 0.88023 -0.11658
 C232 C 0.37061 0.86965 -0.07483
 C233 C 0.40063 0.89332 -0.05246
 C234 C 0.45009 0.95384 -0.04750
 C235 C 0.47316 0.97625 -0.02687
 H236 H 0.42855 0.96463 -0.12821
 H237 H 0.37636 0.92325 -0.16778
 H238 H 0.35447 0.84382 -0.05892
 H239 H 0.40706 0.88523 -0.02010
 C240 C 0.58152 0.93285 0.07242
 C241 C 0.59488 0.89179 0.06017
 C242 C 0.62582 0.86962 0.08344
 C243 C 0.64397 0.88838 0.11923
 C244 C 0.62959 0.92934 0.13172
 C245 C 0.59864 0.95138 0.10843
 C246 C 0.55183 0.95688 0.04705
 C247 C 0.52787 0.97781 0.02545
 H248 H 0.58194 0.87721 0.03223
 H249 H 0.63615 0.83833 0.07268
 H250 H 0.64235 0.94463 0.15929
 H251 H 0.58853 0.98318 0.11819
   
