data_POSCAR
  _audit_creation_date              2014-09-24
  _audit_creation_method            'ToBaCCo'
  _symmetry_space_group_name_H-M    'P1'
  _symmetry_Int_Tables_number       1
  _symmetry_cell_setting            triclinic
  loop_
  _symmetry_equiv_pos_as_xyz
 x,y,z
_cell_length_a 62.2917
_cell_length_b 62.2168
_cell_length_c 17.2410
_cell_angle_alpha 89.903000
_cell_angle_beta 90.168400
_cell_angle_gamma 119.764600
loop_
  _atom_site_label
  _atom_site_type_symbol
  _atom_site_fract_x
  _atom_site_fract_y
  _atom_site_fract_z
C1 C 0.23009 0.49969 0.45928
 C2 C 0.23193 0.50314 0.54133
 C3 C 0.25180 0.50331 0.58084
 C4 C 0.26961 0.49956 0.54277
 C5 C 0.26754 0.49598 0.46102
 C6 C 0.24771 0.49570 0.42103
 H7 H 0.24656 0.49320 0.35859
 H8 H 0.25311 0.50583 0.64321
 C9 C 0.49919 -0.26862 0.46369
 C10 C 0.49573 -0.26858 0.54510
 C11 C 0.49447 -0.24882 0.57970
 C12 C 0.49686 -0.22862 0.53580
 C13 C 0.50245 -0.22781 0.45534
 C14 C 0.50347 -0.24766 0.42079
 H15 H 0.50685 -0.24699 0.35893
 H16 H 0.49098 -0.24967 0.64147
 C17 C 1.26701 0.76556 0.45800
 C18 C 1.26640 0.76855 0.53982
 C19 C 1.24607 0.75130 0.58307
 C20 C 1.22632 0.73091 0.54745
 C21 C 1.22667 0.72769 0.46659
 C22 C 1.24721 0.74454 0.42313
 H23 H 1.24672 0.74217 0.36074
 H24 H 1.24599 0.75335 0.64552
 C25 C 0.76885 0.49530 0.46331
 C26 C 0.76658 0.49356 0.54559
 C27 C 0.74569 0.49287 0.57997
 C28 C 0.72827 0.49576 0.53546
 C29 C 0.73072 0.49698 0.45348
 C30 C 0.75093 0.49698 0.41882
 H31 H 0.75213 0.49712 0.35603
 H32 H 0.74435 0.49271 0.64266
 C33 C 0.51796 0.28112 0.46506
 C34 C 0.51838 0.28148 0.54739
 C35 C 0.51791 0.26149 0.58701
 C36 C 0.51638 0.24083 0.54823
 C37 C 0.51700 0.24125 0.46551
 C38 C 0.51767 0.26130 0.42564
 H39 H 0.51776 0.26141 0.36272
 H40 H 0.51817 0.26179 0.64988
 C41 C 0.72757 0.22817 0.45586
 C42 C 0.72557 0.22823 0.53709
 C43 C 0.74360 0.24820 0.58000
 C44 C 0.76500 0.26724 0.54412
 C45 C 0.76776 0.26565 0.46233
 C46 C 0.74877 0.24649 0.41945
 H47 H 0.75029 0.24612 0.35686
 H48 H 0.74169 0.24790 0.64253
 O49 O 0.96039 0.43964 0.13581
 O50 O 0.93530 0.44898 0.06257
 C51 C 0.93877 0.43614 0.11532
 O52 O 1.03595 0.54970 0.14069
 O53 O 1.06145 0.54057 0.06997
 C54 C 1.05771 0.55349 0.12136
 O55 O 0.96677 0.51837 0.14214
 O56 O 0.93820 0.48623 0.06756
 C57 C 0.94424 0.50282 0.12139
 O58 O 1.02973 0.46793 0.13133
 O59 O 1.05864 0.50238 0.06605
 C60 C 1.05242 0.48422 0.11404
 Zr61 Zr 0.99611 0.46595 0.09459
 O62 O 0.99783 0.46496 0.21709
 O63 O 0.99225 0.43038 0.08334
 Zr64 Zr 1.00051 0.52240 0.10042
 O65 O 1.00227 0.52152 0.22298
 O66 O 1.00083 0.55657 0.10432
 O67 O 0.97619 0.48443 0.11159
 O68 O 1.01963 0.50335 0.11279
 O69 O 1.03079 0.47109 -0.13672
 O70 O 1.05938 0.50372 -0.06431
 C71 C 1.05339 0.48662 -0.11636
 O72 O 0.96800 0.52022 -0.14081
 O73 O 0.93885 0.48776 -0.06947
 C74 C 0.94523 0.50463 -0.12256
 O75 O 1.03731 0.55261 -0.12893
 O76 O 1.06234 0.54190 -0.06096
 C77 C 1.05889 0.55580 -0.10962
 O78 O 0.96244 0.44357 -0.14834
 O79 O 0.93581 0.45026 -0.07435
 C80 C 0.94043 0.43913 -0.13016
 Zr81 Zr 0.99712 0.46818 -0.10008
 O82 O 1.00045 0.46988 -0.22239
 O83 O 0.99197 0.43189 -0.10080
 Zr84 Zr 1.00147 0.52450 -0.09498
 O85 O 1.00500 0.52751 -0.21717
 O86 O 1.00121 0.55838 -0.08963
 Zr87 Zr 0.96179 0.47912 -0.00210
 Zr88 Zr 1.03553 0.51131 0.00149
 O89 O 1.02069 0.50578 -0.11117
 O90 O 0.97738 0.48690 -0.11413
 O91 O 1.01842 0.47244 -0.00211
 O92 O 0.97973 0.51807 0.00192
 O93 O 0.97462 0.45358 -0.00438
 O94 O 1.02341 0.53748 0.00422
 H95 H 1.03046 0.50764 0.15905
 H96 H 0.96962 0.52633 0.00225
 H97 H 1.03192 0.51104 -0.15647
 H98 H 0.96241 0.43565 -0.00665
 H99 H 1.01495 0.56856 0.07268
 H100 H 1.01596 0.57025 -0.05984
 H101 H 0.99109 0.51235 -0.23958
 H102 H 0.98875 0.47490 -0.24288
 H103 H 1.00397 0.43161 -0.06364
 H104 H 0.99175 0.42433 0.13688
 H105 H 0.98567 0.46931 0.23766
 H106 H 0.98699 0.50678 0.24110
 O107 O 0.55708 0.52278 0.14494
 O108 O 0.54943 0.48808 0.07634
 C109 C 0.56195 0.50541 0.12653
 O110 O 0.44576 0.48499 0.13457
 O111 O 0.45472 0.51932 0.06192
 C112 C 0.44138 0.50240 0.11215
 O113 O 0.47936 0.44896 0.14827
 O114 O 0.51282 0.45343 0.07914
 C115 C 0.49582 0.44266 0.13135
 O116 O 0.52689 0.56191 0.13217
 O117 O 0.49288 0.55562 0.06192
 C118 C 0.51053 0.56793 0.11121
 Zr119 Zr 0.53002 0.53067 0.10046
 O120 O 0.52885 0.53294 0.22275
 O121 O 0.56514 0.56294 0.09396
 Zr122 Zr 0.47452 0.47801 0.10215
 O123 O 0.47392 0.48118 0.22429
 O124 O 0.44098 0.44383 0.10521
 O125 O 0.51242 0.49249 0.11924
 O126 O 0.49234 0.51614 0.11317
 O127 O 0.52771 0.55965 -0.13494
 O128 O 0.49374 0.55485 -0.06867
 C129 C 0.51156 0.56635 -0.11795
 O130 O 0.48117 0.44865 -0.13683
 O131 O 0.51258 0.45224 -0.05855
 C132 C 0.49686 0.44188 -0.11482
 O133 O 0.44755 0.48445 -0.13685
 O134 O 0.45555 0.51928 -0.06828
 C135 C 0.44333 0.50231 -0.11951
 O136 O 0.55709 0.51924 -0.13465
 O137 O 0.54894 0.48614 -0.05690
 C138 C 0.56120 0.50164 -0.11165
 Zr139 Zr 0.53064 0.52898 -0.09496
 O140 O 0.52949 0.52934 -0.21773
 O141 O 0.56643 0.56051 -0.09557
 Zr142 Zr 0.47485 0.47663 -0.09322
 O143 O 0.47196 0.47508 -0.21554
 O144 O 0.44140 0.44241 -0.08525
 Zr145 Zr 0.51936 0.48351 0.00782
 Zr146 Zr 0.48558 0.52365 -0.00055
 O147 O 0.49307 0.51445 -0.11084
 O148 O 0.51280 0.49069 -0.10689
 O149 O 0.52440 0.54584 0.00015
 O150 O 0.48058 0.46174 0.00661
 O151 O 0.54416 0.52188 0.00505
 O152 O 0.46022 0.48530 0.00209
 H153 H 0.48709 0.52258 0.15740
 H154 H 0.47300 0.44347 0.00753
 H155 H 0.48835 0.52027 -0.15798
 H156 H 0.56222 0.52816 0.00505
 H157 H 0.42969 0.44485 0.06687
 H158 H 0.42836 0.44590 -0.06728
 H159 H 0.48889 0.48173 -0.23599
 H160 H 0.52829 0.51375 -0.23645
 H161 H 0.56669 0.57181 -0.05479
 H162 H 0.57030 0.56840 0.14815
 H163 H 0.52650 0.51716 0.24419
 H164 H 0.48858 0.48091 0.24532
 O165 O 0.47567 0.03355 0.15267
 O166 O 0.50873 0.06098 0.07999
 C167 C 0.49263 0.05585 0.13470
 O168 O 0.51527 -0.03833 0.12703
 O169 O 0.48026 -0.06390 0.05786
 C170 C 0.49799 -0.06014 0.10516
 O171 O 0.55003 0.03091 0.14212
 O172 O 0.54445 0.05975 0.07569
 C173 C 0.55609 0.05357 0.12549
 O174 O 0.43787 -0.03492 0.13757
 O175 O 0.44348 -0.06241 0.06425
 C176 C 0.43160 -0.05724 0.11605
 Zr177 Zr 0.46784 -0.00064 0.10344
 O178 O 0.46685 -0.00476 0.22550
 O179 O 0.43580 0.00298 0.10577
 Zr180 Zr 0.52097 -0.00271 0.09797
 O181 O 0.51871 -0.00688 0.22013
 O182 O 0.55553 -0.00147 0.09865
 O183 O 0.50606 0.02027 0.11866
 O184 O 0.48317 -0.02339 0.11271
 O185 O 0.43677 -0.03243 -0.13009
 O186 O 0.44356 -0.06105 -0.06715
 C187 C 0.43114 -0.05504 -0.11417
 O188 O 0.54812 0.03512 -0.13950
 O189 O 0.54336 0.06172 -0.05863
 C190 C 0.55388 0.05728 -0.11613
 O191 O 0.51397 -0.03542 -0.13875
 O192 O 0.48001 -0.06266 -0.06785
 C193 C 0.49721 -0.05765 -0.11835
 O194 O 0.47725 0.03665 -0.13860
 O195 O 0.50901 0.06253 -0.05788
 C196 C 0.49420 0.05843 -0.11583
 Zr197 Zr 0.46708 0.00137 -0.09146
 O198 O 0.46245 -0.00008 -0.21320
 O199 O 0.43521 0.00472 -0.07657
 Zr200 Zr 0.52049 -0.00036 -0.09799
 O201 O 0.51872 -0.00195 -0.22067
 O202 O 0.55539 0.00159 -0.10135
 Zr203 Zr 0.51341 0.03632 0.00733
 Zr204 Zr 0.47491 -0.03742 -0.00097
 O205 O 0.48252 -0.02084 -0.11141
 O206 O 0.50519 0.02252 -0.10724
 O207 O 0.45182 -0.02167 0.00408
 O208 O 0.53582 0.01982 0.00183
 O209 O 0.47498 0.02230 0.00833
 O210 O 0.51343 -0.02362 -0.00289
 H211 H 0.47746 -0.03522 0.15665
 H212 H 0.55404 0.03056 0.00093
 H213 H 0.47655 -0.03154 -0.15802
 H214 H 0.46885 0.03426 0.00985
 H215 H 0.55490 -0.01289 0.05777
 H216 H 0.55372 -0.01316 -0.07409
 H217 H 0.51819 0.01284 -0.23921
 H218 H 0.47898 0.00575 -0.23589
 H219 H 0.42962 0.00589 -0.12947
 H220 H 0.42411 -0.00866 0.06690
 H221 H 0.48303 0.00807 0.24606
 H222 H 0.52021 0.00843 0.24258
 C223 C 1.18900 0.52307 0.38684
 C224 C 1.17330 0.50424 0.33458
 C225 C 1.17752 0.48407 0.32328
 C226 C 1.19751 0.48363 0.36007
 C227 C 1.21225 0.50194 0.41431
 C228 C 1.20786 0.52173 0.42642
 C229 C 1.16127 0.46405 0.27738
 C230 C 1.14038 0.46315 0.24474
 C231 C 1.13554 0.48290 0.25370
 C232 C 1.15312 0.50440 0.29530
 C233 C 1.15022 0.52551 0.29503
 C234 C 1.13042 0.52540 0.25751
 C235 C 1.11221 0.50401 0.22148
 C236 C 1.11407 0.48220 0.22074
 C237 C 1.09408 0.46052 0.18825
 C238 C 1.07364 0.46090 0.15567
 C239 C 1.07280 0.48291 0.15300
 C240 C 1.09208 0.50436 0.18613
 H241 H 1.18648 0.53853 0.40117
 H242 H 1.20034 0.46796 0.35118
 H243 H 1.21914 0.53635 0.46695
 H244 H 1.16435 0.44856 0.26829
 H245 H 1.12868 0.44701 0.21043
 H246 H 1.16355 0.54282 0.32105
 H247 H 1.12917 0.54218 0.25774
 H248 H 1.09348 0.44290 0.18878
 H249 H 1.05874 0.44410 0.13083
 H250 H 1.09116 0.52132 0.18542
 C251 C 0.47706 0.66619 0.40182
 C252 C 0.49450 0.66910 0.34452
 C253 C 0.51417 0.69335 0.32976
 C254 C 0.51516 0.71388 0.36721
 C255 C 0.49777 0.71073 0.42434
 C256 C 0.47883 0.68659 0.44119
 C257 C 0.53297 0.69699 0.27845
 C258 C 0.53307 0.67699 0.24301
 C259 C 0.51367 0.65253 0.25485
 C260 C 0.49336 0.64872 0.30270
 C261 C 0.47233 0.62483 0.30549
 C262 C 0.47146 0.60516 0.26475
 C263 C 0.49186 0.60822 0.22256
 C264 C 0.51356 0.63178 0.21878
 C265 C 0.53446 0.63342 0.18070
 C266 C 0.53351 0.61261 0.14651
 C267 C 0.51162 0.58981 0.14733
 C268 C 0.49080 0.58771 0.18492
 H269 H 0.46220 0.64830 0.41910
 H270 H 0.53033 0.73229 0.35476
 H271 H 0.46476 0.68344 0.48356
 H272 H 0.54804 0.71548 0.26663
 H273 H 0.54820 0.68135 0.20406
 H274 H 0.45579 0.62096 0.33652
 H275 H 0.45479 0.58723 0.26762
 H276 H 0.55203 0.65032 0.17874
 H277 H 0.54986 0.61436 0.11860
 H278 H 0.47400 0.56984 0.18700
 C279 C 0.31453 -0.20490 0.30151
 C280 C 0.32430 -0.17933 0.31654
 C281 C 0.31362 -0.17278 0.37802
 C282 C 0.29478 -0.19099 0.42361
 C283 C 0.28592 -0.21629 0.41050
 C284 C 0.29556 -0.22295 0.34719
 C285 C 0.32167 -0.14801 0.39412
 C286 C 0.34001 -0.12937 0.35001
 C287 C 0.35133 -0.13473 0.28792
 C288 C 0.34397 -0.16007 0.27242
 C289 C 0.35687 -0.16517 0.21465
 C290 C 0.37621 -0.14623 0.17334
 C291 C 0.38308 -0.12149 0.18621
 C292 C 0.37028 -0.11548 0.24228
 C293 C 0.37688 -0.09033 0.25015
 C294 C 0.39628 -0.07192 0.20786
 C295 C 0.40986 -0.07767 0.15548
 C296 C 0.40283 -0.10265 0.14380
 H297 H 0.32095 -0.21160 0.25445
 H298 H 0.28628 -0.18532 0.46770
 H299 H 0.28908 -0.24226 0.33437
 H300 H 0.31371 -0.14292 0.44162
 H301 H 0.34538 -0.11080 0.36784
 H302 H 0.35289 -0.18370 0.20134
 H303 H 0.38585 -0.15104 0.13056
 H304 H 0.36728 -0.08415 0.28783
 H305 H 0.40072 -0.05294 0.21708
 H306 H 0.41289 -0.10745 0.10260
 C307 C 0.80860 0.46910 0.39206
 C308 C 0.82621 0.48847 0.34476
 C309 C 0.82431 0.51019 0.33749
 C310 C 0.80507 0.51187 0.37391
 C311 C 0.78810 0.49264 0.42101
 C312 C 0.78994 0.47127 0.42962
 C313 C 0.84180 0.53029 0.29481
 C314 C 0.86160 0.52967 0.26046
 C315 C 0.86440 0.50855 0.26581
 C316 C 0.84582 0.48722 0.30574
 C317 C 0.84726 0.46527 0.30417
 C318 C 0.86643 0.46429 0.26655
 C319 C 0.88529 0.48525 0.23072
 C320 C 0.88489 0.50785 0.23111
 C321 C 0.90530 0.52891 0.19784
 C322 C 0.92468 0.52723 0.16343
 C323 C 0.92423 0.50459 0.16028
 C324 C 0.90468 0.48374 0.19461
 H325 H 0.80911 0.45231 0.40306
 H326 H 0.80376 0.52855 0.36804
 H327 H 0.77697 0.45628 0.46622
 H328 H 0.84036 0.54688 0.28873
 H329 H 0.87413 0.54593 0.22814
 H330 H 0.83339 0.44819 0.32981
 H331 H 0.86661 0.44695 0.26613
 H332 H 0.90712 0.54706 0.19872
 H333 H 0.93995 0.54364 0.13809
 H334 H 0.90494 0.46650 0.19496
 C335 C 0.54057 0.34587 0.38889
 C336 C 0.51995 0.34315 0.34570
 C337 C 0.49915 0.31901 0.33931
 C338 C 0.49934 0.29863 0.37394
 C339 C 0.51953 0.30196 0.41868
 C340 C 0.54021 0.32559 0.42499
 C341 C 0.47799 0.31538 0.30017
 C342 C 0.47664 0.33524 0.26865
 C343 C 0.49673 0.35965 0.27362
 C344 C 0.51906 0.36355 0.31023
 C345 C 0.53982 0.38764 0.30951
 C346 C 0.53880 0.40728 0.27493
 C347 C 0.51702 0.40393 0.24104
 C348 C 0.49543 0.38026 0.24158
 C349 C 0.47343 0.37838 0.21057
 C350 C 0.47336 0.39888 0.17729
 C351 C 0.49516 0.42170 0.17313
 C352 C 0.51679 0.42421 0.20609
 H353 H 0.55694 0.36350 0.39838
 H354 H 0.48318 0.28032 0.36996
 H355 H 0.55591 0.32843 0.45986
 H356 H 0.46209 0.29697 0.29479
 H357 H 0.45967 0.33073 0.23906
 H358 H 0.55746 0.39193 0.33363
 H359 H 0.55527 0.42539 0.27526
 H360 H 0.45592 0.36142 0.21174
 H361 H 0.45637 0.39671 0.15271
 H362 H 0.53345 0.44211 0.20498
 C363 C 0.66524 0.19472 0.35846
 C364 C 0.66480 0.17344 0.32747
 C365 C 0.68598 0.17085 0.33911
 C366 C 0.70695 0.18936 0.37743
 C367 C 0.70675 0.20999 0.40825
 C368 C 0.68586 0.21254 0.39873
 C369 C 0.68597 0.14958 0.31391
 C370 C 0.66507 0.13033 0.27970
 C371 C 0.64349 0.13192 0.26718
 C372 C 0.64385 0.15437 0.28749
 C373 C 0.62343 0.15713 0.26613
 C374 C 0.60303 0.13832 0.22837
 C375 C 0.60175 0.11574 0.21271
 C376 C 0.62170 0.11198 0.23351
 C377 C 0.61879 0.08819 0.22126
 C378 C 0.59734 0.06932 0.18746
 C379 C 0.57821 0.07351 0.16388
 C380 C 0.58051 0.09678 0.17668
 H381 H 0.64962 0.19768 0.35525
 H382 H 0.72307 0.18729 0.38620
 H383 H 0.68541 0.22829 0.42363
 H384 H 0.70214 0.14757 0.32208
 H385 H 0.66667 0.11462 0.26157
 H386 H 0.62298 0.17401 0.27574
 H387 H 0.58790 0.14137 0.21234
 H388 H 0.63245 0.08335 0.23888
 H389 H 0.59590 0.05141 0.17870
 H390 H 0.56555 0.10000 0.15990
 C391 C 0.49452 0.19332 -0.29458
 C392 C 0.50628 0.17953 -0.31223
 C393 C 0.52143 0.18637 -0.37915
 C394 C 0.52550 0.20702 -0.42374
 C395 C 0.51346 0.22047 -0.40614
 C396 C 0.49803 0.21323 -0.34051
 C397 C 0.53235 0.17248 -0.40151
 C398 C 0.52799 0.15148 -0.36026
 C399 C 0.51309 0.14396 -0.29304
 C400 C 0.50310 0.15895 -0.26655
 C401 C 0.49071 0.15318 -0.19452
 C402 C 0.48735 0.13294 -0.15112
 C403 C 0.49556 0.11723 -0.17849
 C404 C 0.50821 0.12223 -0.25047
 C405 C 0.51505 0.10497 -0.27735
 C406 C 0.50995 0.08406 -0.23372
 C407 C 0.49815 0.07982 -0.16204
 C408 C 0.49111 0.09644 -0.13421
 H409 H 0.48169 0.18867 -0.24728
 H410 H 0.53851 0.21279 -0.47129
 H411 H 0.48762 0.22236 -0.32587
 H412 H 0.54407 0.17764 -0.45241
 H413 H 0.53717 0.14187 -0.38143
 H414 H 0.48395 0.16443 -0.16871
 H415 H 0.47789 0.12936 -0.09589
 H416 H 0.52388 0.10678 -0.33251
 H417 H 0.51552 0.07125 -0.25559
 H418 H 0.48191 0.09298 -0.07852
 C419 C 0.68632 0.52053 -0.41599
 C420 C 0.67207 0.50512 -0.35423
 C421 C 0.67781 0.48696 -0.32758
 C422 C 0.69666 0.48418 -0.36293
 C423 C 0.70977 0.49884 -0.42682
 C424 C 0.70476 0.51746 -0.45087
 C425 C 0.66463 0.47152 -0.26604
 C426 C 0.64575 0.47353 -0.23033
 C427 C 0.63912 0.49115 -0.25491
 C428 C 0.65256 0.50726 -0.31780
 C429 C 0.64596 0.52490 -0.34242
 C430 C 0.62718 0.52700 -0.30658
 C431 C 0.61394 0.51154 -0.24523
 C432 C 0.61954 0.49326 -0.21868
 C433 C 0.60519 0.47783 -0.15696
 C434 C 0.58644 0.48065 -0.12310
 C435 C 0.58116 0.49892 -0.14904
 C436 C 0.59502 0.51427 -0.21045
 H437 H 0.68404 0.53541 -0.43850
 H438 H 0.70037 0.46983 -0.34260
 H439 H 0.71594 0.53064 -0.49487
 H440 H 0.66894 0.45764 -0.24518
 H441 H 0.63670 0.46087 -0.18321
 H442 H 0.65493 0.53750 -0.38971
 H443 H 0.62291 0.54091 -0.32746
 H444 H 0.60784 0.46330 -0.13324
 H445 H 0.57605 0.46835 -0.07599
 H446 H 0.59108 0.52839 -0.23149
 C447 C 0.79368 0.31727 -0.30589
 C448 C 0.81928 0.32758 -0.32073
 C449 C 0.82622 0.31647 -0.37995
 C450 C 0.80836 0.29599 -0.42122
 C451 C 0.78301 0.28675 -0.40942
 C452 C 0.77598 0.29723 -0.34928
 C453 C 0.85101 0.32574 -0.39815
 C454 C 0.86928 0.34633 -0.36038
 C455 C 0.86351 0.35840 -0.30158
 C456 C 0.83822 0.34838 -0.27925
 C457 C 0.83288 0.35923 -0.21554
 C458 C 0.85161 0.37901 -0.17475
 C459 C 0.87629 0.38937 -0.19725
 C460 C 0.88241 0.37969 -0.26269
 C461 C 0.90731 0.39183 -0.28702
 C462 C 0.92555 0.41133 -0.24473
 C463 C 0.91987 0.41983 -0.17682
 C464 C 0.89500 0.40919 -0.15443
 H465 H 0.78667 0.32463 -0.26257
 H466 H 0.81448 0.28673 -0.46087
 H467 H 0.75662 0.29067 -0.33766
 H468 H 0.85639 0.31712 -0.44291
 H469 H 0.88794 0.35187 -0.37735
 H470 H 0.81437 0.35238 -0.19428
 H471 H 0.84668 0.38635 -0.12519
 H472 H 0.91339 0.38695 -0.33914
 H473 H 0.94440 0.41968 -0.26554
 H474 H 0.89025 0.41593 -0.10300
 C475 C 0.47935 -0.17979 -0.43284
 C476 C 0.49027 -0.16978 -0.36018
 C477 C 0.50108 -0.18174 -0.31883
 C478 C 0.50274 -0.20147 -0.35247
 C479 C 0.49356 -0.20997 -0.42762
 C480 C 0.48078 -0.19957 -0.46517
 C481 C 0.51058 -0.17370 -0.24454
 C482 C 0.50951 -0.15408 -0.21002
 C483 C 0.49954 -0.14111 -0.24960
 C484 C 0.49057 -0.14855 -0.32698
 C485 C 0.48304 -0.13402 -0.36962
 C486 C 0.48381 -0.11318 -0.33752
 C487 C 0.49147 -0.10630 -0.26109
 C488 C 0.49889 -0.12050 -0.21525
 C489 C 0.50504 -0.11358 -0.13655
 C490 C 0.50445 -0.09313 -0.10587
 C491 C 0.49812 -0.07875 -0.15252
 C492 C 0.49162 -0.08534 -0.22999
 H493 H 0.46906 -0.17311 -0.46548
 H494 H 0.51241 -0.20926 -0.32125
 H495 H 0.47136 -0.20702 -0.51968
 H496 H 0.51890 -0.18272 -0.21249
 H497 H 0.51754 -0.14893 -0.15294
 H498 H 0.47722 -0.13778 -0.42934
 H499 H 0.47816 -0.10241 -0.37288
 H500 H 0.50979 -0.12391 -0.09662
 H501 H 0.50908 -0.08843 -0.04530
 H502 H 0.48613 -0.07445 -0.26544
 C503 C 0.30015 0.48497 -0.29512
 C504 C 0.32518 0.49659 -0.31855
 C505 C 0.33146 0.50994 -0.38939
 C506 C 0.31326 0.51109 -0.43482
 C507 C 0.28833 0.49887 -0.41185
 C508 C 0.28226 0.48619 -0.34064
 C509 C 0.35592 0.52219 -0.41464
 C510 C 0.37442 0.52159 -0.37124
 C511 C 0.36921 0.50850 -0.30038
 C512 C 0.34412 0.49555 -0.27403
 C513 C 0.33876 0.48181 -0.20441
 C514 C 0.35713 0.48073 -0.16187
 C515 C 0.38165 0.49338 -0.18621
 C516 C 0.38819 0.50769 -0.25536
 C517 C 0.41354 0.52060 -0.27626
 C518 C 0.43128 0.51886 -0.23129
 C519 C 0.42443 0.50429 -0.16448
 C520 C 0.39971 0.49170 -0.14167
 H521 H 0.29360 0.47470 -0.24190
 H522 H 0.31878 0.52228 -0.48697
 H523 H 0.26327 0.47626 -0.32083
 H524 H 0.36085 0.53238 -0.46885
 H525 H 0.39270 0.53145 -0.39565
 H526 H 0.32038 0.47132 -0.18116
 H527 H 0.35204 0.46980 -0.10909
 H528 H 0.42038 0.53229 -0.32667
 H529 H 0.45050 0.52886 -0.24900
 H530 H 0.39457 0.48058 -0.08928
 C531 C 1.16927 0.69998 -0.32649
 C532 C 1.16515 0.67549 -0.31999
 C533 C 1.18288 0.67035 -0.35359
 C534 C 1.20279 0.68855 -0.39621
 C535 C 1.20602 0.71234 -0.40397
 C536 C 1.18952 0.71811 -0.36752
 C537 C 1.18061 0.64703 -0.34493
 C538 C 1.16128 0.62866 -0.30256
 C539 C 1.14286 0.63262 -0.26919
 C540 C 1.14424 0.65605 -0.28100
 C541 C 1.12429 0.65897 -0.25578
 C542 C 1.10382 0.63979 -0.21955
 C543 C 1.10277 0.61727 -0.20431
 C544 C 1.12263 0.61362 -0.22663
 C545 C 1.12150 0.59114 -0.20466
 C546 C 1.10104 0.57277 -0.16532
 C547 C 1.08091 0.57598 -0.14744
 C548 C 1.08191 0.59832 -0.16680
 H549 H 1.15743 0.70581 -0.29950
 H550 H 1.21588 0.68427 -0.42365
 H551 H 1.19202 0.73657 -0.37240
 H552 H 1.19405 0.64298 -0.37078
 H553 H 1.16076 0.61111 -0.29953
 H554 H 1.12350 0.67566 -0.26591
 H555 H 1.08872 0.64272 -0.20262
 H556 H 1.13633 0.58735 -0.21559
 H557 H 1.10075 0.55572 -0.15022
 H558 H 1.06657 0.60108 -0.15157
 C559 C 0.79769 0.47837 -0.29486
 C560 C 0.82304 0.49316 -0.31406
 C561 C 0.82901 0.50928 -0.37846
 C562 C 0.81037 0.50970 -0.42287
 C563 C 0.78524 0.49388 -0.40629
 C564 C 0.77923 0.47887 -0.33992
 C565 C 0.85358 0.52493 -0.39889
 C566 C 0.87261 0.52494 -0.35717
 C567 C 0.86784 0.50902 -0.29315
 C568 C 0.84263 0.49264 -0.27171
 C569 C 0.83786 0.47602 -0.20967
 C570 C 0.85695 0.47542 -0.16972
 C571 C 0.88157 0.49147 -0.18918
 C572 C 0.88745 0.50868 -0.25057
 C573 C 0.91279 0.52485 -0.26671
 C574 C 0.93129 0.52354 -0.22487
 C575 C 0.92537 0.50619 -0.16528
 C576 C 0.90038 0.49027 -0.14755
 H577 H 0.79141 0.46614 -0.24554
 H578 H 0.81559 0.52300 -0.46966
 H579 H 0.76010 0.46658 -0.32435
 H580 H 0.85819 0.53729 -0.44820
 H581 H 0.89095 0.53749 -0.37784
 H582 H 0.81944 0.46282 -0.19110
 H583 H 0.85234 0.46219 -0.12293
 H584 H 0.91912 0.53888 -0.31099
 H585 H 0.95039 0.53622 -0.23978
 H586 H 0.89547 0.47680 -0.10132
 C587 C 0.53362 0.32910 -0.29883
 C588 C 0.51810 0.33891 -0.31833
 C589 C 0.50219 0.32857 -0.38316
 C590 C 0.50242 0.30977 -0.42717
 C591 C 0.51840 0.30069 -0.40866
 C592 C 0.53360 0.31029 -0.34288
 C593 C 0.48586 0.33681 -0.40365
 C594 C 0.48452 0.35483 -0.36032
 C595 C 0.49977 0.36563 -0.29472
 C596 C 0.51746 0.35820 -0.27501
 C597 C 0.53409 0.37050 -0.21339
 C598 C 0.53315 0.38904 -0.17137
 C599 C 0.51537 0.39577 -0.18783
 C600 C 0.49819 0.38394 -0.24899
 C601 C 0.47993 0.39080 -0.26131
 C602 C 0.47944 0.40921 -0.21691
 C603 C 0.49694 0.42143 -0.15825
 C604 C 0.51476 0.41441 -0.14353
 H605 H 0.54578 0.33526 -0.24929
 H606 H 0.48918 0.30140 -0.47391
 H607 H 0.54615 0.30373 -0.32638
 H608 H 0.47383 0.32914 -0.45371
 H609 H 0.47157 0.36025 -0.38102
 H610 H 0.54850 0.36661 -0.19699
 H611 H 0.54644 0.39811 -0.12503
 H612 H 0.46551 0.38215 -0.30412
 H613 H 0.46520 0.41392 -0.22915
 H614 H 0.52834 0.42359 -0.09801
 C615 C 0.68669 0.16223 -0.39512
 C616 C 0.66777 0.16289 -0.35168
 C617 C 0.66899 0.18618 -0.34292
 C618 C 0.68804 0.20759 -0.37800
 C619 C 0.70608 0.20625 -0.42222
 C620 C 0.70545 0.18357 -0.42948
 C621 C 0.65114 0.18801 -0.29959
 C622 C 0.63216 0.16733 -0.26379
 C623 C 0.63008 0.14372 -0.27030
 C624 C 0.64790 0.14136 -0.31626
 C625 C 0.64514 0.11755 -0.32574
 C626 C 0.62607 0.09685 -0.29018
 C627 C 0.60901 0.09891 -0.24328
 C628 C 0.61074 0.12235 -0.23254
 C629 C 0.59312 0.12343 -0.18356
 C630 C 0.57489 0.10230 -0.14687
 C631 C 0.57331 0.07921 -0.15739
 C632 C 0.59031 0.07761 -0.20651
 H633 H 0.68773 0.14564 -0.40342
 H634 H 0.68865 0.22524 -0.37205
 H635 H 0.71962 0.18237 -0.46233
 H636 H 0.65189 0.20569 -0.29300
 H637 H 0.61922 0.17057 -0.23187
 H638 H 0.65733 0.11412 -0.36106
 H639 H 0.62479 0.07901 -0.29912
 H640 H 0.59298 0.14030 -0.17124
 H641 H 0.56186 0.10417 -0.10995
 H642 H 0.58930 0.05986 -0.21507
 C643 C 1.20091 0.52039 -0.30571
 C644 C 1.17554 0.50406 -0.32115
 C645 C 1.16953 0.48714 -0.38338
 C646 C 1.18815 0.48708 -0.42857
 C647 C 1.21322 0.50372 -0.41376
 C648 C 1.21930 0.52006 -0.35085
 C649 C 1.14496 0.47016 -0.40021
 C650 C 1.12600 0.46924 -0.35598
 C651 C 1.13087 0.48553 -0.29301
 C652 C 1.15601 0.50369 -0.27659
 C653 C 1.16072 0.52103 -0.21694
 C654 C 1.14163 0.52058 -0.17433
 C655 C 1.11714 0.50264 -0.18835
 C656 C 1.11138 0.48459 -0.24693
 C657 C 1.08627 0.46628 -0.25672
 C658 C 1.06773 0.46672 -0.21305
 C659 C 1.07344 0.48520 -0.15753
 C660 C 1.09829 0.50285 -0.14449
 H661 H 1.20728 0.53351 -0.25874
 H662 H 1.18301 0.47330 -0.47387
 H663 H 1.23843 0.53324 -0.33760
 H664 H 1.14028 0.45733 -0.44817
 H665 H 1.10760 0.45573 -0.37391
 H666 H 1.17902 0.53564 -0.20249
 H667 H 1.14614 0.53446 -0.12975
 H668 H 1.08021 0.45124 -0.29734
 H669 H 1.04874 0.45255 -0.22367
 H670 H 1.10302 0.51711 -0.10103
 C671 C 0.47687 0.68041 -0.30563
 C672 C 0.49601 0.67441 -0.31169
 C673 C 0.51552 0.68843 -0.36432
 C674 C 0.51559 0.70736 -0.40869
 C675 C 0.49614 0.71244 -0.40356
 C676 C 0.47703 0.69913 -0.35091
 C677 C 0.53476 0.68336 -0.37337
 C678 C 0.53499 0.66428 -0.33251
 C679 C 0.51589 0.64941 -0.28024
 C680 C 0.49633 0.65488 -0.26845
 C681 C 0.47771 0.64058 -0.21409
 C682 C 0.47779 0.62127 -0.17399
 C683 C 0.49629 0.61527 -0.18642
 C684 C 0.51566 0.62921 -0.23949
 C685 C 0.53379 0.62205 -0.25017
 C686 C 0.53254 0.60193 -0.21028
 C687 C 0.51328 0.58820 -0.15823
 C688 C 0.49531 0.59516 -0.14628
 H689 H 0.46126 0.67077 -0.26762
 H690 H 0.53064 0.71796 -0.44864
 H691 H 0.46184 0.70285 -0.34615
 H692 H 0.54976 0.69414 -0.41326
 H693 H 0.55060 0.66175 -0.34334
 H694 H 0.46269 0.64382 -0.20076
 H695 H 0.46302 0.61076 -0.13310
 H696 H 0.54906 0.63132 -0.28962
 H697 H 0.54671 0.59703 -0.22086
 H698 H 0.48023 0.58470 -0.10631
 C699 C 0.33081 -0.19272 -0.37799
 C700 C 0.32888 -0.17415 -0.33629
 C701 C 0.30582 -0.17474 -0.33770
 C702 C 0.28535 -0.19397 -0.37567
 C703 C 0.28773 -0.21205 -0.41663
 C704 C 0.31054 -0.21126 -0.41781
 C705 C 0.30336 -0.15599 -0.30214
 C706 C 0.32348 -0.13618 -0.26675
 C707 C 0.34676 -0.13482 -0.26309
 C708 C 0.34913 -0.15479 -0.29473
 C709 C 0.37141 -0.15504 -0.28213
 C710 C 0.39096 -0.13612 -0.24176
 C711 C 0.38946 -0.11578 -0.21489
 C712 C 0.36761 -0.11446 -0.22699
 C713 C 0.36777 -0.09255 -0.20383
 C714 C 0.38848 -0.07322 -0.16807
 C715 C 0.40946 -0.07527 -0.15299
 C716 C 0.40985 -0.09659 -0.17645
 H717 H 0.34792 -0.19298 -0.38307
 H718 H 0.26771 -0.19443 -0.37597
 H719 H 0.31265 -0.22502 -0.45003
 H720 H 0.28575 -0.15640 -0.30275
 H721 H 0.31998 -0.12255 -0.24024
 H722 H 0.37400 -0.17014 -0.30053
 H723 H 0.40759 -0.13725 -0.23251
 H724 H 0.35244 -0.08948 -0.21452
 H725 H 0.38800 -0.05669 -0.15127
 H726 H 0.42634 -0.09795 -0.16655
 C727 C 0.53083 -0.16143 0.38818
 C728 C 0.51518 -0.16333 0.32553
 C729 C 0.49697 -0.18743 0.30166
 C730 C 0.49402 -0.20843 0.34124
 C731 C 0.50852 -0.20596 0.40624
 C732 C 0.52746 -0.18246 0.42772
 C733 C 0.48119 -0.19050 0.24013
 C734 C 0.48208 -0.17018 0.20385
 C735 C 0.49889 -0.14578 0.22794
 C736 C 0.51638 -0.14226 0.28768
 C737 C 0.53410 -0.11781 0.30860
 C738 C 0.53415 -0.09752 0.27492
 C739 C 0.51647 -0.10067 0.21963
 C740 C 0.49864 -0.12479 0.19489
 C741 C 0.48086 -0.12685 0.13958
 C742 C 0.48083 -0.10593 0.11078
 C743 C 0.49846 -0.08217 0.13564
 C744 C 0.51637 -0.07971 0.18971
 H745 H 0.54533 -0.14401 0.40992
 H746 H 0.47942 -0.22671 0.32441
 H747 H 0.53908 -0.18033 0.47732
 H748 H 0.46756 -0.20889 0.22078
 H749 H 0.46914 -0.17433 0.15702
 H750 H 0.54828 -0.11360 0.35129
 H751 H 0.54798 -0.07912 0.29348
 H752 H 0.46638 -0.14434 0.11819
 H753 H 0.46675 -0.10850 0.06889
 H754 H 0.53014 -0.06144 0.20952
 C755 C 0.30723 0.46929 0.39365
 C756 C 0.32283 0.48700 0.33812
 C757 C 0.31831 0.50669 0.32029
 C758 C 0.29955 0.50877 0.35826
 C759 C 0.28521 0.49175 0.41539
 C760 C 0.28874 0.47170 0.43145
 C761 C 0.33284 0.52454 0.26584
 C762 C 0.35231 0.52382 0.22963
 C763 C 0.35817 0.50511 0.24665
 C764 C 0.34292 0.48613 0.30078
 C765 C 0.34845 0.46712 0.31643
 C766 C 0.36834 0.46679 0.28170
 C767 C 0.38366 0.48537 0.23023
 C768 C 0.37885 0.50480 0.21165
 C769 C 0.39521 0.52327 0.15945
 C770 C 0.41528 0.52236 0.12747
 C771 C 0.41991 0.50311 0.14613
 C772 C 0.40392 0.48463 0.19756
 H773 H 0.30901 0.45358 0.41040
 H774 H 0.29670 0.52427 0.34570
 H775 H 0.27755 0.45821 0.47500
 H776 H 0.32929 0.53948 0.25156
 H777 H 0.36249 0.53841 0.18851
 H778 H 0.33778 0.45209 0.35568
 H779 H 0.37189 0.45185 0.29590
 H780 H 0.39326 0.53885 0.14232
 H781 H 0.42732 0.53698 0.08811
 H782 H 0.40723 0.46959 0.21257
 C783 C 1.16090 0.68790 0.39748
 C784 C 1.16206 0.66914 0.35438
 C785 C 1.18554 0.67088 0.34604
 C786 C 1.20662 0.69013 0.38177
 C787 C 1.20481 0.70795 0.42600
 C788 C 1.18196 0.70693 0.43239
 C789 C 1.18789 0.65335 0.30241
 C790 C 1.16752 0.63416 0.26594
 C791 C 1.14370 0.63149 0.27240
 C792 C 1.14084 0.64896 0.31882
 C793 C 1.11682 0.64549 0.32894
 C794 C 1.09639 0.62610 0.29345
 C795 C 1.09895 0.60942 0.24600
 C796 C 1.12261 0.61185 0.23446
 C797 C 1.12412 0.59460 0.18463
 C798 C 1.10312 0.57588 0.14844
 C799 C 1.07978 0.57349 0.16054
 C800 C 1.07786 0.59033 0.20976
 H801 H 1.14415 0.68867 0.40481
 H802 H 1.22442 0.69110 0.37625
 H803 H 1.18040 0.72099 0.46483
 H804 H 1.20576 0.65453 0.29606
 H805 H 1.17111 0.62147 0.23378
 H806 H 1.11301 0.65730 0.36501
 H807 H 1.07834 0.62423 0.30302
 H808 H 1.14124 0.59512 0.17134
 H809 H 1.10528 0.56319 0.11067
 H810 H 1.05995 0.58878 0.21938
 C811 C 0.53454 0.20634 0.32366
 C812 C 0.51500 0.18159 0.33138
 C813 C 0.49545 0.17714 0.38280
 C814 C 0.49571 0.19667 0.42440
 C815 C 0.51564 0.22079 0.41777
 C816 C 0.53477 0.22550 0.36624
 C817 C 0.47583 0.15321 0.39324
 C818 C 0.47509 0.13336 0.35430
 C819 C 0.49406 0.13663 0.30267
 C820 C 0.51424 0.16118 0.29040
 C821 C 0.53296 0.16449 0.23759
 C822 C 0.53205 0.14465 0.19798
 C823 C 0.51263 0.12064 0.20953
 C824 C 0.49345 0.11618 0.26248
 C825 C 0.47449 0.09133 0.27302
 C826 C 0.47447 0.07203 0.23201
 C827 C 0.49323 0.07659 0.17881
 C828 C 0.51233 0.10103 0.16813
 H829 H 0.55015 0.21159 0.28614
 H830 H 0.48071 0.19307 0.46363
 H831 H 0.55027 0.24411 0.36011
 H832 H 0.46085 0.14972 0.43241
 H833 H 0.45916 0.11561 0.36591
 H834 H 0.54865 0.18231 0.22487
 H835 H 0.54681 0.14818 0.15782
 H836 H 0.45938 0.08601 0.31270
 H837 H 0.45947 0.05336 0.24192
 H838 H 0.52708 0.10487 0.12753
 C839 C 0.66879 0.46911 0.35300
 C840 C 0.66987 0.48986 0.31551
 C841 C 0.69192 0.51303 0.32286
 C842 C 0.71244 0.51480 0.36242
 C843 C 0.71050 0.49435 0.40227
 C844 C 0.68872 0.47152 0.39691
 C845 C 0.69301 0.53444 0.29347
 C846 C 0.67217 0.53362 0.26115
 C847 C 0.64982 0.51100 0.25306
 C848 C 0.64938 0.48862 0.27442
 C849 C 0.62867 0.46585 0.25301
 C850 C 0.60854 0.46503 0.21513
 C851 C 0.60763 0.48670 0.20189
 C852 C 0.62801 0.50995 0.22282
 C853 C 0.62544 0.53118 0.21518
 C854 C 0.60373 0.52937 0.18598
 C855 C 0.58412 0.50653 0.16163
 C856 C 0.58635 0.48529 0.16865
 H857 H 0.65230 0.45116 0.35314
 H858 H 0.72934 0.53250 0.36728
 H859 H 0.68705 0.45559 0.42786
 H860 H 0.70985 0.55217 0.29828
 H861 H 0.67428 0.55093 0.24040
 H862 H 0.62801 0.44837 0.26221
 H863 H 0.59325 0.44720 0.19811
 H864 H 0.63957 0.54928 0.23396
 H865 H 0.60250 0.54609 0.18110
 H866 H 0.57137 0.46759 0.14954
 C867 C 0.82828 0.29700 0.35394
 C868 C 0.83169 0.32091 0.33986
 C869 C 0.81235 0.32553 0.36108
 C870 C 0.79167 0.30761 0.40192
 C871 C 0.78918 0.28445 0.41793
 C872 C 0.80704 0.27893 0.39092
 C873 C 0.81377 0.34793 0.34114
 C874 C 0.83365 0.36561 0.29854
 C875 C 0.85359 0.36205 0.27796
 C876 C 0.85335 0.34012 0.30367
 C877 C 0.87502 0.33848 0.29479
 C878 C 0.89606 0.35747 0.26010
 C879 C 0.89583 0.37808 0.22900
 C880 C 0.87421 0.38013 0.23477
 C881 C 0.87382 0.39979 0.19495
 C882 C 0.89447 0.41725 0.15421
 C883 C 0.91656 0.41643 0.15451
 C884 C 0.91702 0.39658 0.19152
 H885 H 0.84137 0.29156 0.33496
 H886 H 0.77734 0.31152 0.42062
 H887 H 0.80492 0.26079 0.40118
 H888 H 0.79912 0.35165 0.35730
 H889 H 0.83352 0.38251 0.28550
 H890 H 0.87660 0.32316 0.31748
 H891 H 0.91249 0.35573 0.25612
 H892 H 0.85746 0.40156 0.19180
 H893 H 0.89313 0.43159 0.12269
 H894 H 0.93370 0.39520 0.18957
   
