data_POSCAR
  _audit_creation_date              2014-09-24
  _audit_creation_method            'ToBaCCo'
  _symmetry_space_group_name_H-M    'P1'
  _symmetry_Int_Tables_number       1
  _symmetry_cell_setting            triclinic
  loop_
  _symmetry_equiv_pos_as_xyz
 x,y,z
_cell_length_a 47.3535
_cell_length_b 47.0376
_cell_length_c 47.3105
_cell_angle_alpha 90.150300
_cell_angle_beta 90.001700
_cell_angle_gamma 90.009900
loop_
  _atom_site_label
  _atom_site_type_symbol
  _atom_site_fract_x
  _atom_site_fract_y
  _atom_site_fract_z
O1 O 0.36163 0.32520 -0.03006
 O2 O 0.32525 0.36091 0.02830
 O3 O 0.36301 0.32135 0.02447
 O4 O 0.32248 0.36360 -0.02621
 O5 O 0.28924 0.33083 -0.02731
 O6 O 0.33012 0.28813 0.02394
 O7 O 0.29166 0.32841 0.02756
 O8 O 0.32905 0.29168 -0.03089
 Cu9 Cu 0.34636 0.34602 -0.00084
 Cu10 Cu 0.30666 0.30642 -0.00180
 C11 C 0.35201 0.30216 -0.04019
 C12 C 0.30214 0.35115 0.03774
 C13 C 0.35373 0.29746 0.03276
 C14 C 0.29873 0.35483 -0.03522
 O15 O 0.67790 0.63929 0.02717
 O16 O 0.63735 0.67581 -0.02786
 O17 O 0.67531 0.63652 -0.02738
 O18 O 0.63889 0.67821 0.02679
 O19 O 0.67139 0.71169 0.02407
 O20 O 0.70879 0.66893 -0.03017
 O21 O 0.67027 0.70888 -0.03081
 O22 O 0.71120 0.67198 0.02467
 Cu23 Cu 0.65410 0.65422 0.00006
 Cu24 Cu 0.69378 0.69372 -0.00320
 C25 C 0.70169 0.64896 0.03499
 C26 C 0.64673 0.69859 -0.03874
 C27 C 0.69834 0.64525 -0.03801
 C28 C 0.64841 0.70226 0.03434
 O29 O 0.67775 0.36070 0.97240
 O30 O 0.63731 0.32415 1.02750
 O31 O 0.67526 0.36345 1.02694
 O32 O 0.63872 0.32180 0.97283
 O33 O 0.67120 0.28831 0.97546
 O34 O 0.70874 0.33103 1.02964
 O35 O 0.67021 0.29109 1.03036
 O36 O 0.71104 0.32799 0.97480
 Cu37 Cu 0.65399 0.34576 0.99954
 Cu38 Cu 0.69366 0.30625 1.00269
 C39 C 0.70152 0.35102 0.96451
 C40 C 0.64670 0.30137 1.03835
 C41 C 0.69831 0.35471 1.03752
 C42 C 0.64820 0.29775 0.96524
 O43 O 0.36174 0.67487 1.03022
 O44 O 0.32519 0.63907 0.97201
 O45 O 0.36293 0.67868 0.97569
 O46 O 0.32259 0.63642 1.02653
 O47 O 0.28933 0.66915 1.02771
 O48 O 0.33002 0.71186 0.97631
 O49 O 0.29158 0.67154 0.97283
 O50 O 0.32913 0.70835 1.03114
 Cu51 Cu 0.34638 0.65401 1.00107
 Cu52 Cu 0.30666 0.69356 1.00213
 C53 C 0.35214 0.69791 1.04036
 C54 C 0.30204 0.64880 0.96264
 C55 C 0.35361 0.70256 0.96742
 C56 C 0.29887 0.64517 1.03560
 O57 O -0.02647 0.35586 0.31570
 O58 O 0.02777 0.31666 0.35458
 O59 O 0.02805 0.35479 0.31521
 O60 O -0.02665 0.31773 0.35515
 O61 O -0.02771 0.28342 0.32337
 O62 O 0.02705 0.32147 0.28230
 O63 O 0.02699 0.28248 0.32255
 O64 O -0.02772 0.32234 0.28301
 Cu65 Cu 0.00076 0.33961 0.33833
 Cu66 Cu -0.00046 0.29900 0.29950
 C67 C -0.03608 0.34621 0.29254
 C68 C 0.03635 0.29271 0.34564
 C69 C 0.03660 0.34491 0.29176
 C70 C -0.03616 0.29394 0.34670
 O71 O 0.02827 0.68311 0.64523
 O72 O -0.02610 0.64391 0.68393
 O73 O -0.02614 0.68200 0.64444
 O74 O 0.02841 0.64501 0.68463
 O75 O 0.02729 0.67836 0.71751
 O76 O -0.02736 0.71632 0.67620
 O77 O -0.02749 0.67745 0.71660
 O78 O 0.02734 0.71732 0.67722
 Cu79 Cu 0.00120 0.66015 0.66139
 Cu80 Cu -0.00018 0.70080 0.70019
 C81 C 0.03679 0.70708 0.65417
 C82 C -0.03581 0.65357 0.70705
 C83 C -0.03569 0.70578 0.65284
 C84 C 0.03688 0.65492 0.70810
 O85 O 1.02704 0.63091 0.32909
 O86 O 0.97267 0.67008 0.36843
 O87 O 0.97225 0.63156 0.32927
 O88 O 1.02743 0.66925 0.36855
 O89 O 1.02792 0.70317 0.33653
 O90 O 0.97264 0.66479 0.29645
 O91 O 0.97291 0.70386 0.33618
 O92 O 1.02769 0.66432 0.29646
 Cu93 Cu 0.99983 0.64712 0.35204
 Cu94 Cu 1.00036 0.68742 0.31312
 C95 C 1.03657 0.64069 0.30598
 C96 C 0.96355 0.69370 0.35923
 C97 C 0.96308 0.64149 0.30610
 C98 C 1.03700 0.69280 0.35963
 O99 O 0.97300 0.32996 0.63117
 O100 O 1.02726 0.36910 0.67074
 O101 O 1.02776 0.33080 0.63124
 O102 O 0.97246 0.36845 0.67038
 O103 O 0.97275 0.33519 0.70317
 O104 O 1.02812 0.29683 0.66322
 O105 O 1.02779 0.33566 0.70333
 O106 O 0.97312 0.29617 0.66340
 Cu107 Cu 1.00011 0.35291 0.64769
 Cu108 Cu 1.00050 0.31257 0.68656
 C109 C 0.96384 0.30634 0.64032
 C110 C 1.03671 0.35929 0.69387
 C111 C 1.03727 0.30722 0.64016
 C112 C 0.96322 0.35850 0.69351
 O113 O 0.36206 0.02766 0.32426
 O114 O 0.32183 -0.02793 0.36054
 O115 O 0.36110 -0.02731 0.32203
 O116 O 0.32382 0.02700 0.36300
 O117 O 0.29061 0.02937 0.33038
 O118 O 0.32874 -0.02515 0.28857
 O119 O 0.28869 -0.02586 0.32784
 O120 O 0.32943 0.03004 0.29106
 Cu121 Cu 0.34545 -0.00050 0.34571
 Cu122 Cu 0.30601 0.00216 0.30611
 C123 C 0.35278 0.03835 0.30146
 C124 C 0.29816 -0.03605 0.35083
 C125 C 0.35181 -0.03513 0.29809
 C126 C 0.30088 0.03748 0.35390
 O127 O 0.63921 0.03045 0.67499
 O128 O 0.67568 -0.02808 0.63936
 O129 O 0.63768 -0.02437 0.67852
 O130 O 0.67858 0.02684 0.63707
 O131 O 0.71164 0.02761 0.66992
 O132 O 0.67039 -0.02414 0.71172
 O133 O 0.70908 -0.02763 0.67188
 O134 O 0.67156 0.03099 0.70855
 Cu135 Cu 0.65455 0.00118 0.65421
 Cu136 Cu 0.69402 0.00179 0.69385
 C137 C 0.64869 0.04046 0.69803
 C138 C 0.69870 -0.03771 0.64915
 C139 C 0.64679 -0.03285 0.70229
 C140 C 0.70220 0.03581 0.64615
 O141 O 0.32168 1.02767 0.63903
 O142 O 0.36210 0.97240 0.67558
 O143 O 0.32393 0.97274 0.63673
 O144 O 0.36090 1.02738 0.67756
 O145 O 0.32852 1.02517 0.71100
 O146 O 0.29065 0.97036 0.66928
 O147 O 0.32940 0.96998 0.70871
 O148 O 0.28851 1.02559 0.67170
 Cu149 Cu 0.34540 1.00040 0.65397
 Cu150 Cu 0.30591 0.99770 0.69352
 C151 C 0.29797 1.03574 0.64869
 C152 C 0.35281 0.96175 0.69841
 C153 C 0.30100 0.96222 0.64581
 C154 C 0.35155 1.03524 0.70146
 O155 O 0.63850 0.96963 0.32566
 O156 O 0.67410 1.02777 0.36272
 O157 O 0.63669 1.02451 0.32292
 O158 O 0.67739 0.97288 0.36409
 O159 O 0.71081 0.97281 0.33161
 O160 O 0.66993 1.02516 0.29026
 O161 O 0.70801 1.02801 0.33083
 O162 O 0.67121 0.96996 0.29246
 Cu163 Cu 0.65339 0.99866 0.34706
 Cu164 Cu 0.69337 0.99901 0.30799
 C165 C 0.64831 0.96010 0.30256
 C166 C 0.69734 1.03765 0.35364
 C167 C 0.64612 1.03351 0.29946
 C168 C 0.70117 0.96419 0.35513
 C169 C 0.88449 0.77656 0.50358
 C170 C 0.87183 0.78411 0.47811
 C171 C 0.85031 0.80457 0.47777
 C172 C 0.84213 0.81879 0.50298
 C173 C 0.85605 0.81124 0.52840
 C174 C 0.87642 0.78973 0.52870
 C175 C 0.81917 0.84098 0.50293
 C176 C 0.80508 0.84872 0.52828
 C177 C 0.78432 0.86988 0.52834
 C178 C 0.77614 0.88254 0.50306
 C179 C 0.78897 0.87475 0.47771
 C180 C 0.81083 0.85469 0.47760
 H181 H 0.90058 0.76013 0.50390
 H182 H 0.84004 0.80878 0.45783
 H183 H 0.85143 0.82176 0.54818
 H184 H 0.80968 0.83843 0.54812
 H185 H 0.75954 0.89845 0.50310
 H186 H 0.82105 0.85016 0.45769
 C187 C 0.11526 0.22323 0.49708
 C188 C 0.12337 0.20924 0.47241
 C189 C 0.14349 0.18747 0.47358
 C190 C 0.15707 0.18051 0.49940
 C191 C 0.14884 0.19558 0.52404
 C192 C 0.12762 0.21627 0.52287
 C193 C 0.17987 0.15819 0.50047
 C194 C 0.18785 0.14519 0.52632
 C195 C 0.20974 0.12515 0.52710
 C196 C 0.22292 0.11670 0.50212
 C197 C 0.21508 0.12867 0.47642
 C198 C 0.19430 0.14976 0.47558
 H199 H 0.09938 0.23985 0.49616
 H200 H 0.14823 0.17631 0.45418
 H201 H 0.15888 0.19187 0.54419
 H202 H 0.17735 0.15027 0.54595
 H203 H 0.23956 0.10084 0.50272
 H204 H 0.18998 0.15951 0.45540
 C205 C 0.11540 0.77661 0.50267
 C206 C 0.12362 0.79057 0.52732
 C207 C 0.14380 0.81229 0.52611
 C208 C 0.15733 0.81923 0.50026
 C209 C 0.14898 0.80420 0.47563
 C210 C 0.12770 0.78357 0.47685
 C211 C 0.18019 0.84149 0.49914
 C212 C 0.18818 0.85446 0.47328
 C213 C 0.21013 0.87445 0.47247
 C214 C 0.22336 0.88288 0.49743
 C215 C 0.21551 0.87093 0.52315
 C216 C 0.19468 0.84989 0.52401
 H217 H 0.09948 0.76003 0.50362
 H218 H 0.14861 0.82342 0.54551
 H219 H 0.15897 0.80790 0.45545
 H220 H 0.17763 0.84940 0.45366
 H221 H 0.24003 0.89871 0.49681
 H222 H 0.19036 0.84016 0.54420
 C223 C 0.88443 0.22324 0.49590
 C224 C 0.87199 0.21574 0.52149
 C225 C 0.85055 0.19520 0.52207
 C226 C 0.84224 0.18084 0.49698
 C227 C 0.85591 0.18837 0.47141
 C228 C 0.87621 0.20995 0.47089
 C229 C 0.81940 0.15853 0.49732
 C230 C 0.80502 0.15070 0.47215
 C231 C 0.78429 0.12949 0.47241
 C232 C 0.77650 0.11685 0.49781
 C233 C 0.78965 0.12471 0.52298
 C234 C 0.81144 0.14483 0.52277
 H235 H 0.90047 0.23972 0.49541
 H236 H 0.84045 0.19103 0.54209
 H237 H 0.85114 0.17777 0.45171
 H238 H 0.80934 0.16099 0.45224
 H239 H 0.75991 0.10092 0.49803
 H240 H 0.82190 0.14943 0.54255
 C241 C 0.49952 0.88461 0.77724
 C242 C 0.47435 0.87153 0.78510
 C243 C 0.47442 0.85040 0.80587
 C244 C 0.49971 0.84304 0.82011
 C245 C 0.52491 0.85722 0.81218
 C246 C 0.52480 0.87728 0.79037
 C247 C 0.49985 0.82061 0.84273
 C248 C 0.52512 0.80628 0.85013
 C249 C 0.52519 0.78567 0.87141
 C250 C 0.50005 0.77805 0.88463
 C251 C 0.47480 0.79125 0.87726
 C252 C 0.47468 0.81291 0.85703
 H253 H 0.49947 0.90047 0.76061
 H254 H 0.45471 0.83977 0.81035
 H255 H 0.54474 0.85301 0.82265
 H256 H 0.54480 0.81056 0.83941
 H257 H 0.50010 0.76152 0.90060
 H258 H 0.45487 0.82344 0.85276
 C259 C 0.49950 0.11644 0.22384
 C260 C 0.47434 0.12935 0.21570
 C261 C 0.47447 0.15032 0.19477
 C262 C 0.49984 0.15766 0.18062
 C263 C 0.52503 0.14365 0.18886
 C264 C 0.52483 0.12376 0.21082
 C265 C 0.50003 0.17988 0.15778
 C266 C 0.52532 0.19412 0.15026
 C267 C 0.52543 0.21452 0.12879
 C268 C 0.50031 0.22205 0.11549
 C269 C 0.47504 0.20894 0.12295
 C270 C 0.47488 0.18747 0.14338
 H271 H 0.49938 0.10069 0.24057
 H272 H 0.45475 0.16082 0.19007
 H273 H 0.54492 0.14782 0.17848
 H274 H 0.54499 0.18994 0.16104
 H275 H 0.50039 0.23844 0.09937
 H276 H 0.45505 0.17700 0.14771
 C277 C 0.50026 0.11628 0.77614
 C278 C 0.52550 0.12919 0.78427
 C279 C 0.52541 0.15028 0.80519
 C280 C 0.50011 0.15778 0.81937
 C281 C 0.47487 0.14377 0.81118
 C282 C 0.47494 0.12377 0.78920
 C283 C 0.49999 0.18022 0.84215
 C284 C 0.47473 0.19449 0.84976
 C285 C 0.47467 0.21514 0.87111
 C286 C 0.49989 0.22292 0.88421
 C287 C 0.52517 0.20978 0.87664
 C288 C 0.52520 0.18805 0.85636
 H289 H 0.50031 0.10048 0.75938
 H290 H 0.54517 0.16079 0.80983
 H291 H 0.45502 0.14807 0.82158
 H292 H 0.45501 0.19015 0.83912
 H293 H 0.49988 0.23951 0.90020
 H294 H 0.54502 0.17757 0.85197
 C295 C 0.50079 0.88464 0.22288
 C296 C 0.52602 0.87175 0.21474
 C297 C 0.52592 0.85055 0.19391
 C298 C 0.50058 0.84293 0.17984
 C299 C 0.47535 0.85694 0.18803
 C300 C 0.47544 0.87704 0.20992
 C301 C 0.50043 0.82034 0.15720
 C302 C 0.47516 0.80602 0.14971
 C303 C 0.47506 0.78523 0.12848
 C304 C 0.50026 0.77736 0.11541
 C305 C 0.52556 0.79056 0.12286
 C306 C 0.52562 0.81242 0.14301
 H307 H 0.50085 0.90050 0.23959
 H308 H 0.54567 0.84005 0.18930
 H309 H 0.45547 0.85254 0.17772
 H310 H 0.45544 0.81043 0.16033
 H311 H 0.50023 0.76067 0.09952
 H312 H 0.54545 0.82292 0.14730
 C313 C 0.77652 0.49816 0.88348
 C314 C 0.78975 0.47303 0.87522
 C315 C 0.81167 0.47376 0.85532
 C316 C 0.81961 0.49971 0.84226
 C317 C 0.80516 0.52478 0.85053
 C318 C 0.78434 0.52398 0.87148
 C319 C 0.84237 0.50066 0.82002
 C320 C 0.85590 0.52659 0.81282
 C321 C 0.87607 0.52755 0.79120
 C322 C 0.88424 0.50260 0.77757
 C323 C 0.87189 0.47673 0.78473
 C324 C 0.85064 0.47574 0.80527
 H325 H 0.75986 0.49759 0.89922
 H326 H 0.82221 0.45401 0.85041
 H327 H 0.80948 0.54504 0.84078
 H328 H 0.85111 0.54622 0.82369
 H329 H 0.90015 0.50336 0.76107
 H330 H 0.84061 0.45550 0.80912
 C331 C 0.22418 0.49810 0.11673
 C332 C 0.21605 0.47263 0.12923
 C333 C 0.19504 0.47255 0.15000
 C334 C 0.18066 0.49793 0.15748
 C335 C 0.18899 0.52349 0.14402
 C336 C 0.21109 0.52353 0.12432
 C337 C 0.15737 0.49762 0.17917
 C338 C 0.14904 0.52275 0.19360
 C339 C 0.12735 0.52207 0.21376
 C340 C 0.11463 0.49631 0.22075
 C341 C 0.12282 0.47126 0.20730
 C342 C 0.14335 0.47195 0.18609
 H343 H 0.24094 0.49816 0.10107
 H344 H 0.19045 0.45256 0.16019
 H345 H 0.17856 0.54343 0.14844
 H346 H 0.15939 0.54285 0.18979
 H347 H 0.09847 0.49569 0.23701
 H348 H 0.14811 0.45224 0.17536
 C349 C 0.77675 0.50179 0.11585
 C350 C 0.79000 0.52691 0.12411
 C351 C 0.81191 0.52617 0.14401
 C352 C 0.81982 0.50022 0.15707
 C353 C 0.80535 0.47516 0.14880
 C354 C 0.78454 0.47597 0.12785
 C355 C 0.84257 0.49925 0.17933
 C356 C 0.85608 0.47332 0.18653
 C357 C 0.87621 0.47234 0.20818
 C358 C 0.88438 0.49729 0.22184
 C359 C 0.87205 0.52316 0.21466
 C360 C 0.85083 0.52416 0.19410
 H361 H 0.76008 0.50237 0.10010
 H362 H 0.82247 0.54592 0.14893
 H363 H 0.80965 0.45490 0.15856
 H364 H 0.85128 0.45370 0.17565
 H365 H 0.90027 0.49652 0.23836
 H366 H 0.84081 0.54440 0.19025
 C367 C 0.22384 0.50181 0.88381
 C368 C 0.21575 0.52728 0.87129
 C369 C 0.19478 0.52736 0.85046
 C370 C 0.18042 0.50197 0.84294
 C371 C 0.18872 0.47641 0.85642
 C372 C 0.21076 0.47638 0.87618
 C373 C 0.15718 0.50227 0.82119
 C374 C 0.14889 0.47714 0.80674
 C375 C 0.12726 0.47782 0.78650
 C376 C 0.11457 0.50358 0.77948
 C377 C 0.12273 0.52862 0.79295
 C378 C 0.14320 0.52794 0.81422
 H379 H 0.24057 0.50175 0.89950
 H380 H 0.19023 0.54734 0.84025
 H381 H 0.17830 0.45646 0.85196
 H382 H 0.15922 0.45704 0.81057
 H383 H 0.09847 0.50420 0.76316
 H384 H 0.14793 0.54765 0.82496
 C385 C 0.25707 0.40432 0.09588
 C386 C 0.28621 0.40756 0.09238
 C387 C 0.30109 0.38926 0.07454
 C388 C 0.28703 0.36737 0.05990
 C389 C 0.25801 0.36321 0.06473
 C390 C 0.24306 0.38174 0.08251
 C391 C 0.24144 0.42650 0.10989
 C392 C 0.22935 0.44676 0.11981
 H393 H 0.29723 0.42507 0.10242
 H394 H 0.32345 0.39293 0.07140
 H395 H 0.24661 0.34662 0.05366
 H396 H 0.22044 0.37922 0.08482
 C397 C 0.75162 0.59524 0.08836
 C398 C 0.76447 0.61787 0.07408
 C399 C 0.74806 0.63649 0.05779
 C400 C 0.71870 0.63236 0.05538
 C401 C 0.70595 0.61027 0.07073
 C402 C 0.72229 0.59192 0.08709
 C403 C 0.76806 0.57346 0.10198
 C404 C 0.77952 0.55320 0.11257
 H405 H 0.78719 0.62052 0.07473
 H406 H 0.75847 0.65323 0.04608
 H407 H 0.68341 0.60659 0.06941
 H408 H 0.71210 0.57442 0.09792
 C409 C 0.75137 0.40474 0.91105
 C410 C 0.72205 0.40809 0.91241
 C411 C 0.70573 0.38976 0.92880
 C412 C 0.71849 0.36763 0.94410
 C413 C 0.74784 0.36347 0.94159
 C414 C 0.76423 0.38208 0.92527
 C415 C 0.76781 0.42651 0.89739
 C416 C 0.77927 0.44675 0.88678
 H417 H 0.71186 0.42562 0.90163
 H418 H 0.68320 0.39346 0.93019
 H419 H 0.75826 0.34671 0.95326
 H420 H 0.78694 0.37940 0.92455
 C421 C 0.25682 0.59558 0.90462
 C422 C 0.24285 0.61816 0.91801
 C423 C 0.25784 0.63671 0.93575
 C424 C 0.28687 0.63255 0.94053
 C425 C 0.30089 0.61065 0.92587
 C426 C 0.28597 0.59234 0.90807
 C427 C 0.24117 0.57341 0.89063
 C428 C 0.22905 0.55315 0.88072
 H429 H 0.22022 0.62068 0.91574
 H430 H 0.24647 0.65330 0.94684
 H431 H 0.32326 0.60698 0.92898
 H432 H 0.29696 0.57482 0.89802
 C433 C 0.08821 0.24503 0.40259
 C434 C 0.07457 0.23104 0.38025
 C435 C 0.05885 0.24668 0.36053
 C436 C 0.05639 0.27639 0.36327
 C437 C 0.07115 0.29023 0.38510
 C438 C 0.08694 0.27467 0.40454
 C439 C 0.10138 0.22953 0.42526
 C440 C 0.11174 0.21888 0.44597
 H441 H 0.07527 0.20807 0.37863
 H442 H 0.04755 0.23544 0.34403
 H443 H 0.06977 0.31307 0.38772
 H444 H 0.09732 0.28573 0.42177
 C445 C 0.08863 0.75480 0.59724
 C446 C 0.07488 0.76880 0.61951
 C447 C 0.05918 0.75316 0.63924
 C448 C 0.05685 0.72343 0.63659
 C449 C 0.07174 0.70958 0.61485
 C450 C 0.08751 0.72515 0.59540
 C451 C 0.10174 0.77029 0.57453
 C452 C 0.11205 0.78093 0.55379
 H453 H 0.07546 0.79178 0.62104
 H454 H 0.04778 0.76439 0.65566
 H455 H 0.07046 0.68672 0.61230
 H456 H 0.09798 0.71408 0.57823
 C457 C 0.90663 0.74102 0.41206
 C458 C 0.91162 0.71218 0.41722
 C459 C 0.92936 0.69660 0.39942
 C460 C 0.94243 0.70963 0.37610
 C461 C 0.93639 0.73834 0.37033
 C462 C 0.91871 0.75399 0.38834
 C463 C 0.89207 0.75758 0.43317
 C464 C 0.88166 0.77035 0.45270
 H465 H 0.90263 0.70197 0.43565
 H466 H 0.93344 0.67452 0.40439
 H467 H 0.94618 0.74898 0.35258
 H468 H 0.91526 0.77639 0.38432
 C469 C 0.90705 0.25901 0.58733
 C470 C 0.91221 0.28780 0.58207
 C471 C 0.92991 0.30339 0.59990
 C472 C 0.94278 0.29041 0.62336
 C473 C 0.93659 0.26174 0.62921
 C474 C 0.91893 0.24609 0.61118
 C475 C 0.89244 0.24243 0.56627
 C476 C 0.88196 0.22961 0.54679
 H477 H 0.90336 0.29797 0.56355
 H478 H 0.93411 0.32543 0.59486
 H479 H 0.94622 0.25114 0.64707
 H480 H 0.91535 0.22373 0.61529
 C481 C 0.40692 0.09602 0.25711
 C482 C 0.38307 0.08486 0.24354
 C483 C 0.36454 0.06704 0.25831
 C484 C 0.36996 0.05996 0.28668
 C485 C 0.39334 0.07226 0.30037
 C486 C 0.41165 0.09014 0.28568
 C487 C 0.42865 0.11022 0.24130
 C488 C 0.44863 0.12016 0.22904
 H489 H 0.37940 0.08900 0.22133
 H490 H 0.34674 0.05784 0.24720
 H491 H 0.39800 0.06737 0.32224
 H492 H 0.43018 0.09843 0.29632
 C493 C 0.59405 0.09720 0.74310
 C494 C 0.59094 0.09347 0.71394
 C495 C 0.60972 0.07619 0.69903
 C496 C 0.63196 0.06233 0.71309
 C497 C 0.63595 0.06744 0.74214
 C498 C 0.61694 0.08466 0.75710
 C499 C 0.57162 0.11062 0.75875
 C500 C 0.55129 0.12011 0.77088
 H501 H 0.57320 0.10288 0.70291
 H502 H 0.60616 0.07280 0.67666
 H503 H 0.65280 0.05695 0.75354
 H504 H 0.61939 0.08717 0.77974
 C505 C 0.40709 0.90456 0.74319
 C506 C 0.41197 0.91045 0.71465
 C507 C 0.39363 0.92817 0.69981
 C508 C 0.37006 0.94030 0.71332
 C509 C 0.36451 0.93322 0.74167
 C510 C 0.38307 0.91556 0.75658
 C511 C 0.42878 0.89049 0.75916
 C512 C 0.44871 0.88064 0.77157
 H513 H 0.43063 0.90228 0.70414
 H514 H 0.39840 0.93307 0.67797
 H515 H 0.34657 0.94229 0.75265
 H516 H 0.37927 0.91140 0.77877
 C517 C 0.59442 0.90365 0.25624
 C518 C 0.59140 0.90654 0.28551
 C519 C 0.60997 0.92374 0.30078
 C520 C 0.63192 0.93833 0.28700
 C521 C 0.63586 0.93405 0.25782
 C522 C 0.61706 0.91692 0.24248
 C523 C 0.57211 0.89030 0.24036
 C524 C 0.55182 0.88084 0.22813
 H525 H 0.57387 0.89656 0.29636
 H526 H 0.60646 0.92649 0.32325
 H527 H 0.65248 0.94513 0.24663
 H528 H 0.61943 0.91506 0.21978
 C529 C 0.40638 0.25681 0.90314
 C530 C 0.38332 0.24284 0.91542
 C531 C 0.36442 0.25792 0.93263
 C532 C 0.36867 0.28705 0.93799
 C533 C 0.39109 0.30110 0.92440
 C534 C 0.40977 0.28607 0.90712
 C535 C 0.42869 0.24098 0.88970
 C536 C 0.44894 0.22869 0.88020
 H537 H 0.38066 0.22012 0.91272
 H538 H 0.34743 0.24651 0.94291
 H539 H 0.39486 0.32353 0.92798
 H540 H 0.42764 0.29708 0.89792
 C541 C 0.59239 0.74345 0.90432
 C542 C 0.61658 0.75686 0.91496
 C543 C 0.63514 0.74191 0.93254
 C544 C 0.62944 0.71351 0.93990
 C545 C 0.60570 0.69996 0.92813
 C546 C 0.58735 0.71484 0.91048
 C547 C 0.57072 0.75952 0.89029
 C548 C 0.55081 0.77203 0.88049
 H549 H 0.62050 0.77911 0.91058
 H550 H 0.65322 0.75291 0.94133
 H551 H 0.60081 0.67808 0.93325
 H552 H 0.56856 0.70433 0.90259
 C553 C 0.40670 0.74342 0.09675
 C554 C 0.38356 0.75734 0.08455
 C555 C 0.36461 0.74220 0.06744
 C556 C 0.36888 0.71308 0.06210
 C557 C 0.39137 0.69908 0.07560
 C558 C 0.41011 0.71416 0.09278
 C559 C 0.42904 0.75931 0.11009
 C560 C 0.44931 0.77164 0.11950
 H561 H 0.38088 0.78006 0.08725
 H562 H 0.34756 0.75357 0.05722
 H563 H 0.39516 0.67665 0.07202
 H564 H 0.42804 0.70319 0.10192
 C565 C 0.59257 0.25660 0.09558
 C566 C 0.58752 0.28521 0.08940
 C567 C 0.60581 0.30005 0.07164
 C568 C 0.62948 0.28648 0.05979
 C569 C 0.63519 0.25809 0.06715
 C570 C 0.61670 0.24317 0.08484
 C571 C 0.57095 0.24056 0.10972
 C572 C 0.55106 0.22810 0.11962
 H573 H 0.56878 0.29574 0.09737
 H574 H 0.60091 0.32193 0.06652
 H575 H 0.65323 0.24706 0.05829
 H576 H 0.62062 0.22092 0.08922
 C577 C 0.24815 0.08934 0.59510
 C578 C 0.27746 0.08788 0.59171
 C579 C 0.29377 0.07145 0.60999
 C580 C 0.28102 0.05622 0.63210
 C581 C 0.25168 0.05882 0.63628
 C582 C 0.23529 0.07518 0.61772
 C583 C 0.23171 0.10302 0.57342
 C584 C 0.22024 0.11362 0.55326
 H585 H 0.28764 0.09862 0.57421
 H586 H 0.31629 0.06999 0.60627
 H587 H 0.24127 0.04719 0.65303
 H588 H 0.21259 0.07597 0.62043
 C589 C 0.74177 0.09512 0.40593
 C590 C 0.75405 0.08569 0.38066
 C591 C 0.73892 0.06769 0.36245
 C592 C 0.71148 0.05850 0.36964
 C593 C 0.69902 0.06930 0.39453
 C594 C 0.71404 0.08738 0.41243
 C595 C 0.75816 0.10965 0.42714
 C596 C 0.77071 0.11988 0.44687
 H597 H 0.77561 0.09138 0.37553
 H598 H 0.74923 0.05999 0.34348
 H599 H 0.67790 0.06310 0.40080
 H600 H 0.70438 0.09440 0.43201
 C601 C 0.74367 0.90368 0.59634
 C602 C 0.75771 0.91714 0.61875
 C603 C 0.74280 0.93508 0.63716
 C604 C 0.71378 0.93999 0.63302
 C605 C 0.69969 0.92527 0.61128
 C606 C 0.71453 0.90726 0.59312
 C607 C 0.75923 0.88950 0.57430
 C608 C 0.77122 0.87945 0.55413
 H609 H 0.78032 0.91477 0.62126
 H610 H 0.75422 0.94622 0.65364
 H611 H 0.67734 0.92847 0.60764
 H612 H 0.70348 0.89717 0.57572
 C613 C 0.24844 0.91023 0.40439
 C614 C 0.27776 0.91163 0.40768
 C615 C 0.29403 0.92809 0.38939
 C616 C 0.28124 0.94340 0.36737
 C617 C 0.25189 0.94083 0.36326
 C618 C 0.23553 0.92444 0.38183
 C619 C 0.23204 0.89655 0.42610
 C620 C 0.22060 0.88597 0.44629
 H621 H 0.28798 0.90085 0.42513
 H622 H 0.31657 0.92953 0.39306
 H623 H 0.24144 0.95252 0.34658
 H624 H 0.21282 0.92370 0.37919
 C625 C 0.09291 0.41209 0.74217
 C626 C 0.08770 0.41799 0.71368
 C627 C 0.07023 0.40021 0.69775
 C628 C 0.05764 0.37615 0.71008
 C629 C 0.06391 0.36965 0.73843
 C630 C 0.08133 0.38764 0.75443
 C631 C 0.10725 0.43307 0.75915
 C632 C 0.11752 0.45252 0.77229
 H633 H 0.09632 0.43697 0.70402
 H634 H 0.06596 0.40576 0.67597
 H635 H 0.05449 0.35133 0.74854
 H636 H 0.08496 0.38302 0.77656
 C637 C 0.09290 0.58784 0.25793
 C638 C 0.08761 0.58198 0.28641
 C639 C 0.07009 0.59978 0.30226
 C640 C 0.05754 0.62381 0.28985
 C641 C 0.06390 0.63027 0.26151
 C642 C 0.08136 0.61226 0.24559
 C643 C 0.10728 0.56683 0.24102
 C644 C 0.11757 0.54737 0.22793
 H645 H 0.09619 0.56302 0.29613
 H646 H 0.06576 0.59426 0.32404
 H647 H 0.05450 0.64858 0.25135
 H648 H 0.08505 0.61685 0.22347
 C649 C 0.91169 0.40283 0.24474
 C650 C 0.91416 0.40597 0.27404
 C651 C 0.93009 0.38670 0.28970
 C652 C 0.94380 0.36384 0.27631
 C653 C 0.94016 0.35995 0.24701
 C654 C 0.92429 0.37950 0.23126
 C655 C 0.89832 0.42524 0.22895
 C656 C 0.88785 0.44587 0.21806
 H657 H 0.90458 0.42397 0.28470
 H658 H 0.93238 0.39021 0.31222
 H659 H 0.95063 0.34264 0.23612
 H660 H 0.92266 0.37696 0.20855
 C661 C 0.91174 0.59700 0.75470
 C662 C 0.91437 0.59380 0.72542
 C663 C 0.93038 0.61304 0.70981
 C664 C 0.94401 0.63595 0.72322
 C665 C 0.94021 0.63989 0.75249
 C666 C 0.92427 0.62036 0.76820
 C667 C 0.89829 0.57462 0.77046
 C668 C 0.88776 0.55401 0.78134
 H669 H 0.90485 0.57577 0.71475
 H670 H 0.93279 0.60949 0.68731
 H671 H 0.95062 0.65724 0.76340
 H672 H 0.92252 0.62296 0.79089
 C673 C 0.74216 0.59057 0.90641
 C674 C 0.75419 0.61666 0.91409
 C675 C 0.73933 0.63546 0.93167
 C676 C 0.71240 0.62809 0.94212
 C677 C 0.70022 0.60219 0.93326
 C678 C 0.71500 0.58368 0.91561
 C679 C 0.75831 0.56921 0.89183
 C680 C 0.77075 0.54944 0.88145
 H681 H 0.77534 0.62209 0.90724
 H682 H 0.74939 0.65519 0.93788
 H683 H 0.67950 0.59573 0.94051
 H684 H 0.70556 0.56346 0.90993
 C685 C 0.24990 0.40993 0.91414
 C686 C 0.27744 0.41725 0.92186
 C687 C 0.29375 0.39870 0.93793
 C688 C 0.28282 0.37227 0.94669
 C689 C 0.25531 0.36463 0.93799
 C690 C 0.23891 0.38345 0.92193
 C691 C 0.23312 0.43081 0.89965
 C692 C 0.22143 0.45053 0.88840
 H693 H 0.28616 0.43770 0.91596
 H694 H 0.31480 0.40545 0.94393
 H695 H 0.24614 0.34450 0.94422
 H696 H 0.21756 0.37760 0.91609
 C697 C 0.25018 0.59001 0.08633
 C698 C 0.27771 0.58273 0.07857
 C699 C 0.29398 0.60129 0.06247
 C700 C 0.28302 0.62771 0.05374
 C701 C 0.25552 0.63533 0.06249
 C702 C 0.23915 0.61648 0.07858
 C703 C 0.23343 0.56911 0.10084
 C704 C 0.22176 0.54938 0.11209
 H705 H 0.28645 0.56228 0.08445
 H706 H 0.31502 0.59457 0.05643
 H707 H 0.24631 0.65544 0.05628
 H708 H 0.21781 0.62230 0.08445
 C709 C 0.74227 0.40938 0.09301
 C710 C 0.75428 0.38330 0.08529
 C711 C 0.73938 0.36450 0.06774
 C712 C 0.71242 0.37186 0.05737
 C713 C 0.70026 0.39775 0.06627
 C714 C 0.71508 0.41626 0.08389
 C715 C 0.75845 0.43075 0.10755
 C716 C 0.77092 0.45051 0.11790
 H717 H 0.77545 0.37788 0.09209
 H718 H 0.74942 0.34477 0.06150
 H719 H 0.67952 0.40420 0.05907
 H720 H 0.70565 0.43647 0.08960
 C721 C 0.91303 0.75223 0.59661
 C722 C 0.92097 0.76449 0.62241
 C723 C 0.93693 0.74876 0.64185
 C724 C 0.94543 0.72071 0.63542
 C725 C 0.93621 0.70842 0.60982
 C726 C 0.92020 0.72404 0.59070
 C727 C 0.89916 0.76836 0.57490
 C728 C 0.88839 0.77951 0.55470
 H729 H 0.91550 0.78635 0.62717
 H730 H 0.94352 0.75896 0.66132
 H731 H 0.94197 0.68688 0.60406
 H732 H 0.91411 0.71433 0.57081
 C733 C 0.91246 0.24742 0.40278
 C734 C 0.91950 0.27565 0.40866
 C735 C 0.93553 0.29130 0.38958
 C736 C 0.94491 0.27899 0.36405
 C737 C 0.93652 0.25090 0.35762
 C738 C 0.92054 0.23514 0.37703
 C739 C 0.89866 0.23126 0.42452
 C740 C 0.88799 0.22012 0.44478
 H741 H 0.91331 0.28537 0.42852
 H742 H 0.94120 0.31287 0.39533
 H743 H 0.94323 0.24069 0.33821
 H744 H 0.91519 0.21325 0.37230
 C745 C 0.09311 0.26100 0.58786
 C746 C 0.08522 0.28868 0.58073
 C747 C 0.06753 0.30428 0.59851
 C748 C 0.05732 0.29241 0.62388
 C749 C 0.06651 0.26496 0.63154
 C750 C 0.08414 0.24929 0.61351
 C751 C 0.10757 0.24400 0.56710
 C752 C 0.11783 0.23077 0.54783
 H753 H 0.09189 0.29789 0.56084
 H754 H 0.06125 0.32537 0.59185
 H755 H 0.05926 0.25510 0.65090
 H756 H 0.08995 0.22776 0.61911
 C757 C 0.09293 0.73894 0.41192
 C758 C 0.08492 0.71129 0.41909
 C759 C 0.06720 0.69573 0.40133
 C760 C 0.05705 0.70759 0.37593
 C761 C 0.06634 0.73501 0.36823
 C762 C 0.08401 0.75064 0.38626
 C763 C 0.10747 0.75590 0.43265
 C764 C 0.11782 0.76910 0.45190
 H765 H 0.09155 0.70210 0.43900
 H766 H 0.06084 0.67467 0.40801
 H767 H 0.05914 0.74486 0.34886
 H768 H 0.08991 0.77214 0.38062
 C769 C 0.59156 0.91510 0.75194
 C770 C 0.58706 0.91826 0.72291
 C771 C 0.60561 0.93441 0.70667
 C772 C 0.62910 0.94766 0.71922
 C773 C 0.63415 0.94356 0.74826
 C774 C 0.61535 0.92745 0.76459
 C775 C 0.57025 0.90097 0.76839
 C776 C 0.55044 0.88979 0.77985
 H777 H 0.56867 0.90888 0.71291
 H778 H 0.60119 0.93703 0.68437
 H779 H 0.65201 0.95361 0.75851
 H780 H 0.61894 0.92526 0.78709
 C781 C 0.40731 0.91310 0.24828
 C782 C 0.40987 0.91382 0.27771
 C783 C 0.39092 0.92961 0.29395
 C784 C 0.36898 0.94492 0.28101
 C785 C 0.36565 0.94305 0.25149
 C786 C 0.38487 0.92732 0.23517
 C787 C 0.42941 0.89976 0.23206
 C788 C 0.44963 0.88914 0.22068
 H789 H 0.42718 0.90298 0.28809
 H790 H 0.39399 0.93052 0.31662
 H791 H 0.34905 0.95477 0.24094
 H792 H 0.38277 0.92703 0.21237
 C793 C 0.59128 0.08593 0.24977
 C794 C 0.61543 0.07409 0.23735
 C795 C 0.63410 0.05788 0.25373
 C796 C 0.62854 0.05315 0.28258
 C797 C 0.60468 0.06590 0.29493
 C798 C 0.58627 0.08216 0.27865
 C799 C 0.57013 0.10014 0.23318
 C800 C 0.55043 0.11133 0.22156
 H801 H 0.61943 0.07675 0.21497
 H802 H 0.65225 0.04822 0.24363
 H803 H 0.59986 0.06279 0.31708
 H804 H 0.56759 0.09114 0.28846
 C805 C 0.40682 0.08744 0.75107
 C806 C 0.40927 0.08675 0.72163
 C807 C 0.39038 0.07082 0.70545
 C808 C 0.36860 0.05534 0.71848
 C809 C 0.36535 0.05720 0.74800
 C810 C 0.38452 0.07306 0.76426
 C811 C 0.42891 0.10089 0.76720
 C812 C 0.44912 0.11159 0.77852
 H813 H 0.42648 0.09771 0.71119
 H814 H 0.39338 0.06992 0.68277
 H815 H 0.34887 0.04534 0.75861
 H816 H 0.38251 0.07333 0.78706
 C817 C 0.59363 0.75250 0.08641
 C818 C 0.59143 0.72286 0.08622
 C819 C 0.61019 0.70651 0.07032
 C820 C 0.63159 0.71956 0.05436
 C821 C 0.63463 0.74930 0.05571
 C822 C 0.61558 0.76573 0.07155
 C823 C 0.57158 0.76872 0.09984
 C824 C 0.55137 0.78001 0.11059
 H825 H 0.57450 0.71238 0.09756
 H826 H 0.60737 0.68366 0.06982
 H827 H 0.65081 0.75992 0.04348
 H828 H 0.61739 0.78869 0.07141
 C829 C 0.40844 0.24729 0.08482
 C830 C 0.41289 0.27653 0.08195
 C831 C 0.39450 0.29291 0.06576
 C832 C 0.37123 0.28031 0.05220
 C833 C 0.36621 0.25106 0.05600
 C834 C 0.38486 0.23457 0.07214
 C835 C 0.42964 0.23074 0.09902
 C836 C 0.44941 0.21931 0.11031
 H837 H 0.43112 0.28657 0.09158
 H838 H 0.39889 0.31537 0.06339
 H839 H 0.34851 0.24077 0.04570
 H840 H 0.38131 0.21191 0.07411
 C841 C 0.59332 0.24765 0.91314
 C842 C 0.59119 0.27730 0.91335
 C843 C 0.60998 0.29360 0.92926
 C844 C 0.63136 0.28050 0.94521
 C845 C 0.63433 0.25075 0.94385
 C846 C 0.61524 0.23437 0.92800
 C847 C 0.57124 0.23149 0.89969
 C848 C 0.55101 0.22025 0.88893
 H849 H 0.57428 0.28782 0.90201
 H850 H 0.60721 0.31645 0.92977
 H851 H 0.65048 0.24010 0.95607
 H852 H 0.61700 0.21141 0.92812
 C853 C 0.40818 0.75279 0.91528
 C854 C 0.41260 0.72354 0.91806
 C855 C 0.39425 0.70714 0.93426
 C856 C 0.37104 0.71973 0.94793
 C857 C 0.36603 0.74899 0.94421
 C858 C 0.38465 0.76550 0.92806
 C859 C 0.42939 0.76937 0.90111
 C860 C 0.44916 0.78084 0.88985
 H861 H 0.43079 0.71351 0.90835
 H862 H 0.39861 0.68466 0.93657
 H863 H 0.34838 0.75927 0.95460
 H864 H 0.38114 0.78817 0.92617
 C865 C 0.75032 0.91203 0.41071
 C866 C 0.72135 0.91556 0.41522
 C867 C 0.70525 0.93172 0.39655
 C868 C 0.71788 0.94461 0.37294
 C869 C 0.74685 0.94011 0.36789
 C870 C 0.76303 0.92399 0.38680
 C871 C 0.76671 0.89798 0.43214
 C872 C 0.77824 0.88696 0.45200
 H873 H 0.71131 0.90648 0.43370
 H874 H 0.68300 0.93466 0.40099
 H875 H 0.75717 0.94987 0.34994
 H876 H 0.78549 0.92152 0.38320
 C877 C 0.25665 0.90556 0.59039
 C878 C 0.24284 0.91679 0.61411
 C879 C 0.25755 0.93430 0.63306
 C880 C 0.28610 0.94097 0.62821
 C881 C 0.29998 0.92862 0.60493
 C882 C 0.28535 0.91107 0.58620
 C883 C 0.24109 0.89131 0.56845
 C884 C 0.22897 0.88103 0.54851
 H885 H 0.22054 0.91288 0.61738
 H886 H 0.24631 0.94356 0.65076
 H887 H 0.32200 0.93319 0.60070
 H888 H 0.29618 0.90267 0.56781
 C889 C 0.25630 0.09402 0.40925
 C890 C 0.28498 0.08851 0.41355
 C891 C 0.29969 0.07098 0.39486
 C892 C 0.28590 0.05866 0.37151
 C893 C 0.25736 0.06532 0.36656
 C894 C 0.24258 0.08281 0.38548
 C895 C 0.24068 0.10829 0.43113
 C896 C 0.22853 0.11858 0.45105
 H897 H 0.29575 0.09690 0.43199
 H898 H 0.32169 0.06641 0.39916
 H899 H 0.24619 0.05609 0.34880
 H900 H 0.22029 0.08672 0.38212
 C901 C 0.75143 0.08762 0.59031
 C902 C 0.72247 0.08398 0.58575
 C903 C 0.70636 0.06792 0.60450
 C904 C 0.71896 0.05525 0.62823
 C905 C 0.74791 0.05985 0.63333
 C906 C 0.76411 0.07586 0.61433
 C907 C 0.76779 0.10160 0.56881
 C908 C 0.77919 0.11257 0.54884
 H909 H 0.71245 0.09290 0.56718
 H910 H 0.68413 0.06491 0.60003
 H911 H 0.75820 0.05025 0.65137
 H912 H 0.78656 0.07842 0.61797
 C913 C 0.90616 0.58926 0.25842
 C914 C 0.91880 0.61287 0.24560
 C915 C 0.93639 0.63083 0.26140
 C916 C 0.94175 0.62508 0.29008
 C917 C 0.92800 0.60200 0.30296
 C918 C 0.91035 0.58426 0.28723
 C919 C 0.89196 0.56801 0.24176
 C920 C 0.88181 0.54842 0.22883
 H921 H 0.91594 0.61675 0.22322
 H922 H 0.94674 0.64841 0.25090
 H923 H 0.93155 0.59710 0.32503
 H924 H 0.90088 0.56591 0.29731
 C925 C 0.90613 0.41065 0.74106
 C926 C 0.91042 0.41570 0.71227
 C927 C 0.92813 0.39799 0.69658
 C928 C 0.94184 0.37489 0.70948
 C929 C 0.93637 0.36910 0.73813
 C930 C 0.91872 0.38704 0.75389
 C931 C 0.89187 0.43188 0.75769
 C932 C 0.88168 0.45147 0.77060
 H933 H 0.90100 0.43405 0.70218
 H934 H 0.93176 0.40292 0.67453
 H935 H 0.94668 0.35151 0.74864
 H936 H 0.91578 0.38312 0.77625
 C937 C 0.08838 0.59880 0.75678
 C938 C 0.08857 0.59731 0.72726
 C939 C 0.07299 0.61667 0.71140
 C940 C 0.05703 0.63795 0.72484
 C941 C 0.05817 0.64040 0.75447
 C942 C 0.07366 0.62073 0.77041
 C943 C 0.10105 0.57593 0.77238
 C944 C 0.11113 0.55507 0.78310
 H945 H 0.09983 0.58039 0.71650
 H946 H 0.07261 0.61435 0.68862
 H947 H 0.04588 0.65648 0.76535
 H948 H 0.07325 0.62197 0.79327
 C949 C 0.08829 0.40108 0.24332
 C950 C 0.07364 0.37914 0.22962
 C951 C 0.05808 0.35946 0.24549
 C952 C 0.05681 0.36191 0.27511
 C953 C 0.07270 0.38320 0.28862
 C954 C 0.08834 0.40258 0.27284
 C955 C 0.10103 0.42396 0.22778
 C956 C 0.11117 0.44482 0.21710
 H957 H 0.07334 0.37791 0.20676
 H958 H 0.04586 0.34337 0.23455
 H959 H 0.07221 0.38553 0.31140
 H960 H 0.09954 0.41950 0.28365
   
