data_POSCAR
  _audit_creation_date              2014-09-24
  _audit_creation_method            'ToBaCCo'
  _symmetry_space_group_name_H-M    'P1'
  _symmetry_Int_Tables_number       1
  _symmetry_cell_setting            triclinic
  loop_
  _symmetry_equiv_pos_as_xyz
 x,y,z
_cell_length_a 28.9390
_cell_length_b 31.5636
_cell_length_c 6.9769
_cell_angle_alpha 90.032700
_cell_angle_beta 90.033800
_cell_angle_gamma 90.202700
loop_
  _atom_site_label
  _atom_site_type_symbol
  _atom_site_fract_x
  _atom_site_fract_y
  _atom_site_fract_z
O1 O 0.22162 0.29040 -0.04729
 O2 O 0.30533 0.20798 0.09198
 O3 O 0.22095 0.20757 -0.04612
 O4 O 0.30558 0.28990 0.09254
 O5 O 0.27881 0.29046 0.38903
 O6 O 0.19527 0.20830 0.25191
 O7 O 0.27877 0.20782 0.38878
 O8 O 0.19566 0.28978 0.25042
 Cu9 Cu 0.26635 0.24891 -0.00638
 Cu10 Cu 0.23424 0.24906 0.34875
 C11 C 0.19387 0.30358 0.08021
 C12 C 0.30676 0.19443 0.26289
 C13 C 0.19307 0.19452 0.08162
 C14 C 0.30690 0.30378 0.26305
 O15 O 0.80578 0.29039 0.40624
 O16 O 0.72118 0.20805 0.54409
 O17 O 0.80551 0.20845 0.40616
 O18 O 0.72179 0.29084 0.54566
 O19 O 0.69581 0.29025 0.24786
 O20 O 0.77889 0.20829 0.10933
 O21 O 0.69544 0.20879 0.24601
 O22 O 0.77899 0.29096 0.10966
 Cu23 Cu 0.76655 0.24939 0.50468
 Cu24 Cu 0.73441 0.24956 0.14946
 C25 C 0.80708 0.30428 0.23583
 C26 C 0.69327 0.19501 0.41623
 C27 C 0.80688 0.19487 0.23523
 C28 C 0.69400 0.30401 0.41821
 O29 O 0.72325 0.79201 0.45414
 O30 O 0.80717 0.70971 0.59326
 O31 O 0.72304 0.70924 0.45386
 O32 O 0.80741 0.79168 0.59318
 O33 O 0.78071 0.79203 0.88967
 O34 O 0.69712 0.70992 0.75162
 O35 O 0.78041 0.70934 0.88974
 O36 O 0.69737 0.79135 0.75197
 Cu37 Cu 0.76822 0.75066 0.49448
 Cu38 Cu 0.73604 0.75066 0.84949
 C39 C 0.69544 0.80508 0.58168
 C40 C 0.80841 0.69596 0.76390
 C41 C 0.69514 0.69614 0.58132
 C42 C 0.80881 0.80546 0.76388
 O43 O 0.27911 0.70830 0.61212
 O44 O 0.19604 0.79030 0.75002
 O45 O 0.27936 0.79094 0.61262
 O46 O 0.19578 0.70881 0.74926
 O47 O 0.22153 0.70809 1.04731
 O48 O 0.30605 0.79049 0.90935
 O49 O 0.22190 0.79093 1.04799
 O50 O 0.30575 0.70858 0.90894
 Cu51 Cu 0.23469 0.74959 0.65228
 Cu52 Cu 0.26678 0.74951 1.00757
 C53 C 0.30710 0.69493 0.73811
 C54 C 0.19414 0.80406 0.92032
 C55 C 0.30745 0.80427 0.73878
 C56 C 0.19366 0.69499 0.91944
 C57 C 0.99883 0.11281 0.02600
 C58 C 1.03996 0.09135 -0.01123
 C59 C 1.03947 0.04717 -0.02953
 C60 C 0.99833 0.02378 0.00145
 C61 C 0.95735 0.04635 0.04236
 C62 C 0.95742 0.09068 0.05015
 C63 C 0.99828 -0.02377 -0.00452
 C64 C 0.95728 -0.04654 -0.04605
 C65 C 0.95726 -0.09087 -0.05344
 C66 C 0.99859 -0.11280 -0.02828
 C67 C 1.03973 -0.09116 0.00959
 C68 C 1.03935 -0.04697 0.02743
 H69 H 0.99929 0.14699 0.04160
 H70 H 1.07147 0.03148 -0.06432
 H71 H 0.92553 0.02986 0.07451
 H72 H 0.92552 -0.03021 -0.07885
 H73 H 0.99897 -0.14699 -0.04343
 H74 H 1.07136 -0.03113 0.06281
 C75 C 0.49891 0.61277 0.52825
 C76 C 0.53999 0.59132 0.49029
 C77 C 0.53948 0.54714 0.47178
 C78 C 0.49836 0.52375 0.50325
 C79 C 0.45742 0.54632 0.54487
 C80 C 0.45751 0.59064 0.55287
 C81 C 0.49831 0.47622 0.49684
 C82 C 0.45729 0.45347 0.45531
 C83 C 0.45727 0.40915 0.44745
 C84 C 0.49860 0.38721 0.47221
 C85 C 0.53976 0.40883 0.50996
 C86 C 0.53939 0.45301 0.52826
 H87 H 0.49938 0.64695 0.54386
 H88 H 0.57143 0.53144 0.43629
 H89 H 0.42563 0.52981 0.57728
 H90 H 0.42552 0.46983 0.42292
 H91 H 0.49897 0.35302 0.45676
 H92 H 0.57141 0.46883 0.56356
 C93 C -0.00117 0.38748 0.02747
 C94 C -0.04241 0.40951 0.05271
 C95 C -0.04224 0.45384 0.04559
 C96 C -0.00116 0.47651 0.00432
 C97 C 0.03983 0.45319 -0.02744
 C98 C 0.04005 0.40900 -0.00992
 C99 C -0.00098 0.52405 -0.00167
 C100 C 0.04024 0.54737 0.02944
 C101 C 0.04082 0.59155 0.01127
 C102 C -0.00026 0.61307 -0.02608
 C103 C -0.04171 0.59103 -0.05057
 C104 C -0.04191 0.54671 -0.04279
 H105 H -0.00091 0.35328 0.04229
 H106 H -0.07395 0.47026 0.07831
 H107 H 0.07190 0.46894 -0.06248
 H108 H 0.07221 0.53162 0.06428
 H109 H 0.00028 0.64725 -0.04160
 H110 H -0.07377 0.53028 -0.07511
 C111 C 0.49944 0.88750 0.53003
 C112 C 0.45806 0.90937 0.55486
 C113 C 0.45798 0.95369 0.54686
 C114 C 0.49891 0.97650 0.50490
 C115 C 0.54001 0.95336 0.47325
 C116 C 0.54052 0.90919 0.49181
 C117 C 0.49884 1.02404 0.49805
 C118 C 0.53993 1.04755 0.52854
 C119 C 0.54031 1.09171 0.50936
 C120 C 0.49911 1.11303 0.47177
 C121 C 0.45774 1.09079 0.44819
 C122 C 0.45779 1.04648 0.45678
 H123 H 0.49990 0.85332 0.54558
 H124 H 0.42620 0.97000 0.57941
 H125 H 0.57197 0.96923 0.43750
 H126 H 0.57198 1.03196 0.56367
 H127 H 0.49948 1.14720 0.45556
 H128 H 0.42600 1.02988 0.42502
 C129 C 1.13468 0.10213 -0.03989
 C130 C 1.14399 0.14392 -0.15238
 C131 C 1.15711 0.16577 0.03720
 C132 C 1.14866 0.12458 0.14940
 C133 C 1.10677 0.17950 0.06870
 C134 C 1.09298 0.15731 -0.12038
 C135 C 1.08431 0.11616 -0.00744
 C136 C 1.09808 0.13823 0.18099
 H137 H 1.14613 0.07013 -0.08517
 H138 H 1.16332 0.14657 -0.28931
 H139 H 1.17187 0.11135 0.26092
 H140 H 1.09526 0.21143 0.11432
 H141 H 1.06973 0.17058 -0.23163
 H142 H 1.07903 0.13586 0.31874
 C143 C 0.59839 0.63840 0.68041
 C144 C 0.64888 0.62464 0.64792
 C145 C 0.65733 0.66569 0.53457
 C146 C 0.60703 0.67948 0.56688
 C147 C 0.64384 0.64359 0.34596
 C148 C 0.63462 0.60197 0.45962
 C149 C 0.58434 0.61612 0.49288
 C150 C 0.59293 0.65711 0.37873
 H151 H 0.57953 0.63624 0.81867
 H152 H 0.67224 0.61154 0.75918
 H153 H 0.59571 0.71152 0.61184
 H154 H 0.66300 0.64606 0.20858
 H155 H 0.64598 0.56991 0.41491
 H156 H 0.56955 0.67028 0.26771
 C157 C -0.09066 0.36005 0.28639
 C158 C -0.14169 0.37433 0.29866
 C159 C -0.15585 0.33495 0.18255
 C160 C -0.10530 0.32051 0.17091
 C161 C -0.15092 0.35956 -0.00650
 C162 C -0.13603 0.39945 0.10890
 C163 C -0.08540 0.38473 0.09760
 C164 C -0.09989 0.34535 -0.01847
 H165 H -0.06557 0.36044 0.40684
 H166 H -0.15930 0.38590 0.42987
 H167 H -0.09273 0.28787 0.19696
 H168 H -0.17607 0.35903 -0.12672
 H169 H -0.14871 0.43209 0.08290
 H170 H -0.08244 0.33357 -0.14970
 C171 C 0.36447 0.89919 0.60936
 C172 C 0.34980 0.85904 0.49533
 C173 C 0.34461 0.83484 0.68533
 C174 C 0.35856 0.87447 0.80007
 C175 C 0.39521 0.82042 0.67561
 C176 C 0.40087 0.84486 0.48528
 C177 C 0.41513 0.88450 0.59999
 C178 C 0.40963 0.86023 0.78972
 H179 H 0.35175 0.93174 0.58159
 H180 H 0.32483 0.85823 0.37450
 H181 H 0.34075 0.88631 0.93030
 H182 H 0.40777 0.78786 0.70350
 H183 H 0.41853 0.83281 0.35503
 H184 H 0.43455 0.86090 0.91077
 C185 C -0.13532 0.60107 -0.10515
 C186 C -0.14966 0.64131 0.00824
 C187 C -0.15469 0.66538 -0.18214
 C188 C -0.14108 0.62565 -0.29624
 C189 C -0.10398 0.67979 -0.17253
 C190 C -0.09848 0.65549 0.01817
 C191 C -0.08455 0.61576 -0.09589
 C192 C -0.08990 0.63989 -0.28600
 H193 H -0.14826 0.56853 -0.07689
 H194 H -0.17460 0.64221 0.12901
 H195 H -0.15901 0.61372 -0.42634
 H196 H -0.09110 0.71229 -0.20095
 H197 H -0.08072 0.66763 0.14829
 H198 H -0.06501 0.63913 -0.40700
 C199 C 0.40886 1.13906 0.21244
 C200 C 0.35780 1.12440 0.20375
 C201 C 0.34394 1.16417 0.31707
 C202 C 0.39454 1.17900 0.32513
 C203 C 0.34946 1.14041 0.50801
 C204 C 0.36403 1.10014 0.39540
 C205 C 0.41469 1.11524 0.40310
 C206 C 0.40053 1.15501 0.51638
 H207 H 0.43360 1.13834 0.09092
 H208 H 0.33981 1.11214 0.07442
 H209 H 0.40701 1.21159 0.29549
 H210 H 0.32467 1.14128 0.62931
 H211 H 0.35142 1.06755 0.42486
 H212 H 0.41836 1.16747 0.64572
 C213 C 1.13435 -0.10169 0.04130
 C214 C 1.14323 -0.14330 0.15516
 C215 C 1.15660 -0.16543 -0.03325
 C216 C 1.14850 -0.12439 -0.14679
 C217 C 1.10620 -0.17921 -0.06600
 C218 C 1.09222 -0.15682 0.12194
 C219 C 1.08397 -0.11585 0.00760
 C220 C 1.09791 -0.13815 -0.17973
 H221 H 1.14592 -0.06961 0.08602
 H222 H 1.16233 -0.14575 0.29273
 H223 H 1.17199 -0.11130 -0.25788
 H224 H 1.09460 -0.21124 -0.11104
 H225 H 1.06872 -0.16998 0.23279
 H226 H 1.07911 -0.13601 -0.31819
 C227 C 0.59227 0.34312 0.62115
 C228 C 0.60609 0.32079 0.43286
 C229 C 0.65652 0.33453 0.46509
 C230 C 0.64331 0.35660 0.65384
 C231 C 0.64838 0.37561 0.35197
 C232 C 0.59777 0.36191 0.31955
 C233 C 0.58398 0.38414 0.50724
 C234 C 0.63440 0.39826 0.54042
 H235 H 0.56884 0.32994 0.73219
 H236 H 0.59444 0.28880 0.38770
 H237 H 0.66252 0.35408 0.79115
 H238 H 0.67181 0.38872 0.24069
 H239 H 0.57886 0.36411 0.18135
 H240 H 0.64602 0.43031 0.58525
 C241 C 0.86361 -0.10116 -0.10868
 C242 C 0.85783 -0.12594 -0.29956
 C243 C 0.84401 -0.16557 -0.18483
 C244 C 0.84899 -0.14132 0.00529
 C245 C 0.89461 -0.17991 -0.17460
 C246 C 0.90895 -0.14007 -0.28856
 C247 C 0.91432 -0.11574 -0.09875
 C248 C 0.90012 -0.15539 0.01583
 H249 H 0.85084 -0.06862 -0.08105
 H250 H 0.84005 -0.11415 -0.43002
 H251 H 0.82401 -0.14213 0.12600
 H252 H 0.90736 -0.21241 -0.20237
 H253 H 0.93391 -0.13937 -0.40931
 H254 H 0.91776 -0.16734 0.14629
 C255 C 0.40001 0.34479 0.51755
 C256 C 0.34894 0.35892 0.50621
 C257 C 0.34394 0.33446 0.31665
 C258 C 0.39454 0.32010 0.32766
 C259 C 0.35794 0.37396 0.20131
 C260 C 0.36367 0.39893 0.39159
 C261 C 0.41433 0.38429 0.40225
 C262 C 0.40901 0.35977 0.21295
 H263 H 0.41758 0.33294 0.64841
 H264 H 0.32387 0.35824 0.62657
 H265 H 0.40717 0.28751 0.30079
 H266 H 0.34022 0.38560 0.07047
 H267 H 0.35092 0.43152 0.41839
 H268 H 0.43403 0.36030 0.09236
 C269 C 0.13558 0.60241 0.04006
 C270 C 0.14945 0.62494 -0.14901
 C271 C 0.15782 0.66612 -0.03641
 C272 C 0.14483 0.64419 0.15296
 C273 C 0.10744 0.67974 -0.06776
 C274 C 0.09883 0.63848 -0.18045
 C275 C 0.08517 0.61634 0.00777
 C276 C 0.09378 0.65749 0.12111
 H277 H 0.14711 0.57042 0.08500
 H278 H 0.17267 0.61179 -0.26068
 H279 H 0.16419 0.64686 0.28990
 H280 H 0.09581 0.71165 -0.11305
 H281 H 0.07975 0.63610 -0.31822
 H282 H 0.07052 0.67067 0.23251
 C283 C 0.63500 1.10264 0.53806
 C284 C 0.64893 1.12498 0.34863
 C285 C 0.65733 1.16625 0.46050
 C286 C 0.64426 1.14451 0.65022
 C287 C 0.60697 1.17990 0.42868
 C288 C 0.59832 1.13854 0.31673
 C289 C 0.58461 1.11659 0.50531
 C290 C 0.59322 1.15783 0.61791
 H291 H 0.64650 1.07070 0.58367
 H292 H 0.67216 1.11170 0.23731
 H293 H 0.66359 1.14728 0.78720
 H294 H 0.59540 1.21178 0.38270
 H295 H 0.57926 1.13606 0.17894
 H296 H 0.56995 1.17114 0.72895
 C297 C 0.13464 0.39811 -0.04050
 C298 C 0.14856 0.37528 0.14753
 C299 C 0.15650 0.33424 0.03365
 C300 C 0.14336 0.35649 -0.15471
 C301 C 0.10601 0.32067 0.06552
 C302 C 0.09789 0.36174 0.17959
 C303 C 0.08417 0.38416 -0.00768
 C304 C 0.09227 0.34318 -0.12237
 H305 H 0.14639 0.43015 -0.08468
 H306 H 0.17206 0.38822 0.25911
 H307 H 0.16253 0.35399 -0.29202
 H308 H 0.09423 0.28868 0.10999
 H309 H 0.07903 0.36392 0.31781
 H310 H 0.06875 0.33016 -0.23372
 C311 C 0.59892 0.86245 0.68138
 C312 C 0.60742 0.82139 0.56766
 C313 C 0.65775 0.83541 0.53507
 C314 C 0.64943 0.87643 0.64860
 C315 C 0.64424 0.85742 0.34661
 C316 C 0.59330 0.84367 0.37968
 C317 C 0.58484 0.88464 0.49400
 C318 C 0.63515 0.89902 0.46045
 H319 H 0.58012 0.86454 0.81977
 H320 H 0.59605 0.78931 0.61261
 H321 H 0.67286 0.88966 0.75974
 H322 H 0.66334 0.85503 0.20911
 H323 H 0.56985 0.83038 0.26877
 H324 H 0.64655 0.93113 0.41577
 C325 C 0.90033 0.15498 -0.01863
 C326 C 0.84924 0.14052 -0.00952
 C327 C 0.84396 0.16449 0.18109
 C328 C 0.89459 0.17918 0.17230
 C329 C 0.85779 0.12481 0.29490
 C330 C 0.86378 0.10033 0.10359
 C331 C 0.91447 0.11529 0.09516
 C332 C 0.90888 0.13933 0.28548
 H333 H 0.91809 0.16726 -0.14835
 H334 H 0.82434 0.14132 -0.13059
 H335 H 0.90718 0.21178 0.20125
 H336 H 0.83987 0.11273 0.42461
 H337 H 0.85104 0.06773 0.07479
 H338 H 0.93372 0.13867 0.40678
 C339 C 0.40037 0.65485 0.48387
 C340 C 0.34928 0.64039 0.49388
 C341 C 0.34415 0.66452 0.68414
 C342 C 0.39476 0.67921 0.67445
 C343 C 0.35807 0.62493 0.79846
 C344 C 0.36392 0.60029 0.60749
 C345 C 0.41460 0.61525 0.59815
 C346 C 0.40915 0.63945 0.78814
 H347 H 0.41803 0.66701 0.35370
 H348 H 0.32430 0.64109 0.37312
 H349 H 0.40737 0.71183 0.70262
 H350 H 0.34025 0.61297 0.92860
 H351 H 0.35116 0.56767 0.57942
 H352 H 0.43408 0.63889 0.90912
   
