data_POSCAR
  _audit_creation_date              2014-09-24
  _audit_creation_method            'ToBaCCo'
  _symmetry_space_group_name_H-M    'P1'
  _symmetry_Int_Tables_number       1
  _symmetry_cell_setting            triclinic
  loop_
  _symmetry_equiv_pos_as_xyz
 x,y,z
_cell_length_a 22.1476
_cell_length_b 21.9974
_cell_length_c 42.5440
_cell_angle_alpha 88.905700
_cell_angle_beta 90.623300
_cell_angle_gamma 119.634200
loop_
  _atom_site_label
  _atom_site_type_symbol
  _atom_site_fract_x
  _atom_site_fract_y
  _atom_site_fract_z
Zn1 Zn 0.96264 0.04519 1.01958
 Zn2 Zn 1.09399 0.03687 1.01356
 Zn3 Zn 0.95692 -0.09183 1.00710
 Zn4 Zn 1.00629 0.01767 0.95782
 O5 O 1.00483 0.00219 0.99974
 O6 O 1.02232 0.11450 1.04524
 O7 O 1.10742 -0.02640 1.03502
 O8 O 0.88162 -0.11708 1.03005
 O9 O 1.11773 0.10693 1.03990
 O10 O 0.88848 -0.01664 1.04283
 O11 O 1.00554 -0.12207 1.02954
 O12 O 0.97157 -0.06016 0.93551
 O13 O 1.15781 0.07319 0.98262
 O14 O 0.93078 -0.14327 0.97215
 O15 O 1.09136 0.07108 0.94291
 O16 O 0.95894 0.05999 0.94671
 O17 O 0.92920 0.08537 0.99205
 C18 C 1.08606 0.13604 1.05153
 C19 C 1.06670 -0.09096 1.04059
 C20 C 0.85864 -0.08317 1.04481
 C21 C 0.94174 -0.12428 0.94347
 C22 C 1.15053 0.08857 0.95445
 C23 C 0.92960 0.08685 0.96214
 Zn24 Zn 0.04418 0.95183 0.50711
 Zn25 Zn -0.09251 0.94407 0.51562
 Zn26 Zn 0.03747 1.08339 0.51828
 Zn27 Zn -0.01154 1.00576 0.45741
 O28 O -0.00540 0.99670 0.49969
 O29 O -0.00250 0.87382 0.53017
 O30 O -0.11391 0.99121 0.54218
 O31 O 0.11433 1.09850 0.54051
 O32 O -0.10367 0.86866 0.53714
 O33 O 0.12008 1.00348 0.52942
 O34 O -0.01983 1.09525 0.54495
 O35 O 0.03031 1.09501 0.44483
 O36 O -0.15947 0.91490 0.48645
 O37 O 0.06623 1.15353 0.48934
 O38 O -0.09892 0.96491 0.44329
 O39 O 0.02676 0.96552 0.43554
 O40 O 0.07032 0.92602 0.47225
 C41 C -0.06282 0.84454 0.54204
 C42 C -0.08240 1.05270 0.55280
 C43 C 0.14412 1.06168 0.54311
 C44 C 0.06112 1.15229 0.45949
 C45 C -0.15636 0.92745 0.45714
 C46 C 0.05853 0.93305 0.44355
 O47 O 0.23831 0.56405 0.28485
 O48 O 0.24059 0.68530 0.28512
 C49 C 0.28679 0.72945 0.30317
 O50 O 0.35082 0.75598 0.29762
 O51 O 0.46192 0.75735 0.27866
 C52 C 0.47195 0.70711 0.28651
 O53 O 0.43771 0.64637 0.27522
 O54 O 0.31529 0.53792 0.26408
 C55 C 0.26690 0.52623 0.28346
 O56 O 0.22318 0.55953 0.22218
 O57 O 0.23688 0.68474 0.22205
 C58 C 0.27320 0.75104 0.22057
 O59 O 0.32561 0.78585 0.23827
 O60 O 0.43545 0.78265 0.21951
 C61 C 0.46265 0.75073 0.20645
 O62 O 0.44888 0.68913 0.21465
 O63 O 0.32550 0.58186 0.20359
 C64 C 0.25988 0.55123 0.20189
 Cr65 Cr 0.23842 0.62508 0.25350
 Cr66 Cr 0.39133 0.76672 0.25822
 Cr67 Cr 0.38020 0.61586 0.23979
 O68 O 0.33710 0.66926 0.25049
 O69 O 0.76013 0.44629 0.78517
 O70 O 0.76228 0.32746 0.78541
 C71 C 0.73391 0.26125 0.78409
 O72 O 0.68613 0.22480 0.76446
 O73 O 0.56588 0.21324 0.77737
 C74 C 0.53152 0.24002 0.78837
 O75 O 0.53835 0.29779 0.77827
 O76 O 0.64979 0.40733 0.79753
 C77 C 0.71391 0.44455 0.80314
 O78 O 0.76356 0.44848 0.72212
 O79 O 0.77610 0.33641 0.72246
 C80 C 0.73865 0.29156 0.70220
 O81 O 0.67295 0.25655 0.70421
 O82 O 0.54950 0.24100 0.71632
 C83 C 0.53690 0.28922 0.70716
 O84 O 0.56596 0.34934 0.71922
 O85 O 0.67536 0.46196 0.73828
 C86 C 0.72763 0.47901 0.72063
 Cr87 Cr 0.76201 0.38771 0.75374
 Cr88 Cr 0.62002 0.23740 0.74090
 Cr89 Cr 0.60942 0.37750 0.75805
 O90 O 0.66356 0.33401 0.75072
 C91 C 0.09660 0.23613 0.08385
 C92 C 0.13601 0.29432 0.10305
 C93 C 0.20519 0.31293 0.11099
 C94 C 0.23383 0.27343 0.09969
 C95 C 0.19457 0.21596 0.08071
 C96 C 0.12563 0.19649 0.07251
 C97 C 0.24463 0.37033 0.13032
 C98 C 0.21565 0.40908 0.14231
 C99 C 0.14659 0.39083 0.13437
 C100 C 0.10739 0.33395 0.11460
 C101 C 0.11738 0.42885 0.14697
 C102 C 0.15526 0.48270 0.16807
 C103 C 0.22354 0.50050 0.17655
 C104 C 0.25399 0.46442 0.16295
 H105 H 0.04370 0.22201 0.07766
 H106 H 0.28670 0.28691 0.10556
 H107 H 0.21858 0.18672 0.07239
 H108 H 0.29751 0.38411 0.13647
 H109 H 0.05436 0.31988 0.10864
 H110 H 0.06461 0.41578 0.14115
 H111 H 0.13066 0.50978 0.17821
 H112 H 0.30627 0.47708 0.16961
 C113 C 0.76450 0.90952 0.08024
 C114 C 0.70795 0.87086 0.10058
 C115 C 0.68384 0.79880 0.10604
 C116 C 0.71541 0.76625 0.09062
 C117 C 0.77115 0.80474 0.07041
 C118 C 0.79691 0.87683 0.06520
 C119 C 0.62914 0.76047 0.12711
 C120 C 0.59799 0.79312 0.14291
 C121 C 0.62087 0.86474 0.13696
 C122 C 0.67564 0.90316 0.11585
 C123 C 0.58918 0.89701 0.15261
 C124 C 0.53660 0.85930 0.17450
 C125 C 0.51459 0.78846 0.18130
 C126 C 0.54509 0.75549 0.16499
 H127 H 0.78355 0.96490 0.07637
 H128 H 0.69745 0.71106 0.09443
 H129 H 0.79485 0.77792 0.05922
 H130 H 0.61142 0.70544 0.13149
 H131 H 0.69362 0.95827 0.11161
 H132 H 0.60572 0.95173 0.14826
 H133 H 0.51414 0.88627 0.18658
 H134 H 0.52861 0.70092 0.16983
 C135 C 0.14311 0.90514 0.08326
 C136 C 0.15940 0.86772 0.10560
 C137 C 0.12290 0.79374 0.10554
 C138 C 0.07098 0.75851 0.08302
 C139 C 0.05400 0.79614 0.06132
 C140 C 0.08947 0.86965 0.06139
 C141 C 0.13800 0.75621 0.12831
 C142 C 0.18851 0.79173 0.15140
 C143 C 0.22487 0.86571 0.15144
 C144 C 0.21037 0.90321 0.12847
 C145 C 0.27515 0.90107 0.17455
 C146 C 0.28980 0.86364 0.19728
 C147 C 0.25435 0.79004 0.19744
 C148 C 0.20335 0.75442 0.17442
 H149 H 0.17022 0.96181 0.08375
 H150 H 0.04250 0.70186 0.08261
 H151 H 0.01246 0.76766 0.04467
 H152 H 0.10997 0.69948 0.12827
 H153 H 0.23820 0.95995 0.12859
 H154 H 0.30343 0.95772 0.17496
 H155 H 0.32943 0.89255 0.21465
 H156 H 0.17589 0.69773 0.17410
 C157 C 0.86095 0.76435 0.58446
 C158 C 0.84452 0.71072 0.60673
 C159 C 0.88180 0.67387 0.60714
 C160 C 0.93477 0.69125 0.58514
 C161 C 0.95178 0.74577 0.56344
 C162 C 0.91536 0.78303 0.56303
 C163 C 0.86626 0.62108 0.62981
 C164 C 0.81450 0.60534 0.65230
 C165 C 0.77746 0.64245 0.65188
 C166 C 0.79244 0.69460 0.62902
 C167 C 0.72599 0.62687 0.67439
 C168 C 0.71080 0.57459 0.69701
 C169 C 0.74687 0.53690 0.69761
 C170 C 0.79906 0.55294 0.67519
 H171 H 0.83301 0.79324 0.58458
 H172 H 0.96388 0.66358 0.58510
 H173 H 0.99395 0.75925 0.54714
 H174 H 0.89482 0.59277 0.63014
 H175 H 0.76405 0.72308 0.62876
 H176 H 0.69721 0.65488 0.67443
 H177 H 0.67027 0.56335 0.71393
 H178 H 0.82705 0.52411 0.67524
 C179 C 0.23716 0.14819 0.57923
 C180 C 0.29364 0.16601 0.59977
 C181 C 0.31990 0.11945 0.60430
 C182 C 0.29070 0.05695 0.58770
 C183 C 0.23497 0.03972 0.56737
 C184 C 0.20681 0.08442 0.56315
 C185 C 0.37427 0.13545 0.62565
 C186 C 0.40306 0.19758 0.64264
 C187 C 0.37814 0.24508 0.63757
 C188 C 0.32363 0.22903 0.61621
 C189 C 0.40763 0.30755 0.65427
 C190 C 0.46018 0.32224 0.67625
 C191 C 0.48427 0.27462 0.68218
 C192 C 0.45575 0.21251 0.66495
 H193 H 0.21626 0.18327 0.57619
 H194 H 0.31036 0.02084 0.59075
 H195 H 0.21308 -0.00969 0.55534
 H196 H 0.39357 0.09913 0.62932
 H197 H 0.30405 0.26516 0.61268
 H198 H 0.38950 0.34477 0.65061
 H199 H 0.48099 0.37054 0.68909
 H200 H 0.47398 0.17549 0.66909
 C201 C 0.90549 0.14270 0.58435
 C202 C 0.86565 0.16058 0.60383
 C203 C 0.79842 0.10842 0.61338
 C204 C 0.77219 0.03963 0.60353
 C205 C 0.81177 0.02232 0.58433
 C206 C 0.87867 0.07333 0.57436
 C207 C 0.75841 0.12542 0.63283
 C208 C 0.78492 0.19384 0.64344
 C209 C 0.85209 0.24627 0.63403
 C210 C 0.89179 0.22949 0.61406
 C211 C 0.87900 0.31426 0.64538
 C212 C 0.84087 0.32949 0.66670
 C213 C 0.77448 0.27745 0.67656
 C214 C 0.74613 0.21004 0.66420
 H215 H 0.95678 0.18262 0.57682
 H216 H 0.72090 -0.00098 0.61069
 H217 H 0.78943 -0.03155 0.57716
 H218 H 0.70705 0.08508 0.64015
 H219 H 0.94333 0.26973 0.60693
 H220 H 0.93029 0.35522 0.63846
 H221 H 0.86381 0.38186 0.67592
 H222 H 0.69543 0.16929 0.67201
 C223 C 0.25118 0.09950 0.92409
 C224 C 0.30212 0.13409 0.90083
 C225 C 0.31435 0.19965 0.88873
 C226 C 0.27607 0.22963 0.90009
 C227 C 0.22424 0.19392 0.92241
 C228 C 0.21131 0.12880 0.93437
 C229 C 0.36308 0.23334 0.86478
 C230 C 0.39877 0.20182 0.85215
 C231 C 0.38701 0.13649 0.86411
 C232 C 0.33914 0.10324 0.88863
 C233 C 0.42282 0.10533 0.85102
 C234 C 0.46949 0.13845 0.82623
 C235 C 0.48117 0.20332 0.81412
 C236 C 0.44556 0.23461 0.82741
 H237 H 0.24005 0.04846 0.93296
 H238 H 0.28470 0.27965 0.89099
 H239 H 0.19317 0.21653 0.93001
 H240 H 0.37209 0.28341 0.85548
 H241 H 0.32968 0.05289 0.89772
 H242 H 0.41457 0.05528 0.85987
 H243 H 0.49649 0.11331 0.81659
 H244 H 0.45414 0.28479 0.81853
 C245 C 0.86726 0.75391 0.92358
 C246 C 0.84907 0.70421 0.89983
 C247 C 0.88701 0.72348 0.87135
 C248 C 0.94112 0.79214 0.86677
 C249 C 0.95768 0.84153 0.89012
 C250 C 0.92140 0.82291 0.91875
 C251 C 0.86988 0.67417 0.84771
 C252 C 0.81377 0.60634 0.85163
 C253 C 0.77444 0.58721 0.87967
 C254 C 0.79308 0.63596 0.90385
 C255 C 0.71629 0.52007 0.88270
 C256 C 0.69663 0.47296 0.85793
 C257 C 0.73610 0.49156 0.83022
 C258 C 0.79519 0.55798 0.82744
 H259 H 0.83873 0.73931 0.94553
 H260 H 0.97044 0.80777 0.84504
 H261 H 0.99990 0.89424 0.88598
 H262 H 0.89935 0.68902 0.82599
 H263 H 0.76329 0.62127 0.92547
 H264 H 0.68524 0.50456 0.90391
 H265 H 0.65066 0.42200 0.86039
 H266 H 0.82504 0.57310 0.80584
 C267 C 0.87485 0.10028 0.91319
 C268 C 0.84912 0.13537 0.89447
 C269 C 0.84520 0.19258 0.90670
 C270 C 0.86494 0.21188 0.93806
 C271 C 0.89006 0.17597 0.95675
 C272 C 0.89652 0.12084 0.94422
 C273 C 0.82232 0.22968 0.88727
 C274 C 0.80256 0.20943 0.85597
 C275 C 0.80452 0.15058 0.84432
 C276 C 0.82817 0.11436 0.86354
 C277 C 0.78288 0.12874 0.81353
 C278 C 0.75958 0.16482 0.79427
 C279 C 0.75872 0.22422 0.80518
 C280 C 0.78056 0.24662 0.83608
 H281 H 0.87877 0.05718 0.90342
 H282 H 0.86187 0.25528 0.94796
 H283 H 0.90655 0.19273 0.98061
 H284 H 0.82011 0.27420 0.89644
 H285 H 0.83056 0.06990 0.85435
 H286 H 0.78382 0.08359 0.80435
 H287 H 0.74312 0.14684 0.77053
 H288 H 0.77918 0.29196 0.84473
 C289 C 0.77150 0.85681 0.41251
 C290 C 0.71098 0.83014 0.39415
 C291 C 0.65897 0.84716 0.40148
 C292 C 0.66678 0.88746 0.42798
 C293 C 0.72625 0.91189 0.44670
 C294 C 0.77934 0.89792 0.43867
 C295 C 0.60043 0.82426 0.38205
 C296 C 0.59249 0.78327 0.35583
 C297 C 0.64247 0.76285 0.34954
 C298 C 0.70183 0.78708 0.36855
 C299 C 0.63266 0.71940 0.32400
 C300 C 0.57506 0.69830 0.30425
 C301 C 0.52741 0.72156 0.30941
 C302 C 0.53581 0.76322 0.33547
 H303 H 0.81233 0.84536 0.40663
 H304 H 0.62713 0.90036 0.43411
 H305 H 0.73182 0.94343 0.46693
 H306 H 0.56140 0.83878 0.38720
 H307 H 0.74105 0.77289 0.36330
 H308 H 0.67005 0.70267 0.31903
 H309 H 0.56927 0.66626 0.28418
 H310 H 0.49850 0.78055 0.33965
 C311 C 0.11366 0.21940 0.41001
 C312 C 0.14081 0.28067 0.39155
 C313 C 0.14477 0.34178 0.40385
 C314 C 0.12354 0.34089 0.43494
 C315 C 0.09782 0.27979 0.45346
 C316 C 0.09168 0.21833 0.44097
 C317 C 0.16973 0.40245 0.38487
 C318 C 0.19212 0.40300 0.35401
 C319 C 0.19034 0.34234 0.34228
 C320 C 0.16404 0.28150 0.36097
 C321 C 0.21494 0.34339 0.31198
 C322 C 0.24077 0.40377 0.29327
 C323 C 0.24121 0.46381 0.30421
 C324 C 0.21662 0.46315 0.33465
 H325 H 0.11004 0.17245 0.40033
 H326 H 0.12663 0.38732 0.44489
 H327 H 0.08118 0.28009 0.47727
 H328 H 0.17193 0.44911 0.39411
 H329 H 0.16184 0.23480 0.35173
 H330 H 0.21426 0.29748 0.30274
 H331 H 0.25920 0.40308 0.26986
 H332 H 0.21753 0.50960 0.34335
 C333 C 0.13397 0.88638 0.42364
 C334 C 0.15211 0.85471 0.39991
 C335 C 0.11375 0.83566 0.37149
 C336 C 0.05932 0.84995 0.36692
 C337 C 0.04276 0.88285 0.39024
 C338 C 0.07940 0.90091 0.41884
 C339 C 0.13073 0.80327 0.34788
 C340 C 0.18706 0.79164 0.35176
 C341 C 0.22682 0.81219 0.37973
 C342 C 0.20838 0.84257 0.40388
 C343 C 0.28518 0.80324 0.38269
 C344 C 0.30461 0.77552 0.35794
 C345 C 0.26472 0.75434 0.33029
 C346 C 0.20543 0.76161 0.32758
 H347 H 0.16275 0.90054 0.44557
 H348 H 0.02967 0.83595 0.34524
 H349 H 0.00016 0.89297 0.38611
 H350 H 0.10091 0.78835 0.32622
 H351 H 0.23850 0.85794 0.42545
 H352 H 0.31657 0.81903 0.40385
 H353 H 0.35076 0.77062 0.36035
 H354 H 0.17524 0.74664 0.30603
   
