data_POSCAR
  _audit_creation_date              2014-09-24
  _audit_creation_method            'ToBaCCo'
  _symmetry_space_group_name_H-M    'P1'
  _symmetry_Int_Tables_number       1
  _symmetry_cell_setting            triclinic
  loop_
  _symmetry_equiv_pos_as_xyz
 x,y,z
_cell_length_a 21.5742
_cell_length_b 21.7726
_cell_length_c 15.2836
_cell_angle_alpha 88.286500
_cell_angle_beta 89.004800
_cell_angle_gamma 90.243900
loop_
  _atom_site_label
  _atom_site_type_symbol
  _atom_site_fract_x
  _atom_site_fract_y
  _atom_site_fract_z
C1 C 0.10938 0.17345 0.23756
 C2 C 0.08636 0.22347 0.18879
 C3 C 0.11356 0.28191 0.19341
 C4 C 0.16582 0.29017 0.24612
 C5 C 0.18995 0.23955 0.29465
 C6 C 0.16135 0.18102 0.29090
 C7 C 0.18510 0.13160 0.34113
 C8 C 0.23594 0.13970 0.39454
 C9 C 0.26502 0.19735 0.39883
 C10 C 0.24230 0.24763 0.34792
 C11 C 0.19513 0.34782 0.25029
 C12 C 0.24729 0.35559 0.30158
 C13 C 0.27130 0.30616 0.35117
 C14 C 0.32273 0.31402 0.40553
 C15 C 0.34414 0.26385 0.45601
 C16 C 0.31589 0.20633 0.45348
 H17 H 0.16432 0.08628 0.33970
 H18 H 0.25249 0.10043 0.43238
 H19 H 0.17808 0.38734 0.21349
 H20 H 0.26832 0.40080 0.30290
 H21 H 0.04574 0.21731 0.14914
 H22 H 0.38347 0.26945 0.49830
 C23 C 0.80796 0.29408 0.00751
 C24 C 0.83392 0.23679 -0.00864
 C25 C 0.81903 0.18498 0.04437
 C26 C 0.77451 0.19006 0.11221
 C27 C 0.75009 0.24848 0.13197
 C28 C 0.76727 0.30101 0.07992
 C29 C 0.74408 0.35881 0.10254
 C30 C 0.70574 0.36494 0.17639
 C31 C 0.68842 0.31333 0.22883
 C32 C 0.70978 0.25449 0.20540
 C33 C 0.75547 0.13820 0.16273
 C34 C 0.71318 0.14368 0.23191
 C35 C 0.69066 0.20150 0.25502
 C36 C 0.64977 0.20734 0.32703
 C37 C 0.63228 0.26595 0.35301
 C38 C 0.65091 0.31901 0.30473
 H39 H 0.75641 0.39978 0.06409
 H40 H 0.68988 0.41045 0.19236
 H41 H 0.77283 0.09290 0.14859
 H42 H 0.69961 0.10243 0.26887
 H43 H 0.86756 0.23312 -0.06171
 H44 H 0.60007 0.27011 0.40764
 C45 C 0.68999 0.71397 0.58400
 C46 C 0.66794 0.77009 0.54944
 C47 C 0.69398 0.82624 0.57321
 C48 C 0.74728 0.82609 0.62516
 C49 C 0.76948 0.76997 0.66156
 C50 C 0.73955 0.71396 0.64304
 C51 C 0.75934 0.65935 0.68502
 C52 C 0.80755 0.65992 0.74470
 C53 C 0.83903 0.71480 0.76199
 C54 C 0.82019 0.77019 0.71933
 C55 C 0.77802 0.88115 0.64323
 C56 C 0.83041 0.88091 0.69539
 C57 C 0.85177 0.82593 0.73471
 C58 C 0.90374 0.82521 0.78943
 C59 C 0.92013 0.77109 0.83439
 C60 C 0.88823 0.71619 0.82190
 H61 H 0.73703 0.61584 0.67293
 H62 H 0.82004 0.61690 0.77683
 H63 H 0.76238 0.92466 0.61561
 H64 H 0.85325 0.92430 0.70656
 H65 H 0.62645 0.77022 0.51058
 H66 H 0.95949 0.77111 0.87759
 C67 C 0.33831 0.80600 0.69065
 C68 C 0.35770 0.75362 0.64672
 C69 C 0.33808 0.69474 0.67427
 C70 C 0.29546 0.68784 0.74455
 C71 C 0.27370 0.74044 0.78785
 C72 C 0.29584 0.79969 0.76159
 C73 C 0.27497 0.85107 0.80685
 C74 C 0.23309 0.84429 0.87715
 C75 C 0.21095 0.78582 0.90463
 C76 C 0.23133 0.73350 0.85940
 C77 C 0.27440 0.62935 0.77275
 C78 C 0.23263 0.62254 0.84277
 C79 C 0.21085 0.67403 0.88720
 C80 C 0.17015 0.66731 0.95999
 C81 C 0.14986 0.71912 1.00390
 C82 C 0.17003 0.77804 0.97736
 H83 H 0.29085 0.89692 0.78802
 H84 H 0.21830 0.88518 0.91018
 H85 H 0.28997 0.58839 0.74057
 H86 H 0.21768 0.57650 0.86219
 H87 H 0.39240 0.75830 0.59487
 H88 H 0.11973 0.71338 1.06115
 O89 O 1.03984 -0.09689 0.07351
 O90 O 0.92606 0.02631 0.03393
 O91 O 0.96093 -0.07167 -0.05174
 O92 O 1.00114 -0.00201 0.15627
 O93 O 1.07080 0.05691 0.08646
 O94 O 1.03357 -0.01603 -0.12047
 O95 O 0.99742 0.08097 -0.03939
 O96 O 1.11208 -0.03976 0.00633
 Cu97 Cu 0.97459 -0.04235 0.05881
 Cu98 Cu 1.06104 0.02548 -0.02432
 C99 C 1.09572 -0.08832 0.04868
 C100 C 0.94320 0.07545 -0.00682
 C101 C 0.99031 -0.05558 -0.12146
 C102 C 1.04140 0.04059 0.15624
 O103 O 0.57078 0.44770 0.51627
 O104 O 0.45584 0.55999 0.58887
 O105 O 0.45447 0.44476 0.54994
 O106 O 0.57445 0.56398 0.55917
 O107 O 0.55695 0.59162 0.42159
 O108 O 0.43576 0.47142 0.41225
 O109 O 0.43910 0.58839 0.45131
 O110 O 0.55349 0.47452 0.37829
 Cu111 Cu 0.51599 0.50171 0.56733
 Cu112 Cu 0.49481 0.53430 0.40185
 C113 C 0.57951 0.44002 0.43509
 C114 C 0.42877 0.59404 0.53261
 C115 C 0.42594 0.43663 0.47945
 C116 C 0.58477 0.59938 0.49300
 O117 O -0.05834 0.55571 -0.04339
 O118 O 0.00607 0.41955 0.07291
 O119 O 0.03926 0.53221 0.04842
 O120 O -0.09981 0.44355 -0.00270
 O121 O -0.05850 0.41935 -0.13032
 O122 O 0.08494 0.50095 -0.07290
 O123 O 0.04409 0.38771 -0.05293
 O124 O -0.01195 0.52724 -0.16557
 Cu125 Cu -0.03335 0.49049 0.03086
 Cu126 Cu 0.01901 0.45578 -0.11761
 C127 C -0.04473 0.56508 -0.12419
 C128 C 0.03629 0.38053 0.02907
 C129 C 0.08609 0.53069 -0.00248
 C130 C -0.10312 0.41679 -0.07501
 O131 O 0.43899 1.07191 0.61023
 O132 O 0.56998 0.96814 0.57828
 O133 O 0.55341 1.08777 0.55324
 O134 O 0.45380 0.95566 0.62366
 O135 O 0.42490 0.94598 0.48665
 O136 O 0.53169 1.06963 0.41575
 O137 O 0.53988 0.95017 0.44403
 O138 O 0.41515 1.06516 0.47082
 Cu139 Cu 0.50751 1.02258 0.60478
 Cu140 Cu 0.47556 1.00735 0.44017
 C141 C 0.40461 1.08602 0.54661
 C142 C 0.57520 0.93873 0.50808
 C143 C 0.55976 1.10060 0.47189
 C144 C 0.42222 0.92867 0.56649
 N145 N 1.08032 0.12058 0.23602
 N146 N 1.05238 0.07116 0.23576
 N147 N 0.65655 0.65826 0.56895
 N148 N 0.62437 0.65153 0.50086
 N149 N -0.17523 0.34065 -0.04380
 N150 N -0.15723 0.38239 -0.09423
 N151 N 0.36698 0.86408 0.66812
 N152 N 0.38628 0.87555 0.59023
 N153 N -0.09215 0.66240 -0.13042
 N154 N -0.06567 0.61894 -0.16992
 N155 N 0.33494 1.16311 0.50773
 N156 N 0.35301 1.12504 0.56251
 N157 N 1.15456 -0.17544 0.02543
 N158 N 1.14138 -0.13243 0.07272
 N159 N 0.62624 0.37736 0.32882
 N160 N 0.61371 0.38767 0.40867
 N161 N 0.93981 -0.12658 -0.20564
 N162 N 0.97505 -0.08210 -0.20255
 N163 N 0.35474 0.37192 0.40857
 N164 N 0.38646 0.38427 0.47525
 N165 N 0.15461 0.61265 -0.00872
 N166 N 0.14139 0.56119 0.02164
 N167 N 0.61946 1.15395 0.36528
 N168 N 0.59688 1.15196 0.44283
 N169 N 0.08710 0.33343 0.14722
 N170 N 0.06308 0.32844 0.07239
 N171 N 0.65933 0.88195 0.56132
 N172 N 0.61717 0.88826 0.50458
 N173 N 0.85468 0.12971 0.03782
 N174 N 0.90343 0.12750 -0.00994
 N175 N 0.36844 0.64219 0.63935
 N176 N 0.38993 0.64246 0.56135
   
