data_POSCAR
  _audit_creation_date              2014-09-24
  _audit_creation_method            'ToBaCCo'
  _symmetry_space_group_name_H-M    'P1'
  _symmetry_Int_Tables_number       1
  _symmetry_cell_setting            triclinic
  loop_
  _symmetry_equiv_pos_as_xyz
 x,y,z
_cell_length_a 32.0904
_cell_length_b 32.1268
_cell_length_c 32.2628
_cell_angle_alpha 82.548900
_cell_angle_beta 98.573100
_cell_angle_gamma 102.642200
loop_
  _atom_site_label
  _atom_site_type_symbol
  _atom_site_fract_x
  _atom_site_fract_y
  _atom_site_fract_z
C1 C 0.60495 0.60171 -0.00334
 C2 C 0.60977 0.56120 -0.01204
 C3 C 0.57356 0.52726 -0.01152
 C4 C 0.53485 0.53183 0.00116
 C5 C 0.53186 0.57236 0.01118
 C6 C 0.56592 0.60829 0.00730
 C7 C 0.49766 0.49424 0.00355
 C8 C 0.45479 0.50006 -0.00090
 C9 C 0.42029 0.46489 0.00284
 C10 C 0.42837 0.42329 0.00826
 C11 C 0.47041 0.41644 0.01155
 C12 C 0.50482 0.45192 0.01055
 H13 H 0.63275 0.62762 -0.00130
 H14 H 0.57501 0.49740 -0.02265
 H15 H 0.50218 0.57618 0.02049
 H16 H 0.44777 0.53183 -0.00695
 H17 H 0.40159 0.39610 0.00875
 H18 H 0.53721 0.44606 0.01585
 C19 C -0.01853 0.57057 0.40160
 C20 C -0.02611 0.57586 0.44230
 C21 C -0.02287 0.54189 0.47400
 C22 C -0.00810 0.50547 0.46717
 C23 C 0.00020 0.50174 0.42623
 C24 C -0.00664 0.53327 0.39248
 C25 C -0.00163 0.47181 0.50317
 C26 C -0.00437 0.42863 0.49660
 C27 C 0.00172 0.39762 0.53075
 C28 C 0.00800 0.40938 0.57197
 C29 C 0.01000 0.45180 0.57941
 C30 C 0.00699 0.48290 0.54497
 H31 H -0.01809 0.59727 0.37751
 H32 H -0.03326 0.54327 0.50402
 H33 H 0.01066 0.47358 0.42051
 H34 H -0.01113 0.41875 0.46512
 H35 H 0.00995 0.38504 0.59837
 H36 H 0.01163 0.51596 0.55128
 C37 C 0.57152 -0.00395 0.59874
 C38 C 0.53327 0.00747 0.60469
 C39 C 0.50085 0.00934 0.57057
 C40 C 0.50536 -0.00211 0.53101
 C41 C 0.54356 -0.01521 0.52647
 C42 C 0.57797 -0.01436 0.55941
 C43 C 0.47101 0.00044 0.49417
 C44 C 0.48167 0.00699 0.45262
 C45 C 0.44992 0.00697 0.41772
 C46 C 0.40713 0.00383 0.42426
 C47 C 0.39568 -0.00046 0.46514
 C48 C 0.42747 -0.00351 0.49988
 H49 H 0.59544 -0.00672 0.62583
 H50 H 0.47260 0.02056 0.57508
 H51 H 0.54710 -0.02436 0.49645
 H52 H 0.51484 0.01270 0.44679
 H53 H 0.38236 0.00360 0.39746
 H54 H 0.41798 -0.00863 0.53120
 O55 O 0.47672 0.00296 -0.04739
 O56 O 0.47205 -0.00682 0.06663
 O57 O 0.47014 0.05442 0.00635
 O58 O 0.48119 -0.05833 0.01368
 O59 O 0.55196 -0.03750 0.02489
 O60 O 0.54100 0.07486 0.01733
 O61 O 0.54284 0.01401 0.07799
 O62 O 0.54754 0.02356 -0.03650
 Cu63 Cu 0.46790 -0.00418 0.00865
 Cu64 Cu 0.55301 0.02061 0.02199
 C65 C 0.51282 0.01507 -0.06126
 C66 C 0.50644 0.00268 0.09149
 C67 C 0.50378 0.08360 0.01104
 C68 C 0.51855 -0.06688 0.02046
 O69 O -0.03553 0.54923 0.97337
 O70 O 0.07760 0.53855 0.98662
 O71 O 0.01820 0.54050 0.92302
 O72 O 0.02384 0.54485 1.03755
 O73 O 0.00322 0.47429 1.04630
 O74 O -0.00263 0.46997 0.93216
 O75 O 0.05708 0.46796 0.99545
 O76 O -0.05636 0.47871 0.98239
 Cu77 Cu 0.02297 0.55041 0.97928
 Cu78 Cu -0.00186 0.46563 0.99000
 C79 C -0.06504 0.51588 0.97583
 C80 C 0.08644 0.50149 0.99282
 C81 C 0.00741 0.50431 0.90840
 C82 C 0.01450 0.51024 1.06124
 O83 O -0.03609 -0.07271 0.46008
 O84 O -0.02075 0.04320 0.46639
 O85 O 0.02980 -0.00904 0.46032
 O86 O -0.08581 -0.02117 0.46878
 O87 O -0.07198 -0.03177 0.53814
 O88 O 0.04313 -0.01945 0.52972
 O89 O -0.00730 0.03288 0.53578
 O90 O -0.02246 -0.08346 0.52944
 Cu91 Cu -0.02949 -0.01381 0.45690
 Cu92 Cu -0.01321 -0.02644 0.54025
 C93 C -0.03183 -0.09765 0.49355
 C94 C -0.01190 0.05761 0.50211
 C95 C 0.05591 -0.01257 0.49366
 C96 C -0.09831 -0.02845 0.50504
 C97 C -0.27741 0.58192 0.95996
 C98 C -0.26726 0.54146 0.97071
 C99 C -0.29828 0.50717 0.98521
 C100 C -0.33902 0.51338 0.98987
 C101 C -0.34974 0.55436 0.98031
 C102 C -0.31812 0.58838 0.96458
 C103 C -0.22437 0.53549 0.96899
 C104 C -0.18823 0.53051 0.96883
 C105 C -0.14562 0.52490 0.97002
 C106 C -0.10898 0.52048 0.97211
 H107 H -0.25368 0.60869 0.94836
 H108 H -0.29063 0.47574 0.99401
 H109 H -0.36093 0.48624 1.00338
 H110 H -0.32471 0.62004 0.95483
 C111 C 0.31724 0.50739 0.97169
 C112 C 0.29091 0.48229 1.00036
 C113 C 0.30691 0.45189 1.02983
 C114 C 0.34900 0.44641 1.03059
 C115 C 0.37570 0.47127 1.00180
 C116 C 0.35945 0.50198 0.97241
 C117 C 0.24726 0.48716 0.99935
 C118 C 0.21052 0.49065 0.99860
 C119 C 0.16737 0.49436 0.99744
 C120 C 0.13043 0.49749 0.99585
 H121 H 0.30508 0.53093 0.94865
 H122 H 0.28683 0.43237 1.05221
 H123 H 0.36082 0.42297 1.05398
 H124 H 0.37911 0.52126 0.94961
 C125 C -0.05746 -0.31679 0.42820
 C126 C -0.04402 -0.30333 0.46838
 C127 C -0.02744 -0.33086 0.50060
 C128 C -0.02298 -0.37122 0.49245
 C129 C -0.03470 -0.38489 0.45153
 C130 C -0.05303 -0.35710 0.41982
 C131 C -0.04439 -0.26020 0.47574
 C132 C -0.04321 -0.22354 0.48123
 C133 C -0.04035 -0.18012 0.48671
 C134 C -0.03691 -0.14264 0.49044
 H135 H -0.07072 -0.29580 0.40306
 H136 H -0.01658 -0.32057 0.53178
 H137 H -0.00761 -0.39018 0.51791
 H138 H -0.06465 -0.36635 0.38843
 C139 C 0.03079 0.28808 0.54312
 C140 C -0.00047 0.26648 0.51398
 C141 C -0.03052 0.28806 0.48933
 C142 C -0.02958 0.33095 0.49419
 C143 C 0.00135 0.35268 0.52392
 C144 C 0.03174 0.33084 0.54806
 C145 C -0.00224 0.22190 0.51037
 C146 C -0.00369 0.18442 0.50815
 C147 C -0.00569 0.14037 0.50610
 C148 C -0.00801 0.10264 0.50442
 H149 H 0.05424 0.27176 0.56230
 H150 H -0.05496 0.27159 0.46676
 H151 H -0.05364 0.34677 0.47547
 H152 H 0.05632 0.34690 0.57077
 C153 C 0.55732 0.04365 -0.28550
 C154 C 0.51930 0.02397 -0.26859
 C155 C 0.48461 0.00168 -0.29411
 C156 C 0.48843 -0.00214 -0.33602
 C157 C 0.52715 0.01610 -0.35276
 C158 C 0.56122 0.03983 -0.32731
 C159 C 0.51709 0.02422 -0.22441
 C160 C 0.51597 0.02337 -0.18713
 C161 C 0.51509 0.02132 -0.14330
 C162 C 0.51428 0.01881 -0.10583
 H163 H 0.58435 0.06100 -0.26604
 H164 H 0.45509 -0.01383 -0.28128
 H165 H 0.46184 -0.02091 -0.35476
 H166 H 0.59122 0.05466 -0.33954
 C167 C 0.45161 0.03253 0.29966
 C168 C 0.48007 0.00772 0.29222
 C169 C 0.49962 -0.01621 0.32588
 C170 C 0.49037 -0.01580 0.36677
 C171 C 0.46134 0.00856 0.37453
 C172 C 0.44227 0.03297 0.34054
 C173 C 0.48817 0.00588 0.24991
 C174 C 0.49411 0.00426 0.21420
 C175 C 0.49990 0.00270 0.17199
 C176 C 0.50364 0.00209 0.13549
 H177 H 0.43633 0.05121 0.27379
 H178 H 0.52155 -0.03567 0.32044
 H179 H 0.50507 -0.03542 0.39218
 H180 H 0.42017 0.05237 0.34559
 C181 C 0.52480 -0.30258 0.04235
 C182 C 0.54837 -0.26673 0.02077
 C183 C 0.57874 -0.27201 -0.00387
 C184 C 0.58513 -0.31295 -0.00757
 C185 C 0.56102 -0.34991 0.01327
 C186 C 0.53100 -0.34368 0.03875
 C187 C 0.54079 -0.22453 0.02285
 C188 C 0.53477 -0.18889 0.02358
 C189 C 0.52827 -0.14678 0.02339
 C190 C 0.52338 -0.11050 0.02244
 H191 H 0.50147 -0.29881 0.06191
 H192 H 0.59699 -0.24446 -0.02099
 H193 H 0.60746 -0.31529 -0.02875
 H194 H 0.51290 -0.37013 0.05715
 C195 C 0.51215 0.32055 -0.00961
 C196 C 0.48783 0.28726 0.01450
 C197 C 0.45932 0.29640 0.03926
 C198 C 0.45444 0.33858 0.03926
 C199 C 0.47805 0.37217 0.01441
 C200 C 0.50735 0.36276 -0.00964
 C201 C 0.49133 0.24361 0.01308
 C202 C 0.49395 0.20696 0.01181
 C203 C 0.49695 0.16400 0.01063
 C204 C 0.49978 0.12727 0.01028
 H205 H 0.53427 0.31380 -0.02892
 H206 H 0.44047 0.27087 0.05818
 H207 H 0.43204 0.34491 0.05848
 H208 H 0.52556 0.38786 -0.02949
 C209 C -0.33741 -0.05174 0.51307
 C210 C -0.30001 -0.03197 0.53683
 C211 C -0.30303 -0.00818 0.56910
 C212 C -0.34313 -0.00331 0.57715
 C213 C -0.38154 -0.02212 0.55289
 C214 C -0.37775 -0.04700 0.52096
 C215 C -0.25821 -0.03454 0.52755
 C216 C -0.22246 -0.03508 0.52065
 C217 C -0.17985 -0.03408 0.51377
 C218 C -0.14288 -0.03205 0.50907
 H219 H -0.33543 -0.07064 0.48821
 H220 H -0.27418 0.00757 0.58751
 H221 H -0.34327 0.01745 0.60094
 H222 H -0.40572 -0.06393 0.50248
 C223 C 0.28449 0.02584 0.44991
 C224 C 0.26404 -0.00356 0.48015
 C225 C 0.28681 -0.03166 0.50618
 C226 C 0.32980 -0.03056 0.50173
 C227 C 0.35043 -0.00139 0.47105
 C228 C 0.32734 0.02696 0.44539
 C229 C 0.21951 -0.00516 0.48378
 C230 C 0.18212 -0.00633 0.48614
 C231 C 0.13822 -0.00783 0.48852
 C232 C 0.10066 -0.00957 0.49064
 H233 H 0.26725 0.04781 0.42968
 H234 H 0.27124 -0.05464 0.52964
 H235 H 0.34659 -0.05304 0.52166
 H236 H 0.34253 0.05022 0.42193
 C237 C -0.01975 0.54490 1.27437
 C238 C 0.00805 0.52005 1.26604
 C239 C 0.03089 0.49890 1.29950
 C240 C 0.02612 0.50283 1.34122
 C241 C -0.00153 0.52837 1.35034
 C242 C -0.02460 0.54901 1.31580
 C243 C 0.01250 0.51646 1.22294
 C244 C 0.01480 0.51447 1.18630
 C245 C 0.01599 0.51289 1.14295
 C246 C 0.01588 0.51175 1.10572
 H247 H -0.03807 0.56097 1.24871
 H248 H 0.05269 0.47963 1.29338
 H249 H 0.04569 0.48718 1.36593
 H250 H -0.04793 0.56723 1.32028
 C251 C 0.03953 0.45407 0.69775
 C252 C 0.01368 0.48098 0.70645
 C253 C -0.01198 0.49962 0.67351
 C254 C -0.01237 0.49087 0.63212
 C255 C 0.01291 0.46325 0.62309
 C256 C 0.03919 0.44524 0.65635
 C257 C 0.01227 0.48817 0.74930
 C258 C 0.01071 0.49340 0.78533
 C259 C 0.00890 0.49848 0.82780
 C260 C 0.00778 0.50178 0.86439
 H261 H 0.05955 0.43948 0.72303
 H262 H -0.03227 0.52033 0.67989
 H263 H -0.03344 0.50472 0.60733
 H264 H 0.05932 0.42423 0.65036
   
