data_POSCAR
  _audit_creation_date              2014-09-24
  _audit_creation_method            'ToBaCCo'
  _symmetry_space_group_name_H-M    'P1'
  _symmetry_Int_Tables_number       1
  _symmetry_cell_setting            triclinic
  loop_
  _symmetry_equiv_pos_as_xyz
 x,y,z
_cell_length_a 18.2635
_cell_length_b 18.2648
_cell_length_c 36.3124
_cell_angle_alpha 90.195600
_cell_angle_beta 89.999700
_cell_angle_gamma 89.997700
loop_
  _atom_site_label
  _atom_site_type_symbol
  _atom_site_fract_x
  _atom_site_fract_y
  _atom_site_fract_z
C1 C -0.06437 0.68770 0.99995
 C2 C -0.05572 0.65174 1.03381
 C3 C -0.03263 0.57825 1.03364
 C4 C -0.01098 0.54263 1.00075
 C5 C -0.01359 0.58332 0.96769
 C6 C -0.04243 0.65480 0.96670
 C7 C 0.01488 0.46399 1.00085
 C8 C 0.01651 0.42213 0.96797
 C9 C 0.04244 0.34970 0.96755
 C10 C 0.06249 0.31673 1.00083
 C11 C 0.05698 0.35493 1.03421
 C12 C 0.03640 0.42897 1.03384
 H13 H -0.08423 0.74357 0.99970
 H14 H -0.03228 0.54951 1.05951
 H15 H 0.00728 0.56010 0.94244
 H16 H -0.00310 0.44469 0.94240
 H17 H 0.07886 0.25974 1.00096
 H18 H 0.03742 0.45808 1.05971
 C19 C 0.31619 -0.06421 0.50059
 C20 C 0.35417 -0.05896 0.53400
 C21 C 0.42823 -0.03844 0.53370
 C22 C 0.46349 -0.01671 0.50079
 C23 C 0.42187 -0.01809 0.46790
 C24 C 0.34942 -0.04396 0.46739
 C25 C 0.54214 0.00915 0.50078
 C26 C 0.58307 0.01201 0.46774
 C27 C 0.65453 0.04091 0.46685
 C28 C 0.68718 0.06265 0.50018
 C29 C 0.65100 0.05373 0.53401
 C30 C 0.57753 0.03057 0.53376
 H31 H 0.25918 -0.08053 0.50066
 H32 H 0.45716 -0.03967 0.55956
 H33 H 0.44463 0.00169 0.44240
 H34 H 0.56004 -0.00868 0.44241
 H35 H 0.74303 0.08256 0.50000
 H36 H 0.54862 0.03000 0.55963
 C37 C 0.14110 0.01489 0.28030
 H38 H 0.15047 0.05646 0.25974
 C39 C 0.19230 0.00495 0.30846
 H40 H 0.24115 0.03853 0.30886
 C41 C 0.06357 -0.07518 0.30634
 H42 H 0.01202 -0.10436 0.30594
 C43 C 0.11297 -0.08660 0.33505
 H44 H 0.09929 -0.12569 0.35631
 N45 N 0.07763 -0.02409 0.28017
 C46 C -0.07803 -0.06054 0.19121
 H47 H -0.10360 -0.00710 0.19118
 C48 C -0.09406 -0.11056 0.16331
 H49 H -0.13254 -0.09523 0.14199
 C50 C 0.00640 -0.14320 0.21807
 H51 H 0.04721 -0.15460 0.23883
 C52 C -0.00857 -0.19536 0.19076
 H53 H 0.02100 -0.24674 0.19083
 Zn54 Zn -0.00078 0.00127 0.24878
 N55 N -0.02757 -0.07693 0.21741
 C56 C 0.07745 0.06470 0.19189
 N57 N 0.02582 0.07976 0.21777
 C58 C -0.00974 0.14518 0.21844
 C59 C 0.00483 0.19781 0.19151
 C60 C 0.09344 0.11542 0.16444
 C61 C -0.06439 0.07687 0.30683
 C62 C -0.11351 0.08812 0.33568
 C63 C -0.19445 -0.00121 0.30808
 C64 C -0.14335 -0.01122 0.27983
 N65 N -0.07921 0.02666 0.28017
 H66 H 0.10419 0.01184 0.19179
 H67 H -0.05146 0.15551 0.23892
 H68 H -0.02588 0.24851 0.19170
 H69 H 0.13310 0.10113 0.14345
 H70 H -0.01241 0.10529 0.30671
 H71 H -0.09920 0.12629 0.35740
 H72 H -0.24379 -0.03407 0.30822
 H73 H -0.15336 -0.05202 0.25882
 C74 C -0.05789 -0.17835 0.16232
 C75 C 0.17746 -0.04479 0.33694
 C76 C -0.17860 0.04726 0.33713
 C77 C 0.05570 0.18238 0.16346
 C78 C -0.01472 0.13989 0.78028
 H79 H -0.05596 0.14918 0.75949
 C80 C -0.00506 0.19131 0.80846
 H81 H -0.03856 0.24022 0.80868
 C82 C 0.07494 0.06246 0.80678
 H83 H 0.10410 0.01089 0.80652
 C84 C 0.08607 0.11209 0.83552
 H85 H 0.12491 0.09854 0.85697
 N86 N 0.02418 0.07638 0.78036
 C87 C 0.06313 -0.08033 0.69177
 H88 H 0.01028 -0.10709 0.69162
 C89 C 0.11399 -0.09620 0.66425
 H90 H 0.09983 -0.13580 0.64317
 C91 C 0.14341 0.00685 0.71848
 H92 H 0.15359 0.04857 0.73903
 C93 C 0.19618 -0.00761 0.69149
 H94 H 0.24685 0.02316 0.69172
 Zn95 Zn -0.00074 -0.00214 0.74880
 N96 N 0.07802 -0.02875 0.71776
 C97 C -0.06211 0.07513 0.69135
 N98 N -0.07868 0.02464 0.71744
 C99 C -0.14499 -0.00927 0.71806
 C100 C -0.19700 0.00580 0.69080
 C101 C -0.11198 0.09127 0.66351
 C102 C 0.01141 -0.14454 0.77987
 C103 C 0.00111 -0.19543 0.80808
 C104 C -0.08865 -0.11439 0.83523
 C105 C -0.07712 -0.06549 0.80641
 N106 N -0.02656 -0.08045 0.78000
 H107 H -0.00866 0.10068 0.69137
 H108 H -0.15654 -0.05008 0.73874
 H109 H -0.24841 -0.02371 0.69083
 H110 H -0.09651 0.12980 0.64229
 H111 H 0.05254 -0.15465 0.75908
 H112 H 0.03405 -0.24471 0.80840
 H113 H -0.12709 -0.09995 0.85676
 H114 H -0.10556 -0.01353 0.80616
 C115 C 0.18093 -0.05840 0.66332
 C116 C 0.04433 0.17664 0.83718
 C117 C -0.04773 -0.17941 0.83689
 C118 C -0.17980 0.05517 0.66247
 N119 N -0.04254 -0.33796 0.09981
 C120 C -0.06490 -0.30929 0.06713
 N121 N -0.08968 -0.23913 0.06688
 N122 N -0.09033 -0.19893 0.09748
 C123 C -0.06574 -0.22678 0.12978
 N124 N -0.04256 -0.29745 0.13044
 N125 N 0.09977 0.24906 0.07026
 C126 C 0.06581 0.31516 0.06946
 N127 N 0.03248 0.33964 0.10062
 N128 N 0.03159 0.29884 0.13099
 C129 C 0.06420 0.23198 0.13149
 N130 N 0.09918 0.20849 0.10064
 N131 N 0.24798 -0.10181 0.56992
 C132 C 0.31416 -0.06798 0.56922
 N133 N 0.33853 -0.03495 0.60050
 N134 N 0.29759 -0.03423 0.63089
 C135 C 0.23066 -0.06673 0.63130
 N136 N 0.20726 -0.10140 0.60032
 N137 N -0.33907 0.04008 0.59995
 C138 C -0.31025 0.06271 0.56735
 N139 N -0.24011 0.08758 0.56717
 N140 N -0.20008 0.08804 0.59776
 C141 C -0.22807 0.06318 0.62998
 N142 N -0.29873 0.03992 0.63058
 N143 N -0.07792 -0.23811 0.93270
 C144 C -0.04685 -0.30572 0.93342
 N145 N -0.01892 -0.33309 0.90146
 N146 N -0.02055 -0.29392 0.87054
 C147 C -0.05098 -0.22604 0.87014
 N148 N -0.08000 -0.19924 0.90182
 N149 N 0.08330 0.24277 0.93134
 C150 C 0.04579 0.30691 0.93277
 N151 N 0.01017 0.32970 0.90201
 N152 N 0.01101 0.28931 0.87136
 C153 C 0.04794 0.22474 0.87010
 N154 N 0.08436 0.20260 0.90070
 N155 N -0.33282 0.01787 0.40154
 C156 C -0.30573 0.04560 0.43360
 N157 N -0.23813 0.07670 0.43301
 N158 N -0.19900 0.07903 0.40215
 C159 C -0.22552 0.05021 0.37036
 N160 N -0.29339 0.01975 0.37064
 N161 N 0.24274 -0.08448 0.43098
 C162 C 0.30690 -0.04702 0.43258
 N163 N 0.32997 -0.01121 0.40196
 N164 N 0.28985 -0.01180 0.37128
 C165 C 0.22527 -0.04868 0.36987
 N166 N 0.20283 -0.08530 0.40032
   
