data_POSCAR
  _audit_creation_date              2014-09-24
  _audit_creation_method            'ToBaCCo'
  _symmetry_space_group_name_H-M    'P1'
  _symmetry_Int_Tables_number       1
  _symmetry_cell_setting            triclinic
  loop_
  _symmetry_equiv_pos_as_xyz
 x,y,z
_cell_length_a 18.9822
_cell_length_b 18.8388
_cell_length_c 19.8242
_cell_angle_alpha 88.202700
_cell_angle_beta 89.578500
_cell_angle_gamma 89.391000
loop_
  _atom_site_label
  _atom_site_type_symbol
  _atom_site_fract_x
  _atom_site_fract_y
  _atom_site_fract_z
C1 C 0.53248 1.00625 -0.50659
 C2 C 0.46318 0.99111 -0.49409
 C3 C 0.41042 0.97942 -0.54834
 C4 C 0.43476 0.98126 -0.42399
 C5 C 0.58533 1.00829 -0.45123
 C6 C 0.56258 1.01890 -0.57601
 C7 C 0.39789 1.02853 -0.60198
 C8 C 0.34348 1.01733 -0.64824
 C9 C 0.29831 0.95840 -0.63989
 C10 C 0.31182 0.90963 -0.58607
 C11 C 0.36733 0.91947 -0.54198
 C12 C 0.37477 1.02041 -0.40530
 C13 C 0.33946 1.00486 -0.34469
 C14 C 0.36350 0.94984 -0.30094
 C15 C 0.42510 0.91223 -0.31830
 C16 C 0.45999 0.92720 -0.37969
 C17 C 0.64685 0.96692 -0.45713
 C18 C 0.70318 0.97571 -0.41375
 C19 C 0.69900 1.02495 -0.36230
 C20 C 0.63608 1.06355 -0.35318
 C21 C 0.57975 1.05598 -0.39805
 C22 C 0.60962 1.07557 -0.58707
 C23 C 0.64596 1.08429 -0.64831
 C24 C 0.63446 1.03788 -0.70076
 C25 C 0.58653 0.98212 -0.69086
 C26 C 0.55231 0.97152 -0.62845
 H27 H 0.42917 1.07610 -0.60737
 H28 H 0.33531 1.05664 -0.68847
 H29 H 0.27956 0.86304 -0.57758
 H30 H 0.37567 0.88050 -0.50139
 H31 H 0.35395 1.06185 -0.43889
 H32 H 0.29296 1.03574 -0.33252
 H33 H 0.50500 0.89495 -0.39369
 H34 H 0.65246 0.92981 -0.49754
 H35 H 0.75106 0.94513 -0.42154
 H36 H 0.63211 1.10231 -0.31409
 H37 H 0.53333 1.08935 -0.39310
 H38 H 0.61944 1.11243 -0.54744
 H39 H 0.68242 1.12783 -0.65504
 H40 H 0.57742 0.94536 -0.73073
 H41 H 0.51905 0.92562 -0.62089
 H42 H 0.44482 0.86955 -0.28554
 C43 C -0.51143 1.53511 0.00539
 C44 C -0.48647 1.46732 0.00439
 C45 C -0.53247 1.40428 0.01238
 C46 C -0.41039 1.45092 -0.00493
 C47 C -0.46470 1.59672 -0.00625
 C48 C -0.58628 1.55381 0.01904
 C49 C -0.58030 1.39590 0.06651
 C50 C -0.62015 1.33404 0.07360
 C51 C -0.60989 1.27877 0.02870
 C52 C -0.56123 1.28633 -0.02421
 C53 C -0.52363 1.34891 -0.03289
 C54 C -0.37729 1.40591 0.04298
 C55 C -0.31021 1.37883 0.03066
 C56 C -0.27448 1.39690 -0.02949
 C57 C -0.30524 1.44567 -0.07571
 C58 C -0.37346 1.47195 -0.06390
 C59 C -0.48301 1.64836 -0.05580
 C60 C -0.44498 1.71097 -0.06268
 C61 C -0.38750 1.72246 -0.02065
 C62 C -0.36835 1.67030 0.02826
 C63 C -0.40726 1.60817 0.03597
 C64 C -0.64171 1.52727 -0.01897
 C65 C -0.71019 1.55417 -0.01092
 C66 C -0.72334 1.61080 0.03239
 C67 C -0.66811 1.63497 0.07219
 C68 C -0.60079 1.60609 0.06620
 H69 H -0.58627 1.43662 0.10350
 H70 H -0.65735 1.32839 0.11506
 H71 H -0.55308 1.24410 -0.05939
 H72 H -0.48673 1.35382 -0.07469
 H73 H -0.40488 1.38914 0.08870
 H74 H -0.28708 1.34173 0.06725
 H75 H -0.39859 1.50577 -0.10199
 H76 H -0.52781 1.64068 -0.08823
 H77 H -0.46053 1.75040 -0.10079
 H78 H -0.32479 1.67842 0.06199
 H79 H -0.39375 1.56996 0.07586
 H80 H -0.63166 1.48790 -0.05658
 H81 H -0.75158 1.53409 -0.04221
 H82 H -0.67633 1.67677 0.10771
 H83 H -0.55898 1.62690 0.09655
 H84 H -0.27851 1.45972 -0.12262
 C85 C 0.00343 0.46648 0.49669
 C86 C -0.00699 0.53769 0.50079
 C87 C -0.00853 0.57397 0.56622
 C88 C -0.02823 0.58182 0.44121
 C89 C 0.00702 0.43108 0.43097
 C90 C 0.02356 0.42163 0.55626
 C91 C -0.05593 0.55217 0.61700
 C92 C -0.06312 0.59063 0.67563
 C93 C -0.02441 0.65315 0.68431
 C94 C 0.02358 0.67466 0.63352
 C95 C 0.03160 0.63521 0.57529
 C96 C -0.09918 0.58466 0.42222
 C97 C -0.12182 0.63335 0.37212
 C98 C -0.07397 0.68060 0.34090
 C99 C -0.00247 0.67619 0.35885
 C100 C 0.02020 0.62693 0.40839
 C101 C 0.06092 0.44863 0.38504
 C102 C 0.07147 0.40898 0.32753
 C103 C 0.02930 0.34964 0.31526
 C104 C -0.02588 0.33319 0.36068
 C105 C -0.03707 0.37383 0.41771
 C106 C 0.09238 0.42369 0.58100
 C107 C 0.11431 0.37538 0.63178
 C108 C 0.06794 0.32338 0.65822
 C109 C -0.00171 0.32294 0.63412
 C110 C -0.02364 0.37187 0.58405
 H111 H -0.08910 0.50655 0.61044
 H112 H -0.10083 0.57215 0.71333
 H113 H 0.05491 0.72185 0.63828
 H114 H 0.06874 0.65323 0.53704
 H115 H -0.13727 0.55047 0.44754
 H116 H -0.17710 0.63522 0.35897
 H117 H 0.07533 0.62496 0.42202
 H118 H 0.09658 0.49149 0.39498
 H119 H 0.11442 0.42374 0.29384
 H120 H -0.06028 0.28883 0.35282
 H121 H -0.07957 0.35961 0.45191
 H122 H 0.12959 0.46160 0.55976
 H123 H 0.16815 0.37793 0.64917
 H124 H -0.03973 0.28501 0.65350
 H125 H -0.07747 0.37042 0.56664
 H126 H 0.03608 0.71069 0.33484
 O127 O -0.15099 1.05052 -0.12688
 O128 O 0.18704 0.93526 -0.05463
 O129 O 0.05831 1.07648 -0.17773
 O130 O 0.00496 0.88907 -0.16254
 O131 O -0.04077 0.82052 -0.07472
 O132 O 0.07360 1.16513 -0.10167
 O133 O 0.12332 0.95541 -0.15213
 O134 O -0.05461 1.01473 -0.18921
 Zr135 Zr 0.02318 0.98876 -0.11723
 O136 O 0.05132 0.91434 -0.04373
 O137 O -0.02716 1.07626 -0.07810
 C138 C -0.11911 1.03740 -0.18358
 C139 C 0.18062 0.93781 -0.11994
 C140 C 0.07507 1.14057 -0.16194
 C141 C -0.02132 0.83035 -0.13688
 H142 H 0.13373 1.05293 -0.07592
 O143 O 0.09102 1.03574 -0.05205
 H144 H -0.09936 0.93306 -0.10020
 O145 O -0.06714 0.95552 -0.06849
 O146 O 0.15375 0.95768 0.12372
 O147 O -0.18773 1.06071 0.05274
 O148 O 0.14578 1.14368 0.00954
 O149 O 0.03040 0.79958 0.02514
 O150 O -0.14623 0.86243 -0.00340
 O151 O -0.02997 1.20482 -0.03366
 O152 O 0.00018 1.11340 0.16296
 O153 O -0.06118 0.92963 0.17655
 O154 O 0.04487 1.18279 0.07522
 O155 O -0.07661 0.84149 0.10010
 O156 O 0.19880 1.03482 0.03110
 O157 O -0.13730 1.15017 -0.04251
 O158 O -0.19888 0.97022 -0.02998
 O159 O 0.13806 0.85279 0.03697
 O160 O 0.05817 0.99249 0.18784
 O161 O -0.12449 1.04327 0.15092
 Zr162 Zr 0.11586 0.96267 0.02356
 Zr163 Zr -0.11474 1.04155 -0.02562
 Zr164 Zr 0.03934 1.11938 -0.00921
 Zr165 Zr -0.03888 0.88586 0.00834
 Zr166 Zr -0.02188 1.01564 0.11639
 O167 O -0.09041 0.96930 0.05106
 O168 O 0.06850 1.04907 0.06729
 C169 C 0.12300 0.97095 0.18074
 C170 C -0.18269 1.05563 0.11801
 C171 C 0.19972 1.10341 0.02464
 C172 C 0.09794 0.79755 0.03340
 C173 C -0.20032 0.90220 -0.01872
 C174 C -0.09745 1.20568 -0.04351
 C175 C 0.02806 1.17150 0.13792
 C176 C -0.07999 0.86635 0.16018
 H177 H -0.07503 1.13016 0.06332
 O178 O -0.05064 1.08955 0.04254
 H179 H 0.04190 0.89283 0.11148
 O180 O 0.02832 0.92861 0.07626
 N181 N 0.14537 0.90376 0.28423
 N182 N 0.19311 0.89786 0.33239
 C183 C 0.24215 0.94826 0.31971
 C184 C 0.22245 0.98528 0.26082
 N185 N 0.16193 0.95575 0.24096
 H186 H 0.24933 1.02831 0.23432
 N187 N -0.31016 1.05408 0.12715
 N188 N -0.36031 1.04697 0.17361
 C189 C -0.32841 1.04800 0.23403
 C190 C -0.25672 1.05605 0.22311
 N191 N -0.24758 1.05960 0.15558
 H192 H -0.21527 1.05543 0.26036
 N193 N -0.12560 1.04540 -0.30508
 N194 N -0.17230 1.04156 -0.35387
 C195 C -0.23644 1.03964 -0.32435
 C196 C -0.22757 1.04290 -0.25512
 N197 N -0.15733 1.04609 -0.24544
 H198 H -0.26730 1.03726 -0.21592
 N199 N 0.30098 0.89349 -0.13676
 N200 N 0.35120 0.89623 -0.18371
 C201 C 0.32388 0.93132 -0.23810
 C202 C 0.25477 0.94899 -0.22306
 N203 N 0.24257 0.92448 -0.15966
 H204 H 0.21750 0.97875 -0.25418
 N205 N 0.32718 1.10215 0.03246
 N206 N 0.37987 1.14752 0.03378
 C207 C 0.35052 1.21287 0.03604
 C208 C 0.27842 1.20662 0.03531
 N209 N 0.26609 1.13668 0.03288
 H210 H 0.23913 1.24870 0.03282
 N211 N 0.10451 0.67302 0.00617
 N212 N 0.15238 0.62148 0.00338
 C213 C 0.21122 0.64580 0.03226
 C214 C 0.19758 0.71405 0.05301
 N215 N 0.13088 0.72902 0.03539
 H216 H 0.23404 0.75164 0.07314
 N217 N -0.32309 0.89745 -0.05289
 N218 N -0.37431 0.85038 -0.05503
 C219 C -0.34843 0.78914 -0.02748
 C220 C -0.27998 0.79992 -0.00857
 N221 N -0.26627 0.86788 -0.02524
 H222 H -0.24307 0.76187 0.01364
 N223 N -0.10332 1.33273 -0.07532
 N224 N -0.14995 1.38577 -0.07283
 C225 C -0.20957 1.35787 -0.04616
 C226 C -0.19858 1.28666 -0.03335
 N227 N -0.13210 1.27295 -0.05212
 H228 H -0.23494 1.24868 -0.01083
 N229 N 0.09140 1.27664 0.16586
 N230 N 0.09299 1.32559 0.21204
 C231 C 0.04357 1.30840 0.25882
 C232 C 0.01185 1.24586 0.23975
 N233 N 0.04347 1.22828 0.18152
 H234 H -0.03048 1.21680 0.26440
 N235 N 0.15611 1.22412 -0.21513
 N236 N 0.15501 1.27535 -0.26245
 C237 C 0.09117 1.27377 -0.29207
 C238 C 0.05368 1.21841 -0.26185
 N239 N 0.09626 1.18884 -0.21483
 H240 H -0.00035 1.20326 -0.26995
 N241 N -0.07521 0.71877 -0.15967
 N242 N -0.07743 0.67020 -0.20610
 C243 C -0.03511 0.69231 -0.25729
 C244 C -0.00688 0.75741 -0.24047
 N245 N -0.03354 0.77153 -0.17911
 H246 H 0.02925 0.79084 -0.26912
 N247 N -0.16081 0.77974 0.20869
 N248 N -0.16014 0.72811 0.25562
 C249 C -0.09887 0.73315 0.28919
 C250 C -0.06262 0.79066 0.26198
 N251 N -0.10327 0.81839 0.21247
 H252 H -0.00994 0.80784 0.27349
   
