data_POSCAR
  _audit_creation_date              2014-09-24
  _audit_creation_method            'ToBaCCo'
  _symmetry_space_group_name_H-M    'P1'
  _symmetry_Int_Tables_number       1
  _symmetry_cell_setting            triclinic
  loop_
  _symmetry_equiv_pos_as_xyz
 x,y,z
_cell_length_a 63.7090
_cell_length_b 63.4141
_cell_length_c 64.2107
_cell_angle_alpha 87.318700
_cell_angle_beta 86.702200
_cell_angle_gamma 94.765900
loop_
  _atom_site_label
  _atom_site_type_symbol
  _atom_site_fract_x
  _atom_site_fract_y
  _atom_site_fract_z
C1 C 0.27036 0.48328 1.00010
 C2 C 0.26154 0.50260 1.00219
 C3 C 0.27445 0.52092 1.00574
 C4 C 0.29646 0.52029 1.00707
 C5 C 0.30491 0.50050 1.00510
 C6 C 0.29205 0.48202 1.00180
 C7 C 0.23858 0.50351 1.00122
 C8 C 0.22615 0.50659 1.01938
 C9 C 0.20397 0.50644 1.01906
 C10 C 0.19488 0.50386 0.99967
 C11 C 0.20723 0.50091 0.98136
 C12 C 0.22911 0.50058 0.98232
 H13 H 0.26018 0.46913 0.99775
 H14 H 0.26697 0.53541 1.00802
 H15 H 0.23395 0.50781 1.03385
 H16 H 0.23882 0.49798 0.96841
 H17 H 0.32177 0.49939 1.00493
 H18 H 0.17819 0.50517 0.99834
 C19 C 0.72507 0.47932 -0.00171
 C20 C 0.73851 0.49742 0.00133
 C21 C 0.73006 0.51684 0.00441
 C22 C 0.70819 0.51833 0.00431
 C23 C 0.69489 0.50003 0.00140
 C24 C 0.70313 0.48042 -0.00143
 C25 C 0.76142 0.49590 0.00174
 C26 C 0.77330 0.49238 -0.01664
 C27 C 0.79524 0.49050 -0.01652
 C28 C 0.80469 0.49187 0.00282
 C29 C 0.79285 0.49515 0.02136
 C30 C 0.77122 0.49744 0.02061
 H31 H 0.73171 0.46430 -0.00365
 H32 H 0.74053 0.53072 0.00693
 H33 H 0.76505 0.49053 -0.03079
 H34 H 0.76183 0.49978 0.03480
 H35 H 0.67805 0.50116 0.00086
 H36 H 0.82158 0.49161 0.00356
 C37 C 0.02147 0.23045 0.50598
 C38 C 0.00266 0.23972 0.50256
 C39 C -0.01567 0.22688 0.49903
 C40 C -0.01540 0.20474 0.49926
 C41 C 0.00364 0.19569 0.50242
 C42 C 0.02217 0.20839 0.50574
 C43 C 0.00208 0.26288 0.50302
 C44 C -0.00155 0.27481 0.48484
 C45 C -0.00135 0.29712 0.48476
 C46 C 0.00184 0.30688 0.50382
 C47 C 0.00528 0.29503 0.52216
 C48 C 0.00560 0.27301 0.52155
 H49 H 0.03554 0.24046 0.50882
 H50 H -0.03024 0.23413 0.49680
 H51 H -0.00328 0.26650 0.47062
 H52 H 0.00853 0.26369 0.53550
 H53 H 0.00415 0.17870 0.50181
 H54 H 0.00056 0.32370 0.50491
 C55 C 1.01539 0.77299 0.50451
 C56 C 0.99698 0.76046 0.50065
 C57 C 0.97816 0.76990 0.49799
 C58 C 0.97750 0.79181 0.49949
 C59 C 0.99610 0.80427 0.50306
 C60 C 1.01540 0.79520 0.50556
 C61 C 0.99728 0.73728 0.49998
 C62 C 1.00107 0.72522 0.51803
 C63 C 1.00074 0.70291 0.51798
 C64 C 0.99717 0.69326 0.49894
 C65 C 0.99354 0.70524 0.48073
 C66 C 0.99340 0.72728 0.48146
 H67 H 1.02946 0.76507 0.50722
 H68 H 0.96391 0.76004 0.49544
 H69 H 1.00305 0.73344 0.53226
 H70 H 0.99035 0.73670 0.46762
 H71 H 0.99550 0.82127 0.50271
 H72 H 0.99831 0.67644 0.49774
 C73 C 0.49422 0.01901 0.22508
 C74 C 0.49992 0.00156 0.23708
 C75 C 0.50539 -0.01665 0.22719
 C76 C 0.50505 -0.01760 0.20540
 C77 C 0.49949 0.00007 0.19358
 C78 C 0.49414 0.01847 0.20325
 C79 C 0.50021 0.00244 0.26000
 C80 C 0.48205 0.00693 0.27181
 C81 C 0.48223 0.00804 0.29359
 C82 C 0.50098 0.00500 0.30338
 C83 C 0.51938 0.00079 0.29174
 C84 C 0.51876 -0.00078 0.27003
 H85 H 0.48996 0.03303 0.23278
 H86 H 0.50984 -0.03008 0.23650
 H87 H 0.46778 0.00951 0.26400
 H88 H 0.53288 -0.00379 0.26081
 H89 H 0.49934 -0.00051 0.17675
 H90 H 0.50114 0.00541 0.32022
 C91 C 0.49529 0.01675 0.76955
 C92 C 0.50049 -0.00144 0.75959
 C93 C 0.50640 -0.01891 0.77140
 C94 C 0.50703 -0.01860 0.79335
 C95 C 0.50193 0.00010 0.80295
 C96 C 0.49613 0.01773 0.79124
 C97 C 0.49991 -0.00214 0.73670
 C98 C 0.51825 -0.00531 0.72449
 C99 C 0.51793 -0.00559 0.70266
 C100 C 0.49881 -0.00336 0.69325
 C101 C 0.48025 -0.00049 0.70529
 C102 C 0.48102 0.00044 0.72704
 H103 H 0.49068 0.03019 0.76035
 H104 H 0.51096 -0.03246 0.76314
 H105 H 0.53290 -0.00687 0.73199
 H106 H 0.46681 0.00255 0.73656
 H107 H 0.50179 0.00099 0.81972
 H108 H 0.49839 -0.00382 0.67643
 C109 C 0.28497 0.03508 0.48491
 H110 H 0.28623 0.04697 0.49643
 C111 C 0.29956 0.03610 0.46773
 H112 H 0.31210 0.04878 0.46621
 C113 C 0.26767 0.00352 0.47356
 H114 H 0.25550 -0.00939 0.47607
 C115 C 0.28192 0.00391 0.45617
 H116 H 0.28023 -0.00852 0.44523
 N117 N 0.26940 0.01900 0.48748
 C118 C 0.22042 0.04188 0.52874
 H119 H 0.21902 0.02939 0.54093
 C120 C 0.20684 0.05804 0.52942
 H121 H 0.19493 0.05778 0.54217
 C122 C 0.23695 0.05660 0.49672
 H123 H 0.24843 0.05575 0.48380
 C124 C 0.22367 0.07305 0.49676
 H125 H 0.22536 0.08497 0.48401
 Zn126 Zn 0.25133 0.01779 0.51206
 N127 N 0.23510 0.04144 0.51258
 C128 C 0.26863 0.03225 0.54936
 N129 N 0.26867 0.01716 0.53498
 C130 C 0.28201 0.00154 0.53590
 C131 C 0.29582 0.00045 0.55193
 C132 C 0.28224 0.03179 0.56565
 C133 C 0.21778 -0.00779 0.49816
 C134 C 0.20275 -0.02510 0.49819
 C135 C 0.21705 -0.03969 0.52924
 C136 C 0.23185 -0.02209 0.52860
 N137 N 0.23206 -0.00668 0.51309
 H138 H 0.25822 0.04479 0.54812
 H139 H 0.28200 -0.01001 0.52402
 H140 H 0.30653 -0.01194 0.55219
 H141 H 0.28189 0.04384 0.57705
 H142 H 0.21805 0.00489 0.48625
 H143 H 0.19138 -0.02554 0.48628
 H144 H 0.21726 -0.05191 0.54155
 H145 H 0.24302 -0.02072 0.54059
 C146 C 0.20825 0.07383 0.51319
 C147 C 0.29823 0.02028 0.45314
 C148 C 0.20226 -0.04137 0.51386
 C149 C 0.29608 0.01573 0.56708
 C150 C 0.71605 -0.00370 0.50936
 H151 H 0.71648 0.00845 0.49690
 C152 C 0.70151 -0.00358 0.52643
 H153 H 0.69063 0.00866 0.52690
 C154 C 0.72934 -0.03479 0.52341
 H155 H 0.74004 -0.04705 0.52206
 C156 C 0.71498 -0.03531 0.54076
 H157 H 0.71504 -0.04783 0.55281
 N158 N 0.72977 -0.01897 0.50828
 C159 C 0.78303 0.00976 0.46812
 H160 H 0.78381 -0.00178 0.45627
 C161 C 0.79811 0.02711 0.46754
 H162 H 0.81055 0.02873 0.45521
 C163 C 0.76641 0.02097 0.49916
 H164 H 0.75430 0.01834 0.51170
 C165 C 0.78115 0.03853 0.49918
 H166 H 0.77991 0.04947 0.51155
 Zn167 Zn 0.74869 -0.01773 0.48433
 N168 N 0.76754 0.00705 0.48373
 C169 C 0.73446 -0.00129 0.44614
 N170 N 0.73217 -0.01767 0.46077
 C171 C 0.71688 -0.03381 0.45985
 C172 C 0.70304 -0.03389 0.44375
 C173 C 0.72096 -0.00074 0.42977
 C174 C 0.77883 -0.04234 0.50030
 C175 C 0.79238 -0.05851 0.50109
 C176 C 0.77801 -0.07178 0.46975
 C177 C 0.76468 -0.05536 0.46958
 N178 N 0.76528 -0.04111 0.48478
 H179 H 0.74643 0.01160 0.44735
 H180 H 0.71517 -0.04643 0.47192
 H181 H 0.69063 -0.04661 0.44364
 H182 H 0.72301 0.01244 0.41829
 H183 H 0.77927 -0.03055 0.51194
 H184 H 0.80332 -0.05895 0.51337
 H185 H 0.77729 -0.08303 0.45758
 H186 H 0.75410 -0.05385 0.45715
 C187 C 0.79737 0.04171 0.48330
 C188 C 0.70089 -0.01948 0.54248
 C189 C 0.79215 -0.07346 0.48563
 C190 C 0.70485 -0.01709 0.42854
 C191 C 0.45920 0.21373 1.01310
 H192 H 0.44722 0.21256 1.00183
 C193 C 0.45843 0.19892 1.02998
 H194 H 0.44583 0.18629 1.03153
 C195 C 0.49076 0.23104 1.02407
 H196 H 0.50358 0.24330 1.02152
 C197 C 0.49061 0.21658 1.04116
 H198 H 0.50313 0.21820 1.05183
 N199 N 0.47517 0.22942 1.01048
 C200 C 0.45204 0.27895 0.97065
 H201 H 0.46436 0.28043 0.95822
 C202 C 0.43606 0.29273 0.97069
 H203 H 0.43628 0.30488 0.95824
 C204 C 0.43766 0.26206 1.00262
 H205 H 0.43859 0.25039 1.01526
 C206 C 0.42138 0.27553 1.00329
 H207 H 0.40968 0.27378 1.01630
 Zn208 Zn 0.47616 0.24776 0.98624
 N209 N 0.45259 0.26403 0.98647
 C210 C 0.46148 0.23057 0.94894
 N211 N 0.47667 0.23054 0.96299
 C212 C 0.49221 0.21713 0.96160
 C213 C 0.49303 0.20316 0.94549
 C214 C 0.46167 0.21680 0.93257
 C215 C 0.50156 0.28132 1.00043
 C216 C 0.51887 0.29628 1.00065
 C217 C 0.53352 0.28221 0.96920
 C218 C 0.51592 0.26746 0.96960
 N219 N 0.50051 0.26713 0.98521
 H220 H 0.44901 0.24104 0.95055
 H221 H 0.50384 0.21714 0.97324
 H222 H 0.50532 0.19235 0.94491
 H223 H 0.44952 0.21709 0.92148
 H224 H 0.48888 0.28096 1.01243
 H225 H 0.51931 0.30753 1.01283
 H226 H 0.54579 0.28206 0.95683
 H227 H 0.51460 0.25636 0.95739
 C228 C 0.42056 0.29127 0.98728
 C229 C 0.47438 0.20014 1.04421
 C230 C 0.53519 0.29682 0.98493
 C231 C 0.47759 0.20281 0.93073
 C232 C 0.50985 0.78526 -0.01555
 H233 H 0.49777 0.78506 -0.00297
 C234 C 0.50985 0.79971 -0.03259
 H235 H 0.49776 0.81074 -0.03294
 C236 C 0.54070 0.77155 -0.02986
 H237 H 0.55284 0.76071 -0.02861
 C238 C 0.54134 0.78582 -0.04721
 H239 H 0.55382 0.78556 -0.05936
 N240 N 0.52498 0.77141 -0.01458
 C241 C 0.49614 0.71895 0.02650
 H242 H 0.50772 0.71836 0.03815
 C243 C 0.47863 0.70406 0.02768
 H244 H 0.47692 0.69195 0.04026
 C245 C 0.48493 0.73494 -0.00457
 H246 H 0.48759 0.74675 -0.01732
 C247 C 0.46720 0.72036 -0.00400
 H248 H 0.45617 0.72144 -0.01614
 Zn249 Zn 0.52369 0.75288 0.00952
 N250 N 0.49890 0.73407 0.01062
 C251 C 0.50748 0.76805 0.04773
 N252 N 0.52375 0.76999 0.03290
 C253 C 0.53996 0.78526 0.03357
 C254 C 0.54027 0.79933 0.04965
 C255 C 0.50716 0.78180 0.06409
 C256 C 0.54811 0.72200 -0.00618
 C257 C 0.56397 0.70810 -0.00665
 C258 C 0.57704 0.72328 0.02442
 C259 C 0.56092 0.73693 0.02428
 N260 N 0.54688 0.73606 0.00909
 H261 H 0.49452 0.75611 0.04672
 H262 H 0.55249 0.78670 0.02135
 H263 H 0.55309 0.81167 0.04961
 H264 H 0.49409 0.77998 0.07576
 H265 H 0.53648 0.72137 -0.01782
 H266 H 0.56436 0.69670 -0.01868
 H267 H 0.58808 0.72421 0.03661
 H268 H 0.55943 0.74791 0.03653
 C269 C 0.46389 0.70461 0.01225
 C270 C 0.52571 0.80010 -0.04876
 C271 C 0.57864 0.70851 0.00888
 C272 C 0.52363 0.79781 0.06512
 C273 C 1.01223 0.49527 0.21843
 H274 H 0.99971 0.48265 0.21843
 C275 C 1.02949 0.49582 0.20397
 H276 H 1.03006 0.48361 0.19277
 C277 C 1.02615 0.52695 0.23258
 H278 H 1.02464 0.53920 0.24356
 C279 C 1.04370 0.52816 0.21833
 H280 H 1.05575 0.54119 0.21876
 N281 N 1.01095 0.51056 0.23248
 C282 C 0.96951 0.48104 0.28397
 H283 H 0.95756 0.49218 0.28480
 C284 C 0.96870 0.46396 0.29861
 H285 H 0.95608 0.46214 0.31076
 C286 C 1.00110 0.47065 0.26773
 H287 H 1.01394 0.47352 0.25595
 C288 C 1.00090 0.45336 0.28205
 H289 H 1.01342 0.44286 0.28082
 Zn290 Zn 0.98651 0.50866 0.25088
 N291 N 0.98553 0.48406 0.26891
 C292 C 0.94802 0.49110 0.23575
 N293 N 0.96300 0.50777 0.23414
 C294 C 0.96242 0.52384 0.21947
 C295 C 0.94626 0.52362 0.20569
 C296 C 0.93156 0.49023 0.22227
 C297 C 1.00206 0.53411 0.28176
 C298 C 1.00246 0.55034 0.29571
 C299 C 0.97101 0.56219 0.28126
 C300 C 0.97124 0.54573 0.26755
 N301 N 0.98667 0.53214 0.26800
 H302 H 0.94898 0.47828 0.24723
 H303 H 0.97478 0.53670 0.21828
 H304 H 0.94637 0.53634 0.19382
 H305 H 0.91975 0.47686 0.22380
 H306 H 1.01389 0.52282 0.28207
 H307 H 1.01462 0.55136 0.30682
 H308 H 0.95865 0.57289 0.28064
 H309 H 0.95889 0.54365 0.25681
 C310 C 0.98464 0.44993 0.29787
 C311 C 1.04554 0.51242 0.20381
 C312 C 0.98672 0.56459 0.29566
 C313 C 0.93060 0.50657 0.20689
 C314 C -0.01333 0.47379 0.78504
 H315 H -0.00173 0.46229 0.78569
 C316 C -0.03057 0.47220 0.79965
 H317 H -0.03204 0.45945 0.81160
 C318 C -0.02485 0.50495 0.76922
 H319 H -0.02239 0.51792 0.75759
 C320 C -0.04231 0.50397 0.78352
 H321 H -0.05335 0.51601 0.78242
 N322 N -0.01084 0.48992 0.77016
 C323 C 0.02980 0.46799 0.72017
 H324 H 0.04217 0.48084 0.71892
 C325 C 0.03021 0.45172 0.70629
 H326 H 0.04292 0.45225 0.69429
 C327 C -0.00236 0.45243 0.73671
 H328 H -0.01523 0.45297 0.74832
 C329 C -0.00259 0.43585 0.72312
 H330 H -0.01550 0.42353 0.72471
 Zn331 Zn 0.01370 0.49174 0.75186
 N332 N 0.01372 0.46804 0.73502
 C333 C 0.05124 0.47800 0.76795
 N334 N 0.03718 0.49300 0.76863
 C335 C 0.03869 0.50863 0.78239
 C336 C 0.05488 0.50968 0.79614
 C337 C 0.06769 0.47843 0.78145
 C338 C -0.00082 0.51643 0.71970
 C339 C -0.00097 0.53341 0.70512
 C340 C 0.03085 0.54920 0.71884
 C341 C 0.03036 0.53190 0.73323
 N342 N 0.01457 0.51604 0.73348
 H343 H 0.04954 0.46544 0.75722
 H344 H 0.02704 0.52011 0.78287
 H345 H 0.05551 0.52198 0.80728
 H346 H 0.07875 0.46638 0.78065
 H347 H -0.01294 0.50340 0.71998
 H348 H -0.01322 0.53325 0.69411
 H349 H 0.04343 0.56176 0.71894
 H350 H 0.04270 0.53109 0.74402
 C351 C 0.01379 0.43542 0.70757
 C352 C -0.04530 0.48748 0.79906
 C353 C 0.01502 0.55010 0.70455
 C354 C 0.06959 0.49435 0.79588
 C355 C 0.07983 0.19739 0.50010
 C356 C 0.07962 0.17827 0.51196
 C357 C 0.06084 0.16948 0.52247
 C358 C 0.04226 0.17952 0.52082
 C359 C 0.04220 0.19851 0.50859
 C360 C 0.06125 0.20750 0.49846
 C361 C 0.09832 0.16706 0.51259
 C362 C 0.11361 0.15708 0.51292
 C363 C 0.13105 0.14474 0.51310
 C364 C 0.14554 0.13367 0.51311
 C365 C 0.16232 0.11981 0.51295
 C366 C 0.17131 0.11414 0.53156
 C367 C 0.18659 0.09953 0.53160
 C368 C 0.19306 0.09038 0.51299
 C369 C 0.18423 0.09653 0.49429
 C370 C 0.16895 0.11112 0.49430
 H371 H 0.09426 0.20428 0.49181
 H372 H 0.06050 0.15469 0.53169
 H373 H 0.02790 0.17238 0.52903
 H374 H 0.06164 0.22197 0.48876
 H375 H 0.16628 0.12075 0.54609
 H376 H 0.19327 0.09531 0.54619
 H377 H 0.18864 0.08957 0.47977
 H378 H 0.16199 0.11530 0.47983
 C379 C 0.69911 0.57662 -0.00232
 C380 C 0.68016 0.57732 0.00971
 C381 C 0.67093 0.55898 0.02070
 C382 C 0.68033 0.53992 0.01934
 C383 C 0.69910 0.53892 0.00692
 C384 C 0.70857 0.55754 -0.00368
 C385 C 0.66954 0.59647 0.01003
 C386 C 0.65997 0.61210 0.01015
 C387 C 0.64805 0.62989 0.01018
 C388 C 0.63730 0.64466 0.01010
 C389 C 0.62379 0.66176 0.00993
 C390 C 0.61402 0.66761 0.02862
 C391 C 0.59969 0.68315 0.02833
 C392 C 0.59489 0.69303 0.00931
 C393 C 0.60513 0.68734 -0.00936
 C394 C 0.61947 0.67180 -0.00903
 H395 H 0.70634 0.59069 -0.01098
 H396 H 0.65628 0.55934 0.03006
 H397 H 0.67283 0.52591 0.02790
 H398 H 0.72291 0.55720 -0.01352
 H399 H 0.61713 0.65983 0.04337
 H400 H 0.59187 0.68695 0.04293
 H401 H 0.60197 0.69484 -0.02422
 H402 H 0.62692 0.66739 -0.02359
 C403 C 0.92492 -0.19407 0.48007
 C404 C 0.92001 -0.17805 0.49336
 C405 C 0.93363 -0.17224 0.50884
 C406 C 0.95218 -0.18221 0.51092
 C407 C 0.95742 -0.19814 0.49751
 C408 C 0.94351 -0.20411 0.48215
 C409 C 0.90136 -0.16705 0.49095
 C410 C 0.88611 -0.15719 0.48933
 C411 C 0.86871 -0.14491 0.48789
 C412 C 0.85426 -0.13385 0.48702
 C413 C 0.83752 -0.11997 0.48641
 C414 C 0.82681 -0.11518 0.50500
 C415 C 0.81169 -0.10042 0.50470
 C416 C 0.80711 -0.09022 0.48577
 C417 C 0.81761 -0.09551 0.46709
 C418 C 0.83275 -0.11026 0.46743
 H419 H 0.91452 -0.19864 0.46799
 H420 H 0.92997 -0.15989 0.51923
 H421 H 0.96240 -0.17750 0.52310
 H422 H 0.94722 -0.21620 0.47149
 H423 H 0.83040 -0.12257 0.51978
 H424 H 0.80369 -0.09688 0.51930
 H425 H 0.81462 -0.08775 0.45231
 H426 H 0.84105 -0.11375 0.45297
 C427 C 0.30474 0.42816 0.98335
 C428 C 0.32036 0.42310 0.99676
 C429 C 0.32635 0.43703 1.01204
 C430 C 0.31697 0.45605 1.01379
 C431 C 0.30145 0.46145 1.00023
 C432 C 0.29529 0.44721 0.98509
 C433 C 0.33079 0.40397 0.99463
 C434 C 0.34018 0.38831 0.99317
 C435 C 0.35188 0.37043 0.99181
 C436 C 0.36246 0.35556 0.99092
 C437 C 0.37579 0.33833 0.99016
 C438 C 0.38458 0.33110 1.00836
 C439 C 0.39874 0.31543 1.00751
 C440 C 0.40436 0.30680 0.98838
 C441 C 0.39511 0.31388 0.97023
 C442 C 0.38093 0.32956 0.97112
 H443 H 0.30004 0.41752 0.97141
 H444 H 0.33840 0.43326 1.02251
 H445 H 0.32181 0.46653 1.02580
 H446 H 0.28353 0.45102 0.97433
 H447 H 0.38083 0.33789 1.02315
 H448 H 0.40582 0.31059 1.02170
 H449 H 0.39893 0.30737 0.95532
 H450 H 0.37424 0.33507 0.95693
 C451 C 0.93266 0.18293 0.47905
 C452 C 0.92846 0.16411 0.49142
 C453 C 0.94241 0.15878 0.50647
 C454 C 0.96055 0.17207 0.50907
 C455 C 0.96505 0.19093 0.49662
 C456 C 0.95083 0.19630 0.48165
 C457 C 0.91005 0.14999 0.48870
 C458 C 0.89492 0.13762 0.48692
 C459 C 0.87755 0.12256 0.48541
 C460 C 0.86299 0.10927 0.48460
 C461 C 0.84594 0.09293 0.48421
 C462 C 0.83803 0.08204 0.50283
 C463 C 0.82209 0.06556 0.50255
 C464 C 0.81382 0.05971 0.48359
 C465 C 0.82175 0.07089 0.46495
 C466 C 0.83772 0.08740 0.46527
 H467 H 0.92197 0.18718 0.46732
 H468 H 0.93928 0.14429 0.51619
 H469 H 0.97100 0.16767 0.52096
 H470 H 0.95397 0.21063 0.47172
 H471 H 0.84438 0.08610 0.51756
 H472 H 0.81659 0.05706 0.51712
 H473 H 0.81555 0.06692 0.45014
 H474 H 0.84375 0.09572 0.45076
 C475 C 0.31808 0.57734 0.00496
 C476 C 0.33755 0.57569 0.01359
 C477 C 0.34305 0.55593 0.02086
 C478 C 0.32940 0.53779 0.01911
 C479 C 0.30982 0.53894 0.00992
 C480 C 0.30430 0.55923 0.00322
 C481 C 0.35236 0.59404 0.01426
 C482 C 0.36526 0.60903 0.01456
 C483 C 0.38089 0.62615 0.01460
 C484 C 0.39463 0.64045 0.01440
 C485 C 0.41144 0.65714 0.01385
 C486 C 0.41757 0.66600 0.03235
 C487 C 0.43450 0.68159 0.03185
 C488 C 0.44552 0.68851 0.01280
 C489 C 0.43908 0.67963 -0.00573
 C490 C 0.42218 0.66405 -0.00518
 H491 H 0.31372 0.59259 -0.00086
 H492 H 0.35802 0.55449 0.02777
 H493 H 0.33417 0.52299 0.02554
 H494 H 0.28990 0.56124 -0.00448
 H495 H 0.40937 0.66076 0.04718
 H496 H 0.43891 0.68829 0.04634
 H497 H 0.44742 0.68438 -0.02059
 H498 H 0.41765 0.65720 -0.01958
 C499 C 0.07266 -0.18492 0.50461
 C500 C 0.07138 -0.16511 0.51302
 C501 C 0.05175 -0.15878 0.51971
 C502 C 0.03339 -0.17195 0.51764
 C503 C 0.03420 -0.19188 0.50870
 C504 C 0.05433 -0.19822 0.50254
 C505 C 0.09002 -0.15083 0.51405
 C506 C 0.10529 -0.13835 0.51465
 C507 C 0.12277 -0.12321 0.51505
 C508 C 0.13737 -0.10985 0.51516
 C509 C 0.15441 -0.09344 0.51500
 C510 C 0.16474 -0.08564 0.49604
 C511 C 0.18051 -0.06890 0.49569
 C512 C 0.18615 -0.05973 0.51434
 C513 C 0.17589 -0.06792 0.53336
 C514 C 0.16010 -0.08464 0.53367
 H515 H 0.08781 -0.18992 0.49922
 H516 H 0.05059 -0.14353 0.52645
 H517 H 0.01869 -0.16653 0.52365
 H518 H 0.05611 -0.21293 0.49503
 H519 H 0.16045 -0.09233 0.48150
 H520 H 0.18831 -0.06315 0.48084
 H521 H 0.17969 -0.06103 0.54794
 H522 H 0.15212 -0.09048 0.54842
 C523 C 0.67975 0.42828 0.97937
 C524 C 0.66082 0.42508 0.99174
 C525 C 0.65590 0.43977 1.00646
 C526 C 0.66973 0.45766 1.00874
 C527 C 0.68871 0.46115 0.99628
 C528 C 0.69365 0.44620 0.98163
 C529 C 0.64619 0.40693 0.98933
 C530 C 0.63345 0.39204 0.98774
 C531 C 0.61800 0.37496 0.98637
 C532 C 0.60441 0.36066 0.98561
 C533 C 0.58775 0.34393 0.98520
 C534 C 0.57956 0.33331 1.00387
 C535 C 0.56266 0.31780 1.00374
 C536 C 0.55369 0.31271 0.98491
 C537 C 0.56224 0.32324 0.96616
 C538 C 0.57914 0.33879 0.96633
 H539 H 0.68369 0.41701 0.96789
 H540 H 0.64132 0.43742 1.01616
 H541 H 0.66564 0.46869 1.02038
 H542 H 0.70805 0.44856 0.97170
 H543 H 0.58611 0.33716 1.01856
 H544 H 0.55663 0.30977 1.01839
 H545 H 0.55552 0.31985 0.95144
 H546 H 0.58528 0.34700 0.95179
 C547 C 0.47274 0.05216 1.16029
 C548 C 0.48146 0.07241 1.16442
 C549 C 0.49354 0.07518 1.18177
 C550 C 0.49724 0.05770 1.19473
 C551 C 0.48896 0.03721 1.19042
 C552 C 0.47643 0.03467 1.17321
 C553 C 0.47895 0.09012 1.15019
 C554 C 0.47730 0.10472 1.13786
 C555 C 0.47592 0.12156 1.12297
 C556 C 0.47520 0.13572 1.10991
 C557 C 0.47491 0.15237 1.09393
 C558 C 0.49376 0.16031 1.08301
 C559 C 0.49359 0.17597 1.06699
 C560 C 0.47453 0.18393 1.06165
 C561 C 0.45566 0.17595 1.07283
 C562 C 0.45587 0.16027 1.08887
 H563 H 0.46337 0.04984 1.14690
 H564 H 0.50047 0.09077 1.18503
 H565 H 0.50713 0.06012 1.20772
 H566 H 0.46961 0.01914 1.16966
 H567 H 0.50857 0.15422 1.08671
 H568 H 0.50833 0.18150 1.05847
 H569 H 0.44078 0.18192 1.06924
 H570 H 0.44118 0.15422 1.09723
 C571 C 0.01764 0.68670 0.57112
 C572 C 0.00910 0.66565 0.57330
 C573 C -0.00210 0.65692 0.55726
 C574 C -0.00479 0.66911 0.53910
 C575 C 0.00369 0.69049 0.53647
 C576 C 0.01497 0.69902 0.55296
 C577 C 0.01158 0.65286 0.59197
 C578 C 0.01319 0.64160 0.60734
 C579 C 0.01454 0.62779 0.62500
 C580 C 0.01523 0.61548 0.63977
 C581 C 0.01550 0.60019 0.65702
 C582 C -0.00344 0.59244 0.66788
 C583 C -0.00353 0.57647 0.68365
 C584 C 0.01535 0.56800 0.68874
 C585 C 0.03440 0.57623 0.67806
 C586 C 0.03445 0.59219 0.66226
 H587 H 0.02649 0.69359 0.58342
 H588 H -0.00898 0.64067 0.55888
 H589 H -0.01438 0.66179 0.52762
 H590 H 0.02253 0.71498 0.55174
 H591 H -0.01820 0.59851 0.66395
 H592 H -0.01840 0.57067 0.69178
 H593 H 0.04915 0.56987 0.68146
 H594 H 0.04919 0.59799 0.65385
 C595 C 0.52457 0.94786 -0.16228
 C596 C 0.52009 0.92751 -0.16914
 C597 C 0.51224 0.92493 -0.18881
 C598 C 0.50842 0.94263 -0.20142
 C599 C 0.51221 0.96341 -0.19450
 C600 C 0.52075 0.96560 -0.17476
 C601 C 0.52254 0.90936 -0.15545
 C602 C 0.52412 0.89446 -0.14345
 C603 C 0.52542 0.87738 -0.12882
 C604 C 0.52606 0.86309 -0.11588
 C605 C 0.52625 0.84639 -0.09992
 C606 C 0.54522 0.84170 -0.09152
 C607 C 0.54514 0.82635 -0.07512
 C608 C 0.52604 0.81557 -0.06689
 C609 C 0.50712 0.82015 -0.07572
 C610 C 0.50725 0.83546 -0.09211
 H611 H 0.53085 0.95006 -0.14712
 H612 H 0.50855 0.90919 -0.19422
 H613 H 0.50134 0.93970 -0.21603
 H614 H 0.52507 0.98098 -0.16893
 H615 H 0.56001 0.85016 -0.09738
 H616 H 0.55992 0.82335 -0.06851
 H617 H 0.49221 0.81190 -0.06993
 H618 H 0.49247 0.83896 -0.09849
 C619 C 0.98252 0.31317 0.43128
 C620 C 0.99095 0.33427 0.42921
 C621 C 1.00190 0.34304 0.44538
 C622 C 1.00441 0.33087 0.46360
 C623 C 0.99597 0.30947 0.46615
 C624 C 0.98501 0.30086 0.44950
 C625 C 0.98859 0.34710 0.41054
 C626 C 0.98708 0.35848 0.39523
 C627 C 0.98585 0.37248 0.37768
 C628 C 0.98525 0.38495 0.36302
 C629 C 0.98508 0.40043 0.34592
 C630 C 1.00396 0.41173 0.33828
 C631 C 1.00384 0.42759 0.32245
 C632 C 0.98479 0.43240 0.31402
 C633 C 0.96590 0.42076 0.32162
 C634 C 0.96606 0.40488 0.33748
 H635 H 0.97389 0.30625 0.41886
 H636 H 1.00871 0.35931 0.44384
 H637 H 1.01381 0.33823 0.47520
 H638 H 0.97755 0.28487 0.45064
 H639 H 1.01875 0.40852 0.34481
 H640 H 1.01860 0.43647 0.31720
 H641 H 0.95102 0.42392 0.31529
 H642 H 0.95135 0.39624 0.34330
 C643 C 0.50495 0.92462 0.19242
 C644 C 0.51675 0.92623 0.17325
 C645 C 0.52562 0.94606 0.16514
 C646 C 0.52231 0.96427 0.17588
 C647 C 0.51002 0.96290 0.19489
 C648 C 0.50165 0.94283 0.20322
 C649 C 0.51875 0.90782 0.16124
 C650 C 0.52005 0.89275 0.15062
 C651 C 0.52116 0.87551 0.13759
 C652 C 0.52179 0.86113 0.12600
 C653 C 0.52216 0.84440 0.11163
 C654 C 0.54117 0.83604 0.10583
 C655 C 0.54163 0.82062 0.09097
 C656 C 0.52306 0.81338 0.08169
 C657 C 0.50399 0.82167 0.08787
 C658 C 0.50357 0.83707 0.10272
 H659 H 0.49790 0.90937 0.19878
 H660 H 0.53478 0.94749 0.15032
 H661 H 0.52919 0.97946 0.16922
 H662 H 0.49195 0.94131 0.21772
 H663 H 0.55566 0.84161 0.11262
 H664 H 0.55650 0.81436 0.08672
 H665 H 0.48949 0.81668 0.08081
 H666 H 0.48879 0.84354 0.10699
 C667 C -0.00071 0.30803 0.57920
 C668 C 0.01134 0.32754 0.57902
 C669 C 0.02207 0.33598 0.56048
 C670 C 0.02045 0.32519 0.54208
 C671 C 0.00805 0.30579 0.54199
 C672 C -0.00232 0.29718 0.56080
 C673 C 0.01201 0.33942 0.59757
 C674 C 0.01241 0.34991 0.61274
 C675 C 0.01271 0.36278 0.63008
 C676 C 0.01286 0.37426 0.64453
 C677 C 0.01292 0.38853 0.66131
 C678 C 0.03185 0.39508 0.67004
 C679 C 0.03210 0.41000 0.68540
 C680 C 0.01338 0.41861 0.69221
 C681 C -0.00564 0.41161 0.68361
 C682 C -0.00584 0.39670 0.66825
 H683 H -0.00916 0.30140 0.59345
 H684 H 0.03145 0.35107 0.56017
 H685 H 0.02882 0.33207 0.52789
 H686 H -0.01216 0.28238 0.56115
 H687 H 0.04647 0.38887 0.66477
 H688 H 0.04694 0.41487 0.69190
 H689 H -0.02026 0.41813 0.68828
 H690 H -0.02057 0.39184 0.66149
 C691 C 0.47563 0.05420 0.83143
 C692 C 0.48451 0.07400 0.82326
 C693 C 0.49635 0.07554 0.80411
 C694 C 0.49967 0.05728 0.79339
 C695 C 0.49128 0.03725 0.80178
 C696 C 0.47897 0.03594 0.82077
 C697 C 0.48239 0.09249 0.83512
 C698 C 0.48098 0.10767 0.84558
 C699 C 0.47973 0.12506 0.85840
 C700 C 0.47897 0.13956 0.86982
 C701 C 0.47841 0.15645 0.88401
 C702 C 0.45922 0.16110 0.89369
 C703 C 0.45887 0.17653 0.90856
 C704 C 0.47777 0.18743 0.91398
 C705 C 0.49693 0.18292 0.90384
 C706 C 0.49723 0.16752 0.88898
 H707 H 0.46644 0.05283 0.84624
 H708 H 0.50338 0.09077 0.79769
 H709 H 0.50937 0.05875 0.77890
 H710 H 0.47205 0.02078 0.82745
 H711 H 0.44457 0.15253 0.89006
 H712 H 0.44390 0.17944 0.91626
 H713 H 0.51170 0.19124 0.90748
 H714 H 0.51218 0.16403 0.88159
 C715 C 0.97624 0.66445 0.44246
 C716 C 0.98690 0.67286 0.42387
 C717 C 0.99899 0.69235 0.42363
 C718 C 1.00074 0.70320 0.44202
 C719 C 0.99048 0.69459 0.46089
 C720 C 0.97799 0.67523 0.46084
 C721 C 0.98623 0.66091 0.40537
 C722 C 0.98587 0.65035 0.39024
 C723 C 0.98567 0.63739 0.37297
 C724 C 0.98564 0.62584 0.35858
 C725 C 0.98577 0.61149 0.34187
 C726 C 0.96688 0.60087 0.33644
 C727 C 0.96713 0.58592 0.32111
 C728 C 0.98632 0.58135 0.31105
 C729 C 1.00518 0.59239 0.31637
 C730 C 1.00489 0.60735 0.33168
 H731 H 0.96684 0.64938 0.44282
 H732 H 1.00740 0.69896 0.40935
 H733 H 1.01063 0.71796 0.44163
 H734 H 0.96971 0.66836 0.47508
 H735 H 0.95200 0.60385 0.34432
 H736 H 0.95239 0.57749 0.31759
 H737 H 1.02017 0.58942 0.30873
 H738 H 1.01961 0.61546 0.33578
 C739 C 1.15714 0.50183 0.05765
 C740 C 1.16533 0.51222 0.07447
 C741 C 1.18632 0.52077 0.07308
 C742 C 1.19912 0.51892 0.05490
 C743 C 1.19111 0.50851 0.03761
 C744 C 1.16980 0.49996 0.03947
 C745 C 1.15201 0.51388 0.09309
 C746 C 1.14022 0.51481 0.10833
 C747 C 1.12576 0.51537 0.12575
 C748 C 1.11290 0.51542 0.14027
 C749 C 1.09699 0.51498 0.15716
 C750 C 1.08812 0.53360 0.16254
 C751 C 1.07167 0.53287 0.17802
 C752 C 1.06381 0.51346 0.18824
 C753 C 1.07310 0.49490 0.18297
 C754 C 1.08956 0.49567 0.16753
 H755 H 1.14095 0.49493 0.05865
 H756 H 1.19279 0.52898 0.08600
 H757 H 1.21502 0.52645 0.05432
 H758 H 1.16287 0.49095 0.02733
 H759 H 1.09366 0.54861 0.15451
 H760 H 1.06468 0.54739 0.18155
 H761 H 1.06759 0.47977 0.19076
 H762 H 1.09628 0.48116 0.16347
 C763 C 0.55993 0.00230 0.65810
 C764 C 0.57393 -0.01249 0.66384
 C765 C 0.56990 -0.02482 0.68253
 C766 C 0.55180 -0.02246 0.69536
 C767 C 0.53750 -0.00780 0.68954
 C768 C 0.54186 0.00466 0.67084
 C769 C 0.59215 -0.01510 0.65019
 C770 C 0.60705 -0.01682 0.63814
 C771 C 0.62409 -0.01828 0.62338
 C772 C 0.63830 -0.01907 0.61028
 C773 C 0.65486 -0.01945 0.59412
 C774 C 0.65932 -0.03858 0.58551
 C775 C 0.67455 -0.03868 0.56893
 C776 C 0.68544 -0.01961 0.56071
 C777 C 0.68107 -0.00052 0.56973
 C778 C 0.66588 -0.00046 0.58630
 H779 H 0.56293 0.01198 0.64371
 H780 H 0.58062 -0.03635 0.68710
 H781 H 0.54876 -0.03237 0.70958
 H782 H 0.53135 0.01632 0.66612
 H783 H 0.65079 -0.05335 0.59137
 H784 H 0.67740 -0.05359 0.56218
 H785 H 0.68940 0.01437 0.56395
 H786 H 0.66253 0.01443 0.59283
 C787 C -0.18569 0.49345 0.92689
 C788 C -0.16658 0.48423 0.92790
 C789 C -0.16054 0.47628 0.94708
 C790 C -0.17325 0.47793 0.96528
 C791 C -0.19241 0.48771 0.96477
 C792 C -0.19854 0.49510 0.94505
 C793 C -0.15265 0.48372 0.90951
 C794 C -0.14043 0.48357 0.89447
 C795 C -0.12557 0.48373 0.87729
 C796 C -0.11244 0.48415 0.86296
 C797 C -0.09629 0.48498 0.84624
 C798 C -0.09058 0.46632 0.83748
 C799 C -0.07417 0.46712 0.82194
 C800 C -0.06325 0.48662 0.81499
 C801 C -0.06930 0.50530 0.82374
 C802 C -0.08569 0.50446 0.83927
 H803 H -0.19045 0.49982 0.91210
 H804 H -0.14585 0.46890 0.94802
 H805 H -0.16811 0.47097 0.97960
 H806 H -0.21265 0.50328 0.94355
 H807 H -0.09867 0.45115 0.84278
 H808 H -0.07005 0.45250 0.81534
 H809 H -0.06102 0.52051 0.81897
 H810 H -0.08989 0.51898 0.84605
 C811 C 0.44598 0.02798 0.33587
 C812 C 0.42661 0.01724 0.33204
 C813 C 0.42521 0.00420 0.31509
 C814 C 0.44320 0.00159 0.30224
 C815 C 0.46284 0.01194 0.30627
 C816 C 0.46397 0.02538 0.32307
 C817 C 0.40849 0.01878 0.34618
 C818 C 0.39362 0.01973 0.35848
 C819 C 0.37656 0.02046 0.37337
 C820 C 0.36227 0.02074 0.38648
 C821 C 0.34556 0.02065 0.40256
 C822 C 0.33774 0.00155 0.41309
 C823 C 0.32217 0.00141 0.42935
 C824 C 0.31420 0.02041 0.43533
 C825 C 0.32202 0.03953 0.42451
 C826 C 0.33760 0.03963 0.40822
 H827 H 0.44724 0.03811 0.34895
 H828 H 0.41031 -0.00428 0.31206
 H829 H 0.44188 -0.00903 0.28957
 H830 H 0.47881 0.03377 0.32639
 H831 H 0.34388 -0.01322 0.40892
 H832 H 0.31674 -0.01352 0.43756
 H833 H 0.31604 0.05438 0.42859
 H834 H 0.34356 0.05451 0.40018
 C835 C 0.16755 0.48480 0.94200
 C836 C 0.17629 0.49603 0.92385
 C837 C 0.19564 0.50815 0.92424
 C838 C 0.20603 0.50935 0.94282
 C839 C 0.19708 0.49852 0.96126
 C840 C 0.17786 0.48601 0.96057
 C841 C 0.16482 0.49575 0.90518
 C842 C 0.15456 0.49558 0.88998
 C843 C 0.14186 0.49538 0.87268
 C844 C 0.13046 0.49520 0.85833
 C845 C 0.11624 0.49492 0.84171
 C846 C 0.10623 0.47569 0.83616
 C847 C 0.09136 0.47547 0.82097
 C848 C 0.08625 0.49452 0.81115
 C849 C 0.09667 0.51375 0.81658
 C850 C 0.11155 0.51393 0.83177
 H851 H 0.15259 0.47535 0.94188
 H852 H 0.20251 0.51698 0.91029
 H853 H 0.22071 0.51926 0.94294
 H854 H 0.17074 0.47727 0.97445
 H855 H 0.10962 0.46090 0.84386
 H856 H 0.08341 0.46044 0.81737
 H857 H 0.09327 0.52865 0.80913
 H858 H 0.11918 0.52891 0.83597
 C859 C 0.57073 -0.02002 0.30756
 C860 C 0.57618 -0.00651 0.32339
 C861 C 0.56333 0.00955 0.32855
 C862 C 0.54499 0.01200 0.31812
 C863 C 0.53921 -0.00162 0.30235
 C864 C 0.55236 -0.01756 0.29704
 C865 C 0.59466 -0.00924 0.33479
 C866 C 0.60980 -0.01107 0.34494
 C867 C 0.62713 -0.01273 0.35747
 C868 C 0.64158 -0.01375 0.36870
 C869 C 0.65838 -0.01451 0.38270
 C870 C 0.66604 0.00399 0.39178
 C871 C 0.68144 0.00322 0.40637
 C872 C 0.68940 -0.01613 0.41212
 C873 C 0.68185 -0.03461 0.40263
 C874 C 0.66642 -0.03379 0.38803
 H875 H 0.58054 -0.03255 0.30348
 H876 H 0.56743 0.02012 0.34074
 H877 H 0.53538 0.02463 0.32231
 H878 H 0.54822 -0.02838 0.28508
 H879 H 0.65983 0.01898 0.38788
 H880 H 0.68666 0.01766 0.41361
 H881 H 0.68782 -0.04969 0.40655
 H882 H 0.66058 -0.04822 0.38110
 C883 C 0.82868 0.48307 0.06471
 C884 C 0.82423 0.49853 0.07877
 C885 C 0.80910 0.51265 0.07434
 C886 C 0.79864 0.51142 0.05580
 C887 C 0.80328 0.49611 0.04143
 C888 C 0.81829 0.48184 0.04620
 C889 C 0.83575 0.50020 0.09734
 C890 C 0.84600 0.50133 0.11251
 C891 C 0.85865 0.50240 0.12982
 C892 C 0.86998 0.50313 0.14422
 C893 C 0.88412 0.50380 0.16092
 C894 C 0.88988 0.52302 0.16978
 C895 C 0.90468 0.52388 0.18505
 C896 C 0.91393 0.50549 0.19163
 C897 C 0.90772 0.48618 0.18289
 C898 C 0.89294 0.48537 0.16763
 H899 H 0.84033 0.47205 0.06799
 H900 H 0.80559 0.52474 0.08508
 H901 H 0.78729 0.52273 0.05246
 H902 H 0.82196 0.46968 0.03559
 H903 H 0.88317 0.53740 0.16468
 H904 H 0.90894 0.53892 0.19166
 H905 H 0.91477 0.47182 0.18739
 H906 H 0.88870 0.47044 0.16077
 C907 C 0.43632 -0.00990 0.66857
 C908 C 0.42293 0.00556 0.67420
 C909 C 0.42793 0.01873 0.69044
 C910 C 0.44642 0.01660 0.70083
 C911 C 0.46015 0.00132 0.69501
 C912 C 0.45478 -0.01203 0.67889
 C913 C 0.40446 0.00815 0.66276
 C914 C 0.38939 0.00996 0.65250
 C915 C 0.37221 0.01167 0.63978
 C916 C 0.35793 0.01280 0.62835
 C917 C 0.34138 0.01376 0.61409
 C918 C 0.33705 0.03322 0.60483
 C919 C 0.32199 0.03394 0.58986
 C920 C 0.31113 0.01515 0.58388
 C921 C 0.31531 -0.00428 0.59359
 C922 C 0.33034 -0.00496 0.60857
 H923 H 0.43258 -0.02020 0.65606
 H924 H 0.41770 0.03080 0.69487
 H925 H 0.45025 0.02720 0.71306
 H926 H 0.46487 -0.02415 0.67428
 H927 H 0.34561 0.04779 0.60889
 H928 H 0.31932 0.04911 0.58249
 H929 H 0.30701 -0.01898 0.58953
 H930 H 0.33358 -0.02011 0.61561
   
