data_POSCAR
  _audit_creation_date              2014-09-24
  _audit_creation_method            'ToBaCCo'
  _symmetry_space_group_name_H-M    'P1'
  _symmetry_Int_Tables_number       1
  _symmetry_cell_setting            triclinic
  loop_
  _symmetry_equiv_pos_as_xyz
 x,y,z
_cell_length_a 54.8105
_cell_length_b 55.2081
_cell_length_c 18.3000
_cell_angle_alpha 89.994400
_cell_angle_beta 90.227700
_cell_angle_gamma 120.086600
loop_
  _atom_site_label
  _atom_site_type_symbol
  _atom_site_fract_x
  _atom_site_fract_y
  _atom_site_fract_z
C1 C 0.22869 0.51266 0.46233
 C2 C 0.22423 0.49965 0.53237
 C3 C 0.24490 0.49412 0.56068
 C4 C 0.27074 0.50300 0.52489
 C5 C 0.27494 0.51611 0.45580
 C6 C 0.25469 0.52191 0.42740
 H7 H 0.25827 0.53146 0.37372
 H8 H 0.24135 0.48477 0.61421
 C9 C 0.49331 -0.27709 0.46795
 C10 C 0.48578 -0.27809 0.54245
 C11 C 0.48690 -0.25457 0.57572
 C12 C 0.49544 -0.22949 0.53660
 C13 C 0.50310 -0.22866 0.46211
 C14 C 0.50233 -0.25195 0.42963
 H15 H 0.50949 -0.24968 0.37383
 H16 H 0.48123 -0.25632 0.63267
 C17 C 1.26978 0.78717 0.46237
 C18 C 1.27029 0.78491 0.53966
 C19 C 1.24688 0.76381 0.57628
 C20 C 1.22262 0.74436 0.53811
 C21 C 1.22249 0.74553 0.46085
 C22 C 1.24560 0.76709 0.42425
 H23 H 1.24488 0.76696 0.36520
 H24 H 1.24734 0.76362 0.63540
 C25 C 0.75134 0.46816 0.47977
 C26 C 0.74850 0.46598 0.55687
 C27 C 0.72293 0.46050 0.58847
 C28 C 0.70096 0.45995 0.54658
 C29 C 0.70430 0.46286 0.46945
 C30 C 0.72917 0.46657 0.43732
 H31 H 0.73065 0.46693 0.37827
 H32 H 0.72155 0.45894 0.64722
 C33 C 0.48604 0.26828 0.47351
 C34 C 0.49688 0.27275 0.54590
 C35 C 0.50292 0.25272 0.57640
 C36 C 0.49746 0.22825 0.53737
 C37 C 0.48509 0.22394 0.46675
 C38 C 0.47925 0.24364 0.43666
 H39 H 0.47053 0.24036 0.38178
 H40 H 0.51130 0.25596 0.63090
 C41 C 0.75461 0.20935 0.44743
 C42 C 0.75400 0.20636 0.52419
 C43 C 0.77618 0.22639 0.56706
 C44 C 0.80019 0.25280 0.53648
 C45 C 0.79945 0.25382 0.45249
 C46 C 0.77717 0.23234 0.41310
 H47 H 0.77714 0.23367 0.35409
 H48 H 0.77609 0.22355 0.62558
 N49 N 0.96378 0.53308 0.08783
 N50 N 0.94117 0.53514 0.09929
 N51 N 1.02367 0.54831 0.14011
 N52 N 1.04413 0.56131 0.18859
 N53 N 1.02275 0.56639 0.09516
 N54 N 1.04247 0.59215 0.11187
 N55 N 0.96443 0.51476 0.13250
 N56 N 0.94219 0.50392 0.17582
 C57 C 0.92793 0.51690 0.15421
 C58 C 1.05561 0.58864 0.17018
 N59 N 1.03140 0.48555 0.06717
 N60 N 1.05199 0.48015 0.07903
 N61 N 0.96993 0.46541 0.11544
 N62 N 0.94953 0.44790 0.15910
 N63 N 0.97237 0.45194 0.05928
 N64 N 0.95350 0.42500 0.06282
 N65 N 1.02893 0.49921 0.12288
 N66 N 1.04795 0.50370 0.17358
 Mn67 Mn 0.99668 0.50687 0.12864
 C68 C 1.06233 0.49192 0.14517
 C69 C 0.93942 0.42282 0.12527
 N70 N 1.02485 0.57338 -0.06115
 N71 N 1.04540 0.59979 -0.06342
 N72 N 0.96749 0.52562 -0.12270
 N73 N 0.94616 0.51752 -0.16839
 N74 N 0.96553 0.54001 -0.06831
 N75 N 0.94280 0.54238 -0.07600
 N76 N 1.02645 0.55938 -0.11701
 N77 N 1.04796 0.57572 -0.15891
 Mn78 Mn 0.99424 0.55353 0.01358
 C79 C 1.05955 0.60086 -0.12504
 C80 C 0.93095 0.52811 -0.13865
 N81 N 0.97436 0.45886 -0.09719
 N82 N 0.95622 0.43305 -0.11856
 N83 N 1.03183 0.51091 -0.13410
 N84 N 1.05235 0.52103 -0.18219
 N85 N 1.03344 0.49274 -0.09099
 N86 N 1.05511 0.48972 -0.10967
 N87 N 0.97297 0.47712 -0.14033
 N88 N 0.95387 0.46440 -0.19186
 Mn89 Mn 1.00299 0.47201 -0.01545
 Mn90 Mn 0.99965 0.51827 -0.12902
 Cl91 Cl 0.99841 0.51263 -0.00041
 C92 C 0.94351 0.43700 -0.17741
 C93 C 1.06676 0.50783 -0.16632
 N94 N 0.46986 0.44252 0.08261
 N95 N 0.46520 0.41699 0.09487
 N96 N 0.45836 0.49017 0.12950
 N97 N 0.44516 0.49858 0.17410
 N98 N 0.44069 0.47226 0.08137
 N99 N 0.41503 0.46794 0.09185
 N100 N 0.48735 0.46010 0.13148
 N101 N 0.49518 0.44710 0.17823
 C102 C 0.48121 0.42026 0.15456
 C103 C 0.41815 0.48453 0.14959
 N104 N 0.52829 0.55766 0.07082
 N105 N 0.53325 0.58356 0.07740
 N106 N 0.54027 0.51138 0.12464
 N107 N 0.55387 0.50287 0.16771
 N108 N 0.55672 0.52707 0.07173
 N109 N 0.58202 0.52984 0.07771
 N110 N 0.51158 0.54181 0.12309
 N111 N 0.50467 0.55643 0.16665
 Mn112 Mn 0.49938 0.50093 0.12810
 C113 C 0.51839 0.58243 0.13742
 C114 C 0.57991 0.51466 0.13786
 N115 N 0.43821 0.46960 -0.07511
 N116 N 0.41204 0.46415 -0.08345
 N117 N 0.48361 0.45586 -0.12791
 N118 N 0.49256 0.44205 -0.16829
 N119 N 0.46759 0.43995 -0.07465
 N120 N 0.46509 0.41491 -0.07763
 N121 N 0.45425 0.48574 -0.12795
 N122 N 0.43934 0.49162 -0.17405
 Mn123 Mn 0.45384 0.45579 0.00355
 C124 C 0.41307 0.47803 -0.14520
 C125 C 0.48066 0.41649 -0.13648
 N126 N 0.55419 0.52460 -0.08580
 N127 N 0.57865 0.52553 -0.09188
 N128 N 0.50735 0.53799 -0.13398
 N129 N 0.49821 0.55139 -0.17579
 N130 N 0.52578 0.55520 -0.08593
 N131 N 0.52973 0.58065 -0.09377
 N132 N 0.53617 0.50755 -0.13474
 N133 N 0.54783 0.49633 -0.17511
 Mn134 Mn 0.54158 0.54140 -0.00742
 Mn135 Mn 0.49530 0.49686 -0.13220
 Cl136 Cl 0.49751 0.49876 -0.00201
 C137 C 0.57435 0.50792 -0.14816
 C138 C 0.51255 0.57803 -0.15002
 N139 N 0.44652 -0.01668 0.07210
 N140 N 0.41941 -0.03547 0.07600
 N141 N 0.49835 0.03759 0.13096
 N142 N 0.50791 0.05797 0.17936
 N143 N 0.48415 0.04154 0.07902
 N144 N 0.48347 0.06484 0.09117
 N145 N 0.46060 -0.02034 0.12490
 N146 N 0.44350 -0.04170 0.16628
 C147 C 0.41789 -0.05088 0.13515
 C148 C 0.49854 0.07478 0.15401
 N149 N 0.56143 0.02588 0.09065
 N150 N 0.58812 0.04454 0.10392
 N151 N 0.50723 -0.02981 0.13238
 N152 N 0.49494 -0.05154 0.17614
 N153 N 0.52408 -0.03245 0.08644
 N154 N 0.52399 -0.05614 0.09864
 N155 N 0.54492 0.02808 0.13869
 N156 N 0.55984 0.04823 0.18596
 Mn157 Mn 0.50276 0.00385 0.13232
 C158 C 0.58669 0.05825 0.16371
 C159 C 0.50556 -0.06772 0.15476
 N160 N 0.48762 0.04300 -0.07830
 N161 N 0.48716 0.06641 -0.08755
 N162 N 0.46616 -0.01792 -0.13245
 N163 N 0.45070 -0.03739 -0.18094
 N164 N 0.45003 -0.01488 -0.08478
 N165 N 0.42316 -0.03210 -0.09975
 N166 N 0.50352 0.04043 -0.12773
 N167 N 0.51424 0.06222 -0.17242
 Mn168 Mn 0.46684 0.01333 -0.00310
 C169 C 0.50379 0.07821 -0.14621
 C170 C 0.42394 -0.04606 -0.15959
 N171 N 0.52746 -0.03098 -0.07109
 N172 N 0.52815 -0.05435 -0.07920
 N173 N 0.55061 0.03046 -0.12028
 N174 N 0.56784 0.05037 -0.16519
 N175 N 0.56479 0.02720 -0.06683
 N176 N 0.59208 0.04496 -0.07381
 N177 N 0.51331 -0.02780 -0.12478
 N178 N 0.50405 -0.04906 -0.17115
 Mn179 Mn 0.54475 -0.00262 0.00977
 Mn180 Mn 0.50841 0.00628 -0.12737
 Cl181 Cl 0.50571 0.00522 0.00272
 C182 C 0.51354 -0.06541 -0.14168
 C183 C 0.59362 0.05924 -0.13540
 C184 C 1.20797 0.51478 0.42147
 C185 C 1.17926 0.49476 0.42252
 C186 C 1.15861 0.49773 0.37688
 C187 C 1.13645 0.47406 0.34316
 C188 C 1.11687 0.47656 0.29923
 C189 C 1.11877 0.50274 0.28984
 C190 C 1.14044 0.52624 0.32548
 C191 C 1.16041 0.52385 0.36793
 C192 C 1.09764 0.50578 0.24646
 C193 C 1.08475 0.48986 0.18409
 H194 H 1.17210 0.47542 0.45231
 H195 H 1.13449 0.45368 0.35019
 H196 H 1.09991 0.45793 0.27408
 H197 H 1.14204 0.54653 0.31998
 H198 H 1.17693 0.54231 0.39486
 H199 H 1.09289 0.52185 0.26259
 H200 H 1.21489 0.53050 0.37886
 H201 H 1.09129 0.47569 0.16297
 C202 C 0.49299 0.69960 0.43440
 C203 C 0.49473 0.69629 0.35893
 C204 C 0.49570 0.67227 0.32598
 C205 C 0.50665 0.67527 0.25527
 C206 C 0.50829 0.65338 0.22193
 C207 C 0.49897 0.62789 0.25886
 C208 C 0.48723 0.62459 0.32868
 C209 C 0.48554 0.64647 0.36199
 C210 C 0.50057 0.60416 0.22638
 C211 C 0.51729 0.60663 0.16638
 H212 H 0.49563 0.71169 0.32105
 H213 H 0.51415 0.69473 0.22576
 H214 H 0.51657 0.65659 0.16711
 H215 H 0.47939 0.60499 0.35777
 H216 H 0.47583 0.64274 0.41520
 H217 H 0.48874 0.58391 0.25255
 H218 H 0.49135 0.68308 0.46913
 H219 H 0.53028 0.62657 0.14014
 C220 C 0.29343 -0.19170 0.42489
 C221 C 0.29322 -0.18371 0.35230
 C222 C 0.31846 -0.16049 0.31747
 C223 C 0.31491 -0.14462 0.26304
 C224 C 0.33830 -0.12196 0.23072
 C225 C 0.36582 -0.11498 0.25164
 C226 C 0.36928 -0.13130 0.30498
 C227 C 0.34592 -0.15388 0.33737
 C228 C 0.39143 -0.09068 0.22111
 C229 C 0.39157 -0.07492 0.16128
 H230 H 0.27362 -0.19226 0.32216
 H231 H 0.29395 -0.14939 0.24657
 H232 H 0.33448 -0.10988 0.19061
 H233 H 0.39020 -0.12657 0.32179
 H234 H 0.34948 -0.16621 0.37742
 H235 H 0.41143 -0.08504 0.24690
 H236 H 0.31288 -0.17966 0.45492
 H237 H 0.37243 -0.08020 0.13179
 C238 C 0.77535 0.46806 0.44292
 C239 C 0.78779 0.48339 0.37970
 C240 C 0.81310 0.48510 0.34561
 C241 C 0.81867 0.49292 0.27198
 C242 C 0.84275 0.49566 0.23822
 C243 C 0.86208 0.49103 0.27791
 C244 C 0.85636 0.48287 0.35131
 C245 C 0.83227 0.48014 0.38513
 C246 C 0.88829 0.49459 0.24458
 C247 C 0.90134 0.51235 0.18555
 H248 H 0.77870 0.49473 0.35394
 H249 H 0.80424 0.49681 0.24029
 H250 H 0.84592 0.50115 0.18094
 H251 H 0.87092 0.47922 0.38309
 H252 H 0.82926 0.47488 0.44254
 H253 H 0.89855 0.48429 0.27002
 H254 H 0.78383 0.45614 0.46821
 H255 H 0.89253 0.52435 0.16250
 C256 C 0.48196 0.28899 0.43243
 C257 C 0.50468 0.31564 0.41841
 C258 C 0.50259 0.33697 0.37429
 C259 C 0.52429 0.36496 0.37961
 C260 C 0.52309 0.38579 0.33914
 C261 C 0.50032 0.37900 0.29190
 C262 C 0.47861 0.35094 0.28633
 C263 C 0.47984 0.33013 0.32662
 C264 C 0.49945 0.40173 0.25150
 C265 C 0.48264 0.39721 0.18988
 H266 H 0.52491 0.32137 0.44301
 H267 H 0.54212 0.37078 0.41569
 H268 H 0.54002 0.40728 0.34467
 H269 H 0.46035 0.34487 0.25200
 H270 H 0.46295 0.30881 0.31940
 H271 H 0.51293 0.42300 0.27056
 H272 H 0.46148 0.28197 0.40822
 H273 H 0.47030 0.37657 0.16629
 C274 C 0.73044 0.18907 0.40222
 C275 C 0.73375 0.17922 0.33486
 C276 C 0.70941 0.15807 0.29202
 C277 C 0.68285 0.15607 0.29598
 C278 C 0.65986 0.13514 0.25769
 C279 C 0.66287 0.11565 0.21481
 C280 C 0.68970 0.11853 0.20801
 C281 C 0.71278 0.13958 0.24623
 C282 C 0.63854 0.09233 0.17666
 C283 C 0.61088 0.08154 0.20053
 H284 H 0.75481 0.18547 0.31599
 H285 H 0.67979 0.17078 0.32805
 H286 H 0.63989 0.13456 0.26144
 H287 H 0.69268 0.10409 0.17433
 H288 H 0.73315 0.14100 0.24141
 H289 H 0.64262 0.08240 0.13096
 H290 H 0.70951 0.18041 0.42491
 H291 H 0.60647 0.08991 0.24890
 C292 C 0.50288 0.20770 -0.43255
 C293 C 0.51723 0.20998 -0.36697
 C294 C 0.52037 0.18664 -0.33725
 C295 C 0.52325 0.18507 -0.26148
 C296 C 0.52445 0.16251 -0.23074
 C297 C 0.52287 0.14098 -0.27532
 C298 C 0.52177 0.14342 -0.35139
 C299 C 0.52050 0.16598 -0.38220
 C300 C 0.52150 0.11556 -0.24375
 C301 C 0.50882 0.10497 -0.17643
 H302 H 0.52535 0.22855 -0.33355
 H303 H 0.52390 0.20102 -0.22571
 H304 H 0.52650 0.16196 -0.17202
 H305 H 0.52114 0.12744 -0.38701
 H306 H 0.51966 0.16710 -0.44109
 H307 H 0.52790 0.10347 -0.27695
 H308 H 0.49490 0.18821 -0.46190
 H309 H 0.50008 0.11564 -0.14602
 C310 C 0.67717 0.45888 -0.41973
 C311 C 0.67084 0.45508 -0.34496
 C312 C 0.64856 0.45938 -0.31308
 C313 C 0.65252 0.47069 -0.24254
 C314 C 0.63303 0.47715 -0.21282
 C315 C 0.60905 0.47218 -0.25317
 C316 C 0.60427 0.45933 -0.32196
 C317 C 0.62385 0.45304 -0.35187
 C318 C 0.58857 0.47989 -0.22531
 C319 C 0.59534 0.50074 -0.17305
 H320 H 0.68352 0.45122 -0.30675
 H321 H 0.67113 0.47524 -0.21109
 H322 H 0.63685 0.48595 -0.15837
 H323 H 0.58560 0.45466 -0.35332
 H324 H 0.61957 0.44324 -0.40519
 H325 H 0.56770 0.46971 -0.24970
 H326 H 0.66341 0.46303 -0.45310
 H327 H 0.61630 0.51220 -0.14977
 C328 C 0.82212 0.27567 -0.40818
 C329 C 0.83888 0.30392 -0.42408
 C330 C 0.85863 0.32443 -0.37059
 C331 C 0.87524 0.35236 -0.39252
 C332 C 0.89369 0.37263 -0.34342
 C333 C 0.89567 0.36547 -0.27071
 C334 C 0.87965 0.33737 -0.24920
 C335 C 0.86118 0.31698 -0.29859
 C336 C 0.91464 0.38682 -0.21727
 C337 C 0.92238 0.41489 -0.22426
 H338 H 0.83641 0.31181 -0.47601
 H339 H 0.87397 0.35854 -0.44798
 H340 H 0.90657 0.39381 -0.36313
 H341 H 0.88112 0.33129 -0.19380
 H342 H 0.84877 0.29554 -0.28019
 H343 H 0.92230 0.38027 -0.17097
 H344 H 0.81226 0.26556 -0.44175
 H345 H 0.91336 0.42141 -0.26729
 C346 C 0.49737 -0.20537 -0.42998
 C347 C 0.48713 -0.20419 -0.36070
 C348 C 0.48909 -0.17822 -0.33089
 C349 C 0.48941 -0.17480 -0.25487
 C350 C 0.49149 -0.15056 -0.22459
 C351 C 0.49320 -0.12914 -0.26986
 C352 C 0.49175 -0.13304 -0.34588
 C353 C 0.48976 -0.15726 -0.37622
 C354 C 0.49628 -0.10278 -0.23945
 C355 C 0.50902 -0.09205 -0.17189
 H356 H 0.47773 -0.22231 -0.32562
 H357 H 0.48829 -0.19086 -0.21868
 H358 H 0.49143 -0.14890 -0.16571
 H359 H 0.49247 -0.11714 -0.38197
 H360 H 0.48833 -0.15960 -0.43503
 H361 H 0.49006 -0.09060 -0.27304
 H362 H 0.50772 -0.18594 -0.45989
 H363 H 0.51732 -0.10289 -0.14030
 C364 C 0.29304 0.50094 -0.44189
 C365 C 0.29148 0.48673 -0.37706
 C366 C 0.31651 0.48737 -0.34401
 C367 C 0.31728 0.48427 -0.26814
 C368 C 0.34072 0.48526 -0.23466
 C369 C 0.36377 0.48894 -0.27677
 C370 C 0.36294 0.49189 -0.35270
 C371 C 0.33948 0.49085 -0.38621
 C372 C 0.38897 0.49007 -0.24340
 C373 C 0.38821 0.47764 -0.17655
 H374 H 0.27204 0.47564 -0.34698
 H375 H 0.29988 0.48157 -0.23445
 H376 H 0.34083 0.48365 -0.17579
 H377 H 0.38036 0.49462 -0.38636
 H378 H 0.33931 0.49233 -0.44513
 H379 H 0.40841 0.49966 -0.27433
 H380 H 0.31355 0.51222 -0.46705
 H381 H 0.36862 0.46620 -0.14698
 C382 C 1.19676 0.72431 -0.42184
 C383 C 1.19668 0.71408 -0.35198
 C384 C 1.17046 0.69201 -0.31826
 C385 C 1.16734 0.69130 -0.24208
 C386 C 1.14284 0.67019 -0.20918
 C387 C 1.12128 0.64921 -0.25220
 C388 C 1.12471 0.64972 -0.32819
 C389 C 1.14896 0.67090 -0.36101
 C390 C 1.09576 0.62554 -0.22026
 C391 C 1.08476 0.62599 -0.15196
 H392 H 1.21604 0.72205 -0.32096
 H393 H 1.18387 0.70712 -0.20807
 H394 H 1.14123 0.66996 -0.15026
 H395 H 1.10860 0.63352 -0.36236
 H396 H 1.15112 0.67024 -0.41964
 H397 H 1.08447 0.60691 -0.25375
 H398 H 1.17674 0.71686 -0.44935
 H399 H 1.09416 0.64476 -0.11880
 C400 C 0.77035 0.46968 -0.39527
 C401 C 0.79884 0.48873 -0.40772
 C402 C 0.82095 0.49229 -0.35552
 C403 C 0.84367 0.51917 -0.34099
 C404 C 0.86536 0.52279 -0.29367
 C405 C 0.86499 0.49943 -0.26192
 C406 C 0.84239 0.47256 -0.27703
 C407 C 0.82032 0.46901 -0.32264
 C408 C 0.88912 0.50235 -0.21894
 C409 C 0.90496 0.52469 -0.17171
 H410 H 0.80489 0.50333 -0.45275
 H411 H 0.84463 0.53734 -0.36643
 H412 H 0.88291 0.54368 -0.28424
 H413 H 0.84194 0.45427 -0.25392
 H414 H 0.80326 0.44803 -0.33416
 H415 H 0.89441 0.48596 -0.22407
 H416 H 0.76477 0.46045 -0.34122
 H417 H 0.89822 0.53957 -0.15880
 C418 C 0.50027 0.29631 -0.41435
 C419 C 0.50905 0.30325 -0.34156
 C420 C 0.51007 0.32808 -0.30726
 C421 C 0.50143 0.32672 -0.23462
 C422 C 0.49955 0.34895 -0.20380
 C423 C 0.50653 0.37310 -0.24513
 C424 C 0.51688 0.37509 -0.31620
 C425 C 0.51859 0.35285 -0.34707
 C426 C 0.50318 0.39643 -0.21672
 C427 C 0.48479 0.39336 -0.16028
 H428 H 0.51259 0.28948 -0.30686
 H429 H 0.49526 0.30807 -0.20246
 H430 H 0.49257 0.34703 -0.14784
 H431 H 0.52299 0.39367 -0.34869
 H432 H 0.52632 0.35495 -0.40240
 H433 H 0.51428 0.41641 -0.24452
 H434 H 0.49406 0.30989 -0.44075
 H435 H 0.47258 0.37345 -0.13309
 C436 C 0.73025 0.18156 -0.43993
 C437 C 0.72034 0.18263 -0.37038
 C438 C 0.69543 0.15862 -0.33681
 C439 C 0.69347 0.15675 -0.26037
 C440 C 0.66969 0.13500 -0.22673
 C441 C 0.64720 0.11486 -0.26916
 C442 C 0.64899 0.11698 -0.34560
 C443 C 0.67291 0.13852 -0.37923
 C444 C 0.62110 0.09233 -0.23573
 C445 C 0.62017 0.08152 -0.16621
 H446 H 0.73100 0.20178 -0.33883
 H447 H 0.71037 0.17225 -0.22656
 H448 H 0.66870 0.13452 -0.16768
 H449 H 0.63176 0.10196 -0.37945
 H450 H 0.67326 0.13984 -0.43825
 H451 H 0.60201 0.08306 -0.26854
 H452 H 0.71977 0.16207 -0.47008
 H453 H 0.63930 0.08870 -0.13455
 C454 C 1.20170 0.49397 -0.42021
 C455 C 1.18824 0.50978 -0.41708
 C456 C 1.16577 0.50447 -0.36399
 C457 C 1.14650 0.51316 -0.38209
 C458 C 1.12552 0.50956 -0.33302
 C459 C 1.12367 0.49764 -0.26374
 C460 C 1.14261 0.48844 -0.24602
 C461 C 1.16362 0.49198 -0.29535
 C462 C 1.10205 0.49441 -0.20997
 C463 C 1.09094 0.51221 -0.21026
 H464 H 1.19443 0.52712 -0.45422
 H465 H 1.14755 0.52262 -0.43475
 H466 H 1.11064 0.51589 -0.35012
 H467 H 1.14154 0.47908 -0.19324
 H468 H 1.17849 0.48562 -0.27843
 H469 H 1.09499 0.47800 -0.16933
 H470 H 1.19679 0.47850 -0.37798
 H471 H 1.09920 0.52967 -0.24776
 C472 C 0.47604 0.69603 -0.41425
 C473 C 0.49027 0.69580 -0.35121
 C474 C 0.48764 0.66990 -0.31921
 C475 C 0.49733 0.67081 -0.24768
 C476 C 0.49777 0.64772 -0.21783
 C477 C 0.48894 0.62325 -0.25953
 C478 C 0.47841 0.62199 -0.33026
 C479 C 0.47793 0.64508 -0.36013
 C480 C 0.49081 0.59899 -0.23152
 C481 C 0.50985 0.60165 -0.17700
 H482 H 0.50548 0.71566 -0.32698
 H483 H 0.50488 0.68961 -0.21496
 H484 H 0.50509 0.64925 -0.16215
 H485 H 0.47138 0.60339 -0.36346
 H486 H 0.47097 0.64363 -0.41612
 H487 H 0.47804 0.57878 -0.25746
 H488 H 0.46001 0.67654 -0.43809
 H489 H 0.52391 0.62190 -0.15315
 C490 C 0.29448 -0.19527 -0.41498
 C491 C 0.30289 -0.16692 -0.41261
 C492 C 0.32754 -0.14632 -0.36996
 C493 C 0.32824 -0.12203 -0.34452
 C494 C 0.35154 -0.10187 -0.30529
 C495 C 0.37477 -0.10552 -0.29175
 C496 C 0.37438 -0.12947 -0.31885
 C497 C 0.35090 -0.14982 -0.35716
 C498 C 0.39999 -0.08427 -0.25203
 C499 C 0.39859 -0.06741 -0.19748
 H500 H 0.29052 -0.15974 -0.44210
 H501 H 0.31067 -0.11868 -0.35487
 H502 H 0.35157 -0.08321 -0.28711
 H503 H 0.39223 -0.13249 -0.31005
 H504 H 0.35137 -0.16792 -0.37809
 H505 H 0.42007 -0.08280 -0.26356
 H506 H 0.30403 -0.20363 -0.37849
 H507 H 0.37840 -0.07036 -0.18045
 C508 C 0.51161 -0.20420 0.41410
 C509 C 0.49351 -0.19388 0.40041
 C510 C 0.50002 -0.17104 0.34830
 C511 C 0.48803 -0.15420 0.36003
 C512 C 0.49315 -0.13266 0.31171
 C513 C 0.50989 -0.12792 0.24919
 C514 C 0.52214 -0.14463 0.23777
 C515 C 0.51717 -0.16612 0.28666
 C516 C 0.51557 -0.10515 0.19702
 C517 C 0.49766 -0.09421 0.19107
 H518 H 0.47414 -0.20224 0.43142
 H519 H 0.47495 -0.15746 0.40745
 H520 H 0.48433 -0.11954 0.32469
 H521 H 0.53528 -0.14127 0.19045
 H522 H 0.52627 -0.17913 0.27508
 H523 H 0.53458 -0.09629 0.16445
 H524 H 0.53093 -0.19649 0.38342
 H525 H 0.47802 -0.10365 0.22081
 C526 C 0.29879 0.52115 0.40797
 C527 C 0.30317 0.49898 0.39098
 C528 C 0.32723 0.50153 0.34861
 C529 C 0.32509 0.47710 0.31925
 C530 C 0.34776 0.47796 0.28259
 C531 C 0.37323 0.50337 0.27472
 C532 C 0.37560 0.52783 0.30504
 C533 C 0.35273 0.52700 0.34135
 C534 C 0.39773 0.50444 0.23784
 C535 C 0.39440 0.48567 0.18249
 H536 H 0.28790 0.47831 0.41063
 H537 H 0.30586 0.45714 0.32538
 H538 H 0.34546 0.45851 0.26230
 H539 H 0.39518 0.54757 0.30068
 H540 H 0.35536 0.54609 0.36526
 H541 H 0.41876 0.52066 0.25341
 H542 H 0.31114 0.54135 0.38217
 H543 H 0.37356 0.47118 0.16165
 C544 C 1.19878 0.72448 0.41577
 C545 C 1.18694 0.69577 0.42777
 C546 C 1.16297 0.67397 0.38498
 C547 C 1.14475 0.67985 0.34423
 C548 C 1.12204 0.65860 0.30564
 C549 C 1.11704 0.63098 0.30690
 C550 C 1.13485 0.62505 0.34899
 C551 C 1.15756 0.64631 0.38761
 C552 C 1.09310 0.60782 0.26710
 C553 C 1.07942 0.61202 0.20819
 H554 H 1.19617 0.68893 0.46967
 H555 H 1.14747 0.70065 0.34320
 H556 H 1.10816 0.66389 0.27647
 H557 H 1.13128 0.60391 0.35171
 H558 H 1.17101 0.64112 0.41949
 H559 H 1.08663 0.58655 0.28319
 H560 H 1.19270 0.73183 0.36808
 H561 H 1.08648 0.63285 0.18772
 C562 C 0.47937 0.20005 0.41935
 C563 C 0.50160 0.19856 0.38736
 C564 C 0.49809 0.17765 0.33142
 C565 C 0.52146 0.17480 0.31460
 C566 C 0.51918 0.15499 0.26355
 C567 C 0.49333 0.13746 0.22829
 C568 C 0.47031 0.14119 0.24221
 C569 C 0.47258 0.16105 0.29342
 C570 C 0.48969 0.11450 0.17951
 C571 C 0.50414 0.10022 0.19296
 H572 H 0.52285 0.21363 0.40481
 H573 H 0.54152 0.18772 0.34174
 H574 H 0.53768 0.15340 0.25204
 H575 H 0.45031 0.12821 0.21486
 H576 H 0.45429 0.16318 0.30253
 H577 H 0.47323 0.10665 0.13826
 H578 H 0.45775 0.18593 0.40355
 H579 H 0.51856 0.10628 0.23884
 C580 C 0.68134 0.46051 0.42120
 C581 C 0.68641 0.47945 0.36463
 C582 C 0.66378 0.48140 0.32466
 C583 C 0.67111 0.50571 0.28422
 C584 C 0.65041 0.50940 0.24958
 C585 C 0.62179 0.48866 0.25421
 C586 C 0.61449 0.46410 0.29329
 C587 C 0.63519 0.46033 0.32762
 C588 C 0.59898 0.49237 0.22219
 C589 C 0.60312 0.51117 0.16607
 H590 H 0.70805 0.49543 0.35414
 H591 H 0.69292 0.52229 0.28092
 H592 H 0.65692 0.52889 0.22133
 H593 H 0.59261 0.44774 0.29751
 H594 H 0.62847 0.44091 0.35627
 H595 H 0.57778 0.47917 0.24262
 H596 H 0.65998 0.44518 0.43549
 H597 H 0.62351 0.52310 0.14042
 C598 C 0.82328 0.27719 0.41351
 C599 C 0.81985 0.28969 0.35089
 C600 C 0.84306 0.31567 0.31866
 C601 C 0.84193 0.32116 0.24420
 C602 C 0.86290 0.34606 0.21284
 C603 C 0.88519 0.36619 0.25586
 C604 C 0.88603 0.36094 0.33053
 C605 C 0.86536 0.33587 0.36159
 C606 C 0.90722 0.39317 0.22524
 C607 C 0.91646 0.39610 0.15319
 H608 H 0.79930 0.28057 0.32509
 H609 H 0.82474 0.30616 0.21023
 H610 H 0.86122 0.34979 0.15548
 H611 H 0.90279 0.37628 0.36498
 H612 H 0.86658 0.33282 0.41952
 H613 H 0.91792 0.41087 0.26206
 H614 H 0.84405 0.28562 0.43737
 H615 H 0.90792 0.37806 0.11738
   
