data_POSCAR
  _audit_creation_date              2014-09-24
  _audit_creation_method            'ToBaCCo'
  _symmetry_space_group_name_H-M    'P1'
  _symmetry_Int_Tables_number       1
  _symmetry_cell_setting            triclinic
  loop_
  _symmetry_equiv_pos_as_xyz
 x,y,z
_cell_length_a 50.3345
_cell_length_b 20.8954
_cell_length_c 20.0631
_cell_angle_alpha 89.639800
_cell_angle_beta 89.987000
_cell_angle_gamma 90.247800
loop_
  _atom_site_label
  _atom_site_type_symbol
  _atom_site_fract_x
  _atom_site_fract_y
  _atom_site_fract_z
C1 C 0.80597 0.23307 0.44018
 C2 C 0.81914 0.23387 0.50176
 C3 C 0.80571 0.23522 0.56304
 C4 C 0.77754 0.24035 0.56269
 C5 C 0.76364 0.24246 0.50092
 C6 C 0.77782 0.23820 0.43961
 C7 C 0.76358 0.24349 0.37952
 C8 C 0.73610 0.24861 0.37910
 C9 C 0.72167 0.25301 0.43872
 C10 C 0.73549 0.25041 0.50038
 C11 C 0.76299 0.24726 0.62204
 C12 C 0.73550 0.25210 0.62152
 C13 C 0.72126 0.25607 0.56141
 C14 C 0.69310 0.26269 0.56043
 C15 C 0.68001 0.26252 0.49864
 C16 C 0.69374 0.25982 0.43824
 H17 H 0.77347 0.24489 0.33175
 H18 H 0.72634 0.24953 0.33110
 H19 H 0.77262 0.24993 0.67005
 H20 H 0.72564 0.25257 0.66934
 H21 H 0.84044 0.22616 0.50212
 H22 H 0.65870 0.27015 0.49700
 C23 C 0.19396 0.77010 0.56110
 C24 C 0.18063 0.77440 0.50014
 C25 C 0.19386 0.76836 0.43928
 C26 C 0.22152 0.75634 0.43902
 C27 C 0.23547 0.75134 0.50046
 C28 C 0.22167 0.75866 0.56169
 C29 C 0.23594 0.75446 0.62166
 C30 C 0.26326 0.74494 0.62179
 C31 C 0.27737 0.73508 0.56216
 C32 C 0.26331 0.73948 0.50062
 C33 C 0.23555 0.74881 0.37910
 C34 C 0.26283 0.73902 0.37911
 C35 C 0.27707 0.73359 0.43909
 C36 C 0.30481 0.72382 0.43924
 C37 C 0.31830 0.72034 0.49989
 C38 C 0.30536 0.72511 0.56167
 H39 H 0.22621 0.75919 0.66940
 H40 H 0.27314 0.74666 0.66951
 H41 H 0.22562 0.75065 0.33135
 H42 H 0.27263 0.73623 0.33127
 H43 H 0.15953 0.78497 0.50004
 H44 H 0.33940 0.70995 0.49864
 C45 C 0.19283 0.23900 -0.44046
 C46 C 0.17967 0.23850 -0.50212
 C47 C 0.19319 0.23733 -0.56332
 C48 C 0.22142 0.24140 -0.56305
 C49 C 0.23528 0.24558 -0.50140
 C50 C 0.22102 0.24394 -0.44005
 C51 C 0.23525 0.25151 -0.38023
 C52 C 0.26275 0.25587 -0.37984
 C53 C 0.27726 0.25752 -0.43950
 C54 C 0.26349 0.25291 -0.50109
 C55 C 0.23612 0.24511 -0.62261
 C56 C 0.26366 0.24898 -0.62213
 C57 C 0.27785 0.25574 -0.56229
 C58 C 0.30605 0.26241 -0.56146
 C59 C 0.31899 0.26466 -0.49951
 C60 C 0.30523 0.26365 -0.43916
 H61 H 0.22532 0.25534 -0.33269
 H62 H 0.27245 0.25852 -0.33186
 H63 H 0.22662 0.24589 -0.67084
 H64 H 0.27357 0.24650 -0.66977
 H65 H 0.15830 0.23151 -0.50240
 H66 H 0.34029 0.27270 -0.49784
 C67 C -0.30715 0.73628 -0.44100
 C68 C -0.32028 0.73625 -0.50268
 C69 C -0.30670 0.73609 -0.56384
 C70 C -0.27849 0.74132 -0.56328
 C71 C -0.26471 0.74514 -0.50144
 C72 C -0.27900 0.74193 -0.44025
 C73 C -0.26489 0.74869 -0.38013
 C74 C -0.23742 0.75434 -0.37943
 C75 C -0.22286 0.75778 -0.43894
 C76 C -0.23655 0.75361 -0.50074
 C77 C -0.26377 0.74669 -0.62266
 C78 C -0.23627 0.75203 -0.62188
 C79 C -0.22219 0.75806 -0.56175
 C80 C -0.19405 0.76557 -0.56058
 C81 C -0.18113 0.76730 -0.49861
 C82 C -0.19492 0.76511 -0.43829
 H83 H -0.27490 0.75087 -0.33256
 H84 H -0.22776 0.75647 -0.33135
 H85 H -0.27326 0.74777 -0.67092
 H86 H -0.22627 0.75124 -0.66951
 H87 H -0.34163 0.72881 -0.50299
 H88 H -0.15986 0.77584 -0.49691
 O89 O -0.03653 0.89037 0.12208
 O90 O -0.06634 0.94786 0.05969
 C91 C -0.06058 0.90667 0.10616
 O92 O 0.03734 1.11886 0.11609
 O93 O 0.06681 1.05906 0.05584
 C94 C 0.06131 1.10243 0.09974
 O95 O -0.03674 1.11202 0.12315
 O96 O -0.06644 1.05473 0.06041
 C97 C -0.06076 1.09527 0.10715
 O98 O 0.03759 0.88602 0.11541
 O99 O 0.06689 0.94831 0.05590
 C100 C 0.06151 0.90387 0.09944
 Zr101 Zr 0.00037 0.92112 0.08310
 O102 O 0.00340 0.91774 0.18829
 O103 O -0.00254 0.82003 0.07967
 Zr104 Zr 0.00020 1.08291 0.08400
 O105 O 0.00330 1.08326 0.18923
 O106 O -0.00291 1.18396 0.08254
 O107 O -0.02337 1.00149 0.09718
 O108 O 0.02332 1.00229 0.09581
 O109 O 0.03720 0.88831 -0.11730
 O110 O 0.06666 0.94964 -0.05798
 C111 C 0.06116 0.90598 -0.10165
 O112 O -0.03717 1.11494 -0.12061
 O113 O -0.06670 1.05636 -0.05783
 C114 C -0.06114 1.09817 -0.10401
 O115 O 0.03702 1.12077 -0.11610
 O116 O 0.06673 1.05958 -0.05733
 C117 C 0.06106 1.10380 -0.10077
 O118 O -0.03702 0.89219 -0.12214
 O119 O -0.06651 0.94919 -0.05894
 C120 C -0.06098 0.90850 -0.10556
 Zr121 Zr 0.00004 0.92295 -0.08411
 O122 O 0.00266 0.92283 -0.18942
 O123 O -0.00279 0.82179 -0.08238
 Zr124 Zr -0.00009 1.08469 -0.08318
 O125 O 0.00248 1.08748 -0.18848
 O126 O -0.00304 1.18572 -0.08050
 Zr127 Zr -0.03981 1.00235 0.00045
 Zr128 Zr 0.03991 1.00362 -0.00049
 O129 O 0.02295 1.00432 -0.09641
 O130 O -0.02376 1.00363 -0.09670
 O131 O 0.02417 0.90990 -0.00085
 O132 O -0.02329 1.09505 0.00077
 O133 O -0.02315 0.91012 -0.00024
 O134 O 0.02397 1.09678 0.00017
 H135 H 0.03516 1.00216 0.13524
 H136 H -0.03537 1.13237 0.00123
 H137 H 0.03463 1.00492 -0.13617
 H138 H -0.03522 0.87251 -0.00024
 H139 H 0.01256 1.20111 0.05769
 H140 H 0.01275 1.20228 -0.05674
 H141 H -0.01170 1.05938 -0.20608
 H142 H -0.01163 0.95073 -0.20669
 H143 H 0.01290 0.80522 -0.05822
 H144 H 0.01339 0.80394 0.05634
 H145 H -0.01032 0.94658 0.20639
 H146 H -0.01084 1.05494 0.20700
 O147 O 0.46406 0.38472 0.12130
 O148 O 0.43422 0.44211 0.05892
 C149 C 0.44000 0.40085 0.10534
 O150 O 0.53791 0.61338 0.11514
 O151 O 0.56751 0.55297 0.05577
 C152 C 0.56193 0.59668 0.09934
 O153 O 0.46372 0.60662 0.12248
 O154 O 0.43417 0.54895 0.05961
 C155 C 0.43975 0.58956 0.10630
 O156 O 0.53809 0.37984 0.11419
 O157 O 0.56738 0.44279 0.05533
 C158 C 0.56200 0.39800 0.09847
 Zr159 Zr 0.50097 0.41554 0.08223
 O160 O 0.50367 0.41016 0.18739
 O161 O 0.49984 0.31482 0.07357
 Zr162 Zr 0.50074 0.57747 0.08323
 O163 O 0.50345 0.58023 0.18846
 O164 O 0.49941 0.67836 0.07606
 O165 O 0.47723 0.49591 0.09639
 O166 O 0.52386 0.49679 0.09508
 O167 O 0.53765 0.38240 -0.11748
 O168 O 0.56724 0.44396 -0.05880
 C169 C 0.56165 0.40013 -0.10231
 O170 O 0.46339 0.60934 -0.12133
 O171 O 0.43385 0.55063 -0.05873
 C172 C 0.43940 0.59234 -0.10502
 O173 O 0.53751 0.61596 -0.11615
 O174 O 0.56723 0.55419 -0.05799
 C175 C 0.56155 0.59862 -0.10118
 O176 O 0.46357 0.38635 -0.12259
 O177 O 0.43412 0.44369 -0.05961
 C178 C 0.43963 0.40298 -0.10617
 Zr179 Zr 0.50062 0.41744 -0.08470
 O180 O 0.50323 0.41781 -0.19003
 O181 O 0.49830 0.31625 -0.08320
 Zr182 Zr 0.50046 0.57926 -0.08370
 O183 O 0.50307 0.58207 -0.18900
 O184 O 0.49789 0.68031 -0.08090
 Zr185 Zr 0.46076 0.49675 -0.00026
 Zr186 Zr 0.54049 0.49822 -0.00111
 O187 O 0.52353 0.49889 -0.09701
 O188 O 0.47683 0.49812 -0.09735
 O189 O 0.52478 0.40462 -0.00152
 O190 O 0.47716 0.58953 0.00013
 O191 O 0.47737 0.40453 -0.00092
 O192 O 0.52454 0.59123 -0.00037
 H193 H 0.53563 0.49655 0.13467
 H194 H 0.46506 0.62681 0.00050
 H195 H 0.53523 0.49952 -0.13673
 H196 H 0.46534 0.36685 -0.00095
 H197 H 0.49963 0.69433 0.12245
 H198 H 0.51170 0.69568 -0.04969
 H199 H 0.48902 0.55359 -0.20661
 H200 H 0.48867 0.44489 -0.20725
 H201 H 0.51202 0.30064 -0.05183
 H202 H 0.49987 0.29767 0.11973
 H203 H 0.49084 0.44117 0.20564
 H204 H 0.49026 0.54939 0.20632
 C205 C 0.35859 0.30278 0.27953
 C206 C 0.36548 0.25702 0.32784
 C207 C 0.34710 0.24068 0.37740
 C208 C 0.32208 0.27103 0.38086
 C209 C 0.31538 0.31616 0.33079
 C210 C 0.33344 0.33151 0.27962
 C211 C 0.37863 0.32352 0.23017
 C212 C 0.37206 0.37050 0.18271
 C213 C 0.39182 0.39349 0.13907
 C214 C 0.41810 0.37079 0.14406
 C215 C 0.42390 0.32146 0.19003
 C216 C 0.40431 0.29784 0.23322
 C217 C 0.32728 0.37677 0.22989
 C218 C 0.34613 0.39510 0.18163
 C219 C 0.39103 0.23030 0.32736
 C220 C 0.41018 0.25060 0.28100
 H221 H 0.30781 0.39868 0.22863
 H222 H 0.34050 0.42967 0.14391
 H223 H 0.39652 0.19471 0.36432
 H224 H 0.42989 0.23008 0.28347
 H225 H 0.35258 0.20529 0.41468
 H226 H 0.29695 0.34258 0.33393
 H227 H 0.38699 0.43072 0.10335
 H228 H 0.44388 0.30267 0.19380
 C229 C -0.14176 0.80874 0.28094
 C230 C -0.13501 0.76124 0.32754
 C231 C -0.15325 0.74442 0.37726
 C232 C -0.17809 0.77539 0.38197
 C233 C -0.18469 0.82222 0.33359
 C234 C -0.16665 0.83870 0.28277
 C235 C -0.12181 0.82988 0.23155
 C236 C -0.12814 0.87893 0.18619
 C237 C -0.10845 0.90190 0.14237
 C238 C -0.08247 0.87700 0.14506
 C239 C -0.07691 0.82597 0.18911
 C240 C -0.09642 0.80244 0.23253
 C241 C -0.17256 0.88627 0.23524
 C242 C -0.15373 0.90550 0.18733
 C243 C -0.10975 0.73312 0.32521
 C244 C -0.09073 0.75350 0.27857
 H245 H -0.19179 0.90940 0.23558
 H246 H -0.15909 0.94225 0.15165
 H247 H -0.10438 0.69618 0.36083
 H248 H -0.07124 0.73171 0.27948
 H249 H -0.14788 0.70799 0.41353
 H250 H -0.20303 0.84889 0.33791
 H251 H -0.11306 0.94073 0.10835
 H252 H -0.05713 0.80570 0.19116
 C253 C 0.64245 0.69494 0.27429
 C254 C 0.66704 0.66377 0.27852
 C255 C 0.68457 0.67937 0.33055
 C256 C 0.67784 0.72671 0.37773
 C257 C 0.65335 0.75894 0.37052
 C258 C 0.63557 0.74289 0.31964
 C259 C 0.62290 0.67450 0.22379
 C260 C 0.59773 0.70302 0.22254
 C261 C 0.57843 0.67973 0.17860
 C262 C 0.58395 0.62762 0.13652
 C263 C 0.60982 0.60191 0.13572
 C264 C 0.62931 0.62483 0.17988
 C265 C 0.61058 0.77224 0.31488
 C266 C 0.59194 0.75251 0.26724
 C267 C 0.67314 0.61589 0.23208
 C268 C 0.65471 0.59736 0.18313
 H269 H 0.60511 0.80958 0.34945
 H270 H 0.57262 0.77516 0.26643
 H271 H 0.69217 0.59195 0.23411
 H272 H 0.66022 0.56041 0.14833
 H273 H 0.70258 0.65172 0.33668
 H274 H 0.64785 0.79583 0.40569
 H275 H 0.55876 0.70063 0.17924
 H276 H 0.61440 0.56210 0.10341
 C277 C 0.14216 1.19783 0.27486
 C278 C 0.13560 1.24626 0.31996
 C279 C 0.15343 1.26160 0.37095
 C280 C 0.17763 1.22817 0.37846
 C281 C 0.18397 1.18014 0.33175
 C282 C 0.16644 1.16534 0.27956
 C283 C 0.12256 1.17830 0.22415
 C284 C 0.12865 1.12822 0.18049
 C285 C 0.10909 1.10613 0.13619
 C286 C 0.08343 1.13295 0.13670
 C287 C 0.07821 1.18543 0.17849
 C288 C 0.09762 1.20801 0.22253
 C289 C 0.17222 1.11702 0.23339
 C290 C 0.15377 1.09938 0.18421
 C291 C 0.11088 1.27683 0.31482
 C292 C 0.09216 1.25788 0.26702
 H293 H 0.19102 1.09205 0.23582
 H294 H 0.15901 1.06202 0.14963
 H295 H 0.10566 1.31452 0.34922
 H296 H 0.07303 1.28144 0.26594
 H297 H 0.14823 1.29893 0.40589
 H298 H 0.20170 1.15151 0.33827
 H299 H 0.11341 1.06595 0.10414
 H300 H 0.05868 1.20709 0.17885
 C301 C 0.64188 0.30558 -0.27938
 C302 C 0.63514 0.25654 -0.32379
 C303 C 0.65287 0.24062 -0.37471
 C304 C 0.67734 0.27330 -0.38211
 C305 C 0.68391 0.32186 -0.33607
 C306 C 0.66628 0.33800 -0.28458
 C307 C 0.62240 0.32557 -0.22868
 C308 C 0.62858 0.37656 -0.18605
 C309 C 0.60918 0.39856 -0.14138
 C310 C 0.58363 0.37051 -0.14026
 C311 C 0.57832 0.31747 -0.18135
 C312 C 0.59751 0.29517 -0.22592
 C313 C 0.67210 0.38749 -0.23965
 C314 C 0.65363 0.40613 -0.19099
 C315 C 0.61038 0.22575 -0.31787
 C316 C 0.59187 0.24476 -0.26975
 H317 H 0.69092 0.41268 -0.24274
 H318 H 0.65884 0.44475 -0.15774
 H319 H 0.60503 0.18758 -0.35169
 H320 H 0.57276 0.22076 -0.26786
 H321 H 0.64749 0.20308 -0.40936
 H322 H 0.70194 0.34976 -0.34264
 H323 H 0.61354 0.43935 -0.11008
 H324 H 0.55886 0.29501 -0.18066
 C325 C 0.14249 0.81235 -0.27575
 C326 C 0.13694 0.75961 -0.31653
 C327 C 0.15491 0.74348 -0.36696
 C328 C 0.17793 0.78062 -0.37784
 C329 C 0.18342 0.83282 -0.33592
 C330 C 0.16586 0.84851 -0.28425
 C331 C 0.12276 0.83226 -0.22570
 C332 C 0.12792 0.88615 -0.18627
 C333 C 0.10829 0.90775 -0.14223
 C334 C 0.08337 0.87683 -0.13900
 C335 C 0.07897 0.82129 -0.17704
 C336 C 0.09859 0.79886 -0.22053
 C337 C 0.17069 0.90097 -0.24245
 C338 C 0.15215 0.91901 -0.19384
 C339 C 0.11300 0.72574 -0.30794
 C340 C 0.09409 0.74519 -0.26090
 H341 H 0.18875 0.92888 -0.24797
 H342 H 0.15655 0.95983 -0.16289
 H343 H 0.10854 0.68488 -0.33904
 H344 H 0.07557 0.71879 -0.25708
 H345 H 0.15049 0.70382 -0.39982
 H346 H 0.20078 0.86245 -0.34521
 H347 H 0.11190 0.95054 -0.11333
 H348 H 0.05998 0.79675 -0.17453
 C349 C 0.35775 0.68824 -0.27868
 C350 C 0.33237 0.66013 -0.27742
 C351 C 0.31425 0.67460 -0.32868
 C352 C 0.32128 0.71782 -0.38041
 C353 C 0.34650 0.74774 -0.37821
 C354 C 0.36484 0.73253 -0.32841
 C355 C 0.37782 0.66828 -0.22925
 C356 C 0.40365 0.69345 -0.23356
 C357 C 0.42325 0.67045 -0.19040
 C358 C 0.41739 0.62201 -0.14332
 C359 C 0.39097 0.59988 -0.13702
 C360 C 0.37114 0.62245 -0.18053
 C361 C 0.39055 0.75886 -0.32916
 C362 C 0.40968 0.73945 -0.28263
 C363 C 0.32608 0.61625 -0.22631
 C364 C 0.34501 0.59853 -0.17812
 H365 H 0.39617 0.79338 -0.36721
 H366 H 0.42952 0.75954 -0.28606
 H367 H 0.30646 0.59482 -0.22399
 H368 H 0.33929 0.56486 -0.13945
 H369 H 0.29551 0.64891 -0.33061
 H370 H 0.35217 0.78180 -0.41676
 H371 H 0.44332 0.68889 -0.19524
 H372 H 0.38608 0.56344 -0.10034
 C373 C -0.14261 1.19647 -0.27635
 C374 C -0.16759 1.16644 -0.27758
 C375 C -0.18545 1.18143 -0.32915
 C376 C -0.17869 1.22736 -0.37852
 C377 C -0.15393 1.25923 -0.37369
 C378 C -0.13574 1.24328 -0.32374
 C379 C -0.12266 1.17585 -0.22696
 C380 C -0.09708 1.20273 -0.22910
 C381 C -0.07750 1.17903 -0.18630
 C382 C -0.08316 1.12837 -0.14168
 C383 C -0.10937 1.10458 -0.13728
 C384 C -0.12915 1.12767 -0.18058
 C385 C -0.11035 1.27131 -0.32216
 C386 C -0.09128 1.25114 -0.27579
 C387 C -0.17374 1.12015 -0.22874
 C388 C -0.15498 1.10192 -0.18040
 H389 H -0.10489 1.30774 -0.35839
 H390 H -0.07165 1.27259 -0.27750
 H391 H -0.19310 1.09726 -0.22832
 H392 H -0.16056 1.06643 -0.14344
 H393 H -0.20372 1.15410 -0.33326
 H394 H -0.14846 1.29527 -0.41041
 H395 H -0.05758 1.19875 -0.18947
 H396 H -0.11411 1.06639 -0.10246
 C397 C 0.64176 0.69466 -0.27934
 C398 C 0.66620 0.66287 -0.28368
 C399 C 0.68378 0.67873 -0.33566
 C400 C 0.67713 0.72641 -0.38309
 C401 C 0.65268 0.75873 -0.37639
 C402 C 0.63496 0.74296 -0.32503
 C403 C 0.62230 0.67467 -0.22821
 C404 C 0.59733 0.70423 -0.22638
 C405 C 0.57812 0.68164 -0.18150
 C406 C 0.58351 0.62913 -0.13920
 C407 C 0.60914 0.60210 -0.13933
 C408 C 0.62854 0.62436 -0.18430
 C409 C 0.61016 0.77308 -0.31995
 C410 C 0.59164 0.75400 -0.27146
 C411 C 0.67210 0.61415 -0.23742
 C412 C 0.65366 0.59557 -0.18831
 H413 H 0.60476 0.81067 -0.35478
 H414 H 0.57247 0.77737 -0.27029
 H415 H 0.69096 0.58948 -0.23983
 H416 H 0.65892 0.55754 -0.15399
 H417 H 0.70182 0.65119 -0.34148
 H418 H 0.64726 0.79575 -0.41196
 H419 H 0.55859 0.70330 -0.18159
 H420 H 0.61358 0.56176 -0.10707
 C421 C 0.14153 1.19999 -0.27827
 C422 C 0.13456 1.24669 -0.32555
 C423 C 0.15241 1.26199 -0.37677
 C424 C 0.17706 1.23025 -0.38229
 C425 C 0.18384 1.18415 -0.33325
 C426 C 0.16625 1.16931 -0.28095
 C427 C 0.12197 1.18036 -0.22720
 C428 C 0.12848 1.13190 -0.18133
 C429 C 0.10899 1.10957 -0.13656
 C430 C 0.08302 1.13467 -0.13862
 C431 C 0.07739 1.18571 -0.18267
 C432 C 0.09668 1.20837 -0.22730
 C433 C 0.17243 1.12270 -0.23261
 C434 C 0.15398 1.10492 -0.18319
 C435 C 0.10946 1.27558 -0.32221
 C436 C 0.09080 1.25662 -0.27399
 H437 H 0.19157 1.09915 -0.23348
 H438 H 0.15955 1.06891 -0.14690
 H439 H 0.10392 1.31196 -0.35827
 H440 H 0.07139 1.27887 -0.27427
 H441 H 0.14688 1.29804 -0.41330
 H442 H 0.20201 1.15688 -0.33794
 H443 H 0.11367 1.07061 -0.10272
 H444 H 0.05764 1.20610 -0.18436
 C445 C 0.35731 0.30799 -0.27771
 C446 C 0.36216 0.25367 -0.31662
 C447 C 0.34380 0.23645 -0.36588
 C448 C 0.32121 0.27435 -0.37788
 C449 C 0.31644 0.32816 -0.33777
 C450 C 0.33428 0.34471 -0.28696
 C451 C 0.37745 0.32892 -0.22903
 C452 C 0.37288 0.38406 -0.19119
 C453 C 0.39277 0.40611 -0.14797
 C454 C 0.41741 0.37459 -0.14427
 C455 C 0.42134 0.31823 -0.18117
 C456 C 0.40138 0.29508 -0.22348
 C457 C 0.33010 0.39865 -0.24695
 C458 C 0.34895 0.41748 -0.19933
 C459 C 0.38587 0.21943 -0.30760
 C460 C 0.40522 0.23999 -0.26204
 H461 H 0.31230 0.42705 -0.25308
 H462 H 0.34504 0.45936 -0.16971
 H463 H 0.38982 0.17740 -0.33731
 H464 H 0.42353 0.21321 -0.25788
 H465 H 0.34772 0.19558 -0.39740
 H466 H 0.29949 0.35851 -0.34804
 H467 H 0.38955 0.44942 -0.11982
 H468 H 0.44013 0.29321 -0.17813
 C469 C -0.14303 0.81051 -0.27660
 C470 C -0.13771 0.75696 -0.31628
 C471 C -0.15602 0.73919 -0.36548
 C472 C -0.17904 0.77582 -0.37675
 C473 C -0.18429 0.82876 -0.33571
 C474 C -0.16649 0.84582 -0.28494
 C475 C -0.12295 0.83219 -0.22804
 C476 C -0.12797 0.88658 -0.18938
 C477 C -0.10814 0.90944 -0.14631
 C478 C -0.08315 0.87943 -0.14354
 C479 C -0.07881 0.82367 -0.18118
 C480 C -0.09865 0.79978 -0.22337
 C481 C -0.17112 0.89896 -0.24406
 C482 C -0.15233 0.91843 -0.19654
 C483 C -0.11363 0.72412 -0.30810
 C484 C -0.09436 0.74537 -0.26267
 H485 H -0.18927 0.92622 -0.24941
 H486 H -0.15664 0.95958 -0.16617
 H487 H -0.10932 0.68269 -0.33839
 H488 H -0.07576 0.71969 -0.25918
 H489 H -0.15173 0.69898 -0.39760
 H490 H -0.20158 0.85818 -0.34530
 H491 H -0.11172 0.95216 -0.11749
 H492 H -0.05977 0.79968 -0.17885
 C493 C 0.35730 0.68266 0.27795
 C494 C 0.33360 0.64736 0.28425
 C495 C 0.31561 0.66295 0.33502
 C496 C 0.32095 0.71444 0.37801
 C497 C 0.34419 0.75124 0.36873
 C498 C 0.36267 0.73486 0.31961
 C499 C 0.37754 0.66238 0.22939
 C500 C 0.40203 0.69468 0.22671
 C501 C 0.42199 0.67198 0.18441
 C502 C 0.41758 0.61752 0.14473
 C503 C 0.39241 0.58771 0.14556
 C504 C 0.37245 0.60937 0.18865
 C505 C 0.38696 0.76773 0.31343
 C506 C 0.40638 0.74776 0.26798
 C507 C 0.32891 0.59571 0.24129
 C508 C 0.34787 0.57765 0.19371
 H509 H 0.39130 0.80812 0.34529
 H510 H 0.42513 0.77335 0.26602
 H511 H 0.31058 0.56852 0.24501
 H512 H 0.34349 0.53770 0.16157
 H513 H 0.29809 0.63354 0.34299
 H514 H 0.34849 0.79042 0.40229
 H515 H 0.44116 0.69586 0.18357
 H516 H 0.38874 0.54602 0.11507
 C517 C -0.14198 1.19043 0.28165
 C518 C -0.16665 1.15898 0.28506
 C519 C -0.18465 1.17529 0.33574
 C520 C -0.17821 1.22333 0.38252
 C521 C -0.15364 1.25581 0.37608
 C522 C -0.13544 1.23923 0.32649
 C523 C -0.12205 1.16967 0.23244
 C524 C -0.09688 1.19878 0.23185
 C525 C -0.07736 1.17583 0.18858
 C526 C -0.08271 1.12381 0.14614
 C527 C -0.10849 1.09710 0.14508
 C528 C -0.12817 1.11944 0.18882
 C529 C -0.11040 1.26890 0.32259
 C530 C -0.09140 1.24889 0.27616
 C531 C -0.17235 1.11014 0.23928
 C532 C -0.15354 1.09120 0.19158
 H533 H -0.10519 1.30683 0.35684
 H534 H -0.07208 1.27197 0.27586
 H535 H -0.19139 1.08577 0.24084
 H536 H -0.15873 1.05340 0.15735
 H537 H -0.20279 1.14765 0.34128
 H538 H -0.14840 1.29327 0.41096
 H539 H -0.05775 1.19748 0.18937
 H540 H -0.11292 1.05741 0.11239
 C541 C 0.64301 0.30213 0.27303
 C542 C 0.63739 0.24887 0.31378
 C543 C 0.65515 0.23251 0.36486
 C544 C 0.67797 0.27002 0.37644
 C545 C 0.68350 0.32273 0.33450
 C546 C 0.66622 0.33856 0.28218
 C547 C 0.62346 0.32238 0.22245
 C548 C 0.62867 0.37685 0.18316
 C549 C 0.60913 0.39896 0.13887
 C550 C 0.58424 0.36802 0.13530
 C551 C 0.57984 0.31178 0.17302
 C552 C 0.59936 0.28884 0.21676
 C553 C 0.67114 0.39151 0.24042
 C554 C 0.65280 0.40985 0.19127
 C555 C 0.61357 0.21481 0.30454
 C556 C 0.59481 0.23462 0.25702
 H557 H 0.68911 0.41961 0.24645
 H558 H 0.65726 0.45106 0.16040
 H559 H 0.60904 0.17356 0.33557
 H560 H 0.57635 0.20810 0.25279
 H561 H 0.65066 0.19248 0.39769
 H562 H 0.70066 0.35274 0.34434
 H563 H 0.61275 0.44224 0.11021
 H564 H 0.56087 0.28719 0.17025
 C565 C 0.14263 0.80898 0.27456
 C566 C 0.13659 0.75775 0.31768
 C567 C 0.15444 0.74199 0.36871
 C568 C 0.17785 0.77803 0.37784
 C569 C 0.18385 0.82855 0.33345
 C570 C 0.16639 0.84385 0.28124
 C571 C 0.12300 0.82878 0.22394
 C572 C 0.12861 0.88134 0.18224
 C573 C 0.10901 0.90327 0.13791
 C574 C 0.08374 0.87391 0.13651
 C575 C 0.07899 0.81932 0.17653
 C576 C 0.09849 0.79674 0.22048
 C577 C 0.17170 0.89475 0.23704
 C578 C 0.15324 0.91265 0.18792
 C579 C 0.11231 0.72510 0.31073
 C580 C 0.09353 0.74441 0.26308
 H581 H 0.19009 0.92157 0.24107
 H582 H 0.15806 0.95218 0.15503
 H583 H 0.10747 0.68538 0.34359
 H584 H 0.07474 0.71906 0.26058
 H585 H 0.14965 0.70358 0.40332
 H586 H 0.20154 0.85732 0.34124
 H587 H 0.11295 0.94521 0.10738
 H588 H 0.05975 0.79583 0.17545
   
