data_POSCAR
  _audit_creation_date              2014-09-24
  _audit_creation_method            'ToBaCCo'
  _symmetry_space_group_name_H-M    'P1'
  _symmetry_Int_Tables_number       1
  _symmetry_cell_setting            triclinic
  loop_
  _symmetry_equiv_pos_as_xyz
 x,y,z
_cell_length_a 47.8506
_cell_length_b 46.8156
_cell_length_c 48.7901
_cell_angle_alpha 91.680200
_cell_angle_beta 88.663800
_cell_angle_gamma 93.393400
loop_
  _atom_site_label
  _atom_site_type_symbol
  _atom_site_fract_x
  _atom_site_fract_y
  _atom_site_fract_z
N1 N 0.59235 0.65963 0.60978
 N2 N 0.57887 0.64632 0.62990
 C3 C 0.55728 0.66164 0.63858
 C4 C 0.55706 0.68583 0.62292
 C5 C 0.57963 0.68378 0.60480
 H6 H 0.54271 0.65547 0.65491
 H7 H 0.58661 0.69897 0.58946
 Cu8 Cu 0.59048 0.61016 0.64288
 Cu9 Cu 0.62569 0.64492 0.59210
 Cu10 Cu 0.65260 0.58643 0.62172
 N11 N 0.60821 0.58060 0.66209
 N12 N 0.63273 0.57180 0.65418
 C13 C 0.64016 0.55163 0.67126
 C14 C 0.61900 0.54732 0.69102
 C15 C 0.59904 0.56625 0.68435
 H16 H 0.65934 0.54066 0.66899
 H17 H 0.57942 0.56976 0.69494
 N18 N 0.66942 0.60434 0.58869
 N19 N 0.65921 0.62670 0.57746
 C20 C 0.67502 0.63380 0.55523
 C21 C 0.69616 0.61493 0.55219
 C22 C 0.69190 0.59653 0.57379
 H23 H 0.67111 0.65111 0.54191
 H24 H 0.70434 0.57881 0.57840
 H25 H 0.61929 0.60221 0.60179
 H26 H 0.63725 0.62656 0.62786
 N27 N 0.89664 0.32520 0.12058
 N28 N 0.90478 0.33792 0.14362
 C29 C 0.92634 0.32431 0.15333
 C30 C 0.93233 0.30185 0.13526
 C31 C 0.91288 0.30324 0.11468
 H32 H 0.93712 0.33070 0.17192
 H33 H 0.91031 0.28922 0.09683
 Cu34 Cu 0.88685 0.37158 0.15812
 Cu35 Cu 0.86529 0.33772 0.10012
 Cu36 Cu 0.83233 0.39700 0.12641
 N37 N 0.86838 0.40488 0.17266
 N38 N 0.84685 0.41451 0.16032
 C39 C 0.83813 0.43762 0.17440
 C40 C 0.85524 0.44292 0.19671
 C41 C 0.87421 0.42168 0.19492
 H42 H 0.82102 0.45002 0.16847
 H43 H 0.89092 0.41865 0.20888
 N44 N 0.82080 0.37630 0.09236
 N45 N 0.83320 0.35363 0.08248
 C46 C 0.82042 0.34422 0.05934
 C47 C 0.79904 0.36188 0.05429
 C48 C 0.79994 0.38200 0.07565
 H49 H 0.82643 0.32604 0.04686
 H50 H 0.78616 0.39930 0.07897
 H51 H 0.86930 0.38026 0.11277
 H52 H 0.84476 0.35632 0.13319
 N53 N 0.40444 0.15912 -0.10440
 N54 N 0.41542 0.14873 -0.12726
 C55 C 0.43882 0.16472 -0.13380
 C56 C 0.44278 0.18627 -0.11396
 C57 C 0.42051 0.18197 -0.09560
 H58 H 0.45215 0.16078 -0.15153
 H59 H 0.41607 0.19471 -0.07735
 Cu60 Cu 0.39803 0.11532 -0.14616
 Cu61 Cu 0.37008 0.14240 -0.08782
 Cu62 Cu 0.33935 0.08212 -0.12051
 N63 N 0.38078 0.08124 -0.16408
 N64 N 0.35772 0.06853 -0.15403
 C65 C 0.34990 0.04605 -0.17049
 C66 C 0.36915 0.04445 -0.19204
 C67 C 0.38851 0.06714 -0.18724
 H68 H 0.33164 0.03183 -0.16691
 H69 H 0.40657 0.07322 -0.19993
 N70 N 0.32390 0.09914 -0.08643
 N71 N 0.33532 0.12238 -0.07425
 C72 C 0.31958 0.12906 -0.05198
 C73 C 0.29727 0.10897 -0.04995
 C74 C 0.30074 0.09031 -0.07212
 H75 H 0.32416 0.14702 -0.03807
 H76 H 0.28709 0.07194 -0.07766
 H77 H 0.37499 0.10134 -0.10312
 H78 H 0.35335 0.12456 -0.12350
 N79 N 0.10212 0.84930 0.39526
 N80 N 0.09162 0.85897 0.37295
 C81 C 0.06857 0.84255 0.36632
 C82 C 0.06412 0.82147 0.38572
 C83 C 0.08598 0.82665 0.40381
 H84 H 0.05579 0.84609 0.34892
 H85 H 0.09032 0.81461 0.42162
 Cu86 Cu 0.10884 0.89256 0.35527
 Cu87 Cu 0.13649 0.86612 0.41112
 Cu88 Cu 0.16816 0.92526 0.37917
 N89 N 0.12672 0.92574 0.33748
 N90 N 0.14996 0.93835 0.34689
 C91 C 0.15790 0.96051 0.33097
 C92 C 0.13854 0.96202 0.31047
 C93 C 0.11902 0.93957 0.31529
 H94 H 0.17624 0.97469 0.33432
 H95 H 0.10074 0.93357 0.30336
 N96 N 0.18330 0.90874 0.41204
 N97 N 0.17139 0.88606 0.42400
 C98 C 0.18704 0.87946 0.44524
 C99 C 0.20985 0.89898 0.44685
 C100 C 0.20673 0.91728 0.42551
 H101 H 0.18216 0.86182 0.45867
 H102 H 0.22086 0.93512 0.41986
 H103 H 0.13245 0.90708 0.39764
 H104 H 0.15342 0.88298 0.37525
 N105 N 0.11194 0.12829 0.12520
 N106 N 0.39346 0.87599 0.61362
 N107 N 0.87421 0.63786 0.36885
 N108 N 0.63315 0.37160 -0.13174
 C109 C -0.00931 0.26251 0.16294
 C110 C -0.00379 0.24252 0.14147
 C111 C -0.01980 0.24332 0.11748
 C112 C -0.04107 0.26259 0.11571
 C113 C -0.04653 0.28222 0.13728
 C114 C -0.03013 0.28195 0.16079
 C115 C -0.01445 0.22499 0.09518
 C116 C 0.00687 0.20620 0.09585
 C117 C 0.02344 0.20449 0.11925
 C118 C 0.01729 0.22215 0.14283
 C119 C 0.03208 0.21851 0.16708
 C120 C 0.05266 0.19891 0.16812
 C121 C 0.05982 0.18257 0.14497
 C122 C 0.04566 0.18536 0.12004
 C123 C 0.05469 0.16915 0.09684
 C124 C 0.07636 0.15065 0.09864
 C125 C 0.08963 0.14751 0.12350
 C126 C 0.08127 0.16352 0.14660
 H127 H 0.00246 0.26416 0.18152
 H128 H -0.05287 0.26247 0.09706
 H129 H -0.03332 0.29658 0.17797
 H130 H -0.02672 0.22536 0.07680
 H131 H 0.00939 0.19273 0.07780
 H132 H 0.02779 0.23007 0.18597
 H133 H 0.06330 0.19674 0.18726
 H134 H 0.04588 0.17064 0.07686
 H135 H 0.08275 0.13854 0.08055
 H136 H 0.09192 0.16141 0.16575
 C137 C 0.50283 0.73494 0.65177
 C138 C 0.49864 0.75297 0.62959
 C139 C 0.51396 0.74794 0.60486
 C140 C 0.53315 0.72634 0.60294
 C141 C 0.53711 0.70885 0.62517
 C142 C 0.52167 0.71330 0.64948
 C143 C 0.50997 0.76433 0.58205
 C144 C 0.49070 0.78538 0.58294
 C145 C 0.47484 0.79127 0.60699
 C146 C 0.47956 0.77545 0.63098
 C147 C 0.46531 0.78286 0.65561
 C148 C 0.44656 0.80438 0.65670
 C149 C 0.44084 0.81913 0.63328
 C150 C 0.45464 0.81270 0.60799
 C151 C 0.44724 0.82775 0.58468
 C152 C 0.42735 0.84839 0.58665
 C153 C 0.41426 0.85488 0.61180
 C154 C 0.42114 0.84021 0.63505
 H155 H 0.49159 0.73660 0.67107
 H156 H 0.54460 0.72281 0.58384
 H157 H 0.52428 0.70015 0.66703
 H158 H 0.52174 0.76069 0.56313
 H159 H 0.48913 0.79705 0.56441
 H160 H 0.46854 0.77274 0.67472
 H161 H 0.43620 0.80935 0.67611
 H162 H 0.45600 0.82378 0.56450
 H163 H 0.42214 0.85948 0.56845
 H164 H 0.41066 0.84491 0.65446
 C165 C 1.01731 0.76078 0.41098
 C166 C 0.99829 0.75592 0.38935
 C167 C 1.00237 0.77302 0.36595
 C168 C 1.02379 0.79486 0.36504
 C169 C 1.04240 0.79972 0.38682
 C170 C 1.03892 0.78210 0.40963
 C171 C 0.98517 0.76815 0.34341
 C172 C 0.96431 0.74624 0.34326
 C173 C 0.95927 0.72867 0.36609
 C174 C 0.97575 0.73441 0.38995
 C175 C 0.96880 0.71886 0.41378
 C176 C 0.94707 0.69787 0.41410
 C177 C 0.93184 0.69097 0.39059
 C178 C 0.93795 0.70589 0.36606
 C179 C 0.92274 0.69697 0.34242
 C180 C 0.90204 0.67470 0.34343
 C181 C 0.89564 0.66079 0.36793
 C182 C 0.91056 0.66902 0.39145
 H183 H 1.01652 0.74806 0.42905
 H184 H 1.02616 0.80755 0.34686
 H185 H 1.05265 0.78477 0.42691
 H186 H 0.98806 0.78124 0.32548
 H187 H 0.95191 0.74412 0.32508
 H188 H 0.97931 0.72295 0.43290
 H189 H 0.94236 0.68666 0.43294
 H190 H 0.92672 0.70629 0.32268
 H191 H 0.89079 0.66833 0.32502
 H192 H 0.90588 0.65782 0.41030
 C193 C 0.49282 0.24577 -0.08687
 C194 C 0.50961 0.25283 -0.11029
 C195 C 0.50358 0.23745 -0.13513
 C196 C 0.48201 0.21577 -0.13612
 C197 C 0.46570 0.20902 -0.11271
 C198 C 0.47131 0.22430 -0.08816
 C199 C 0.51900 0.24379 -0.15897
 C200 C 0.54020 0.26532 -0.15896
 C201 C 0.54709 0.28140 -0.13486
 C202 C 0.53190 0.27468 -0.10999
 C203 C 0.53963 0.28990 -0.08564
 C204 C 0.56106 0.31120 -0.08556
 C205 C 0.57557 0.31847 -0.10967
 C206 C 0.56880 0.30385 -0.13474
 C207 C 0.58395 0.31259 -0.15868
 C208 C 0.60490 0.33461 -0.15755
 C209 C 0.61158 0.34868 -0.13267
 C210 C 0.59682 0.34048 -0.10880
 H211 H 0.49550 0.25651 -0.06722
 H212 H 0.47770 0.20445 -0.15538
 H213 H 0.45920 0.21957 -0.06967
 H214 H 0.51455 0.23202 -0.17800
 H215 H 0.55101 0.26858 -0.17830
 H216 H 0.52970 0.28571 -0.06603
 H217 H 0.56624 0.32224 -0.06633
 H218 H 0.58005 0.30313 -0.17870
 H219 H 0.61611 0.34062 -0.17624
 H220 H 0.60169 0.35161 -0.08954
 C221 C 0.16346 0.01893 0.26034
 C222 C 0.13895 0.02339 0.24566
 C223 C 0.11409 0.00727 0.25323
 C224 C 0.11414 -0.01270 0.27417
 C225 C 0.13864 -0.01694 0.28832
 C226 C 0.16319 -0.00083 0.28124
 C227 C 0.08919 0.01113 0.23994
 C228 C 0.08820 0.03080 0.21932
 C229 C 0.11231 0.04739 0.21087
 C230 C 0.13822 0.04330 0.22395
 C231 C 0.16256 0.05903 0.21473
 C232 C 0.16169 0.07826 0.19371
 C233 C 0.13659 0.08289 0.18112
 C234 C 0.11144 0.06776 0.18957
 C235 C 0.08648 0.07383 0.17635
 C236 C 0.08675 0.09365 0.15550
 C237 C 0.11175 0.10810 0.14704
 C238 C 0.13658 0.10267 0.16004
 H239 H 0.18321 0.03045 0.25641
 H240 H 0.09485 -0.02465 0.27967
 H241 H 0.18250 -0.00364 0.29169
 H242 H 0.07013 -0.00118 0.24560
 H243 H 0.06810 0.03218 0.21017
 H244 H 0.18290 0.05678 0.22309
 H245 H 0.18097 0.08973 0.18727
 H246 H 0.06632 0.06385 0.18164
 H247 H 0.06731 0.09751 0.14568
 H248 H 0.15594 0.11412 0.15382
 C249 C 0.59200 0.50436 -0.24972
 C250 C 0.61484 0.48771 -0.24420
 C251 C 0.63967 0.49237 -0.26023
 C252 C 0.64087 0.51187 -0.28164
 C253 C 0.61782 0.52789 -0.28731
 C254 C 0.59355 0.52402 -0.27073
 C255 C 0.66329 0.47756 -0.25484
 C256 C 0.66301 0.45839 -0.23366
 C257 C 0.63873 0.45269 -0.21726
 C258 C 0.61397 0.46690 -0.22321
 C259 C 0.58903 0.45937 -0.20842
 C260 C 0.58832 0.43908 -0.18821
 C261 C 0.61246 0.42587 -0.18146
 C262 C 0.63818 0.43278 -0.19549
 C263 C 0.66228 0.41956 -0.18691
 C264 C 0.66058 0.39984 -0.16593
 C265 C 0.63493 0.39252 -0.15291
 C266 C 0.61098 0.40570 -0.16068
 H267 H 0.57270 0.50312 -0.23790
 H268 H 0.66015 0.51469 -0.29354
 H269 H 0.57527 0.53588 -0.27398
 H270 H 0.68235 0.48096 -0.26706
 H271 H 0.68210 0.44777 -0.23114
 H272 H 0.56933 0.46823 -0.21246
 H273 H 0.56860 0.43379 -0.17762
 H274 H 0.68285 0.42426 -0.19566
 H275 H 0.67933 0.38995 -0.15998
 H276 H 0.59120 0.40035 -0.15022
 C277 C 0.34351 0.98783 0.75586
 C278 C 0.36789 0.98315 0.73969
 C279 C 0.39297 0.99890 0.74700
 C280 C 0.39321 1.01888 0.76907
 C281 C 0.36881 1.02337 0.78466
 C282 C 0.34408 1.00754 0.77789
 C283 C 0.41777 0.99465 0.73232
 C284 C 0.41847 0.97484 0.71063
 C285 C 0.39414 0.95858 0.70242
 C286 C 0.36829 0.96328 0.71679
 C287 C 0.34366 0.94821 0.70760
 C288 C 0.34423 0.92887 0.68554
 C289 C 0.36930 0.92343 0.67186
 C290 C 0.39471 0.93797 0.68013
 C291 C 0.41964 0.93097 0.66583
 C292 C 0.41911 0.91078 0.64418
 C293 C 0.39387 0.89692 0.63596
 C294 C 0.36904 0.90335 0.64992
 H295 H 0.32366 0.97644 0.75230
 H296 H 0.41263 1.03062 0.77433
 H297 H 0.32485 1.01054 0.78946
 H298 H 0.43699 1.00670 0.73776
 H299 H 0.43852 0.97312 0.70044
 H300 H 0.32332 0.95115 0.71678
 H301 H 0.32474 0.91791 0.67920
 H302 H 0.43997 0.94039 0.67097
 H303 H 0.43853 0.90603 0.63364
 H304 H 0.34950 0.89231 0.64386
 C305 C 0.82805 0.50306 0.24165
 C306 C 0.85170 0.51215 0.25730
 C307 C 0.87676 0.49799 0.25211
 C308 C 0.87764 0.47534 0.23265
 C309 C 0.85399 0.46655 0.21751
 C310 C 0.82930 0.48074 0.22211
 C311 C 0.90095 0.50656 0.26622
 C312 C 0.90110 0.52924 0.28518
 C313 C 0.87678 0.54414 0.29115
 C314 C 0.85146 0.53490 0.27759
 C315 C 0.82669 0.54848 0.28500
 C316 C 0.82668 0.57065 0.30453
 C317 C 0.85134 0.58056 0.31719
 C318 C 0.87685 0.56774 0.31052
 C319 C 0.90141 0.57937 0.32337
 C320 C 0.90042 0.60225 0.34227
 C321 C 0.87506 0.61433 0.34913
 C322 C 0.85059 0.60340 0.33647
 H323 H 0.80834 0.51297 0.24364
 H324 H 0.89706 0.46492 0.22896
 H325 H 0.81068 0.47443 0.21073
 H326 H 0.92013 0.49572 0.26244
 H327 H 0.92067 0.53420 0.29520
 H328 H 0.80667 0.54214 0.27643
 H329 H 0.80711 0.58029 0.30965
 H330 H 0.92184 0.57163 0.31904
 H331 H 0.91958 0.61048 0.35180
 H332 H 0.83098 0.61303 0.34145
 C333 C 0.23793 0.08072 -0.00363
 C334 C 0.23077 0.10548 0.01175
 C335 C 0.24583 0.13166 0.00583
 C336 C 0.26761 0.13257 -0.01399
 C337 C 0.27452 0.10781 -0.02882
 C338 C 0.25936 0.08199 -0.02355
 C339 C 0.23903 0.15690 0.01959
 C340 C 0.21727 0.15698 0.03888
 C341 C 0.20159 0.13154 0.04562
 C342 C 0.20904 0.10522 0.03246
 C343 C 0.19481 0.07951 0.04074
 C344 C 0.17367 0.07946 0.06071
 C345 C 0.16546 0.10497 0.07294
 C346 C 0.17898 0.13146 0.06539
 C347 C 0.16902 0.15678 0.07779
 C348 C 0.14709 0.15561 0.09717
 C349 C 0.13440 0.12933 0.10494
 C350 C 0.14364 0.10409 0.09270
 H351 H 0.22715 0.06009 -0.00115
 H352 H 0.27883 0.15280 -0.01822
 H353 H 0.26422 0.06250 -0.03469
 H354 H 0.25056 0.17695 0.01524
 H355 H 0.21365 0.17741 0.04860
 H356 H 0.19988 0.05879 0.03257
 H357 H 0.16349 0.05915 0.06650
 H358 H 0.17737 0.17788 0.07274
 H359 H 0.14009 0.17536 0.10636
 H360 H 0.13349 0.08374 0.09840
 C361 C 0.75311 0.58868 0.50408
 C362 C 0.76028 0.61293 0.48810
 C363 C 0.74607 0.63816 0.49422
 C364 C 0.72521 0.63860 0.51495
 C365 C 0.71823 0.61432 0.53035
 C366 C 0.73251 0.58947 0.52479
 C367 C 0.75272 0.66291 0.47970
 C368 C 0.77343 0.66345 0.45931
 C369 C 0.78825 0.63898 0.45230
 C370 C 0.78112 0.61310 0.46651
 C371 C 0.79482 0.58820 0.45844
 C372 C 0.81508 0.58857 0.43762
 C373 C 0.82283 0.61374 0.42414
 C374 C 0.80976 0.63941 0.43136
 C375 C 0.81906 0.66449 0.41742
 C376 C 0.84003 0.66383 0.39709
 C377 C 0.85245 0.63831 0.38983
 C378 C 0.84375 0.61333 0.40348
 H379 H 0.76316 0.56879 0.50139
 H380 H 0.71470 0.65815 0.51931
 H381 H 0.72759 0.57032 0.53627
 H382 H 0.74185 0.68223 0.48423
 H383 H 0.77699 0.68346 0.44911
 H384 H 0.79011 0.56777 0.46755
 H385 H 0.82493 0.56887 0.43209
 H386 H 0.81087 0.68508 0.42187
 H387 H 0.84651 0.68339 0.38680
 H388 H 0.85364 0.59360 0.39822
 C389 C 0.75618 0.33151 -0.00528
 C390 C 0.74151 0.35528 -0.01313
 C391 C 0.74680 0.38157 0.00153
 C392 C 0.76535 0.38351 0.02350
 C393 C 0.77944 0.35968 0.03113
 C394 C 0.77479 0.33379 0.01641
 C395 C 0.73363 0.40591 -0.00577
 C396 C 0.71543 0.40496 -0.02755
 C397 C 0.70928 0.37935 -0.04281
 C398 C 0.72202 0.35393 -0.03507
 C399 C 0.71455 0.32796 -0.04925
 C400 C 0.69566 0.32682 -0.07045
 C401 C 0.68368 0.35147 -0.07872
 C402 C 0.69049 0.37820 -0.06531
 C403 C 0.67828 0.40266 -0.07520
 C404 C 0.65976 0.40040 -0.09695
 C405 C 0.65271 0.37384 -0.10959
 C406 C 0.66484 0.34947 -0.10044
 H407 H 0.75408 0.31088 -0.01560
 H408 H 0.76911 0.40383 0.03438
 H409 H 0.78533 0.31498 0.02181
 H410 H 0.73753 0.42604 0.00542
 H411 H 0.70610 0.42473 -0.03155
 H412 H 0.72258 0.30783 -0.04416
 H413 H 0.69045 0.30634 -0.08058
 H414 H 0.68274 0.42393 -0.06684
 H415 H 0.65063 0.41950 -0.10380
 H416 H 0.65973 0.32893 -0.11049
 C417 C 0.27070 0.92583 0.49084
 C418 C 0.27694 0.90108 0.50503
 C419 C 0.26078 0.87538 0.49904
 C420 C 0.23889 0.87494 0.48033
 C421 C 0.23286 0.89970 0.46671
 C422 C 0.24909 0.92503 0.47201
 C423 C 0.26654 0.85013 0.51165
 C424 C 0.28824 0.84958 0.52995
 C425 C 0.30495 0.87453 0.53678
 C426 C 0.29872 0.90088 0.52468
 C427 C 0.31418 0.92618 0.53295
 C428 C 0.33522 0.92580 0.55201
 C429 C 0.34211 0.90023 0.56333
 C430 C 0.32739 0.87412 0.55566
 C431 C 0.33597 0.84867 0.56715
 C432 C 0.35766 0.84939 0.58583
 C433 C 0.37153 0.87533 0.59377
 C434 C 0.36372 0.90067 0.58235
 H435 H 0.28229 0.94611 0.49347
 H436 H 0.22686 0.85504 0.47602
 H437 H 0.24494 0.94450 0.46179
 H438 H 0.25418 0.83044 0.50721
 H439 H 0.29099 0.82918 0.53882
 H440 H 0.31018 0.94692 0.52546
 H441 H 0.34635 0.94582 0.55788
 H442 H 0.32664 0.82778 0.56196
 H443 H 0.36347 0.82956 0.59442
 H444 H 0.37473 0.92075 0.58821
   
