data_POSCAR
  _audit_creation_date              2014-09-24
  _audit_creation_method            'ToBaCCo'
  _symmetry_space_group_name_H-M    'P1'
  _symmetry_Int_Tables_number       1
  _symmetry_cell_setting            triclinic
  loop_
  _symmetry_equiv_pos_as_xyz
 x,y,z
_cell_length_a 29.2044
_cell_length_b 29.1144
_cell_length_c 72.9580
_cell_angle_alpha 87.626800
_cell_angle_beta 90.960000
_cell_angle_gamma 120.084100
loop_
  _atom_site_label
  _atom_site_type_symbol
  _atom_site_fract_x
  _atom_site_fract_y
  _atom_site_fract_z
C1 C 0.01513 0.09131 0.52351
 H2 H 0.05300 0.09315 0.52285
 C3 C 0.00893 0.12582 0.53451
 H4 H 0.04207 0.15428 0.54243
 C5 C -0.07428 0.05208 0.51388
 H6 H -0.10636 0.02357 0.50568
 C7 C -0.08221 0.08600 0.52477
 H8 H -0.12053 0.08335 0.52505
 N9 N -0.02626 0.05505 0.51362
 C10 C 0.00967 -0.07148 0.50663
 H11 H 0.01188 -0.07162 0.49185
 C12 C 0.01312 -0.11034 0.51750
 H13 H 0.01842 -0.14030 0.51112
 C14 C -0.00299 -0.03424 0.53306
 H15 H -0.01098 -0.00572 0.53908
 C16 C 0.00031 -0.07224 0.54440
 H17 H -0.00451 -0.07236 0.55910
 Zn18 Zn -0.01161 0.01151 0.49917
 N19 N 0.00147 -0.03463 0.51453
 C20 C 0.09315 0.05510 0.48444
 N21 N 0.04792 0.05778 0.48454
 C22 C 0.04364 0.09572 0.47440
 C23 C 0.08542 0.13229 0.46327
 C24 C 0.13607 0.09110 0.47344
 C25 C -0.11497 -0.07048 0.49213
 C26 C -0.15630 -0.10748 0.48147
 C27 C -0.10342 -0.06393 0.45431
 C28 C -0.06314 -0.02796 0.46547
 N29 N -0.06943 -0.03193 0.48402
 H30 H 0.09603 0.02525 0.49285
 H31 H 0.00745 0.09728 0.47494
 H32 H 0.08141 0.16205 0.45512
 H33 H 0.17189 0.08869 0.47328
 H34 H -0.11846 -0.07343 0.50693
 H35 H -0.19189 -0.13874 0.48812
 H36 H -0.09737 -0.06093 0.43959
 H37 H -0.02626 0.00191 0.45928
 C38 C 0.00783 -0.11095 0.53655
 C39 C -0.04015 0.12307 0.53520
 C40 C -0.15019 -0.10446 0.46238
 C41 C 0.13197 0.12991 0.46274
 C42 C 1.11225 0.05120 0.14140
 H43 H 1.11403 0.08919 0.14166
 C44 C 1.14766 0.04544 0.13050
 H45 H 1.17678 0.07903 0.12228
 C46 C 1.07246 -0.03889 0.15197
 H47 H 1.04347 -0.07137 0.16053
 C48 C 1.10725 -0.04638 0.14122
 H49 H 1.10477 -0.08479 0.14139
 N50 N 1.07534 0.00929 0.15172
 C51 C 0.94891 0.04514 0.15898
 H52 H 0.94789 0.04650 0.17376
 C53 C 0.91059 0.04882 0.14830
 H54 H 0.88016 0.05341 0.15483
 C55 C 0.98768 0.03410 0.13243
 H56 H 1.01656 0.02655 0.12631
 C57 C 0.95023 0.03766 0.12127
 H58 H 0.95083 0.03342 0.10660
 Zn59 Zn 1.03101 0.02329 0.16620
 N60 N 0.98619 0.03752 0.15094
 C61 C 1.07350 0.12736 0.18034
 N62 N 1.07614 0.08197 0.18038
 C63 C 1.11319 0.07687 0.19037
 C64 C 1.14889 0.11795 0.20119
 C65 C 1.10860 0.16958 0.19104
 C66 C 0.94883 -0.08094 0.17404
 C67 C 0.91124 -0.12318 0.18503
 C68 C 0.95226 -0.07183 0.21176
 C69 C 0.98895 -0.03059 0.20030
 N70 N 0.98651 -0.03570 0.18179
 H71 H 1.04434 0.13091 0.17205
 H72 H 1.11474 0.04057 0.18995
 H73 H 1.17798 0.11329 0.20921
 H74 H 1.10620 0.20551 0.19109
 H75 H 0.94706 -0.08350 0.15927
 H76 H 0.88061 -0.15859 0.17876
 H77 H 0.95377 -0.06694 0.22644
 H78 H 1.01813 0.00607 0.20620
 C79 C 0.91097 0.04439 0.12929
 C80 C 1.14510 -0.00376 0.13038
 C81 C 0.91274 -0.11826 0.20406
 C82 C 1.14650 0.16463 0.20158
 C83 C 0.04578 0.94472 0.85845
 H84 H 0.00883 0.90744 0.85811
 C85 C 0.08719 0.94879 0.86934
 H86 H 0.08213 0.91460 0.87752
 C87 C 0.09762 1.03476 0.84807
 H88 H 0.10154 1.06789 0.83960
 C89 C 0.14023 1.04055 0.85883
 H90 H 0.17687 1.07829 0.85876
 N91 N 0.05142 0.98743 0.84824
 C92 C -0.11041 0.95529 0.84129
 H93 H -0.11429 0.95401 0.82652
 C94 C -0.15108 0.95215 0.85209
 H95 H -0.18658 0.94798 0.84562
 C96 C -0.05819 0.96541 0.86771
 H97 H -0.02135 0.97236 0.87374
 C98 C -0.09779 0.96238 0.87899
 H99 H -0.09136 0.96634 0.89366
 Zn100 Zn -0.00775 0.97525 0.83384
 N101 N -0.06498 0.96211 0.84921
 C102 C -0.07226 0.87156 0.81953
 N103 N -0.02386 0.91646 0.81949
 C104 C 0.01703 0.92097 0.80940
 C105 C 0.00995 0.87976 0.79849
 C106 C -0.08107 0.82920 0.80875
 C107 C 0.01623 1.08046 0.82625
 C108 C 0.02024 1.12303 0.81537
 C109 C 0.00516 1.07125 0.78856
 C110 C 0.00133 1.02970 0.79991
 N111 N 0.00658 1.03484 0.81840
 H112 H -0.10392 0.86847 0.82791
 H113 H 0.05522 0.95689 0.80982
 H114 H 0.04272 0.88392 0.79042
 H115 H -0.11967 0.79362 0.80872
 H116 H 0.01904 1.08304 0.84101
 H117 H 0.02658 1.15872 0.82172
 H118 H -0.00041 1.06629 0.77390
 H119 H -0.00782 0.99275 0.79394
 C120 C -0.14439 0.95633 0.87111
 C121 C 0.13477 0.99709 0.86957
 C122 C 0.01403 1.11803 0.79637
 C123 C -0.03951 0.83354 0.79812
 C124 C 0.35899 -0.02551 0.00953
 C125 C 0.35854 -0.02520 -0.00928
 C126 C 0.40857 -0.01360 -0.01479
 N127 N 0.43964 -0.00615 0.00001
 C128 C 0.40938 -0.01377 0.01491
 C129 C 0.42545 -0.00716 -0.03322
 C130 C 0.47423 -0.00157 -0.03873
 C131 C 0.49430 0.01153 -0.05648
 C132 C 0.54047 0.00966 -0.05642
 C133 C 0.54754 -0.00420 -0.03862
 N134 N 0.50674 -0.01150 -0.02800
 C135 C 0.58954 -0.01219 -0.03285
 C136 C 0.60281 -0.01495 -0.01429
 C137 C 0.64238 -0.02503 -0.00830
 C138 C 0.64528 -0.02035 0.01037
 C139 C 0.60714 -0.00792 0.01521
 N140 N 0.58162 -0.00420 0.00010
 C141 C 0.59865 0.00269 0.03315
 C142 C 0.55547 0.00851 0.03834
 C143 C 0.55007 0.02538 0.05527
 C144 C 0.50144 0.02218 0.05536
 C145 C 0.47859 0.00380 0.03844
 N146 N 0.51154 -0.00493 0.02825
 C147 C 0.42754 -0.00676 0.03320
 H148 H 0.32622 -0.03264 0.01822
 H149 H 0.32526 -0.03231 -0.01789
 H150 H 0.50195 -0.02461 0.01602
 H151 H 0.47715 0.02083 -0.06832
 H152 H 0.56585 0.01747 -0.06817
 H153 H 0.66702 -0.03421 -0.01654
 H154 H 0.67249 -0.02533 0.01935
 H155 H 0.48478 0.03208 0.06663
 H156 H 0.49860 -0.02809 -0.01477
 H157 H 0.57795 0.03802 0.06650
 C158 C -0.00257 0.35389 0.67476
 C159 C -0.00611 0.35482 0.65599
 C160 C -0.01924 0.39334 0.65114
 N161 N -0.02456 0.41534 0.66633
 C162 C -0.01413 0.39153 0.68079
 C163 C -0.02906 0.40528 0.63306
 C164 C -0.03466 0.44958 0.62796
 C165 C -0.05015 0.45864 0.61073
 C166 C -0.04729 0.50726 0.61094
 C167 C -0.03058 0.52637 0.62834
 N168 N -0.02240 0.49130 0.63852
 C169 C -0.02108 0.57611 0.63409
 C170 C -0.01638 0.58983 0.65264
 C171 C -0.00555 0.63890 0.65860
 C172 C -0.00861 0.63460 0.67739
 C173 C -0.02074 0.58318 0.68232
 N174 N -0.02592 0.55583 0.66716
 C175 C -0.02980 0.56160 0.70046
 C176 C -0.03438 0.51210 0.70559
 C177 C -0.04916 0.48760 0.72291
 C178 C -0.04540 0.44235 0.72268
 C179 C -0.02887 0.44021 0.70519
 N180 N -0.02167 0.48313 0.69495
 C181 C -0.01866 0.40053 0.69937
 H182 H 0.00678 0.32797 0.68302
 H183 H 0.00022 0.32995 0.64695
 H184 H -0.00352 0.49485 0.68217
 H185 H -0.06167 0.43320 0.59912
 H186 H -0.05646 0.52636 0.59958
 H187 H 0.00300 0.67397 0.65028
 H188 H -0.00263 0.66576 0.68639
 H189 H -0.05387 0.41425 0.73410
 H190 H -0.00392 0.49828 0.65119
 H191 H -0.06080 0.50121 0.73459
 C192 C 0.66961 0.64621 0.32616
 C193 C 0.66542 0.64582 0.34488
 C194 C 0.61403 0.60709 0.34944
 N195 N 0.58662 0.58439 0.33414
 C196 C 0.62051 0.60803 0.31988
 C197 C 0.59246 0.59584 0.36733
 C198 C 0.54293 0.55139 0.37226
 C199 C 0.51841 0.54300 0.38918
 C200 C 0.47285 0.49423 0.38888
 C201 C 0.47055 0.47435 0.37173
 N202 N 0.51372 0.50908 0.36180
 C203 C 0.43031 0.42440 0.36595
 C204 C 0.42142 0.40990 0.34744
 C205 C 0.38324 0.36056 0.34150
 C206 C 0.38426 0.36419 0.32269
 C207 C 0.42333 0.41549 0.31775
 N208 N 0.44565 0.44340 0.33290
 C209 C 0.43530 0.43656 0.29957
 C210 C 0.47986 0.48603 0.29450
 C211 C 0.48893 0.51012 0.27709
 C212 C 0.53768 0.55564 0.27749
 C213 C 0.55686 0.55834 0.29517
 N214 N 0.52170 0.51548 0.30536
 C215 C 0.60664 0.59854 0.30123
 H216 H 0.70460 0.67216 0.31810
 H217 H 0.69660 0.67124 0.35406
 H218 H 0.52857 0.50419 0.31832
 H219 H 0.53216 0.56903 0.40065
 H220 H 0.44461 0.47559 0.40001
 H221 H 0.35685 0.32579 0.34983
 H222 H 0.35899 0.33271 0.31369
 H223 H 0.55678 0.58357 0.26607
 H224 H 0.52522 0.50169 0.34940
 H225 H 0.46338 0.49609 0.26525
 C226 C -0.04605 0.29915 0.59451
 C227 C -0.06491 0.24565 0.60039
 C228 C -0.06769 0.20850 0.58774
 C229 C -0.05165 0.22504 0.56929
 C230 C -0.03442 0.27812 0.56328
 C231 C -0.03159 0.31531 0.57593
 C232 C -0.01379 0.36826 0.56966
 C233 C 0.00072 0.38402 0.55138
 C234 C -0.00207 0.34768 0.53900
 C235 C -0.01937 0.29529 0.54481
 C236 C -0.08618 0.15537 0.59398
 C237 C -0.10155 0.13938 0.61219
 C238 C -0.09888 0.17569 0.62455
 C239 C -0.08082 0.22826 0.61880
 C240 C -0.04997 0.18831 0.55682
 C241 C -0.04668 0.15822 0.54677
 C242 C -0.04014 0.33768 0.60772
 C243 C -0.03500 0.36894 0.61903
 H244 H -0.01099 0.39794 0.57877
 H245 H 0.01419 0.42467 0.54680
 H246 H 0.00924 0.36012 0.52481
 H247 H -0.02098 0.26842 0.53467
 H248 H -0.08913 0.12562 0.58486
 H249 H -0.11563 0.09858 0.61672
 H250 H -0.11090 0.16307 0.63868
 H251 H -0.07965 0.25495 0.62892
 C252 C 0.71741 0.70049 0.26350
 C253 C 0.75275 0.75332 0.26848
 C254 C 0.79296 0.78902 0.25602
 C255 C 0.79738 0.77182 0.23860
 C256 C 0.76181 0.71911 0.23357
 C257 C 0.72169 0.68332 0.24606
 C258 C 0.68657 0.63084 0.24073
 C259 C 0.69096 0.61417 0.22355
 C260 C 0.73020 0.64915 0.21134
 C261 C 0.76534 0.70108 0.21622
 C262 C 0.82802 0.84156 0.26137
 C263 C 0.82339 0.85835 0.27850
 C264 C 0.78391 0.82350 0.29064
 C265 C 0.74887 0.77157 0.28576
 C266 C 0.83810 0.80881 0.22586
 C267 C 0.87212 0.84110 0.21567
 C268 C 0.67737 0.66375 0.27648
 C269 C 0.64483 0.63383 0.28756
 H270 H 0.65536 0.60222 0.24975
 H271 H 0.66375 0.57388 0.21969
 H272 H 0.73344 0.63599 0.19801
 H273 H 0.79522 0.72686 0.20627
 H274 H 0.85937 0.87021 0.25241
 H275 H 0.85054 0.89865 0.28236
 H276 H 0.78038 0.83675 0.30392
 H277 H 0.71867 0.74608 0.29565
 C278 C 0.32329 -0.00322 -0.07172
 C279 C 0.34076 0.03696 -0.08581
 C280 C 0.30357 0.03875 -0.09823
 C281 C 0.24919 0.00033 -0.09648
 C282 C 0.23182 -0.04020 -0.08250
 C283 C 0.26898 -0.04201 -0.07011
 C284 C 0.25066 -0.08291 -0.05625
 C285 C 0.19714 -0.12086 -0.05466
 C286 C 0.16078 -0.11907 -0.06677
 C287 C 0.17768 -0.07933 -0.08055
 C288 C 0.32190 0.07933 -0.11217
 C289 C 0.37549 0.11708 -0.11382
 C290 C 0.41185 0.11532 -0.10168
 C291 C 0.39491 0.07581 -0.08781
 C292 C 0.21081 0.00202 -0.10899
 C293 C 0.17718 0.00123 -0.11900
 C294 C 0.36074 -0.00411 -0.05858
 C295 C 0.39071 -0.00533 -0.04727
 H296 H 0.27740 -0.08614 -0.04654
 H297 H 0.18384 -0.15185 -0.04399
 H298 H 0.11924 -0.14865 -0.06548
 H299 H 0.14782 -0.07971 -0.08963
 H300 H 0.29508 0.08228 -0.12193
 H301 H 0.38887 0.14786 -0.12457
 H302 H 0.45343 0.14473 -0.10303
 H303 H 0.42465 0.07602 -0.07871
 C304 C -0.01154 0.68828 0.59596
 C305 C 0.01087 0.69379 0.57838
 C306 C 0.01605 0.73484 0.56583
 C307 C -0.00120 0.77011 0.57095
 C308 C -0.02396 0.76434 0.58849
 C309 C -0.02929 0.72322 0.60101
 C310 C -0.05244 0.71807 0.61842
 C311 C -0.06956 0.75274 0.62337
 C312 C -0.06417 0.79308 0.61116
 C313 C -0.04171 0.79899 0.59390
 C314 C 0.03861 0.73962 0.54835
 C315 C 0.05555 0.70480 0.54339
 C316 C 0.05046 0.66465 0.55566
 C317 C 0.02841 0.65902 0.57297
 C318 C 0.00376 0.81204 0.55820
 C319 C 0.00656 0.84711 0.54805
 C320 C -0.01533 0.64756 0.60904
 C321 C -0.01817 0.61461 0.62025
 H322 H -0.05776 0.68717 0.62836
 H323 H -0.08714 0.74823 0.63675
 H324 H -0.07753 0.81992 0.61507
 H325 H -0.03845 0.83097 0.58490
 H326 H 0.04337 0.77023 0.53835
 H327 H 0.07271 0.70900 0.52996
 H328 H 0.06366 0.63770 0.55173
 H329 H 0.02519 0.62713 0.58203
 C330 C 0.32731 0.34739 0.26068
 C331 C 0.27398 0.31422 0.26627
 C332 C 0.23595 0.27983 0.25358
 C333 C 0.25147 0.27884 0.23539
 C334 C 0.30443 0.31330 0.22964
 C335 C 0.34248 0.34767 0.24233
 C336 C 0.39527 0.38142 0.23633
 C337 C 0.41005 0.38130 0.21828
 C338 C 0.37285 0.34770 0.20586
 C339 C 0.32059 0.31397 0.21141
 C340 C 0.18297 0.24667 0.25953
 C341 C 0.16799 0.24749 0.27749
 C342 C 0.20516 0.28114 0.28989
 C343 C 0.25759 0.31421 0.28442
 C344 C 0.21375 0.24022 0.22297
 C345 C 0.18277 0.20662 0.21300
 C346 C 0.36663 0.37998 0.27397
 C347 C 0.39844 0.40610 0.28538
 H348 H 0.42559 0.40827 0.24549
 H349 H 0.45059 0.40741 0.21390
 H350 H 0.38453 0.34777 0.19185
 H351 H 0.29304 0.28865 0.20125
 H352 H 0.15258 0.21994 0.25037
 H353 H 0.12729 0.22191 0.28180
 H354 H 0.19332 0.28166 0.30383
 H355 H 0.28499 0.33981 0.29456
 C356 C 0.68546 -0.02269 -0.07093
 C357 C 0.66553 -0.04710 -0.08786
 C358 C 0.69948 -0.05252 -0.10025
 C359 C 0.75313 -0.03350 -0.09561
 C360 C 0.77317 -0.00864 -0.07873
 C361 C 0.73929 -0.00307 -0.06639
 C362 C 0.76033 0.02219 -0.04965
 C363 C 0.81323 0.04113 -0.04519
 C364 C 0.84632 0.03550 -0.05722
 C365 C 0.82676 0.01098 -0.07382
 C366 C 0.67868 -0.07709 -0.11708
 C367 C 0.62581 -0.09577 -0.12157
 C368 C 0.59263 -0.09046 -0.10947
 C369 C 0.61204 -0.06644 -0.09278
 C370 C 0.78811 -0.03890 -0.10815
 C371 C 0.81888 -0.04200 -0.11813
 C372 C 0.65057 -0.01875 -0.05794
 C373 C 0.62241 -0.01565 -0.04675
 H374 H 0.73627 0.02778 -0.03987
 H375 H 0.82863 0.06033 -0.03233
 H376 H 0.88740 0.05028 -0.05370
 H377 H 0.85413 0.00763 -0.08272
 H378 H 0.70299 -0.08209 -0.12693
 H379 H 0.61053 -0.11446 -0.13451
 H380 H 0.55161 -0.10501 -0.11303
 H381 H 0.58475 -0.06311 -0.08383
 C382 C 0.32472 -0.01319 0.07226
 C383 C 0.34239 0.02402 0.08631
 C384 C 0.30540 0.02321 0.09892
 C385 C 0.25092 -0.01470 0.09737
 C386 C 0.23342 -0.05275 0.08361
 C387 C 0.27044 -0.05204 0.07103
 C388 C 0.25196 -0.09035 0.05733
 C389 C 0.19845 -0.12820 0.05608
 C390 C 0.16226 -0.12881 0.06837
 C391 C 0.17932 -0.09162 0.08200
 C392 C 0.32399 0.06096 0.11280
 C393 C 0.37758 0.09842 0.11418
 C394 C 0.41373 0.09927 0.10183
 C395 C 0.39655 0.06263 0.08801
 C396 C 0.21276 -0.01291 0.10939
 C397 C 0.18151 -0.00981 0.11911
 C398 C 0.36199 -0.01067 0.05878
 C399 C 0.39224 -0.00866 0.04730
 H400 H 0.27861 -0.09158 0.04750
 H401 H 0.18501 -0.15721 0.04553
 H402 H 0.12073 -0.15830 0.06734
 H403 H 0.14971 -0.09376 0.09127
 H404 H 0.29740 0.06185 0.12275
 H405 H 0.39112 0.12696 0.12490
 H406 H 0.45532 0.12848 0.10294
 H407 H 0.42613 0.06489 0.07871
 C408 C 0.67957 0.70709 0.40520
 C409 C 0.67832 0.69371 0.42413
 C410 C 0.71128 0.73339 0.43654
 C411 C 0.74530 0.78616 0.42992
 C412 C 0.74560 0.79979 0.41104
 C413 C 0.71260 0.76016 0.39865
 C414 C 0.71376 0.77473 0.37983
 C415 C 0.74666 0.82689 0.37343
 C416 C 0.77900 0.86562 0.38554
 C417 C 0.77863 0.85246 0.40414
 C418 C 0.70959 0.71904 0.45538
 C419 C 0.67624 0.66696 0.46180
 C420 C 0.64404 0.62818 0.44968
 C421 C 0.64492 0.64116 0.43103
 C422 C 0.78178 0.82595 0.44229
 C423 C 0.81366 0.85929 0.45214
 C424 C 0.64780 0.66634 0.39234
 C425 C 0.62228 0.63358 0.38123
 H426 H 0.68921 0.74610 0.36987
 H427 H 0.74704 0.83731 0.35900
 H428 H 0.80448 0.90610 0.38051
 H429 H 0.80441 0.88404 0.41303
 H430 H 0.73385 0.74786 0.46534
 H431 H 0.67539 0.65666 0.47627
 H432 H 0.61822 0.58779 0.45474
 H433 H 0.61915 0.60966 0.42213
 C434 C -0.00678 0.29896 0.73730
 C435 C -0.02409 0.24630 0.73225
 C436 C -0.01813 0.21076 0.74467
 C437 C 0.00479 0.22797 0.76212
 C438 C 0.02169 0.28048 0.76722
 C439 C 0.01589 0.31610 0.75476
 C440 C 0.03307 0.36841 0.76016
 C441 C 0.05537 0.38506 0.77737
 C442 C 0.06107 0.35025 0.78954
 C443 C 0.04448 0.29849 0.78459
 C444 C -0.03545 0.15839 0.73926
 C445 C -0.05810 0.14162 0.72210
 C446 C -0.06412 0.17631 0.71000
 C447 C -0.04744 0.22806 0.71495
 C448 C 0.01005 0.19113 0.77480
 C449 C 0.01292 0.15884 0.78491
 C450 C -0.01134 0.33560 0.72432
 C451 C -0.01487 0.36541 0.71318
 H452 H 0.02937 0.39688 0.75117
 H453 H 0.06829 0.42521 0.78128
 H454 H 0.07843 0.36339 0.80289
 H455 H 0.04973 0.27283 0.79451
 H456 H -0.03168 0.12986 0.74819
 H457 H -0.07111 0.10144 0.71820
 H458 H -0.08186 0.16306 0.69670
 H459 H -0.05326 0.25343 0.70508
 C460 C 0.70998 0.01957 0.07150
 C461 C 0.73794 0.06673 0.08133
 C462 C 0.77861 0.07293 0.09372
 C463 C 0.79097 0.03189 0.09621
 C464 C 0.76238 -0.01566 0.08659
 C465 C 0.72181 -0.02180 0.07419
 C466 C 0.69401 -0.06953 0.06465
 C467 C 0.70587 -0.11009 0.06731
 C468 C 0.74549 -0.10414 0.07946
 C469 C 0.77356 -0.05756 0.08901
 C470 C 0.80623 0.12053 0.10331
 C471 C 0.79400 0.16087 0.10076
 C472 C 0.75421 0.15480 0.08867
 C473 C 0.72636 0.10835 0.07903
 C474 C 0.83366 0.03859 0.10834
 C475 C 0.86905 0.04241 0.11810
 C476 C 0.67000 0.01397 0.05827
 C477 C 0.63728 0.00893 0.04700
 H478 H 0.66280 -0.07609 0.05507
 H479 H 0.68418 -0.14635 0.05992
 H480 H 0.75455 -0.13577 0.08149
 H481 H 0.80399 -0.05487 0.09831
 H482 H 0.83746 0.12701 0.11288
 H483 H 0.81551 0.19704 0.10822
 H484 H 0.74485 0.18626 0.08674
 H485 H 0.69570 0.10541 0.06979
 C486 C 0.32410 0.31527 0.40332
 C487 C 0.27126 0.28248 0.39754
 C488 C 0.23334 0.24343 0.40990
 C489 C 0.24839 0.23754 0.42801
 C490 C 0.30125 0.27023 0.43379
 C491 C 0.33923 0.30924 0.42140
 C492 C 0.39179 0.34157 0.42748
 C493 C 0.40644 0.33551 0.44530
 C494 C 0.36932 0.29734 0.45741
 C495 C 0.31726 0.26496 0.45179
 C496 C 0.18077 0.21106 0.40378
 C497 C 0.16610 0.21716 0.38597
 C498 C 0.20315 0.25545 0.37390
 C499 C 0.25515 0.28788 0.37954
 C500 C 0.20894 0.19887 0.44076
 C501 C 0.17472 0.16710 0.45100
 C502 C 0.36275 0.35475 0.39057
 C503 C 0.39395 0.38685 0.37960
 H504 H 0.42203 0.37184 0.41857
 H505 H 0.44682 0.36057 0.44974
 H506 H 0.38092 0.29278 0.47123
 H507 H 0.28979 0.23580 0.46168
 H508 H 0.15047 0.18070 0.41265
 H509 H 0.12575 0.19205 0.38152
 H510 H 0.19156 0.26011 0.36009
 H511 H 0.28241 0.31723 0.36967
 C512 C -0.04733 0.65011 0.73914
 C513 C -0.06714 0.68390 0.73341
 C514 C -0.06985 0.71832 0.74605
 C515 C -0.05278 0.71872 0.76435
 C516 C -0.03474 0.68358 0.77024
 C517 C -0.03197 0.64919 0.75759
 C518 C -0.01331 0.61479 0.76374
 C519 C 0.00210 0.61431 0.78190
 C520 C -0.00062 0.64792 0.79427
 C521 C -0.01875 0.68228 0.78859
 C522 C -0.08929 0.75212 0.73996
 C523 C -0.10563 0.75190 0.72189
 C524 C -0.10301 0.71822 0.70952
 C525 C -0.08403 0.68452 0.71514
 C526 C -0.05065 0.75752 0.77674
 C527 C -0.04685 0.79131 0.78669
 C528 C -0.04127 0.61768 0.72589
 C529 C -0.03597 0.59175 0.71453
 H530 H -0.01053 0.58791 0.75462
 H531 H 0.01622 0.58771 0.78638
 H532 H 0.01138 0.64738 0.80836
 H533 H -0.02028 0.70759 0.79872
 H534 H -0.09224 0.77890 0.74908
 H535 H -0.12044 0.77797 0.71746
 H536 H -0.11577 0.71816 0.69550
 H537 H -0.08293 0.65893 0.70503
   
