data_POSCAR
  _audit_creation_date              2014-09-24
  _audit_creation_method            'ToBaCCo'
  _symmetry_space_group_name_H-M    'P1'
  _symmetry_Int_Tables_number       1
  _symmetry_cell_setting            triclinic
  loop_
  _symmetry_equiv_pos_as_xyz
 x,y,z
_cell_length_a 51.4789
_cell_length_b 51.4936
_cell_length_c 51.5066
_cell_angle_alpha 94.049000
_cell_angle_beta 94.401500
_cell_angle_gamma 94.871000
loop_
  _atom_site_label
  _atom_site_type_symbol
  _atom_site_fract_x
  _atom_site_fract_y
  _atom_site_fract_z
C1 C 0.27550 0.47750 1.00387
 C2 C 0.26409 0.50088 0.99993
 C3 C 0.27989 0.52328 0.99498
 C4 C 0.30696 0.52240 0.99427
 C5 C 0.31819 0.49893 0.99793
 C6 C 0.30246 0.47647 1.00258
 C7 C 0.23567 0.50190 1.00093
 C8 C 0.22391 0.49720 1.02406
 C9 C 0.19691 0.49849 1.02508
 C10 C 0.18156 0.50388 1.00278
 C11 C 0.19318 0.50828 0.97958
 C12 C 0.22024 0.50759 0.97875
 H13 H 0.26334 0.46011 1.00751
 H14 H 0.27112 0.54141 0.99214
 H15 H 0.23585 0.49298 1.04127
 H16 H 0.22922 0.51101 0.96079
 H17 H 0.33912 0.49812 0.99719
 H18 H 0.16061 0.50463 1.00341
 C19 C 0.72045 0.47810 0.00584
 C20 C 0.73625 0.50027 0.00028
 C21 C 0.72484 0.52349 -0.00440
 C22 C 0.69786 0.52460 -0.00323
 C23 C 0.68215 0.50234 0.00202
 C24 C 0.69340 0.47906 0.00642
 C25 C 0.76468 0.49918 -0.00058
 C26 C 0.77651 0.50334 -0.02379
 C27 C 0.80351 0.50201 -0.02466
 C28 C 0.81881 0.49709 -0.00214
 C29 C 0.80713 0.49323 0.02112
 C30 C 0.78007 0.49397 0.02182
 H31 H 0.72916 0.46007 0.00925
 H32 H 0.73699 0.54072 -0.00849
 H33 H 0.76461 0.50718 -0.04117
 H34 H 0.77104 0.49098 0.03985
 H35 H 0.66122 0.50314 0.00267
 H36 H 0.83976 0.49631 -0.00266
 C37 C 0.02308 0.22477 0.49633
 C38 C -0.00009 0.23627 0.50088
 C39 C -0.02236 0.22053 0.50626
 C40 C -0.02156 0.19346 0.50681
 C41 C 0.00167 0.18213 0.50254
 C42 C 0.02403 0.19777 0.49745
 C43 C -0.00104 0.26472 0.50003
 C44 C 0.00341 0.27670 0.47692
 C45 C 0.00218 0.30372 0.47604
 C46 C -0.00291 0.31886 0.49845
 C47 C -0.00707 0.30703 0.52162
 C48 C -0.00643 0.27996 0.52232
 H49 H 0.04040 0.23687 0.49237
 H50 H -0.04036 0.22930 0.50957
 H51 H 0.00738 0.26492 0.45961
 H52 H -0.00966 0.27081 0.54027
 H53 H 0.00235 0.16119 0.50317
 H54 H -0.00361 0.33983 0.49793
 C55 C 1.02222 0.77991 0.49310
 C56 C 1.00022 0.76410 0.49906
 C57 C 0.97706 0.77550 0.50394
 C58 C 0.97584 0.80243 0.50257
 C59 C 0.99792 0.81815 0.49690
 C60 C 1.02117 0.80695 0.49231
 C61 C 1.00143 0.73569 0.50015
 C62 C 0.99665 0.72378 0.52323
 C63 C 0.99808 0.69681 0.52432
 C64 C 1.00372 0.68163 0.50214
 C65 C 1.00821 0.69338 0.47901
 C66 C 1.00735 0.72041 0.47810
 H67 H 1.04020 0.77118 0.48956
 H68 H 0.95996 0.76335 0.50835
 H69 H 0.99226 0.73559 0.54036
 H70 H 1.01081 0.72948 0.46016
 H71 H 0.99697 0.83906 0.49611
 H72 H 1.00458 0.66070 0.50283
 C73 C 0.49638 0.02275 0.22381
 C74 C 0.50145 -0.00018 0.23577
 C75 C 0.50761 -0.02214 0.22048
 C76 C 0.50841 -0.02126 0.19345
 C77 C 0.50362 0.00174 0.18168
 C78 C 0.49775 0.02380 0.19684
 C79 C 0.50027 -0.00123 0.26419
 C80 C 0.47724 0.00383 0.27583
 C81 C 0.47605 0.00253 0.30278
 C82 C 0.49806 -0.00326 0.31827
 C83 C 0.52116 -0.00804 0.30682
 C84 C 0.52218 -0.00731 0.27979
 H85 H 0.49182 0.03984 0.23553
 H86 H 0.51128 -0.03999 0.22957
 H87 H 0.46018 0.00831 0.26386
 H88 H 0.54010 -0.01099 0.27095
 H89 H 0.50441 0.00247 0.16075
 H90 H 0.49721 -0.00400 0.33918
 C91 C 0.49222 0.02134 0.77943
 C92 C 0.49780 -0.00092 0.76424
 C93 C 0.50243 -0.02390 0.77631
 C94 C 0.50119 -0.02470 0.80333
 C95 C 0.49591 -0.00233 0.81841
 C96 C 0.49158 0.02072 0.80650
 C97 C 0.49878 -0.00015 0.73578
 C98 C 0.52187 -0.00488 0.72411
 C99 C 0.52287 -0.00382 0.69710
 C100 C 0.50062 0.00139 0.68164
 C101 C 0.47747 0.00583 0.69314
 C102 C 0.47663 0.00535 0.72021
 H103 H 0.48888 0.03920 0.77023
 H104 H 0.50654 -0.04117 0.76457
 H105 H 0.53911 -0.00892 0.73608
 H106 H 0.45868 0.00879 0.72910
 H107 H 0.49520 -0.00279 0.83938
 H108 H 0.50132 0.00197 0.66069
 C109 C 0.28843 0.04061 0.45220
 H110 H 0.28962 0.05604 0.46774
 C111 C 0.30648 0.04136 0.43333
 H112 H 0.32155 0.05749 0.43421
 C113 C 0.26830 -0.00009 0.43292
 H114 H 0.25392 -0.01657 0.43332
 C115 C 0.28601 -0.00011 0.41366
 H116 H 0.28507 -0.01650 0.39913
 N117 N 0.26995 0.02002 0.45179
 C118 C 0.21185 0.04758 0.50184
 H119 H 0.21221 0.03292 0.51587
 C120 C 0.19396 0.06641 0.50321
 H121 H 0.18056 0.06637 0.51844
 C122 C 0.22806 0.06483 0.46410
 H123 H 0.24091 0.06369 0.44851
 C124 C 0.21040 0.08402 0.46475
 H125 H 0.20986 0.09779 0.44981
 Zn126 Zn 0.24939 0.01876 0.48060
 N127 N 0.22840 0.04709 0.48248
 C128 C 0.27421 0.03891 0.53036
 N129 N 0.27303 0.01963 0.51068
 C130 C 0.29007 0.00083 0.51094
 C131 C 0.30913 0.00077 0.53169
 C132 C 0.29304 0.03957 0.55152
 C133 C 0.20728 -0.01501 0.45758
 C134 C 0.18802 -0.03601 0.45578
 C135 C 0.20815 -0.05064 0.49545
 C136 C 0.22704 -0.02937 0.49653
 N137 N 0.22623 -0.01205 0.47776
 H138 H 0.26091 0.05401 0.52948
 H139 H 0.28894 -0.01399 0.49483
 H140 H 0.32270 -0.01420 0.53164
 H141 H 0.29405 0.05505 0.56704
 H142 H 0.20681 -0.00066 0.44323
 H143 H 0.17271 -0.03795 0.43993
 H144 H 0.20859 -0.06405 0.51074
 H145 H 0.24179 -0.02631 0.51278
 C146 C 0.19308 0.08465 0.48439
 C147 C 0.30545 0.02066 0.41408
 C148 C 0.18836 -0.05385 0.47502
 C149 C 0.31068 0.02034 0.55212
 C150 C 0.71172 0.00018 0.54672
 H151 H 0.71232 0.01425 0.53209
 C152 C 0.69363 0.00148 0.56548
 H153 H 0.68034 0.01671 0.56545
 C154 C 0.72752 -0.03758 0.56394
 H155 H 0.74030 -0.05314 0.56282
 C156 C 0.70963 -0.03702 0.58304
 H157 H 0.70884 -0.05201 0.59676
 N158 N 0.72817 -0.01914 0.54625
 C159 C 0.79065 0.00975 0.50045
 H160 H 0.78967 -0.00633 0.48560
 C161 C 0.80980 0.03062 0.50054
 H162 H 0.82357 0.03072 0.48565
 C163 C 0.77438 0.02892 0.53847
 H164 H 0.76089 0.02790 0.55350
 C165 C 0.79329 0.05021 0.53929
 H166 H 0.79416 0.06567 0.55481
 Zn167 Zn 0.74953 -0.02087 0.51805
 N168 N 0.77335 0.00932 0.51913
 C169 C 0.72782 -0.00488 0.46991
 N170 N 0.72671 -0.02369 0.48719
 C171 C 0.70762 -0.04390 0.48419
 C172 C 0.68852 -0.04567 0.46322
 C173 C 0.70908 -0.00593 0.44866
 C174 C 0.78814 -0.04929 0.53995
 C175 C 0.80604 -0.06817 0.54071
 C176 C 0.78591 -0.08775 0.49919
 C177 C 0.76834 -0.06849 0.49919
 N178 N 0.76990 -0.04967 0.51932
 H179 H 0.74268 0.01138 0.47299
 H180 H 0.70691 -0.05828 0.49852
 H181 H 0.67309 -0.06152 0.46127
 H182 H 0.70974 0.00941 0.43530
 H183 H 0.78925 -0.03378 0.55541
 H184 H 0.82093 -0.06731 0.55688
 H185 H 0.78505 -0.10225 0.48277
 H186 H 0.75416 -0.06805 0.48268
 C187 C 0.81118 0.05099 0.52017
 C188 C 0.69243 -0.01740 0.58367
 C189 C 0.80511 -0.08738 0.52000
 C190 C 0.68913 -0.02637 0.44544
 C191 C 0.45839 0.21062 1.04536
 H192 H 0.44282 0.20943 1.02985
 C193 C 0.45777 0.19264 1.06440
 H194 H 0.44161 0.17762 1.06367
 C195 C 0.49926 0.23071 1.06442
 H196 H 0.51576 0.24504 1.06388
 C197 C 0.49941 0.21307 1.08384
 H198 H 0.51593 0.21402 1.09835
 N199 N 0.47900 0.22905 1.04559
 C200 C 0.45110 0.28721 0.99531
 H201 H 0.46562 0.28683 0.98121
 C202 C 0.43233 0.30518 0.99397
 H203 H 0.43227 0.31862 0.97870
 C204 C 0.43418 0.27100 1.03320
 H205 H 0.43543 0.25812 1.04883
 C206 C 0.41506 0.28875 1.03258
 H207 H 0.40147 0.28933 1.04762
 Zn208 Zn 0.48006 0.24960 1.01664
 N209 N 0.45173 0.27063 1.01473
 C210 C 0.45946 0.22477 0.96705
 N211 N 0.47893 0.22599 0.98666
 C212 C 0.49775 0.20897 0.98644
 C213 C 0.49763 0.18991 0.96580
 C214 C 0.45860 0.20592 0.94599
 C215 C 0.51400 0.29162 1.03948
 C216 C 0.53506 0.31081 1.04126
 C217 C 0.54948 0.29077 1.00166
 C218 C 0.52815 0.27194 1.00061
 N219 N 0.51091 0.27272 1.01936
 H220 H 0.44433 0.23804 0.96791
 H221 H 0.51272 0.21011 1.00251
 H222 H 0.51262 0.17635 0.96588
 H223 H 0.44296 0.20488 0.93053
 H224 H 0.49972 0.29207 1.05382
 H225 H 0.53711 0.32605 1.05708
 H226 H 0.56282 0.29034 0.98639
 H227 H 0.52500 0.25722 0.98440
 C228 C 0.41430 0.30612 1.01290
 C229 C 0.47862 0.19368 1.08362
 C230 C 0.55283 0.31049 1.02205
 C231 C 0.47785 0.18830 0.94544
 C232 C 0.49878 0.78833 -0.04489
 H233 H 0.48490 0.78769 -0.03015
 C234 C 0.49719 0.80643 -0.06373
 H235 H 0.48194 0.81970 -0.06364
 C236 C 0.53635 0.77262 -0.06233
 H237 H 0.55195 0.75986 -0.06127
 C238 C 0.53548 0.79049 -0.08153
 H239 H 0.55027 0.79130 -0.09539
 N240 N 0.51814 0.77192 -0.04449
 C241 C 0.48991 0.70944 0.00181
 H242 H 0.50614 0.71045 0.01660
 C243 C 0.46907 0.69028 0.00191
 H244 H 0.46916 0.67653 0.01689
 C245 C 0.47030 0.72567 -0.03625
 H246 H 0.47113 0.73916 -0.05136
 C247 C 0.44905 0.70675 -0.03688
 H248 H 0.43343 0.70585 -0.05234
 Zn249 Zn 0.52027 0.75054 -0.01621
 N250 N 0.49012 0.72671 -0.01699
 C251 C 0.50487 0.77209 0.03199
 N252 N 0.52346 0.77328 0.01457
 C253 C 0.54364 0.79239 0.01738
 C254 C 0.54560 0.81146 0.03828
 C255 C 0.50612 0.79078 0.05318
 C256 C 0.54846 0.71207 -0.03825
 C257 C 0.56738 0.69424 -0.03917
 C258 C 0.58749 0.71421 0.00222
 C259 C 0.56817 0.73171 0.00237
 N260 N 0.54908 0.73021 -0.01763
 H261 H 0.48861 0.75722 0.02907
 H262 H 0.55784 0.79316 0.00295
 H263 H 0.56141 0.82693 0.04006
 H264 H 0.49095 0.79006 0.06664
 H265 H 0.53274 0.71100 -0.05360
 H266 H 0.56635 0.67944 -0.05534
 H267 H 0.60223 0.71503 0.01851
 H268 H 0.56793 0.74582 0.01888
 C269 C 0.44850 0.68888 -0.01764
 C270 C 0.51581 0.80766 -0.08208
 C271 C 0.58689 0.69512 -0.01860
 C272 C 0.52652 0.81076 0.05619
 C273 C 1.04730 0.46192 0.21180
 H274 H 1.03165 0.44638 0.21084
 C275 C 1.06623 0.46124 0.19383
 H276 H 1.06527 0.44507 0.17905
 C277 C 1.06683 0.50276 0.23129
 H278 H 1.06650 0.51927 0.24539
 C279 C 1.08615 0.50286 0.21364
 H280 H 1.10081 0.51934 0.21435
 N281 N 1.04783 0.48253 0.22994
 C282 C 0.99763 0.45456 0.28838
 H283 H 0.98367 0.46912 0.28787
 C284 C 0.99616 0.43569 0.30649
 H285 H 0.98093 0.43558 0.31988
 C286 C 1.03529 0.43763 0.27235
 H287 H 1.05087 0.43890 0.25947
 C288 C 1.03455 0.41841 0.29023
 H289 H 1.04943 0.40476 0.29092
 Zn290 Zn 1.01900 0.48359 0.25048
 N291 N 1.01698 0.45523 0.27182
 C292 C 0.96916 0.46294 0.22585
 N293 N 0.98887 0.48247 0.22686
 C294 C 0.98862 0.50131 0.20963
 C295 C 0.96784 0.50116 0.19055
 C296 C 0.94797 0.46206 0.20700
 C297 C 1.04228 0.51742 0.29215
 C298 C 1.04421 0.53834 0.31120
 C299 C 1.00461 0.55279 0.29092
 C300 C 1.00340 0.53159 0.27224
 N301 N 1.02207 0.51439 0.27324
 H302 H 0.97005 0.44780 0.23928
 H303 H 1.00477 0.51632 0.21060
 H304 H 0.96790 0.51616 0.17682
 H305 H 0.93245 0.44636 0.20612
 H306 H 1.05654 0.50316 0.29278
 H307 H 1.06007 0.54031 0.32650
 H308 H 0.98939 0.56608 0.29035
 H309 H 0.98712 0.52849 0.25751
 C310 C 1.01491 0.41759 0.30756
 C311 C 1.08564 0.48204 0.19457
 C312 C 1.02506 0.55604 0.31069
 C313 C 0.94739 0.48132 0.18917
 C314 C -0.04644 0.49664 0.78782
 H315 H -0.03188 0.48269 0.78742
 C316 C -0.06526 0.49517 0.80588
 H317 H -0.06530 0.47997 0.81939
 C318 C -0.06345 0.53427 0.77152
 H319 H -0.06222 0.54985 0.75856
 C320 C -0.08263 0.53351 0.78933
 H321 H -0.09631 0.54837 0.78988
 N322 N -0.04582 0.51599 0.77115
 C323 C 0.00035 0.48783 0.70939
 H324 H 0.01535 0.50400 0.71040
 C325 C 0.00022 0.46713 0.69038
 H326 H 0.01523 0.46725 0.67674
 C327 C -0.03802 0.46828 0.72545
 H328 H -0.05316 0.46909 0.73881
 C329 C -0.03888 0.44716 0.70668
 H330 H -0.05457 0.43162 0.70576
 Zn331 Zn -0.01745 0.51808 0.74997
 N332 N -0.01851 0.48801 0.72649
 C333 C 0.03059 0.50251 0.77210
 N334 N 0.01335 0.52113 0.77290
 C335 C 0.01636 0.54132 0.79173
 C336 C 0.03730 0.54325 0.81089
 C337 C 0.05182 0.50373 0.79089
 C338 C -0.03912 0.54644 0.71103
 C339 C -0.03978 0.56540 0.69298
 C340 C 0.00187 0.58526 0.71297
 C341 C 0.00175 0.56591 0.73070
 N342 N -0.01851 0.54693 0.72930
 H343 H 0.02750 0.48626 0.75744
 H344 H 0.00207 0.55555 0.79220
 H345 H 0.03926 0.55908 0.82611
 H346 H 0.06515 0.48854 0.79046
 H347 H -0.05468 0.53081 0.71004
 H348 H -0.05596 0.56448 0.67810
 H349 H 0.01836 0.59991 0.71373
 H350 H 0.01826 0.56556 0.74490
 C351 C -0.01961 0.44666 0.68896
 C352 C -0.08338 0.51389 0.80679
 C353 C -0.01896 0.58480 0.69377
 C354 C 0.05505 0.52415 0.81058
 C355 C 0.04803 0.18601 0.49395
 C356 C 0.06791 0.17562 0.49147
 C357 C 0.09130 0.16252 0.48901
 C358 C 0.11051 0.16413 0.51001
 C359 C 0.13231 0.14982 0.50840
 C360 C 0.13501 0.13385 0.48577
 C361 C 0.11607 0.13263 0.46458
 C362 C 0.09425 0.14694 0.46619
 C363 C 0.15624 0.11742 0.48495
 C364 C 0.17341 0.10290 0.48455
 H365 H 0.10835 0.17601 0.52780
 H366 H 0.14675 0.15076 0.52498
 H367 H 0.11786 0.12020 0.44706
 H368 H 0.07945 0.14542 0.44990
 C369 C 0.68623 0.54867 -0.00690
 C370 C 0.67602 0.56864 -0.00954
 C371 C 0.66319 0.59219 -0.01222
 C372 C 0.66481 0.61130 0.00876
 C373 C 0.65083 0.63332 0.00686
 C374 C 0.63521 0.63634 -0.01603
 C375 C 0.63398 0.61749 -0.03718
 C376 C 0.64795 0.59546 -0.03528
 C377 C 0.61912 0.65783 -0.01720
 C378 C 0.60487 0.67521 -0.01795
 H379 H 0.67643 0.60891 0.02673
 H380 H 0.65177 0.64768 0.02341
 H381 H 0.62182 0.61954 -0.05491
 H382 H 0.64645 0.58075 -0.05157
 C383 C 0.95183 -0.18598 0.50651
 C384 C 0.93189 -0.17581 0.50940
 C385 C 0.90837 -0.16304 0.51239
 C386 C 0.90573 -0.14750 0.53532
 C387 C 0.88367 -0.13366 0.53751
 C388 C 0.86416 -0.13530 0.51679
 C389 C 0.86658 -0.15120 0.49404
 C390 C 0.88864 -0.16505 0.49186
 C391 C 0.84258 -0.11937 0.51821
 C392 C 0.82512 -0.10523 0.51915
 H393 H 0.92094 -0.14568 0.55126
 H394 H 0.88208 -0.12128 0.55512
 H395 H 0.85171 -0.15245 0.47782
 H396 H 0.89054 -0.17690 0.47399
 C397 C 0.31410 0.45228 1.00550
 C398 C 0.32435 0.43225 1.00753
 C399 C 0.33728 0.40867 1.00949
 C400 C 0.35192 0.40447 1.03264
 C401 C 0.36604 0.38248 1.03389
 C402 C 0.36557 0.36461 1.01200
 C403 C 0.35052 0.36855 0.98901
 C404 C 0.33640 0.39053 0.98776
 C405 C 0.38183 0.34323 1.01259
 C406 C 0.39621 0.32593 1.01284
 H407 H 0.35285 0.41843 1.04950
 H408 H 0.37776 0.37972 1.05171
 H409 H 0.35016 0.35496 0.97192
 H410 H 0.32526 0.39367 0.96972
 C411 C 0.95530 0.17712 0.51105
 C412 C 0.93607 0.16297 0.51410
 C413 C 0.91335 0.14551 0.51714
 C414 C 0.91451 0.12680 0.53556
 C415 C 0.89302 0.10865 0.53729
 C416 C 0.87027 0.10916 0.52062
 C417 C 0.86894 0.12816 0.50251
 C418 C 0.89044 0.14630 0.50077
 C419 C 0.84894 0.08928 0.52107
 C420 C 0.83147 0.07211 0.52093
 H421 H 0.93218 0.12593 0.54822
 H422 H 0.89433 0.09394 0.55126
 H423 H 0.85151 0.12863 0.48942
 H424 H 0.88937 0.16061 0.48637
 C425 C 0.32250 0.54440 -0.00929
 C426 C 0.33664 0.56375 -0.01199
 C427 C 0.35406 0.58662 -0.01461
 C428 C 0.37062 0.58700 -0.03496
 C429 C 0.38874 0.60856 -0.03651
 C430 C 0.39036 0.62982 -0.01773
 C431 C 0.37350 0.62961 0.00237
 C432 C 0.35538 0.60806 0.00392
 C433 C 0.41024 0.65114 -0.01824
 C434 C 0.42741 0.66859 -0.01822
 H435 H 0.36985 0.57048 -0.04933
 H436 H 0.40179 0.60845 -0.05205
 H437 H 0.37469 0.64587 0.01709
 H438 H 0.34275 0.60791 0.01981
 C439 C 0.04286 -0.17753 0.48775
 C440 C 0.06199 -0.16344 0.48419
 C441 C 0.08466 -0.14616 0.48056
 C442 C 0.10859 -0.14875 0.49461
 C443 C 0.13022 -0.13093 0.49234
 C444 C 0.12800 -0.11046 0.47600
 C445 C 0.10419 -0.10812 0.46164
 C446 C 0.08256 -0.12593 0.46391
 C447 C 0.14969 -0.09108 0.47504
 C448 C 0.16753 -0.07438 0.47475
 H449 H 0.11040 -0.16425 0.50763
 H450 H 0.14850 -0.13284 0.50364
 H451 H 0.10222 -0.09227 0.44907
 H452 H 0.06412 -0.12368 0.45305
 C453 C 0.67699 0.45600 1.01083
 C454 C 0.66287 0.43679 1.01403
 C455 C 0.64553 0.41403 1.01726
 C456 C 0.62641 0.41535 1.03514
 C457 C 0.60854 0.39371 1.03715
 C458 C 0.60971 0.37065 1.02130
 C459 C 0.62908 0.36919 1.00370
 C460 C 0.64696 0.39084 1.00169
 C461 C 0.59024 0.34902 1.02213
 C462 C 0.57345 0.33124 1.02235
 H463 H 0.62506 0.43323 1.04719
 H464 H 0.59355 0.39510 1.05073
 H465 H 0.63007 0.35151 0.99124
 H466 H 0.66159 0.38964 0.98772
 C467 C 0.49357 0.04758 1.18467
 C468 C 0.49046 0.06735 1.17405
 C469 C 0.48720 0.09069 1.16080
 C470 C 0.50736 0.11099 1.16303
 C471 C 0.50493 0.13293 1.14880
 C472 C 0.48232 0.13467 1.13229
 C473 C 0.46197 0.11458 1.13040
 C474 C 0.46440 0.09264 1.14463
 C475 C 0.48069 0.15619 1.11604
 C476 C 0.47960 0.17365 1.10169
 H477 H 0.52514 0.10962 1.17537
 H478 H 0.52087 0.14826 1.15026
 H479 H 0.44447 0.11564 1.11756
 H480 H 0.44874 0.07700 1.14266
 C481 C -0.00556 0.68534 0.54696
 C482 C -0.00841 0.67481 0.56686
 C483 C -0.01136 0.66165 0.59033
 C484 C -0.03428 0.64568 0.59299
 C485 C -0.03643 0.63152 0.61504
 C486 C -0.01568 0.63327 0.63453
 C487 C 0.00707 0.64959 0.63209
 C488 C 0.00922 0.66376 0.61004
 C489 C -0.01709 0.61710 0.65614
 C490 C -0.01805 0.60281 0.67367
 H491 H -0.05025 0.64380 0.57781
 H492 H -0.05404 0.61882 0.61664
 H493 H 0.02330 0.65095 0.64695
 H494 H 0.02708 0.67595 0.60813
 C495 C 0.50463 0.95276 -0.18503
 C496 C 0.50726 0.93297 -0.17429
 C497 C 0.50991 0.90966 -0.16083
 C498 C 0.53301 0.90682 -0.14546
 C499 C 0.53486 0.88502 -0.13091
 C500 C 0.51363 0.86598 -0.13166
 C501 C 0.49071 0.86859 -0.14740
 C502 C 0.48885 0.89038 -0.16196
 C503 C 0.51475 0.84471 -0.11505
 C504 C 0.51538 0.82747 -0.10042
 H505 H 0.54935 0.92168 -0.14433
 H506 H 0.55261 0.88329 -0.11868
 H507 H 0.47411 0.85408 -0.14799
 H508 H 0.47085 0.89244 -0.17367
 C509 C 1.00541 0.31528 0.45338
 C510 C 1.00786 0.32596 0.43350
 C511 C 1.01027 0.33932 0.41008
 C512 C 0.98926 0.33744 0.39086
 C513 C 0.99085 0.35188 0.36894
 C514 C 1.01347 0.36826 0.36615
 C515 C 1.03466 0.36976 0.38513
 C516 C 1.03307 0.35532 0.40705
 C517 C 1.01428 0.38476 0.34476
 C518 C 1.01469 0.39932 0.32744
 H519 H 0.97148 0.32524 0.39307
 H520 H 0.97428 0.35071 0.35448
 H521 H 1.05218 0.38250 0.38326
 H522 H 1.04937 0.35703 0.42186
 C523 C 0.51340 0.95584 0.17758
 C524 C 0.51706 0.93674 0.16390
 C525 C 0.52080 0.91409 0.14706
 C526 C 0.53797 0.91616 0.12733
 C527 C 0.54034 0.89457 0.10989
 C528 C 0.52555 0.87083 0.11211
 C529 C 0.50869 0.86863 0.13211
 C530 C 0.50633 0.89022 0.14955
 C531 C 0.52656 0.84922 0.09302
 C532 C 0.52685 0.83147 0.07652
 H533 H 0.54915 0.93456 0.12515
 H534 H 0.55331 0.89653 0.09441
 H535 H 0.49705 0.85040 0.13391
 H536 H 0.49290 0.88843 0.16466
 C537 C -0.01125 0.32289 0.54481
 C538 C -0.01421 0.33663 0.56409
 C539 C -0.01712 0.35363 0.58689
 C540 C -0.03601 0.37166 0.58614
 C541 C -0.03761 0.38943 0.60767
 C542 C -0.02033 0.38924 0.63002
 C543 C -0.00173 0.37090 0.63093
 C544 C -0.00014 0.35312 0.60941
 C545 C -0.02066 0.40880 0.65133
 C546 C -0.02045 0.42576 0.66875
 H547 H -0.04915 0.37232 0.56878
 H548 H -0.05196 0.40363 0.60669
 H549 H 0.01184 0.37068 0.64805
 H550 H 0.01463 0.33934 0.61015
 C551 C 0.48721 0.04389 0.82228
 C552 C 0.48409 0.06317 0.83595
 C553 C 0.48102 0.08599 0.85285
 C554 C 0.49811 0.10860 0.85239
 C555 C 0.49632 0.13017 0.87005
 C556 C 0.47743 0.12921 0.88823
 C557 C 0.46004 0.10677 0.88837
 C558 C 0.46183 0.08520 0.87072
 C559 C 0.47692 0.15057 0.90771
 C560 C 0.47704 0.16804 0.92460
 H561 H 0.51311 0.10937 0.83874
 H562 H 0.50997 0.14736 0.86987
 H563 H 0.44546 0.10575 0.90246
 H564 H 0.44860 0.06776 0.87133
 C565 C 1.01294 0.67750 0.45602
 C566 C 1.01639 0.66382 0.43685
 C567 C 1.01988 0.64697 0.41412
 C568 C 1.00483 0.64902 0.39062
 C569 C 1.00701 0.63157 0.36899
 C570 C 1.02425 0.61200 0.37076
 C571 C 1.03959 0.61022 0.39413
 C572 C 1.03741 0.62767 0.41577
 C573 C 1.02515 0.59291 0.34914
 C574 C 1.02540 0.57639 0.33139
 H575 H 0.99112 0.66380 0.38918
 H576 H 0.99493 0.63302 0.35107
 H577 H 1.05287 0.59507 0.39577
 H578 H 1.04904 0.62582 0.43388
 C579 C 1.18557 0.49497 0.04777
 C580 C 1.17515 0.49223 0.06771
 C581 C 1.16212 0.48941 0.09122
 C582 C 1.14671 0.46627 0.09439
 C583 C 1.13265 0.46419 0.11645
 C584 C 1.13396 0.48524 0.13544
 C585 C 1.14973 0.50822 0.13249
 C586 C 1.16379 0.51029 0.11043
 C587 C 1.11786 0.48386 0.15703
 C588 C 1.10361 0.48293 0.17452
 H589 H 1.14517 0.45005 0.07960
 H590 H 1.12038 0.44640 0.11845
 H591 H 1.15074 0.52468 0.14696
 H592 H 1.17555 0.52832 0.10812
 C593 C 0.54682 -0.00749 0.68519
 C594 C 0.56669 -0.01009 0.67471
 C595 C 0.59010 -0.01266 0.66153
 C596 C 0.60976 0.00811 0.66349
 C597 C 0.63164 0.00642 0.64915
 C598 C 0.63396 -0.01605 0.63281
 C599 C 0.61454 -0.03702 0.63124
 C600 C 0.59266 -0.03534 0.64558
 C601 C 0.65530 -0.01689 0.61638
 C602 C 0.67259 -0.01728 0.60188
 H603 H 0.60792 0.02579 0.67565
 H604 H 0.64645 0.02282 0.65038
 H605 H 0.61605 -0.05442 0.61853
 H606 H 0.57752 -0.05146 0.64382
 C607 C -0.18507 0.50500 0.95261
 C608 C -0.17453 0.50725 0.93267
 C609 C -0.16129 0.50947 0.90920
 C610 C -0.14612 0.53259 0.90544
 C611 C -0.13177 0.53407 0.88353
 C612 C -0.13253 0.51244 0.86528
 C613 C -0.14808 0.48949 0.86880
 C614 C -0.16244 0.48801 0.89071
 C615 C -0.11610 0.51324 0.84392
 C616 C -0.10159 0.51366 0.82663
 H617 H -0.14498 0.54925 0.91969
 H618 H -0.11967 0.55186 0.88109
 H619 H -0.14868 0.47259 0.85492
 H620 H -0.17400 0.46999 0.89350
 C621 C 0.45216 0.00665 0.31462
 C622 C 0.43229 0.00968 0.32498
 C623 C 0.40885 0.01283 0.33794
 C624 C 0.38847 -0.00727 0.33534
 C625 C 0.36645 -0.00499 0.34935
 C626 C 0.36470 0.01739 0.36601
 C627 C 0.38487 0.03769 0.36826
 C628 C 0.40689 0.03542 0.35425
 C629 C 0.34309 0.01885 0.38203
 C630 C 0.32556 0.01980 0.39620
 H631 H 0.38985 -0.02487 0.32289
 H632 H 0.35105 -0.02088 0.34761
 H633 H 0.38380 0.05501 0.38122
 H634 H 0.42259 0.05102 0.35651
 C635 C 0.17715 0.51280 0.95649
 C636 C 0.16335 0.51607 0.93723
 C637 C 0.14638 0.51939 0.91439
 C638 C 0.12732 0.53720 0.91567
 C639 C 0.10977 0.53926 0.89395
 C640 C 0.11122 0.52352 0.87087
 C641 C 0.13055 0.50600 0.86946
 C642 C 0.14810 0.50395 0.89118
 C643 C 0.09204 0.52435 0.84917
 C644 C 0.07546 0.52453 0.83135
 H645 H 0.12575 0.54915 0.93355
 H646 H 0.09481 0.55277 0.89530
 H647 H 0.13175 0.49364 0.85176
 H648 H 0.16269 0.49003 0.89002
 C649 C 0.54400 -0.01297 0.32299
 C650 C 0.56307 -0.01659 0.33690
 C651 C 0.58571 -0.02028 0.35397
 C652 C 0.58368 -0.03761 0.37364
 C653 C 0.60527 -0.03999 0.39124
 C654 C 0.62898 -0.02505 0.38924
 C655 C 0.63112 -0.00801 0.36932
 C656 C 0.60953 -0.00563 0.35171
 C657 C 0.65061 -0.02615 0.40844
 C658 C 0.66839 -0.02655 0.42502
 H659 H 0.56531 -0.04893 0.37564
 H660 H 0.60335 -0.05312 0.40666
 H661 H 0.64931 0.00375 0.36768
 H662 H 0.61128 0.00792 0.33665
 C663 C 0.82313 0.48922 0.04440
 C664 C 0.83698 0.48637 0.06376
 C665 C 0.85408 0.48358 0.08664
 C666 C 0.87201 0.46458 0.08620
 C667 C 0.88985 0.46303 0.10781
 C668 C 0.88982 0.48047 0.12996
 C669 C 0.87158 0.49917 0.13058
 C670 C 0.85374 0.50072 0.10897
 C671 C 0.90944 0.48017 0.15137
 C672 C 0.92644 0.48043 0.16887
 H673 H 0.87252 0.45132 0.06899
 H674 H 0.90396 0.44860 0.10706
 H675 H 0.87149 0.51286 0.14754
 H676 H 0.84005 0.51556 0.10947
 C677 C 0.45442 0.01020 0.67698
 C678 C 0.43524 0.01335 0.66302
 C679 C 0.41255 0.01649 0.64580
 C680 C 0.41359 0.03559 0.62774
 C681 C 0.39213 0.03748 0.60982
 C682 C 0.36954 0.02027 0.60988
 C683 C 0.36833 0.00147 0.62824
 C684 C 0.38979 -0.00041 0.64617
 C685 C 0.34828 0.02091 0.59017
 C686 C 0.33088 0.02093 0.57312
 H687 H 0.43114 0.04868 0.62720
 H688 H 0.39334 0.05199 0.59562
 H689 H 0.35102 -0.01204 0.62836
 H690 H 0.38881 -0.01533 0.65996
   
