data_POSCAR
  _audit_creation_date              2014-09-24
  _audit_creation_method            'ToBaCCo'
  _symmetry_space_group_name_H-M    'P1'
  _symmetry_Int_Tables_number       1
  _symmetry_cell_setting            triclinic
  loop_
  _symmetry_equiv_pos_as_xyz
 x,y,z
_cell_length_a 28.0648
_cell_length_b 27.9069
_cell_length_c 28.0524
_cell_angle_alpha 90.107900
_cell_angle_beta 90.184700
_cell_angle_gamma 90.106000
loop_
  _atom_site_label
  _atom_site_type_symbol
  _atom_site_fract_x
  _atom_site_fract_y
  _atom_site_fract_z
C1 C 0.52297 1.00033 -0.50144
 C2 C 0.47452 1.00018 -0.50148
 C3 C 0.44615 0.99998 -0.54630
 C4 C 0.44639 1.00023 -0.45669
 C5 C 0.55134 1.00021 -0.45662
 C6 C 0.55113 1.00058 -0.54621
 C7 C 0.44942 1.03759 -0.57938
 C8 C 0.41853 1.03917 -0.61872
 C9 C 0.38405 1.00320 -0.62519
 C10 C 0.38143 0.96520 -0.59272
 C11 C 0.41215 0.96371 -0.55353
 C12 C 0.41232 1.03630 -0.44949
 C13 C 0.38198 1.03471 -0.41021
 C14 C 0.38505 0.99690 -0.37767
 C15 C 0.41947 0.96112 -0.38409
 C16 C 0.45002 0.96272 -0.42350
 C17 C 0.58539 0.96409 -0.44955
 C18 C 0.61601 0.96567 -0.41029
 C19 C 0.61324 1.00351 -0.37765
 C20 C 0.57882 1.03933 -0.38392
 C21 C 0.54798 1.03774 -0.42331
 C22 C 0.54778 0.96294 -0.57943
 C23 C 0.57860 0.96136 -0.61863
 C24 C 0.61300 0.99732 -0.62480
 C25 C 0.61571 1.03531 -0.59229
 C26 C 0.58511 1.03686 -0.55321
 H27 H 0.47480 1.06638 -0.57394
 H28 H 0.42091 1.06899 -0.64332
 H29 H 0.35495 0.93715 -0.59700
 H30 H 0.40884 0.93463 -0.52823
 H31 H 0.40871 1.06530 -0.47487
 H32 H 0.35541 1.06247 -0.40575
 H33 H 0.47542 0.93407 -0.42889
 H34 H 0.58878 0.93508 -0.47502
 H35 H 0.64258 0.93788 -0.40595
 H36 H 0.57656 1.06897 -0.35905
 H37 H 0.52258 1.06642 -0.42860
 H38 H 0.52244 0.93413 -0.57418
 H39 H 0.57638 0.93162 -0.64340
 H40 H 0.64226 1.06320 -0.59655
 H41 H 0.58850 1.06596 -0.52780
 H42 H 0.42196 0.93151 -0.35930
 C43 C -0.50058 1.47505 0.00007
 C44 C -0.50056 1.52365 0.00015
 C45 C -0.45583 1.55194 0.00044
 C46 C -0.54525 1.55182 -0.00008
 C47 C -0.54530 1.44676 0.00036
 C48 C -0.45588 1.44689 -0.00030
 C49 C -0.42291 1.54826 0.03810
 C50 C -0.38320 1.57864 0.03982
 C51 C -0.37632 1.61286 0.00400
 C52 C -0.40861 1.61601 -0.03393
 C53 C -0.44821 1.58583 -0.03564
 C54 C -0.55280 1.58579 0.03604
 C55 C -0.59229 1.61596 0.03433
 C56 C -0.62455 1.61271 -0.00365
 C57 C -0.61775 1.57839 -0.03949
 C58 C -0.57815 1.54803 -0.03777
 C59 C -0.55319 1.41281 -0.03578
 C60 C -0.59272 1.38255 -0.03406
 C61 C -0.62472 1.38569 0.00398
 C62 C -0.61755 1.42003 0.03985
 C63 C -0.57790 1.45046 0.03808
 C64 C -0.42320 1.45076 -0.03796
 C65 C -0.38349 1.42054 -0.03971
 C66 C -0.37636 1.38630 -0.00395
 C67 C -0.40842 1.38295 0.03397
 C68 C -0.44802 1.41297 0.03572
 H69 H -0.42870 1.52290 0.06669
 H70 H -0.35856 1.57620 0.06951
 H71 H -0.40372 1.64252 -0.06167
 H72 H -0.47342 1.58936 -0.06474
 H73 H -0.52760 1.58942 0.06517
 H74 H -0.59711 1.64255 0.06209
 H75 H -0.57241 1.52261 -0.06639
 H76 H -0.52822 1.40927 -0.06495
 H77 H -0.59770 1.35603 -0.06193
 H78 H -0.64189 1.42260 0.06966
 H79 H -0.57189 1.47588 0.06671
 H80 H -0.42918 1.47613 -0.06650
 H81 H -0.35903 1.42314 -0.06939
 H82 H -0.40334 1.35642 0.06167
 H83 H -0.47304 1.40929 0.06482
 H84 H -0.64237 1.57588 -0.06922
 C85 C 0.00039 0.47501 0.50107
 C86 C 0.00025 0.52368 0.50109
 C87 C 0.00023 0.55207 0.54586
 C88 C 0.00012 0.55193 0.45633
 C89 C 0.00057 0.44663 0.45628
 C90 C 0.00034 0.44675 0.54583
 C91 C -0.03588 0.58601 0.55316
 C92 C -0.03435 0.61654 0.59256
 C93 C 0.00349 0.61377 0.62507
 C94 C 0.03933 0.57943 0.61851
 C95 C 0.03774 0.54870 0.57899
 C96 C -0.03733 0.54806 0.42315
 C97 C -0.03901 0.57858 0.38360
 C98 C -0.00337 0.61318 0.37708
 C99 C 0.03437 0.61650 0.40962
 C100 C 0.03605 0.58617 0.44905
 C101 C 0.03804 0.45045 0.42337
 C102 C 0.03974 0.41989 0.38375
 C103 C 0.00407 0.38526 0.37687
 C104 C -0.03369 0.38199 0.40919
 C105 C -0.03535 0.41238 0.44868
 C106 C 0.03642 0.41281 0.55338
 C107 C 0.03484 0.38243 0.59276
 C108 C -0.00302 0.38536 0.62501
 C109 C -0.03882 0.41970 0.61820
 C110 C -0.03719 0.45028 0.57869
 H111 H -0.06487 0.58936 0.52780
 H112 H -0.06221 0.64302 0.59704
 H113 H 0.06899 0.57710 0.64322
 H114 H 0.06637 0.52336 0.57347
 H115 H -0.06583 0.52246 0.42864
 H116 H -0.06855 0.57594 0.35878
 H117 H 0.06500 0.58991 0.47442
 H118 H 0.06653 0.47606 0.42912
 H119 H 0.06934 0.42261 0.35918
 H120 H -0.06142 0.35529 0.40447
 H121 H -0.06431 0.40870 0.47386
 H122 H 0.06543 0.40935 0.52823
 H123 H 0.06267 0.35595 0.59744
 H124 H -0.06850 0.42216 0.64270
 H125 H -0.06580 0.47563 0.57297
 H126 H 0.06201 0.64326 0.40505
 O127 O -0.12250 1.00190 -0.06446
 O128 O 0.12304 0.99858 -0.06403
 O129 O -0.00157 1.06525 -0.12261
 O130 O 0.00195 0.93511 -0.12272
 O131 O 0.00194 0.87698 -0.06422
 O132 O -0.00140 1.12349 -0.06399
 O133 O 0.06495 0.99845 -0.12259
 O134 O -0.06459 1.00193 -0.12282
 Zr135 Zr 0.00024 1.00022 -0.08406
 O136 O 0.04343 0.95696 -0.04311
 O137 O -0.04283 1.04355 -0.04318
 C138 C -0.10849 1.00286 -0.10843
 C139 C 0.10890 0.99755 -0.10805
 C140 C -0.00248 1.10937 -0.10801
 C141 C 0.00290 0.89101 -0.10820
 H142 H 0.06376 1.06403 -0.06315
 O143 O 0.04343 1.04351 -0.04293
 H144 H -0.06323 0.93644 -0.06351
 O145 O -0.04284 0.95700 -0.04317
 O146 O 0.12324 1.00216 0.06474
 O147 O -0.12233 0.99854 0.06429
 O148 O 0.06465 1.12357 0.00225
 O149 O 0.06436 0.87712 -0.00172
 O150 O -0.06393 0.87704 0.00181
 O151 O -0.06366 1.12347 -0.00171
 O152 O 0.00244 1.06547 0.12305
 O153 O -0.00139 0.93535 0.12291
 O154 O 0.00240 1.12361 0.06456
 O155 O -0.00151 0.87711 0.06430
 O156 O 0.12300 1.06534 0.00234
 O157 O -0.12213 1.06515 -0.00193
 O158 O -0.12227 0.93526 0.00180
 O159 O 0.12284 0.93542 -0.00163
 O160 O 0.06534 1.00222 0.12311
 O161 O -0.06426 0.99858 0.12288
 Zr162 Zr 0.08426 1.00036 0.00030
 Zr163 Zr -0.08353 1.00024 -0.00001
 Zr164 Zr 0.00046 1.08436 0.00024
 Zr165 Zr 0.00026 0.91624 0.00007
 Zr166 Zr 0.00048 1.00038 0.08437
 O167 O -0.04281 0.95699 0.04333
 O168 O 0.04366 1.04369 0.04358
 C169 C 0.10924 1.00316 0.10872
 C170 C -0.10821 0.99761 0.10832
 C171 C 0.10856 1.10944 0.00336
 C172 C 0.10829 0.89131 -0.00270
 C173 C -0.10783 0.89117 0.00281
 C174 C -0.10759 1.10927 -0.00286
 C175 C 0.00344 1.10957 0.10854
 C176 C -0.00244 0.89123 0.10831
 H177 H -0.06290 1.06406 0.06358
 O178 O -0.04261 1.04353 0.04332
 H179 H 0.06380 0.93665 0.06368
 O180 O 0.04346 0.95715 0.04339
 C181 C 0.20977 1.02170 0.26179
 C182 C 0.23939 0.97746 0.27692
 C183 C 0.28506 1.00768 0.27298
 C184 C 0.25600 1.05194 0.25839
 C185 C 0.21587 1.00693 0.20939
 C186 C 0.26151 1.03717 0.20538
 C187 C 0.24494 0.96269 0.22400
 C188 C 0.29117 0.99291 0.22057
 C189 C 0.32288 1.00721 0.30921
 C190 C 0.35287 1.00579 0.34010
 C191 C 0.17729 1.00597 0.17397
 C192 C 0.14589 1.00481 0.14453
 H193 H 0.17590 1.03349 0.27840
 H194 H 0.23068 0.95287 0.30672
 H195 H 0.26100 1.08866 0.27286
 H196 H 0.27017 1.06175 0.17556
 H197 H 0.23997 0.92596 0.20955
 H198 H 0.32504 0.98111 0.20398
 C199 C -0.26639 0.97848 0.19719
 C200 C -0.26681 0.94854 0.24370
 C201 C -0.28439 0.99286 0.27100
 C202 C -0.28456 1.02278 0.22508
 C203 C -0.21487 0.99380 0.20822
 C204 C -0.23248 1.03808 0.23555
 C205 C -0.21469 0.96387 0.25414
 C206 C -0.23285 1.00817 0.28198
 C207 C -0.32243 0.99320 0.30676
 C208 C -0.35263 0.99448 0.33725
 C209 C -0.17619 0.99481 0.17318
 C210 C -0.14478 0.99598 0.14395
 H211 H -0.27976 0.96627 0.16191
 H212 H -0.28137 0.91173 0.24737
 H213 H -0.31371 1.04697 0.21346
 H214 H -0.21794 1.07491 0.23190
 H215 H -0.18553 0.93970 0.26575
 H216 H -0.21944 1.02039 0.31724
 C217 C -0.23513 0.96202 -0.23410
 C218 C -0.28630 0.98055 -0.22501
 C219 C -0.28443 1.00782 -0.27250
 C220 C -0.23380 0.98928 -0.28210
 C221 C -0.21512 1.00677 -0.20905
 C222 C -0.21324 1.03404 -0.25654
 C223 C -0.26573 1.02533 -0.19939
 C224 C -0.26445 1.05261 -0.24748
 C225 C -0.32235 1.00755 -0.30863
 C226 C -0.35247 1.00631 -0.33940
 C227 C -0.17652 1.00570 -0.17367
 C228 C -0.14513 1.00450 -0.14423
 H229 H -0.22265 0.92475 -0.22829
 H230 H -0.31676 0.95859 -0.21239
 H231 H -0.22105 0.97443 -0.31650
 H232 H -0.18278 1.05599 -0.26916
 H233 H -0.27843 1.04016 -0.16497
 H234 H -0.27695 1.08986 -0.25331
 C235 C 0.20761 0.98293 -0.26191
 C236 C 0.24023 1.02600 -0.27404
 C237 C 0.28367 0.99256 -0.27228
 C238 C 0.25160 0.94946 -0.26068
 C239 C 0.21493 0.99358 -0.20864
 C240 C 0.25834 0.96011 -0.20681
 C241 C 0.24702 1.03666 -0.22026
 C242 C 0.29101 1.00322 -0.21900
 C243 C 0.32126 0.99286 -0.30851
 C244 C 0.35109 0.99410 -0.33935
 C245 C 0.17661 0.99466 -0.17320
 C246 C 0.14540 0.99588 -0.14377
 H247 H 0.17293 0.97463 -0.27921
 H248 H 0.23317 1.05314 -0.30207
 H249 H 0.25392 0.91357 -0.27763
 H250 H 0.26535 0.93299 -0.17876
 H251 H 0.24470 1.07256 -0.20332
 H252 H 0.32570 1.01152 -0.20172
 C253 C 0.26045 1.21065 0.02441
 C254 C 0.27690 1.23921 -0.01986
 C255 C 0.27186 1.28589 0.00880
 C256 C 0.25597 1.25791 0.05311
 C257 C 0.20860 1.21637 0.00780
 C258 C 0.20349 1.26302 0.03649
 C259 C 0.22452 1.24437 -0.03648
 C260 C 0.22000 1.29163 -0.00782
 C261 C 0.30797 1.32371 0.00836
 C262 C 0.33892 1.35358 0.00686
 C263 C 0.17345 1.17766 0.00663
 C264 C 0.14417 1.14614 0.00525
 H265 H 0.27667 1.17691 0.03760
 H266 H 0.30750 1.22988 -0.04306
 H267 H 0.26928 1.26400 0.08993
 H268 H 0.17285 1.27228 0.05966
 H269 H 0.21123 1.23829 -0.07332
 H270 H 0.20380 1.32537 -0.02102
 C271 C 0.20121 0.73680 -0.03417
 C272 C 0.25296 0.74121 -0.05286
 C273 C 0.27059 0.71458 -0.00832
 C274 C 0.21947 0.70955 0.01037
 C275 C 0.20783 0.78431 -0.00716
 C276 C 0.22549 0.75766 0.03735
 C277 C 0.25896 0.78933 -0.02583
 C278 C 0.27713 0.76212 0.01867
 C279 C 0.30643 0.67663 -0.00800
 C280 C 0.33715 0.64663 -0.00664
 C281 C 0.17292 0.82310 -0.00594
 C282 C 0.14379 0.85464 -0.00455
 H283 H 0.16955 0.72692 -0.05591
 H284 H 0.26464 0.73391 -0.08993
 H285 H 0.20365 0.67629 0.02520
 H286 H 0.21383 0.76494 0.07444
 H287 H 0.27477 0.82259 -0.04065
 H288 H 0.30877 0.77206 0.04043
 C289 C -0.26178 0.79152 0.00231
 C290 C -0.26362 0.74916 -0.03335
 C291 C -0.27094 0.71461 0.00858
 C292 C -0.26965 0.75642 0.04426
 C293 C -0.20779 0.78421 0.00731
 C294 C -0.21505 0.74969 0.04928
 C295 C -0.20910 0.74239 -0.02836
 C296 C -0.21696 0.70724 0.01359
 C297 C -0.30698 0.67671 0.00831
 C298 C -0.33786 0.64676 0.00697
 C299 C -0.17269 0.82294 0.00604
 C300 C -0.14343 0.85447 0.00465
 H301 H -0.27978 0.82660 -0.00236
 H302 H -0.28398 0.74845 -0.06734
 H303 H -0.29494 0.76167 0.07416
 H304 H -0.19466 0.75046 0.08324
 H305 H -0.18381 0.73715 -0.05827
 H306 H -0.19899 0.67215 0.01824
 C307 C -0.24574 1.22341 0.03094
 C308 C -0.23398 1.27763 0.03130
 C309 C -0.27082 1.28516 -0.00858
 C310 C -0.28311 1.23148 -0.00893
 C311 C -0.20755 1.21589 -0.00740
 C312 C -0.24437 1.22339 -0.04730
 C313 C -0.19521 1.26956 -0.00706
 C314 C -0.23265 1.27770 -0.04697
 C315 C -0.30693 1.32285 -0.00828
 C316 C -0.33786 1.35262 -0.00693
 C317 C -0.17240 1.17732 -0.00616
 C318 C -0.14314 1.14590 -0.00475
 H319 H -0.25075 1.20063 0.06294
 H320 H -0.23009 1.30041 0.06356
 H321 H -0.31968 1.21628 -0.00973
 H322 H -0.24824 1.20059 -0.07955
 H323 H -0.15861 1.28471 -0.00626
 H324 H -0.22768 1.30051 -0.07895
 C325 C 0.04631 1.25540 0.21252
 C326 C 0.00681 1.29365 0.21877
 C327 C 0.00864 1.28562 0.27289
 C328 C 0.04814 1.24799 0.26725
 C329 C 0.00767 1.21644 0.20908
 C330 C 0.00950 1.20845 0.26321
 C331 C -0.03181 1.25408 0.21473
 C332 C -0.02996 1.24663 0.26938
 C333 C 0.00824 1.32331 0.30929
 C334 C 0.00684 1.35312 0.34040
 C335 C 0.00655 1.17785 0.17364
 C336 C 0.00525 1.14637 0.14422
 H337 H 0.07769 1.25851 0.18872
 H338 H 0.00572 1.32909 0.20090
 H339 H 0.08104 1.24596 0.28921
 H340 H 0.01058 1.17302 0.28110
 H341 H -0.06473 1.25611 0.19278
 H342 H -0.06137 1.24346 0.29314
 C343 C 0.03729 1.24581 -0.22251
 C344 C 0.02282 1.23985 -0.27549
 C345 C -0.00753 1.28547 -0.27161
 C346 C 0.00694 1.29200 -0.21914
 C347 C -0.00657 1.21621 -0.20817
 C348 C -0.03695 1.26180 -0.20422
 C349 C -0.02103 1.20970 -0.26063
 C350 C -0.05141 1.25589 -0.25729
 C351 C -0.00714 1.32324 -0.30779
 C352 C -0.00575 1.35313 -0.33870
 C353 C -0.00548 1.17759 -0.17290
 C354 C -0.00422 1.14612 -0.14359
 H355 H 0.07378 1.24120 -0.20786
 H356 H 0.04743 1.23125 -0.30519
 H357 H 0.01840 1.32626 -0.20248
 H358 H -0.06154 1.27034 -0.17449
 H359 H -0.03248 1.17544 -0.27731
 H360 H -0.08790 1.26052 -0.27196
 C361 C 0.01483 0.79103 -0.26198
 C362 C 0.04992 0.74823 -0.26188
 C363 C 0.00793 0.71415 -0.27162
 C364 C -0.02713 0.75639 -0.27226
 C365 C 0.00692 0.78379 -0.20832
 C366 C -0.03504 0.74969 -0.21809
 C367 C 0.04201 0.74158 -0.20762
 C368 C 0.00002 0.70687 -0.21797
 C369 C 0.00756 0.67619 -0.30774
 C370 C 0.00619 0.64615 -0.33864
 C371 C 0.00583 0.82259 -0.17312
 C372 C 0.00459 0.85418 -0.14382
 H373 H 0.02087 0.82604 -0.27970
 H374 H 0.08488 0.74715 -0.28024
 H375 H -0.05560 0.76205 -0.29922
 H376 H -0.07002 0.75076 -0.19974
 H377 H 0.07047 0.73598 -0.18063
 H378 H -0.00603 0.67185 -0.20027
 C379 C -0.00852 0.79217 0.26255
 C380 C -0.04724 0.75271 0.26609
 C381 C -0.00784 0.71497 0.27173
 C382 C 0.03086 0.75388 0.26873
 C383 C -0.00670 0.78433 0.20839
 C384 C 0.03269 0.74659 0.21405
 C385 C -0.04543 0.74545 0.21132
 C386 C -0.00602 0.70709 0.21756
 C387 C -0.00755 0.67713 0.30784
 C388 C -0.00626 0.64717 0.33869
 C389 C -0.00553 0.82298 0.17317
 C390 C -0.00421 0.85447 0.14388
 H391 H -0.00951 0.82755 0.28067
 H392 H -0.08014 0.75476 0.28785
 H393 H 0.06227 0.75691 0.29271
 H394 H 0.06560 0.74454 0.19229
 H395 H -0.07682 0.74249 0.18730
 H396 H -0.00501 0.67170 0.19947
   
