data_POSCAR
  _audit_creation_date              2014-09-24
  _audit_creation_method            'ToBaCCo'
  _symmetry_space_group_name_H-M    'P1'
  _symmetry_Int_Tables_number       1
  _symmetry_cell_setting            triclinic
  loop_
  _symmetry_equiv_pos_as_xyz
 x,y,z
_cell_length_a 33.8367
_cell_length_b 36.9821
_cell_length_c 38.8558
_cell_angle_alpha 86.675100
_cell_angle_beta 90.574200
_cell_angle_gamma 92.650300
loop_
  _atom_site_label
  _atom_site_type_symbol
  _atom_site_fract_x
  _atom_site_fract_y
  _atom_site_fract_z
C1 C 0.35701 0.33568 0.23011
 N2 N 0.36282 0.30734 0.25321
 C3 C 0.34365 0.30445 0.28379
 N4 N 0.31852 0.33032 0.29127
 C5 C 0.31226 0.35884 0.26858
 N6 N 0.33152 0.36151 0.23783
 C7 C 0.64341 -0.32134 0.23758
 N8 N 0.64635 -0.29246 0.25750
 C9 C 0.67546 -0.28937 0.28166
 N10 N 0.70308 -0.31514 0.28498
 C11 C 0.70079 -0.34416 0.26474
 N12 N 0.67046 -0.34707 0.24176
 C13 C 0.76374 0.16727 0.76593
 N14 N 0.78632 0.19759 0.75632
 C15 C 0.81023 0.19822 0.72828
 N16 N 0.81190 0.16789 0.71043
 C17 C 0.79004 0.13745 0.71983
 N18 N 0.76567 0.13719 0.74739
 C19 C 0.22209 -0.19536 0.75668
 N20 N 0.22120 -0.17430 0.72694
 C21 C 0.19258 -0.18009 0.70277
 N22 N 0.16463 -0.20746 0.70838
 C23 C 0.16528 -0.22861 0.73816
 N24 N 0.19392 -0.22230 0.76194
 C25 C 0.64532 -0.33010 0.78421
 N26 N 0.64517 -0.30245 0.75970
 C27 C 0.67067 -0.30111 0.73274
 N28 N 0.69750 -0.32738 0.73093
 C29 C 0.69796 -0.35525 0.75548
 N30 N 0.67144 -0.35632 0.78148
 C31 C 0.33921 0.30071 0.76429
 N32 N 0.31189 0.32525 0.75449
 C33 C 0.28876 0.32022 0.72623
 N34 N 0.29305 0.29059 0.70787
 C35 C 0.31985 0.26571 0.71750
 N36 N 0.34291 0.27094 0.74577
 C37 C 0.19868 -0.15463 0.20461
 N38 N 0.20325 -0.12564 0.22415
 C39 C 0.18862 -0.12608 0.25645
 N40 N 0.16782 -0.15618 0.26921
 C41 C 0.16184 -0.18550 0.24964
 N42 N 0.17805 -0.18463 0.21759
 C43 C 0.78970 0.19443 0.24127
 N44 N 0.81642 0.22313 0.24379
 C45 C 0.84543 0.22192 0.26858
 N46 N 0.84724 0.19181 0.29026
 C47 C 0.82072 0.16357 0.28836
 N48 N 0.79199 0.16512 0.26397
 O49 O 0.27400 0.10834 0.46287
 O50 O 0.22911 0.03305 0.51716
 O51 O 0.26525 0.09542 0.52919
 O52 O 0.23935 0.04622 0.45178
 O53 O 0.29732 0.02086 0.45517
 O54 O 0.32275 0.06960 0.53267
 O55 O 0.28684 0.00756 0.52119
 O56 O 0.33159 0.08263 0.46625
 Cu57 Cu 0.24612 0.07344 0.49018
 Cu58 Cu 0.31539 0.04255 0.49440
 C59 C 0.31019 0.10798 0.45457
 C60 C 0.25022 0.00729 0.52815
 C61 C 0.29846 0.09107 0.54408
 C62 C 0.26436 0.02560 0.44013
 O63 O 0.78691 -0.06180 0.53830
 O64 O 0.75321 -0.11981 0.46858
 O65 O 0.79175 -0.05709 0.47135
 O66 O 0.74902 -0.12424 0.53598
 O67 O 0.69283 -0.09624 0.53300
 O68 O 0.73529 -0.02948 0.46793
 O69 O 0.69707 -0.09173 0.46584
 O70 O 0.73052 -0.03406 0.53523
 Cu71 Cu 0.77585 -0.09356 0.50376
 Cu72 Cu 0.70826 -0.06017 0.50010
 C73 C 0.76437 -0.03828 0.54889
 C74 C 0.71926 -0.11540 0.45513
 C75 C 0.77090 -0.03184 0.45858
 C76 C 0.71375 -0.12131 0.54600
 O77 O 0.51653 0.25253 0.03580
 O78 O 0.57655 0.20822 -0.02645
 O79 O 0.57922 0.21462 0.04005
 O80 O 0.51468 0.24696 -0.03073
 O81 O 0.55221 0.29728 -0.03725
 O82 O 0.61782 0.26416 0.03353
 O83 O 0.61463 0.25798 -0.03412
 O84 O 0.55441 0.30258 0.02885
 Cu85 Cu 0.54308 0.22560 0.00542
 Cu86 Cu 0.58885 0.28537 -0.00291
 C87 C 0.52494 0.28512 0.04285
 C88 C 0.60544 0.22552 -0.04138
 C89 C 0.60927 0.23371 0.04922
 C90 C 0.52225 0.27778 -0.04596
 O91 O 0.47317 0.75762 0.04071
 O92 O 0.42271 0.79514 -0.03697
 O93 O 0.41173 0.79778 0.02829
 O94 O 0.48085 0.75393 -0.02637
 O95 O 0.44125 0.70460 -0.02478
 O96 O 0.37239 0.74843 0.03043
 O97 O 0.38257 0.74629 -0.03551
 O98 O 0.43390 0.70822 0.04075
 Cu99 Cu 0.45137 0.78097 0.00185
 Cu100 Cu 0.40340 0.72203 0.00304
 C101 C 0.46277 0.72623 0.05342
 C102 C 0.39398 0.77684 -0.04957
 C103 C 0.37985 0.78096 0.03805
 C104 C 0.47238 0.72201 -0.03540
 O105 O 0.06528 0.49957 0.25975
 O106 O -0.03602 0.53127 0.25078
 O107 O 0.03439 0.56358 0.25749
 O108 O -0.00537 0.46852 0.25442
 O109 O -0.00989 0.46613 0.31120
 O110 O 0.02708 0.56048 0.31394
 O111 O -0.04236 0.52904 0.30742
 O112 O 0.05953 0.49804 0.31632
 Cu113 Cu 0.01529 0.51629 0.24989
 Cu114 Cu 0.00797 0.51314 0.31783
 C115 C 0.07968 0.49311 0.28967
 C116 C -0.05659 0.53504 0.27738
 C117 C 0.03725 0.57825 0.28632
 C118 C -0.01400 0.45113 0.28273
 O119 O 0.01726 0.51772 0.75946
 O120 O -0.03060 0.42995 0.74110
 O121 O 0.04266 0.45576 0.74177
 O122 O -0.05461 0.49120 0.75748
 O123 O -0.05951 0.51041 0.70278
 O124 O 0.03761 0.47360 0.68681
 O125 O -0.03538 0.44781 0.68603
 O126 O 0.01323 0.53607 0.70455
 Cu127 Cu -0.00549 0.47184 0.75546
 Cu128 Cu -0.01130 0.49378 0.68947
 C129 C 0.02288 0.54213 0.73545
 C130 C -0.04179 0.42409 0.71059
 C131 C 0.05665 0.45828 0.71148
 C132 C -0.07374 0.50668 0.73297
 C133 C 0.41707 0.30917 0.15511
 C134 C 0.42751 0.34252 0.13951
 C135 C 0.41384 0.37466 0.15103
 C136 C 0.38913 0.37226 0.18013
 C137 C 0.37934 0.33819 0.19739
 C138 C 0.39330 0.30626 0.18427
 O139 O 0.43289 0.28185 0.14040
 C140 C 0.45416 0.29822 0.11508
 C141 C 0.45235 0.33537 0.11355
 C142 C 0.47422 0.35770 0.08994
 C143 C 0.49859 0.34102 0.06696
 C144 C 0.50007 0.30268 0.06758
 C145 C 0.47734 0.28113 0.09204
 H146 H 0.42216 0.40065 0.13827
 H147 H 0.37873 0.39694 0.18984
 H148 H 0.38637 0.27981 0.19672
 H149 H 0.47297 0.38690 0.08949
 H150 H 0.51593 0.35792 0.04850
 H151 H 0.47816 0.25186 0.09353
 C152 C 0.56541 0.70344 0.17381
 C153 C 0.55867 0.67085 0.15896
 C154 C 0.57839 0.63992 0.16931
 C155 C 0.60655 0.64273 0.19583
 C156 C 0.61384 0.67594 0.21213
 C157 C 0.59213 0.70654 0.20116
 O158 O 0.54597 0.73023 0.15823
 C159 C 0.52640 0.71412 0.13313
 C160 C 0.53276 0.67767 0.13280
 C161 C 0.51574 0.65559 0.10842
 C162 C 0.49140 0.67182 0.08313
 C163 C 0.48545 0.70959 0.08219
 C164 C 0.50306 0.73102 0.10769
 H165 H 0.57313 0.61475 0.15674
 H166 H 0.62254 0.61887 0.20362
 H167 H 0.59729 0.73257 0.21225
 H168 H 0.52136 0.62700 0.10862
 H169 H 0.47833 0.65523 0.06354
 H170 H 0.49908 0.75992 0.10747
 C171 C 0.70789 0.19725 -0.15715
 C172 C 0.68737 0.16553 -0.14707
 C173 C 0.69042 0.13371 -0.16404
 C174 C 0.71566 0.13456 -0.19258
 C175 C 0.73736 0.16691 -0.20365
 C176 C 0.73329 0.19871 -0.18542
 O177 O 0.70018 0.22461 -0.13787
 C178 C 0.67423 0.20979 -0.11512
 C179 C 0.66548 0.17368 -0.11964
 C180 C 0.63862 0.15297 -0.09906
 C181 C 0.61969 0.17021 -0.07297
 C182 C 0.62774 0.20760 -0.06785
 C183 C 0.65580 0.22753 -0.08921
 H184 H 0.67377 0.10910 -0.15574
 H185 H 0.71816 0.10994 -0.20601
 H186 H 0.74915 0.22394 -0.19310
 H187 H 0.63217 0.12459 -0.10316
 H188 H 0.59845 0.15441 -0.05697
 H189 H 0.66246 0.25610 -0.08628
 C190 C 0.28251 0.79146 -0.16414
 C191 C 0.31106 0.81890 -0.16893
 C192 C 0.31154 0.84300 -0.19782
 C193 C 0.28153 0.83841 -0.22275
 C194 C 0.25173 0.81005 -0.21832
 C195 C 0.25250 0.78655 -0.18819
 O196 O 0.28750 0.77082 -0.13561
 C197 C 0.31998 0.78545 -0.12195
 C198 C 0.33568 0.81501 -0.14114
 C199 C 0.37020 0.83385 -0.13143
 C200 C 0.38920 0.82155 -0.10085
 C201 C 0.37352 0.79081 -0.08096
 C202 C 0.33828 0.77277 -0.09180
 H203 H 0.33437 0.86435 -0.20118
 H204 H 0.28177 0.85688 -0.24545
 H205 H 0.23074 0.76445 -0.18352
 H206 H 0.38223 0.85694 -0.14693
 H207 H 0.41629 0.83562 -0.09299
 H208 H 0.32547 0.74923 -0.07739
 C209 C 0.22763 0.42228 0.26567
 C210 C 0.22634 0.42999 0.29986
 C211 C 0.25346 0.41726 0.32419
 C212 C 0.28266 0.39505 0.31304
 C213 C 0.28446 0.38618 0.27806
 C214 C 0.25697 0.40063 0.25384
 O215 O 0.19728 0.43494 0.24742
 C216 C 0.17642 0.45083 0.27064
 C217 C 0.19301 0.44855 0.30309
 C218 C 0.17488 0.46115 0.33175
 C219 C 0.13797 0.47654 0.32686
 C220 C 0.11989 0.47907 0.29371
 C221 C 0.13983 0.46638 0.26512
 H222 H 0.25148 0.42329 0.35102
 H223 H 0.30341 0.38406 0.33184
 H224 H 0.25694 0.39344 0.22721
 H225 H 0.18824 0.45846 0.35715
 H226 H 0.12323 0.48593 0.34905
 H227 H 0.12664 0.46734 0.23959
 C228 C 0.09890 0.68794 0.72724
 C229 C 0.09111 0.67804 0.76127
 C230 C 0.10388 0.69878 0.78822
 C231 C 0.12664 0.73057 0.77990
 C232 C 0.13619 0.74100 0.74513
 C233 C 0.12123 0.71982 0.71830
 O234 O 0.08585 0.66316 0.70589
 C235 C 0.06976 0.63707 0.72698
 C236 C 0.07239 0.64488 0.76110
 C237 C 0.05995 0.62052 0.78779
 C238 C 0.04381 0.58672 0.77896
 C239 C 0.04026 0.57795 0.74392
 C240 C 0.05332 0.60370 0.71755
 H241 H 0.09756 0.69024 0.81478
 H242 H 0.13776 0.74659 0.80067
 H243 H 0.12883 0.72666 0.69164
 H244 H 0.06314 0.62709 0.81448
 H245 H 0.03410 0.56742 0.79952
 H246 H 0.05154 0.59770 0.69063
 C247 C -0.20557 0.60868 0.28337
 C248 C -0.20966 0.58188 0.26034
 C249 C -0.24304 0.57692 0.23995
 C250 C -0.27334 0.60097 0.24280
 C251 C -0.26983 0.62999 0.26549
 C252 C -0.23546 0.63322 0.28667
 O253 O -0.17054 0.60927 0.29925
 C254 C -0.15222 0.58244 0.28566
 C255 C -0.17495 0.56505 0.26157
 C256 C -0.16098 0.53787 0.24230
 C257 C -0.12180 0.52826 0.24796
 C258 C -0.09781 0.54539 0.27291
 C259 C -0.11334 0.57260 0.29237
 H260 H -0.24539 0.55567 0.22191
 H261 H -0.29908 0.59731 0.22636
 H262 H -0.23132 0.65489 0.30413
 H263 H -0.17934 0.52507 0.22308
 H264 H -0.11010 0.50740 0.23301
 H265 H -0.09525 0.58652 0.31107
 C266 C -0.13872 0.28952 0.72703
 C267 C -0.12102 0.29062 0.69525
 C268 C -0.12475 0.26220 0.67350
 C269 C -0.14753 0.23131 0.68497
 C270 C -0.16698 0.22953 0.71748
 C271 C -0.16256 0.25952 0.73860
 O272 O -0.12972 0.31866 0.74442
 C273 C -0.10602 0.33859 0.72306
 C274 C -0.10011 0.32288 0.69243
 C275 C -0.07653 0.33930 0.66627
 C276 C -0.05803 0.37322 0.67208
 C277 C -0.06272 0.38938 0.70391
 C278 C -0.08722 0.37181 0.72967
 H279 H -0.11012 0.26350 0.64879
 H280 H -0.15023 0.20899 0.66811
 H281 H -0.17623 0.25924 0.76370
 H282 H -0.07249 0.32644 0.64230
 H283 H -0.03936 0.38647 0.65221
 H284 H -0.09157 0.38371 0.75409
 C285 C 0.32706 0.23381 0.35689
 C286 C 0.36016 0.21392 0.35441
 C287 C 0.38897 0.22215 0.32951
 C288 C 0.38341 0.25210 0.30629
 C289 C 0.34964 0.27325 0.30858
 C290 C 0.32125 0.26391 0.33448
 O291 O 0.30228 0.22056 0.38120
 C292 C 0.32013 0.19170 0.39444
 C293 C 0.35575 0.18650 0.37915
 C294 C 0.37880 0.15731 0.38861
 C295 C 0.36426 0.13224 0.41451
 C296 C 0.32708 0.13653 0.43006
 C297 C 0.30504 0.16706 0.42004
 H298 H 0.41455 0.20584 0.32775
 H299 H 0.40544 0.25882 0.28664
 H300 H 0.29486 0.27906 0.33665
 H301 H 0.40667 0.15366 0.37614
 H302 H 0.38147 0.10898 0.42170
 H303 H 0.27648 0.17109 0.43116
 C304 C 0.76868 0.06261 0.65983
 C305 C 0.80627 0.05079 0.65581
 C306 C 0.83891 0.06465 0.67356
 C307 C 0.83270 0.09233 0.69582
 C308 C 0.79431 0.10504 0.70032
 C309 C 0.76169 0.08954 0.68255
 O310 O 0.74232 0.04762 0.63878
 C311 C 0.76374 0.02592 0.62115
 C312 C 0.80298 0.02673 0.63072
 C313 C 0.83090 0.00692 0.61491
 C314 C 0.81781 -0.01472 0.58817
 C315 C 0.77754 -0.01577 0.57748
 C316 C 0.75016 0.00490 0.59439
 H317 H 0.86829 0.05540 0.66949
 H318 H 0.85787 0.10455 0.70898
 H319 H 0.73235 0.09963 0.68479
 H320 H 0.86170 0.00826 0.62272
 H321 H 0.83917 -0.03022 0.57548
 H322 H 0.71925 0.00476 0.58688
 C323 C 0.22427 -0.11146 0.63197
 C324 C 0.18893 -0.10626 0.61503
 C325 C 0.15404 -0.12549 0.62453
 C326 C 0.15563 -0.15083 0.65286
 C327 C 0.19162 -0.15594 0.67121
 C328 C 0.22644 -0.13611 0.66026
 O329 O 0.25384 -0.09002 0.61949
 C330 C 0.23681 -0.07063 0.59422
 C331 C 0.19707 -0.07932 0.59047
 C332 C 0.17319 -0.06099 0.56661
 C333 C 0.19101 -0.03242 0.54600
 C334 C 0.23201 -0.02318 0.54936
 C335 C 0.25524 -0.04290 0.57360
 H336 H 0.12650 -0.12081 0.61095
 H337 H 0.12866 -0.16554 0.66112
 H338 H 0.25436 -0.13931 0.67370
 H339 H 0.14191 -0.06805 0.56429
 H340 H 0.17295 -0.01761 0.52739
 H341 H 0.28647 -0.03615 0.57703
 C342 C 0.70314 -0.22402 0.35090
 C343 C 0.67235 -0.20109 0.34713
 C344 C 0.64279 -0.20486 0.32249
 C345 C 0.64472 -0.23367 0.30088
 C346 C 0.67582 -0.25830 0.30423
 C347 C 0.70565 -0.25315 0.32964
 O348 O 0.72791 -0.21548 0.37629
 C349 C 0.71220 -0.18665 0.38874
 C350 C 0.67812 -0.17693 0.37178
 C351 C 0.65622 -0.14814 0.38077
 C352 C 0.67003 -0.12832 0.40843
 C353 C 0.70530 -0.13739 0.42640
 C354 C 0.72672 -0.16707 0.41627
 H355 H 0.61888 -0.18639 0.32013
 H356 H 0.62152 -0.23689 0.28178
 H357 H 0.72970 -0.27135 0.33303
 H358 H 0.62936 -0.14124 0.36705
 H359 H 0.65324 -0.10576 0.41568
 H360 H 0.75363 -0.17479 0.42949
 C361 C 0.57460 0.69694 -0.15061
 C362 C 0.57169 0.66563 -0.12970
 C363 C 0.59198 0.63499 -0.13601
 C364 C 0.61653 0.63670 -0.16493
 C365 C 0.61972 0.66853 -0.18748
 C366 C 0.59780 0.69893 -0.18018
 O367 O 0.55435 0.72355 -0.13905
 C368 C 0.53815 0.70861 -0.11037
 C369 C 0.54744 0.67305 -0.10370
 C370 C 0.53294 0.65199 -0.07534
 C371 C 0.50775 0.66832 -0.05296
 C372 C 0.49867 0.70519 -0.05891
 C373 C 0.51419 0.72564 -0.08793
 H374 H 0.58962 0.61083 -0.11890
 H375 H 0.63285 0.61299 -0.16968
 H376 H 0.59967 0.72388 -0.19624
 H377 H 0.54043 0.62396 -0.07080
 H378 H 0.49576 0.65254 -0.03080
 H379 H 0.50719 0.75373 -0.09316
 C380 C 0.40883 0.28415 -0.16049
 C381 C 0.41851 0.31913 -0.15218
 C382 C 0.40241 0.34910 -0.16939
 C383 C 0.37548 0.34273 -0.19639
 C384 C 0.36576 0.30692 -0.20597
 C385 C 0.38273 0.27726 -0.18758
 O386 O 0.42695 0.25944 -0.14075
 C387 C 0.44875 0.27923 -0.11963
 C388 C 0.44498 0.31593 -0.12570
 C389 C 0.46613 0.34153 -0.10709
 C390 C 0.49208 0.32874 -0.08114
 C391 C 0.49582 0.29098 -0.07396
 C392 C 0.47370 0.26595 -0.09355
 H393 H 0.41034 0.37640 -0.16237
 H394 H 0.36293 0.36572 -0.21032
 H395 H 0.37579 0.24961 -0.19413
 H396 H 0.46292 0.37029 -0.11247
 H397 H 0.50877 0.34818 -0.06630
 H398 H 0.47618 0.23699 -0.08889
 C399 C 0.25252 0.81352 0.13038
 C400 C 0.27114 0.84564 0.11857
 C401 C 0.26400 0.87867 0.13188
 C402 C 0.23770 0.87852 0.15943
 C403 C 0.21907 0.84557 0.17329
 C404 C 0.22543 0.81279 0.15732
 O405 O 0.26628 0.78483 0.11622
 C406 C 0.29431 0.79922 0.09526
 C407 C 0.29837 0.83634 0.09578
 C408 C 0.32789 0.85679 0.07802
 C409 C 0.35445 0.83819 0.05892
 C410 C 0.35108 0.79985 0.05796
 C411 C 0.32020 0.78016 0.07615
 H412 H 0.27946 0.90349 0.12242
 H413 H 0.23312 0.90410 0.17068
 H414 H 0.21250 0.78703 0.16737
 H415 H 0.33087 0.88594 0.07938
 H416 H 0.37774 0.85371 0.04502
 H417 H 0.31720 0.75086 0.07636
 C418 C 0.72472 0.21918 0.16325
 C419 C 0.70049 0.18832 0.16305
 C420 C 0.70329 0.15956 0.18728
 C421 C 0.73245 0.16242 0.21283
 C422 C 0.75850 0.19370 0.21393
 C423 C 0.75436 0.22267 0.18862
 O424 O 0.71635 0.24335 0.13773
 C425 C 0.68626 0.22719 0.12125
 C426 C 0.67567 0.19345 0.13584
 C427 C 0.64502 0.17160 0.12324
 C428 C 0.62400 0.18511 0.09446
 C429 C 0.63368 0.22002 0.07876
 C430 C 0.66560 0.24131 0.09236
 H431 H 0.68369 0.13563 0.18655
 H432 H 0.73464 0.13988 0.23169
 H433 H 0.77354 0.24692 0.18859
 H434 H 0.63738 0.14510 0.13528
 H435 H 0.59988 0.16832 0.08462
 H436 H 0.67372 0.26806 0.08114
 C437 C -0.21492 0.59232 0.73399
 C438 C -0.21763 0.56545 0.75994
 C439 C -0.24767 0.56266 0.78396
 C440 C -0.27608 0.58888 0.78154
 C441 C -0.27416 0.61765 0.75538
 C442 C -0.24314 0.61889 0.73088
 O443 O -0.18277 0.59053 0.71483
 C444 C -0.16497 0.56202 0.72924
 C445 C -0.18523 0.54588 0.75696
 C446 C -0.17133 0.51688 0.77712
 C447 C -0.13472 0.50399 0.76852
 C448 C -0.11298 0.52003 0.74011
 C449 C -0.12859 0.54922 0.71986
 H450 H -0.24883 0.54136 0.80430
 H451 H -0.29925 0.58676 0.80066
 H452 H -0.24021 0.64038 0.71079
 H453 H -0.18774 0.50502 0.79906
 H454 H -0.12323 0.48156 0.78413
 H455 H -0.11233 0.56230 0.69836
 C456 C -0.10114 0.31313 0.26117
 C457 C -0.07393 0.30829 0.28734
 C458 C -0.07098 0.27603 0.30684
 C459 C -0.09747 0.24739 0.29954
 C460 C -0.12697 0.25117 0.27318
 C461 C -0.12829 0.28476 0.25335
 O462 O -0.09906 0.34670 0.24658
 C463 C -0.07008 0.36315 0.26418
 C464 C -0.05405 0.34067 0.28950
 C465 C -0.02510 0.35226 0.31248
 C466 C -0.01207 0.38873 0.30944
 C467 C -0.02756 0.41266 0.28343
 C468 C -0.05675 0.39966 0.26012
 H469 H -0.04922 0.27308 0.32731
 H470 H -0.09498 0.22235 0.31514
 H471 H -0.15018 0.28905 0.23318
 H472 H -0.01353 0.33403 0.33253
 H473 H 0.01010 0.39845 0.32743
 H474 H -0.06960 0.41764 0.24050
 C475 C 0.20491 0.38366 0.72833
 C476 C 0.19769 0.38970 0.69360
 C477 C 0.22011 0.37515 0.66847
 C478 C 0.25082 0.35300 0.67963
 C479 C 0.25880 0.34626 0.71529
 C480 C 0.23591 0.36238 0.73998
 O481 O 0.17837 0.39782 0.74791
 C482 C 0.15391 0.41308 0.72504
 C483 C 0.16454 0.40905 0.69146
 C484 C 0.14207 0.42150 0.66344
 C485 C 0.10708 0.43862 0.67030
 C486 C 0.09503 0.44257 0.70473
 C487 C 0.11916 0.42985 0.73245
 H488 H 0.21351 0.37984 0.64131
 H489 H 0.26810 0.34070 0.66052
 H490 H 0.24073 0.35693 0.76735
 H491 H 0.15080 0.41760 0.63724
 H492 H 0.08889 0.44791 0.64877
 H493 H 0.11071 0.43214 0.75901
 C494 C 0.11389 0.72185 0.25590
 C495 C 0.09965 0.72065 0.28894
 C496 C 0.10448 0.74961 0.31009
 C497 C 0.12499 0.78113 0.29669
 C498 C 0.14053 0.78313 0.26266
 C499 C 0.13452 0.75273 0.24209
 O500 O 0.10613 0.69141 0.24006
 C501 C 0.08660 0.67045 0.26368
 C502 C 0.08197 0.68706 0.29408
 C503 C 0.06301 0.66988 0.32248
 C504 C 0.04828 0.63412 0.31945
 C505 C 0.05249 0.61627 0.28832
 C506 C 0.07187 0.63495 0.25997
 H507 H 0.09291 0.74800 0.33603
 H508 H 0.12885 0.80376 0.31307
 H509 H 0.14562 0.75280 0.21604
 H510 H 0.05990 0.68343 0.34620
 H511 H 0.03353 0.62037 0.34144
 H512 H 0.07587 0.62212 0.23598
 C513 C 0.69485 -0.23566 0.65629
 C514 C 0.66133 -0.21596 0.65485
 C515 C 0.63031 -0.22250 0.67781
 C516 C 0.63392 -0.25054 0.70334
 C517 C 0.66809 -0.27157 0.70545
 C518 C 0.69897 -0.26397 0.68135
 O519 O 0.72117 -0.22440 0.63240
 C520 C 0.70377 -0.19708 0.61555
 C521 C 0.66706 -0.19092 0.62823
 C522 C 0.64379 -0.16347 0.61469
 C523 C 0.65911 -0.14120 0.58708
 C524 C 0.69718 -0.14657 0.57369
 C525 C 0.71966 -0.17518 0.58815
 H526 H 0.60430 -0.20650 0.67623
 H527 H 0.60983 -0.25593 0.72131
 H528 H 0.72551 -0.27926 0.68230
 H529 H 0.61502 -0.15912 0.62521
 H530 H 0.64152 -0.11941 0.57655
 H531 H 0.74885 -0.17996 0.57873
 C532 C 0.20544 -0.06812 0.33319
 C533 C 0.23121 -0.04178 0.31875
 C534 C 0.24182 -0.04009 0.28437
 C535 C 0.22582 -0.06706 0.26395
 C536 C 0.20014 -0.09556 0.27815
 C537 C 0.18930 -0.09566 0.31333
 O538 O 0.20001 -0.06475 0.36669
 C539 C 0.22305 -0.03582 0.37335
 C540 C 0.24298 -0.02105 0.34483
 C541 C 0.27019 0.00818 0.34599
 C542 C 0.27699 0.02310 0.37792
 C543 C 0.25634 0.00890 0.40750
 C544 C 0.22889 -0.02090 0.40536
 H545 H 0.26225 -0.01907 0.27374
 H546 H 0.23466 -0.06618 0.23722
 H547 H 0.17012 -0.11703 0.32513
 H548 H 0.28596 0.01881 0.32323
 H549 H 0.29816 0.04582 0.37971
 H550 H 0.21329 -0.03234 0.42791
 C551 C 0.79244 0.08373 0.34974
 C552 C 0.82919 0.07422 0.36161
 C553 C 0.86402 0.09224 0.35018
 C554 C 0.86083 0.12147 0.32576
 C555 C 0.82330 0.13170 0.31289
 C556 C 0.78863 0.11220 0.32482
 O557 O 0.76303 0.06424 0.36517
 C558 C 0.78164 0.04190 0.38718
 C559 C 0.82216 0.04672 0.38582
 C560 C 0.84738 0.02647 0.40690
 C561 C 0.83016 0.00023 0.43042
 C562 C 0.78841 -0.00489 0.43281
 C563 C 0.76387 0.01629 0.41070
 H564 H 0.89257 0.08449 0.36017
 H565 H 0.88758 0.13616 0.31687
 H566 H 0.75957 0.11980 0.31591
 H567 H 0.87918 0.03082 0.40542
 H568 H 0.84936 -0.01562 0.44718
 H569 H 0.73193 0.01300 0.41181
 C570 C 0.30265 0.19777 0.64944
 C571 C 0.33356 0.17544 0.65600
 C572 C 0.36052 0.18054 0.68276
 C573 C 0.35550 0.20997 0.70341
 C574 C 0.32413 0.23373 0.69678
 C575 C 0.29724 0.22714 0.66944
 O576 O 0.28057 0.18869 0.62264
 C577 C 0.29792 0.16003 0.61189
 C578 C 0.33054 0.15079 0.63132
 C579 C 0.35365 0.12214 0.62385
 C580 C 0.34272 0.10238 0.59515
 C581 C 0.30912 0.11142 0.57474
 C582 C 0.28636 0.14063 0.58352
 H583 H 0.38467 0.16265 0.68746
 H584 H 0.37637 0.21448 0.72419
 H585 H 0.27291 0.24453 0.66354
 H586 H 0.37937 0.11547 0.63932
 H587 H 0.36049 0.08012 0.58884
 H588 H 0.26080 0.14851 0.56837
   
