data_POSCAR
  _audit_creation_date              2014-09-24
  _audit_creation_method            'ToBaCCo'
  _symmetry_space_group_name_H-M    'P1'
  _symmetry_Int_Tables_number       1
  _symmetry_cell_setting            triclinic
  loop_
  _symmetry_equiv_pos_as_xyz
 x,y,z
_cell_length_a 32.9322
_cell_length_b 30.4998
_cell_length_c 36.2102
_cell_angle_alpha 89.322100
_cell_angle_beta 90.212800
_cell_angle_gamma 89.489300
loop_
  _atom_site_label
  _atom_site_type_symbol
  _atom_site_fract_x
  _atom_site_fract_y
  _atom_site_fract_z
N1 N 0.55399 0.67478 0.59918
 N2 N 0.54584 0.66022 0.63262
 C3 C 0.51152 0.67960 0.64460
 C4 C 0.49758 0.70781 0.61715
 C5 C 0.52543 0.70436 0.58890
 H6 H 0.49848 0.67486 0.67171
 H7 H 0.52530 0.72272 0.56317
 Cu8 Cu 0.58232 0.62012 0.65863
 Cu9 Cu 0.60199 0.65583 0.57237
 Cu10 Cu 0.65948 0.57247 0.61257
 N11 N 0.61038 0.56849 0.67780
 N12 N 0.63947 0.54894 0.65933
 C13 C 0.65252 0.51356 0.67872
 C14 C 0.63019 0.51054 0.71114
 C15 C 0.60427 0.54664 0.70973
 H16 H 0.67789 0.49306 0.67071
 H17 H 0.58176 0.55567 0.73001
 N18 N 0.67425 0.60112 0.56540
 N19 N 0.65170 0.63222 0.54979
 C20 C 0.66970 0.64578 0.51845
 C21 C 0.70590 0.62305 0.51458
 C22 C 0.70747 0.59442 0.54449
 H23 H 0.65768 0.67079 0.49993
 H24 H 0.73154 0.57117 0.55088
 H25 H 0.60216 0.59464 0.59804
 H26 H 0.63818 0.63614 0.61677
 N27 N 0.94472 0.33443 0.10073
 N28 N 0.94740 0.33976 0.13657
 C29 C 0.98053 0.31837 0.14943
 C30 C 1.00047 0.29895 0.11994
 C31 C 0.97614 0.30947 0.08954
 H32 H 0.98799 0.31520 0.17843
 H33 H 0.98100 0.30004 0.06121
 Cu34 Cu 0.90719 0.37351 0.16343
 Cu35 Cu 0.89951 0.35838 0.07179
 Cu36 Cu 0.83641 0.43189 0.11619
 N37 N 0.87729 0.42135 0.18590
 N38 N 0.85015 0.44460 0.16730
 C39 C 0.83560 0.47656 0.18906
 C40 C 0.85428 0.47275 0.22324
 C41 C 0.88092 0.43768 0.22011
 H42 H 0.81353 0.50118 0.18057
 H43 H 0.90230 0.42590 0.24077
 N44 N 0.82784 0.41419 0.06461
 N45 N 0.85193 0.38615 0.04763
 C46 C 0.83678 0.37854 0.01373
 C47 C 0.80174 0.40333 0.00899
 C48 C 0.79677 0.42514 0.04196
 H49 H 0.84939 0.35550 -0.00568
 H50 H 0.77127 0.44571 0.04947
 H51 H 0.89546 0.41233 0.10558
 H52 H 0.85760 0.36770 0.11368
 N53 N 0.44753 0.17111 -0.09644
 N54 N 0.45915 0.15601 -0.12862
 C55 C 0.49352 0.17632 -0.13891
 C56 C 0.50390 0.20560 -0.11173
 C57 C 0.47385 0.20189 -0.08538
 H58 H 0.50918 0.17147 -0.16476
 H59 H 0.47116 0.22061 -0.06031
 Cu60 Cu 0.42663 0.11370 -0.15512
 Cu61 Cu 0.39900 0.14995 -0.07151
 Cu62 Cu 0.34158 0.07291 -0.11769
 N63 N 0.39366 0.07136 -0.18113
 N64 N 0.36074 0.05503 -0.16605
 C65 C 0.34407 0.02614 -0.18934
 C66 C 0.36739 0.02494 -0.22092
 C67 C 0.39883 0.05366 -0.21471
 H68 H 0.31694 0.00747 -0.18387
 H69 H 0.42380 0.06052 -0.23314
 N70 N 0.32715 0.09516 -0.06858
 N71 N 0.34902 0.12435 -0.05090
 C72 C 0.33107 0.13305 -0.01838
 C73 C 0.29653 0.10784 -0.01533
 C74 C 0.29467 0.08476 -0.04790
 H75 H 0.34201 0.15626 0.00160
 H76 H 0.27081 0.06278 -0.05617
 H77 H 0.39775 0.08950 -0.09654
 H78 H 0.36735 0.13449 -0.11892
 N79 N 0.05632 0.82860 0.39509
 N80 N 0.05493 0.83529 0.35923
 C81 C 0.02371 0.81284 0.34498
 C82 C 0.00350 0.79150 0.37358
 C83 C 0.02585 0.80190 0.40492
 H84 H 0.01776 0.81050 0.31570
 H85 H 0.02020 0.79130 0.43301
 Cu86 Cu 0.09362 0.87298 0.33431
 Cu87 Cu 0.09912 0.85260 0.42587
 Cu88 Cu 0.16012 0.93063 0.38495
 N89 N 0.12114 0.92403 0.31425
 N90 N 0.14693 0.94652 0.33413
 C91 C 0.16088 0.98029 0.31375
 C92 C 0.14323 0.97858 0.27908
 C93 C 0.11772 0.94282 0.28052
 H94 H 0.18172 1.00479 0.32357
 H95 H 0.09796 0.93155 0.25874
 N96 N 0.16819 0.90978 0.43609
 N97 N 0.14447 0.88052 0.45199
 C98 C 0.15894 0.87128 0.48608
 C99 C 0.19323 0.89612 0.49190
 C100 C 0.19843 0.91979 0.45953
 H101 H 0.14686 0.84659 0.50458
 H102 H 0.22331 0.94148 0.45317
 H103 H 0.10164 0.90861 0.39327
 H104 H 0.14173 0.86566 0.38530
 C105 C 0.12380 0.16602 0.12721
 N106 N 0.12480 0.13883 0.15721
 C107 C 0.15159 0.10472 0.15880
 N108 N 0.17670 0.09743 0.12984
 C109 C 0.17540 0.12384 0.09942
 N110 N 0.14901 0.15835 0.09835
 C111 C 0.37222 0.83992 0.62987
 N112 N 0.34106 0.84315 0.60532
 C113 C 0.31367 0.87657 0.60758
 N114 N 0.31819 0.90739 0.63403
 C115 C 0.34957 0.90455 0.65841
 N116 N 0.37645 0.87071 0.65631
 C117 C 0.87979 0.66123 0.36730
 N118 N 0.87924 0.63005 0.34090
 C119 C 0.85029 0.59856 0.34148
 N120 N 0.82104 0.59941 0.36790
 C121 C 0.82120 0.63089 0.39418
 N122 N 0.85126 0.66103 0.39416
 C123 C 0.62563 0.33916 -0.12662
 N124 N 0.65382 0.34780 -0.10033
 C125 C 0.67987 0.38177 -0.10489
 N126 N 0.67807 0.40642 -0.13639
 C127 C 0.65005 0.39767 -0.16283
 N128 N 0.62361 0.36431 -0.15770
 C129 C 0.06797 0.20571 0.09568
 C130 C 0.03853 0.23862 0.09340
 C131 C 0.03493 0.27071 0.12090
 C132 C 0.06522 0.27153 0.14926
 C133 C 0.09429 0.23682 0.15221
 C134 C 0.09487 0.20326 0.12554
 C135 C 0.12330 0.23806 0.18083
 N136 N 0.12427 0.27267 0.20389
 N137 N 0.09869 0.30641 0.19990
 C138 C 0.06977 0.30736 0.17316
 H139 H 0.06871 0.18081 0.07457
 H140 H 0.01698 0.23697 0.07084
 H141 H 0.14596 0.21254 0.18454
 H142 H 0.05215 0.33711 0.16987
 C143 C 0.44280 0.81620 0.61957
 C144 C 0.47288 0.78428 0.61572
 C145 C 0.46379 0.73972 0.61972
 C146 C 0.42328 0.72702 0.62699
 C147 C 0.39252 0.75957 0.63053
 C148 C 0.40259 0.80445 0.62675
 C149 C 0.35275 0.74599 0.63840
 N150 N 0.34440 0.70265 0.64157
 N151 N 0.37310 0.67207 0.63749
 C152 C 0.41219 0.68272 0.63027
 H153 H 0.45089 0.85042 0.61658
 H154 H 0.50374 0.79449 0.61025
 H155 H 0.32827 0.76933 0.64223
 H156 H 0.43407 0.65647 0.62691
 C157 C 0.93752 0.69725 0.39698
 C158 C 0.96674 0.72972 0.39911
 C159 C 0.97020 0.76243 0.37150
 C160 C 0.94067 0.76344 0.34240
 C161 C 0.91209 0.72889 0.33951
 C162 C 0.91089 0.69562 0.36701
 C163 C 0.88400 0.73003 0.31011
 N164 N 0.88318 0.76461 0.28632
 N165 N 0.90800 0.79840 0.29035
 C166 C 0.93610 0.79936 0.31778
 H167 H 0.93620 0.67252 0.41868
 H168 H 0.98784 0.72765 0.42204
 H169 H 0.86211 0.70428 0.30623
 H170 H 0.95287 0.82924 0.32101
 C171 C 0.55555 0.31481 -0.11609
 C172 C 0.52626 0.28253 -0.11177
 C173 C 0.53689 0.23802 -0.11318
 C174 C 0.57820 0.22580 -0.11771
 C175 C 0.60810 0.25873 -0.12167
 C176 C 0.59640 0.30348 -0.12114
 C177 C 0.64873 0.24562 -0.12670
 N178 N 0.65863 0.20237 -0.12698
 N179 N 0.63068 0.17146 -0.12264
 C180 C 0.59087 0.18165 -0.11797
 H181 H 0.54625 0.34897 -0.11562
 H182 H 0.49481 0.29239 -0.10838
 H183 H 0.67268 0.26928 -0.13044
 H184 H 0.56964 0.15516 -0.11419
 C185 C 0.11431 0.05874 0.20354
 C186 C 0.11234 0.02733 0.23166
 C187 C 0.14774 0.01041 0.24821
 C188 C 0.18610 0.02527 0.23573
 C189 C 0.18809 0.05805 0.20761
 C190 C 0.15177 0.07416 0.19087
 C191 C 0.22657 0.07405 0.19766
 N192 N 0.26057 0.05641 0.21320
 N193 N 0.25877 0.02406 0.23810
 C194 C 0.22281 0.00781 0.24980
 H195 H 0.08625 0.07049 0.19105
 H196 H 0.08278 0.01642 0.24083
 H197 H 0.23010 0.10075 0.17814
 H198 H 0.22345 -0.01893 0.26959
 C199 C 0.63493 0.46886 -0.19243
 C200 C 0.62831 0.49569 -0.22322
 C201 C 0.63465 0.48025 -0.25927
 C202 C 0.64593 0.43530 -0.26383
 C203 C 0.65291 0.40817 -0.23216
 C204 C 0.64709 0.42526 -0.19640
 C205 C 0.66516 0.36437 -0.23731
 N206 N 0.66783 0.34806 -0.27184
 N207 N 0.65877 0.37248 -0.30148
 C208 C 0.64750 0.41518 -0.29868
 H209 H 0.62994 0.48215 -0.16517
 H210 H 0.61971 0.52950 -0.21844
 H211 H 0.67244 0.34287 -0.21421
 H212 H 0.63843 0.43212 -0.32369
 C213 C 0.35532 0.92199 0.72439
 C214 C 0.35880 0.95107 0.75353
 C215 C 0.36171 0.99625 0.74693
 C216 C 0.36013 1.01256 0.71011
 C217 C 0.35654 0.98289 0.68037
 C218 C 0.35393 0.93726 0.68779
 C219 C 0.35650 1.00002 0.64412
 N220 N 0.35839 1.04396 0.63831
 N221 N 0.36044 1.07187 0.66624
 C222 C 0.36129 1.05773 0.70188
 H223 H 0.35333 0.88721 0.73049
 H224 H 0.35997 0.93810 0.78151
 H225 H 0.35531 0.97904 0.62032
 H226 H 0.36249 1.08201 0.72333
 C227 C 0.85345 0.57832 0.27582
 C228 C 0.85347 0.54816 0.24728
 C229 C 0.85056 0.50312 0.25468
 C230 C 0.84632 0.48835 0.29177
 C231 C 0.84686 0.51907 0.32096
 C232 C 0.85013 0.56453 0.31272
 C233 C 0.84513 0.50291 0.35750
 N234 N 0.84087 0.45935 0.36406
 N235 N 0.83847 0.43080 0.33663
 C236 C 0.84095 0.44377 0.30078
 H237 H 0.85600 0.61289 0.26900
 H238 H 0.85679 0.56008 0.21916
 H239 H 0.84755 0.52420 0.38100
 H240 H 0.83822 0.41911 0.27978
 C241 C 0.22370 0.15425 0.05413
 C242 C 0.25374 0.15033 0.02744
 C243 C 0.26588 0.10915 0.01454
 C244 C 0.24742 0.07094 0.02938
 C245 C 0.21580 0.07501 0.05578
 C246 C 0.20461 0.11714 0.06891
 C247 C 0.19605 0.03658 0.06762
 N248 N 0.20909 -0.00312 0.05585
 N249 N 0.24035 -0.00707 0.03292
 C250 C 0.26003 0.02848 0.01942
 H251 H 0.21580 0.18670 0.06381
 H252 H 0.26738 0.17992 0.01648
 H253 H 0.17000 0.03752 0.08560
 H254 H 0.28565 0.02299 0.00150
 C255 C 0.77836 0.59095 0.43912
 C256 C 0.75171 0.58913 0.46887
 C257 C 0.73599 0.62753 0.48440
 C258 C 0.74795 0.66881 0.46970
 C259 C 0.77347 0.67062 0.43817
 C260 C 0.78996 0.63124 0.42360
 C261 C 0.78100 0.71203 0.42204
 N262 N 0.76708 0.74894 0.43838
 N263 N 0.74592 0.74735 0.46959
 C264 C 0.73608 0.70867 0.48588
 H265 H 0.79051 0.56049 0.42849
 H266 H 0.74302 0.55730 0.47967
 H267 H 0.79712 0.71564 0.39631
 H268 H 0.71971 0.70971 0.51161
 C269 C 0.73200 0.35395 -0.06134
 C270 C 0.76201 0.35911 -0.03466
 C271 C 0.77215 0.40077 -0.02185
 C272 C 0.75218 0.43821 -0.03720
 C273 C 0.72082 0.43292 -0.06385
 C274 C 0.71106 0.39024 -0.07630
 C275 C 0.69972 0.47068 -0.07631
 N276 N 0.71110 0.51086 -0.06469
 N277 N 0.74190 0.51591 -0.04128
 C278 C 0.76285 0.48106 -0.02722
 H279 H 0.72513 0.32112 -0.07047
 H280 H 0.77679 0.33007 -0.02327
 H281 H 0.67397 0.46892 -0.09472
 H282 H 0.78791 0.48733 -0.00876
 C283 C 0.29198 0.87865 0.54245
 C284 C 0.26319 0.88444 0.51460
 C285 C 0.22230 0.89224 0.52302
 C286 C 0.21034 0.89479 0.56053
 C287 C 0.23972 0.88863 0.58901
 C288 C 0.28098 0.88098 0.57969
 C289 C 0.22648 0.88952 0.62590
 N290 N 0.18693 0.89793 0.63357
 N291 N 0.15970 0.90533 0.60690
 C292 C 0.17003 0.90414 0.57071
 H293 H 0.32335 0.87291 0.53481
 H294 H 0.27288 0.88218 0.48612
 H295 H 0.24696 0.88317 0.64876
 H296 H 0.14666 0.91091 0.55037
   
