data_POSCAR
  _audit_creation_date              2014-09-24
  _audit_creation_method            'ToBaCCo'
  _symmetry_space_group_name_H-M    'P1'
  _symmetry_Int_Tables_number       1
  _symmetry_cell_setting            triclinic
  loop_
  _symmetry_equiv_pos_as_xyz
 x,y,z
_cell_length_a 39.0622
_cell_length_b 38.8592
_cell_length_c 54.6827
_cell_angle_alpha 89.981800
_cell_angle_beta 90.046800
_cell_angle_gamma 120.508800
loop_
  _atom_site_label
  _atom_site_type_symbol
  _atom_site_fract_x
  _atom_site_fract_y
  _atom_site_fract_z
C1 C -0.01830 0.49434 1.24819
 C2 C 0.02201 0.51332 1.24844
 C3 C 0.04491 0.52354 1.27156
 C4 C 0.04514 0.52451 1.22550
 C5 C -0.04096 0.48288 1.22494
 C6 C -0.04175 0.48406 1.27110
 C7 C 0.07097 0.56350 1.27758
 C8 C 0.09211 0.57362 1.29955
 C9 C 0.08840 0.54388 1.31621
 C10 C 0.06218 0.50346 1.30947
 C11 C 0.04076 0.49360 1.28757
 C12 C 0.05514 0.56030 1.21361
 C13 C 0.07795 0.57121 1.19226
 C14 C 0.09033 0.54596 1.18207
 C15 C 0.07948 0.50971 1.19405
 C16 C 0.05775 0.49950 1.21577
 C17 C -0.04108 0.45386 1.20965
 C18 C -0.06349 0.44237 1.18813
 C19 C -0.08662 0.45933 1.18167
 C20 C -0.08651 0.48831 1.19713
 C21 C -0.06398 0.49985 1.21862
 C22 C -0.07041 0.44415 1.27591
 C23 C -0.09222 0.43383 1.29761
 C24 C -0.08601 0.46333 1.31482
 C25 C -0.05774 0.50343 1.30975
 C26 C -0.03587 0.51371 1.28804
 H27 H 0.07485 0.58707 1.26529
 H28 H 0.11292 0.60501 1.30245
 H29 H 0.05600 0.47889 1.32148
 H30 H 0.02058 0.46247 1.28318
 H31 H 0.04578 0.58003 1.22108
 H32 H 0.08635 0.59975 1.18405
 H33 H 0.05019 0.47173 1.22484
 H34 H -0.02426 0.43972 1.21455
 H35 H -0.06272 0.42018 1.17655
 H36 H -0.10452 0.50142 1.19290
 H37 H -0.06459 0.52193 1.23041
 H38 H -0.07555 0.42091 1.26296
 H39 H -0.11426 0.40279 1.30084
 H40 H -0.05221 0.52676 1.32272
 H41 H -0.01429 0.54477 1.28446
 H42 H 0.08744 0.48892 1.18661
 C43 C 0.50832 0.48882 1.25020
 C44 C 0.48799 0.50884 1.25019
 C45 C 0.47461 0.51864 1.27326
 C46 C 0.47815 0.52222 1.22712
 C47 C 0.51873 0.47599 1.22712
 C48 C 0.52142 0.47878 1.27330
 C49 C 0.45174 0.48898 1.29054
 C50 C 0.43996 0.49896 1.31228
 C51 C 0.45034 0.53870 1.31697
 C52 C 0.47230 0.56805 1.29929
 C53 C 0.48428 0.55811 1.27770
 C54 C 0.43881 0.51221 1.22262
 C55 C 0.42888 0.52428 1.20104
 C56 C 0.45811 0.54666 1.18345
 C57 C 0.49770 0.55734 1.18820
 C58 C 0.50767 0.54550 1.20993
 C59 C 0.55818 0.48608 1.22297
 C60 C 0.56866 0.47451 1.20141
 C61 C 0.53988 0.45255 1.18348
 C62 C 0.50019 0.44184 1.18786
 C63 C 0.48967 0.45318 1.20956
 C64 C 0.54414 0.50831 1.29068
 C65 C 0.55581 0.49819 1.31241
 C66 C 0.54553 0.45845 1.31698
 C67 C 0.52363 0.42919 1.29923
 C68 C 0.51174 0.43928 1.27764
 H69 H 0.44322 0.45816 1.28726
 H70 H 0.42323 0.47568 1.32554
 H71 H 0.47999 0.59875 1.30206
 H72 H 0.50146 0.58136 1.26449
 H73 H 0.41568 0.49472 1.23578
 H74 H 0.39829 0.51633 1.19822
 H75 H 0.53838 0.55431 1.21328
 H76 H 0.58099 0.50324 1.23640
 H77 H 0.59931 0.48247 1.19890
 H78 H 0.47734 0.42512 1.17438
 H79 H 0.45888 0.44432 1.21261
 H80 H 0.55266 0.53915 1.28747
 H81 H 0.57247 0.52139 1.32575
 H82 H 0.51599 0.39849 1.30191
 H83 H 0.49466 0.41613 1.26433
 H84 H 0.52088 0.57439 1.17500
 C85 C 0.51016 1.02002 1.25195
 C86 C 0.48895 0.97930 1.25185
 C87 C 0.47761 0.95567 1.27486
 C88 C 0.47599 0.95605 1.22870
 C89 C 0.52273 1.04359 1.22893
 C90 C 0.52171 1.04337 1.27505
 C91 C 0.50619 0.96034 1.29213
 C92 C 0.49483 0.93774 1.31365
 C93 C 0.45444 0.90948 1.31843
 C94 C 0.42618 0.90471 1.30052
 C95 C 0.43767 0.92738 1.27912
 C96 C 0.48584 0.92655 1.22438
 C97 C 0.47465 0.90481 1.20262
 C98 C 0.45331 0.91209 1.18465
 C99 C 0.44265 0.94106 1.18925
 C100 C 0.45362 0.96261 1.21116
 C101 C 0.51177 1.07220 1.22470
 C102 C 0.52250 1.09420 1.20304
 C103 C 0.54485 1.08843 1.18486
 C104 C 0.55658 1.06009 1.18968
 C105 C 0.54576 1.03813 1.21144
 C106 C 0.49326 1.03859 1.29242
 C107 C 0.50477 1.06109 1.31397
 C108 C 0.54519 1.08935 1.31869
 C109 C 0.57334 1.09415 1.30072
 C110 C 0.56169 1.07159 1.27928
 H111 H 0.53733 0.98168 1.28902
 H112 H 0.51792 0.94386 1.32680
 H113 H 0.39509 0.88234 1.30229
 H114 H 0.41520 0.92282 1.26579
 H115 H 0.50264 0.92066 1.23781
 H116 H 0.48250 0.88207 1.19993
 H117 H 0.44496 0.98464 1.21436
 H118 H 0.49456 1.07736 1.23819
 H119 H 0.51425 1.11676 1.20123
 H120 H 0.57271 1.05327 1.17635
 H121 H 0.55497 1.01648 1.21452
 H122 H 0.46208 1.01728 1.28934
 H123 H 0.48178 1.05492 1.32718
 H124 H 0.60444 1.11651 1.30246
 H125 H 0.58405 1.07622 1.26587
 H126 H 0.42637 0.94751 1.17576
 C127 C 1.01943 0.50625 0.75162
 C128 C 0.97910 0.48633 0.75204
 C129 C 0.95602 0.47554 0.72906
 C130 C 0.95629 0.47572 0.77522
 C131 C 1.04345 0.51753 0.77431
 C132 C 1.04150 0.51757 0.72823
 C133 C 0.94594 0.50211 0.71863
 C134 C 0.92493 0.49265 0.69662
 C135 C 0.91245 0.45579 0.68499
 C136 C 0.92232 0.42903 0.69585
 C137 C 0.94434 0.43907 0.71751
 C138 C 0.96162 0.50544 0.79196
 C139 C 0.93974 0.49516 0.81369
 C140 C 0.91205 0.45497 0.81901
 C141 C 0.90670 0.42536 0.80213
 C142 C 0.92849 0.43567 0.78042
 C143 C 1.03974 0.48850 0.79101
 C144 C 1.06249 0.49967 0.81241
 C145 C 1.08948 0.54034 0.81775
 C146 C 1.09298 0.56915 0.80056
 C147 C 1.07050 0.55781 0.77911
 C148 C 1.06020 0.49709 0.72015
 C149 C 1.08158 0.50786 0.69825
 C150 C 1.08516 0.53986 0.68390
 C151 C 1.06599 0.56019 0.69243
 C152 C 1.04462 0.54923 0.71432
 H153 H 0.95495 0.53047 0.72736
 H154 H 0.91889 0.51452 0.68866
 H155 H 0.91265 0.40005 0.68785
 H156 H 0.95201 0.41829 0.72540
 H157 H 0.98260 0.53658 0.78815
 H158 H 0.94468 0.51859 0.82641
 H159 H 0.92382 0.41227 0.76775
 H160 H 1.01905 0.45716 0.78750
 H161 H 1.05744 0.47622 0.82512
 H162 H 1.11426 0.60059 0.80295
 H163 H 1.07405 0.58062 0.76626
 H164 H 1.05842 0.47283 0.73093
 H165 H 1.09669 0.49201 0.69340
 H166 H 1.06608 0.58384 0.68197
 H167 H 1.03050 0.56553 0.72044
 H168 H 0.88516 0.39423 0.80554
 C169 C 0.49078 0.51066 0.74989
 C170 C 0.51086 0.49048 0.75004
 C171 C 0.52366 0.48004 0.72704
 C172 C 0.52113 0.47781 0.77320
 C173 C 0.48067 0.52381 0.77288
 C174 C 0.47777 0.52057 0.72674
 C175 C 0.51176 0.44007 0.72218
 C176 C 0.52338 0.42972 0.70058
 C177 C 0.54751 0.45925 0.68354
 C178 C 0.55985 0.49938 0.68861
 C179 C 0.54809 0.50969 0.71020
 C180 C 0.49157 0.45353 0.79009
 C181 C 0.50173 0.44189 0.81181
 C182 C 0.54160 0.45416 0.81697
 C183 C 0.57103 0.47811 0.79987
 C184 C 0.56084 0.48964 0.77815
 C185 C 0.51032 0.54842 0.78965
 C186 C 0.50024 0.56030 0.81130
 C187 C 0.46037 0.54793 0.81647
 C188 C 0.43087 0.52376 0.79945
 C189 C 0.44097 0.51198 0.77782
 C190 C 0.48934 0.56038 0.72162
 C191 C 0.47739 0.57023 0.69994
 C192 C 0.45329 0.54036 0.68305
 C193 C 0.44129 0.50039 0.68837
 C194 C 0.45334 0.49057 0.71006
 H195 H 0.49316 0.41683 0.73505
 H196 H 0.51396 0.39866 0.69734
 H197 H 0.57827 0.52273 0.67576
 H198 H 0.55805 0.54079 0.71381
 H199 H 0.46067 0.44358 0.78642
 H200 H 0.47845 0.42360 0.82469
 H201 H 0.58401 0.50811 0.76525
 H202 H 0.54121 0.55837 0.78598
 H203 H 0.52357 0.57877 0.82413
 H204 H 0.40001 0.51434 0.80275
 H205 H 0.41774 0.49327 0.76500
 H206 H 0.50790 0.58389 0.73437
 H207 H 0.48655 0.60119 0.69654
 H208 H 0.42288 0.47678 0.67565
 H209 H 0.44359 0.45957 0.71386
 H210 H 0.60189 0.48745 0.80315
 C211 C 0.49171 -0.02020 0.74804
 C212 C 0.51175 0.02053 0.74811
 C213 C 0.52476 0.04411 0.72508
 C214 C 0.52179 0.04379 0.77126
 C215 C 0.48086 -0.04366 0.77109
 C216 C 0.47930 -0.04366 0.72497
 C217 C 0.54774 0.03823 0.70767
 C218 C 0.55931 0.06050 0.68604
 C219 C 0.54865 0.08951 0.68159
 C220 C 0.52651 0.09595 0.69938
 C221 C 0.51472 0.07349 0.72087
 C222 C 0.56124 0.07363 0.77579
 C223 C 0.57143 0.09549 0.79751
 C224 C 0.54235 0.08798 0.81522
 C225 C 0.50265 0.05859 0.81042
 C226 C 0.49242 0.03694 0.78855
 C227 C 0.44113 -0.07251 0.77547
 C228 C 0.43009 -0.09445 0.79715
 C229 C 0.45861 -0.08836 0.81520
 C230 C 0.49881 -0.05973 0.81024
 C231 C 0.50971 -0.03785 0.78846
 C232 C 0.45577 -0.03861 0.70763
 C233 C 0.44429 -0.06110 0.68607
 C234 C 0.45581 -0.08962 0.68132
 C235 C 0.47898 -0.09472 0.69927
 C236 C 0.49037 -0.07218 0.72072
 H237 H 0.55659 0.01632 0.71080
 H238 H 0.57618 0.05467 0.67267
 H239 H 0.51859 0.11867 0.69681
 H240 H 0.49744 0.07886 0.73419
 H241 H 0.58427 0.07974 0.76255
 H242 H 0.60211 0.11853 0.80035
 H243 H 0.46163 0.01465 0.78519
 H244 H 0.41848 -0.07792 0.76207
 H245 H 0.39916 -0.11721 0.79909
 H246 H 0.52205 -0.05264 0.82347
 H247 H 0.54070 -0.01601 0.78527
 H248 H 0.44645 -0.01705 0.71073
 H249 H 0.42764 -0.05471 0.67288
 H250 H 0.48722 -0.11728 0.69750
 H251 H 0.50797 -0.07702 0.73410
 H252 H 0.47956 0.05191 0.82370
 O253 O 0.39651 0.67249 0.97223
 O254 O 0.39666 0.73874 0.97849
 C255 C 0.37164 0.74372 0.96648
 O256 O 0.33505 0.72595 0.97176
 O257 O 0.26874 0.65939 0.97773
 C258 C 0.26310 0.62852 0.96624
 O259 O 0.28026 0.60940 0.97191
 O260 O 0.34657 0.61027 0.97819
 C261 C 0.37729 0.63579 0.96661
 O262 O 0.39787 0.66319 1.02123
 O263 O 0.39467 0.72770 1.02738
 C264 C 0.37431 0.74367 1.03269
 O265 O 0.34349 0.73686 1.02081
 O266 O 0.27836 0.66864 1.02659
 C267 C 0.26274 0.63213 1.03226
 O268 O 0.26977 0.60780 1.02097
 O269 O 0.33699 0.61121 1.02707
 C270 C 0.37337 0.63178 1.03272
 Cr271 Cr 0.39409 0.69929 0.99982
 Cr272 Cr 0.30765 0.69663 0.99924
 Cr273 Cr 0.30951 0.61201 0.99952
 O274 O 0.33704 0.66928 0.99958
 O275 O 0.60425 0.32796 0.97238
 O276 O 0.60264 0.26114 0.97948
 C277 C 0.62764 0.25633 0.96729
 O278 O 0.66433 0.27419 0.97244
 O279 O 0.73128 0.34017 0.97980
 C280 C 0.73650 0.37030 0.96753
 O281 O 0.71872 0.38908 0.97245
 O282 O 0.65347 0.39012 0.97946
 C283 C 0.62337 0.36484 0.96725
 O284 O 0.60245 0.33853 1.02118
 O285 O 0.60431 0.27349 1.02834
 C286 C 0.62347 0.25617 1.03347
 O287 O 0.65341 0.26148 1.02118
 O288 O 0.71836 0.32914 1.02853
 C289 C 0.73606 0.36603 1.03360
 O290 O 0.73109 0.39098 1.02129
 O291 O 0.66403 0.38861 1.02827
 C292 C 0.62732 0.36900 1.03332
 Cr293 Cr 0.60559 0.30139 1.00035
 Cr294 Cr 0.69075 0.30234 1.00048
 Cr295 Cr 0.69073 0.38749 1.00037
 O296 O 0.66235 0.33041 1.00038
 O297 O 0.67311 0.39775 0.52775
 O298 O 0.73987 0.40049 0.52108
 C299 C 0.74614 0.37574 0.53252
 O300 O 0.72997 0.33920 0.52684
 O301 O 0.66451 0.27142 0.52067
 C302 C 0.63386 0.26492 0.53261
 O303 O 0.61409 0.28165 0.52758
 O304 O 0.61181 0.34676 0.52152
 C305 C 0.63668 0.37764 0.53333
 O306 O 0.66296 0.39937 0.47887
 O307 O 0.72848 0.39912 0.47209
 C308 C 0.74549 0.37989 0.46635
 O309 O 0.74005 0.34918 0.47798
 O310 O 0.67322 0.28296 0.47172
 C311 C 0.63652 0.26522 0.46665
 O312 O 0.61180 0.27057 0.47871
 O313 O 0.61281 0.33735 0.47257
 C314 C 0.63220 0.37412 0.46719
 Cr315 Cr 0.70000 0.39689 0.49993
 Cr316 Cr 0.70076 0.31181 0.49932
 Cr317 Cr 0.61494 0.31029 0.50008
 O318 O 0.67192 0.33967 0.49981
 O319 O 0.32524 0.60200 0.52821
 O320 O 0.25890 0.60102 0.52134
 C321 C 0.25446 0.62643 0.53348
 O322 O 0.27250 0.66325 0.52818
 O323 O 0.33830 0.73015 0.52091
 C324 C 0.36835 0.73524 0.53302
 O325 O 0.38684 0.71723 0.52795
 O326 O 0.38711 0.65125 0.52100
 C327 C 0.36197 0.62109 0.53324
 O328 O 0.33511 0.59984 0.47929
 O329 O 0.27049 0.60217 0.47247
 C330 C 0.25386 0.62198 0.46727
 O331 O 0.25981 0.65248 0.47938
 O332 O 0.32728 0.71752 0.47217
 C333 C 0.36392 0.73488 0.46700
 O334 O 0.38853 0.72930 0.47909
 O335 O 0.38537 0.66155 0.47226
 C336 C 0.36562 0.62466 0.46722
 Cr337 Cr 0.29858 0.60348 0.50032
 Cr338 Cr 0.30052 0.68969 0.50017
 Cr339 Cr 0.38474 0.68874 0.50007
 O340 O 0.32795 0.66063 0.50016
 C341 C 0.41549 0.57259 0.38292
 C342 C 0.45350 0.59769 0.37317
 C343 C 0.46490 0.58602 0.35191
 C344 C 0.43845 0.54977 0.34014
 C345 C 0.40053 0.52474 0.35035
 C346 C 0.38891 0.53602 0.37176
 C347 C 0.40310 0.58514 0.40503
 C348 C 0.36499 0.56023 0.41472
 C349 C 0.35309 0.57275 0.43549
 C350 C 0.37888 0.61014 0.44629
 C351 C 0.41714 0.63451 0.43638
 C352 C 0.42942 0.62214 0.41582
 C353 C 0.35109 0.51176 0.38207
 C354 C 0.33936 0.52363 0.40321
 C355 C 0.47922 0.63420 0.38471
 C356 C 0.46734 0.64627 0.40565
 H357 H 0.33030 0.48345 0.37366
 H358 H 0.30986 0.50413 0.41048
 H359 H 0.50864 0.65380 0.37737
 H360 H 0.48793 0.67484 0.41386
 H361 H 0.49440 0.60517 0.34452
 H362 H 0.37976 0.49700 0.34134
 H363 H 0.32351 0.55388 0.44285
 H364 H 0.43733 0.66325 0.44458
 C365 C 0.41765 0.83860 0.38286
 C366 C 0.39097 0.84674 0.37067
 C367 C 0.40348 0.87062 0.34964
 C368 C 0.44249 0.88638 0.34031
 C369 C 0.46893 0.87802 0.35327
 C370 C 0.45663 0.85419 0.37440
 C371 C 0.40434 0.81292 0.40480
 C372 C 0.43088 0.80437 0.41689
 C373 C 0.41782 0.77936 0.43750
 C374 C 0.37842 0.76277 0.44592
 C375 C 0.35237 0.77204 0.43360
 C376 C 0.36516 0.79705 0.41307
 C377 C 0.48244 0.84512 0.38706
 C378 C 0.46979 0.82067 0.40794
 C379 C 0.35212 0.83070 0.37970
 C380 C 0.33941 0.80621 0.40051
 H381 H 0.51264 0.85690 0.38072
 H382 H 0.49060 0.81431 0.41707
 H383 H 0.33125 0.83686 0.37048
 H384 H 0.30912 0.79419 0.40674
 H385 H 0.38280 0.87775 0.34117
 H386 H 0.49857 0.88821 0.34649
 H387 H 0.43813 0.77239 0.44672
 H388 H 0.32201 0.75957 0.43985
 C389 C 0.15457 0.57521 0.38148
 C390 C 0.14025 0.53710 0.37152
 C391 C 0.11762 0.52646 0.34997
 C392 C 0.10947 0.55384 0.33773
 C393 C 0.12435 0.59215 0.34856
 C394 C 0.14660 0.60277 0.37024
 C395 C 0.17880 0.58667 0.40398
 C396 C 0.19301 0.62483 0.41399
 C397 C 0.21662 0.63584 0.43513
 C398 C 0.22659 0.60919 0.44601
 C399 C 0.21182 0.57090 0.43578
 C400 C 0.18779 0.55945 0.41482
 C401 C 0.16106 0.64061 0.38092
 C402 C 0.18382 0.65143 0.40243
 C403 C 0.14948 0.51047 0.38308
 C404 C 0.17293 0.52149 0.40432
 H405 H 0.15495 0.66217 0.37248
 H406 H 0.19459 0.68097 0.40995
 H407 H 0.13872 0.48093 0.37556
 H408 H 0.17960 0.50017 0.41252
 H409 H 0.10885 0.49755 0.34220
 H410 H 0.11728 0.61355 0.34105
 H411 H 0.22809 0.66549 0.44270
 H412 H 0.21920 0.55010 0.44402
 C413 C 0.58110 0.42484 0.38278
 C414 C 0.54310 0.39949 0.37306
 C415 C 0.53144 0.41101 0.35182
 C416 C 0.55763 0.44736 0.34007
 C417 C 0.59557 0.47257 0.35022
 C418 C 0.60743 0.46146 0.37160
 C419 C 0.59374 0.41252 0.40490
 C420 C 0.63184 0.43772 0.41455
 C421 C 0.64398 0.42549 0.43533
 C422 C 0.61847 0.38811 0.44622
 C423 C 0.58023 0.36339 0.43635
 C424 C 0.56770 0.37549 0.41574
 C425 C 0.64525 0.48597 0.38186
 C426 C 0.65723 0.47434 0.40300
 C427 C 0.51765 0.36294 0.38464
 C428 C 0.52978 0.35109 0.40559
 H429 H 0.66585 0.51432 0.37342
 H430 H 0.68672 0.49403 0.41024
 H431 H 0.48824 0.34314 0.37732
 H432 H 0.50939 0.32249 0.41382
 H433 H 0.50195 0.39169 0.34445
 H434 H 0.61617 0.50036 0.34121
 H435 H 0.67357 0.44462 0.44264
 H436 H 0.56029 0.33464 0.44460
 C437 C 0.58236 0.16061 0.38295
 C438 C 0.54332 0.14494 0.37453
 C439 C 0.53089 0.12095 0.35348
 C440 C 0.55726 0.11251 0.34054
 C441 C 0.59633 0.12833 0.34983
 C442 C 0.60896 0.15237 0.37079
 C443 C 0.59582 0.18652 0.40478
 C444 C 0.63506 0.20250 0.41300
 C445 C 0.64798 0.22776 0.43343
 C446 C 0.62199 0.23713 0.44568
 C447 C 0.58253 0.22041 0.43732
 C448 C 0.56934 0.19518 0.41682
 C449 C 0.64787 0.16851 0.37977
 C450 C 0.66072 0.19320 0.40049
 C451 C 0.51759 0.15411 0.38714
 C452 C 0.53036 0.17877 0.40793
 H453 H 0.66869 0.16226 0.37058
 H454 H 0.69106 0.20529 0.40669
 H455 H 0.48734 0.14227 0.38084
 H456 H 0.50962 0.18522 0.41703
 H457 H 0.50121 0.11072 0.34672
 H458 H 0.61695 0.12114 0.34136
 H459 H 0.67838 0.24031 0.43965
 H460 H 0.56225 0.22746 0.44649
 C461 C 0.84533 0.42993 0.38080
 C462 C 0.85191 0.46411 0.36801
 C463 C 0.87479 0.47519 0.34659
 C464 C 0.89081 0.45220 0.33788
 C465 C 0.88410 0.41814 0.35105
 C466 C 0.86135 0.40686 0.37252
 C467 C 0.82077 0.41778 0.40312
 C468 C 0.81389 0.38340 0.41579
 C469 C 0.78989 0.37155 0.43675
 C470 C 0.77262 0.39369 0.44499
 C471 C 0.78022 0.42835 0.43212
 C472 C 0.80423 0.44048 0.41118
 C473 C 0.85408 0.37283 0.38579
 C474 C 0.83075 0.36130 0.40706
 C475 C 0.83512 0.48626 0.37676
 C476 C 0.81165 0.47462 0.39797
 H477 H 0.86634 0.35482 0.37961
 H478 H 0.82568 0.33472 0.41667
 H479 H 0.83997 0.51268 0.36706
 H480 H 0.79905 0.49240 0.40401
 H481 H 0.87942 0.50116 0.33642
 H482 H 0.89674 0.40058 0.34465
 H483 H 0.78421 0.34477 0.44639
 H484 H 0.76713 0.44567 0.43819
 C485 C 0.57488 0.41825 1.11774
 C486 C 0.59974 0.45631 1.12773
 C487 C 0.58777 0.46755 1.14894
 C488 C 0.55144 0.44088 1.16040
 C489 C 0.52671 0.40289 1.14997
 C490 C 0.53828 0.39145 1.12862
 C491 C 0.58768 0.40605 1.09565
 C492 C 0.56295 0.36791 1.08570
 C493 C 0.57559 0.35622 1.06493
 C494 C 0.61294 0.38221 1.05434
 C495 C 0.63720 0.42047 1.06452
 C496 C 0.62467 0.43257 1.08511
 C497 C 0.51425 0.35359 1.11807
 C498 C 0.52634 0.34205 1.09696
 C499 C 0.63629 0.48223 1.11646
 C500 C 0.64859 0.47052 1.09554
 H501 H 0.48593 0.33262 1.12627
 H502 H 0.50699 0.31252 1.08949
 H503 H 0.65572 0.51170 1.12399
 H504 H 0.67716 0.49128 1.08754
 H505 H 0.60673 0.49710 1.15651
 H506 H 0.49894 0.38192 1.15875
 H507 H 0.55681 0.32661 1.05738
 H508 H 0.66592 0.44078 1.05650
 C509 C 0.83975 0.42026 1.11757
 C510 C 0.84278 0.39217 1.13214
 C511 C 0.86709 0.40518 1.15296
 C512 C 0.88835 0.44600 1.15927
 C513 C 0.88507 0.47379 1.14435
 C514 C 0.86074 0.46106 1.12349
 C515 C 0.81383 0.40662 1.09580
 C516 C 0.81045 0.43461 1.08133
 C517 C 0.78531 0.42136 1.06082
 C518 C 0.76367 0.38041 1.05477
 C519 C 0.76774 0.35287 1.06949
 C520 C 0.79266 0.36578 1.09002
 C521 C 0.85682 0.48823 1.10848
 C522 C 0.83208 0.47523 1.08777
 C523 C 0.82121 0.35156 1.12571
 C524 C 0.79659 0.33859 1.10499
 H525 H 0.87288 0.51981 1.11283
 H526 H 0.82978 0.49716 1.07676
 H527 H 0.82329 0.32960 1.13682
 H528 H 0.78037 0.30699 1.10072
 H529 H 0.86885 0.38345 1.16450
 H530 H 0.90163 0.50530 1.14888
 H531 H 0.78244 0.44287 1.04971
 H532 H 0.75122 0.32128 1.06516
 C533 C 0.57627 0.15605 1.11916
 C534 C 0.59991 0.14083 1.12750
 C535 C 0.58927 0.11810 1.14908
 C536 C 0.55516 0.11054 1.16261
 C537 C 0.53165 0.12595 1.15342
 C538 C 0.54212 0.14869 1.13193
 C539 C 0.58772 0.18057 1.09675
 C540 C 0.56421 0.19611 1.08859
 C541 C 0.57566 0.22015 1.06762
 C542 C 0.61044 0.22880 1.05479
 C543 C 0.63342 0.21249 1.06309
 C544 C 0.62223 0.18845 1.08411
 C545 C 0.51904 0.16433 1.12301
 C546 C 0.52994 0.18770 1.10173
 C547 C 0.63414 0.14915 1.11428
 C548 C 0.64510 0.17253 1.09296
 H549 H 0.49250 0.15875 1.13267
 H550 H 0.51150 0.19948 1.09560
 H551 H 0.65274 0.13763 1.12052
 H552 H 0.67182 0.17838 1.08340
 H553 H 0.60890 0.10814 1.15572
 H554 H 0.50430 0.11936 1.16238
 H555 H 0.55768 0.23246 1.06149
 H556 H 0.66033 0.21903 1.05349
 C557 C 0.42454 0.58179 1.11745
 C558 C 0.46077 0.60858 1.12874
 C559 C 0.47191 0.59689 1.15019
 C560 C 0.44709 0.55867 1.16029
 C561 C 0.41115 0.53202 1.14842
 C562 C 0.39961 0.54351 1.12713
 C563 C 0.41217 0.59423 1.09527
 C564 C 0.37554 0.56770 1.08433
 C565 C 0.36338 0.57999 1.06365
 C566 C 0.38762 0.61849 1.05379
 C567 C 0.42464 0.64453 1.06478
 C568 C 0.43693 0.63261 1.08564
 C569 C 0.36343 0.51759 1.11545
 C570 C 0.35154 0.52953 1.09444
 C571 C 0.48487 0.64667 1.11851
 C572 C 0.47319 0.65845 1.09730
 H573 H 0.34396 0.48796 1.12274
 H574 H 0.32323 0.50877 1.08613
 H575 H 0.51292 0.66763 1.12702
 H576 H 0.49256 0.68816 1.09008
 H577 H 0.49939 0.61781 1.15929
 H578 H 0.39215 0.50230 1.15574
 H579 H 0.33491 0.55962 1.05535
 H580 H 0.44341 0.67431 1.05746
 C581 C 0.16173 0.58018 1.11682
 C582 C 0.13418 0.59281 1.12014
 C583 C 0.11037 0.58089 1.14118
 C584 C 0.11482 0.55755 1.15931
 C585 C 0.14310 0.54562 1.15567
 C586 C 0.16615 0.55634 1.13434
 C587 C 0.18676 0.59252 1.09470
 C588 C 0.21381 0.57925 1.09117
 C589 C 0.23764 0.59121 1.07016
 C590 C 0.23545 0.61732 1.05325
 C591 C 0.20841 0.63060 1.05710
 C592 C 0.18352 0.61779 1.07766
 C593 C 0.19373 0.54387 1.13026
 C594 C 0.21694 0.55488 1.10894
 C595 C 0.13118 0.61737 1.10242
 C596 C 0.15568 0.62993 1.08164
 H597 H 0.19735 0.52537 1.14362
 H598 H 0.23782 0.54458 1.10649
 H599 H 0.11006 0.62736 1.10477
 H600 H 0.15277 0.64927 1.06858
 H601 H 0.08832 0.58971 1.14329
 H602 H 0.14776 0.52851 1.16953
 H603 H 0.25885 0.58140 1.06735
 H604 H 0.20667 0.65065 1.04403
 C605 C 0.42111 0.84438 1.11802
 C606 C 0.39411 0.85354 1.12884
 C607 C 0.40486 0.87606 1.15048
 C608 C 0.44235 0.88945 1.16127
 C609 C 0.46926 0.88048 1.14986
 C610 C 0.45871 0.85775 1.12836
 C611 C 0.40961 0.81981 1.09564
 C612 C 0.43631 0.80993 1.08518
 C613 C 0.42483 0.78559 1.06435
 C614 C 0.38697 0.77124 1.05387
 C615 C 0.36080 0.78207 1.06437
 C616 C 0.37190 0.80614 1.08538
 C617 C 0.48486 0.84777 1.11714
 C618 C 0.47380 0.82417 1.09595
 C619 C 0.35672 0.83953 1.11794
 C620 C 0.34584 0.81630 1.09656
 H621 H 0.51397 0.85797 1.12494
 H622 H 0.49470 0.81681 1.08801
 H623 H 0.33562 0.84641 1.12608
 H624 H 0.31664 0.80593 1.08883
 H625 H 0.38373 0.88236 1.15921
 H626 H 0.49845 0.89121 1.15771
 H627 H 0.44528 0.77761 1.05641
 H628 H 0.33152 0.77101 1.05659
 C629 C 0.58459 0.42614 0.61833
 C630 C 0.61217 0.46005 0.63148
 C631 C 0.59976 0.47102 0.65264
 C632 C 0.56016 0.44819 0.66074
 C633 C 0.53285 0.41435 0.64724
 C634 C 0.54492 0.40320 0.62601
 C635 C 0.59761 0.41419 0.59623
 C636 C 0.57012 0.38014 0.58316
 C637 C 0.58281 0.36858 0.56235
 C638 C 0.62275 0.39076 0.55467
 C639 C 0.64981 0.42502 0.56800
 C640 C 0.63741 0.43683 0.58877
 C641 C 0.51820 0.36944 0.61237
 C642 C 0.53058 0.35812 0.59131
 C643 C 0.65170 0.48208 0.62335
 C644 C 0.66412 0.47064 0.60237
 H645 H 0.48749 0.35153 0.61809
 H646 H 0.50907 0.33178 0.58139
 H647 H 0.67327 0.50827 0.63335
 H648 H 0.69492 0.48832 0.59679
 H649 H 0.62108 0.49679 0.66308
 H650 H 0.50221 0.39689 0.65320
 H651 H 0.56172 0.34211 0.55235
 H652 H 0.68064 0.44234 0.56238
 C653 C 0.58367 0.16041 0.61622
 C654 C 0.61023 0.15076 0.62720
 C655 C 0.59854 0.12715 0.64842
 C656 C 0.56055 0.11318 0.65859
 C657 C 0.53412 0.12264 0.64700
 C658 C 0.54561 0.14645 0.62594
 C659 C 0.59615 0.18611 0.59432
 C660 C 0.56988 0.19647 0.58371
 C661 C 0.58223 0.22180 0.56333
 C662 C 0.62052 0.23664 0.55343
 C663 C 0.64627 0.22537 0.56406
 C664 C 0.63431 0.20032 0.58464
 C665 C 0.51993 0.15696 0.61458
 C666 C 0.53190 0.18164 0.59385
 C667 C 0.64810 0.16535 0.61692
 C668 C 0.65990 0.18964 0.59597
 H669 H 0.49046 0.14632 0.62191
 H670 H 0.51133 0.18935 0.58578
 H671 H 0.66887 0.15810 0.62520
 H672 H 0.68943 0.20041 0.58871
 H673 H 0.61931 0.12049 0.65730
 H674 H 0.50457 0.11148 0.65437
 H675 H 0.56208 0.23009 0.55525
 H676 H 0.67587 0.23680 0.55671
 C677 C 0.84417 0.42457 0.61848
 C678 C 0.87009 0.41010 0.62258
 C679 C 0.89289 0.42101 0.64406
 C680 C 0.88905 0.44523 0.66181
 C681 C 0.86246 0.45908 0.65735
 C682 C 0.84040 0.44929 0.63562
 C683 C 0.82015 0.41321 0.59592
 C684 C 0.79465 0.42819 0.59165
 C685 C 0.77162 0.41701 0.57028
 C686 C 0.77305 0.39004 0.55374
 C687 C 0.79860 0.37514 0.55831
 C688 C 0.82267 0.38709 0.57926
 C689 C 0.81442 0.46353 0.63076
 C690 C 0.79214 0.45338 0.60907
 C691 C 0.87247 0.38475 0.60521
 C692 C 0.84892 0.37317 0.58401
 H693 H 0.81131 0.48272 0.64384
 H694 H 0.77244 0.46498 0.60603
 H695 H 0.89235 0.37336 0.60817
 H696 H 0.85127 0.35315 0.57124
 H697 H 0.91370 0.41073 0.64681
 H698 H 0.85833 0.47696 0.67091
 H699 H 0.75150 0.42805 0.56694
 H700 H 0.79974 0.35440 0.54555
 C701 C 0.41533 0.57251 0.61773
 C702 C 0.45499 0.59583 0.62541
 C703 C 0.46735 0.58490 0.64663
 C704 C 0.44035 0.55097 0.66016
 C705 C 0.40077 0.52770 0.65202
 C706 C 0.38807 0.53842 0.63085
 C707 C 0.40197 0.58432 0.59569
 C708 C 0.36216 0.56138 0.58825
 C709 C 0.34940 0.57318 0.56759
 C710 C 0.37613 0.60772 0.55438
 C711 C 0.41611 0.63011 0.56201
 C712 C 0.42914 0.61860 0.58270
 C713 C 0.34855 0.51603 0.62270
 C714 C 0.33581 0.52733 0.60177
 C715 C 0.48139 0.62976 0.61182
 C716 C 0.46868 0.64095 0.59082
 H717 H 0.32722 0.48967 0.63267
 H718 H 0.30501 0.50937 0.59620
 H719 H 0.51208 0.64796 0.61753
 H720 H 0.48995 0.66746 0.58095
 H721 H 0.49797 0.60269 0.65259
 H722 H 0.37967 0.50184 0.66246
 H723 H 0.31858 0.55567 0.56197
 H724 H 0.43697 0.65681 0.55212
 C725 C 0.42054 0.83947 0.61691
 C726 C 0.39753 0.85532 0.62538
 C727 C 0.40949 0.87920 0.64649
 C728 C 0.44431 0.88730 0.65943
 C729 C 0.46717 0.87129 0.65010
 C730 C 0.45538 0.84738 0.62907
 C731 C 0.40768 0.81371 0.59501
 C732 C 0.43057 0.79756 0.58672
 C733 C 0.41784 0.77242 0.56623
 C734 C 0.38243 0.76333 0.55399
 C735 C 0.36006 0.78024 0.56241
 C736 C 0.37252 0.80535 0.58297
 C737 C 0.47779 0.83108 0.62003
 C738 C 0.46556 0.80653 0.59924
 C739 C 0.36260 0.84646 0.61277
 C740 C 0.35032 0.82193 0.59192
 H741 H 0.50485 0.83707 0.62922
 H742 H 0.48352 0.79430 0.59300
 H743 H 0.34448 0.85845 0.61912
 H744 H 0.32311 0.81571 0.58283
 H745 H 0.39032 0.88959 0.65329
 H746 H 0.49500 0.87822 0.65857
 H747 H 0.43539 0.75971 0.55997
 H748 H 0.33270 0.77339 0.55325
 C749 C 0.15404 0.57542 0.61884
 C750 C 0.14853 0.60333 0.63182
 C751 C 0.12546 0.59135 0.65316
 C752 C 0.10776 0.55157 0.66188
 C753 C 0.11371 0.52401 0.64821
 C754 C 0.13673 0.53578 0.62682
 C755 C 0.17880 0.58809 0.59657
 C756 C 0.18454 0.56023 0.58363
 C757 C 0.20872 0.57263 0.56271
 C758 C 0.22724 0.61269 0.55480
 C759 C 0.22075 0.64009 0.56797
 C760 C 0.19663 0.62797 0.58884
 C761 C 0.14283 0.50861 0.61326
 C762 C 0.16634 0.52063 0.59205
 C763 C 0.16670 0.64295 0.62342
 C764 C 0.19034 0.65506 0.60229
 H765 H 0.12952 0.47783 0.61917
 H766 H 0.17049 0.49879 0.58224
 H767 H 0.16275 0.66484 0.63331
 H768 H 0.20396 0.68593 0.59652
 H769 H 0.12320 0.61391 0.66342
 H770 H 0.09948 0.49293 0.65354
 H771 H 0.21354 0.55127 0.55285
 H772 H 0.23478 0.67099 0.56216
 C773 C 0.42732 0.58444 0.88196
 C774 C 0.46124 0.61228 0.86903
 C775 C 0.47226 0.60007 0.84779
 C776 C 0.44946 0.56040 0.83941
 C777 C 0.41570 0.53281 0.85276
 C778 C 0.40447 0.54469 0.87403
 C779 C 0.41518 0.59729 0.90406
 C780 C 0.38104 0.56954 0.91685
 C781 C 0.36918 0.58209 0.93757
 C782 C 0.39109 0.62215 0.94546
 C783 C 0.42552 0.64946 0.93248
 C784 C 0.43765 0.63719 0.91176
 C785 C 0.37069 0.51770 0.88744
 C786 C 0.35917 0.52992 0.90849
 C787 C 0.48317 0.65188 0.87743
 C788 C 0.47156 0.66413 0.89843
 H789 H 0.35286 0.48692 0.88152
 H790 H 0.33278 0.50821 0.91820
 H791 H 0.50939 0.67365 0.86762
 H792 H 0.48916 0.69501 0.90420
 H793 H 0.49800 0.62160 0.83749
 H794 H 0.39828 0.50211 0.84661
 H795 H 0.34260 0.56078 0.94731
 H796 H 0.44265 0.68037 0.93829
 C797 C 0.16017 0.57616 0.88202
 C798 C 0.14939 0.60207 0.87130
 C799 C 0.12582 0.58999 0.85016
 C800 C 0.11259 0.55200 0.83953
 C801 C 0.12345 0.52624 0.85105
 C802 C 0.14737 0.53828 0.87207
 C803 C 0.18569 0.58913 0.90397
 C804 C 0.19727 0.56357 0.91437
 C805 C 0.22227 0.57640 0.93490
 C806 C 0.23546 0.61443 0.94514
 C807 C 0.22305 0.63944 0.93462
 C808 C 0.19838 0.62703 0.91395
 C809 C 0.15928 0.51336 0.88314
 C810 C 0.18387 0.52583 0.90390
 C811 C 0.16248 0.63969 0.88190
 C812 C 0.18651 0.65194 0.90289
 H813 H 0.14969 0.48405 0.87562
 H814 H 0.19255 0.50579 0.91176
 H815 H 0.15423 0.65994 0.87385
 H816 H 0.19611 0.68126 0.91040
 H817 H 0.11678 0.60993 0.84264
 H818 H 0.11519 0.49752 0.84313
 H819 H 0.23151 0.55684 0.94285
 H820 H 0.23321 0.66885 0.94220
 C821 C 0.42332 0.84402 0.88088
 C822 C 0.39615 0.85101 0.86832
 C823 C 0.40812 0.87375 0.84682
 C824 C 0.44710 0.88953 0.83744
 C825 C 0.47403 0.88234 0.85076
 C826 C 0.46226 0.85963 0.87233
 C827 C 0.41057 0.81949 0.90329
 C828 C 0.43759 0.81200 0.91571
 C829 C 0.42503 0.78792 0.93672
 C830 C 0.38565 0.77117 0.94521
 C831 C 0.35914 0.77947 0.93261
 C832 C 0.37143 0.80355 0.91166
 C833 C 0.48856 0.85169 0.88535
 C834 C 0.47644 0.82830 0.90667
 C835 C 0.35736 0.83498 0.87745
 C836 C 0.34519 0.81159 0.89873
 H837 H 0.51873 0.86350 0.87894
 H838 H 0.49760 0.82274 0.91606
 H839 H 0.33611 0.84028 0.86795
 H840 H 0.31491 0.79951 0.90502
 H841 H 0.38708 0.88004 0.83801
 H842 H 0.50366 0.89256 0.84395
 H843 H 0.44570 0.78166 0.94614
 H844 H 0.32878 0.76683 0.93890
 C845 C 0.57446 0.41718 0.88243
 C846 C 0.54040 0.38954 0.86949
 C847 C 0.52950 0.40193 0.84827
 C848 C 0.55252 0.44158 0.83990
 C849 C 0.58645 0.46896 0.85323
 C850 C 0.59756 0.45690 0.87451
 C851 C 0.58641 0.40414 0.90455
 C852 C 0.62064 0.43166 0.91739
 C853 C 0.63227 0.41891 0.93817
 C854 C 0.61002 0.37886 0.94604
 C855 C 0.57555 0.35179 0.93297
 C856 C 0.56364 0.36426 0.91223
 C857 C 0.63146 0.48367 0.88794
 C858 C 0.64280 0.47126 0.90902
 C859 C 0.51821 0.34996 0.87787
 C860 C 0.52965 0.33753 0.89887
 H861 H 0.64951 0.51442 0.88204
 H862 H 0.66927 0.49281 0.91875
 H863 H 0.49189 0.32835 0.86804
 H864 H 0.51183 0.30667 0.90463
 H865 H 0.50365 0.38054 0.83797
 H866 H 0.60407 0.49964 0.84708
 H867 H 0.65892 0.44001 0.94796
 H868 H 0.55813 0.32090 0.93876
 C869 C 0.84061 0.42119 0.88389
 C870 C 0.85754 0.39856 0.87637
 C871 C 0.88134 0.41006 0.85533
 C872 C 0.88820 0.44389 0.84182
 C873 C 0.87131 0.46648 0.84982
 C874 C 0.84739 0.45519 0.87080
 C875 C 0.81484 0.40873 0.90570
 C876 C 0.79741 0.43100 0.91297
 C877 C 0.77230 0.41860 0.93341
 C878 C 0.76448 0.38412 0.94658
 C879 C 0.78262 0.36239 0.93913
 C880 C 0.80774 0.37452 0.91866
 C881 C 0.82968 0.47689 0.87878
 C882 C 0.80509 0.46499 0.89950
 C883 C 0.85001 0.36468 0.88992
 C884 C 0.82554 0.35287 0.91070
 H885 H 0.83466 0.50317 0.86884
 H886 H 0.79182 0.48244 0.90494
 H887 H 0.86295 0.34700 0.88432
 H888 H 0.82032 0.32643 0.92054
 H889 H 0.89460 0.39278 0.84948
 H890 H 0.87599 0.49224 0.83938
 H891 H 0.75859 0.43563 0.93889
 H892 H 0.77680 0.33577 0.94901
 C893 C 0.57635 0.15599 0.88177
 C894 C 0.54010 0.14612 0.87062
 C895 C 0.52888 0.12357 0.84897
 C896 C 0.55360 0.11083 0.83854
 C897 C 0.58958 0.12057 0.85027
 C898 C 0.60122 0.14335 0.87176
 C899 C 0.58879 0.18052 0.90418
 C900 C 0.62547 0.19113 0.91499
 C901 C 0.63771 0.21540 0.93587
 C902 C 0.61345 0.22887 0.94606
 C903 C 0.57639 0.21733 0.93521
 C904 C 0.56406 0.19339 0.91415
 C905 C 0.63743 0.15407 0.88332
 C906 C 0.64940 0.17766 0.90453
 C907 C 0.51606 0.15939 0.88119
 C908 C 0.52779 0.18255 0.90261
 H909 H 0.65685 0.14445 0.87577
 H910 H 0.67773 0.18558 0.91274
 H911 H 0.48800 0.15195 0.87278
 H912 H 0.50846 0.19233 0.91009
 H913 H 0.50138 0.11672 0.84000
 H914 H 0.60852 0.11036 0.84269
 H915 H 0.66621 0.22397 0.94409
 H916 H 0.55764 0.22779 0.94277
   
