data_POSCAR
  _audit_creation_date              2014-09-24
  _audit_creation_method            'ToBaCCo'
  _symmetry_space_group_name_H-M    'P1'
  _symmetry_Int_Tables_number       1
  _symmetry_cell_setting            triclinic
  loop_
  _symmetry_equiv_pos_as_xyz
 x,y,z
_cell_length_a 52.3746
_cell_length_b 52.3111
_cell_length_c 52.4101
_cell_angle_alpha 89.948800
_cell_angle_beta 90.015400
_cell_angle_gamma 89.974400
loop_
  _atom_site_label
  _atom_site_type_symbol
  _atom_site_fract_x
  _atom_site_fract_y
  _atom_site_fract_z
C1 C 0.60659 0.64316 0.62556
 N2 N 0.60667 0.62473 0.64384
 C3 C 0.62498 0.60631 0.64394
 N4 N 0.64329 0.60644 0.62557
 C5 C 0.64335 0.62480 0.60722
 N6 N 0.62497 0.64313 0.60728
 C7 C 0.89411 0.35616 0.12522
 N8 N 0.87572 0.35630 0.10692
 C9 C 0.85739 0.37468 0.10681
 N10 N 0.85749 0.39302 0.12514
 C11 C 0.87578 0.39304 0.14352
 N12 N 0.89404 0.37459 0.14349
 C13 C 0.39323 0.14345 -0.12507
 N14 N 0.39315 0.12507 -0.14335
 C15 C 0.37486 0.10669 -0.14339
 N16 N 0.35658 0.10674 -0.12503
 C17 C 0.35652 0.12505 -0.10668
 N18 N 0.37488 0.14339 -0.10675
 C19 C 0.10592 0.85667 0.37450
 N20 N 0.10600 0.87510 0.35620
 C21 C 0.12427 0.89354 0.35610
 N22 N 0.14256 0.89347 0.37450
 C23 C 0.14264 0.87514 0.39287
 N24 N 0.12430 0.85679 0.39280
 N25 N 0.09434 0.16558 0.11487
 N26 N 0.08419 0.15502 0.13527
 C27 C 0.06349 0.16863 0.14228
 C28 C 0.06064 0.18872 0.12538
 C29 C 0.08051 0.18623 0.10825
 H30 H 0.05140 0.16435 0.15846
 H31 H 0.08457 0.19854 0.09216
 Cu32 Cu 0.09918 0.12460 0.15056
 Cu33 Cu 0.12470 0.15185 0.09840
 Cu34 Cu 0.15171 0.09765 0.12547
 N35 N 0.11444 0.09418 0.16559
 N36 N 0.13505 0.08380 0.15567
 C37 C 0.14169 0.06320 0.16957
 C38 C 0.12434 0.06055 0.18922
 C39 C 0.10728 0.08048 0.18617
 H40 H 0.15794 0.05103 0.16571
 H41 H 0.09095 0.08464 0.19809
 N42 N 0.16571 0.11448 0.09486
 N43 N 0.15541 0.13509 0.08454
 C44 C 0.16911 0.14180 0.06385
 C45 C 0.18890 0.12460 0.06105
 C46 C 0.18623 0.10754 0.08098
 H47 H 0.16503 0.15794 0.05161
 H48 H 0.19833 0.09126 0.08495
 H49 H 0.11950 0.11442 0.10992
 H50 H 0.13994 0.13499 0.13060
 N51 N 0.40508 0.83437 0.61459
 N52 N 0.41498 0.84469 0.63522
 C53 C 0.43564 0.83107 0.64233
 C54 C 0.43871 0.81118 0.62525
 C55 C 0.41904 0.81384 0.60790
 H56 H 0.44761 0.83523 0.65862
 H57 H 0.41518 0.80172 0.59165
 Cu58 Cu 0.39981 0.87506 0.65033
 Cu59 Cu 0.37482 0.84821 0.59788
 Cu60 Cu 0.34777 0.90243 0.62482
 N61 N 0.38464 0.90542 0.66542
 N62 N 0.36430 0.91606 0.65520
 C63 C 0.35766 0.93668 0.66901
 C64 C 0.37477 0.93908 0.68891
 C65 C 0.39166 0.91899 0.68610
 H66 H 0.34158 0.94900 0.66494
 H67 H 0.40782 0.91469 0.69822
 N68 N 0.33390 0.88570 0.59412
 N69 N 0.34417 0.86506 0.58388
 C70 C 0.33031 0.85819 0.56334
 C71 C 0.31043 0.87531 0.56060
 C72 C 0.31324 0.89249 0.58037
 H73 H 0.33428 0.84193 0.55125
 H74 H 0.30104 0.90867 0.58440
 H75 H 0.37997 0.88553 0.60963
 H76 H 0.35917 0.86499 0.62999
 N77 N 0.90573 0.66620 0.38549
 N78 N 0.91577 0.65573 0.36502
 C79 C 0.93641 0.66939 0.35791
 C80 C 0.93934 0.68940 0.37485
 C81 C 0.91958 0.68682 0.39211
 H82 H 0.94842 0.66517 0.34167
 H83 H 0.91561 0.69906 0.40825
 Cu84 Cu 0.90081 0.62529 0.34979
 Cu85 Cu 0.87546 0.65237 0.40210
 Cu86 Cu 0.84855 0.59810 0.37517
 N87 N 0.88558 0.59485 0.33479
 N88 N 0.86512 0.58432 0.34485
 C89 C 0.85851 0.56372 0.33099
 C90 C 0.87573 0.56119 0.31119
 C91 C 0.89267 0.58124 0.31413
 H92 H 0.84237 0.55145 0.33497
 H93 H 0.90889 0.58552 0.30210
 N94 N 0.83458 0.61487 0.40585
 N95 N 0.84482 0.63553 0.41609
 C96 C 0.83102 0.64232 0.43670
 C97 C 0.81122 0.62514 0.43950
 C98 C 0.81400 0.60801 0.41968
 H99 H 0.83500 0.65855 0.44883
 H100 H 0.80188 0.59177 0.41570
 H101 H 0.88073 0.61503 0.39055
 H102 H 0.86008 0.63554 0.36998
 N103 N 0.59490 0.33422 -0.11496
 N104 N 0.58486 0.34471 -0.13547
 C105 C 0.56424 0.33105 -0.14262
 C106 C 0.56130 0.31105 -0.12562
 C107 C 0.58104 0.31361 -0.10835
 H108 H 0.55225 0.33524 -0.15892
 H109 H 0.58502 0.30137 -0.09219
 Cu110 Cu 0.60007 0.37506 -0.15064
 Cu111 Cu 0.62527 0.34790 -0.09837
 Cu112 Cu 0.65256 0.40186 -0.12564
 N113 N 0.61528 0.40540 -0.16585
 N114 N 0.63593 0.41570 -0.15594
 C115 C 0.64262 0.43626 -0.16984
 C116 C 0.62525 0.43898 -0.18949
 C117 C 0.60815 0.41909 -0.18646
 H118 H 0.65888 0.44838 -0.16593
 H119 H 0.59178 0.41501 -0.19839
 N120 N 0.66647 0.38508 -0.09492
 N121 N 0.65602 0.36461 -0.08448
 C122 C 0.66977 0.35782 -0.06383
 C123 C 0.68976 0.37480 -0.06119
 C124 C 0.68713 0.39182 -0.08117
 H125 H 0.66564 0.34171 -0.05156
 H126 H 0.69942 0.40791 -0.08529
 H127 H 0.62027 0.38533 -0.11000
 H128 H 0.64062 0.36454 -0.13056
 N129 N -0.05075 0.31886 0.14354
 C130 C -0.05067 0.30043 0.12537
 N131 N -0.06902 0.30066 0.10712
 N132 N -0.08694 0.31875 0.10706
 C133 C -0.08712 0.33726 0.12526
 N134 N -0.06867 0.33696 0.14349
 C135 C -0.03141 0.28092 0.12546
 C136 C -0.01521 0.26455 0.12553
 C137 C 0.00414 0.24512 0.12552
 N138 N 0.00427 0.22663 0.14367
 N139 N 0.02228 0.20862 0.14365
 C140 C 0.04075 0.20852 0.12547
 N141 N 0.04055 0.22707 0.10733
 N142 N 0.02255 0.24507 0.10735
 N143 N 0.56850 0.69954 0.60749
 C144 C 0.55015 0.69963 0.62573
 N145 N 0.55033 0.68116 0.64389
 N146 N 0.56832 0.66315 0.64383
 C147 C 0.58674 0.66300 0.62559
 N148 N 0.58650 0.68153 0.60742
 C149 C 0.53079 0.71904 0.62582
 C150 C 0.51452 0.73534 0.62585
 C151 C 0.49513 0.75471 0.62578
 N152 N 0.47688 0.75487 0.60743
 N153 N 0.45890 0.77289 0.60727
 C154 C 0.45857 0.79135 0.62546
 N155 N 0.47685 0.79113 0.64384
 N156 N 0.49484 0.77310 0.64399
 N157 N 1.06896 0.80125 0.39265
 C158 C 1.05063 0.80107 0.37439
 N159 N 1.05076 0.81950 0.35619
 N160 N 1.06869 0.83756 0.35623
 C161 C 1.08713 0.83781 0.37449
 N162 N 1.08691 0.81930 0.39270
 C163 C 1.03133 0.78162 0.37432
 C164 C 1.01510 0.76528 0.37430
 C165 C 0.99575 0.74587 0.37438
 N166 N 0.97744 0.74577 0.39266
 N167 N 0.95946 0.72775 0.39279
 C168 C 0.95920 0.70924 0.37465
 N169 N 0.97756 0.70939 0.35636
 N170 N 0.99554 0.72741 0.35623
 N171 N 0.44943 0.18137 -0.14366
 C172 C 0.44968 0.19983 -0.12553
 N173 N 0.43141 0.19977 -0.10722
 N174 N 0.41340 0.18178 -0.10704
 C175 C 0.41308 0.16327 -0.12518
 N176 N 0.43143 0.16338 -0.14349
 C177 C 0.46905 0.21921 -0.12573
 C178 C 0.48533 0.23547 -0.12585
 C179 C 0.50476 0.25477 -0.12588
 N180 N 0.52311 0.25481 -0.10763
 N181 N 0.54114 0.27276 -0.10757
 C182 C 0.54143 0.29126 -0.12576
 N183 N 0.52305 0.29115 -0.14404
 N184 N 0.50501 0.27319 -0.14410
 N185 N 0.10595 -0.06940 0.30085
 C186 C 0.12411 -0.05095 0.30070
 N187 N 0.14235 -0.05107 0.31905
 N188 N 0.14242 -0.06909 0.33704
 C189 C 0.12424 -0.08763 0.33729
 N190 N 0.10600 -0.08743 0.31883
 C191 C 0.12401 -0.03153 0.28136
 C192 C 0.12395 -0.01522 0.26510
 C193 C 0.12397 0.00414 0.24569
 N194 N 0.10574 0.02255 0.24542
 N195 N 0.10582 0.04055 0.22740
 C196 C 0.12414 0.04072 0.20908
 N197 N 0.14236 0.02224 0.20941
 N198 N 0.14228 0.00425 0.22742
 N199 N 0.60667 0.56913 -0.30090
 C200 C 0.62487 0.55070 -0.30075
 N201 N 0.64314 0.55088 -0.31907
 N202 N 0.64319 0.56894 -0.33702
 C203 C 0.62497 0.58745 -0.33727
 N204 N 0.60671 0.58719 -0.31884
 C205 C 0.62480 0.53126 -0.28142
 C206 C 0.62474 0.51495 -0.26516
 C207 C 0.62480 0.49555 -0.24579
 N208 N 0.64318 0.49534 -0.22758
 N209 N 0.64330 0.47731 -0.20961
 C210 C 0.62504 0.45888 -0.20927
 N211 N 0.60667 0.45913 -0.22756
 N212 N 0.60655 0.47717 -0.24553
 N213 N 0.35667 1.05039 0.81869
 C214 C 0.37490 1.05025 0.80033
 N215 N 0.39310 1.06867 0.80044
 N216 N 0.39308 1.08669 0.81839
 C217 C 0.37486 1.08687 0.83682
 N218 N 0.35665 1.06840 0.83664
 C219 C 0.37494 1.03086 0.78104
 C220 C 0.37496 1.01458 0.76481
 C221 C 0.37491 0.99524 0.74546
 N222 N 0.39305 0.97674 0.74533
 N223 N 0.39302 0.95881 0.72729
 C224 C 0.37484 0.95880 0.70881
 N225 N 0.35669 0.97734 0.70903
 N226 N 0.35673 0.99527 0.72706
 N227 N 0.85776 0.44950 0.18146
 C228 C 0.87602 0.44961 0.19981
 N229 N 0.89416 0.43112 0.19970
 N230 N 0.89408 0.41308 0.18176
 C231 C 0.87584 0.41292 0.16333
 N232 N 0.85767 0.43146 0.16352
 C233 C 0.87613 0.46907 0.21912
 C234 C 0.87618 0.48540 0.23535
 C235 C 0.87613 0.50480 0.25473
 N236 N 0.89427 0.52329 0.25491
 N237 N 0.89417 0.54128 0.27291
 C238 C 0.87592 0.54138 0.29131
 N239 N 0.85779 0.52283 0.29106
 N240 N 0.85789 0.50485 0.27308
 N241 N 0.31838 0.14303 -0.05046
 C242 C 0.30007 0.12471 -0.05040
 N243 N 0.30031 0.10653 -0.06881
 N244 N 0.31832 0.10666 -0.08675
 C245 C 0.33669 0.12497 -0.08688
 N246 N 0.33640 0.14316 -0.06841
 C247 C 0.28068 0.12457 -0.03110
 C248 C 0.26437 0.12445 -0.01489
 C249 C 0.24498 0.12437 0.00441
 N250 N 0.24486 0.10610 0.02278
 N251 N 0.22694 0.10614 0.04082
 C252 C 0.20856 0.12445 0.04109
 N253 N 0.20871 0.14269 0.02264
 N254 N 0.22663 0.14265 0.00460
 N255 N 0.68143 0.64314 0.55104
 C256 C 0.69981 0.62489 0.55089
 N257 N 0.69965 0.60660 0.56924
 N258 N 0.68165 0.60657 0.58720
 C259 C 0.66320 0.62483 0.58741
 N260 N 0.66342 0.64312 0.56900
 C261 C 0.71921 0.62492 0.53155
 C262 C 0.73549 0.62495 0.51530
 C263 C 0.75486 0.62499 0.49594
 N264 N 0.77318 0.64330 0.49576
 N265 N 0.79116 0.64334 0.47776
 C266 C 0.79140 0.62509 0.45935
 N267 N 0.77302 0.60679 0.45960
 N268 N 0.75505 0.60674 0.47759
 N269 N 0.81942 0.35642 0.05054
 C270 C 0.80107 0.37471 0.05031
 N271 N 0.80122 0.39299 0.06863
 N272 N 0.81918 0.39298 0.08665
 C273 C 0.83759 0.37469 0.08695
 N274 N 0.83738 0.35641 0.06856
 C275 C 0.78173 0.37471 0.03092
 C276 C 0.76547 0.37473 0.01464
 C277 C 0.74611 0.37476 -0.00474
 N278 N 0.72763 0.35662 -0.00480
 N279 N 0.70966 0.35663 -0.02280
 C280 C 0.70957 0.37479 -0.04134
 N281 N 0.72809 0.39295 -0.04120
 N282 N 0.74607 0.39293 -0.02320
 N283 N 0.19883 0.89345 0.43094
 C284 C 0.19898 0.87520 0.44931
 N285 N 0.18064 0.85692 0.44915
 N286 N 0.16268 0.85690 0.43114
 C287 C 0.16246 0.87516 0.41270
 N288 N 0.18086 0.89343 0.41293
 C289 C 0.21830 0.87522 0.46871
 C290 C 0.23454 0.87521 0.48501
 C291 C 0.25387 0.87518 0.50439
 N292 N 0.27226 0.85694 0.50454
 N293 N 0.29029 0.85696 0.52248
 C294 C 0.29051 0.87523 0.54087
 N295 N 0.27205 0.89347 0.54067
 N296 N 0.25403 0.89345 0.52272
   
