data_POSCAR
  _audit_creation_date              2014-09-24
  _audit_creation_method            'ToBaCCo'
  _symmetry_space_group_name_H-M    'P1'
  _symmetry_Int_Tables_number       1
  _symmetry_cell_setting            triclinic
  loop_
  _symmetry_equiv_pos_as_xyz
 x,y,z
_cell_length_a 31.6394
_cell_length_b 31.2441
_cell_length_c 29.9985
_cell_angle_alpha 89.346100
_cell_angle_beta 88.503400
_cell_angle_gamma 90.215800
loop_
  _atom_site_label
  _atom_site_type_symbol
  _atom_site_fract_x
  _atom_site_fract_y
  _atom_site_fract_z
C1 C 0.20857 0.21015 0.27301
 C2 C 0.23848 0.18822 0.24692
 C3 C 0.24948 0.20309 0.20397
 C4 C 0.23087 0.24044 0.18726
 C5 C 0.20100 0.26259 0.21352
 C6 C 0.18992 0.24745 0.25639
 H7 H 0.25192 0.15859 0.25935
 H8 H 0.23856 0.25153 0.15360
 H9 H 0.16550 0.26358 0.27585
 C10 C -0.18203 0.80571 0.24353
 C11 C -0.21891 0.82435 0.22750
 C12 C -0.24004 0.80549 0.19223
 C13 C -0.22441 0.76780 0.17313
 C14 C -0.18762 0.74913 0.18947
 C15 C -0.16665 0.76794 0.22478
 H16 H -0.23022 0.85435 0.24116
 H17 H -0.23970 0.75414 0.14463
 H18 H -0.13727 0.75427 0.23613
 C19 C -0.21894 0.20566 -0.27497
 C20 C -0.25498 0.18715 -0.25461
 C21 C -0.26658 0.19765 -0.21072
 C22 C -0.24223 0.22705 -0.18722
 C23 C -0.20618 0.24567 -0.20767
 C24 C -0.19471 0.23507 -0.25157
 H25 H -0.27284 0.16316 -0.27216
 H26 H -0.25048 0.23443 -0.15284
 H27 H -0.16599 0.24840 -0.26678
 C28 C 0.19053 0.81609 -0.23957
 C29 C 0.17828 0.77603 -0.22265
 C30 C 0.20403 0.75410 -0.19302
 C31 C 0.24254 0.77212 -0.18054
 C32 C 0.25507 0.81228 -0.19793
 C33 C 0.22901 0.83421 -0.22751
 H34 H 0.14799 0.76254 -0.23142
 H35 H 0.26179 0.75569 -0.15637
 H36 H 0.23800 0.86572 -0.24014
 C37 C 0.23104 1.19187 0.72541
 C38 C 0.21351 1.23065 0.73978
 C39 C 0.22887 1.25083 0.77754
 C40 C 0.26222 1.23251 0.80072
 C41 C 0.27990 1.19376 0.78666
 C42 C 0.26434 1.17338 0.74889
 H43 H 0.18667 1.24409 0.72282
 H44 H 0.27310 1.24738 0.83087
 H45 H 0.27689 1.14261 0.73890
 C46 C 0.81133 0.80858 0.77745
 C47 C 0.82717 0.76912 0.79223
 C48 C 0.80646 0.74655 0.82723
 C49 C 0.76975 0.76340 0.84734
 C50 C 0.75377 0.80275 0.83275
 C51 C 0.77453 0.82530 0.79777
 H52 H 0.85598 0.75643 0.77714
 H53 H 0.75417 0.74648 0.87499
 H54 H 0.76253 0.85613 0.78708
 C55 C 0.16753 0.79678 1.23645
 C56 C 0.15414 0.75766 1.21876
 C57 C 0.18043 0.73566 1.18833
 C58 C 0.22002 0.75276 1.17573
 C59 C 0.23346 0.79171 1.19321
 C60 C 0.20727 0.81364 1.22359
 H61 H 0.12326 0.74470 1.22803
 H62 H 0.23994 0.73625 1.15155
 H63 H 0.21758 0.84410 1.23661
 C64 C 0.78954 1.20738 1.26173
 C65 C 0.81192 1.23857 1.23643
 C66 C 0.79451 1.25571 1.19750
 C67 C 0.75473 1.24180 1.18413
 C68 C 0.73246 1.21066 1.20913
 C69 C 0.74975 1.19355 1.24797
 H70 H 0.84320 1.24853 1.24626
 H71 H 0.74171 1.25405 1.15341
 H72 H 0.73291 1.16847 1.26649
 O73 O 0.52611 0.94217 0.95326
 O74 O 0.45245 0.95866 1.10249
 O75 O 0.58209 0.98858 1.05905
 O76 O 0.44792 0.94272 0.96321
 O77 O 0.53290 0.95446 1.09852
 O78 O 0.47133 0.97420 0.90281
 O79 O 0.44001 0.92923 1.04063
 O80 O 0.58011 0.97611 0.97952
 C81 C 0.56487 0.94328 0.96124
 C82 C 0.43630 0.92876 1.08162
 C83 C 0.57084 0.95848 1.08570
 C84 C 0.44379 0.94844 0.92168
 O85 O 0.47462 1.04543 0.94265
 O86 O 0.53619 1.03639 1.10524
 O87 O 0.54844 1.05851 0.96894
 O88 O 0.40958 1.01039 1.05524
 O89 O 0.45737 1.04089 1.09670
 O90 O 0.54404 1.01461 0.91775
 O91 O 0.41748 1.02353 0.97457
 O92 O 0.54928 1.06930 1.04452
 Co93 Co 0.49873 0.99348 0.95105
 Co94 Co 0.49505 0.99776 1.09275
 Co95 Co 0.56011 1.02133 1.01323
 Co96 Co 0.43445 0.97850 1.00919
 O97 O 0.49846 0.99926 1.01911
 C98 C 0.43615 1.05002 0.94950
 C99 C 0.55008 1.06878 1.08550
 C100 C 0.55849 1.04927 0.93012
 C101 C 0.42019 1.03876 1.08310
 O102 O 0.01846 0.44241 0.07882
 O103 O 0.05460 0.52236 -0.09457
 O104 O 0.07233 0.41798 -0.04679
 O105 O 0.05852 0.54899 0.01102
 O106 O 0.04620 0.44399 -0.10616
 O107 O 0.03606 0.51973 0.07161
 O108 O 0.02495 0.57295 -0.05760
 O109 O 0.06376 0.42876 0.02902
 C110 C 0.05429 0.42919 0.06878
 C111 C 0.05380 0.56073 -0.08362
 C112 C 0.07384 0.42241 -0.08770
 C113 C 0.06326 0.54239 0.05134
 O114 O -0.04476 0.53453 0.04882
 O115 O -0.03415 0.44806 -0.09946
 O116 O -0.01982 0.40081 0.02594
 O117 O -0.04912 0.54607 -0.02916
 O118 O -0.03007 0.52930 -0.09581
 O119 O -0.05627 0.45670 0.04504
 O120 O -0.00961 0.59070 0.02287
 O121 O -0.01037 0.39613 -0.05580
 Co122 Co -0.00925 0.48788 0.05348
 Co123 Co 0.00900 0.48617 -0.09121
 Co124 Co 0.02485 0.41652 -0.01177
 Co125 Co 0.00502 0.54412 -0.00838
 O126 O 0.00918 0.48125 -0.01795
 C127 C -0.03717 0.57456 0.05200
 C128 C -0.03504 0.40960 -0.08592
 C129 C -0.05347 0.41700 0.04176
 C130 C -0.05566 0.54756 -0.06978
 O131 O 1.08047 0.02387 0.45298
 O132 O 0.90442 0.03077 0.53718
 O133 O 0.95767 0.07088 0.44699
 O134 O 1.03459 0.06724 0.56885
 O135 O 0.90710 0.02689 0.45631
 O136 O 1.08214 0.02721 0.53535
 O137 O 0.95473 0.07310 0.55731
 O138 O 1.03280 0.07017 0.44130
 C139 C 1.07072 0.06141 0.44292
 C140 C 0.91652 0.06678 0.55079
 C141 C 0.91950 0.06344 0.44450
 C142 C 1.07239 0.05888 0.55938
 O143 O 1.05674 -0.05223 0.54271
 O144 O 0.94129 -0.05267 0.46227
 O145 O 1.03120 -0.01022 0.40659
 O146 O 0.94625 -0.00517 0.59168
 O147 O 0.93349 -0.05123 0.54214
 O148 O 1.04687 -0.05503 0.45876
 O149 O 1.02440 -0.01312 0.59353
 O150 O 0.95517 -0.00848 0.40915
 Co151 Co 1.05941 -0.01218 0.49711
 Co152 Co 0.92758 -0.00974 0.49943
 Co153 Co 0.99395 0.02871 0.43199
 Co154 Co 0.98991 0.02854 0.57011
 O155 O 0.99311 0.00840 0.49999
 C156 C 1.04684 -0.04501 0.58260
 C157 C 0.94400 -0.04525 0.42173
 C158 C 1.04320 -0.04704 0.41830
 C159 C 0.93405 -0.04188 0.58208
 C160 C 1.15593 0.14871 0.37742
 C161 C 1.16964 0.10735 0.38805
 C162 C 1.14307 0.07950 0.41262
 C163 C 1.19322 0.19160 0.31130
 C164 C 1.09025 0.13538 0.41824
 C165 C 1.11688 0.16315 0.39392
 C166 C 1.17765 0.17307 0.34306
 C167 C 1.10237 0.09276 0.42612
 H168 H 1.19966 0.09575 0.37495
 H169 H 1.15318 0.04686 0.41832
 H170 H 1.05919 0.14653 0.42863
 H171 H 1.10584 0.19495 0.38552
 C172 C 0.88711 -0.12987 0.32994
 C173 C 0.88721 -0.14065 0.37529
 C174 C 0.90782 -0.11423 0.40509
 C175 C 0.84119 -0.17351 0.27404
 C176 C 0.92977 -0.06718 0.34381
 C177 C 0.90920 -0.09369 0.31409
 C178 C 0.86228 -0.15426 0.29995
 C179 C 0.92828 -0.07660 0.38974
 H180 H 0.87024 -0.16867 0.38780
 H181 H 0.90621 -0.12229 0.44030
 H182 H 0.94549 -0.03854 0.33106
 H183 H 0.90938 -0.08522 0.27895
 C184 C 0.83294 0.15309 0.61653
 C185 C 0.81733 0.11400 0.60142
 C186 C 0.84349 0.08712 0.57607
 C187 C 0.79603 0.19035 0.68546
 C188 C 0.89974 0.13993 0.57822
 C189 C 0.87352 0.16677 0.60330
 C190 C 0.81139 0.17461 0.65243
 C191 C 0.88566 0.09897 0.56631
 H192 H 0.78610 0.10293 0.61190
 H193 H 0.83181 0.05578 0.56730
 H194 H 0.93197 0.15004 0.57080
 H195 H 0.88601 0.19680 0.61514
 C196 C 1.11083 -0.12035 0.67886
 C197 C 1.10712 -0.13511 0.63538
 C198 C 1.08398 -0.11177 0.60469
 C199 C 1.16243 -0.16084 0.73228
 C200 C 1.06617 -0.05987 0.66165
 C201 C 1.08956 -0.08329 0.69236
 C202 C 1.13855 -0.14213 0.70847
 C203 C 1.06427 -0.07327 0.61716
 H204 H 1.12333 -0.16388 0.62475
 H205 H 1.08290 -0.12303 0.57072
 H206 H 1.05144 -0.03026 0.67210
 H207 H 1.09223 -0.07174 0.72609
 C208 C 0.33056 1.12902 1.13591
 C209 C 0.37307 1.13143 1.14706
 C210 C 0.40202 1.10220 1.12953
 C211 C 0.27654 1.17952 1.17827
 C212 C 0.34621 1.06812 1.08871
 C213 C 0.31713 1.09749 1.10651
 C214 C 0.30072 1.15703 1.15760
 C215 C 0.38892 1.06991 1.10051
 H216 H 0.38375 1.15547 1.17001
 H217 H 0.43469 1.10474 1.13913
 H218 H 0.33523 1.04379 1.06630
 H219 H 0.28416 1.09517 1.09794
 C220 C 0.35437 0.87271 0.85224
 C221 C 0.37617 0.90585 0.82951
 C222 C 0.40644 0.93006 0.85154
 C223 C 0.29031 0.83193 0.81708
 C224 C 0.39335 0.88744 0.91860
 C225 C 0.36344 0.86330 0.89659
 C226 C 0.32033 0.85027 0.83187
 C227 C 0.41474 0.92141 0.89652
 H228 H 0.36909 0.91358 0.79522
 H229 H 0.42239 0.95617 0.83392
 H230 H 0.39917 0.87994 0.95323
 H231 H 0.34659 0.83794 0.91455
 C232 C 0.66480 0.87417 1.13749
 C233 C 0.67637 0.90639 1.10674
 C234 C 0.64575 0.93365 1.08967
 C235 C 0.72503 0.82759 1.17290
 C236 C 0.59162 0.89614 1.13368
 C237 C 0.62237 0.86893 1.15079
 C238 C 0.69696 0.84796 1.15670
 C239 C 0.60305 0.92901 1.10317
 H240 H 0.70918 0.91079 1.09637
 H241 H 0.65559 0.95859 1.06624
 H242 H 0.55900 0.89168 1.14464
 H243 H 0.61314 0.84418 1.17473
 C244 C 0.64135 1.13061 0.85206
 C245 C 0.62602 1.14376 0.89378
 C246 C 0.59805 1.11765 0.91849
 C247 C 0.70096 1.17614 0.81018
 C248 C 0.59964 1.06540 0.85929
 C249 C 0.62778 1.09163 0.83458
 C250 C 0.67317 1.15581 0.82881
 C251 C 0.58506 1.07795 0.90177
 H252 H 0.63648 1.17373 0.90769
 H253 H 0.58732 1.12811 0.95116
 H254 H 0.59019 1.03493 0.84578
 H255 H 0.63970 1.08109 0.80236
 C256 C 0.13433 0.35824 0.15475
 C257 C 0.15056 0.37586 0.11484
 C258 C 0.12500 0.40121 0.08821
 C259 C 0.17841 0.29806 0.19477
 C260 C 0.06732 0.39367 0.14259
 C261 C 0.09299 0.36799 0.16918
 C262 C 0.15852 0.32639 0.17770
 C263 C 0.08275 0.40928 0.10114
 H264 H 0.18239 0.36840 0.10326
 H265 H 0.13777 0.41299 0.05651
 H266 H 0.03484 0.39927 0.15318
 H267 H 0.08004 0.35425 0.19994
 C268 C -0.12602 0.32503 -0.14285
 C269 C -0.12226 0.36742 -0.15784
 C270 C -0.09272 0.39476 -0.13921
 C271 C -0.17910 0.27351 -0.18312
 C272 C -0.07049 0.33748 -0.09004
 C273 C -0.10017 0.31009 -0.10883
 C274 C -0.15528 0.29675 -0.16392
 C275 C -0.06631 0.38012 -0.10523
 H276 H -0.14193 0.37928 -0.18427
 H277 H -0.09047 0.42738 -0.15168
 H278 H -0.05080 0.32529 -0.06381
 H279 H -0.10271 0.27724 -0.09709
 C280 C 0.14468 0.65197 -0.13459
 C281 C 0.11794 0.66220 -0.09849
 C282 C 0.08876 0.63224 -0.08172
 C283 C 0.18773 0.71565 -0.17223
 C284 C 0.11379 0.58087 -0.13627
 C285 C 0.14289 0.61115 -0.15327
 C286 C 0.17002 0.68533 -0.15505
 C287 C 0.08590 0.59150 -0.10084
 H288 H 0.11880 0.69383 -0.08407
 H289 H 0.06811 0.64124 -0.05409
 H290 H 0.11237 0.54965 -0.15147
 H291 H 0.16315 0.60314 -0.18161
 C292 C -0.12024 0.65842 0.12357
 C293 C -0.08486 0.67476 0.10015
 C294 C -0.05747 0.64727 0.07751
 C295 C -0.16746 0.71448 0.16648
 C296 C -0.10057 0.58661 0.10196
 C297 C -0.12804 0.61430 0.12471
 C298 C -0.14737 0.68759 0.14708
 C299 C -0.06519 0.60298 0.07795
 H300 H -0.07843 0.70887 0.09939
 H301 H -0.03040 0.66077 0.05946
 H302 H -0.10720 0.55257 0.10278
 H303 H -0.15524 0.60139 0.14305
 C304 C 1.16434 0.13051 0.63035
 C305 C 1.12406 0.14731 0.62364
 C306 C 1.09497 0.12506 0.59837
 C307 C 1.21108 0.16918 0.68992
 C308 C 1.14702 0.06986 0.58407
 C309 C 1.17612 0.09215 0.60975
 C310 C 1.19138 0.15108 0.66173
 C311 C 1.10570 0.08552 0.57925
 H312 H 1.11450 0.17689 0.63943
 H313 H 1.06350 0.13808 0.59518
 H314 H 1.15611 0.03938 0.56999
 H315 H 1.20714 0.07870 0.61485
 C316 C 0.87438 -0.12271 0.68271
 C317 C 0.89476 -0.08481 0.69463
 C318 C 0.91517 -0.05917 0.66205
 C319 C 0.83264 -0.16856 0.74475
 C320 C 0.89582 -0.10966 0.60531
 C321 C 0.87537 -0.13526 0.63800
 C322 C 0.85170 -0.14798 0.71627
 C323 C 0.91550 -0.07100 0.61690
 H324 H 0.89435 -0.07474 0.72908
 H325 H 0.93007 -0.02968 0.67211
 H326 H 0.89545 -0.11965 0.57088
 H327 H 0.85980 -0.16453 0.62829
 C328 C 1.09656 -0.13401 0.32212
 C329 C 1.09469 -0.14520 0.36744
 C330 C 1.07560 -0.11778 0.39850
 C331 C 1.14195 -0.18085 0.26530
 C332 C 1.05863 -0.06832 0.33890
 C333 C 1.07778 -0.09583 0.30786
 C334 C 1.12049 -0.16001 0.29095
 C335 C 1.05819 -0.07852 0.38473
 H336 H 1.10914 -0.17455 0.37900
 H337 H 1.07577 -0.12668 0.43349
 H338 H 1.04544 -0.03843 0.32718
 H339 H 1.07905 -0.08670 0.27290
 C340 C 0.84530 0.14584 0.36256
 C341 C 0.82802 0.10733 0.37926
 C342 C 0.85105 0.08156 0.40837
 C343 C 0.80780 0.18786 0.29735
 C344 C 0.90796 0.13370 0.40579
 C345 C 0.88489 0.15940 0.37677
 C346 C 0.82438 0.16935 0.32783
 C347 C 0.89182 0.09390 0.42089
 H348 H 0.79746 0.09639 0.36841
 H349 H 0.83783 0.05106 0.41930
 H350 H 0.93926 0.14413 0.41480
 H351 H 0.89868 0.18904 0.36405
 C352 C 0.16266 0.34721 -0.16303
 C353 C 0.16654 0.35112 -0.11691
 C354 C 0.13881 0.37722 -0.09268
 C355 C 0.20688 0.28701 -0.20391
 C356 C 0.10420 0.39726 -0.16094
 C357 C 0.13195 0.37093 -0.18515
 C358 C 0.18731 0.31554 -0.18636
 C359 C 0.10668 0.39979 -0.11427
 H360 H 0.19002 0.33273 -0.09942
 H361 H 0.14162 0.37854 -0.05681
 H362 H 0.07974 0.41417 -0.17848
 H363 H 0.12848 0.36791 -0.22081
 C364 C -0.13872 0.33489 0.11614
 C365 C -0.10832 0.31735 0.08704
 C366 C -0.08224 0.34411 0.06060
 C367 C -0.18282 0.28348 0.17073
 C368 C -0.11824 0.40617 0.09068
 C369 C -0.14427 0.37931 0.11717
 C370 C -0.16296 0.30728 0.14602
 C371 C -0.08617 0.38888 0.06298
 H372 H -0.10391 0.28301 0.08576
 H373 H -0.05790 0.32978 0.03961
 H374 H -0.12196 0.44049 0.09346
 H375 H -0.16784 0.39324 0.13941
 C376 C -0.13985 0.64078 -0.12312
 C377 C -0.11943 0.61176 -0.15152
 C378 C -0.09422 0.57937 -0.13391
 C379 C -0.17657 0.70965 -0.15648
 C380 C -0.11149 0.60350 -0.05914
 C381 C -0.13667 0.63591 -0.07686
 C382 C -0.16065 0.67772 -0.14145
 C383 C -0.08896 0.57569 -0.08758
 H384 H -0.12157 0.61525 -0.18737
 H385 H -0.07724 0.55853 -0.15668
 H386 H -0.10792 0.60170 -0.02335
 H387 H -0.15221 0.65826 -0.05454
 C388 C 0.13821 0.62925 0.12453
 C389 C 0.11609 0.59630 0.14705
 C390 C 0.09488 0.56505 0.12298
 C391 C 0.16604 0.69696 0.16760
 C392 C 0.12021 0.59798 0.05376
 C393 C 0.14142 0.62913 0.07788
 C394 C 0.15392 0.66545 0.14867
 C395 C 0.09527 0.56663 0.07604
 H396 H 0.11338 0.59601 0.18313
 H397 H 0.07581 0.54149 0.14114
 H398 H 0.12097 0.60028 0.01768
 H399 H 0.15846 0.65443 0.06005
 C400 C 0.36172 1.13361 0.86969
 C401 C 0.40527 1.13028 0.86088
 C402 C 0.43037 1.10535 0.88880
 C403 C 0.31060 1.17301 0.81419
 C404 C 0.36868 1.08859 0.93547
 C405 C 0.34375 1.11358 0.90765
 C406 C 0.33475 1.15552 0.83894
 C407 C 0.41205 1.08327 0.92568
 H408 H 0.41955 1.14573 0.83166
 H409 H 0.46360 1.10160 0.88022
 H410 H 0.35365 1.07197 0.96356
 H411 H 0.31013 1.11606 0.91493
 C412 C 0.34243 0.84778 1.14470
 C413 C 0.36511 0.87681 1.17015
 C414 C 0.39774 0.90131 1.15027
 C415 C 0.27291 0.81051 1.17764
 C416 C 0.38639 0.86638 1.07983
 C417 C 0.35384 0.84190 1.09979
 C418 C 0.30517 0.82691 1.16331
 C419 C 0.40791 0.89724 1.10455
 H420 H 0.35650 0.88173 1.20490
 H421 H 0.41358 0.92489 1.17016
 H422 H 0.39334 0.86254 1.04456
 H423 H 0.33645 0.81962 1.07971
 C424 C 0.62948 1.15522 1.15458
 C425 C 0.60513 1.12495 1.17856
 C426 C 0.57695 1.09861 1.15638
 C427 C 0.69427 1.19292 1.19191
 C428 C 0.59573 1.13438 1.08645
 C429 C 0.62390 1.16069 1.10873
 C430 C 0.66377 1.17670 1.17567
 C431 C 0.57304 1.10210 1.10986
 H432 H 0.60938 1.12028 1.21401
 H433 H 0.55988 1.07407 1.17531
 H434 H 0.59346 1.13778 1.05062
 H435 H 0.64281 1.18387 1.08980
 C436 C 0.65574 0.85916 0.90123
 C437 C 0.61373 0.85814 0.88748
 C438 C 0.58298 0.88327 0.90913
 C439 C 0.71782 0.82132 0.85586
 C440 C 0.63591 0.90897 0.95938
 C441 C 0.66640 0.88376 0.93796
 C442 C 0.68879 0.83771 0.87618
 C443 C 0.59414 0.90995 0.94445
 H444 H 0.60508 0.83922 0.85906
 H445 H 0.55117 0.88366 0.89664
 H446 H 0.64548 0.92916 0.98646
 H447 H 0.69873 0.88478 0.94900
   
