data_POSCAR
  _audit_creation_date              2014-09-24
  _audit_creation_method            'ToBaCCo'
  _symmetry_space_group_name_H-M    'P1'
  _symmetry_Int_Tables_number       1
  _symmetry_cell_setting            triclinic
  loop_
  _symmetry_equiv_pos_as_xyz
 x,y,z
_cell_length_a 37.8951
_cell_length_b 41.1437
_cell_length_c 40.0777
_cell_angle_alpha 88.706800
_cell_angle_beta 90.909600
_cell_angle_gamma 90.011700
loop_
  _atom_site_label
  _atom_site_type_symbol
  _atom_site_fract_x
  _atom_site_fract_y
  _atom_site_fract_z
C1 C 0.24404 0.22234 0.24841
 C2 C 0.26242 0.19384 0.24118
 C3 C 0.28387 0.19234 0.21295
 C4 C 0.28685 0.21996 0.19183
 C5 C 0.26909 0.24890 0.19908
 C6 C 0.24794 0.24984 0.22750
 H7 H 0.25913 0.17255 0.25715
 H8 H 0.30334 0.21900 0.17007
 H9 H 0.23412 0.27203 0.23309
 C10 C 0.70845 0.75153 0.72758
 C11 C 0.72225 0.72382 0.74424
 C12 C 0.75145 0.70728 0.73169
 C13 C 0.76723 0.71898 0.70227
 C14 C 0.75383 0.74666 0.68534
 C15 C 0.72465 0.76293 0.69838
 H16 H 0.71008 0.71481 0.76686
 H17 H 0.78969 0.70643 0.69229
 H18 H 0.71415 0.78438 0.68568
 C19 C 0.29340 0.79937 0.72442
 C20 C 0.26249 0.81810 0.71994
 C21 C 0.23996 0.81367 0.69198
 C22 C 0.24888 0.78988 0.66874
 C23 C 0.27963 0.77119 0.67286
 C24 C 0.30162 0.77615 0.70065
 H25 H 0.25626 0.83607 0.73823
 H26 H 0.23212 0.78621 0.64704
 H27 H 0.32514 0.76149 0.70373
 C28 C 0.85393 0.32043 0.19730
 C29 C 0.83607 0.29116 0.19094
 C30 C 0.79891 0.29047 0.18921
 C31 C 0.77975 0.31860 0.19675
 C32 C 0.79732 0.34760 0.20415
 C33 C 0.83416 0.34868 0.20252
 H34 H 0.85099 0.26925 0.18651
 H35 H 0.75121 0.31780 0.19713
 H36 H 0.84759 0.37123 0.20812
 C37 C 0.81121 0.70510 0.25684
 C38 C 0.81159 0.73419 0.27453
 C39 C 0.78686 0.73973 0.29954
 C40 C 0.76129 0.71592 0.30653
 C41 C 0.76013 0.68684 0.28890
 C42 C 0.78527 0.68162 0.26415
 H43 H 0.83142 0.75243 0.26927
 H44 H 0.74187 0.72013 0.32545
 H45 H 0.78492 0.65913 0.25069
 C46 C 0.26868 0.18762 -0.21907
 C47 C 0.27445 0.20415 -0.18891
 C48 C 0.25627 0.19471 -0.15990
 C49 C 0.23316 0.16813 -0.16102
 C50 C 0.22690 0.15150 -0.19058
 C51 C 0.24427 0.16170 -0.21959
 H52 H 0.29258 0.22443 -0.18795
 H53 H 0.21933 0.16062 -0.13870
 H54 H 0.23953 0.14878 -0.24244
 C55 C 0.65299 0.28459 -0.18415
 C56 C 0.66551 0.31438 -0.19722
 C57 C 0.69599 0.32896 -0.18397
 C58 C 0.71415 0.31352 -0.15724
 C59 C 0.70209 0.28391 -0.14361
 C60 C 0.67143 0.26975 -0.15709
 H61 H 0.65181 0.32642 -0.21787
 H62 H 0.73756 0.32466 -0.14676
 H63 H 0.66212 0.24682 -0.14686
 C64 C 0.20615 0.78385 0.25339
 C65 C 0.22964 0.80896 0.26197
 C66 C 0.25117 0.80634 0.29095
 C67 C 0.24892 0.77789 0.31108
 C68 C 0.22629 0.75232 0.30237
 C69 C 0.20514 0.75551 0.27350
 H70 H 0.23043 0.83073 0.24636
 H71 H 0.26542 0.77530 0.33326
 H72 H 0.18763 0.73583 0.26695
 C73 C 0.46314 0.40398 0.48373
 C74 C 0.43625 0.42272 0.49758
 C75 C 0.42081 0.44880 0.47969
 C76 C 0.43243 0.45610 0.44740
 C77 C 0.45966 0.43824 0.43316
 C78 C 0.47529 0.41232 0.45156
 H79 H 0.42718 0.41720 0.52250
 H80 H 0.42061 0.47607 0.43324
 H81 H 0.49599 0.39818 0.44050
 C82 C -0.05429 -0.08337 0.95810
 C83 C -0.07237 -0.06279 0.97941
 C84 C -0.08707 -0.03321 0.96748
 C85 C -0.08339 -0.02456 0.93344
 C86 C -0.06473 -0.04467 0.91195
 C87 C -0.05050 -0.07403 0.92450
 H88 H -0.07484 -0.06977 1.00545
 H89 H -0.09409 -0.00187 0.92363
 H90 H -0.03658 -0.08987 0.90800
 C91 C 1.05019 0.55990 0.96361
 C92 C 1.03168 0.54434 0.93796
 C93 C 1.04493 0.51626 0.92338
 C94 C 1.07735 0.50352 0.93502
 C95 C 1.09647 0.51879 0.96071
 C96 C 1.08261 0.54701 0.97488
 H97 H 1.00661 0.55423 0.92955
 H98 H 1.08778 0.48200 0.92370
 H99 H 1.09718 0.55898 0.99452
 C100 C 0.51438 0.04202 0.53819
 C101 C 0.53348 0.01313 0.54321
 C102 C 0.54463 -0.00524 0.51612
 C103 C 0.53389 0.00449 0.48362
 C104 C 0.51284 0.03238 0.47840
 C105 C 0.50405 0.05147 0.50567
 H106 H 0.54160 0.00608 0.56839
 H107 H 0.54150 -0.00965 0.46245
 H108 H 0.48837 0.07324 0.50161
 C109 C -0.07284 0.11673 0.48894
 C110 C -0.04412 0.10706 0.50919
 C111 C -0.04508 0.07770 0.52786
 C112 C -0.07472 0.05718 0.52486
 C113 C -0.10370 0.06652 0.50431
 C114 C -0.10267 0.09683 0.48741
 H115 H -0.02127 0.12277 0.51095
 H116 H -0.07514 0.03420 0.53851
 H117 H -0.12462 0.10446 0.47144
 C118 C 0.50948 0.57091 -0.01349
 C119 C 0.51613 0.57175 0.02085
 C120 C 0.50427 0.54680 0.04217
 C121 C 0.48608 0.52027 0.02877
 C122 C 0.47878 0.51933 -0.00584
 C123 C 0.49050 0.54495 -0.02677
 H124 H 0.53054 0.59212 0.03107
 H125 H 0.47712 0.50094 0.04533
 H126 H 0.48518 0.54465 -0.05341
 C127 C 0.55178 -0.09424 0.04579
 C128 C 0.56887 -0.06719 0.03127
 C129 C 0.57942 -0.04072 0.05075
 C130 C 0.57204 -0.04111 0.08505
 C131 C 0.55550 -0.06814 0.09986
 C132 C 0.54599 -0.09458 0.08032
 H133 H 0.57418 -0.06657 0.00482
 H134 H 0.57913 -0.02061 0.10025
 H135 H 0.53276 -0.11508 0.09211
 C136 C 1.00590 0.45422 0.49913
 C137 C 0.97901 0.45098 0.52256
 C138 C 0.98152 0.46638 0.55330
 C139 C 1.01105 0.48587 0.56003
 C140 C 1.03794 0.49024 0.53648
 C141 C 1.03549 0.47353 0.50616
 H142 H 0.95616 0.43616 0.51679
 H143 H 1.01288 0.49819 0.58353
 H144 H 1.05569 0.47613 0.48751
 C145 C 0.46057 -0.00229 0.22831
 H146 H 0.45923 0.02325 0.23402
 C147 C 0.48736 -0.01363 0.20801
 H148 H 0.50646 0.00327 0.19777
 C149 C 0.43776 -0.05563 0.23522
 H150 H 0.41877 -0.07204 0.24625
 C151 C 0.46456 -0.06806 0.21581
 H152 H 0.46547 -0.09391 0.21140
 N153 N 0.43586 -0.02317 0.24063
 C154 C 0.34851 0.04136 0.26447
 H155 H 0.34178 0.03140 0.28877
 C156 C 0.33167 0.06942 0.25216
 H157 H 0.31165 0.08044 0.26711
 C158 C 0.38310 0.03879 0.21593
 H159 H 0.40295 0.02672 0.20170
 C160 C 0.36693 0.06683 0.20264
 H161 H 0.37491 0.07620 0.17846
 Zn162 Zn 0.40016 -0.00714 0.26836
 N163 N 0.37466 0.02739 0.24692
 C164 C 0.42088 0.03961 0.31619
 N165 N 0.42355 0.00805 0.30716
 C166 C 0.44432 -0.01331 0.32487
 C167 C 0.46211 -0.00361 0.35377
 C168 C 0.43822 0.05035 0.34486
 C169 C 0.34936 -0.05535 0.25449
 C170 C 0.32806 -0.08246 0.26118
 C171 C 0.34416 -0.07877 0.31950
 C172 C 0.36495 -0.05172 0.31174
 N173 N 0.36802 -0.04113 0.27953
 H174 H 0.40541 0.05662 0.30122
 H175 H 0.44675 -0.03807 0.31665
 H176 H 0.47813 -0.02121 0.36751
 H177 H 0.43526 0.07544 0.35188
 H178 H 0.35205 -0.04631 0.22910
 H179 H 0.31462 -0.09414 0.24069
 H180 H 0.34284 -0.08736 0.34518
 H181 H 0.37918 -0.03968 0.33146
 C182 C 0.34161 0.08314 0.22124
 C183 C 0.48940 -0.04691 0.20154
 C184 C 0.32588 -0.09492 0.29402
 C185 C 0.45878 0.02856 0.36438
 C186 C 0.03080 -0.00869 0.66368
 H187 H 0.02034 -0.03160 0.67289
 C188 C 0.01698 0.00558 0.63423
 H189 H -0.00387 -0.00666 0.62072
 C190 C 0.07065 0.03514 0.67020
 H191 H 0.09105 0.04706 0.68441
 C192 C 0.05798 0.04999 0.64080
 H193 H 0.06904 0.07306 0.63272
 N194 N 0.05739 0.00607 0.68087
 C195 C 0.12321 -0.06475 0.73618
 H196 H 0.12375 -0.05432 0.76072
 C197 C 0.14502 -0.09121 0.72946
 H198 H 0.16177 -0.10130 0.74918
 C199 C 0.10105 -0.06378 0.68058
 H200 H 0.08443 -0.05276 0.66136
 C201 C 0.12209 -0.09033 0.67290
 H202 H 0.12117 -0.09953 0.64781
 Zn203 Zn 0.07519 -0.01379 0.72111
 N204 N 0.10181 -0.05159 0.71183
 C205 C 0.03686 -0.04985 0.77010
 N206 N 0.03650 -0.02348 0.74903
 C207 C 0.01087 -0.00045 0.75064
 C208 C -0.01469 -0.00251 0.77528
 C209 C 0.01179 -0.05284 0.79522
 C210 C 0.13629 0.02539 0.73063
 C211 C 0.15760 0.04795 0.74711
 C212 C 0.11572 0.04799 0.79190
 C213 C 0.09509 0.02591 0.77446
 N214 N 0.10522 0.01547 0.74411
 H215 H 0.05753 -0.06779 0.76849
 H216 H 0.01148 0.02053 0.73390
 H217 H -0.03392 0.01680 0.77700
 H218 H 0.01320 -0.07358 0.81223
 H219 H 0.14422 0.01615 0.70683
 H220 H 0.18202 0.05584 0.73591
 H221 H 0.10688 0.05629 0.81581
 H222 H 0.07084 0.01732 0.78530
 C223 C 0.14471 -0.10426 0.69736
 C224 C 0.03080 0.03527 0.62240
 C225 C 0.14711 0.05971 0.77807
 C226 C -0.01374 -0.02836 0.79874
 C227 C 0.56968 0.48893 0.19703
 H228 H 0.56921 0.46378 0.20546
 C229 C 0.55061 0.49862 0.16821
 H230 H 0.53573 0.48081 0.15437
 C231 C 0.58847 0.54311 0.20535
 H232 H 0.60255 0.56066 0.22006
 C233 C 0.56939 0.55384 0.17731
 H234 H 0.56972 0.57944 0.17048
 N235 N 0.58868 0.51110 0.21458
 C236 C 0.67208 0.46271 0.27277
 H237 H 0.66927 0.47595 0.29560
 C238 C 0.70157 0.44315 0.26851
 H239 H 0.72133 0.44106 0.28825
 C240 C 0.65095 0.45101 0.21834
 H241 H 0.63198 0.45518 0.19835
 C242 C 0.67975 0.43052 0.21332
 H243 H 0.68263 0.41889 0.18956
 Zn244 Zn 0.61391 0.49949 0.25453
 N245 N 0.64784 0.46677 0.24767
 C246 C 0.58521 0.45924 0.30695
 N247 N 0.58086 0.48625 0.28702
 C248 C 0.55159 0.50512 0.28890
 C249 C 0.52507 0.49702 0.31125
 C250 C 0.55944 0.45053 0.33022
 C251 C 0.66660 0.54648 0.24964
 C252 C 0.68627 0.57391 0.25790
 C253 C 0.65028 0.57974 0.30661
 C254 C 0.63129 0.55211 0.29741
 N255 N 0.63946 0.53637 0.26909
 H256 H 0.60856 0.44440 0.30482
 H257 H 0.54878 0.52640 0.27274
 H258 H 0.50188 0.51232 0.31225
 H259 H 0.56306 0.42895 0.34583
 H260 H 0.67266 0.53335 0.22735
 H261 H 0.70736 0.58146 0.24167
 H262 H 0.64315 0.59218 0.32904
 H263 H 0.60985 0.54348 0.31271
 C264 C 0.70585 0.42715 0.23836
 C265 C 0.55036 0.53155 0.15819
 C266 C 0.67805 0.59119 0.28663
 C267 C 0.52879 0.46950 0.33233
 C268 C 0.90570 0.50556 0.70413
 H269 H 0.91626 0.52517 0.71881
 C270 C 0.92002 0.49899 0.67312
 H271 H 0.94135 0.51405 0.66410
 C272 C 0.86487 0.46234 0.69847
 H273 H 0.84380 0.44771 0.70863
 C274 C 0.87833 0.45497 0.66735
 H275 H 0.86721 0.43485 0.65377
 N276 N 0.87841 0.48751 0.71600
 C277 C 0.82387 0.54825 0.78630
 H278 H 0.82359 0.53177 0.80772
 C279 C 0.80715 0.57837 0.78772
 H280 H 0.79412 0.58492 0.81045
 C281 C 0.84069 0.55919 0.73050
 H282 H 0.85326 0.55140 0.70805
 C283 C 0.82427 0.58960 0.73082
 H284 H 0.82481 0.60479 0.70849
 Zn285 Zn 0.86074 0.49727 0.75845
 N286 N 0.84040 0.53933 0.75809
 C287 C 0.90819 0.52163 0.80674
 N288 N 0.89890 0.49477 0.78955
 C289 C 0.91775 0.46670 0.79293
 C290 C 0.94669 0.46471 0.81502
 C291 C 0.93683 0.52074 0.82898
 C292 C 0.79443 0.46996 0.75082
 C293 C 0.76645 0.44869 0.75657
 C294 C 0.80023 0.42376 0.80193
 C295 C 0.82762 0.44563 0.79532
 N296 N 0.82447 0.46772 0.76970
 H297 H 0.89374 0.54405 0.80293
 H298 H 0.91031 0.44588 0.77839
 H299 H 0.96124 0.44214 0.81761
 H300 H 0.94366 0.54266 0.84191
 H301 H 0.79248 0.48809 0.73090
 H302 H 0.74302 0.45056 0.74085
 H303 H 0.80341 0.40633 0.82233
 H304 H 0.85138 0.44477 0.81056
 C305 C 0.80708 0.59954 0.75973
 C306 C 0.90629 0.47333 0.65428
 C307 C 0.76926 0.42489 0.78210
 C308 C 0.95643 0.49192 0.83359
 C309 C 0.26113 0.43036 0.00258
 H310 H 0.28513 0.43352 0.01713
 C311 C 0.23612 0.45517 0.00072
 H312 H 0.24119 0.47742 0.01387
 C313 C 0.22553 0.39720 -0.03187
 H314 H 0.22156 0.37451 -0.04446
 C315 C 0.19969 0.42149 -0.03442
 H316 H 0.17603 0.41695 -0.04897
 N317 N 0.25524 0.40187 -0.01310
 C318 C 0.30840 0.32640 0.04680
 H319 H 0.32615 0.31608 0.02899
 C320 C 0.30556 0.31228 0.07876
 H321 H 0.32153 0.29129 0.08557
 C322 C 0.26555 0.36603 0.05938
 H323 H 0.24932 0.38647 0.05169
 C324 C 0.26230 0.35305 0.09158
 H325 H 0.24375 0.36388 0.10833
 Zn326 Zn 0.29045 0.36957 -0.00671
 N327 N 0.28842 0.35273 0.03772
 C328 C 0.35828 0.39319 0.01099
 N329 N 0.33414 0.39023 -0.01424
 C330 C 0.33854 0.40558 -0.04427
 C331 C 0.36795 0.42523 -0.04973
 C332 C 0.38788 0.41303 0.00675
 C333 C 0.25543 0.31474 -0.02834
 C334 C 0.24927 0.28678 -0.04650
 C335 C 0.29928 0.30037 -0.08075
 C336 C 0.30495 0.32789 -0.06143
 N337 N 0.28302 0.33453 -0.03584
 H338 H 0.35389 0.38130 0.03488
 H339 H 0.31843 0.40351 -0.06357
 H340 H 0.37055 0.43798 -0.07349
 H341 H 0.40646 0.41571 0.02728
 H342 H 0.23866 0.32037 -0.00765
 H343 H 0.22748 0.27103 -0.03983
 H344 H 0.31715 0.29504 -0.10070
 H345 H 0.32721 0.34349 -0.06657
 C346 C 0.28212 0.32564 0.10154
 C347 C 0.20468 0.45088 -0.01764
 C348 C 0.27138 0.27925 -0.07298
 C349 C 0.39258 0.42982 -0.02376
 C350 C 0.70811 0.08329 0.00363
 H351 H 0.72539 0.08820 -0.01712
 C352 C 0.68147 0.06018 0.00066
 H353 H 0.67832 0.04745 -0.02254
 C354 C 0.69225 0.09327 0.05943
 H355 H 0.69709 0.10575 0.08249
 C356 C 0.66544 0.06989 0.05769
 H357 H 0.64935 0.06510 0.07930
 N358 N 0.71281 0.09955 0.03250
 C359 C 0.77515 0.18037 -0.00659
 H360 H 0.79867 0.17790 0.00892
 C361 C 0.77285 0.20519 -0.03086
 H362 H 0.79489 0.22163 -0.03407
 C363 C 0.71752 0.16233 -0.02052
 H364 H 0.69558 0.14623 -0.01575
 C365 C 0.71409 0.18678 -0.04507
 H366 H 0.68952 0.18872 -0.05901
 Zn367 Zn 0.75195 0.12811 0.03307
 N368 N 0.74782 0.15941 -0.00205
 C369 C 0.80983 0.10120 -0.00146
 N370 N 0.79176 0.10132 0.02759
 C371 C 0.79818 0.07879 0.05223
 C372 C 0.82311 0.05441 0.04792
 C373 C 0.83494 0.07705 -0.00692
 C374 C 0.72622 0.16847 0.08197
 C375 C 0.72797 0.18964 0.10862
 C376 C 0.78968 0.17620 0.11619
 C377 C 0.78657 0.15470 0.08973
 N378 N 0.75523 0.15151 0.07306
 H379 H 0.80365 0.11884 -0.02107
 H380 H 0.78285 0.07907 0.07477
 H381 H 0.82710 0.03620 0.06753
 H382 H 0.84848 0.07703 -0.03045
 H383 H 0.70193 0.16624 0.06766
 H384 H 0.70478 0.20344 0.11491
 H385 H 0.81494 0.17908 0.12875
 H386 H 0.80956 0.14168 0.08161
 C387 C 0.74200 0.20870 -0.05051
 C388 C 0.65993 0.05296 0.02796
 C389 C 0.76017 0.19428 0.12560
 C390 C 0.84125 0.05276 0.01772
 C391 C 0.19266 0.56917 0.49363
 H392 H 0.20909 0.56039 0.47401
 C393 C 0.16239 0.55180 0.50230
 H394 H 0.15558 0.53025 0.48865
 C395 C 0.18355 0.60599 0.53722
 H396 H 0.19224 0.62643 0.55153
 C397 C 0.15320 0.58929 0.54681
 H398 H 0.13861 0.59760 0.56799
 N399 N 0.20250 0.59594 0.51081
 C400 C 0.25214 0.66911 0.45404
 H401 H 0.26257 0.68181 0.47531
 C402 C 0.24819 0.68579 0.42348
 H403 H 0.25522 0.71122 0.42206
 C404 C 0.23067 0.62067 0.43031
 H405 H 0.22419 0.59524 0.43285
 C406 C 0.22624 0.63639 0.39930
 H407 H 0.21609 0.62280 0.37842
 Zn408 Zn 0.24606 0.61595 0.49972
 N409 N 0.24278 0.63726 0.45713
 C410 C 0.30182 0.57815 0.47362
 N411 N 0.27966 0.58228 0.49950
 C412 C 0.28019 0.56180 0.52657
 C413 C 0.30390 0.53595 0.52853
 C414 C 0.32605 0.55252 0.47453
 C415 C 0.23853 0.67248 0.53836
 C416 C 0.24763 0.69443 0.56317
 C417 C 0.30044 0.66308 0.57486
 C418 C 0.29028 0.64172 0.54998
 N419 N 0.25950 0.64639 0.53263
 H420 H 0.30083 0.59480 0.45236
 H421 H 0.26211 0.56567 0.54672
 H422 H 0.30389 0.51997 0.55035
 H423 H 0.34351 0.54987 0.45372
 H424 H 0.21455 0.67609 0.52374
 H425 H 0.23046 0.71487 0.56731
 H426 H 0.32483 0.65864 0.58863
 H427 H 0.30709 0.62136 0.54465
 C428 C 0.23463 0.66950 0.39562
 C429 C 0.14228 0.56179 0.52932
 C430 C 0.27882 0.68962 0.58207
 C431 C 0.32728 0.53096 0.50233
 C432 C 0.70344 0.90418 0.52336
 H433 H 0.72533 0.90375 0.54103
 C434 C 0.67139 0.91738 0.53235
 H435 H 0.66879 0.92721 0.55702
 C436 C 0.68084 0.89230 0.46948
 H437 H 0.68495 0.88259 0.44500
 C438 C 0.64819 0.90621 0.47726
 H439 H 0.62703 0.90698 0.45880
 N440 N 0.70752 0.89152 0.49267
 C441 C 0.79625 0.83411 0.52971
 H442 H 0.81858 0.84359 0.51612
 C443 C 0.80169 0.81276 0.55705
 H444 H 0.82830 0.80615 0.56472
 C445 C 0.73436 0.83106 0.53649
 H446 H 0.70805 0.83758 0.52803
 C447 C 0.73853 0.80982 0.56369
 H448 H 0.71526 0.80041 0.57583
 Zn449 Zn 0.75372 0.87551 0.48685
 N450 N 0.76298 0.84384 0.52093
 C451 C 0.80770 0.91787 0.51457
 N452 N 0.78268 0.91273 0.49047
 C453 C 0.77366 0.93643 0.46781
 C454 C 0.78989 0.96665 0.46860
 C455 C 0.82498 0.94797 0.51611
 C456 C 0.73943 0.83049 0.43647
 C457 C 0.74552 0.81412 0.40690
 C458 C 0.79315 0.85147 0.39514
 C459 C 0.78628 0.86699 0.42492
 N460 N 0.75984 0.85630 0.44493
 H461 H 0.81362 0.89918 0.53314
 H462 H 0.75321 0.93188 0.44935
 H463 H 0.78204 0.98515 0.45034
 H464 H 0.84440 0.95199 0.53566
 H465 H 0.71882 0.82229 0.45303
 H466 H 0.72903 0.79360 0.40075
 H467 H 0.81470 0.86005 0.37987
 H468 H 0.80282 0.88699 0.43242
 C469 C 0.77253 0.80121 0.57499
 C470 C 0.64332 0.91869 0.50923
 C471 C 0.77304 0.82437 0.38598
 C472 C 0.81577 0.97287 0.49302
 C473 C 0.01925 0.23788 0.40246
 H474 H 0.04576 0.24508 0.40946
 C475 C 0.00050 0.21655 0.42320
 H476 H 0.01289 0.20715 0.44592
 C477 C -0.02984 0.24306 0.36541
 H478 H -0.04222 0.25455 0.34378
 C479 C -0.04966 0.22221 0.38559
 H480 H -0.07672 0.21696 0.37853
 N481 N 0.00429 0.24987 0.37363
 C482 C 0.09910 0.28828 0.32550
 H483 H 0.09040 0.31284 0.31971
 C484 C 0.13244 0.27806 0.31566
 H485 H 0.14950 0.29510 0.30277
 C486 C 0.08673 0.23587 0.34810
 H487 H 0.06831 0.21898 0.35923
 C488 C 0.11994 0.22476 0.33906
 H489 H 0.12692 0.19957 0.34396
 Zn490 Zn 0.03001 0.28081 0.34797
 N491 N 0.07692 0.26713 0.34115
 C492 C 0.05444 0.33515 0.38732
 N493 N 0.02710 0.31978 0.37186
 C494 C -0.00645 0.33112 0.37358
 C495 C -0.01375 0.35907 0.39100
 C496 C 0.04817 0.36321 0.40565
 C497 C -0.00698 0.26396 0.28780
 C498 C -0.02754 0.27139 0.25928
 C499 C -0.01119 0.32777 0.26481
 C500 C 0.00829 0.31939 0.29343
 N501 N 0.00866 0.28820 0.30528
 H502 H 0.08087 0.32543 0.38591
 H503 H -0.02770 0.31823 0.36132
 H504 H -0.04078 0.36744 0.39208
 H505 H 0.07000 0.37517 0.41803
 H506 H -0.00515 0.23909 0.29699
 H507 H -0.04157 0.25215 0.24676
 H508 H -0.01257 0.35309 0.25696
 H509 H 0.02202 0.33810 0.30700
 C510 C 0.14293 0.24572 0.32192
 C511 C -0.03441 0.20840 0.41469
 C512 C -0.03090 0.30393 0.24827
 C513 C 0.01356 0.37538 0.40764
 C514 C -0.01217 0.69789 0.06023
 H515 H -0.03579 0.71252 0.06171
 C516 C -0.01031 0.67376 0.03667
 H517 H -0.03280 0.66988 0.02025
 C518 C 0.04588 0.68595 0.07970
 H519 H 0.06788 0.69134 0.09616
 C520 C 0.04885 0.66122 0.05632
 H521 H 0.07323 0.64768 0.05507
 N522 N 0.01557 0.70359 0.08115
 C523 C -0.04497 0.75152 0.15787
 H524 H -0.03489 0.77612 0.15756
 C525 C -0.07378 0.74323 0.17793
 H526 H -0.08572 0.76179 0.19273
 C527 C -0.04165 0.69760 0.13877
 H528 H -0.02888 0.67957 0.12400
 C529 C -0.07018 0.68834 0.15829
 H530 H -0.07909 0.66335 0.15788
 Zn531 Zn 0.00761 0.73949 0.10881
 N532 N -0.03005 0.72890 0.13820
 C533 C -0.03415 0.79196 0.07892
 N534 N -0.00416 0.77379 0.07835
 C535 C 0.01973 0.77790 0.05366
 C536 C 0.01413 0.80097 0.02825
 C537 C -0.04063 0.81576 0.05401
 C538 C 0.06455 0.73004 0.15531
 C539 C 0.09474 0.73923 0.17342
 C540 C 0.09125 0.79232 0.14668
 C541 C 0.06119 0.78223 0.12932
 N542 N 0.04861 0.75145 0.13355
 H543 H -0.05321 0.78782 0.09831
 H544 H 0.04316 0.76289 0.05365
 H545 H 0.03348 0.80375 0.00881
 H546 H -0.06472 0.82982 0.05453
 H547 H 0.05388 0.70580 0.15852
 H548 H 0.10722 0.72168 0.19027
 H549 H 0.10071 0.81693 0.14287
 H550 H 0.04781 0.79927 0.11263
 C551 C -0.08702 0.71125 0.17795
 C552 C 0.02045 0.65509 0.03427
 C553 C 0.10848 0.77082 0.16913
 C554 C -0.01628 0.82031 0.02818
 C555 C 0.46775 0.19023 0.60716
 H556 H 0.45332 0.20872 0.59302
 C557 C 0.47313 0.15974 0.59337
 H558 H 0.46237 0.15487 0.56882
 C559 C 0.49934 0.17414 0.65623
 H560 H 0.51001 0.17962 0.68050
 C561 C 0.50495 0.14332 0.64360
 H562 H 0.51978 0.12559 0.65844
 N563 N 0.48046 0.19678 0.63826
 C564 C 0.41705 0.24791 0.70410
 H565 H 0.43737 0.25988 0.71849
 C566 C 0.38429 0.24164 0.71854
 H567 H 0.38012 0.24880 0.74394
 C568 C 0.39829 0.22369 0.65385
 H569 H 0.40397 0.21624 0.62885
 C570 C 0.36522 0.21706 0.66720
 H571 H 0.34581 0.20455 0.65211
 Zn572 Zn 0.47079 0.23823 0.65627
 N573 N 0.42392 0.23769 0.67278
 C574 C 0.44893 0.29109 0.61439
 N575 N 0.47557 0.26981 0.62145
 C576 C 0.50528 0.26956 0.60284
 C577 C 0.50904 0.29137 0.57586
 C578 C 0.45160 0.31334 0.58770
 C579 C 0.50040 0.22762 0.72029
 C580 C 0.52455 0.23101 0.74656
 C581 C 0.55295 0.27411 0.71513
 C582 C 0.52818 0.26983 0.68934
 N583 N 0.50296 0.24642 0.69207
 H584 H 0.42542 0.29063 0.62933
 H585 H 0.52592 0.25211 0.60878
 H586 H 0.53283 0.29073 0.56130
 H587 H 0.42976 0.32964 0.58251
 H588 H 0.47983 0.20946 0.72215
 H589 H 0.52235 0.21535 0.76849
 H590 H 0.57328 0.29227 0.71191
 H591 H 0.52959 0.28483 0.66693
 C592 C 0.35827 0.22486 0.70042
 C593 C 0.49170 0.13575 0.61187
 C594 C 0.55159 0.25418 0.74408
 C595 C 0.48200 0.31369 0.56791
 C596 C 0.53720 0.72446 0.89711
 H597 H 0.55651 0.74383 0.89713
 C598 C 0.54449 0.69547 0.91419
 H599 H 0.56949 0.69288 0.92742
 C600 C 0.48103 0.70505 0.87998
 H601 H 0.45631 0.70915 0.86673
 C602 C 0.48719 0.67541 0.89715
 H603 H 0.46706 0.65679 0.89675
 N604 N 0.50611 0.72873 0.88028
 C605 C 0.54821 0.80326 0.81361
 H606 H 0.53373 0.82497 0.81959
 C607 C 0.57708 0.80532 0.79225
 H608 H 0.58480 0.82874 0.78192
 C609 C 0.55597 0.74633 0.81977
 H610 H 0.54736 0.72317 0.82987
 C611 C 0.58478 0.74726 0.79869
 H612 H 0.59777 0.72470 0.79304
 Zn613 Zn 0.50274 0.77053 0.85984
 N614 N 0.53902 0.77417 0.82777
 C615 C 0.53676 0.82070 0.89821
 N616 N 0.50959 0.79921 0.89555
 C617 C 0.48683 0.79409 0.92098
 C618 C 0.49109 0.81046 0.95074
 C619 C 0.54179 0.83797 0.92763
 C620 C 0.44671 0.75908 0.81419
 C621 C 0.41458 0.76549 0.79766
 C622 C 0.40671 0.81200 0.83247
 C623 C 0.43895 0.80475 0.84825
 N624 N 0.45819 0.77860 0.83903
 H625 H 0.55526 0.82369 0.87817
 H626 H 0.46586 0.77644 0.91838
 H627 H 0.47302 0.80559 0.97090
 H628 H 0.56401 0.85434 0.92979
 H629 H 0.46265 0.73863 0.80709
 H630 H 0.40601 0.74943 0.77817
 H631 H 0.39200 0.83307 0.84003
 H632 H 0.44881 0.82045 0.86751
 C633 C 0.59629 0.77711 0.78524
 C634 C 0.51937 0.67046 0.91465
 C635 C 0.39418 0.79245 0.80663
 C636 C 0.51901 0.83246 0.95450
 N637 N 0.19083 0.20610 0.31981
 N638 N 0.21787 0.19901 0.30072
 C639 C 0.21976 0.22271 0.27699
 C640 C 0.19296 0.24467 0.28234
 N641 N 0.17551 0.23345 0.30923
 H642 H 0.18533 0.26542 0.26682
 N643 N 0.63525 0.80348 0.74461
 N644 N 0.66504 0.79758 0.72891
 C645 C 0.67655 0.76808 0.73977
 C646 C 0.65267 0.75610 0.76257
 N647 N 0.62722 0.77877 0.76483
 H648 H 0.65367 0.73304 0.77601
 N649 N 0.33851 0.82238 0.79965
 N650 N 0.31140 0.82501 0.77843
 C651 C 0.31720 0.80399 0.75376
 C652 C 0.34891 0.78838 0.76075
 N653 N 0.36137 0.80043 0.78956
 H654 H 0.36205 0.77054 0.74598
 N655 N -0.05919 0.34411 0.21172
 N656 N -0.09070 0.34976 0.19826
 C657 C -0.10928 0.32192 0.20111
 C658 C -0.08766 0.29870 0.21642
 N659 N -0.05681 0.31379 0.22336
 H660 H -0.09563 0.27517 0.22630
 N661 N -0.13330 0.67307 0.19403
 N662 N -0.16040 0.67056 0.21435
 C663 C -0.16210 0.69856 0.23107
 C664 C -0.13484 0.71844 0.22013
 N665 N -0.11747 0.70159 0.19700
 H666 H -0.12816 0.74253 0.22839
 N667 N 0.30351 0.19397 0.70058
 N668 N 0.27947 0.18306 0.72159
 C669 C 0.28701 0.19580 0.75161
 C670 C 0.31663 0.21531 0.74802
 N671 N 0.32630 0.21326 0.71580
 H672 H 0.33091 0.22790 0.76738
 N673 N 0.58188 0.23410 0.79463
 N674 N 0.60902 0.24142 0.81425
 C675 C 0.62298 0.26938 0.80213
 C676 C 0.60316 0.27894 0.77423
 N677 N 0.57788 0.25623 0.77034
 H678 H 0.60695 0.30001 0.75812
 N679 N 0.15701 0.80848 0.18004
 N680 N 0.18318 0.81279 0.20181
 C681 C 0.18226 0.78757 0.22386
 C682 C 0.15446 0.76761 0.21473
 N683 N 0.13939 0.78148 0.18729
 H684 H 0.14528 0.74586 0.22747
 N685 N 0.33369 0.12700 0.17945
 N686 N 0.31907 0.15621 0.17638
 C687 C 0.30286 0.16194 0.20538
 C688 C 0.30807 0.13516 0.22629
 N689 N 0.32735 0.11383 0.20924
 H690 H 0.29979 0.13213 0.25184
 N691 N 0.77056 0.63978 0.78679
 N692 N 0.75540 0.66828 0.78036
 C693 C 0.76449 0.67743 0.74914
 C694 C 0.78576 0.65344 0.73664
 N695 N 0.78889 0.63029 0.76087
 H696 H 0.79691 0.65265 0.71202
 N697 N 0.70986 0.40411 0.77161
 N698 N 0.68969 0.37901 0.77988
 C699 C 0.70859 0.36021 0.80158
 C700 C 0.74112 0.37473 0.80634
 N701 N 0.74089 0.40209 0.78721
 H702 H 0.76312 0.36563 0.82127
 N703 N 0.31299 -0.14238 0.32918
 N704 N 0.29370 -0.16917 0.32897
 C705 C 0.27464 -0.16871 0.30021
 C706 C 0.28311 -0.14031 0.28272
 N707 N 0.30720 -0.12466 0.30166
 H708 H 0.27315 -0.13201 0.25858
 N709 N 0.16217 -0.14877 0.66210
 N710 N 0.18728 -0.17091 0.65992
 C711 C 0.20924 -0.16748 0.68647
 C712 C 0.19631 -0.14225 0.70523
 N713 N 0.16697 -0.13124 0.68909
 H714 H 0.20761 -0.13222 0.72770
 N715 N 0.76909 0.41922 0.24457
 N716 N 0.79408 0.39906 0.23533
 C717 C 0.77835 0.37612 0.21672
 C718 C 0.74261 0.38298 0.21478
 N719 N 0.73804 0.41003 0.23254
 H720 H 0.72193 0.36944 0.20239
 N721 N 0.68948 0.63827 0.32136
 N722 N 0.71060 0.66388 0.32275
 C723 C 0.73262 0.66223 0.29672
 C724 C 0.72415 0.63459 0.27930
 N725 N 0.69707 0.62027 0.29544
 H726 H 0.73622 0.62614 0.25686
 N727 N 0.16450 0.08869 0.82798
 N728 N 0.18513 0.11295 0.83713
 C729 C 0.20209 0.12363 0.80964
 C730 C 0.19118 0.10478 0.78321
 N731 N 0.16773 0.08331 0.79574
 H732 H 0.19859 0.10709 0.75732
 N733 N 0.26355 0.32740 0.15935
 N734 N 0.25966 0.30780 0.18565
 C735 C 0.27164 0.27828 0.17719
 C736 C 0.28325 0.28056 0.14464
 N737 N 0.27764 0.31161 0.13441
 H738 H 0.29287 0.26123 0.12935
 N739 N 0.80551 0.76418 0.61293
 N740 N 0.80146 0.74925 0.64233
 C741 C 0.76948 0.75799 0.65353
 C742 C 0.75408 0.77853 0.62996
 N743 N 0.77719 0.78174 0.60499
 H744 H 0.72853 0.79013 0.63088
 N745 N 0.80371 0.81809 0.33335
 N746 N 0.80821 0.79622 0.31003
 C747 C 0.78817 0.77029 0.31838
 C748 C 0.77116 0.77711 0.34769
 N749 N 0.78153 0.80716 0.35623
 H750 H 0.75419 0.76122 0.36207
 N751 N 0.25101 0.22354 -0.07677
 N752 N 0.24701 0.20054 -0.09899
 C753 C 0.25995 0.21217 -0.12806
 C754 C 0.27236 0.24336 -0.12276
 N755 N 0.26604 0.24950 -0.09045
 H756 H 0.28287 0.26051 -0.14091
 N757 N 0.76236 0.25861 -0.07832
 N758 N 0.75261 0.27913 -0.10269
 C759 C 0.72193 0.26795 -0.11554
 C760 C 0.71326 0.23977 -0.09811
 N761 N 0.73910 0.23476 -0.07507
 H762 H 0.69051 0.22442 -0.10194
 N763 N 0.21142 0.67327 0.33848
 N764 N 0.20852 0.69454 0.31330
 C765 C 0.22440 0.72213 0.32313
 C766 C 0.23715 0.71698 0.35531
 N767 N 0.22848 0.68620 0.36405
 H768 H 0.25085 0.73415 0.37087
 N769 N 0.32001 0.71034 0.62384
 N770 N 0.32119 0.73158 0.64813
 C771 C 0.28948 0.74645 0.64838
 C772 C 0.26878 0.73355 0.62324
 N773 N 0.28879 0.71108 0.60851
 H774 H 0.24152 0.73913 0.61715
 N775 N 0.73562 0.23022 0.16682
 N776 N 0.74497 0.25593 0.18416
 C777 C 0.77963 0.26100 0.17887
 C778 C 0.79126 0.23729 0.15773
 N779 N 0.76296 0.21865 0.15069
 H780 H 0.81682 0.23565 0.14621
 N781 N 0.51031 0.33458 0.51708
 N782 N 0.50623 0.35817 0.49420
 C783 C 0.47767 0.37548 0.50277
 C784 C 0.46440 0.36150 0.53167
 N785 N 0.48539 0.33607 0.53984
 H786 H 0.44157 0.36903 0.54530
 N787 N -0.00668 0.84245 -0.02783
 N788 N -0.01616 0.86757 -0.04712
 C789 C -0.03850 0.88567 -0.02939
 C790 C -0.04253 0.87055 0.00153
 N791 N -0.02222 0.84370 0.00147
 H792 H -0.05807 0.87851 0.02222
 N793 N -0.00102 0.62934 -0.01606
 N794 N 0.00598 0.60455 -0.03525
 C795 C 0.03491 0.58966 -0.02225
 C796 C 0.04557 0.60646 0.00580
 N797 N 0.02230 0.63103 0.00879
 H798 H 0.06730 0.60082 0.02275
 N799 N 0.50581 0.07812 0.61788
 N800 N 0.51174 0.05266 0.59919
 C801 C 0.50676 0.06248 0.56712
 C802 C 0.49746 0.09500 0.56683
 N803 N 0.49727 0.10383 0.59900
 H804 H 0.49331 0.11104 0.54538
 N805 N -0.08954 0.18458 0.43390
 N806 N -0.10075 0.16060 0.45356
 C807 C -0.07193 0.14687 0.46817
 C808 C -0.04256 0.16337 0.45680
 N809 N -0.05469 0.18664 0.43538
 H810 H -0.01511 0.15762 0.46187
 N811 N 0.55771 0.63537 0.94875
 N812 N 0.55626 0.60896 0.96807
 C813 C 0.52325 0.59722 0.96506
 C814 C 0.50432 0.61739 0.94334
 N815 N 0.52683 0.64112 0.93379
 H816 H 0.47643 0.61616 0.93731
 N817 N 0.51289 0.83519 1.01463
 N818 N 0.52150 0.85417 1.03965
 C819 C 0.53956 0.87965 1.02672
 C820 C 0.54187 0.87541 0.99258
 N821 N 0.52480 0.84744 0.98616
 H822 H 0.55384 0.89128 0.97410
 N823 N -0.02546 0.41873 0.42449
 N824 N -0.02850 0.44007 0.44846
 C825 C 0.00153 0.43842 0.46681
 C826 C 0.02319 0.41523 0.45338
 N827 N 0.00522 0.40336 0.42699
 H828 H 0.04791 0.40599 0.46361
 N829 N 0.35500 0.48415 0.53063
 N830 N 0.37955 0.46198 0.52559
 C831 C 0.39256 0.46811 0.49497
 C832 C 0.37506 0.49490 0.48143
 N833 N 0.35184 0.50422 0.50444
 H834 H 0.37886 0.50639 0.45726
 N835 N 0.87367 0.00404 0.03547
 N836 N 0.89253 -0.01958 0.02272
 C837 C 0.89533 -0.01298 -0.01028
 C838 C 0.87752 0.01590 -0.01720
 N839 N 0.86435 0.02567 0.01202
 H840 H 0.87337 0.02790 -0.04120
 N841 N 0.62181 0.01665 -0.00352
 N842 N 0.60036 -0.00830 0.00151
 C843 C 0.59830 -0.01312 0.03482
 C844 C 0.61922 0.00994 0.05009
 N845 N 0.63350 0.02799 0.02528
 H846 H 0.62516 0.01206 0.07644
 N847 N 0.09656 0.54770 0.56912
 N848 N 0.06862 0.52865 0.57189
 C849 C 0.06571 0.51188 0.54339
 C850 C 0.09320 0.52140 0.52300
 N851 N 0.11173 0.54383 0.53996
 H852 H 0.09854 0.51366 0.49798
 N853 N 0.18053 0.50276 -0.00048
 N854 N 0.15230 0.52130 -0.00540
 C855 C 0.13105 0.50594 -0.02726
 C856 C 0.14737 0.47720 -0.03557
 N857 N 0.17821 0.47610 -0.01831
 H858 H 0.13763 0.45892 -0.05231
 N859 N 0.60110 0.93529 0.55023
 N860 N 0.57488 0.95613 0.55307
 C861 C 0.56746 0.96830 0.52221
 C862 C 0.58989 0.95351 0.50006
 N863 N 0.61075 0.93346 0.51874
 H864 H 0.59348 0.95943 0.47388
 N865 N 0.81727 1.03034 0.47850
 N866 N 0.83821 1.05582 0.48102
 C867 C 0.86690 1.04630 0.49907
 C868 C 0.86250 1.01373 0.50791
 N869 N 0.83130 1.00473 0.49423
 H870 H 0.88096 0.99774 0.52100
 N871 N 0.43193 0.46361 -0.05737
 N872 N 0.45483 0.48759 -0.05357
 C873 C 0.45827 0.49241 -0.02048
 C874 C 0.43678 0.47034 -0.00410
 N875 N 0.42076 0.45286 -0.02799
 H876 H 0.43144 0.46871 0.02232
 N877 N 0.46812 0.47128 0.35073
 N878 N 0.44896 0.46321 0.37690
 C879 C 0.47042 0.44724 0.39886
 C880 C 0.50363 0.44560 0.38504
 N881 N 0.50104 0.46114 0.35505
 H882 H 0.52766 0.43626 0.39664
 N883 N -0.06335 -0.00754 0.83031
 N884 N -0.07743 -0.01086 0.86026
 C885 C -0.05927 -0.03462 0.87666
 C886 C -0.03360 -0.04576 0.85563
 N887 N -0.03698 -0.02830 0.82692
 H888 H -0.01319 -0.06342 0.86148
 N889 N 0.03535 0.07359 0.57549
 N890 N 0.01613 0.08530 0.55014
 C891 C -0.01497 0.06936 0.55049
 C892 C -0.01407 0.04726 0.57707
 N893 N 0.01778 0.05078 0.59208
 H894 H -0.03513 0.03160 0.58572
 N895 N 0.52167 0.57379 0.12431
 N896 N 0.50911 0.57875 0.09368
 C897 C 0.51033 0.54998 0.07833
 C898 C 0.52406 0.52702 0.10069
 N899 N 0.53101 0.54301 0.12909
 H900 H 0.53119 0.50212 0.09581
 N901 N 0.52690 -0.08985 0.18112
 N902 N 0.54531 -0.09631 0.15429
 C903 C 0.54590 -0.06885 0.13530
 C904 C 0.52725 -0.04523 0.15142
 N905 N 0.51566 -0.05938 0.17983
 H906 H 0.51936 -0.02156 0.14159
 N907 N 0.90519 0.44576 0.60086
 N908 N 0.92440 0.44328 0.57371
 C909 C 0.95302 0.46234 0.57795
 C910 C 0.95060 0.47661 0.60872
 N911 N 0.92040 0.46571 0.62222
 H912 H 0.96917 0.49294 0.62032
 N913 N 1.00970 0.46662 0.85829
 N914 N 1.03375 0.47224 0.88188
 C915 C 1.02501 0.50061 0.89588
 C916 C 0.99478 0.51209 0.87993
 N917 N 0.98605 0.49035 0.85663
 H918 H 0.98041 0.53405 0.88492
 N919 N 0.47382 0.06948 0.40542
 N920 N 0.48805 0.07158 0.43568
 C921 C 0.49908 0.04147 0.44480
 C922 C 0.49106 0.02082 0.41910
 N923 N 0.47518 0.03920 0.39495
 H924 H 0.49450 -0.00527 0.41908
   
