data_POSCAR
  _audit_creation_date              2014-09-24
  _audit_creation_method            'ToBaCCo'
  _symmetry_space_group_name_H-M    'P1'
  _symmetry_Int_Tables_number       1
  _symmetry_cell_setting            triclinic
  loop_
  _symmetry_equiv_pos_as_xyz
 x,y,z
_cell_length_a 33.6708
_cell_length_b 33.5270
_cell_length_c 18.4613
_cell_angle_alpha 89.868500
_cell_angle_beta 90.290300
_cell_angle_gamma 120.581100
loop_
  _atom_site_label
  _atom_site_type_symbol
  _atom_site_fract_x
  _atom_site_fract_y
  _atom_site_fract_z
O1 O 0.01056 0.55164 0.08474
 O2 O -0.05402 0.43614 -0.00044
 O3 O 0.01577 0.47696 0.08810
 O4 O -0.06056 0.51016 -0.00335
 O5 O -0.01326 0.53631 -0.09664
 O6 O 0.06260 0.50240 -0.00589
 O7 O -0.00737 0.46229 -0.09463
 O8 O 0.05757 0.57718 -0.00897
 Cu9 Cu -0.02684 0.49127 0.05165
 Cu10 Cu 0.02964 0.52224 -0.06085
 C11 C 0.04557 0.58390 0.05284
 C12 C -0.04179 0.42967 -0.06229
 C13 C 0.05225 0.48410 0.05668
 C14 C -0.05031 0.52826 -0.06609
 O15 O 0.57079 0.52396 -0.02634
 O16 O 0.46081 0.48569 0.06563
 O17 O 0.49330 0.44513 -0.01444
 O18 O 0.53492 0.56471 0.04563
 O19 O 0.50863 0.57876 -0.05529
 O20 O 0.46537 0.45882 -0.11372
 O21 O 0.43294 0.50030 -0.03295
 O22 O 0.54302 0.53655 -0.12686
 Cu23 Cu 0.51784 0.50351 0.02743
 Cu24 Cu 0.48459 0.51975 -0.09225
 C25 C 0.57575 0.53663 -0.09212
 C26 C 0.42848 0.48728 0.03288
 C27 C 0.47225 0.43165 -0.07485
 C28 C 0.52850 0.59194 0.00572
 O29 O 0.49835 1.06191 0.02085
 O30 O 0.54069 0.99062 0.10381
 O31 O 0.57502 1.06192 0.01490
 O32 O 0.46329 0.99007 0.10547
 O33 O 0.43846 0.94365 0.01038
 O34 O 0.55023 1.01458 -0.07900
 O35 O 0.51568 0.94350 0.00956
 O36 O 0.47378 1.01560 -0.07439
 Cu37 Cu 0.52205 1.03076 0.07084
 Cu38 Cu 0.49213 0.97456 -0.04277
 C39 C 0.47919 1.05120 -0.04113
 C40 C 0.53479 0.95458 0.07166
 C41 C 0.58130 1.05108 -0.04827
 C42 C 0.43177 0.95461 0.07303
 O43 O 1.06600 0.56801 0.50817
 O44 O 0.99425 0.45301 0.58991
 O45 O 1.06519 0.49055 0.50142
 O46 O 0.99345 0.53018 0.59076
 O47 O 0.94879 0.51005 0.49364
 O48 O 1.01727 0.46575 0.40816
 O49 O 0.94668 0.43122 0.49627
 O50 O 1.02152 0.54457 0.41066
 Cu51 Cu 1.03422 0.51241 0.55729
 Cu52 Cu 0.97874 0.48552 0.44283
 C53 C 1.05674 0.57540 0.44466
 C54 C 0.95776 0.42291 0.55802
 C55 C 1.05389 0.47216 0.43879
 C56 C 0.95911 0.52725 0.55693
 O57 O 0.52489 0.53901 0.41136
 O58 O 0.48289 0.42276 0.48887
 O59 O 0.44676 0.46055 0.40885
 O60 O 0.56147 0.49966 0.48694
 O61 O 0.54107 0.52039 0.58710
 O62 O 0.42686 0.48312 0.50759
 O63 O 0.46170 0.44398 0.58764
 O64 O 0.50535 0.56044 0.51164
 Cu65 Cu 0.50600 0.47842 0.43888
 Cu66 Cu 0.48171 0.50411 0.55848
 C67 C 0.52210 0.56946 0.44822
 C68 C 0.46541 0.41374 0.55183
 C69 C 0.41742 0.46552 0.44455
 C70 C 0.57057 0.51601 0.55077
 O71 O 0.46779 0.01608 0.59891
 O72 O 0.50261 -0.05973 0.51171
 O73 O 0.54153 0.01102 0.59911
 O74 O 0.42674 -0.05655 0.51326
 O75 O 0.45217 -0.01098 0.41740
 O76 O 0.56573 0.05851 0.50533
 O77 O 0.52849 -0.01254 0.41768
 O78 O 0.49022 0.06143 0.50252
 Cu79 Cu 0.48191 -0.02718 0.56506
 Cu80 Cu 0.51156 0.02869 0.45114
 C81 C 0.47390 0.05213 0.56614
 C82 C 0.52171 -0.04893 0.44992
 C83 C 0.57289 0.04685 0.56748
 C84 C 0.42008 -0.04572 0.45015
 C85 C 0.18435 0.44071 0.20050
 C86 C 0.18558 0.44006 0.27717
 C87 C 0.22307 0.44048 0.31180
 C88 C 0.25943 0.44243 0.27229
 C89 C 0.25846 0.44328 0.19562
 C90 C 0.22008 0.44093 0.16095
 H91 H 0.21804 0.43964 0.10238
 H92 H 0.22446 0.43977 0.37042
 C93 C 0.55897 0.74109 0.23529
 C94 C 0.56433 0.74556 0.31145
 C95 C 0.56603 0.78355 0.34594
 C96 C 0.56117 0.81674 0.30667
 C97 C 0.55639 0.81302 0.23030
 C98 C 0.55525 0.77504 0.19565
 H99 H 0.54800 0.77008 0.13830
 H100 H 0.57106 0.78719 0.40411
 C101 C 0.25408 0.82509 0.21511
 C102 C 0.25475 0.82043 0.29130
 C103 C 0.21655 0.78280 0.32493
 C104 C 0.17900 0.74929 0.28429
 C105 C 0.17804 0.75474 0.20826
 C106 C 0.21518 0.79324 0.17515
 H107 H 0.21402 0.79833 0.11738
 H108 H 0.21718 0.77727 0.38261
 C109 C 0.81688 0.55509 0.69786
 C110 C 0.81560 0.55732 0.77435
 C111 C 0.77893 0.55876 0.80781
 C112 C 0.74302 0.55750 0.76686
 C113 C 0.74486 0.55643 0.69046
 C114 C 0.78161 0.55529 0.65686
 H115 H 0.78166 0.55310 0.59846
 H116 H 0.77782 0.55938 0.86629
 C117 C 0.44155 0.25496 0.72725
 C118 C 0.44562 0.25991 0.80372
 C119 C 0.44288 0.22345 0.84558
 C120 C 0.43867 0.18359 0.81306
 C121 C 0.43684 0.17996 0.73649
 C122 C 0.43717 0.21514 0.69496
 H123 H 0.43565 0.21226 0.63636
 H124 H 0.44568 0.22653 0.90388
 C125 C 0.74926 0.17861 0.71773
 C126 C 0.74975 0.18104 0.79432
 C127 C 0.78660 0.21931 0.82941
 C128 C 0.82241 0.25582 0.79021
 C129 C 0.82242 0.25265 0.71379
 C130 C 0.78648 0.21373 0.67881
 H131 H 0.78737 0.21086 0.62050
 H132 H 0.78615 0.22131 0.88775
 C133 C 0.08295 0.47158 0.09451
 C134 C 0.12323 0.48049 0.06616
 C135 C 0.15728 0.47264 0.10444
 C136 C 0.14757 0.44402 0.16110
 H137 H 0.13366 0.49741 0.01391
 H138 H 0.19237 0.49227 0.08480
 H139 H 0.07281 0.45681 0.14810
 H140 H 0.11262 0.42395 0.18055
 C141 C 0.54282 0.63891 0.03111
 C142 C 0.54998 0.64948 0.10136
 C143 C 0.55876 0.69434 0.12917
 C144 C 0.55222 0.69829 0.19953
 H145 H 0.54637 0.62340 0.13997
 H146 H 0.56995 0.72319 0.09226
 H147 H 0.54381 0.66387 -0.00737
 H148 H 0.54056 0.66772 0.23288
 C149 C 0.38745 0.92556 0.10973
 C150 C 0.35306 0.88753 0.07831
 C151 C 0.30992 0.85399 0.11503
 C152 C 0.29436 0.86249 0.17638
 H153 H 0.35770 0.87818 0.02420
 H154 H 0.29097 0.81989 0.09070
 H155 H 0.38447 0.93480 0.16466
 H156 H 0.31271 0.89629 0.20147
 C157 C 0.93049 0.54292 0.59301
 C158 C 0.89757 0.54657 0.55769
 C159 C 0.86596 0.55881 0.59341
 C160 C 0.85203 0.54728 0.66220
 H161 H 0.89381 0.54121 0.49964
 H162 H 0.85205 0.57537 0.55999
 H163 H 0.93681 0.55151 0.65002
 H164 H 0.86566 0.52956 0.69351
 C165 C 0.45112 0.36820 0.58419
 C166 C 0.43089 0.35591 0.64929
 C167 C 0.42206 0.31392 0.68929
 C168 C 0.44555 0.29201 0.67842
 H169 H 0.42107 0.37821 0.67640
 H170 H 0.39843 0.30360 0.73446
 H171 H 0.45895 0.34530 0.55446
 H172 H 0.46906 0.30135 0.63338
 C173 C 0.61730 0.07571 0.60514
 C174 C 0.65020 0.11629 0.57789
 C175 C 0.69266 0.15009 0.61694
 C176 C 0.70897 0.14127 0.67772
 H177 H 0.64456 0.12749 0.52573
 H178 H 0.71042 0.18479 0.59467
 H179 H 0.62112 0.06443 0.65826
 H180 H 0.69143 0.10687 0.70045
 C181 C 0.46436 0.08097 0.92354
 C182 C 0.47224 0.12078 0.95366
 C183 C 0.46553 0.15570 0.91543
 C184 C 0.43687 0.14630 0.85900
 H185 H 0.48909 0.13095 1.00606
 H186 H 0.48735 0.19121 0.93301
 H187 H 0.44988 0.07136 0.86959
 H188 H 0.41490 0.11088 0.84129
 C189 C 0.61939 0.55052 0.87035
 C190 C 0.65715 0.55713 0.90589
 C191 C 0.70033 0.56728 0.86947
 C192 C 0.70086 0.55156 0.80298
 H193 H 0.65701 0.55569 0.96451
 H194 H 0.73187 0.58589 0.90061
 H195 H 0.62015 0.55523 0.81223
 H196 H 0.66855 0.53185 0.77399
 C197 C 0.93176 0.38450 0.90125
 C198 C 0.89855 0.34680 0.93476
 C199 C 0.86880 0.30219 0.89751
 C200 C 0.85652 0.29953 0.82757
 H201 H 0.89297 0.34814 0.99223
 H202 H 0.85467 0.27137 0.93062
 H203 H 0.93985 0.38256 0.84514
 H204 H 0.87035 0.33125 0.79663
 C205 C 0.53524 0.92077 0.41369
 C206 C 0.52819 0.88134 0.44410
 C207 C 0.53582 0.84680 0.40706
 C208 C 0.56023 0.85474 0.34608
 H209 H 0.51280 0.87177 0.49738
 H210 H 0.51875 0.81245 0.43065
 H211 H 0.54897 0.93040 0.35956
 H212 H 0.57756 0.88874 0.32163
 C213 C 0.37239 0.45238 0.41222
 C214 C 0.35765 0.42847 0.35014
 C215 C 0.31505 0.41947 0.31263
 C216 C 0.30018 0.44964 0.31372
 H217 H 0.37724 0.41461 0.32551
 H218 H 0.29756 0.38890 0.27877
 H219 H 0.35130 0.46339 0.43989
 H220 H 0.31750 0.48050 0.34694
 C221 C 0.08835 0.61976 0.40962
 C222 C 0.09198 0.62319 0.33747
 C223 C 0.12732 0.66489 0.29982
 C224 C 0.14296 0.70816 0.32350
 H225 H 0.07119 0.59283 0.30432
 H226 H 0.14001 0.65917 0.24950
 H227 H 0.11203 0.64847 0.44362
 H228 H 0.13124 0.71385 0.37487
 C229 C 0.91990 0.53848 0.89634
 C230 C 0.87880 0.52882 0.92266
 C231 C 0.84390 0.53362 0.88066
 C232 C 0.85270 0.55823 0.81935
 H233 H 0.86815 0.51316 0.97575
 H234 H 0.80888 0.51431 0.90065
 H235 H 0.93018 0.55247 0.84237
 H236 H 0.88745 0.57780 0.79872
 C237 C 0.45723 0.38714 0.89937
 C238 C 0.46070 0.35499 0.93772
 C239 C 0.44751 0.30929 0.90695
 C240 C 0.45768 0.30475 0.83841
 H241 H 0.47200 0.36137 0.99373
 H242 H 0.43062 0.27968 0.94257
 H243 H 0.44225 0.37859 0.84544
 H244 H 0.47638 0.33581 0.80601
 C245 C 0.62178 0.07984 0.91378
 C246 C 0.65458 0.12120 0.93924
 C247 C 0.69459 0.15530 0.89642
 C248 C 0.71115 0.14488 0.83799
 H249 H 0.65036 0.13288 0.99180
 H250 H 0.71035 0.19096 0.91406
 H251 H 0.62460 0.06897 0.85985
 H252 H 0.69584 0.10929 0.82082
 C253 C 0.08233 0.46036 0.40100
 C254 C 0.12383 0.46991 0.42599
 C255 C 0.15809 0.46481 0.38307
 C256 C 0.14887 0.44055 0.32120
 H257 H 0.13551 0.48607 0.47864
 H258 H 0.19318 0.48365 0.40330
 H259 H 0.07102 0.44589 0.34743
 H260 H 0.11396 0.42155 0.30095
 C261 C 0.53727 0.61510 0.41540
 C262 C 0.53232 0.64773 0.44918
 C263 C 0.53969 0.69053 0.41348
 C264 C 0.56654 0.70960 0.35538
 H265 H 0.51750 0.64089 0.50291
 H266 H 0.51992 0.70530 0.43419
 H267 H 0.54958 0.62020 0.36021
 H268 H 0.58699 0.69559 0.33491
 C269 C 0.37783 0.92769 0.41460
 C270 C 0.34139 0.89077 0.44473
 C271 C 0.29796 0.86079 0.40463
 C272 C 0.29728 0.85181 0.33364
 H273 H 0.34255 0.88246 0.50117
 H274 H 0.26646 0.84443 0.43573
 H275 H 0.37499 0.93761 0.35974
 H276 H 0.32979 0.86750 0.30514
 C277 C 0.54901 0.92496 0.10913
 C278 C 0.54676 0.88770 0.07822
 C279 C 0.55746 0.85587 0.11798
 C280 C 0.54761 0.84596 0.18849
 H281 H 0.53783 0.88059 0.02139
 H282 H 0.57195 0.83903 0.08698
 H283 H 0.56102 0.93390 0.16454
 H284 H 0.53160 0.86229 0.21694
 C285 C 0.38623 0.47472 0.07374
 C286 C 0.35215 0.48021 0.04726
 C287 C 0.31155 0.47241 0.08988
 C288 C 0.29770 0.44801 0.15185
 H289 H 0.35524 0.49399 -0.00688
 H290 H 0.29295 0.48846 0.06892
 H291 H 0.38515 0.46341 0.12893
 H292 H 0.31614 0.43188 0.17214
 C293 C 0.07349 0.62877 0.08996
 C294 C 0.11207 0.66335 0.06038
 C295 C 0.14679 0.70491 0.10022
 C296 C 0.13920 0.71999 0.16300
 H297 H 0.12178 0.65900 0.00641
 H298 H 0.18135 0.72185 0.07825
 H299 H 0.06394 0.63142 0.14480
 H300 H 0.10490 0.70337 0.18569
 C301 C 0.46397 0.08478 0.60322
 C302 C 0.46743 0.08916 0.67535
 C303 C 0.46546 0.12621 0.71465
 C304 C 0.43692 0.14154 0.69683
 H305 H 0.47730 0.06813 0.70659
 H306 H 0.48825 0.14062 0.76091
 H307 H 0.45900 0.10885 0.57073
 H308 H 0.41525 0.12794 0.64909
 C309 C 0.61513 0.52899 0.58478
 C310 C 0.64635 0.52138 0.55264
 C311 C 0.68843 0.52809 0.58946
 C312 C 0.70807 0.55646 0.64611
 H313 H 0.63903 0.50554 0.49947
 H314 H 0.70238 0.50720 0.57042
 H315 H 0.62049 0.54208 0.63962
 H316 H 0.69466 0.57789 0.66470
 C317 C 0.92755 0.37881 0.59529
 C318 C 0.88645 0.34686 0.56821
 C319 C 0.85173 0.30546 0.60828
 C320 C 0.85998 0.29005 0.67044
 H321 H 0.87569 0.35281 0.51587
 H322 H 0.81700 0.28834 0.58644
 H323 H 0.93856 0.37472 0.64845
 H324 H 0.89432 0.30671 0.69329
   
