data_POSCAR
  _audit_creation_date              2014-09-24
  _audit_creation_method            'ToBaCCo'
  _symmetry_space_group_name_H-M    'P1'
  _symmetry_Int_Tables_number       1
  _symmetry_cell_setting            triclinic
  loop_
  _symmetry_equiv_pos_as_xyz
 x,y,z
_cell_length_a 22.6679
_cell_length_b 22.6660
_cell_length_c 36.7089
_cell_angle_alpha 80.900600
_cell_angle_beta 98.857000
_cell_angle_gamma 85.281700
loop_
  _atom_site_label
  _atom_site_type_symbol
  _atom_site_fract_x
  _atom_site_fract_y
  _atom_site_fract_z
O1 O 0.02721 0.53727 1.04105
 O2 O 0.04494 0.43938 0.97158
 O3 O 0.04585 0.55480 0.97230
 O4 O 0.02642 0.42315 1.04040
 O5 O -0.07168 0.43709 1.02036
 O6 O -0.05217 0.56896 0.95217
 O7 O -0.05309 0.45334 0.95144
 O8 O -0.07089 0.55138 1.02100
 Cu9 Cu 0.04604 0.48726 1.00818
 Cu10 Cu -0.07183 0.50414 0.98403
 C11 C -0.02481 0.56069 1.04283
 C12 C -0.00113 0.42917 0.95012
 C13 C 0.00008 0.58464 0.95110
 C14 C -0.02589 0.40803 1.04198
 O15 O 0.54922 0.05272 0.45141
 O16 O 0.45093 0.07052 0.52101
 O17 O 0.56520 0.07123 0.52026
 O18 O 0.43363 0.05196 0.45224
 O19 O 0.44761 -0.04617 0.47253
 O20 O 0.57899 -0.02696 0.54046
 O21 O 0.46489 -0.02767 0.54121
 O22 O 0.56301 -0.04539 0.47170
 Cu23 Cu 0.49832 0.07149 0.48400
 Cu24 Cu 0.51500 -0.04649 0.50834
 C25 C 0.57335 0.00071 0.45014
 C26 C 0.44149 0.02440 0.54292
 C27 C 0.59412 0.02536 0.54193
 C28 C 0.41791 -0.00030 0.45129
 C29 C -0.05118 -0.11711 0.22980
 C30 C -0.10093 -0.11411 0.25354
 C31 C -0.10024 -0.06655 0.27215
 C32 C -0.05003 -0.02638 0.26544
 C33 C -0.05919 -0.05586 0.20401
 C34 C -0.05849 -0.00850 0.22267
 C35 C 0.00756 -0.11750 0.25694
 C36 C 0.00807 -0.06990 0.27550
 H37 H -0.13389 -0.14620 0.25524
 H38 H -0.04973 0.01227 0.28068
 H39 H -0.06173 -0.05055 0.17383
 H40 H 0.04617 -0.15071 0.25987
 C41 C 0.11789 0.05072 0.72963
 C42 C 0.11809 -0.00801 0.75693
 C43 C 0.07033 -0.00844 0.77546
 C44 C 0.02688 0.04973 0.76520
 C45 C 0.05685 0.05872 0.70381
 C46 C 0.00933 0.05809 0.72243
 C47 C 0.11469 0.10057 0.75318
 C48 C 0.06698 0.09996 0.77175
 H49 H 0.15129 -0.04667 0.76000
 H50 H -0.01191 0.04948 0.78041
 H51 H 0.05178 0.06117 0.67366
 H52 H 0.14677 0.13353 0.75480
 C53 C -0.05016 -0.23229 0.12282
 C54 C 0.00352 -0.28019 0.12495
 C55 C -0.04084 -0.32678 0.11873
 C56 C -0.09451 -0.27945 0.11625
 C57 C -0.04752 -0.25034 0.16524
 C58 C -0.09197 -0.29687 0.15908
 C59 C 0.00615 -0.29766 0.16772
 C60 C -0.03819 -0.34499 0.16114
 C61 C -0.03616 -0.36804 0.09215
 C62 C -0.03142 -0.40097 0.06979
 C63 C -0.05018 -0.20581 0.18994
 C64 C -0.05125 -0.16700 0.20883
 H65 H -0.05512 -0.18546 0.10734
 H66 H 0.04280 -0.27372 0.11062
 H67 H -0.13582 -0.27240 0.09477
 H68 H -0.13123 -0.30322 0.17345
 H69 H 0.04747 -0.30467 0.18919
 H70 H -0.03321 -0.39186 0.17656
 C71 C -0.04830 0.16237 0.11990
 C72 C -0.09525 0.21844 0.11097
 C73 C -0.04395 0.25814 0.11640
 C74 C 0.00304 0.20279 0.12499
 C75 C -0.05213 0.15804 0.16165
 C76 C -0.00081 0.19771 0.16710
 C77 C -0.09921 0.21332 0.15312
 C78 C -0.04777 0.25401 0.15814
 C79 C -0.03850 0.31269 0.09040
 C80 C -0.03317 0.35661 0.06846
 C81 C -0.05570 0.10067 0.18547
 C82 C -0.05757 0.05177 0.20341
 H83 H -0.04855 0.12407 0.10442
 H84 H -0.13399 0.22754 0.08759
 H85 H 0.04510 0.19900 0.11312
 H86 H 0.03793 0.18856 0.19047
 H87 H -0.14125 0.21697 0.16501
 H88 H -0.04749 0.29240 0.17354
 C89 C 0.29884 0.09093 0.65940
 C90 C 0.34636 0.03672 0.66123
 C91 C 0.32848 0.04036 0.61876
 C92 C 0.28175 0.09445 0.61650
 C93 C 0.25166 0.04699 0.66520
 C94 C 0.23395 0.05060 0.62271
 C95 C 0.29839 -0.00711 0.66745
 C96 C 0.28125 -0.00350 0.62462
 C97 C 0.36993 0.03571 0.59221
 C98 C 0.40301 0.03099 0.56987
 C99 C 0.20693 0.04964 0.68985
 C100 C 0.16796 0.05073 0.70870
 H101 H 0.30555 0.12975 0.67403
 H102 H 0.39311 0.03096 0.67674
 H103 H 0.27535 0.13613 0.59523
 H104 H 0.18723 0.05635 0.60714
 H105 H 0.30475 -0.04880 0.68871
 H106 H 0.27441 -0.04234 0.61002
 C107 C -0.19651 0.00037 0.66711
 C108 C -0.25269 0.04749 0.65789
 C109 C -0.25646 0.04334 0.61623
 C110 C -0.20123 -0.00380 0.62509
 C111 C -0.15671 0.05160 0.66144
 C112 C -0.16068 0.04744 0.61977
 C113 C -0.21186 0.09883 0.65264
 C114 C -0.21663 0.09455 0.61057
 C115 C -0.31081 0.03788 0.59027
 C116 C -0.35460 0.03257 0.56837
 C117 C -0.09953 0.05521 0.68524
 C118 C -0.05078 0.05713 0.70317
 H119 H -0.18762 -0.03826 0.69066
 H120 H -0.29123 0.04745 0.67324
 H121 H -0.19740 -0.04602 0.61346
 H122 H -0.12223 0.04746 0.60434
 H123 H -0.21557 0.14103 0.66429
 H124 H -0.22546 0.13317 0.58703
 C125 C 0.03868 -0.17039 0.88430
 C126 C -0.01801 -0.20391 0.87846
 C127 C 0.02264 -0.26338 0.88373
 C128 C 0.07916 -0.23070 0.88994
 C129 C 0.03958 -0.16262 0.84207
 C130 C 0.08020 -0.22211 0.84735
 C131 C -0.01696 -0.19526 0.83583
 C132 C 0.02354 -0.25562 0.84149
 C133 C 0.01382 -0.31932 0.90740
 C134 C 0.00712 -0.36485 0.92755
 C135 C 0.04971 -0.10685 0.81878
 C136 C 0.05875 -0.06159 0.79932
 H137 H 0.04499 -0.13476 0.90166
 H138 H -0.05853 -0.19705 0.89149
 H139 H 0.11863 -0.24591 0.91242
 H140 H 0.12074 -0.22897 0.83433
 H141 H -0.05641 -0.18001 0.81334
 H142 H 0.01723 -0.29125 0.82414
 C143 C -0.02398 0.26368 0.83650
 C144 C -0.01329 0.25145 0.87988
 C145 C 0.02010 0.30778 0.87989
 C146 C 0.00928 0.32074 0.83689
 C147 C 0.03618 0.22633 0.83757
 C148 C 0.06957 0.28266 0.83757
 C149 C 0.04699 0.21342 0.88056
 C150 C 0.08024 0.27039 0.88092
 C151 C 0.01184 0.35246 0.90402
 C152 C 0.00564 0.38818 0.92460
 C153 C 0.04601 0.18091 0.81416
 C154 C 0.05504 0.14380 0.79491
 H155 H -0.06675 0.26037 0.81799
 H156 H -0.04749 0.23911 0.89754
 H157 H -0.00629 0.36535 0.81918
 H158 H 0.10378 0.29499 0.81993
 H159 H 0.06257 0.16882 0.89828
 H160 H 0.12303 0.27365 0.89942
 C161 C -0.28958 -0.05647 0.33209
 C162 C -0.28189 -0.08170 0.37450
 C163 C -0.30761 -0.02008 0.38097
 C164 C -0.31600 0.00532 0.33892
 C165 C -0.22636 -0.03607 0.33838
 C166 C -0.25204 0.02558 0.34483
 C167 C -0.21803 -0.06144 0.38043
 C168 C -0.24438 0.00032 0.38726
 C169 C -0.35219 -0.01185 0.40526
 C170 C -0.38784 -0.00569 0.42596
 C171 C -0.18104 -0.04583 0.31482
 C172 C -0.14399 -0.05477 0.29546
 H173 H -0.30767 -0.07995 0.30914
 H174 H -0.29466 -0.12574 0.38692
 H175 H -0.35679 0.03283 0.32212
 H176 H -0.23923 0.06959 0.33239
 H177 H -0.17725 -0.08896 0.39726
 H178 H -0.22628 0.02379 0.41021
 C179 C 0.19469 0.01716 0.33549
 C180 C 0.20359 0.01743 0.37818
 C181 C 0.26312 -0.02297 0.38301
 C182 C 0.25510 -0.02309 0.34070
 C183 C 0.16231 -0.03963 0.34166
 C184 C 0.22185 -0.08000 0.34650
 C185 C 0.17034 -0.03951 0.38396
 C186 C 0.23070 -0.07974 0.38915
 C187 C 0.31907 -0.01427 0.40650
 C188 C 0.36460 -0.00764 0.42649
 C189 C 0.10652 -0.04959 0.31854
 C190 C 0.06124 -0.05849 0.29921
 H191 H 0.17921 0.05693 0.31318
 H192 H 0.19671 0.05763 0.39144
 H193 H 0.29054 -0.01625 0.32316
 H194 H 0.22874 -0.12022 0.33324
 H195 H 0.13490 -0.04635 0.40151
 H196 H 0.24613 -0.11954 0.41145
   
