data_POSCAR
  _audit_creation_date              2014-09-24
  _audit_creation_method            'ToBaCCo'
  _symmetry_space_group_name_H-M    'P1'
  _symmetry_Int_Tables_number       1
  _symmetry_cell_setting            triclinic
  loop_
  _symmetry_equiv_pos_as_xyz
 x,y,z
_cell_length_a 20.9953
_cell_length_b 21.1238
_cell_length_c 35.8276
_cell_angle_alpha 92.108900
_cell_angle_beta 91.507100
_cell_angle_gamma 88.087600
loop_
  _atom_site_label
  _atom_site_type_symbol
  _atom_site_fract_x
  _atom_site_fract_y
  _atom_site_fract_z
C1 C 0.01881 0.30278 0.98732
 C2 C 0.02083 0.30715 1.02559
 C3 C -0.00035 0.36819 1.03573
 N4 N -0.01413 0.40155 1.00496
 C5 C -0.00289 0.36142 0.97538
 C6 C -0.01121 0.39112 1.07272
 C7 C -0.01455 0.45718 1.08178
 C8 C -0.04426 0.48465 1.11277
 C9 C -0.03680 0.54887 1.11153
 C10 C -0.00216 0.55931 1.07998
 N11 N 0.01048 0.50308 1.06168
 C12 C 0.01673 0.61967 1.06870
 C13 C 0.03129 0.62969 1.03095
 C14 C 0.06329 0.68098 1.01830
 C15 C 0.06028 0.67668 0.98004
 C16 C 0.02832 0.62196 0.97054
 N17 N 0.01064 0.59324 1.00161
 C18 C 0.01054 0.60218 0.93388
 C19 C -0.01200 0.54122 0.92510
 C20 C -0.04164 0.52265 0.89159
 C21 C -0.04964 0.45845 0.89286
 C22 C -0.02392 0.43961 0.92689
 N23 N -0.00149 0.49037 0.94643
 C24 C -0.01604 0.37636 0.93787
 H25 H 0.03194 0.26129 0.97025
 H26 H 0.03597 0.26960 1.04391
 H27 H 0.02686 0.48900 0.97069
 H28 H -0.07037 0.46119 1.13361
 H29 H -0.05640 0.58390 1.13120
 H30 H 0.08581 0.71823 1.03486
 H31 H 0.07915 0.71022 0.96143
 H32 H -0.07069 0.42890 0.87085
 H33 H 0.03882 0.49588 1.03834
 H34 H -0.05491 0.55179 0.86826
 C35 C 0.69204 -0.05765 0.51109
 C36 C 0.68491 -0.05189 0.47326
 C37 C 0.62726 -0.01951 0.46718
 N38 N 0.59830 -0.00629 0.49989
 C39 C 0.63818 -0.02920 0.52678
 C40 C 0.60362 0.00012 0.43204
 C41 C 0.53752 0.01193 0.42523
 C42 C 0.51107 0.04352 0.39495
 C43 C 0.44596 0.04262 0.39807
 C44 C 0.43432 0.01130 0.43041
 N45 N 0.49030 -0.00721 0.44682
 C46 C 0.37310 -0.00221 0.44294
 C47 C 0.36185 -0.01655 0.48038
 C48 C 0.30500 -0.03762 0.49348
 C49 C 0.31218 -0.03986 0.53163
 C50 C 0.37348 -0.02101 0.54045
 N51 N 0.40363 -0.00652 0.50915
 C52 C 0.39914 -0.01273 0.57702
 C53 C 0.46430 -0.00248 0.58471
 C54 C 0.48978 0.01811 0.61899
 C55 C 0.55502 0.01629 0.61572
 C56 C 0.56741 -0.00595 0.57967
 N57 N 0.51192 -0.01703 0.56096
 C58 C 0.62845 -0.02028 0.56543
 H59 H 0.73222 -0.08029 0.52539
 H60 H 0.71848 -0.06918 0.45254
 H61 H 0.50725 -0.04060 0.53507
 H62 H 0.53595 0.06531 0.37295
 H63 H 0.41113 0.06322 0.37887
 H64 H 0.26245 -0.04936 0.47735
 H65 H 0.27627 -0.05329 0.55071
 H66 H 0.58931 0.02898 0.63757
 H67 H 0.49576 -0.03671 0.46942
 H68 H 0.46413 0.03209 0.64393
 C69 C 0.11399 0.02066 0.27355
 H70 H 0.12063 0.02327 0.24381
 C71 C 0.16687 0.01877 0.29806
 H72 H 0.21433 0.02028 0.28707
 C73 C 0.04401 0.01469 0.32407
 H74 H -0.00386 0.01188 0.33408
 C75 C 0.09542 0.01379 0.34957
 H76 H 0.08661 0.01008 0.37903
 N77 N 0.05410 0.01751 0.28682
 C78 C -0.06080 -0.07285 0.19784
 H79 H -0.10100 -0.03956 0.19624
 C80 C -0.05888 -0.12660 0.17400
 H81 H -0.09845 -0.13401 0.15477
 C82 C 0.03836 -0.10311 0.22583
 H83 H 0.07621 -0.09408 0.24610
 C84 C 0.04237 -0.15736 0.20236
 H85 H 0.08424 -0.18846 0.20445
 Zn86 Zn -0.01610 0.01530 0.25253
 N87 N -0.01205 -0.06134 0.22265
 C88 C -0.01617 0.07776 0.18355
 N89 N -0.01318 0.08650 0.22137
 C90 C -0.00800 0.14565 0.23733
 C91 C -0.01079 0.19901 0.21528
 C92 C -0.01870 0.12961 0.16049
 C93 C -0.12847 -0.03444 0.28078
 C94 C -0.18316 -0.03425 0.30217
 C95 C -0.16514 0.07477 0.32073
 C96 C -0.11100 0.07262 0.29890
 N97 N -0.09338 0.01849 0.27954
 H98 H -0.01704 0.03067 0.17097
 H99 H -0.00182 0.15167 0.26725
 H100 H -0.00886 0.24569 0.22870
 H101 H -0.02132 0.12112 0.13052
 H102 H -0.11308 -0.07769 0.26623
 H103 H -0.20924 -0.07741 0.30368
 H104 H -0.17800 0.11822 0.33604
 H105 H -0.08236 0.11389 0.29830
 C106 C -0.00627 -0.16939 0.17554
 C107 C 0.15778 0.01500 0.33658
 C108 C -0.20156 0.02064 0.32290
 C109 C -0.01785 0.19144 0.17630
 C110 C 0.00471 0.11063 0.77219
 H111 H 0.00910 0.11402 0.74231
 C112 C -0.00335 0.16554 0.79464
 H113 H -0.00504 0.21126 0.78187
 C114 C 0.00008 0.04669 0.82498
 H115 H 0.00065 0.00027 0.83665
 C116 C -0.00886 0.10035 0.84842
 H117 H -0.01377 0.09467 0.87810
 N118 N 0.00730 0.05277 0.78766
 C119 C 0.10935 -0.06954 0.70673
 H120 H 0.07741 -0.10872 0.70439
 C121 C 0.16389 -0.07043 0.68522
 H122 H 0.17322 -0.11038 0.66614
 C123 C 0.13434 0.03099 0.73366
 H124 H 0.12313 0.07017 0.75280
 C125 C 0.18926 0.03216 0.71259
 H126 H 0.21971 0.07249 0.71576
 Zn127 Zn 0.01705 -0.01953 0.75536
 N128 N 0.09489 -0.01874 0.72974
 C129 C -0.04180 -0.01546 0.68337
 N130 N -0.05248 -0.01794 0.72055
 C131 C -0.11277 -0.01808 0.73359
 C132 C -0.16513 -0.01956 0.70871
 C133 C -0.09269 -0.01613 0.65759
 C134 C 0.06655 -0.10417 0.80805
 C135 C 0.06805 -0.15730 0.83021
 C136 C -0.03042 -0.18966 0.79998
 C137 C -0.02968 -0.13639 0.77817
 N138 N 0.01758 -0.09417 0.78310
 H139 H 0.00617 -0.01320 0.67352
 H140 H -0.12003 -0.01829 0.76337
 H141 H -0.21272 -0.02059 0.71954
 H142 H -0.08305 -0.01557 0.62806
 H143 H 0.10391 -0.07017 0.81112
 H144 H 0.10654 -0.16372 0.85056
 H145 H -0.06882 -0.22240 0.79594
 H146 H -0.06714 -0.12893 0.75747
 C147 C 0.20430 -0.01869 0.68765
 C148 C -0.01040 0.16074 0.83328
 C149 C 0.01860 -0.20039 0.82660
 C150 C -0.15527 -0.01932 0.67012
 C151 C -0.00534 -0.26739 0.08441
 C152 C 0.01663 -0.32784 0.09483
 C153 C 0.03725 -0.33343 0.13255
 C154 C 0.02956 -0.28234 0.15875
 C155 C 0.00035 -0.22411 0.14830
 C156 C -0.01402 -0.21750 0.11017
 C157 C -0.07307 -0.19437 0.08982
 C158 C -0.06233 -0.24834 0.06131
 H159 H 0.05843 -0.37764 0.14204
 H160 H 0.04438 -0.28940 0.18750
 H161 H -0.06748 -0.14687 0.07819
 H162 H -0.11735 -0.20003 0.10552
 H163 H -0.04926 -0.23196 0.03348
 H164 H -0.10007 -0.28410 0.06082
 C165 C 0.00369 0.35385 0.13696
 C166 C -0.02251 0.34711 0.10064
 C167 C -0.05983 0.29337 0.09299
 C168 C -0.06145 0.24439 0.11846
 C169 C -0.02542 0.24733 0.15227
 C170 C 0.00258 0.30518 0.16198
 C171 C 0.06793 0.31854 0.17699
 C172 C 0.06910 0.37188 0.14966
 H173 H -0.08585 0.28790 0.06662
 H174 H -0.08865 0.20308 0.11075
 H175 H 0.10296 0.27919 0.17069
 H176 H 0.06757 0.33580 0.20667
 H177 H 0.10487 0.36359 0.12751
 H178 H 0.06925 0.41975 0.16363
 C179 C 0.32635 0.04195 0.62297
 C180 C 0.35588 -0.01376 0.60887
 C181 C 0.34383 -0.07071 0.62619
 C182 C 0.29665 -0.07230 0.65340
 C183 C 0.26094 -0.01680 0.66380
 C184 C 0.28013 0.04048 0.64981
 C185 C 0.24151 0.09283 0.63246
 C186 C 0.29237 0.09441 0.60308
 H187 H 0.36827 -0.11437 0.61720
 H188 H 0.28632 -0.11733 0.66498
 H189 H 0.23935 0.13633 0.65087
 H190 H 0.19467 0.07700 0.62105
 H191 H 0.31958 0.13871 0.60468
 H192 H 0.27497 0.07969 0.57460
 C193 C -0.25998 0.00777 0.58438
 C194 C -0.31522 -0.02450 0.59142
 C195 C -0.31403 -0.06284 0.62286
 C196 C -0.26174 -0.06213 0.64843
 C197 C -0.20931 -0.02362 0.64278
 C198 C -0.20836 0.00787 0.60914
 C199 C -0.19511 0.07534 0.60199
 C200 C -0.25186 0.07496 0.57469
 H201 H -0.35432 -0.09152 0.62832
 H202 H -0.26299 -0.09063 0.67288
 H203 H -0.14884 0.08006 0.58814
 H204 H -0.20257 0.10726 0.62699
 H205 H -0.23824 0.07916 0.54512
 H206 H -0.29235 0.10662 0.58379
 C207 C -0.04263 -0.32231 0.89010
 C208 C 0.01308 -0.35231 0.90360
 C209 C 0.07091 -0.33899 0.88694
 C210 C 0.07300 -0.29082 0.86080
 C211 C 0.01708 -0.25584 0.85064
 C212 C -0.04075 -0.27551 0.86414
 C213 C -0.09344 -0.23757 0.88234
 C214 C -0.09536 -0.28910 0.91081
 H215 H 0.11468 -0.36352 0.89552
 H216 H 0.11848 -0.27958 0.84959
 H217 H -0.13705 -0.23475 0.86413
 H218 H -0.07749 -0.19138 0.89451
 H219 H -0.13999 -0.31602 0.90893
 H220 H -0.08042 -0.27292 0.93952
 C221 C 0.01259 0.32472 0.87610
 C222 C -0.02185 0.32437 0.90896
 C223 C -0.06226 0.27328 0.91335
 C224 C -0.06073 0.22066 0.88797
 C225 C -0.01932 0.21856 0.85747
 C226 C 0.01354 0.27345 0.85090
 C227 C 0.08218 0.28143 0.84283
 C228 C 0.08092 0.33783 0.87050
 H229 H -0.09242 0.27260 0.93738
 H230 H -0.09001 0.18079 0.89304
 H231 H 0.08900 0.29503 0.81356
 H232 H 0.11315 0.24105 0.85224
 H233 H 0.08679 0.38388 0.85715
 H234 H 0.11108 0.33023 0.89603
 C235 C -0.29624 0.04149 0.41055
 C236 C -0.35239 0.00884 0.40361
 C237 C -0.36049 -0.01720 0.36671
 C238 C -0.31223 -0.01263 0.33987
 C239 C -0.25543 0.01988 0.34872
 C240 C -0.25142 0.04792 0.38442
 C241 C -0.20828 0.08387 0.41048
 C242 C -0.25949 0.07783 0.43993
 H243 H -0.40234 -0.04388 0.35912
 H244 H -0.31914 -0.03508 0.31248
 H245 H -0.20249 0.13344 0.40210
 H246 H -0.16327 0.05674 0.41685
 H247 H -0.28385 0.12365 0.44794
 H248 H -0.24268 0.04882 0.46368
 C249 C 0.26482 0.03997 0.42181
 C250 C 0.31846 0.00077 0.41575
 C251 C 0.31843 -0.03548 0.38166
 C252 C 0.26649 -0.03074 0.35555
 C253 C 0.21290 0.00997 0.36299
 C254 C 0.21477 0.04386 0.39707
 C255 C 0.18093 0.09467 0.41950
 C256 C 0.23772 0.09027 0.44753
 H257 H 0.35853 -0.06718 0.37517
 H258 H 0.26805 -0.05932 0.32986
 H259 H 0.13562 0.07860 0.43077
 H260 H 0.17745 0.14029 0.40496
 H261 H 0.22497 0.07185 0.47491
 H262 H 0.26687 0.13330 0.44901
   
