data_POSCAR
  _audit_creation_date              2014-09-24
  _audit_creation_method            'ToBaCCo'
  _symmetry_space_group_name_H-M    'P1'
  _symmetry_Int_Tables_number       1
  _symmetry_cell_setting            triclinic
  loop_
  _symmetry_equiv_pos_as_xyz
 x,y,z
_cell_length_a 27.9734
_cell_length_b 27.1827
_cell_length_c 26.8485
_cell_angle_alpha 86.092400
_cell_angle_beta 91.750200
_cell_angle_gamma 91.150200
loop_
  _atom_site_label
  _atom_site_type_symbol
  _atom_site_fract_x
  _atom_site_fract_y
  _atom_site_fract_z
C1 C 0.27621 0.44418 1.02019
 C2 C 0.24391 0.45006 1.06416
 C3 C 0.21992 0.49355 1.06042
 C4 C 0.23122 0.52727 1.01369
 C5 C 0.24326 0.45069 0.97377
 C6 C 0.21975 0.49436 0.97038
 C7 C 0.30922 0.48945 1.01834
 C8 C 0.28592 0.53300 1.01488
 H9 H 0.23777 0.42106 1.09305
 H10 H 0.21185 0.56266 1.01096
 H11 H 0.23760 0.42253 0.94745
 H12 H 0.34782 0.48682 1.02018
 C13 C 0.71793 0.56637 -0.02307
 C14 C 0.75315 0.55717 0.02102
 C15 C 0.77838 0.51497 0.01880
 C16 C 0.76570 0.48563 -0.02710
 C17 C 0.74810 0.56583 -0.06943
 C18 C 0.77325 0.52376 -0.07156
 C19 C 0.68642 0.52014 -0.02352
 C20 C 0.71107 0.47760 -0.02531
 H21 H 0.75958 0.58317 0.04940
 H22 H 0.78621 0.45123 -0.02855
 H23 H 0.75276 0.59757 -0.09557
 H24 H 0.64786 0.52133 -0.02148
 C25 C 0.04951 0.22754 0.49074
 C26 C 0.03527 0.25814 0.44652
 C27 C -0.00909 0.28208 0.45143
 C28 C -0.03187 0.26966 0.50208
 C29 C 0.05017 0.26127 0.53448
 C30 C 0.00723 0.28301 0.54020
 C31 C 0.00768 0.19127 0.50027
 C32 C -0.03486 0.21333 0.50599
 H33 H 0.05296 0.25756 0.41111
 H34 H -0.06652 0.28791 0.50660
 H35 H 0.08171 0.26812 0.55753
 H36 H 0.01111 0.15172 0.49942
 C37 C 0.96050 0.78043 0.48088
 C38 C 0.96707 0.74926 0.43653
 C39 C 1.00868 0.72367 0.43945
 C40 C 1.04021 0.73249 0.48611
 C41 C 0.96501 0.74439 0.52703
 C42 C 1.00687 0.71919 0.52976
 C43 C 1.00490 0.81376 0.48280
 C44 C 1.04668 0.78890 0.48574
 H45 H 0.93948 0.74463 0.40797
 H46 H 1.07421 0.71193 0.48835
 H47 H 0.93699 0.73831 0.55382
 H48 H 1.00324 0.85358 0.48193
 C49 C 0.49302 0.02557 0.21178
 C50 C 0.45245 0.02795 0.24865
 C51 C 0.45312 -0.00905 0.28553
 C52 C 0.49393 -0.04525 0.28227
 C53 C 0.53924 0.02450 0.24466
 C54 C 0.53919 -0.01267 0.28157
 C55 C 0.48828 -0.02266 0.19166
 C56 C 0.48903 -0.06231 0.22917
 H57 H 0.42621 0.05684 0.24602
 H58 H 0.49436 -0.07560 0.31218
 H59 H 0.56833 0.05113 0.24010
 H60 H 0.48063 -0.02785 0.15244
 C61 C 0.51743 -0.03592 0.78474
 C62 C 0.47371 -0.03382 0.74904
 C63 C 0.47320 0.00769 0.71738
 C64 C 0.51640 0.04285 0.72416
 C65 C 0.56055 -0.03114 0.75120
 C66 C 0.55976 0.00997 0.71903
 C67 C 0.51709 0.01174 0.81122
 C68 C 0.51655 0.05301 0.77973
 H69 H 0.44649 -0.06267 0.74842
 H70 H 0.51588 0.07650 0.69825
 H71 H 0.58721 -0.05942 0.75068
 H72 H 0.51713 0.01262 0.85150
 C73 C 0.29223 0.05234 0.41303
 H74 H 0.26953 0.08328 0.41742
 C75 C 0.32328 0.05402 0.37316
 H76 H 0.32376 0.08583 0.34659
 C77 C 0.32175 -0.02557 0.44323
 H78 H 0.32151 -0.05603 0.47135
 C79 C 0.35358 -0.02521 0.40412
 H80 H 0.37749 -0.05577 0.40200
 N81 N 0.29176 0.01274 0.44690
 C82 C 0.21724 0.09402 0.54840
 H83 H 0.24064 0.08282 0.57972
 C84 C 0.18471 0.13174 0.55309
 H85 H 0.18330 0.14959 0.58784
 C86 C 0.18662 0.08134 0.46689
 H87 H 0.18595 0.05992 0.43436
 C88 C 0.15462 0.11982 0.46944
 H89 H 0.12949 0.12792 0.43865
 Zn90 Zn 0.25369 0.01116 0.50420
 N91 N 0.21718 0.06922 0.50600
 C92 C 0.33154 0.04030 0.56319
 N93 N 0.29626 0.00537 0.56005
 C94 C 0.29373 -0.03408 0.59391
 C95 C 0.32796 -0.03967 0.63273
 C96 C 0.36652 0.03608 0.60138
 C97 C 0.17552 -0.04147 0.54096
 C98 C 0.13826 -0.07626 0.54290
 C99 C 0.17260 -0.11530 0.47454
 C100 C 0.20893 -0.07893 0.47312
 N101 N 0.20949 -0.04281 0.50597
 H102 H 0.33291 0.07097 0.53535
 H103 H 0.26584 -0.06179 0.59025
 H104 H 0.32624 -0.07152 0.65918
 H105 H 0.39477 0.06378 0.60300
 H106 H 0.17657 -0.01223 0.56637
 H107 H 0.11033 -0.07364 0.56960
 H108 H 0.17152 -0.14300 0.44739
 H109 H 0.23574 -0.07896 0.44503
 C110 C 0.15286 0.14472 0.51344
 C111 C 0.35456 0.01522 0.36870
 C112 C 0.13639 -0.11336 0.50936
 C113 C 0.36500 -0.00467 0.63638
 C114 C 0.68719 0.03233 0.55679
 H115 H 0.68633 0.06251 0.52836
 C116 C 0.65641 0.03183 0.59696
 H117 H 0.63189 0.06180 0.59949
 C118 C 0.71875 -0.04467 0.58719
 H119 H 0.74185 -0.07525 0.58265
 C120 C 0.68895 -0.04645 0.62788
 H121 H 0.68966 -0.07802 0.65475
 N122 N 0.71764 -0.00555 0.55277
 C123 C 0.83347 0.04426 0.45751
 H124 H 0.83152 0.01421 0.43305
 C125 C 0.87191 0.07741 0.45500
 H126 H 0.89961 0.07324 0.42837
 C127 C 0.80126 0.08467 0.52422
 H128 H 0.77450 0.08616 0.55222
 C129 C 0.83895 0.11940 0.52232
 H130 H 0.84091 0.14787 0.54863
 Zn131 Zn 0.75629 -0.00610 0.49621
 N132 N 0.79954 0.04790 0.49216
 C133 C 0.71903 0.03321 0.40298
 N134 N 0.71575 -0.00482 0.43849
 C135 C 0.68090 -0.04020 0.43567
 C136 C 0.64689 -0.03759 0.39640
 C137 C 0.68594 0.03704 0.36295
 C138 C 0.82769 -0.06295 0.54096
 C139 C 0.86315 -0.09825 0.54565
 C140 C 0.83248 -0.13137 0.46948
 C141 C 0.79692 -0.09559 0.46652
 N142 N 0.79567 -0.06200 0.50179
 H143 H 0.74638 0.06149 0.40636
 H144 H 0.67877 -0.06966 0.46476
 H145 H 0.61874 -0.06543 0.39526
 H146 H 0.68816 0.06796 0.33543
 H147 H 0.82654 -0.03504 0.56774
 H148 H 0.88927 -0.09780 0.57624
 H149 H 0.83436 -0.15688 0.44039
 H150 H 0.77183 -0.09332 0.43505
 C151 C 0.87512 0.11501 0.48783
 C152 C 0.65724 -0.00824 0.63284
 C153 C 0.86645 -0.13212 0.50922
 C154 C 0.64902 0.00191 0.35985
 C155 C 0.46835 0.18062 1.06177
 H156 H 0.43484 0.18468 1.04110
 C157 C 0.47258 0.14343 1.09990
 H158 H 0.44223 0.11911 1.10779
 C159 C 0.54811 0.20772 1.07712
 H160 H 0.57767 0.23244 1.06769
 C161 C 0.55382 0.17095 1.11596
 H162 H 0.58762 0.16769 1.13656
 N163 N 0.50602 0.21137 1.05037
 C164 C 0.42333 0.30845 0.94806
 H165 H 0.44282 0.30318 0.91470
 C166 C 0.38437 0.33968 0.94554
 H167 H 0.37376 0.35852 0.91021
 C168 C 0.41603 0.29402 1.03568
 H169 H 0.42985 0.27771 1.07093
 C170 C 0.37658 0.32498 1.03474
 H171 H 0.36008 0.33226 1.06937
 Zn172 Zn 0.49871 0.25563 0.99256
 N173 N 0.43904 0.28729 0.99277
 C174 C 0.53243 0.21623 0.90256
 N175 N 0.49682 0.21753 0.93596
 C176 C 0.45703 0.18832 0.93229
 C177 C 0.45366 0.15320 0.89713
 C178 C 0.53015 0.18167 0.86601
 C179 C 0.53216 0.35238 0.99432
 C180 C 0.56370 0.39244 0.99183
 C181 C 0.62847 0.33729 0.98090
 C182 C 0.59527 0.29760 0.98359
 N183 N 0.54786 0.30591 0.98966
 H184 H 0.56342 0.24029 0.90544
 H185 H 0.42832 0.19124 0.95776
 H186 H 0.42313 0.12805 0.89670
 H187 H 0.55984 0.17857 0.84156
 H188 H 0.49497 0.35891 1.00024
 H189 H 0.55041 0.42917 0.99532
 H190 H 0.66595 0.33062 0.97573
 H191 H 0.60737 0.26039 0.98070
 C192 C 0.36144 0.34915 0.98924
 C193 C 0.51603 0.13782 1.12700
 C194 C 0.61211 0.38533 0.98483
 C195 C 0.49087 0.14878 0.86455
 C196 C 0.44945 0.80901 -0.05841
 H197 H 0.41782 0.78878 -0.04632
 C198 C 0.44595 0.84462 -0.09834
 H199 H 0.41161 0.85207 -0.11672
 C200 C 0.53259 0.82584 -0.04863
 H201 H 0.56606 0.81921 -0.02830
 C202 C 0.53093 0.86060 -0.08921
 H203 H 0.56318 0.88080 -0.09990
 N204 N 0.49239 0.80026 -0.03454
 C205 C 0.46616 0.65700 0.00121
 H206 H 0.50345 0.65167 -0.00543
 C207 C 0.43449 0.61723 -0.00167
 H208 H 0.44761 0.58162 -0.01017
 C209 C 0.40332 0.70876 0.02133
 H210 H 0.39168 0.74444 0.03121
 C211 C 0.37016 0.66956 0.01873
 H212 H 0.33297 0.67508 0.02646
 Zn213 Zn 0.49765 0.75236 0.01971
 N214 N 0.45047 0.70168 0.01298
 C215 C 0.46667 0.75781 0.11814
 N216 N 0.49003 0.78279 0.08027
 C217 C 0.50724 0.82951 0.08486
 C218 C 0.50027 0.85332 0.12856
 C219 C 0.45895 0.78021 0.16238
 C220 C 0.57920 0.71564 -0.02402
 C221 C 0.61787 0.68420 -0.02562
 C222 C 0.61349 0.66744 0.06365
 C223 C 0.57526 0.69973 0.06373
 N224 N 0.55834 0.72234 0.02015
 H225 H 0.45394 0.72046 0.11399
 H226 H 0.52599 0.84851 0.05441
 H227 H 0.51398 0.89052 0.13154
 H228 H 0.44000 0.76021 0.19220
 H229 H 0.56379 0.73192 -0.05854
 H230 H 0.63248 0.67743 -0.06135
 H231 H 0.62508 0.64749 0.09805
 H232 H 0.55716 0.70434 0.09807
 C233 C 0.38626 0.62314 0.00751
 C234 C 0.48712 0.87018 -0.11439
 C235 C 0.63434 0.65859 0.01851
 C236 C 0.47541 0.82852 0.16774
 C237 C 1.06977 0.44788 0.21540
 H238 H 1.05594 0.41743 0.23898
 C239 C 1.11082 0.44169 0.18838
 H240 H 1.12867 0.40658 0.19140
 C241 C 1.06271 0.53010 0.18069
 H242 H 1.04333 0.56427 0.17766
 C243 C 1.10345 0.52534 0.15270
 H244 H 1.11538 0.55601 0.12805
 N245 N 1.04649 0.49149 0.21085
 C246 C 0.93490 0.41598 0.27864
 H247 H 0.91109 0.42696 0.24775
 C248 C 0.92362 0.37365 0.30850
 H249 H 0.89107 0.35293 0.30081
 C250 C 1.00682 0.42757 0.32559
 H251 H 1.04008 0.44745 0.33112
 C252 C 0.99680 0.38534 0.35650
 H253 H 1.02196 0.37390 0.38627
 Zn254 Zn 0.98905 0.49952 0.24428
 N255 N 0.97571 0.44250 0.28776
 C256 C 0.89419 0.51928 0.21232
 N257 N 0.93759 0.50623 0.19633
 C258 C 0.94353 0.49574 0.14804
 C259 C 0.90498 0.49903 0.11357
 C260 C 0.85519 0.52419 0.17890
 C261 C 1.02529 0.55917 0.32108
 C262 C 1.02662 0.60004 0.35014
 C263 C 0.96826 0.63899 0.29323
 C264 C 0.96822 0.59765 0.26518
 N265 N 0.99492 0.55776 0.28050
 H266 H 0.89001 0.52616 0.25115
 H267 H 0.97799 0.48439 0.13629
 H268 H 0.91017 0.49118 0.07514
 H269 H 0.82111 0.53577 0.19169
 H270 H 1.04803 0.52845 0.33156
 H271 H 1.04955 0.59978 0.38337
 H272 H 0.94541 0.66965 0.28174
 H273 H 0.94639 0.59754 0.23139
 C274 C 0.95454 0.35807 0.34789
 C275 C 1.12761 0.48039 0.15624
 C276 C 0.99683 0.63998 0.33670
 C277 C 0.86037 0.51385 0.12915
 C278 C -0.08167 0.44434 0.79237
 H279 H -0.07444 0.41348 0.77057
 C280 C -0.12092 0.44218 0.82381
 H281 H -0.14426 0.40989 0.82578
 C282 C -0.05926 0.52325 0.81874
 H283 H -0.03440 0.55430 0.81736
 C284 C -0.09856 0.52322 0.84929
 H285 H -0.10387 0.55440 0.87141
 N286 N -0.05212 0.48484 0.79010
 C287 C 0.05269 0.41477 0.70960
 H288 H 0.08205 0.42539 0.73385
 C289 C 0.05953 0.37823 0.67660
 H290 H 0.09370 0.36025 0.67627
 C291 C -0.02645 0.42709 0.67773
 H292 H -0.05949 0.44709 0.67777
 C293 C -0.02108 0.39068 0.64404
 H294 H -0.05035 0.38252 0.61842
 Zn295 Zn 0.00367 0.49112 0.75157
 N296 N 0.01008 0.43814 0.70991
 C297 C 0.05873 0.44699 0.82681
 N298 N 0.05510 0.49035 0.79871
 C299 C 0.08513 0.52925 0.80672
 C300 C 0.12111 0.52479 0.84425
 C301 C 0.09477 0.44056 0.86331
 C302 C -0.03954 0.57595 0.70465
 C303 C -0.04378 0.61629 0.66998
 C304 C 0.03662 0.60282 0.64433
 C305 C 0.03961 0.56283 0.68007
 N306 N 0.00171 0.55009 0.70923
 H307 H 0.03377 0.41705 0.82020
 H308 H 0.08089 0.56368 0.78450
 H309 H 0.14501 0.55569 0.85061
 H310 H 0.09789 0.40554 0.88483
 H311 H -0.07004 0.56433 0.72640
 H312 H -0.07708 0.63602 0.66608
 H313 H 0.06659 0.61200 0.62065
 H314 H 0.07164 0.54106 0.68361
 C315 C 0.02259 0.36604 0.64329
 C316 C -0.12999 0.48236 0.85194
 C317 C -0.00586 0.62961 0.63896
 C318 C 0.12608 0.47965 0.87255
 N319 N 0.09373 0.20142 0.48430
 N320 N 0.11469 0.17755 0.52083
 N321 N 0.68995 0.61086 -0.02140
 N322 N 0.66700 0.61884 0.01739
 N323 N 0.91629 -0.19188 0.47755
 N324 N 0.90703 -0.16344 0.51155
 N325 N 0.30329 0.39877 1.02371
 N326 N 0.32843 0.38872 0.98716
 N327 N 0.92070 0.18646 0.50755
 N328 N 0.91716 0.14562 0.48719
 N329 N 0.31094 0.57961 0.01313
 N330 N 0.35599 0.58024 0.00778
 N331 N 0.09215 -0.18605 0.48906
 N332 N 0.09445 -0.14426 0.50786
 N333 N 0.68740 0.43005 0.97670
 N334 N 0.64230 0.42843 0.98197
 N335 N 0.48989 0.06564 1.17271
 N336 N 0.52216 0.09886 1.16540
 N337 N 0.01730 0.68085 0.56767
 N338 N -0.01289 0.66869 0.60106
 N339 N 0.51917 0.92105 -0.18002
 N340 N 0.48349 0.90833 -0.15353
 N341 N 0.96677 0.29873 0.41409
 N342 N 0.94223 0.31429 0.37778
 N343 N 0.47773 0.89407 0.22037
 N344 N 0.46612 0.85111 0.21310
 N345 N -0.00110 0.31789 0.57640
 N346 N 0.03096 0.33010 0.60805
 N347 N 0.51472 0.10103 0.79817
 N348 N 0.49128 0.10554 0.83738
 N349 N 1.01818 0.68561 0.40691
 N350 N 0.99190 0.67998 0.36808
 N351 N 1.18185 0.50388 0.09234
 N352 N 1.16735 0.47206 0.12574
 N353 N 0.59263 0.01833 0.67938
 N354 N 0.62482 -0.01286 0.67309
 N355 N -0.18951 0.52134 0.89355
 N356 N -0.17011 0.48124 0.88400
 N357 N 0.41978 -0.01343 0.32504
 N358 N 0.38774 0.01855 0.32899
 N359 N 0.18346 0.50607 0.93294
 N360 N 0.16267 0.47162 0.91034
 N361 N 0.57636 -0.01985 0.31899
 N362 N 0.61297 0.00854 0.32101
 N363 N 0.81711 0.50232 0.05307
 N364 N 0.82073 0.52177 0.09486
 N365 N 0.43680 0.01714 0.67953
 N366 N 0.40132 -0.01238 0.67468
   
