data_POSCAR
  _audit_creation_date              2014-09-24
  _audit_creation_method            'ToBaCCo'
  _symmetry_space_group_name_H-M    'P1'
  _symmetry_Int_Tables_number       1
  _symmetry_cell_setting            triclinic
  loop_
  _symmetry_equiv_pos_as_xyz
 x,y,z
_cell_length_a 39.0446
_cell_length_b 39.0507
_cell_length_c 39.0709
_cell_angle_alpha 89.973600
_cell_angle_beta 90.088300
_cell_angle_gamma 89.992400
loop_
  _atom_site_label
  _atom_site_type_symbol
  _atom_site_fract_x
  _atom_site_fract_y
  _atom_site_fract_z
C1 C 0.25256 1.09148 -0.00025
 C2 C 0.25643 1.07326 0.03024
 C3 C 0.25713 1.03743 0.02974
 C4 C 0.25163 1.01904 -0.00104
 C5 C 0.24689 1.03817 -0.03148
 C6 C 0.24837 1.07402 -0.03115
 C7 C 0.25067 0.98044 -0.00122
 C8 C 0.25469 0.96154 -0.03190
 C9 C 0.25299 0.92569 -0.03185
 C10 C 0.24931 0.90800 -0.00099
 C11 C 0.24616 0.92604 0.02967
 C12 C 0.24567 0.96183 0.02945
 H13 H 0.25276 1.11930 0.00008
 H14 H 0.26208 1.02442 0.05364
 H15 H 0.24180 1.02572 -0.05564
 H16 H 0.25932 0.97410 -0.05608
 H17 H 0.24890 0.88022 -0.00085
 H18 H 0.24123 0.97457 0.05354
 C19 C 0.75479 0.58842 0.49856
 C20 C 0.75864 0.57023 0.52903
 C21 C 0.75874 0.53441 0.52866
 C22 C 0.75273 0.51602 0.49796
 C23 C 0.74806 0.53516 0.46751
 C24 C 0.75006 0.57096 0.46778
 C25 C 0.75116 0.47744 0.49787
 C26 C 0.75452 0.45842 0.46718
 C27 C 0.75227 0.42260 0.46731
 C28 C 0.74866 0.40502 0.49825
 C29 C 0.74615 0.42317 0.52892
 C30 C 0.74625 0.45896 0.52863
 H31 H 0.75540 0.61620 0.49882
 H32 H 0.76361 0.52150 0.55260
 H33 H 0.74261 0.52284 0.44338
 H34 H 0.75906 0.47087 0.44293
 H35 H 0.74783 0.37725 0.49845
 H36 H 0.74234 0.47181 0.55276
 C37 C 0.74692 0.99793 1.09006
 C38 C 0.74472 0.96691 1.07244
 C39 C 0.74418 0.96667 1.03655
 C40 C 0.74795 0.99742 1.01762
 C41 C 0.75141 1.02833 1.03625
 C42 C 0.74976 1.02863 1.07202
 C43 C 0.74838 0.99740 0.97898
 C44 C 0.74354 1.02805 0.96017
 C45 C 0.74545 1.02834 0.92442
 C46 C 0.74991 0.99773 0.90654
 C47 C 0.75349 0.96693 0.92437
 C48 C 0.75376 0.96685 0.96022
 H49 H 0.74650 0.99816 1.11786
 H50 H 0.74067 0.94231 1.02398
 H51 H 0.75561 1.05252 1.02355
 H52 H 0.73817 1.05208 0.97266
 H53 H 0.75060 0.99788 0.87879
 H54 H 0.75839 0.94270 0.97284
 C55 C 0.24759 0.49966 0.58970
 C56 C 0.24479 0.46870 0.57213
 C57 C 0.24388 0.46842 0.53628
 C58 C 0.24780 0.49911 0.51727
 C59 C 0.25182 0.52998 0.53586
 C60 C 0.25062 0.53028 0.57161
 C61 C 0.24779 0.49906 0.47864
 C62 C 0.24320 0.52976 0.45986
 C63 C 0.24468 0.52999 0.42409
 C64 C 0.24850 0.49930 0.40619
 C65 C 0.25185 0.46847 0.42402
 C66 C 0.25251 0.46842 0.45986
 H67 H 0.24748 0.49992 0.61746
 H68 H 0.23996 0.44405 0.52387
 H69 H 0.25610 0.55416 0.52320
 H70 H 0.23835 0.55389 0.47239
 H71 H 0.24889 0.49941 0.37843
 H72 H 0.25694 0.44422 0.47246
 C73 C 1.08815 0.25158 0.00191
 C74 C 1.07035 0.25416 0.03276
 C75 C 1.03442 0.25474 0.03273
 C76 C 1.01569 0.25069 0.00186
 C77 C 1.03453 0.24683 -0.02882
 C78 C 1.07027 0.24842 -0.02883
 C79 C 0.97705 0.25038 0.00150
 C80 C 0.95851 0.25536 -0.02931
 C81 C 0.92270 0.25351 -0.02997
 C82 C 0.90456 0.24901 0.00050
 C83 C 0.92218 0.24532 0.03143
 C84 C 0.95803 0.24496 0.03183
 H85 H 1.11595 0.25199 0.00175
 H86 H 1.02166 0.25855 0.05693
 H87 H 1.02204 0.24242 -0.05307
 H88 H 0.97137 0.26082 -0.05315
 H89 H 0.87677 0.24837 0.00022
 H90 H 0.97050 0.24024 0.05605
 C91 C 0.59033 0.75071 0.50038
 C92 C 0.57294 0.75357 0.53140
 C93 C 0.53707 0.75462 0.53184
 C94 C 0.51788 0.75080 0.50126
 C95 C 0.53628 0.74670 0.47031
 C96 C 0.57207 0.74776 0.46985
 C97 C 0.47925 0.75109 0.50149
 C98 C 0.46038 0.75619 0.47092
 C99 C 0.42459 0.75499 0.47078
 C100 C 0.40676 0.75096 0.50146
 C101 C 0.42468 0.74714 0.53219
 C102 C 0.46054 0.74619 0.53213
 H103 H 0.61812 0.75075 0.50001
 H104 H 0.52478 0.75860 0.55624
 H105 H 0.52344 0.74249 0.44621
 H106 H 0.47289 0.76122 0.44684
 H107 H 0.37897 0.75078 0.50142
 H108 H 0.47324 0.74141 0.55622
 C109 C -0.00037 0.74670 -0.08946
 C110 C 0.03001 0.74292 -0.07107
 C111 C 0.02940 0.74256 -0.03528
 C112 C -0.00144 0.74830 -0.01708
 C113 C -0.03182 0.75292 -0.03639
 C114 C -0.03134 0.75112 -0.07221
 C115 C -0.00175 0.74968 0.02149
 C116 C -0.03253 0.74611 0.04035
 C117 C -0.03254 0.74820 0.07620
 C118 C -0.00159 0.75179 0.09391
 C119 C 0.02914 0.75450 0.07588
 C120 C 0.02894 0.75464 0.04012
 H121 H 0.00016 0.74625 -0.11724
 H122 H 0.05331 0.73770 -0.02226
 H123 H -0.05603 0.75818 -0.02413
 H124 H -0.05671 0.74151 0.02769
 H125 H -0.00135 0.75247 0.12168
 H126 H 0.05311 0.75876 0.02741
 C127 C 0.49754 0.24556 0.41079
 C128 C 0.52810 0.24135 0.42879
 C129 C 0.52797 0.24102 0.46457
 C130 C 0.49746 0.24716 0.48316
 C131 C 0.46688 0.25217 0.46423
 C132 C 0.46689 0.25041 0.42842
 C133 C 0.49772 0.24851 0.52173
 C134 C 0.46714 0.24533 0.54094
 C135 C 0.46760 0.24732 0.57675
 C136 C 0.49875 0.25048 0.59413
 C137 C 0.52932 0.25282 0.57579
 C138 C 0.52871 0.25299 0.54001
 H139 H 0.49763 0.24514 0.38302
 H140 H 0.55197 0.23585 0.47729
 H141 H 0.44286 0.25770 0.47672
 H142 H 0.44272 0.24114 0.52865
 H143 H 0.49919 0.25112 0.62188
 H144 H 0.55279 0.25680 0.52703
 C145 C 1.09363 0.00261 0.24967
 C146 C 1.07561 0.03335 0.25324
 C147 C 1.03972 0.03293 0.25521
 C148 C 1.02119 0.00192 0.25156
 C149 C 1.04012 -0.02853 0.24664
 C150 C 1.07589 -0.02830 0.24687
 C151 C 0.98261 0.00114 0.25270
 C152 C 0.96465 -0.02986 0.25864
 C153 C 0.92880 -0.03086 0.25796
 C154 C 0.91020 -0.00064 0.25366
 C155 C 0.92727 0.03038 0.24902
 C156 C 0.96307 0.03122 0.24756
 H157 H 1.12142 0.00268 0.24904
 H158 H 1.02677 0.05694 0.25977
 H159 H 1.02763 -0.05282 0.24244
 H160 H 0.97800 -0.05351 0.26389
 H161 H 0.88240 -0.00122 0.25384
 H162 H 0.97509 0.05552 0.24214
 C163 C 0.59470 0.50050 0.74971
 C164 C 0.57738 0.53158 0.75338
 C165 C 0.54156 0.53204 0.75550
 C166 C 0.52229 0.50153 0.75196
 C167 C 0.54049 0.47058 0.74700
 C168 C 0.57629 0.46997 0.74701
 C169 C 0.48373 0.50184 0.75344
 C170 C 0.46512 0.47135 0.75966
 C171 C 0.42932 0.47123 0.75944
 C172 C 0.41133 0.50179 0.75529
 C173 C 0.42901 0.53244 0.75037
 C174 C 0.46484 0.53243 0.74849
 H175 H 0.62247 0.50007 0.74895
 H176 H 0.52930 0.55639 0.76007
 H177 H 0.52739 0.44658 0.74293
 H178 H 0.47787 0.44735 0.76475
 H179 H 0.38355 0.50171 0.75578
 H180 H 0.47739 0.55642 0.74289
 C181 C 1.00076 1.09438 0.75032
 C182 C 0.97032 1.07606 0.74594
 C183 C 0.97115 1.04024 0.74422
 C184 C 1.00211 1.02192 0.74917
 C185 C 1.03237 1.04112 0.75446
 C186 C 1.03179 1.07696 0.75400
 C187 C 1.00271 0.98329 0.74902
 C188 C 1.03367 0.96476 0.74476
 C189 C 1.03391 0.92883 0.74555
 C190 C 1.00316 0.91085 0.74854
 C191 C 0.97235 0.92854 0.75191
 C192 C 0.97217 0.96428 0.75327
 H193 H 1.00036 1.12217 0.75086
 H194 H 0.94735 1.02720 0.73887
 H195 H 1.05667 1.02880 0.75918
 H196 H 1.05777 0.97768 0.74065
 H197 H 1.00314 0.88305 0.74829
 H198 H 0.94788 0.97664 0.75783
 C199 C 0.50171 0.59415 0.24837
 C200 C 0.47092 0.57642 0.24431
 C201 C 0.47091 0.54065 0.24286
 C202 C 0.50142 0.52168 0.24774
 C203 C 0.53220 0.54025 0.25266
 C204 C 0.53242 0.57613 0.25198
 C205 C 0.50097 0.48305 0.24781
 C206 C 0.53142 0.46378 0.24358
 C207 C 0.53079 0.42792 0.24441
 C208 C 0.49970 0.41062 0.24748
 C209 C 0.46928 0.42897 0.25084
 C210 C 0.46994 0.46475 0.25211
 H211 H 0.50176 0.62192 0.24876
 H212 H 0.44674 0.52823 0.23780
 H213 H 0.55626 0.52743 0.25728
 H214 H 0.55586 0.47603 0.23947
 H215 H 0.49919 0.38284 0.24730
 H216 H 0.44594 0.47767 0.25665
 O217 O 0.25382 0.16198 0.19805
 O218 O 0.29501 0.15616 0.24590
 O219 O 0.16454 0.20153 0.24800
 O220 O 0.15118 0.24644 0.28134
 O221 O 0.20503 0.25070 0.15663
 O222 O 0.24999 0.29137 0.14949
 O223 O 0.25355 0.29864 0.33442
 O224 O 0.21314 0.25308 0.34339
 O225 O 0.34084 0.25176 0.29309
 O226 O 0.34847 0.21060 0.24215
 O227 O 0.29972 0.33899 0.24767
 O228 O 0.25075 0.34928 0.20770
 O229 O 0.25309 0.33928 0.29267
 O230 O 0.21429 0.34950 0.24407
 O231 O 0.34083 0.29762 0.24778
 O232 O 0.35213 0.25492 0.20941
 O233 O 0.29999 0.25317 0.33459
 O234 O 0.25343 0.21371 0.34588
 O235 O 0.25341 0.20354 0.15713
 O236 O 0.29159 0.25150 0.14825
 O237 O 0.16374 0.25018 0.19785
 O238 O 0.15497 0.28936 0.24557
 O239 O 0.20645 0.16083 0.24637
 O240 O 0.25108 0.15227 0.28428
 Zr241 Zr 0.25194 0.18934 0.24469
 O242 O 0.28330 0.21897 0.27705
 Zr243 Zr 0.19094 0.24876 0.24467
 O244 O 0.22017 0.28123 0.27674
 Zr245 Zr 0.25109 0.24981 0.18442
 O246 O 0.28310 0.28153 0.21389
 Zr247 Zr 0.25343 0.25195 0.30728
 O248 O 0.22156 0.21923 0.27791
 Zr249 Zr 0.31328 0.25166 0.24684
 O250 O 0.28444 0.21958 0.21414
 Zr251 Zr 0.25303 0.31166 0.24668
 O252 O 0.22063 0.28221 0.21465
 O253 O 0.21977 0.21756 0.21292
 O254 O 0.28523 0.28384 0.27884
 C255 C 0.25472 0.17219 0.16679
 C256 C 0.17502 0.17025 0.24835
 C257 C 0.17370 0.25134 0.16650
 C258 C 0.25351 0.32987 0.32407
 C259 C 0.33124 0.25276 0.32444
 C260 C 0.33106 0.32894 0.24821
 H261 H 0.29764 0.20359 0.29114
 H262 H 0.29762 0.29545 0.19853
 H263 H 0.20521 0.20268 0.19845
 H264 H 0.20471 0.29524 0.29105
 H265 H 0.19637 0.23543 0.33624
 H266 H 0.15834 0.26048 0.30116
 H267 H 0.34175 0.24677 0.18780
 H268 H 0.28234 0.24583 0.12524
 H269 H 0.27073 0.19626 0.33983
 H270 H 0.23698 0.16190 0.30298
 H271 H 0.26991 0.34504 0.19171
 H272 H 0.23259 0.30781 0.15780
 H273 H 0.28759 0.13282 0.23911
 H274 H 0.34754 0.19693 0.26345
 H275 H 0.16241 0.30623 0.22819
 H276 H 0.19715 0.34419 0.26192
 O277 O 0.75038 0.84236 0.20636
 O278 O 0.71299 0.85215 0.25376
 O279 O 0.84003 0.80103 0.25679
 O280 O 0.85182 0.75614 0.29047
 O281 O 0.79944 0.75333 0.16492
 O282 O 0.75392 0.71346 0.15711
 O283 O 0.74955 0.70649 0.34228
 O284 O 0.79000 0.75198 0.35114
 O285 O 0.66222 0.75259 0.30069
 O286 O 0.65360 0.79360 0.25152
 O287 O 0.70243 0.66578 0.25483
 O288 O 0.75140 0.65465 0.21608
 O289 O 0.74858 0.66517 0.30123
 O290 O 0.78805 0.65455 0.25239
 O291 O 0.66186 0.70765 0.25439
 O292 O 0.65245 0.75144 0.21530
 O293 O 0.70348 0.75124 0.34191
 O294 O 0.74461 0.79055 0.35318
 O295 O 0.75101 0.80145 0.16486
 O296 O 0.71245 0.75337 0.15577
 O297 O 0.83985 0.75290 0.20712
 O298 O 0.84766 0.71365 0.25500
 O299 O 0.79875 0.84215 0.25451
 O300 O 0.74916 0.85317 0.29092
 Zr301 Zr 0.75235 0.81497 0.25263
 O302 O 0.72032 0.78581 0.28452
 Zr303 Zr 0.81233 0.75477 0.25337
 O304 O 0.78255 0.72264 0.28497
 Zr305 Zr 0.75282 0.75483 0.19221
 O306 O 0.72020 0.72333 0.22157
 Zr307 Zr 0.74969 0.75265 0.31486
 O308 O 0.78234 0.78525 0.28639
 Zr309 Zr 0.68992 0.75335 0.25433
 O310 O 0.71947 0.78524 0.22190
 Zr311 Zr 0.74948 0.69257 0.25473
 O312 O 0.78239 0.72182 0.22295
 O313 O 0.78439 0.78656 0.22111
 O314 O 0.71755 0.72091 0.28649
 C315 C 0.74964 0.83270 0.17500
 C316 C 0.83001 0.83237 0.25683
 C317 C 0.83061 0.75209 0.17557
 C318 C 0.74874 0.67517 0.33252
 C319 C 0.67219 0.75144 0.33202
 C320 C 0.67119 0.67620 0.25476
 H321 H 0.70651 0.80131 0.29899
 H322 H 0.70565 0.70962 0.20601
 H323 H 0.79920 0.80126 0.20673
 H324 H 0.79777 0.70851 0.29948
 H325 H 0.80536 0.77133 0.34546
 H326 H 0.84338 0.74381 0.31090
 H327 H 0.66265 0.76278 0.19509
 H328 H 0.72177 0.75933 0.13289
 H329 H 0.75883 0.81014 0.34593
 H330 H 0.76856 0.84964 0.30685
 H331 H 0.73328 0.65992 0.19916
 H332 H 0.77066 0.69657 0.16591
 H333 H 0.69498 0.84421 0.23776
 H334 H 0.65680 0.80846 0.27177
 H335 H 0.84019 0.69685 0.23755
 H336 H 0.80448 0.65903 0.27116
 O337 O 0.75004 0.15942 0.79537
 O338 O 0.71497 0.14861 0.74819
 O339 O 0.83996 0.20320 0.74967
 O340 O 0.85081 0.25030 0.71457
 O341 O 0.79558 0.24954 0.83966
 O342 O 0.75390 0.28404 0.85043
 O343 O 0.74893 0.29530 0.66060
 O344 O 0.78603 0.24839 0.64890
 O345 O 0.66133 0.25054 0.70322
 O346 O 0.64806 0.21538 0.74845
 O347 O 0.70454 0.33875 0.74757
 O348 O 0.74763 0.34698 0.78784
 O349 O 0.74757 0.33719 0.70106
 O350 O 0.79223 0.34409 0.74607
 O351 O 0.66284 0.29792 0.74800
 O352 O 0.65552 0.24559 0.79089
 O353 O 0.70198 0.25041 0.66153
 O354 O 0.75238 0.20896 0.65270
 O355 O 0.74861 0.19984 0.83734
 O356 O 0.70635 0.24836 0.84246
 O357 O 0.83778 0.25091 0.79937
 O358 O 0.84715 0.28956 0.75022
 O359 O 0.79965 0.16108 0.74802
 O360 O 0.75080 0.15228 0.70895
 Zr361 Zr 0.75239 0.18768 0.74987
 O362 O 0.71927 0.21700 0.71893
 Zr363 Zr 0.81161 0.24871 0.75177
 O364 O 0.78228 0.27959 0.71859
 Zr365 Zr 0.75049 0.24718 0.81082
 O366 O 0.71972 0.28038 0.78126
 Zr367 Zr 0.74911 0.24955 0.68846
 O368 O 0.78259 0.21834 0.71765
 Zr369 Zr 0.68931 0.25043 0.74884
 O370 O 0.71839 0.21683 0.78005
 Zr371 Zr 0.74975 0.31028 0.74804
 O372 O 0.78084 0.28111 0.78157
 O373 O 0.78321 0.21609 0.78263
 O374 O 0.71745 0.28193 0.71648
 C375 C 0.74822 0.16865 0.82676
 C376 C 0.83084 0.17174 0.74782
 C377 C 0.82705 0.25130 0.83055
 C378 C 0.74776 0.32670 0.66987
 C379 C 0.67072 0.25085 0.67186
 C380 C 0.67316 0.32924 0.74741
 H381 H 0.70480 0.20152 0.70507
 H382 H 0.70571 0.29496 0.79647
 H383 H 0.79786 0.20150 0.79733
 H384 H 0.79774 0.29380 0.70444
 H385 H 0.80537 0.26303 0.65619
 H386 H 0.84236 0.23687 0.69481
 H387 H 0.65357 0.26831 0.80191
 H388 H 0.71285 0.24031 0.86566
 H389 H 0.73126 0.19510 0.65461
 H390 H 0.76901 0.15907 0.69270
 H391 H 0.76618 0.34103 0.80411
 H392 H 0.74029 0.30408 0.84305
 H393 H 0.69540 0.15689 0.76198
 H394 H 0.65665 0.19406 0.73787
 H395 H 0.84021 0.30602 0.76819
 H396 H 0.78344 0.36742 0.74119
 O397 O 0.24828 0.83515 0.79895
 O398 O 0.28537 0.84519 0.75100
 O399 O 0.15817 0.79447 0.74839
 O400 O 0.14548 0.75033 0.71483
 O401 O 0.19944 0.74501 0.83904
 O402 O 0.24773 0.70745 0.84790
 O403 O 0.24741 0.69979 0.66136
 O404 O 0.20648 0.74587 0.65337
 O405 O 0.33491 0.74568 0.70183
 O406 O 0.34572 0.78477 0.75074
 O407 O 0.29377 0.65849 0.74840
 O408 O 0.24482 0.64820 0.78786
 O409 O 0.24804 0.65878 0.70277
 O410 O 0.20892 0.64788 0.75099
 O411 O 0.33530 0.69937 0.74797
 O412 O 0.34613 0.74822 0.78719
 O413 O 0.29313 0.74515 0.66115
 O414 O 0.25200 0.78421 0.65074
 O415 O 0.24822 0.79324 0.83950
 O416 O 0.28503 0.74588 0.84885
 O417 O 0.15839 0.74620 0.79758
 O418 O 0.15003 0.70732 0.74950
 O419 O 0.19917 0.83588 0.75065
 O420 O 0.24874 0.84689 0.71400
 Zr421 Zr 0.24571 0.80835 0.75199
 O422 O 0.27719 0.77899 0.71940
 Zr423 Zr 0.18555 0.74827 0.75128
 O424 O 0.21455 0.71627 0.71905
 Zr425 Zr 0.24586 0.74747 0.81148
 O426 O 0.27787 0.71587 0.78178
 Zr427 Zr 0.24738 0.74614 0.68898
 O428 O 0.21538 0.77886 0.71820
 Zr429 Zr 0.30797 0.74591 0.74870
 O430 O 0.27898 0.77789 0.78164
 Zr431 Zr 0.24749 0.68593 0.74902
 O432 O 0.21530 0.71489 0.78146
 O433 O 0.21392 0.77971 0.78357
 O434 O 0.27950 0.71394 0.71688
 C435 C 0.24939 0.82468 0.83014
 C436 C 0.16791 0.82584 0.74848
 C437 C 0.16812 0.74446 0.82889
 C438 C 0.24806 0.66849 0.67146
 C439 C 0.32455 0.74516 0.67060
 C440 C 0.32515 0.66811 0.74788
 H441 H 0.29091 0.79453 0.70488
 H442 H 0.29209 0.70163 0.79714
 H443 H 0.19933 0.79427 0.79830
 H444 H 0.19910 0.70234 0.70462
 H445 H 0.19148 0.76546 0.65922
 H446 H 0.15357 0.73833 0.69408
 H447 H 0.34158 0.72959 0.80374
 H448 H 0.30375 0.76064 0.84026
 H449 H 0.23851 0.80405 0.65866
 H450 H 0.22931 0.84341 0.69809
 H451 H 0.26397 0.65222 0.80397
 H452 H 0.23135 0.68976 0.84006
 H453 H 0.30356 0.83666 0.76649
 H454 H 0.34064 0.80145 0.73236
 H455 H 0.15730 0.69047 0.76700
 H456 H 0.19212 0.65288 0.73269
 O457 O 0.24939 0.34327 0.70783
 O458 O 0.21178 0.35325 0.75513
 O459 O 0.33882 0.30213 0.75873
 O460 O 0.35065 0.25739 0.79251
 O461 O 0.29840 0.25395 0.66696
 O462 O 0.25284 0.21413 0.65925
 O463 O 0.24827 0.20810 0.84447
 O464 O 0.28874 0.25366 0.85314
 O465 O 0.16103 0.25398 0.80250
 O466 O 0.15252 0.29485 0.75315
 O467 O 0.20125 0.16702 0.75718
 O468 O 0.25024 0.15560 0.71857
 O469 O 0.24731 0.16658 0.80363
 O470 O 0.28688 0.15571 0.75489
 O471 O 0.16072 0.20893 0.75643
 O472 O 0.15134 0.25250 0.71714
 O473 O 0.20223 0.25280 0.84379
 O474 O 0.24332 0.29220 0.85496
 O475 O 0.25009 0.30214 0.66655
 O476 O 0.21142 0.25407 0.65768
 O477 O 0.33874 0.25376 0.70922
 O478 O 0.34646 0.21475 0.75732
 O479 O 0.29756 0.34326 0.75614
 O480 O 0.24794 0.35460 0.79225
 Zr481 Zr 0.25119 0.31611 0.75425
 O482 O 0.21914 0.28715 0.78628
 Zr483 Zr 0.31116 0.25588 0.75541
 O484 O 0.28135 0.22393 0.78714
 Zr485 Zr 0.25175 0.25567 0.69415
 O486 O 0.21909 0.22435 0.72363
 Zr487 Zr 0.24847 0.25412 0.81682
 O488 O 0.28114 0.28656 0.78821
 Zr489 Zr 0.18879 0.25458 0.75619
 O490 O 0.21837 0.28626 0.72361
 Zr491 Zr 0.24831 0.19375 0.75699
 O492 O 0.28127 0.22281 0.72510
 O493 O 0.28329 0.28752 0.72294
 O494 O 0.21636 0.22227 0.78855
 C495 C 0.24873 0.33344 0.67652
 C496 C 0.32879 0.33347 0.75862
 C497 C 0.32954 0.25275 0.67767
 C498 C 0.24744 0.17673 0.83487
 C499 C 0.17096 0.25292 0.83384
 C500 C 0.17004 0.17749 0.75700
 H501 H 0.20532 0.30273 0.80066
 H502 H 0.20455 0.21057 0.70813
 H503 H 0.29814 0.30213 0.70853
 H504 H 0.29654 0.20987 0.80174
 H505 H 0.30409 0.27301 0.84738
 H506 H 0.34215 0.24528 0.81303
 H507 H 0.16157 0.26371 0.69688
 H508 H 0.22075 0.25993 0.63479
 H509 H 0.25752 0.31177 0.84762
 H510 H 0.26719 0.35106 0.80836
 H511 H 0.23215 0.16080 0.70160
 H512 H 0.26952 0.19724 0.66818
 H513 H 0.19389 0.34530 0.73901
 H514 H 0.15564 0.30975 0.77338
 H515 H 0.33902 0.19787 0.73993
 H516 H 0.30325 0.16022 0.77370
 O517 O 0.75774 0.66068 0.69806
 O518 O 0.79898 0.65494 0.74594
 O519 O 0.66853 0.70038 0.74783
 O520 O 0.65499 0.74530 0.78096
 O521 O 0.70924 0.74949 0.65647
 O522 O 0.75426 0.79001 0.64935
 O523 O 0.75716 0.79740 0.83439
 O524 O 0.71685 0.75176 0.84327
 O525 O 0.84465 0.75058 0.79321
 O526 O 0.85238 0.70929 0.74235
 O527 O 0.80364 0.83769 0.74781
 O528 O 0.75491 0.84811 0.70772
 O529 O 0.75687 0.83804 0.79263
 O530 O 0.71816 0.84817 0.74378
 O531 O 0.84474 0.79631 0.74792
 O532 O 0.85617 0.75364 0.70962
 O533 O 0.80372 0.75212 0.83463
 O534 O 0.75717 0.71247 0.84584
 O535 O 0.75746 0.70221 0.65710
 O536 O 0.79585 0.75013 0.64834
 O537 O 0.66787 0.74898 0.69760
 O538 O 0.65899 0.78820 0.74532
 O539 O 0.71041 0.65965 0.74635
 O540 O 0.75499 0.65102 0.78424
 Zr541 Zr 0.75590 0.68810 0.74467
 O542 O 0.78717 0.71772 0.77711
 Zr543 Zr 0.69493 0.74757 0.74448
 O544 O 0.72404 0.78001 0.77663
 Zr545 Zr 0.75522 0.74852 0.68436
 O546 O 0.78711 0.78026 0.71391
 Zr547 Zr 0.75722 0.75072 0.80724
 O548 O 0.72543 0.71801 0.77779
 Zr549 Zr 0.81721 0.75038 0.74693
 O550 O 0.78848 0.71828 0.71416
 Zr551 Zr 0.75697 0.81041 0.74663
 O552 O 0.72469 0.78096 0.71449
 O553 O 0.72381 0.71632 0.71282
 O554 O 0.78908 0.78258 0.77885
 C555 C 0.75866 0.67086 0.66679
 C556 C 0.67901 0.66911 0.74826
 C557 C 0.67790 0.75016 0.66628
 C558 C 0.75714 0.82863 0.82404
 C559 C 0.83498 0.75171 0.82454
 C560 C 0.83496 0.82761 0.74840
 H561 H 0.80148 0.70235 0.79124
 H562 H 0.80168 0.79417 0.69859
 H563 H 0.70925 0.70145 0.69834
 H564 H 0.70854 0.79402 0.79089
 H565 H 0.70010 0.73412 0.83605
 H566 H 0.66216 0.75918 0.80089
 H567 H 0.84588 0.74542 0.68799
 H568 H 0.78669 0.74438 0.62532
 H569 H 0.77468 0.69517 0.83997
 H570 H 0.74100 0.66072 0.80300
 H571 H 0.77403 0.84377 0.69171
 H572 H 0.73698 0.80656 0.65768
 H573 H 0.79159 0.63161 0.73911
 H574 H 0.85150 0.69572 0.76372
 H575 H 0.66641 0.80501 0.72788
 H576 H 0.70109 0.84301 0.76174
 O577 O 0.24977 0.66131 0.29515
 O578 O 0.21448 0.65076 0.24806
 O579 O 0.33959 0.70512 0.24928
 O580 O 0.35049 0.75225 0.21436
 O581 O 0.29560 0.75125 0.33957
 O582 O 0.25398 0.78570 0.35064
 O583 O 0.24853 0.79764 0.16082
 O584 O 0.28560 0.75060 0.14890
 O585 O 0.16101 0.75285 0.20354
 O586 O 0.14779 0.71762 0.24876
 O587 O 0.20458 0.84087 0.24796
 O588 O 0.24771 0.84890 0.28821
 O589 O 0.24748 0.83940 0.20143
 O590 O 0.29225 0.84603 0.24637
 O591 O 0.16278 0.80013 0.24832
 O592 O 0.15539 0.74780 0.29119
 O593 O 0.20154 0.75280 0.16174
 O594 O 0.25179 0.71135 0.15255
 O595 O 0.24853 0.70161 0.33725
 O596 O 0.20635 0.75022 0.34261
 O597 O 0.33767 0.75264 0.29915
 O598 O 0.34699 0.79142 0.25010
 O599 O 0.29919 0.66307 0.24759
 O600 O 0.25021 0.65441 0.20875
 Zr601 Zr 0.25201 0.68973 0.24974
 O602 O 0.21890 0.71921 0.21897
 Zr603 Zr 0.31137 0.75064 0.25164
 O604 O 0.28205 0.78167 0.21863
 Zr605 Zr 0.25042 0.74902 0.31088
 O606 O 0.21967 0.78239 0.28150
 Zr607 Zr 0.24873 0.75178 0.18852
 O608 O 0.28219 0.72041 0.21753
 Zr609 Zr 0.18911 0.75260 0.24907
 O610 O 0.21817 0.71884 0.28011
 Zr611 Zr 0.24969 0.81232 0.24829
 O612 O 0.28078 0.78298 0.28166
 O613 O 0.28299 0.71797 0.28249
 O614 O 0.21723 0.78414 0.21674
 C615 C 0.24805 0.67044 0.32658
 C616 C 0.33038 0.67370 0.24731
 C617 C 0.32704 0.75300 0.33035
 C618 C 0.24752 0.82902 0.17021
 C619 C 0.17032 0.75323 0.17217
 C620 C 0.17320 0.83142 0.24777
 H621 H 0.20436 0.70379 0.20511
 H622 H 0.20573 0.79696 0.29678
 H623 H 0.29766 0.70331 0.29710
 H624 H 0.29750 0.79590 0.20449
 H625 H 0.30486 0.76540 0.15606
 H626 H 0.34190 0.73902 0.19452
 H627 H 0.15351 0.77053 0.30223
 H628 H 0.21285 0.74200 0.36575
 H629 H 0.23071 0.69745 0.15458
 H630 H 0.26830 0.66127 0.19240
 H631 H 0.26628 0.84287 0.30442
 H632 H 0.24048 0.80585 0.34332
 H633 H 0.19500 0.65902 0.26199
 H634 H 0.15629 0.69634 0.23803
 H635 H 0.34019 0.80781 0.26817
 H636 H 0.28351 0.86940 0.24158
 O637 O 0.74579 0.33207 0.29807
 O638 O 0.78282 0.34208 0.24998
 O639 O 0.65561 0.29134 0.24754
 O640 O 0.64278 0.24718 0.21416
 O641 O 0.69701 0.24201 0.33822
 O642 O 0.74529 0.20437 0.34699
 O643 O 0.74478 0.19667 0.16047
 O644 O 0.70366 0.24270 0.15256
 O645 O 0.83218 0.24271 0.20076
 O646 O 0.84303 0.28181 0.24971
 O647 O 0.79114 0.15549 0.24742
 O648 O 0.74232 0.14513 0.28697
 O649 O 0.74541 0.15569 0.20191
 O650 O 0.70630 0.14484 0.25020
 O651 O 0.83266 0.19639 0.24684
 O652 O 0.84364 0.24513 0.28604
 O653 O 0.79033 0.24215 0.16015
 O654 O 0.74911 0.28111 0.14980
 O655 O 0.74583 0.29016 0.33862
 O656 O 0.78260 0.24278 0.34790
 O657 O 0.65589 0.24318 0.29682
 O658 O 0.64748 0.20418 0.24881
 O659 O 0.69660 0.33275 0.24978
 O660 O 0.74606 0.34390 0.21319
 Zr661 Zr 0.74313 0.30527 0.25110
 O662 O 0.77450 0.27594 0.21841
 Zr663 Zr 0.68297 0.24516 0.25048
 O664 O 0.71189 0.21317 0.21820
 Zr665 Zr 0.74337 0.24441 0.31059
 O666 O 0.77532 0.21283 0.28082
 Zr667 Zr 0.74465 0.24305 0.18807
 O668 O 0.71273 0.27577 0.21737
 Zr669 Zr 0.80534 0.24289 0.24769
 O670 O 0.77644 0.27484 0.28071
 Zr671 Zr 0.74488 0.18288 0.24814
 O672 O 0.71276 0.21181 0.28064
 O673 O 0.71139 0.27663 0.28272
 O674 O 0.77683 0.21089 0.21593
 C675 C 0.74699 0.32160 0.32926
 C676 C 0.66536 0.32270 0.24761
 C677 C 0.66568 0.24149 0.32811
 C678 C 0.74546 0.16538 0.17059
 C679 C 0.82177 0.24220 0.16955
 C680 C 0.82251 0.16514 0.24678
 H681 H 0.78819 0.29149 0.20387
 H682 H 0.78958 0.19859 0.29615
 H683 H 0.69683 0.29121 0.29747
 H684 H 0.69642 0.19922 0.20379
 H685 H 0.68865 0.26228 0.15843
 H686 H 0.65082 0.23519 0.19339
 H687 H 0.83908 0.22656 0.30264
 H688 H 0.80134 0.25750 0.33927
 H689 H 0.73560 0.30093 0.15773
 H690 H 0.72673 0.34031 0.19719
 H691 H 0.76146 0.14920 0.30307
 H692 H 0.72884 0.18671 0.33920
 H693 H 0.80098 0.33363 0.26556
 H694 H 0.83797 0.29844 0.23128
 H695 H 0.65476 0.18739 0.26636
 H696 H 0.68952 0.14978 0.23186
 C697 C 0.25811 0.09060 0.06046
 C698 C 0.25847 0.10698 0.08660
 C699 C 0.25780 0.12773 0.11614
 C700 C 0.25659 0.14706 0.14013
 C701 C 0.76094 0.58865 0.56087
 C702 C 0.76162 0.60522 0.58688
 C703 C 0.76129 0.62619 0.61627
 C704 C 0.76033 0.64566 0.64017
 C705 C 0.74419 0.93706 0.09055
 C706 C 0.74465 0.91147 0.10784
 C707 C 0.74604 0.88268 0.12966
 C708 C 0.74762 0.85919 0.14963
 C709 C 0.24395 0.43724 0.59136
 C710 C 0.24425 0.41179 0.60883
 C711 C 0.24545 0.38315 0.63087
 C712 C 0.24688 0.35979 0.65100
 C713 C 0.74410 0.06033 0.90604
 C714 C 0.74406 0.08677 0.89007
 C715 C 0.74496 0.11691 0.87010
 C716 C 0.74627 0.14148 0.85143
 C717 C 0.24355 0.56198 0.40569
 C718 C 0.24365 0.58843 0.38973
 C719 C 0.24469 0.61860 0.36980
 C720 C 0.24607 0.64320 0.35117
 C721 C 0.25402 0.90681 0.93644
 C722 C 0.25387 0.89004 0.91051
 C723 C 0.25282 0.86902 0.88107
 C724 C 0.25142 0.84967 0.85704
 C725 C 0.75277 0.40366 0.43562
 C726 C 0.75225 0.38688 0.40968
 C727 C 0.75084 0.36590 0.38023
 C728 C 0.74920 0.34657 0.35618
 C729 C 0.08839 0.25510 0.06266
 C730 C 0.10579 0.25501 0.08820
 C731 C 0.12787 0.25408 0.11684
 C732 C 0.14808 0.25289 0.14017
 C733 C 0.59234 0.75443 0.56275
 C734 C 0.60996 0.75418 0.58810
 C735 C 0.63214 0.75308 0.61663
 C736 C 0.65235 0.75180 0.63993
 C737 C 0.06200 0.74097 0.91074
 C738 C 0.08810 0.74058 0.89431
 C739 C 0.11758 0.74127 0.87346
 C740 C 0.14151 0.74251 0.85406
 C741 C 0.55984 0.23899 0.41025
 C742 C 0.58582 0.23829 0.39367
 C743 C 0.61521 0.23866 0.37274
 C744 C 0.63911 0.23969 0.35331
 C745 C 0.93740 0.74756 0.09402
 C746 C 0.91136 0.74785 0.11066
 C747 C 0.88181 0.74897 0.13152
 C748 C 0.85767 0.75031 0.15073
 C749 C 0.43603 0.24700 0.59587
 C750 C 0.41015 0.24764 0.61270
 C751 C 0.38070 0.24911 0.63366
 C752 C 0.35660 0.25071 0.65289
 C753 C 0.90553 0.25490 0.93960
 C754 C 0.88981 0.25513 0.91298
 C755 C 0.87011 0.25440 0.88260
 C756 C 0.85162 0.25320 0.85787
 C757 C 0.40613 0.75655 0.43885
 C758 C 0.39019 0.75677 0.41239
 C759 C 0.37030 0.75604 0.38217
 C760 C 0.35169 0.75484 0.35755
 C761 C 0.09319 0.06358 0.25385
 C762 C 0.10978 0.08968 0.25347
 C763 C 0.13070 0.11923 0.25216
 C764 C 0.15003 0.14331 0.25057
 C765 C 0.59656 0.56311 0.75399
 C766 C 0.61350 0.58894 0.75354
 C767 C 0.63462 0.61827 0.75215
 C768 C 0.65402 0.64225 0.75051
 C769 C 0.93981 0.09311 0.74453
 C770 C 0.91318 0.10882 0.74428
 C771 C 0.88284 0.12859 0.74494
 C772 C 0.85814 0.14714 0.74606
 C773 C 0.43901 0.59492 0.24298
 C774 C 0.41253 0.61082 0.24296
 C775 C 0.38227 0.63060 0.24391
 C776 C 0.35761 0.64912 0.24528
 C777 C 0.06391 0.91094 0.74445
 C778 C 0.08949 0.89361 0.74445
 C779 C 0.11816 0.87156 0.74537
 C780 C 0.14152 0.85138 0.74665
 C781 C 0.56205 0.40841 0.24325
 C782 C 0.58732 0.39070 0.24333
 C783 C 0.61577 0.36845 0.24435
 C784 C 0.63902 0.34821 0.24571
 C785 C 0.91176 0.93874 0.25999
 C786 C 0.89548 0.91250 0.26058
 C787 C 0.87469 0.88293 0.26006
 C788 C 0.85527 0.85896 0.25887
 C789 C 0.41078 0.43948 0.76178
 C790 C 0.39425 0.41345 0.76240
 C791 C 0.37340 0.38398 0.76189
 C792 C 0.35400 0.36003 0.76068
 C793 C 0.08885 0.24793 0.93943
 C794 C 0.10535 0.24851 0.91344
 C795 C 0.12618 0.24993 0.88406
 C796 C 0.14562 0.25138 0.86022
 C797 C 0.59032 0.74702 0.43790
 C798 C 0.60669 0.74740 0.41181
 C799 C 0.62746 0.74862 0.38235
 C800 C 0.64687 0.74995 0.35846
 C801 C 0.93905 0.75286 0.90940
 C802 C 0.91360 0.75346 0.89195
 C803 C 0.88491 0.75327 0.86999
 C804 C 0.86147 0.75265 0.84993
 C805 C 0.43543 0.25273 0.40929
 C806 C 0.40996 0.25365 0.39187
 C807 C 0.38125 0.25381 0.36989
 C808 C 0.35779 0.25346 0.34983
 C809 C 0.06122 0.75585 0.09405
 C810 C 0.08790 0.75597 0.10963
 C811 C 0.11837 0.75528 0.12908
 C812 C 0.14315 0.75436 0.14748
 C813 C 0.56160 0.25386 0.59370
 C814 C 0.58834 0.25377 0.60918
 C815 C 0.61884 0.25294 0.62864
 C816 C 0.64360 0.25196 0.64709
 C817 C 0.90327 0.24290 0.06297
 C818 C 0.88666 0.24187 0.08895
 C819 C 0.86592 0.24152 0.11852
 C820 C 0.84673 0.24170 0.14266
 C821 C 0.40604 0.74509 0.56395
 C822 C 0.38953 0.74431 0.59000
 C823 C 0.36880 0.74421 0.61960
 C824 C 0.34958 0.74454 0.64373
 C825 C 0.24658 0.09225 0.93916
 C826 C 0.24593 0.10958 0.91364
 C827 C 0.24605 0.13141 0.88488
 C828 C 0.24659 0.15138 0.86138
 C829 C 0.74807 0.59022 0.43643
 C830 C 0.74740 0.60766 0.41099
 C831 C 0.74747 0.62961 0.38232
 C832 C 0.74796 0.64969 0.35892
 C833 C 0.75001 0.05885 0.08942
 C834 C 0.74941 0.08504 0.10568
 C835 C 0.74806 0.11467 0.12623
 C836 C 0.74675 0.13873 0.14545
 C837 C 0.25145 0.56218 0.58998
 C838 C 0.25121 0.58831 0.60633
 C839 C 0.25022 0.61787 0.62699
 C840 C 0.24916 0.64188 0.64628
 C841 C 0.75592 0.93525 0.90565
 C842 C 0.75699 0.90923 0.88907
 C843 C 0.75744 0.87965 0.86829
 C844 C 0.75740 0.85553 0.84904
 C845 C 0.25371 0.43673 0.40534
 C846 C 0.25436 0.41063 0.38886
 C847 C 0.25438 0.38097 0.36821
 C848 C 0.25404 0.35679 0.34904
 C849 C 0.24469 0.90781 0.06169
 C850 C 0.24451 0.89206 0.08824
 C851 C 0.24518 0.87236 0.11852
 C852 C 0.24617 0.85379 0.14314
 C853 C 0.74476 0.40503 0.56100
 C854 C 0.74463 0.38939 0.58762
 C855 C 0.74535 0.36983 0.61800
 C856 C 0.74638 0.35137 0.64271
 C857 C 0.06329 0.09602 0.75633
 C858 C 0.08926 0.11268 0.75731
 C859 C 0.11886 0.13342 0.75763
 C860 C 0.14306 0.15259 0.75745
 C861 C 0.56427 0.59471 0.25412
 C862 C 0.59037 0.61123 0.25500
 C863 C 0.62002 0.63199 0.25528
 C864 C 0.64421 0.65122 0.25513
 C865 C 0.09438 0.93985 0.24545
 C866 C 0.11019 0.91336 0.24528
 C867 C 0.12987 0.88308 0.24588
 C868 C 0.14842 0.85845 0.24673
 C869 C 0.59423 0.43776 0.74548
 C870 C 0.60989 0.41114 0.74518
 C871 C 0.62962 0.38084 0.74565
 C872 C 0.64827 0.35624 0.74641
 C873 C 0.90764 0.06145 0.24667
 C874 C 0.89001 0.08673 0.24575
 C875 C 0.86796 0.11530 0.24561
 C876 C 0.84788 0.13869 0.24600
 C877 C 0.40991 0.56391 0.74805
 C878 C 0.39253 0.58940 0.74711
 C879 C 0.37059 0.61812 0.74690
 C880 C 0.35055 0.64159 0.74721
 C881 C 0.94070 0.90977 0.75278
 C882 C 0.91474 0.89315 0.75247
 C883 C 0.88537 0.87226 0.75129
 C884 C 0.86149 0.85284 0.74996
 C885 C 0.43724 0.41078 0.25187
 C886 C 0.41109 0.39440 0.25173
 C887 C 0.38158 0.37361 0.25075
 C888 C 0.35764 0.35420 0.24959
   
