data_POSCAR
  _audit_creation_date              2014-09-24
  _audit_creation_method            'ToBaCCo'
  _symmetry_space_group_name_H-M    'P1'
  _symmetry_Int_Tables_number       1
  _symmetry_cell_setting            triclinic
  loop_
  _symmetry_equiv_pos_as_xyz
 x,y,z
_cell_length_a 68.6435
_cell_length_b 68.5440
_cell_length_c 27.7945
_cell_angle_alpha 90.072100
_cell_angle_beta 89.917500
_cell_angle_gamma 119.987700
loop_
  _atom_site_label
  _atom_site_type_symbol
  _atom_site_fract_x
  _atom_site_fract_y
  _atom_site_fract_z
C1 C 0.19666 0.49894 0.49614
 C2 C 0.20558 0.49614 0.45274
 C3 C 0.22622 0.49641 0.45456
 C4 C 0.23857 0.50087 0.49768
 C5 C 0.22937 0.50445 0.54003
 C6 C 0.20786 0.50237 0.54042
 C7 C 0.26060 0.50100 0.49867
 C8 C 0.26885 0.49688 0.54184
 C9 C 0.28933 0.49699 0.54295
 C10 C 0.30112 0.49987 0.50001
 C11 C 0.29310 0.50324 0.45637
 C12 C 0.27341 0.50472 0.45622
 H13 H 0.18166 0.50032 0.49504
 H14 H 0.23203 0.49200 0.42251
 H15 H 0.23857 0.50792 0.57323
 H16 H 0.25934 0.49302 0.57489
 H17 H 0.31694 0.49993 0.50062
 H18 H 0.26811 0.50839 0.42253
 C19 C 0.50429 -0.29995 0.49991
 C20 C 0.49946 -0.29293 0.45613
 C21 C 0.49578 -0.27445 0.45717
 C22 C 0.49882 -0.26193 0.49966
 C23 C 0.50458 -0.26904 0.54225
 C24 C 0.50651 -0.28853 0.54349
 C25 C 0.49626 -0.24135 0.49964
 C26 C 0.49127 -0.23364 0.54257
 C27 C 0.48970 -0.21400 0.54332
 C28 C 0.49149 -0.20278 0.50003
 C29 C 0.49561 -0.21045 0.45657
 C30 C 0.49880 -0.22914 0.45689
 H31 H 0.50421 -0.31574 0.50066
 H32 H 0.49129 -0.26933 0.42438
 H33 H 0.50850 -0.25891 0.57438
 H34 H 0.48831 -0.24287 0.57582
 H35 H 0.49038 -0.18756 0.50026
 H36 H 0.50313 -0.23402 0.42338
 C37 C 1.30205 0.80244 0.50514
 C38 C 1.29509 0.79095 0.46083
 C39 C 1.27529 0.76965 0.46038
 C40 C 1.26191 0.76052 0.50197
 C41 C 1.26909 0.77304 0.54501
 C42 C 1.28938 0.79353 0.54718
 C43 C 1.24081 0.73787 0.50069
 C44 C 1.23232 0.72486 0.54298
 C45 C 1.21238 0.70369 0.54277
 C46 C 1.20192 0.69496 0.49813
 C47 C 1.21035 0.70717 0.45542
 C48 C 1.22918 0.72887 0.45718
 H49 H 1.31710 0.81876 0.50735
 H50 H 1.27099 0.75965 0.42799
 H51 H 1.25896 0.76718 0.57726
 H52 H 1.24181 0.73071 0.57595
 H53 H 1.18631 0.67909 0.49614
 H54 H 1.23478 0.73842 0.42417
 C55 C 0.80077 0.49889 0.50257
 C56 C 0.78877 0.49430 0.45938
 C57 C 0.76781 0.49323 0.45920
 C58 C 0.75909 0.49769 0.50127
 C59 C 0.77190 0.50284 0.54396
 C60 C 0.79235 0.50286 0.54512
 C61 C 0.73670 0.49668 0.50082
 C62 C 0.72399 0.49242 0.54351
 C63 C 0.70301 0.49157 0.54404
 C64 C 0.69420 0.49358 0.49974
 C65 C 0.70612 0.49713 0.45664
 C66 C 0.72760 0.49951 0.45767
 H67 H 0.81673 0.49926 0.50312
 H68 H 0.75826 0.48838 0.42615
 H69 H 0.76633 0.50714 0.57662
 H70 H 0.72989 0.48862 0.57620
 H71 H 0.67850 0.49366 0.49834
 H72 H 0.73692 0.50325 0.42436
 C73 C 0.49544 0.29971 0.49925
 C74 C 0.49345 0.28817 0.45632
 C75 C 0.49535 0.26877 0.45738
 C76 C 0.50097 0.26165 0.50015
 C77 C 0.50366 0.27412 0.54268
 C78 C 0.49996 0.29265 0.54338
 C79 C 0.50410 0.24139 0.50004
 C80 C 0.50166 0.22902 0.54258
 C81 C 0.50569 0.21070 0.54311
 C82 C 0.51026 0.20371 0.49891
 C83 C 0.51197 0.21511 0.45602
 C84 C 0.50970 0.23429 0.45713
 H85 H 0.49479 0.31513 0.49734
 H86 H 0.49223 0.25932 0.42438
 H87 H 0.50797 0.26899 0.57565
 H88 H 0.49731 0.23407 0.57567
 H89 H 0.51117 0.18842 0.49693
 H90 H 0.51257 0.24361 0.42406
 C91 C 0.69434 0.20320 0.50207
 C92 C 0.70340 0.21382 0.45810
 C93 C 0.72452 0.23351 0.45752
 C94 C 0.73736 0.24204 0.50002
 C95 C 0.72806 0.23043 0.54360
 C96 C 0.70630 0.21158 0.54504
 C97 C 0.76010 0.26305 0.49885
 C98 C 0.76929 0.27642 0.54049
 C99 C 0.79051 0.29632 0.53985
 C100 C 0.80198 0.30322 0.49553
 C101 C 0.79305 0.29054 0.45354
 C102 C 0.77257 0.27026 0.45573
 H103 H 0.67807 0.18793 0.50282
 H104 H 0.73049 0.24223 0.42365
 H105 H 0.73741 0.23600 0.57683
 H106 H 0.75939 0.27209 0.57300
 H107 H 0.81828 0.31829 0.49324
 H108 H 0.76669 0.26020 0.42340
 O109 O 0.96946 0.45112 0.08642
 O110 O 0.94456 0.45636 0.04115
 C111 C 0.94919 0.44603 0.07445
 O112 O 1.03239 0.55201 0.08452
 O113 O 1.05744 0.54586 0.04166
 C114 C 1.05272 0.55700 0.07292
 O115 O 0.96949 0.51827 0.08995
 O116 O 0.94470 0.48890 0.04260
 C117 C 0.94924 0.50313 0.07749
 O118 O 1.03225 0.48076 0.08254
 O119 O 1.05734 0.51216 0.04056
 C120 C 1.05259 0.49610 0.07115
 Zr121 Zr 1.00088 0.47616 0.05949
 O122 O 1.00317 0.47680 0.13551
 O123 O 0.99829 0.44406 0.05773
 Zr124 Zr 1.00092 0.52554 0.06077
 O125 O 1.00295 0.52821 0.13664
 O126 O 0.99976 0.55567 0.05477
 O127 O 0.98088 0.49078 0.06948
 O128 O 1.02035 0.51052 0.06947
 O129 O 1.03285 0.48201 -0.08511
 O130 O 1.05751 0.51267 -0.04062
 C131 C 1.05308 0.49727 -0.07276
 O132 O 0.97026 0.51951 -0.08890
 O133 O 0.94496 0.48955 -0.04348
 C134 C 0.94988 0.50442 -0.07720
 O135 O 1.03295 0.55254 -0.08375
 O136 O 1.05757 0.54629 -0.03980
 C137 C 1.05317 0.55734 -0.07173
 O138 O 0.96990 0.45232 -0.09027
 O139 O 0.94491 0.45709 -0.04405
 C140 C 0.94960 0.44727 -0.07839
 Zr141 Zr 1.00126 0.47685 -0.06143
 O142 O 1.00370 0.47790 -0.13743
 O143 O 0.99863 0.44472 -0.06052
 Zr144 Zr 1.00137 0.52636 -0.05942
 O145 O 1.00212 0.53035 -0.13492
 O146 O 1.00089 0.55664 -0.04886
 Zr147 Zr 0.96733 0.48430 -0.00065
 Zr148 Zr 1.03468 0.51791 0.00027
 O149 O 1.02077 0.51134 -0.06928
 O150 O 0.98142 0.49172 -0.07036
 O151 O 1.02125 0.48273 -0.00084
 O152 O 0.98114 0.51945 0.00049
 O153 O 0.98132 0.46310 -0.00135
 O154 O 1.02147 0.53983 0.00103
 H155 H 1.03029 0.51537 0.09806
 H156 H 0.97072 0.52552 0.00080
 H157 H 1.03084 0.51641 -0.09768
 H158 H 0.97106 0.44657 -0.00191
 H159 H 0.99961 0.56067 0.08816
 H160 H 1.00031 0.56219 -0.08142
 H161 H 1.00503 0.51880 -0.14893
 H162 H 0.99198 0.48095 -0.14989
 H163 H 1.01209 0.44629 -0.04399
 H164 H 1.01115 0.44548 0.03877
 H165 H 0.99056 0.47832 0.14843
 H166 H 0.99400 0.51278 0.14953
 O167 O 0.45152 0.48399 0.08755
 O168 O 0.45640 0.51305 0.03886
 C169 C 0.44651 0.49907 0.07402
 O170 O 0.55134 0.52063 0.08378
 O171 O 0.54507 0.48897 0.04266
 C172 C 0.55626 0.50512 0.07321
 O173 O 0.51799 0.55045 0.08431
 O174 O 0.48836 0.54520 0.03707
 C175 C 0.50285 0.55548 0.07116
 O176 O 0.47981 0.44965 0.08522
 O177 O 0.51091 0.45503 0.04338
 C178 C 0.49495 0.44428 0.07455
 Zr179 Zr 0.47533 0.47608 0.05930
 O180 O 0.47284 0.47318 0.13503
 O181 O 0.44403 0.44615 0.05157
 Zr182 Zr 0.52484 0.52527 0.05906
 O183 O 0.52649 0.52586 0.13516
 O184 O 0.55514 0.55641 0.05360
 O185 O 0.49024 0.51087 0.06760
 O186 O 0.50967 0.49086 0.06947
 O187 O 0.48064 0.44805 -0.08249
 O188 O 0.51143 0.45438 -0.03810
 C189 C 0.49589 0.44311 -0.06972
 O190 O 0.51960 0.54907 -0.09132
 O191 O 0.48944 0.54466 -0.04717
 C192 C 0.50456 0.55455 -0.08038
 O193 O 0.55208 0.51877 -0.08313
 O194 O 0.54525 0.48786 -0.03848
 C195 C 0.55663 0.50326 -0.07034
 O196 O 0.45139 0.48190 -0.09021
 O197 O 0.45651 0.51244 -0.04612
 C198 C 0.44637 0.49731 -0.07927
 Zr199 Zr 0.47592 0.47510 -0.06137
 O200 O 0.47713 0.47291 -0.13718
 O201 O 0.44391 0.44556 -0.06000
 Zr202 Zr 0.52548 0.52409 -0.06179
 O203 O 0.52735 0.52246 -0.13760
 O204 O 0.55542 0.55579 -0.06100
 Zr205 Zr 0.48386 0.51724 -0.00321
 Zr206 Zr 0.51696 0.48306 0.00101
 O207 O 0.51034 0.48960 -0.06929
 O208 O 0.49091 0.50973 -0.07245
 O209 O 0.48181 0.46155 0.00028
 O210 O 0.51901 0.53824 -0.00260
 O211 O 0.46230 0.48213 -0.00200
 O212 O 0.53887 0.51816 -0.00011
 H213 H 0.51452 0.48606 0.09852
 H214 H 0.52542 0.55479 -0.00329
 H215 H 0.51543 0.48426 -0.09715
 H216 H 0.44584 0.47616 -0.00214
 H217 H 0.55974 0.56175 0.08704
 H218 H 0.56556 0.55494 -0.03687
 H219 H 0.51295 0.52003 -0.15090
 H220 H 0.47948 0.48728 -0.15066
 H221 H 0.44485 0.43490 -0.03745
 H222 H 0.43825 0.44123 0.08463
 H223 H 0.48566 0.48705 0.14810
 H224 H 0.51207 0.52386 0.14743
 O225 O 0.48313 0.03183 0.08951
 O226 O 0.51261 0.05634 0.04193
 C227 C 0.49841 0.05204 0.07673
 O228 O 0.51957 -0.03227 0.08243
 O229 O 0.48800 -0.05707 0.04065
 C230 C 0.50400 -0.05253 0.07120
 O231 O 0.54902 0.03056 0.08815
 O232 O 0.54422 0.05551 0.04204
 C233 C 0.55409 0.05088 0.07623
 O234 O 0.44903 -0.03158 0.08644
 O235 O 0.45452 -0.05670 0.04228
 C236 C 0.44387 -0.05195 0.07458
 Zr237 Zr 0.47546 -0.00011 0.06187
 O238 O 0.47421 -0.00229 0.13790
 O239 O 0.44616 0.00280 0.06151
 Zr240 Zr 0.52444 -0.00079 0.05929
 O241 O 0.52563 -0.00298 0.13505
 O242 O 0.55554 0.00017 0.05157
 O243 O 0.51016 0.01953 0.06992
 O244 O 0.49014 -0.01992 0.06976
 O245 O 0.44750 -0.03193 -0.08138
 O246 O 0.45366 -0.05704 -0.03907
 C247 C 0.44237 -0.05228 -0.06967
 O248 O 0.54853 0.03049 -0.08906
 O249 O 0.54400 0.05570 -0.04281
 C250 C 0.55391 0.05088 -0.07679
 O251 O 0.51811 -0.03272 -0.08498
 O252 O 0.48721 -0.05725 -0.04084
 C253 C 0.50259 -0.05293 -0.07295
 O254 O 0.48115 0.03083 -0.08744
 O255 O 0.51148 0.05570 -0.04259
 C256 C 0.49654 0.05111 -0.07585
 Zr257 Zr 0.47447 -0.00049 -0.05910
 O258 O 0.47186 -0.00322 -0.13496
 O259 O 0.44526 0.00253 -0.05592
 Zr260 Zr 0.52350 -0.00097 -0.06151
 O261 O 0.52195 -0.00346 -0.13750
 O262 O 0.55515 0.00073 -0.06176
 Zr263 Zr 0.51653 0.03304 -0.00025
 Zr264 Zr 0.48234 -0.03425 0.00048
 O265 O 0.48900 -0.02027 -0.06909
 O266 O 0.50908 0.01929 -0.07017
 O267 O 0.46088 -0.02050 0.00179
 O268 O 0.53755 0.01889 -0.00128
 O269 O 0.48145 0.01947 0.00129
 O270 O 0.51740 -0.02119 -0.00107
 H271 H 0.48541 -0.02982 0.09844
 H272 H 0.55407 0.02911 -0.00147
 H273 H 0.48363 -0.03038 -0.09745
 H274 H 0.47543 0.02994 0.00164
 H275 H 0.56094 0.00030 0.08467
 H276 H 0.55416 -0.01087 -0.03911
 H277 H 0.52041 0.00922 -0.14988
 H278 H 0.48670 0.00781 -0.14833
 H279 H 0.43367 -0.01055 -0.03776
 H280 H 0.43417 -0.01067 0.04507
 H281 H 0.48884 0.00972 0.15025
 H282 H 0.51976 0.00638 0.14868
 C283 C 1.19503 0.50082 0.32188
 C284 C 1.17183 0.49253 0.32213
 C285 C 1.15965 0.48399 0.36463
 C286 C 1.17061 0.48446 0.40720
 C287 C 1.19420 0.49366 0.40843
 C288 C 1.20612 0.50124 0.36448
 C289 C 1.16033 0.49364 0.27985
 C290 C 1.14956 0.49449 0.24652
 C291 C 1.13567 0.49520 0.21001
 C292 C 1.12269 0.49540 0.18109
 C293 C 1.10590 0.49497 0.14946
 C294 C 1.08407 0.47649 0.15097
 C295 C 1.06692 0.47666 0.12443
 C296 C 1.07132 0.49536 0.09586
 C297 C 1.09349 0.51363 0.09332
 C298 C 1.11067 0.51345 0.12017
 H299 H 1.20465 0.50755 0.28911
 H300 H 1.14161 0.47723 0.36510
 H301 H 1.16031 0.47721 0.43888
 H302 H 1.22423 0.50885 0.36311
 H303 H 1.08015 0.46215 0.17370
 H304 H 1.05011 0.46227 0.12710
 H305 H 1.09744 0.52831 0.07179
 H306 H 1.12749 0.52793 0.11901
 C307 C 0.50983 0.67290 0.36525
 C308 C 0.49615 0.67196 0.32723
 C309 C 0.48374 0.68300 0.33111
 C310 C 0.48487 0.69481 0.37321
 C311 C 0.49834 0.69559 0.41257
 C312 C 0.51097 0.68454 0.40727
 C313 C 0.49480 0.65912 0.28508
 C314 C 0.49448 0.64774 0.25167
 C315 C 0.49502 0.63379 0.21495
 C316 C 0.49624 0.62141 0.18579
 C317 C 0.49858 0.60618 0.15379
 C318 C 0.48223 0.59392 0.11897
 C319 C 0.48393 0.57786 0.09087
 C320 C 0.50191 0.57377 0.09762
 C321 C 0.51850 0.58661 0.13194
 C322 C 0.51681 0.60266 0.15975
 H323 H 0.51971 0.66460 0.36246
 H324 H 0.47295 0.68224 0.30189
 H325 H 0.47429 0.70230 0.37526
 H326 H 0.52249 0.68540 0.43484
 H327 H 0.46797 0.59642 0.11423
 H328 H 0.47088 0.56827 0.06477
 H329 H 0.53261 0.58399 0.13803
 H330 H 0.52951 0.61200 0.18672
 C331 C 0.34247 -0.17235 0.37769
 C332 C 0.33135 -0.17687 0.33357
 C333 C 0.30854 -0.19307 0.33089
 C334 C 0.29672 -0.20427 0.37247
 C335 C 0.30748 -0.19924 0.41791
 C336 C 0.33077 -0.18336 0.41933
 C337 C 0.34322 -0.16378 0.29201
 C338 C 0.35374 -0.15183 0.25880
 C339 C 0.36675 -0.13680 0.22188
 C340 C 0.37845 -0.12316 0.19211
 C341 C 0.39313 -0.10598 0.15882
 C342 C 0.40554 -0.11040 0.12495
 C343 C 0.42151 -0.09299 0.09616
 C344 C 0.42536 -0.07088 0.10118
 C345 C 0.41225 -0.06681 0.13426
 C346 C 0.39628 -0.08424 0.16286
 H347 H 0.36022 -0.15999 0.38010
 H348 H 0.29970 -0.19659 0.29689
 H349 H 0.27885 -0.21577 0.36896
 H350 H 0.34031 -0.17956 0.45234
 H351 H 0.40332 -0.12714 0.12167
 H352 H 0.43132 -0.09671 0.07115
 H353 H 0.41469 -0.05004 0.13896
 H354 H 0.38683 -0.08062 0.18910
 C355 C 0.82077 0.47741 0.37363
 C356 C 0.82126 0.48907 0.33193
 C357 C 0.80976 0.50113 0.33081
 C358 C 0.79838 0.50209 0.37176
 C359 C 0.79853 0.49112 0.41439
 C360 C 0.80947 0.47841 0.41458
 C361 C 0.83508 0.49003 0.29197
 C362 C 0.84756 0.49126 0.26009
 C363 C 0.86314 0.49314 0.22462
 C364 C 0.87719 0.49507 0.19595
 C365 C 0.89479 0.49777 0.16370
 C366 C 0.91657 0.51597 0.16991
 C367 C 0.93417 0.51798 0.14111
 C368 C 0.93024 0.50178 0.10559
 C369 C 0.90817 0.48378 0.09884
 C370 C 0.89057 0.48177 0.12785
 H371 H 0.82964 0.46806 0.37492
 H372 H 0.81017 0.51035 0.29883
 H373 H 0.79028 0.51219 0.37075
 H374 H 0.80964 0.46957 0.44670
 H375 H 0.92004 0.52841 0.19765
 H376 H 0.95090 0.53208 0.14721
 H377 H 0.90456 0.47099 0.07190
 H378 H 0.87379 0.46755 0.12290
 C379 C 0.50344 0.31005 0.32815
 C380 C 0.48965 0.31968 0.32601
 C381 C 0.47582 0.31746 0.36511
 C382 C 0.47631 0.30636 0.40681
 C383 C 0.49071 0.29734 0.41002
 C384 C 0.50392 0.29888 0.36985
 C385 C 0.49079 0.33325 0.28543
 C386 C 0.49181 0.34542 0.25306
 C387 C 0.49283 0.36047 0.21717
 C388 C 0.49335 0.37387 0.18839
 C389 C 0.49329 0.39037 0.15649
 C390 C 0.47515 0.39425 0.15790
 C391 C 0.47552 0.41143 0.13036
 C392 C 0.49410 0.42507 0.10083
 C393 C 0.51208 0.42072 0.09864
 C394 C 0.51169 0.40350 0.12649
 H395 H 0.51431 0.31178 0.29822
 H396 H 0.46510 0.32487 0.36388
 H397 H 0.46579 0.30523 0.43697
 H398 H 0.51536 0.29233 0.37148
 H399 H 0.46087 0.38428 0.18115
 H400 H 0.46136 0.41423 0.13286
 H401 H 0.52667 0.43097 0.07645
 H402 H 0.52591 0.40074 0.12537
 C403 C 0.65554 0.18276 0.36978
 C404 C 0.66677 0.17999 0.33063
 C405 C 0.69020 0.18973 0.33174
 C406 C 0.70228 0.20160 0.37250
 C407 C 0.69101 0.20372 0.41274
 C408 C 0.66756 0.19456 0.41055
 C409 C 0.65400 0.16567 0.29119
 C410 C 0.64288 0.15287 0.25961
 C411 C 0.62939 0.13704 0.22432
 C412 C 0.61749 0.12287 0.19562
 C413 C 0.60283 0.10525 0.16313
 C414 C 0.59167 0.10961 0.12625
 C415 C 0.57628 0.09204 0.09694
 C416 C 0.57177 0.06984 0.10437
 C417 C 0.58348 0.06576 0.14088
 C418 C 0.59887 0.08334 0.17001
 H419 H 0.63741 0.17526 0.36935
 H420 H 0.69905 0.18757 0.30176
 H421 H 0.72028 0.20826 0.37337
 H422 H 0.65847 0.19615 0.44076
 H423 H 0.59455 0.12649 0.12072
 H424 H 0.56757 0.09579 0.06923
 H425 H 0.58046 0.04892 0.14762
 H426 H 0.60736 0.07976 0.19854
 C427 C 0.51757 0.17714 -0.36747
 C428 C 0.50423 0.17614 -0.32861
 C429 C 0.49161 0.18701 -0.33142
 C430 C 0.49217 0.19865 -0.37329
 C431 C 0.50525 0.19945 -0.41350
 C432 C 0.51815 0.18863 -0.40926
 C433 C 0.50292 0.16298 -0.28716
 C434 C 0.50209 0.15108 -0.25439
 C435 C 0.50118 0.13615 -0.21840
 C436 C 0.50025 0.12252 -0.18976
 C437 C 0.49873 0.10518 -0.15821
 C438 C 0.51563 0.10975 -0.12447
 C439 C 0.51476 0.09228 -0.09675
 C440 C 0.49702 0.07000 -0.10276
 C441 C 0.47995 0.06574 -0.13618
 C442 C 0.48083 0.08319 -0.16364
 H443 H 0.52753 0.16891 -0.36558
 H444 H 0.48102 0.18613 -0.30162
 H445 H 0.48138 0.20593 -0.37448
 H446 H 0.52939 0.18952 -0.43756
 H447 H 0.52966 0.12671 -0.12023
 H448 H 0.52818 0.09614 -0.07141
 H449 H 0.46601 0.04884 -0.14172
 H450 H 0.46773 0.07943 -0.18984
 C451 C 0.69161 0.49699 -0.32591
 C452 C 0.66838 0.48844 -0.32664
 C453 C 0.65643 0.47961 -0.36928
 C454 C 0.66766 0.47998 -0.41147
 C455 C 0.69129 0.48930 -0.41214
 C456 C 0.70296 0.49729 -0.36804
 C457 C 0.65681 0.48993 -0.28480
 C458 C 0.64647 0.49155 -0.25140
 C459 C 0.63364 0.49380 -0.21438
 C460 C 0.62205 0.49599 -0.18468
 C461 C 0.60748 0.49888 -0.15175
 C462 C 0.59453 0.48210 -0.11821
 C463 C 0.57858 0.48394 -0.09010
 C464 C 0.57530 0.50253 -0.09550
 C465 C 0.58899 0.51965 -0.12813
 C466 C 0.60492 0.51780 -0.15603
 H467 H 0.70107 0.50405 -0.29311
 H468 H 0.63838 0.47274 -0.37016
 H469 H 0.65753 0.47251 -0.44323
 H470 H 0.72108 0.50516 -0.36619
 H471 H 0.59628 0.46731 -0.11480
 H472 H 0.56830 0.47042 -0.06545
 H473 H 0.58697 0.53421 -0.13316
 H474 H 0.61478 0.53084 -0.18203
 C475 C 0.82704 0.34436 -0.37832
 C476 C 0.82283 0.33349 -0.33392
 C477 C 0.80680 0.31062 -0.33054
 C478 C 0.79548 0.29848 -0.37176
 C479 C 0.80028 0.30897 -0.41749
 C480 C 0.81592 0.33234 -0.41955
 C481 C 0.83611 0.34577 -0.29291
 C482 C 0.84830 0.35676 -0.26042
 C483 C 0.86369 0.37034 -0.22459
 C484 C 0.87767 0.38247 -0.19584
 C485 C 0.89525 0.39752 -0.16375
 C486 C 0.91712 0.40144 -0.17035
 C487 C 0.93471 0.41726 -0.14191
 C488 C 0.93067 0.42945 -0.10633
 C489 C 0.90851 0.42504 -0.09923
 C490 C 0.89093 0.40921 -0.12787
 H491 H 0.83924 0.36215 -0.38128
 H492 H 0.80351 0.30199 -0.29629
 H493 H 0.78409 0.28058 -0.36778
 H494 H 0.81946 0.34170 -0.45278
 H495 H 0.92067 0.39256 -0.19816
 H496 H 0.95152 0.42018 -0.14834
 H497 H 0.90480 0.43414 -0.07226
 H498 H 0.87407 0.40641 -0.12262
 C499 C 0.47308 -0.18363 -0.36573
 C500 C 0.48683 -0.18161 -0.32671
 C501 C 0.50025 -0.19166 -0.32886
 C502 C 0.50046 -0.20305 -0.37047
 C503 C 0.48731 -0.20444 -0.41054
 C504 C 0.47327 -0.19499 -0.40735
 C505 C 0.48849 -0.16767 -0.28635
 C506 C 0.49029 -0.15512 -0.25405
 C507 C 0.49278 -0.13950 -0.21804
 C508 C 0.49512 -0.12544 -0.18890
 C509 C 0.49807 -0.10786 -0.15620
 C510 C 0.51655 -0.08618 -0.16172
 C511 C 0.51845 -0.06845 -0.13341
 C512 C 0.50182 -0.07216 -0.09916
 C513 C 0.48368 -0.09420 -0.09271
 C514 C 0.48181 -0.11192 -0.12117
 H515 H 0.46269 -0.17586 -0.36453
 H516 H 0.51109 -0.19006 -0.29900
 H517 H 0.51166 -0.20989 -0.37212
 H518 H 0.46280 -0.19600 -0.43742
 H519 H 0.52921 -0.08284 -0.18882
 H520 H 0.53266 -0.05175 -0.13926
 H521 H 0.47057 -0.09766 -0.06674
 H522 H 0.46740 -0.12863 -0.11669
 C523 C 0.32037 0.48101 -0.36717
 C524 C 0.32188 0.49433 -0.32758
 C525 C 0.31123 0.50721 -0.32895
 C526 C 0.29972 0.50732 -0.37042
 C527 C 0.29891 0.49465 -0.41104
 C528 C 0.30896 0.48114 -0.40859
 C529 C 0.33573 0.49582 -0.28733
 C530 C 0.34817 0.49695 -0.25550
 C531 C 0.36352 0.49794 -0.22049
 C532 C 0.37711 0.49827 -0.19260
 C533 C 0.39371 0.49779 -0.16182
 C534 C 0.40607 0.51519 -0.12897
 C535 C 0.42304 0.51497 -0.10139
 C536 C 0.42788 0.49739 -0.10662
 C537 C 0.41512 0.47989 -0.13933
 C538 C 0.39821 0.48013 -0.16664
 H539 H 0.32856 0.47099 -0.36654
 H540 H 0.31239 0.51766 -0.29860
 H541 H 0.29232 0.51804 -0.37152
 H542 H 0.30838 0.47104 -0.43914
 H543 H 0.40280 0.52902 -0.12515
 H544 H 0.43256 0.52871 -0.07661
 H545 H 0.41828 0.46604 -0.14423
 H546 H 0.38883 0.46664 -0.19208
 C547 C 1.17741 0.65665 -0.37183
 C548 C 1.18002 0.66848 -0.32917
 C549 C 1.19453 0.69177 -0.32792
 C550 C 1.20589 0.70331 -0.36959
 C551 C 1.20271 0.69177 -0.41376
 C552 C 1.18861 0.66808 -0.41358
 C553 C 1.16657 0.65674 -0.28790
 C554 C 1.15435 0.64636 -0.25491
 C555 C 1.13905 0.63355 -0.21821
 C556 C 1.12519 0.62205 -0.18861
 C557 C 1.10779 0.60760 -0.15547
 C558 C 1.11189 0.59529 -0.12083
 C559 C 1.09429 0.57954 -0.09213
 C560 C 1.07230 0.57581 -0.09796
 C561 C 1.06854 0.58882 -0.13184
 C562 C 1.08617 0.60458 -0.16036
 H563 H 1.16635 0.63856 -0.37311
 H564 H 1.19653 0.70113 -0.29510
 H565 H 1.21595 0.72146 -0.36742
 H566 H 1.18633 0.65806 -0.44539
 H567 H 1.12855 0.59742 -0.11692
 H568 H 1.09778 0.56979 -0.06651
 H569 H 1.05187 0.58643 -0.13728
 H570 H 1.08278 0.61395 -0.18720
 C571 C 0.80476 0.49451 -0.32613
 C572 C 0.82829 0.50716 -0.32554
 C573 C 0.83989 0.51990 -0.36588
 C574 C 0.82814 0.51933 -0.40732
 C575 C 0.80457 0.50596 -0.40897
 C576 C 0.79295 0.49399 -0.36756
 C577 C 0.84078 0.50589 -0.28530
 C578 C 0.85209 0.50482 -0.25342
 C579 C 0.86642 0.50385 -0.21832
 C580 C 0.87966 0.50351 -0.19038
 C581 C 0.89674 0.50398 -0.15962
 C582 C 0.91893 0.52145 -0.16498
 C583 C 0.93607 0.52166 -0.13773
 C584 C 0.93131 0.50435 -0.10450
 C585 C 0.90886 0.48697 -0.09875
 C586 C 0.89168 0.48677 -0.12630
 H587 H 0.79562 0.48451 -0.29519
 H588 H 0.85810 0.52976 -0.36580
 H589 H 0.83750 0.52894 -0.43847
 H590 H 0.77481 0.48341 -0.36799
 H591 H 0.92305 0.53480 -0.19081
 H592 H 0.95310 0.53535 -0.14310
 H593 H 0.90464 0.47337 -0.07358
 H594 H 0.87455 0.47308 -0.12208
 C595 C 0.51407 0.31583 -0.33061
 C596 C 0.50173 0.32697 -0.32741
 C597 C 0.48874 0.32653 -0.36639
 C598 C 0.48815 0.31522 -0.40858
 C599 C 0.50067 0.30401 -0.41310
 C600 C 0.51352 0.30440 -0.37288
 C601 C 0.50246 0.33935 -0.28491
 C602 C 0.50241 0.35034 -0.25105
 C603 C 0.50165 0.36387 -0.21361
 C604 C 0.50045 0.37598 -0.18369
 C605 C 0.49841 0.39106 -0.15067
 C606 C 0.47939 0.39351 -0.15290
 C607 C 0.47819 0.40986 -0.12512
 C608 C 0.49607 0.42407 -0.09461
 C609 C 0.51479 0.42092 -0.09116
 C610 C 0.51598 0.40457 -0.11922
 H611 H 0.52434 0.31621 -0.30066
 H612 H 0.47893 0.33492 -0.36418
 H613 H 0.47708 0.31469 -0.43684
 H614 H 0.52406 0.29683 -0.37423
 H615 H 0.46573 0.38321 -0.17726
 H616 H 0.46351 0.41175 -0.12855
 H617 H 0.52887 0.43163 -0.06817
 H618 H 0.53086 0.40293 -0.11742
 C619 C 0.69638 0.18387 -0.33208
 C620 C 0.67376 0.17737 -0.32429
 C621 C 0.66227 0.18297 -0.35804
 C622 C 0.67309 0.19452 -0.39990
 C623 C 0.69561 0.20064 -0.40875
 C624 C 0.70731 0.19556 -0.37405
 C625 C 0.66160 0.16363 -0.28369
 C626 C 0.65028 0.15135 -0.25163
 C627 C 0.63592 0.13608 -0.21646
 C628 C 0.62291 0.12226 -0.18851
 C629 C 0.60668 0.10483 -0.15770
 C630 C 0.60220 0.08271 -0.16375
 C631 C 0.58527 0.06526 -0.13692
 C632 C 0.57252 0.06967 -0.10348
 C633 C 0.57743 0.09205 -0.09692
 C634 C 0.59437 0.10951 -0.12402
 H635 H 0.70539 0.17948 -0.30631
 H636 H 0.64476 0.17799 -0.35246
 H637 H 0.66378 0.19852 -0.42567
 H638 H 0.72462 0.19997 -0.38011
 H639 H 0.61153 0.07888 -0.18992
 H640 H 0.58203 0.04828 -0.14283
 H641 H 0.56792 0.09601 -0.07156
 H642 H 0.59759 0.12656 -0.11931
 C643 C 1.19914 0.51579 -0.33262
 C644 C 1.17565 0.50443 -0.33018
 C645 C 1.16300 0.49240 -0.37001
 C646 C 1.17362 0.49178 -0.41227
 C647 C 1.19736 0.50330 -0.41604
 C648 C 1.20993 0.51521 -0.37501
 C649 C 1.16407 0.50507 -0.28753
 C650 C 1.15293 0.50487 -0.25376
 C651 C 1.13841 0.50387 -0.21665
 C652 C 1.12491 0.50246 -0.18708
 C653 C 1.10761 0.50025 -0.15447
 C654 C 1.08598 0.48156 -0.15842
 C655 C 1.06839 0.48024 -0.13067
 C656 C 1.07218 0.49765 -0.09849
 C657 C 1.09418 0.51605 -0.09355
 C658 C 1.11176 0.51736 -0.12154
 H659 H 1.20911 0.52530 -0.30197
 H660 H 1.14478 0.48331 -0.36836
 H661 H 1.16294 0.48141 -0.44125
 H662 H 1.22809 0.52494 -0.37573
 H663 H 1.08255 0.46826 -0.18395
 H664 H 1.05171 0.46582 -0.13530
 H665 H 1.09768 0.52978 -0.06923
 H666 H 1.12842 0.53197 -0.11840
 C667 C 0.52057 0.67868 -0.36961
 C668 C 0.51091 0.68096 -0.32730
 C669 C 0.50157 0.69500 -0.32652
 C670 C 0.50109 0.70603 -0.36852
 C671 C 0.50961 0.70284 -0.41245
 C672 C 0.52002 0.68950 -0.41162
 C673 C 0.50936 0.66751 -0.28619
 C674 C 0.50802 0.65512 -0.25403
 C675 C 0.50665 0.63957 -0.21906
 C676 C 0.50590 0.62565 -0.19150
 C677 C 0.50579 0.60853 -0.16138
 C678 C 0.48842 0.59650 -0.12830
 C679 C 0.48804 0.57904 -0.10135
 C680 C 0.50499 0.57337 -0.10748
 C681 C 0.52244 0.58577 -0.14050
 C682 C 0.52280 0.60316 -0.16718
 H683 H 0.52811 0.66806 -0.37049
 H684 H 0.49395 0.69681 -0.29391
 H685 H 0.49256 0.71568 -0.36689
 H686 H 0.52798 0.68741 -0.44329
 H687 H 0.47507 0.60042 -0.12376
 H688 H 0.47437 0.56983 -0.07626
 H689 H 0.53582 0.58199 -0.14608
 H690 H 0.53624 0.61226 -0.19288
 C691 C 0.31821 -0.15971 -0.36097
 C692 C 0.31907 -0.17165 -0.32099
 C693 C 0.30871 -0.19516 -0.32297
 C694 C 0.29815 -0.20661 -0.36531
 C695 C 0.29799 -0.19463 -0.40625
 C696 C 0.30773 -0.17110 -0.40331
 C697 C 0.33206 -0.15951 -0.27957
 C698 C 0.34382 -0.14856 -0.24654
 C699 C 0.35848 -0.13471 -0.20999
 C700 C 0.37163 -0.12190 -0.18078
 C701 C 0.38793 -0.10532 -0.14863
 C702 C 0.40179 -0.11018 -0.12014
 C703 C 0.41910 -0.09312 -0.09289
 C704 C 0.42282 -0.07099 -0.09428
 C705 C 0.40834 -0.06651 -0.12198
 C706 C 0.39106 -0.08354 -0.14887
 H707 H 0.32619 -0.14151 -0.35985
 H708 H 0.30938 -0.20456 -0.29233
 H709 H 0.29100 -0.22471 -0.36674
 H710 H 0.30763 -0.16148 -0.43409
 H711 H 0.39960 -0.12696 -0.11996
 H712 H 0.42999 -0.09710 -0.07206
 H713 H 0.41062 -0.04971 -0.12374
 H714 H 0.38052 -0.07956 -0.17097
 C715 C 0.48078 -0.18113 0.36006
 C716 C 0.49777 -0.17582 0.32612
 C717 C 0.51387 -0.18232 0.33413
 C718 C 0.51309 -0.19389 0.37625
 C719 C 0.49627 -0.19892 0.41092
 C720 C 0.48001 -0.19260 0.40210
 C721 C 0.49916 -0.16265 0.28460
 C722 C 0.50006 -0.15095 0.25136
 C723 C 0.50099 -0.13639 0.21444
 C724 C 0.50187 -0.12314 0.18480
 C725 C 0.50320 -0.10629 0.15198
 C726 C 0.52207 -0.08468 0.15315
 C727 C 0.52260 -0.06741 0.12561
 C728 C 0.50421 -0.07147 0.09639
 C729 C 0.48559 -0.09346 0.09409
 C730 C 0.48507 -0.11074 0.12191
 H731 H 0.46827 -0.17614 0.35432
 H732 H 0.52719 -0.17816 0.30823
 H733 H 0.52593 -0.19840 0.38227
 H734 H 0.46667 -0.19655 0.42782
 H735 H 0.53614 -0.08102 0.17646
 H736 H 0.53723 -0.05074 0.12813
 H737 H 0.47114 -0.09715 0.07209
 H738 H 0.47030 -0.12739 0.12097
 C739 C 0.32468 0.49029 0.36166
 C740 C 0.32931 0.50691 0.32722
 C741 C 0.32153 0.52211 0.33415
 C742 C 0.30939 0.52083 0.37581
 C743 C 0.30510 0.50442 0.41102
 C744 C 0.31268 0.48904 0.40317
 C745 C 0.34286 0.50855 0.28614
 C746 C 0.35470 0.50901 0.25357
 C747 C 0.36904 0.50853 0.21773
 C748 C 0.38161 0.50726 0.18920
 C749 C 0.39690 0.50473 0.15777
 C750 C 0.40863 0.52046 0.12147
 C751 C 0.42441 0.51836 0.09321
 C752 C 0.42874 0.50059 0.10127
 C753 C 0.41651 0.48468 0.13728
 C754 C 0.40075 0.48676 0.16523
 H755 H 0.33058 0.47842 0.35667
 H756 H 0.32510 0.53511 0.30778
 H757 H 0.30387 0.53297 0.38108
 H758 H 0.30933 0.47600 0.42927
 H759 H 0.40585 0.53449 0.11548
 H760 H 0.43350 0.53087 0.06576
 H761 H 0.41931 0.47075 0.14441
 H762 H 0.39181 0.47452 0.19329
 C763 C 1.18191 0.66395 0.35679
 C764 C 1.17683 0.67593 0.32326
 C765 C 1.18338 0.69853 0.33202
 C766 C 1.19470 0.70898 0.37462
 C767 C 1.19940 0.69684 0.40897
 C768 C 1.19312 0.67431 0.39928
 C769 C 1.16361 0.66434 0.28169
 C770 C 1.15175 0.65348 0.24870
 C771 C 1.13695 0.63961 0.21240
 C772 C 1.12348 0.62690 0.18353
 C773 C 1.10642 0.61089 0.15180
 C774 C 1.11105 0.59760 0.12078
 C775 C 1.09372 0.58042 0.09389
 C776 C 1.07152 0.57626 0.09806
 C777 C 1.06722 0.59014 0.12841
 C778 C 1.08454 0.60730 0.15504
 H779 H 1.17686 0.64645 0.35047
 H780 H 1.17936 0.70790 0.30643
 H781 H 1.19917 0.72629 0.38135
 H782 H 1.19680 0.66465 0.42479
 H783 H 1.12792 0.60014 0.11828
 H784 H 1.09759 0.57002 0.07097
 H785 H 1.05037 0.58750 0.13238
 H786 H 1.08074 0.61739 0.17914
 C787 C 0.50157 0.19232 0.32869
 C788 C 0.51571 0.18309 0.32647
 C789 C 0.53004 0.18607 0.36500
 C790 C 0.52963 0.19746 0.40636
 C791 C 0.51481 0.20598 0.40975
 C792 C 0.50117 0.20378 0.37004
 C793 C 0.51410 0.16879 0.28690
 C794 C 0.51233 0.15588 0.25547
 C795 C 0.50988 0.13981 0.22065
 C796 C 0.50753 0.12537 0.19258
 C797 C 0.50448 0.10738 0.16106
 C798 C 0.48654 0.08559 0.16893
 C799 C 0.48427 0.06767 0.14079
 C800 C 0.49996 0.07130 0.10428
 C801 C 0.51767 0.09338 0.09591
 C802 C 0.51994 0.11129 0.12425
 H803 H 0.49027 0.18995 0.29923
 H804 H 0.54100 0.17894 0.36372
 H805 H 0.54046 0.19908 0.43623
 H806 H 0.48941 0.20993 0.37188
 H807 H 0.47452 0.08236 0.19744
 H808 H 0.47042 0.05093 0.14820
 H809 H 0.53005 0.09679 0.06814
 H810 H 0.53395 0.12808 0.11800
 C811 C 0.69736 0.51570 0.33353
 C812 C 0.67464 0.50002 0.32538
 C813 C 0.66259 0.48311 0.35923
 C814 C 0.67300 0.48207 0.40144
 C815 C 0.69566 0.49797 0.41053
 C816 C 0.70787 0.51464 0.37584
 C817 C 0.66305 0.50177 0.28396
 C818 C 0.65222 0.50284 0.25102
 C819 C 0.63840 0.50379 0.21466
 C820 C 0.62577 0.50454 0.18560
 C821 C 0.60986 0.50553 0.15350
 C822 C 0.60615 0.52378 0.15635
 C823 C 0.58912 0.52391 0.12920
 C824 C 0.57547 0.50571 0.09875
 C825 C 0.57977 0.48771 0.09494
 C826 C 0.59682 0.48761 0.12232
 H827 H 0.70681 0.52895 0.30767
 H828 H 0.64500 0.47091 0.35334
 H829 H 0.66329 0.46885 0.42716
 H830 H 0.72530 0.52717 0.38205
 H831 H 0.61604 0.53768 0.18056
 H832 H 0.58638 0.53808 0.13288
 H833 H 0.56958 0.47344 0.07189
 H834 H 0.59945 0.47331 0.12009
 C835 C 0.80438 0.31088 0.32440
 C836 C 0.82786 0.32129 0.32245
 C837 C 0.83973 0.31988 0.36193
 C838 C 0.82831 0.30891 0.40390
 C839 C 0.80483 0.29925 0.40697
 C840 C 0.79290 0.29984 0.36638
 C841 C 0.84009 0.33496 0.28182
 C842 C 0.85121 0.34730 0.24963
 C843 C 0.86537 0.36258 0.21423
 C844 C 0.87854 0.37616 0.18612
 C845 C 0.89566 0.39279 0.15537
 C846 C 0.91782 0.39750 0.16089
 C847 C 0.93506 0.41455 0.13399
 C848 C 0.93044 0.42726 0.10094
 C849 C 0.90802 0.42217 0.09486
 C850 C 0.89072 0.40505 0.12210
 H851 H 0.79503 0.31195 0.29413
 H852 H 0.85790 0.32786 0.36083
 H853 H 0.83788 0.30845 0.43439
 H854 H 0.77483 0.29270 0.36794
 H855 H 0.92186 0.38820 0.18666
 H856 H 0.95207 0.41790 0.13960
 H857 H 0.90390 0.43163 0.06977
 H858 H 0.87361 0.40161 0.11773
   
