data_POSCAR
  _audit_creation_date              2014-09-24
  _audit_creation_method            'ToBaCCo'
  _symmetry_space_group_name_H-M    'P1'
  _symmetry_Int_Tables_number       1
  _symmetry_cell_setting            triclinic
  loop_
  _symmetry_equiv_pos_as_xyz
 x,y,z
_cell_length_a 66.0740
_cell_length_b 65.9985
_cell_length_c 66.0838
_cell_angle_alpha 90.005300
_cell_angle_beta 89.998500
_cell_angle_gamma 89.995200
loop_
  _atom_site_label
  _atom_site_type_symbol
  _atom_site_fract_x
  _atom_site_fract_y
  _atom_site_fract_z
C1 C 0.61626 0.64212 0.61693
 C2 C 0.63361 0.63346 0.60827
 C3 C 0.64213 0.61639 0.61678
 C4 C 0.63345 0.60770 0.63410
 C5 C 0.61642 0.61621 0.64261
 C6 C 0.60774 0.63358 0.63396
 C7 C 0.60472 0.65871 0.61191
 N8 N 0.58927 0.66058 0.62547
 C9 C 0.59116 0.64510 0.63901
 C10 C 0.61137 0.60466 0.65917
 N11 N 0.62494 0.58914 0.66112
 C12 C 0.63850 0.59111 0.64561
 C13 C 0.65870 0.61135 0.60526
 N14 N 0.66060 0.62494 0.58982
 C15 C 0.64514 0.63852 0.59171
 H16 H 0.60763 0.66856 0.59918
 H17 H 0.58134 0.64217 0.65174
 H18 H 0.59860 0.60771 0.66889
 H19 H 0.65128 0.58138 0.64256
 H20 H 0.66853 0.59860 0.60817
 H21 H 0.64223 0.65127 0.58189
 C22 C 0.88413 0.35748 0.11660
 C23 C 0.86681 0.36618 0.10791
 C24 C 0.85831 0.38327 0.11640
 C25 C 0.86698 0.39195 0.13374
 C26 C 0.88400 0.38339 0.14227
 C27 C 0.89264 0.36600 0.13362
 C28 C 0.89562 0.34087 0.11158
 N29 N 0.91112 0.33890 0.12515
 C30 C 0.90918 0.35444 0.13869
 C31 C 0.88907 0.39493 0.15883
 N32 N 0.87554 0.41043 0.16071
 C33 C 0.86197 0.40856 0.14526
 C34 C 0.84176 0.38833 0.10486
 N35 N 0.83986 0.37474 0.08942
 C36 C 0.85529 0.36113 0.09134
 H37 H 0.89256 0.33113 0.09882
 H38 H 0.91890 0.35749 0.15146
 H39 H 0.90179 0.39199 0.16866
 H40 H 0.84926 0.41842 0.14233
 H41 H 0.83195 0.40110 0.10775
 H42 H 0.85819 0.34837 0.08154
 C43 C 0.38364 0.14194 -0.11679
 C44 C 0.36631 0.13326 -0.10811
 C45 C 0.35780 0.11620 -0.11664
 C46 C 0.36646 0.10752 -0.13398
 C47 C 0.38348 0.11605 -0.14249
 C48 C 0.39215 0.13341 -0.13383
 C49 C 0.39518 0.15853 -0.11177
 N50 N 0.41062 0.16041 -0.12535
 C51 C 0.40871 0.14494 -0.13890
 C52 C 0.38852 0.10452 -0.15906
 N53 N 0.37497 0.08898 -0.16102
 C54 C 0.36142 0.09093 -0.14550
 C55 C 0.34123 0.11113 -0.10511
 N56 N 0.33934 0.12471 -0.08965
 C57 C 0.35478 0.13830 -0.09154
 H58 H 0.39228 0.16837 -0.09903
 H59 H 0.41852 0.14201 -0.15164
 H60 H 0.40129 0.10758 -0.16879
 H61 H 0.34865 0.08119 -0.14244
 H62 H 0.33142 0.09838 -0.10803
 H63 H 0.35769 0.15104 -0.08171
 C64 C 0.11583 0.85791 0.38311
 C65 C 0.13316 0.86661 0.39179
 C66 C 0.14166 0.88367 0.38328
 C67 C 0.13298 0.89234 0.36594
 C68 C 0.11597 0.88380 0.35743
 C69 C 0.10732 0.86643 0.36610
 C70 C 0.10432 0.84132 0.38815
 N71 N 0.08882 0.83935 0.37459
 C72 C 0.09077 0.85488 0.36104
 C73 C 0.11091 0.89532 0.34086
 N74 N 0.12444 0.91087 0.33890
 C75 C 0.13801 0.90893 0.35441
 C76 C 0.15822 0.88873 0.39482
 N77 N 0.16012 0.87515 0.41026
 C78 C 0.14468 0.86156 0.40836
 H79 H 0.10738 0.83158 0.40092
 H80 H 0.08105 0.85793 0.34827
 H81 H 0.09814 0.89224 0.33115
 H82 H 0.15076 0.91869 0.35746
 H83 H 0.16804 0.90149 0.39191
 H84 H 0.14177 0.84881 0.41818
 N85 N 0.10055 0.15705 0.11677
 N86 N 0.09260 0.14880 0.13302
 C87 C 0.07626 0.15964 0.13863
 C88 C 0.07380 0.17559 0.12516
 C89 C 0.08958 0.17338 0.11149
 H90 H 0.06691 0.15619 0.15158
 H91 H 0.09293 0.18290 0.09863
 Cu92 Cu 0.10466 0.12479 0.14517
 Cu93 Cu 0.12462 0.14618 0.10365
 Cu94 Cu 0.14626 0.10346 0.12532
 N95 N 0.11670 0.10069 0.15716
 N96 N 0.13306 0.09253 0.14933
 C97 C 0.13836 0.07624 0.16034
 C98 C 0.12460 0.07395 0.17603
 C99 C 0.11105 0.08982 0.17347
 H100 H 0.15129 0.06678 0.15707
 H101 H 0.09805 0.09325 0.18276
 N102 N 0.15730 0.11674 0.10097
 N103 N 0.14902 0.13292 0.09268
 C104 C 0.15989 0.13823 0.07628
 C105 C 0.17584 0.12476 0.07406
 C106 C 0.17365 0.11135 0.09006
 H107 H 0.15639 0.15098 0.06666
 H108 H 0.18322 0.09855 0.09353
 H109 H 0.12070 0.11657 0.11296
 H110 H 0.13687 0.13309 0.12921
 N111 N 0.39893 0.84300 0.61670
 N112 N 0.40677 0.85117 0.63305
 C113 C 0.42305 0.84027 0.63873
 C114 C 0.42559 0.82438 0.62519
 C115 C 0.40992 0.82668 0.61143
 H116 H 0.43230 0.84364 0.65177
 H117 H 0.40662 0.81720 0.59852
 Cu118 Cu 0.39469 0.87521 0.64511
 Cu119 Cu 0.37492 0.85394 0.60349
 Cu120 Cu 0.35322 0.89667 0.62515
 N121 N 0.38262 0.89926 0.65717
 N122 N 0.36636 0.90751 0.64923
 C123 C 0.36105 0.92380 0.66026
 C124 C 0.37471 0.92599 0.67603
 C125 C 0.38820 0.91005 0.67354
 H126 H 0.34816 0.93330 0.65694
 H127 H 0.40112 0.90655 0.68293
 N128 N 0.34227 0.88342 0.60073
 N129 N 0.35057 0.86724 0.59244
 C130 C 0.33967 0.86187 0.57608
 C131 C 0.32368 0.87529 0.57388
 C132 C 0.32588 0.88874 0.58984
 H133 H 0.34315 0.84907 0.56651
 H134 H 0.31625 0.90149 0.59334
 H135 H 0.37873 0.88354 0.61292
 H136 H 0.36248 0.86703 0.62906
 N137 N 0.89929 0.65765 0.38333
 N138 N 0.90726 0.64935 0.36711
 C139 C 0.92362 0.66017 0.36151
 C140 C 0.92607 0.67615 0.37494
 C141 C 0.91027 0.67398 0.38859
 H142 H 0.93303 0.65666 0.34860
 H143 H 0.90692 0.68351 0.40144
 Cu144 Cu 0.89537 0.62524 0.35501
 Cu145 Cu 0.87528 0.64672 0.39649
 Cu146 Cu 0.85393 0.60372 0.37512
 N147 N 0.88327 0.60112 0.34310
 N148 N 0.86706 0.59281 0.35108
 C149 C 0.86180 0.57650 0.34008
 C150 C 0.87543 0.57434 0.32426
 C151 C 0.88886 0.59032 0.32672
 H152 H 0.84897 0.56694 0.34345
 H153 H 0.90175 0.59385 0.31730
 N154 N 0.84287 0.61703 0.39944
 N155 N 0.85098 0.63338 0.40756
 C156 C 0.84004 0.63877 0.42389
 C157 C 0.82422 0.62518 0.42623
 C158 C 0.82656 0.61161 0.41039
 H159 H 0.84339 0.65168 0.43336
 H160 H 0.81711 0.59869 0.40704
 H161 H 0.87944 0.61711 0.38731
 H162 H 0.86309 0.63337 0.37099
 N163 N 0.60129 0.34245 -0.11734
 N164 N 0.59352 0.35053 -0.13377
 C165 C 0.57706 0.33981 -0.13927
 C166 C 0.57437 0.32409 -0.12557
 C167 C 0.59011 0.32634 -0.11187
 H168 H 0.56773 0.34325 -0.15225
 H169 H 0.59327 0.31701 -0.09882
 Cu170 Cu 0.60583 0.37446 -0.14583
 Cu171 Cu 0.62530 0.35337 -0.10408
 Cu172 Cu 0.64677 0.39635 -0.12551
 N173 N 0.61757 0.39872 -0.15778
 N174 N 0.63360 0.40719 -0.14961
 C175 C 0.63869 0.42370 -0.16039
 C176 C 0.62513 0.42583 -0.17625
 C177 C 0.61189 0.40964 -0.17405
 H178 H 0.65137 0.43340 -0.15683
 H179 H 0.59906 0.40607 -0.18352
 N180 N 0.65778 0.38304 -0.10114
 N181 N 0.64962 0.36672 -0.09299
 C182 C 0.66054 0.36133 -0.07665
 C183 C 0.67638 0.37490 -0.07431
 C184 C 0.67409 0.38845 -0.09017
 H185 H 0.65715 0.34845 -0.06717
 H186 H 0.68359 0.40132 -0.09355
 H187 H 0.62118 0.38301 -0.11340
 H188 H 0.63785 0.36671 -0.12930
 C189 C -0.05881 0.29372 0.11032
 C190 C -0.04387 0.29366 0.12525
 C191 C -0.04390 0.30866 0.14013
 C192 C -0.05880 0.32369 0.14015
 C193 C -0.07415 0.32410 0.12518
 C194 C -0.07377 0.30870 0.11024
 C195 C -0.02852 0.27819 0.12530
 C196 C -0.01566 0.26524 0.12536
 C197 C -0.00060 0.25007 0.12544
 C198 C 0.01227 0.23713 0.12547
 C199 C 0.02767 0.22171 0.12544
 C200 C 0.02778 0.20670 0.14037
 C201 C 0.04275 0.19171 0.14032
 C202 C 0.05787 0.19152 0.12529
 C203 C 0.05758 0.20675 0.11035
 C204 C 0.04260 0.22170 0.11045
 H205 H -0.05893 0.28214 0.09869
 H206 H -0.03236 0.30875 0.15179
 H207 H -0.05800 0.33484 0.15205
 H208 H -0.08488 0.30792 0.09832
 H209 H 0.01628 0.20657 0.15207
 H210 H 0.04236 0.18034 0.15209
 H211 H 0.06886 0.20723 0.09852
 H212 H 0.04267 0.23327 0.09881
 C213 C 0.55840 0.70639 0.61059
 C214 C 0.54343 0.70642 0.62552
 C215 C 0.54348 0.69141 0.64043
 C216 C 0.55844 0.67642 0.64044
 C217 C 0.57371 0.67614 0.62548
 C218 C 0.57339 0.69144 0.61054
 C219 C 0.52803 0.72185 0.62556
 C220 C 0.51515 0.73479 0.62559
 C221 C 0.50006 0.74993 0.62561
 C222 C 0.48717 0.76286 0.62561
 C223 C 0.47174 0.77826 0.62555
 C224 C 0.47155 0.79324 0.64052
 C225 C 0.45657 0.80821 0.64045
 C226 C 0.44151 0.80843 0.62536
 C227 C 0.44188 0.79324 0.61038
 C228 C 0.45687 0.77830 0.61049
 H229 H 0.55851 0.71796 0.59896
 H230 H 0.53194 0.69129 0.65208
 H231 H 0.55783 0.66518 0.65227
 H232 H 0.58461 0.69207 0.59871
 H233 H 0.48300 0.79336 0.65226
 H234 H 0.45689 0.81955 0.65225
 H235 H 0.43064 0.79278 0.59850
 H236 H 0.45688 0.76678 0.59881
 C237 C 1.04381 0.80915 0.35965
 C238 C 1.04378 0.79417 0.37454
 C239 C 1.05872 0.79422 0.38946
 C240 C 1.07369 0.80919 0.38953
 C241 C 1.07408 0.82457 0.37458
 C242 C 1.05872 0.82417 0.35961
 C243 C 1.02841 0.77871 0.37452
 C244 C 1.01555 0.76576 0.37449
 C245 C 1.00050 0.75060 0.37447
 C246 C 0.98762 0.73766 0.37448
 C247 C 0.97223 0.72224 0.37457
 C248 C 0.95731 0.72227 0.38957
 C249 C 0.94232 0.70732 0.38971
 C250 C 0.94203 0.69205 0.37480
 C251 C 0.95716 0.69219 0.35977
 C252 C 0.97213 0.70717 0.35968
 H253 H 1.03226 0.80924 0.34800
 H254 H 1.05883 0.78266 0.40110
 H255 H 1.08481 0.80840 0.40144
 H256 H 1.05792 0.83531 0.34771
 H257 H 0.95724 0.73387 0.40118
 H258 H 0.93104 0.70783 0.40153
 H259 H 0.95754 0.68079 0.34804
 H260 H 0.98362 0.70701 0.34799
 C261 C 0.45639 0.19123 -0.14034
 C262 C 0.45644 0.20625 -0.12544
 C263 C 0.44148 0.20624 -0.11051
 C264 C 0.42649 0.19128 -0.11044
 C265 C 0.42617 0.17597 -0.12538
 C266 C 0.44144 0.17624 -0.14034
 C267 C 0.47184 0.22168 -0.12549
 C268 C 0.48472 0.23462 -0.12553
 C269 C 0.49979 0.24977 -0.12557
 C270 C 0.51266 0.26272 -0.12559
 C271 C 0.52806 0.27815 -0.12557
 C272 C 0.54287 0.27830 -0.11046
 C273 C 0.55787 0.29324 -0.11042
 C274 C 0.55831 0.30829 -0.12553
 C275 C 0.54327 0.30799 -0.14064
 C276 C 0.52828 0.29302 -0.14064
 H277 H 0.46793 0.19110 -0.15199
 H278 H 0.44137 0.21782 -0.09888
 H279 H 0.41527 0.19193 -0.09861
 H280 H 0.44206 0.16499 -0.15216
 H281 H 0.54284 0.26686 -0.09870
 H282 H 0.56907 0.29286 -0.09851
 H283 H 0.54299 0.31924 -0.15252
 H284 H 0.51687 0.29305 -0.15241
 C285 C 0.10947 -0.05901 0.29386
 C286 C 0.12435 -0.04400 0.29380
 C287 C 0.13927 -0.04402 0.30876
 C288 C 0.13935 -0.05897 0.32374
 C289 C 0.12442 -0.07437 0.32415
 C290 C 0.10945 -0.07401 0.30879
 C291 C 0.12430 -0.02857 0.27841
 C292 C 0.12425 -0.01564 0.26553
 C293 C 0.12421 -0.00050 0.25046
 C294 C 0.12420 0.01243 0.23757
 C295 C 0.12425 0.02784 0.22215
 C296 C 0.13930 0.02787 0.20728
 C297 C 0.13941 0.04282 0.19230
 C298 C 0.12444 0.05802 0.19196
 C299 C 0.10936 0.05781 0.20702
 C300 C 0.10928 0.04282 0.22199
 H301 H 0.09782 -0.05913 0.28231
 H302 H 0.15089 -0.03244 0.30885
 H303 H 0.15126 -0.05815 0.33486
 H304 H 0.09756 -0.08516 0.30800
 H305 H 0.15096 0.01633 0.20726
 H306 H 0.15128 0.04236 0.18106
 H307 H 0.09757 0.06915 0.20737
 H308 H 0.09755 0.04294 0.23345
 C309 C 0.61002 0.55893 -0.29387
 C310 C 0.62493 0.54396 -0.29384
 C311 C 0.63985 0.54402 -0.30879
 C312 C 0.63991 0.55898 -0.32375
 C313 C 0.62494 0.57435 -0.32414
 C314 C 0.60997 0.57394 -0.30879
 C315 C 0.62492 0.52851 -0.27846
 C316 C 0.62489 0.51557 -0.26559
 C317 C 0.62485 0.50043 -0.25052
 C318 C 0.62482 0.48750 -0.23763
 C319 C 0.62483 0.47208 -0.22223
 C320 C 0.61006 0.45691 -0.22232
 C321 C 0.61009 0.44191 -0.20738
 C322 C 0.62495 0.44185 -0.19209
 C323 C 0.63971 0.45726 -0.19216
 C324 C 0.63964 0.47223 -0.20712
 H325 H 0.59837 0.55901 -0.28233
 H326 H 0.65150 0.53246 -0.30889
 H327 H 0.65182 0.55820 -0.33487
 H328 H 0.59805 0.58507 -0.30799
 H329 H 0.59851 0.45666 -0.23396
 H330 H 0.59846 0.43041 -0.20791
 H331 H 0.65140 0.45785 -0.18074
 H332 H 0.65116 0.48391 -0.20690
 C333 C 0.38989 1.05882 0.79394
 C334 C 0.37499 1.04384 0.79390
 C335 C 0.36007 1.04388 0.80885
 C336 C 0.36001 1.05883 0.82383
 C337 C 0.37497 1.07421 0.82423
 C338 C 0.38993 1.07382 0.80887
 C339 C 0.37502 1.02840 0.77852
 C340 C 0.37505 1.01547 0.76563
 C341 C 0.37510 1.00035 0.75054
 C342 C 0.37510 0.98744 0.73764
 C343 C 0.37504 0.97204 0.72221
 C344 C 0.38995 0.95701 0.72208
 C345 C 0.38987 0.94204 0.70711
 C346 C 0.37484 0.94188 0.69200
 C347 C 0.35991 0.95713 0.69230
 C348 C 0.36004 0.97208 0.70729
 H349 H 0.40153 1.05892 0.78239
 H350 H 0.34843 1.03232 0.80895
 H351 H 0.34810 1.05804 0.83495
 H352 H 0.40184 1.08496 0.80808
 H353 H 0.40166 0.95685 0.73357
 H354 H 0.40163 0.93065 0.70747
 H355 H 0.34808 0.95764 0.68102
 H356 H 0.34842 0.98366 0.70724
 C357 C 0.86073 0.45631 0.19151
 C358 C 0.87565 0.45632 0.20648
 C359 C 0.89053 0.44129 0.20645
 C360 C 0.89053 0.42628 0.19152
 C361 C 0.87557 0.42600 0.17625
 C362 C 0.86066 0.44133 0.17654
 C363 C 0.87571 0.47178 0.22186
 C364 C 0.87576 0.48473 0.23473
 C365 C 0.87580 0.49990 0.24979
 C366 C 0.87581 0.51284 0.26266
 C367 C 0.87575 0.52827 0.27807
 C368 C 0.89063 0.54334 0.27816
 C369 C 0.89055 0.55831 0.29314
 C370 C 0.87555 0.55844 0.30829
 C371 C 0.86065 0.54317 0.30801
 C372 C 0.86077 0.52822 0.29302
 H373 H 0.84911 0.46790 0.19138
 H374 H 0.90218 0.44115 0.21800
 H375 H 0.90234 0.41501 0.19215
 H376 H 0.84882 0.44198 0.16531
 H377 H 0.90231 0.54352 0.26665
 H378 H 0.90228 0.56972 0.29274
 H379 H 0.84884 0.54265 0.31931
 H380 H 0.84917 0.51663 0.29310
 C381 C 0.30849 0.13960 -0.04389
 C382 C 0.29353 0.12464 -0.04386
 C383 C 0.29359 0.10970 -0.05883
 C384 C 0.30853 0.10969 -0.07381
 C385 C 0.32379 0.12469 -0.07411
 C386 C 0.32346 0.13966 -0.05884
 C387 C 0.27813 0.12461 -0.02845
 C388 C 0.26524 0.12459 -0.01555
 C389 C 0.25014 0.12459 -0.00044
 C390 C 0.23724 0.12459 0.01246
 C391 C 0.22185 0.12462 0.02787
 C392 C 0.20680 0.13951 0.02783
 C393 C 0.19185 0.13958 0.04281
 C394 C 0.19172 0.12470 0.05810
 C395 C 0.20697 0.10977 0.05795
 C396 C 0.22190 0.10975 0.04295
 H397 H 0.30858 0.15126 -0.03235
 H398 H 0.28206 0.09803 -0.05895
 H399 H 0.30793 0.09784 -0.08503
 H400 H 0.33467 0.15152 -0.05822
 H401 H 0.20662 0.15110 0.01622
 H402 H 0.18047 0.15132 0.04230
 H403 H 0.20749 0.09805 0.06935
 H404 H 0.23348 0.09814 0.04312
 C405 C 0.69146 0.63991 0.54409
 C406 C 0.70643 0.62496 0.54405
 C407 C 0.70638 0.61001 0.55901
 C408 C 0.69143 0.60997 0.57398
 C409 C 0.67615 0.62495 0.57428
 C410 C 0.67647 0.63993 0.55903
 C411 C 0.72184 0.62497 0.52866
 C412 C 0.73475 0.62499 0.51576
 C413 C 0.74985 0.62503 0.50066
 C414 C 0.76274 0.62507 0.48776
 C415 C 0.77814 0.62510 0.47235
 C416 C 0.79308 0.64010 0.47230
 C417 C 0.80805 0.64015 0.45734
 C418 C 0.80830 0.62516 0.44216
 C419 C 0.79314 0.61014 0.44239
 C420 C 0.77820 0.61014 0.45737
 H421 H 0.69135 0.65158 0.53256
 H422 H 0.71792 0.59835 0.55911
 H423 H 0.69204 0.59811 0.58519
 H424 H 0.66525 0.65179 0.55841
 H425 H 0.79318 0.65177 0.48384
 H426 H 0.81936 0.65197 0.45779
 H427 H 0.79271 0.59834 0.43106
 H428 H 0.76669 0.59845 0.45727
 C429 C 0.80904 0.35979 0.04365
 C430 C 0.79410 0.37476 0.04358
 C431 C 0.79415 0.38972 0.05853
 C432 C 0.80908 0.38975 0.07352
 C433 C 0.82433 0.37474 0.07386
 C434 C 0.82401 0.35974 0.05861
 C435 C 0.77871 0.37477 0.02817
 C436 C 0.76581 0.37480 0.01527
 C437 C 0.75070 0.37485 0.00017
 C438 C 0.73779 0.37488 -0.01272
 C439 C 0.72239 0.37492 -0.02812
 C440 C 0.70740 0.35996 -0.02818
 C441 C 0.69246 0.35994 -0.04316
 C442 C 0.69226 0.37492 -0.05835
 C443 C 0.70744 0.38992 -0.05808
 C444 C 0.72236 0.38989 -0.04309
 H445 H 0.80914 0.34811 0.03213
 H446 H 0.78263 0.40141 0.05862
 H447 H 0.80848 0.40162 0.08473
 H448 H 0.83521 0.34787 0.05802
 H449 H 0.70727 0.34829 -0.01665
 H450 H 0.68112 0.34814 -0.04272
 H451 H 0.70790 0.40172 -0.06941
 H452 H 0.73389 0.40156 -0.04317
 C453 C 0.19093 0.86020 0.45602
 C454 C 0.20589 0.87515 0.45608
 C455 C 0.20585 0.89011 0.44112
 C456 C 0.19091 0.89014 0.42614
 C457 C 0.17565 0.87516 0.42581
 C458 C 0.17596 0.86017 0.44107
 C459 C 0.22128 0.87515 0.47149
 C460 C 0.23417 0.87514 0.48440
 C461 C 0.24925 0.87513 0.49952
 C462 C 0.26213 0.87513 0.51243
 C463 C 0.27752 0.87515 0.52785
 C464 C 0.27745 0.89004 0.54290
 C465 C 0.29242 0.89010 0.55787
 C466 C 0.30772 0.87523 0.55800
 C467 C 0.30758 0.86030 0.54275
 C468 C 0.29260 0.86028 0.52781
 H469 H 0.19082 0.84853 0.46755
 H470 H 0.21738 0.90178 0.44103
 H471 H 0.19152 0.90200 0.41493
 H472 H 0.16475 0.84831 0.44168
 H473 H 0.26584 0.90162 0.54308
 H474 H 0.29189 0.90184 0.56925
 H475 H 0.31900 0.84858 0.54224
 H476 H 0.29279 0.84867 0.51622
   
