data_POSCAR
  _audit_creation_date              2014-09-24
  _audit_creation_method            'ToBaCCo'
  _symmetry_space_group_name_H-M    'P1'
  _symmetry_Int_Tables_number       1
  _symmetry_cell_setting            triclinic
  loop_
  _symmetry_equiv_pos_as_xyz
 x,y,z
_cell_length_a 10.9847
_cell_length_b 10.9847
_cell_length_c 10.9847
_cell_angle_alpha 90.000000
_cell_angle_beta 90.000000
_cell_angle_gamma 90.000000
loop_
  _atom_site_label
  _atom_site_type_symbol
  _atom_site_fract_x
  _atom_site_fract_y
  _atom_site_fract_z
Si1 Si 0.00029 0.50029 0.25000
 Si2 Si 0.00029 0.50029 0.75000
 Si3 Si 0.25029 0.00029 0.50000
 Si4 Si 0.75029 0.00029 0.50000
 Si5 Si 0.50029 0.25029 1.00000
 Si6 Si 0.50029 0.75029 1.00000
 B7 B 1.00029 1.12467 0.07615
 B8 B 1.07644 1.00029 0.12438
 B9 B 0.92414 1.00029 0.12438
 B10 B 0.87591 1.07644 0.00000
 B11 B 1.00029 1.12467 -0.07615
 B12 B 1.12467 1.07644 0.00000
 B13 B 1.00029 0.87591 -0.07615
 B14 B 0.92414 1.00029 -0.12438
 B15 B 1.07644 1.00029 -0.12438
 B16 B 1.12467 0.92414 -0.00000
 B17 B 1.00029 0.87591 0.07615
 B18 B 0.87591 0.92414 0.00000
 B19 B 0.62467 0.50029 0.42385
 B20 B 0.50029 0.57644 0.37562
 B21 B 0.50029 0.42414 0.37562
 B22 B 0.57644 0.37591 0.50000
 B23 B 0.62467 0.50029 0.57615
 B24 B 0.57644 0.62467 0.50000
 B25 B 0.37591 0.50029 0.57615
 B26 B 0.50029 0.42414 0.62438
 B27 B 0.50029 0.57644 0.62438
 B28 B 0.42414 0.62467 0.50000
 B29 B 0.37591 0.50029 0.42385
 B30 B 0.42414 0.37591 0.50000
 C31 C 1.00029 1.35372 0.17511
 C32 C 1.00029 1.25121 0.13631
 C33 C 1.00029 0.64686 0.17511
 C34 C 1.00029 0.74937 0.13631
 C35 C 1.00029 1.35372 -0.17511
 C36 C 1.00029 1.25121 -0.13631
 C37 C 1.00029 0.64686 -0.17511
 C38 C 1.00029 0.74937 -0.13631
 C39 C 1.17540 1.00029 0.35343
 C40 C 1.13660 1.00029 0.25092
 C41 C 1.17540 1.00029 -0.35343
 C42 C 1.13660 1.00029 -0.25092
 C43 C 0.82518 1.00029 0.35343
 C44 C 0.86398 1.00029 0.25092
 C45 C 0.82518 1.00029 -0.35343
 C46 C 0.86398 1.00029 -0.25092
 C47 C 1.35372 1.17540 -0.00000
 C48 C 1.25121 1.13660 -0.00000
 C49 C 0.64686 1.17540 -0.00000
 C50 C 0.74937 1.13660 -0.00000
 C51 C 1.35372 0.82518 -0.00000
 C52 C 1.25121 0.86398 -0.00000
 C53 C 0.64686 0.82518 -0.00000
 C54 C 0.74937 0.86398 0.00000
 C55 C 0.85372 0.50029 0.32489
 C56 C 0.75121 0.50029 0.36369
 C57 C 0.14686 0.50029 0.32489
 C58 C 0.24937 0.50029 0.36369
 C59 C 0.85372 0.50029 0.67511
 C60 C 0.75121 0.50029 0.63631
 C61 C 0.14686 0.50029 0.67511
 C62 C 0.24937 0.50029 0.63631
 C63 C 0.50029 0.67540 0.14657
 C64 C 0.50029 0.63660 0.24908
 C65 C 0.50029 0.67540 0.85343
 C66 C 0.50029 0.63660 0.75092
 C67 C 0.50029 0.32518 0.14657
 C68 C 0.50029 0.36398 0.24908
 C69 C 0.50029 0.32518 0.85343
 C70 C 0.50029 0.36398 0.75092
 C71 C 0.67540 0.85372 0.50000
 C72 C 0.63660 0.75121 0.50000
 C73 C 0.67540 0.14686 0.50000
 C74 C 0.63660 0.24937 0.50000
 C75 C 0.32518 0.85372 0.50000
 C76 C 0.36398 0.75121 0.50000
 C77 C 0.32518 0.14686 0.50000
 C78 C 0.36398 0.24937 0.50000
   
