data_POSCAR
  _audit_creation_date              2014-09-24
  _audit_creation_method            'ToBaCCo'
  _symmetry_space_group_name_H-M    'P1'
  _symmetry_Int_Tables_number       1
  _symmetry_cell_setting            triclinic
  loop_
  _symmetry_equiv_pos_as_xyz
 x,y,z
_cell_length_a 50.1150
_cell_length_b 49.8283
_cell_length_c 40.1442
_cell_angle_alpha 89.981900
_cell_angle_beta 89.942100
_cell_angle_gamma 89.110900
loop_
  _atom_site_label
  _atom_site_type_symbol
  _atom_site_fract_x
  _atom_site_fract_y
  _atom_site_fract_z
O1 O 0.02861 0.31329 -0.03098
 O2 O -0.02276 0.30847 0.03455
 O3 O 0.02946 0.31294 0.03343
 O4 O -0.02348 0.30886 -0.03012
 O5 O -0.01899 0.26463 -0.03041
 O6 O 0.03355 0.26868 0.03286
 O7 O -0.01833 0.26425 0.03396
 O8 O 0.03279 0.26903 -0.03125
 Cu9 Cu 0.00247 0.31539 0.00180
 Cu10 Cu 0.00765 0.26220 0.00128
 C11 C 0.03969 0.29191 -0.04171
 C12 C -0.02950 0.28548 0.04492
 C13 C 0.04081 0.29143 0.04330
 C14 C -0.03036 0.28598 -0.04065
 O15 O 0.52892 0.81312 0.46659
 O16 O 0.47618 0.80920 0.53058
 O17 O 0.52833 0.81411 0.53104
 O18 O 0.47677 0.80812 0.46589
 O19 O 0.48166 0.76394 0.46725
 O20 O 0.53286 0.76989 0.53209
 O21 O 0.48105 0.76502 0.53163
 O22 O 0.53347 0.76891 0.46795
 Cu23 Cu 0.50203 0.81562 0.49840
 Cu24 Cu 0.50771 0.76251 0.49984
 C25 C 0.54044 0.79162 0.45700
 C26 C 0.46949 0.78637 0.54153
 C27 C 0.53962 0.79294 0.54208
 C28 C 0.47027 0.78494 0.45597
 O29 O 0.97891 0.69175 -0.03578
 O30 O 1.03011 0.68645 0.03004
 O31 O 0.97786 0.69063 0.02891
 O32 O 1.03132 0.68769 -0.03437
 O33 O 1.03378 0.73196 -0.03288
 O34 O 0.98066 0.73487 0.03010
 O35 O 1.03260 0.73073 0.03124
 O36 O 0.98170 0.73598 -0.03427
 Cu37 Cu 1.00423 0.68464 -0.00298
 Cu38 Cu 1.00742 0.73783 -0.00137
 C39 C 0.97137 0.71483 -0.04571
 C40 C 1.04030 0.70777 0.04130
 C41 C 0.97006 0.71332 0.03987
 C42 C 1.04195 0.70939 -0.04372
 O43 O 0.47868 0.19396 0.46913
 O44 O 0.53186 0.18737 0.53236
 O45 O 0.47979 0.19403 0.53436
 O46 O 0.53070 0.18730 0.46814
 O47 O 0.53528 0.23139 0.46803
 O48 O 0.48470 0.23805 0.53387
 O49 O 0.53640 0.23146 0.53193
 O50 O 0.48362 0.23798 0.46904
 Cu51 Cu 0.50458 0.18620 0.50105
 Cu52 Cu 0.51032 0.23916 0.50072
 C53 C 0.47223 0.21713 0.45842
 C54 C 0.54352 0.20837 0.54215
 C55 C 0.47366 0.21724 0.54524
 C56 C 0.54198 0.20826 0.45748
 O57 O 0.67197 0.02767 -0.03269
 O58 O 0.67109 -0.02535 0.03165
 O59 O 0.67139 0.02750 0.03177
 O60 O 0.67172 -0.02532 -0.03281
 O61 O 0.71585 -0.02598 -0.03200
 O62 O 0.71553 0.02632 0.03220
 O63 O 0.71522 -0.02607 0.03206
 O64 O 0.71610 0.02652 -0.03185
 Cu65 Cu 0.66704 0.00122 -0.00063
 Cu66 Cu 0.72010 0.00010 0.00012
 C67 C 0.69429 0.03646 -0.04247
 C68 C 0.69310 -0.03500 0.04219
 C69 C 0.69352 0.03615 0.04235
 C70 C 0.69394 -0.03498 -0.04266
 O71 O 0.17235 0.52728 0.47039
 O72 O 0.17337 0.47312 0.53327
 O73 O 0.17298 0.52598 0.53483
 O74 O 0.17296 0.47438 0.46875
 O75 O 0.21710 0.47433 0.46836
 O76 O 0.21712 0.52552 0.53403
 O77 O 0.21751 0.47313 0.53249
 O78 O 0.21649 0.52676 0.46998
 Cu79 Cu 0.16842 0.50020 0.50186
 Cu80 Cu 0.22147 0.49990 0.50114
 C81 C 0.19435 0.53652 0.46017
 C82 C 0.19572 0.46368 0.54296
 C83 C 0.19514 0.53482 0.54504
 C84 C 0.19513 0.46530 0.45792
 O85 O 0.30662 0.97249 -0.03328
 O86 O 0.30735 1.02386 0.03288
 O87 O 0.30667 0.97147 0.03170
 O88 O 0.30727 1.02487 -0.03198
 O89 O 0.26314 1.02599 -0.03172
 O90 O 0.26253 0.97283 0.03170
 O91 O 0.26321 1.02500 0.03289
 O92 O 0.26249 0.97385 -0.03303
 Cu93 Cu 0.31145 0.99802 -0.00018
 Cu94 Cu 0.25841 0.99952 -0.00002
 C95 C 0.28438 0.96448 -0.04426
 C96 C 0.28535 1.03317 0.04392
 C97 C 0.28444 0.96313 0.04238
 C98 C 0.28525 1.03451 -0.04248
 O99 O 0.80705 0.52596 0.53014
 O100 O 0.80727 0.47274 0.46626
 O101 O 0.80691 0.52516 0.46510
 O102 O 0.80743 0.47351 0.53101
 O103 O 0.76329 0.47399 0.53113
 O104 O 0.76277 0.52541 0.46545
 O105 O 0.76313 0.47322 0.46661
 O106 O 0.76292 0.52622 0.53024
 Cu107 Cu 0.81164 0.49936 0.49812
 Cu108 Cu 0.75859 0.49980 0.49839
 C109 C 0.78489 0.53508 0.54092
 C110 C 0.78518 0.46389 0.45585
 C111 C 0.78469 0.53398 0.45417
 C112 C 0.78540 0.46489 0.54197
 C113 C 0.22736 0.22274 0.17902
 C114 C 0.24703 0.20900 0.19708
 C115 C 0.25694 0.22000 0.22662
 C116 C 0.24799 0.24556 0.23772
 C117 C 0.22856 0.25938 0.21848
 C118 C 0.21792 0.24772 0.18984
 C119 C 0.25875 0.25778 0.26901
 C120 C 0.24358 0.27706 0.28703
 C121 C 0.25406 0.28936 0.31538
 C122 C 0.27924 0.28171 0.32714
 C123 C 0.29428 0.26219 0.31028
 C124 C 0.28439 0.25065 0.28106
 H125 H 0.21932 0.21393 0.15651
 H126 H 0.27138 0.20838 0.24078
 H127 H 0.22157 0.27927 0.22533
 H128 H 0.22361 0.28274 0.27934
 H129 H 0.28722 0.29110 0.34930
 H130 H 0.29701 0.23646 0.26777
 C131 C 0.77367 0.77837 0.16581
 C132 C 0.74918 0.78704 0.17880
 C133 C 0.73919 0.77534 0.20785
 C134 C 0.75424 0.75570 0.22540
 C135 C 0.77926 0.74764 0.21216
 C136 C 0.78856 0.75849 0.18220
 C137 C 0.74403 0.74399 0.25736
 C138 C 0.75290 0.71843 0.26858
 C139 C 0.74360 0.70791 0.29872
 C140 C 0.72452 0.72207 0.31729
 C141 C 0.71511 0.74702 0.30636
 C142 C 0.72521 0.75825 0.27711
 H143 H 0.78122 0.78723 0.14305
 H144 H 0.71965 0.78178 0.21642
 H145 H 0.79187 0.73320 0.22500
 H146 H 0.76680 0.70642 0.25408
 H147 H 0.71692 0.71360 0.34026
 H148 H 0.71827 0.77814 0.27019
 C149 C 0.77763 0.21967 0.16970
 C150 C 0.79249 0.23853 0.18711
 C151 C 0.78320 0.24860 0.21765
 C152 C 0.75819 0.24080 0.23049
 C153 C 0.74315 0.22230 0.21187
 C154 C 0.75315 0.21132 0.18225
 C155 C 0.74785 0.25167 0.26301
 C156 C 0.72874 0.23743 0.28170
 C157 C 0.71815 0.24811 0.31119
 C158 C 0.72747 0.27238 0.32351
 C159 C 0.74688 0.28643 0.30606
 C160 C 0.75662 0.27652 0.27566
 H161 H 0.78518 0.21139 0.14648
 H162 H 0.79576 0.26226 0.23119
 H163 H 0.72360 0.21619 0.22002
 H164 H 0.72181 0.21804 0.27368
 H165 H 0.71940 0.28048 0.34657
 H166 H 0.77070 0.28854 0.26201
 C167 C 0.22422 0.77402 0.17772
 C168 C 0.21488 0.74969 0.18991
 C169 C 0.22571 0.73869 0.21907
 C170 C 0.24514 0.75262 0.23753
 C171 C 0.25394 0.77752 0.22503
 C172 C 0.24392 0.78778 0.19497
 C173 C 0.25581 0.74139 0.26967
 C174 C 0.28114 0.74875 0.28191
 C175 C 0.29068 0.73845 0.31221
 C176 C 0.27571 0.71985 0.32991
 C177 C 0.25094 0.71193 0.31798
 C178 C 0.24072 0.72307 0.28858
 H179 H 0.21600 0.78235 0.15489
 H180 H 0.21876 0.71928 0.22702
 H181 H 0.26830 0.78928 0.23854
 H182 H 0.29373 0.76224 0.26810
 H183 H 0.28340 0.71147 0.35301
 H184 H 0.22093 0.71734 0.28090
 C185 C 0.72887 0.27437 0.67556
 C186 C 0.71970 0.24984 0.68728
 C187 C 0.72960 0.23920 0.71712
 C188 C 0.74791 0.25369 0.73665
 C189 C 0.75655 0.27881 0.72462
 C190 C 0.74747 0.28873 0.69393
 C191 C 0.75770 0.24270 0.76931
 C192 C 0.78249 0.25055 0.78270
 C193 C 0.79132 0.24041 0.81337
 C194 C 0.77624 0.22150 0.83037
 C195 C 0.75202 0.21306 0.81731
 C196 C 0.74243 0.22403 0.78747
 H197 H 0.72138 0.28240 0.65217
 H198 H 0.72285 0.21963 0.72474
 H199 H 0.77005 0.29097 0.73895
 H200 H 0.79521 0.26427 0.76945
 H201 H 0.78344 0.21324 0.85378
 H202 H 0.72304 0.21788 0.77881
 C203 C 0.27566 0.72055 0.66993
 C204 C 0.29022 0.74040 0.68596
 C205 C 0.28091 0.75146 0.71597
 C206 C 0.25618 0.74365 0.72961
 C207 C 0.24145 0.72405 0.71237
 C208 C 0.25149 0.71212 0.68331
 C209 C 0.24588 0.75561 0.76159
 C210 C 0.22718 0.74178 0.78139
 C211 C 0.21685 0.75330 0.81053
 C212 C 0.22598 0.77809 0.82138
 C213 C 0.24496 0.79181 0.80282
 C214 C 0.25444 0.78102 0.77274
 H215 H 0.28322 0.71156 0.64712
 H216 H 0.29329 0.76589 0.72849
 H217 H 0.22211 0.71782 0.72114
 H218 H 0.22047 0.72201 0.77460
 H219 H 0.21821 0.78678 0.84427
 H220 H 0.26822 0.79275 0.75825
 C221 C 0.28215 0.28114 0.67677
 C222 C 0.25658 0.28873 0.68723
 C223 C 0.24555 0.27715 0.71573
 C224 C 0.26050 0.25867 0.73519
 C225 C 0.28658 0.25160 0.72446
 C226 C 0.29704 0.26239 0.69506
 C227 C 0.24896 0.24702 0.76641
 C228 C 0.25781 0.22180 0.77863
 C229 C 0.24697 0.21114 0.80788
 C230 C 0.22652 0.22491 0.82456
 C231 C 0.21718 0.24960 0.81262
 C232 C 0.22869 0.26092 0.78425
 H233 H 0.29051 0.28993 0.65441
 H234 H 0.22527 0.28267 0.72234
 H235 H 0.29902 0.23799 0.73884
 H236 H 0.27284 0.21012 0.76550
 H237 H 0.21774 0.21631 0.84678
 H238 H 0.22168 0.28056 0.77642
 C239 C 0.72603 0.72618 0.67586
 C240 C 0.74582 0.71196 0.69314
 C241 C 0.75595 0.72213 0.72303
 C242 C 0.74712 0.74736 0.73531
 C243 C 0.72762 0.76175 0.71679
 C244 C 0.71669 0.75086 0.68782
 C245 C 0.75777 0.75843 0.76736
 C246 C 0.74264 0.77730 0.78609
 C247 C 0.75281 0.78826 0.81542
 C248 C 0.77758 0.77966 0.82746
 C249 C 0.79259 0.76053 0.80994
 C250 C 0.78310 0.75036 0.77971
 H251 H 0.71770 0.71790 0.65321
 H252 H 0.77035 0.71002 0.73661
 H253 H 0.72064 0.78140 0.72456
 H254 H 0.72286 0.78359 0.77834
 H255 H 0.78522 0.78791 0.85052
 H256 H 0.79571 0.73640 0.76605
 C257 C 0.27291 0.13915 0.15356
 C258 C 0.29003 0.14118 0.12561
 C259 C 0.29481 0.11842 0.10499
 C260 C 0.28249 0.09376 0.11251
 C261 C 0.26664 0.09134 0.14153
 C262 C 0.26182 0.11412 0.16213
 C263 C 0.24551 0.11136 0.19067
 C264 C 0.23432 0.08675 0.19871
 C265 C 0.23903 0.06447 0.17859
 C266 C 0.25498 0.06663 0.15028
 C267 C 0.31155 0.12107 0.07680
 C268 C 0.32327 0.14550 0.06921
 C269 C 0.31863 0.16775 0.08940
 C270 C 0.30221 0.16573 0.11729
 C271 C 0.28448 0.07162 0.08909
 C272 C 0.28531 0.05377 0.06883
 C273 C 0.26474 0.16327 0.17138
 C274 C 0.25710 0.18384 0.18429
 H275 H 0.24138 0.12812 0.20712
 H276 H 0.22192 0.08497 0.22067
 H277 H 0.23029 0.04541 0.18494
 H278 H 0.25815 0.04873 0.13543
 H279 H 0.31584 0.10429 0.06042
 H280 H 0.33603 0.14717 0.04755
 H281 H 0.32780 0.18668 0.08342
 H282 H 0.29927 0.18357 0.13231
 C283 C 0.77095 0.64208 0.64890
 C284 C 0.78919 0.64363 0.62202
 C285 C 0.79413 0.62075 0.60166
 C286 C 0.78085 0.59647 0.60835
 C287 C 0.76379 0.59450 0.63635
 C288 C 0.75882 0.61739 0.65669
 C289 C 0.74136 0.61508 0.68423
 C290 C 0.72920 0.59081 0.69153
 C291 C 0.73406 0.56842 0.67165
 C292 C 0.75113 0.57013 0.64433
 C293 C 0.81207 0.62291 0.57457
 C294 C 0.82482 0.64697 0.56783
 C295 C 0.82002 0.66933 0.58778
 C296 C 0.80241 0.66780 0.61458
 C297 C 0.78328 0.57419 0.58518
 C298 C 0.78447 0.55612 0.56525
 C299 C 0.76297 0.66634 0.66655
 C300 C 0.75555 0.68691 0.67964
 H301 H 0.73706 0.63193 0.70047
 H302 H 0.71593 0.58937 0.71273
 H303 H 0.72457 0.54961 0.67744
 H304 H 0.75436 0.55216 0.62964
 H305 H 0.81651 0.60603 0.55842
 H306 H 0.83851 0.64826 0.54703
 H307 H 0.83000 0.68797 0.58246
 H308 H 0.79939 0.68570 0.62946
 C309 C 0.71320 0.85190 0.13404
 C310 C 0.71375 0.87695 0.15068
 C311 C 0.70625 0.90081 0.13344
 C312 C 0.69824 0.89946 0.09971
 C313 C 0.69600 0.87425 0.08377
 C314 C 0.70355 0.85038 0.10098
 C315 C 0.70164 0.82545 0.08435
 C316 C 0.69235 0.82411 0.05169
 C317 C 0.68484 0.84743 0.03491
 C318 C 0.68674 0.87228 0.05057
 C319 C 0.70738 0.92567 0.15037
 C320 C 0.71563 0.92692 0.18347
 C321 C 0.72298 0.90359 0.20034
 C322 C 0.72212 0.87883 0.18425
 C323 C 0.69476 0.92393 0.08046
 C324 C 0.69329 0.94370 0.06321
 C325 C 0.72451 0.82818 0.15001
 C326 C 0.73512 0.80904 0.16312
 H327 H 0.70714 0.80677 0.09647
 H328 H 0.69095 0.80487 0.03935
 H329 H 0.67763 0.84628 0.00954
 H330 H 0.68070 0.88986 0.03648
 H331 H 0.70174 0.94432 0.13828
 H332 H 0.71630 0.94609 0.19609
 H333 H 0.72937 0.90466 0.22605
 H334 H 0.72793 0.86122 0.19844
 C335 C 0.22003 0.34933 0.63486
 C336 C 0.20702 0.37088 0.65153
 C337 C 0.19909 0.39421 0.63345
 C338 C 0.20419 0.39577 0.59884
 C339 C 0.21589 0.37361 0.58186
 C340 C 0.22384 0.35032 0.59994
 C341 C 0.23591 0.32859 0.58254
 C342 C 0.24009 0.32988 0.54826
 C343 C 0.23241 0.35269 0.53058
 C344 C 0.22035 0.37432 0.54702
 C345 C 0.18651 0.41569 0.65069
 C346 C 0.18182 0.41414 0.68487
 C347 C 0.18954 0.39131 0.70255
 C348 C 0.20203 0.36987 0.68620
 C349 C 0.19928 0.42064 0.58088
 C350 C 0.19676 0.44079 0.56452
 C351 C 0.23148 0.32718 0.65380
 C352 C 0.24226 0.30931 0.66920
 H353 H 0.24216 0.31039 0.59521
 H354 H 0.24936 0.31309 0.53536
 H355 H 0.23580 0.35364 0.50398
 H356 H 0.21456 0.39153 0.53209
 H357 H 0.18009 0.43380 0.63793
 H358 H 0.17213 0.43073 0.69769
 H359 H 0.18582 0.39020 0.72908
 H360 H 0.20760 0.35249 0.70095
 C361 C 0.86085 0.26363 0.14163
 C362 C 0.88624 0.26192 0.15697
 C363 C 0.90952 0.26836 0.13850
 C364 C 0.90724 0.27642 0.10479
 C365 C 0.88176 0.27898 0.08977
 C366 C 0.85851 0.27257 0.10824
 C367 C 0.83329 0.27501 0.09254
 C368 C 0.83110 0.28359 0.05960
 C369 C 0.85383 0.28992 0.04158
 C370 C 0.87892 0.28761 0.05632
 C371 C 0.93470 0.26629 0.15426
 C372 C 0.93685 0.25809 0.18736
 C373 C 0.91410 0.25176 0.20541
 C374 C 0.88903 0.25361 0.19051
 C375 C 0.93099 0.28060 0.08482
 C376 C 0.95002 0.28331 0.06680
 C377 C 0.83720 0.25516 0.15947
 C378 C 0.81710 0.24774 0.17292
 H379 H 0.81500 0.27039 0.10554
 H380 H 0.81166 0.28535 0.04801
 H381 H 0.85204 0.29660 0.01601
 H382 H 0.89600 0.29275 0.04122
 H383 H 0.95294 0.27106 0.14123
 H384 H 0.95627 0.25663 0.19906
 H385 H 0.91588 0.24538 0.23110
 H386 H 0.87189 0.24853 0.20555
 C387 C 0.35795 0.76495 0.63852
 C388 C 0.35599 0.77001 0.60387
 C389 C 0.37922 0.77631 0.58529
 C390 C 0.40430 0.77748 0.60146
 C391 C 0.40612 0.77325 0.63626
 C392 C 0.38286 0.76696 0.65486
 C393 C 0.38520 0.76258 0.68956
 C394 C 0.40981 0.76442 0.70548
 C395 C 0.43254 0.77060 0.68731
 C396 C 0.43083 0.77496 0.65307
 C397 C 0.37679 0.78112 0.55063
 C398 C 0.35211 0.77980 0.53482
 C399 C 0.32941 0.77354 0.55295
 C400 C 0.33120 0.76868 0.58707
 C401 C 0.42822 0.78169 0.58182
 C402 C 0.44750 0.78434 0.56421
 C403 C 0.33445 0.75678 0.65690
 C404 C 0.31454 0.74953 0.67095
 H405 H 0.36806 0.75777 0.70474
 H406 H 0.41125 0.76104 0.73206
 H407 H 0.45160 0.77202 0.69980
 H408 H 0.44903 0.77977 0.63998
 H409 H 0.39385 0.78606 0.53541
 H410 H 0.35059 0.78365 0.50834
 H411 H 0.31029 0.77248 0.54052
 H412 H 0.31295 0.76398 0.60009
 C413 C 0.15098 0.71799 0.14127
 C414 C 0.15343 0.70894 0.10797
 C415 C 0.13016 0.70347 0.08910
 C416 C 0.10461 0.70720 0.10362
 C417 C 0.10224 0.71449 0.13756
 C418 C 0.12551 0.71988 0.15648
 C419 C 0.12264 0.72753 0.19025
 C420 C 0.09749 0.72973 0.20494
 C421 C 0.07473 0.72447 0.18642
 C422 C 0.07696 0.71697 0.15308
 C423 C 0.13307 0.69473 0.05573
 C424 C 0.15826 0.69137 0.04147
 C425 C 0.18101 0.69688 0.05987
 C426 C 0.17874 0.70560 0.09275
 C427 C 0.08097 0.70590 0.08286
 C428 C 0.06192 0.70611 0.06456
 C429 C 0.17427 0.72756 0.15887
 C430 C 0.19313 0.73690 0.17314
 H431 H 0.13978 0.73172 0.20568
 H432 H 0.09565 0.73553 0.23084
 H433 H 0.05525 0.72618 0.19795
 H434 H 0.05872 0.71297 0.13968
 H435 H 0.11595 0.69023 0.04041
 H436 H 0.16013 0.68453 0.01597
 H437 H 0.20053 0.69434 0.04863
 H438 H 0.19700 0.70950 0.10616
 C439 C 0.65853 0.21738 0.63443
 C440 C 0.65815 0.22136 0.59953
 C441 C 0.63452 0.21631 0.58122
 C442 C 0.61143 0.20729 0.59796
 C443 C 0.61235 0.20170 0.63250
 C444 C 0.63603 0.20672 0.65080
 C445 C 0.63642 0.20134 0.68540
 C446 C 0.61403 0.19128 0.70148
 C447 C 0.59084 0.18645 0.68359
 C448 C 0.58990 0.19159 0.64947
 C449 C 0.63443 0.22102 0.54641
 C450 C 0.65701 0.23054 0.53024
 C451 C 0.68015 0.23537 0.54815
 C452 C 0.68084 0.23087 0.58240
 C453 C 0.58642 0.20585 0.57993
 C454 C 0.56627 0.20620 0.56359
 C455 C 0.68093 0.22692 0.65371
 C456 C 0.69899 0.23651 0.66925
 H457 H 0.65405 0.20470 0.70028
 H458 H 0.61467 0.18722 0.72796
 H459 H 0.57350 0.17866 0.69620
 H460 H 0.57148 0.18745 0.63652
 H461 H 0.61698 0.21738 0.53133
 H462 H 0.65654 0.23419 0.50367
 H463 H 0.69767 0.24267 0.53545
 H464 H 0.69933 0.23483 0.59526
 C465 C 0.71676 0.15164 0.86756
 C466 C 0.72202 0.14948 0.90211
 C467 C 0.71479 0.12593 0.91966
 C468 C 0.70227 0.10467 0.90256
 C469 C 0.69581 0.10739 0.86841
 C470 C 0.70308 0.13097 0.85084
 C471 C 0.69675 0.13312 0.81660
 C472 C 0.68357 0.11255 0.80018
 C473 C 0.67648 0.08949 0.81737
 C474 C 0.68250 0.08682 0.85111
 C475 C 0.72074 0.12404 0.95409
 C476 C 0.73355 0.14477 0.97062
 C477 C 0.74051 0.16785 0.95347
 C478 C 0.73486 0.17030 0.91962
 C479 C 0.69761 0.07961 0.91993
 C480 C 0.69525 0.05935 0.93600
 C481 C 0.72744 0.17403 0.84895
 C482 C 0.73782 0.19216 0.83415
 H483 H 0.70179 0.15072 0.80226
 H484 H 0.67882 0.11453 0.77399
 H485 H 0.66625 0.07358 0.80449
 H486 H 0.67654 0.06857 0.86349
 H487 H 0.71556 0.10659 0.96863
 H488 H 0.73807 0.14292 0.99689
 H489 H 0.75036 0.18395 0.96646
 H490 H 0.74061 0.18869 0.90739
 C491 C 0.21515 0.65159 0.36967
 C492 C 0.21990 0.64999 0.40437
 C493 C 0.21268 0.62658 0.42224
 C494 C 0.20065 0.60496 0.40529
 C495 C 0.19447 0.60723 0.37102
 C496 C 0.20177 0.63063 0.35312
 C497 C 0.19580 0.63230 0.31874
 C498 C 0.18286 0.61147 0.30253
 C499 C 0.17569 0.58861 0.32005
 C500 C 0.18142 0.58639 0.35392
 C501 C 0.21819 0.62520 0.45681
 C502 C 0.23050 0.64632 0.47319
 C503 C 0.23740 0.66927 0.45574
 C504 C 0.23223 0.67120 0.42172
 C505 C 0.19647 0.57992 0.42286
 C506 C 0.19460 0.55959 0.43891
 C507 C 0.22613 0.67366 0.35073
 C508 C 0.23668 0.69146 0.33554
 H509 H 0.20091 0.64975 0.30414
 H510 H 0.17836 0.61309 0.27623
 H511 H 0.16562 0.57250 0.30735
 H512 H 0.17540 0.56827 0.36658
 H513 H 0.21301 0.60787 0.47158
 H514 H 0.23468 0.64487 0.49958
 H515 H 0.24685 0.68568 0.46861
 H516 H 0.23791 0.68949 0.40923
 C517 C 0.27048 0.86111 0.84605
 C518 C 0.25786 0.88611 0.83923
 C519 C 0.26280 0.90858 0.86002
 C520 C 0.28033 0.90587 0.88751
 C521 C 0.29416 0.88130 0.89311
 C522 C 0.28925 0.85886 0.87229
 C523 C 0.30302 0.83438 0.87867
 C524 C 0.32113 0.83215 0.90489
 C525 C 0.32589 0.85409 0.92529
 C526 C 0.31261 0.87843 0.91960
 C527 C 0.24963 0.93327 0.85304
 C528 C 0.23210 0.93570 0.82623
 C529 C 0.22728 0.91371 0.80591
 C530 C 0.23993 0.88914 0.81224
 C531 C 0.28265 0.92762 0.91135
 C532 C 0.28383 0.94518 0.93194
 C533 C 0.26232 0.83718 0.82837
 C534 C 0.25478 0.81677 0.81556
 H535 H 0.30006 0.81680 0.86339
 H536 H 0.33152 0.81329 0.90938
 H537 H 0.33997 0.85225 0.94563
 H538 H 0.31705 0.89497 0.93606
 H539 H 0.25282 0.95094 0.86810
 H540 H 0.22222 0.95474 0.82120
 H541 H 0.21366 0.91571 0.78511
 H542 H 0.23566 0.87262 0.79568
 C543 C 0.77215 0.35491 0.35151
 C544 C 0.76527 0.38076 0.33933
 C545 C 0.77016 0.40379 0.35917
 C546 C 0.78190 0.40080 0.39104
 C547 C 0.79001 0.37507 0.40250
 C548 C 0.78512 0.35205 0.38267
 C549 C 0.79305 0.32648 0.39486
 C550 C 0.80548 0.32375 0.42574
 C551 C 0.81026 0.34626 0.44513
 C552 C 0.80264 0.37168 0.43379
 C553 C 0.76278 0.42941 0.34668
 C554 C 0.75094 0.43219 0.31544
 C555 C 0.74616 0.40966 0.29605
 C556 C 0.75319 0.38418 0.30775
 C557 C 0.78400 0.42382 0.41301
 C558 C 0.78496 0.44241 0.43213
 C559 C 0.76409 0.33116 0.33341
 C560 C 0.75662 0.31101 0.31995
 H561 H 0.78985 0.30838 0.38063
 H562 H 0.81145 0.30405 0.43465
 H563 H 0.81995 0.34404 0.46907
 H564 H 0.80686 0.38859 0.44973
 H565 H 0.76617 0.44751 0.36084
 H566 H 0.74545 0.45194 0.30623
 H567 H 0.73698 0.41193 0.27180
 H568 H 0.74917 0.36724 0.29175
 C569 C 0.15160 0.28142 0.85978
 C570 C 0.12635 0.27874 0.84442
 C571 C 0.10269 0.28415 0.86294
 C572 C 0.10445 0.29222 0.89663
 C573 C 0.12970 0.29666 0.91127
 C574 C 0.15336 0.29119 0.89279
 C575 C 0.17839 0.29522 0.90815
 C576 C 0.17998 0.30458 0.94079
 C577 C 0.15684 0.31007 0.95881
 C578 C 0.13193 0.30607 0.94441
 C579 C 0.07766 0.28087 0.84732
 C580 C 0.07604 0.27254 0.81426
 C581 C 0.09917 0.26725 0.79613
 C582 C 0.12410 0.27025 0.81092
 C583 C 0.08060 0.29357 0.91712
 C584 C 0.06141 0.29343 0.93521
 C585 C 0.17545 0.27185 0.84269
 C586 C 0.19480 0.26247 0.82884
 H587 H 0.19693 0.29135 0.89503
 H588 H 0.19928 0.30762 0.95215
 H589 H 0.15818 0.31738 0.98414
 H590 H 0.11448 0.31059 0.95942
 H591 H 0.05913 0.28485 0.86042
 H592 H 0.05672 0.27020 0.80265
 H593 H 0.09781 0.26078 0.77046
 H594 H 0.14154 0.26599 0.79579
 C595 C 0.65363 0.77957 0.36059
 C596 C 0.63030 0.78961 0.34478
 C597 C 0.60695 0.79508 0.36391
 C598 C 0.60713 0.79046 0.39868
 C599 C 0.63095 0.78194 0.41475
 C600 C 0.65428 0.77650 0.39563
 C601 C 0.67774 0.76756 0.41214
 C602 C 0.67810 0.76398 0.44656
 C603 C 0.65525 0.76917 0.46526
 C604 C 0.63193 0.77815 0.44971
 C605 C 0.58372 0.80468 0.34753
 C606 C 0.58357 0.80883 0.31319
 C607 C 0.60639 0.80347 0.29448
 C608 C 0.62955 0.79393 0.30996
 C609 C 0.58258 0.79249 0.41775
 C610 C 0.56279 0.79280 0.43484
 C611 C 0.67600 0.76992 0.34075
 C612 C 0.69414 0.76032 0.32479
 H613 H 0.69603 0.76332 0.39865
 H614 H 0.69620 0.75709 0.45878
 H615 H 0.65560 0.76621 0.49197
 H616 H 0.61473 0.78209 0.46538
 H617 H 0.56553 0.80919 0.36111
 H618 H 0.56564 0.81624 0.30105
 H619 H 0.60617 0.80672 0.26781
 H620 H 0.64686 0.79013 0.29442
 C621 C 0.86121 0.73689 0.85727
 C622 C 0.86090 0.74039 0.89230
 C623 C 0.88419 0.73451 0.91126
 C624 C 0.90766 0.72503 0.89512
 C625 C 0.90782 0.72103 0.86020
 C626 C 0.88452 0.72699 0.84121
 C627 C 0.88519 0.72301 0.80634
 C628 C 0.90824 0.71339 0.79064
 C629 C 0.93101 0.70755 0.80920
 C630 C 0.93092 0.71130 0.84361
 C631 C 0.88345 0.73850 0.94620
 C632 C 0.86041 0.74806 0.96192
 C633 C 0.83760 0.75367 0.94342
 C634 C 0.83771 0.74992 0.90903
 C635 C 0.93166 0.72025 0.91463
 C636 C 0.95083 0.71720 0.93245
 C637 C 0.83767 0.74427 0.83806
 C638 C 0.81748 0.75124 0.82399
 H639 H 0.86794 0.72725 0.79090
 H640 H 0.90842 0.71044 0.76392
 H641 H 0.94886 0.70008 0.79687
 H642 H 0.94909 0.70648 0.85703
 H643 H 0.90063 0.73434 0.96178
 H644 H 0.86027 0.75114 0.98861
 H645 H 0.81971 0.76102 0.95576
 H646 H 0.81943 0.75459 0.89578
 C647 C 0.36586 0.24130 0.35268
 C648 C 0.38347 0.26203 0.36164
 C649 C 0.40636 0.25603 0.38131
 C650 C 0.41148 0.22933 0.39195
 C651 C 0.39451 0.20843 0.38175
 C652 C 0.37165 0.21443 0.36200
 C653 C 0.35485 0.19325 0.35232
 C654 C 0.36047 0.16687 0.36189
 C655 C 0.38279 0.16102 0.38127
 C656 C 0.39968 0.18149 0.39118
 C657 C 0.42352 0.27715 0.39025
 C658 C 0.41822 0.30342 0.38004
 C659 C 0.39582 0.30929 0.36085
 C660 C 0.37856 0.28892 0.35170
 C661 C 0.43339 0.22378 0.41472
 C662 C 0.45127 0.22014 0.43435
 C663 C 0.34094 0.24797 0.33597
 C664 C 0.31986 0.25413 0.32345
 H665 H 0.33731 0.19683 0.33716
 H666 H 0.34744 0.15089 0.35421
 H667 H 0.38706 0.14050 0.38865
 H668 H 0.41684 0.17596 0.40617
 H669 H 0.44124 0.27359 0.40509
 H670 H 0.43158 0.31932 0.38706
 H671 H 0.39179 0.32974 0.35298
 H672 H 0.36144 0.29447 0.33666
 C673 C 0.71671 0.84984 0.86650
 C674 C 0.70352 0.87121 0.84969
 C675 C 0.69600 0.89484 0.86743
 C676 C 0.70163 0.89686 0.90185
 C677 C 0.71348 0.87488 0.91903
 C678 C 0.72106 0.85130 0.90128
 C679 C 0.73331 0.82977 0.91884
 C680 C 0.73802 0.83151 0.95296
 C681 C 0.73070 0.85459 0.97032
 C682 C 0.71847 0.87604 0.95373
 C683 C 0.68327 0.91614 0.85003
 C684 C 0.67800 0.91411 0.81605
 C685 C 0.68530 0.89097 0.79871
 C686 C 0.69796 0.86971 0.81520
 C687 C 0.69699 0.92195 0.91944
 C688 C 0.69471 0.94220 0.93566
 C689 C 0.72784 0.82740 0.84779
 C690 C 0.73849 0.80923 0.83278
 H691 H 0.73931 0.81136 0.90643
 H692 H 0.74742 0.81486 0.96599
 H693 H 0.73448 0.85588 0.99681
 H694 H 0.71295 0.89346 0.96843
 H695 H 0.67718 0.93448 0.86254
 H696 H 0.66819 0.93056 0.80311
 H697 H 0.68112 0.88948 0.77232
 H698 H 0.70319 0.85208 0.80073
 C699 C 0.21717 0.35300 0.36174
 C700 C 0.21749 0.37835 0.34578
 C701 C 0.20968 0.40182 0.36364
 C702 C 0.20157 0.39977 0.39731
 C703 C 0.19960 0.37424 0.41256
 C704 C 0.20746 0.35078 0.39472
 C705 C 0.20577 0.32553 0.41067
 C706 C 0.19646 0.32350 0.44329
 C707 C 0.18870 0.34643 0.46070
 C708 C 0.19032 0.37158 0.44570
 C709 C 0.21062 0.42699 0.34740
 C710 C 0.21895 0.42892 0.31437
 C711 C 0.22657 0.40597 0.29687
 C712 C 0.22591 0.38092 0.31229
 C713 C 0.19764 0.42386 0.41718
 C714 C 0.19574 0.44329 0.43495
 C715 C 0.22882 0.32970 0.34518
 C716 C 0.23970 0.31092 0.33159
 H717 H 0.21147 0.30713 0.39804
 H718 H 0.19524 0.30402 0.45510
 H719 H 0.18147 0.34475 0.48603
 H720 H 0.18406 0.38884 0.46026
 H721 H 0.20477 0.44537 0.35998
 H722 H 0.21949 0.44832 0.30228
 H723 H 0.23301 0.40757 0.27121
 H724 H 0.23192 0.36363 0.29763
 C725 C 0.27243 0.14158 0.85257
 C726 C 0.28805 0.14372 0.88180
 C727 C 0.29294 0.12070 0.90191
 C728 C 0.28222 0.09567 0.89262
 C729 C 0.26787 0.09323 0.86244
 C730 C 0.26295 0.11628 0.84234
 C731 C 0.24820 0.11346 0.81255
 C732 C 0.23863 0.08855 0.80282
 C733 C 0.24345 0.06600 0.82246
 C734 C 0.25786 0.06821 0.85198
 C735 C 0.30821 0.12341 0.93133
 C736 C 0.31841 0.14817 0.94059
 C737 C 0.31366 0.17069 0.92090
 C738 C 0.29864 0.16862 0.89184
 C739 C 0.28430 0.07302 0.91527
 C740 C 0.28516 0.05467 0.93484
 C741 C 0.26432 0.16571 0.83473
 C742 C 0.25680 0.18619 0.82151
 H743 H 0.24404 0.13042 0.79642
 H744 H 0.22744 0.08672 0.77991
 H745 H 0.23598 0.04670 0.81478
 H746 H 0.26118 0.05011 0.86639
 H747 H 0.31252 0.10644 0.94738
 H748 H 0.33007 0.14988 0.96315
 H749 H 0.32164 0.18988 0.92818
 H750 H 0.29555 0.18668 0.87728
 C751 C 0.76998 0.63822 0.34223
 C752 C 0.78910 0.64008 0.36804
 C753 C 0.79426 0.61765 0.38909
 C754 C 0.78032 0.59348 0.38411
 C755 C 0.76248 0.59110 0.35698
 C756 C 0.75729 0.61355 0.33597
 C757 C 0.73906 0.61086 0.30934
 C758 C 0.72635 0.58662 0.30355
 C759 C 0.73142 0.56465 0.32408
 C760 C 0.74924 0.56676 0.35056
 C761 C 0.81307 0.62014 0.41513
 C762 C 0.82649 0.64409 0.42017
 C763 C 0.82147 0.66601 0.39956
 C764 C 0.80299 0.66415 0.37378
 C765 C 0.78287 0.57186 0.40822
 C766 C 0.78415 0.55435 0.42893
 C767 C 0.76154 0.66227 0.32445
 C768 C 0.75373 0.68278 0.31155
 H769 H 0.73458 0.62737 0.29263
 H770 H 0.71251 0.58487 0.28301
 H771 H 0.72151 0.54587 0.31947
 H772 H 0.75261 0.54912 0.36580
 H773 H 0.81770 0.60360 0.43173
 H774 H 0.84086 0.64563 0.44017
 H775 H 0.83197 0.68456 0.40355
 H776 H 0.79984 0.68170 0.35831
 C777 C 0.15512 0.72197 0.86379
 C778 C 0.15498 0.72542 0.89879
 C779 C 0.13147 0.72010 0.91729
 C780 C 0.10826 0.71130 0.90068
 C781 C 0.10889 0.70641 0.86596
 C782 C 0.13242 0.71175 0.84746
 C783 C 0.13249 0.70708 0.81269
 C784 C 0.10995 0.69737 0.79667
 C785 C 0.08693 0.69217 0.81478
 C786 C 0.08629 0.69662 0.84905
 C787 C 0.13164 0.72425 0.95221
 C788 C 0.15435 0.73347 0.96829
 C789 C 0.17738 0.73854 0.95020
 C790 C 0.17780 0.73461 0.91583
 C791 C 0.08347 0.70911 0.91913
 C792 C 0.06347 0.70862 0.93580
 C793 C 0.17765 0.73128 0.84446
 C794 C 0.19587 0.74052 0.82879
 H795 H 0.14998 0.71074 0.79762
 H796 H 0.11036 0.69386 0.77006
 H797 H 0.06948 0.68463 0.80221
 H798 H 0.06798 0.69222 0.86214
 H799 H 0.11429 0.72040 0.96744
 H800 H 0.15408 0.73671 0.99495
 H801 H 0.19500 0.74560 0.96283
 H802 H 0.19621 0.73877 0.90283
 C803 C 0.65372 0.21653 0.35895
 C804 C 0.65566 0.20676 0.39197
 C805 C 0.63209 0.20155 0.41044
 C806 C 0.60675 0.20623 0.39576
 C807 C 0.60486 0.21424 0.36202
 C808 C 0.62843 0.21940 0.34354
 C809 C 0.62604 0.22789 0.31001
 C810 C 0.60107 0.23110 0.29515
 C811 C 0.57802 0.22602 0.31324
 C812 C 0.57978 0.21771 0.34633
 C813 C 0.63449 0.19217 0.44360
 C814 C 0.65948 0.18792 0.45803
 C815 C 0.68253 0.19313 0.44001
 C816 C 0.68076 0.20248 0.40734
 C817 C 0.58291 0.20534 0.41627
 C818 C 0.56371 0.20598 0.43438
 C819 C 0.67735 0.22594 0.34188
 C820 C 0.69637 0.23525 0.32787
 H821 H 0.64341 0.23198 0.29490
 H822 H 0.59961 0.23755 0.26946
 H823 H 0.55868 0.22852 0.30158
 H824 H 0.56132 0.21390 0.35939
 H825 H 0.61713 0.18785 0.45861
 H826 H 0.66097 0.18063 0.48338
 H827 H 0.70189 0.18989 0.45138
 H828 H 0.69922 0.20615 0.39422
 C829 C 0.85867 0.26375 0.86202
 C830 C 0.88104 0.27526 0.84629
 C831 C 0.90407 0.28143 0.86532
 C832 C 0.90452 0.27607 0.89994
 C833 C 0.88191 0.26510 0.91582
 C834 C 0.85894 0.25889 0.89680
 C835 C 0.83665 0.24772 0.91319
 C836 C 0.83708 0.24281 0.94736
 C837 C 0.85955 0.24887 0.96596
 C838 C 0.88173 0.25994 0.95054
 C839 C 0.92626 0.29278 0.84906
 C840 C 0.92570 0.29797 0.81494
 C841 C 0.90318 0.29195 0.79634
 C842 C 0.88105 0.28070 0.81170
 C843 C 0.92840 0.28088 0.91932
 C844 C 0.94767 0.28384 0.93678
 C845 C 0.83548 0.25634 0.84268
 C846 C 0.81567 0.24945 0.82823
 H847 H 0.81867 0.24265 0.89986
 H848 H 0.81987 0.23424 0.95947
 H849 H 0.85981 0.24496 0.99248
 H850 H 0.89868 0.26440 0.96616
 H851 H 0.94419 0.29782 0.86253
 H852 H 0.94284 0.30671 0.80289
 H853 H 0.90285 0.29603 0.76985
 H854 H 0.86397 0.27638 0.79624
 C855 C 0.35938 0.76056 0.35897
 C856 C 0.38057 0.77443 0.34367
 C857 C 0.40377 0.78065 0.36239
 C858 C 0.40558 0.77300 0.39629
 C859 C 0.38419 0.75946 0.41173
 C860 C 0.36106 0.75319 0.39301
 C861 C 0.34001 0.73954 0.40900
 C862 C 0.34176 0.73230 0.44246
 C863 C 0.36438 0.73841 0.46075
 C864 C 0.38538 0.75186 0.44573
 C865 C 0.42472 0.79446 0.34656
 C866 C 0.42280 0.80199 0.31319
 C867 C 0.40012 0.79593 0.29491
 C868 C 0.37919 0.78229 0.30985
 C869 C 0.42944 0.77851 0.41549
 C870 C 0.44857 0.78206 0.43304
 C871 C 0.33578 0.75363 0.34003
 C872 C 0.31556 0.74711 0.32613
 H873 H 0.32197 0.73432 0.39590
 H874 H 0.32547 0.72189 0.45426
 H875 H 0.36565 0.73274 0.48674
 H876 H 0.40248 0.75623 0.46111
 H877 H 0.44273 0.79963 0.35980
 H878 H 0.43899 0.81259 0.30145
 H879 H 0.39873 0.80184 0.26901
 H880 H 0.36193 0.77802 0.29466
 C881 C 0.26949 0.85647 0.15010
 C882 C 0.25804 0.88177 0.15827
 C883 C 0.26325 0.90446 0.13793
 C884 C 0.27986 0.90168 0.10954
 C885 C 0.29245 0.87670 0.10242
 C886 C 0.28727 0.85403 0.12280
 C887 C 0.29982 0.82918 0.11494
 C888 C 0.31699 0.82680 0.08774
 C889 C 0.32202 0.84896 0.06779
 C890 C 0.30993 0.87368 0.07492
 C891 C 0.25128 0.92947 0.14631
 C892 C 0.23467 0.93201 0.17403
 C893 C 0.22957 0.90981 0.19390
 C894 C 0.24105 0.88492 0.18621
 C895 C 0.28250 0.92392 0.08645
 C896 C 0.28385 0.94201 0.06660
 C897 C 0.26130 0.83261 0.16792
 C898 C 0.25374 0.81239 0.18119
 H899 H 0.29660 0.81140 0.12980
 H900 H 0.32646 0.80765 0.08212
 H901 H 0.33537 0.84701 0.04668
 H902 H 0.31453 0.89037 0.05875
 H903 H 0.25473 0.94732 0.13164
 H904 H 0.22571 0.95130 0.18012
 H905 H 0.21667 0.91189 0.21541
 H906 H 0.23658 0.86824 0.20246
 C907 C 0.77285 0.35739 0.64887
 C908 C 0.76521 0.38327 0.66023
 C909 C 0.77007 0.40612 0.64001
 C910 C 0.78252 0.40291 0.60856
 C911 C 0.79147 0.37719 0.59802
 C912 C 0.78663 0.35436 0.61825
 C913 C 0.79543 0.32879 0.60696
 C914 C 0.80865 0.32588 0.57659
 C915 C 0.81337 0.34820 0.55682
 C916 C 0.80491 0.37361 0.56726
 C917 C 0.76193 0.43176 0.65167
 C918 C 0.74940 0.43476 0.68248
 C919 C 0.74464 0.41242 0.70225
 C920 C 0.75239 0.38690 0.69135
 C921 C 0.78447 0.42561 0.58602
 C922 C 0.78531 0.44388 0.56638
 C923 C 0.76471 0.33370 0.66711
 C924 C 0.75721 0.31349 0.68046
 H925 H 0.79231 0.31084 0.62153
 H926 H 0.81528 0.30618 0.56838
 H927 H 0.82369 0.34583 0.53328
 H928 H 0.80913 0.39038 0.55106
 H929 H 0.76529 0.44973 0.63720
 H930 H 0.74335 0.45453 0.69107
 H931 H 0.73492 0.41486 0.72617
 H932 H 0.74837 0.37011 0.70761
 C933 C 0.71637 0.14891 0.13577
 C934 C 0.70702 0.15110 0.10262
 C935 C 0.69881 0.12777 0.08530
 C936 C 0.70014 0.10241 0.10122
 C937 C 0.70791 0.10050 0.13501
 C938 C 0.71601 0.12384 0.15238
 C939 C 0.72401 0.12139 0.18606
 C940 C 0.72401 0.09659 0.20211
 C941 C 0.71615 0.07375 0.18507
 C942 C 0.70820 0.07556 0.15188
 C943 C 0.68979 0.13038 0.05203
 C944 C 0.68880 0.15535 0.03639
 C945 C 0.69697 0.17813 0.05329
 C946 C 0.70603 0.17615 0.08603
 C947 C 0.69600 0.07822 0.08191
 C948 C 0.69404 0.05856 0.06466
 C949 C 0.72817 0.17189 0.15201
 C950 C 0.73904 0.19030 0.16561
 H951 H 0.73020 0.13861 0.20038
 H952 H 0.73013 0.09508 0.22790
 H953 H 0.71619 0.05453 0.19765
 H954 H 0.70214 0.05728 0.13967
 H955 H 0.68325 0.11322 0.03786
 H956 H 0.68175 0.15700 0.01098
 H957 H 0.69626 0.19746 0.04098
 H958 H 0.71206 0.19444 0.09823
 C959 C 0.21614 0.64783 0.63898
 C960 C 0.20603 0.64972 0.60614
 C961 C 0.19840 0.62611 0.58896
 C962 C 0.20112 0.60076 0.60466
 C963 C 0.20971 0.59906 0.63816
 C964 C 0.21718 0.62268 0.65542
 C965 C 0.22598 0.62046 0.68881
 C966 C 0.22737 0.59560 0.70468
 C967 C 0.22013 0.57249 0.68776
 C968 C 0.21141 0.57408 0.65485
 C969 C 0.18856 0.62846 0.55603
 C970 C 0.18625 0.65343 0.54056
 C971 C 0.19390 0.67649 0.55727
 C972 C 0.20371 0.67477 0.58969
 C973 C 0.19742 0.57648 0.58532
 C974 C 0.19566 0.55693 0.56784
 C975 C 0.22731 0.67128 0.65490
 C976 C 0.23773 0.69025 0.66788
 H977 H 0.23173 0.63789 0.70301
 H978 H 0.23408 0.59427 0.73026
 H979 H 0.22124 0.55323 0.70021
 H980 H 0.20588 0.55559 0.64272
 H981 H 0.18238 0.61110 0.54199
 H982 H 0.17860 0.65487 0.51540
 H983 H 0.19219 0.69581 0.54508
 H984 H 0.20928 0.69327 0.60177
 C985 C 0.85760 0.73324 0.13662
 C986 C 0.85575 0.72416 0.10328
 C987 C 0.87933 0.71799 0.08497
 C988 C 0.90464 0.72099 0.10008
 C989 C 0.90646 0.72909 0.13378
 C990 C 0.88285 0.73520 0.15213
 C991 C 0.88515 0.74343 0.18572
 C992 C 0.91008 0.74556 0.20077
 C993 C 0.93316 0.73964 0.18281
 C994 C 0.93149 0.73150 0.14967
 C995 C 0.87698 0.70915 0.05158
 C996 C 0.85205 0.70642 0.03676
 C997 C 0.82899 0.71252 0.05464
 C998 C 0.83069 0.72131 0.08751
 C999 C 0.92864 0.71723 0.08023
 C1000 C 0.94797 0.71495 0.06252
 C1001 C 0.83359 0.74168 0.15425
 C1002 C 0.81329 0.74916 0.16772
 H1003 H 0.86775 0.74819 0.20070
 H1004 H 0.91149 0.75183 0.22652
 H1005 H 0.95247 0.74133 0.19461
 H1006 H 0.94998 0.72704 0.13671
 H1007 H 0.89433 0.70416 0.03663
 H1008 H 0.85063 0.69956 0.01125
 H1009 H 0.80966 0.71042 0.04298
 H1010 H 0.81217 0.72573 0.10040
 C1011 C 0.36926 0.24163 0.65416
 C1012 C 0.37599 0.21462 0.64655
 C1013 C 0.39869 0.20866 0.62642
 C1014 C 0.41451 0.22975 0.61404
 C1015 C 0.40853 0.25667 0.62307
 C1016 C 0.38586 0.26261 0.64320
 C1017 C 0.38009 0.28969 0.65155
 C1018 C 0.39627 0.31032 0.64033
 C1019 C 0.41842 0.30452 0.62061
 C1020 C 0.42458 0.27805 0.61200
 C1021 C 0.40483 0.18155 0.61877
 C1022 C 0.38903 0.16088 0.63075
 C1023 C 0.36685 0.16670 0.65045
 C1024 C 0.36029 0.19324 0.65830
 C1025 C 0.43598 0.22410 0.59058
 C1026 C 0.45339 0.22036 0.57026
 C1027 C 0.34421 0.24810 0.67078
 C1028 C 0.32294 0.25423 0.68288
 H1029 H 0.36313 0.29521 0.66693
 H1030 H 0.39158 0.33092 0.64698
 H1031 H 0.43093 0.32062 0.61195
 H1032 H 0.44207 0.27455 0.59669
 H1033 H 0.42193 0.17605 0.60360
 H1034 H 0.39404 0.14023 0.62473
 H1035 H 0.35467 0.15057 0.65971
 H1036 H 0.34291 0.19681 0.67380
 C1037 C 0.15523 0.27938 0.13712
 C1038 C 0.13217 0.28954 0.15348
 C1039 C 0.10853 0.29493 0.13495
 C1040 C 0.10815 0.29013 0.10022
 C1041 C 0.13168 0.28139 0.08359
 C1042 C 0.15530 0.27603 0.10211
 C1043 C 0.17845 0.26689 0.08507
 C1044 C 0.17824 0.26305 0.05069
 C1045 C 0.15511 0.26816 0.03258
 C1046 C 0.13207 0.27733 0.04867
 C1047 C 0.08557 0.30464 0.15187
 C1048 C 0.08598 0.30898 0.18617
 C1049 C 0.10911 0.30372 0.20430
 C1050 C 0.13200 0.29407 0.18827
 C1051 C 0.08333 0.29226 0.08176
 C1052 C 0.06336 0.29262 0.06510
 C1053 C 0.17798 0.26998 0.15642
 C1054 C 0.19648 0.26065 0.17193
 H1055 H 0.19695 0.26269 0.09808
 H1056 H 0.19612 0.25602 0.03806
 H1057 H 0.15501 0.26500 0.00591
 H1058 H 0.11463 0.28120 0.03342
 H1059 H 0.06716 0.30908 0.13877
 H1060 H 0.06826 0.31647 0.19874
 H1061 H 0.10933 0.30713 0.23092
 H1062 H 0.14956 0.29035 0.20335
 C1063 C 0.65173 0.78337 0.64019
 C1064 C 0.62649 0.78135 0.65581
 C1065 C 0.60283 0.78667 0.63731
 C1066 C 0.60457 0.79406 0.60335
 C1067 C 0.62984 0.79799 0.58845
 C1068 C 0.65350 0.79260 0.60693
 C1069 C 0.67854 0.79618 0.59136
 C1070 C 0.68016 0.80505 0.55850
 C1071 C 0.65702 0.81043 0.54045
 C1072 C 0.63210 0.80684 0.55507
 C1073 C 0.57781 0.78400 0.65323
 C1074 C 0.57622 0.77642 0.68659
 C1075 C 0.59936 0.77127 0.70472
 C1076 C 0.62427 0.77363 0.68962
 C1077 C 0.58067 0.79522 0.58296
 C1078 C 0.56143 0.79486 0.56499
 C1079 C 0.67548 0.77362 0.65728
 C1080 C 0.69466 0.76403 0.67125
 H1081 H 0.69706 0.79238 0.60449
 H1082 H 0.69947 0.80780 0.54699
 H1083 H 0.65839 0.81736 0.51496
 H1084 H 0.61466 0.81127 0.54004
 H1085 H 0.55929 0.78791 0.64015
 H1086 H 0.55692 0.77456 0.69844
 H1087 H 0.59802 0.76542 0.73063
 H1088 H 0.64172 0.76952 0.70475
   
