data_POSCAR
  _audit_creation_date              2014-09-24
  _audit_creation_method            'ToBaCCo'
  _symmetry_space_group_name_H-M    'P1'
  _symmetry_Int_Tables_number       1
  _symmetry_cell_setting            triclinic
  loop_
  _symmetry_equiv_pos_as_xyz
 x,y,z
_cell_length_a 27.5265
_cell_length_b 27.7396
_cell_length_c 21.3797
_cell_angle_alpha 91.614200
_cell_angle_beta 89.708800
_cell_angle_gamma 121.114900
loop_
  _atom_site_label
  _atom_site_type_symbol
  _atom_site_fract_x
  _atom_site_fract_y
  _atom_site_fract_z
C1 C 0.04164 0.52130 0.03946
 C2 C 0.04827 0.57106 0.01518
 C3 C 0.00620 0.56758 -0.02470
 C4 C -0.04286 0.51490 -0.03929
 C5 C -0.04543 0.46424 -0.02191
 C6 C -0.00317 0.46893 0.01902
 H7 H -0.00396 0.43208 0.03557
 H8 H 0.00950 0.60616 -0.03971
 C9 C 0.53350 0.56326 0.03246
 C10 C 0.47431 0.52804 0.02113
 C11 C 0.45427 0.47947 -0.01726
 C12 C 0.49111 0.46437 -0.04557
 C13 C 0.55051 0.49997 -0.03474
 C14 C 0.57013 0.54794 0.00492
 H15 H 0.61547 0.57578 0.01180
 H16 H 0.40878 0.45202 -0.02298
 C17 C 0.47026 0.98495 0.06715
 C18 C 0.51973 0.98198 0.07293
 C19 C 0.56543 1.01396 0.03335
 C20 C 0.56352 1.04781 -0.01358
 C21 C 0.51125 1.04572 -0.02364
 C22 C 0.46625 1.01480 0.01774
 H23 H 0.42684 1.01424 0.01149
 H24 H 0.60306 1.01139 0.03928
 C25 C 0.96161 0.50660 0.51398
 C26 C 0.94858 0.45020 0.51888
 C27 C 0.98447 0.43382 0.49150
 C28 C 1.03245 0.47171 0.45775
 C29 C 1.04564 0.52831 0.45283
 C30 C 1.00885 0.54412 0.47902
 H31 H 1.01985 0.58760 0.47659
 H32 H 0.97342 0.39032 0.49414
 C33 C 0.47791 0.43333 0.52933
 C34 C 0.53412 0.47725 0.51933
 C35 C 0.54437 0.52254 0.48258
 C36 C 0.49985 0.52409 0.45226
 C37 C 0.44326 0.48072 0.46386
 C38 C 0.43346 0.43704 0.50332
 H39 H 0.39022 0.40353 0.51138
 H40 H 0.58797 0.55551 0.47496
 C41 C 0.54335 0.02976 0.52806
 C42 C 0.49799 0.03984 0.53620
 C43 C 0.44244 -0.00254 0.51906
 C44 C 0.43196 -0.05334 0.49124
 C45 C 0.47840 -0.05945 0.47447
 C46 C 0.53305 -0.01913 0.49512
 H47 H 0.56769 -0.02589 0.48490
 H48 H 0.40724 0.00358 0.52868
 O49 O 0.18099 0.46339 0.16896
 O50 O 0.26535 0.43501 0.27972
 O51 O 0.16677 0.42122 0.27670
 O52 O 0.28038 0.46536 0.16044
 O53 O 0.31964 0.55426 0.19237
 O54 O 0.20938 0.50916 0.31378
 O55 O 0.31164 0.52505 0.30918
 O56 O 0.22380 0.55103 0.20687
 Cu57 Cu 0.22074 0.43789 0.21601
 Cu58 Cu 0.27092 0.54356 0.25892
 C59 C 0.18539 0.51140 0.17362
 C60 C 0.30156 0.47552 0.31461
 C61 C 0.16883 0.45801 0.31493
 C62 C 0.31898 0.51669 0.15632
 O63 O 0.54767 0.81553 0.33813
 O64 O 0.59768 0.75950 0.21027
 O65 O 0.58244 0.84679 0.22758
 O66 O 0.56933 0.73361 0.32377
 O67 O 0.48088 0.67712 0.29102
 O68 O 0.49425 0.79286 0.19302
 O69 O 0.50924 0.70676 0.17613
 O70 O 0.45985 0.75946 0.30287
 Cu71 Cu 0.58322 0.79433 0.27810
 Cu72 Cu 0.47752 0.72832 0.23735
 C73 C 0.49516 0.79901 0.33890
 C74 C 0.56103 0.72172 0.17304
 C75 C 0.54012 0.84063 0.19695
 C76 C 0.52408 0.68576 0.32234
 O77 O 0.26168 0.84362 0.21899
 O78 O 0.16760 0.71650 0.31011
 O79 O 0.24117 0.82079 0.33663
 O80 O 0.17072 0.74261 0.18942
 O81 O 0.23437 0.71751 0.17732
 O82 O 0.30031 0.78950 0.32752
 O83 O 0.22858 0.68834 0.29361
 O84 O 0.32182 0.81370 0.20937
 Cu85 Cu 0.20352 0.78309 0.26349
 Cu86 Cu 0.27715 0.74984 0.25065
 C87 C 0.30877 0.85032 0.20004
 C88 C 0.18463 0.68238 0.31971
 C89 C 0.28151 0.81645 0.35811
 C90 C 0.19081 0.71759 0.15786
 O91 O 0.71729 0.54327 0.79738
 O92 O 0.82702 0.57267 0.68013
 O93 O 0.71935 0.54167 0.67495
 O94 O 0.81995 0.56405 0.80405
 O95 O 0.78732 0.47252 0.79932
 O96 O 0.69631 0.45274 0.66744
 O97 O 0.80253 0.48334 0.68041
 O98 O 0.68679 0.45225 0.79043
 Cu99 Cu 0.77404 0.56479 0.73900
 Cu100 Cu 0.74041 0.45672 0.73282
 C101 C 0.68462 0.49335 0.81511
 C102 C 0.83378 0.53291 0.66090
 C103 C 0.69128 0.49282 0.64901
 C104 C 0.81790 0.52055 0.82527
 O105 O 0.43175 0.15521 0.80997
 O106 O 0.42089 0.23942 0.69028
 O107 O 0.44381 0.16501 0.69385
 O108 O 0.41545 0.24592 0.81267
 O109 O 0.50721 0.30131 0.83056
 O110 O 0.53518 0.22988 0.70085
 O111 O 0.50996 0.30693 0.70813
 O112 O 0.52409 0.21360 0.82095
 Cu113 Cu 0.41848 0.19622 0.75445
 Cu114 Cu 0.52800 0.26919 0.76782
 C115 C 0.47942 0.16649 0.83157
 C116 C 0.46328 0.28713 0.67792
 C117 C 0.49453 0.18547 0.67532
 C118 C 0.45665 0.28890 0.83965
 O119 O 0.83834 0.27344 0.80788
 O120 O 0.75397 0.17206 0.68164
 O121 O 0.83196 0.27839 0.68538
 O122 O 0.75427 0.17108 0.80459
 O123 O 0.69269 0.19937 0.81232
 O124 O 0.76640 0.30165 0.69104
 O125 O 0.68899 0.19564 0.69267
 O126 O 0.77781 0.30317 0.81418
 Cu127 Cu 0.80116 0.22127 0.74396
 Cu128 Cu 0.72567 0.25285 0.75316
 C129 C 0.82234 0.30468 0.83330
 C130 C 0.70666 0.16601 0.66638
 C131 C 0.81092 0.30698 0.66669
 C132 C 0.71030 0.16765 0.82885
 N133 N 0.12398 0.55102 0.17894
 N134 N 0.08478 0.55205 0.14511
 C135 C 0.07849 0.52384 0.09068
 C136 C 0.11368 0.50170 0.09053
 C137 C 0.14242 0.52100 0.14729
 H138 H 0.11909 0.47729 0.05379
 H139 H 0.13711 0.56987 0.22351
 H140 H 0.06250 0.57141 0.15957
 N141 N 0.61733 0.67853 0.14211
 N142 N 0.60755 0.63395 0.10777
 C143 C 0.55969 0.61533 0.07335
 C144 C 0.53947 0.65109 0.08560
 C145 C 0.57624 0.68963 0.13017
 H146 H 0.50172 0.64870 0.06812
 H147 H 0.64863 0.69763 0.17698
 H148 H 0.63150 0.61472 0.11122
 N149 N 0.34856 0.94815 0.16275
 N150 N 0.39240 0.98390 0.12922
 C151 C 0.42229 0.95965 0.11143
 C152 C 0.39600 0.90605 0.13456
 C153 C 0.34966 0.90048 0.16667
 H154 H 0.40644 0.87392 0.12645
 H155 H 0.31863 0.95641 0.18222
 H156 H 0.40123 1.02410 0.11826
 N157 N 0.89037 0.57891 0.56644
 N158 N 0.92223 0.57039 0.52650
 C159 C 0.92939 0.52898 0.54754
 C160 C 0.90176 0.51158 0.60429
 C161 C 0.87667 0.54324 0.61370
 H162 H 0.89883 0.47948 0.63431
 H163 H 0.87594 0.60659 0.55956
 H164 H 0.93677 0.59122 0.48442
 N165 N 0.41541 0.29201 0.58308
 N166 N 0.41926 0.32987 0.54427
 C167 C 0.46309 0.38092 0.56225
 C168 C 0.48861 0.37494 0.61534
 C169 C 0.45683 0.31771 0.62667
 H170 H 0.52378 0.40741 0.64288
 H171 H 0.38483 0.24911 0.57937
 H172 H 0.39233 0.32038 0.50571
 N173 N 0.69242 0.10979 0.56804
 N174 N 0.64956 0.07524 0.53063
 C175 C 0.60092 0.06756 0.55547
 C176 C 0.61369 0.09811 0.61165
 C177 C 0.67191 0.12477 0.61721
 H178 H 0.58493 0.10048 0.64451
 H179 H 0.73498 0.12388 0.55901
 H180 H 0.65408 0.05827 0.48834
 N181 N 0.43857 0.06673 0.85397
 N182 N 0.44880 0.03298 0.89161
 C183 C 0.49753 0.06605 0.92378
 C184 C 0.51945 0.12232 0.90731
 C185 C 0.48056 0.12052 0.86372
 H186 H 0.55583 0.15954 0.92779
 H187 H 0.40315 0.05191 0.82461
 H188 H 0.42101 -0.01030 0.89609
 N189 N 0.67434 0.49519 0.92858
 N190 N 0.63799 0.49945 0.97067
 C191 C 0.59194 0.49069 0.93858
 C192 C 0.59842 0.48163 0.87518
 C193 C 0.65068 0.48504 0.87124
 H194 H 0.57166 0.47880 0.83662
 H195 H 0.71537 0.50468 0.93942
 H196 H 0.64670 0.50946 1.01835
 N197 N 0.86531 0.31688 0.93762
 N198 N 0.90211 0.36090 0.97809
 C199 C 0.91353 0.40992 0.95309
 C200 C 0.88309 0.39733 0.89643
 C201 C 0.85402 0.33901 0.88877
 H202 H 0.88545 0.42654 0.86236
 H203 H 0.85104 0.27439 0.94387
 H204 H 0.91639 0.35483 1.02055
 N205 N 0.43873 0.84318 0.34438
 N206 N 0.43712 0.88311 0.37702
 C207 C 0.47074 0.89662 0.42793
 C208 C 0.49774 0.86588 0.42576
 C209 C 0.47517 0.83181 0.37227
 H210 H 0.53017 0.86917 0.45704
 H211 H 0.41895 0.82768 0.30076
 H212 H 0.41667 0.90348 0.36162
 N213 N 0.30406 0.44992 0.42261
 N214 N 0.34267 0.45583 0.46335
 C215 C 0.39256 0.47552 0.43378
 C216 C 0.38510 0.48181 0.37108
 C217 C 0.32838 0.46494 0.36629
 H218 H 0.41617 0.49662 0.33419
 H219 H 0.26241 0.43800 0.43386
 H220 H 0.33487 0.44710 0.51078
 N221 N 0.18411 0.61431 0.39130
 N222 N 0.14613 0.57247 0.43033
 C223 C 0.09606 0.56994 0.42561
 C224 C 0.10187 0.61214 0.38670
 C225 C 0.15697 0.63742 0.36477
 H226 H 0.06926 0.62046 0.37250
 H227 H 0.22608 0.62500 0.38437
 H228 H 0.15608 0.54835 0.45819
 N229 N 0.81750 0.48388 0.92726
 N230 N 0.85642 0.47856 0.96281
 C231 C 0.90839 0.51395 0.94022
 C232 C 0.90418 0.54395 0.89141
 C233 C 0.84626 0.52227 0.88355
 H234 H 0.93761 0.57095 0.85989
 H235 H 0.77361 0.45633 0.92866
 H236 H 0.84580 0.45012 0.99873
 N237 N 0.40273 0.33573 0.86445
 N238 N 0.41363 0.38396 0.89092
 C239 C 0.46475 0.40876 0.92003
 C240 C 0.48647 0.37351 0.91247
 C241 C 0.44645 0.32841 0.87600
 H242 H 0.52663 0.38010 0.92874
 H243 H 0.36783 0.31050 0.83515
 H244 H 0.38738 0.40052 0.88620
 N245 N 0.70733 0.12621 0.93018
 N246 N 0.66894 0.09788 0.97286
 C247 C 0.61665 0.08141 0.94997
 C248 C 0.62280 0.10079 0.88956
 C249 C 0.68077 0.12906 0.87931
 H250 H 0.59063 0.09582 0.85693
 H251 H 0.75113 0.14630 0.93753
 H252 H 0.67935 0.09244 1.01795
 N253 N 0.11562 0.41077 0.41080
 N254 N 0.07998 0.41508 0.44905
 C255 C 0.06474 0.44949 0.42397
 C256 C 0.09035 0.46596 0.36603
 C257 C 0.12337 0.44197 0.36049
 H258 H 0.08911 0.49520 0.33455
 H259 H 0.13706 0.38994 0.42109
 H260 H 0.06939 0.39771 0.49332
 N261 N 0.56845 0.62959 0.33669
 N262 N 0.56209 0.58739 0.36971
 C263 C 0.51596 0.56899 0.40600
 C264 C 0.49135 0.60126 0.39478
 C265 C 0.52638 0.63916 0.35029
 H266 H 0.45502 0.59908 0.41734
 H267 H 0.60135 0.65157 0.30518
 H268 H 0.58930 0.57165 0.36720
 N269 N 0.31740 0.81053 0.46023
 N270 N 0.36145 0.84879 0.49949
 C271 C 0.37612 0.90120 0.48323
 C272 C 0.33993 0.89732 0.43527
 C273 C 0.30600 0.84003 0.42025
 H274 H 0.34692 0.93123 0.40549
 H275 H 0.30409 0.76786 0.45541
 H276 H 0.38517 0.83821 0.52784
 N277 N 0.57828 0.94340 0.19687
 N278 N 0.57005 0.97986 0.16752
 C279 C 0.52957 0.95224 0.12328
 C280 C 0.51186 0.89514 0.12389
 C281 C 0.54370 0.89145 0.17178
 H282 H 0.48230 0.86171 0.09224
 H283 H 0.60724 0.95417 0.23369
 H284 H 0.59332 1.02336 0.17630
 N285 N 0.37237 0.56749 0.06199
 N286 N 0.41260 0.56977 0.02583
 C287 C 0.43139 0.53809 0.05051
 C288 C 0.39983 0.51232 0.10311
 C289 C 0.36337 0.53271 0.10910
 H290 H 0.40261 0.48261 0.13237
 H291 H 0.35042 0.58812 0.05339
 H292 H 0.42688 0.59263 -0.01506
 N293 N 0.19019 0.67310 0.05522
 N294 N 0.15205 0.63600 0.01501
 C295 C 0.10023 0.62586 0.03102
 C296 C 0.10627 0.65973 0.08333
 C297 C 0.16384 0.68778 0.09813
 H298 H 0.07272 0.65675 0.11266
 H299 H 0.23277 0.68451 0.05606
 H300 H 0.16059 0.61335 -0.01858
 N301 N 0.55182 0.18321 0.58647
 N302 N 0.55199 0.14492 0.54852
 C303 C 0.50739 0.09393 0.56221
 C304 C 0.47629 0.10023 0.60938
 C305 C 0.50651 0.15733 0.62398
 H306 H 0.43955 0.06752 0.63292
 H307 H 0.58279 0.22605 0.58724
 H308 H 0.58324 0.15354 0.51533
 N309 N 0.63183 0.43490 0.55905
 N310 N 0.59022 0.43067 0.52447
 C311 C 0.58277 0.47365 0.54039
 C312 C 0.62201 0.50761 0.58616
 C313 C 0.65172 0.48085 0.59724
 H314 H 0.62461 0.54305 0.61188
 H315 H 0.64449 0.40529 0.55834
 H316 H 0.56562 0.39737 0.49287
 N317 N 0.80892 0.36337 0.57984
 N318 N 0.84456 0.39975 0.53951
 C319 C 0.89621 0.40676 0.54901
 C320 C 0.89296 0.37188 0.59619
 C321 C 0.83697 0.34587 0.61510
 H322 H 0.92714 0.36879 0.61653
 H323 H 0.76631 0.35145 0.58356
 H324 H 0.83396 0.42075 0.50755
   
