data_POSCAR
  _audit_creation_date              2014-09-24
  _audit_creation_method            'ToBaCCo'
  _symmetry_space_group_name_H-M    'P1'
  _symmetry_Int_Tables_number       1
  _symmetry_cell_setting            triclinic
  loop_
  _symmetry_equiv_pos_as_xyz
 x,y,z
_cell_length_a 35.3119
_cell_length_b 35.0532
_cell_length_c 35.8291
_cell_angle_alpha 89.515500
_cell_angle_beta 89.845500
_cell_angle_gamma 90.094800
loop_
  _atom_site_label
  _atom_site_type_symbol
  _atom_site_fract_x
  _atom_site_fract_y
  _atom_site_fract_z
N1 N 0.13204 0.15360 0.23027
 N2 N 0.16417 0.13726 0.23965
 C3 C 0.16004 0.11951 0.27286
 C4 C 0.12292 0.12409 0.28445
 C5 C 0.10580 0.14562 0.25660
 H6 H 0.18194 0.10329 0.28682
 H7 H 0.07681 0.15553 0.25594
 Cu8 Cu 0.20663 0.13700 0.20516
 Cu9 Cu 0.12841 0.18585 0.18546
 Cu10 Cu 0.21703 0.21628 0.15420
 N11 N 0.24787 0.14231 0.16964
 N12 N 0.25344 0.17434 0.15104
 C13 C 0.28413 0.17046 0.12890
 C14 C 0.29751 0.13352 0.13307
 C15 C 0.27382 0.11651 0.15915
 H16 H 0.29452 0.19210 0.10972
 H17 H 0.27512 0.08743 0.16943
 N18 N 0.16990 0.24484 0.14459
 N19 N 0.13603 0.23158 0.15372
 C20 C 0.10950 0.25552 0.14025
 C21 C 0.12762 0.28547 0.12227
 C22 C 0.16586 0.27793 0.12564
 H23 H 0.07930 0.25191 0.14399
 H24 H 0.18895 0.29464 0.11415
 H25 H 0.17777 0.17414 0.15487
 H26 H 0.18151 0.20147 0.19912
 N27 N -0.13878 0.83264 0.24712
 N28 N -0.16841 0.85515 0.25002
 C29 C -0.16411 0.87731 0.28033
 C30 C -0.12969 0.86858 0.29656
 C31 C -0.11433 0.84027 0.27479
 H32 H -0.18337 0.89963 0.28875
 H33 H -0.08708 0.82673 0.27848
 Cu34 Cu -0.20664 0.85711 0.21080
 Cu35 Cu -0.13327 0.79576 0.20731
 Cu36 Cu -0.19371 0.80642 0.13249
 N37 N -0.24387 0.85779 0.17055
 N38 N -0.23739 0.83950 0.13927
 C39 C -0.26458 0.84823 0.11442
 C40 C -0.28982 0.87294 0.13111
 C41 C -0.27605 0.87821 0.16689
 H42 H -0.26579 0.83758 0.08620
 H43 H -0.28764 0.89683 0.18793
 N44 N -0.15424 0.76675 0.13470
 N45 N -0.13239 0.76157 0.16414
 C46 C -0.11012 0.73099 0.15847
 C47 C -0.11796 0.71675 0.12356
 C48 C -0.14591 0.74003 0.10915
 H49 H -0.08934 0.72016 0.17796
 H50 H -0.15973 0.73703 0.08243
 H51 H -0.15700 0.83295 0.16985
 H52 H -0.18896 0.79463 0.18886
 N53 N -0.13819 0.16066 -0.23973
 N54 N -0.15679 0.12870 -0.23346
 C55 C -0.14993 0.10447 -0.26163
 C56 C -0.12665 0.12276 -0.28727
 C57 C -0.11984 0.15841 -0.27262
 H58 H -0.16131 0.07586 -0.26347
 H59 H -0.10165 0.18039 -0.28424
 Cu60 Cu -0.18916 0.12219 -0.18946
 Cu61 Cu -0.13665 0.20041 -0.20243
 Cu62 Cu -0.21632 0.21027 -0.15382
 N63 N -0.23447 0.12920 -0.15801
 N64 N -0.24661 0.16307 -0.14738
 C65 C -0.27979 0.15869 -0.12913
 C66 C -0.28843 0.12016 -0.12762
 C67 C -0.25905 0.10230 -0.14611
 H68 H -0.29569 0.18163 -0.11655
 H69 H -0.25623 0.07209 -0.15135
 N70 N -0.17426 0.24612 -0.14832
 N71 N -0.14216 0.24085 -0.16623
 C72 C -0.11699 0.26746 -0.15572
 C73 C -0.13450 0.29112 -0.13039
 C74 C -0.17097 0.27713 -0.12652
 H75 H -0.08819 0.26964 -0.16586
 H76 H -0.19282 0.28764 -0.10807
 H77 H -0.17600 0.16868 -0.15539
 H78 H -0.20188 0.17682 -0.19998
 N79 N 0.13721 0.84874 -0.23453
 N80 N 0.16919 0.86628 -0.24253
 C81 C 0.16528 0.88575 -0.27486
 C82 C 0.12857 0.88066 -0.28721
 C83 C 0.11141 0.85736 -0.26083
 H84 H 0.18702 0.90322 -0.28776
 H85 H 0.08261 0.84679 -0.26114
 Cu86 Cu 0.21140 0.86438 -0.20792
 Cu87 Cu 0.13263 0.81454 -0.19152
 Cu88 Cu 0.21964 0.78381 -0.15791
 N89 N 0.24822 0.85982 -0.16795
 N90 N 0.25366 0.82724 -0.15031
 C91 C 0.28213 0.83147 -0.12567
 C92 C 0.29417 0.86910 -0.12726
 C93 C 0.27194 0.88628 -0.15432
 H94 H 0.29205 0.80935 -0.10688
 H95 H 0.27322 0.91567 -0.16373
 N96 N 0.17257 0.75391 -0.15207
 N97 N 0.13912 0.76744 -0.16189
 C98 C 0.11207 0.74268 -0.15094
 C99 C 0.12938 0.71187 -0.13391
 C100 C 0.16775 0.71975 -0.13516
 H101 H 0.08206 0.74644 -0.15565
 H102 H 0.19031 0.70266 -0.12338
 H103 H 0.18063 0.82562 -0.15956
 H104 H 0.18636 0.79945 -0.20429
 N105 N 0.16207 1.13061 0.76197
 N106 N 0.13430 1.15544 0.76396
 C107 C 0.11198 1.15177 0.73385
 C108 C 0.12704 1.12358 0.71158
 C109 C 0.15883 1.11068 0.73017
 H110 H 0.08665 1.16827 0.72858
 H111 H 0.17730 1.08761 0.72197
 Cu112 Cu 0.12988 1.19027 0.80573
 Cu113 Cu 0.19790 1.12454 0.80275
 Cu114 Cu 0.21365 1.21111 0.84560
 N115 N 0.13545 1.23268 0.83968
 N116 N 0.16864 1.24235 0.85330
 C117 C 0.16477 1.27450 0.87329
 C118 C 0.12699 1.28478 0.87278
 C119 C 0.10916 1.25763 0.85133
 H120 H 0.18750 1.28866 0.88791
 H121 H 0.07946 1.25663 0.84407
 N122 N 0.24936 1.16769 0.84883
 N123 N 0.24176 1.13394 0.83454
 C124 C 0.26779 1.10863 0.84615
 C125 C 0.29338 1.12746 0.86845
 C126 C 0.28115 1.16489 0.86945
 H127 H 0.26776 1.07861 0.83941
 H128 H 0.29299 1.18766 0.88596
 H129 H 0.18001 1.16361 0.84426
 H130 H 0.19807 1.18154 0.79821
 N131 N 0.83761 0.87259 0.76329
 N132 N 0.86623 0.84882 0.76612
 C133 C 0.88981 0.85435 0.73707
 C134 C 0.87464 0.88261 0.71464
 C135 C 0.84152 0.89364 0.73196
 H136 H 0.91586 0.83886 0.73248
 H137 H 0.82245 0.91609 0.72319
 Cu138 Cu 0.86966 0.81245 0.80708
 Cu139 Cu 0.79972 0.87591 0.80245
 Cu140 Cu 0.78469 0.78741 0.84311
 N141 N 0.86362 0.76817 0.83904
 N142 N 0.83020 0.75691 0.85119
 C143 C 0.83419 0.72373 0.87001
 C144 C 0.87224 0.71445 0.87018
 C145 C 0.89011 0.74323 0.85042
 H146 H 0.81134 0.70815 0.88338
 H147 H 0.92001 0.74539 0.84410
 N148 N 0.74769 0.82977 0.84598
 N149 N 0.75489 0.86407 0.83218
 C150 C 0.72813 0.88850 0.84356
 C151 C 0.70250 0.86862 0.86530
 C152 C 0.71542 0.83137 0.86616
 H153 H 0.72801 0.91878 0.83750
 H154 H 0.70391 0.80803 0.88257
 H155 H 0.81689 0.83571 0.84395
 H156 H 0.80167 0.81887 0.79685
 N157 N 0.16862 0.84739 1.25291
 N158 N 0.13664 0.82934 1.24645
 C159 C 0.11049 0.84007 1.27158
 C160 C 0.12724 0.86553 1.29565
 C161 C 0.16426 0.86932 1.28334
 H162 H 0.08144 0.83023 1.27225
 H163 H 0.18573 0.88808 1.29446
 Cu164 Cu 0.13204 0.79389 1.20554
 Cu165 Cu 0.21149 0.84398 1.21818
 Cu166 Cu 0.18338 0.81448 1.13006
 N167 N 0.13318 0.75953 1.16342
 N168 N 0.15102 0.76928 1.13251
 C169 C 0.14408 0.74300 1.10623
 C170 C 0.12153 0.71487 1.12198
 C171 C 0.11516 0.72613 1.15831
 H172 H 0.15515 0.74396 1.07805
 H173 H 0.09764 0.71186 1.17895
 N174 N 0.22900 0.84545 1.13880
 N175 N 0.24158 0.85383 1.17246
 C176 C 0.27517 0.87193 1.16909
 C177 C 0.28364 0.87545 1.13148
 C178 C 0.25376 0.85855 1.11313
 H179 H 0.29164 0.88268 1.19215
 H180 H 0.25078 0.85509 1.08331
 H181 H 0.17080 0.84499 1.17872
 H182 H 0.19701 0.79900 1.18273
 N183 N 0.82587 1.14799 1.25227
 N184 N 0.84966 1.17688 1.25270
 C185 C 0.87524 1.17119 1.27997
 C186 C 0.86732 1.13651 1.29687
 C187 C 0.83588 1.12250 1.27869
 H188 H 0.89873 1.18999 1.28597
 H189 H 0.82145 1.09577 1.28415
 Cu190 Cu 0.84704 1.21730 1.21525
 Cu191 Cu 0.78416 1.14614 1.21689
 Cu192 Cu 0.81277 1.18633 1.13324
 N193 N 0.85280 1.24696 1.16965
 N194 N 0.84151 1.23365 1.13730
 C195 C 0.85241 1.25793 1.11002
 C196 C 0.87068 1.28839 1.12636
 C197 C 0.87040 1.28064 1.16422
 H198 H 0.84709 1.25390 1.08059
 H199 H 0.88320 1.29750 1.18597
 N200 N 0.77023 1.14964 1.13766
 N201 N 0.75771 1.13663 1.17011
 C202 C 0.72545 1.11701 1.16493
 C203 C 0.71756 1.11723 1.12724
 C204 C 0.74654 1.13790 1.11066
 H205 H 0.70891 1.10375 1.18696
 H206 H 0.74902 1.14556 1.08144
 H207 H 0.82746 1.15967 1.18254
 H208 H 0.78960 1.19691 1.18403
 O209 O 0.44393 0.92599 0.94377
 O210 O 0.40365 0.96688 0.97399
 C211 C 0.41041 0.93850 0.95197
 O212 O 0.55206 0.93454 1.07478
 O213 O 0.59387 0.96428 1.03478
 C214 C 0.58606 0.94204 1.06282
 O215 O 0.44494 0.93376 1.07307
 O216 O 0.40413 0.96853 1.03633
 C217 C 0.41114 0.94365 1.06234
 O218 O 0.54917 0.92633 0.93778
 O219 O 0.59222 0.96252 0.96976
 C220 C 0.58346 0.93657 0.94572
 Zr221 Zr 0.49757 0.94835 0.95828
 O222 O 0.49888 0.88806 0.95735
 O223 O 0.49512 0.95174 0.89943
 Zr224 Zr 0.49885 0.95184 1.05270
 O225 O 0.50137 0.89145 1.05387
 O226 O 0.49538 0.95268 1.11167
 O227 O 0.46431 0.94347 1.00637
 O228 O 0.53088 0.94214 1.00533
 O229 O 0.55380 1.06227 0.93275
 O230 O 0.59490 1.02598 0.96783
 C231 C 0.58760 1.05117 0.94212
 O232 O 0.44945 1.07240 1.06511
 O233 O 0.40634 1.03457 1.03486
 C234 C 0.41510 1.06203 1.05724
 O235 O 0.55592 1.06411 1.06845
 O236 O 0.59589 1.02889 1.03169
 C237 C 0.58944 1.05358 1.05758
 O238 O 0.44769 1.06798 0.93713
 O239 O 0.40541 1.03229 0.97161
 C240 C 0.41356 1.05827 0.94688
 Zr241 Zr 0.50033 1.04455 0.95390
 O242 O 0.50569 1.10448 0.94879
 O243 O 0.49607 1.03988 0.89519
 Zr244 Zr 0.50168 1.04809 1.04817
 O245 O 0.50851 1.10809 1.04518
 O246 O 0.49759 1.05096 1.10702
 Zr247 Zr 0.44326 0.99969 1.00404
 Zr248 Zr 0.55599 0.99658 1.00227
 O249 O 0.53401 1.05238 1.00029
 O250 O 0.46743 1.05473 1.00121
 O251 O 0.53270 0.99519 0.94830
 O252 O 0.46747 1.00118 1.05766
 O253 O 0.46581 0.99705 0.94971
 O254 O 0.53416 0.99931 1.05713
 H255 H 0.54730 0.91924 1.00614
 H256 H 0.45077 1.00263 1.07985
 H257 H 0.55161 1.07442 0.99934
 H258 H 0.44829 0.99670 0.92818
 H259 H 0.51504 0.97051 1.12057
 H260 H 0.51794 1.03486 1.11757
 H261 H 0.48718 1.11845 1.03042
 H262 H 0.48852 1.11591 0.96742
 H263 H 0.51725 1.02361 0.88672
 H264 H 0.49389 0.92508 0.89056
 H265 H 0.48627 0.87911 0.98050
 H266 H 0.47718 0.88169 1.04379
 O267 O 0.06674 0.55157 -0.07391
 O268 O 0.03186 0.59419 -0.03983
 C269 C 0.05680 0.58601 -0.06509
 O270 O -0.07413 0.44734 -0.06494
 O271 O -0.03571 0.40498 -0.03388
 C272 C -0.06338 0.41300 -0.05629
 O273 O -0.06851 0.55408 -0.07013
 O274 O -0.03041 0.59541 -0.03786
 C275 C -0.05686 0.58809 -0.06175
 O276 O 0.06837 0.44434 -0.06770
 O277 O 0.02935 0.40339 -0.03513
 C278 C 0.05667 0.41038 -0.05844
 Zr279 Zr 0.04601 0.49840 -0.05339
 O280 O 0.03950 0.49382 -0.11195
 O281 O 0.10531 0.49947 -0.06131
 Zr282 Zr -0.04955 0.50030 -0.05023
 O283 O -0.04873 0.49568 -0.10912
 O284 O -0.10922 0.50522 -0.05099
 O285 O -0.00126 0.53340 -0.05976
 O286 O -0.00263 0.46598 -0.05811
 O287 O 0.07010 0.44524 0.05865
 O288 O 0.03111 0.40402 0.02739
 C289 C 0.05851 0.41120 0.05026
 O290 O -0.06145 0.55533 0.06582
 O291 O -0.02935 0.59603 0.02633
 C292 C -0.05213 0.58921 0.05396
 O293 O -0.06750 0.44773 0.06435
 O294 O -0.03470 0.40509 0.02825
 C295 C -0.05922 0.41332 0.05388
 O296 O 0.06719 0.55275 0.06196
 O297 O 0.03420 0.59469 0.02483
 C298 C 0.05819 0.58698 0.05105
 Zr299 Zr 0.04901 0.49919 0.04113
 O300 O 0.05133 0.49462 0.10003
 O301 O 0.10884 0.50275 0.03871
 Zr302 Zr -0.04669 0.50102 0.04426
 O303 O -0.04634 0.49723 0.10324
 O304 O -0.10640 0.50660 0.04485
 Zr305 Zr 0.00090 0.55635 -0.00563
 Zr306 Zr -0.00157 0.44306 -0.00365
 O307 O 0.00069 0.46703 0.04998
 O308 O 0.00207 0.53415 0.04931
 O309 O 0.05421 0.46481 -0.00575
 O310 O -0.05437 0.53382 -0.00326
 O311 O 0.05521 0.53171 -0.00682
 O312 O -0.05633 0.46688 -0.00215
 H313 H -0.00350 0.44816 -0.07941
 H314 H -0.07626 0.55144 -0.00261
 H315 H 0.00107 0.44998 0.07217
 H316 H 0.07775 0.54859 -0.00736
 H317 H -0.11893 0.49032 -0.02946
 H318 H -0.11721 0.48311 0.03404
 H319 H -0.02825 0.51656 0.11236
 H320 H 0.03566 0.51537 0.11037
 H321 H 0.11802 0.48042 0.02461
 H322 H 0.11671 0.49981 -0.03617
 H323 H 0.03086 0.51890 -0.12149
 H324 H -0.03627 0.51886 -0.11927
 O325 O 0.93754 0.07491 0.44707
 O326 O 0.96802 0.03503 0.40632
 C327 C 0.94550 0.06314 0.41375
 O328 O 1.07245 0.06757 0.55033
 O329 O 1.03409 0.03539 0.59185
 C330 C 1.06124 0.05892 0.58394
 O331 O 1.06817 0.06974 0.44467
 O332 O 1.03073 0.03486 0.40513
 C333 C 1.05656 0.06020 0.41162
 O334 O 0.93405 0.07166 0.55215
 O335 O 0.96857 0.03470 0.59281
 C336 C 0.94324 0.06030 0.58553
 Zr337 Zr 0.95382 0.05213 0.49947
 O338 O 0.95347 0.11236 0.50274
 O339 O 0.89399 0.05172 0.49563
 Zr340 Zr 1.04968 0.05027 0.49815
 O341 O 1.04943 0.11057 0.50117
 O342 O 1.10942 0.05044 0.49329
 O343 O 1.00156 0.05817 0.46543
 O344 O 1.00222 0.05849 0.53105
 O345 O 0.92948 -0.06022 0.55406
 O346 O 0.96892 -0.02784 0.59366
 C347 C 0.94138 -0.05117 0.58709
 O348 O 1.06621 -0.06732 0.44794
 O349 O 1.03064 -0.03206 0.40657
 C350 C 1.05571 -0.05795 0.41440
 O351 O 1.07010 -0.06293 0.55285
 O352 O 1.03274 -0.02901 0.59317
 C353 C 1.05932 -0.05329 0.58617
 O354 O 0.93142 -0.06485 0.44928
 O355 O 0.96814 -0.03137 0.40730
 C356 C 0.94216 -0.05623 0.41558
 Zr357 Zr 0.95176 -0.04447 0.50104
 O358 O 0.95289 -0.10470 0.50610
 O359 O 0.89196 -0.04572 0.49810
 Zr360 Zr 1.04769 -0.04624 0.50012
 O361 O 1.04474 -0.10639 0.50527
 O362 O 1.10739 -0.04911 0.49557
 Zr363 Zr 1.00005 0.00216 0.44427
 Zr364 Zr 1.00118 0.00343 0.55489
 O365 O 0.99988 -0.05205 0.53298
 O366 O 0.99928 -0.05329 0.46744
 O367 O 0.94567 0.00430 0.53347
 O368 O 1.05513 0.00153 0.46667
 O369 O 0.94547 0.00370 0.46798
 O370 O 1.05639 0.00225 0.53229
 H371 H 1.00275 0.08096 0.54764
 H372 H 1.07727 0.00108 0.44962
 H373 H 0.99962 -0.07417 0.55041
 H374 H 0.92310 0.00414 0.45136
 H375 H 1.11942 0.03357 0.51321
 H376 H 1.11802 -0.03089 0.51365
 H377 H 1.03119 -0.11602 0.48310
 H378 H 0.96499 -0.11480 0.48330
 H379 H 0.88250 -0.02525 0.51446
 H380 H 0.88398 0.03984 0.51878
 H381 H 0.97288 0.12197 0.48508
 H382 H 1.03729 0.12044 0.47819
 N383 N 1.06817 0.11007 0.32167
 C384 C 1.10634 0.10929 0.31686
 N385 N 1.12805 0.09315 0.34398
 N386 N 1.11226 0.07844 0.37471
 C387 C 1.07412 0.07875 0.37917
 N388 N 1.05233 0.09465 0.35206
 N389 N 0.92667 -0.10531 0.32673
 C390 C 0.88880 -0.11199 0.32767
 N391 N 0.86848 -0.10020 0.35762
 N392 N 0.88558 -0.08271 0.38587
 C393 C 0.92341 -0.07572 0.38475
 N394 N 0.94363 -0.08716 0.35462
 N395 N 0.89923 0.12930 0.64919
 C396 C 0.89001 0.10663 0.67882
 N397 N 0.89773 0.06881 0.67721
 N398 N 0.91455 0.05422 0.64727
 C399 C 0.92361 0.07676 0.61759
 N400 N 0.91545 0.11456 0.61891
 N401 N 1.07336 -0.09424 0.67970
 C402 C 1.11085 -0.10260 0.67951
 N403 N 1.13145 -0.09514 0.64820
 N404 N 1.11502 -0.08002 0.61804
 C405 C 1.07758 -0.07130 0.61844
 N406 N 1.05712 -0.07852 0.64984
 N407 N 0.35110 1.13668 1.09184
 C408 C 0.32711 1.11608 1.11391
 N409 N 0.33223 1.07778 1.11682
 N410 N 0.35999 1.06065 1.09822
 C411 C 0.38409 1.08125 1.07649
 N412 N 0.37939 1.11960 1.07376
 N413 N 0.32678 0.92489 0.89311
 C414 C 0.32236 0.88639 0.89393
 N415 N 0.34629 0.86516 0.91524
 N416 N 0.37409 0.88177 0.93431
 C417 C 0.37828 0.92028 0.93357
 N418 N 0.35406 0.94155 0.91277
 N419 N 0.65320 0.90997 1.13501
 C420 C 0.67867 0.88994 1.11449
 N421 N 0.67309 0.88693 1.07714
 N422 N 0.64356 0.90366 1.06083
 C423 C 0.61801 0.92335 1.08134
 N424 N 0.62318 0.92610 1.11876
 N425 N 0.65071 1.12416 0.90159
 C426 C 0.68035 1.10289 0.88945
 N427 N 0.67912 1.06444 0.89451
 N428 N 0.64962 1.04794 0.91143
 C429 C 0.61984 1.06919 0.92311
 N430 N 0.62084 1.10757 0.91779
 N431 N 0.12906 0.35150 0.09865
 C432 C 0.10990 0.31816 0.10331
 N433 N 0.07397 0.31552 0.09023
 N434 N 0.05785 0.34508 0.07293
 C435 C 0.07687 0.37852 0.06854
 N436 N 0.11272 0.38126 0.08184
 N437 N -0.13667 0.35439 -0.10125
 C438 C -0.11675 0.32265 -0.11024
 N439 N -0.07964 0.32056 -0.10076
 N440 N -0.06301 0.34909 -0.08278
 C441 C -0.08271 0.38102 -0.07417
 N442 N -0.11982 0.38329 -0.08385
 N443 N 0.07436 0.68168 -0.10415
 C444 C 0.11049 0.67873 -0.11677
 N445 N 0.12878 0.64487 -0.11297
 N446 N 0.11144 0.61498 -0.09718
 C447 C 0.07542 0.61810 -0.08420
 N448 N 0.05726 0.65201 -0.08785
 N449 N -0.09001 0.65273 0.12623
 C450 C -0.10059 0.68362 0.10566
 N451 N -0.09512 0.68328 0.06817
 N452 N -0.07928 0.65325 0.05185
 C453 C -0.06907 0.62220 0.07233
 N454 N -0.07483 0.62237 0.10980
 N455 N 1.13272 0.09264 0.65047
 C456 C 1.11055 0.10825 0.67737
 N457 N 1.07247 0.10851 0.67271
 N458 N 1.05700 0.09314 0.64254
 C459 C 1.07907 0.07772 0.61557
 N460 N 1.11724 0.07786 0.61988
 N461 N 0.86964 -0.08795 0.65254
 C462 C 0.89161 -0.10088 0.68099
 N463 N 0.92976 -0.09780 0.67812
 N464 N 0.94547 -0.08187 0.64802
 C465 C 0.92360 -0.06919 0.61946
 N466 N 0.88541 -0.07265 0.62205
 N467 N 1.07159 -0.10466 0.32418
 C468 C 1.10877 -0.11425 0.32639
 N469 N 1.12842 -0.10509 0.35754
 N470 N 1.11135 -0.08734 0.38568
 C471 C 1.07424 -0.07750 0.38336
 N472 N 1.05469 -0.08627 0.35203
 N473 N 0.89289 0.07917 0.32690
 C474 C 0.88869 0.11765 0.32666
 N475 N 0.90406 0.13825 0.35472
 N476 N 0.92245 0.12087 0.38245
 C477 C 0.92684 0.08241 0.38256
 N478 N 0.91192 0.06186 0.35423
 N479 N 0.07224 0.31544 -0.09817
 C480 C 0.10913 0.31732 -0.10876
 N481 N 0.12890 0.34987 -0.10245
 N482 N 0.11218 0.37967 -0.08649
 C483 C 0.07533 0.37767 -0.07571
 N484 N 0.05573 0.34497 -0.08165
 N485 N -0.10700 0.35471 0.12548
 C486 C -0.11189 0.32120 0.10736
 N487 N -0.09986 0.31832 0.07150
 N488 N -0.08313 0.34779 0.05448
 C489 C -0.07842 0.38136 0.07250
 N490 N -0.09080 0.38439 0.10825
 N491 N -0.12887 0.64837 -0.10670
 C492 C -0.10958 0.68148 -0.11214
 N493 N -0.07287 0.68360 -0.10126
 N494 N -0.05609 0.65379 -0.08512
 C495 C -0.07524 0.62058 -0.07994
 N496 N -0.11189 0.61833 -0.09109
 N497 N 0.09851 0.64877 0.12327
 C498 C 0.10618 0.68111 0.10350
 N499 N 0.09872 0.68201 0.06639
 N500 N 0.08362 0.65182 0.04971
 C501 C 0.07615 0.61942 0.06938
 N502 N 0.08402 0.61830 0.10643
 N503 N 0.35662 1.12997 0.89674
 C504 C 0.32448 1.11008 0.88952
 N505 N 0.32156 1.07349 0.90184
 N506 N 0.34970 1.05732 0.92085
 C507 C 0.38202 1.07699 0.92771
 N508 N 0.38509 1.11355 0.91519
 N509 N 0.35023 0.89650 1.13273
 C510 C 0.31694 0.89347 1.11405
 N511 N 0.31494 0.90685 1.07847
 N512 N 0.34497 0.92296 1.06221
 C513 C 0.37835 0.92571 1.08069
 N514 N 0.38050 0.91213 1.11624
 N515 N 0.65112 1.09687 1.12811
 C516 C 0.68419 1.10093 1.10906
 N517 N 0.68585 1.08971 1.07294
 N518 N 0.65559 1.07455 1.05659
 C519 C 0.62243 1.07075 1.07555
 N520 N 0.62067 1.08229 1.11157
 N521 N 0.67470 0.92181 0.89912
 C522 C 0.67160 0.88541 0.88692
 N523 N 0.63951 0.86545 0.89464
 N524 N 0.61126 0.88167 0.91348
 C525 C 0.61452 0.91808 0.92581
 N526 N 0.64679 0.93776 0.91847
   
