data_POSCAR
  _audit_creation_date              2014-09-24
  _audit_creation_method            'ToBaCCo'
  _symmetry_space_group_name_H-M    'P1'
  _symmetry_Int_Tables_number       1
  _symmetry_cell_setting            triclinic
  loop_
  _symmetry_equiv_pos_as_xyz
 x,y,z
_cell_length_a 47.7036
_cell_length_b 48.1876
_cell_length_c 48.3414
_cell_angle_alpha 90.023600
_cell_angle_beta 90.076800
_cell_angle_gamma 89.851500
loop_
  _atom_site_label
  _atom_site_type_symbol
  _atom_site_fract_x
  _atom_site_fract_y
  _atom_site_fract_z
N1 N 0.28294 0.22786 0.20467
 N2 N 0.27021 0.24975 0.19422
 C3 C 0.28363 0.25768 0.17103
 C4 C 0.30581 0.23980 0.16693
 C5 C 0.30489 0.22112 0.18850
 H6 H 0.27768 0.27496 0.15800
 H7 H 0.31901 0.20386 0.19206
 Cu8 Cu 0.23690 0.26497 0.21165
 Cu9 Cu 0.26968 0.20920 0.23804
 Cu10 Cu 0.20950 0.23638 0.26837
 N11 N 0.20308 0.28002 0.22835
 N12 N 0.19236 0.26858 0.25065
 C13 C 0.16891 0.28240 0.25786
 C14 C 0.16490 0.30354 0.23906
 C15 C 0.18682 0.30158 0.22061
 H16 H 0.15580 0.27748 0.27543
 H17 H 0.19056 0.31485 0.20297
 N18 N 0.22966 0.20392 0.28327
 N19 N 0.25255 0.19355 0.27180
 C20 C 0.26064 0.17093 0.28618
 C21 C 0.24192 0.16705 0.30750
 C22 C 0.22261 0.18819 0.30520
 H23 H 0.27848 0.15794 0.28130
 H24 H 0.20453 0.19148 0.31826
 H25 H 0.22834 0.21986 0.23285
 H26 H 0.25035 0.24290 0.25490
 N27 N 0.71626 -0.22823 0.20588
 N28 N 0.72842 -0.25038 0.19538
 C29 C 0.71479 -0.25782 0.17210
 C30 C 0.69310 -0.23931 0.16807
 C31 C 0.69445 -0.22084 0.18976
 H32 H 0.72039 -0.27509 0.15891
 H33 H 0.68091 -0.20316 0.19329
 Cu34 Cu 0.76143 -0.26689 0.21244
 Cu35 Cu 0.73049 -0.20973 0.23866
 Cu36 Cu 0.79084 -0.23658 0.26832
 N37 N 0.79591 -0.28090 0.22891
 N38 N 0.80726 -0.26907 0.25074
 C39 C 0.83094 -0.28274 0.25757
 C40 C 0.83451 -0.30408 0.23892
 C41 C 0.81205 -0.30249 0.22103
 H42 H 0.84454 -0.27752 0.27470
 H43 H 0.80788 -0.31598 0.20363
 N44 N 0.77110 -0.20386 0.28305
 N45 N 0.74798 -0.19373 0.27182
 C46 C 0.73999 -0.17101 0.28603
 C47 C 0.75901 -0.16679 0.30702
 C48 C 0.77842 -0.18784 0.30472
 H49 H 0.72197 -0.15820 0.28128
 H50 H 0.79668 -0.19095 0.31764
 H51 H 0.77191 -0.22182 0.23282
 H52 H 0.75017 -0.24400 0.25613
 N53 N 0.71888 0.22823 0.79483
 N54 N 0.73118 0.25032 0.80521
 C55 C 0.71717 0.25857 0.82798
 C56 C 0.69508 0.24067 0.83189
 C57 C 0.69664 0.22167 0.81063
 H58 H 0.72265 0.27609 0.84088
 H59 H 0.68278 0.20430 0.80706
 Cu60 Cu 0.76465 0.26555 0.78821
 Cu61 Cu 0.73296 0.20918 0.76202
 Cu62 Cu 0.79301 0.23632 0.73189
 N63 N 0.79815 0.28077 0.77125
 N64 N 0.80926 0.26909 0.74921
 C65 C 0.83239 0.28324 0.74183
 C66 C 0.83575 0.30480 0.76025
 C67 C 0.81381 0.30282 0.77863
 H68 H 0.84572 0.27822 0.72443
 H69 H 0.80965 0.31638 0.79600
 N70 N 0.77356 0.20330 0.71740
 N71 N 0.75065 0.19303 0.72879
 C72 C 0.74266 0.17039 0.71445
 C73 C 0.76146 0.16635 0.69321
 C74 C 0.78073 0.18744 0.69554
 H75 H 0.72468 0.15763 0.71915
 H76 H 0.79871 0.19080 0.68237
 H77 H 0.77417 0.22050 0.76722
 H78 H 0.75206 0.24317 0.74474
 N79 N 0.28217 -0.22898 0.79489
 N80 N 0.26991 -0.25097 0.80548
 C81 C 0.28379 -0.25871 0.82854
 C82 C 0.30571 -0.24053 0.83244
 C83 C 0.30421 -0.22196 0.81084
 H84 H 0.27819 -0.27591 0.84176
 H85 H 0.31781 -0.20440 0.80729
 Cu86 Cu 0.23626 -0.26624 0.78858
 Cu87 Cu 0.26778 -0.21011 0.76216
 Cu88 Cu 0.20754 -0.23713 0.73220
 N89 N 0.20262 -0.28150 0.77168
 N90 N 0.19146 -0.26986 0.74962
 C91 C 0.16818 -0.28385 0.74236
 C92 C 0.16475 -0.30527 0.76088
 C93 C 0.18682 -0.30338 0.77920
 H94 H 0.15473 -0.27875 0.72507
 H95 H 0.19092 -0.31683 0.79666
 N96 N 0.22696 -0.20414 0.71774
 N97 N 0.24996 -0.19392 0.72906
 C98 C 0.25762 -0.17101 0.71503
 C99 C 0.23852 -0.16676 0.69408
 C100 C 0.21941 -0.18800 0.69621
 H101 H 0.27551 -0.15814 0.71984
 H102 H 0.20122 -0.19120 0.68325
 H103 H 0.22621 -0.22139 0.76739
 H104 H 0.24812 -0.24419 0.74486
 N105 N 0.71656 -0.22982 0.79523
 N106 N 0.72881 -0.25231 0.80486
 C107 C 0.71552 -0.26045 0.82806
 C108 C 0.69389 -0.24209 0.83297
 C109 C 0.69501 -0.22294 0.81187
 H110 H 0.72130 -0.27813 0.84063
 H111 H 0.68142 -0.20515 0.80907
 Cu112 Cu 0.76143 -0.26845 0.78676
 Cu113 Cu 0.73028 -0.21049 0.76270
 Cu114 Cu 0.79007 -0.23650 0.73139
 N115 N 0.79556 -0.28204 0.76933
 N116 N 0.80670 -0.26950 0.74783
 C117 C 0.83026 -0.28302 0.74032
 C118 C 0.83390 -0.30503 0.75816
 C119 C 0.81168 -0.30395 0.77630
 H120 H 0.84373 -0.27724 0.72330
 H121 H 0.80770 -0.31796 0.79332
 N122 N 0.77006 -0.20335 0.71786
 N123 N 0.74711 -0.19355 0.72965
 C124 C 0.73856 -0.17077 0.71579
 C125 C 0.75706 -0.16616 0.69444
 C126 C 0.77672 -0.18706 0.69622
 H127 H 0.72039 -0.15833 0.72089
 H128 H 0.79459 -0.19002 0.68279
 H129 H 0.74983 -0.24439 0.74377
 H130 H 0.77200 -0.22297 0.76745
 N131 N 0.28311 0.22833 0.79504
 N132 N 0.27059 0.25049 0.80510
 C133 C 0.28410 0.25866 0.82820
 C134 C 0.30611 0.24064 0.83266
 C135 C 0.30502 0.22166 0.81135
 H136 H 0.27827 0.27616 0.84099
 H137 H 0.31890 0.20416 0.80818
 Cu138 Cu 0.23744 0.26593 0.78737
 Cu139 Cu 0.26933 0.20920 0.76220
 Cu140 Cu 0.20981 0.23630 0.73064
 N141 N 0.20430 0.28118 0.76946
 N142 N 0.19354 0.26942 0.74730
 C143 C 0.17053 0.28363 0.73943
 C144 C 0.16682 0.30531 0.75765
 C145 C 0.18848 0.30329 0.77644
 H146 H 0.15736 0.27847 0.72195
 H147 H 0.19221 0.31679 0.79394
 N148 N 0.22947 0.20295 0.71700
 N149 N 0.25223 0.19271 0.72885
 C150 C 0.26033 0.16978 0.71495
 C151 C 0.24175 0.16557 0.69352
 C152 C 0.22250 0.18683 0.69530
 H153 H 0.27817 0.15690 0.72013
 H154 H 0.20462 0.19007 0.68190
 H155 H 0.25002 0.24334 0.74397
 H156 H 0.22757 0.22100 0.76628
 N157 N 0.28477 -0.22975 0.20564
 N158 N 0.27178 -0.25137 0.19508
 C159 C 0.28497 -0.25925 0.17171
 C160 C 0.30731 -0.24163 0.16763
 C161 C 0.30668 -0.22315 0.18940
 H162 H 0.27867 -0.27622 0.15846
 H163 H 0.32079 -0.20596 0.19290
 Cu164 Cu 0.23837 -0.26626 0.21264
 Cu165 Cu 0.27136 -0.21083 0.23876
 Cu166 Cu 0.21132 -0.23705 0.26976
 N167 N 0.20490 -0.28112 0.23010
 N168 N 0.19442 -0.26954 0.25250
 C169 C 0.17111 -0.28331 0.26004
 C170 C 0.16693 -0.30452 0.24137
 C171 C 0.18861 -0.30266 0.22265
 H172 H 0.15808 -0.27817 0.27764
 H173 H 0.19208 -0.31592 0.20492
 N174 N 0.23157 -0.20435 0.28394
 N175 N 0.25451 -0.19448 0.27227
 C176 C 0.26272 -0.17160 0.28612
 C177 C 0.24405 -0.16701 0.30733
 C178 C 0.22459 -0.18799 0.30549
 H179 H 0.28057 -0.15887 0.28090
 H180 H 0.20647 -0.19077 0.31860
 H181 H 0.25133 -0.24453 0.25621
 H182 H 0.22931 -0.22131 0.23421
 N183 N 0.71682 0.22792 0.20498
 N184 N 0.72908 0.25004 0.19469
 C185 C 0.71541 0.25791 0.17156
 C186 C 0.69359 0.23972 0.16733
 C187 C 0.69493 0.22096 0.18879
 H188 H 0.72103 0.27530 0.15858
 H189 H 0.68122 0.20346 0.19220
 Cu190 Cu 0.76218 0.26565 0.21224
 Cu191 Cu 0.73069 0.20942 0.23811
 Cu192 Cu 0.79001 0.23703 0.26948
 N193 N 0.79528 0.28125 0.22981
 N194 N 0.80614 0.26988 0.25214
 C195 C 0.82903 0.28432 0.25980
 C196 C 0.83255 0.30573 0.24124
 C197 C 0.81091 0.30332 0.22250
 H198 H 0.84219 0.27955 0.27741
 H199 H 0.80704 0.31654 0.20482
 N200 N 0.77033 0.20393 0.28359
 N201 N 0.74769 0.19351 0.27173
 C202 C 0.73956 0.17083 0.28589
 C203 C 0.75797 0.16691 0.30748
 C204 C 0.77719 0.18810 0.30557
 H205 H 0.72181 0.15790 0.28074
 H206 H 0.79499 0.19146 0.31901
 H207 H 0.75004 0.24375 0.25600
 H208 H 0.77269 0.22116 0.23404
 C209 C 0.23894 -0.01582 0.52504
 C210 C 0.23751 0.01349 0.52556
 C211 C 0.23779 0.02819 0.50050
 C212 C 0.23894 0.01442 0.47498
 C213 C 0.23929 -0.01480 0.47445
 C214 C 0.23954 -0.02958 0.49942
 H215 H 0.24014 -0.05207 0.49890
 H216 H 0.23730 0.05069 0.50087
 C217 C 0.76034 -0.01510 0.47453
 C218 C 0.76043 0.01412 0.47460
 C219 C 0.75973 0.02826 0.49992
 C220 C 0.75943 0.01392 0.52519
 C221 C 0.76052 -0.01540 0.52512
 C222 C 0.76074 -0.02953 0.49970
 H223 H 0.76097 -0.05204 0.49947
 H224 H 0.75941 0.05077 0.49996
 C225 C 0.47438 0.24112 -0.01445
 C226 C 0.47520 0.24074 0.01470
 C227 C 0.50122 0.24091 0.02819
 C228 C 0.52635 0.24108 0.01322
 C229 C 0.52556 0.24047 -0.01593
 C230 C 0.49951 0.24066 -0.02943
 H231 H 0.49878 0.24059 -0.05185
 H232 H 0.50194 0.24101 0.05062
 C233 C 0.47552 0.76045 -0.01512
 C234 C 0.47471 0.76101 0.01404
 C235 C 0.49985 0.76106 0.02906
 C236 C 0.52589 0.76097 0.01563
 C237 C 0.52670 0.76127 -0.01351
 C238 C 0.50156 0.76080 -0.02856
 H239 H 0.50230 0.76065 -0.05098
 H240 H 0.49913 0.76110 0.05149
 C241 C 0.01431 0.47532 0.23820
 C242 C -0.01528 0.47554 0.23728
 C243 C -0.02952 0.50105 0.23749
 C244 C -0.01500 0.52633 0.23800
 C245 C 0.01459 0.52611 0.23752
 C246 C 0.02883 0.50060 0.23791
 H247 H 0.05157 0.50043 0.23811
 H248 H -0.05226 0.50124 0.23740
 C249 C 0.01423 0.47496 0.76227
 C250 C -0.01536 0.47517 0.76178
 C251 C -0.02963 0.50065 0.76221
 C252 C -0.01514 0.52594 0.76230
 C253 C 0.01445 0.52572 0.76142
 C254 C 0.02872 0.50024 0.76179
 H255 H 0.05146 0.50008 0.76158
 H256 H -0.05236 0.50079 0.76229
 C257 C 0.42226 0.21806 0.06794
 C258 C 0.40339 0.24034 0.06773
 C259 C 0.40730 0.26234 0.04919
 C260 C 0.43028 0.26219 0.03121
 C261 C 0.32570 0.24044 0.14470
 C262 C 0.44524 0.21795 0.05011
 C263 C 0.38102 0.24106 0.08766
 C264 C 0.36302 0.24117 0.10512
 C265 C 0.34265 0.24088 0.12625
 C266 C 0.44950 0.24007 0.03172
 H267 H 0.41949 0.20101 0.08228
 H268 H 0.39296 0.27980 0.04903
 H269 H 0.43353 0.27966 0.01750
 H270 H 0.45994 0.20079 0.05086
 C271 C 0.57895 0.73821 0.06896
 C272 C 0.59765 0.76052 0.06887
 C273 C 0.59370 0.78250 0.05027
 C274 C 0.57076 0.78234 0.03218
 C275 C 0.67449 0.76105 0.14678
 C276 C 0.55601 0.73810 0.05102
 C277 C 0.61982 0.76134 0.08902
 C278 C 0.63763 0.76154 0.10671
 C279 C 0.65774 0.76137 0.12811
 C280 C 0.55161 0.76025 0.03268
 H281 H 0.58178 0.72116 0.08331
 H282 H 0.60795 0.79997 0.05018
 H283 H 0.56745 0.79980 0.01845
 H284 H 0.54140 0.72094 0.05170
 C285 C 0.57855 0.21795 -0.06936
 C286 C 0.59725 0.24027 -0.06911
 C287 C 0.59329 0.26214 -0.05039
 C288 C 0.57039 0.26188 -0.03233
 C289 C 0.67491 0.24129 -0.14610
 C290 C 0.55563 0.21772 -0.05144
 C291 C 0.61949 0.24120 -0.08915
 C292 C 0.63745 0.24156 -0.10665
 C293 C 0.65783 0.24157 -0.12776
 C294 C 0.55127 0.23976 -0.03294
 H295 H 0.58139 0.20097 -0.08380
 H296 H 0.60753 0.27962 -0.05018
 H297 H 0.56707 0.27928 -0.01853
 H298 H 0.54103 0.20056 -0.05226
 C299 C 0.40725 0.78116 -0.04961
 C300 C 0.40350 0.75908 -0.06812
 C301 C 0.42257 0.73696 -0.06826
 C302 C 0.44565 0.73716 -0.05046
 C303 C 0.32562 0.75956 -0.14522
 C304 C 0.43030 0.78131 -0.03166
 C305 C 0.38110 0.75964 -0.08810
 C306 C 0.36305 0.75979 -0.10559
 C307 C 0.34262 0.75970 -0.12674
 C308 C 0.44978 0.75940 -0.03216
 H309 H 0.39275 0.79850 -0.04949
 H310 H 0.41991 0.71983 -0.08253
 H311 H 0.46054 0.72016 -0.05120
 H312 H 0.43343 0.79886 -0.01801
 C313 C 0.06740 0.42201 0.26154
 C314 C 0.06669 0.40300 0.23967
 C315 C 0.04768 0.40686 0.21787
 C316 C 0.02980 0.42995 0.21772
 C317 C 0.14282 0.32386 0.23897
 C318 C 0.04966 0.44510 0.26136
 C319 C 0.08650 0.38041 0.23911
 C320 C 0.10376 0.36209 0.23890
 C321 C 0.12460 0.34124 0.23889
 C322 C 0.03091 0.44938 0.23935
 H323 H 0.08206 0.41929 0.27846
 H324 H 0.04712 0.39238 0.20074
 H325 H 0.01573 0.43310 0.20039
 H326 H 0.05081 0.45990 0.27821
 C327 C 0.04805 0.59396 0.78151
 C328 C 0.06709 0.59753 0.75976
 C329 C 0.06775 0.57842 0.73797
 C330 C 0.04998 0.55546 0.73823
 C331 C 0.14391 0.67555 0.76096
 C332 C 0.03014 0.57100 0.78174
 C333 C 0.08709 0.61983 0.76039
 C334 C 0.10454 0.63786 0.76072
 C335 C 0.12559 0.65837 0.76092
 C336 C 0.03125 0.55143 0.76024
 H337 H 0.04750 0.60855 0.79855
 H338 H 0.08242 0.58095 0.72107
 H339 H 0.05110 0.54056 0.72148
 H340 H 0.01606 0.56804 0.79904
 C341 C -0.04825 0.59475 0.21726
 C342 C -0.06734 0.59869 0.23894
 C343 C -0.06810 0.57977 0.26087
 C344 C -0.05040 0.55667 0.26085
 C345 C -0.14438 0.67692 0.23846
 C346 C -0.03038 0.57164 0.21728
 C347 C -0.08727 0.62115 0.23820
 C348 C -0.10474 0.63927 0.23801
 C349 C -0.12590 0.65981 0.23815
 C350 C -0.03160 0.55229 0.23896
 H351 H -0.04763 0.60915 0.20007
 H352 H -0.08283 0.58256 0.27770
 H353 H -0.05165 0.54192 0.27770
 H354 H -0.01628 0.56838 0.20004
 C355 C -0.06882 0.42249 0.73850
 C356 C -0.06785 0.40322 0.76011
 C357 C -0.04868 0.40676 0.78181
 C358 C -0.03085 0.42980 0.78209
 C359 C -0.14361 0.32418 0.76029
 C360 C -0.05114 0.44552 0.73881
 C361 C -0.08755 0.38066 0.76049
 C362 C -0.10475 0.36239 0.76054
 C363 C -0.12551 0.34159 0.76041
 C364 C -0.03219 0.44946 0.76069
 H365 H -0.08362 0.42000 0.72166
 H366 H -0.04792 0.39206 0.79874
 H367 H -0.01662 0.43271 0.79932
 H368 H -0.05247 0.46051 0.72216
 C369 C 0.21837 0.04884 0.40746
 C370 C 0.24060 0.06750 0.40400
 C371 C 0.26280 0.06763 0.42295
 C372 C 0.26254 0.04969 0.44560
 C373 C 0.24158 0.14480 0.32728
 C374 C 0.21816 0.03075 0.43013
 C375 C 0.24024 0.08759 0.38197
 C376 C 0.24045 0.10515 0.36422
 C377 C 0.24105 0.12635 0.34409
 C378 C 0.24013 0.03131 0.44949
 H379 H 0.20096 0.04871 0.39304
 H380 H 0.28003 0.08203 0.42052
 H381 H 0.27961 0.05043 0.46038
 H382 H 0.20052 0.01697 0.43305
 C383 C 0.73662 0.06750 0.57754
 C384 C 0.75895 0.06694 0.59633
 C385 C 0.78068 0.04760 0.59286
 C386 C 0.78039 0.02940 0.57027
 C387 C 0.76126 0.14441 0.67306
 C388 C 0.73636 0.04944 0.55496
 C389 C 0.76007 0.08725 0.61817
 C390 C 0.76066 0.10491 0.63584
 C391 C 0.76106 0.12609 0.65605
 C392 C 0.75840 0.03050 0.55095
 H393 H 0.71973 0.08238 0.57997
 H394 H 0.79815 0.04708 0.60719
 H395 H 0.79774 0.01516 0.56732
 H396 H 0.71925 0.05059 0.54025
 C397 C 0.26150 -0.06919 0.57787
 C398 C 0.23940 -0.06805 0.59683
 C399 C 0.21762 -0.04886 0.59301
 C400 C 0.21770 -0.03126 0.56997
 C401 C 0.23829 -0.14454 0.67430
 C402 C 0.26156 -0.05172 0.55484
 C403 C 0.23854 -0.08774 0.61919
 C404 C 0.23820 -0.10508 0.63715
 C405 C 0.23815 -0.12613 0.65743
 C406 C 0.23957 -0.03276 0.55059
 H407 H 0.27843 -0.08398 0.58061
 H408 H 0.20033 -0.04790 0.60749
 H409 H 0.20038 -0.01703 0.56686
 H410 H 0.27861 -0.05319 0.54013
 C411 C 0.73457 -0.06154 0.41727
 C412 C 0.75933 -0.06645 0.40253
 C413 C 0.78416 -0.05310 0.41038
 C414 C 0.78436 -0.03545 0.43336
 C415 C 0.75913 -0.14449 0.32668
 C416 C 0.73482 -0.04412 0.44035
 C417 C 0.75953 -0.08672 0.38072
 C418 C 0.75948 -0.10448 0.36318
 C419 C 0.75930 -0.12589 0.34332
 C420 C 0.75977 -0.03126 0.44867
 H421 H 0.71527 -0.07175 0.41136
 H422 H 0.80346 -0.05691 0.39920
 H423 H 0.80379 -0.02576 0.43971
 H424 H 0.71569 -0.04099 0.45201
 C425 C 0.59135 0.73589 -0.05073
 C426 C 0.59959 0.76002 -0.06465
 C427 C 0.58527 0.78498 -0.05995
 C428 C 0.56211 0.78559 -0.04230
 C429 C 0.67460 0.75768 -0.14423
 C430 C 0.56830 0.73654 -0.03287
 C431 C 0.62122 0.75889 -0.08536
 C432 C 0.63856 0.75823 -0.10346
 C433 C 0.65820 0.75778 -0.12528
 C434 C 0.55327 0.76129 -0.02903
 H435 H 0.60219 0.71645 -0.05433
 H436 H 0.59146 0.80376 -0.07058
 H437 H 0.55066 0.80482 -0.03949
 H438 H 0.56153 0.71760 -0.02288
 C439 C 0.41617 0.26664 -0.06060
 C440 C 0.40134 0.24210 -0.06555
 C441 C 0.40922 0.21758 -0.05200
 C442 C 0.43239 0.21746 -0.03420
 C443 C 0.32568 0.24106 -0.14473
 C444 C 0.43941 0.26648 -0.04302
 C445 C 0.37956 0.24173 -0.08617
 C446 C 0.36207 0.24152 -0.10419
 C447 C 0.34225 0.24130 -0.12589
 C448 C 0.44784 0.24182 -0.03004
 H449 H 0.41030 0.28570 -0.07100
 H450 H 0.39803 0.19843 -0.05584
 H451 H 0.43888 0.19823 -0.02451
 H452 H 0.45124 0.28539 -0.03999
 C453 C 0.41026 0.73577 0.05156
 C454 C 0.40200 0.75995 0.06550
 C455 C 0.41627 0.78484 0.06074
 C456 C 0.43935 0.78537 0.04300
 C457 C 0.32672 0.75815 0.14492
 C458 C 0.43325 0.73633 0.03360
 C459 C 0.38034 0.75895 0.08621
 C460 C 0.36294 0.75844 0.10427
 C461 C 0.34321 0.75817 0.12603
 C462 C 0.44817 0.76105 0.02964
 H463 H 0.39949 0.71635 0.05522
 H464 H 0.41011 0.80366 0.07141
 H465 H 0.45077 0.80455 0.04017
 H466 H 0.44006 0.71735 0.02364
 C467 C 0.59094 0.21690 0.05145
 C468 C 0.59871 0.24132 0.06519
 C469 C 0.58416 0.26604 0.06000
 C470 C 0.56123 0.26614 0.04201
 C471 C 0.67387 0.23993 0.14485
 C472 C 0.56809 0.21704 0.03326
 C473 C 0.62018 0.24071 0.08612
 C474 C 0.63749 0.24037 0.10430
 C475 C 0.65723 0.24010 0.12606
 C476 C 0.55285 0.24158 0.02889
 H477 H 0.60194 0.19763 0.05547
 H478 H 0.58996 0.28502 0.07052
 H479 H 0.54953 0.28518 0.03886
 H480 H 0.56161 0.19788 0.02349
 C481 C -0.04794 0.59418 0.74038
 C482 C -0.06764 0.59816 0.76149
 C483 C -0.06894 0.57940 0.78353
 C484 C -0.05114 0.55638 0.78416
 C485 C -0.14491 0.67606 0.75809
 C486 C -0.03003 0.57112 0.74100
 C487 C -0.08766 0.62051 0.75997
 C488 C -0.10519 0.63854 0.75904
 C489 C -0.12639 0.65901 0.75835
 C490 C -0.03176 0.55189 0.76276
 H491 H -0.04689 0.60849 0.72314
 H492 H -0.08414 0.58224 0.79993
 H493 H -0.05278 0.54175 0.80108
 H494 H -0.01549 0.56781 0.72413
 C495 C -0.06948 0.42285 0.21552
 C496 C -0.06869 0.40419 0.23769
 C497 C -0.04915 0.40796 0.25904
 C498 C -0.03094 0.43069 0.25853
 C499 C -0.14559 0.32619 0.24112
 C500 C -0.05138 0.44558 0.21504
 C501 C -0.08891 0.38210 0.23906
 C502 C -0.10643 0.36413 0.23997
 C503 C -0.12742 0.34353 0.24074
 C504 C -0.03218 0.44983 0.23666
 H505 H -0.08450 0.42017 0.19891
 H506 H -0.04847 0.39372 0.27636
 H507 H -0.01654 0.43384 0.27558
 H508 H -0.05267 0.46017 0.19803
 C509 C 0.06811 0.42155 0.78346
 C510 C 0.06690 0.40289 0.76131
 C511 C 0.04715 0.40686 0.74018
 C512 C 0.02915 0.42984 0.74088
 C513 C 0.14458 0.32543 0.75764
 C514 C 0.05024 0.44451 0.78413
 C515 C 0.08709 0.38072 0.75969
 C516 C 0.10476 0.36283 0.75870
 C517 C 0.12607 0.34249 0.75795
 C518 C 0.03085 0.44901 0.76271
 H519 H 0.08332 0.41869 0.79988
 H520 H 0.04615 0.39262 0.72287
 H521 H 0.01458 0.43318 0.72400
 H522 H 0.05185 0.45911 0.80111
 C523 C 0.04807 0.59388 0.25945
 C524 C 0.06752 0.59780 0.23812
 C525 C 0.06856 0.57904 0.21604
 C526 C 0.05070 0.55614 0.21555
 C527 C 0.14458 0.67558 0.24124
 C528 C 0.03006 0.57098 0.25893
 C529 C 0.08752 0.62009 0.23943
 C530 C 0.10499 0.63811 0.24023
 C531 C 0.12611 0.65855 0.24089
 C532 C 0.03146 0.55182 0.23708
 H533 H 0.04726 0.60815 0.27676
 H534 H 0.08359 0.58179 0.19949
 H535 H 0.05213 0.54151 0.19859
 H536 H 0.01567 0.56775 0.27593
 C537 C 0.78157 -0.06908 0.57827
 C538 C 0.75918 -0.06764 0.59690
 C539 C 0.73788 -0.04797 0.59288
 C540 C 0.73867 -0.03023 0.56996
 C541 C 0.75635 -0.14401 0.67454
 C542 C 0.78233 -0.05147 0.55535
 C543 C 0.75757 -0.08740 0.61918
 C544 C 0.75669 -0.10473 0.63716
 C545 C 0.75624 -0.12570 0.65755
 C546 C 0.76078 -0.03207 0.55086
 H547 H 0.79815 -0.08423 0.58115
 H548 H 0.72038 -0.04676 0.60709
 H549 H 0.72165 -0.01569 0.56664
 H550 H 0.79953 -0.05324 0.54084
 C551 C 0.21602 -0.06151 0.41629
 C552 C 0.24122 -0.06574 0.40207
 C553 C 0.26546 -0.05166 0.41045
 C554 C 0.26465 -0.03406 0.43348
 C555 C 0.24409 -0.14438 0.32669
 C556 C 0.21525 -0.04414 0.43941
 C557 C 0.24251 -0.08610 0.38032
 C558 C 0.24329 -0.10397 0.36287
 C559 C 0.24386 -0.12557 0.34314
 C560 C 0.23963 -0.03061 0.44833
 H561 H 0.19715 -0.07227 0.40998
 H562 H 0.28510 -0.05489 0.39968
 H563 H 0.28366 -0.02388 0.44029
 H564 H 0.19582 -0.04163 0.45070
 C565 C 0.73899 0.04771 0.40694
 C566 C 0.76099 0.06654 0.40312
 C567 C 0.78355 0.06679 0.42165
 C568 C 0.78372 0.04897 0.44442
 C569 C 0.75792 0.14466 0.32725
 C570 C 0.73919 0.02978 0.42972
 C571 C 0.75972 0.08689 0.38136
 C572 C 0.75887 0.10467 0.36385
 C573 C 0.75819 0.12609 0.34395
 C574 C 0.76138 0.03061 0.44882
 H575 H 0.72138 0.04742 0.39277
 H576 H 0.80067 0.08126 0.41890
 H577 H 0.80099 0.04986 0.45896
 H578 H 0.72161 0.01600 0.43297
 C579 C 0.21490 0.06638 0.57876
 C580 C 0.23731 0.06548 0.59746
 C581 C 0.25887 0.04603 0.59374
 C582 C 0.25846 0.02815 0.57091
 C583 C 0.24172 0.14323 0.67380
 C584 C 0.21451 0.04861 0.55593
 C585 C 0.23892 0.08575 0.61932
 C586 C 0.24011 0.10342 0.63695
 C587 C 0.24120 0.12471 0.65702
 C588 C 0.23648 0.02966 0.55159
 H589 H 0.19810 0.08131 0.58140
 H590 H 0.27636 0.04522 0.60804
 H591 H 0.27573 0.01388 0.56776
 H592 H 0.19737 0.05002 0.54127
   
