data_POSCAR
  _audit_creation_date              2014-09-24
  _audit_creation_method            'ToBaCCo'
  _symmetry_space_group_name_H-M    'P1'
  _symmetry_Int_Tables_number       1
  _symmetry_cell_setting            triclinic
  loop_
  _symmetry_equiv_pos_as_xyz
 x,y,z
_cell_length_a 10.9842
_cell_length_b 16.8605
_cell_length_c 27.0879
_cell_angle_alpha 90.260600
_cell_angle_beta 89.620300
_cell_angle_gamma 87.427200
loop_
  _atom_site_label
  _atom_site_type_symbol
  _atom_site_fract_x
  _atom_site_fract_y
  _atom_site_fract_z
O1 O 0.20551 0.04800 0.05927
 O2 O -0.20511 -0.04248 0.06261
 O3 O -0.06702 0.13897 0.06088
 O4 O 0.06719 -0.13288 0.06177
 O5 O -0.23600 0.09076 0.03959
 O6 O 0.23526 -0.08586 0.03768
 O7 O -0.13476 -0.14997 0.03224
 O8 O 0.13403 0.15437 0.02888
 C9 C 0.18095 0.11918 0.06472
 C10 C -0.18075 -0.11360 0.06821
 C11 C -0.17355 0.12582 0.07075
 C12 C 0.17408 -0.11935 0.07008
 O13 O 0.20986 -0.04375 -0.06155
 O14 O -0.21505 0.04376 -0.05941
 O15 O 0.04532 0.13642 -0.06285
 O16 O -0.05004 -0.13611 -0.06043
 O17 O -0.22456 -0.08925 -0.03615
 O18 O 0.22056 0.09053 -0.04030
 O19 O 0.15474 -0.14993 -0.03004
 O20 O -0.15798 0.15125 -0.03017
 Co21 Co 0.19802 0.00217 -0.00113
 Co22 Co -0.20031 0.00082 0.00153
 Co23 Co -0.01036 0.13199 -0.00081
 Co24 Co 0.00830 -0.12883 0.00075
 O25 O -0.00107 0.00155 0.00008
 C26 C 0.19453 -0.11492 -0.06645
 C27 C -0.19864 0.11445 -0.06573
 C28 C 0.15380 0.12307 -0.07246
 C29 C -0.15927 -0.12396 -0.06847
 O30 O 0.36970 0.34554 0.46993
 O31 O 0.63544 0.65099 0.46910
 O32 O 0.26648 0.58556 0.46095
 O33 O 0.73932 0.41069 0.46230
 O34 O 0.43501 0.63335 0.43812
 O35 O 0.57196 0.36198 0.43952
 O36 O 0.70829 0.54386 0.43914
 O37 O 0.29854 0.45187 0.43930
 C38 C 0.32369 0.38076 0.43390
 C39 C 0.68301 0.61484 0.43337
 C40 C 0.32867 0.61939 0.42903
 C41 C 0.67869 0.37580 0.43048
 O42 O 0.65871 0.34971 0.53133
 O43 O 0.34346 0.64967 0.52935
 O44 O 0.27954 0.40884 0.53860
 O45 O 0.72286 0.59061 0.53805
 O46 O 0.54699 0.63669 0.56118
 O47 O 0.45397 0.36364 0.56242
 O48 O 0.71341 0.45743 0.56114
 O49 O 0.28788 0.54314 0.56025
 Co50 Co 0.51240 0.36849 0.50080
 Co51 Co 0.49133 0.62933 0.49956
 Co52 Co 0.30288 0.49750 0.49983
 Co53 Co 0.70111 0.50045 0.50014
 O54 O 0.50191 0.49894 0.50009
 C55 C 0.69742 0.38662 0.56723
 C56 C 0.30259 0.61434 0.56543
 C57 C 0.34509 0.37674 0.57129
 C58 C 0.65594 0.62495 0.56997
 C59 C 0.26887 0.28076 0.29770
 C60 C 0.34374 0.30527 0.25825
 C61 C 0.32781 0.27438 0.20979
 C62 C 0.23687 0.21925 0.20080
 C63 C 0.16192 0.19480 0.24024
 C64 C 0.17785 0.22568 0.28870
 C65 C 0.10068 0.20105 0.32718
 C66 C 0.00969 0.14799 0.31811
 C67 C -0.00612 0.11803 0.27084
 C68 C 0.06933 0.14048 0.23229
 C69 C 0.40488 0.29908 0.17129
 C70 C 0.49577 0.35223 0.18034
 C71 C 0.51156 0.38220 0.22762
 C72 C 0.43621 0.35967 0.26618
 C73 C 0.22018 0.18726 0.15123
 C74 C 0.20402 0.15830 0.11096
 C75 C 0.28554 0.31270 0.34728
 C76 C 0.30141 0.34162 0.38759
 H77 H 0.10900 0.22312 0.36452
 H78 H -0.04962 0.13057 0.34785
 H79 H -0.07833 0.07801 0.26385
 H80 H 0.05284 0.11580 0.19613
 H81 H 0.39654 0.27702 0.13395
 H82 H 0.55500 0.36971 0.15060
 H83 H 0.58365 0.42233 0.23459
 H84 H 0.45267 0.38438 0.30233
 C85 C 0.73816 0.71858 0.29888
 C86 C 0.65438 0.77865 0.28204
 C87 C 0.66707 0.81041 0.23377
 C88 C 0.76390 0.78235 0.20261
 C89 C 0.84755 0.72217 0.21943
 C90 C 0.83485 0.69042 0.26769
 C91 C 0.92110 0.63154 0.28394
 C92 C 1.01754 0.60516 0.25357
 C93 C 1.02918 0.63539 0.20623
 C94 C 0.94533 0.69318 0.18913
 C95 C 0.58061 0.86913 0.21749
 C96 C 0.48393 0.89529 0.24781
 C97 C 0.47233 0.86507 0.29515
 C98 C 0.55642 0.80748 0.31230
 C99 C 0.78008 0.81733 0.15405
 C100 C 0.79599 0.84780 0.11437
 C101 C 0.72217 0.68376 0.34749
 C102 C 0.70636 0.65340 0.38721
 H103 H 0.91630 0.60636 0.32053
 H104 H 1.08486 0.56210 0.26722
 H105 H 1.10465 0.61485 0.18290
 H106 H 0.95894 0.71550 0.15220
 H107 H 0.58537 0.89430 0.18089
 H108 H 0.41633 0.93813 0.23412
 H109 H 0.39668 0.88544 0.31843
 H110 H 0.54281 0.78514 0.34922
 C111 C 0.74066 0.28468 0.70314
 C112 C 0.76527 0.33267 0.74461
 C113 C 0.77264 0.29834 0.79242
 C114 C 0.75483 0.21634 0.79855
 C115 C 0.72981 0.16840 0.75710
 C116 C 0.72259 0.20271 0.70928
 C117 C 0.69818 0.15354 0.66836
 C118 C 0.68341 0.07255 0.67435
 C119 C 0.69151 0.03895 0.72097
 C120 C 0.71325 0.08605 0.76211
 C121 C 0.79679 0.34753 0.83336
 C122 C 0.81083 0.42859 0.82743
 C123 C 0.80236 0.46223 0.78084
 C124 C 0.78118 0.41510 0.73965
 C125 C 0.76594 0.18107 0.84725
 C126 C 0.77905 0.15146 0.88742
 C127 C 0.73047 0.31989 0.65438
 C128 C 0.71836 0.34953 0.61417
 H129 H 0.69174 0.17687 0.63128
 H130 H 0.66638 0.03555 0.64259
 H131 H 0.68238 -0.02414 0.72511
 H132 H 0.71878 0.05702 0.79763
 H133 H 0.80341 0.32417 0.87043
 H134 H 0.82749 0.46562 0.85921
 H135 H 0.81071 0.52539 0.77677
 H136 H 0.77540 0.44419 0.70416
 C137 C 0.25610 0.71712 0.70122
 C138 C 0.34138 0.69198 0.73758
 C139 C 0.33229 0.72398 0.78614
 C140 C 0.23829 0.78113 0.79794
 C141 C 0.15276 0.80607 0.76162
 C142 C 0.16193 0.77413 0.71305
 C143 C 0.07502 0.79951 0.67746
 C144 C -0.01987 0.85377 0.68982
 C145 C -0.02986 0.88407 0.73752
 C146 C 0.05598 0.86159 0.77297
 C147 C 0.41907 0.69845 0.82175
 C148 C 0.51358 0.64385 0.80945
 C149 C 0.52333 0.61338 0.76178
 C150 C 0.43781 0.63618 0.72629
 C151 C 0.22918 0.81506 0.84717
 C152 C 0.21682 0.84558 0.88727
 C153 C 0.26578 0.68361 0.65190
 C154 C 0.27895 0.65344 0.61173
 H155 H 0.07842 0.77682 0.64003
 H156 H -0.08699 0.87152 0.66245
 H157 H -0.10546 0.92438 0.74741
 H158 H 0.04389 0.88688 0.80954
 H159 H 0.41578 0.72121 0.85917
 H160 H 0.58050 0.62591 0.83684
 H161 H 0.59843 0.57263 0.75195
 H162 H 0.44974 0.61074 0.68974
 C163 C 0.25630 0.28725 0.70533
 C164 C 0.17592 0.22474 0.71112
 C165 C 0.16769 0.18548 0.75729
 C166 C 0.23932 0.20945 0.79758
 C167 C 0.31969 0.27197 0.79180
 C168 C 0.32787 0.31126 0.74563
 C169 C 0.40791 0.37431 0.74103
 C170 C 0.47712 0.39794 0.78094
 C171 C 0.46984 0.35915 0.82590
 C172 C 0.39237 0.29667 0.83146
 C173 C 0.08729 0.12264 0.76195
 C174 C 0.01771 0.09924 0.72210
 C175 C 0.02517 0.13789 0.67711
 C176 C 0.10305 0.20013 0.67148
 C177 C 0.22139 0.17482 0.84592
 C178 C 0.19579 0.14859 0.88580
 C179 C 0.27361 0.32216 0.65702
 C180 C 0.29807 0.34866 0.61710
 H181 H 0.41716 0.40639 0.70679
 H182 H 0.53727 0.44633 0.77697
 H183 H 0.52458 0.37755 0.85663
 H184 H 0.39010 0.26801 0.86710
 H185 H 0.07792 0.09062 0.79620
 H186 H -0.04291 0.05114 0.72617
 H187 H -0.02980 0.11962 0.64642
 H188 H 0.10539 0.22872 0.63582
 C189 C 0.74000 0.72105 0.70223
 C190 C 0.65333 0.77996 0.71932
 C191 C 0.65911 0.80857 0.76858
 C192 C 0.75289 0.77943 0.79996
 C193 C 0.83947 0.72044 0.78288
 C194 C 0.83377 0.69189 0.73361
 C195 C 0.92355 0.63513 0.71667
 C196 C 1.01605 0.60678 0.74777
 C197 C 1.02051 0.63358 0.79630
 C198 C 0.93352 0.68973 0.81385
 C199 C 0.56951 0.86547 0.78549
 C200 C 0.47706 0.89387 0.75437
 C201 C 0.47244 0.86693 0.70588
 C202 C 0.55929 0.81067 0.68836
 C203 C 0.76827 0.81498 0.84811
 C204 C 0.79280 0.84414 0.88719
 C205 C 0.72525 0.68585 0.65393
 C206 C 0.70185 0.65687 0.61468
 H207 H 0.92370 0.61260 0.67919
 H208 H 1.08441 0.56368 0.73419
 H209 H 1.09243 0.61134 0.82035
 H210 H 0.94143 0.70911 0.85177
 H211 H 0.56947 0.88806 0.82295
 H212 H 0.40884 0.93707 0.76793
 H213 H 0.40053 0.88918 0.68183
 H214 H 0.55128 0.79119 0.65046
 C215 C 0.25232 0.71114 0.29536
 C216 C 0.16380 0.77235 0.28574
 C217 C 0.16406 0.81147 0.23952
 C218 C 0.25331 0.78904 0.20344
 C219 C 0.34194 0.72791 0.21308
 C220 C 0.34168 0.68879 0.25930
 C221 C 0.43294 0.62875 0.26864
 C222 C 0.52211 0.60861 0.23339
 C223 C 0.52151 0.64650 0.18795
 C224 C 0.43235 0.70537 0.17763
 C225 C 0.07289 0.87159 0.23021
 C226 C -0.01616 0.89182 0.26550
 C227 C -0.01554 0.85394 0.31094
 C228 C 0.07351 0.79499 0.32122
 C229 C 0.24557 0.82416 0.15505
 C230 C 0.22389 0.85168 0.11516
 C231 C 0.25965 0.67582 0.34370
 C232 C 0.28045 0.64828 0.38366
 H233 H 0.43727 0.59731 0.30336
 H234 H 0.59280 0.56398 0.24157
 H235 H 0.59129 0.63087 0.16077
 H236 H 0.43640 0.73400 0.14202
 H237 H 0.06855 0.90305 0.19551
 H238 H -0.08679 0.93650 0.25734
 H239 H -0.08524 0.86964 0.33814
 H240 H 0.06946 0.76639 0.35684
 C241 C 0.75744 0.28059 0.29699
 C242 C 0.84009 0.30728 0.26130
 C243 C 0.83625 0.27740 0.21232
 C244 C 0.75110 0.21991 0.19980
 C245 C 0.66827 0.19337 0.23546
 C246 C 0.67208 0.22325 0.28443
 C247 C 0.58850 0.19547 0.31974
 C248 C 0.50218 0.14123 0.30662
 C249 C 0.49705 0.11344 0.25836
 C250 C 0.57991 0.13822 0.22313
 C251 C 0.91971 0.30525 0.17699
 C252 C 1.00592 0.35957 0.19007
 C253 C 1.01109 0.38739 0.23831
 C254 C 0.92838 0.36252 0.27358
 C255 C 0.75884 0.18302 0.15161
 C256 C 0.78200 0.15387 0.11195
 C257 C 0.75068 0.31689 0.34537
 C258 C 0.72895 0.34570 0.38523
 H259 H 0.58801 0.21579 0.35767
 H260 H 0.43761 0.12169 0.33385
 H261 H 0.42736 0.07343 0.24804
 H262 H 0.57228 0.11517 0.18597
 H263 H 0.92012 0.28496 0.13905
 H264 H 1.07035 0.37919 0.16281
 H265 H 1.08066 0.42754 0.24857
 H266 H 0.93603 0.38561 0.31073
   
