data_POSCAR
  _audit_creation_date              2014-09-24
  _audit_creation_method            'ToBaCCo'
  _symmetry_space_group_name_H-M    'P1'
  _symmetry_Int_Tables_number       1
  _symmetry_cell_setting            triclinic
  loop_
  _symmetry_equiv_pos_as_xyz
 x,y,z
_cell_length_a 52.2771
_cell_length_b 51.4371
_cell_length_c 51.4842
_cell_angle_alpha 89.735500
_cell_angle_beta 89.546000
_cell_angle_gamma 89.796900
loop_
  _atom_site_label
  _atom_site_type_symbol
  _atom_site_fract_x
  _atom_site_fract_y
  _atom_site_fract_z
C1 C 0.26746 0.25162 0.23372
 C2 C 0.24826 0.27080 0.23379
 C3 C 0.22888 0.27082 0.25287
 C4 C 0.22884 0.25128 0.27203
 C5 C 0.24785 0.23190 0.27228
 C6 C 0.26708 0.23227 0.25307
 H7 H 0.24798 0.28538 0.21855
 H8 H 0.21395 0.25114 0.28679
 H9 H 0.28219 0.21781 0.25359
 C10 C 0.73264 -0.24561 0.22537
 C11 C 0.75210 -0.26478 0.22534
 C12 C 0.77179 -0.26500 0.24400
 C13 C 0.77167 -0.24534 0.26299
 C14 C 0.75248 -0.22626 0.26364
 C15 C 0.73317 -0.22649 0.24492
 H16 H 0.75194 -0.27968 0.21067
 H17 H 0.78600 -0.24515 0.27804
 H18 H 0.71900 -0.21112 0.24539
 C19 C 0.72935 0.25080 0.77070
 C20 C 0.74859 0.26980 0.77064
 C21 C 0.76857 0.26958 0.75199
 C22 C 0.76853 0.24968 0.73315
 C23 C 0.74931 0.23066 0.73280
 C24 C 0.72985 0.23137 0.75170
 H25 H 0.74819 0.28427 0.78581
 H26 H 0.78262 0.24964 0.71764
 H27 H 0.71539 0.21634 0.75204
 C28 C 0.27140 -0.25920 0.77060
 C29 C 0.27090 -0.23913 0.75210
 C30 C 0.25129 -0.23761 0.73372
 C31 C 0.23188 -0.25645 0.73412
 C32 C 0.23187 -0.27698 0.75244
 C33 C 0.25202 -0.27806 0.77055
 H34 H 0.28548 -0.22423 0.75246
 H35 H 0.21762 -0.25575 0.71902
 H36 H 0.25243 -0.29306 0.78533
 C37 C 0.73050 -0.25281 0.76685
 C38 C 0.73102 -0.23328 0.74777
 C39 C 0.75052 -0.23258 0.72893
 C40 C 0.76973 -0.25174 0.72934
 C41 C 0.76974 -0.27173 0.74824
 C42 C 0.74978 -0.27190 0.76690
 H43 H 0.71619 -0.21853 0.74760
 H44 H 0.78384 -0.25168 0.71385
 H45 H 0.74982 -0.28598 0.78256
 C46 C 0.26759 0.24724 0.77490
 C47 C 0.24817 0.26617 0.77504
 C48 C 0.22885 0.26600 0.75625
 C49 C 0.22912 0.24659 0.73715
 C50 C 0.24837 0.22748 0.73669
 C51 C 0.26752 0.22796 0.75566
 H52 H 0.24810 0.28110 0.78981
 H53 H 0.21467 0.24681 0.72218
 H54 H 0.28208 0.21292 0.75587
 C55 C 0.27081 -0.25134 0.23133
 C56 C 0.27124 -0.23343 0.25213
 C57 C 0.25179 -0.23283 0.27110
 C58 C 0.23189 -0.25092 0.27000
 C59 C 0.23103 -0.26922 0.24998
 C60 C 0.25014 -0.26904 0.23065
 H61 H 0.28716 -0.22040 0.25468
 H62 H 0.21702 -0.25076 0.28477
 H63 H 0.24783 -0.28220 0.21458
 C64 C 0.73080 0.25478 0.22823
 C65 C 0.74990 0.27393 0.22791
 C66 C 0.76938 0.27379 0.24653
 C67 C 0.76960 0.25429 0.26569
 C68 C 0.75060 0.23507 0.26641
 C69 C 0.73130 0.23546 0.24760
 H70 H 0.75004 0.28858 0.21272
 H71 H 0.78460 0.25408 0.28009
 H72 H 0.71624 0.22106 0.24845
 O73 O 0.27084 0.02323 0.47811
 O74 O 0.27126 -0.02758 0.52881
 O75 O 0.27150 -0.02747 0.47831
 O76 O 0.27085 0.02304 0.52867
 O77 O 0.22866 0.02272 0.52897
 O78 O 0.22931 -0.02776 0.47848
 O79 O 0.22907 -0.02783 0.52907
 O80 O 0.22865 0.02290 0.47837
 Cu81 Cu 0.27534 -0.00215 0.50343
 Cu82 Cu 0.22469 -0.00251 0.50372
 C83 C 0.24966 0.03179 0.46957
 C84 C 0.25022 -0.03640 0.53763
 C85 C 0.25053 -0.03632 0.46980
 C86 C 0.24965 0.03150 0.53750
 O87 O 0.72997 0.02674 0.52395
 O88 O 0.73035 -0.02317 0.47289
 O89 O 0.73026 -0.02388 0.52339
 O90 O 0.73011 0.02748 0.47339
 O91 O 0.77230 0.02764 0.47323
 O92 O 0.77245 -0.02386 0.52310
 O93 O 0.77255 -0.02290 0.47245
 O94 O 0.77216 0.02672 0.52383
 Cu95 Cu 0.72595 0.00179 0.49843
 Cu96 Cu 0.77659 0.00190 0.49814
 C97 C 0.75099 0.03525 0.53268
 C98 C 0.75151 -0.03155 0.46389
 C99 C 0.75138 -0.03268 0.53181
 C100 C 0.75118 0.03635 0.46473
 O101 O 0.47340 0.27367 0.02757
 O102 O 0.52301 0.27364 -0.02366
 O103 O 0.47321 0.27315 -0.02301
 O104 O 0.52322 0.27419 0.02691
 O105 O 0.52381 0.23131 0.02750
 O106 O 0.47376 0.23027 -0.02235
 O107 O 0.52356 0.23076 -0.02302
 O108 O 0.47395 0.23080 0.02816
 Cu109 Cu 0.49815 0.27796 0.00190
 Cu110 Cu 0.49883 0.22649 0.00265
 C111 C 0.46514 0.25223 0.03661
 C112 C 0.53180 0.25219 -0.03211
 C113 C 0.46491 0.25153 -0.03123
 C114 C 0.53212 0.25292 0.03572
 O115 O 0.52665 0.72655 0.02522
 O116 O 0.47653 0.72371 -0.02456
 O117 O 0.52635 0.72490 -0.02534
 O118 O 0.47710 0.72541 0.02618
 O119 O 0.47515 0.76825 0.02371
 O120 O 0.52555 0.76776 -0.02659
 O121 O 0.47583 0.76655 -0.02662
 O122 O 0.52521 0.76941 0.02392
 Cu123 Cu 0.50175 0.72084 0.00051
 Cu124 Cu 0.50034 0.77229 -0.00151
 C125 C 0.53446 0.74846 0.03315
 C126 C 0.46766 0.74464 -0.03419
 C127 C 0.53447 0.74625 -0.03470
 C128 C 0.46762 0.74692 0.03360
 O129 O 0.02367 0.47764 0.26894
 O130 O -0.02629 0.52827 0.26761
 O131 O -0.02618 0.47782 0.26785
 O132 O 0.02358 0.52830 0.26848
 O133 O 0.02481 0.52810 0.22565
 O134 O -0.02501 0.47775 0.22501
 O135 O -0.02486 0.52849 0.22477
 O136 O 0.02478 0.47746 0.22611
 Cu137 Cu -0.00139 0.50301 0.27251
 Cu138 Cu 0.00004 0.50292 0.22109
 C139 C 0.03276 0.46883 0.24776
 C140 C -0.03410 0.53707 0.24597
 C141 C -0.03416 0.46919 0.24631
 C142 C 0.03270 0.53687 0.24716
 O143 O 0.02511 0.52232 0.73132
 O144 O -0.02547 0.47267 0.73140
 O145 O -0.02484 0.52317 0.73076
 O146 O 0.02434 0.47182 0.73201
 O147 O 0.02376 0.47243 0.77485
 O148 O -0.02574 0.52345 0.77360
 O149 O -0.02601 0.47276 0.77425
 O150 O 0.02395 0.52309 0.77416
 Cu151 Cu -0.00013 0.49747 0.72708
 Cu152 Cu -0.00110 0.49796 0.77851
 C153 C 0.03317 0.53122 0.75272
 C154 C -0.03435 0.46415 0.75284
 C155 C -0.03376 0.53206 0.75197
 C156 C 0.03253 0.46337 0.75364
 C157 C 0.32671 0.25197 0.17486
 C158 C 0.31562 0.22848 0.18320
 C159 C 0.29642 0.22838 0.20224
 C160 C 0.28786 0.25175 0.21343
 C161 C 0.29895 0.27524 0.20510
 C162 C 0.31814 0.27535 0.18603
 C163 C 0.34713 0.25207 0.15458
 C164 C 0.36815 0.26891 0.15649
 C165 C 0.38735 0.26898 0.13743
 C166 C 0.38600 0.25216 0.11605
 C167 C 0.36500 0.23532 0.11413
 C168 C 0.34577 0.23530 0.13315
 C169 C 0.40641 0.25219 0.09581
 C170 C 0.41552 0.22869 0.08535
 C171 C 0.43465 0.22870 0.06623
 C172 C 0.44505 0.25222 0.05707
 C173 C 0.43595 0.27572 0.06756
 C174 C 0.41688 0.27569 0.08675
 H175 H 0.32199 0.21011 0.17521
 H176 H 0.28808 0.20998 0.20802
 H177 H 0.29298 0.29356 0.21353
 H178 H 0.32608 0.29380 0.17984
 H179 H 0.36999 0.28176 0.17296
 H180 H 0.40348 0.28190 0.13964
 H181 H 0.36322 0.22243 0.09768
 H182 H 0.32962 0.22241 0.13086
 H183 H 0.40804 0.21026 0.09217
 H184 H 0.44126 0.21026 0.05860
 H185 H 0.44352 0.29417 0.06090
 H186 H 0.41004 0.29412 0.09423
 C187 C 0.67386 0.75399 0.16826
 C188 C 0.66920 0.76422 0.19308
 C189 C 0.68848 0.76457 0.21174
 C190 C 0.71310 0.75442 0.20628
 C191 C 0.71758 0.74425 0.18119
 C192 C 0.69833 0.74415 0.16252
 C193 C 0.65326 0.75339 0.14847
 C194 C 0.65106 0.73217 0.13153
 C195 C 0.63176 0.73156 0.11293
 C196 C 0.61402 0.75207 0.11089
 C197 C 0.61619 0.77329 0.12785
 C198 C 0.63560 0.77397 0.14636
 C199 C 0.59338 0.75127 0.09116
 C200 C 0.58572 0.77400 0.07800
 C201 C 0.56647 0.77315 0.05932
 C202 C 0.55455 0.74952 0.05323
 C203 C 0.56214 0.72683 0.06640
 C204 C 0.58124 0.72771 0.08521
 H205 H 0.65040 0.77145 0.19837
 H206 H 0.68345 0.77173 0.23083
 H207 H 0.73628 0.73732 0.17528
 H208 H 0.70281 0.73676 0.14336
 H209 H 0.66410 0.71583 0.13281
 H210 H 0.63090 0.71508 0.09996
 H211 H 0.60269 0.78927 0.12704
 H212 H 0.63691 0.79077 0.15887
 H213 H 0.59490 0.79241 0.08181
 H214 H 0.56114 0.79096 0.04942
 H215 H 0.55321 0.70835 0.06230
 H216 H 0.58631 0.70992 0.09528
 C217 C 0.66981 0.25155 -0.17082
 C218 C 0.69540 0.25618 -0.16409
 C219 C 0.71469 0.25595 -0.18304
 C220 C 0.70884 0.25108 -0.20916
 C221 C 0.68328 0.24640 -0.21590
 C222 C 0.66398 0.24665 -0.19695
 C223 C 0.64932 0.25179 -0.15065
 C224 C 0.62951 0.23339 -0.15110
 C225 C 0.61034 0.23351 -0.13203
 C226 C 0.61050 0.25206 -0.11206
 C227 C 0.63026 0.27051 -0.11165
 C228 C 0.64945 0.27037 -0.13071
 C229 C 0.59020 0.25210 -0.09168
 C230 C 0.57982 0.27563 -0.08255
 C231 C 0.56085 0.27566 -0.06326
 C232 C 0.55181 0.25217 -0.05266
 C233 C 0.56214 0.22864 -0.06182
 C234 C 0.58112 0.22861 -0.08110
 H235 H 0.70059 0.25957 -0.14407
 H236 H 0.73427 0.25917 -0.17717
 H237 H 0.67816 0.24292 -0.23592
 H238 H 0.64441 0.24340 -0.20283
 H239 H 0.62901 0.21865 -0.16604
 H240 H 0.59523 0.21922 -0.13305
 H241 H 0.63108 0.28488 -0.09638
 H242 H 0.66428 0.28498 -0.12997
 H243 H 0.58616 0.29404 -0.09054
 H244 H 0.55323 0.29413 -0.05670
 H245 H 0.55566 0.21020 -0.05401
 H246 H 0.58896 0.21017 -0.08746
 C247 C 0.33094 0.73927 -0.17190
 C248 C 0.30538 0.73433 -0.16480
 C249 C 0.28611 0.73460 -0.18347
 C250 C 0.29195 0.73987 -0.20966
 C251 C 0.31750 0.74464 -0.21680
 C252 C 0.33679 0.74432 -0.19815
 C253 C 0.35135 0.73956 -0.15195
 C254 C 0.37082 0.75832 -0.15301
 C255 C 0.38979 0.75889 -0.13405
 C256 C 0.38973 0.74075 -0.11354
 C257 C 0.37034 0.72189 -0.11256
 C258 C 0.35137 0.72130 -0.13155
 C259 C 0.40968 0.74167 -0.09316
 C260 C 0.42040 0.71864 -0.08314
 C261 C 0.43918 0.71957 -0.06398
 C262 C 0.44769 0.74356 -0.05441
 C263 C 0.43695 0.76658 -0.06440
 C264 C 0.41816 0.76564 -0.08352
 H265 H 0.30018 0.73080 -0.14470
 H266 H 0.26654 0.73125 -0.17732
 H267 H 0.32261 0.74841 -0.23689
 H268 H 0.35633 0.74778 -0.20432
 H269 H 0.37120 0.77284 -0.16830
 H270 H 0.40462 0.77348 -0.13554
 H271 H 0.36960 0.70780 -0.09689
 H272 H 0.33680 0.70643 -0.13033
 H273 H 0.41452 0.69987 -0.09039
 H274 H 0.44712 0.70148 -0.05676
 H275 H 0.44299 0.78538 -0.05738
 H276 H 0.41002 0.78372 -0.09052
 C277 C 0.17011 0.32991 0.25177
 C278 C 0.16390 0.30382 0.25701
 C279 C 0.18294 0.28468 0.25746
 C280 C 0.20864 0.29117 0.25263
 C281 C 0.21487 0.31725 0.24744
 C282 C 0.19584 0.33639 0.24704
 C283 C 0.14985 0.35026 0.25116
 C284 C 0.15052 0.37015 0.23235
 C285 C 0.13150 0.38930 0.23178
 C286 C 0.11134 0.38903 0.25001
 C287 C 0.11065 0.36913 0.26882
 C288 C 0.12968 0.34998 0.26938
 C289 C 0.09113 0.40945 0.24943
 C290 C 0.08144 0.42005 0.27264
 C291 C 0.06249 0.43929 0.27210
 C292 C 0.05280 0.44840 0.24833
 C293 C 0.06248 0.43779 0.22512
 C294 C 0.08141 0.41853 0.22567
 H295 H 0.14422 0.29811 0.26033
 H296 H 0.17750 0.26469 0.26112
 H297 H 0.23455 0.32291 0.24404
 H298 H 0.20133 0.35636 0.24338
 H299 H 0.16563 0.37076 0.21785
 H300 H 0.13274 0.40451 0.21722
 H301 H 0.09524 0.36821 0.28296
 H302 H 0.12875 0.33509 0.28429
 H303 H 0.08877 0.41374 0.29125
 H304 H 0.05552 0.44711 0.29033
 H305 H 0.05536 0.44430 0.20649
 H306 H 0.08821 0.41051 0.20746
 C307 C 0.17281 0.66609 0.75279
 C308 C 0.16791 0.69146 0.74410
 C309 C 0.18730 0.71009 0.74378
 C310 C 0.21218 0.70400 0.75258
 C311 C 0.21677 0.67838 0.76152
 C312 C 0.19742 0.65970 0.76140
 C313 C 0.15228 0.64631 0.75284
 C314 C 0.15689 0.62138 0.74276
 C315 C 0.13744 0.60281 0.74256
 C316 C 0.11312 0.60869 0.75277
 C317 C 0.10856 0.63355 0.76305
 C318 C 0.12790 0.65224 0.76291
 C319 C 0.09256 0.58894 0.75273
 C320 C 0.07771 0.58444 0.77514
 C321 C 0.05849 0.56561 0.77518
 C322 C 0.05350 0.55116 0.75269
 C323 C 0.06822 0.55585 0.73020
 C324 C 0.08768 0.57442 0.73028
 H325 H 0.14905 0.69687 0.73733
 H326 H 0.18226 0.72955 0.73758
 H327 H 0.23558 0.67218 0.76765
 H328 H 0.20167 0.64022 0.76823
 H329 H 0.17547 0.61640 0.73473
 H330 H 0.14148 0.58372 0.73469
 H331 H 0.08992 0.63860 0.77088
 H332 H 0.12392 0.67127 0.77094
 H333 H 0.08123 0.59525 0.79275
 H334 H 0.04744 0.56247 0.79279
 H335 H 0.06487 0.54499 0.71259
 H336 H 0.09873 0.57768 0.71269
 C337 C -0.17048 0.67627 0.24373
 C338 C -0.16510 0.70131 0.25275
 C339 C -0.18405 0.72054 0.25303
 C340 C -0.20894 0.71542 0.24382
 C341 C -0.21400 0.69013 0.23455
 C342 C -0.19511 0.67085 0.23472
 C343 C -0.15048 0.65579 0.24385
 C344 C -0.15589 0.63092 0.25381
 C345 C -0.13695 0.61168 0.25420
 C346 C -0.11236 0.61682 0.24430
 C347 C -0.10702 0.64162 0.23413
 C348 C -0.12585 0.66099 0.23409
 C349 C -0.09232 0.59640 0.24469
 C350 C -0.07733 0.59148 0.22248
 C351 C -0.05854 0.57206 0.22282
 C352 C -0.05412 0.55746 0.24550
 C353 C -0.06902 0.56255 0.26776
 C354 C -0.08805 0.58169 0.26730
 H355 H -0.14621 0.70597 0.25984
 H356 H -0.17867 0.73971 0.25954
 H357 H -0.23288 0.68462 0.22817
 H358 H -0.19973 0.65164 0.22766
 H359 H -0.17469 0.62650 0.26160
 H360 H -0.14158 0.59266 0.26199
 H361 H -0.08816 0.64611 0.22654
 H362 H -0.12127 0.67997 0.22616
 H363 H -0.08038 0.60244 0.20476
 H364 H -0.04733 0.56863 0.20538
 H365 H -0.06610 0.55158 0.28551
 H366 H -0.09923 0.58526 0.28473
 C367 C -0.17283 0.32719 0.75240
 C368 C -0.19736 0.33276 0.76222
 C369 C -0.21654 0.31391 0.76220
 C370 C -0.21192 0.28881 0.75210
 C371 C -0.18719 0.28346 0.74215
 C372 C -0.16799 0.30228 0.74243
 C373 C -0.15240 0.34727 0.75254
 C374 C -0.13486 0.34926 0.73178
 C375 C -0.11566 0.36809 0.73191
 C376 C -0.11359 0.38554 0.75273
 C377 C -0.13115 0.38359 0.77347
 C378 C -0.15026 0.36465 0.77341
 C379 C -0.09324 0.40571 0.75278
 C380 C -0.08091 0.41247 0.77597
 C381 C -0.06188 0.43150 0.77601
 C382 C -0.05458 0.44407 0.75284
 C383 C -0.06681 0.43728 0.72964
 C384 C -0.08598 0.41840 0.72963
 H385 H -0.20195 0.35196 0.76948
 H386 H -0.23530 0.31969 0.76910
 H387 H -0.18204 0.26434 0.73513
 H388 H -0.14913 0.29710 0.73527
 H389 H -0.13612 0.33642 0.71524
 H390 H -0.10227 0.36880 0.71578
 H391 H -0.13034 0.39690 0.78966
 H392 H -0.16322 0.36347 0.78988
 H393 H -0.08572 0.40281 0.79407
 H394 H -0.05271 0.43618 0.79418
 H395 H -0.06175 0.44673 0.71149
 H396 H -0.09536 0.41402 0.71151
 C397 C 0.24796 0.17213 0.33133
 C398 C 0.25323 0.16599 0.30525
 C399 C 0.25314 0.18536 0.28612
 C400 C 0.24773 0.21132 0.29261
 C401 C 0.24235 0.21747 0.31866
 C402 C 0.24249 0.19810 0.33781
 C403 C 0.24824 0.15153 0.35169
 C404 C 0.22986 0.15143 0.37177
 C405 C 0.23011 0.13203 0.39087
 C406 C 0.24876 0.11227 0.39036
 C407 C 0.26715 0.11239 0.37030
 C408 C 0.26690 0.13178 0.35120
 C409 C 0.24900 0.09161 0.41066
 C410 C 0.27223 0.08256 0.42096
 C411 C 0.27246 0.06312 0.44003
 C412 C 0.24945 0.05230 0.44927
 C413 C 0.22622 0.06134 0.43897
 C414 C 0.22600 0.08075 0.41988
 H415 H 0.25709 0.14611 0.29954
 H416 H 0.25697 0.17996 0.26616
 H417 H 0.23848 0.23736 0.32432
 H418 H 0.23874 0.20354 0.35777
 H419 H 0.21507 0.16620 0.37255
 H420 H 0.21585 0.13267 0.40622
 H421 H 0.28160 0.09729 0.36918
 H422 H 0.28150 0.13146 0.33617
 H423 H 0.29026 0.09076 0.41453
 H424 H 0.29068 0.05667 0.44762
 H425 H 0.20816 0.05336 0.44559
 H426 H 0.20781 0.08703 0.41209
 C427 C 0.74972 0.17166 0.67344
 C428 C 0.72666 0.18336 0.68149
 C429 C 0.72652 0.20242 0.70076
 C430 C 0.74943 0.21020 0.71248
 C431 C 0.77248 0.19842 0.70451
 C432 C 0.77263 0.17940 0.68522
 C433 C 0.74989 0.15155 0.65278
 C434 C 0.76605 0.12971 0.65457
 C435 C 0.76627 0.11087 0.63509
 C436 C 0.75027 0.11337 0.61341
 C437 C 0.73407 0.13516 0.61163
 C438 C 0.73392 0.15405 0.63106
 C439 C 0.75046 0.09334 0.59273
 C440 C 0.72746 0.08491 0.58166
 C441 C 0.72763 0.06604 0.56221
 C442 C 0.75082 0.05524 0.55331
 C443 C 0.77382 0.06370 0.56436
 C444 C 0.77364 0.08250 0.58389
 H445 H 0.70865 0.17763 0.67305
 H446 H 0.70848 0.21131 0.70625
 H447 H 0.79042 0.20378 0.71335
 H448 H 0.79075 0.17098 0.67927
 H449 H 0.77828 0.12698 0.67125
 H450 H 0.77867 0.09410 0.63720
 H451 H 0.72182 0.13782 0.59496
 H452 H 0.72157 0.17084 0.62886
 H453 H 0.70929 0.09268 0.58829
 H454 H 0.70957 0.05992 0.55414
 H455 H 0.79202 0.05580 0.55793
 H456 H 0.79168 0.08882 0.59184
 C457 C 0.25092 -0.17666 0.67586
 C458 C 0.22803 -0.18465 0.68789
 C459 C 0.22816 -0.20429 0.70673
 C460 C 0.25118 -0.21648 0.71391
 C461 C 0.27408 -0.20843 0.70189
 C462 C 0.27396 -0.18872 0.68312
 C463 C 0.25077 -0.15591 0.65571
 C464 C 0.26975 -0.13664 0.65531
 C465 C 0.26964 -0.11716 0.63628
 C466 C 0.25059 -0.11657 0.61715
 C467 C 0.23162 -0.13589 0.61756
 C468 C 0.23169 -0.15530 0.63664
 C469 C 0.25052 -0.09593 0.59683
 C470 C 0.22740 -0.08477 0.58848
 C471 C 0.22730 -0.06547 0.56928
 C472 C 0.25035 -0.05682 0.55802
 C473 C 0.27348 -0.06790 0.56640
 C474 C 0.27356 -0.08725 0.58556
 H475 H 0.21003 -0.17544 0.68297
 H476 H 0.21025 -0.20974 0.71593
 H477 H 0.29208 -0.21771 0.70666
 H478 H 0.29185 -0.18324 0.67391
 H479 H 0.28448 -0.13639 0.66997
 H480 H 0.28427 -0.10233 0.63678
 H481 H 0.21694 -0.13626 0.60286
 H482 H 0.21704 -0.17012 0.63621
 H483 H 0.20934 -0.09072 0.59703
 H484 H 0.20916 -0.05725 0.56335
 H485 H 0.29156 -0.06175 0.55805
 H486 H 0.29168 -0.09570 0.59127
 C487 C 0.75234 -0.16783 0.32330
 C488 C 0.75580 -0.19419 0.32968
 C489 C 0.75599 -0.21312 0.31030
 C490 C 0.75250 -0.20610 0.28416
 C491 C 0.74894 -0.17976 0.27777
 C492 C 0.74898 -0.16080 0.29713
 C493 C 0.75218 -0.14774 0.34389
 C494 C 0.76558 -0.12434 0.34038
 C495 C 0.76557 -0.10551 0.35988
 C496 C 0.75196 -0.10959 0.38318
 C497 C 0.73845 -0.13294 0.38663
 C498 C 0.73865 -0.15187 0.36724
 C499 C 0.75185 -0.08958 0.40384
 C500 C 0.72901 -0.08294 0.41679
 C501 C 0.72888 -0.06404 0.43621
 C502 C 0.75164 -0.05152 0.44325
 C503 C 0.77451 -0.05824 0.43035
 C504 C 0.77459 -0.07699 0.41077
 H505 H 0.75865 -0.20013 0.34966
 H506 H 0.75857 -0.23331 0.31576
 H507 H 0.74638 -0.17383 0.25774
 H508 H 0.74606 -0.14065 0.29169
 H509 H 0.77633 -0.12074 0.32267
 H510 H 0.77598 -0.08761 0.35662
 H511 H 0.72797 -0.13669 0.40448
 H512 H 0.72799 -0.16963 0.37037
 H513 H 0.71117 -0.09216 0.41166
 H514 H 0.71095 -0.05930 0.44577
 H515 H 0.79236 -0.04894 0.43531
 H516 H 0.79251 -0.08190 0.40128
 C517 C 0.67124 0.74633 -0.17443
 C518 C 0.68239 0.76989 -0.18244
 C519 C 0.70159 0.77017 -0.20147
 C520 C 0.71001 0.74691 -0.21298
 C521 C 0.69881 0.72335 -0.20501
 C522 C 0.67967 0.72306 -0.18591
 C523 C 0.65097 0.74606 -0.15410
 C524 C 0.65105 0.72703 -0.13444
 C525 C 0.63211 0.72695 -0.11513
 C526 C 0.61262 0.74585 -0.11511
 C527 C 0.61248 0.76479 -0.13489
 C528 C 0.63147 0.76491 -0.15414
 C529 C 0.59258 0.74591 -0.09448
 C530 C 0.58375 0.76945 -0.08387
 C531 C 0.56489 0.76955 -0.06450
 C532 C 0.55447 0.74610 -0.05522
 C533 C 0.56333 0.72255 -0.06576
 C534 C 0.58215 0.72246 -0.08519
 H535 H 0.67656 0.78808 -0.17366
 H536 H 0.71014 0.78858 -0.20686
 H537 H 0.70461 0.70515 -0.21379
 H538 H 0.67118 0.70466 -0.18038
 H539 H 0.66605 0.71247 -0.13371
 H540 H 0.63300 0.71235 -0.09994
 H541 H 0.59748 0.77934 -0.13569
 H542 H 0.63069 0.77957 -0.16928
 H543 H 0.59167 0.78783 -0.09031
 H544 H 0.55857 0.78803 -0.05670
 H545 H 0.55562 0.70415 -0.05911
 H546 H 0.58829 0.70402 -0.09321
 C547 C 0.32668 0.24839 -0.16723
 C548 C 0.33273 0.24333 -0.19338
 C549 C 0.31356 0.24291 -0.21213
 C550 C 0.28792 0.24757 -0.20515
 C551 C 0.28185 0.25260 -0.17902
 C552 C 0.30101 0.25299 -0.16026
 C553 C 0.34706 0.24889 -0.14730
 C554 C 0.34665 0.26766 -0.12755
 C555 C 0.36581 0.26812 -0.10880
 C556 C 0.38582 0.24981 -0.10935
 C557 C 0.38625 0.23105 -0.12911
 C558 C 0.36709 0.23059 -0.14787
 C559 C 0.40615 0.25026 -0.08938
 C560 C 0.41563 0.22697 -0.07873
 C561 C 0.43472 0.22738 -0.05990
 C562 C 0.44475 0.25110 -0.05125
 C563 C 0.43529 0.27440 -0.06190
 C564 C 0.41622 0.27398 -0.08076
 H565 H 0.35237 0.24012 -0.19943
 H566 H 0.31885 0.23934 -0.23218
 H567 H 0.26221 0.25586 -0.17300
 H568 H 0.29568 0.25652 -0.14022
 H569 H 0.33163 0.28220 -0.12675
 H570 H 0.36479 0.28265 -0.09367
 H571 H 0.40156 0.21685 -0.13024
 H572 H 0.36780 0.21571 -0.16267
 H573 H 0.40803 0.20839 -0.08470
 H574 H 0.44152 0.20909 -0.05202
 H575 H 0.44268 0.29300 -0.05573
 H576 H 0.40957 0.29224 -0.08884
 C577 C 0.32960 0.74813 0.17275
 C578 C 0.31356 0.72656 0.17645
 C579 C 0.29464 0.72656 0.19577
 C580 C 0.29044 0.74847 0.21180
 C581 C 0.30653 0.77020 0.20762
 C582 C 0.32589 0.76986 0.18877
 C583 C 0.35003 0.74797 0.15230
 C584 C 0.35742 0.77111 0.13968
 C585 C 0.37674 0.77101 0.12077
 C586 C 0.38880 0.74766 0.11335
 C587 C 0.38117 0.72447 0.12574
 C588 C 0.36234 0.72468 0.14515
 C589 C 0.40915 0.74749 0.09282
 C590 C 0.42913 0.72903 0.09343
 C591 C 0.44792 0.72863 0.07397
 C592 C 0.44763 0.74714 0.05391
 C593 C 0.42806 0.76583 0.05336
 C594 C 0.40883 0.76578 0.07236
 H595 H 0.31544 0.70952 0.16434
 H596 H 0.28405 0.70873 0.19827
 H597 H 0.30406 0.78815 0.21815
 H598 H 0.33801 0.78678 0.18690
 H599 H 0.34817 0.78941 0.14416
 H600 H 0.38229 0.78939 0.11217
 H601 H 0.38954 0.70598 0.12036
 H602 H 0.35766 0.70648 0.15465
 H603 H 0.43054 0.71502 0.10909
 H604 H 0.46301 0.71418 0.07491
 H605 H 0.42733 0.78013 0.03787
 H606 H 0.39355 0.77991 0.07070
 C607 C 0.67153 0.25487 0.17044
 C608 C 0.67983 0.27830 0.18145
 C609 C 0.69905 0.27829 0.20017
 C610 C 0.71040 0.25485 0.20830
 C611 C 0.70212 0.23143 0.19727
 C612 C 0.68290 0.23144 0.17858
 C613 C 0.65107 0.25483 0.15058
 C614 C 0.65265 0.23812 0.12909
 C615 C 0.63331 0.23788 0.11053
 C616 C 0.61196 0.25439 0.11300
 C617 C 0.61042 0.27119 0.13440
 C618 C 0.62974 0.27139 0.15300
 C619 C 0.59138 0.25403 0.09332
 C620 C 0.58031 0.27734 0.08447
 C621 C 0.56105 0.27699 0.06580
 C622 C 0.55238 0.25331 0.05564
 C623 C 0.56338 0.22999 0.06460
 C624 C 0.58269 0.23036 0.08320
 H625 H 0.67165 0.29670 0.17540
 H626 H 0.70483 0.29663 0.20849
 H627 H 0.71068 0.21308 0.20290
 H628 H 0.67673 0.21303 0.17069
 H629 H 0.66904 0.22545 0.12643
 H630 H 0.63522 0.22503 0.09403
 H631 H 0.59403 0.28387 0.13700
 H632 H 0.62776 0.28419 0.16954
 H633 H 0.58681 0.29589 0.09170
 H634 H 0.55301 0.29530 0.05928
 H635 H 0.55710 0.21142 0.05721
 H636 H 0.59063 0.21207 0.08989
 C637 C -0.17173 0.67027 0.74913
 C638 C -0.19627 0.66485 0.75894
 C639 C -0.21543 0.68384 0.75876
 C640 C -0.21076 0.70893 0.74850
 C641 C -0.18602 0.71412 0.73853
 C642 C -0.16684 0.69515 0.73897
 C643 C -0.15131 0.65008 0.74953
 C644 C -0.13375 0.64791 0.72881
 C645 C -0.11453 0.62897 0.72922
 C646 C -0.11249 0.61160 0.75028
 C647 C -0.13009 0.61373 0.77096
 C648 C -0.14920 0.63278 0.77063
 C649 C -0.09214 0.59133 0.75067
 C650 C -0.07985 0.58468 0.77398
 C651 C -0.06093 0.56543 0.77440
 C652 C -0.05371 0.55253 0.75148
 C653 C -0.06583 0.55927 0.72813
 C654 C -0.08490 0.57838 0.72775
 H655 H -0.20088 0.64568 0.76633
 H656 H -0.23421 0.67822 0.76569
 H657 H -0.18085 0.73321 0.73138
 H658 H -0.14797 0.70019 0.73181
 H659 H -0.13500 0.66070 0.71211
 H660 H -0.10111 0.62810 0.71312
 H661 H -0.12929 0.60047 0.78733
 H662 H -0.16218 0.63410 0.78706
 H663 H -0.08463 0.59457 0.79190
 H664 H -0.05182 0.56080 0.79268
 H665 H -0.06081 0.54957 0.71017
 H666 H -0.09425 0.58271 0.70954
 C667 C -0.17202 0.33237 0.24518
 C668 C -0.19782 0.33928 0.24190
 C669 C -0.21683 0.32024 0.24215
 C670 C -0.21043 0.29395 0.24591
 C671 C -0.18463 0.28705 0.24919
 C672 C -0.16560 0.30605 0.24873
 C673 C -0.15185 0.35256 0.24507
 C674 C -0.12881 0.34863 0.23139
 C675 C -0.10976 0.36762 0.23139
 C676 C -0.11328 0.39083 0.24527
 C677 C -0.13631 0.39475 0.25899
 C678 C -0.15544 0.37585 0.25880
 C679 C -0.09297 0.41086 0.24553
 C680 C -0.08637 0.42319 0.26881
 C681 C -0.06718 0.44202 0.26909
 C682 C -0.05431 0.44907 0.24604
 C683 C -0.06097 0.43676 0.22274
 C684 C -0.08003 0.41777 0.22251
 H685 H -0.20327 0.35939 0.23892
 H686 H -0.23659 0.32610 0.23975
 H687 H -0.17915 0.26689 0.25189
 H688 H -0.14588 0.30022 0.25151
 H689 H -0.12564 0.33094 0.22047
 H690 H -0.09212 0.36401 0.22083
 H691 H -0.13960 0.41255 0.26966
 H692 H -0.17293 0.37930 0.26968
 H693 H -0.09586 0.41804 0.28687
 H694 H -0.06250 0.45115 0.28735
 H695 H -0.05142 0.44175 0.20467
 H696 H -0.08490 0.40874 0.20426
 C697 C 0.16974 0.32460 0.75636
 C698 C 0.19533 0.33135 0.76098
 C699 C 0.21449 0.31234 0.76102
 C700 C 0.20849 0.28617 0.75641
 C701 C 0.18291 0.27940 0.75184
 C702 C 0.16374 0.29840 0.75184
 C703 C 0.14940 0.34482 0.75614
 C704 C 0.12980 0.34408 0.73762
 C705 C 0.11075 0.36318 0.73730
 C706 C 0.11084 0.38348 0.75549
 C707 C 0.13040 0.38419 0.77404
 C708 C 0.14947 0.36508 0.77436
 C709 C 0.09068 0.40388 0.75503
 C710 C 0.08007 0.41340 0.77830
 C711 C 0.06118 0.43268 0.77786
 C712 C 0.05245 0.44286 0.75413
 C713 C 0.06302 0.43330 0.73086
 C714 C 0.08193 0.41404 0.73131
 H715 H 0.20062 0.35142 0.76411
 H716 H 0.23409 0.31819 0.76421
 H717 H 0.17766 0.25933 0.74861
 H718 H 0.14415 0.29252 0.74864
 H719 H 0.12937 0.32889 0.72315
 H720 H 0.09578 0.36193 0.72294
 H721 H 0.13116 0.39972 0.78814
 H722 H 0.16414 0.36604 0.78904
 H723 H 0.08616 0.40572 0.79687
 H724 H 0.05336 0.43956 0.79613
 H725 H 0.05679 0.44079 0.71226
 H726 H 0.08997 0.40737 0.71307
 C727 C 0.17074 0.67389 0.24830
 C728 C 0.16520 0.70003 0.25400
 C729 C 0.18471 0.71854 0.25448
 C730 C 0.21017 0.71131 0.24921
 C731 C 0.21570 0.68521 0.24344
 C732 C 0.19622 0.66671 0.24303
 C733 C 0.15009 0.65413 0.24795
 C734 C 0.15008 0.63452 0.22903
 C735 C 0.13088 0.61570 0.22890
 C736 C 0.11120 0.61607 0.24764
 C737 C 0.11113 0.63576 0.26649
 C738 C 0.13035 0.65457 0.26665
 C739 C 0.09090 0.59593 0.24757
 C740 C 0.08173 0.58518 0.27100
 C741 C 0.06280 0.56606 0.27089
 C742 C 0.05265 0.55722 0.24734
 C743 C 0.06177 0.56801 0.22392
 C744 C 0.08064 0.58716 0.22404
 H745 H 0.14572 0.70626 0.25774
 H746 H 0.17985 0.73858 0.25865
 H747 H 0.23520 0.67901 0.23970
 H748 H 0.20119 0.64666 0.23902
 H749 H 0.16484 0.63381 0.21417
 H750 H 0.13165 0.60064 0.21429
 H751 H 0.09607 0.63676 0.28102
 H752 H 0.12996 0.66926 0.28164
 H753 H 0.08949 0.59126 0.28943
 H754 H 0.05625 0.55809 0.28926
 H755 H 0.05425 0.56172 0.20545
 H756 H 0.08701 0.59532 0.20569
 C757 C 0.75108 -0.17292 0.66979
 C758 C 0.72804 -0.18477 0.67750
 C759 C 0.72785 -0.20411 0.69664
 C760 C 0.75070 -0.21200 0.70858
 C761 C 0.77375 -0.20013 0.70090
 C762 C 0.77394 -0.18083 0.68172
 C763 C 0.75127 -0.15239 0.64940
 C764 C 0.76713 -0.13052 0.65170
 C765 C 0.76726 -0.11119 0.63253
 C766 C 0.75146 -0.11325 0.61069
 C767 C 0.73561 -0.13510 0.60837
 C768 C 0.73554 -0.15447 0.62748
 C769 C 0.75147 -0.09265 0.59043
 C770 C 0.72838 -0.08400 0.57953
 C771 C 0.72835 -0.06451 0.56053
 C772 C 0.75143 -0.05333 0.55193
 C773 C 0.77452 -0.06204 0.56279
 C774 C 0.77453 -0.08145 0.58188
 H775 H 0.71006 -0.17892 0.66891
 H776 H 0.70983 -0.21308 0.70191
 H777 H 0.79163 -0.20561 0.70992
 H778 H 0.79205 -0.17230 0.67602
 H779 H 0.77915 -0.12812 0.66854
 H780 H 0.77940 -0.09438 0.63503
 H781 H 0.72352 -0.13740 0.59156
 H782 H 0.72343 -0.17128 0.62491
 H783 H 0.71029 -0.09206 0.58596
 H784 H 0.71023 -0.05822 0.55259
 H785 H 0.79263 -0.05385 0.55657
 H786 H 0.79264 -0.08794 0.58972
 C787 C 0.25255 -0.17514 0.33153
 C788 C 0.25841 -0.16835 0.30569
 C789 C 0.25831 -0.18711 0.28618
 C790 C 0.25228 -0.21309 0.29203
 C791 C 0.24644 -0.21993 0.31785
 C792 C 0.24661 -0.20116 0.33740
 C793 C 0.25248 -0.15508 0.35220
 C794 C 0.23357 -0.15516 0.37177
 C795 C 0.23331 -0.13605 0.39098
 C796 C 0.25193 -0.11641 0.39107
 C797 C 0.27090 -0.11640 0.37156
 C798 C 0.27119 -0.13552 0.35238
 C799 C 0.25154 -0.09595 0.41134
 C800 C 0.27446 -0.08705 0.42223
 C801 C 0.27413 -0.06767 0.44115
 C802 C 0.25086 -0.05679 0.44969
 C803 C 0.22793 -0.06572 0.43886
 C804 C 0.22827 -0.08506 0.41988
 H805 H 0.26262 -0.14840 0.30044
 H806 H 0.26250 -0.18121 0.26638
 H807 H 0.24206 -0.23988 0.32297
 H808 H 0.24241 -0.20710 0.35718
 H809 H 0.21873 -0.16979 0.37202
 H810 H 0.21861 -0.13679 0.40590
 H811 H 0.28536 -0.10139 0.37091
 H812 H 0.28619 -0.13508 0.33777
 H813 H 0.29267 -0.09531 0.41635
 H814 H 0.29212 -0.06132 0.44919
 H815 H 0.20968 -0.05767 0.44495
 H816 H 0.21031 -0.09122 0.41162
 C817 C 0.75096 0.17583 0.32587
 C818 C 0.75618 0.20186 0.33206
 C819 C 0.75613 0.22106 0.31278
 C820 C 0.75081 0.21466 0.28688
 C821 C 0.74560 0.18866 0.28066
 C822 C 0.74571 0.16945 0.29993
 C823 C 0.75097 0.15542 0.34638
 C824 C 0.73250 0.13562 0.34642
 C825 C 0.73252 0.11641 0.36569
 C826 C 0.75099 0.11655 0.38538
 C827 C 0.76944 0.13637 0.38536
 C828 C 0.76943 0.15557 0.36608
 C829 C 0.75104 0.09608 0.40582
 C830 C 0.77419 0.08535 0.41461
 C831 C 0.77424 0.06602 0.43378
 C832 C 0.75113 0.05695 0.44455
 C833 C 0.72798 0.06770 0.43579
 C834 C 0.72794 0.08706 0.41666
 H835 H 0.75988 0.20747 0.35192
 H836 H 0.75983 0.24100 0.31820
 H837 H 0.74181 0.18311 0.26080
 H838 H 0.74204 0.14951 0.29446
 H839 H 0.71785 0.13512 0.33168
 H840 H 0.71823 0.10125 0.36499
 H841 H 0.78375 0.13718 0.40042
 H842 H 0.78408 0.17039 0.36643
 H843 H 0.79228 0.09162 0.40640
 H844 H 0.79240 0.05808 0.44002
 H845 H 0.70986 0.06121 0.44377
 H846 H 0.70981 0.09519 0.41057
 C847 C 0.24867 0.16856 0.67741
 C848 C 0.27165 0.18003 0.68537
 C849 C 0.27156 0.19911 0.70460
 C850 C 0.24849 0.20709 0.71635
 C851 C 0.22552 0.19552 0.70845
 C852 C 0.22561 0.17650 0.68917
 C853 C 0.24875 0.14841 0.65687
 C854 C 0.22998 0.14858 0.63749
 C855 C 0.23011 0.12967 0.61809
 C856 C 0.24897 0.11013 0.61768
 C857 C 0.26770 0.10994 0.63712
 C858 C 0.26761 0.12889 0.65648
 C859 C 0.24912 0.09003 0.59705
 C860 C 0.27229 0.08153 0.58591
 C861 C 0.27246 0.06255 0.56658
 C862 C 0.24945 0.05169 0.55790
 C863 C 0.22626 0.06023 0.56898
 C864 C 0.22610 0.07917 0.58835
 H865 H 0.28967 0.17458 0.67638
 H866 H 0.28952 0.20795 0.70996
 H867 H 0.20749 0.20093 0.71744
 H868 H 0.20765 0.16771 0.68372
 H869 H 0.21543 0.16361 0.63707
 H870 H 0.21566 0.13061 0.60315
 H871 H 0.28223 0.09490 0.63761
 H872 H 0.28209 0.12804 0.67139
 H873 H 0.29032 0.08978 0.59192
 H874 H 0.29064 0.05648 0.55837
 H875 H 0.20820 0.05217 0.56279
 H876 H 0.20796 0.08504 0.59679
   
