data_POSCAR
  _audit_creation_date              2014-09-24
  _audit_creation_method            'ToBaCCo'
  _symmetry_space_group_name_H-M    'P1'
  _symmetry_Int_Tables_number       1
  _symmetry_cell_setting            triclinic
  loop_
  _symmetry_equiv_pos_as_xyz
 x,y,z
_cell_length_a 17.5336
_cell_length_b 17.9732
_cell_length_c 21.7604
_cell_angle_alpha 90.312000
_cell_angle_beta 89.818900
_cell_angle_gamma 90.145900
loop_
  _atom_site_label
  _atom_site_type_symbol
  _atom_site_fract_x
  _atom_site_fract_y
  _atom_site_fract_z
O1 O 0.14735 0.05415 0.06269
 O2 O -0.16818 -0.07085 0.02547
 O3 O -0.05579 0.14239 0.05373
 O4 O 0.05213 -0.10548 0.09071
 O5 O -0.11628 0.04349 0.07714
 O6 O 0.15395 -0.08361 0.04239
 O7 O -0.07465 -0.09155 0.08069
 O8 O 0.08091 0.14882 0.02872
 C9 C 0.13077 0.12189 0.06481
 C10 C -0.14301 -0.10294 0.07151
 C11 C -0.09837 0.10847 0.09041
 C12 C 0.12208 -0.10591 0.08961
 O13 O 0.13552 -0.05993 -0.07252
 O14 O -0.19030 0.06691 -0.02202
 O15 O 0.04294 0.11161 -0.09027
 O16 O -0.07008 -0.13400 -0.04244
 O17 O -0.11325 -0.02979 -0.07871
 O18 O 0.14970 0.07724 -0.05440
 O19 O 0.06817 -0.15020 -0.03182
 O20 O -0.08685 0.10573 -0.06623
 Co21 Co 0.13314 -0.00268 -0.00460
 Co22 Co -0.10936 0.00906 -0.00112
 Co23 Co -0.00395 0.11669 -0.01639
 Co24 Co -0.00548 -0.11172 0.02241
 O25 O 0.00777 -0.00028 0.00174
 C26 C 0.11359 -0.12616 -0.07314
 C27 C -0.15753 0.11564 -0.05744
 C28 C 0.11264 0.10584 -0.09689
 C29 C -0.10320 -0.09849 -0.08485
 O30 O 0.47393 0.37441 0.41521
 O31 O 0.52934 0.63263 0.42857
 O32 O 0.37445 0.54608 0.42684
 O33 O 0.63261 0.45497 0.42713
 O34 O 0.40276 0.64283 0.47496
 O35 O 0.59831 0.35474 0.46641
 O36 O 0.63749 0.58202 0.45038
 O37 O 0.36562 0.41939 0.44242
 C38 C 0.40660 0.38882 0.40221
 C39 C 0.59670 0.61984 0.41431
 C40 C 0.37507 0.61423 0.42829
 C41 C 0.63272 0.38676 0.42451
 O42 O 0.53121 0.36557 0.57372
 O43 O 0.46356 0.61999 0.58506
 O44 O 0.37219 0.44452 0.56929
 O45 O 0.62846 0.54625 0.57616
 O46 O 0.58960 0.64571 0.53826
 O47 O 0.40827 0.34811 0.52383
 O48 O 0.63843 0.42037 0.55430
 O49 O 0.35880 0.56996 0.55451
 Co50 Co 0.50247 0.37517 0.49507
 Co51 Co 0.49662 0.62095 0.50630
 Co52 Co 0.37922 0.49532 0.49837
 Co53 Co 0.62260 0.50059 0.50174
 O54 O 0.50035 0.49804 0.50051
 C55 C 0.59730 0.38137 0.58965
 C56 C 0.39614 0.60269 0.59585
 C57 C 0.37460 0.37644 0.56817
 C58 C 0.62492 0.61426 0.57976
 C59 C 0.25739 0.25687 0.19298
 C60 C 0.19859 0.28889 0.15804
 C61 C 0.15700 0.24562 0.11597
 C62 C 0.17333 0.16961 0.10852
 C63 C 0.23235 0.13814 0.14340
 C64 C 0.27370 0.18111 0.18495
 C65 C 0.29876 0.29990 0.24085
 C66 C 0.37702 0.28787 0.25108
 C67 C 0.41328 0.31907 0.30224
 C68 C 0.37192 0.36299 0.34408
 C69 C 0.29497 0.37883 0.33172
 C70 C 0.25874 0.34755 0.28070
 H71 H 0.11197 0.27139 0.08968
 H72 H 0.24658 0.07974 0.13902
 H73 H 0.47288 0.30673 0.31015
 H74 H 0.26179 0.41327 0.36278
 H75 H 0.31726 0.15428 0.21210
 H76 H 0.40970 0.25249 0.22042
 H77 H 0.18486 0.34728 0.16325
 H78 H 0.19841 0.35755 0.27433
 C79 C 0.73384 0.76772 0.20560
 C80 C 0.81129 0.78514 0.21270
 C81 C 0.84967 0.82686 0.16883
 C82 C 0.81198 0.85332 0.11637
 C83 C 0.73419 0.83695 0.10889
 C84 C 0.69530 0.79445 0.15332
 C85 C 0.69456 0.72401 0.25439
 C86 C 0.62095 0.74318 0.27450
 C87 C 0.58849 0.70807 0.32559
 C88 C 0.62919 0.65342 0.35797
 C89 C 0.70131 0.63201 0.33634
 C90 C 0.73337 0.66651 0.28494
 H91 H 0.90951 0.83877 0.17648
 H92 H 0.70380 0.85663 0.06893
 H93 H 0.53237 0.72534 0.34085
 H94 H 0.73335 0.58908 0.35952
 H95 H 0.63549 0.78191 0.14652
 H96 H 0.58969 0.78741 0.25237
 H97 H 0.84238 0.76759 0.25300
 H98 H 0.78941 0.64901 0.26974
 C99 C 0.72576 0.24847 0.80819
 C100 C 0.80566 0.24731 0.81189
 C101 C 0.84217 0.20682 0.85738
 C102 C 0.80029 0.16499 0.90029
 C103 C 0.72033 0.16734 0.89827
 C104 C 0.68334 0.20897 0.85270
 C105 C 0.68840 0.28693 0.75560
 C106 C 0.62252 0.25698 0.72818
 C107 C 0.59231 0.28858 0.67497
 C108 C 0.62795 0.35009 0.64724
 C109 C 0.69249 0.38132 0.67522
 C110 C 0.72181 0.35073 0.72916
 H111 H 0.90392 0.20622 0.85730
 H112 H 0.68658 0.13581 0.93079
 H113 H 0.54218 0.26343 0.65450
 H114 H 0.72026 0.42950 0.65546
 H115 H 0.62163 0.20940 0.85191
 H116 H 0.59570 0.20746 0.74641
 H117 H 0.84068 0.27519 0.77802
 H118 H 0.77130 0.37679 0.74973
 C119 C 0.22948 0.73549 0.79520
 C120 C 0.23345 0.81313 0.79204
 C121 C 0.19278 0.85702 0.83320
 C122 C 0.14736 0.82461 0.87935
 C123 C 0.14068 0.74667 0.88129
 C124 C 0.18126 0.70228 0.83908
 C125 C 0.27559 0.69118 0.75142
 C126 C 0.24118 0.63709 0.71400
 C127 C 0.28164 0.60590 0.66477
 C128 C 0.35731 0.62790 0.65257
 C129 C 0.39327 0.67809 0.69277
 C130 C 0.35264 0.70963 0.74158
 H131 H 0.19856 0.91687 0.82955
 H132 H 0.10603 0.72023 0.91623
 H133 H 0.25269 0.56675 0.63483
 H134 H 0.45165 0.69556 0.68489
 H135 H 0.17681 0.64228 0.84176
 H136 H 0.18181 0.62227 0.72059
 H137 H 0.26851 0.84007 0.75757
 H138 H 0.38052 0.75080 0.77036
 C139 C 0.22203 0.20426 0.75387
 C140 C 0.14248 0.20743 0.75945
 C141 C 0.10559 0.17241 0.80820
 C142 C 0.14776 0.13439 0.85333
 C143 C 0.22761 0.12912 0.84604
 C144 C 0.26420 0.16346 0.79661
 C145 C 0.26104 0.24734 0.70562
 C146 C 0.31680 0.21433 0.66801
 C147 C 0.35344 0.25609 0.62261
 C148 C 0.33567 0.33163 0.61510
 C149 C 0.28055 0.36466 0.65328
 C150 C 0.24316 0.32273 0.69782
 H151 H 0.04409 0.17724 0.81127
 H152 H 0.26231 0.09976 0.87909
 H153 H 0.39617 0.22965 0.59390
 H154 H 0.26595 0.42284 0.64842
 H155 H 0.32575 0.16054 0.79306
 H156 H 0.33133 0.15620 0.67340
 H157 H 0.10890 0.23796 0.72639
 H158 H 0.20098 0.34946 0.72690
 C159 C 0.78993 0.78073 0.76654
 C160 C 0.79830 0.85868 0.76367
 C161 C 0.83439 0.89814 0.81117
 C162 C 0.86400 0.86047 0.86217
 C163 C 0.85763 0.78259 0.86424
 C164 C 0.82058 0.74337 0.81744
 C165 C 0.74812 0.73846 0.71770
 C166 C 0.76928 0.66512 0.70219
 C167 C 0.72850 0.62449 0.65818
 C168 C 0.66652 0.65658 0.62759
 C169 C 0.64568 0.72995 0.64220
 C170 C 0.68555 0.77021 0.68709
 H171 H 0.83861 0.95815 0.80821
 H172 H 0.87914 0.75188 0.90319
 H173 H 0.74645 0.56836 0.64720
 H174 H 0.59777 0.75584 0.61950
 H175 H 0.81414 0.68379 0.82228
 H176 H 0.81800 0.63909 0.72351
 H177 H 0.77693 0.88942 0.72475
 H178 H 0.66634 0.82579 0.69846
 C179 C 0.24216 0.78766 0.23532
 C180 C 0.17039 0.81942 0.24619
 C181 C 0.13186 0.85525 0.19889
 C182 C 0.16526 0.86113 0.14039
 C183 C 0.23838 0.83177 0.13018
 C184 C 0.27621 0.79445 0.17719
 C185 C 0.27950 0.74451 0.28392
 C186 C 0.30041 0.67032 0.27297
 C187 C 0.33113 0.62765 0.32016
 C188 C 0.34268 0.65911 0.37859
 C189 C 0.32342 0.73390 0.38907
 C190 C 0.29119 0.77607 0.34222
 H191 H 0.07557 0.87765 0.20783
 H192 H 0.26511 0.83546 0.08535
 H193 H 0.34604 0.57018 0.31098
 H194 H 0.33201 0.75933 0.43376
 H195 H 0.33174 0.77038 0.16818
 H196 H 0.29120 0.64497 0.22832
 H197 H 0.14315 0.81430 0.29072
 H198 H 0.27540 0.83331 0.35135
 C199 C 0.80176 0.22106 0.23927
 C200 C 0.78317 0.14626 0.22674
 C201 C 0.81924 0.10731 0.17901
 C202 C 0.87391 0.14259 0.14134
 C203 C 0.89476 0.21655 0.15574
 C204 C 0.85949 0.25492 0.20411
 C205 C 0.75963 0.26415 0.28746
 C206 C 0.74443 0.34053 0.27976
 C207 C 0.70376 0.38061 0.32438
 C208 C 0.67630 0.34506 0.37731
 C209 C 0.69104 0.26891 0.38507
 C210 C 0.73267 0.22910 0.34099
 H211 H 0.80143 0.05048 0.17005
 H212 H 0.93744 0.24577 0.12892
 H213 H 0.69285 0.43919 0.31706
 H214 H 0.67107 0.24015 0.42569
 H215 H 0.87714 0.31159 0.21349
 H216 H 0.76271 0.36930 0.23869
 H217 H 0.73861 0.11828 0.25230
 H218 H 0.74426 0.17091 0.34930
   
