data_POSCAR
  _audit_creation_date              2014-09-24
  _audit_creation_method            'ToBaCCo'
  _symmetry_space_group_name_H-M    'P1'
  _symmetry_Int_Tables_number       1
  _symmetry_cell_setting            triclinic
  loop_
  _symmetry_equiv_pos_as_xyz
 x,y,z
_cell_length_a 27.4743
_cell_length_b 28.3915
_cell_length_c 27.8816
_cell_angle_alpha 89.863200
_cell_angle_beta 90.966400
_cell_angle_gamma 88.910200
loop_
  _atom_site_label
  _atom_site_type_symbol
  _atom_site_fract_x
  _atom_site_fract_y
  _atom_site_fract_z
C1 C 0.16481 0.16109 0.20551
 N2 N 0.21137 0.14599 0.19814
 C3 C 0.23764 0.16464 0.16208
 N4 N 0.21707 0.19865 0.13338
 C5 C 0.17071 0.21376 0.14065
 N6 N 0.14470 0.19462 0.17643
 C7 C -0.16740 0.82071 0.25033
 N8 N -0.20703 0.84479 0.23273
 C9 C -0.23412 0.82690 0.19617
 N10 N -0.22102 0.78461 0.17675
 C11 C -0.18172 0.76011 0.19468
 N12 N -0.15530 0.77825 0.23149
 C13 C -0.14855 0.13688 -0.20040
 N14 N -0.12174 0.17288 -0.18273
 C15 C -0.13531 0.19560 -0.14223
 N16 N -0.17589 0.18203 -0.11897
 C17 C -0.20300 0.14609 -0.13634
 N18 N -0.18893 0.12356 -0.17697
 C19 C 0.15648 0.81988 -0.22513
 N20 N 0.19864 0.83646 -0.20580
 C21 C 0.21704 0.81815 -0.16388
 N22 N 0.19357 0.78246 -0.14221
 C23 C 0.15179 0.76540 -0.16155
 N24 N 0.13294 0.78480 -0.20249
 C25 C 0.15991 1.17241 0.78076
 N26 N 0.12903 1.20193 0.80423
 C27 C 0.14219 1.22092 0.84713
 N28 N 0.18598 1.20845 0.86762
 C29 C 0.21656 1.17796 0.84491
 N30 N 0.20357 1.16062 0.80131
 C31 C 0.86777 0.84675 0.77971
 N32 N 0.88167 0.80557 0.80109
 C33 C 0.85678 0.78858 0.83888
 N34 N 0.81753 0.81330 0.85536
 C35 C 0.80352 0.85467 0.83416
 N36 N 0.82885 0.87132 0.79668
 C37 C 0.15773 0.83788 1.22177
 N38 N 0.19879 0.85643 1.20303
 C39 C 0.21331 0.84357 1.15834
 N40 N 0.18684 0.81237 1.13268
 C41 C 0.14599 0.79393 1.15087
 N42 N 0.13147 0.80682 1.19535
 C43 C 0.85224 1.14628 1.20238
 N44 N 0.86473 1.18962 1.18616
 C45 C 0.83735 1.21179 1.15128
 N46 N 0.79669 1.19082 1.13383
 C47 C 0.78424 1.14746 1.14969
 N48 N 0.81255 1.12516 1.18326
 O49 O 0.43856 1.08091 1.07510
 O50 O 0.38056 1.03470 1.03956
 C51 C 0.39372 1.06881 1.06724
 O52 O 0.55889 1.06199 0.89471
 O53 O 0.61541 1.02057 0.94041
 C54 C 0.60333 1.04936 0.90590
 O55 O 0.42329 1.07435 0.91069
 O56 O 0.37275 1.03394 0.96033
 C57 C 0.38060 1.06512 0.92740
 O58 O 0.57481 1.07189 1.06917
 O59 O 0.62262 1.02343 1.02313
 C60 C 0.61679 1.05675 1.05428
 Zr61 Zr 0.50409 1.04968 1.04962
 O62 O 0.51092 1.12378 1.04759
 O63 O 0.50618 1.05053 1.12557
 Zr64 Zr 0.49284 1.04514 0.92875
 O65 O 0.50100 1.11909 0.92553
 O66 O 0.47969 1.04345 0.85378
 O67 O 0.45554 1.05860 0.99193
 O68 O 0.54073 1.05398 0.98563
 O69 O 0.57106 0.90533 1.07698
 O70 O 0.62086 0.94304 1.02452
 C71 C 0.61349 0.91391 1.05932
 O72 O 0.41859 0.90415 0.91491
 O73 O 0.37064 0.95133 0.96230
 C74 C 0.37657 0.91878 0.93021
 O75 O 0.55467 0.89806 0.90487
 O76 O 0.61319 0.94137 0.94344
 C77 C 0.59967 0.90886 0.91372
 O78 O 0.43453 0.90751 1.08331
 O79 O 0.37849 0.95488 1.04347
 C80 C 0.39036 0.92259 1.07477
 Zr81 Zr 0.50100 0.93091 1.05503
 O82 O 0.50423 0.85655 1.05996
 O83 O 0.50309 0.93624 1.13079
 Zr84 Zr 0.48946 0.92647 0.93394
 O85 O 0.49103 0.85194 0.93723
 O86 O 0.47861 0.92485 0.85859
 Zr87 Zr 0.42475 0.99130 0.99716
 Zr88 Zr 0.56904 0.98453 0.98650
 O89 O 0.53674 0.91806 0.99177
 O90 O 0.45170 0.92134 0.99805
 O91 O 0.54695 0.98858 1.05846
 O92 O 0.44818 0.98765 0.92578
 O93 O 0.46129 0.99257 1.06413
 O94 O 0.53366 0.98331 0.91880
 H95 H 0.56314 1.08070 0.98245
 H96 H 0.42366 0.98826 0.89931
 H97 H 0.55723 0.88898 0.99147
 H98 H 0.44210 0.99466 1.09385
 H99 H 0.50290 1.02026 0.84019
 H100 H 0.50699 0.93972 0.84380
 H101 H 0.46369 0.84219 0.95742
 H102 H 0.47847 0.84442 1.03838
 H103 H 0.53371 0.95191 1.14001
 H104 H 0.53621 1.03350 1.13622
 H105 H 0.48439 1.13645 1.02661
 H106 H 0.47534 1.13364 0.94542
 O107 O 0.07551 0.57238 -0.06133
 O108 O 0.02246 0.62253 -0.02296
 C109 C 0.05869 0.61424 -0.05108
 O110 O -0.09751 0.43649 -0.07764
 O111 O -0.05060 0.38499 -0.03235
 C112 C -0.08411 0.39428 -0.06452
 O113 O -0.09335 0.56830 -0.08489
 O114 O -0.05849 0.62022 -0.03220
 C115 C -0.08521 0.61060 -0.06951
 O116 O 0.08780 0.44035 -0.05421
 O117 O 0.03589 0.38674 -0.02217
 C118 C 0.07468 0.39756 -0.04541
 Zr119 Zr 0.05166 0.50509 -0.03919
 O120 O 0.05703 0.49949 -0.11466
 O121 O 0.12797 0.51236 -0.03339
 Zr122 Zr -0.06985 0.50221 -0.05588
 O123 O -0.05456 0.49599 -0.12984
 O124 O -0.14496 0.50587 -0.07329
 O125 O -0.00991 0.54605 -0.05650
 O126 O -0.00625 0.46212 -0.05634
 O127 O 0.06159 0.43785 0.10859
 O128 O 0.02613 0.38541 0.05664
 C129 C 0.05368 0.39557 0.09321
 O130 O -0.11490 0.56691 0.08758
 O131 O -0.06613 0.61962 0.04956
 C132 C -0.10139 0.60947 0.07770
 O133 O -0.11111 0.43360 0.08435
 O134 O -0.05633 0.38362 0.04805
 C135 C -0.09343 0.39184 0.07514
 O136 O 0.04946 0.56907 0.11443
 O137 O 0.01380 0.62094 0.06064
 C138 C 0.03872 0.61132 0.09953
 Zr139 Zr 0.03701 0.50378 0.08081
 O140 O 0.03516 0.49907 0.15637
 O141 O 0.11352 0.51109 0.08597
 Zr142 Zr -0.08535 0.50109 0.06440
 O143 O -0.09500 0.49620 0.13943
 O144 O -0.16174 0.50351 0.05297
 Zr145 Zr -0.01975 0.57309 0.01318
 Zr146 Zr -0.01348 0.43280 0.01249
 O147 O -0.02336 0.46174 0.08126
 O148 O -0.02723 0.54404 0.08229
 O149 O 0.05573 0.46271 0.02209
 O150 O -0.08828 0.54223 0.00327
 O151 O 0.05147 0.54573 0.02240
 O152 O -0.08519 0.45964 0.00302
 H153 H -0.00218 0.44000 -0.08349
 H154 H -0.11775 0.56266 -0.00038
 H155 H -0.02575 0.44083 0.10958
 H156 H 0.07848 0.56805 0.02669
 H157 H -0.16228 0.49884 -0.04344
 H158 H -0.17057 0.47518 0.03439
 H159 H -0.07908 0.52362 0.15438
 H160 H 0.00099 0.50507 0.16536
 H161 H 0.12876 0.48044 0.07741
 H162 H 0.13864 0.49567 -0.00378
 H163 H 0.04296 0.52877 -0.12891
 H164 H -0.04198 0.52657 -0.14074
 O165 O 1.08807 -0.08262 0.56804
 O166 O 1.04334 -0.03637 0.61919
 C167 C 1.07406 -0.07035 0.61071
 O168 O 1.12084 0.08180 0.44138
 O169 O 1.07024 0.05010 0.38410
 C170 C 1.10799 0.07394 0.39719
 O171 O 1.11380 0.07544 0.57620
 O172 O 1.05672 0.04044 0.62296
 C173 C 1.09541 0.06492 0.61751
 O174 O 1.08843 -0.08261 0.43177
 O175 O 1.05262 -0.02940 0.37928
 C176 C 1.07871 -0.06676 0.38870
 Zr177 Zr 1.06466 -0.05656 0.49957
 O178 O 1.13856 -0.07844 0.49975
 O179 O 1.04480 -0.12826 0.50133
 Zr180 Zr 1.08765 0.06015 0.50564
 O181 O 1.16338 0.04471 0.50687
 O182 O 1.10105 0.13298 0.51323
 O183 O 1.08324 -0.00154 0.54563
 O184 O 1.08698 0.00157 0.46176
 O185 O 0.92024 -0.05136 0.42308
 O186 O 0.97318 -0.01233 0.37483
 C187 C 0.93631 -0.03932 0.38143
 O188 O 0.94284 0.11121 0.56484
 O189 O 0.97485 0.05614 0.61761
 C190 C 0.94981 0.09420 0.60771
 O191 O 0.95460 0.11910 0.43084
 O192 O 0.99005 0.06679 0.37874
 C193 C 0.96571 0.10519 0.38799
 O194 O 0.90751 -0.04840 0.55624
 O195 O 0.96040 -0.02037 0.61350
 C196 C 0.92114 -0.04176 0.60040
 Zr197 Zr 0.94412 -0.03184 0.49236
 O198 O 0.86881 -0.01803 0.48145
 O199 O 0.93134 -0.10512 0.49515
 Zr200 Zr 0.96668 0.08483 0.49786
 O201 O 0.89090 0.09723 0.48788
 O202 O 0.97731 0.15799 0.50581
 Zr203 Zr 1.01186 0.01161 0.56970
 Zr204 Zr 1.01941 0.01694 0.42771
 O205 O 0.94873 0.02982 0.45307
 O206 O 0.94366 0.02698 0.53707
 O207 O 1.00488 -0.05153 0.45268
 O208 O 1.02653 0.07938 0.54341
 O209 O 1.00059 -0.05422 0.53735
 O210 O 1.03135 0.08311 0.45955
 H211 H 1.11647 -0.00356 0.44235
 H212 H 1.03065 0.10597 0.56596
 H213 H 0.92196 0.03642 0.42961
 H214 H 0.99441 -0.08154 0.55843
 H215 H 1.08829 0.14907 0.48399
 H216 H 1.00692 0.16562 0.48794
 H217 H 0.87449 0.08593 0.51693
 H218 H 0.85952 0.00739 0.50386
 H219 H 0.94968 -0.12009 0.46884
 H220 H 1.03360 -0.13690 0.46866
 H221 H 1.15750 -0.05081 0.50976
 H222 H 1.17051 0.02436 0.53510
 C223 C 1.13684 0.14278 0.24203
 C224 C 1.15532 0.11594 0.27749
 C225 C 1.12323 0.09856 0.31482
 C226 C 1.13952 0.09201 0.35969
 H227 H 1.19412 0.10846 0.28036
 H228 H 1.08525 0.09281 0.30577
 H229 H 1.09850 0.15268 0.24258
 H230 H 1.17658 0.10101 0.36935
 C231 C 0.86134 -0.16107 0.28718
 C232 C 0.85962 -0.11567 0.29966
 C233 C 0.88949 -0.09902 0.33992
 C234 C 0.91003 -0.05681 0.33914
 H235 H 0.83725 -0.09037 0.27961
 H236 H 0.89528 -0.12217 0.37058
 H237 H 0.88783 -0.18442 0.30478
 H238 H 0.90790 -0.03520 0.30705
 C239 C 0.86540 0.11256 0.75848
 C240 C 0.89970 0.12809 0.72922
 C241 C 0.91513 0.10014 0.68777
 C242 C 0.92979 0.12118 0.64784
 H243 H 0.91612 0.16209 0.73506
 H244 H 0.91436 0.06201 0.68995
 H245 H 0.84667 0.08040 0.74943
 H246 H 0.92680 0.15917 0.64440
 C247 C 1.13478 -0.15967 0.73058
 C248 C 1.16078 -0.13627 0.69833
 C249 C 1.13884 -0.11536 0.65412
 C250 C 1.09412 -0.09571 0.65297
 H251 H 1.19985 -0.13395 0.70321
 H252 H 1.16183 -0.11237 0.62312
 H253 H 1.09649 -0.16566 0.72359
 H254 H 1.07304 -0.09433 0.68545
 C255 C 0.28398 1.14636 1.15297
 C256 C 0.31349 1.16513 1.12051
 C257 C 0.35709 1.13963 1.10374
 C258 C 0.35437 1.09433 1.09132
 H259 H 0.30493 1.19903 1.10422
 H260 H 0.38916 1.15950 1.09545
 H261 H 0.29569 1.11462 1.17195
 H262 H 0.32018 1.07628 1.09490
 C263 C 0.25889 0.83597 0.85821
 C264 C 0.28664 0.86862 0.83805
 C265 C 0.33088 0.88649 0.86200
 C266 C 0.33260 0.89825 0.90855
 H267 H 0.27903 0.88050 0.80169
 H268 H 0.36172 0.89363 0.83956
 H269 H 0.26960 0.82188 0.89309
 H270 H 0.30021 0.89615 0.93002
 C271 C 0.72512 0.85245 1.17949
 C272 C 0.70168 0.84257 1.13849
 C273 C 0.65934 0.87125 1.12264
 C274 C 0.65600 0.88698 1.07762
 H275 H 0.71519 0.81518 1.11488
 H276 H 0.63180 0.88093 1.14840
 H277 H 0.71334 0.88297 1.19991
 H278 H 0.68589 0.88054 1.05342
 C279 C 0.75599 1.13181 0.88845
 C280 C 0.72416 1.10116 0.87019
 C281 C 0.68352 1.08413 0.89873
 C282 C 0.64265 1.06912 0.87763
 H283 H 0.72766 1.08843 0.83375
 H284 H 0.68700 1.08403 0.93755
 H285 H 0.74952 1.14676 0.92360
 H286 H 0.63735 1.07280 0.83918
 C287 C 0.14885 0.25098 0.11033
 C288 C 0.11456 0.27974 0.12767
 C289 C 0.09280 0.31791 0.09876
 C290 C 0.07655 0.35683 0.12027
 H291 H 0.10372 0.27649 0.16475
 H292 H 0.09121 0.31480 0.05999
 H293 H 0.16259 0.25634 0.07455
 H294 H 0.08200 0.36122 0.15860
 C295 C -0.10505 0.23372 -0.12335
 C296 C -0.12471 0.27243 -0.10409
 C297 C -0.09404 0.31072 -0.08604
 C298 C -0.11115 0.35506 -0.08582
 H299 H -0.16400 0.27673 -0.10312
 H300 H -0.05732 0.30263 -0.07329
 H301 H -0.06602 0.23121 -0.12814
 H302 H -0.14675 0.36297 -0.10156
 C303 C 0.12680 0.72605 -0.13869
 C304 C 0.15072 0.69456 -0.11076
 C305 C 0.12699 0.65338 -0.08969
 C306 C 0.08174 0.65539 -0.07267
 H307 H 0.18982 0.69685 -0.10595
 H308 H 0.14870 0.62133 -0.08561
 H309 H 0.08864 0.72127 -0.14745
 H310 H 0.06158 0.68857 -0.07289
 C311 C -0.16445 0.71610 0.17271
 C312 C -0.19157 0.68980 0.14325
 C313 C -0.17028 0.64806 0.11937
 C314 C -0.12595 0.64972 0.10037
 H315 H -0.22986 0.69807 0.13747
 H316 H -0.19197 0.61681 0.11555
 H317 H -0.12735 0.70492 0.18126
 H318 H -0.10669 0.68272 0.10062
 C319 C 1.14580 0.15367 0.73657
 C320 C 1.17602 0.12834 0.70880
 C321 C 1.15889 0.10689 0.66364
 C322 C 1.11695 0.08389 0.66176
 H323 H 1.21436 0.12458 0.71803
 H324 H 1.18180 0.10857 0.63248
 H325 H 1.10873 0.16058 0.72411
 H326 H 1.09638 0.07975 0.69433
 C327 C 0.89455 -0.13608 0.74166
 C328 C 0.87951 -0.09921 0.71500
 C329 C 0.91006 -0.08110 0.67681
 C330 C 0.89030 -0.06024 0.63807
 H331 H 0.84416 -0.08263 0.72050
 H332 H 0.94925 -0.08609 0.67979
 H333 H 0.92843 -0.15410 0.73296
 H334 H 0.85111 -0.05909 0.63277
 C335 C 1.14082 -0.14903 0.26700
 C336 C 1.16571 -0.12213 0.29805
 C337 C 1.14480 -0.10565 0.34387
 C338 C 1.09808 -0.09184 0.34686
 H339 H 1.20268 -0.11220 0.29045
 H340 H 1.16950 -0.09939 0.37377
 H341 H 1.10559 -0.16190 0.27735
 H342 H 1.07481 -0.09289 0.31511
 C343 C 0.87902 0.12261 0.23833
 C344 C 0.91280 0.14278 0.26623
 C345 C 0.93661 0.11510 0.30508
 C346 C 0.94820 0.13447 0.34731
 H347 H 0.92039 0.17996 0.26284
 H348 H 0.94063 0.07730 0.30050
 H349 H 0.86961 0.08637 0.24571
 H350 H 0.94024 0.17149 0.35342
 C351 C 0.11061 0.25341 -0.13122
 C352 C 0.12405 0.28108 -0.09467
 C353 C 0.09037 0.31748 -0.07611
 C354 C 0.10699 0.35930 -0.06218
 H355 H 0.16113 0.27966 -0.08072
 H356 H 0.05157 0.31111 -0.07665
 H357 H 0.07453 0.25850 -0.14704
 H358 H 0.14533 0.36671 -0.06580
 C359 C -0.14857 0.25458 0.13120
 C360 C -0.10519 0.27372 0.14057
 C361 C -0.08709 0.31496 0.11442
 C362 C -0.11527 0.35124 0.09905
 H363 H -0.07937 0.25594 0.16455
 H364 H -0.04801 0.31646 0.11011
 H365 H -0.17249 0.27080 0.10435
 H366 H -0.15361 0.35281 0.10742
 C367 C -0.12678 0.74682 -0.13919
 C368 C -0.14438 0.73078 -0.09782
 C369 C -0.12259 0.68947 -0.07289
 C370 C -0.10834 0.65026 -0.09576
 H371 H -0.17182 0.75095 -0.07888
 H372 H -0.11992 0.69097 -0.03410
 H373 H -0.09641 0.72816 -0.15531
 H374 H -0.11530 0.64657 -0.13392
 C375 C 0.11816 0.76039 0.12171
 C376 C 0.08965 0.72824 0.14116
 C377 C 0.06666 0.69220 0.11097
 C378 C 0.05634 0.65021 0.12935
 H379 H 0.08619 0.72627 0.17979
 H380 H 0.06164 0.69870 0.07284
 H381 H 0.12416 0.75990 0.08337
 H382 H 0.06501 0.64282 0.16674
 C383 C 0.26179 1.16096 0.86886
 C384 C 0.29696 1.13894 0.84427
 C385 C 0.34025 1.11658 0.86713
 C386 C 0.33804 1.09147 0.90776
 H387 H 0.29469 1.13769 0.80547
 H388 H 0.37364 1.11668 0.84703
 H389 H 0.26567 1.16554 0.90729
 H390 H 0.30361 1.08816 0.92575
 C391 C 0.25725 0.86252 1.13655
 C392 C 0.27290 0.90608 1.14496
 C393 C 0.31265 0.92671 1.11714
 C394 C 0.35156 0.90153 1.10296
 H395 H 0.25290 0.92896 1.16900
 H396 H 0.31041 0.96418 1.10969
 H397 H 0.27415 0.84153 1.10877
 H398 H 0.35655 0.86531 1.11454
 C399 C 0.74101 1.12363 1.13057
 C400 C 0.70454 1.14678 1.10780
 C401 C 0.66031 1.12308 1.09037
 C402 C 0.66100 1.07910 1.07304
 H403 H 0.70541 1.18477 1.10443
 H404 H 0.62673 1.14372 1.08921
 H405 H 0.73820 1.08626 1.13766
 H406 H 0.69525 1.05991 1.06987
 C407 C 0.76331 0.88335 0.85309
 C408 C 0.72261 0.86441 0.86907
 C409 C 0.68386 0.89472 0.88870
 C410 C 0.63780 0.88063 0.89014
 H411 H 0.71765 0.82666 0.86709
 H412 H 0.69335 0.92922 0.90217
 H413 H 0.76642 0.92135 0.85175
 H414 H 0.62796 0.84723 0.87430
   
