data_POSCAR
  _audit_creation_date              2014-09-24
  _audit_creation_method            'ToBaCCo'
  _symmetry_space_group_name_H-M    'P1'
  _symmetry_Int_Tables_number       1
  _symmetry_cell_setting            triclinic
  loop_
  _symmetry_equiv_pos_as_xyz
 x,y,z
_cell_length_a 39.6528
_cell_length_b 39.7627
_cell_length_c 40.7240
_cell_angle_alpha 91.691900
_cell_angle_beta 92.082100
_cell_angle_gamma 91.926400
loop_
  _atom_site_label
  _atom_site_type_symbol
  _atom_site_fract_x
  _atom_site_fract_y
  _atom_site_fract_z
N1 N 0.15880 0.23599 0.24460
 N2 N 0.16836 0.21074 0.26236
 C3 C 0.14801 0.20804 0.28798
 C4 C 0.12422 0.23292 0.28613
 C5 C 0.13159 0.24961 0.25768
 H6 H 0.15003 0.18900 0.30629
 H7 H 0.11774 0.26955 0.24653
 Cu8 Cu 0.20508 0.18254 0.24880
 Cu9 Cu 0.18375 0.25030 0.20698
 Cu10 Cu 0.21997 0.18337 0.16776
 N11 N 0.23498 0.15073 0.22849
 N12 N 0.24039 0.15106 0.19683
 C13 C 0.26131 0.12636 0.18910
 C14 C 0.26920 0.10926 0.21732
 C15 C 0.25239 0.12572 0.24199
 H16 H 0.27055 0.12155 0.16479
 H17 H 0.25268 0.11976 0.26774
 N18 N 0.21083 0.22616 0.14619
 N19 N 0.19944 0.25251 0.16215
 C20 C 0.20135 0.27945 0.14306
 C21 C 0.21488 0.26975 0.11356
 C22 C 0.21962 0.23549 0.11607
 H23 H 0.19452 0.30457 0.15054
 H24 H 0.23002 0.21882 0.09788
 H25 H 0.18126 0.20058 0.19628
 H26 H 0.22511 0.21806 0.20530
 N27 N 0.65914 0.74091 0.75237
 N28 N 0.66805 0.71262 0.76562
 C29 C 0.64519 0.70357 0.78773
 C30 C 0.62060 0.72732 0.78801
 C31 C 0.63024 0.75073 0.76542
 H32 H 0.64585 0.68105 0.80195
 H33 H 0.61687 0.77289 0.75858
 Cu34 Cu 0.70831 0.69000 0.75242
 Cu35 Cu 0.68563 0.76287 0.71924
 Cu36 Cu 0.74886 0.71570 0.68631
 N37 N 0.75217 0.67320 0.74159
 N38 N 0.76872 0.68426 0.71650
 C39 C 0.79756 0.66756 0.71413
 C40 C 0.79933 0.64478 0.73925
 C41 C 0.76965 0.64877 0.75573
 H42 H 0.81521 0.67082 0.69475
 H43 H 0.76055 0.63375 0.77547
 N44 N 0.73228 0.75654 0.66607
 N45 N 0.70866 0.77495 0.67885
 C46 C 0.70297 0.80109 0.65929
 C47 C 0.72442 0.79921 0.63328
 C48 C 0.74234 0.77048 0.63820
 H49 H 0.68422 0.81977 0.66330
 H50 H 0.76140 0.76059 0.62261
 H51 H 0.69827 0.71736 0.70009
 H52 H 0.73191 0.73970 0.72655
 N53 N 0.32606 0.72946 0.75690
 N54 N 0.31184 0.74919 0.77844
 C55 C 0.32873 0.74767 0.80760
 C56 C 0.35513 0.72607 0.80415
 C57 C 0.35254 0.71499 0.77157
 H58 H 0.32455 0.76380 0.82879
 H59 H 0.37082 0.70056 0.75864
 Cu60 Cu 0.27992 0.78240 0.76441
 Cu61 Cu 0.31401 0.72938 0.71014
 Cu62 Cu 0.24791 0.77932 0.68714
 N63 N 0.24812 0.81501 0.74883
 N64 N 0.23903 0.81604 0.71754
 C65 C 0.21936 0.84250 0.71275
 C66 C 0.21465 0.85795 0.74298
 C67 C 0.23358 0.84014 0.76531
 H68 H 0.20728 0.84847 0.68949
 H69 H 0.23679 0.84547 0.79145
 N70 N 0.26631 0.74545 0.65759
 N71 N 0.29137 0.72611 0.66617
 C72 C 0.29734 0.70495 0.64071
 C73 C 0.27535 0.71193 0.61489
 C74 C 0.25583 0.73738 0.62657
 H75 H 0.31618 0.68591 0.64088
 H76 H 0.23524 0.74887 0.61342
 H77 H 0.29544 0.77780 0.70702
 H78 H 0.26603 0.74289 0.71895
 N79 N 0.84236 0.26206 0.23863
 N80 N 0.82918 0.27994 0.26229
 C81 C 0.84872 0.27810 0.28985
 C82 C 0.87524 0.25713 0.28352
 C83 C 0.87055 0.24797 0.25042
 H84 H 0.84361 0.29052 0.31304
 H85 H 0.88720 0.23353 0.23547
 Cu86 Cu 0.78775 0.30404 0.25466
 Cu87 Cu 0.82257 0.26010 0.19392
 Cu88 Cu 0.73718 0.27490 0.19192
 N89 N 0.74577 0.32577 0.24314
 N90 N 0.72618 0.31413 0.21838
 C91 C 0.69995 0.33430 0.21434
 C92 C 0.70281 0.35985 0.23816
 C93 C 0.73247 0.35380 0.25586
 H94 H 0.68116 0.33147 0.19443
 H95 H 0.74397 0.36923 0.27581
 N96 N 0.75880 0.24935 0.15725
 N97 N 0.79177 0.24639 0.15641
 C98 C 0.79907 0.23106 0.12775
 C99 C 0.76916 0.22421 0.10963
 C100 C 0.74413 0.23547 0.12961
 H101 H 0.82424 0.22487 0.12082
 H102 H 0.71716 0.23366 0.12459
 H103 H 0.78479 0.29554 0.19506
 H104 H 0.77914 0.25528 0.21699
 N105 N 0.84630 0.73305 0.27565
 N106 N 0.84534 0.70107 0.26632
 C107 C 0.86514 0.69677 0.24052
 C108 C 0.87894 0.72776 0.23291
 C109 C 0.86703 0.75018 0.25613
 H110 H 0.86789 0.67314 0.22719
 H111 H 0.87232 0.77704 0.25802
 Cu112 Cu 0.81488 0.66857 0.28506
 Cu113 Cu 0.81877 0.75016 0.31095
 Cu114 Cu 0.75973 0.69351 0.34002
 N115 N 0.77319 0.64320 0.29110
 N116 N 0.75045 0.65456 0.31084
 C117 C 0.72269 0.63426 0.30802
 C118 C 0.72818 0.60883 0.28502
 C119 C 0.76095 0.61489 0.27542
 H120 H 0.70014 0.63774 0.32174
 H121 H 0.77496 0.59995 0.25837
 N122 N 0.76652 0.73941 0.35841
 N123 N 0.78837 0.76149 0.34695
 C124 C 0.78698 0.79047 0.36481
 C125 C 0.76292 0.78642 0.38841
 C126 C 0.75091 0.75351 0.38385
 H127 H 0.80285 0.81267 0.36150
 H128 H 0.73290 0.74045 0.39868
 H129 H 0.81112 0.70569 0.33395
 H130 H 0.78019 0.71528 0.30013
 N131 N 0.33629 0.23593 -0.23748
 N132 N 0.33992 0.20395 -0.24516
 C133 C 0.36373 0.20122 -0.26771
 C134 C 0.37469 0.23336 -0.27572
 C135 C 0.35699 0.25473 -0.25556
 H136 H 0.37116 0.17771 -0.27886
 H137 H 0.35962 0.28188 -0.25343
 Cu138 Cu 0.31055 0.16929 -0.22777
 Cu139 Cu 0.30480 0.25070 -0.20472
 Cu140 Cu 0.26957 0.18687 -0.15954
 N141 N 0.27341 0.14024 -0.21423
 N142 N 0.25787 0.14692 -0.18694
 C143 C 0.23400 0.12280 -0.18268
 C144 C 0.23465 0.09966 -0.20866
 C145 C 0.25971 0.11170 -0.22847
 H146 H 0.21709 0.12236 -0.16242
 H147 H 0.26750 0.10042 -0.25135
 N148 N 0.27065 0.23430 -0.14490
 N149 N 0.28272 0.25893 -0.16258
 C150 C 0.27848 0.28848 -0.14639
 C151 C 0.26243 0.28202 -0.11747
 C152 C 0.25844 0.24736 -0.11713
 H153 H 0.28661 0.31286 -0.15486
 H154 H 0.24744 0.23269 -0.09802
 H155 H 0.31348 0.20814 -0.17997
 H156 H 0.27216 0.20879 -0.20335
 N157 N 0.66451 0.26154 -0.25829
 N158 N 0.67092 0.29078 -0.27136
 C159 C 0.64455 0.29834 -0.29125
 C160 C 0.62027 0.27242 -0.29062
 C161 C 0.63437 0.24899 -0.27019
 H162 H 0.64297 0.32113 -0.30501
 H163 H 0.62221 0.22602 -0.26225
 Cu164 Cu 0.71212 0.31736 -0.25957
 Cu165 Cu 0.69198 0.24639 -0.22146
 Cu166 Cu 0.76858 0.28883 -0.20393
 N167 N 0.75224 0.34404 -0.24464
 N168 N 0.77423 0.33302 -0.22290
 C169 C 0.79900 0.35676 -0.21695
 C170 C 0.79174 0.38437 -0.23554
 C171 C 0.76219 0.37515 -0.25315
 H172 H 0.82030 0.35442 -0.19991
 H173 H 0.74886 0.39026 -0.27069
 N174 N 0.75373 0.24819 -0.18087
 N175 N 0.72498 0.23147 -0.18824
 C176 C 0.72129 0.20619 -0.16727
 C177 C 0.74891 0.20708 -0.14562
 C178 C 0.76884 0.23422 -0.15466
 H179 H 0.69929 0.18946 -0.16646
 H180 H 0.79196 0.24375 -0.14230
 H181 H 0.71731 0.29170 -0.20624
 H182 H 0.73578 0.26545 -0.23937
 N183 N 0.16958 0.76055 0.23835
 N184 N 0.18218 0.77841 0.21477
 C185 C 0.15742 0.78387 0.19216
 C186 C 0.12775 0.76888 0.20255
 C187 C 0.13676 0.75346 0.23137
 H188 H 0.16029 0.79928 0.17093
 H189 H 0.12019 0.73967 0.24712
 Cu190 Cu 0.22850 0.79627 0.21814
 Cu191 Cu 0.19414 0.75313 0.27935
 Cu192 Cu 0.27935 0.77203 0.28004
 N193 N 0.26921 0.82241 0.23214
 N194 N 0.28732 0.81458 0.25835
 C195 C 0.30958 0.84008 0.26641
 C196 C 0.30556 0.86482 0.24353
 C197 C 0.28028 0.85249 0.22171
 H198 H 0.32715 0.84069 0.28740
 H199 H 0.26881 0.86572 0.20157
 N200 N 0.25913 0.74120 0.31108
 N201 N 0.22616 0.73702 0.31284
 C202 C 0.21935 0.71899 0.33933
 C203 C 0.24952 0.71115 0.35508
 C204 C 0.27430 0.72484 0.33568
 H205 H 0.19418 0.71222 0.34674
 H206 H 0.30137 0.72344 0.33914
 H207 H 0.23221 0.78936 0.27747
 H208 H 0.23680 0.74874 0.25412
 N209 N 0.49606 0.42422 0.50752
 N210 N 0.46637 0.42944 0.51971
 C211 C 0.45782 0.40356 0.53861
 C212 C 0.48344 0.38079 0.53790
 C213 C 0.50763 0.39498 0.51850
 H214 H 0.43446 0.40115 0.55141
 H215 H 0.53115 0.38417 0.51169
 Cu216 Cu 0.44105 0.46885 0.50862
 Cu217 Cu 0.51518 0.45413 0.47548
 Cu218 Cu 0.45214 0.49368 0.43175
 N219 N 0.41235 0.50186 0.48881
 N220 N 0.41658 0.51121 0.45849
 C221 C 0.39214 0.53223 0.44990
 C222 C 0.37145 0.53611 0.47625
 C223 C 0.38520 0.51684 0.50071
 H224 H 0.38929 0.54342 0.42611
 H225 H 0.37547 0.51310 0.52486
 N226 N 0.49676 0.48499 0.41408
 N227 N 0.52143 0.47209 0.43174
 C228 C 0.54869 0.46948 0.41332
 C229 C 0.54048 0.48032 0.38218
 C230 C 0.50761 0.49067 0.38373
 H231 H 0.57232 0.45921 0.42163
 H232 H 0.49253 0.50085 0.36396
 H233 H 0.48218 0.49499 0.47293
 H234 H 0.46701 0.45226 0.45761
 N235 N -0.02189 -0.09767 0.98895
 N236 N -0.04474 -0.08539 1.00814
 C237 C -0.04535 -0.10291 1.03581
 C238 C -0.02126 -0.12721 1.03415
 C239 C -0.00725 -0.12361 1.00375
 H240 H -0.06232 -0.09859 1.05559
 H241 H 0.01222 -0.13855 0.99329
 Cu242 Cu -0.07225 -0.04819 0.99515
 Cu243 Cu -0.01375 -0.07891 0.94614
 Cu244 Cu -0.03760 0.00387 0.94162
 N245 N -0.09294 -0.00629 0.98392
 N246 N -0.07935 0.01362 0.96249
 C247 C -0.09806 0.04089 0.95924
 C248 C -0.12449 0.03839 0.98032
 C249 C -0.12080 0.00782 0.99527
 H250 H -0.09286 0.06096 0.94259
 H251 H -0.13700 -0.00308 1.01323
 N252 N -0.00544 -0.01616 0.91209
 N253 N 0.00251 -0.04810 0.91279
 C254 C 0.02260 -0.05487 0.88772
 C255 C 0.02701 -0.02583 0.87027
 C256 C 0.00934 -0.00167 0.88660
 H257 H 0.03304 -0.07912 0.88237
 H258 H 0.00637 0.02414 0.87965
 H259 H -0.01864 -0.03474 0.97016
 H260 H -0.05322 -0.04546 0.93887
 N261 N 1.01232 0.59701 0.99974
 N262 N 1.02732 0.58093 1.02364
 C263 C 1.02379 0.59839 1.05219
 C264 C 1.00526 0.62666 1.04573
 C265 C 0.99914 0.62515 1.01206
 H266 H 1.03432 0.59139 1.07579
 H267 H 0.98643 0.64350 0.99744
 Cu268 Cu 1.05201 0.54002 1.01466
 Cu269 Cu 1.01037 0.58091 0.95424
 Cu270 Cu 1.04416 0.50400 0.93911
 N271 N 1.08466 0.50794 0.99864
 N272 N 1.08316 0.49705 0.96788
 C273 C 1.10947 0.47762 0.96230
 C274 C 1.12875 0.47530 0.99129
 C275 C 1.11141 0.49444 1.01409
 H276 H 1.11348 0.46536 0.93880
 H277 H 1.11672 0.49740 1.04023
 N278 N 1.01269 0.52405 0.90802
 N279 N 1.00061 0.55415 0.91326
 C280 C 0.97957 0.56113 0.88786
 C281 C 0.97865 0.53412 0.86562
 C282 C 0.99966 0.51090 0.87930
 H283 H 0.96517 0.58367 0.88611
 H284 H 1.00495 0.48627 0.86916
 H285 H 1.01140 0.53240 0.96846
 H286 H 1.05273 0.55186 0.95633
 N287 N 0.51306 0.10481 0.48796
 N288 N 0.53867 0.09574 0.50675
 C289 C 0.54081 0.11571 0.53417
 C290 C 0.51488 0.13802 0.53256
 C291 C 0.49785 0.13054 0.50291
 H292 H 0.55928 0.11380 0.55417
 H293 H 0.47592 0.14284 0.49311
 Cu294 Cu 0.56565 0.05770 0.49403
 Cu295 Cu 0.50110 0.08250 0.44556
 Cu296 Cu 0.54884 0.01484 0.42263
 N297 N 0.59227 0.01957 0.48077
 N298 N 0.58558 0.00315 0.45266
 C299 C 0.60793 -0.02127 0.44892
 C300 C 0.62991 -0.01998 0.47603
 C301 C 0.61907 0.00592 0.49599
 H302 H 0.60837 -0.03862 0.42799
 H303 H 0.63030 0.01442 0.51951
 N304 N 0.51075 0.03039 0.39539
 N305 N 0.49300 0.05664 0.40364
 C306 C 0.46934 0.06121 0.37969
 C307 C 0.47248 0.03666 0.35535
 C308 C 0.49866 0.01738 0.36622
 H309 H 0.45080 0.08053 0.38004
 H310 H 0.50812 -0.00448 0.35363
 H311 H 0.51898 0.03624 0.45774
 H312 H 0.54851 0.06531 0.43665
 N313 N -0.00134 0.08951 0.51327
 N314 N -0.02680 0.07671 0.49493
 C315 C -0.03006 0.09453 0.46749
 C316 C -0.00535 0.12008 0.46854
 C317 C 0.01189 0.11647 0.49852
 H318 H -0.04923 0.08952 0.44826
 H319 H 0.03222 0.13248 0.50923
 Cu320 Cu -0.05479 0.03970 0.50994
 Cu321 Cu 0.01455 0.06792 0.55315
 Cu322 Cu -0.04531 0.01565 0.58772
 N323 N -0.08187 0.00274 0.52645
 N324 N -0.07827 -0.00641 0.55711
 C325 C -0.10188 -0.03037 0.56298
 C326 C -0.12103 -0.03671 0.53432
 C327 C -0.10794 -0.01507 0.51176
 H328 H -0.10565 -0.04137 0.58660
 H329 H -0.11756 -0.01181 0.48691
 N330 N -0.00222 0.02982 0.61034
 N331 N 0.02110 0.04908 0.59711
 C332 C 0.04921 0.05012 0.61685
 C333 C 0.04303 0.03061 0.64365
 C334 C 0.01036 0.01808 0.63871
 H335 H 0.07302 0.06225 0.61117
 H336 H -0.00235 -0.00027 0.65345
 H337 H -0.01293 0.02192 0.55025
 H338 H -0.03403 0.06083 0.56426
 N339 N 0.48961 0.59794 0.02252
 N340 N 0.47476 0.57872 -0.00121
 C341 C 0.47673 0.59484 -0.02977
 C342 C 0.49371 0.62541 -0.02369
 C343 C 0.50150 0.62660 0.00967
 H344 H 0.46423 0.58633 -0.05271
 H345 H 0.51269 0.64783 0.02384
 Cu346 Cu 0.44832 0.53671 0.00688
 Cu347 Cu 0.48940 0.58653 0.06930
 Cu348 Cu 0.43955 0.52082 0.08609
 N349 N 0.41356 0.50466 0.02114
 N350 N 0.40953 0.50010 0.05258
 C351 C 0.38451 0.47726 0.05632
 C352 C 0.37279 0.46555 0.02557
 C353 C 0.39135 0.48405 0.00361
 H354 H 0.37595 0.46917 0.07982
 H355 H 0.38928 0.48222 -0.02294
 N356 N 0.47764 0.53448 0.11487
 N357 N 0.49626 0.56155 0.10962
 C358 C 0.51980 0.56580 0.13426
 C359 C 0.51583 0.53966 0.15600
 C360 C 0.48917 0.51998 0.14221
 H361 H 0.53905 0.58576 0.13558
 H362 H 0.47955 0.49607 0.15056
 H363 H 0.48134 0.54052 0.04805
 H364 H 0.44321 0.56670 0.04790
 N365 N 0.50727 -0.08371 -0.01484
 N366 N 0.52781 -0.07051 -0.03596
 C367 C 0.53222 -0.09314 -0.06057
 C368 C 0.51295 -0.12188 -0.05476
 C369 C 0.49781 -0.11515 -0.02533
 H370 H 0.54859 -0.08921 -0.08089
 H371 H 0.48098 -0.13188 -0.01267
 Cu372 Cu 0.54760 -0.02549 -0.02870
 Cu373 Cu 0.49371 -0.05890 0.02428
 Cu374 Cu 0.52779 0.02219 0.03664
 N375 N 0.57644 0.01250 -0.01290
 N376 N 0.56877 0.03094 0.01293
 C377 C 0.59360 0.05433 0.01953
 C378 C 0.61821 0.05003 -0.00325
 C379 C 0.60646 0.02350 -0.02365
 H380 H 0.59420 0.07244 0.03992
 H381 H 0.61935 0.01227 -0.04398
 N382 N 0.49482 0.00201 0.06592
 N383 N 0.48291 -0.02932 0.06197
 C384 C 0.46320 -0.03655 0.08723
 C385 C 0.46291 -0.00852 0.10807
 C386 C 0.48290 0.01560 0.09372
 H387 H 0.45032 -0.06053 0.09063
 H388 H 0.48933 0.04068 0.10349
 H389 H 0.49966 -0.01211 0.00568
 H390 H 0.53666 -0.02775 0.02947
 N391 N 1.01609 0.40439 0.51051
 N392 N 1.03761 0.41565 0.48935
 C393 C 1.03760 0.39415 0.46328
 C394 C 1.01485 0.36773 0.46826
 C395 C 1.00226 0.37480 0.49900
 H396 H 1.05359 0.39719 0.44254
 H397 H 0.98503 0.35926 0.51248
 Cu398 Cu 1.06725 0.45460 0.49951
 Cu399 Cu 1.00752 0.42987 0.55067
 Cu400 Cu 1.03574 0.51116 0.55535
 N401 N 1.08706 0.50001 0.50743
 N402 N 1.07530 0.52190 0.52876
 C403 C 1.09520 0.55013 0.52931
 C404 C 1.12031 0.54573 0.50690
 C405 C 1.11450 0.51359 0.49379
 H406 H 1.09235 0.57183 0.54549
 H407 H 1.12959 0.50086 0.47600
 N408 N 1.00146 0.49367 0.58423
 N409 N 0.99005 0.46220 0.58190
 C410 C 0.96590 0.45747 0.60388
 C411 C 0.96204 0.48758 0.62085
 C412 C 0.98521 0.50995 0.60810
 H413 H 0.95245 0.43386 0.60758
 H414 H 0.98984 0.53605 0.61565
 H415 H 1.02545 0.47619 0.51696
 H416 H 1.05828 0.46628 0.54910
 Si417 Si 0.37865 0.00203 0.23284
 Si418 Si 0.12966 -0.01779 0.76135
 Si419 Si 0.62390 0.49024 0.25716
 Si420 Si 0.87954 0.51446 0.74489
 Si421 Si 0.24403 0.37298 0.00601
 Si422 Si 0.75334 0.13085 -0.01510
 Si423 Si 0.25091 0.63112 0.48349
 Si424 Si 0.74414 0.88235 0.50894
 Si425 Si 0.00022 0.24083 0.37512
 Si426 Si -0.01299 0.75630 0.13138
 Si427 Si 0.48708 0.25833 0.62730
 Si428 Si 0.49546 0.73798 0.87433
 C429 C 0.07916 0.26888 0.31272
 C430 C 0.09505 0.23761 0.30781
 C431 C 0.08165 0.20907 0.32274
 C432 C 0.05354 0.21086 0.34197
 C433 C 0.03657 0.24091 0.34616
 C434 C 0.04828 0.26986 0.32974
 C435 C 0.09369 0.29952 0.30232
 C436 C 0.07639 0.32937 0.30472
 C437 C 0.04463 0.32950 0.31803
 C438 C 0.03073 0.30018 0.33062
 H439 H 0.11893 0.30114 0.29335
 H440 H 0.08773 0.35254 0.29625
 H441 H 0.03109 0.35266 0.31945
 H442 H 0.00646 0.30182 0.34150
 H443 H 0.09286 0.18481 0.31946
 H444 H 0.04512 0.18814 0.35357
 C445 C 0.55702 0.72430 0.79063
 C446 C 0.58930 0.72675 0.80661
 C447 C 0.59197 0.73105 0.84073
 C448 C 0.56327 0.73392 0.85915
 C449 C 0.53072 0.73236 0.84431
 C450 C 0.52743 0.72836 0.80921
 C451 C 0.55371 0.71802 0.75629
 C452 C 0.52221 0.71740 0.74010
 C453 C 0.49361 0.72361 0.75760
 C454 C 0.49617 0.72935 0.79153
 H455 H 0.57537 0.71336 0.74163
 H456 H 0.52007 0.71274 0.71377
 H457 H 0.46925 0.72430 0.74478
 H458 H 0.47342 0.73597 0.80273
 H459 H 0.61660 0.73306 0.85319
 H460 H 0.56669 0.73775 0.88553
 C461 C 0.40578 0.69605 0.82771
 C462 C 0.38585 0.72491 0.82593
 C463 C 0.39763 0.75490 0.84197
 C464 C 0.42949 0.75746 0.85723
 C465 C 0.45119 0.73045 0.85650
 C466 C 0.43907 0.69895 0.84227
 C467 C 0.39333 0.66436 0.81521
 C468 C 0.41375 0.63653 0.81532
 C469 C 0.44686 0.63974 0.82772
 C470 C 0.45951 0.67054 0.84094
 H471 H 0.36762 0.66070 0.80566
 H472 H 0.40391 0.61243 0.80550
 H473 H 0.46285 0.61821 0.82716
 H474 H 0.48552 0.67172 0.84951
 H475 H 0.38284 0.77728 0.84133
 H476 H 0.43733 0.78132 0.86890
 C477 C -0.08002 0.21904 0.30423
 C478 C -0.09751 0.24984 0.30530
 C479 C -0.08630 0.27501 0.32838
 C480 C -0.05746 0.27147 0.34813
 C481 C -0.03910 0.24203 0.34712
 C482 C -0.05024 0.21547 0.32470
 C483 C -0.09269 0.19073 0.28520
 C484 C -0.07515 0.16099 0.28387
 C485 C -0.04516 0.15834 0.30211
 C486 C -0.03300 0.18503 0.32256
 H487 H -0.11686 0.19056 0.27214
 H488 H -0.08515 0.13972 0.26895
 H489 H -0.03169 0.13512 0.30110
 H490 H -0.01043 0.18102 0.33708
 H491 H -0.09865 0.29887 0.32991
 H492 H -0.04917 0.29277 0.36375
 C493 C -0.10452 0.76122 0.18311
 C494 C -0.09900 0.73482 0.20518
 C495 C -0.07203 0.71369 0.20044
 C496 C -0.04892 0.71997 0.17638
 C497 C -0.05161 0.74786 0.15628
 C498 C -0.08086 0.76769 0.15816
 C499 C -0.13379 0.78050 0.18447
 C500 C -0.13936 0.80604 0.16249
 C501 C -0.11658 0.81224 0.13814
 C502 C -0.08800 0.79304 0.13566
 H503 H -0.15317 0.77558 0.20179
 H504 H -0.16189 0.82058 0.16388
 H505 H -0.12148 0.83152 0.12053
 H506 H -0.07293 0.79752 0.11494
 H507 H -0.06797 0.69280 0.21646
 H508 H -0.02747 0.70388 0.17489
 C509 C 0.39716 0.27036 0.68100
 C510 C 0.39917 0.24185 0.70133
 C511 C 0.42728 0.22154 0.69919
 C512 C 0.45341 0.22934 0.67862
 C513 C 0.45209 0.25685 0.65796
 C514 C 0.42450 0.27885 0.66037
 C515 C 0.36756 0.28926 0.67872
 C516 C 0.36628 0.31788 0.65995
 C517 C 0.39417 0.32816 0.64280
 C518 C 0.42285 0.30893 0.64295
 H519 H 0.34465 0.28170 0.69038
 H520 H 0.34356 0.33222 0.65882
 H521 H 0.39343 0.35090 0.62885
 H522 H 0.44354 0.31871 0.62974
 H523 H 0.42971 0.19976 0.71437
 H524 H 0.47432 0.21250 0.67778
 C525 C 0.56660 0.29869 0.69168
 C526 C 0.58780 0.27056 0.69390
 C527 C 0.57587 0.23946 0.68012
 C528 C 0.54601 0.23676 0.66098
 C529 C 0.52624 0.26475 0.65553
 C530 C 0.53553 0.29563 0.67268
 C531 C 0.57401 0.32894 0.71019
 C532 C 0.55273 0.35602 0.70852
 C533 C 0.52313 0.35336 0.68929
 C534 C 0.51440 0.32346 0.67197
 H535 H 0.59542 0.33173 0.72728
 H536 H 0.55893 0.37896 0.72276
 H537 H 0.50645 0.37434 0.68830
 H538 H 0.49079 0.32248 0.65839
 H539 H 0.59075 0.21723 0.68248
 H540 H 0.53853 0.21232 0.65026
 C541 C 0.06444 0.77559 0.20677
 C542 C 0.09323 0.77086 0.18764
 C543 C 0.08900 0.76670 0.15360
 C544 C 0.05693 0.76418 0.13864
 C545 C 0.02771 0.76415 0.15712
 C546 C 0.03130 0.77141 0.19177
 C547 C 0.06799 0.78599 0.24030
 C548 C 0.03995 0.78991 0.25936
 C549 C 0.00781 0.78477 0.24529
 C550 C 0.00349 0.77623 0.21197
 H551 H 0.09231 0.79242 0.25199
 H552 H 0.04318 0.79770 0.28501
 H553 H -0.01402 0.78854 0.26002
 H554 H -0.02196 0.77552 0.20272
 H555 H 0.11073 0.76424 0.13843
 H556 H 0.05506 0.76053 0.11215
 C557 C 0.29300 0.05368 0.19772
 C558 C 0.29278 0.08121 0.22070
 C559 C 0.31668 0.08303 0.24686
 C560 C 0.34151 0.05926 0.24972
 C561 C 0.34399 0.03311 0.22617
 C562 C 0.31927 0.03001 0.19986
 C563 C 0.26707 0.04858 0.17315
 C564 C 0.26795 0.02214 0.15005
 C565 C 0.29441 0.00016 0.15101
 C566 C 0.31971 0.00391 0.17560
 H567 H 0.24546 0.06439 0.17192
 H568 H 0.24797 0.01869 0.13130
 H569 H 0.29520 -0.02014 0.13278
 H570 H 0.33960 -0.01372 0.17493
 H571 H 0.31660 0.10350 0.26501
 H572 H 0.35895 0.06164 0.27073
 C573 C 0.82979 0.60234 0.77432
 C574 C 0.82379 0.61747 0.74362
 C575 C 0.83840 0.60371 0.71564
 C576 C 0.85622 0.57421 0.71715
 C577 C 0.85861 0.55639 0.74624
 C578 C 0.84512 0.57044 0.77533
 C579 C 0.82108 0.61824 0.80415
 C580 C 0.82392 0.60169 0.83374
 C581 C 0.83543 0.56909 0.83420
 C582 C 0.84586 0.55352 0.80538
 H583 H 0.81265 0.64381 0.80500
 H584 H 0.81677 0.61407 0.85634
 H585 H 0.83667 0.55591 0.85707
 H586 H 0.85397 0.52805 0.80708
 H587 H 0.83493 0.61501 0.69195
 H588 H 0.86700 0.56469 0.69489
 C589 C 0.79516 0.44810 0.76267
 C590 C 0.81123 0.41682 0.76291
 C591 C 0.84594 0.41614 0.75813
 C592 C 0.86461 0.44561 0.75243
 C593 C 0.84935 0.47689 0.75076
 C594 C 0.81356 0.47784 0.75396
 C595 C 0.76096 0.45041 0.77088
 C596 C 0.74415 0.48029 0.76726
 C597 C 0.76080 0.50807 0.75476
 C598 C 0.79487 0.50674 0.74777
 H599 H 0.74695 0.42928 0.78042
 H600 H 0.71784 0.48158 0.77326
 H601 H 0.74722 0.53074 0.75023
 H602 H 0.80517 0.52795 0.73572
 H603 H 0.85865 0.39244 0.75811
 H604 H 0.89150 0.44385 0.74913
 C605 C 0.32003 -0.07911 0.26959
 C606 C 0.32166 -0.10330 0.24331
 C607 C 0.33872 -0.09475 0.21515
 C608 C 0.35627 -0.06409 0.21356
 C609 C 0.35537 -0.03956 0.23894
 C610 C 0.33594 -0.04654 0.26681
 C611 C 0.30085 -0.08557 0.29748
 C612 C 0.29769 -0.06093 0.32210
 C613 C 0.31289 -0.02922 0.31926
 C614 C 0.33155 -0.02191 0.29188
 H615 H 0.28744 -0.10934 0.30032
 H616 H 0.28290 -0.06632 0.34326
 H617 H 0.31001 -0.01005 0.33828
 H618 H 0.34238 0.00323 0.29081
 H619 H 0.33975 -0.11263 0.19462
 H620 H 0.37008 -0.05951 0.19166
 C621 C 0.17064 -0.11493 0.77509
 C622 C 0.19406 -0.11489 0.74949
 C623 C 0.19766 -0.08642 0.73041
 C624 C 0.17971 -0.05777 0.73695
 C625 C 0.15540 -0.05720 0.76110
 C626 C 0.15193 -0.08554 0.78178
 C627 C 0.16374 -0.14437 0.79282
 C628 C 0.14156 -0.14415 0.81846
 C629 C 0.12577 -0.11479 0.82702
 C630 C 0.13093 -0.08593 0.80909
 H631 H 0.17466 -0.16815 0.78669
 H632 H 0.13684 -0.16679 0.83193
 H633 H 0.10925 -0.11436 0.84762
 H634 H 0.11898 -0.06418 0.81817
 H635 H 0.21551 -0.08583 0.71087
 H636 H 0.18357 -0.03632 0.72153
 C637 C 0.64652 0.38918 0.23409
 C638 C 0.68198 0.39012 0.24049
 C639 C 0.69873 0.42122 0.24699
 C640 C 0.68110 0.45077 0.24853
 C641 C 0.64594 0.45082 0.24248
 C642 C 0.62905 0.41994 0.23240
 C643 C 0.62771 0.35843 0.22994
 C644 C 0.59358 0.35800 0.22043
 C645 C 0.57778 0.38802 0.21453
 C646 C 0.59545 0.41864 0.22022
 H647 H 0.63890 0.33453 0.23441
 H648 H 0.57957 0.33426 0.21687
 H649 H 0.55173 0.38763 0.20556
 H650 H 0.58323 0.44102 0.21327
 H651 H 0.72582 0.42273 0.25164
 H652 H 0.69527 0.47332 0.25660
 C653 C 0.70125 0.56518 0.24339
 C654 C 0.70456 0.58015 0.27555
 C655 C 0.68510 0.56703 0.30038
 C656 C 0.66225 0.54036 0.29410
 C657 C 0.65786 0.52511 0.26270
 C658 C 0.67918 0.53629 0.23740
 C659 C 0.71847 0.57871 0.21675
 C660 C 0.71700 0.56232 0.18599
 C661 C 0.69791 0.53258 0.18091
 C662 C 0.67903 0.51974 0.20615
 H663 H 0.73256 0.60238 0.21894
 H664 H 0.73067 0.57285 0.16595
 H665 H 0.69695 0.51988 0.15700
 H666 H 0.66342 0.49746 0.20037
 H667 H 0.68768 0.57741 0.32528
 H668 H 0.64836 0.53175 0.31467
 C669 C 0.20621 0.04555 0.80967
 C670 C 0.21200 0.06958 0.78531
 C671 C 0.19500 0.06556 0.75471
 C672 C 0.17113 0.03946 0.74852
 C673 C 0.16290 0.01658 0.77281
 C674 C 0.18139 0.01902 0.80355
 C675 C 0.22536 0.04673 0.83968
 C676 C 0.21953 0.02314 0.86360
 C677 C 0.19487 -0.00220 0.85804
 C678 C 0.17617 -0.00434 0.82839
 H679 H 0.24548 0.06536 0.84477
 H680 H 0.23436 0.02442 0.88648
 H681 H 0.19036 -0.02049 0.87670
 H682 H 0.15765 -0.02440 0.82539
 H683 H 0.19973 0.08327 0.73555
 H684 H 0.15922 0.03737 0.72424
 C685 C 0.25329 0.28992 0.06819
 C686 C 0.22343 0.29232 0.08635
 C687 C 0.20113 0.31799 0.07935
 C688 C 0.20773 0.34107 0.05526
 C689 C 0.23634 0.33882 0.03634
 C690 C 0.25891 0.31223 0.04189
 C691 C 0.27880 0.26737 0.07669
 C692 C 0.30749 0.26469 0.05820
 C693 C 0.31199 0.28499 0.03148
 C694 C 0.28832 0.30881 0.02362
 H695 H 0.27779 0.25243 0.09828
 H696 H 0.32662 0.24710 0.06499
 H697 H 0.33451 0.28305 0.01739
 H698 H 0.29424 0.32512 0.00388
 H699 H 0.17833 0.32048 0.09296
 H700 H 0.19009 0.36089 0.05146
 C701 C 0.73175 0.85693 0.60819
 C702 C 0.72665 0.82148 0.60484
 C703 C 0.72481 0.80623 0.57341
 C704 C 0.72822 0.82514 0.54550
 C705 C 0.73365 0.86013 0.54785
 C706 C 0.73477 0.87650 0.57947
 C707 C 0.73533 0.87330 0.63945
 C708 C 0.74034 0.90811 0.64248
 C709 C 0.74217 0.92729 0.61460
 C710 C 0.73955 0.91179 0.58345
 H711 H 0.73482 0.85950 0.66188
 H712 H 0.74288 0.92026 0.66663
 H713 H 0.74588 0.95436 0.61711
 H714 H 0.74101 0.92796 0.56273
 H715 H 0.72111 0.77917 0.57042
 H716 H 0.72781 0.81184 0.52197
 C717 C 0.72281 0.81402 0.42816
 C718 C 0.75560 0.81023 0.41584
 C719 C 0.78288 0.82849 0.43106
 C720 C 0.77859 0.84921 0.45850
 C721 C 0.74702 0.85199 0.47255
 C722 C 0.71862 0.83420 0.45730
 C723 C 0.69387 0.79915 0.41161
 C724 C 0.66195 0.80223 0.42438
 C725 C 0.65811 0.82034 0.45362
 C726 C 0.68600 0.83629 0.46991
 H727 H 0.69536 0.78574 0.38829
 H728 H 0.64007 0.79053 0.41145
 H729 H 0.63329 0.82238 0.46358
 H730 H 0.68155 0.84997 0.49250
 H731 H 0.80807 0.82639 0.42193
 H732 H 0.80052 0.86331 0.46843
 C733 C 0.22307 0.30404 -0.07441
 C734 C 0.25383 0.30643 -0.09107
 C735 C 0.27818 0.33112 -0.08080
 C736 C 0.27370 0.35167 -0.05315
 C737 C 0.24474 0.34832 -0.03459
 C738 C 0.21868 0.32457 -0.04560
 C739 C 0.19625 0.28210 -0.08616
 C740 C 0.16653 0.27901 -0.06916
 C741 C 0.16263 0.29803 -0.04050
 C742 C 0.18819 0.32069 -0.02892
 H743 H 0.19757 0.26765 -0.10894
 H744 H 0.14629 0.26198 -0.07845
 H745 H 0.13939 0.29572 -0.02748
 H746 H 0.18306 0.33570 -0.00738
 H747 H 0.30174 0.33347 -0.09334
 H748 H 0.29417 0.36901 -0.04546
 C749 C 0.75018 0.15136 -0.11687
 C750 C 0.75278 0.18699 -0.11581
 C751 C 0.75705 0.20421 -0.08546
 C752 C 0.75714 0.18693 -0.05628
 C753 C 0.75295 0.15178 -0.05625
 C754 C 0.75020 0.13353 -0.08694
 C755 C 0.74828 0.13302 -0.14716
 C756 C 0.74570 0.09798 -0.14810
 C757 C 0.74508 0.08056 -0.11905
 C758 C 0.74735 0.09798 -0.08882
 H759 H 0.74929 0.14548 -0.17037
 H760 H 0.74424 0.08428 -0.17151
 H761 H 0.74293 0.05333 -0.11992
 H762 H 0.74650 0.08312 -0.06720
 H763 H 0.75942 0.23145 -0.08427
 H764 H 0.76067 0.20151 -0.03354
 C765 C 0.28033 0.69696 0.40940
 C766 C 0.25315 0.69181 0.38577
 C767 C 0.22772 0.66756 0.39166
 C768 C 0.22808 0.64949 0.42030
 C769 C 0.25490 0.65332 0.44343
 C770 C 0.28257 0.67563 0.43697
 C771 C 0.30419 0.72404 0.40772
 C772 C 0.33165 0.72757 0.43001
 C773 C 0.33549 0.70488 0.45501
 C774 C 0.31107 0.67948 0.45881
 H775 H 0.30133 0.74374 0.39037
 H776 H 0.34981 0.74829 0.42811
 H777 H 0.35684 0.70774 0.47231
 H778 H 0.31442 0.66382 0.47966
 H779 H 0.20676 0.66282 0.37418
 H780 H 0.20689 0.63245 0.42432
 C781 C 0.26864 0.71302 0.55297
 C782 C 0.27152 0.69481 0.58224
 C783 C 0.26695 0.65984 0.58086
 C784 C 0.25952 0.64271 0.55111
 C785 C 0.25653 0.65977 0.52154
 C786 C 0.25892 0.69577 0.52270
 C787 C 0.27535 0.74818 0.55323
 C788 C 0.26975 0.76650 0.52510
 C789 C 0.25690 0.75032 0.49647
 C790 C 0.25118 0.71554 0.49536
 H791 H 0.28522 0.76184 0.57504
 H792 H 0.27471 0.79345 0.52572
 H793 H 0.25133 0.76476 0.47493
 H794 H 0.23977 0.70514 0.47304
 H795 H 0.26856 0.64565 0.60315
 H796 H 0.25662 0.61551 0.55122
 C797 C 0.73865 0.21071 0.05390
 C798 C 0.76490 0.20514 0.07770
 C799 C 0.78689 0.17904 0.07205
 C800 C 0.78295 0.15812 0.04428
 C801 C 0.75643 0.16179 0.02111
 C802 C 0.73329 0.18777 0.02636
 C803 C 0.71818 0.23901 0.05619
 C804 C 0.69123 0.24299 0.03389
 C805 C 0.68441 0.21924 0.00859
 C806 C 0.70524 0.19200 0.00466
 H807 H 0.72324 0.25886 0.07454
 H808 H 0.67561 0.26468 0.03618
 H809 H 0.66329 0.22232 -0.00852
 H810 H 0.69933 0.17482 -0.01588
 H811 H 0.80697 0.17401 0.08978
 H812 H 0.80050 0.13810 0.04182
 C813 C 0.45730 0.32418 0.55213
 C814 C 0.48459 0.34816 0.55430
 C815 C 0.51332 0.34159 0.57362
 C816 C 0.51402 0.31359 0.59327
 C817 C 0.48572 0.29170 0.59501
 C818 C 0.45780 0.29569 0.57261
 C819 C 0.42970 0.32764 0.52968
 C820 C 0.40265 0.30432 0.52823
 C821 C 0.40261 0.27710 0.54885
 C822 C 0.42985 0.27277 0.57072
 H823 H 0.42900 0.34794 0.51263
 H824 H 0.38164 0.30735 0.51097
 H825 H 0.38145 0.25914 0.54781
 H826 H 0.42852 0.25149 0.58614
 H827 H 0.53495 0.35902 0.57454
 H828 H 0.53674 0.30982 0.60793
 C829 C -0.01280 0.85454 0.09297
 C830 C -0.01433 0.84692 0.05873
 C831 C -0.01201 0.81348 0.04767
 C832 C -0.01069 0.78747 0.06978
 C833 C -0.01272 0.79380 0.10369
 C834 C -0.01312 0.82786 0.11560
 C835 C -0.01052 0.88819 0.10525
 C836 C -0.01086 0.89552 0.13888
 C837 C -0.01343 0.86959 0.16085
 C838 C -0.01456 0.83621 0.14939
 H839 H -0.00782 0.90914 0.08912
 H840 H -0.00932 0.92142 0.14790
 H841 H -0.01436 0.87534 0.18695
 H842 H -0.01721 0.81726 0.16726
 H843 H -0.01240 0.80723 0.02158
 H844 H -0.00884 0.76214 0.05988
 C845 C -0.03352 0.67242 0.06540
 C846 C -0.00309 0.65477 0.06868
 C847 C 0.02112 0.66579 0.09279
 C848 C 0.01694 0.69509 0.11159
 C849 C -0.01086 0.71542 0.10611
 C850 C -0.03699 0.70348 0.08332
 C851 C -0.06102 0.65942 0.04530
 C852 C -0.09025 0.67749 0.04109
 C853 C -0.09289 0.70862 0.05699
 C854 C -0.06672 0.72143 0.07795
 H855 H -0.06064 0.63483 0.03333
 H856 H -0.11099 0.66725 0.02545
 H857 H -0.11554 0.72273 0.05342
 H858 H -0.07023 0.74550 0.08969
 H859 H 0.04407 0.65216 0.09654
 H860 H 0.03611 0.70180 0.13032
 C861 C 0.47573 0.16349 0.57367
 C862 C 0.50665 0.16415 0.55735
 C863 C 0.52959 0.19118 0.56323
 C864 C 0.52209 0.21789 0.58422
 C865 C 0.49160 0.21855 0.60072
 C866 C 0.46759 0.19110 0.59501
 C867 C 0.45272 0.13568 0.56917
 C868 C 0.42178 0.13533 0.58419
 C869 C 0.41302 0.16268 0.60364
 C870 C 0.43543 0.19023 0.60884
 H871 H 0.45846 0.11387 0.55415
 H872 H 0.40435 0.11392 0.58040
 H873 H 0.38858 0.16268 0.61465
 H874 H 0.42623 0.21085 0.62281
 H875 H 0.55329 0.19203 0.55078
 H876 H 0.54058 0.23852 0.58746
 C877 C 0.03040 0.16432 0.43953
 C878 C -0.00092 0.14700 0.44409
 C879 C -0.02954 0.15666 0.42590
 C880 C -0.02799 0.18353 0.40484
 C881 C 0.00172 0.20312 0.40238
 C882 C 0.03124 0.19399 0.42059
 C883 C 0.06117 0.15234 0.45239
 C884 C 0.09129 0.17102 0.45020
 C885 C 0.09153 0.20163 0.43468
 C886 C 0.06199 0.21293 0.41984
 H887 H 0.06263 0.12796 0.46321
 H888 H 0.11456 0.16164 0.46052
 H889 H 0.11493 0.21627 0.43330
 H890 H 0.06400 0.23622 0.40729
 H891 H -0.05377 0.14381 0.42837
 H892 H -0.05078 0.18961 0.39121
 C893 C 0.47080 0.68001 0.95639
 C894 C 0.49431 0.65411 0.95414
 C895 C 0.51824 0.65497 0.92983
 C896 C 0.51911 0.68088 0.90753
 C897 C 0.49596 0.70677 0.90867
 C898 C 0.47175 0.70674 0.93379
 C899 C 0.44587 0.67950 0.98034
 C900 C 0.42285 0.70506 0.98258
 C901 C 0.42411 0.73152 0.96112
 C902 C 0.44815 0.73244 0.93704
 H903 H 0.44374 0.65935 0.99747
 H904 H 0.40397 0.70436 1.00112
 H905 H 0.40633 0.75148 0.96312
 H906 H 0.44807 0.75385 0.92153
 H907 H 0.53615 0.63509 0.92778
 H908 H 0.53732 0.67972 0.88848
 C909 C 0.50251 0.84416 0.89140
 C910 C 0.51034 0.84601 0.92571
 C911 C 0.51551 0.81631 0.94243
 C912 C 0.51244 0.78509 0.92616
 C913 C 0.50322 0.78213 0.89262
 C914 C 0.49977 0.81204 0.87458
 C915 C 0.49618 0.87337 0.87355
 C916 C 0.48912 0.87131 0.83978
 C917 C 0.48783 0.84024 0.82318
 C918 C 0.49294 0.81094 0.84032
 H919 H 0.49613 0.89802 0.88536
 H920 H 0.48453 0.89395 0.82643
 H921 H 0.48240 0.83877 0.79692
 H922 H 0.49112 0.78757 0.82642
 H923 H 0.52204 0.81727 0.96852
 H924 H 0.51692 0.76306 0.94039
 C925 C -0.02242 0.31836 0.44401
 C926 C 0.00881 0.33707 0.44665
 C927 C 0.03596 0.32580 0.42871
 C928 C 0.03275 0.29722 0.40832
 C929 C 0.00263 0.27782 0.40569
 C930 C -0.02474 0.28733 0.42529
 C931 C -0.05187 0.33024 0.45834
 C932 C -0.08161 0.31053 0.45758
 C933 C -0.08290 0.27895 0.44202
 C934 C -0.05496 0.26752 0.42582
 H935 H -0.05279 0.35519 0.46930
 H936 H -0.10382 0.31989 0.46900
 H937 H -0.10599 0.26360 0.44167
 H938 H -0.05777 0.24343 0.41319
 H939 H 0.06021 0.33920 0.43041
 H940 H 0.05443 0.29040 0.39461
 C941 C 0.31356 0.55183 0.45431
 C942 C 0.34080 0.55614 0.47771
 C943 C 0.33943 0.58076 0.50275
 C944 C 0.31241 0.60208 0.50420
 C945 C 0.28544 0.59935 0.48091
 C946 C 0.28574 0.57365 0.45572
 C947 C 0.31295 0.52565 0.43002
 C948 C 0.28616 0.52155 0.40704
 C949 C 0.25928 0.54299 0.40803
 C950 C 0.25887 0.56857 0.43212
 H951 H 0.33276 0.50771 0.42881
 H952 H 0.28611 0.50140 0.38857
 H953 H 0.23835 0.53951 0.39030
 H954 H 0.23686 0.58358 0.43223
 H955 H 0.36009 0.58426 0.52082
 H956 H 0.31353 0.62159 0.52323
 C957 C 0.85363 0.09767 -0.01531
 C958 C 0.84797 0.06222 -0.01585
 C959 C 0.81496 0.04888 -0.01481
 C960 C 0.78761 0.06979 -0.01443
 C961 C 0.79217 0.10481 -0.01546
 C962 C 0.82553 0.11911 -0.01651
 C963 C 0.88661 0.11239 -0.01254
 C964 C 0.89196 0.14713 -0.01345
 C965 C 0.86469 0.16795 -0.01653
 C966 C 0.83187 0.15426 -0.01780
 H967 H 0.90858 0.09746 -0.00879
 H968 H 0.91739 0.15796 -0.01153
 H969 H 0.86895 0.19495 -0.01722
 H970 H 0.81182 0.17176 -0.01904
 H971 H 0.81015 0.02189 -0.01519
 H972 H 0.76261 0.05814 -0.01413
 C973 C 0.67630 0.06671 0.02114
 C974 C 0.65116 0.06828 -0.00433
 C975 C 0.65735 0.08763 -0.03165
 C976 C 0.68767 0.10587 -0.03393
 C977 C 0.71335 0.10470 -0.00943
 C978 C 0.70766 0.08503 0.01866
 C979 C 0.67122 0.04663 0.04871
 C980 C 0.69606 0.04507 0.07361
 C981 C 0.72650 0.06305 0.07143
 C982 C 0.73238 0.08267 0.04429
 H983 H 0.64822 0.03170 0.05120
 H984 H 0.69177 0.02962 0.09461
 H985 H 0.74585 0.06155 0.09073
 H986 H 0.75673 0.09526 0.04358
 H987 H 0.63822 0.08911 -0.05120
 H988 H 0.69067 0.12129 -0.05510
 C989 C 0.14710 0.60270 0.49334
 C990 C 0.14981 0.56829 0.50081
 C991 C 0.18170 0.55435 0.50237
 C992 C 0.21068 0.57369 0.49705
 C993 C 0.20911 0.60771 0.48923
 C994 C 0.17697 0.62272 0.48806
 C995 C 0.11532 0.61753 0.49017
 C996 C 0.11291 0.65151 0.48339
 C997 C 0.14195 0.67127 0.47937
 C998 C 0.17357 0.65707 0.48158
 H999 H 0.09202 0.60308 0.49247
 H1000 H 0.08838 0.66255 0.48117
 H1001 H 0.13997 0.69768 0.47417
 H1002 H 0.19508 0.67326 0.47786
 H1003 H 0.18432 0.52817 0.50836
 H1004 H 0.23458 0.56161 0.49963
 C1005 C 0.18225 0.45662 0.02343
 C1006 C 0.15849 0.45328 -0.00368
 C1007 C 0.16254 0.42702 -0.02690
 C1008 C 0.18822 0.40442 -0.02351
 C1009 C 0.20937 0.40473 0.00470
 C1010 C 0.20591 0.43072 0.02899
 C1011 C 0.18437 0.48559 0.04439
 C1012 C 0.20571 0.48715 0.07239
 C1013 C 0.22581 0.46023 0.07977
 C1014 C 0.22617 0.43241 0.05822
 H1015 H 0.17100 0.50795 0.03868
 H1016 H 0.20672 0.50942 0.08839
 H1017 H 0.24191 0.46129 0.10185
 H1018 H 0.24244 0.41240 0.06479
 H1019 H 0.14578 0.42351 -0.04831
 H1020 H 0.19096 0.38633 -0.04339
 C1021 C 0.68546 0.95485 0.46068
 C1022 C 0.65860 0.95803 0.48249
 C1023 C 0.65847 0.93930 0.51097
 C1024 C 0.68393 0.91707 0.51787
 C1025 C 0.71099 0.91334 0.49700
 C1026 C 0.71184 0.93230 0.46787
 C1027 C 0.68716 0.97434 0.43229
 C1028 C 0.71364 0.97116 0.41100
 C1029 C 0.73914 0.94898 0.41771
 C1030 C 0.73847 0.92991 0.44584
 H1031 H 0.66839 0.99254 0.42643
 H1032 H 0.71453 0.98623 0.38931
 H1033 H 0.75983 0.94684 0.40123
 H1034 H 0.75948 0.91399 0.45024
 H1035 H 0.63798 0.94136 0.52773
 H1036 H 0.68205 0.90250 0.53974
 C1037 C 0.84672 0.90708 0.53543
 C1038 C 0.84782 0.94208 0.52990
 C1039 C 0.81852 0.95774 0.51941
 C1040 C 0.78830 0.93947 0.51421
 C1041 C 0.78637 0.90462 0.51830
 C1042 C 0.81578 0.88807 0.52956
 C1043 C 0.87597 0.89035 0.54568
 C1044 C 0.87475 0.85585 0.55073
 C1045 C 0.84466 0.83728 0.54521
 C1046 C 0.81555 0.85304 0.53455
 H1047 H 0.90009 0.90359 0.54961
 H1048 H 0.89736 0.84339 0.55867
 H1049 H 0.84394 0.81041 0.54883
 H1050 H 0.79331 0.83717 0.52967
 H1051 H 0.81893 0.98460 0.51553
 H1052 H 0.76633 0.95313 0.50695
 C1053 C 0.34070 0.41247 0.04051
 C1054 C 0.34545 0.43946 0.01899
 C1055 C 0.32078 0.44460 -0.00561
 C1056 C 0.29134 0.42431 -0.00826
 C1057 C 0.28468 0.39923 0.01447
 C1058 C 0.30874 0.39511 0.04085
 C1059 C 0.36695 0.40274 0.06226
 C1060 C 0.36053 0.38017 0.08694
 C1061 C 0.32784 0.36771 0.09083
 C1062 C 0.30212 0.37558 0.06840
 H1063 H 0.39257 0.41251 0.06035
 H1064 H 0.38069 0.37339 0.10386
 H1065 H 0.32232 0.35193 0.11131
 H1066 H 0.27709 0.36762 0.07422
 H1067 H 0.32386 0.46504 -0.02237
 H1068 H 0.27317 0.42872 -0.02805
 C1069 C 0.58309 0.45374 0.34496
 C1070 C 0.56205 0.48064 0.35327
 C1071 C 0.56270 0.50954 0.33456
 C1072 C 0.58327 0.51201 0.30778
 C1073 C 0.60460 0.48601 0.29902
 C1074 C 0.60647 0.45763 0.31943
 C1075 C 0.58107 0.42271 0.36099
 C1076 C 0.60406 0.39778 0.35480
 C1077 C 0.62967 0.40348 0.33305
 C1078 C 0.63105 0.43322 0.31584
 H1079 H 0.56154 0.41711 0.37800
 H1080 H 0.60251 0.37430 0.36756
 H1081 H 0.64858 0.38483 0.32951
 H1082 H 0.65262 0.43753 0.30143
 H1083 H 0.54693 0.53041 0.34057
 H1084 H 0.58182 0.53429 0.29318
 C1085 C 0.04265 -0.04428 0.81306
 C1086 C 0.04657 -0.02163 0.84048
 C1087 C 0.07109 0.00446 0.84048
 C1088 C 0.09392 0.00637 0.81542
 C1089 C 0.09338 -0.01817 0.79001
 C1090 C 0.06638 -0.04283 0.78769
 C1091 C 0.01554 -0.06831 0.81030
 C1092 C 0.01265 -0.09139 0.78388
 C1093 C 0.03657 -0.09099 0.75980
 C1094 C 0.06313 -0.06708 0.76166
 H1095 H -0.00394 -0.06920 0.82818
 H1096 H -0.00818 -0.10974 0.78214
 H1097 H 0.03451 -0.10922 0.73950
 H1098 H 0.08102 -0.06817 0.74267
 H1099 H 0.07365 0.02261 0.86087
 H1100 H 0.11297 0.02650 0.81685
 C1101 C 0.08288 -0.01269 0.66474
 C1102 C 0.06771 0.01884 0.66834
 C1103 C 0.07260 0.03755 0.69765
 C1104 C 0.09174 0.02531 0.72364
 C1105 C 0.10669 -0.00621 0.72156
 C1106 C 0.10174 -0.02598 0.69173
 C1107 C 0.07881 -0.03166 0.63488
 C1108 C 0.09205 -0.06349 0.63173
 C1109 C 0.10889 -0.07727 0.65833
 C1110 C 0.11337 -0.05898 0.68799
 H1111 H 0.06532 -0.02209 0.61375
 H1112 H 0.08864 -0.07781 0.60876
 H1113 H 0.11817 -0.10251 0.65615
 H1114 H 0.12445 -0.07205 0.70791
 H1115 H 0.06070 0.06152 0.70080
 H1116 H 0.09444 0.04072 0.74604
 C1117 C 0.52832 0.50998 0.20990
 C1118 C 0.53864 0.53108 0.18430
 C1119 C 0.57248 0.54187 0.18402
 C1120 C 0.59616 0.53016 0.20648
 C1121 C 0.58807 0.50497 0.22855
 C1122 C 0.55316 0.49489 0.23057
 C1123 C 0.49380 0.50414 0.21595
 C1124 C 0.48369 0.48112 0.23906
 C1125 C 0.50767 0.46348 0.25651
 C1126 C 0.54192 0.47014 0.25232
 H1127 H 0.47434 0.51796 0.20358
 H1128 H 0.45711 0.47666 0.24314
 H1129 H 0.49973 0.44478 0.27368
 H1130 H 0.55918 0.45492 0.26578
 H1131 H 0.58115 0.55917 0.16585
 H1132 H 0.62103 0.54127 0.20584
 C1133 C 0.45231 -0.02756 0.16575
 C1134 C 0.44584 -0.00563 0.13964
 C1135 C 0.42172 0.01893 0.14311
 C1136 C 0.40270 0.02092 0.17113
 C1137 C 0.40710 -0.00157 0.19669
 C1138 C 0.43276 -0.02570 0.19445
 C1139 C 0.47830 -0.05095 0.16416
 C1140 C 0.48436 -0.07269 0.18973
 C1141 C 0.46485 -0.07152 0.21736
 C1142 C 0.43941 -0.04835 0.21981
 H1143 H 0.49451 -0.05239 0.14342
 H1144 H 0.50432 -0.09051 0.18811
 H1145 H 0.46953 -0.08860 0.23711
 H1146 H 0.42507 -0.04882 0.24169
 H1147 H 0.41690 0.03618 0.12351
 H1148 H 0.38410 0.04013 0.17249
 C1149 C 0.90462 0.49398 0.64563
 C1150 C 0.94029 0.49361 0.64893
 C1151 C 0.95601 0.49826 0.67996
 C1152 C 0.93719 0.50340 0.70763
 C1153 C 0.90189 0.50550 0.70533
 C1154 C 0.88519 0.49998 0.67400
 C1155 C 0.88788 0.48894 0.61462
 C1156 C 0.85278 0.48934 0.61152
 C1157 C 0.83378 0.49488 0.63909
 C1158 C 0.84970 0.50018 0.66999
 H1159 H 0.90173 0.48474 0.59255
 H1160 H 0.84026 0.48538 0.58759
 H1161 H 0.80653 0.49520 0.63652
 H1162 H 0.83383 0.50462 0.69043
 H1163 H 0.98324 0.49734 0.68289
 H1164 H 0.95091 0.50572 0.73098
 C1165 C 0.95873 0.55329 0.80955
 C1166 C 0.95760 0.52983 0.83500
 C1167 C 0.93544 0.50175 0.83170
 C1168 C 0.91336 0.49732 0.80448
 C1169 C 0.91300 0.52051 0.77923
 C1170 C 0.93643 0.54863 0.78135
 C1171 C 0.98223 0.58087 0.81115
 C1172 C 0.98343 0.60373 0.78595
 C1173 C 0.96175 0.59937 0.75850
 C1174 C 0.93870 0.57211 0.75602
 H1175 H 1.00026 0.58481 0.83156
 H1176 H 1.00157 0.62474 0.78756
 H1177 H 0.96308 0.61697 0.73877
 H1178 H 0.92349 0.56947 0.73360
 H1179 H 0.93440 0.48359 0.85100
 H1180 H 0.89571 0.47605 0.80399
 C1181 C 0.44796 0.05417 0.30011
 C1182 C 0.45095 0.03042 0.32523
 C1183 C 0.43365 -0.00070 0.32143
 C1184 C 0.41262 -0.00821 0.29398
 C1185 C 0.40811 0.01501 0.26906
 C1186 C 0.42665 0.04636 0.27165
 C1187 C 0.46650 0.08516 0.30225
 C1188 C 0.46390 0.10817 0.27723
 C1189 C 0.44308 0.10075 0.24959
 C1190 C 0.42472 0.07024 0.24668
 H1191 H 0.48343 0.09176 0.32302
 H1192 H 0.47825 0.13183 0.27922
 H1193 H 0.44119 0.11873 0.23021
 H1194 H 0.40902 0.06588 0.22474
 H1195 H 0.43620 -0.01935 0.34015
 H1196 H 0.40011 -0.03277 0.29231
   
