data_POSCAR
  _audit_creation_date              2014-09-24
  _audit_creation_method            'ToBaCCo'
  _symmetry_space_group_name_H-M    'P1'
  _symmetry_Int_Tables_number       1
  _symmetry_cell_setting            triclinic
  loop_
  _symmetry_equiv_pos_as_xyz
 x,y,z
_cell_length_a 20.2462
_cell_length_b 20.6182
_cell_length_c 28.8269
_cell_angle_alpha 97.617600
_cell_angle_beta 85.722400
_cell_angle_gamma 70.049900
loop_
  _atom_site_label
  _atom_site_type_symbol
  _atom_site_fract_x
  _atom_site_fract_y
  _atom_site_fract_z
C1 C -0.02711 0.38559 1.04889
 C2 C -0.03128 0.34534 1.00671
 C3 C -0.03178 0.36984 0.96373
 C4 C -0.02181 0.43415 0.96153
 C5 C -0.01190 0.47338 1.00297
 C6 C -0.01466 0.44919 1.04677
 C7 C -0.00115 0.48756 1.08664
 C8 C 0.00785 0.55089 1.08482
 C9 C 0.01124 0.57603 1.04200
 C10 C 0.00085 0.53697 1.00059
 C11 C -0.02054 0.45986 0.91888
 C12 C -0.01131 0.52323 0.91699
 C13 C 0.00218 0.56171 0.95693
 C14 C 0.01211 0.62649 0.95510
 C15 C 0.01524 0.66724 0.99740
 C16 C 0.02036 0.64107 1.04003
 H17 H 0.00361 0.46910 1.11999
 H18 H 0.01066 0.58024 1.11804
 H19 H -0.02694 0.43153 0.88624
 H20 H -0.01663 0.54221 0.88380
 H21 H -0.04123 0.29706 1.00776
 H22 H 0.02386 0.71605 0.99594
 C23 C 0.37878 -0.05448 0.52066
 C24 C 0.34683 -0.03653 0.48063
 C25 C 0.37798 -0.00986 0.44646
 C26 C 0.44072 0.00371 0.45415
 C27 C 0.47350 -0.01385 0.49492
 C28 C 0.44333 -0.04478 0.52761
 C29 C 0.47879 -0.06580 0.56609
 C30 C 0.54159 -0.05468 0.57318
 C31 C 0.56974 -0.01863 0.54362
 C32 C 0.53681 -0.00089 0.50284
 C33 C 0.47101 0.03528 0.42261
 C34 C 0.53376 0.04629 0.42964
 C35 C 0.56752 0.02873 0.46951
 C36 C 0.63216 0.03831 0.47622
 C37 C 0.66429 0.02043 0.51624
 C38 C 0.63241 -0.00417 0.55169
 H39 H 0.45889 -0.09217 0.59073
 H40 H 0.56870 -0.07675 0.60142
 H41 H 0.44641 0.05231 0.39219
 H42 H 0.55555 0.06853 0.40315
 H43 H 0.29843 -0.04636 0.47511
 H44 H 0.71215 0.03150 0.52117
 C45 C 0.14443 0.03441 0.25770
 H46 H 0.14607 0.03275 0.21995
 C47 C 0.20589 0.02649 0.27887
 H48 H 0.25430 0.01959 0.25695
 C49 C 0.07842 0.04640 0.33171
 H50 H 0.02860 0.05468 0.35229
 C51 C 0.13861 0.03864 0.35434
 H52 H 0.13409 0.03994 0.39210
 N53 N 0.08278 0.04237 0.28405
 C54 C -0.02951 -0.04537 0.18500
 H55 H -0.07841 -0.00140 0.18699
 C56 C -0.01999 -0.10903 0.15653
 H57 H -0.06209 -0.11359 0.13682
 C58 C 0.08326 -0.09336 0.21015
 H59 H 0.12285 -0.08766 0.23179
 C60 C 0.09477 -0.15799 0.18245
 H61 H 0.14401 -0.20072 0.18244
 Zn62 Zn 0.00369 0.04716 0.25166
 N63 N 0.02193 -0.03860 0.21090
 C64 C -0.00889 0.11157 0.16950
 N65 N -0.01193 0.12195 0.21733
 C66 C -0.02380 0.18639 0.24238
 C67 C -0.03525 0.24409 0.21953
 C68 C -0.01964 0.16783 0.14514
 C69 C -0.07496 0.01131 0.32119
 C70 C -0.13307 0.01873 0.35345
 C71 C -0.19627 0.12888 0.32964
 C72 C -0.13679 0.11946 0.29798
 N73 N -0.07736 0.06180 0.29478
 H74 H 0.00235 0.05969 0.15006
 H75 H -0.02444 0.19286 0.28030
 H76 H -0.04405 0.29470 0.24027
 H77 H -0.01766 0.15860 0.10713
 H78 H -0.02747 -0.03472 0.31731
 H79 H -0.12902 -0.02200 0.37431
 H80 H -0.24265 0.17514 0.33101
 H81 H -0.13862 0.15804 0.27570
 C82 C 0.04258 -0.16659 0.15543
 C83 C 0.20385 0.02720 0.32776
 C84 C -0.19498 0.07832 0.35821
 C85 C -0.03344 0.23525 0.17026
 C86 C -0.04964 0.10373 0.77038
 H87 H -0.06553 0.09999 0.73541
 C88 C -0.06274 0.16930 0.79729
 H89 H -0.08848 0.21565 0.78245
 C90 C 0.00556 0.04712 0.83108
 H91 H 0.03269 -0.00085 0.84379
 C92 C -0.00616 0.11172 0.85914
 H93 H 0.01134 0.11279 0.89370
 N94 N -0.01612 0.04441 0.78758
 C95 C 0.11024 -0.12186 0.67235
 H96 H 0.08484 -0.16026 0.67263
 C97 C 0.17022 -0.13547 0.63997
 H98 H 0.19037 -0.18426 0.61528
 C99 C 0.11439 -0.01134 0.70370
 H100 H 0.09306 0.03682 0.72878
 C101 C 0.17348 -0.02221 0.67133
 H102 H 0.19705 0.01775 0.67196
 Zn103 Zn 0.00236 -0.04241 0.74821
 N104 N 0.08373 -0.06072 0.70363
 C105 C -0.07173 -0.05440 0.66883
 N106 N -0.07835 -0.03560 0.71648
 C107 C -0.14324 -0.00920 0.74272
 C108 C -0.20444 -0.00217 0.72139
 C109 C -0.13152 -0.04864 0.64606
 C110 C 0.07834 -0.17178 0.77703
 C111 C 0.08631 -0.22761 0.80141
 C112 C -0.02862 -0.16304 0.84595
 C113 C -0.03496 -0.10893 0.82012
 N114 N 0.01742 -0.11471 0.78561
 H115 H -0.02022 -0.07378 0.64816
 H116 H -0.14781 0.00802 0.78025
 H117 H -0.25507 0.01994 0.74335
 H118 H -0.12423 -0.06496 0.60824
 H119 H 0.12078 -0.17481 0.75097
 H120 H 0.13466 -0.27303 0.79344
 H121 H -0.07163 -0.15809 0.87246
 H122 H -0.08210 -0.06253 0.82745
 C123 C 0.20223 -0.08504 0.63912
 C124 C -0.04077 0.17394 0.84229
 C125 C 0.03195 -0.22400 0.83587
 C126 C -0.19924 -0.02233 0.67234
 N127 N 0.09379 -0.29736 0.13854
 N128 N 0.08592 -0.35096 0.10716
 C129 C 0.03920 -0.32138 0.07824
 C130 C 0.01804 -0.24889 0.08975
 C131 C 0.05219 -0.23595 0.12807
 H132 H -0.01881 -0.21045 0.07296
 H133 H 0.12498 -0.30515 0.16598
 H134 H 0.11629 -0.40394 0.10472
 N135 N -0.07830 0.36310 0.16582
 N136 N -0.07561 0.40499 0.13208
 C137 C -0.03919 0.36263 0.09174
 C138 C -0.02040 0.29334 0.09855
 C139 C -0.04446 0.29583 0.14540
 H140 H 0.00972 0.24706 0.07311
 H141 H -0.10414 0.38199 0.20022
 H142 H -0.10321 0.45891 0.13698
 N143 N 0.31405 -0.16061 0.58682
 N144 N 0.36147 -0.15228 0.55638
 C145 C 0.34301 -0.08368 0.55420
 C146 C 0.28142 -0.04658 0.58438
 C147 C 0.26472 -0.09730 0.60457
 H148 H 0.25186 0.00912 0.58964
 H149 H 0.31580 -0.20890 0.59513
 H150 H 0.40476 -0.19303 0.53679
 N151 N -0.32918 -0.00044 0.67147
 N152 N -0.37568 0.00360 0.63772
 C153 C -0.33800 -0.00953 0.59469
 C154 C -0.26744 -0.02069 0.60050
 C155 C -0.26378 -0.01510 0.64877
 H156 H -0.22417 -0.03139 0.57286
 H157 H -0.34450 0.00736 0.70773
 H158 H -0.43073 0.02209 0.64590
 N159 N 0.07283 -0.35156 0.84025
 N160 N 0.06493 -0.39333 0.87297
 C161 C 0.02500 -0.35074 0.91229
 C162 C 0.00755 -0.28149 0.90545
 C163 C 0.03772 -0.28429 0.86004
 H164 H -0.02315 -0.23481 0.93039
 H165 H 0.10061 -0.37051 0.80636
 H166 H 0.09233 -0.44723 0.86870
 N167 N -0.10332 0.30371 0.86541
 N168 N -0.10039 0.35511 0.89686
 C169 C -0.04795 0.32881 0.92280
 C170 C -0.01717 0.25716 0.90791
 C171 C -0.05336 0.24324 0.87105
 H172 H 0.02566 0.22070 0.92200
 H173 H -0.14045 0.31026 0.84154
 H174 H -0.13516 0.40694 0.90119
 N175 N -0.31755 0.14441 0.40161
 N176 N -0.36287 0.13363 0.43233
 C177 C -0.33326 0.06925 0.44296
 C178 C -0.26592 0.03781 0.41851
 C179 C -0.25780 0.08696 0.39208
 H180 H -0.22916 -0.01412 0.41952
 H181 H -0.32819 0.19080 0.38797
 H182 H -0.41308 0.17001 0.44585
 N183 N 0.33585 -0.01698 0.32743
 N184 N 0.38150 -0.02634 0.35857
 C185 C 0.34556 -0.00093 0.40219
 C186 C 0.27372 0.02485 0.39864
 C187 C 0.26954 0.01392 0.35054
 H188 H 0.23083 0.04651 0.42738
 H189 H 0.35045 -0.03477 0.29124
 H190 H 0.43605 -0.05283 0.35000
   
