data_POSCAR
  _audit_creation_date              2014-09-24
  _audit_creation_method            'ToBaCCo'
  _symmetry_space_group_name_H-M    'P1'
  _symmetry_Int_Tables_number       1
  _symmetry_cell_setting            triclinic
  loop_
  _symmetry_equiv_pos_as_xyz
 x,y,z
_cell_length_a 39.5342
_cell_length_b 39.5239
_cell_length_c 39.5500
_cell_angle_alpha 89.757900
_cell_angle_beta 90.165000
_cell_angle_gamma 89.773000
loop_
  _atom_site_label
  _atom_site_type_symbol
  _atom_site_fract_x
  _atom_site_fract_y
  _atom_site_fract_z
C1 C 0.24966 0.96132 -0.02743
 C2 C 0.25029 0.96000 0.00839
 C3 C 0.25056 0.99012 0.02683
 C4 C 0.25227 1.02219 0.01144
 C5 C 0.25456 1.02388 -0.02449
 C6 C 0.25304 0.99339 -0.04291
 H7 H 0.25376 0.99474 -0.07028
 H8 H 0.25098 0.98820 0.05423
 C9 C 0.75888 0.45974 0.50758
 C10 C 0.74902 0.46060 0.47318
 C11 C 0.74652 0.49217 0.45669
 C12 C 0.75331 0.52262 0.47358
 C13 C 0.76317 0.52145 0.50791
 C14 C 0.76600 0.49011 0.52421
 H15 H 0.77226 0.48944 0.55095
 H16 H 0.74006 0.49302 0.43004
 C17 C 0.73895 1.00782 0.95863
 C18 C 0.75063 0.97402 0.95950
 C19 C 0.75401 0.95763 0.99099
 C20 C 0.74627 0.97390 1.02178
 C21 C 0.73510 1.00808 1.02038
 C22 C 0.73118 1.02408 0.98899
 H23 H 0.72406 1.05063 0.98828
 H24 H 0.76090 0.93107 0.99111
 C25 C 0.24731 0.47459 0.52257
 C26 C 0.23787 0.50904 0.52184
 C27 C 0.23490 0.52570 0.49072
 C28 C 0.24178 0.50932 0.46016
 C29 C 0.25188 0.47496 0.46066
 C30 C 0.25418 0.45805 0.49197
 H31 H 0.26055 0.43134 0.49248
 H32 H 0.22871 0.55248 0.49034
 C33 C 0.96162 0.25059 -0.01185
 C34 C 0.95993 0.25312 0.02388
 C35 C 0.99018 0.25559 0.04258
 C36 C 1.02220 0.25785 0.02702
 C37 C 1.02312 0.25892 -0.00878
 C38 C 0.99336 0.25440 -0.02726
 H39 H 0.99511 0.25471 -0.05466
 H40 H 0.98849 0.25641 0.06994
 C41 C 0.46178 0.74805 0.52600
 C42 C 0.46064 0.75818 0.49166
 C43 C 0.49090 0.76473 0.47458
 C44 C 0.52237 0.76147 0.49050
 C45 C 0.52378 0.75208 0.52495
 C46 C 0.49346 0.74545 0.54218
 H47 H 0.49451 0.73905 0.56885
 H48 H 0.49001 0.77094 0.44784
 C49 C -0.02429 0.74796 -0.02346
 C50 C 0.00963 0.73536 -0.02234
 C51 C 0.02520 0.73076 0.00941
 C52 C 0.00939 0.73970 0.03967
 C53 C -0.02402 0.75224 0.03884
 C54 C -0.04020 0.75630 0.00740
 H55 H -0.06660 0.76381 0.00737
 H56 H 0.05162 0.72331 0.01066
 C57 C 0.50951 0.23657 0.47740
 C58 C 0.47513 0.24626 0.47650
 C59 C 0.45827 0.25262 0.50705
 C60 C 0.47488 0.24988 0.53848
 C61 C 0.50935 0.24016 0.53909
 C62 C 0.52593 0.23343 0.50860
 H63 H 0.55272 0.22731 0.50906
 H64 H 0.43157 0.25897 0.50638
 C65 C 1.03898 0.02770 0.24651
 C66 C 1.04053 -0.00585 0.25952
 C67 C 1.01058 -0.02268 0.26803
 C68 C 0.97844 -0.00839 0.26255
 C69 C 0.97659 0.02501 0.24942
 C70 C 1.00660 0.04230 0.24166
 H71 H 1.00437 0.06857 0.23401
 H72 H 1.01251 -0.04896 0.27585
 C73 C 0.53868 0.52519 0.74317
 C74 C 0.53885 0.48999 0.73698
 C75 C 0.50816 0.47249 0.73605
 C76 C 0.47723 0.48888 0.74108
 C77 C 0.47667 0.52417 0.74618
 C78 C 0.50743 0.54183 0.74727
 H79 H 0.50698 0.56905 0.75055
 H80 H 0.50851 0.44520 0.73302
 C81 C 1.02496 0.97726 0.75387
 C82 C 0.99024 0.97627 0.76155
 C83 C 0.97293 1.00641 0.76797
 C84 C 0.98854 1.03830 0.76529
 C85 C 1.02342 1.03937 0.75650
 C86 C 1.04102 1.00875 0.75135
 H87 H 1.06800 1.00939 0.74653
 H88 H 0.94587 1.00488 0.77214
 C89 C 0.52512 0.47864 0.25009
 C90 C 0.48984 0.47917 0.25540
 C91 C 0.47337 0.51017 0.26000
 C92 C 0.49083 0.54090 0.25885
 C93 C 0.52611 0.54070 0.25304
 C94 C 0.54274 0.50943 0.24895
 H95 H 0.56997 0.50898 0.24576
 H96 H 0.44610 0.51050 0.26303
 O97 O 0.26868 0.16433 0.18460
 O98 O 0.30679 0.15477 0.23238
 O99 O 0.18053 0.20308 0.23420
 O100 O 0.16836 0.24676 0.26861
 O101 O 0.21981 0.25327 0.14492
 O102 O 0.26727 0.29037 0.13579
 O103 O 0.26809 0.29850 0.31946
 O104 O 0.22859 0.25204 0.32816
 O105 O 0.35509 0.25150 0.27904
 O106 O 0.36445 0.21287 0.22988
 O107 O 0.31427 0.33815 0.23459
 O108 O 0.26521 0.34798 0.19387
 O109 O 0.26763 0.33896 0.27837
 O110 O 0.23055 0.34973 0.23098
 O111 O 0.35494 0.29725 0.23417
 O112 O 0.36564 0.25043 0.19547
 O113 O 0.31455 0.25276 0.31977
 O114 O 0.27075 0.21563 0.33219
 O115 O 0.26755 0.20557 0.14416
 O116 O 0.30417 0.25209 0.13461
 O117 O 0.17962 0.25147 0.18605
 O118 O 0.17102 0.28937 0.23299
 O119 O 0.22184 0.16279 0.23261
 O120 O 0.26864 0.15272 0.26876
 Zr121 Zr 0.26695 0.19062 0.23091
 O122 O 0.29808 0.21954 0.26283
 Zr123 Zr 0.20691 0.24946 0.23168
 O124 O 0.23583 0.28146 0.26296
 Zr125 Zr 0.26590 0.25071 0.17180
 O126 O 0.29780 0.28185 0.20073
 Zr127 Zr 0.26872 0.25219 0.29287
 O128 O 0.23717 0.21969 0.26426
 Zr129 Zr 0.32779 0.25191 0.23321
 O130 O 0.29910 0.22050 0.20093
 Zr131 Zr 0.26814 0.31150 0.23316
 O132 O 0.23587 0.28272 0.20170
 O133 O 0.23496 0.21874 0.19979
 O134 O 0.30013 0.28377 0.26488
 C135 C 0.26874 0.17457 0.15370
 C136 C 0.19080 0.17214 0.23427
 C137 C 0.18899 0.25347 0.15508
 C138 C 0.26764 0.32948 0.30935
 C139 C 0.34543 0.25213 0.30997
 C140 C 0.34522 0.32815 0.23504
 H141 H 0.31216 0.20414 0.27675
 H142 H 0.31172 0.29590 0.18549
 H143 H 0.22044 0.20436 0.18540
 H144 H 0.22054 0.29528 0.27707
 H145 H 0.21315 0.23348 0.32161
 H146 H 0.17547 0.26085 0.28795
 H147 H 0.36006 0.26791 0.17835
 H148 H 0.32263 0.23719 0.14289
 H149 H 0.28198 0.19525 0.32313
 H150 H 0.25316 0.16020 0.28692
 H151 H 0.28560 0.34559 0.17963
 H152 H 0.25122 0.30790 0.14369
 H153 H 0.32356 0.16207 0.21533
 H154 H 0.36082 0.19707 0.24899
 H155 H 0.17828 0.30639 0.21609
 H156 H 0.21266 0.34356 0.24728
 O157 O 0.75111 0.85621 0.21972
 O158 O 0.71282 0.86540 0.26651
 O159 O 0.83862 0.81531 0.27037
 O160 O 0.84976 0.77110 0.30498
 O161 O 0.79998 0.76744 0.18057
 O162 O 0.75211 0.73039 0.17056
 O163 O 0.74969 0.72115 0.35461
 O164 O 0.78975 0.76628 0.36315
 O165 O 0.66375 0.76816 0.31352
 O166 O 0.65503 0.80852 0.26431
 O167 O 0.70286 0.68211 0.26674
 O168 O 0.75311 0.67196 0.22884
 O169 O 0.74845 0.68090 0.31365
 O170 O 0.78619 0.66909 0.26713
 O171 O 0.66279 0.72358 0.26649
 O172 O 0.65250 0.77112 0.23003
 O173 O 0.70430 0.76647 0.35446
 O174 O 0.74485 0.80410 0.36571
 O175 O 0.75207 0.81538 0.17927
 O176 O 0.71577 0.76892 0.16852
 O177 O 0.83984 0.76801 0.22226
 O178 O 0.84705 0.72905 0.26879
 O179 O 0.79782 0.85610 0.26777
 O180 O 0.74912 0.86716 0.30319
 Zr181 Zr 0.75229 0.82914 0.26578
 O182 O 0.72082 0.80027 0.29742
 Zr183 Zr 0.81173 0.76946 0.26726
 O184 O 0.78215 0.73752 0.29801
 Zr185 Zr 0.75336 0.76971 0.20662
 O186 O 0.72070 0.73882 0.23515
 Zr187 Zr 0.74969 0.76709 0.32754
 O188 O 0.78176 0.79957 0.29948
 Zr189 Zr 0.69074 0.76855 0.26751
 O190 O 0.72007 0.79981 0.23540
 Zr191 Zr 0.74949 0.70820 0.26793
 O192 O 0.78252 0.73685 0.23690
 O193 O 0.78429 0.80098 0.23510
 O194 O 0.71779 0.73604 0.29938
 C195 C 0.75095 0.84633 0.18883
 C196 C 0.82865 0.84631 0.27006
 C197 C 0.83080 0.76685 0.19112
 C198 C 0.74893 0.69031 0.34464
 C199 C 0.67348 0.76725 0.34453
 C200 C 0.67199 0.69249 0.26611
 H201 H 0.70722 0.81567 0.31166
 H202 H 0.70675 0.72528 0.21951
 H203 H 0.79901 0.81538 0.22089
 H204 H 0.79710 0.72333 0.31232
 H205 H 0.80466 0.78560 0.35765
 H206 H 0.84213 0.75694 0.32415
 H207 H 0.65925 0.75587 0.21146
 H208 H 0.69733 0.78398 0.17631
 H209 H 0.75790 0.82392 0.35805
 H210 H 0.76771 0.86308 0.31953
 H211 H 0.73411 0.67593 0.21297
 H212 H 0.76853 0.71302 0.17829
 H213 H 0.69592 0.85816 0.24953
 H214 H 0.65820 0.82321 0.28425
 H215 H 0.83943 0.71220 0.25199
 H216 H 0.80425 0.67521 0.28331
 O217 O 0.74940 0.16121 0.79437
 O218 O 0.71743 0.14952 0.74744
 O219 O 0.83924 0.20636 0.75275
 O220 O 0.85067 0.25198 0.71863
 O221 O 0.79170 0.25016 0.83965
 O222 O 0.74555 0.28411 0.84909
 O223 O 0.74969 0.29393 0.66019
 O224 O 0.78473 0.24950 0.64906
 O225 O 0.66208 0.25034 0.70267
 O226 O 0.64910 0.21652 0.74793
 O227 O 0.70457 0.33841 0.74541
 O228 O 0.74815 0.35131 0.78097
 O229 O 0.74985 0.33586 0.69941
 O230 O 0.79008 0.34432 0.75156
 O231 O 0.66322 0.29857 0.74530
 O232 O 0.65456 0.24835 0.78806
 O233 O 0.70259 0.24930 0.66196
 O234 O 0.75448 0.20810 0.65579
 O235 O 0.74602 0.20086 0.83586
 O236 O 0.70601 0.25018 0.84262
 O237 O 0.83447 0.25213 0.80122
 O238 O 0.84368 0.29195 0.75200
 O239 O 0.80025 0.16415 0.75071
 O240 O 0.75266 0.15530 0.70895
 Zr241 Zr 0.75265 0.18951 0.74995
 O242 O 0.71959 0.21801 0.71904
 Zr243 Zr 0.81010 0.25040 0.75326
 O244 O 0.78174 0.27977 0.71871
 Zr245 Zr 0.74818 0.24809 0.80985
 O246 O 0.71883 0.28122 0.77978
 Zr247 Zr 0.74926 0.24970 0.68894
 O248 O 0.78280 0.21995 0.71878
 Zr249 Zr 0.68940 0.25150 0.74762
 O250 O 0.71762 0.21797 0.77882
 Zr251 Zr 0.74911 0.31031 0.74684
 O252 O 0.77866 0.28207 0.78184
 O253 O 0.78169 0.21787 0.78308
 O254 O 0.71749 0.28231 0.71542
 C255 C 0.74660 0.17003 0.82527
 C256 C 0.83090 0.17519 0.75171
 C257 C 0.82295 0.25183 0.83170
 C258 C 0.74998 0.32503 0.66872
 C259 C 0.67155 0.24955 0.67189
 C260 C 0.67363 0.32941 0.74466
 H261 H 0.70565 0.20240 0.70544
 H262 H 0.70487 0.29573 0.79455
 H263 H 0.79578 0.20354 0.79815
 H264 H 0.79735 0.29319 0.70455
 H265 H 0.80602 0.25865 0.65836
 H266 H 0.84317 0.23919 0.69851
 H267 H 0.65389 0.27058 0.79944
 H268 H 0.69174 0.23031 0.83750
 H269 H 0.73276 0.19577 0.65547
 H270 H 0.77306 0.16017 0.69533
 H271 H 0.73840 0.34265 0.80229
 H272 H 0.75818 0.30415 0.84104
 H273 H 0.69682 0.15762 0.75907
 H274 H 0.65794 0.19528 0.73817
 H275 H 0.83834 0.30629 0.77176
 H276 H 0.80275 0.34417 0.73002
 O277 O 0.23556 0.81886 0.79848
 O278 O 0.27247 0.82845 0.75042
 O279 O 0.14604 0.78084 0.74815
 O280 O 0.13359 0.73764 0.71406
 O281 O 0.18567 0.73124 0.83735
 O282 O 0.23299 0.69250 0.84627
 O283 O 0.23308 0.68558 0.66281
 O284 O 0.19288 0.73193 0.65467
 O285 O 0.31977 0.73094 0.70219
 O286 O 0.33025 0.76906 0.75211
 O287 O 0.27882 0.64419 0.74913
 O288 O 0.22980 0.63519 0.78800
 O289 O 0.23308 0.64492 0.70374
 O290 O 0.19517 0.63449 0.75081
 O291 O 0.31984 0.68441 0.74832
 O292 O 0.33223 0.73113 0.78556
 O293 O 0.27865 0.73135 0.66183
 O294 O 0.23463 0.76866 0.65067
 O295 O 0.23465 0.77742 0.83865
 O296 O 0.27007 0.73019 0.84807
 O297 O 0.14518 0.73341 0.79629
 O298 O 0.13677 0.69470 0.74989
 O299 O 0.18741 0.82075 0.75032
 O300 O 0.23428 0.83095 0.71433
 Zr301 Zr 0.23276 0.79280 0.75192
 O302 O 0.26343 0.76365 0.71964
 Zr303 Zr 0.17244 0.73455 0.75091
 O304 O 0.20091 0.70247 0.71938
 Zr305 Zr 0.23184 0.73255 0.81066
 O306 O 0.26336 0.70122 0.78142
 Zr307 Zr 0.23355 0.73163 0.68956
 O308 O 0.20252 0.76428 0.71852
 Zr309 Zr 0.29334 0.73054 0.74867
 O310 O 0.26511 0.76218 0.78140
 Zr311 Zr 0.23323 0.67198 0.74910
 O312 O 0.20142 0.70096 0.78083
 O313 O 0.20086 0.76499 0.78289
 O314 O 0.26512 0.69926 0.71713
 C315 C 0.23628 0.80846 0.82936
 C316 C 0.15636 0.81160 0.74833
 C317 C 0.15474 0.73162 0.82722
 C318 C 0.23298 0.65461 0.67284
 C319 C 0.30966 0.73135 0.67125
 C320 C 0.30984 0.65361 0.74877
 H321 H 0.27741 0.77899 0.70576
 H322 H 0.27730 0.68702 0.79669
 H323 H 0.18669 0.77967 0.79736
 H324 H 0.18552 0.68887 0.70519
 H325 H 0.17743 0.75051 0.66142
 H326 H 0.14014 0.72298 0.69494
 H327 H 0.32587 0.71508 0.80368
 H328 H 0.28896 0.74425 0.83966
 H329 H 0.24668 0.78860 0.65954
 H330 H 0.21859 0.82381 0.69618
 H331 H 0.24899 0.63861 0.80370
 H332 H 0.21573 0.67596 0.83897
 H333 H 0.28988 0.82041 0.76664
 H334 H 0.32671 0.78485 0.73294
 H335 H 0.14402 0.67790 0.76710
 H336 H 0.17772 0.64059 0.73386
 O337 O 0.24925 0.35277 0.71846
 O338 O 0.21214 0.36285 0.76589
 O339 O 0.33782 0.31238 0.76682
 O340 O 0.34895 0.26931 0.80353
 O341 O 0.29755 0.26311 0.67974
 O342 O 0.24927 0.22620 0.67101
 O343 O 0.25043 0.22010 0.85541
 O344 O 0.29043 0.26538 0.86239
 O345 O 0.16365 0.26567 0.81503
 O346 O 0.15416 0.30615 0.76562
 O347 O 0.20144 0.17956 0.76880
 O348 O 0.25100 0.16844 0.73048
 O349 O 0.24775 0.17916 0.81520
 O350 O 0.28483 0.16629 0.76805
 O351 O 0.16154 0.22120 0.76831
 O352 O 0.15081 0.26836 0.73170
 O353 O 0.20495 0.26469 0.85524
 O354 O 0.24534 0.30315 0.86499
 O355 O 0.24977 0.31143 0.67850
 O356 O 0.21303 0.26485 0.66903
 O357 O 0.33804 0.26387 0.72082
 O358 O 0.34603 0.22620 0.76793
 O359 O 0.29703 0.35322 0.76469
 O360 O 0.24946 0.36475 0.80193
 Zr361 Zr 0.25139 0.32637 0.76480
 O362 O 0.22035 0.29814 0.79740
 Zr363 Zr 0.31066 0.26655 0.76614
 O364 O 0.28154 0.23519 0.79787
 Zr365 Zr 0.25127 0.26604 0.70646
 O366 O 0.21901 0.23571 0.73606
 Zr367 Zr 0.24976 0.26543 0.82747
 O368 O 0.28146 0.29734 0.79839
 Zr369 Zr 0.18973 0.26603 0.76849
 O370 O 0.21858 0.29669 0.73540
 Zr371 Zr 0.24822 0.20550 0.76887
 O372 O 0.28081 0.23356 0.73682
 O373 O 0.28269 0.29757 0.73396
 O374 O 0.21727 0.23400 0.80038
 C375 C 0.24879 0.34252 0.68771
 C376 C 0.32791 0.34339 0.76579
 C377 C 0.32854 0.26239 0.68985
 C378 C 0.24913 0.18913 0.84601
 C379 C 0.17397 0.26496 0.84586
 C380 C 0.17059 0.19006 0.76834
 H381 H 0.20701 0.31372 0.81167
 H382 H 0.20475 0.22198 0.72087
 H383 H 0.29713 0.31156 0.71909
 H384 H 0.29671 0.22119 0.81213
 H385 H 0.30510 0.28474 0.85640
 H386 H 0.34192 0.25494 0.82277
 H387 H 0.15733 0.25309 0.71306
 H388 H 0.19489 0.28029 0.67679
 H389 H 0.25805 0.32293 0.85667
 H390 H 0.26891 0.36118 0.81735
 H391 H 0.23199 0.17247 0.71464
 H392 H 0.26565 0.20883 0.67881
 H393 H 0.19470 0.35528 0.74961
 H394 H 0.15721 0.32056 0.78578
 H395 H 0.33783 0.20877 0.75202
 H396 H 0.30290 0.17232 0.78425
 O397 O 0.77042 0.66170 0.68478
 O398 O 0.80774 0.65221 0.73319
 O399 O 0.68156 0.70081 0.73354
 O400 O 0.66848 0.74509 0.76651
 O401 O 0.72251 0.74986 0.64400
 O402 O 0.76973 0.78788 0.63597
 O403 O 0.76775 0.79620 0.81948
 O404 O 0.72800 0.75018 0.82763
 O405 O 0.85529 0.74883 0.78077
 O406 O 0.86543 0.71013 0.73173
 O407 O 0.81549 0.83554 0.73559
 O408 O 0.76720 0.84527 0.69362
 O409 O 0.76787 0.83657 0.77829
 O410 O 0.73198 0.84744 0.73034
 O411 O 0.85606 0.79454 0.73601
 O412 O 0.86741 0.74777 0.69742
 O413 O 0.81403 0.75035 0.82074
 O414 O 0.76920 0.71295 0.83208
 O415 O 0.77054 0.70299 0.64439
 O416 O 0.80694 0.74971 0.63535
 O417 O 0.68150 0.74816 0.68431
 O418 O 0.67230 0.78724 0.73064
 O419 O 0.72281 0.66043 0.73249
 O420 O 0.76905 0.65031 0.76901
 Zr421 Zr 0.76799 0.68813 0.73106
 O422 O 0.79854 0.71703 0.76354
 Zr423 Zr 0.70797 0.74710 0.73054
 O424 O 0.73638 0.77905 0.76235
 Zr425 Zr 0.76804 0.74813 0.67187
 O426 O 0.79952 0.77923 0.70134
 Zr427 Zr 0.76866 0.74981 0.79297
 O428 O 0.73762 0.71739 0.76374
 Zr429 Zr 0.82885 0.74929 0.73442
 O430 O 0.80070 0.71792 0.70163
 Zr431 Zr 0.76930 0.80900 0.73315
 O432 O 0.73752 0.78027 0.70109
 O433 O 0.73659 0.71619 0.69934
 O434 O 0.80065 0.78126 0.76550
 C435 C 0.77139 0.67198 0.65390
 C436 C 0.69180 0.66986 0.73402
 C437 C 0.69146 0.74968 0.65349
 C438 C 0.76744 0.82717 0.80930
 C439 C 0.84509 0.74960 0.81153
 C440 C 0.84640 0.82545 0.73675
 H441 H 0.81237 0.70163 0.77770
 H442 H 0.81375 0.79324 0.68637
 H443 H 0.72238 0.70160 0.68486
 H444 H 0.72087 0.79295 0.77614
 H445 H 0.71221 0.73213 0.82054
 H446 H 0.67531 0.75912 0.78599
 H447 H 0.86230 0.76538 0.68030
 H448 H 0.82540 0.73504 0.64403
 H449 H 0.78271 0.69346 0.82420
 H450 H 0.75403 0.65833 0.78732
 H451 H 0.78799 0.84297 0.67996
 H452 H 0.75314 0.80510 0.64341
 H453 H 0.82479 0.65946 0.71641
 H454 H 0.86150 0.69440 0.75083
 H455 H 0.67967 0.80374 0.71328
 H456 H 0.71336 0.84087 0.74564
 O457 O 0.25032 0.66281 0.29596
 O458 O 0.21716 0.65124 0.24978
 O459 O 0.33908 0.70795 0.25257
 O460 O 0.34972 0.75363 0.21802
 O461 O 0.29355 0.75184 0.34030
 O462 O 0.24741 0.78565 0.35082
 O463 O 0.24720 0.79574 0.16203
 O464 O 0.28249 0.75170 0.15011
 O465 O 0.16098 0.75238 0.20599
 O466 O 0.14871 0.71829 0.25101
 O467 O 0.20417 0.84012 0.24893
 O468 O 0.24915 0.85276 0.28309
 O469 O 0.24764 0.83763 0.20127
 O470 O 0.28973 0.84618 0.25192
 O471 O 0.16283 0.80028 0.24998
 O472 O 0.15515 0.74917 0.29165
 O473 O 0.20076 0.75064 0.16459
 O474 O 0.25273 0.71002 0.15736
 O475 O 0.24787 0.70240 0.33755
 O476 O 0.20803 0.75147 0.34540
 O477 O 0.33554 0.75416 0.30105
 O478 O 0.34361 0.79360 0.25158
 O479 O 0.30004 0.66576 0.25109
 O480 O 0.25154 0.65700 0.21051
 Zr481 Zr 0.25249 0.69119 0.25152
 O482 O 0.21880 0.71974 0.22135
 Zr483 Zr 0.31003 0.75210 0.25366
 O484 O 0.28086 0.78157 0.21981
 Zr485 Zr 0.24933 0.74963 0.31154
 O486 O 0.21927 0.78275 0.28219
 Zr487 Zr 0.24784 0.75149 0.19071
 O488 O 0.28198 0.72168 0.21976
 Zr489 Zr 0.18911 0.75316 0.25055
 O490 O 0.21806 0.71960 0.28113
 Zr491 Zr 0.24875 0.81200 0.24866
 O492 O 0.27913 0.78369 0.28291
 O493 O 0.28229 0.71950 0.28404
 O494 O 0.21650 0.78405 0.21783
 C495 C 0.24824 0.67160 0.32692
 C496 C 0.33070 0.67678 0.25148
 C497 C 0.32462 0.75391 0.33176
 C498 C 0.24710 0.82683 0.17058
 C499 C 0.16992 0.75114 0.17504
 C500 C 0.17322 0.83116 0.24950
 H501 H 0.20461 0.70413 0.20801
 H502 H 0.20567 0.79715 0.29741
 H503 H 0.29676 0.70520 0.29880
 H504 H 0.29606 0.79508 0.20530
 H505 H 0.30395 0.76084 0.15904
 H506 H 0.34181 0.74063 0.19819
 H507 H 0.15520 0.77100 0.30381
 H508 H 0.19358 0.73170 0.34044
 H509 H 0.23120 0.69734 0.15768
 H510 H 0.27161 0.66187 0.19641
 H511 H 0.23923 0.84425 0.30439
 H512 H 0.25994 0.80567 0.34256
 H513 H 0.19687 0.65933 0.26198
 H514 H 0.15759 0.69689 0.24165
 H515 H 0.33836 0.80824 0.27114
 H516 H 0.30157 0.84621 0.22991
 O517 O 0.73345 0.31940 0.29670
 O518 O 0.77013 0.32961 0.24860
 O519 O 0.64427 0.28033 0.24698
 O520 O 0.63209 0.23720 0.21275
 O521 O 0.68546 0.23062 0.33551
 O522 O 0.73341 0.19267 0.34382
 O523 O 0.73180 0.18687 0.16016
 O524 O 0.69091 0.23262 0.15275
 O525 O 0.81819 0.23299 0.19906
 O526 O 0.82868 0.27091 0.24920
 O527 O 0.77885 0.14540 0.24570
 O528 O 0.73043 0.13544 0.28499
 O529 O 0.73271 0.14592 0.20079
 O530 O 0.69526 0.13473 0.24831
 O531 O 0.81937 0.18611 0.24484
 O532 O 0.83152 0.23267 0.28230
 O533 O 0.77668 0.23310 0.15909
 O534 O 0.73199 0.27012 0.14872
 O535 O 0.73354 0.27768 0.33660
 O536 O 0.77002 0.23091 0.34535
 O537 O 0.64458 0.23254 0.29482
 O538 O 0.63622 0.19405 0.24826
 O539 O 0.68514 0.32076 0.24886
 O540 O 0.73172 0.33175 0.21258
 Zr541 Zr 0.73089 0.29344 0.25004
 O542 O 0.76165 0.26488 0.21731
 Zr543 Zr 0.67134 0.23438 0.24919
 O544 O 0.69991 0.20289 0.21717
 Zr545 Zr 0.73133 0.23285 0.30839
 O546 O 0.76295 0.20205 0.27865
 Zr547 Zr 0.73189 0.23269 0.18727
 O548 O 0.70071 0.26474 0.21674
 Zr549 Zr 0.79226 0.23193 0.24582
 O550 O 0.76394 0.26306 0.27900
 Zr551 Zr 0.73292 0.17263 0.24639
 O552 O 0.70107 0.20101 0.27863
 O553 O 0.69965 0.26501 0.28110
 O554 O 0.76413 0.20055 0.21432
 C555 C 0.73450 0.30884 0.32752
 C556 C 0.65419 0.31123 0.24713
 C557 C 0.65444 0.23067 0.32565
 C558 C 0.73223 0.15584 0.16995
 C559 C 0.80777 0.23346 0.16822
 C560 C 0.80975 0.15517 0.24508
 H561 H 0.77532 0.28048 0.20341
 H562 H 0.77721 0.18791 0.29368
 H563 H 0.68537 0.27938 0.29576
 H564 H 0.68458 0.18919 0.20303
 H565 H 0.67523 0.25089 0.15978
 H566 H 0.63863 0.22272 0.19348
 H567 H 0.82537 0.21662 0.30050
 H568 H 0.78849 0.24549 0.33691
 H569 H 0.74447 0.28990 0.15738
 H570 H 0.71600 0.32449 0.19451
 H571 H 0.74966 0.13909 0.30059
 H572 H 0.71651 0.17580 0.33646
 H573 H 0.78773 0.32166 0.26465
 H574 H 0.82475 0.28680 0.23019
 H575 H 0.64388 0.17722 0.26526
 H576 H 0.67776 0.14055 0.23133
 C577 C 0.26251 0.10266 0.08081
 C578 C 0.23798 0.07788 0.08572
 C579 C 0.23412 0.05202 0.06228
 C580 C 0.25466 0.05045 0.03318
 C581 C 0.27897 0.07603 0.02817
 C582 C 0.28281 0.10198 0.05187
 C583 C 0.26652 0.12842 0.10596
 C584 C 0.26835 0.14950 0.12774
 H585 H 0.22195 0.07836 0.10790
 H586 H 0.21469 0.03329 0.06681
 H587 H 0.29609 0.07519 0.00688
 H588 H 0.30198 0.12110 0.04795
 C589 C 0.77167 0.60302 0.57779
 C590 C 0.79890 0.58085 0.57318
 C591 C 0.79694 0.55547 0.54882
 C592 C 0.76771 0.55206 0.52882
 C593 C 0.74104 0.57528 0.53260
 C594 C 0.74304 0.60068 0.55700
 C595 C 0.77234 0.62702 0.60494
 C596 C 0.77229 0.64717 0.62767
 H597 H 0.82118 0.58250 0.58910
 H598 H 0.81769 0.53767 0.54638
 H599 H 0.71806 0.57272 0.51787
 H600 H 0.72183 0.61775 0.56042
 C601 C 0.75052 0.91443 0.11128
 C602 C 0.77492 0.91033 0.08615
 C603 C 0.77392 0.93038 0.05703
 C604 C 0.74848 0.95520 0.05246
 C605 C 0.72434 0.95936 0.07841
 C606 C 0.72540 0.93915 0.10752
 C607 C 0.75030 0.89176 0.13982
 C608 C 0.75040 0.87161 0.16276
 H609 H 0.79452 0.89125 0.08883
 H610 H 0.79356 0.92673 0.03835
 H611 H 0.70336 0.97680 0.07555
 H612 H 0.70606 0.94218 0.12663
 C613 C 0.24896 0.41203 0.61137
 C614 C 0.22088 0.43269 0.60464
 C615 C 0.22069 0.45392 0.57626
 C616 C 0.24864 0.45468 0.55439
 C617 C 0.27701 0.43440 0.56175
 C618 C 0.27717 0.41323 0.59010
 C619 C 0.24836 0.38830 0.63902
 C620 C 0.24825 0.36768 0.66154
 H621 H 0.19885 0.43181 0.62085
 H622 H 0.19835 0.46894 0.57079
 H623 H 0.29882 0.43461 0.54523
 H624 H 0.29900 0.39729 0.59506
 C625 C 0.74126 0.08643 0.88555
 C626 C 0.71024 0.07578 0.89867
 C627 C 0.70882 0.04737 0.91974
 C628 C 0.73844 0.02925 0.92790
 C629 C 0.76910 0.03859 0.91273
 C630 C 0.77049 0.06710 0.89164
 C631 C 0.74311 0.11738 0.86628
 C632 C 0.74461 0.14255 0.84898
 H633 H 0.68740 0.09026 0.89380
 H634 H 0.68505 0.04088 0.93162
 H635 H 0.79231 0.02543 0.91926
 H636 H 0.79459 0.07490 0.88128
 C637 C 0.24393 0.58803 0.38728
 C638 C 0.27323 0.56880 0.39333
 C639 C 0.27193 0.54026 0.41440
 C640 C 0.24130 0.53083 0.42953
 C641 C 0.21164 0.54890 0.42148
 C642 C 0.21295 0.57732 0.40044
 C643 C 0.24560 0.61896 0.36797
 C644 C 0.24679 0.64411 0.35065
 H645 H 0.29729 0.57666 0.38294
 H646 H 0.29517 0.52713 0.42089
 H647 H 0.18790 0.54234 0.43341
 H648 H 0.19007 0.59175 0.39562
 C649 C 0.24039 0.87971 0.90377
 C650 C 0.22273 0.90985 0.89844
 C651 C 0.22494 0.93598 0.92186
 C652 C 0.24499 0.93274 0.95140
 C653 C 0.26156 0.90154 0.95722
 C654 C 0.25939 0.87532 0.93346
 C655 C 0.23953 0.85406 0.87797
 C656 C 0.23827 0.83330 0.85570
 H657 H 0.20758 0.91344 0.87581
 H658 H 0.21061 0.95887 0.91678
 H659 H 0.27825 0.89799 0.97861
 H660 H 0.27331 0.85204 0.93779
 C661 C 0.73850 0.37814 0.40397
 C662 C 0.71247 0.40198 0.40731
 C663 C 0.71490 0.42755 0.43150
 C664 C 0.74341 0.42966 0.45275
 C665 C 0.76872 0.40472 0.45037
 C666 C 0.76628 0.37911 0.42607
 C667 C 0.73728 0.35375 0.37691
 C668 C 0.73612 0.33352 0.35411
 H669 H 0.69079 0.40146 0.39050
 H670 H 0.69510 0.44653 0.43279
 H671 H 0.79119 0.40610 0.46602
 H672 H 0.78658 0.36078 0.42377
 C673 C 0.11004 0.25696 0.08893
 C674 C 0.10870 0.27816 0.06057
 C675 C 0.07976 0.27889 0.04011
 C676 C 0.05168 0.25817 0.04757
 C677 C 0.05340 0.23743 0.07671
 C678 C 0.08231 0.23675 0.09698
 C679 C 0.13924 0.25640 0.11067
 C680 C 0.16264 0.25530 0.13021
 H681 H 0.12981 0.29448 0.05453
 H682 H 0.07901 0.29685 0.01945
 H683 H 0.03285 0.22062 0.08328
 H684 H 0.08304 0.22032 0.11899
 C685 C 0.61469 0.74958 0.58452
 C686 C 0.60745 0.77776 0.56414
 C687 C 0.57831 0.77826 0.54400
 C688 C 0.55612 0.75054 0.54404
 C689 C 0.56391 0.72211 0.56407
 C690 C 0.59304 0.72163 0.58416
 C691 C 0.64295 0.75005 0.60752
 C692 C 0.66567 0.75013 0.62792
 H693 H 0.62388 0.79963 0.56444
 H694 H 0.57255 0.80066 0.52917
 H695 H 0.54718 0.70047 0.56448
 H696 H 0.59830 0.69977 0.59996
 C697 C 0.07940 0.72994 0.89709
 C698 C 0.07886 0.70457 0.92172
 C699 C 0.05474 0.70546 0.94733
 C700 C 0.03055 0.73182 0.94882
 C701 C 0.03052 0.75648 0.92290
 C702 C 0.05482 0.75552 0.89729
 C703 C 0.10609 0.73039 0.87255
 C704 C 0.12860 0.73084 0.85214
 H705 H 0.09760 0.68448 0.92159
 H706 H 0.05517 0.68554 0.96622
 H707 H 0.01320 0.77775 0.92352
 H708 H 0.05513 0.77535 0.87830
 C709 C 0.57905 0.22961 0.39538
 C710 C 0.57472 0.20202 0.41718
 C711 C 0.55049 0.20350 0.44273
 C712 C 0.53035 0.23259 0.44667
 C713 C 0.53386 0.25964 0.42384
 C714 C 0.55812 0.25811 0.39827
 C715 C 0.60598 0.22935 0.37113
 C716 C 0.62851 0.22965 0.35075
 H717 H 0.59075 0.17984 0.41508
 H718 H 0.54826 0.18248 0.46023
 H719 H 0.51900 0.28251 0.42683
 H720 H 0.56132 0.27959 0.38148
 C721 C 0.90720 0.76320 0.12171
 C722 C 0.92849 0.73482 0.12005
 C723 C 0.95265 0.73222 0.09434
 C724 C 0.95573 0.75799 0.06994
 C725 C 0.93534 0.78710 0.07276
 C726 C 0.91125 0.78966 0.09846
 C727 C 0.88017 0.76450 0.14614
 C728 C 0.85741 0.76553 0.16642
 H729 H 0.92563 0.71418 0.13791
 H730 H 0.96760 0.70930 0.09242
 H731 H 0.93719 0.80727 0.05424
 H732 H 0.89505 0.81181 0.09952
 C733 C 0.40505 0.25898 0.62053
 C734 C 0.42727 0.23126 0.61931
 C735 C 0.45189 0.22932 0.59394
 C736 C 0.45446 0.25509 0.56950
 C737 C 0.43315 0.28356 0.57193
 C738 C 0.40864 0.28548 0.59727
 C739 C 0.37776 0.25979 0.64471
 C740 C 0.35491 0.26077 0.66491
 H741 H 0.42481 0.21062 0.63724
 H742 H 0.46760 0.20689 0.59228
 H743 H 0.43458 0.30368 0.55332
 H744 H 0.39179 0.30714 0.59803
 C745 C 0.88609 0.24754 0.91319
 C746 C 0.91369 0.22560 0.91173
 C747 C 0.93708 0.22472 0.93803
 C748 C 0.93353 0.24594 0.96648
 C749 C 0.90405 0.26592 0.96908
 C750 C 0.88060 0.26691 0.94234
 C751 C 0.86431 0.25043 0.88410
 C752 C 0.84622 0.25175 0.85955
 H753 H 0.91784 0.20997 0.88966
 H754 H 0.95885 0.20816 0.93558
 H755 H 0.90055 0.28306 0.99006
 H756 H 0.85900 0.28377 0.94381
 C757 C 0.38568 0.75750 0.41488
 C758 C 0.39186 0.72800 0.43378
 C759 C 0.41371 0.72882 0.46171
 C760 C 0.42952 0.75918 0.47088
 C761 C 0.42139 0.78906 0.45319
 C762 C 0.39956 0.78822 0.42538
 C763 C 0.36579 0.75623 0.38432
 C764 C 0.34824 0.75526 0.35934
 H765 H 0.38098 0.70412 0.42605
 H766 H 0.42023 0.70541 0.47453
 H767 H 0.43380 0.81259 0.45954
 H768 H 0.39471 0.81126 0.41120
 C769 C 0.12048 0.09653 0.23657
 C770 C 0.09356 0.09750 0.21366
 C771 C 0.06772 0.07360 0.21572
 C772 C 0.06804 0.04809 0.24093
 C773 C 0.09646 0.04628 0.26264
 C774 C 0.12229 0.07041 0.26055
 C775 C 0.14536 0.12317 0.23610
 C776 C 0.16588 0.14574 0.23545
 H777 H 0.09211 0.11725 0.19462
 H778 H 0.04730 0.07534 0.19749
 H779 H 0.09766 0.02804 0.28307
 H780 H 0.14307 0.06938 0.27845
 C781 C 0.62178 0.59435 0.74077
 C782 C 0.61793 0.57065 0.71477
 C783 C 0.59209 0.54651 0.71639
 C784 C 0.56985 0.54596 0.74404
 C785 C 0.57482 0.56893 0.77064
 C786 C 0.60061 0.59292 0.76901
 C787 C 0.64643 0.62103 0.73806
 C788 C 0.66688 0.64356 0.73609
 H789 H 0.63420 0.57148 0.69279
 H790 H 0.58843 0.52945 0.69536
 H791 H 0.55793 0.56901 0.79215
 H792 H 0.60340 0.61100 0.78934
 C793 C 0.91290 0.11311 0.76144
 C794 C 0.94076 0.11554 0.73969
 C795 C 0.96801 0.09288 0.74296
 C796 C 0.96726 0.06708 0.76770
 C797 C 0.94038 0.06713 0.79118
 C798 C 0.91349 0.08979 0.78798
 C799 C 0.88324 0.13386 0.75653
 C800 C 0.85853 0.15163 0.75359
 H801 H 0.94074 0.13394 0.71931
 H802 H 0.98775 0.09357 0.72407
 H803 H 0.93943 0.04849 0.81133
 H804 H 0.89252 0.08822 0.80550
 C805 C 0.41384 0.61566 0.25656
 C806 C 0.43586 0.61260 0.22900
 C807 C 0.46380 0.59076 0.23096
 C808 C 0.46984 0.57185 0.26050
 C809 C 0.44896 0.57682 0.28876
 C810 C 0.42115 0.59864 0.28680
 C811 C 0.38337 0.63563 0.25379
 C812 C 0.35838 0.65320 0.25222
 H813 H 0.43061 0.62593 0.20556
 H814 H 0.47913 0.58669 0.20868
 H815 H 0.45287 0.56198 0.31154
 H816 H 0.40452 0.60108 0.30840
 C817 C 0.08770 0.88871 0.74710
 C818 C 0.08884 0.91338 0.72163
 C819 C 0.06786 0.94188 0.72338
 C820 C 0.04548 0.94594 0.75062
 C821 C 0.04416 0.92080 0.77583
 C822 C 0.06511 0.89233 0.77404
 C823 C 0.11110 0.86077 0.74675
 C824 C 0.13140 0.83796 0.74715
 H825 H 0.10636 0.91090 0.70077
 H826 H 0.06930 0.96093 0.70367
 H827 H 0.02756 0.92365 0.79738
 H828 H 0.06425 0.87354 0.79404
 C829 C 0.58550 0.38837 0.24506
 C830 C 0.58798 0.41303 0.21970
 C831 C 0.56765 0.44200 0.22085
 C832 C 0.54453 0.44659 0.24737
 C833 C 0.54169 0.42140 0.27241
 C834 C 0.56207 0.39243 0.27122
 C835 C 0.60860 0.36014 0.24541
 C836 C 0.62892 0.33734 0.24602
 H837 H 0.60616 0.41023 0.19944
 H838 H 0.57025 0.46108 0.20131
 H839 H 0.52446 0.42465 0.29339
 H840 H 0.56015 0.37364 0.29114
 C841 C 0.89832 0.92172 0.27138
 C842 C 0.89765 0.94603 0.24558
 C843 C 0.92310 0.97039 0.24355
 C844 C 0.94979 0.97071 0.26733
 C845 C 0.94913 0.94684 0.29403
 C846 C 0.92365 0.92262 0.29598
 C847 C 0.87403 0.89484 0.27163
 C848 C 0.85367 0.87230 0.27126
 H849 H 0.87815 0.94538 0.22629
 H850 H 0.92308 0.98717 0.22187
 H851 H 0.96854 0.94670 0.31341
 H852 H 0.92420 0.90408 0.31624
 C853 C 0.39704 0.41827 0.75424
 C854 C 0.41469 0.41943 0.72367
 C855 C 0.43950 0.44388 0.71856
 C856 C 0.44682 0.46747 0.74398
 C857 C 0.42806 0.46707 0.77408
 C858 C 0.40321 0.44252 0.77918
 C859 C 0.37315 0.39165 0.75997
 C860 C 0.35295 0.36926 0.76351
 H861 H 0.40990 0.40088 0.70415
 H862 H 0.45384 0.44371 0.69526
 H863 H 0.43374 0.48471 0.79418
 H864 H 0.38953 0.44187 0.80287
 C865 C 0.10512 0.26395 0.92198
 C866 C 0.08314 0.29148 0.92548
 C867 C 0.05769 0.29056 0.94974
 C868 C 0.05412 0.26217 0.97085
 C869 C 0.07702 0.23512 0.96822
 C870 C 0.10254 0.23605 0.94381
 C871 C 0.12922 0.26396 0.89495
 C872 C 0.14929 0.26434 0.87217
 H873 H 0.08498 0.31316 0.90874
 H874 H 0.03987 0.31139 0.95123
 H875 H 0.07416 0.21282 0.98396
 H876 H 0.11951 0.21463 0.94122
 C877 C 0.60360 0.76710 0.41984
 C878 C 0.58189 0.79478 0.42397
 C879 C 0.55659 0.79375 0.44848
 C880 C 0.55282 0.76501 0.46914
 C881 C 0.57555 0.73784 0.46579
 C882 C 0.60087 0.73891 0.44123
 C883 C 0.62784 0.76715 0.39289
 C884 C 0.64827 0.76717 0.37039
 H885 H 0.58390 0.81675 0.40762
 H886 H 0.53919 0.81487 0.45060
 H887 H 0.57269 0.71523 0.48106
 H888 H 0.61762 0.71738 0.43822
 C889 C 0.91360 0.75025 0.88877
 C890 C 0.93744 0.72435 0.89307
 C891 C 0.95844 0.72383 0.92161
 C892 C 0.95601 0.74934 0.94643
 C893 C 0.93195 0.77543 0.94141
 C894 C 0.91110 0.77588 0.91286
 C895 C 0.89045 0.74984 0.86062
 C896 C 0.87017 0.74967 0.83780
 H897 H 0.93929 0.70412 0.87476
 H898 H 0.97543 0.70252 0.92490
 H899 H 0.92959 0.79599 0.95927
 H900 H 0.89273 0.79608 0.90978
 C901 C 0.41470 0.25143 0.38639
 C902 C 0.43453 0.22271 0.39296
 C903 C 0.45494 0.22129 0.42187
 C904 C 0.45572 0.24864 0.44445
 C905 C 0.43624 0.27763 0.43732
 C906 C 0.41587 0.27901 0.40843
 C907 C 0.39142 0.25180 0.35839
 C908 C 0.37091 0.25201 0.33580
 H909 H 0.43358 0.20111 0.37621
 H910 H 0.46935 0.19850 0.42713
 H911 H 0.43649 0.29899 0.45438
 H912 H 0.40049 0.30129 0.40367
 C913 C 0.08739 0.74499 0.11348
 C914 C 0.06735 0.77360 0.10681
 C915 C 0.03927 0.77119 0.08530
 C916 C 0.03108 0.74013 0.07027
 C917 C 0.04997 0.71113 0.07892
 C918 C 0.07795 0.71356 0.10041
 C919 C 0.11784 0.74778 0.13337
 C920 C 0.14265 0.74960 0.15108
 H921 H 0.07421 0.79799 0.11711
 H922 H 0.02549 0.79396 0.07846
 H923 H 0.04432 0.68705 0.06726
 H924 H 0.09299 0.69118 0.10573
 C925 C 0.58852 0.24456 0.61111
 C926 C 0.56868 0.27342 0.60492
 C927 C 0.53993 0.27132 0.58427
 C928 C 0.53086 0.24031 0.56969
 C929 C 0.54954 0.21108 0.57795
 C930 C 0.57818 0.21320 0.59858
 C931 C 0.61948 0.24693 0.63024
 C932 C 0.64452 0.24838 0.64767
 H933 H 0.57621 0.29776 0.61488
 H934 H 0.52634 0.29425 0.57758
 H935 H 0.54330 0.18707 0.56644
 H936 H 0.59303 0.19062 0.60358
 C937 C 0.87691 0.24269 0.09213
 C938 C 0.88407 0.21660 0.06924
 C939 C 0.90967 0.22067 0.04507
 C940 C 0.92825 0.25086 0.04370
 C941 C 0.91992 0.27733 0.06579
 C942 C 0.89440 0.27330 0.08976
 C943 C 0.85264 0.23807 0.11894
 C944 C 0.83248 0.23538 0.14167
 H945 H 0.87065 0.19281 0.07078
 H946 H 0.91611 0.19977 0.02864
 H947 H 0.93422 0.30066 0.06535
 H948 H 0.88905 0.29370 0.10719
 C949 C 0.37952 0.73555 0.59528
 C950 C 0.40365 0.70985 0.59152
 C951 C 0.42921 0.71302 0.56738
 C952 C 0.43102 0.74194 0.54661
 C953 C 0.40585 0.76696 0.54945
 C954 C 0.38026 0.76377 0.57369
 C955 C 0.35508 0.73364 0.62227
 C956 C 0.33468 0.73235 0.64493
 H957 H 0.40332 0.68785 0.60795
 H958 H 0.44837 0.69343 0.56571
 H959 H 0.40701 0.78974 0.53418
 H960 H 0.36171 0.78384 0.57633
 C961 C 0.25315 0.11266 0.91517
 C962 C 0.23265 0.11078 0.94391
 C963 C 0.23363 0.08193 0.96460
 C964 C 0.25520 0.05452 0.95676
 C965 C 0.27602 0.05723 0.92795
 C966 C 0.27504 0.08601 0.90751
 C967 C 0.25093 0.14094 0.89227
 C968 C 0.24978 0.16348 0.87170
 H969 H 0.21532 0.13119 0.94985
 H970 H 0.21630 0.08049 0.98569
 H971 H 0.29344 0.03711 0.92132
 H972 H 0.29107 0.08723 0.88535
 C973 C 0.74898 0.61312 0.41334
 C974 C 0.72120 0.59131 0.41452
 C975 C 0.72232 0.56231 0.43483
 C976 C 0.75123 0.55481 0.45424
 C977 C 0.77880 0.57715 0.45344
 C978 C 0.77765 0.60617 0.43309
 C979 C 0.74882 0.64133 0.39020
 C980 C 0.74879 0.66414 0.36987
 H981 H 0.69896 0.59635 0.39922
 H982 H 0.70078 0.54545 0.43508
 H983 H 0.80155 0.57162 0.46777
 H984 H 0.79940 0.62274 0.43215
 C985 C 0.73165 0.08029 0.10041
 C986 C 0.70310 0.07512 0.08015
 C987 C 0.70357 0.05023 0.05523
 C988 C 0.73260 0.03021 0.05041
 C989 C 0.76077 0.03474 0.07160
 C990 C 0.76026 0.05968 0.09655
 C991 C 0.73189 0.10739 0.12447
 C992 C 0.73206 0.12995 0.14480
 H993 H 0.68081 0.09087 0.08305
 H994 H 0.68170 0.04723 0.03898
 H995 H 0.78357 0.01995 0.06791
 H996 H 0.78246 0.06349 0.11218
 C997 C 0.23219 0.57876 0.60365
 C998 C 0.20446 0.57478 0.58203
 C999 C 0.20542 0.55039 0.55664
 C1000 C 0.23413 0.52974 0.55268
 C1001 C 0.26127 0.53282 0.57543
 C1002 C 0.26028 0.55726 0.60084
 C1003 C 0.23241 0.60586 0.62770
 C1004 C 0.23267 0.62853 0.64790
 H1005 H 0.18257 0.59122 0.58411
 H1006 H 0.18433 0.54849 0.53921
 H1007 H 0.28386 0.51755 0.57243
 H1008 H 0.28184 0.56016 0.61753
 C1009 C 0.76304 0.90416 0.87797
 C1010 C 0.73439 0.92517 0.87901
 C1011 C 0.73133 0.94986 0.90416
 C1012 C 0.75689 0.95373 0.92858
 C1013 C 0.78629 0.93369 0.92629
 C1014 C 0.78933 0.90909 0.90117
 C1015 C 0.76486 0.87663 0.85414
 C1016 C 0.76618 0.85363 0.83414
 H1017 H 0.71389 0.92166 0.86114
 H1018 H 0.70820 0.96455 0.90571
 H1019 H 0.80628 0.93613 0.94490
 H1020 H 0.81169 0.89317 0.90055
 C1021 C 0.26399 0.40598 0.37847
 C1022 C 0.23575 0.42755 0.37935
 C1023 C 0.23281 0.45195 0.40479
 C1024 C 0.25808 0.45493 0.42963
 C1025 C 0.28709 0.43433 0.42754
 C1026 C 0.29002 0.41003 0.40213
 C1027 C 0.26558 0.37870 0.35440
 C1028 C 0.26669 0.35584 0.33427
 H1029 H 0.21546 0.42469 0.36112
 H1030 H 0.20998 0.46711 0.40620
 H1031 H 0.30683 0.43610 0.44649
 H1032 H 0.31204 0.39364 0.40165
 C1033 C 0.24739 0.88716 0.08683
 C1034 C 0.27850 0.89771 0.07383
 C1035 C 0.27953 0.91865 0.04534
 C1036 C 0.24947 0.92897 0.02925
 C1037 C 0.21840 0.91680 0.04122
 C1038 C 0.21738 0.89585 0.06987
 C1039 C 0.24654 0.86784 0.11779
 C1040 C 0.24656 0.85050 0.14298
 H1041 H 0.30189 0.89097 0.08658
 H1042 H 0.30362 0.92871 0.03714
 H1043 H 0.19493 0.92547 0.02988
 H1044 H 0.19316 0.88763 0.07959
 C1045 C 0.75464 0.38586 0.58542
 C1046 C 0.78591 0.39899 0.57552
 C1047 C 0.78795 0.42043 0.54744
 C1048 C 0.75873 0.42891 0.52887
 C1049 C 0.72782 0.41383 0.53750
 C1050 C 0.72579 0.39237 0.56570
 C1051 C 0.75230 0.36619 0.61609
 C1052 C 0.75096 0.34871 0.64113
 H1053 H 0.80846 0.39383 0.59032
 H1054 H 0.81189 0.43226 0.54151
 H1055 H 0.70490 0.42063 0.52398
 H1056 H 0.70151 0.38204 0.57294
 C1057 C 0.09360 0.12151 0.76168
 C1058 C 0.09042 0.10271 0.73194
 C1059 C 0.06585 0.07752 0.72943
 C1060 C 0.04400 0.07078 0.75661
 C1061 C 0.04618 0.09082 0.78581
 C1062 C 0.07090 0.11605 0.78833
 C1063 C 0.12092 0.14545 0.76498
 C1064 C 0.14391 0.16542 0.76696
 H1065 H 0.10765 0.10678 0.71108
 H1066 H 0.06475 0.06228 0.70675
 H1067 H 0.03000 0.08574 0.80727
 H1068 H 0.07301 0.13051 0.81144
 C1069 C 0.59599 0.62309 0.25820
 C1070 C 0.57167 0.61902 0.28363
 C1071 C 0.54727 0.59352 0.28103
 C1072 C 0.54703 0.57180 0.25297
 C1073 C 0.57061 0.57703 0.22694
 C1074 C 0.59488 0.60250 0.22953
 C1075 C 0.62285 0.64745 0.26179
 C1076 C 0.64553 0.66770 0.26416
 H1077 H 0.57222 0.63486 0.30591
 H1078 H 0.52974 0.58963 0.30166
 H1079 H 0.57098 0.56054 0.20513
 H1080 H 0.61341 0.60547 0.20962
 C1081 C 0.11275 0.91470 0.25397
 C1082 C 0.10516 0.93377 0.22493
 C1083 C 0.08442 0.96249 0.22721
 C1084 C 0.07110 0.97232 0.25857
 C1085 C 0.08074 0.95439 0.28786
 C1086 C 0.10146 0.92579 0.28555
 C1087 C 0.13194 0.88371 0.25158
 C1088 C 0.14928 0.85855 0.25028
 H1089 H 0.11412 0.92566 0.20039
 H1090 H 0.07671 0.97548 0.20426
 H1091 H 0.07027 0.96123 0.31218
 H1092 H 0.10753 0.91153 0.30825
 C1093 C 0.61269 0.41239 0.73818
 C1094 C 0.59590 0.42034 0.70799
 C1095 C 0.57449 0.44848 0.70637
 C1096 C 0.56972 0.46900 0.73492
 C1097 C 0.58849 0.46234 0.76438
 C1098 C 0.60993 0.43410 0.76600
 C1099 C 0.63223 0.38168 0.74074
 C1100 C 0.64971 0.35669 0.74269
 H1101 H 0.59816 0.40397 0.68621
 H1102 H 0.55971 0.45289 0.68365
 H1103 H 0.58455 0.47739 0.78687
 H1104 H 0.62313 0.42836 0.78938
 C1105 C 0.88639 0.08584 0.24527
 C1106 C 0.90699 0.08281 0.21670
 C1107 C 0.93585 0.06230 0.21779
 C1108 C 0.94441 0.04450 0.24747
 C1109 C 0.92328 0.04718 0.27588
 C1110 C 0.89441 0.06772 0.27475
 C1111 C 0.85839 0.10923 0.24498
 C1112 C 0.83574 0.12975 0.24490
 H1113 H 0.90113 0.09686 0.19383
 H1114 H 0.95179 0.06062 0.19563
 H1115 H 0.92964 0.03409 0.29916
 H1116 H 0.87880 0.07010 0.29709
 C1117 C 0.38635 0.58439 0.75036
 C1118 C 0.41092 0.58721 0.77573
 C1119 C 0.43990 0.56691 0.77490
 C1120 C 0.44459 0.54351 0.74868
 C1121 C 0.41947 0.54029 0.72367
 C1122 C 0.39049 0.56064 0.72453
 C1123 C 0.35819 0.60750 0.74971
 C1124 C 0.33555 0.62798 0.74919
 H1125 H 0.40803 0.60563 0.79574
 H1126 H 0.45893 0.56978 0.79443
 H1127 H 0.42281 0.52280 0.70293
 H1128 H 0.37176 0.55847 0.70461
 C1129 C 0.92148 0.89425 0.74976
 C1130 C 0.94449 0.90171 0.72397
 C1131 C 0.96862 0.92703 0.72863
 C1132 C 0.96987 0.94503 0.75915
 C1133 C 0.94771 0.93631 0.78545
 C1134 C 0.92365 0.91101 0.78077
 C1135 C 0.89482 0.87035 0.74419
 C1136 C 0.87238 0.85027 0.74023
 H1137 H 0.94303 0.88877 0.69991
 H1138 H 0.98510 0.93376 0.70785
 H1139 H 0.94819 0.95005 0.80909
 H1140 H 0.90606 0.90527 0.80094
 C1141 C 0.41994 0.39774 0.24566
 C1142 C 0.44374 0.40356 0.22015
 C1143 C 0.46797 0.42892 0.22407
 C1144 C 0.46854 0.44857 0.25357
 C1145 C 0.44539 0.44168 0.27955
 C1146 C 0.42125 0.41636 0.27562
 C1147 C 0.39347 0.37346 0.24091
 C1148 C 0.37115 0.35311 0.23770
 H1149 H 0.44294 0.38919 0.19689
 H1150 H 0.48526 0.43422 0.20354
 H1151 H 0.44536 0.45669 0.30241
 H1152 H 0.40303 0.41192 0.29556
   
