data_POSCAR
  _audit_creation_date              2014-09-24
  _audit_creation_method            'ToBaCCo'
  _symmetry_space_group_name_H-M    'P1'
  _symmetry_Int_Tables_number       1
  _symmetry_cell_setting            triclinic
  loop_
  _symmetry_equiv_pos_as_xyz
 x,y,z
_cell_length_a 42.4830
_cell_length_b 42.9005
_cell_length_c 31.0198
_cell_angle_alpha 89.885800
_cell_angle_beta 90.005400
_cell_angle_gamma 94.445100
loop_
  _atom_site_label
  _atom_site_type_symbol
  _atom_site_fract_x
  _atom_site_fract_y
  _atom_site_fract_z
O1 O -0.03575 0.28977 0.03672
 O2 O 0.03155 0.28725 -0.03824
 O3 O -0.02997 0.29164 -0.04648
 O4 O 0.02524 0.28109 0.04448
 O5 O 0.01442 0.23009 0.03952
 O6 O -0.03735 0.24027 -0.05265
 O7 O 0.02176 0.23625 -0.04441
 O8 O -0.04609 0.23882 0.02866
 Cu9 Cu -0.00124 0.29256 -0.00011
 Cu10 Cu -0.01239 0.23120 -0.00702
 C11 C -0.05314 0.26488 0.04374
 C12 C 0.03813 0.26133 -0.05435
 C13 C -0.04306 0.26745 -0.06490
 C14 C 0.02942 0.25345 0.05701
 O15 O 0.53761 0.79498 0.45607
 O16 O 0.47576 0.79828 0.53943
 O17 O 0.53705 0.79316 0.54004
 O18 O 0.47596 0.79877 0.45585
 O19 O 0.46929 0.74718 0.45487
 O20 O 0.52869 0.74171 0.53861
 O21 O 0.46890 0.74670 0.53833
 O22 O 0.52936 0.74352 0.45490
 Cu23 Cu 0.50746 0.80157 0.49793
 Cu24 Cu 0.49833 0.73965 0.49652
 C25 C 0.54389 0.76856 0.44128
 C26 C 0.46181 0.77286 0.55296
 C27 C 0.54304 0.76628 0.55372
 C28 C 0.46217 0.77361 0.44126
 O29 O 1.03315 0.71553 0.03965
 O30 O 0.97070 0.70941 -0.04376
 O31 O 1.03330 0.71633 -0.04366
 O32 O 0.97084 0.70874 0.03968
 O33 O 0.97011 0.76020 0.04025
 O34 O 1.03055 0.76742 -0.04355
 O35 O 0.96979 0.76082 -0.04296
 O36 O 1.03053 0.76665 0.04057
 Cu37 Cu 1.00219 0.70726 -0.00220
 Cu38 Cu 1.00017 0.76887 -0.00146
 C39 C 1.04250 0.74232 0.05440
 C40 C 0.95941 0.73428 -0.05708
 C41 C 1.04276 0.74335 -0.05763
 C42 C 0.95988 0.73345 0.05397
 O43 O 0.45845 0.18504 0.46049
 O44 O 0.52123 0.18954 0.54356
 O45 O 0.45857 0.18539 0.54347
 O46 O 0.52111 0.18989 0.46008
 O47 O 0.52085 0.24133 0.45998
 O48 O 0.45954 0.23693 0.54347
 O49 O 0.52096 0.24097 0.54367
 O50 O 0.45942 0.23658 0.46004
 Cu51 Cu 0.48989 0.18227 0.50192
 Cu52 Cu 0.49027 0.24403 0.50178
 C53 C 0.44783 0.21013 0.44681
 C54 C 0.53208 0.21614 0.55732
 C55 C 0.44796 0.21052 0.55692
 C56 C 0.53193 0.21655 0.44631
 O57 O 0.72618 0.04010 -0.04215
 O58 O 0.72359 -0.02469 0.03688
 O59 O 0.72152 0.03657 0.04158
 O60 O 0.73043 -0.02092 -0.04585
 O61 O 0.78221 -0.01438 -0.03836
 O62 O 0.77345 0.04228 0.04766
 O63 O 0.77518 -0.01739 0.04492
 O64 O 0.77809 0.04542 -0.03602
 Cu65 Cu 0.72018 0.00722 -0.00310
 Cu66 Cu 0.78235 0.01466 0.00515
 C67 C 0.75271 0.05368 -0.05268
 C68 C 0.74900 -0.03219 0.05442
 C69 C 0.74628 0.04910 0.05953
 C70 C 0.75803 -0.02762 -0.05655
 O71 O 0.23215 0.51907 0.46067
 O72 O 0.23056 0.45771 0.54488
 O73 O 0.23154 0.51920 0.54503
 O74 O 0.23219 0.45774 0.46123
 O75 O 0.28432 0.46193 0.46269
 O76 O 0.28366 0.52185 0.54612
 O77 O 0.28270 0.46184 0.54615
 O78 O 0.28427 0.52179 0.46190
 Cu79 Cu 0.22630 0.48819 0.50284
 Cu80 Cu 0.28890 0.49234 0.50437
 C81 C 0.25867 0.53054 0.44661
 C82 C 0.25650 0.44929 0.55966
 C83 C 0.25776 0.53068 0.56010
 C84 C 0.25856 0.44939 0.44784
 O85 O 0.28911 1.02746 0.04462
 O86 O 0.28909 0.96499 -0.03779
 O87 O 0.29060 1.02675 -0.03786
 O88 O 0.28833 0.96540 0.04626
 O89 O 0.23622 0.96312 0.04532
 O90 O 0.23856 1.02198 -0.04019
 O91 O 0.23696 0.96222 -0.03828
 O92 O 0.23707 1.02336 0.04378
 Cu93 Cu 0.29460 0.99628 0.00408
 Cu94 Cu 0.23206 0.99235 0.00268
 C95 C 0.26291 1.03654 0.05760
 C96 C 0.26279 0.95314 -0.05215
 C97 C 0.26475 1.03496 -0.05324
 C98 C 0.26174 0.95380 0.05994
 O99 O 0.77551 0.48191 0.45448
 O100 O 0.78652 0.54291 0.53834
 O101 O 0.77451 0.48159 0.53860
 O102 O 0.78610 0.54351 0.45544
 O103 O 0.73465 0.54797 0.45500
 O104 O 0.72335 0.48742 0.53808
 O105 O 0.73509 0.54752 0.53829
 O106 O 0.72434 0.48765 0.45417
 Cu107 Cu 0.78583 0.51175 0.49669
 Cu108 Cu 0.72426 0.51804 0.49633
 C109 C 0.74796 0.47437 0.44011
 C110 C 0.76260 0.55596 0.55198
 C111 C 0.74679 0.47404 0.55251
 C112 C 0.76220 0.55670 0.44178
 C113 C 0.21997 0.18400 0.19082
 C114 C 0.19350 0.19781 0.17479
 C115 C 0.18494 0.22676 0.18942
 C116 C 0.20334 0.24268 0.22171
 C117 C 0.23084 0.22961 0.23764
 C118 C 0.23929 0.20021 0.22216
 C119 C 0.26641 0.18778 0.23907
 C120 C 0.28600 0.20466 0.26819
 C121 C 0.27812 0.23371 0.28393
 C122 C 0.24979 0.24593 0.26941
 C123 C 0.19472 0.27106 0.23895
 C124 C 0.21308 0.28683 0.27029
 C125 C 0.24062 0.27469 0.28608
 C126 C 0.25961 0.29084 0.31752
 C127 C 0.28797 0.27907 0.33014
 C128 C 0.29784 0.25119 0.31345
 H129 H 0.27304 0.16492 0.22991
 H130 H 0.30719 0.19443 0.27867
 H131 H 0.17352 0.28134 0.22860
 H132 H 0.20558 0.30891 0.28159
 H133 H 0.17938 0.18590 0.14977
 H134 H 0.30273 0.29190 0.35369
 C135 C 0.73639 0.71067 0.31040
 C136 C 0.70979 0.72426 0.32590
 C137 C 0.70317 0.75462 0.31454
 C138 C 0.72373 0.77222 0.28620
 C139 C 0.75101 0.75893 0.27026
 C140 C 0.75753 0.72814 0.28266
 C141 C 0.78468 0.71554 0.26647
 C142 C 0.80556 0.73304 0.23976
 C143 C 0.79935 0.76329 0.22647
 C144 C 0.77169 0.77634 0.24154
 C145 C 0.71753 0.80249 0.27290
 C146 C 0.73789 0.81962 0.24497
 C147 C 0.76484 0.80688 0.22832
 C148 C 0.78554 0.82394 0.19943
 C149 C 0.81284 0.81071 0.18556
 C150 C 0.82026 0.78107 0.19895
 H151 H 0.79021 0.69202 0.27434
 H152 H 0.82655 0.72242 0.22942
 H153 H 0.69677 0.81325 0.28381
 H154 H 0.73232 0.84309 0.23686
 H155 H 0.69404 0.71098 0.34791
 H156 H 0.82865 0.82366 0.16328
 C157 C 0.79218 0.24798 0.18675
 C158 C 0.77864 0.21917 0.17226
 C159 C 0.74897 0.20693 0.18628
 C160 C 0.73196 0.22387 0.21615
 C161 C 0.74552 0.25292 0.23205
 C162 C 0.77566 0.26515 0.21711
 C163 C 0.78798 0.29448 0.23204
 C164 C 0.77159 0.31109 0.26208
 C165 C 0.74225 0.29900 0.27843
 C166 C 0.72878 0.26986 0.26269
 C167 C 0.70194 0.21249 0.23069
 C168 C 0.68529 0.22937 0.26004
 C169 C 0.69841 0.25784 0.27702
 C170 C 0.68177 0.27502 0.30723
 C171 C 0.69570 0.30337 0.32287
 C172 C 0.72553 0.31561 0.30921
 H173 H 0.81034 0.30502 0.22036
 H174 H 0.78205 0.33374 0.27195
 H175 H 0.69092 0.19044 0.21932
 H176 H 0.66193 0.21982 0.26914
 H177 H 0.79148 0.20595 0.14923
 H178 H 0.68315 0.31604 0.34680
 C179 C 0.31334 0.72395 0.30051
 C180 C 0.29928 0.69631 0.31805
 C181 C 0.26894 0.68446 0.30622
 C182 C 0.25183 0.70087 0.27559
 C183 C 0.26586 0.72902 0.25729
 C184 C 0.29664 0.74072 0.27005
 C185 C 0.31008 0.76857 0.25161
 C186 C 0.29350 0.78500 0.22171
 C187 C 0.26325 0.77367 0.20799
 C188 C 0.24924 0.74537 0.22585
 C189 C 0.22140 0.68978 0.26229
 C190 C 0.20488 0.70610 0.23199
 C191 C 0.21853 0.73362 0.21274
 C192 C 0.20221 0.75016 0.18133
 C193 C 0.21650 0.77799 0.16426
 C194 C 0.24638 0.79013 0.17736
 H195 H 0.33361 0.77801 0.26011
 H196 H 0.30477 0.80666 0.20935
 H197 H 0.21002 0.66833 0.27517
 H198 H 0.18120 0.69688 0.22399
 H199 H 0.31223 0.68384 0.34186
 H200 H 0.20411 0.79056 0.13997
 C201 C 0.79432 0.25768 0.81663
 C202 C 0.78280 0.22861 0.83274
 C203 C 0.75393 0.21390 0.81921
 C204 C 0.73560 0.22901 0.78845
 C205 C 0.74721 0.25847 0.77130
 C206 C 0.77663 0.27287 0.78557
 C207 C 0.78777 0.30184 0.76808
 C208 C 0.77056 0.31643 0.73684
 C209 C 0.74168 0.30246 0.72155
 C210 C 0.72955 0.27344 0.73946
 C211 C 0.70639 0.21539 0.77377
 C212 C 0.68851 0.23065 0.74380
 C213 C 0.69975 0.25950 0.72584
 C214 C 0.68195 0.27513 0.69505
 C215 C 0.69467 0.30333 0.67719
 C216 C 0.72425 0.31702 0.68941
 H217 H 0.81002 0.31349 0.77833
 H218 H 0.78008 0.33897 0.72509
 H219 H 0.69697 0.19278 0.78535
 H220 H 0.66584 0.21941 0.73462
 H221 H 0.79663 0.21723 0.85669
 H222 H 0.68134 0.31470 0.65268
 C223 C 0.31485 0.72560 0.69967
 C224 C 0.30023 0.69819 0.68227
 C225 C 0.26981 0.68683 0.69436
 C226 C 0.25313 0.70348 0.72503
 C227 C 0.26773 0.73130 0.74340
 C228 C 0.29863 0.74256 0.73042
 C229 C 0.31260 0.77010 0.74900
 C230 C 0.29646 0.78658 0.77936
 C231 C 0.26610 0.77567 0.79323
 C232 C 0.25154 0.74773 0.77514
 C233 C 0.22254 0.69290 0.73824
 C234 C 0.20644 0.70932 0.76873
 C235 C 0.22070 0.73639 0.78831
 C236 C 0.20481 0.75287 0.82009
 C237 C 0.21958 0.78032 0.83740
 C238 C 0.24959 0.79217 0.82421
 H239 H 0.33620 0.77919 0.74027
 H240 H 0.30814 0.80794 0.79199
 H241 H 0.21069 0.67180 0.72509
 H242 H 0.18261 0.70051 0.77661
 H243 H 0.31280 0.68546 0.65838
 H244 H 0.20745 0.79285 0.86193
 C245 C 0.22026 0.17628 0.80418
 C246 C 0.19199 0.18727 0.81858
 C247 C 0.18099 0.21515 0.80354
 C248 C 0.19951 0.23356 0.77362
 C249 C 0.22894 0.22339 0.75959
 C250 C 0.23930 0.19459 0.77475
 C251 C 0.26807 0.18477 0.75955
 C252 C 0.28721 0.20351 0.73201
 C253 C 0.27751 0.23198 0.71641
 C254 C 0.24784 0.24184 0.72982
 C255 C 0.18929 0.26147 0.75680
 C256 C 0.20795 0.27968 0.72801
 C257 C 0.23720 0.27028 0.71393
 C258 C 0.25640 0.28874 0.68488
 C259 C 0.28577 0.27895 0.67282
 C260 C 0.29675 0.25113 0.68816
 H261 H 0.27633 0.16254 0.76886
 H262 H 0.30967 0.19523 0.72297
 H263 H 0.16671 0.26958 0.76563
 H264 H 0.19921 0.30136 0.71711
 H265 H 0.17802 0.17360 0.84222
 H266 H 0.30034 0.29321 0.65047
 C267 C 0.73558 0.70643 0.68840
 C268 C 0.70873 0.71910 0.67190
 C269 C 0.70024 0.74860 0.68422
 C270 C 0.71861 0.76590 0.71513
 C271 C 0.74640 0.75382 0.73151
 C272 C 0.75532 0.72424 0.71748
 C273 C 0.78336 0.71320 0.73338
 C274 C 0.80265 0.73113 0.76170
 C275 C 0.79372 0.75994 0.77721
 C276 C 0.76510 0.77122 0.76238
 C277 C 0.70961 0.79465 0.73059
 C278 C 0.72762 0.81141 0.76134
 C279 C 0.75521 0.79998 0.77811
 C280 C 0.77349 0.81679 0.80971
 C281 C 0.80216 0.80589 0.82279
 C282 C 0.81274 0.77810 0.80669
 H283 H 0.79089 0.69074 0.72376
 H284 H 0.82449 0.72190 0.77162
 H285 H 0.68831 0.80438 0.71948
 H286 H 0.71980 0.83366 0.77142
 H287 H 0.69422 0.70575 0.64857
 H288 H 0.81634 0.81903 0.84665
 C289 C 0.28885 0.08319 0.09166
 C290 C 0.26214 0.06201 0.08589
 C291 C 0.23375 0.06811 0.10657
 C292 C 0.23161 0.09539 0.13079
 C293 C 0.25776 0.11775 0.13327
 C294 C 0.28648 0.11111 0.11436
 C295 C 0.25440 0.14658 0.15365
 C296 C 0.22571 0.15251 0.17364
 C297 C 0.20059 0.12915 0.17313
 C298 C 0.20336 0.10105 0.15152
 H299 H 0.21308 0.05176 0.10354
 H300 H 0.30697 0.12773 0.11652
 H301 H 0.27371 0.16463 0.15294
 H302 H 0.18320 0.08396 0.15041
 H303 H 0.31113 0.07918 0.07646
 H304 H 0.17830 0.13317 0.18831
 C305 C 0.79240 0.60467 0.57835
 C306 C 0.76654 0.58238 0.58230
 C307 C 0.74244 0.58750 0.61177
 C308 C 0.74313 0.61543 0.63523
 C309 C 0.76813 0.63876 0.62893
 C310 C 0.79311 0.63277 0.60132
 C311 C 0.76680 0.66815 0.64857
 C312 C 0.74097 0.67417 0.67474
 C313 C 0.71729 0.65017 0.68273
 C314 C 0.71833 0.62104 0.66317
 H315 H 0.72253 0.57026 0.61513
 H316 H 0.81259 0.65023 0.59632
 H317 H 0.78487 0.68676 0.64180
 H318 H 0.69912 0.60334 0.66860
 H319 H 0.81114 0.60116 0.55561
 H320 H 0.69716 0.65453 0.70267
 C321 C 0.72195 0.92095 0.08685
 C322 C 0.74852 0.94263 0.08357
 C323 C 0.77535 0.93781 0.10872
 C324 C 0.77615 0.91133 0.13513
 C325 C 0.75027 0.88857 0.13560
 C326 C 0.72303 0.89392 0.11201
 C327 C 0.75256 0.86048 0.15846
 C328 C 0.78006 0.85542 0.18194
 C329 C 0.80470 0.87924 0.18349
 C330 C 0.80290 0.90681 0.16005
 H331 H 0.79583 0.95454 0.10760
 H332 H 0.70277 0.87696 0.11243
 H333 H 0.73363 0.84209 0.15649
 H334 H 0.82278 0.92422 0.16053
 H335 H 0.70080 0.92400 0.06828
 H336 H 0.82606 0.87585 0.20142
 C337 C 0.28200 0.42400 0.62132
 C338 C 0.25675 0.42416 0.59211
 C339 C 0.23364 0.39887 0.59162
 C340 C 0.23692 0.37271 0.61816
 C341 C 0.26293 0.37253 0.64662
 C342 C 0.28486 0.39859 0.64873
 C343 C 0.26760 0.34568 0.67078
 C344 C 0.24728 0.31853 0.66596
 C345 C 0.22110 0.31900 0.63838
 C346 C 0.21569 0.34605 0.61510
 H347 H 0.21430 0.39872 0.56881
 H348 H 0.30489 0.39881 0.67038
 H349 H 0.28804 0.34525 0.69167
 H350 H 0.19573 0.34566 0.59332
 H351 H 0.29993 0.44337 0.62233
 H352 H 0.20555 0.29806 0.63370
 C353 C 0.88907 0.26521 0.04009
 C354 C 0.91639 0.26648 0.06553
 C355 C 0.91391 0.26772 0.11064
 C356 C 0.88391 0.26641 0.13025
 C357 C 0.85648 0.26454 0.10417
 C358 C 0.85934 0.26452 0.05919
 C359 C 0.82657 0.26118 0.12337
 C360 C 0.82344 0.25871 0.16831
 C361 C 0.85063 0.26142 0.19420
 C362 C 0.88066 0.26559 0.17532
 H363 H 0.93509 0.26853 0.13022
 H364 H 0.83856 0.26306 0.03880
 H365 H 0.80562 0.25871 0.10328
 H366 H 0.90134 0.26691 0.19588
 H367 H 0.89080 0.26432 0.00526
 H368 H 0.84865 0.25897 0.22887
 C369 C 0.41478 0.79627 0.58406
 C370 C 0.43641 0.77316 0.58515
 C371 C 0.43179 0.74820 0.61432
 C372 C 0.40477 0.74512 0.64022
 C373 C 0.38190 0.76729 0.63692
 C374 C 0.38758 0.79329 0.60968
 C375 C 0.35313 0.76209 0.65905
 C376 C 0.34718 0.73506 0.68432
 C377 C 0.37081 0.71424 0.68935
 C378 C 0.39944 0.71925 0.66757
 H379 H 0.44865 0.73048 0.61556
 H380 H 0.37046 0.81064 0.60697
 H381 H 0.33472 0.77797 0.65470
 H382 H 0.41683 0.70219 0.67066
 H383 H 0.41802 0.81568 0.56170
 H384 H 0.36643 0.69325 0.70860
 C385 C 0.07284 0.77417 0.10698
 C386 C 0.06673 0.74554 0.08520
 C387 C 0.08656 0.72122 0.09294
 C388 C 0.11350 0.72646 0.11904
 C389 C 0.11939 0.75552 0.14009
 C390 C 0.09848 0.77884 0.13479
 C391 C 0.14711 0.76161 0.16392
 C392 C 0.17022 0.73994 0.16489
 C393 C 0.16419 0.71096 0.14427
 C394 C 0.13570 0.70397 0.12238
 H395 H 0.08244 0.69909 0.07627
 H396 H 0.10274 0.80126 0.15067
 H397 H 0.15179 0.78416 0.17937
 H398 H 0.13180 0.68167 0.10611
 H399 H 0.05786 0.79323 0.10237
 H400 H 0.18203 0.69424 0.14370
 C401 C 0.58216 0.19708 0.58633
 C402 C 0.55897 0.21871 0.58774
 C403 C 0.56335 0.24469 0.61518
 C404 C 0.59124 0.24995 0.63922
 C405 C 0.61534 0.22911 0.63560
 C406 C 0.61020 0.20232 0.60988
 C407 C 0.64457 0.23624 0.65613
 C408 C 0.64973 0.26378 0.68051
 C409 C 0.62499 0.28335 0.68567
 C410 C 0.59601 0.27653 0.66526
 H411 H 0.54548 0.26138 0.61671
 H412 H 0.62825 0.18595 0.60690
 H413 H 0.66374 0.22131 0.65146
 H414 H 0.57774 0.29263 0.66862
 H415 H 0.57931 0.17694 0.56529
 H416 H 0.62863 0.30474 0.70412
 C417 C 0.78117 0.08458 0.88934
 C418 C 0.75444 0.07960 0.91580
 C419 C 0.73058 0.10057 0.91368
 C420 C 0.73429 0.12718 0.88700
 C421 C 0.76154 0.13205 0.86094
 C422 C 0.78450 0.11032 0.86173
 C423 C 0.76623 0.15935 0.83616
 C424 C 0.74478 0.18264 0.83822
 C425 C 0.71755 0.17754 0.86375
 C426 C 0.71207 0.14978 0.88739
 H427 H 0.71005 0.09705 0.93438
 H428 H 0.80555 0.11378 0.84202
 H429 H 0.78752 0.16336 0.81699
 H430 H 0.69116 0.14661 0.90740
 H431 H 0.79971 0.06861 0.89032
 H432 H 0.70115 0.19554 0.86662
 C433 C 0.28534 0.55502 0.38246
 C434 C 0.26035 0.55429 0.41215
 C435 C 0.23869 0.57743 0.41024
 C436 C 0.24328 0.60228 0.38066
 C437 C 0.26901 0.60305 0.35163
 C438 C 0.28939 0.57894 0.35207
 C439 C 0.27517 0.62885 0.32441
 C440 C 0.25692 0.65467 0.32695
 C441 C 0.23087 0.65352 0.35494
 C442 C 0.22378 0.62727 0.38113
 H443 H 0.21952 0.57710 0.43334
 H444 H 0.30921 0.57923 0.33004
 H445 H 0.29554 0.62986 0.30321
 H446 H 0.20405 0.62721 0.40327
 H447 H 0.30208 0.53722 0.38321
 H448 H 0.21693 0.67350 0.35793
 C449 C 0.23699 0.92659 0.88472
 C450 C 0.26146 0.92814 0.91525
 C451 C 0.28207 0.90405 0.91708
 C452 C 0.27679 0.87756 0.89057
 C453 C 0.25142 0.87594 0.86090
 C454 C 0.23224 0.90092 0.85740
 C455 C 0.24442 0.84867 0.83696
 C456 C 0.26175 0.82249 0.84303
 C457 C 0.28746 0.82438 0.87159
 C458 C 0.29519 0.85189 0.89484
 H459 H 0.30075 0.90497 0.94096
 H460 H 0.21274 0.90003 0.83479
 H461 H 0.22432 0.84707 0.81529
 H462 H 0.31465 0.85260 0.91749
 H463 H 0.22099 0.94502 0.88272
 H464 H 0.30074 0.80419 0.87709
 C465 C 0.71571 0.44805 0.38156
 C466 C 0.74280 0.44930 0.40767
 C467 C 0.76341 0.42525 0.40481
 C468 C 0.75603 0.39935 0.37793
 C469 C 0.72829 0.39809 0.35258
 C470 C 0.70869 0.42285 0.35393
 C471 C 0.71979 0.37146 0.32785
 C472 C 0.73808 0.34557 0.32896
 C473 C 0.76590 0.34715 0.35360
 C474 C 0.77504 0.37400 0.37745
 H475 H 0.78422 0.42587 0.42512
 H476 H 0.68736 0.42224 0.33468
 H477 H 0.69810 0.37019 0.30925
 H478 H 0.79629 0.37445 0.39684
 H479 H 0.69961 0.46640 0.38303
 H480 H 0.77994 0.32718 0.35552
 C481 C 0.08735 0.28501 0.91439
 C482 C 0.06387 0.26002 0.91740
 C483 C 0.06717 0.23304 0.89252
 C484 C 0.09377 0.23059 0.86640
 C485 C 0.11831 0.25480 0.86620
 C486 C 0.11459 0.28217 0.88971
 C487 C 0.14645 0.25069 0.84367
 C488 C 0.14974 0.22308 0.82022
 C489 C 0.12416 0.20028 0.81823
 C490 C 0.09658 0.20383 0.84139
 H491 H 0.04903 0.21381 0.89339
 H492 H 0.13292 0.30119 0.88951
 H493 H 0.16618 0.26821 0.84591
 H494 H 0.07778 0.18526 0.84065
 H495 H 0.08549 0.30623 0.93279
 H496 H 0.12620 0.17887 0.80031
 C497 C 0.56618 0.74175 0.37867
 C498 C 0.56870 0.76636 0.40854
 C499 C 0.59615 0.78688 0.40925
 C500 C 0.62173 0.78149 0.38226
 C501 C 0.61917 0.75611 0.35310
 C502 C 0.59104 0.73690 0.35078
 C503 C 0.64534 0.74919 0.32851
 C504 C 0.67447 0.76654 0.33367
 C505 C 0.67675 0.79215 0.36191
 C506 C 0.65043 0.79988 0.38558
 H507 H 0.59832 0.80571 0.43258
 H508 H 0.58872 0.71737 0.32860
 H509 H 0.64364 0.72917 0.30709
 H510 H 0.65291 0.81932 0.40789
 H511 H 0.54511 0.72584 0.37750
 H512 H 0.69922 0.80538 0.36686
 C513 C 0.90797 0.70967 0.91598
 C514 C 0.93293 0.73294 0.91226
 C515 C 0.93042 0.75771 0.88320
 C516 C 0.90245 0.76051 0.86019
 C517 C 0.87651 0.73822 0.86628
 C518 C 0.87984 0.71235 0.89324
 C519 C 0.84735 0.74308 0.84702
 C520 C 0.84416 0.76971 0.82139
 C521 C 0.87054 0.79077 0.81386
 C522 C 0.89947 0.78622 0.83305
 H523 H 0.94976 0.77563 0.88008
 H524 H 0.86031 0.69490 0.89804
 H525 H 0.82689 0.72703 0.85339
 H526 H 0.91920 0.80340 0.82789
 H527 H 0.90948 0.69050 0.93847
 H528 H 0.86835 0.81144 0.79430
 C529 C 0.39584 0.18532 0.42180
 C530 C 0.42049 0.20890 0.41725
 C531 C 0.41708 0.23339 0.38795
 C532 C 0.38875 0.23530 0.36515
 C533 C 0.36323 0.21263 0.37204
 C534 C 0.36735 0.18727 0.39958
 C535 C 0.33373 0.21660 0.35293
 C536 C 0.32973 0.24275 0.32665
 C537 C 0.35580 0.26405 0.31813
 C538 C 0.38503 0.26041 0.33719
 H539 H 0.43608 0.25157 0.38410
 H540 H 0.34820 0.16952 0.40507
 H541 H 0.31358 0.20036 0.36017
 H542 H 0.40438 0.27786 0.33130
 H543 H 0.39794 0.16633 0.44442
 H544 H 0.35308 0.28442 0.29815
 C545 C 0.79058 0.94961 0.88653
 C546 C 0.76251 0.94827 0.91065
 C547 C 0.74046 0.92233 0.90622
 C548 C 0.74724 0.89714 0.87979
 C549 C 0.77589 0.89849 0.85634
 C550 C 0.79705 0.92511 0.85922
 C551 C 0.78352 0.87272 0.83181
 C552 C 0.76327 0.84528 0.83108
 C553 C 0.73477 0.84416 0.85422
 C554 C 0.72661 0.87002 0.87793
 H555 H 0.71895 0.92097 0.92517
 H556 H 0.81908 0.92653 0.84147
 H557 H 0.80569 0.87356 0.81436
 H558 H 0.70468 0.86844 0.89592
 H559 H 0.80783 0.96945 0.88941
 H560 H 0.71918 0.82295 0.85470
 C561 C 0.28643 0.42413 0.38842
 C562 C 0.25989 0.42446 0.41539
 C563 C 0.23637 0.39958 0.41357
 C564 C 0.24032 0.37372 0.38688
 C565 C 0.26756 0.37338 0.36069
 C566 C 0.29008 0.39898 0.36097
 C567 C 0.27261 0.34687 0.33614
 C568 C 0.25125 0.32028 0.33809
 C569 C 0.22397 0.32088 0.36356
 C570 C 0.21834 0.34755 0.38739
 H571 H 0.21599 0.39955 0.43461
 H572 H 0.31105 0.39909 0.34106
 H573 H 0.29384 0.34634 0.31681
 H574 H 0.19741 0.34728 0.40738
 H575 H 0.30472 0.44318 0.38915
 H576 H 0.20753 0.30035 0.36594
 C577 C 0.29052 0.08160 0.91248
 C578 C 0.26460 0.05924 0.91649
 C579 C 0.23732 0.06294 0.89190
 C580 C 0.23516 0.08928 0.86576
 C581 C 0.26001 0.11316 0.86537
 C582 C 0.28794 0.10872 0.88792
 C583 C 0.25590 0.14140 0.84378
 C584 C 0.22789 0.14522 0.82081
 C585 C 0.20457 0.12016 0.81861
 C586 C 0.20796 0.09262 0.84132
 H587 H 0.21746 0.04548 0.89345
 H588 H 0.30750 0.12649 0.88736
 H589 H 0.27381 0.16073 0.84630
 H590 H 0.18894 0.07427 0.84069
 H591 H 0.31199 0.07929 0.93067
 H592 H 0.18289 0.12258 0.80093
 C593 C 0.79245 0.60542 0.41588
 C594 C 0.76613 0.58367 0.41219
 C595 C 0.74149 0.58997 0.38409
 C596 C 0.74214 0.61848 0.36187
 C597 C 0.76772 0.64118 0.36793
 C598 C 0.79317 0.63407 0.39407
 C599 C 0.76664 0.67100 0.34936
 C600 C 0.74055 0.67809 0.32427
 C601 C 0.71610 0.65479 0.31675
 C602 C 0.71685 0.62525 0.33538
 H603 H 0.72119 0.57317 0.38092
 H604 H 0.81309 0.65106 0.39884
 H605 H 0.78532 0.68905 0.35585
 H606 H 0.69717 0.60805 0.33020
 H607 H 0.81159 0.60106 0.43759
 H608 H 0.69578 0.65992 0.29763
 C609 C 0.07410 0.77615 0.89165
 C610 C 0.06752 0.74711 0.91240
 C611 C 0.08760 0.72299 0.90493
 C612 C 0.11517 0.72875 0.88018
 C613 C 0.12154 0.75819 0.86018
 C614 C 0.10045 0.78138 0.86515
 C615 C 0.14977 0.76469 0.83755
 C616 C 0.17274 0.74288 0.83655
 C617 C 0.16631 0.71360 0.85637
 C618 C 0.13743 0.70631 0.87717
 H619 H 0.08315 0.70056 0.92085
 H620 H 0.10505 0.80409 0.85006
 H621 H 0.15476 0.78747 0.82275
 H622 H 0.13317 0.68374 0.89270
 H623 H 0.05899 0.79510 0.89613
 H624 H 0.18404 0.69677 0.85693
 C625 C 0.58161 0.19731 0.41647
 C626 C 0.55876 0.21930 0.41587
 C627 C 0.56350 0.24585 0.38939
 C628 C 0.59143 0.25127 0.36551
 C629 C 0.61515 0.22997 0.36825
 C630 C 0.60967 0.20268 0.39302
 C631 C 0.64432 0.23699 0.34759
 C632 C 0.64975 0.26479 0.32370
 C633 C 0.62545 0.28502 0.31969
 C634 C 0.59656 0.27836 0.34040
 H635 H 0.54589 0.26283 0.38850
 H636 H 0.62746 0.18596 0.39529
 H637 H 0.66316 0.22155 0.35138
 H638 H 0.57857 0.29484 0.33777
 H639 H 0.57849 0.17674 0.43681
 H640 H 0.62929 0.30660 0.30157
 C641 C 0.93254 0.24809 0.86676
 C642 C 0.93355 0.26993 0.90047
 C643 C 0.90882 0.28963 0.90505
 C644 C 0.88190 0.28541 0.87859
 C645 C 0.88047 0.26206 0.84630
 C646 C 0.90641 0.24444 0.83954
 C647 C 0.85235 0.25507 0.82349
 C648 C 0.82536 0.27058 0.83306
 C649 C 0.82724 0.29480 0.86352
 C650 C 0.85543 0.30236 0.88591
 H651 H 0.90926 0.30614 0.93151
 H652 H 0.90574 0.22657 0.81484
 H653 H 0.85073 0.23613 0.80030
 H654 H 0.85601 0.32031 0.91049
 H655 H 0.95140 0.23271 0.86284
 H656 H 0.80645 0.30671 0.87147
 C657 C 0.41444 0.79674 0.41173
 C658 C 0.43671 0.77430 0.40927
 C659 C 0.43214 0.74957 0.37988
 C660 C 0.40441 0.74572 0.35559
 C661 C 0.38091 0.76709 0.36042
 C662 C 0.38662 0.79312 0.38747
 C663 C 0.35157 0.76099 0.34008
 C664 C 0.34569 0.73388 0.31510
 C665 C 0.36979 0.71380 0.30867
 C666 C 0.39900 0.71972 0.32863
 H667 H 0.44946 0.73235 0.37765
 H668 H 0.36900 0.80986 0.39130
 H669 H 0.33281 0.77629 0.34544
 H670 H 0.41686 0.70327 0.32444
 H671 H 0.41762 0.81592 0.43437
 H672 H 0.36547 0.69280 0.28955
 C673 C 0.23485 0.92620 0.12170
 C674 C 0.25980 0.92836 0.09192
 C675 C 0.28015 0.90412 0.08938
 C676 C 0.27419 0.87691 0.11431
 C677 C 0.24838 0.87466 0.14328
 C678 C 0.22943 0.89976 0.14761
 C679 C 0.24086 0.84676 0.16574
 C680 C 0.25818 0.82070 0.15890
 C681 C 0.28416 0.82314 0.13080
 C682 C 0.29237 0.85121 0.10904
 H683 H 0.29915 0.90551 0.06594
 H684 H 0.20960 0.89838 0.16968
 H685 H 0.22057 0.84472 0.18707
 H686 H 0.31211 0.85241 0.08683
 H687 H 0.21897 0.94471 0.12406
 H688 H 0.29743 0.80303 0.12477
 C689 C 0.71378 0.44793 0.61056
 C690 C 0.74116 0.44898 0.58500
 C691 C 0.76160 0.42484 0.58863
 C692 C 0.75391 0.39917 0.61594
 C693 C 0.72595 0.39818 0.64085
 C694 C 0.70639 0.42293 0.63852
 C695 C 0.71736 0.37193 0.66647
 C696 C 0.73595 0.34628 0.66696
 C697 C 0.76383 0.34749 0.64245
 C698 C 0.77295 0.37388 0.61753
 H699 H 0.78262 0.42530 0.56875
 H700 H 0.68491 0.42254 0.65741
 H701 H 0.69565 0.37094 0.68498
 H702 H 0.79434 0.37410 0.59849
 H703 H 0.69778 0.46635 0.60850
 H704 H 0.77812 0.32765 0.64182
 C705 C 0.76710 0.07390 0.12685
 C706 C 0.74430 0.07240 0.09400
 C707 C 0.72262 0.09548 0.09154
 C708 C 0.72557 0.12134 0.11948
 C709 C 0.74961 0.12322 0.15118
 C710 C 0.76948 0.09888 0.15557
 C711 C 0.75494 0.15037 0.17589
 C712 C 0.73735 0.17617 0.16848
 C713 C 0.71259 0.17381 0.13840
 C714 C 0.70647 0.14639 0.11440
 H715 H 0.70520 0.09457 0.06593
 H716 H 0.78793 0.09995 0.17978
 H717 H 0.77431 0.15239 0.19875
 H718 H 0.68797 0.14545 0.09028
 H719 H 0.78384 0.05618 0.12937
 H720 H 0.69913 0.19374 0.13197
 C721 C 0.28299 0.55499 0.62514
 C722 C 0.25886 0.55462 0.59416
 C723 C 0.23807 0.57858 0.59395
 C724 C 0.24288 0.60390 0.62262
 C725 C 0.26790 0.60437 0.65278
 C726 C 0.28722 0.57943 0.65457
 C727 C 0.27451 0.63063 0.67888
 C728 C 0.25732 0.65705 0.67430
 C729 C 0.23188 0.65621 0.64532
 C730 C 0.22440 0.62962 0.62006
 H731 H 0.21961 0.57852 0.56982
 H732 H 0.30645 0.57946 0.67753
 H733 H 0.29442 0.63141 0.70086
 H734 H 0.20521 0.62979 0.59707
 H735 H 0.29905 0.53658 0.62598
 H736 H 0.21874 0.67664 0.64090
 C737 C 0.90745 0.71091 0.08010
 C738 C 0.93418 0.73183 0.08570
 C739 C 0.93428 0.75469 0.11791
 C740 C 0.90713 0.75827 0.14231
 C741 C 0.87939 0.73870 0.13440
 C742 C 0.88011 0.71440 0.10424
 C743 C 0.85112 0.74497 0.15496
 C744 C 0.85054 0.77032 0.18348
 C745 C 0.87864 0.78838 0.19294
 C746 C 0.90675 0.78240 0.17257
 H747 H 0.95502 0.77077 0.12235
 H748 H 0.85917 0.69901 0.09799
 H749 H 0.82934 0.73126 0.14720
 H750 H 0.92788 0.79744 0.17916
 H751 H 0.90702 0.69327 0.05512
 H752 H 0.87846 0.80804 0.21479
 C753 C 0.39631 0.18543 0.58266
 C754 C 0.42059 0.20944 0.58634
 C755 C 0.41664 0.23457 0.61423
 C756 C 0.38811 0.23668 0.63638
 C757 C 0.36299 0.21347 0.63033
 C758 C 0.36764 0.18751 0.60430
 C759 C 0.33335 0.21738 0.64889
 C760 C 0.32882 0.24388 0.67408
 C761 C 0.35444 0.26592 0.68156
 C762 C 0.38380 0.26240 0.66286
 H763 H 0.43536 0.25311 0.61738
 H764 H 0.34877 0.16937 0.59953
 H765 H 0.31353 0.20057 0.64238
 H766 H 0.40286 0.28029 0.66805
 H767 H 0.39883 0.16595 0.56109
 H768 H 0.35132 0.28654 0.70073
 C769 C 0.04971 0.22026 0.11532
 C770 C 0.05301 0.24782 0.09064
 C771 C 0.08069 0.26783 0.09473
 C772 C 0.10560 0.25936 0.12113
 C773 C 0.10226 0.23111 0.14489
 C774 C 0.07394 0.21215 0.14257
 C775 C 0.12776 0.22156 0.16902
 C776 C 0.15688 0.23948 0.16910
 C777 C 0.15990 0.26771 0.14589
 C778 C 0.13437 0.27777 0.12253
 H779 H 0.08364 0.28892 0.07535
 H780 H 0.07097 0.19046 0.16059
 H781 H 0.12543 0.19958 0.18648
 H782 H 0.13747 0.29938 0.10434
 H783 H 0.02858 0.20453 0.11272
 H784 H 0.18234 0.28154 0.14494
 C785 C 0.56446 0.73703 0.61475
 C786 C 0.56732 0.76290 0.58681
 C787 C 0.59473 0.78339 0.58801
 C788 C 0.61998 0.77684 0.61491
 C789 C 0.61715 0.75017 0.64198
 C790 C 0.58903 0.73091 0.64248
 C791 C 0.64300 0.74228 0.66652
 C792 C 0.67195 0.76017 0.66364
 C793 C 0.67453 0.78697 0.63744
 C794 C 0.64860 0.79548 0.61361
 H795 H 0.59714 0.80320 0.56617
 H796 H 0.58648 0.71045 0.66310
 H797 H 0.64110 0.72142 0.68649
 H798 H 0.65128 0.81591 0.59294
 H799 H 0.54339 0.72111 0.61443
 H800 H 0.69691 0.80073 0.63448
   
