data_POSCAR
  _audit_creation_date              2014-09-24
  _audit_creation_method            'ToBaCCo'
  _symmetry_space_group_name_H-M    'P1'
  _symmetry_Int_Tables_number       1
  _symmetry_cell_setting            triclinic
  loop_
  _symmetry_equiv_pos_as_xyz
 x,y,z
_cell_length_a 30.9314
_cell_length_b 30.6651
_cell_length_c 29.0852
_cell_angle_alpha 90.128000
_cell_angle_beta 89.749100
_cell_angle_gamma 90.004300
loop_
  _atom_site_label
  _atom_site_type_symbol
  _atom_site_fract_x
  _atom_site_fract_y
  _atom_site_fract_z
C1 C 0.24966 0.24985 0.24998
 C2 C 0.75068 0.74810 0.24992
 C3 C 0.74986 0.24901 0.75012
 C4 C 0.25101 0.75063 0.74992
 C5 C 0.05841 0.06708 0.01659
 H6 H 0.05918 0.06905 -0.02054
 C7 C 0.08368 0.09544 0.04286
 H8 H 0.10418 0.11921 0.02596
 C9 C 0.03067 0.03387 0.08412
 H10 H 0.00957 0.01029 0.10016
 C11 C 0.05540 0.06161 0.11165
 H12 H 0.05364 0.05890 0.14874
 N13 N 0.03308 0.03661 0.03745
 C14 C 0.01643 -0.06766 -0.06360
 H15 H -0.01845 -0.07032 -0.06353
 C16 C 0.04119 -0.09577 -0.09089
 H17 H 0.02540 -0.12003 -0.11212
 C18 C 0.07976 -0.03320 -0.03560
 H19 H 0.09472 -0.00929 -0.01351
 C20 C 0.10572 -0.06068 -0.06236
 H21 H 0.14058 -0.05749 -0.06116
 Zn22 Zn -0.00023 -0.00088 -0.00040
 N23 N 0.03592 -0.03681 -0.03711
 C24 C -0.03495 0.03091 -0.08447
 N25 N -0.03584 0.03447 -0.03780
 C26 C -0.06222 0.06369 -0.01631
 C27 C -0.09026 0.08974 -0.04185
 C28 C -0.06248 0.05636 -0.11129
 C29 C -0.01443 -0.06789 0.06330
 C30 C -0.03846 -0.09682 0.09024
 C31 C -0.10389 -0.06555 0.05936
 C32 C -0.07868 -0.03721 0.03304
 N33 N -0.03478 -0.03846 0.03591
 H34 H -0.01311 0.00828 -0.10101
 H35 H -0.06185 0.06624 0.02079
 H36 H -0.11155 0.11253 -0.02445
 H37 H -0.06191 0.05307 -0.14838
 H38 H 0.02053 -0.06872 0.06425
 H39 H -0.02207 -0.11991 0.11227
 H40 H -0.13882 -0.06419 0.05709
 H41 H -0.09430 -0.01454 0.01016
 C42 C 0.08623 -0.09213 -0.09033
 C43 C 0.08231 0.09249 0.09082
 C44 C -0.08360 -0.09548 0.08831
 C45 C -0.09061 0.08576 -0.08974
 C46 C 0.06168 0.56710 0.51946
 H47 H 0.06336 0.56820 0.48232
 C48 C 0.08709 0.59534 0.54566
 H49 H 0.10867 0.61809 0.52872
 C50 C 0.03114 0.53651 0.58703
 H51 H 0.00881 0.51410 0.60306
 C52 C 0.05598 0.56420 0.61452
 H53 H 0.05312 0.56259 0.65161
 N54 N 0.03480 0.53807 0.54039
 C55 C 0.01578 0.43430 0.43905
 H56 H -0.01916 0.43326 0.43786
 C57 C 0.04013 0.40583 0.41172
 H58 H 0.02396 0.38285 0.38927
 C59 C 0.07967 0.46540 0.46979
 H60 H 0.09501 0.48827 0.49280
 C61 C 0.10521 0.43750 0.44307
 H62 H 0.14012 0.43931 0.44527
 Zn63 Zn 0.00055 0.50195 0.50215
 N64 N 0.03578 0.46380 0.46680
 C65 C -0.02932 0.53581 0.41678
 N66 N -0.03144 0.53930 0.46341
 C67 C -0.05611 0.57046 0.48414
 C68 C -0.08120 0.59871 0.45780
 C69 C -0.05392 0.56344 0.38915
 C70 C -0.01996 0.43730 0.56676
 C71 C -0.04661 0.41101 0.59394
 C72 C -0.10894 0.44594 0.56036
 C73 C -0.08116 0.47160 0.53382
 N74 N -0.03752 0.46730 0.53792
 H75 H -0.00875 0.51160 0.40091
 H76 H -0.05666 0.57291 0.52125
 H77 H -0.10131 0.62294 0.47458
 H78 H -0.05260 0.56011 0.35208
 H79 H 0.01481 0.43405 0.56878
 H80 H -0.03239 0.38744 0.61708
 H81 H -0.14362 0.44970 0.55707
 H82 H -0.09459 0.49472 0.50989
 C83 C 0.08527 0.40766 0.41355
 C84 C 0.08428 0.59378 0.59362
 C85 C -0.09150 0.41555 0.59083
 C86 C -0.08031 0.59491 0.40990
 C87 C 0.56122 0.06444 0.51589
 H88 H 0.56056 0.06741 0.47884
 C89 C 0.58924 0.09042 0.54165
 H90 H 0.61022 0.11357 0.52448
 C91 C 0.53471 0.03065 0.58368
 H92 H 0.51317 0.00764 0.59999
 C93 C 0.56223 0.05602 0.61072
 H94 H 0.56197 0.05229 0.64775
 N95 N 0.53523 0.03475 0.53707
 C96 C 0.51438 -0.06668 0.43432
 H97 H 0.47943 -0.06780 0.43336
 C98 C 0.53865 -0.09510 0.40687
 H99 H 0.52245 -0.11809 0.38446
 C100 C 0.57838 -0.03580 0.46509
 H101 H 0.59383 -0.01327 0.48836
 C102 C 0.60382 -0.06362 0.43828
 H103 H 0.63873 -0.06199 0.44059
 Zn104 Zn 0.49974 -0.00050 0.49927
 N105 N 0.53450 -0.03739 0.46222
 C106 C 0.46829 0.03500 0.41548
 N107 N 0.46602 0.03715 0.46220
 C108 C 0.44064 0.06725 0.48372
 C109 C 0.41523 0.09588 0.45807
 C110 C 0.44342 0.06303 0.38856
 C111 C 0.48383 -0.06804 0.56146
 C112 C 0.45939 -0.09656 0.58846
 C113 C 0.39449 -0.06165 0.56081
 C114 C 0.42014 -0.03376 0.53432
 N115 N 0.46401 -0.03707 0.53555
 H116 H 0.48943 0.01171 0.39893
 H117 H 0.44000 0.06876 0.52088
 H118 H 0.39474 0.11940 0.47548
 H119 H 0.44511 0.06084 0.35141
 H120 H 0.51873 -0.07045 0.56117
 H121 H 0.47543 -0.12090 0.60925
 H122 H 0.35960 -0.05868 0.55985
 H123 H 0.40492 -0.00973 0.51268
 C124 C 0.58378 -0.09339 0.40883
 C125 C 0.58997 0.08589 0.58946
 C126 C 0.41431 -0.09322 0.58821
 C127 C 0.41650 0.09358 0.41005
 C128 C 0.55549 0.57003 0.01813
 H129 H 0.55607 0.57280 -0.01895
 C130 C 0.58065 0.59796 0.04488
 H131 H 0.60086 0.62228 0.02845
 C132 C 0.52860 0.53484 0.08496
 H133 H 0.50798 0.51052 0.10047
 C134 C 0.55328 0.56214 0.11301
 H135 H 0.55197 0.55845 0.15002
 N136 N 0.53075 0.53874 0.03839
 C137 C 0.51952 0.43750 -0.06626
 H138 H 0.48476 0.43432 -0.06848
 C139 C 0.54624 0.41131 -0.09359
 H140 H 0.53207 0.38789 -0.11705
 C141 C 0.58063 0.47149 -0.03264
 H142 H 0.59400 0.49444 -0.00837
 C143 C 0.60849 0.44593 -0.05932
 H144 H 0.64315 0.44960 -0.05581
 Zn145 Zn 0.49884 0.50172 -0.00095
 N146 N 0.53700 0.46729 -0.03699
 C147 C 0.46874 0.53697 -0.08553
 N148 N 0.46479 0.53814 -0.03889
 C149 C 0.43781 0.56703 -0.01775
 C150 C 0.41264 0.59556 -0.04374
 C151 C 0.44415 0.56494 -0.11280
 C152 C 0.48340 0.43357 0.06110
 C153 C 0.45899 0.40475 0.08783
 C154 C 0.39398 0.43668 0.05674
 C155 C 0.41959 0.46491 0.03061
 N156 N 0.46347 0.46333 0.03375
 H157 H 0.49114 0.51466 -0.10170
 H158 H 0.43590 0.56783 0.01940
 H159 H 0.39102 0.61823 -0.02664
 H160 H 0.44728 0.56366 -0.14989
 H161 H 0.51834 0.43255 0.06240
 H162 H 0.47511 0.38153 0.10993
 H163 H 0.35908 0.43844 0.05440
 H164 H 0.40431 0.48801 0.00791
 C165 C 0.59112 0.41574 -0.09020
 C166 C 0.57978 0.59372 0.09271
 C167 C 0.41386 0.40652 0.08581
 C168 C 0.41580 0.59441 -0.09170
 C169 C 0.16233 -0.17081 -0.17012
 C170 C 0.17094 -0.21382 -0.15746
 C171 C 0.19924 -0.23930 -0.18378
 C172 C 0.22141 -0.22176 -0.22242
 C173 C 0.20899 -0.17924 -0.23659
 C174 C 0.18069 -0.15393 -0.21020
 C175 C 0.13486 -0.14375 -0.14198
 C176 C 0.11246 -0.12046 -0.11841
 H177 H 0.15590 -0.22769 -0.12713
 H178 H 0.20454 -0.27271 -0.17327
 H179 H 0.22099 -0.16514 -0.26822
 H180 H 0.17309 -0.12108 -0.22119
 C181 C 0.16085 0.32991 0.33205
 C182 C 0.16543 0.28539 0.34091
 C183 C 0.19348 0.26009 0.31410
 C184 C 0.21883 0.27904 0.27882
 C185 C 0.21141 0.32349 0.26849
 C186 C 0.18332 0.34869 0.29533
 C187 C 0.13345 0.35656 0.36077
 C188 C 0.11117 0.37953 0.38486
 H189 H 0.14751 0.27024 0.36869
 H190 H 0.19621 0.22561 0.32152
 H191 H 0.22674 0.33913 0.23944
 H192 H 0.17910 0.38292 0.28735
 C193 C 0.66046 -0.17177 0.32968
 C194 C 0.66588 -0.21592 0.33986
 C195 C 0.69464 -0.24125 0.31400
 C196 C 0.71980 -0.22261 0.27841
 C197 C 0.71170 -0.17855 0.26691
 C198 C 0.68291 -0.15334 0.29278
 C199 C 0.63237 -0.14503 0.35736
 C200 C 0.60972 -0.12186 0.38072
 H201 H 0.64800 -0.23076 0.36786
 H202 H 0.69788 -0.27551 0.32225
 H203 H 0.72696 -0.16331 0.23758
 H204 H 0.67810 -0.11939 0.28389
 C205 C 0.66937 0.33881 -0.16947
 C206 C 0.65130 0.31595 -0.20623
 C207 C 0.67671 0.28762 -0.23252
 C208 C 0.72066 0.28027 -0.22156
 C209 C 0.73897 0.30615 -0.18637
 C210 C 0.71343 0.33447 -0.16007
 C211 C 0.64243 0.36648 -0.14144
 C212 C 0.61922 0.38911 -0.11805
 H213 H 0.61746 0.32006 -0.21468
 H214 H 0.66159 0.27205 -0.26166
 H215 H 0.77308 0.30363 -0.17859
 H216 H 0.72802 0.35280 -0.13229
 C217 C -0.17188 0.16056 -0.16672
 C218 C -0.16493 0.16419 -0.21402
 C219 C -0.19080 0.19184 -0.24022
 C220 C -0.22332 0.21775 -0.21945
 C221 C -0.23192 0.21108 -0.17217
 C222 C -0.20595 0.18335 -0.14602
 C223 C -0.14370 0.13385 -0.13942
 C224 C -0.11961 0.11185 -0.11671
 H225 H -0.13920 0.14598 -0.23063
 H226 H -0.18463 0.19411 -0.27682
 H227 H -0.25875 0.22682 -0.15501
 H228 H -0.21241 0.17977 -0.10958
 C229 C -0.15892 0.67178 0.33229
 C230 C -0.18128 0.70642 0.35266
 C231 C -0.21018 0.73125 0.32682
 C232 C -0.21840 0.72097 0.28023
 C233 C -0.19343 0.68750 0.25971
 C234 C -0.16459 0.66274 0.28563
 C235 C -0.13048 0.64523 0.35937
 C236 C -0.10726 0.62252 0.38228
 H237 H -0.17627 0.71437 0.38856
 H238 H -0.22538 0.75880 0.34354
 H239 H -0.19687 0.68009 0.22349
 H240 H -0.14681 0.63647 0.26926
 C241 C 0.33940 0.17265 0.33274
 C242 C 0.33461 0.16449 0.28576
 C243 C 0.30628 0.18974 0.25967
 C244 C 0.28085 0.22282 0.28026
 C245 C 0.28842 0.23244 0.32716
 C246 C 0.31682 0.20712 0.35318
 C247 C 0.36712 0.14538 0.36003
 C248 C 0.38984 0.12202 0.38289
 H249 H 0.35260 0.13841 0.26929
 H250 H 0.30338 0.18282 0.22328
 H251 H 0.27299 0.25973 0.34409
 H252 H 0.32118 0.21451 0.38931
 C253 C 0.34012 0.67420 -0.16962
 C254 C 0.32168 0.71173 -0.15065
 C255 C 0.29330 0.73717 -0.17653
 C256 C 0.28096 0.72454 -0.22165
 C257 C 0.30325 0.68844 -0.24124
 C258 C 0.33158 0.66315 -0.21525
 C259 C 0.36743 0.64669 -0.14218
 C260 C 0.38972 0.62308 -0.11917
 H261 H 0.32922 0.72141 -0.11574
 H262 H 0.28119 0.76676 -0.16082
 H263 H 0.29786 0.67908 -0.27667
 H264 H 0.34663 0.63477 -0.23075
 C265 C -0.15915 -0.17540 0.16660
 C266 C -0.18158 -0.20998 0.14638
 C267 C -0.21021 -0.23506 0.17258
 C268 C -0.21811 -0.22504 0.21937
 C269 C -0.19288 -0.19180 0.23972
 C270 C -0.16432 -0.16681 0.21347
 C271 C -0.13158 -0.14808 0.13910
 C272 C -0.10926 -0.12445 0.11600
 H273 H -0.17697 -0.21757 0.11029
 H274 H -0.22561 -0.26245 0.15592
 H275 H -0.19609 -0.18459 0.27604
 H276 H -0.14651 -0.14057 0.22969
 C277 C -0.16963 0.33858 0.66985
 C278 C -0.15156 0.31579 0.70655
 C279 C -0.17697 0.28752 0.73278
 C280 C -0.22093 0.28017 0.72184
 C281 C -0.23924 0.30599 0.68671
 C282 C -0.21369 0.33424 0.66046
 C283 C -0.14270 0.36624 0.64191
 C284 C -0.11954 0.38887 0.61859
 H285 H -0.11771 0.31991 0.71500
 H286 H -0.16184 0.27201 0.76188
 H287 H -0.27335 0.30346 0.67895
 H288 H -0.22829 0.35252 0.63274
 C289 C 0.33930 -0.17307 0.66749
 C290 C 0.32057 -0.21057 0.64892
 C291 C 0.29245 -0.23597 0.67543
 C292 C 0.28069 -0.22335 0.72083
 C293 C 0.30327 -0.18730 0.73993
 C294 C 0.33133 -0.16205 0.71332
 C295 C 0.36634 -0.14559 0.63947
 C296 C 0.38843 -0.12195 0.61606
 H297 H 0.32767 -0.22023 0.61384
 H298 H 0.28010 -0.26554 0.65998
 H299 H 0.29833 -0.17795 0.77549
 H300 H 0.34662 -0.13370 0.72850
 C301 C 0.33844 0.32702 0.16521
 C302 C 0.31562 0.29254 0.14529
 C303 C 0.28755 0.26722 0.17195
 C304 C 0.28054 0.27684 0.21901
 C305 C 0.30622 0.30991 0.23904
 C306 C 0.33423 0.33517 0.21230
 C307 C 0.36569 0.35441 0.13724
 C308 C 0.38791 0.37789 0.11377
 H309 H 0.31953 0.28518 0.10906
 H310 H 0.27192 0.23993 0.15537
 H311 H 0.30375 0.31682 0.27548
 H312 H 0.35239 0.36126 0.22834
 C313 C 0.15977 0.16989 0.16996
 C314 C 0.16434 0.21440 0.16098
 C315 C 0.19276 0.23966 0.18713
 C316 C 0.21848 0.22068 0.22184
 C317 C 0.21113 0.17624 0.23233
 C318 C 0.18267 0.15108 0.20616
 C319 C 0.13184 0.14332 0.14202
 C320 C 0.10901 0.12046 0.11862
 H321 H 0.14609 0.22958 0.13363
 H322 H 0.19545 0.27413 0.17963
 H323 H 0.22677 0.16058 0.26104
 H324 H 0.17846 0.11687 0.21427
 C325 C 0.16120 0.67228 0.67199
 C326 C 0.17999 0.65535 0.71165
 C327 C 0.20868 0.68059 0.73739
 C328 C 0.22103 0.72308 0.72294
 C329 C 0.19845 0.74067 0.68481
 C330 C 0.16978 0.71526 0.65914
 C331 C 0.13338 0.64528 0.64443
 C332 C 0.11073 0.62204 0.62129
 H333 H 0.17244 0.62252 0.72280
 H334 H 0.22101 0.66645 0.76874
 H335 H 0.20371 0.77407 0.67418
 H336 H 0.15442 0.72917 0.62915
 C337 C 0.67143 0.16048 0.66679
 C338 C 0.66452 0.16421 0.71411
 C339 C 0.69046 0.19186 0.74037
 C340 C 0.72300 0.21769 0.71964
 C341 C 0.73157 0.21090 0.67234
 C342 C 0.70553 0.18316 0.64614
 C343 C 0.64316 0.13382 0.63943
 C344 C 0.61901 0.11188 0.61662
 H345 H 0.63876 0.14608 0.73069
 H346 H 0.68431 0.19422 0.77697
 H347 H 0.75842 0.22657 0.65520
 H348 H 0.71196 0.17951 0.60968
 C349 C 0.65926 0.66930 0.17107
 C350 C 0.66524 0.71340 0.16096
 C351 C 0.69446 0.73825 0.18647
 C352 C 0.71950 0.71918 0.22166
 C353 C 0.71095 0.67518 0.23307
 C354 C 0.68170 0.65042 0.20752
 C355 C 0.63042 0.64321 0.14384
 C356 C 0.60694 0.62088 0.12071
 H357 H 0.64740 0.72859 0.13332
 H358 H 0.69806 0.77250 0.17830
 H359 H 0.72617 0.65964 0.26212
 H360 H 0.67646 0.61652 0.21637
   
