data_POSCAR
  _audit_creation_date              2014-09-24
  _audit_creation_method            'ToBaCCo'
  _symmetry_space_group_name_H-M    'P1'
  _symmetry_Int_Tables_number       1
  _symmetry_cell_setting            triclinic
  loop_
  _symmetry_equiv_pos_as_xyz
 x,y,z
_cell_length_a 44.3950
_cell_length_b 47.1375
_cell_length_c 46.0562
_cell_angle_alpha 87.412200
_cell_angle_beta 93.459500
_cell_angle_gamma 87.821600
loop_
  _atom_site_label
  _atom_site_type_symbol
  _atom_site_fract_x
  _atom_site_fract_y
  _atom_site_fract_z
C1 C 0.27031 0.46757 1.02032
 C2 C 0.24873 0.47193 1.04488
 C3 C 0.23138 0.49670 1.04209
 C4 C 0.23684 0.51433 1.01388
 C5 C 0.24904 0.46944 0.99262
 C6 C 0.23152 0.49381 0.98925
 C7 C 0.28821 0.49465 1.01894
 C8 C 0.27080 0.51892 1.01541
 H9 H 0.24577 0.45552 1.06143
 H10 H 0.22372 0.53471 1.01011
 H11 H 0.24607 0.45196 0.97838
 H12 H 0.31266 0.49455 1.01988
 C13 C 0.72971 0.54360 -0.02791
 C14 C 0.75170 0.53914 -0.00087
 C15 C 0.77157 0.51647 -0.00177
 C16 C 0.76773 0.50004 -0.02976
 C17 C 0.74994 0.54524 -0.05353
 C18 C 0.77015 0.52285 -0.05449
 C19 C 0.71479 0.51487 -0.03012
 C20 C 0.73447 0.49212 -0.03089
 H21 H 0.75051 0.55196 0.01800
 H22 H 0.78392 0.48160 -0.03046
 H23 H 0.74892 0.56329 -0.06901
 H24 H 0.69104 0.51190 -0.02792
 C25 C 0.03274 0.22219 0.50134
 C26 C 0.02753 0.23928 0.47423
 C27 C 0.00002 0.25673 0.47202
 C28 C -0.01708 0.25335 0.49822
 C29 C 0.03130 0.24408 0.52507
 C30 C 0.00514 0.26030 0.52369
 C31 C 0.00428 0.20525 0.50419
 C32 C -0.02177 0.22139 0.50251
 H33 H 0.04369 0.23890 0.45766
 H34 H -0.03843 0.26600 0.49836
 H35 H 0.04958 0.24724 0.54097
 H36 H 0.00475 0.18226 0.50676
 C37 C 0.96413 0.76897 0.48778
 C38 C 0.96688 0.74916 0.46227
 C39 C 0.99260 0.73215 0.46393
 C40 C 1.01336 0.73666 0.49121
 C41 C 0.96733 0.74845 0.51481
 C42 C 0.99314 0.73164 0.51682
 C43 C 0.99324 0.78528 0.48879
 C44 C 1.01887 0.76857 0.49041
 H45 H 0.94937 0.74791 0.44511
 H46 H 1.03443 0.72321 0.49297
 H47 H 0.95033 0.74704 0.53063
 H48 H 0.99346 0.80828 0.48724
 C49 C 0.50124 0.02522 0.22648
 C50 C 0.47597 0.01772 0.24677
 C51 C 0.48158 -0.00717 0.26277
 C52 C 0.51163 -0.02245 0.25686
 C53 C 0.52975 0.02476 0.24713
 C54 C 0.53529 -0.00013 0.26303
 C55 C 0.50488 0.00057 0.20909
 C56 C 0.51046 -0.02592 0.22541
 H57 H 0.45730 0.03190 0.25116
 H58 H 0.51634 -0.04214 0.27065
 H59 H 0.54357 0.04303 0.24974
 H60 H 0.49978 0.00203 0.18577
 C61 C 0.48336 -0.01198 0.78511
 C62 C 0.45311 -0.00719 0.76716
 C63 C 0.45157 0.01662 0.74926
 C64 C 0.48029 0.03375 0.75080
 C65 C 0.50683 -0.01178 0.76187
 C66 C 0.50574 0.01229 0.74409
 C67 C 0.48791 0.01550 0.80090
 C68 C 0.48623 0.03935 0.78313
 H69 H 0.43645 -0.02325 0.76498
 H70 H 0.47854 0.05357 0.73678
 H71 H 0.52184 -0.02991 0.75895
 H72 H 0.49181 0.01599 0.82432
 C73 C 0.29885 -0.00515 0.44605
 H74 H 0.30231 0.01106 0.46167
 C75 C 0.31683 -0.00644 0.42234
 H76 H 0.33412 0.00890 0.41964
 C77 C 0.27203 -0.04488 0.43051
 H78 H 0.25491 -0.06010 0.43399
 C79 C 0.28907 -0.04650 0.40604
 H80 H 0.28483 -0.06283 0.39066
 N81 N 0.27688 -0.02410 0.44966
 C82 C 0.20832 0.01769 0.49789
 H83 H 0.20896 0.00370 0.51722
 C84 C 0.18759 0.04075 0.49464
 H85 H 0.17215 0.04431 0.51156
 C86 C 0.22710 0.02934 0.45193
 H87 H 0.24239 0.02463 0.43524
 C88 C 0.20660 0.05261 0.44772
 H89 H 0.20658 0.06592 0.42794
 Zn90 Zn 0.25432 -0.01961 0.48280
 N91 N 0.22772 0.01260 0.47683
 C92 C 0.28123 0.00911 0.53024
 N93 N 0.28227 -0.01474 0.51468
 C94 C 0.30465 -0.03510 0.52019
 C95 C 0.32722 -0.03191 0.54209
 C96 C 0.30323 0.01306 0.55250
 C97 C 0.20842 -0.05707 0.46984
 C98 C 0.18825 -0.07834 0.47545
 C99 C 0.21292 -0.08651 0.52348
 C100 C 0.23306 -0.06548 0.51673
 N101 N 0.23037 -0.05116 0.49031
 H102 H 0.26371 0.02539 0.52509
 H103 H 0.30512 -0.05369 0.50725
 H104 H 0.34486 -0.04835 0.54620
 H105 H 0.30234 0.03234 0.56440
 H106 H 0.20607 -0.04468 0.44942
 H107 H 0.17050 -0.08244 0.45917
 H108 H 0.21479 -0.09728 0.54482
 H109 H 0.25009 -0.05992 0.53301
 C110 C 0.18659 0.05860 0.46933
 C111 C 0.31178 -0.02713 0.40191
 C112 C 0.19012 -0.09299 0.50271
 C113 C 0.32674 -0.00750 0.55847
 C114 C 0.68766 0.00944 0.55505
 H115 H 0.67800 0.01275 0.53302
 C116 C 0.66853 0.00748 0.57796
 H117 H 0.64436 0.00872 0.57302
 C118 C 0.73067 0.00281 0.58796
 H119 H 0.75496 0.00072 0.59168
 C120 C 0.71239 0.00116 0.61157
 H121 H 0.72298 -0.00160 0.63335
 N122 N 0.71814 0.00693 0.56032
 C123 C 0.78674 0.04640 0.50879
 H124 H 0.78394 0.03535 0.48885
 C125 C 0.80784 0.06754 0.51088
 H126 H 0.82168 0.07207 0.49279
 C127 C 0.77206 0.05438 0.55642
 H128 H 0.75788 0.04967 0.57405
 C129 C 0.79335 0.07526 0.55966
 H130 H 0.79560 0.08609 0.57988
 Zn131 Zn 0.74344 0.00867 0.52833
 N132 N 0.76972 0.03975 0.53159
 C133 C 0.71575 0.03908 0.47867
 N134 N 0.71884 0.01334 0.49331
 C135 C 0.70339 -0.00925 0.48405
 C136 C 0.68347 -0.00632 0.45934
 C137 C 0.69637 0.04287 0.45369
 C138 C 0.78696 -0.02879 0.50649
 C139 C 0.80624 -0.05290 0.50654
 C140 C 0.78318 -0.07160 0.54910
 C141 C 0.76433 -0.04712 0.54823
 N142 N 0.76708 -0.02590 0.52762
 H143 H 0.72783 0.05690 0.48666
 H144 H 0.70604 -0.02941 0.49632
 H145 H 0.67064 -0.02434 0.45294
 H146 H 0.69446 0.06351 0.44229
 H147 H 0.78819 -0.01226 0.48970
 H148 H 0.82264 -0.05421 0.49014
 H149 H 0.78083 -0.08807 0.56588
 H150 H 0.74768 -0.04517 0.56421
 C151 C 0.81177 0.08175 0.53682
 C152 C 0.68080 0.00331 0.60676
 C153 C 0.80488 -0.07449 0.52839
 C154 C 0.67955 0.02011 0.44389
 C155 C 0.50174 0.21928 1.03999
 H156 H 0.48060 0.22400 1.02747
 C157 C 0.50351 0.19793 1.06215
 H158 H 0.48352 0.18638 1.06642
 C159 C 0.55406 0.22677 1.04747
 H160 H 0.57400 0.23709 1.04076
 C161 C 0.55674 0.20594 1.07005
 H162 H 0.57865 0.20134 1.08123
 N163 N 0.52688 0.23296 1.03289
 C164 C 0.46582 0.27382 0.97313
 H165 H 0.46945 0.25789 0.95745
 C166 C 0.43937 0.29113 0.97042
 H167 H 0.42292 0.28825 0.95258
 C168 C 0.48236 0.29656 1.01568
 H169 H 0.49920 0.29869 1.03326
 C170 C 0.45638 0.31430 1.01377
 H171 H 0.45391 0.33027 1.02971
 Zn172 Zn 0.52473 0.25655 0.99835
 N173 N 0.48698 0.27723 0.99520
 C174 C 0.52471 0.24188 0.93815
 N175 N 0.52933 0.23245 0.96655
 C176 C 0.53754 0.20480 0.97367
 C177 C 0.54129 0.18547 0.95213
 C178 C 0.52795 0.22302 0.91573
 C179 C 0.56233 0.29419 1.02681
 C180 C 0.58308 0.31545 1.02965
 C181 C 0.59038 0.31395 0.97822
 C182 C 0.56978 0.29223 0.97646
 N183 N 0.55585 0.28313 1.00051
 H184 H 0.51820 0.26394 0.93288
 H185 H 0.54129 0.19745 0.99615
 H186 H 0.54739 0.16351 0.95850
 H187 H 0.52408 0.23069 0.89325
 H188 H 0.55104 0.28677 1.04568
 H189 H 0.58781 0.32375 1.05090
 H190 H 0.60015 0.32179 0.95858
 H191 H 0.56424 0.28337 0.95569
 C192 C 0.43460 0.31205 0.99067
 C193 C 0.53144 0.19062 1.07718
 C194 C 0.59682 0.32625 1.00502
 C195 C 0.53652 0.19442 0.92273
 C196 C 0.44251 0.79903 -0.02118
 H197 H 0.43052 0.79948 -0.00143
 C198 C 0.43617 0.82005 -0.04330
 H199 H 0.41916 0.83661 -0.04047
 C200 C 0.48086 0.77812 -0.04787
 H201 H 0.49902 0.76244 -0.04920
 C202 C 0.47534 0.79875 -0.07042
 H203 H 0.48881 0.79819 -0.08924
 N204 N 0.46461 0.77868 -0.02378
 C205 C 0.45059 0.71241 0.04248
 H206 H 0.47308 0.71129 0.05302
 C207 C 0.42985 0.69230 0.05003
 H208 H 0.43688 0.67570 0.06629
 C209 C 0.41555 0.73408 0.00660
 H210 H 0.41043 0.74984 -0.01094
 C211 C 0.39388 0.71456 0.01375
 H212 H 0.37195 0.71611 0.00206
 Zn213 Zn 0.47582 0.75406 0.00900
 N214 N 0.44337 0.73243 0.02080
 C215 C 0.47386 0.78160 0.06261
 N216 N 0.48965 0.77757 0.03863
 C217 C 0.51386 0.79323 0.03297
 C218 C 0.52264 0.81450 0.05137
 C219 C 0.48165 0.80297 0.08147
 C220 C 0.49922 0.71038 -0.02224
 C221 C 0.51959 0.68905 -0.02953
 C222 C 0.55405 0.70254 0.00961
 C223 C 0.53312 0.72398 0.01586
 N224 N 0.50633 0.72747 -0.00008
 H225 H 0.45424 0.76933 0.06628
 H226 H 0.52569 0.78985 0.01348
 H227 H 0.54177 0.82693 0.04618
 H228 H 0.46781 0.80691 0.09954
 H229 H 0.47753 0.71334 -0.03424
 H230 H 0.51355 0.67610 -0.04764
 H231 H 0.57481 0.69951 0.02315
 H232 H 0.53794 0.73722 0.03399
 C233 C 0.40114 0.69283 0.03530
 C234 C 0.45310 0.82035 -0.06808
 C235 C 0.54732 0.68458 -0.01328
 C236 C 0.50588 0.82026 0.07550
 C237 C 1.02977 0.50745 0.20723
 H238 H 1.00829 0.51265 0.19561
 C239 C 1.05589 0.50678 0.19192
 H240 H 1.05380 0.51079 0.16855
 C241 C 1.05808 0.49471 0.25143
 H242 H 1.05859 0.48961 0.27460
 C243 C 1.08493 0.49414 0.23698
 H244 H 1.10608 0.48906 0.24939
 N245 N 1.03118 0.50088 0.23634
 C246 C 0.99139 0.46079 0.30571
 H247 H 0.98596 0.47978 0.31674
 C248 C 0.99406 0.43494 0.32177
 H249 H 0.99026 0.43448 0.34480
 C250 C 1.00503 0.43827 0.26320
 H251 H 1.01007 0.43982 0.24054
 C252 C 1.00858 0.41198 0.27867
 H253 H 1.01578 0.39330 0.26766
 Zn254 Zn 0.99474 0.49783 0.25551
 N255 N 0.99646 0.46206 0.27682
 C256 C 0.95932 0.48106 0.20586
 N257 N 0.96181 0.50057 0.22672
 C258 C 0.94308 0.52417 0.22551
 C259 C 0.92162 0.52936 0.20238
 C260 C 0.93846 0.48574 0.18192
 C261 C 1.01091 0.54856 0.28313
 C262 C 1.00648 0.57143 0.30095
 C263 C 0.95985 0.55146 0.31478
 C264 C 0.96496 0.52926 0.29649
 N265 N 0.99023 0.52805 0.28121
 H266 H 0.97470 0.46270 0.20682
 H267 H 0.94555 0.53987 0.24169
 H268 H 0.90722 0.54846 0.20197
 H269 H 0.93811 0.47077 0.16478
 H270 H 1.03058 0.54751 0.27044
 H271 H 1.02283 0.58788 0.30159
 H272 H 0.93982 0.55152 0.32707
 H273 H 0.94854 0.51300 0.29419
 C274 C 1.00291 0.41017 0.30832
 C275 C 1.08402 0.49974 0.20666
 C276 C 0.98057 0.57316 0.31704
 C277 C 0.91976 0.51058 0.17959
 C278 C -0.02257 0.46155 0.78086
 H279 H -0.00328 0.44673 0.78204
 C280 C -0.04532 0.45818 0.80032
 H281 H -0.04335 0.44072 0.81651
 C282 C -0.04777 0.50319 0.75927
 H283 H -0.04843 0.52104 0.74369
 C284 C -0.07091 0.50065 0.77827
 H285 H -0.08947 0.51635 0.77663
 N286 N -0.02417 0.48381 0.76088
 C287 C 0.03421 0.46209 0.69187
 H288 H 0.04703 0.48115 0.69125
 C289 C 0.03895 0.44131 0.67188
 H290 H 0.05535 0.44473 0.65573
 C291 C -0.00362 0.43532 0.71310
 H292 H -0.02043 0.43327 0.72899
 C293 C 0.00052 0.41385 0.69354
 H294 H -0.01281 0.39514 0.69500
 Zn295 Zn 0.00857 0.48916 0.73689
 N296 N 0.01338 0.45871 0.71205
 C297 C 0.06677 0.47177 0.76118
 N298 N 0.04392 0.49176 0.76167
 C299 C 0.04499 0.51260 0.78114
 C300 C 0.06995 0.51408 0.80094
 C301 C 0.09200 0.47230 0.78073
 C302 C -0.02192 0.52119 0.69162
 C303 C -0.02874 0.54410 0.67182
 C304 C 0.01239 0.56895 0.69446
 C305 C 0.01850 0.54543 0.71384
 N306 N 0.00116 0.52230 0.71226
 H307 H 0.06517 0.45488 0.74615
 H308 H 0.02627 0.52794 0.78144
 H309 H 0.07045 0.53104 0.81601
 H310 H 0.10944 0.45565 0.78046
 H311 H -0.03496 0.50230 0.69049
 H312 H -0.04696 0.54251 0.65533
 H313 H 0.02612 0.58735 0.69631
 H314 H 0.03717 0.54568 0.72997
 C315 C 0.02212 0.41669 0.67260
 C316 C -0.06972 0.47813 0.79939
 C317 C -0.01158 0.56849 0.67311
 C318 C 0.09383 0.49358 0.80109
 C319 C 0.06753 0.18622 0.47884
 C320 C 0.09121 0.16549 0.48083
 C321 C 0.10837 0.16020 0.50750
 C322 C 0.10167 0.17576 0.53160
 C323 C 0.07794 0.19614 0.52954
 C324 C 0.06080 0.20218 0.50302
 C325 C 0.13130 0.13882 0.50998
 C326 C 0.13709 0.12237 0.48620
 C327 C 0.12027 0.12784 0.45935
 C328 C 0.09749 0.14945 0.45679
 C329 C 0.12621 0.11127 0.43565
 C330 C 0.14816 0.08908 0.43872
 C331 C 0.16452 0.08309 0.46552
 C332 C 0.15910 0.10014 0.48906
 H333 H 0.05372 0.18933 0.45865
 H334 H 0.11426 0.17159 0.55235
 H335 H 0.07260 0.20619 0.54929
 H336 H 0.14420 0.13460 0.53059
 H337 H 0.08437 0.15347 0.43628
 H338 H 0.11358 0.11517 0.41489
 H339 H 0.15178 0.07613 0.42033
 H340 H 0.17194 0.09599 0.50970
 C341 C 0.67726 0.56911 -0.03381
 C342 C 0.65811 0.59285 -0.03032
 C343 C 0.67032 0.61848 -0.02131
 C344 C 0.70167 0.61994 -0.01630
 C345 C 0.72057 0.59592 -0.01911
 C346 C 0.70860 0.56987 -0.02694
 C347 C 0.65097 0.64204 -0.01720
 C348 C 0.61952 0.63997 -0.02132
 C349 C 0.60745 0.61421 -0.03028
 C350 C 0.62680 0.59100 -0.03512
 C351 C 0.57614 0.61185 -0.03378
 C352 C 0.55681 0.63467 -0.02820
 C353 C 0.56835 0.66057 -0.01947
 C354 C 0.59989 0.66306 -0.01624
 H355 H 0.66726 0.55028 -0.04187
 H356 H 0.71154 0.63950 -0.00972
 H357 H 0.74466 0.59753 -0.01469
 H358 H 0.66032 0.66174 -0.01026
 H359 H 0.61744 0.57126 -0.04192
 H360 H 0.56655 0.59216 -0.04039
 H361 H 0.53272 0.63178 -0.03021
 H362 H 0.60919 0.68292 -0.00982
 C363 C 0.92652 -0.19870 0.51147
 C364 C 0.90301 -0.17781 0.50999
 C365 C 0.88939 -0.16818 0.48263
 C366 C 0.89947 -0.17966 0.45726
 C367 C 0.92299 -0.20031 0.45890
 C368 C 0.93648 -0.21064 0.48602
 C369 C 0.86656 -0.14664 0.48098
 C370 C 0.85738 -0.13439 0.50638
 C371 C 0.87078 -0.14426 0.53380
 C372 C 0.89343 -0.16595 0.53544
 C373 C 0.86162 -0.13194 0.55912
 C374 C 0.83984 -0.10967 0.55732
 C375 C 0.82669 -0.09931 0.53016
 C376 C 0.83539 -0.11207 0.50476
 H377 H 0.93764 -0.20499 0.53247
 H378 H 0.88965 -0.17216 0.43606
 H379 H 0.93108 -0.20742 0.43869
 H380 H 0.85634 -0.13907 0.45993
 H381 H 0.90387 -0.17332 0.55647
 H382 H 0.87166 -0.13923 0.58031
 H383 H 0.83386 -0.10002 0.57718
 H384 H 0.82515 -0.10454 0.48373
 C385 C 0.30422 0.43005 0.99904
 C386 C 0.32568 0.40727 1.00196
 C387 C 0.33501 0.39549 1.02996
 C388 C 0.32265 0.40664 1.05450
 C389 C 0.30143 0.42941 1.05143
 C390 C 0.29140 0.44113 1.02367
 C391 C 0.35717 0.37334 1.03305
 C392 C 0.37047 0.36307 1.00849
 C393 C 0.36090 0.37464 0.98044
 C394 C 0.33848 0.39655 0.97734
 C395 C 0.37439 0.36446 0.95599
 C396 C 0.39773 0.34361 0.95930
 C397 C 0.40796 0.33235 0.98711
 C398 C 0.39372 0.34189 1.01160
 H399 H 0.29811 0.43962 0.97757
 H400 H 0.32991 0.39818 1.07616
 H401 H 0.29361 0.43824 1.07102
 H402 H 0.36453 0.36453 1.05459
 H403 H 0.33136 0.40558 0.95582
 H404 H 0.36735 0.37309 0.93433
 H405 H 0.40847 0.33699 0.94009
 H406 H 0.40099 0.33311 1.03315
 C407 C 0.94388 0.18786 0.52579
 C408 C 0.91694 0.17329 0.52548
 C409 C 0.89436 0.17947 0.50285
 C410 C 0.89855 0.20121 0.48180
 C411 C 0.92539 0.21586 0.48248
 C412 C 0.94848 0.20872 0.50398
 C413 C 0.86840 0.16336 0.50128
 C414 C 0.86471 0.14131 0.52215
 C415 C 0.88666 0.13617 0.54557
 C416 C 0.91265 0.15213 0.54703
 C417 C 0.88260 0.11466 0.56682
 C418 C 0.85755 0.09772 0.56443
 C419 C 0.83633 0.10180 0.54061
 C420 C 0.83979 0.12390 0.51970
 H421 H 0.96159 0.18260 0.54264
 H422 H 0.88139 0.20642 0.46444
 H423 H 0.92865 0.23189 0.46550
 H424 H 0.85139 0.16761 0.48354
 H425 H 0.92981 0.14769 0.56460
 H426 H 0.89909 0.11058 0.58499
 H427 H 0.85528 0.08071 0.58066
 H428 H 0.82328 0.12723 0.50142
 C429 C 0.30041 0.55823 0.03532
 C430 C 0.31428 0.58430 0.03159
 C431 C 0.31193 0.59893 0.00397
 C432 C 0.29454 0.58790 -0.01902
 C433 C 0.28030 0.56221 -0.01491
 C434 C 0.28371 0.54703 0.01202
 C435 C 0.32741 0.62405 -0.00032
 C436 C 0.34494 0.63488 0.02271
 C437 C 0.34604 0.62099 0.05063
 C438 C 0.33082 0.59573 0.05487
 C439 C 0.36292 0.63227 0.07373
 C440 C 0.37960 0.65639 0.06901
 C441 C 0.38009 0.66958 0.04101
 C442 C 0.36203 0.65896 0.01806
 H443 H 0.30272 0.54651 0.05620
 H444 H 0.29226 0.59893 -0.04024
 H445 H 0.26734 0.55371 -0.03299
 H446 H 0.32619 0.63489 -0.02167
 H447 H 0.33225 0.58475 0.07615
 H448 H 0.36363 0.62217 0.09538
 H449 H 0.39254 0.66445 0.08731
 H450 H 0.36225 0.66858 -0.00373
 C451 C 0.05750 -0.19887 0.50932
 C452 C 0.08426 -0.18445 0.50629
 C453 C 0.10246 -0.19035 0.48293
 C454 C 0.09433 -0.21162 0.46394
 C455 C 0.06775 -0.22606 0.46731
 C456 C 0.04889 -0.21930 0.48955
 C457 C 0.12792 -0.17433 0.47845
 C458 C 0.13544 -0.15258 0.49709
 C459 C 0.11808 -0.14771 0.52129
 C460 C 0.09258 -0.16364 0.52570
 C461 C 0.12607 -0.12643 0.54028
 C462 C 0.15036 -0.10943 0.53479
 C463 C 0.16683 -0.11323 0.51009
 C464 C 0.15958 -0.13514 0.49153
 H465 H 0.04292 -0.19376 0.52658
 H466 H 0.10807 -0.21653 0.44603
 H467 H 0.06117 -0.24148 0.45169
 H468 H 0.14145 -0.17835 0.46011
 H469 H 0.07884 -0.15938 0.54383
 H470 H 0.11315 -0.12255 0.55903
 H471 H 0.15558 -0.09255 0.54925
 H472 H 0.17244 -0.13824 0.47256
 C473 C 0.70204 0.45695 0.99234
 C474 C 0.68834 0.43077 0.99310
 C475 C 0.69757 0.40935 0.97467
 C476 C 0.72121 0.41449 0.95634
 C477 C 0.73438 0.44110 0.95528
 C478 C 0.72416 0.46275 0.97262
 C479 C 0.68241 0.38367 0.97437
 C480 C 0.65772 0.37964 0.99174
 C481 C 0.64901 0.40117 1.01033
 C482 C 0.66462 0.42633 1.01120
 C483 C 0.62420 0.39766 1.02725
 C484 C 0.60763 0.37328 1.02548
 C485 C 0.61575 0.35155 1.00714
 C486 C 0.64111 0.35482 0.99042
 H487 H 0.69468 0.47328 1.00649
 H488 H 0.72879 0.39830 0.94218
 H489 H 0.75161 0.44514 0.94011
 H490 H 0.68919 0.36725 0.96006
 H491 H 0.65761 0.44290 1.02526
 H492 H 0.61716 0.41410 1.04141
 H493 H 0.58786 0.37184 1.03805
 H494 H 0.64779 0.33821 0.97632
 C495 C 0.52128 0.06067 1.19053
 C496 C 0.51899 0.08543 1.17242
 C497 C 0.49240 0.10297 1.17121
 C498 C 0.46850 0.09524 1.18803
 C499 C 0.47082 0.07034 1.20586
 C500 C 0.49737 0.05277 1.20759
 C501 C 0.49001 0.12773 1.15296
 C502 C 0.51376 0.13489 1.13557
 C503 C 0.54029 0.11719 1.13675
 C504 C 0.54282 0.09271 1.15529
 C505 C 0.56376 0.12404 1.11905
 C506 C 0.56090 0.14799 1.10002
 C507 C 0.53468 0.16588 1.09855
 C508 C 0.51125 0.15923 1.11669
 H509 H 0.54171 0.04722 1.19126
 H510 H 0.44782 0.10831 1.18718
 H511 H 0.45148 0.06512 1.21779
 H512 H 0.46957 0.14118 1.15200
 H513 H 0.56319 0.07915 1.15614
 H514 H 0.58415 0.11059 1.11954
 H515 H 0.57904 0.15205 1.08591
 H516 H 0.49103 0.17291 1.11609
 C517 C -0.02287 0.69504 0.55355
 C518 C -0.01608 0.67381 0.57556
 C519 C 0.01436 0.66686 0.58476
 C520 C 0.03744 0.68166 0.57211
 C521 C 0.03048 0.70291 0.55033
 C522 C 0.00032 0.70970 0.54065
 C523 C 0.02123 0.64514 0.60628
 C524 C -0.00201 0.63033 0.61876
 C525 C -0.03246 0.63765 0.60984
 C526 C -0.03930 0.65929 0.58831
 C527 C -0.05563 0.62301 0.62245
 C528 C -0.04877 0.60096 0.64333
 C529 C -0.01859 0.59300 0.65199
 C530 C 0.00472 0.60807 0.63976
 H531 H -0.04622 0.69965 0.54607
 H532 H 0.06090 0.67678 0.57904
 H533 H 0.04878 0.71422 0.54130
 H534 H 0.04460 0.63966 0.61316
 H535 H -0.06267 0.66470 0.58134
 H536 H -0.07909 0.62849 0.61604
 H537 H -0.06718 0.59013 0.65277
 H538 H 0.02809 0.60202 0.64599
 C539 C 0.46069 0.94930 -0.18297
 C540 C 0.46395 0.92601 -0.16277
 C541 C 0.49316 0.91553 -0.15273
 C542 C 0.51855 0.92868 -0.16277
 C543 C 0.51511 0.95188 -0.18275
 C544 C 0.48624 0.96208 -0.19377
 C545 C 0.49655 0.89235 -0.13250
 C546 C 0.47109 0.87960 -0.12197
 C547 C 0.44183 0.89013 -0.13182
 C548 C 0.43844 0.91324 -0.15222
 C549 C 0.41648 0.87747 -0.12090
 C550 C 0.42007 0.85469 -0.10029
 C551 C 0.44907 0.84404 -0.09044
 C552 C 0.47448 0.85664 -0.10147
 H553 H 0.43819 0.95766 -0.18965
 H554 H 0.54110 0.92121 -0.15494
 H555 H 0.53519 0.96201 -0.18951
 H556 H 0.51899 0.88435 -0.12480
 H557 H 0.41600 0.92133 -0.15978
 H558 H 0.39388 0.88525 -0.12819
 H559 H 0.40018 0.84523 -0.09220
 H560 H 0.49696 0.84894 -0.09361
 C561 C 1.01252 0.28393 0.42722
 C562 C 1.00525 0.30523 0.40530
 C563 C 0.97673 0.31963 0.40395
 C564 C 0.95546 0.31155 0.42354
 C565 C 0.96267 0.29022 0.44511
 C566 C 0.99171 0.27653 0.44822
 C567 C 0.97004 0.34216 0.38336
 C568 C 0.99163 0.35054 0.36404
 C569 C 1.01978 0.33540 0.36450
 C570 C 1.02642 0.31284 0.38513
 C571 C 1.04107 0.34355 0.34475
 C572 C 1.03501 0.36717 0.32551
 C573 C 1.00768 0.38310 0.32587
 C574 C 0.98582 0.37431 0.34480
 H575 H 1.03505 0.27437 0.42821
 H576 H 0.93316 0.32189 0.42233
 H577 H 0.94476 0.28469 0.45881
 H578 H 0.94830 0.35356 0.38278
 H579 H 1.04827 0.30163 0.38587
 H580 H 1.06268 0.33208 0.34464
 H581 H 1.05219 0.37370 0.31117
 H582 H 0.96455 0.38639 0.34495
 C583 C 0.51829 0.94651 0.18230
 C584 C 0.51725 0.92101 0.16785
 C585 C 0.51035 0.89567 0.18307
 C586 C 0.50526 0.89626 0.21276
 C587 C 0.50602 0.92184 0.22703
 C588 C 0.51191 0.94761 0.21192
 C589 C 0.50811 0.87036 0.16822
 C590 C 0.51230 0.87027 0.13822
 C591 C 0.51971 0.89566 0.12321
 C592 C 0.52240 0.92074 0.13814
 C593 C 0.52364 0.89577 0.09330
 C594 C 0.51962 0.87114 0.07813
 C595 C 0.51193 0.84573 0.09256
 C596 C 0.50862 0.84541 0.12281
 H597 H 0.52445 0.96540 0.17019
 H598 H 0.49992 0.87702 0.22483
 H599 H 0.50031 0.92120 0.24950
 H600 H 0.50249 0.85093 0.17984
 H601 H 0.52778 0.94023 0.12647
 H602 H 0.52919 0.91508 0.08148
 H603 H 0.52169 0.87230 0.05481
 H604 H 0.50294 0.82595 0.13429
 C605 C 0.02325 0.29814 0.55638
 C606 C 0.01815 0.31855 0.57692
 C607 C -0.01148 0.32438 0.58528
 C608 C -0.03546 0.30944 0.57304
 C609 C -0.03009 0.28874 0.55293
 C610 C -0.00071 0.28282 0.54444
 C611 C -0.01657 0.34488 0.60583
 C612 C 0.00769 0.35934 0.61836
 C613 C 0.03734 0.35319 0.61015
 C614 C 0.04234 0.33301 0.58938
 C615 C 0.06158 0.36732 0.62289
 C616 C 0.05657 0.38756 0.64342
 C617 C 0.02719 0.39429 0.65150
 C618 C 0.00281 0.37990 0.63892
 H619 H 0.04596 0.29433 0.54966
 H620 H -0.05831 0.31349 0.57930
 H621 H -0.04892 0.27696 0.54459
 H622 H -0.03932 0.34946 0.61217
 H623 H 0.06510 0.32841 0.58305
 H624 H 0.08446 0.36268 0.61701
 H625 H 0.07583 0.39787 0.65314
 H626 H -0.02000 0.38504 0.64469
 C627 C 0.51478 0.07239 0.81400
 C628 C 0.51694 0.09822 0.82773
 C629 C 0.49402 0.11976 0.82209
 C630 C 0.47018 0.11558 0.80145
 C631 C 0.46836 0.08978 0.78762
 C632 C 0.49014 0.06780 0.79451
 C633 C 0.49481 0.14459 0.83787
 C634 C 0.51811 0.14793 0.85935
 C635 C 0.54177 0.12691 0.86378
 C636 C 0.54113 0.10232 0.84784
 C637 C 0.56513 0.13021 0.88500
 C638 C 0.56415 0.15316 0.90300
 C639 C 0.53988 0.17332 0.90008
 C640 C 0.51747 0.17121 0.87743
 H641 H 0.53185 0.05552 0.81900
 H642 H 0.45254 0.13192 0.79661
 H643 H 0.44926 0.08652 0.77255
 H644 H 0.47679 0.16078 0.83418
 H645 H 0.55887 0.08590 0.85188
 H646 H 0.58361 0.11449 0.88840
 H647 H 0.58197 0.15468 0.91992
 H648 H 0.49863 0.18663 0.87506
 C649 C 0.97509 0.69740 0.42701
 C650 C 0.98097 0.67602 0.40763
 C651 C 1.01106 0.66656 0.40415
 C652 C 1.03476 0.67914 0.41961
 C653 C 1.02875 0.70068 0.43857
 C654 C 0.99888 0.70998 0.44273
 C655 C 1.01695 0.64461 0.38541
 C656 C 0.99309 0.63219 0.36987
 C657 C 0.96304 0.64215 0.37288
 C658 C 0.95716 0.66386 0.39184
 C659 C 0.93930 0.63014 0.35695
 C660 C 0.94514 0.60817 0.33850
 C661 C 0.97483 0.59745 0.33583
 C662 C 0.99876 0.60984 0.35151
 H663 H 0.95185 0.70363 0.43020
 H664 H 1.05800 0.67233 0.41704
 H665 H 1.04772 0.71003 0.44975
 H666 H 1.04004 0.63716 0.38299
 H667 H 0.93406 0.67125 0.39432
 H668 H 0.91617 0.63774 0.35874
 H669 H 0.92629 0.59967 0.32619
 H670 H 1.02175 0.60173 0.34994
 C671 C 1.20817 0.49056 0.09098
 C672 C 1.18574 0.49716 0.11016
 C673 C 1.16386 0.51910 0.10226
 C674 C 1.16490 0.53417 0.07552
 C675 C 1.18685 0.52713 0.05633
 C676 C 1.20862 0.50492 0.06338
 C677 C 1.14095 0.52532 0.12093
 C678 C 1.13907 0.50926 0.14709
 C679 C 1.16097 0.48733 0.15512
 C680 C 1.18445 0.48169 0.13682
 C681 C 1.15853 0.47091 0.18096
 C682 C 1.13402 0.47545 0.19811
 C683 C 1.11171 0.49685 0.19007
 C684 C 1.11499 0.51419 0.16484
 H685 H 1.22503 0.47410 0.09783
 H686 H 1.14834 0.55115 0.06916
 H687 H 1.18599 0.53920 0.03587
 H688 H 1.12407 0.54209 0.11470
 H689 H 1.20116 0.46475 0.14293
 H690 H 1.17508 0.45396 0.18744
 H691 H 1.13204 0.46147 0.21713
 H692 H 1.09845 0.53120 0.15859
 C693 C 0.55547 0.00290 0.72203
 C694 C 0.57502 0.00646 0.69944
 C695 C 0.56616 0.02476 0.67504
 C696 C 0.53778 0.03900 0.67358
 C697 C 0.51823 0.03497 0.69593
 C698 C 0.52671 0.01682 0.72039
 C699 C 0.58568 0.02835 0.65242
 C700 C 0.61372 0.01341 0.65365
 C701 C 0.62241 -0.00514 0.67793
 C702 C 0.60316 -0.00828 0.70080
 C703 C 0.65011 -0.02050 0.67881
 C704 C 0.66898 -0.01773 0.65575
 C705 C 0.66077 0.00079 0.63149
 C706 C 0.63307 0.01648 0.63081
 H707 H 0.56290 -0.01063 0.74092
 H708 H 0.53055 0.05301 0.65496
 H709 H 0.49627 0.04580 0.69358
 H710 H 0.57889 0.04247 0.63373
 H711 H 0.60990 -0.02247 0.71946
 H712 H 0.65702 -0.03497 0.69715
 H713 H 0.68979 -0.03055 0.65674
 H714 H 0.62653 0.03120 0.61258
 C715 C -0.19470 0.49752 0.91339
 C716 C -0.17163 0.49803 0.89371
 C717 C -0.15903 0.52420 0.88580
 C718 C -0.16937 0.54924 0.89775
 C719 C -0.19223 0.54857 0.91714
 C720 C -0.20537 0.52285 0.92497
 C721 C -0.13634 0.52506 0.86601
 C722 C -0.12601 0.50013 0.85379
 C723 C -0.13828 0.47385 0.86168
 C724 C -0.16104 0.47294 0.88163
 C725 C -0.12757 0.44900 0.84935
 C726 C -0.10515 0.45025 0.82925
 C727 C -0.09313 0.47639 0.82105
 C728 C -0.10360 0.50120 0.83366
 H729 H -0.20467 0.47759 0.91924
 H730 H -0.15978 0.56941 0.89210
 H731 H -0.19935 0.56828 0.92632
 H732 H -0.12683 0.54521 0.85997
 H733 H -0.17056 0.45281 0.88764
 H734 H -0.13665 0.42863 0.85512
 H735 H -0.09755 0.43085 0.81975
 H736 H -0.09408 0.52140 0.82797
 C737 C 0.43152 -0.01498 0.28314
 C738 C 0.41392 -0.02056 0.30689
 C739 C 0.42821 -0.02648 0.33492
 C740 C 0.45982 -0.02803 0.33846
 C741 C 0.47715 -0.02283 0.31463
 C742 C 0.46315 -0.01569 0.28701
 C743 C 0.41071 -0.03012 0.35904
 C744 C 0.37910 -0.02814 0.35547
 C745 C 0.36478 -0.02359 0.32727
 C746 C 0.38229 -0.01973 0.30316
 C747 C 0.33313 -0.02239 0.32377
 C748 C 0.31584 -0.02471 0.34807
 C749 C 0.32994 -0.02790 0.37617
 C750 C 0.36156 -0.03002 0.37975
 H751 H 0.42070 -0.00971 0.26174
 H752 H 0.47114 -0.03272 0.35974
 H753 H 0.50153 -0.02328 0.31803
 H754 H 0.42167 -0.03399 0.38063
 H755 H 0.37132 -0.01558 0.28161
 H756 H 0.32178 -0.01915 0.30232
 H757 H 0.29144 -0.02300 0.34504
 H758 H 0.37243 -0.03273 0.40148
 C759 C 0.21193 0.49159 0.93720
 C760 C 0.18823 0.49479 0.91551
 C761 C 0.15927 0.50457 0.92286
 C762 C 0.15469 0.51157 0.95155
 C763 C 0.17842 0.50853 0.97288
 C764 C 0.20710 0.49834 0.96602
 C765 C 0.13526 0.50687 0.90155
 C766 C 0.13980 0.49966 0.87289
 C767 C 0.16888 0.49052 0.86534
 C768 C 0.19291 0.48811 0.88669
 C769 C 0.17335 0.48364 0.83658
 C770 C 0.14914 0.48525 0.81563
 C771 C 0.11992 0.49361 0.82301
 C772 C 0.11557 0.50106 0.85177
 H773 H 0.23410 0.48386 0.93173
 H774 H 0.13265 0.51907 0.95758
 H775 H 0.17403 0.51328 0.99499
 H776 H 0.11299 0.51405 0.90734
 H777 H 0.21514 0.48078 0.88095
 H778 H 0.19553 0.47684 0.83032
 H779 H 0.15335 0.47991 0.79358
 H780 H 0.09317 0.50717 0.85799
 C781 C 0.56540 0.01818 0.30526
 C782 C 0.58734 0.01437 0.32843
 C783 C 0.60391 -0.01183 0.33285
 C784 C 0.59801 -0.03386 0.31407
 C785 C 0.57578 -0.03000 0.29124
 C786 C 0.55944 -0.00395 0.28658
 C787 C 0.62584 -0.01565 0.35612
 C788 C 0.63103 0.00627 0.37526
 C789 C 0.61418 0.03235 0.37089
 C790 C 0.59261 0.03629 0.34743
 C791 C 0.61900 0.05404 0.39023
 C792 C 0.64019 0.04998 0.41381
 C793 C 0.65731 0.02425 0.41840
 C794 C 0.65260 0.00248 0.39885
 H795 H 0.55239 0.03814 0.30223
 H796 H 0.61042 -0.05412 0.31715
 H797 H 0.57152 -0.04730 0.27704
 H798 H 0.63861 -0.03573 0.35951
 H799 H 0.57974 0.05633 0.34412
 H800 H 0.60612 0.07407 0.38731
 H801 H 0.64277 0.06690 0.42877
 H802 H 0.66582 -0.01736 0.40186
 C803 C 0.80863 0.52843 0.03833
 C804 C 0.82824 0.52053 0.06257
 C805 C 0.83266 0.49153 0.07163
 C806 C 0.81784 0.47088 0.05575
 C807 C 0.79846 0.47895 0.03145
 C808 C 0.79342 0.50777 0.02281
 C809 C 0.85162 0.48372 0.09648
 C810 C 0.86637 0.50458 0.11219
 C811 C 0.86235 0.53349 0.10261
 C812 C 0.84329 0.54127 0.07797
 C813 C 0.87743 0.55426 0.11785
 C814 C 0.89613 0.54663 0.14256
 C815 C 0.89990 0.51807 0.15291
 C816 C 0.88502 0.49707 0.13736
 H817 H 0.80518 0.55069 0.03151
 H818 H 0.82099 0.44855 0.06229
 H819 H 0.78675 0.46270 0.01992
 H820 H 0.85480 0.46151 0.10361
 H821 H 0.84005 0.56349 0.07086
 H822 H 0.87486 0.57647 0.11059
 H823 H 0.90796 0.56322 0.15340
 H824 H 0.88756 0.47498 0.14503
 C825 C 0.43563 0.01412 0.69701
 C826 C 0.41297 0.01356 0.67452
 C827 C 0.38257 0.01998 0.68025
 C828 C 0.37548 0.02711 0.70839
 C829 C 0.39817 0.02694 0.73083
 C830 C 0.42825 0.02037 0.72523
 C831 C 0.35972 0.01829 0.65804
 C832 C 0.36682 0.00956 0.63043
 C833 C 0.39725 0.00319 0.62478
 C834 C 0.42015 0.00557 0.64674
 C835 C 0.40425 -0.00602 0.59739
 C836 C 0.38131 -0.00939 0.57589
 C837 C 0.35097 -0.00333 0.58128
 C838 C 0.34391 0.00647 0.60855
 H839 H 0.45876 0.00820 0.69295
 H840 H 0.35232 0.03198 0.71322
 H841 H 0.39224 0.03142 0.75268
 H842 H 0.33639 0.02304 0.66246
 H843 H 0.44346 0.00050 0.64243
 H844 H 0.42745 -0.01093 0.59268
 H845 H 0.38730 -0.01657 0.55491
 H846 H 0.32054 0.01094 0.61297
   
