data_POSCAR
  _audit_creation_date              2014-09-24
  _audit_creation_method            'ToBaCCo'
  _symmetry_space_group_name_H-M    'P1'
  _symmetry_Int_Tables_number       1
  _symmetry_cell_setting            triclinic
  loop_
  _symmetry_equiv_pos_as_xyz
 x,y,z
_cell_length_a 37.8654
_cell_length_b 38.4531
_cell_length_c 36.7047
_cell_angle_alpha 89.686100
_cell_angle_beta 85.958600
_cell_angle_gamma 91.324100
loop_
  _atom_site_label
  _atom_site_type_symbol
  _atom_site_fract_x
  _atom_site_fract_y
  _atom_site_fract_z
C1 C 0.29487 0.46518 0.99572
 C2 C 0.27536 0.49555 0.99903
 C3 C 0.29249 0.52754 1.00435
 C4 C 0.32930 0.52968 1.00716
 C5 C 0.34871 0.49868 1.00378
 C6 C 0.33169 0.46647 0.99753
 C7 C 0.23666 0.49378 0.99819
 C8 C 0.21549 0.49224 1.03102
 C9 C 0.17818 0.49079 1.03094
 C10 C 0.16299 0.49013 0.99696
 C11 C 0.18412 0.49250 0.96400
 C12 C 0.22107 0.49413 0.96481
 H13 H 0.28130 0.44051 0.99164
 H14 H 0.27678 0.55076 1.00690
 H15 H 0.22884 0.49197 1.05605
 H16 H 0.23778 0.49532 0.93959
 H17 H 0.37690 0.49912 1.00598
 H18 H 0.13442 0.48888 0.99601
 C19 C 0.71044 0.47466 0.00208
 C20 C 0.72964 0.50521 0.00903
 C21 C 0.71179 0.53593 0.01734
 C22 C 0.67484 0.53672 0.01761
 C23 C 0.65562 0.50581 0.01124
 C24 C 0.67320 0.47458 0.00349
 C25 C 0.76856 0.50520 0.00717
 C26 C 0.78767 0.50065 -0.02643
 C27 C 0.82488 0.50052 -0.02892
 C28 C 0.84265 0.50522 0.00342
 C29 C 0.82357 0.51070 0.03723
 C30 C 0.78651 0.51032 0.03879
 H31 H 0.72474 0.45095 -0.00314
 H32 H 0.72684 0.55953 0.02242
 H33 H 0.77327 0.49719 -0.05074
 H34 H 0.77149 0.51410 0.06467
 H35 H 0.62695 0.50590 0.01267
 H36 H 0.87113 0.50502 0.00267
 C37 C 0.03299 0.20392 0.50600
 C38 C 0.00239 0.22264 0.50114
 C39 C -0.02988 0.20501 0.49756
 C40 C -0.03185 0.16856 0.49874
 C41 C -0.00089 0.14990 0.50251
 C42 C 0.03166 0.16744 0.50687
 C43 C 0.00382 0.26079 0.49937
 C44 C -0.00043 0.27768 0.46619
 C45 C -0.00153 0.31410 0.46417
 C46 C 0.00202 0.33338 0.49647
 C47 C 0.00628 0.31661 0.52997
 C48 C 0.00764 0.28014 0.53104
 H49 H 0.05788 0.21783 0.50884
 H50 H -0.05331 0.21982 0.49350
 H51 H -0.00338 0.26215 0.44195
 H52 H 0.01161 0.26649 0.55624
 H53 H -0.00241 0.12177 0.50198
 H54 H 0.00228 0.36148 0.49604
 C55 C 1.01758 0.79054 0.52442
 C56 C 0.98593 0.77128 0.52269
 C57 C 0.95373 0.78828 0.52269
 C58 C 0.95289 0.82461 0.52336
 C59 C 0.98485 0.84400 0.52431
 C60 C 1.01757 0.82726 0.52537
 C61 C 0.98692 0.73327 0.51874
 C62 C 0.99695 0.71235 0.54747
 C63 C 0.99924 0.67593 0.54333
 C64 C 0.99250 0.66149 0.50920
 C65 C 0.98299 0.68253 0.48017
 C66 C 0.97929 0.71823 0.48550
 H67 H 1.04190 0.77633 0.52330
 H68 H 0.92932 0.77314 0.52152
 H69 H 1.00207 0.72503 0.57280
 H70 H 0.97193 0.73461 0.46325
 H71 H 0.98410 0.87214 0.52526
 H72 H 0.99427 0.63365 0.50519
 C73 C 0.49650 0.03682 0.20537
 C74 C 0.49741 0.00564 0.22513
 C75 C 0.49893 -0.02611 0.20679
 C76 C 0.49971 -0.02722 0.16863
 C77 C 0.49853 0.00422 0.14886
 C78 C 0.49749 0.03643 0.16692
 C79 C 0.49773 0.00581 0.26512
 C80 C 0.46586 0.00559 0.28693
 C81 C 0.46603 0.00254 0.32510
 C82 C 0.49846 -0.00070 0.34106
 C83 C 0.53065 -0.00002 0.31931
 C84 C 0.52995 0.00352 0.28136
 H85 H 0.49469 0.06100 0.22023
 H86 H 0.49979 -0.05006 0.22241
 H87 H 0.44104 0.00669 0.27401
 H88 H 0.55451 0.00367 0.26425
 H89 H 0.49819 0.00387 0.11941
 H90 H 0.49853 -0.00266 0.37050
 C91 C 0.50245 0.03385 0.78785
 C92 C 0.48921 0.00631 0.76758
 C93 C 0.48014 -0.02561 0.78472
 C94 C 0.48664 -0.03124 0.82146
 C95 C 0.49967 -0.00313 0.84166
 C96 C 0.50658 0.02969 0.82537
 C97 C 0.48793 0.00968 0.72772
 C98 C 0.51964 0.01394 0.70593
 C99 C 0.51956 0.01420 0.66767
 C100 C 0.48715 0.01062 0.65157
 C101 C 0.45502 0.00722 0.67305
 C102 C 0.45571 0.00615 0.71133
 H103 H 0.50977 0.05820 0.77409
 H104 H 0.47032 -0.04682 0.76857
 H105 H 0.54434 0.01516 0.71908
 H106 H 0.43159 0.00189 0.72854
 H107 H 0.50300 -0.00597 0.87055
 H108 H 0.48692 0.01061 0.62204
 C109 C 0.29539 0.02231 0.46212
 H110 H 0.29229 0.04377 0.48093
 C111 C 0.32266 0.02344 0.43448
 H112 H 0.34039 0.04595 0.43225
 C113 C 0.27761 -0.03425 0.44435
 H114 H 0.26064 -0.05706 0.44911
 C115 C 0.30504 -0.03450 0.41676
 H116 H 0.30875 -0.05740 0.39999
 N117 N 0.27351 -0.00616 0.46648
 C118 C 0.19011 0.03361 0.54158
 H119 H 0.19186 0.01518 0.56373
 C120 C 0.16332 0.05792 0.54330
 H121 H 0.14540 0.05868 0.56755
 C122 C 0.21119 0.05404 0.48280
 H123 H 0.22896 0.05147 0.45868
 C124 C 0.18467 0.07876 0.48334
 H125 H 0.18268 0.09550 0.45977
 Zn126 Zn 0.24180 -0.00765 0.50860
 N127 N 0.21301 0.03175 0.51148
 C128 C 0.27354 0.01694 0.57191
 N129 N 0.27037 -0.01017 0.54863
 C130 C 0.29137 -0.03825 0.55002
 C131 C 0.31732 -0.03957 0.57511
 C132 C 0.29926 0.01675 0.59744
 C133 C 0.18813 -0.04629 0.47963
 C134 C 0.15918 -0.06942 0.47999
 C135 C 0.17525 -0.09184 0.53804
 C136 C 0.20397 -0.06819 0.53656
 N137 N 0.20958 -0.04582 0.50780
 H138 H 0.25743 0.03956 0.56948
 H139 H 0.28883 -0.05905 0.53059
 H140 H 0.33447 -0.06173 0.57507
 H141 H 0.30226 0.03942 0.61431
 H142 H 0.19267 -0.02757 0.45760
 H143 H 0.14187 -0.06877 0.45774
 H144 H 0.17048 -0.10817 0.56202
 H145 H 0.22058 -0.06648 0.55928
 C146 C 0.15957 0.08005 0.51328
 C147 C 0.32795 -0.00542 0.41162
 C148 C 0.15210 -0.09231 0.50961
 C149 C 0.32196 -0.01166 0.59890
 C150 C 0.70448 0.03701 0.54496
 H151 H 0.71790 0.06119 0.53675
 C152 C 0.67628 0.03733 0.57159
 H153 H 0.66888 0.06191 0.58368
 C154 C 0.69519 -0.02332 0.53556
 H155 H 0.70187 -0.04653 0.52031
 C156 C 0.66680 -0.02419 0.56199
 H157 H 0.65209 -0.04838 0.56739
 N158 N 0.71344 0.00695 0.52765
 C159 C 0.78720 0.06335 0.45270
 H160 H 0.77672 0.05474 0.42753
 C161 C 0.81483 0.08814 0.45160
 H162 H 0.82497 0.09913 0.42560
 C163 C 0.78959 0.05685 0.51672
 H164 H 0.78106 0.04300 0.54164
 C165 C 0.81680 0.08185 0.51697
 H166 H 0.82870 0.08720 0.54236
 Zn167 Zn 0.74548 0.00822 0.48576
 N168 N 0.77512 0.04836 0.48500
 C169 C 0.70219 0.03728 0.43554
 N170 N 0.71681 0.00711 0.44583
 C171 C 0.70552 -0.02417 0.43334
 C172 C 0.67779 -0.02597 0.41017
 C173 C 0.67486 0.03672 0.41195
 C174 C 0.78345 -0.04718 0.51511
 C175 C 0.81290 -0.06850 0.51537
 C176 C 0.82809 -0.05259 0.45234
 C177 C 0.79834 -0.03181 0.45323
 N178 N 0.77710 -0.02903 0.48444
 H179 H 0.71057 0.06167 0.44709
 H180 H 0.71682 -0.04784 0.44290
 H181 H 0.66865 -0.05112 0.40107
 H182 H 0.66285 0.06089 0.40478
 H183 H 0.76712 -0.04340 0.54007
 H184 H 0.81844 -0.08115 0.54066
 H185 H 0.84549 -0.05340 0.42764
 H186 H 0.79325 -0.01627 0.42959
 C187 C 0.83001 0.09754 0.48398
 C188 C 0.65681 0.00641 0.58020
 C189 C 0.83611 -0.07075 0.48381
 C190 C 0.66151 0.00478 0.40005
 C191 C 0.47158 0.20041 1.03007
 H192 H 0.45240 0.20338 1.00984
 C193 C 0.46773 0.17301 1.05526
 H194 H 0.44521 0.15520 1.05450
 C195 C 0.52521 0.21898 1.05416
 H196 H 0.54826 0.23617 1.05270
 C197 C 0.52248 0.19182 1.07979
 H198 H 0.54372 0.18886 1.09765
 N199 N 0.50005 0.22260 1.02982
 C200 C 0.47108 0.30921 0.96182
 H201 H 0.49267 0.30786 0.94098
 C202 C 0.44733 0.33629 0.96116
 H203 H 0.45033 0.35482 0.93883
 C204 C 0.44164 0.28634 1.01616
 H205 H 0.44025 0.26738 1.03809
 C206 C 0.41737 0.31328 1.01671
 H207 H 0.39706 0.31459 1.03894
 Zn208 Zn 0.50642 0.25465 0.99043
 N209 N 0.46811 0.28515 0.98918
 C210 C 0.48627 0.22916 0.92218
 N211 N 0.51083 0.22768 0.94743
 C212 C 0.53681 0.20380 0.94496
 C213 C 0.53810 0.17934 0.91691
 C214 C 0.48679 0.20542 0.89350
 C215 C 0.54470 0.30492 1.02510
 C216 C 0.56919 0.33217 1.02814
 C217 C 0.59736 0.31614 0.96974
 C218 C 0.57228 0.28894 0.96791
 N219 N 0.54635 0.28426 0.99516
 H220 H 0.46529 0.24770 0.92504
 H221 H 0.55579 0.20298 0.96563
 H222 H 0.55879 0.16036 0.91575
 H223 H 0.46645 0.20633 0.87421
 H224 H 0.52329 0.30110 1.04596
 H225 H 0.56671 0.34886 1.05182
 H226 H 0.61703 0.31965 0.94719
 H227 H 0.57254 0.27271 0.94393
 C228 C 0.42073 0.33930 0.98960
 C229 C 0.49348 0.16814 1.08038
 C230 C 0.59547 0.33876 0.99992
 C231 C 0.51220 0.17944 0.89127
 C232 C 0.46685 0.80021 -0.04207
 H233 H 0.44214 0.79523 -0.02607
 C234 C 0.47048 0.82923 -0.06520
 H235 H 0.44820 0.84612 -0.06717
 C236 C 0.52721 0.78676 -0.05511
 H237 H 0.54965 0.77121 -0.04952
 C238 C 0.53218 0.81592 -0.07785
 H239 H 0.55835 0.82220 -0.09031
 N240 N 0.49511 0.77990 -0.03723
 C241 C 0.44796 0.70209 0.03924
 H242 H 0.46529 0.70668 0.06101
 C243 C 0.42421 0.67382 0.04150
 H244 H 0.42255 0.65760 0.06578
 C245 C 0.43098 0.71653 -0.01983
 H246 H 0.43519 0.73202 -0.04447
 C247 C 0.40677 0.68842 -0.01868
 H248 H 0.39190 0.68299 -0.04223
 Zn249 Zn 0.49325 0.74999 0.00372
 N250 N 0.45153 0.72221 0.00860
 C251 C 0.46870 0.78688 0.06690
 N252 N 0.49731 0.77990 0.04381
 C253 C 0.52772 0.79937 0.04386
 C254 C 0.52966 0.82828 0.06650
 C255 C 0.46956 0.81551 0.09015
 C256 C 0.52965 0.69772 -0.03147
 C257 C 0.55019 0.66818 -0.03479
 C258 C 0.57157 0.68029 0.02444
 C259 C 0.55054 0.70982 0.02660
 N260 N 0.52978 0.71753 -0.00097
 H261 H 0.44443 0.77173 0.06560
 H262 H 0.54983 0.79358 0.02475
 H263 H 0.55393 0.84377 0.06553
 H264 H 0.44610 0.82167 0.10728
 H265 H 0.51217 0.70400 -0.05251
 H266 H 0.54881 0.65218 -0.05888
 H267 H 0.58652 0.67385 0.04746
 H268 H 0.54924 0.72533 0.05112
 C269 C 0.40449 0.66577 0.01154
 C270 C 0.50381 0.83788 -0.08252
 C271 C 0.57095 0.65863 -0.00640
 C272 C 0.49975 0.83745 0.08896
 C273 C 1.02679 0.47104 0.19713
 H274 H 1.00333 0.45438 0.20007
 C275 C 1.05268 0.46525 0.16899
 H276 H 1.04918 0.44379 0.15048
 C277 C 1.05882 0.52042 0.21654
 H278 H 1.06039 0.54271 0.23419
 C279 C 1.08535 0.51560 0.18876
 H280 H 1.10696 0.53449 0.18567
 N281 N 1.03024 0.49830 0.22013
 C282 C 0.95439 0.47582 0.31198
 H283 H 0.93808 0.49839 0.30997
 C284 C 0.95006 0.45439 0.34277
 H285 H 0.92993 0.46029 0.36414
 C286 C 1.00268 0.44278 0.28807
 H287 H 1.02434 0.43957 0.26767
 C288 C 0.99915 0.42050 0.31842
 H289 H 1.01819 0.40020 0.32066
 Zn290 Zn 0.99125 0.50758 0.25329
 N291 N 0.98088 0.47021 0.28591
 C292 C 0.92538 0.49294 0.22408
 N293 N 0.95296 0.51616 0.22465
 C294 C 0.95686 0.54304 0.20040
 C295 C 0.93335 0.54645 0.17303
 C296 C 0.90127 0.49534 0.19712
 C297 C 1.02896 0.53966 0.30509
 C298 C 1.03500 0.56171 0.33403
 C299 C 0.98497 0.59537 0.31862
 C300 C 0.97999 0.57264 0.28961
 N301 N 1.00155 0.54510 0.28394
 H302 H 0.92322 0.47134 0.24314
 H303 H 0.97929 0.56088 0.20129
 H304 H 0.93735 0.56784 0.15384
 H305 H 0.88032 0.47578 0.19606
 H306 H 1.04511 0.51705 0.30049
 H307 H 1.05631 0.55616 0.35124
 H308 H 0.96707 0.61666 0.32302
 H309 H 0.95787 0.57595 0.27293
 C310 C 0.97311 0.42688 0.34674
 C311 C 1.08237 0.48772 0.16438
 C312 C 1.01223 0.58929 0.34196
 C313 C 0.90593 0.52148 0.17028
 C314 C -0.00575 0.45798 0.80980
 H315 H 0.01579 0.44025 0.80478
 C316 C -0.02735 0.45521 0.84208
 H317 H -0.02252 0.43504 0.86173
 C318 C -0.03651 0.50739 0.79141
 H319 H -0.03893 0.52858 0.77237
 C320 C -0.05912 0.50526 0.82324
 H321 H -0.07881 0.52495 0.82819
 N322 N -0.01022 0.48412 0.78559
 C323 C 0.05333 0.45172 0.68892
 H324 H 0.07331 0.47235 0.68764
 C325 C 0.05350 0.42666 0.66161
 H326 H 0.07399 0.42801 0.63947
 C327 C 0.00140 0.42613 0.71854
 H328 H -0.01946 0.42678 0.74020
 C329 C 0.00043 0.40059 0.69163
 H330 H -0.02143 0.38197 0.69330
 Zn331 Zn 0.02629 0.48961 0.74808
 N332 N 0.02741 0.45116 0.71647
 C333 C 0.09028 0.46575 0.77339
 N334 N 0.06839 0.49326 0.77256
 C335 C 0.07208 0.52101 0.79487
 C336 C 0.09822 0.52157 0.81983
 C337 C 0.11637 0.46495 0.79844
 C338 C -0.01000 0.52844 0.69969
 C339 C -0.01528 0.55431 0.67401
 C340 C 0.04066 0.58110 0.68733
 C341 C 0.04488 0.55462 0.71284
 N342 N 0.01967 0.52900 0.71849
 H343 H 0.08599 0.44337 0.75644
 H344 H 0.05336 0.54184 0.79471
 H345 H 0.09949 0.54313 0.83856
 H346 H 0.13248 0.44215 0.80012
 H347 H -0.02917 0.50726 0.70404
 H348 H -0.03886 0.55310 0.65894
 H349 H 0.06168 0.60042 0.68247
 H350 H 0.06891 0.55386 0.72700
 C351 C 0.02663 0.40088 0.66238
 C352 C -0.05412 0.47923 0.84935
 C353 C 0.01022 0.58104 0.66739
 C354 C 0.12020 0.49285 0.82237
 C355 C 0.06482 0.14856 0.51115
 C356 C 0.06519 0.11638 0.52535
 C357 C 0.09751 0.09629 0.52934
 C358 C 0.12909 0.10338 0.51153
 H359 H 0.04064 0.10389 0.53584
 H360 H 0.09383 0.07292 0.54583
 H361 H 0.08950 0.16239 0.50372
 H362 H 0.13206 0.12495 0.49246
 C363 C 0.65724 0.57024 0.02452
 C364 C 0.62893 0.57948 0.00732
 C365 C 0.61360 0.61418 0.01238
 C366 C 0.58894 0.62475 -0.00931
 H367 H 0.61776 0.56180 -0.01195
 H368 H 0.62312 0.63097 0.03329
 H369 H 0.66968 0.58897 0.04183
 H370 H 0.58139 0.60743 -0.03082
 C371 C 0.91809 -0.15862 0.52414
 C372 C 0.91278 -0.12917 0.50605
 C373 C 0.87732 -0.11399 0.50691
 C374 C 0.87042 -0.08863 0.48356
 H375 H 0.93449 -0.11663 0.48975
 H376 H 0.85680 -0.12407 0.52644
 H377 H 0.89564 -0.17215 0.53825
 H378 H 0.89097 -0.08057 0.46294
 C379 C 0.35140 0.43358 0.99392
 C380 C 0.38555 0.43264 0.98152
 C381 C 0.40657 0.40078 0.97759
 C382 C 0.39706 0.36958 0.99235
 H383 H 0.39927 0.45640 0.97229
 H384 H 0.43239 0.40439 0.96337
 H385 H 0.33668 0.40960 1.00016
 H386 H 0.37258 0.36652 1.00920
 C387 C 0.93419 0.14945 0.49565
 C388 C 0.90333 0.16143 0.51006
 C389 C 0.86991 0.14105 0.51011
 C390 C 0.86181 0.12066 0.48229
 H391 H 0.90291 0.18530 0.52558
 H392 H 0.85115 0.14381 0.53351
 H393 H 0.93503 0.12368 0.48386
 H394 H 0.87901 0.12084 0.45740
 C395 C 0.34496 0.56275 0.01279
 C396 C 0.37890 0.56841 0.02008
 C397 C 0.39500 0.60326 0.02496
 C398 C 0.38395 0.63263 0.00988
 H399 H 0.39615 0.54712 0.02460
 H400 H 0.41927 0.60381 0.03889
 H401 H 0.32806 0.58507 0.01205
 H402 H 0.36198 0.63168 -0.00745
 C403 C 0.04893 -0.15218 0.52629
 C404 C 0.08106 -0.16463 0.53216
 C405 C 0.11363 -0.14265 0.53195
 C406 C 0.11924 -0.11426 0.51077
 H407 H 0.08420 -0.19147 0.53974
 H408 H 0.13447 -0.15201 0.54785
 H409 H 0.04670 -0.12430 0.52300
 H410 H 0.09937 -0.10727 0.49237
 C411 C 0.65190 0.44217 0.99900
 C412 C 0.66412 0.41429 0.98059
 C413 C 0.64293 0.38182 0.97689
 C414 C 0.61860 0.37031 1.00282
 H415 H 0.68980 0.41562 0.96569
 H416 H 0.64897 0.36683 0.95257
 H417 H 0.62474 0.44181 1.01046
 H418 H 0.61483 0.38520 1.02771
 C419 C 0.49696 0.06883 1.14469
 C420 C 0.50737 0.10023 1.15647
 C421 C 0.50922 0.13223 1.13366
 C422 C 0.49029 0.13684 1.10449
 H423 H 0.51770 0.10267 1.18307
 H424 H 0.52623 0.15299 1.14253
 H425 H 0.48988 0.06607 1.11678
 H426 H 0.47107 0.11699 1.09791
 C427 C 0.00708 0.65314 0.57182
 C428 C 0.01578 0.66289 0.60528
 C429 C 0.02196 0.63768 0.63463
 C430 C 0.00494 0.60672 0.63806
 H431 H 0.02025 0.68987 0.61184
 H432 H 0.03922 0.64627 0.65520
 H433 H 0.00620 0.62553 0.56605
 H434 H -0.01491 0.60013 0.61922
 C435 C 0.47996 0.93530 -0.16344
 C436 C 0.49470 0.92357 -0.13375
 C437 C 0.48701 0.88814 -0.11957
 C438 C 0.51085 0.87182 -0.10096
 H439 H 0.51427 0.93914 -0.12065
 H440 H 0.46193 0.87547 -0.12443
 H441 H 0.46395 0.91706 -0.17808
 H442 H 0.53679 0.88394 -0.09890
 C443 C 0.99458 0.32954 0.42980
 C444 C 0.98689 0.36293 0.42450
 C445 C 0.98536 0.37724 0.38735
 C446 C 0.97196 0.40861 0.38240
 H447 H 0.98114 0.38016 0.44720
 H448 H 0.99566 0.36222 0.36427
 H449 H 0.99712 0.31303 0.40590
 H450 H 0.96003 0.42206 0.40592
 C451 C 0.50107 0.93826 0.15078
 C452 C 0.51443 0.93345 0.11642
 C453 C 0.51696 0.89914 0.09843
 C454 C 0.49857 0.87032 0.10990
 H455 H 0.52575 0.95534 0.10068
 H456 H 0.53334 0.89861 0.07307
 H457 H 0.49259 0.91597 0.16755
 H458 H 0.47963 0.87141 0.13331
 C459 C 0.00996 0.33819 0.56294
 C460 C 0.00246 0.32643 0.59722
 C461 C 0.00449 0.34856 0.62989
 C462 C 0.02577 0.37688 0.63089
 H463 H -0.00819 0.30034 0.60192
 H464 H -0.01151 0.34009 0.65397
 H465 H 0.01710 0.36538 0.55846
 H466 H 0.04380 0.38302 0.60741
 C467 C 0.51810 0.05881 0.84847
 C468 C 0.51250 0.09230 0.84109
 C469 C 0.52040 0.11966 0.86753
 C470 C 0.50983 0.15229 0.86297
 H471 H 0.49982 0.09956 0.81673
 H472 H 0.53264 0.11232 0.89214
 H473 H 0.52905 0.05224 0.87409
 H474 H 0.49576 0.15845 0.83910
 C475 C 0.97701 0.66774 0.44400
 C476 C 0.99856 0.64421 0.42849
 C477 C 0.99280 0.62963 0.39229
 C478 C 1.01713 0.60925 0.37578
 H479 H 1.02110 0.63576 0.44262
 H480 H 0.96809 0.63450 0.38031
 H481 H 0.95594 0.67805 0.42889
 H482 H 1.04121 0.60487 0.38934
 C483 C 1.15535 0.49061 0.06310
 C484 C 1.16581 0.49402 0.09726
 C485 C 1.14094 0.49652 0.13002
 C486 C 1.10791 0.48293 0.13237
 H487 H 1.19330 0.49807 0.10228
 H488 H 1.15118 0.50930 0.15337
 H489 H 1.12718 0.48912 0.05966
 H490 H 1.09910 0.46716 0.11026
 C491 C 0.55282 0.01570 0.64379
 C492 C 0.58346 0.02935 0.65415
 C493 C 0.61659 0.03007 0.63032
 C494 C 0.62435 0.00558 0.60531
 H495 H 0.58426 0.04239 0.68012
 H496 H 0.63569 0.05054 0.63522
 H497 H 0.55162 0.00603 0.61623
 H498 H 0.60641 -0.01659 0.60339
 C499 C -0.15745 0.49681 0.93619
 C500 C -0.12270 0.49143 0.92979
 C501 C -0.10631 0.49037 0.89219
 C502 C -0.07357 0.47853 0.88575
 H503 H -0.10578 0.48734 0.95184
 H504 H -0.12102 0.49945 0.86987
 H505 H -0.17322 0.49796 0.91264
 H506 H -0.06029 0.46758 0.90825
 C507 C 0.43273 0.00159 0.34879
 C508 C 0.40463 0.02042 0.34166
 C509 C 0.37247 0.02136 0.36676
 C510 C 0.35883 -0.00687 0.38467
 H511 H 0.40632 0.03821 0.31861
 H512 H 0.35899 0.04585 0.36929
 H513 H 0.43227 -0.01312 0.37410
 H514 H 0.37031 -0.03201 0.37906
 C515 C 0.16690 0.49316 0.92913
 C516 C 0.17886 0.51355 0.90096
 C517 C 0.15934 0.51683 0.86781
 C518 C 0.14375 0.48946 0.85259
 H519 H 0.20131 0.53105 0.90370
 H520 H 0.15839 0.54240 0.85547
 H521 H 0.14205 0.47881 0.92779
 H522 H 0.14791 0.46355 0.86300
 C523 C 0.56539 -0.00177 0.33533
 C524 C 0.57015 -0.01924 0.36624
 C525 C 0.60448 -0.02068 0.38299
 C526 C 0.62967 0.00445 0.37887
 H527 H 0.54840 -0.03439 0.37946
 H528 H 0.60743 -0.04175 0.40213
 H529 H 0.58796 0.01043 0.32013
 H530 H 0.62511 0.02739 0.36279
 C531 C 0.84136 0.51578 0.07164
 C532 C 0.87419 0.52952 0.07258
 C533 C 0.89367 0.53375 0.10594
 C534 C 0.88309 0.52060 0.13904
 H535 H 0.88817 0.53872 0.04753
 H536 H 0.91939 0.54650 0.10176
 H537 H 0.82610 0.50900 0.09676
 H538 H 0.85850 0.50578 0.14288
 C539 C 0.42169 0.00354 0.65434
 C540 C 0.38966 0.01131 0.66981
 C541 C 0.35709 0.00981 0.64976
 C542 C 0.35270 -0.01191 0.62186
 H543 H 0.38723 0.02201 0.69703
 H544 H 0.33605 0.02675 0.65926
 H545 H 0.42415 -0.00372 0.62582
 H546 H 0.37274 -0.03092 0.61512
   
