data_POSCAR
  _audit_creation_date              2014-09-24
  _audit_creation_method            'ToBaCCo'
  _symmetry_space_group_name_H-M    'P1'
  _symmetry_Int_Tables_number       1
  _symmetry_cell_setting            triclinic
  loop_
  _symmetry_equiv_pos_as_xyz
 x,y,z
_cell_length_a 23.3547
_cell_length_b 23.3448
_cell_length_c 23.1766
_cell_angle_alpha 90.538700
_cell_angle_beta 89.707600
_cell_angle_gamma 89.570300
loop_
  _atom_site_label
  _atom_site_type_symbol
  _atom_site_fract_x
  _atom_site_fract_y
  _atom_site_fract_z
N1 N 0.19864 0.20690 0.21483
 N2 N -0.19161 0.81588 0.17211
 N3 N -0.17313 0.17848 -0.18877
 N4 N 0.19650 0.80923 -0.18172
 N5 N 0.18565 1.18320 0.81287
 N6 N 0.81914 0.79755 0.80409
 N7 N 0.18530 0.82320 1.18576
 N8 N 0.78444 1.20419 1.19980
 N9 N 0.54324 1.07814 1.09342
 N10 N 0.58389 1.09109 1.13116
 N11 N 0.42447 1.10612 1.03695
 N12 N 0.38433 1.14572 1.04351
 N13 N 0.42267 1.06938 1.07959
 N14 N 0.38046 1.08255 1.11578
 N15 N 0.54221 1.11605 1.05194
 N16 N 0.58069 1.15596 1.06023
 C17 C 0.60637 1.14001 1.10931
 C18 C 0.35653 1.12967 1.09193
 N19 N 0.45266 1.05891 0.87506
 N20 N 0.41031 1.05666 0.83747
 N21 N 0.56099 1.10912 0.93110
 N22 N 0.60404 1.14512 0.93391
 N23 N 0.57186 1.06765 0.89378
 N24 N 0.62251 1.07490 0.86932
 N25 N 0.44281 1.09961 0.91347
 N26 N 0.39438 1.12673 0.90266
 Mn27 Mn 0.49224 1.10799 0.98312
 C28 C 0.37509 1.09980 0.85487
 C29 C 0.64142 1.12366 0.89480
 N30 N 0.43085 0.94601 1.08504
 N31 N 0.38227 0.93803 1.11347
 N32 N 0.55695 0.91169 1.06222
 N33 N 0.60435 0.88254 1.07292
 N34 N 0.55062 0.95424 1.09935
 N35 N 0.59364 0.95547 1.13607
 N36 N 0.43802 0.90590 1.04543
 N37 N 0.39497 0.86985 1.04539
 Mn38 Mn 0.48695 1.01187 1.09030
 C39 C 0.36096 0.89013 1.08812
 C40 C 0.62614 0.91004 1.11941
 N41 N 0.58044 0.94242 0.89856
 N42 N 0.62409 0.92722 0.86457
 N43 N 0.45495 0.89997 0.92216
 N44 N 0.40725 0.87043 0.91495
 N45 N 0.46138 0.93689 0.88017
 N46 N 0.41840 0.93370 0.84378
 N47 N 0.57403 0.90482 0.93995
 N48 N 0.61252 0.86360 0.93558
 Mn49 Mn 0.51721 1.00156 0.88617
 Mn50 Mn 0.50576 0.90508 0.99253
 Cl51 Cl 0.50056 1.00656 0.98807
 C52 C 0.64395 0.87839 0.88932
 C53 C 0.38576 0.89154 0.86520
 N54 N -0.03128 0.42939 -0.10281
 N55 N -0.02814 0.38454 -0.13774
 N56 N -0.08592 0.54759 -0.07745
 N57 N -0.12011 0.59076 -0.09180
 N58 N -0.03828 0.54908 -0.10798
 N59 N -0.03901 0.59205 -0.14431
 N60 N -0.07720 0.42681 -0.06982
 N61 N -0.10709 0.38043 -0.08208
 C62 C -0.07563 0.35474 -0.12443
 C63 C -0.09011 0.61747 -0.13392
 N64 N -0.07675 0.56254 0.08911
 N65 N -0.09095 0.61029 0.11671
 N66 N -0.10045 0.43388 0.05554
 N67 N -0.13161 0.38702 0.06425
 N68 N -0.06872 0.44417 0.10110
 N69 N -0.07641 0.40576 0.14108
 N70 N -0.10939 0.55490 0.04375
 N71 N -0.14600 0.59787 0.03842
 Mn72 Mn -0.09428 0.49012 -0.01220
 C73 C -0.13428 0.63143 0.08458
 C74 C -0.11531 0.37049 0.11825
 N75 N 0.08406 0.55693 -0.08514
 N76 N 0.09507 0.60218 -0.11750
 N77 N 0.11856 0.43667 -0.03343
 N78 N 0.15089 0.38989 -0.03055
 N79 N 0.08849 0.43627 -0.08117
 N80 N 0.09944 0.38987 -0.11217
 N81 N 0.11643 0.55737 -0.03895
 N82 N 0.14968 0.60256 -0.03800
 Mn83 Mn 0.02578 0.49338 -0.09493
 C84 C 0.13645 0.62972 -0.08715
 C85 C 0.13858 0.36171 -0.08047
 N86 N 0.05004 0.45073 0.12304
 N87 N 0.05130 0.41153 0.16364
 N88 N 0.09258 0.56671 0.08155
 N89 N 0.12272 0.61386 0.08972
 N90 N 0.04443 0.56971 0.11098
 N91 N 0.04021 0.61830 0.13997
 N92 N 0.09509 0.44598 0.08923
 N93 N 0.12826 0.40312 0.10537
 Mn94 Mn -0.01288 0.50730 0.10633
 Mn95 Mn 0.10644 0.50119 0.02473
 Cl96 Cl 0.00616 0.49792 0.00585
 C97 C 0.10016 0.38241 0.15178
 C98 C 0.08935 0.64503 0.12655
 N99 N 0.88076 0.04392 0.54466
 N100 N 0.84850 0.04318 0.59148
 N101 N 0.93064 0.08163 0.42488
 N102 N 0.91677 0.11865 0.38385
 N103 N 0.89453 0.03863 0.42449
 N104 N 0.85613 0.04465 0.38374
 N105 N 0.91571 0.08788 0.54603
 N106 N 0.90793 0.11805 0.59399
 C107 C 0.86524 0.09011 0.62106
 C108 C 0.87084 0.09375 0.35798
 N109 N 1.09814 0.05437 0.45444
 N110 N 1.14100 0.06065 0.41806
 N111 N 1.03684 0.09682 0.56358
 N112 N 1.03623 0.13614 0.60516
 N113 N 1.07726 0.05855 0.57309
 N114 N 1.10609 0.07136 0.62020
 N115 N 1.05581 0.08978 0.44253
 N116 N 1.06911 0.12140 0.39720
 Mn117 Mn 0.98477 0.08999 0.49355
 C118 C 1.12246 0.10218 0.38276
 C119 C 1.07975 0.11952 0.63982
 N120 N 0.90383 -0.08260 0.42798
 N121 N 0.87590 -0.09064 0.37932
 N122 N 0.93127 -0.11730 0.55251
 N123 N 0.92886 -0.14314 0.60285
 N124 N 0.88940 -0.07965 0.54856
 N125 N 0.85706 -0.07985 0.59558
 N126 N 0.94785 -0.11767 0.43123
 N127 N 0.95141 -0.15060 0.38467
 Mn128 Mn 0.89166 -0.01992 0.48672
 C129 C 0.90591 -0.13332 0.35322
 C130 C 0.88151 -0.12072 0.62832
 N131 N 1.08642 -0.06620 0.57690
 N132 N 1.11450 -0.07246 0.62595
 N133 N 1.07041 -0.10823 0.44833
 N134 N 1.08283 -0.13540 0.39934
 N135 N 1.10720 -0.06687 0.45768
 N136 N 1.14522 -0.06461 0.41576
 N137 N 1.05125 -0.10909 0.56868
 N138 N 1.05308 -0.14492 0.61216
 Mn139 Mn 1.09260 -0.00500 0.51625
 Mn140 Mn 1.00024 -0.11381 0.49961
 Cl141 Cl 0.99235 -0.01202 0.49897
 C142 C 1.09264 -0.12173 0.64714
 C143 C 1.13025 -0.10788 0.38042
 N144 N 1.21081 0.10715 0.32783
 N145 N 1.23287 0.13378 0.28279
 C146 C 1.19089 0.16728 0.26160
 C147 C 1.14214 0.16043 0.29525
 N148 N 1.15675 0.12281 0.33617
 H149 H 1.10050 0.18050 0.29087
 N150 N 0.92949 -0.18323 0.26340
 N151 N 0.90491 -0.19654 0.21370
 C152 C 0.85078 -0.17588 0.21648
 C153 C 0.84288 -0.14933 0.26935
 N154 N 0.89290 -0.15502 0.29712
 H155 H 0.80448 -0.12947 0.28690
 N156 N 0.82483 0.06225 0.71290
 N157 N 0.81556 0.08382 0.76512
 C158 C 0.83449 0.13826 0.76430
 C159 C 0.85601 0.14956 0.71005
 N160 N 0.84869 0.10104 0.67940
 H161 H 0.87326 0.18921 0.69382
 N162 N 1.07271 -0.17857 0.73178
 N163 N 1.09915 -0.19819 0.77805
 C164 C 1.15311 -0.17807 0.77600
 C165 C 1.15885 -0.14495 0.72704
 N166 N 1.10766 -0.14632 0.70113
 H167 H 1.19654 -0.12422 0.71011
 N168 N 0.30700 1.21979 1.10826
 N169 N 0.26588 1.24222 1.14097
 C170 C 0.24553 1.19972 1.17416
 C171 C 0.27619 1.15009 1.16105
 N172 N 0.31387 1.16476 1.11960
 H173 H 0.27115 1.10762 1.17858
 N174 N 0.29985 0.91916 0.81463
 N175 N 0.24856 0.89923 0.80192
 C176 C 0.24545 0.84630 0.82443
 C177 C 0.29667 0.83448 0.85214
 N178 N 0.32921 0.88113 0.84465
 H179 H 0.30975 0.79586 0.87408
 N180 N 0.70973 0.93185 1.17765
 N181 N 0.75939 0.90828 1.19194
 C182 C 0.76139 0.85604 1.16649
 C183 C 0.71127 0.84831 1.13596
 N184 N 0.68045 0.89656 1.14415
 H185 H 0.69773 0.81143 1.11111
 N186 N 0.72405 1.17931 0.92384
 N187 N 0.77455 1.19467 0.90307
 C188 C 0.77861 1.17177 0.84954
 C189 C 0.72922 1.14158 0.83818
 N190 N 0.69667 1.14735 0.88559
 H191 H 0.71707 1.11901 0.79919
 N192 N 0.10741 0.32661 0.23949
 N193 N 0.13363 0.27981 0.25800
 C194 C 0.16307 0.25769 0.21259
 C195 C 0.15429 0.29255 0.16564
 N196 N 0.11972 0.33489 0.18446
 H197 H 0.17010 0.28761 0.12191
 N198 N -0.05456 0.27187 -0.18551
 N199 N -0.07927 0.22407 -0.20355
 C200 C -0.13216 0.22365 -0.17987
 C201 C -0.13922 0.27281 -0.14670
 N202 N -0.08977 0.30140 -0.15135
 H203 H -0.17642 0.28735 -0.12259
 N204 N 0.19299 0.71326 -0.06492
 N205 N 0.21010 0.76168 -0.08839
 C206 C 0.18809 0.76281 -0.14197
 C207 C 0.15645 0.71340 -0.15071
 N208 N 0.16080 0.68385 -0.10139
 H209 H 0.13355 0.69975 -0.18884
 N210 N -0.19183 0.71443 0.05754
 N211 N -0.20758 0.76483 0.07949
 C212 C -0.18593 0.76744 0.13333
 C213 C -0.15643 0.71724 0.14375
 N214 N -0.16111 0.68558 0.09550
 H215 H -0.13387 0.70458 0.18231
 N216 N 1.06370 0.18501 0.72162
 N217 N 1.09080 0.20241 0.76881
 C218 C 1.14279 0.17658 0.76825
 C219 C 1.14656 0.14277 0.71898
 N220 N 1.09649 0.14911 0.69143
 H221 H 1.18191 0.11655 0.70365
 N222 N 0.91132 -0.11953 0.72765
 N223 N 0.89443 -0.13993 0.77788
 C224 C 0.84060 -0.15959 0.77094
 C225 C 0.82551 -0.15127 0.71380
 N226 N 0.87073 -0.12604 0.68867
 H227 H 0.78941 -0.16947 0.69116
 N228 N 1.18840 -0.07613 0.30045
 N229 N 1.20372 -0.09251 0.24777
 C230 C 1.17962 -0.14400 0.23852
 C231 C 1.14854 -0.15870 0.28719
 N232 N 1.15537 -0.11513 0.32458
 H233 H 1.12394 -0.19697 0.29505
 N234 N 0.77946 0.10589 0.31177
 N235 N 0.75484 0.13410 0.26931
 C236 C 0.79518 0.16732 0.24496
 C237 C 0.84628 0.15839 0.27525
 N238 N 0.83398 0.12001 0.31644
 H239 H 0.88849 0.17536 0.26723
 N240 N 0.18936 0.27184 -0.06197
 N241 N 0.20157 0.22294 -0.08911
 C242 C 0.17920 0.22671 -0.14263
 C243 C 0.15290 0.27954 -0.14750
 N244 N 0.16037 0.30628 -0.09638
 H245 H 0.13160 0.29749 -0.18462
 N246 N -0.11387 0.31174 0.20230
 N247 N -0.13923 0.26743 0.22599
 C248 C -0.17831 0.24826 0.18808
 C249 C -0.17568 0.28331 0.13917
 N250 N -0.13492 0.32227 0.15053
 H251 H -0.19989 0.28091 0.09958
 N252 N -0.07743 0.69009 -0.20590
 N253 N -0.10037 0.73878 -0.22326
 C254 C -0.14734 0.74899 -0.19028
 C255 C -0.15237 0.70371 -0.15157
 N256 N -0.10772 0.66835 -0.16317
 H257 H -0.18262 0.69774 -0.11678
 N258 N 0.06408 0.73493 0.17321
 N259 N 0.08805 0.78358 0.18952
 C260 C 0.14337 0.78018 0.17286
 C261 C 0.15278 0.72810 0.14551
 N262 N 0.10211 0.70132 0.14687
 H263 H 0.19250 0.71050 0.12852
 N264 N 0.28997 1.07232 0.80126
 N265 N 0.23809 1.09284 0.79034
 C266 C 0.23524 1.14576 0.81426
 C267 C 0.28697 1.15696 0.84044
 N268 N 0.31974 1.11025 0.83117
 H269 H 0.29985 1.19501 0.86389
 N270 N 0.27850 0.83189 1.06550
 N271 N 0.23106 0.81312 1.09014
 C272 C 0.22989 0.83498 1.14422
 C273 C 0.27825 0.86822 1.15195
 N274 N 0.30703 0.86512 1.10171
 H275 H 0.29276 0.89053 1.19017
 N276 N 0.66091 1.22657 1.11982
 N277 N 0.70944 1.24506 1.14203
 C278 C 0.73338 1.20076 1.17036
 C279 C 0.69665 1.15402 1.16516
 N280 N 0.65219 1.17245 1.13350
 H281 H 0.70292 1.11034 1.17912
 N282 N 0.69255 0.78712 0.88187
 N283 N 0.73951 0.76345 0.85991
 C284 C 0.76635 0.80434 0.82964
 C285 C 0.73324 0.85430 0.83292
 N286 N 0.68791 0.84139 0.86642
 H287 H 0.74270 0.89617 0.81577
   
