data_POSCAR
  _audit_creation_date              2014-09-24
  _audit_creation_method            'ToBaCCo'
  _symmetry_space_group_name_H-M    'P1'
  _symmetry_Int_Tables_number       1
  _symmetry_cell_setting            triclinic
  loop_
  _symmetry_equiv_pos_as_xyz
 x,y,z
_cell_length_a 54.7418
_cell_length_b 27.4830
_cell_length_c 21.7528
_cell_angle_alpha 89.702800
_cell_angle_beta 89.960800
_cell_angle_gamma 89.803000
loop_
  _atom_site_label
  _atom_site_type_symbol
  _atom_site_fract_x
  _atom_site_fract_y
  _atom_site_fract_z
O1 O 0.76769 0.20986 0.56007
 O2 O 0.72213 0.24746 0.44319
 O3 O 0.76408 0.20277 0.44085
 O4 O 0.72413 0.24916 0.56206
 O5 O 0.74126 0.32153 0.55528
 O6 O 0.78287 0.27344 0.43549
 O7 O 0.74057 0.31843 0.43503
 O8 O 0.78470 0.28235 0.55315
 Cu9 Cu 0.74276 0.22016 0.50237
 Cu10 Cu 0.76401 0.30620 0.49392
 C11 C 0.78417 0.23985 0.57602
 C12 C 0.72370 0.28961 0.41908
 C13 C 0.78063 0.22953 0.41791
 C14 C 0.72547 0.29315 0.57894
 O15 O 0.23997 0.82603 0.55693
 O16 O 0.28631 0.78846 0.44556
 O17 O 0.24264 0.82706 0.43707
 O18 O 0.28204 0.78175 0.56350
 O19 O 0.26403 0.71025 0.55760
 O20 O 0.22569 0.75457 0.43137
 O21 O 0.26926 0.71604 0.43871
 O22 O 0.22190 0.75477 0.55027
 Cu23 Cu 0.26440 0.81308 0.50131
 Cu24 Cu 0.24349 0.72674 0.49380
 C25 C 0.22294 0.79739 0.57284
 C26 C 0.28608 0.74576 0.42383
 C27 C 0.22725 0.79827 0.41289
 C28 C 0.27978 0.73793 0.58180
 O29 O 0.26310 0.30003 -0.56333
 O30 O 0.21844 0.26309 -0.44263
 O31 O 0.26045 0.30702 -0.44410
 O32 O 0.21769 0.26925 -0.56179
 O33 O 0.23322 0.19524 -0.56265
 O34 O 0.27693 0.23371 -0.44113
 O35 O 0.23493 0.18974 -0.44282
 O36 O 0.27852 0.22595 -0.56023
 Cu37 Cu 0.23834 0.29200 -0.50338
 Cu38 Cu 0.25747 0.20400 -0.50178
 C39 C 0.27887 0.26890 -0.58151
 C40 C 0.21938 0.21959 -0.42199
 C41 C 0.27587 0.27743 -0.42183
 C42 C 0.21750 0.22614 -0.58199
 O43 O -0.21830 0.72212 -0.45052
 O44 O -0.26657 0.69397 -0.56270
 O45 O -0.22265 0.73243 -0.56779
 O46 O -0.26131 0.68239 -0.44458
 O47 O -0.27753 0.75504 -0.43032
 O48 O -0.23945 0.80466 -0.55523
 O49 O -0.28316 0.76616 -0.54747
 O50 O -0.23458 0.79480 -0.43661
 Cu51 Cu -0.24064 0.70043 -0.50814
 Cu52 Cu -0.26029 0.78749 -0.49122
 C53 C -0.21812 0.76347 -0.42466
 C54 C -0.28343 0.72484 -0.57328
 C55 C -0.22399 0.77729 -0.58192
 C56 C -0.27608 0.71016 -0.41637
 O57 O -0.03219 0.90858 0.11769
 O58 O -0.06045 0.95507 0.06590
 C59 C -0.05450 0.92234 0.10646
 O60 O 0.03749 1.07936 0.10453
 O61 O 0.06216 1.03302 0.04286
 C62 C 0.05885 1.06541 0.08510
 O63 O -0.03067 1.07923 0.12070
 O64 O -0.05965 1.03650 0.06757
 C65 C -0.05318 1.06792 0.10883
 O66 O 0.03599 0.90270 0.09976
 O67 O 0.06160 0.95023 0.04145
 C68 C 0.05758 0.91598 0.08152
 Zr69 Zr 0.00118 0.93142 0.07723
 O70 O 0.00620 0.92711 0.17358
 O71 O -0.00052 0.85491 0.06914
 Zr72 Zr 0.00210 1.05462 0.07977
 O73 O 0.00726 1.05345 0.17621
 O74 O 0.00024 1.13161 0.07988
 O75 O -0.01969 0.99349 0.09500
 O76 O 0.02301 0.99215 0.08581
 O77 O 0.02985 0.90611 -0.11340
 O78 O 0.05839 0.95201 -0.06315
 C79 C 0.05225 0.91898 -0.10251
 O80 O -0.03809 1.08041 -0.10276
 O81 O -0.06334 1.03632 -0.03954
 C82 C -0.05962 1.06750 -0.08346
 O83 O 0.03042 1.08525 -0.10897
 O84 O 0.05885 1.03696 -0.06072
 C85 C 0.05278 1.07194 -0.09815
 O86 O -0.03838 0.91291 -0.10648
 O87 O -0.06326 0.95639 -0.04199
 C88 C -0.05979 0.92611 -0.08677
 Zr89 Zr -0.00322 0.93412 -0.07679
 O90 O -0.00339 0.93476 -0.17410
 O91 O -0.00595 0.85730 -0.07559
 Zr92 Zr -0.00278 1.05719 -0.07460
 O93 O -0.00270 1.05877 -0.17193
 O94 O -0.00547 1.13403 -0.07276
 Zr95 Zr -0.03700 0.99543 0.00854
 Zr96 Zr 0.03571 0.99355 -0.00557
 O97 O 0.01783 0.99545 -0.09116
 O98 O -0.02501 0.99635 -0.08362
 O99 O 0.02086 0.92294 -0.00401
 O100 O -0.02153 1.06538 0.00681
 O101 O -0.02246 0.92460 0.00408
 O102 O 0.02155 1.06492 -0.00144
 H103 H 0.03480 0.99101 0.12031
 H104 H -0.03244 1.09417 0.00892
 H105 H 0.02773 0.99599 -0.12930
 H106 H -0.03374 0.89648 0.00542
 H107 H 0.01433 1.14396 0.05607
 H108 H 0.00840 1.14617 -0.04820
 H109 H -0.01689 1.03970 -0.18606
 H110 H -0.01660 0.95705 -0.18746
 H111 H 0.00736 0.84474 -0.04906
 H112 H 0.00062 0.84178 0.11155
 H113 H -0.00551 0.95007 0.19250
 H114 H -0.00583 1.03311 0.19417
 O115 O 0.53221 0.40959 -0.11591
 O116 O 0.55937 0.45025 -0.05494
 C117 C 0.55426 0.42014 -0.09883
 O118 O 0.46723 0.58863 -0.11199
 O119 O 0.43869 0.54287 -0.06085
 C120 C 0.44482 0.57717 -0.09900
 O121 O 0.53524 0.57956 -0.11181
 O122 O 0.56098 0.53201 -0.05362
 C123 C 0.55685 0.56527 -0.09504
 O124 O 0.46439 0.40872 -0.11343
 O125 O 0.43738 0.45739 -0.06144
 C126 C 0.44242 0.42270 -0.09984
 Zr127 Zr 0.49827 0.43453 -0.08202
 O128 O 0.49686 0.43269 -0.17920
 O129 O 0.49826 0.35777 -0.07510
 Zr130 Zr 0.50044 0.55731 -0.08139
 O131 O 0.49897 0.55633 -0.17868
 O132 O 0.50434 0.63389 -0.08259
 O133 O 0.52130 0.49436 -0.09237
 O134 O 0.47827 0.49766 -0.09503
 O135 O 0.46077 0.40976 0.10035
 O136 O 0.43586 0.45932 0.04265
 C137 C 0.43933 0.42593 0.08396
 O138 O 0.53290 0.57543 0.11244
 O139 O 0.55941 0.53034 0.05416
 C140 C 0.55479 0.56086 0.09781
 O141 O 0.46418 0.58479 0.10167
 O142 O 0.43741 0.54172 0.04209
 C143 C 0.44219 0.57360 0.08401
 O144 O 0.52938 0.40745 0.11051
 O145 O 0.55793 0.44954 0.05442
 C146 C 0.55180 0.41867 0.09704
 Zr147 Zr 0.49617 0.43309 0.07217
 O148 O 0.49250 0.43002 0.16896
 O149 O 0.49686 0.35615 0.06774
 Zr150 Zr 0.49859 0.55624 0.07343
 O151 O 0.49485 0.55773 0.17024
 O152 O 0.50273 0.63284 0.07130
 Zr153 Zr 0.53495 0.49238 -0.00184
 Zr154 Zr 0.46198 0.49840 -0.00759
 O155 O 0.47621 0.49638 0.08242
 O156 O 0.51895 0.49273 0.08653
 O157 O 0.47510 0.42632 -0.00679
 O158 O 0.52099 0.56387 -0.00221
 O159 O 0.51857 0.42330 -0.00335
 O160 O 0.47785 0.56818 -0.00555
 H161 H 0.46765 0.49864 -0.13189
 H162 H 0.53250 0.59158 -0.00067
 H163 H 0.46506 0.49708 0.11830
 H164 H 0.52923 0.39408 -0.00276
 H165 H 0.49217 0.64735 -0.05363
 H166 H 0.48804 0.64684 0.05142
 H167 H 0.50669 0.53407 0.18744
 H168 H 0.50490 0.45201 0.18649
 H169 H 0.48324 0.34604 0.04080
 H170 H 0.49869 0.34543 -0.11782
 H171 H 0.50890 0.45655 -0.19459
 H172 H 0.51374 0.53920 -0.19359
 C173 C 0.33511 0.25974 0.32345
 C174 C 0.33698 0.30669 0.29735
 C175 C 0.31764 0.34003 0.30843
 C176 C 0.29830 0.32771 0.34835
 C177 C 0.29728 0.28147 0.37607
 C178 C 0.31565 0.24746 0.36165
 C179 C 0.31780 0.38557 0.27985
 C180 C 0.33659 0.39862 0.24005
 C181 C 0.35657 0.36715 0.22895
 C182 C 0.35728 0.32135 0.26026
 C183 C 0.37861 0.29250 0.25532
 C184 C 0.39845 0.30753 0.22031
 C185 C 0.39759 0.35099 0.18711
 C186 C 0.37633 0.38068 0.18936
 C187 C 0.37572 0.42259 0.15150
 C188 C 0.39584 0.43571 0.11588
 C189 C 0.41741 0.40803 0.11695
 C190 C 0.41802 0.36522 0.15214
 H191 H 0.34816 0.23123 0.31436
 H192 H 0.28407 0.35422 0.35764
 H193 H 0.31540 0.21101 0.38086
 H194 H 0.30314 0.41136 0.28800
 H195 H 0.33542 0.43466 0.22050
 H196 H 0.38098 0.25883 0.28020
 H197 H 0.41462 0.28468 0.21901
 H198 H 0.35983 0.44569 0.14770
 H199 H 0.39461 0.46855 0.08841
 H200 H 0.43443 0.34300 0.15246
 C201 C -0.19266 0.86605 0.31508
 C202 C -0.17243 0.83873 0.29362
 C203 C -0.17030 0.78977 0.31373
 C204 C -0.18813 0.76901 0.35206
 C205 C -0.20775 0.79692 0.37442
 C206 C -0.20979 0.84560 0.35514
 C207 C -0.15004 0.76198 0.29684
 C208 C -0.13121 0.78229 0.26266
 C209 C -0.13226 0.83107 0.24222
 C210 C -0.15386 0.85877 0.25474
 C211 C -0.15627 0.90526 0.22745
 C212 C -0.13781 0.92482 0.19124
 C213 C -0.11589 0.89976 0.18255
 C214 C -0.11259 0.85288 0.20879
 C215 C -0.08946 0.83033 0.20180
 C216 C -0.07071 0.85310 0.16911
 C217 C -0.07439 0.89870 0.14158
 C218 C -0.09713 0.92164 0.14819
 H219 H -0.19523 0.90396 0.30384
 H220 H -0.18597 0.73146 0.36677
 H221 H -0.22458 0.86842 0.37152
 H222 H -0.14842 0.72434 0.31149
 H223 H -0.11623 0.75834 0.25160
 H224 H -0.17259 0.92700 0.23185
 H225 H -0.14056 0.96040 0.17072
 H226 H -0.08502 0.79574 0.22257
 H227 H -0.05327 0.83465 0.16503
 H228 H -0.10010 0.95715 0.12767
 C229 C 0.65439 0.72593 0.35041
 C230 C 0.65505 0.68339 0.31398
 C231 C 0.67726 0.65666 0.31230
 C232 C 0.69730 0.67066 0.34837
 C233 C 0.69603 0.71198 0.38567
 C234 C 0.67455 0.73985 0.38545
 C235 C 0.67934 0.61572 0.27515
 C236 C 0.65996 0.60076 0.23890
 C237 C 0.63735 0.62570 0.23927
 C238 C 0.63456 0.66661 0.27911
 C239 C 0.61123 0.68843 0.28401
 C240 C 0.59140 0.67136 0.25065
 C241 C 0.59408 0.63284 0.20969
 C242 C 0.61723 0.61024 0.20230
 C243 C 0.61936 0.57340 0.15748
 C244 C 0.59921 0.55853 0.12349
 C245 C 0.57606 0.57921 0.13297
 C246 C 0.57369 0.61677 0.17599
 H247 H 0.63867 0.74956 0.35245
 H248 H 0.71394 0.64915 0.34750
 H249 H 0.67309 0.77221 0.41346
 H250 H 0.69622 0.59497 0.27394
 H251 H 0.66309 0.56831 0.21246
 H252 H 0.60747 0.71807 0.31484
 H253 H 0.57378 0.68882 0.25668
 H254 H 0.63645 0.55596 0.14645
 H255 H 0.60190 0.53037 0.08956
 H256 H 0.55602 0.63380 0.18302
 C257 C 0.16072 1.23315 0.32521
 C258 C 0.15985 1.18701 0.29728
 C259 C 0.18009 1.15533 0.30565
 C260 C 0.19921 1.16785 0.34595
 C261 C 0.19926 1.21320 0.37559
 C262 C 0.18011 1.24602 0.36296
 C263 C 0.18105 1.11139 0.27379
 C264 C 0.16249 1.09858 0.23326
 C265 C 0.14156 1.12822 0.22551
 C266 C 0.13966 1.17174 0.26073
 C267 C 0.11728 1.19748 0.26045
 C268 C 0.09748 1.18153 0.22628
 C269 C 0.09952 1.14071 0.18888
 C270 C 0.12192 1.11469 0.18591
 C271 C 0.12377 1.07653 0.14288
 C272 C 0.10365 1.06272 0.10776
 C273 C 0.08086 1.08538 0.11547
 C274 C 0.07913 1.12529 0.15506
 H275 H 0.14694 1.26064 0.31753
 H276 H 0.21413 1.14247 0.35355
 H277 H 0.17962 1.28181 0.38362
 H278 H 0.19643 1.08688 0.27968
 H279 H 0.16445 1.06391 0.21075
 H280 H 0.11408 1.22887 0.28890
 H281 H 0.08043 1.20159 0.22890
 H282 H 0.14068 1.05738 0.13456
 H283 H 0.10590 1.03341 0.07529
 H284 H 0.06184 1.14422 0.16001
 C285 C 0.69503 0.37021 -0.29824
 C286 C 0.67298 0.34457 -0.28744
 C287 C 0.66873 0.30207 -0.32244
 C288 C 0.68622 0.28533 -0.36439
 C289 C 0.70789 0.31105 -0.37463
 C290 C 0.71208 0.35378 -0.34155
 C291 C 0.64692 0.27658 -0.31614
 C292 C 0.62860 0.29340 -0.27768
 C293 C 0.63164 0.33598 -0.24258
 C294 C 0.65471 0.36027 -0.24466
 C295 C 0.65881 0.39880 -0.20330
 C296 C 0.64057 0.41463 -0.16349
 C297 C 0.61726 0.39430 -0.16522
 C298 C 0.61241 0.35485 -0.20509
 C299 C 0.58824 0.33692 -0.20732
 C300 C 0.56976 0.35755 -0.17188
 C301 C 0.57460 0.39648 -0.13244
 C302 C 0.59859 0.41394 -0.12829
 H303 H 0.69927 0.40382 -0.27533
 H304 H 0.68258 0.25264 -0.39052
 H305 H 0.72861 0.37454 -0.34904
 H306 H 0.64375 0.24368 -0.34220
 H307 H 0.61239 0.27137 -0.27535
 H308 H 0.67623 0.41672 -0.19957
 H309 H 0.64462 0.44382 -0.13188
 H310 H 0.58271 0.30826 -0.23785
 H311 H 0.55144 0.34319 -0.17618
 H312 H 0.60260 0.44397 -0.09791
 C313 C 0.18999 0.87643 -0.31621
 C314 C 0.16932 0.84822 -0.30064
 C315 C 0.16676 0.80229 -0.32929
 C316 C 0.18479 0.78492 -0.36993
 C317 C 0.20523 0.81347 -0.38487
 C318 C 0.20744 0.85943 -0.35754
 C319 C 0.14606 0.77418 -0.31790
 C320 C 0.12742 0.79121 -0.28015
 C321 C 0.12905 0.83678 -0.25074
 C322 C 0.15087 0.86465 -0.25892
 C323 C 0.15365 0.90777 -0.22463
 C324 C 0.13536 0.92437 -0.18591
 C325 C 0.11338 0.89934 -0.18048
 C326 C 0.10973 0.85535 -0.21296
 C327 C 0.08663 0.83259 -0.20731
 C328 C 0.06813 0.85286 -0.17108
 C329 C 0.07206 0.89603 -0.13870
 C330 C 0.09488 0.91871 -0.14322
 H331 H 0.19294 0.91252 -0.29871
 H332 H 0.18251 0.74955 -0.39100
 H333 H 0.22279 0.88285 -0.36806
 H334 H 0.14401 0.73889 -0.33929
 H335 H 0.11210 0.76721 -0.27395
 H336 H 0.17007 0.92922 -0.22563
 H337 H 0.13834 0.95769 -0.16058
 H338 H 0.08200 0.79985 -0.23163
 H339 H 0.05062 0.83469 -0.16868
 H340 H 0.09807 0.95252 -0.11909
 C341 C 0.30722 0.65199 -0.30046
 C342 C 0.32919 0.67563 -0.28401
 C343 C 0.33391 0.72178 -0.31102
 C344 C 0.31727 0.74287 -0.35259
 C345 C 0.29601 0.71819 -0.36964
 C346 C 0.29107 0.67288 -0.34267
 C347 C 0.35549 0.74624 -0.29760
 C348 C 0.37312 0.72508 -0.26016
 C349 C 0.36975 0.67851 -0.23381
 C350 C 0.34694 0.65442 -0.24349
 C351 C 0.34273 0.60985 -0.21265
 C352 C 0.36058 0.58829 -0.17616
 C353 C 0.38346 0.60970 -0.16960
 C354 C 0.38844 0.65509 -0.19830
 C355 C 0.41227 0.67431 -0.19187
 C356 C 0.43024 0.64929 -0.15897
 C357 C 0.42518 0.60454 -0.13075
 C358 C 0.40158 0.58533 -0.13546
 H359 H 0.30227 0.61659 -0.28318
 H360 H 0.32138 0.77782 -0.37347
 H361 H 0.27476 0.65297 -0.35494
 H362 H 0.35905 0.78182 -0.31734
 H363 H 0.38921 0.74659 -0.25232
 H364 H 0.32565 0.59068 -0.21528
 H365 H 0.35656 0.55387 -0.15383
 H366 H 0.41792 0.70787 -0.21319
 H367 H 0.44832 0.66504 -0.15605
 H368 H 0.39751 0.55048 -0.11430
 C369 C -0.15606 1.23918 -0.33756
 C370 C -0.15751 1.19630 -0.30155
 C371 C -0.17961 1.16952 -0.30337
 C372 C -0.19868 1.18365 -0.34310
 C373 C -0.19648 1.22533 -0.38004
 C374 C -0.17520 1.25327 -0.37590
 C375 C -0.18249 1.12865 -0.26583
 C376 C -0.16396 1.11371 -0.22628
 C377 C -0.14136 1.13832 -0.22407
 C378 C -0.13782 1.17931 -0.26387
 C379 C -0.11447 1.20093 -0.26636
 C380 C -0.09524 1.18339 -0.23110
 C381 C -0.09858 1.14450 -0.19071
 C382 C -0.12182 1.12226 -0.18511
 C383 C -0.12444 1.08484 -0.14063
 C384 C -0.10449 1.06857 -0.10612
 C385 C -0.08122 1.08854 -0.11500
 C386 C -0.07857 1.12727 -0.15655
 H387 H -0.14055 1.26315 -0.33662
 H388 H -0.21527 1.16225 -0.34510
 H389 H -0.17308 1.28602 -0.40329
 H390 H -0.19932 1.10800 -0.26687
 H391 H -0.16760 1.08146 -0.19950
 H392 H -0.11009 1.23049 -0.29708
 H393 H -0.07751 1.20050 -0.23562
 H394 H -0.14170 1.06769 -0.13094
 H395 H -0.10727 1.03954 -0.07312
 H396 H -0.06080 1.14385 -0.16293
 C397 C 0.69434 0.62191 -0.30471
 C398 C 0.67439 0.64932 -0.28175
 C399 C 0.67176 0.69798 -0.30287
 C400 C 0.68850 0.71796 -0.34471
 C401 C 0.70775 0.68995 -0.36812
 C402 C 0.71061 0.64193 -0.34735
 C403 C 0.65214 0.72631 -0.28327
 C404 C 0.63420 0.70676 -0.24566
 C405 C 0.63539 0.65795 -0.22529
 C406 C 0.65651 0.62970 -0.24051
 C407 C 0.65896 0.58288 -0.21411
 C408 C 0.64078 0.56328 -0.17696
 C409 C 0.61916 0.58876 -0.16606
 C410 C 0.61609 0.63643 -0.19030
 C411 C 0.59340 0.65989 -0.18060
 C412 C 0.57462 0.63678 -0.14885
 C413 C 0.57773 0.58979 -0.12487
 C414 C 0.60028 0.56633 -0.13243
 H415 H 0.69743 0.58438 -0.29234
 H416 H 0.68598 0.75509 -0.36068
 H417 H 0.72531 0.61939 -0.36477
 H418 H 0.65030 0.76382 -0.29833
 H419 H 0.61973 0.73124 -0.23261
 H420 H 0.67496 0.56056 -0.22063
 H421 H 0.64344 0.52723 -0.15786
 H422 H 0.58914 0.69537 -0.19898
 H423 H 0.55739 0.65583 -0.14351
 H424 H 0.60277 0.52986 -0.11441
 C425 C 0.19118 1.14053 -0.29875
 C426 C 0.16869 1.16405 -0.28656
 C427 C 0.16358 1.20796 -0.31886
 C428 C 0.18048 1.22718 -0.36126
 C429 C 0.20234 1.20254 -0.37371
 C430 C 0.20755 1.15942 -0.34161
 C431 C 0.14141 1.23191 -0.30973
 C432 C 0.12369 1.21234 -0.27126
 C433 C 0.12756 1.16800 -0.23947
 C434 C 0.15084 1.14464 -0.24507
 C435 C 0.15545 1.10254 -0.20928
 C436 C 0.13758 1.08240 -0.17186
 C437 C 0.11430 1.10286 -0.16899
 C438 C 0.10891 1.14604 -0.20247
 C439 C 0.08480 1.16458 -0.19888
 C440 C 0.06694 1.14088 -0.16431
 C441 C 0.07235 1.09807 -0.13171
 C442 C 0.09624 1.07971 -0.13352
 H443 H 0.19648 1.10666 -0.27747
 H444 H 0.17621 1.26042 -0.38616
 H445 H 0.22435 1.13963 -0.35012
 H446 H 0.13749 1.26577 -0.33360
 H447 H 0.10711 1.23325 -0.26712
 H448 H 0.17287 1.08426 -0.20861
 H449 H 0.14194 1.04987 -0.14564
 H450 H 0.07888 1.19658 -0.22349
 H451 H 0.04866 1.15611 -0.16372
 H452 H 0.10067 1.04652 -0.10871
 C453 C 0.30442 0.35940 -0.30323
 C454 C 0.32599 0.33411 -0.28663
 C455 C 0.33022 0.28807 -0.31411
 C456 C 0.31350 0.26872 -0.35652
 C457 C 0.29264 0.29508 -0.37356
 C458 C 0.28820 0.34021 -0.34592
 C459 C 0.35137 0.26198 -0.30016
 C460 C 0.36902 0.28136 -0.26171
 C461 C 0.36614 0.32781 -0.23503
 C462 C 0.34379 0.35364 -0.24543
 C463 C 0.34011 0.39831 -0.21478
 C464 C 0.35811 0.41844 -0.17800
 C465 C 0.38060 0.39530 -0.17065
 C466 C 0.38495 0.34955 -0.19875
 C467 C 0.40831 0.32825 -0.19103
 C468 C 0.42652 0.35179 -0.15801
 C469 C 0.42221 0.39717 -0.13095
 C470 C 0.39901 0.41832 -0.13641
 H471 H 0.29978 0.39475 -0.28555
 H472 H 0.31716 0.23383 -0.37774
 H473 H 0.27214 0.36138 -0.35789
 H474 H 0.35457 0.22647 -0.32018
 H475 H 0.38476 0.25864 -0.25362
 H476 H 0.32337 0.41882 -0.21796
 H477 H 0.35454 0.45309 -0.15607
 H478 H 0.41346 0.29409 -0.21134
 H479 H 0.44424 0.33437 -0.15422
 H480 H 0.39551 0.45355 -0.11592
 C481 C -0.15720 0.76107 -0.34284
 C482 C -0.15869 0.80216 -0.30396
 C483 C -0.18109 0.82823 -0.30260
 C484 C -0.20043 0.81529 -0.34161
 C485 C -0.19824 0.77560 -0.38142
 C486 C -0.17666 0.74814 -0.38071
 C487 C -0.18402 0.86740 -0.26278
 C488 C -0.16520 0.88155 -0.22411
 C489 C -0.14230 0.85774 -0.22484
 C490 C -0.13879 0.81825 -0.26666
 C491 C -0.11528 0.79729 -0.27140
 C492 C -0.09586 0.81425 -0.23675
 C493 C -0.09912 0.85185 -0.19479
 C494 C -0.12250 0.87324 -0.18676
 C495 C -0.12499 0.90932 -0.14089
 C496 C -0.10483 0.92515 -0.10723
 C497 C -0.08150 0.90602 -0.11827
 C498 C -0.07893 0.86860 -0.16137
 H499 H -0.14136 0.73777 -0.34474
 H500 H -0.21725 0.83625 -0.34095
 H501 H -0.17459 0.71691 -0.41047
 H502 H -0.20111 0.88744 -0.26148
 H503 H -0.16895 0.91260 -0.19557
 H504 H -0.11098 0.76868 -0.30330
 H505 H -0.07802 0.79772 -0.24300
 H506 H -0.14228 0.92576 -0.12939
 H507 H -0.10755 0.95305 -0.07298
 H508 H -0.06109 0.85260 -0.16946
 C509 C 0.34780 0.74119 0.34633
 C510 C 0.34567 0.70101 0.30634
 C511 C 0.32272 0.67722 0.30341
 C512 C 0.30336 0.69149 0.34198
 C513 C 0.30608 0.73067 0.38228
 C514 C 0.32832 0.75570 0.38331
 C515 C 0.31923 0.63929 0.26208
 C516 C 0.33790 0.62463 0.22299
 C517 C 0.36121 0.64646 0.22496
 C518 C 0.36542 0.68395 0.26901
 C519 C 0.38940 0.70202 0.27569
 C520 C 0.40859 0.68434 0.24041
 C521 C 0.40461 0.64910 0.19573
 C522 C 0.38074 0.63078 0.18594
 C523 C 0.37744 0.59755 0.13725
 C524 C 0.39724 0.58095 0.10280
 C525 C 0.42108 0.59640 0.11571
 C526 C 0.42451 0.63148 0.16141
 H527 H 0.36412 0.76283 0.34938
 H528 H 0.28606 0.67245 0.34010
 H529 H 0.33085 0.78642 0.41363
 H530 H 0.30178 0.62086 0.25963
 H531 H 0.33373 0.59464 0.19312
 H532 H 0.39421 0.72868 0.30969
 H533 H 0.42678 0.69852 0.24820
 H534 H 0.35975 0.58405 0.12413
 H535 H 0.39381 0.55507 0.06650
 H536 H 0.44276 0.64462 0.17110
 C537 C -0.19087 1.14220 0.30900
 C538 C -0.16921 1.16649 0.29156
 C539 C -0.16485 1.21309 0.31695
 C540 C -0.18209 1.23494 0.35610
 C541 C -0.20325 1.20985 0.37418
 C542 C -0.20735 1.16328 0.34997
 C543 C -0.14299 1.23712 0.30447
 C544 C -0.12480 1.21494 0.26985
 C545 C -0.12817 1.16832 0.24427
 C546 C -0.15134 1.14527 0.25182
 C547 C -0.15595 1.10212 0.21889
 C548 C -0.13809 1.08085 0.18236
 C549 C -0.11468 1.10053 0.17907
 C550 C -0.10926 1.14420 0.21065
 C551 C -0.08491 1.16116 0.20875
 C552 C -0.06692 1.13614 0.17615
 C553 C -0.07252 1.09369 0.14366
 C554 C -0.09657 1.07641 0.14484
 H555 H -0.19511 1.10590 0.29392
 H556 H -0.17834 1.27064 0.37485
 H557 H -0.22339 1.14259 0.36289
 H558 H -0.13960 1.27297 0.32313
 H559 H -0.10843 1.23586 0.26252
 H560 H -0.17354 1.08461 0.21902
 H561 H -0.14253 1.04806 0.15736
 H562 H -0.07898 1.19282 0.23360
 H563 H -0.04850 1.15040 0.17625
 H564 H -0.10114 1.04361 0.12006
 C565 C 0.69264 0.36478 0.29550
 C566 C 0.67003 0.34071 0.28772
 C567 C 0.66566 0.29857 0.32403
 C568 C 0.68346 0.28119 0.36529
 C569 C 0.70559 0.30590 0.37277
 C570 C 0.70997 0.34769 0.33741
 C571 C 0.64341 0.27437 0.31977
 C572 C 0.62496 0.29181 0.28175
 C573 C 0.62818 0.33403 0.24539
 C574 C 0.65144 0.35767 0.24645
 C575 C 0.65537 0.39731 0.20609
 C576 C 0.63700 0.41450 0.16772
 C577 C 0.61385 0.39361 0.16864
 C578 C 0.60896 0.35332 0.20771
 C579 C 0.58483 0.33488 0.20845
 C580 C 0.56652 0.35570 0.17211
 C581 C 0.57156 0.39522 0.13325
 C582 C 0.59542 0.41345 0.13120
 H583 H 0.69732 0.39769 0.27121
 H584 H 0.67977 0.24909 0.39292
 H585 H 0.72688 0.36764 0.34237
 H586 H 0.64004 0.24188 0.34693
 H587 H 0.60841 0.27076 0.28125
 H588 H 0.67266 0.41560 0.20222
 H589 H 0.64087 0.44513 0.13767
 H590 H 0.57925 0.30529 0.23784
 H591 H 0.54825 0.34084 0.17486
 H592 H 0.59959 0.44406 0.10149
 C593 C 0.19575 0.87855 0.29415
 C594 C 0.17614 0.84878 0.27457
 C595 C 0.17426 0.80168 0.30096
 C596 C 0.19141 0.78532 0.34423
 C597 C 0.21045 0.81545 0.36391
 C598 C 0.21250 0.86209 0.33827
 C599 C 0.15503 0.77119 0.28497
 C600 C 0.13682 0.78708 0.24539
 C601 C 0.13732 0.83415 0.21926
 C602 C 0.15796 0.86452 0.23138
 C603 C 0.15968 0.90946 0.19993
 C604 C 0.14132 0.92529 0.16044
 C605 C 0.12024 0.89777 0.15201
 C606 C 0.11781 0.85193 0.18150
 C607 C 0.09548 0.82671 0.17398
 C608 C 0.07633 0.84684 0.13989
 C609 C 0.07886 0.89218 0.11106
 C610 C 0.10116 0.91671 0.11586
 H611 H 0.19825 0.91523 0.27771
 H612 H 0.18946 0.74921 0.36394
 H613 H 0.22696 0.88624 0.35281
 H614 H 0.15375 0.73483 0.30429
 H615 H 0.12269 0.76112 0.23542
 H616 H 0.17522 0.93312 0.20429
 H617 H 0.14337 0.96020 0.13759
 H618 H 0.09174 0.79239 0.19610
 H619 H 0.05927 0.82713 0.13706
 H620 H 0.10324 0.95187 0.09406
   
