data_POSCAR
  _audit_creation_date              2014-09-24
  _audit_creation_method            'ToBaCCo'
  _symmetry_space_group_name_H-M    'P1'
  _symmetry_Int_Tables_number       1
  _symmetry_cell_setting            triclinic
  loop_
  _symmetry_equiv_pos_as_xyz
 x,y,z
_cell_length_a 53.5113
_cell_length_b 53.5107
_cell_length_c 18.9190
_cell_angle_alpha 90.000000
_cell_angle_beta 90.000000
_cell_angle_gamma 120.000000
loop_
  _atom_site_label
  _atom_site_type_symbol
  _atom_site_fract_x
  _atom_site_fract_y
  _atom_site_fract_z
C1 C 0.22277 0.49819 0.45720
 C2 C 0.22090 0.49514 0.53610
 C3 C 0.24684 0.49594 0.56922
 C4 C 0.27338 0.49773 0.53786
 C5 C 0.27375 0.49775 0.45947
 C6 C 0.24892 0.49862 0.42558
 H7 H 0.25007 0.49902 0.36853
 H8 H 0.24686 0.49582 0.62609
 C9 C 0.50412 -0.27447 0.45479
 C10 C 0.50414 -0.27442 0.53402
 C11 C 0.50431 -0.24873 0.56662
 C12 C 0.50423 -0.22347 0.53340
 C13 C 0.50412 -0.22359 0.45513
 C14 C 0.50414 -0.24890 0.42204
 H15 H 0.50405 -0.24858 0.36485
 H16 H 0.50444 -0.24823 0.62380
 C17 C 1.27269 0.77385 0.45393
 C18 C 1.27381 0.77490 0.53228
 C19 C 1.24913 0.75023 0.56829
 C20 C 1.22309 0.72432 0.53859
 C21 C 1.22148 0.72393 0.45979
 C22 C 1.24643 0.74846 0.42326
 H23 H 1.24520 0.74776 0.36613
 H24 H 1.25037 0.75213 0.62517
 C25 C 0.77556 0.50159 0.46297
 C26 C 0.77501 0.50244 0.54188
 C27 C 0.74830 0.50068 0.57156
 C28 C 0.72311 0.50017 0.53673
 C29 C 0.72442 0.50106 0.45808
 C30 C 0.75027 0.50094 0.42686
 H31 H 0.75096 0.50073 0.36970
 H32 H 0.74637 0.49892 0.62817
 C33 C 0.49562 0.27171 0.45225
 C34 C 0.49659 0.27404 0.53066
 C35 C 0.49698 0.24994 0.56872
 C36 C 0.49537 0.22277 0.54173
 C37 C 0.49600 0.22120 0.46300
 C38 C 0.49653 0.24578 0.42444
 H39 H 0.49760 0.24414 0.36783
 H40 H 0.50009 0.25387 0.62473
 C41 C 0.72321 0.22276 0.46289
 C42 C 0.72400 0.22407 0.54196
 C43 C 0.75047 0.24956 0.57264
 C44 C 0.77491 0.27448 0.53660
 C45 C 0.77377 0.27306 0.45793
 C46 C 0.74815 0.24756 0.42668
 H47 H 0.74765 0.24686 0.36949
 H48 H 0.75224 0.25039 0.62952
 O49 O 1.03897 0.56213 0.13156
 O50 O 1.07324 0.55794 0.06810
 C51 C 1.06630 0.57031 0.12025
 O52 O 0.95874 0.43458 0.13196
 O53 O 0.92416 0.43856 0.06897
 C54 C 0.93127 0.42615 0.12061
 O55 O 1.04070 0.47787 0.13724
 O56 O 1.07323 0.51499 0.06714
 C57 C 1.06776 0.49732 0.12203
 O58 O 0.95830 0.52326 0.12935
 O59 O 0.92393 0.48345 0.07000
 C60 C 0.93096 0.50348 0.12048
 Zr61 Zr 0.99864 0.53078 0.08174
 O62 O 0.99880 0.53682 0.19223
 O63 O 0.99875 0.56967 0.06218
 Zr64 Zr 0.99943 0.46774 0.08570
 O65 O 0.99776 0.46473 0.19723
 O66 O 1.00232 0.42987 0.07553
 O67 O 1.02500 0.51255 0.09683
 O68 O 0.97370 0.48651 0.09669
 O69 O 0.95720 0.52124 -0.14244
 O70 O 0.92413 0.48397 -0.07278
 C71 C 0.93006 0.50230 -0.12663
 O72 O 1.03909 0.47665 -0.14496
 O73 O 1.07275 0.51393 -0.07678
 C74 C 1.06637 0.49569 -0.13090
 O75 O 0.95684 0.43368 -0.13878
 O76 O 0.92350 0.43906 -0.07359
 C77 C 0.92964 0.42635 -0.12617
 O78 O 1.03992 0.56129 -0.14594
 O79 O 1.07288 0.55721 -0.07613
 C80 C 1.06712 0.56926 -0.13065
 Zr81 Zr 0.99848 0.52967 -0.09501
 O82 O 0.99655 0.53014 -0.20662
 O83 O 1.00046 0.57005 -0.08603
 Zr84 Zr 0.99838 0.46624 -0.09124
 O85 O 0.99732 0.45934 -0.20143
 O86 O 1.00054 0.42834 -0.07343
 Zr87 Zr 1.04429 0.52162 -0.00481
 Zr88 Zr 0.95267 0.47548 -0.00287
 O89 O 0.97293 0.48516 -0.10390
 O90 O 1.02450 0.51093 -0.10630
 O91 O 0.97141 0.52127 -0.00618
 O92 O 1.02541 0.47611 -0.00337
 O93 O 1.02501 0.54785 -0.00682
 O94 O 0.97177 0.44866 -0.00182
 H95 H 0.96202 0.48073 0.14040
 H96 H 1.03923 0.46890 -0.00316
 H97 H 0.96111 0.47927 -0.14735
 H98 H 1.03858 0.56894 -0.00733
 H99 H 0.98277 0.41384 0.06412
 H100 H 0.98044 0.41207 -0.07163
 H101 H 0.99374 0.47394 -0.22388
 H102 H 1.00742 0.52098 -0.22444
 H103 H 0.98090 0.56613 -0.07302
 H104 H 1.00000 0.57832 0.10924
 H105 H 0.99451 0.51841 0.21455
 H106 H 1.00749 0.48470 0.21560
 O107 O 0.43574 0.47830 0.13425
 O108 O 0.44149 0.51640 0.06626
 C109 C 0.42885 0.49838 0.12022
 O110 O 0.56380 0.52234 0.13123
 O111 O 0.55719 0.48352 0.06465
 C112 C 0.57056 0.50212 0.11722
 O113 O 0.52136 0.56302 0.13419
 O114 O 0.48375 0.55820 0.06554
 C115 C 0.50178 0.57056 0.11960
 O116 O 0.47487 0.43487 0.13089
 O117 O 0.51260 0.43941 0.06299
 C118 C 0.49398 0.42679 0.11600
 Zr119 Zr 0.46679 0.46794 0.08320
 O120 O 0.46191 0.46311 0.19408
 O121 O 0.42743 0.42936 0.06620
 Zr122 Zr 0.53108 0.53138 0.08360
 O123 O 0.53520 0.53374 0.19487
 O124 O 0.56947 0.57149 0.07076
 O125 O 0.48624 0.51279 0.09622
 O126 O 0.51127 0.48682 0.09507
 O127 O 0.47536 0.43482 -0.14312
 O128 O 0.51407 0.44084 -0.07695
 C129 C 0.49549 0.42785 -0.12975
 O130 O 0.52080 0.56243 -0.14673
 O131 O 0.48370 0.55817 -0.07702
 C132 C 0.50150 0.57027 -0.13158
 O133 O 0.56325 0.52203 -0.14365
 O134 O 0.55737 0.48382 -0.07571
 C135 C 0.57032 0.50211 -0.12907
 O136 O 0.43588 0.47837 -0.14605
 O137 O 0.44108 0.51595 -0.07673
 C138 C 0.42855 0.49805 -0.13097
 Zr139 Zr 0.46681 0.46783 -0.09500
 O140 O 0.46373 0.46316 -0.20610
 O141 O 0.42643 0.42983 -0.08143
 Zr142 Zr 0.53104 0.53146 -0.09472
 O143 O 0.53704 0.53662 -0.20522
 O144 O 0.56934 0.57135 -0.07846
 Zr145 Zr 0.47676 0.52249 -0.00574
 Zr146 Zr 0.52117 0.47666 -0.00573
 O147 O 0.51126 0.48695 -0.10654
 O148 O 0.48621 0.51276 -0.10778
 O149 O 0.47541 0.44962 -0.00577
 O150 O 0.52229 0.54891 -0.00557
 O151 O 0.44965 0.47708 -0.00586
 O152 O 0.54894 0.52232 -0.00565
 H153 H 0.51713 0.48070 0.13827
 H154 H 0.52957 0.56996 -0.00555
 H155 H 0.51699 0.48104 -0.15029
 H156 H 0.42865 0.47010 -0.00572
 H157 H 0.58521 0.56726 0.06190
 H158 H 0.58537 0.56718 -0.07565
 H159 H 0.52059 0.51949 -0.22680
 H160 H 0.47528 0.48277 -0.22608
 H161 H 0.43039 0.41387 -0.07315
 H162 H 0.41934 0.42227 0.11388
 H163 H 0.48071 0.47713 0.21494
 H164 H 0.51539 0.52354 0.21431
 O165 O 0.47447 0.03748 0.13432
 O166 O 0.51270 0.07253 0.07184
 C167 C 0.49352 0.06500 0.12438
 O168 O 0.52303 -0.04212 0.13143
 O169 O 0.48497 -0.07485 0.06362
 C170 C 0.50342 -0.06925 0.11673
 O171 O 0.56171 0.04077 0.13665
 O172 O 0.55534 0.07323 0.07060
 C173 C 0.56821 0.06774 0.12388
 O174 O 0.43347 -0.04442 0.13042
 O175 O 0.44065 -0.07596 0.06280
 C176 C 0.42698 -0.07117 0.11550
 Zr177 Zr 0.46611 -0.00273 0.08396
 O178 O 0.46164 -0.00487 0.19521
 O179 O 0.42673 -0.00333 0.06895
 Zr180 Zr 0.53095 -0.00062 0.08462
 O181 O 0.53553 -0.00099 0.19553
 O182 O 0.57057 0.00073 0.06747
 O183 O 0.51077 0.02411 0.09841
 O184 O 0.48648 -0.02682 0.09530
 O185 O 0.43461 -0.04302 -0.14262
 O186 O 0.44147 -0.07531 -0.07714
 C187 C 0.42809 -0.06998 -0.12946
 O188 O 0.56205 0.04199 -0.14333
 O189 O 0.55633 0.07381 -0.07292
 C190 C 0.56910 0.06881 -0.12739
 O191 O 0.52351 -0.04105 -0.14237
 O192 O 0.48517 -0.07438 -0.07640
 C193 C 0.50387 -0.06837 -0.12895
 O194 O 0.47714 0.03985 -0.14526
 O195 O 0.51262 0.07303 -0.07236
 C196 C 0.49529 0.06706 -0.12812
 Zr197 Zr 0.46677 -0.00132 -0.09357
 O198 O 0.46109 -0.00177 -0.20415
 O199 O 0.42826 -0.00004 -0.07824
 Zr200 Zr 0.53137 0.00031 -0.09346
 O201 O 0.53451 -0.00064 -0.20468
 O202 O 0.57206 0.00335 -0.08018
 Zr203 Zr 0.52042 0.04429 -0.00243
 Zr204 Zr 0.47714 -0.04623 -0.00605
 O205 O 0.48706 -0.02553 -0.10617
 O206 O 0.51158 0.02554 -0.10517
 O207 O 0.44883 -0.02906 -0.00589
 O208 O 0.54795 0.02637 -0.00340
 O209 O 0.47478 0.02429 -0.00353
 O210 O 0.52296 -0.02693 -0.00527
 H211 H 0.48044 -0.03890 0.13833
 H212 H 0.56891 0.04051 -0.00278
 H213 H 0.48153 -0.03709 -0.15005
 H214 H 0.46704 0.03767 -0.00284
 H215 H 0.57848 0.00134 0.11516
 H216 H 0.56843 -0.01648 -0.07240
 H217 H 0.52304 0.00760 -0.22413
 H218 H 0.47682 -0.00376 -0.22567
 H219 H 0.41248 -0.02024 -0.07270
 H220 H 0.41964 -0.00287 0.11702
 H221 H 0.48137 0.00476 0.21510
 H222 H 0.51654 -0.00633 0.21612
 C223 C 1.15376 0.49215 0.34762
 C224 C 1.16833 0.50949 0.29120
 C225 C 1.19853 0.52320 0.28867
 C226 C 1.21455 0.51913 0.34372
 C227 C 1.20209 0.50140 0.40551
 C228 C 1.17010 0.48801 0.40633
 O229 O 1.12459 0.48086 0.33790
 C230 C 1.12096 0.49140 0.27472
 C231 C 1.14735 0.50918 0.24465
 C232 C 1.14905 0.52276 0.17954
 C233 C 1.12348 0.51834 0.14356
 C234 C 1.09474 0.50008 0.16917
 C235 C 1.09419 0.48631 0.23786
 H236 H 1.20992 0.53709 0.24442
 H237 H 1.23776 0.53132 0.33809
 H238 H 1.15806 0.47378 0.44943
 H239 H 1.16998 0.53683 0.15629
 H240 H 1.12640 0.52951 0.09389
 H241 H 1.07355 0.47217 0.26228
 C242 C 0.50938 0.66298 0.34298
 C243 C 0.48922 0.65786 0.29175
 C244 C 0.47397 0.67291 0.29321
 C245 C 0.47927 0.69380 0.34734
 C246 C 0.49956 0.70094 0.40432
 C247 C 0.51491 0.68428 0.40016
 O248 O 0.52205 0.64658 0.33000
 C249 C 0.50950 0.63081 0.26999
 C250 C 0.48919 0.63708 0.24492
 C251 C 0.47350 0.62338 0.18331
 C252 C 0.47835 0.60278 0.14600
 C253 C 0.49899 0.59459 0.16700
 C254 C 0.51490 0.60964 0.23199
 H255 H 0.45815 0.66887 0.25258
 H256 H 0.46645 0.70428 0.34489
 H257 H 0.53219 0.68905 0.43650
 H258 H 0.45751 0.62841 0.16382
 H259 H 0.46550 0.59303 0.09917
 H260 H 0.53097 0.60497 0.25267
 C261 C 0.33488 -0.15695 0.33720
 C262 C 0.34104 -0.17181 0.28750
 C263 C 0.32718 -0.20211 0.29075
 C264 C 0.30643 -0.21786 0.34508
 C265 C 0.29829 -0.20474 0.39968
 C266 C 0.31367 -0.17286 0.39429
 O267 O 0.35047 -0.12793 0.32334
 C268 C 0.36670 -0.12450 0.26416
 C269 C 0.36159 -0.15089 0.24052
 C270 C 0.37607 -0.15257 0.18004
 C271 C 0.39625 -0.12697 0.14243
 C272 C 0.40316 -0.09836 0.16208
 C273 C 0.38738 -0.09783 0.22589
 H274 H 0.33206 -0.21373 0.25142
 H275 H 0.29641 -0.24114 0.34424
 H276 H 0.30880 -0.16075 0.43211
 H277 H 0.37202 -0.17343 0.16172
 H278 H 0.40675 -0.12975 0.09666
 H279 H 0.39116 -0.07725 0.24557
 C280 C 0.82843 0.49385 0.31373
 C281 C 0.85490 0.51496 0.33711
 C282 C 0.85690 0.53137 0.39741
 C283 C 0.83150 0.52632 0.43541
 C284 C 0.80279 0.50473 0.41647
 C285 C 0.80193 0.48848 0.35205
 O286 O 0.83165 0.48073 0.25471
 C287 C 0.86068 0.49384 0.24058
 C288 C 0.87558 0.51502 0.28992
 C289 C 0.90574 0.53166 0.28601
 C290 C 0.92140 0.52690 0.23122
 C291 C 0.90852 0.50538 0.17672
 C292 C 0.87660 0.48837 0.18329
 H293 H 0.87787 0.54812 0.41524
 H294 H 0.83445 0.53998 0.48047
 H295 H 0.78121 0.47189 0.33252
 H296 H 0.91737 0.54835 0.32493
 H297 H 0.94459 0.54070 0.23241
 H298 H 0.86447 0.47145 0.14530
 C299 C 0.49877 0.34088 0.34008
 C300 C 0.48768 0.32738 0.27665
 C301 C 0.47822 0.29790 0.26934
 C302 C 0.48038 0.28163 0.32686
 C303 C 0.49295 0.29344 0.39470
 C304 C 0.50187 0.32451 0.40011
 O305 O 0.50550 0.36918 0.33558
 C306 C 0.49868 0.37343 0.26828
 C307 C 0.48794 0.34835 0.23016
 C308 C 0.48008 0.34778 0.15872
 C309 C 0.48302 0.37317 0.12476
 C310 C 0.49324 0.40023 0.15976
 C311 C 0.50117 0.39967 0.23462
 H312 H 0.46872 0.28716 0.21990
 H313 H 0.47122 0.25883 0.31721
 H314 H 0.51126 0.33579 0.44898
 H315 H 0.47183 0.32795 0.12887
 H316 H 0.47666 0.37146 0.06985
 H317 H 0.50924 0.41915 0.26575
 C318 C 0.66269 0.15354 0.34274
 C319 C 0.65042 0.16702 0.30685
 C320 C 0.65959 0.19621 0.32116
 C321 C 0.68178 0.21225 0.37252
 C322 C 0.69613 0.20052 0.41302
 C323 C 0.68577 0.16983 0.39582
 O324 O 0.65071 0.12546 0.32040
 C325 C 0.63061 0.12119 0.26967
 C326 C 0.62984 0.14620 0.25948
 C327 C 0.61093 0.14692 0.20867
 C328 C 0.59232 0.12183 0.16720
 C329 C 0.59104 0.09452 0.17370
 C330 C 0.61128 0.09493 0.22789
 H331 H 0.64996 0.20681 0.29260
 H332 H 0.68821 0.23473 0.38019
 H333 H 0.69577 0.15903 0.42167
 H334 H 0.61043 0.16669 0.20064
 H335 H 0.57829 0.12390 0.12935
 H336 H 0.61212 0.07542 0.23720
 C337 C 0.49822 0.15739 -0.35113
 C338 C 0.49029 0.16161 -0.28525
 C339 C 0.48304 0.18312 -0.27513
 C340 C 0.48412 0.20115 -0.33242
 C341 C 0.49362 0.20026 -0.40345
 C342 C 0.50046 0.17659 -0.41107
 O343 O 0.50310 0.13452 -0.34886
 C344 C 0.49827 0.12447 -0.28048
 C345 C 0.49072 0.14079 -0.23955
 C346 C 0.48558 0.13503 -0.16661
 C347 C 0.48801 0.11206 -0.13396
 C348 C 0.49479 0.09308 -0.17169
 C349 C 0.49995 0.10003 -0.24810
 H350 H 0.47581 0.18569 -0.22361
 H351 H 0.47589 0.21532 -0.31955
 H352 H 0.50823 0.17354 -0.46115
 H353 H 0.47992 0.14822 -0.13460
 H354 H 0.48389 0.10870 -0.07775
 H355 H 0.50543 0.08702 -0.28133
 C356 C 0.66060 0.50652 -0.35464
 C357 C 0.65574 0.48702 -0.30179
 C358 C 0.67031 0.47135 -0.30230
 C359 C 0.69076 0.47577 -0.35666
 C360 C 0.69811 0.49573 -0.41452
 C361 C 0.68140 0.51106 -0.41255
 O362 O 0.64443 0.51949 -0.34230
 C363 C 0.62919 0.50784 -0.28103
 C364 C 0.63550 0.48775 -0.25469
 C365 C 0.62233 0.47285 -0.19186
 C366 C 0.60218 0.47830 -0.15442
 C367 C 0.59401 0.49881 -0.17649
 C368 C 0.60849 0.51389 -0.24283
 H369 H 0.66623 0.45586 -0.26075
 H370 H 0.70078 0.46254 -0.35348
 H371 H 0.68553 0.52723 -0.45203
 H372 H 0.62740 0.45700 -0.17155
 H373 H 0.59276 0.46601 -0.10667
 H374 H 0.60371 0.52974 -0.26443
 C375 C 0.83154 0.32659 -0.31257
 C376 C 0.84458 0.35242 -0.34795
 C377 C 0.83562 0.35392 -0.41693
 C378 C 0.81319 0.32873 -0.45151
 C379 C 0.79854 0.30025 -0.42115
 C380 C 0.80824 0.30027 -0.34744
 O381 O 0.84339 0.33017 -0.24641
 C382 C 0.86418 0.35871 -0.24010
 C383 C 0.86557 0.37315 -0.30130
 C384 C 0.88558 0.40290 -0.30697
 C385 C 0.90480 0.41845 -0.24968
 C386 C 0.90528 0.40570 -0.18359
 C387 C 0.88382 0.37446 -0.18016
 H388 H 0.84543 0.37448 -0.44400
 H389 H 0.80640 0.33238 -0.50223
 H390 H 0.79856 0.28024 -0.31819
 H391 H 0.88662 0.41418 -0.35533
 H392 H 0.91988 0.44121 -0.25744
 H393 H 0.88261 0.36264 -0.13270
 C394 C 0.51169 -0.15378 -0.35057
 C395 C 0.48927 -0.16841 -0.30413
 C396 C 0.47171 -0.19856 -0.30980
 C397 C 0.47701 -0.21443 -0.36321
 C398 C 0.49976 -0.20161 -0.41439
 C399 C 0.51746 -0.16984 -0.40647
 O400 O 0.52589 -0.12486 -0.33481
 C401 C 0.51217 -0.12128 -0.27766
 C402 C 0.48960 -0.14751 -0.25719
 C403 C 0.47244 -0.14914 -0.19898
 C404 C 0.47813 -0.12369 -0.16041
 C405 C 0.50095 -0.09515 -0.17692
 C406 C 0.51833 -0.09465 -0.23857
 H407 H 0.45408 -0.20999 -0.27300
 H408 H 0.46289 -0.23760 -0.36416
 H409 H 0.53568 -0.15798 -0.44129
 H410 H 0.45469 -0.16989 -0.18304
 H411 H 0.46402 -0.12658 -0.11639
 H412 H 0.53609 -0.07417 -0.25586
 C413 C 0.33748 0.49333 -0.35495
 C414 C 0.33942 0.50966 -0.29705
 C415 C 0.32213 0.52247 -0.29288
 C416 C 0.30198 0.51838 -0.34778
 C417 C 0.29757 0.50160 -0.41094
 C418 C 0.31713 0.48938 -0.41361
 O419 O 0.35591 0.48265 -0.34661
 C420 C 0.36964 0.49259 -0.28277
 C421 C 0.36023 0.50942 -0.25097
 C422 C 0.37159 0.52232 -0.18499
 C423 C 0.39305 0.51816 -0.14989
 C424 C 0.40423 0.50076 -0.17728
 C425 C 0.39155 0.48769 -0.24678
 H426 H 0.32396 0.53556 -0.24742
 H427 H 0.29017 0.52973 -0.34085
 H428 H 0.31570 0.47599 -0.45784
 H429 H 0.36412 0.53567 -0.16044
 H430 H 0.40093 0.52877 -0.09945
 H431 H 0.39864 0.47426 -0.27247
 C432 C 1.15413 0.66038 -0.35370
 C433 C 1.16815 0.65953 -0.29388
 C434 C 1.19810 0.67757 -0.28819
 C435 C 1.21437 0.69734 -0.34361
 C436 C 1.20241 0.70080 -0.40879
 C437 C 1.17074 0.68038 -0.41264
 O438 O 1.12509 0.64123 -0.34704
 C439 C 1.12097 0.62814 -0.28220
 C440 C 1.14694 0.63868 -0.24817
 C441 C 1.14815 0.62813 -0.18083
 C442 C 1.12247 0.60633 -0.14668
 C443 C 1.09412 0.59394 -0.17641
 C444 C 1.09406 0.60583 -0.24725
 H445 H 1.20911 0.67650 -0.24131
 H446 H 1.23743 0.70938 -0.33528
 H447 H 1.15880 0.68054 -0.45818
 H448 H 1.16876 0.63649 -0.15448
 H449 H 1.12497 0.59914 -0.09505
 H450 H 1.07375 0.59782 -0.27477
 C451 C 0.83990 0.49881 -0.35074
 C452 C 0.83743 0.50947 -0.28676
 C453 C 0.81758 0.51902 -0.27871
 C454 C 0.79929 0.51734 -0.33590
 C455 C 0.79823 0.50499 -0.40457
 C456 C 0.82048 0.49613 -0.41068
 O457 O 0.86142 0.49197 -0.34665
 C458 C 0.87235 0.49833 -0.27909
 C459 C 0.85796 0.50885 -0.24045
 C460 C 0.86499 0.51622 -0.16871
 C461 C 0.88729 0.51301 -0.13488
 C462 C 0.90423 0.50304 -0.17032
 C463 C 0.89601 0.49562 -0.24555
 H464 H 0.81649 0.52842 -0.22895
 H465 H 0.78648 0.52736 -0.32540
 H466 H 0.82215 0.48652 -0.45938
 H467 H 0.85332 0.52428 -0.13854
 H468 H 0.89178 0.51904 -0.07975
 H469 H 0.90754 0.48779 -0.27702
 C470 C 0.48753 0.33461 -0.35106
 C471 C 0.51297 0.34649 -0.31391
 C472 C 0.53305 0.33739 -0.32767
 C473 C 0.52720 0.31553 -0.37957
 C474 C 0.50137 0.30141 -0.42101
 C475 C 0.48105 0.31188 -0.40490
 O476 O 0.47138 0.34656 -0.32891
 C477 C 0.48688 0.36620 -0.27701
 C478 C 0.51248 0.36670 -0.26595
 C479 C 0.53177 0.38505 -0.21391
 C480 C 0.52515 0.40341 -0.17204
 C481 C 0.49930 0.40498 -0.17941
 C482 C 0.47981 0.38532 -0.23488
 H483 H 0.55304 0.34678 -0.29818
 H484 H 0.54324 0.30905 -0.38662
 H485 H 0.46052 0.30216 -0.43201
 H486 H 0.55190 0.38531 -0.20526
 H487 H 0.54100 0.41705 -0.13325
 H488 H 0.45966 0.38481 -0.24497
 C489 C 0.65989 0.15559 -0.35085
 C490 C 0.65888 0.16976 -0.29139
 C491 C 0.67688 0.19972 -0.28594
 C492 C 0.69678 0.21586 -0.34118
 C493 C 0.70024 0.20372 -0.40595
 C494 C 0.67997 0.17210 -0.40984
 O495 O 0.64087 0.12656 -0.34363
 C496 C 0.62771 0.12261 -0.27893
 C497 C 0.63804 0.14867 -0.24547
 C498 C 0.62734 0.15002 -0.17837
 C499 C 0.60560 0.12439 -0.14385
 C500 C 0.59352 0.09599 -0.17300
 C501 C 0.60554 0.09579 -0.24356
 H502 H 0.67575 0.21081 -0.23927
 H503 H 0.70904 0.23894 -0.33309
 H504 H 0.68056 0.16032 -0.45553
 H505 H 0.63555 0.17071 -0.15250
 H506 H 0.59826 0.12693 -0.09246
 H507 H 0.59774 0.07540 -0.27054
 C508 C 1.15670 0.50005 -0.35657
 C509 C 1.15654 0.48585 -0.29598
 C510 C 1.17422 0.47358 -0.29100
 C511 C 1.19310 0.47619 -0.34761
 C512 C 1.19683 0.49191 -0.41249
 C513 C 1.17665 0.50345 -0.41604
 O514 O 1.13706 0.50934 -0.34975
 C515 C 1.12464 0.50089 -0.28395
 C516 C 1.13623 0.48659 -0.24911
 C517 C 1.12720 0.47634 -0.17978
 C518 C 1.10574 0.48046 -0.14448
 C519 C 1.09172 0.49447 -0.17590
 C520 C 1.10196 0.50482 -0.24880
 H521 H 1.17328 0.46157 -0.24406
 H522 H 1.20444 0.46441 -0.34012
 H523 H 1.17717 0.51576 -0.46187
 H524 H 1.13663 0.46523 -0.15262
 H525 H 1.09959 0.47201 -0.09140
 H526 H 1.09261 0.51568 -0.27737
 C527 C 0.50903 0.66267 -0.35483
 C528 C 0.48944 0.65810 -0.30253
 C529 C 0.47464 0.67360 -0.30305
 C530 C 0.47985 0.69441 -0.35731
 C531 C 0.49963 0.70105 -0.41531
 C532 C 0.51443 0.68385 -0.41221
 O533 O 0.52133 0.64588 -0.34266
 C534 C 0.50910 0.63042 -0.28207
 C535 C 0.48936 0.63725 -0.25587
 C536 C 0.47403 0.62392 -0.19359
 C537 C 0.47867 0.60310 -0.15673
 C538 C 0.49878 0.59437 -0.17881
 C539 C 0.51433 0.60905 -0.24447
 H540 H 0.45923 0.66996 -0.26164
 H541 H 0.46733 0.70518 -0.35414
 H542 H 0.53121 0.68808 -0.44963
 H543 H 0.45846 0.62940 -0.17326
 H544 H 0.46608 0.59361 -0.10940
 H545 H 0.52999 0.60396 -0.26597
 C546 C 0.33500 -0.15553 -0.35036
 C547 C 0.34530 -0.16961 -0.30942
 C548 C 0.33480 -0.19927 -0.31977
 C549 C 0.31318 -0.21522 -0.37224
 C550 C 0.30077 -0.20293 -0.41775
 C551 C 0.31262 -0.17168 -0.40498
 O552 O 0.34800 -0.12705 -0.33087
 C553 C 0.36674 -0.12317 -0.27689
 C554 C 0.36567 -0.14879 -0.26194
 C555 C 0.38296 -0.15001 -0.20742
 C556 C 0.40188 -0.12476 -0.16701
 C557 C 0.40497 -0.09685 -0.17821
 C558 C 0.38634 -0.09676 -0.23609
 H559 H 0.34291 -0.21030 -0.28724
 H560 H 0.30561 -0.23809 -0.37670
 H561 H 0.30417 -0.16037 -0.43510
 H562 H 0.38200 -0.17028 -0.19575
 H563 H 0.41460 -0.12721 -0.12606
 H564 H 0.38702 -0.07675 -0.24912
 C565 C 0.51137 -0.15433 0.33820
 C566 C 0.48869 -0.16904 0.29248
 C567 C 0.47099 -0.19914 0.29896
 C568 C 0.47644 -0.21486 0.35245
 C569 C 0.49947 -0.20192 0.40286
 C570 C 0.51730 -0.17023 0.39412
 O571 O 0.52567 -0.12549 0.32180
 C572 C 0.51174 -0.12204 0.26497
 C573 C 0.48894 -0.14826 0.24528
 C574 C 0.47156 -0.14996 0.18750
 C575 C 0.47724 -0.12458 0.14858
 C576 C 0.50033 -0.09610 0.16438
 C577 C 0.51790 -0.09553 0.22556
 H578 H 0.45317 -0.21064 0.26274
 H579 H 0.46223 -0.23802 0.35408
 H580 H 0.53572 -0.15832 0.42832
 H581 H 0.45361 -0.17070 0.17222
 H582 H 0.46293 -0.12743 0.10506
 H583 H 0.53584 -0.07505 0.24227
 C584 C 0.33465 0.48967 0.33949
 C585 C 0.34572 0.51471 0.30089
 C586 C 0.33558 0.53409 0.31305
 C587 C 0.31364 0.52801 0.36507
 C588 C 0.30052 0.50265 0.40834
 C589 C 0.31188 0.48297 0.39332
 O590 O 0.34739 0.47407 0.31884
 C591 C 0.36677 0.48952 0.26647
 C592 C 0.36634 0.51456 0.25358
 C593 C 0.38436 0.53367 0.20077
 C594 C 0.40331 0.52743 0.16002
 C595 C 0.40578 0.50216 0.16929
 C596 C 0.38644 0.48286 0.22546
 H597 H 0.34426 0.55376 0.28237
 H598 H 0.30648 0.54358 0.37115
 H599 H 0.30277 0.46264 0.42117
 H600 H 0.38392 0.55335 0.19061
 H601 H 0.41658 0.54306 0.12044
 H602 H 0.38655 0.46311 0.23689
 C603 C 1.16792 0.66036 0.31834
 C604 C 1.14347 0.66234 0.32528
 C605 C 1.14304 0.68246 0.37268
 C606 C 1.16796 0.70107 0.41444
 C607 C 1.19435 0.70047 0.41273
 C608 C 1.19385 0.67940 0.36109
 O609 O 1.16354 0.63966 0.26918
 C610 C 1.13582 0.62839 0.24474
 C611 C 1.12286 0.64180 0.27796
 C612 C 1.09427 0.63384 0.26153
 C613 C 1.07817 0.61165 0.21075
 C614 C 1.08913 0.59590 0.17275
 C615 C 1.11947 0.60529 0.19153
 H616 H 1.12374 0.68408 0.37729
 H617 H 1.16659 0.71650 0.44890
 H618 H 1.21309 0.67784 0.35431
 H619 H 1.08420 0.64453 0.28776
 H620 H 1.05624 0.60675 0.20120
 H621 H 1.12994 0.59474 0.16661
 C622 C 0.50372 0.16765 0.31668
 C623 C 0.48194 0.14135 0.33913
 C624 C 0.46508 0.13965 0.39823
 C625 C 0.47037 0.16519 0.43593
 C626 C 0.49276 0.19367 0.41800
 C627 C 0.50941 0.19424 0.35478
 O628 O 0.51710 0.16421 0.25859
 C629 C 0.50351 0.13521 0.24411
 C630 C 0.48178 0.12053 0.29233
 C631 C 0.46463 0.09042 0.28788
 C632 C 0.46947 0.07461 0.23366
 C633 C 0.49151 0.08733 0.18038
 C634 C 0.50901 0.11916 0.18741
 H635 H 0.44777 0.11883 0.41523
 H636 H 0.45637 0.16257 0.48001
 H637 H 0.52650 0.21482 0.33589
 H638 H 0.44751 0.07896 0.32592
 H639 H 0.45529 0.05146 0.23414
 H640 H 0.52635 0.13112 0.15030
 C641 C 0.66359 0.50937 0.33821
 C642 C 0.65489 0.48618 0.29380
 C643 C 0.66672 0.46798 0.30149
 C644 C 0.68792 0.47337 0.35503
 C645 C 0.69859 0.49681 0.40435
 C646 C 0.68551 0.51528 0.39389
 O647 O 0.64959 0.52412 0.32100
 C648 C 0.63178 0.50999 0.26497
 C649 C 0.63443 0.48661 0.24649
 C650 C 0.61820 0.46897 0.18954
 C651 C 0.59875 0.47497 0.15036
 C652 C 0.59410 0.49863 0.16505
 C653 C 0.61168 0.51647 0.22531
 H654 H 0.65988 0.44978 0.26625
 H655 H 0.69634 0.45874 0.35773
 H656 H 0.69272 0.53425 0.42645
 H657 H 0.62039 0.45058 0.17508
 H658 H 0.58687 0.46046 0.10750
 H659 H 0.60979 0.53488 0.24115
 C660 C 0.82731 0.33320 0.30893
 C661 C 0.85319 0.33579 0.32830
 C662 C 0.85442 0.31926 0.38475
 C663 C 0.82885 0.29963 0.42307
 C664 C 0.80073 0.29524 0.40790
 C665 C 0.80059 0.31283 0.34754
 O666 O 0.83133 0.35145 0.25352
 C667 C 0.86023 0.36570 0.23764
 C668 C 0.87429 0.35659 0.28236
 C669 C 0.90420 0.36814 0.27617
 C670 C 0.92046 0.38950 0.22376
 C671 C 0.90843 0.40098 0.17418
 C672 C 0.87678 0.38802 0.18284
 H673 H 0.87495 0.32146 0.39970
 H674 H 0.83116 0.28763 0.46616
 H675 H 0.78037 0.31117 0.33189
 H676 H 0.91514 0.36084 0.31152
 H677 H 0.94341 0.39729 0.22267
 H678 H 0.86535 0.39511 0.14859
   
