data_POSCAR
  _audit_creation_date              2014-09-24
  _audit_creation_method            'ToBaCCo'
  _symmetry_space_group_name_H-M    'P1'
  _symmetry_Int_Tables_number       1
  _symmetry_cell_setting            triclinic
  loop_
  _symmetry_equiv_pos_as_xyz
 x,y,z
_cell_length_a 30.2903
_cell_length_b 30.4411
_cell_length_c 30.3679
_cell_angle_alpha 84.158800
_cell_angle_beta 98.931900
_cell_angle_gamma 96.529500
loop_
  _atom_site_label
  _atom_site_type_symbol
  _atom_site_fract_x
  _atom_site_fract_y
  _atom_site_fract_z
C1 C 0.60437 0.54093 0.01960
 C2 C 0.59359 0.58449 0.02072
 C3 C 0.54986 0.59472 0.02246
 C4 C 0.51506 0.55915 0.02375
 C5 C 0.52456 0.51488 0.02101
 C6 C 0.56946 0.50549 0.02106
 C7 C 0.57858 0.46072 0.02686
 C8 C 0.54422 0.42634 0.02587
 C9 C 0.49910 0.43499 0.02037
 C10 C 0.48925 0.47950 0.02047
 C11 C 0.47211 0.56574 0.03236
 C12 C 0.43776 0.53137 0.03154
 C13 C 0.44458 0.48854 0.02216
 C14 C 0.40902 0.45354 0.01901
 C15 C 0.41969 0.41020 0.01661
 C16 C 0.46378 0.40016 0.01770
 H17 H 0.61252 0.45148 0.03353
 H18 H 0.55366 0.39280 0.03072
 H19 H 0.46474 0.59731 0.04131
 H20 H 0.40613 0.53868 0.03990
 H21 H 0.61937 0.61168 0.01632
 H22 H 0.39285 0.38355 0.01203
 C23 C -0.00293 0.59332 0.45361
 C24 C -0.00200 0.58403 0.40974
 C25 C -0.00153 0.54066 0.39786
 C26 C -0.00330 0.50487 0.43211
 C27 C -0.00372 0.51397 0.47718
 C28 C -0.00332 0.55831 0.48790
 C29 C -0.00430 0.56639 0.53248
 C30 C -0.00424 0.53201 0.56619
 C31 C -0.00622 0.48766 0.55650
 C32 C -0.00586 0.47850 0.51154
 C33 C -0.00771 0.46017 0.42248
 C34 C -0.00763 0.42576 0.45624
 C35 C -0.00713 0.43401 0.50097
 C36 C -0.00779 0.39905 0.53550
 C37 C -0.00843 0.40872 0.57938
 C38 C -0.00788 0.45222 0.59054
 H39 H -0.00511 0.59943 0.54213
 H40 H -0.00272 0.54094 0.59994
 H41 H -0.01215 0.45076 0.38866
 H42 H -0.00862 0.39251 0.44641
 H43 H 0.00041 0.61190 0.38466
 H44 H -0.00961 0.38162 0.60545
 C45 C 0.54316 0.01827 0.59230
 C46 C 0.58695 0.01507 0.58390
 C47 C 0.59711 0.01039 0.54110
 C48 C 0.56137 0.00981 0.50441
 C49 C 0.51671 0.01346 0.51188
 C50 C 0.50784 0.01913 0.55546
 C51 C 0.46467 0.02925 0.56021
 C52 C 0.42967 0.02779 0.52480
 C53 C 0.43648 0.01762 0.48249
 C54 C 0.48088 0.01313 0.47525
 C55 C 0.56915 0.00899 0.45997
 C56 C 0.53402 0.00649 0.42475
 C57 C 0.48958 0.00894 0.43140
 C58 C 0.45365 0.00783 0.39534
 C59 C 0.40974 0.00921 0.40381
 C60 C 0.40044 0.01386 0.44673
 H61 H 0.45748 0.03941 0.59122
 H62 H 0.39735 0.03583 0.53079
 H63 H 0.60255 0.01111 0.45123
 H64 H 0.54254 0.00310 0.39210
 H65 H 0.61342 0.01209 0.61219
 H66 H 0.38228 0.00685 0.37633
 O67 O 0.46848 -0.00355 -0.07265
 O68 O 0.45926 -0.01507 0.04759
 O69 O 0.45754 0.05057 -0.01349
 O70 O 0.47138 -0.06859 -0.01003
 O71 O 0.54442 -0.05345 0.00905
 O72 O 0.53126 0.06630 -0.00190
 O73 O 0.53207 0.00475 0.06295
 O74 O 0.54208 0.00992 -0.05662
 Cu75 Cu 0.45680 -0.01066 -0.01402
 Cu76 Cu 0.54492 0.00802 0.00486
 C77 C 0.50691 0.00473 -0.08514
 C78 C 0.49393 -0.00574 0.07562
 C79 C 0.49197 0.07862 -0.00804
 C80 C 0.51033 -0.08145 0.00094
 O81 O -0.05105 0.54034 0.98614
 O82 O 0.06926 0.52941 0.99206
 O83 O 0.00052 0.52763 0.92820
 O84 O 0.01551 0.54171 1.04879
 O85 O 0.00197 0.46919 1.06332
 O86 O -0.00817 0.45484 0.94317
 O87 O 0.05685 0.45731 1.00938
 O88 O -0.06444 0.46747 0.99751
 Cu89 Cu 0.01008 0.54206 0.98709
 Cu90 Cu -0.00491 0.45486 1.00456
 C91 C -0.07808 0.50589 0.99155
 C92 C 0.08371 0.49158 1.00230
 C93 C -0.00545 0.48873 0.91533
 C94 C 0.01017 0.50797 1.07642
 O95 O -0.01722 -0.05975 0.45738
 O96 O -0.01306 0.06040 0.46391
 O97 O 0.04524 0.00668 0.45226
 O98 O -0.07378 -0.00612 0.46947
 O99 O -0.05219 -0.01150 0.54259
 O100 O 0.06581 -0.00582 0.52507
 O101 O 0.01215 0.05171 0.53621
 O102 O 0.00257 -0.06918 0.53061
 Cu103 Cu -0.01661 0.00124 0.45334
 Cu104 Cu 0.00904 -0.00968 0.54101
 C105 C -0.00819 -0.08493 0.49284
 C106 C 0.00020 0.07653 0.50118
 C107 C 0.07572 0.00161 0.48572
 C108 C -0.08304 -0.00982 0.50914
 C109 C -0.26118 0.52602 1.00579
 C110 C -0.29622 0.49989 0.98204
 C111 C -0.34080 0.50532 0.98598
 C112 C -0.35062 0.53502 1.01528
 C113 C -0.31448 0.56102 1.03861
 C114 C -0.27000 0.55696 1.03369
 C115 C -0.21429 0.52101 1.00130
 C116 C -0.17940 0.54823 1.02405
 C117 C -0.13497 0.54364 1.01945
 C118 C -0.12526 0.51118 0.99359
 C119 C -0.16038 0.48362 0.97145
 C120 C -0.20522 0.48899 0.97455
 C121 C -0.23414 0.58324 1.05630
 C122 C -0.18959 0.57917 1.05129
 C123 C -0.28594 0.46886 0.95484
 C124 C -0.24120 0.46317 0.95153
 H125 H -0.24059 0.60730 1.07788
 H126 H -0.16289 0.60019 1.06916
 H127 H -0.31269 0.44842 0.93635
 H128 H -0.23474 0.43853 0.93060
 H129 H -0.36778 0.48699 0.96552
 H130 H -0.32082 0.58382 1.06158
 H131 H -0.10777 0.56444 1.03699
 H132 H -0.15276 0.45868 0.95146
 C133 C 0.27143 0.47095 1.01254
 C134 C 0.29860 0.50189 0.98848
 C135 C 0.34412 0.49594 0.99028
 C136 C 0.36307 0.46011 1.01713
 C137 C 0.33471 0.42919 1.04060
 C138 C 0.28909 0.43441 1.03837
 C139 C 0.22346 0.47670 1.01037
 C140 C 0.19613 0.44514 1.03368
 C141 C 0.15042 0.45031 1.03094
 C142 C 0.13213 0.48706 1.00567
 C143 C 0.16009 0.51876 0.98296
 C144 C 0.20578 0.51347 0.98483
 C145 C 0.26079 0.40376 1.06158
 C146 C 0.21503 0.40894 1.05913
 C147 C 0.27964 0.53807 0.96296
 C148 C 0.23406 0.54390 0.96136
 H149 H 0.27408 0.37540 1.08164
 H150 H 0.19430 0.38443 1.07733
 H151 H 0.30025 0.56221 0.94423
 H152 H 0.22082 0.57233 0.94141
 H153 H 0.36450 0.51869 0.96997
 H154 H 0.34838 0.40157 1.06170
 H155 H 0.12913 0.42591 1.04869
 H156 H 0.14612 0.54694 0.96314
 C157 C -0.00685 -0.27012 0.47358
 C158 C 0.02828 -0.29306 0.49753
 C159 C 0.02989 -0.33767 0.49065
 C160 C -0.00435 -0.35962 0.46156
 C161 C -0.03929 -0.33615 0.43787
 C162 C -0.04049 -0.29124 0.44342
 C163 C -0.00809 -0.22293 0.47971
 C164 C -0.04209 -0.19953 0.45424
 C165 C -0.04217 -0.15426 0.45899
 C166 C -0.00929 -0.13287 0.48975
 C167 C 0.02388 -0.15695 0.51589
 C168 C 0.02511 -0.20195 0.51042
 C169 C -0.07444 -0.26696 0.41917
 C170 C -0.07504 -0.22175 0.42426
 C171 C 0.06105 -0.27088 0.52773
 C172 C 0.05930 -0.22617 0.53434
 H173 H -0.10050 -0.28292 0.39575
 H174 H -0.10151 -0.20406 0.40456
 H175 H 0.08822 -0.28827 0.54652
 H176 H 0.08519 -0.21029 0.55798
 H177 H 0.05740 -0.35549 0.50806
 H178 H -0.06528 -0.35291 0.41493
 H179 H -0.06779 -0.13565 0.43896
 H180 H 0.04956 -0.14024 0.53917
 C181 C -0.00285 0.26216 0.51777
 C182 C -0.03853 0.28442 0.49391
 C183 C -0.04038 0.32921 0.49989
 C184 C -0.00593 0.35197 0.52805
 C185 C 0.02960 0.32919 0.55160
 C186 C 0.03110 0.28415 0.54692
 C187 C -0.00133 0.21479 0.51262
 C188 C 0.03330 0.19211 0.53794
 C189 C 0.03378 0.14672 0.53397
 C190 C 0.00063 0.12448 0.50409
 C191 C -0.03328 0.14784 0.47822
 C192 C -0.03486 0.19294 0.48290
 C193 C 0.06563 0.26057 0.57111
 C194 C 0.06654 0.21521 0.56691
 C195 C -0.07162 0.26135 0.46474
 C196 C -0.06963 0.21646 0.45906
 H197 H 0.09193 0.27721 0.59377
 H198 H 0.09350 0.19811 0.58649
 H199 H -0.09921 0.27818 0.44605
 H200 H -0.09577 0.19990 0.43617
 H201 H -0.06833 0.34650 0.48262
 H202 H 0.05577 0.34660 0.57384
 H203 H 0.05998 0.12872 0.55379
 H204 H -0.05917 0.13056 0.45561
 C205 C 0.52568 0.01482 -0.27159
 C206 C 0.56273 0.04043 -0.28672
 C207 C 0.56774 0.04213 -0.33197
 C208 C 0.53624 0.01814 -0.36241
 C209 C 0.49979 -0.00828 -0.34598
 C210 C 0.49397 -0.00943 -0.30092
 C211 C 0.52035 0.01284 -0.22395
 C212 C 0.48310 -0.01256 -0.20881
 C213 C 0.47828 -0.01437 -0.16342
 C214 C 0.51100 0.00811 -0.13320
 C215 C 0.54824 0.03323 -0.14894
 C216 C 0.55288 0.03603 -0.19437
 C217 C 0.45728 -0.03472 -0.28450
 C218 C 0.45178 -0.03603 -0.23928
 C219 C 0.59424 0.06369 -0.25623
 C220 C 0.58951 0.06136 -0.21079
 H221 H 0.43253 -0.05358 -0.30680
 H222 H 0.42297 -0.05586 -0.22802
 H223 H 0.62300 0.08358 -0.26753
 H224 H 0.61475 0.07951 -0.18833
 H225 H 0.59585 0.06290 -0.34363
 H226 H 0.47660 -0.02903 -0.36789
 H227 H 0.44973 -0.03405 -0.15142
 H228 H 0.57340 0.05082 -0.12588
 C229 C 0.47194 0.00093 0.25916
 C230 C 0.49522 0.03570 0.28307
 C231 C 0.48849 0.03830 0.32732
 C232 C 0.46035 0.00533 0.34825
 C233 C 0.43704 -0.02916 0.32373
 C234 C 0.44243 -0.03132 0.27899
 C235 C 0.47832 -0.00155 0.21236
 C236 C 0.45369 -0.03530 0.18786
 C237 C 0.45899 -0.03673 0.14296
 C238 C 0.48959 -0.00551 0.12319
 C239 C 0.51469 0.02751 0.14846
 C240 C 0.50863 0.03011 0.19291
 C241 C 0.41887 -0.06495 0.25362
 C242 C 0.42415 -0.06672 0.20872
 C243 C 0.52487 0.06705 0.26229
 C244 C 0.53173 0.06409 0.21807
 H245 H 0.39591 -0.08995 0.26850
 H246 H 0.40507 -0.09297 0.19023
 H247 H 0.54312 0.09393 0.28045
 H248 H 0.55503 0.08883 0.20334
 H249 H 0.50553 0.06553 0.34579
 H250 H 0.41480 -0.05419 0.33958
 H251 H 0.43968 -0.06220 0.12348
 H252 H 0.53778 0.05199 0.13303
 C253 C 0.53183 -0.26829 0.01433
 C254 C 0.56963 -0.28423 0.04112
 C255 C 0.57477 -0.32968 0.04433
 C256 C 0.54264 -0.35963 0.02071
 C257 C 0.50532 -0.34243 -0.00684
 C258 C 0.49945 -0.29706 -0.00957
 C259 C 0.52631 -0.22042 0.01089
 C260 C 0.48826 -0.20448 -0.01558
 C261 C 0.48301 -0.15899 -0.01843
 C262 C 0.51594 -0.12943 0.00426
 C263 C 0.55415 -0.14598 0.03025
 C264 C 0.55930 -0.19152 0.03401
 C265 C 0.46202 -0.27977 -0.03607
 C266 C 0.45638 -0.23434 -0.03881
 C267 C 0.60171 -0.25435 0.06410
 C268 C 0.59673 -0.20878 0.06047
 H269 H 0.43674 -0.30158 -0.05472
 H270 H 0.42692 -0.22247 -0.05947
 H271 H 0.63108 -0.26627 0.08490
 H272 H 0.62237 -0.18688 0.07857
 H273 H 0.60353 -0.34185 0.06601
 H274 H 0.48152 -0.36400 -0.02733
 H275 H 0.45364 -0.14651 -0.03877
 H276 H 0.57952 -0.12354 0.04803
 C277 C 0.47693 0.26283 0.00622
 C278 C 0.45210 0.27438 0.03791
 C279 C 0.44965 0.31933 0.04257
 C280 C 0.47061 0.35275 0.01492
 C281 C 0.49460 0.34048 -0.01741
 C282 C 0.49871 0.29554 -0.02120
 C283 C 0.47991 0.21552 0.00147
 C284 C 0.50609 0.20387 -0.02907
 C285 C 0.50991 0.15878 -0.03237
 C286 C 0.48637 0.12578 -0.00661
 C287 C 0.45938 0.13796 0.02293
 C288 C 0.45667 0.18286 0.02774
 C289 C 0.52393 0.28258 -0.05195
 C290 C 0.52796 0.23755 -0.05547
 C291 C 0.42980 0.24076 0.06398
 C292 C 0.43176 0.19578 0.05873
 H293 H 0.54102 0.30746 -0.07323
 H294 H 0.54812 0.22904 -0.07928
 H295 H 0.41040 0.24930 0.08843
 H296 H 0.41389 0.17089 0.07935
 H297 H 0.43078 0.32845 0.06724
 H298 H 0.50976 0.36586 -0.03968
 H299 H 0.53077 0.14926 -0.05507
 H300 H 0.44186 0.11245 0.04327
 C301 C -0.26694 -0.00293 0.53117
 C302 C -0.30107 -0.03003 0.50735
 C303 C -0.34604 -0.02670 0.51170
 C304 C -0.35741 0.00550 0.53738
 C305 C -0.32212 0.03173 0.56169
 C306 C -0.27709 0.02745 0.55894
 C307 C -0.21962 -0.00617 0.52671
 C308 C -0.18546 0.02025 0.55144
 C309 C -0.14059 0.01740 0.54677
 C310 C -0.13000 -0.01031 0.51640
 C311 C -0.16451 -0.03645 0.49164
 C312 C -0.20948 -0.03509 0.49730
 C313 C -0.24201 0.05340 0.58307
 C314 C -0.19695 0.04960 0.57965
 C315 C -0.28954 -0.05960 0.47931
 C316 C -0.24458 -0.06171 0.47397
 H317 H -0.24944 0.07687 0.60476
 H318 H -0.17092 0.07025 0.59879
 H319 H -0.31555 -0.08072 0.46071
 H320 H -0.23723 -0.08439 0.45141
 H321 H -0.37210 -0.04950 0.49535
 H322 H -0.32966 0.05662 0.58180
 H323 H -0.11398 0.03793 0.56541
 H324 H -0.15625 -0.05789 0.46833
 C325 C 0.26156 0.00893 0.46297
 C326 C 0.27807 0.03811 0.42908
 C327 C 0.32369 0.04022 0.42446
 C328 C 0.35249 0.01289 0.45299
 C329 C 0.33497 -0.01706 0.48597
 C330 C 0.28976 -0.01857 0.49168
 C331 C 0.21379 0.00698 0.46842
 C332 C 0.19764 -0.02141 0.50305
 C333 C 0.15244 -0.02258 0.50863
 C334 C 0.12321 0.00352 0.47920
 C335 C 0.13968 0.03121 0.44410
 C336 C 0.18522 0.03353 0.43894
 C337 C 0.27217 -0.04699 0.52553
 C338 C 0.22696 -0.04815 0.53133
 C339 C 0.24857 0.06445 0.40047
 C340 C 0.20290 0.06200 0.40514
 H341 H 0.29361 -0.06830 0.54793
 H342 H 0.21482 -0.07032 0.55805
 H343 H 0.26085 0.08701 0.37410
 H344 H 0.18129 0.08276 0.38225
 H345 H 0.33685 0.06300 0.39870
 H346 H 0.35666 -0.03901 0.50723
 H347 H 0.13979 -0.04430 0.53542
 H348 H 0.11732 0.05151 0.42153
 C349 C 0.00643 0.52792 1.26164
 C350 C -0.02119 0.55780 1.27276
 C351 C -0.02414 0.56107 1.31783
 C352 C 0.00089 0.53535 1.35230
 C353 C 0.02997 0.50686 1.34016
 C354 C 0.03189 0.50214 1.29497
 C355 C 0.00865 0.52353 1.21413
 C356 C 0.03490 0.49235 1.20282
 C357 C 0.03550 0.48721 1.15747
 C358 C 0.01137 0.51417 1.12395
 C359 C -0.01376 0.54604 1.13582
 C360 C -0.01591 0.55032 1.18090
 C361 C 0.05869 0.47210 1.28239
 C362 C 0.05978 0.46694 1.23711
 C363 C -0.04554 0.58377 1.23857
 C364 C -0.04268 0.58034 1.19341
 H365 H 0.07851 0.45196 1.30776
 H366 H 0.08037 0.44295 1.22888
 H367 H -0.06690 0.60706 1.24680
 H368 H -0.06194 0.60102 1.16807
 H369 H -0.04694 0.58303 1.32595
 H370 H 0.05178 0.48896 1.36578
 H371 H 0.05490 0.46270 1.14818
 H372 H -0.03283 0.56633 1.10989
 C373 C -0.00835 0.46760 0.72934
 C374 C -0.04078 0.48673 0.69721
 C375 C -0.04111 0.48118 0.65182
 C376 C -0.00789 0.45867 0.63847
 C377 C 0.02438 0.43982 0.67122
 C378 C 0.02399 0.44370 0.71671
 C379 C -0.00825 0.47261 0.77714
 C380 C 0.02320 0.45208 0.80929
 C381 C 0.02291 0.45660 0.85468
 C382 C -0.00739 0.48269 0.86774
 C383 C -0.03832 0.50362 0.83527
 C384 C -0.03946 0.49798 0.78977
 C385 C 0.05519 0.42405 0.74982
 C386 C 0.05457 0.42786 0.79537
 C387 C -0.07203 0.51113 0.71117
 C388 C -0.07108 0.51705 0.75663
 H389 H 0.08017 0.40538 0.74045
 H390 H 0.07909 0.41204 0.81987
 H391 H -0.09714 0.52616 0.68673
 H392 H -0.09547 0.53649 0.76591
 H393 H -0.06680 0.49464 0.62683
 H394 H 0.04963 0.42193 0.66115
 H395 H 0.04700 0.44091 0.87985
 H396 H -0.06172 0.52361 0.84556
   
