data_POSCAR
  _audit_creation_date              2014-09-24
  _audit_creation_method            'ToBaCCo'
  _symmetry_space_group_name_H-M    'P1'
  _symmetry_Int_Tables_number       1
  _symmetry_cell_setting            triclinic
  loop_
  _symmetry_equiv_pos_as_xyz
 x,y,z
_cell_length_a 47.4239
_cell_length_b 47.3570
_cell_length_c 67.0819
_cell_angle_alpha 89.987200
_cell_angle_beta 90.042400
_cell_angle_gamma 120.011200
loop_
  _atom_site_label
  _atom_site_type_symbol
  _atom_site_fract_x
  _atom_site_fract_y
  _atom_site_fract_z
C1 C -0.01602 0.49554 1.25138
 C2 C 0.01708 0.51235 1.25157
 C3 C 0.03591 0.52122 1.27044
 C4 C 0.03626 0.52242 1.23285
 C5 C -0.03462 0.48531 1.23244
 C6 C -0.03540 0.48610 1.27001
 C7 C 0.05777 0.55405 1.27461
 C8 C 0.07610 0.56298 1.29213
 C9 C 0.07341 0.53913 1.30589
 C10 C 0.05140 0.50602 1.30143
 C11 C 0.03291 0.49724 1.28391
 C12 C 0.03296 0.54289 1.21907
 C13 C 0.05113 0.55197 1.20145
 C14 C 0.07297 0.54078 1.19733
 C15 C 0.07640 0.52055 1.21132
 C16 C 0.05835 0.51164 1.22894
 C17 C -0.03191 0.46357 1.21946
 C18 C -0.04978 0.45398 1.20171
 C19 C -0.07050 0.46614 1.19662
 C20 C -0.07313 0.48787 1.20973
 C21 C -0.05556 0.49713 1.22756
 C22 C -0.05761 0.45312 1.27367
 C23 C -0.07607 0.44364 1.29112
 C24 C -0.07295 0.46703 1.30521
 C25 C -0.05091 0.50018 1.30139
 C26 C -0.03231 0.50962 1.28392
 H27 H 0.06048 0.57286 1.26430
 H28 H 0.09257 0.58873 1.29469
 H29 H 0.04834 0.48669 1.31140
 H30 H 0.01644 0.47169 1.28076
 H31 H 0.01635 0.55185 1.22200
 H32 H 0.04796 0.56765 1.19104
 H33 H 0.06132 0.49595 1.23946
 H34 H -0.01608 0.45396 1.22313
 H35 H -0.04720 0.43722 1.19193
 H36 H -0.08902 0.49751 1.20633
 H37 H -0.05802 0.51381 1.23748
 H38 H -0.06041 0.43465 1.26305
 H39 H -0.09289 0.41794 1.29350
 H40 H -0.04796 0.51882 1.31189
 H41 H -0.01561 0.53526 1.28120
 H42 H 0.09310 0.51163 1.20871
 C43 C 0.50576 0.48904 1.24885
 C44 C 0.48955 0.50596 1.24900
 C45 C 0.48088 0.51611 1.26787
 C46 C 0.47971 0.51533 1.23027
 C47 C 0.51582 0.48040 1.22997
 C48 C 0.51474 0.47871 1.26753
 C49 C 0.44817 0.50592 1.27188
 C50 C 0.43946 0.51526 1.28950
 C51 C 0.46337 0.53536 1.30339
 C52 C 0.49624 0.54588 1.29921
 C53 C 0.50491 0.53635 1.28158
 C54 C 0.45901 0.49168 1.21651
 C55 C 0.44974 0.50097 1.19902
 C56 C 0.46097 0.53410 1.19502
 C57 C 0.48155 0.55763 1.20896
 C58 C 0.49065 0.54830 1.22644
 C59 C 0.53782 0.50467 1.21700
 C60 C 0.54751 0.49611 1.19940
 C61 C 0.53519 0.46311 1.19445
 C62 C 0.51312 0.43893 1.20753
 C63 C 0.50378 0.44752 1.22520
 C64 C 0.54753 0.48902 1.27137
 C65 C 0.55658 0.47989 1.28895
 C66 C 0.53294 0.45990 1.30298
 C67 C 0.49997 0.44916 1.29894
 C68 C 0.49095 0.45847 1.28135
 H69 H 0.42932 0.49044 1.26141
 H70 H 0.41395 0.50684 1.29216
 H71 H 0.51526 0.56143 1.30955
 H72 H 0.53036 0.54487 1.27858
 H73 H 0.44991 0.46604 1.21938
 H74 H 0.43381 0.48222 1.18865
 H75 H 0.50650 0.56686 1.23696
 H76 H 0.54763 0.53019 1.22059
 H77 H 0.56452 0.51530 1.18965
 H78 H 0.50335 0.41332 1.20423
 H79 H 0.48690 0.42851 1.23512
 H80 H 0.56620 0.50453 1.26082
 H81 H 0.58216 0.48847 1.29149
 H82 H 0.48114 0.43369 1.30939
 H83 H 0.46544 0.44988 1.27849
 H84 H 0.49053 0.58333 1.20643
 C85 C 0.51042 1.01626 1.25041
 C86 C 0.49339 0.98315 1.25028
 C87 C 0.48402 0.96414 1.26904
 C88 C 0.48307 0.96432 1.23145
 C89 C 0.52060 1.03561 1.23175
 C90 C 0.51925 1.03479 1.26934
 C91 C 0.50771 0.96435 1.28164
 C92 C 0.49856 0.94611 1.29925
 C93 C 0.46546 0.92750 1.30473
 C94 C 0.44189 0.92764 1.29194
 C95 C 0.45111 0.94551 1.27422
 C96 C 0.49465 0.94311 1.22675
 C97 C 0.48533 0.92533 1.20899
 C98 C 0.46376 0.92802 1.19577
 C99 C 0.45184 0.94902 1.20068
 C100 C 0.46151 0.96711 1.21835
 C101 C 0.51000 1.05787 1.22788
 C102 C 0.51925 1.07632 1.21040
 C103 C 0.53979 1.07328 1.19642
 C104 C 0.55066 1.05105 1.20054
 C105 C 0.54113 1.03243 1.21801
 C106 C 0.49520 1.03444 1.28163
 C107 C 0.50383 1.05254 1.29929
 C108 C 0.53677 1.07115 1.30511
 C109 C 0.56071 1.07107 1.29267
 C110 C 0.55201 1.05334 1.27490
 H111 H 0.53326 0.97850 1.27775
 H112 H 0.51754 0.94681 1.30858
 H113 H 0.41618 0.91369 1.29545
 H114 H 0.43254 0.94511 1.26460
 H115 H 0.51122 0.94060 1.23675
 H116 H 0.49478 0.90923 1.20573
 H117 H 0.45211 0.98317 1.22188
 H118 H 0.49421 1.06071 1.23836
 H119 H 0.51032 1.09309 1.20797
 H120 H 0.56651 1.04791 1.19029
 H121 H 0.54990 1.01564 1.22089
 H122 H 0.46977 1.02036 1.27742
 H123 H 0.48459 1.05180 1.30835
 H124 H 0.58631 1.08502 1.29647
 H125 H 0.57084 1.05386 1.26550
 H126 H 0.43522 0.95164 1.19082
 C127 C 1.01741 0.50473 0.74872
 C128 C 0.98429 0.48808 0.74895
 C129 C 0.96480 0.47822 0.73033
 C130 C 0.96578 0.47924 0.76791
 C131 C 1.03669 0.51433 0.76742
 C132 C 1.03617 0.51456 0.72983
 C133 C 0.94252 0.48893 0.72685
 C134 C 0.92396 0.48007 0.70942
 C135 C 0.92704 0.45999 0.69518
 C136 C 0.94915 0.44893 0.69883
 C137 C 0.96784 0.45795 0.71628
 C138 C 0.96804 0.50336 0.78102
 C139 C 0.95016 0.49459 0.79876
 C140 C 0.92985 0.46154 0.80371
 C141 C 0.92769 0.43751 0.79047
 C142 C 0.94528 0.44631 0.77267
 C143 C 1.03415 0.49087 0.78118
 C144 C 1.05247 0.50042 0.79877
 C145 C 1.07379 0.53371 0.80294
 C146 C 1.07630 0.55703 0.78889
 C147 C 1.05811 0.54739 0.77131
 C148 C 1.05810 0.50366 0.72578
 C149 C 1.07632 0.51285 0.70823
 C150 C 1.07337 0.53365 0.69437
 C151 C 1.05140 0.54474 0.69865
 C152 C 1.03301 0.53528 0.71620
 H153 H 0.93975 0.50447 0.73757
 H154 H 0.90710 0.48891 0.70717
 H155 H 0.95206 0.43337 0.68821
 H156 H 0.98459 0.44906 0.71886
 H157 H 0.98352 0.52893 0.77745
 H158 H 0.95238 0.51369 0.80863
 H159 H 0.94316 0.42741 0.76264
 H160 H 1.01803 0.46517 0.77827
 H161 H 1.04979 0.48162 0.80907
 H162 H 1.09239 0.58287 0.79136
 H163 H 1.06046 0.56581 0.76080
 H164 H 1.06094 0.48777 0.73620
 H165 H 1.09288 0.50374 0.70567
 H166 H 1.04834 0.56079 0.68849
 H167 H 1.01650 0.54430 0.71924
 H168 H 0.91212 0.41185 0.79376
 C169 C 0.49291 0.50947 0.75101
 C170 C 0.50983 0.49325 0.75117
 C171 C 0.51986 0.48394 0.73250
 C172 C 0.51881 0.48350 0.77007
 C173 C 0.48329 0.51907 0.76973
 C174 C 0.48301 0.51842 0.73213
 C175 C 0.50930 0.45101 0.72883
 C176 C 0.51811 0.44160 0.71127
 C177 C 0.53800 0.46502 0.69710
 C178 C 0.54898 0.49814 0.70097
 C179 C 0.54000 0.50752 0.71854
 C180 C 0.49485 0.46150 0.78319
 C181 C 0.50379 0.45214 0.80080
 C182 C 0.53684 0.46479 0.80560
 C183 C 0.56071 0.48685 0.79238
 C184 C 0.55175 0.49587 0.77470
 C185 C 0.50670 0.53977 0.78361
 C186 C 0.49711 0.54871 0.80110
 C187 C 0.46395 0.53716 0.80499
 C188 C 0.44067 0.51660 0.79094
 C189 C 0.45028 0.50782 0.77345
 C190 C 0.49343 0.55126 0.72821
 C191 C 0.48441 0.56028 0.71057
 C192 C 0.46440 0.53656 0.69656
 C193 C 0.45363 0.50355 0.70065
 C194 C 0.46284 0.49456 0.71830
 H195 H 0.49386 0.43250 0.73948
 H196 H 0.50935 0.41592 0.70886
 H197 H 0.56439 0.51681 0.69041
 H198 H 0.54877 0.53312 0.72128
 H199 H 0.46929 0.45144 0.77972
 H200 H 0.48482 0.43512 0.81067
 H201 H 0.57053 0.51276 0.76467
 H202 H 0.53235 0.54910 0.78083
 H203 H 0.51568 0.56465 0.81157
 H204 H 0.41495 0.50737 0.79337
 H205 H 0.43191 0.49196 0.76285
 H206 H 0.50886 0.56998 0.73878
 H207 H 0.49302 0.58589 0.70799
 H208 H 0.43814 0.48466 0.69022
 H209 H 0.45414 0.46902 0.72122
 H210 H 0.58636 0.49688 0.79555
 C211 C 0.48759 -0.01807 0.75000
 C212 C 0.50412 0.01507 0.75024
 C213 C 0.51341 0.03453 0.73162
 C214 C 0.51422 0.03362 0.76919
 C215 C 0.47768 -0.03736 0.76868
 C216 C 0.47876 -0.03683 0.73110
 C217 C 0.54630 0.05682 0.72790
 C218 C 0.55563 0.07514 0.71038
 C219 C 0.53217 0.07179 0.69629
 C220 C 0.49911 0.04974 0.70020
 C221 C 0.48981 0.03129 0.71773
 C222 C 0.53610 0.03110 0.78214
 C223 C 0.54566 0.04901 0.79987
 C224 C 0.53334 0.06959 0.80498
 C225 C 0.51143 0.07200 0.79192
 C226 C 0.50220 0.05438 0.77410
 C227 C 0.45679 -0.03463 0.78232
 C228 C 0.44763 -0.05306 0.79986
 C229 C 0.45921 -0.07467 0.80409
 C230 C 0.48005 -0.07733 0.79018
 C231 C 0.48896 -0.05904 0.77264
 C232 C 0.44598 -0.05880 0.72693
 C233 C 0.43710 -0.07688 0.70930
 C234 C 0.46094 -0.07374 0.69551
 C235 C 0.49395 -0.05177 0.69993
 C236 C 0.50273 -0.03353 0.71755
 H237 H 0.56482 0.05974 0.73850
 H238 H 0.58127 0.09199 0.70793
 H239 H 0.48042 0.04662 0.68970
 H240 H 0.46424 0.01452 0.72050
 H241 H 0.54587 0.01541 0.77843
 H242 H 0.56255 0.04661 0.80961
 H243 H 0.48540 0.05669 0.76421
 H244 H 0.44749 -0.01830 0.77934
 H245 H 0.43151 -0.05026 0.81006
 H246 H 0.48950 -0.09364 0.79271
 H247 H 0.50501 -0.06152 0.76221
 H248 H 0.42718 -0.06174 0.73729
 H249 H 0.41145 -0.09346 0.70663
 H250 H 0.51312 -0.04858 0.68982
 H251 H 0.52823 -0.01698 0.72069
 H252 H 0.50166 0.08778 0.79533
 O253 O 0.37895 0.65871 0.98331
 O254 O 0.37781 0.71237 0.97704
 C255 C 0.36248 0.72719 0.97304
 O256 O 0.33790 0.72328 0.98292
 O257 O 0.28441 0.66834 0.97674
 C258 C 0.26957 0.63810 0.97295
 O259 O 0.27336 0.61757 0.98312
 O260 O 0.32823 0.61886 0.97701
 C261 C 0.35845 0.63420 0.97326
 O262 O 0.37730 0.66798 1.02298
 O263 O 0.37911 0.72303 1.01676
 C264 C 0.35873 0.72752 1.02655
 O265 O 0.32859 0.71305 1.02258
 O266 O 0.27355 0.65941 1.01648
 C267 C 0.26947 0.63489 1.02658
 O268 O 0.28405 0.61926 1.02279
 O269 O 0.33729 0.61732 1.01672
 C270 C 0.36181 0.63776 1.02678
 Cr271 Cr 0.37653 0.68966 1.00001
 Cr272 Cr 0.30697 0.69010 0.99969
 Cr273 Cr 0.30662 0.62002 0.99991
 O274 O 0.33005 0.66662 0.99990
 O275 O 0.62108 0.33126 0.97784
 O276 O 0.61978 0.27624 0.98322
 C277 C 0.63982 0.27087 0.97376
 O278 O 0.66986 0.28466 0.97789
 O279 O 0.72496 0.33839 0.98256
 C280 C 0.73022 0.36388 0.97318
 O281 O 0.71665 0.38027 0.97753
 O282 O 0.66299 0.38160 0.98249
 C283 C 0.63733 0.36120 0.97332
 O284 O 0.62049 0.33947 1.01763
 O285 O 0.62177 0.28589 1.02308
 C286 C 0.63776 0.27188 1.02739
 O287 O 0.66281 0.27645 1.01781
 O288 O 0.71687 0.33149 1.02250
 C289 C 0.73065 0.36153 1.02678
 O290 O 0.72544 0.38181 1.01741
 O291 O 0.67080 0.38111 1.02242
 C292 C 0.64087 0.36506 1.02683
 Cr293 Cr 0.62271 0.30915 1.00043
 Cr294 Cr 0.69267 0.30874 1.00019
 Cr295 Cr 0.69300 0.37926 0.99997
 O296 O 0.66947 0.33240 1.00017
 O297 O 0.65604 0.38110 0.51688
 O298 O 0.70955 0.37970 0.52310
 C299 C 0.72439 0.36430 0.52685
 O300 O 0.72043 0.33985 0.51675
 O301 O 0.66562 0.28610 0.52276
 C302 C 0.63547 0.27135 0.52670
 O303 O 0.61488 0.27543 0.51683
 O304 O 0.61622 0.33032 0.52303
 C305 C 0.63160 0.36053 0.52690
 O306 O 0.66524 0.37972 0.47723
 O307 O 0.72037 0.38157 0.48343
 C308 C 0.72454 0.36123 0.47333
 O309 O 0.70983 0.33098 0.47703
 O310 O 0.65662 0.27590 0.48300
 C311 C 0.63176 0.27141 0.47319
 O312 O 0.61600 0.28579 0.47718
 O313 O 0.61459 0.33945 0.48329
 C314 C 0.63507 0.36410 0.47332
 Cr315 Cr 0.68691 0.37874 0.50015
 Cr316 Cr 0.68722 0.30908 0.49990
 Cr317 Cr 0.61721 0.30867 0.50008
 O318 O 0.66377 0.33214 0.50002
 O319 O 0.34246 0.61781 0.51656
 O320 O 0.28888 0.61906 0.52263
 C321 C 0.27403 0.63439 0.52650
 O322 O 0.27798 0.65897 0.51652
 O323 O 0.33274 0.71272 0.52264
 C324 C 0.36285 0.72748 0.52670
 O325 O 0.38354 0.72350 0.51689
 O326 O 0.38227 0.66856 0.52281
 C327 C 0.36691 0.63834 0.52662
 O328 O 0.33348 0.61953 0.47688
 O329 O 0.27825 0.61752 0.48290
 C330 C 0.27408 0.63798 0.47292
 O331 O 0.28870 0.66817 0.47681
 O332 O 0.34183 0.72323 0.48288
 C333 C 0.36681 0.72788 0.47315
 O334 O 0.38261 0.71354 0.47718
 O335 O 0.38408 0.65986 0.48302
 C336 C 0.36366 0.63520 0.47301
 Cr337 Cr 0.31166 0.62027 0.49974
 Cr338 Cr 0.31122 0.68990 0.49972
 Cr339 Cr 0.38133 0.69044 0.49996
 O340 O 0.33475 0.66689 0.49979
 C341 C 0.43603 0.56395 0.35581
 N342 N 0.41323 0.54132 0.34350
 N343 N 0.42198 0.53224 0.32693
 C344 C 0.45388 0.54536 0.32200
 N345 N 0.47671 0.56794 0.33441
 N346 N 0.46796 0.57710 0.35098
 C347 C 0.42603 0.57415 0.37388
 N348 N 0.44832 0.59830 0.38572
 N349 N 0.43889 0.60778 0.40189
 C350 C 0.40686 0.59339 0.40679
 N351 N 0.38466 0.56920 0.39498
 N352 N 0.39406 0.55978 0.37883
 C353 C 0.39608 0.60401 0.42433
 N354 N 0.36403 0.58876 0.42921
 N355 N 0.35386 0.59858 0.44482
 C356 C 0.37534 0.62406 0.45616
 N357 N 0.40746 0.63932 0.45134
 N358 N 0.41765 0.62944 0.43571
 C359 C 0.43775 0.87264 0.35636
 N360 N 0.46945 0.88896 0.35066
 N361 N 0.47843 0.90688 0.33409
 C362 C 0.45608 0.90902 0.32244
 N363 N 0.42435 0.89259 0.32825
 N364 N 0.41538 0.87486 0.34488
 C365 C 0.42770 0.85242 0.37445
 N366 N 0.39694 0.83970 0.38162
 N367 N 0.38763 0.82086 0.39780
 C368 C 0.40868 0.81387 0.40733
 N369 N 0.43944 0.82661 0.40016
 N370 N 0.44882 0.84563 0.38406
 C371 C 0.39814 0.79227 0.42480
 N372 N 0.41711 0.78072 0.43215
 N373 N 0.40720 0.76039 0.44763
 C374 C 0.37806 0.75103 0.45644
 N375 N 0.35918 0.76276 0.44919
 N376 N 0.36900 0.78293 0.43361
 C377 C 0.12889 0.56582 0.35635
 N378 N 0.13057 0.58863 0.34344
 N379 N 0.11239 0.57986 0.32701
 C380 C 0.09164 0.54789 0.32275
 N381 N 0.08997 0.52510 0.33583
 N382 N 0.10825 0.53386 0.35227
 C383 C 0.14945 0.57581 0.37428
 N384 N 0.15023 0.55337 0.38654
 N385 N 0.16943 0.56278 0.40258
 C386 C 0.18843 0.59495 0.40696
 N387 N 0.18751 0.61731 0.39473
 N388 N 0.16843 0.60793 0.37869
 C389 C 0.21006 0.60569 0.42441
 N390 N 0.22763 0.63787 0.42900
 N391 N 0.24776 0.64800 0.44456
 C392 C 0.25117 0.62635 0.45610
 N393 N 0.23356 0.59411 0.45155
 N394 N 0.21332 0.58396 0.43599
 C395 C 0.56134 0.43287 0.35561
 N396 N 0.58389 0.45520 0.34306
 N397 N 0.57481 0.46376 0.32641
 C398 C 0.54280 0.45039 0.32163
 N399 N 0.52023 0.42809 0.33425
 N400 N 0.52932 0.41945 0.35091
 C401 C 0.57166 0.42323 0.37377
 N402 N 0.54957 0.39938 0.38583
 N403 N 0.55926 0.39038 0.40210
 C404 C 0.59135 0.40497 0.40689
 N405 N 0.61337 0.42889 0.39487
 N406 N 0.60371 0.43783 0.37861
 C407 C 0.60234 0.39476 0.42452
 N408 N 0.63444 0.41010 0.42933
 N409 N 0.64474 0.40051 0.44501
 C410 C 0.62334 0.37518 0.45646
 N411 N 0.59120 0.35986 0.45170
 N412 N 0.58087 0.36950 0.43602
 C413 C 0.56305 0.12627 0.35663
 N414 N 0.58572 0.12398 0.34554
 N415 N 0.57721 0.10614 0.32895
 C416 C 0.54564 0.08967 0.32280
 N417 N 0.52297 0.09187 0.33407
 N418 N 0.53151 0.10989 0.35060
 C419 C 0.57264 0.14661 0.37464
 N420 N 0.55133 0.15356 0.38385
 N421 N 0.56035 0.17271 0.39990
 C422 C 0.59092 0.18542 0.40740
 N423 N 0.61215 0.17829 0.39827
 N424 N 0.60320 0.15933 0.38215
 C425 C 0.60112 0.20708 0.42483
 N426 N 0.63005 0.21630 0.43391
 N427 N 0.63962 0.23648 0.44947
 C428 C 0.62071 0.24835 0.45644
 N429 N 0.59178 0.23913 0.44736
 N430 N 0.58211 0.21877 0.43188
 C431 C 0.87014 0.43741 0.35718
 N432 N 0.88881 0.46957 0.35276
 N433 N 0.90704 0.47905 0.33633
 C434 C 0.90721 0.45673 0.32365
 N435 N 0.88852 0.42459 0.32817
 N436 N 0.87038 0.41511 0.34460
 C437 C 0.84960 0.42667 0.37508
 N438 N 0.83194 0.39447 0.37961
 N439 N 0.81282 0.38444 0.39562
 C440 C 0.81058 0.40622 0.40769
 N441 N 0.82829 0.43847 0.40321
 N442 N 0.84749 0.44852 0.38719
 C443 C 0.78887 0.39486 0.42507
 N444 N 0.78494 0.41615 0.43665
 N445 N 0.76462 0.40553 0.45214
 C446 C 0.74757 0.37324 0.45661
 N447 N 0.75163 0.35201 0.44506
 N448 N 0.77188 0.36261 0.42958
 C449 C 0.56496 0.43628 1.14236
 N450 N 0.53816 0.41417 1.15246
 N451 N 0.52867 0.42276 1.16894
 C452 C 0.54550 0.45383 1.17591
 N453 N 0.57221 0.47599 1.16569
 N454 N 0.58182 0.46736 1.14926
 C455 C 0.57580 0.42647 1.12449
 N456 N 0.60489 0.44707 1.11588
 N457 N 0.61502 0.43776 1.09997
 C458 C 0.59633 0.40757 1.09204
 N459 N 0.56716 0.38706 1.10059
 N460 N 0.55712 0.39630 1.11655
 C461 C 0.60771 0.39697 1.07478
 N462 N 0.58775 0.36803 1.06575
 N463 N 0.59822 0.35804 1.05035
 C464 C 0.62910 0.37655 1.04346
 N465 N 0.64907 0.40552 1.05247
 N466 N 0.63854 0.41558 1.06782
 C467 C 0.87466 0.43712 1.14379
 N468 N 0.87879 0.46362 1.15404
 N469 N 0.89629 0.47286 1.17076
 C470 C 0.91048 0.45607 1.17785
 N471 N 0.90648 0.42966 1.16749
 N472 N 0.88883 0.42030 1.15081
 C473 C 0.85466 0.42652 1.12564
 N474 N 0.84667 0.39762 1.11688
 N475 N 0.82779 0.38765 1.10072
 C476 C 0.81636 0.40631 1.09267
 N477 N 0.82453 0.43530 1.10136
 N478 N 0.84326 0.44518 1.11758
 C479 C 0.79488 0.39499 1.07517
 N480 N 0.78594 0.41489 1.06602
 N481 N 0.76580 0.40437 1.05044
 C482 C 0.75374 0.37350 1.04350
 N483 N 0.76272 0.35362 1.05264
 N484 N 0.78299 0.36420 1.06815
 C485 C 0.56764 0.12906 1.14515
 N486 N 0.54679 0.13078 1.15825
 N487 N 0.53784 0.11277 1.17476
 C488 C 0.54925 0.09215 1.17887
 N489 N 0.57008 0.09042 1.16563
 N490 N 0.57914 0.10855 1.14913
 C491 C 0.57766 0.14934 1.12709
 N492 N 0.60071 0.15012 1.11472
 N493 N 0.61001 0.16899 1.09853
 C494 C 0.59651 0.18766 1.09410
 N495 N 0.57340 0.18675 1.10643
 N496 N 0.56419 0.16799 1.12263
 C497 C 0.60693 0.20890 1.07646
 N498 N 0.59189 0.22597 1.07162
 N499 N 0.60156 0.24574 1.05588
 C500 C 0.62668 0.24929 1.04440
 N501 N 0.64172 0.23219 1.04921
 N502 N 0.63198 0.21231 1.06493
 C503 C 0.43286 0.56311 1.14307
 N504 N 0.45560 0.58556 1.15549
 N505 N 0.46454 0.57628 1.17191
 C506 C 0.45117 0.54419 1.17658
 N507 N 0.42847 0.52173 1.16406
 N508 N 0.41945 0.53100 1.14764
 C509 C 0.42275 0.57361 1.12518
 N510 N 0.39863 0.55160 1.11322
 N511 N 0.38921 0.56142 1.09720
 C512 C 0.40362 0.59360 1.09256
 N513 N 0.42779 0.61556 1.10449
 N514 N 0.43716 0.60575 1.12050
 C515 C 0.39302 0.60474 1.07517
 N516 N 0.40816 0.63692 1.07052
 N517 N 0.39833 0.64732 1.05500
 C518 C 0.37296 0.62594 1.04356
 N519 N 0.35783 0.59371 1.04817
 N520 N 0.36771 0.58329 1.06370
 C521 C 0.12796 0.56728 1.14458
 N522 N 0.10958 0.58094 1.14932
 N523 N 0.09200 0.57247 1.16602
 C524 C 0.09220 0.55010 1.17864
 N525 N 0.11061 0.53649 1.17381
 N526 N 0.12810 0.54489 1.15712
 C527 C 0.14774 0.57673 1.12636
 N528 N 0.16503 0.56197 1.12150
 N529 N 0.18347 0.57075 1.10519
 C530 C 0.18537 0.59466 1.09315
 N531 N 0.16802 0.60942 1.09797
 N532 N 0.14950 0.60058 1.11428
 C533 C 0.20641 0.60470 1.07547
 N534 N 0.21015 0.62990 1.06391
 N535 N 0.23000 0.63939 1.04819
 C536 C 0.24674 0.62397 1.04346
 N537 N 0.24285 0.59869 1.05498
 N538 N 0.22308 0.58925 1.07069
 C539 C 0.43452 0.87252 1.14319
 N540 N 0.41767 0.88666 1.15017
 N541 N 0.42710 0.90452 1.16677
 C542 C 0.45361 0.90877 1.17709
 N543 N 0.47043 0.89460 1.17004
 N544 N 0.46113 0.87690 1.15339
 C545 C 0.42385 0.85230 1.12512
 N546 N 0.44264 0.84114 1.11698
 N547 N 0.43271 0.82224 1.10083
 C548 C 0.40354 0.81364 1.09229
 N549 N 0.38475 0.82482 1.10042
 N550 N 0.39477 0.84388 1.11651
 C551 C 0.39218 0.79199 1.07485
 N552 N 0.36121 0.77951 1.06810
 N553 N 0.35062 0.75914 1.05263
 C554 C 0.37068 0.75066 1.04326
 N555 N 0.40173 0.76331 1.04993
 N556 N 0.41225 0.78354 1.06548
 C557 C 0.56410 0.43556 0.64455
 N558 N 0.54202 0.41322 0.65729
 N559 N 0.53376 0.42264 0.67392
 C560 C 0.54718 0.45477 0.67847
 N561 N 0.56922 0.47714 0.66564
 N562 N 0.57756 0.46771 0.64901
 C563 C 0.57345 0.42491 0.62641
 N564 N 0.59700 0.44685 0.61414
 N565 N 0.60576 0.43691 0.59790
 C566 C 0.59123 0.40469 0.59333
 N567 N 0.56761 0.38281 0.60556
 N568 N 0.55890 0.39273 0.62180
 C569 C 0.60124 0.39349 0.57571
 N570 N 0.58605 0.36129 0.57107
 N571 N 0.59551 0.35087 0.55539
 C572 C 0.62056 0.37228 0.54377
 N573 N 0.63572 0.40452 0.54836
 N574 N 0.62620 0.41494 0.56404
 C575 C 0.56130 0.12770 0.64386
 N576 N 0.58368 0.12776 0.65648
 N577 N 0.57437 0.10996 0.67307
 C578 C 0.54231 0.09133 0.67770
 N579 N 0.51991 0.09121 0.66500
 N580 N 0.52922 0.10909 0.64840
 C581 C 0.57181 0.14783 0.62578
 N582 N 0.54983 0.14965 0.61366
 N583 N 0.55964 0.16850 0.59747
 C584 C 0.59178 0.18613 0.59282
 N585 N 0.61370 0.18418 0.60490
 N586 N 0.60391 0.16540 0.62108
 C587 C 0.60284 0.20752 0.57528
 N588 N 0.63496 0.22448 0.57056
 N589 N 0.64526 0.24453 0.55495
 C590 C 0.62384 0.24840 0.54349
 N591 N 0.59168 0.23137 0.54817
 N592 N 0.58136 0.21126 0.56377
 C593 C 0.86990 0.43316 0.64323
 N594 N 0.87007 0.45544 0.65601
 N595 N 0.88828 0.46396 0.67243
 C596 C 0.90711 0.45060 0.67674
 N597 N 0.90700 0.42837 0.66388
 N598 N 0.88871 0.41977 0.64745
 C599 C 0.84931 0.42352 0.62533
 N600 N 0.84734 0.39982 0.61303
 N601 N 0.82813 0.39079 0.59700
 C602 C 0.81027 0.40520 0.59268
 N603 N 0.81235 0.42896 0.60494
 N604 N 0.83149 0.43793 0.62097
 C605 C 0.78857 0.39495 0.57527
 N606 N 0.77142 0.41005 0.57085
 N607 N 0.75121 0.40045 0.55532
 C608 C 0.74737 0.37536 0.54364
 N609 N 0.76458 0.36029 0.54803
 N610 N 0.78484 0.36993 0.56356
 C611 C 0.43688 0.56484 0.64403
 N612 N 0.45924 0.58746 0.65654
 N613 N 0.46798 0.57842 0.67315
 C614 C 0.45478 0.54638 0.67791
 N615 N 0.43247 0.52374 0.66531
 N616 N 0.42365 0.53278 0.64870
 C617 C 0.42701 0.57513 0.62592
 N618 N 0.40318 0.55296 0.61387
 N619 N 0.39397 0.56261 0.59767
 C620 C 0.40833 0.59475 0.59293
 N621 N 0.43222 0.61685 0.60495
 N622 N 0.44137 0.60723 0.62114
 C623 C 0.39792 0.60571 0.57535
 N624 N 0.41302 0.63787 0.57061
 N625 N 0.40331 0.64813 0.55497
 C626 C 0.37809 0.62664 0.54347
 N627 N 0.36300 0.59443 0.54816
 N628 N 0.37277 0.58415 0.56381
 C629 C 0.43395 0.87107 0.64402
 N630 N 0.41115 0.86930 0.65694
 N631 N 0.41992 0.88716 0.67351
 C632 C 0.45185 0.90765 0.67786
 N633 N 0.47463 0.90944 0.66479
 N634 N 0.46587 0.89147 0.64823
 C635 C 0.42400 0.85085 0.62595
 N636 N 0.44645 0.85020 0.61368
 N637 N 0.43713 0.83129 0.59751
 C638 C 0.40504 0.81244 0.59301
 N639 N 0.38265 0.81323 0.60523
 N640 N 0.39195 0.83204 0.62140
 C641 C 0.39445 0.79106 0.57544
 N642 N 0.36236 0.77351 0.57070
 N643 N 0.35243 0.75354 0.55506
 C644 C 0.37419 0.75029 0.54358
 N645 N 0.40633 0.76789 0.54828
 N646 N 0.41629 0.78796 0.56392
 C647 C 0.12922 0.56202 0.64318
 N648 N 0.13079 0.54090 0.65617
 N649 N 0.11271 0.53175 0.67263
 C650 C 0.09219 0.54322 0.67681
 N651 N 0.09059 0.56429 0.66368
 N652 N 0.10878 0.57356 0.64722
 C653 C 0.14969 0.57234 0.62522
 N654 N 0.15047 0.59545 0.61286
 N655 N 0.16959 0.60506 0.59680
 C656 C 0.18851 0.59182 0.59249
 N657 N 0.18759 0.56863 0.60481
 N658 N 0.16858 0.55911 0.62087
 C659 C 0.21008 0.60259 0.57502
 N660 N 0.22772 0.58807 0.57049
 N661 N 0.24782 0.59805 0.55492
 C662 C 0.25111 0.62300 0.54331
 N663 N 0.23342 0.63753 0.54781
 N664 N 0.21323 0.62748 0.56337
 C665 C 0.43407 0.56424 0.85699
 N666 N 0.41187 0.54166 0.84438
 N667 N 0.42142 0.53304 0.82795
 C668 C 0.45354 0.54660 0.82345
 N669 N 0.47575 0.56914 0.83615
 N670 N 0.46621 0.57783 0.85258
 C671 C 0.42330 0.57403 0.87490
 N672 N 0.44513 0.59796 0.88703
 N673 N 0.43511 0.60713 0.90306
 C674 C 0.40291 0.59265 0.90753
 N675 N 0.38114 0.56864 0.89544
 N676 N 0.39114 0.55953 0.87941
 C677 C 0.39162 0.60306 0.92493
 N678 N 0.35943 0.58796 0.92946
 N679 N 0.34895 0.59771 0.94496
 C680 C 0.37026 0.62297 0.95652
 N681 N 0.40249 0.63805 0.95203
 N682 N 0.41298 0.62825 0.93652
 C683 C 0.12828 0.56295 0.85468
 N684 N 0.12971 0.58525 0.84142
 N685 N 0.11210 0.57576 0.82476
 C686 C 0.09225 0.54358 0.82064
 N687 N 0.09082 0.52131 0.83403
 N688 N 0.10852 0.53079 0.85069
 C689 C 0.14812 0.57364 0.87290
 N690 N 0.14884 0.55165 0.88558
 N691 N 0.16737 0.56160 0.90191
 C692 C 0.18574 0.59388 0.90615
 N693 N 0.18489 0.61582 0.89351
 N694 N 0.16646 0.60589 0.87718
 C695 C 0.20674 0.60508 0.92388
 N696 N 0.22407 0.63734 0.92833
 N697 N 0.24377 0.64776 0.94410
 C698 C 0.24692 0.62632 0.95600
 N699 N 0.22953 0.59402 0.95160
 N700 N 0.20975 0.58358 0.93583
 C701 C 0.43246 0.87021 0.85558
 N702 N 0.42045 0.89027 0.85151
 N703 N 0.42917 0.90819 0.83493
 C704 C 0.45014 0.90669 0.82172
 N705 N 0.46207 0.88654 0.82592
 N706 N 0.45345 0.86872 0.84250
 C707 C 0.42271 0.85010 0.87367
 N708 N 0.43627 0.83151 0.87808
 N709 N 0.42720 0.81281 0.89430
 C710 C 0.40417 0.81192 0.90669
 N711 N 0.39061 0.83055 0.90232
 N712 N 0.39976 0.84935 0.88611
 C713 C 0.39377 0.79064 0.92428
 N714 N 0.36899 0.78754 0.93594
 N715 N 0.35914 0.76753 0.95160
 C716 C 0.37379 0.74999 0.95618
 N717 N 0.39867 0.75323 0.94456
 N718 N 0.40845 0.77316 0.92889
 C719 C 0.56479 0.43592 0.85768
 N720 N 0.58663 0.46260 0.84735
 N721 N 0.57769 0.47181 0.83089
 C722 C 0.54652 0.45481 0.82414
 N723 N 0.52464 0.42822 0.83459
 N724 N 0.53362 0.41890 0.85101
 C725 C 0.57497 0.42535 0.87553
 N726 N 0.55452 0.39638 0.88437
 N727 N 0.56411 0.38648 0.90027
 C728 C 0.59442 0.40524 0.90796
 N729 N 0.61479 0.43429 0.89919
 N730 N 0.60527 0.44412 0.88324
 C731 C 0.60525 0.39405 0.92523
 N732 N 0.63433 0.41405 0.93408
 N733 N 0.64442 0.40370 0.94952
 C734 C 0.62588 0.37291 0.95661
 N735 N 0.59679 0.35291 0.94776
 N736 N 0.58663 0.36332 0.93239
 C737 C 0.87462 0.43425 0.85637
 N738 N 0.87901 0.41220 0.84594
 N739 N 0.89664 0.42092 0.82928
 C740 C 0.91072 0.45207 0.82244
 N741 N 0.90646 0.47415 0.83299
 N742 N 0.88868 0.46539 0.84960
 C743 C 0.85445 0.42436 0.87445
 N744 N 0.84637 0.44505 0.88339
 N745 N 0.82736 0.43576 0.89948
 C746 C 0.81589 0.40550 0.90729
 N747 N 0.82413 0.38487 0.89842
 N748 N 0.84300 0.39411 0.88227
 C749 C 0.79430 0.39500 0.92474
 N750 N 0.78526 0.36600 0.93373
 N751 N 0.76513 0.35622 0.94931
 C752 C 0.75319 0.37501 0.95640
 N753 N 0.76226 0.40402 0.94741
 N754 N 0.78251 0.41387 0.93191
 C755 C 0.56268 0.12497 0.85761
 N756 N 0.57948 0.11080 0.85059
 N757 N 0.57000 0.09296 0.83399
 C758 C 0.54348 0.08876 0.82369
 N759 N 0.52670 0.10295 0.83078
 N760 N 0.53606 0.12064 0.84743
 C761 C 0.57346 0.14523 0.87565
 N762 N 0.55491 0.15674 0.88370
 N763 N 0.56499 0.17575 0.89981
 C764 C 0.59407 0.18408 0.90838
 N765 N 0.61260 0.17253 0.90035
 N766 N 0.60244 0.15338 0.88430
 C767 C 0.60563 0.20586 0.92575
 N768 N 0.63647 0.21785 0.93262
 N769 N 0.64728 0.23838 0.94801
 C770 C 0.62759 0.24753 0.95716
 N771 N 0.59667 0.23538 0.95037
 N772 N 0.58591 0.21498 0.93492
   
