data_POSCAR
  _audit_creation_date              2014-09-24
  _audit_creation_method            'ToBaCCo'
  _symmetry_space_group_name_H-M    'P1'
  _symmetry_Int_Tables_number       1
  _symmetry_cell_setting            triclinic
  loop_
  _symmetry_equiv_pos_as_xyz
 x,y,z
_cell_length_a 56.8185
_cell_length_b 56.8306
_cell_length_c 56.8165
_cell_angle_alpha 90.017500
_cell_angle_beta 89.975500
_cell_angle_gamma 90.002900
loop_
  _atom_site_label
  _atom_site_type_symbol
  _atom_site_fract_x
  _atom_site_fract_y
  _atom_site_fract_z
C1 C 0.21359 0.51778 1.02900
 H2 H 0.21301 0.53130 1.01562
 C3 C 0.19762 0.51829 1.04767
 H4 H 0.18474 0.53232 1.04871
 C5 C 0.23067 0.48260 1.04361
 H6 H 0.24323 0.46848 1.04171
 C7 C 0.21500 0.48243 1.06258
 H8 H 0.21574 0.46826 1.07532
 N9 N 0.22976 0.50020 1.02738
 C10 C 0.28559 0.52851 0.98295
 H11 H 0.28619 0.51511 0.96943
 C12 C 0.30154 0.54719 0.98242
 H13 H 0.31444 0.54826 0.96842
 C14 C 0.26850 0.54317 1.01813
 H15 H 0.25593 0.54128 1.03226
 C16 C 0.28415 0.56213 1.01827
 H17 H 0.28345 0.57492 1.03239
 Zn18 Zn 0.24960 0.50014 1.00061
 N19 N 0.26941 0.52690 1.00055
 C20 C 0.23071 0.51762 0.95758
 N21 N 0.22979 0.50005 0.97385
 C22 C 0.21364 0.48244 0.97223
 C23 C 0.19772 0.48189 0.95353
 C24 C 0.21508 0.51773 0.93859
 C25 C 0.28560 0.47179 1.01828
 C26 C 0.30156 0.45312 1.01879
 C27 C 0.28422 0.43819 0.98294
 C28 C 0.26855 0.45714 0.98309
 N29 N 0.26944 0.47339 1.00068
 H30 H 0.24326 0.53176 0.95948
 H31 H 0.21304 0.46894 0.98563
 H32 H 0.18484 0.46787 0.95244
 H33 H 0.21579 0.53184 0.92580
 H34 H 0.28618 0.48518 1.03180
 H35 H 0.31445 0.45205 1.03280
 H36 H 0.28354 0.42541 0.96880
 H37 H 0.25600 0.45903 0.96895
 C38 C 0.30084 0.56411 1.00027
 C39 C 0.19829 0.50042 1.06459
 C40 C 0.30088 0.43621 1.00094
 C41 C 0.19843 0.49972 0.93660
 C42 C 0.78593 0.51785 -0.02815
 H43 H 0.78656 0.53134 -0.01472
 C44 C 0.80187 0.51840 -0.04685
 H45 H 0.81478 0.53239 -0.04792
 C46 C 0.76881 0.48273 -0.04285
 H47 H 0.75623 0.46860 -0.04098
 C48 C 0.78444 0.48261 -0.06185
 H49 H 0.78372 0.46851 -0.07467
 N50 N 0.76975 0.50027 -0.02655
 C51 C 0.71405 0.52851 0.01808
 H52 H 0.71347 0.51508 0.03157
 C53 C 0.69809 0.54718 0.01868
 H54 H 0.68522 0.54823 0.03272
 C55 C 0.73106 0.54322 -0.01710
 H56 H 0.74359 0.54135 -0.03127
 C57 C 0.71540 0.56218 -0.01717
 H58 H 0.71607 0.57499 -0.03127
 Zn59 Zn 0.74997 0.50015 0.00025
 N60 N 0.73018 0.52693 0.00045
 C61 C 0.76899 0.51750 0.04329
 N62 N 0.76984 0.49997 0.02697
 C63 C 0.78599 0.48235 0.02848
 C64 C 0.80198 0.48175 0.04712
 C65 C 0.78468 0.51755 0.06223
 C66 C 0.71392 0.47187 -0.01744
 C67 C 0.69795 0.45321 -0.01800
 C68 C 0.71536 0.43816 0.01777
 C69 C 0.73103 0.45711 0.01766
 N70 N 0.73012 0.47342 0.00013
 H71 H 0.75644 0.53165 0.04148
 H72 H 0.78654 0.46888 0.01503
 H73 H 0.81485 0.46772 0.04812
 H74 H 0.78403 0.53164 0.07506
 H75 H 0.71333 0.48531 -0.03091
 H76 H 0.68504 0.45219 -0.03198
 H77 H 0.71606 0.42533 0.03185
 H78 H 0.74362 0.45894 0.03178
 C79 C 0.69876 0.56413 0.00087
 C80 C 0.80114 0.50059 -0.06382
 C81 C 0.69866 0.43624 -0.00020
 C82 C 0.80134 0.49953 0.06411
 C83 C -0.01778 0.28638 0.47097
 H84 H -0.03122 0.28697 0.48445
 C85 C -0.01842 0.30233 0.45229
 H86 H -0.03247 0.31519 0.45135
 C87 C 0.01733 0.26932 0.45612
 H88 H 0.03147 0.25676 0.45793
 C89 C 0.01737 0.28496 0.43714
 H90 H 0.03145 0.28421 0.42430
 N91 N -0.00017 0.27023 0.47248
 C92 C -0.02821 0.21444 0.51709
 H93 H -0.01474 0.21386 0.53053
 C94 C -0.04688 0.19848 0.51773
 H95 H -0.04788 0.18560 0.53175
 C96 C -0.04305 0.23148 0.48199
 H97 H -0.04125 0.24404 0.46784
 C98 C -0.06202 0.21582 0.48197
 H99 H -0.07488 0.21650 0.46791
 Zn100 Zn 0.00005 0.25042 0.49925
 N101 N -0.02670 0.23060 0.49948
 C102 C -0.01720 0.26934 0.54239
 N103 N 0.00027 0.27026 0.52601
 C104 C 0.01788 0.28642 0.52751
 C105 C 0.01853 0.30235 0.54621
 C106 C -0.01721 0.28497 0.56138
 C107 C 0.02836 0.21443 0.48144
 C108 C 0.04703 0.19848 0.48084
 C109 C 0.06211 0.21587 0.51662
 C110 C 0.04315 0.23153 0.51655
 N111 N 0.02682 0.23061 0.49904
 H112 H -0.03135 0.25678 0.54059
 H113 H 0.03130 0.28702 0.51402
 H114 H 0.03255 0.31523 0.54721
 H115 H -0.03124 0.28426 0.57428
 H116 H 0.01491 0.21383 0.46798
 H117 H 0.04806 0.18557 0.46684
 H118 H 0.07495 0.21657 0.53069
 H119 H 0.04132 0.24409 0.53069
 C120 C -0.06390 0.19916 0.49998
 C121 C -0.00065 0.30164 0.43525
 C122 C 0.06402 0.19918 0.49863
 C123 C 0.00081 0.30163 0.56326
 C124 C 0.98219 0.71395 0.52808
 H125 H 0.96878 0.71333 0.51459
 C126 C 0.98153 0.69803 0.54678
 H127 H 0.96753 0.68513 0.54777
 C128 C 1.01724 0.73107 0.54297
 H129 H 1.03138 0.74364 0.54117
 C130 C 1.01725 0.71545 0.56196
 H131 H 1.03127 0.71617 0.57484
 N132 N 0.99979 0.73012 0.52658
 C133 C 0.97175 0.78583 0.48189
 H134 H 0.98523 0.78640 0.46845
 C135 C 0.95308 0.80178 0.48125
 H136 H 0.95208 0.81466 0.46723
 C137 C 0.95690 0.76881 0.51702
 H138 H 0.95871 0.75628 0.53118
 C139 C 0.93793 0.78447 0.51704
 H140 H 0.92507 0.78381 0.53111
 Zn141 Zn 1.00004 0.74990 0.49980
 N142 N 0.97326 0.76969 0.49952
 C143 C 0.98288 0.73090 0.45667
 N144 N 1.00034 0.73004 0.47306
 C145 C 1.01797 0.71390 0.47161
 C146 C 1.01866 0.69792 0.45296
 C147 C 0.98292 0.71521 0.43772
 C148 C 1.02824 0.78594 0.51762
 C149 C 1.04689 0.80192 0.51825
 C150 C 1.06210 0.78453 0.48253
 C151 C 1.04316 0.76884 0.48256
 N152 N 1.02677 0.76975 0.50003
 H153 H 0.96872 0.74344 0.45843
 H154 H 1.03138 0.71335 0.48511
 H155 H 1.03269 0.68504 0.45200
 H156 H 0.96889 0.71586 0.42483
 H157 H 1.01475 0.78653 0.53105
 H158 H 1.04786 0.81483 0.53225
 H159 H 1.07499 0.78383 0.46848
 H160 H 1.04139 0.75627 0.46842
 C161 C 0.93606 0.80112 0.49902
 C162 C 0.99925 0.69876 0.56383
 C163 C 1.06394 0.80123 0.50051
 C164 C 1.00095 0.69855 0.43590
 C165 C 0.47179 -0.01835 0.28560
 H166 H 0.48526 -0.03179 0.28619
 C167 C 0.45312 -0.01895 0.30157
 H168 H 0.45211 -0.03296 0.31446
 C169 C 0.45698 0.01676 0.26854
 H170 H 0.45881 0.03090 0.25599
 C171 C 0.43802 0.01681 0.28421
 H172 H 0.42517 0.03088 0.28353
 N173 N 0.47332 -0.00075 0.26944
 C174 C 0.51797 -0.02875 0.21362
 H175 H 0.53140 -0.01527 0.21305
 C176 C 0.51863 -0.04741 0.19765
 H177 H 0.53269 -0.04834 0.18478
 C178 C 0.48287 -0.04363 0.23067
 H179 H 0.46872 -0.04183 0.24324
 C180 C 0.48286 -0.06259 0.21501
 H181 H 0.46878 -0.07544 0.21574
 Zn182 Zn 0.50010 -0.00051 0.24962
 N183 N 0.50035 -0.02726 0.22978
 C184 C 0.54322 -0.01774 0.26854
 N185 N 0.52684 -0.00027 0.26945
 C186 C 0.52833 0.01734 0.28562
 C187 C 0.54699 0.01798 0.30159
 C188 C 0.56217 -0.01776 0.28421
 C189 C 0.48226 0.02774 0.21364
 C190 C 0.48159 0.04644 0.19773
 C191 C 0.51731 0.06163 0.21513
 C192 C 0.51732 0.04264 0.23074
 N193 N 0.49986 0.02625 0.22981
 H194 H 0.54143 -0.03188 0.25597
 H195 H 0.51484 0.03076 0.28622
 H196 H 0.54796 0.03199 0.31449
 H197 H 0.57505 -0.03180 0.28352
 H198 H 0.46885 0.01424 0.21303
 H199 H 0.46757 0.04743 0.18485
 H200 H 0.53133 0.07453 0.21585
 H201 H 0.53146 0.04085 0.24330
 C202 C 0.50088 -0.06446 0.19831
 C203 C 0.43612 -0.00118 0.30089
 C204 C 0.49930 0.06351 0.19846
 C205 C 0.56402 0.00025 0.30090
 C206 C 0.52833 -0.01796 0.71410
 H207 H 0.51487 -0.03141 0.71350
 C208 C 0.54702 -0.01857 0.69815
 H209 H 0.54804 -0.03257 0.68525
 C210 C 0.54313 0.01715 0.73119
 H211 H 0.54130 0.03129 0.74375
 C212 C 0.56211 0.01720 0.71553
 H213 H 0.57495 0.03127 0.71623
 N214 N 0.52679 -0.00036 0.73027
 C215 C 0.48210 -0.02836 0.78604
 H216 H 0.46868 -0.01487 0.78662
 C217 C 0.48142 -0.04702 0.80200
 H218 H 0.46739 -0.04800 0.81488
 C219 C 0.51720 -0.04325 0.76900
 H220 H 0.53136 -0.04147 0.75645
 C221 C 0.51718 -0.06221 0.78467
 H222 H 0.53122 -0.07509 0.78399
 Zn223 Zn 0.50000 -0.00013 0.75007
 N224 N 0.49973 -0.02688 0.76989
 C225 C 0.45689 -0.01736 0.73112
 N226 N 0.47327 0.00011 0.73022
 C227 C 0.47178 0.01772 0.71406
 C228 C 0.45312 0.01836 0.69810
 C229 C 0.43794 -0.01738 0.71546
 C230 C 0.51781 0.02813 0.78608
 C231 C 0.51845 0.04682 0.80202
 C232 C 0.48273 0.06198 0.78462
 C233 C 0.48275 0.04301 0.76898
 N234 N 0.50022 0.02663 0.76990
 H235 H 0.45868 -0.03151 0.74368
 H236 H 0.48527 0.03114 0.71348
 H237 H 0.45214 0.03237 0.68521
 H238 H 0.42506 -0.03142 0.71614
 H239 H 0.53123 0.01465 0.78668
 H240 H 0.53245 0.04781 0.81492
 H241 H 0.46869 0.07487 0.78391
 H242 H 0.46862 0.04121 0.75640
 C243 C 0.49915 -0.06406 0.80133
 C244 C 0.56402 -0.00080 0.69885
 C245 C 0.50072 0.06386 0.80131
 C246 C 0.43608 0.00062 0.69878
 C247 C 0.28603 0.01778 0.47152
 H248 H 0.28665 0.03131 0.48492
 C249 C 0.30200 0.01827 0.45284
 H250 H 0.31491 0.03226 0.45175
 C251 C 0.26891 -0.01737 0.45688
 H252 H 0.25632 -0.03148 0.45877
 C253 C 0.28457 -0.01754 0.43791
 H254 H 0.28386 -0.03167 0.42513
 N255 N 0.26984 0.00022 0.47314
 C256 C 0.21405 0.02863 0.51757
 H257 H 0.21343 0.01524 0.53109
 C258 C 0.19812 0.04732 0.51808
 H259 H 0.18522 0.04843 0.53208
 C260 C 0.23116 0.04322 0.48238
 H261 H 0.24373 0.04130 0.46824
 C262 C 0.21553 0.06220 0.48222
 H263 H 0.21624 0.07496 0.46808
 Zn264 Zn 0.25000 0.00019 0.49990
 N265 N 0.23022 0.02698 0.49997
 C266 C 0.26893 0.01765 0.54294
 N267 N 0.26981 0.00008 0.52666
 C268 C 0.28594 -0.01755 0.52826
 C269 C 0.30189 -0.01811 0.54694
 C270 C 0.28458 0.01775 0.56191
 C271 C 0.21398 -0.02812 0.48221
 C272 C 0.19801 -0.04678 0.48166
 C273 C 0.21534 -0.06176 0.51749
 C274 C 0.23101 -0.04280 0.51738
 N275 N 0.23013 -0.02653 0.49981
 H276 H 0.25639 0.03180 0.54106
 H277 H 0.28652 -0.03105 0.51485
 H278 H 0.31475 -0.03214 0.54800
 H279 H 0.28390 0.03186 0.57471
 H280 H 0.21341 -0.01471 0.46870
 H281 H 0.18513 -0.04785 0.46764
 H282 H 0.21602 -0.07456 0.53160
 H283 H 0.24356 -0.04094 0.53152
 C284 C 0.19884 0.06422 0.50021
 C285 C 0.30128 0.00042 0.43592
 C286 C 0.19868 -0.06372 0.49948
 C287 C 0.30122 -0.00028 0.56388
 C288 C 0.71413 0.01787 0.52820
 H289 H 0.71351 0.03135 0.51478
 C290 C 0.69818 0.01842 0.54690
 H291 H 0.68528 0.03241 0.54797
 C292 C 0.73124 -0.01726 0.54289
 H293 H 0.74381 -0.03139 0.54101
 C294 C 0.71559 -0.01737 0.56188
 H295 H 0.71631 -0.03147 0.57469
 N296 N 0.73031 0.00029 0.52660
 C297 C 0.78605 0.02849 0.48200
 H298 H 0.78663 0.01505 0.46852
 C299 C 0.80198 0.04718 0.48139
 H300 H 0.81486 0.04822 0.46736
 C301 C 0.76900 0.04324 0.51716
 H302 H 0.75646 0.04139 0.53132
 C303 C 0.78465 0.06222 0.51722
 H304 H 0.78396 0.07505 0.53131
 Zn305 Zn 0.75010 0.00015 0.49981
 N306 N 0.76990 0.02692 0.49963
 C307 C 0.73113 0.01750 0.45676
 N308 N 0.73024 -0.00001 0.47308
 C309 C 0.71408 -0.01762 0.47154
 C310 C 0.69812 -0.01824 0.45288
 C311 C 0.71546 0.01755 0.43780
 C312 C 0.78612 -0.02815 0.51749
 C313 C 0.80207 -0.04683 0.51803
 C314 C 0.78466 -0.06186 0.48225
 C315 C 0.76901 -0.04289 0.48237
 N316 N 0.76993 -0.02659 0.49991
 H317 H 0.74368 0.03165 0.45858
 H318 H 0.71351 -0.03109 0.48499
 H319 H 0.68524 -0.03226 0.45186
 H320 H 0.71614 0.03163 0.42496
 H321 H 0.78673 -0.01472 0.53097
 H322 H 0.81498 -0.04787 0.53202
 H323 H 0.78394 -0.07469 0.46816
 H324 H 0.75643 -0.04105 0.46825
 C325 C 0.80130 0.06416 0.49919
 C326 C 0.69890 0.00061 0.56385
 C327 C 0.80135 -0.06380 0.50023
 C328 C 0.69880 -0.00046 0.43589
 C329 C 0.48194 0.21410 1.02832
 H330 H 0.46851 0.21352 1.01484
 C331 C 0.48131 0.19812 1.04697
 H332 H 0.46730 0.18521 1.04794
 C333 C 0.51702 0.23116 1.04321
 H334 H 0.53116 0.24373 1.04143
 C335 C 0.51705 0.21548 1.06215
 H336 H 0.53109 0.21616 1.07502
 N337 N 0.49954 0.23027 1.02685
 C338 C 0.47148 0.28608 0.98231
 H339 H 0.48494 0.28669 0.96886
 C340 C 0.45280 0.30203 0.98172
 H341 H 0.45179 0.31494 0.96772
 C342 C 0.45665 0.26899 1.01741
 H343 H 0.45847 0.25643 1.03155
 C344 C 0.43768 0.28464 1.01748
 H345 H 0.42483 0.28394 1.03155
 Zn346 Zn 0.49977 0.25011 1.00011
 N347 N 0.47300 0.26991 0.99990
 C348 C 0.48257 0.23121 0.95696
 N349 N 0.50003 0.23031 0.97333
 C350 C 0.51765 0.21416 0.97183
 C351 C 0.51832 0.19821 0.95315
 C352 C 0.48257 0.21555 0.93798
 C353 C 0.52804 0.28609 1.01798
 C354 C 0.54671 0.30205 1.01862
 C355 C 0.56185 0.28472 0.98283
 C356 C 0.54288 0.26906 0.98286
 N357 N 0.52653 0.26994 1.00036
 H358 H 0.46841 0.24376 0.95875
 H359 H 0.53107 0.21357 0.98532
 H360 H 0.53234 0.18533 0.95216
 H361 H 0.46853 0.21624 0.92510
 H362 H 0.51456 0.28667 1.03143
 H363 H 0.54770 0.31493 1.03265
 H364 H 0.57471 0.28405 0.96877
 H365 H 0.54108 0.25652 0.96869
 C366 C 0.43579 0.30133 0.99949
 C367 C 0.49905 0.19879 1.06400
 C368 C 0.56373 0.30138 1.00086
 C369 C 0.50059 0.19889 0.93611
 C370 C 0.48196 0.78610 -0.02782
 H371 H 0.46853 0.78673 -0.01432
 C372 C 0.48131 0.80201 -0.04653
 H373 H 0.46730 0.81491 -0.04753
 C374 C 0.51702 0.76898 -0.04270
 H375 H 0.53116 0.75642 -0.04089
 C376 C 0.51703 0.78459 -0.06170
 H377 H 0.53107 0.78386 -0.07459
 N378 N 0.49955 0.76993 -0.02631
 C379 C 0.47149 0.71424 0.01842
 H380 H 0.48497 0.71367 0.03185
 C381 C 0.45281 0.69830 0.01909
 H382 H 0.45180 0.68544 0.03312
 C383 C 0.45666 0.73125 -0.01670
 H384 H 0.45847 0.74377 -0.03087
 C385 C 0.43768 0.71560 -0.01670
 H386 H 0.42482 0.71627 -0.03075
 Zn387 Zn 0.49979 0.75017 0.00049
 N388 N 0.47302 0.73037 0.00078
 C389 C 0.48260 0.76918 0.04362
 N390 N 0.50006 0.77005 0.02721
 C391 C 0.51768 0.78620 0.02866
 C392 C 0.51836 0.80218 0.04731
 C393 C 0.48262 0.78487 0.06257
 C394 C 0.52805 0.71414 -0.01731
 C395 C 0.54672 0.69819 -0.01793
 C396 C 0.56188 0.71562 0.01779
 C397 C 0.54291 0.73128 0.01775
 N398 N 0.52654 0.73034 0.00027
 H399 H 0.46844 0.75663 0.04186
 H400 H 0.53109 0.78676 0.01515
 H401 H 0.53239 0.81506 0.04826
 H402 H 0.46860 0.78420 0.07547
 H403 H 0.51457 0.71352 -0.03074
 H404 H 0.54772 0.68527 -0.03192
 H405 H 0.57475 0.71635 0.03183
 H406 H 0.54111 0.74386 0.03187
 C407 C 0.43579 0.69896 0.00134
 C408 C 0.49903 0.80127 -0.06358
 C409 C 0.56375 0.69891 -0.00019
 C410 C 0.50065 0.80153 0.06438
 C411 C 1.02876 0.48159 0.21398
 H412 H 1.01530 0.46813 0.21339
 C413 C 1.04743 0.48099 0.19801
 H414 H 1.04844 0.46699 0.18510
 C415 C 1.04356 0.51669 0.23106
 H416 H 1.04173 0.53083 0.24363
 C417 C 1.06252 0.51676 0.21539
 H418 H 1.07536 0.53083 0.21608
 N419 N 1.02722 0.49919 0.23016
 C420 C 0.98256 0.47118 0.28595
 H421 H 0.96914 0.48468 0.28654
 C422 C 0.98188 0.45252 0.30190
 H423 H 0.96785 0.45155 0.31479
 C424 C 1.01764 0.45628 0.26889
 H425 H 1.03179 0.45805 0.25633
 C426 C 1.01762 0.43731 0.28454
 H427 H 1.03165 0.42442 0.28385
 Zn428 Zn 1.00044 0.49942 0.24997
 N429 N 1.00018 0.47266 0.26979
 C430 C 0.95732 0.48219 0.23105
 N431 N 0.97370 0.49966 0.23014
 C432 C 0.97220 0.51727 0.21398
 C433 C 0.95352 0.51792 0.19804
 C434 C 0.93834 0.48219 0.21540
 C435 C 1.01827 0.52767 0.28598
 C436 C 1.01891 0.54636 0.30192
 C437 C 0.98318 0.56152 0.28454
 C438 C 0.98320 0.54254 0.26889
 N439 N 1.00067 0.52617 0.26981
 H440 H 0.95911 0.46805 0.24360
 H441 H 0.98569 0.53069 0.21339
 H442 H 0.95254 0.53194 0.18516
 H443 H 0.92546 0.46815 0.21610
 H444 H 1.03169 0.51419 0.28658
 H445 H 1.03292 0.54736 0.31481
 H446 H 0.96915 0.57441 0.28383
 H447 H 0.96906 0.54075 0.25632
 C448 C 0.99960 0.43546 0.30122
 C449 C 1.06442 0.49877 0.19870
 C450 C 1.00118 0.56340 0.30121
 C451 C 0.93648 0.50020 0.19874
 C452 C -0.02829 0.48212 0.78592
 H453 H -0.01483 0.46868 0.78651
 C454 C -0.04699 0.48150 0.80187
 H455 H -0.04801 0.46749 0.81475
 C456 C -0.04309 0.51724 0.76887
 H457 H -0.04126 0.53139 0.75633
 C458 C -0.06208 0.51727 0.78452
 H459 H -0.07493 0.53134 0.78383
 N460 N -0.02675 0.49974 0.76977
 C461 C 0.01797 0.47178 0.71399
 H462 H 0.03140 0.48527 0.71344
 C463 C 0.01864 0.45314 0.69800
 H464 H 0.03268 0.45218 0.68512
 C465 C -0.01715 0.45688 0.73099
 H466 H -0.03132 0.45866 0.74353
 C467 C -0.01714 0.43795 0.71529
 H468 H -0.03119 0.42507 0.71593
 Zn469 Zn 0.00005 0.49999 0.74999
 N470 N 0.00033 0.47325 0.73014
 C471 C 0.04314 0.48277 0.76896
 N472 N 0.02677 0.50024 0.76985
 C473 C 0.02824 0.51784 0.78603
 C474 C 0.04688 0.51848 0.80202
 C475 C 0.06207 0.48274 0.78465
 C476 C -0.01777 0.52823 0.71400
 C477 C -0.01842 0.54691 0.69806
 C478 C 0.01729 0.56212 0.71548
 C479 C 0.01727 0.54315 0.73112
 N480 N -0.00018 0.52675 0.73018
 H481 H 0.04137 0.46862 0.75639
 H482 H 0.01475 0.53127 0.78660
 H483 H 0.04784 0.53248 0.81492
 H484 H 0.07495 0.46869 0.78398
 H485 H -0.03118 0.51473 0.71338
 H486 H -0.03241 0.54789 0.68515
 H487 H 0.03131 0.57502 0.71619
 H488 H 0.03140 0.54137 0.74370
 C489 C 0.00090 0.43611 0.69863
 C490 C -0.06399 0.49926 0.80118
 C491 C -0.00070 0.56397 0.69878
 C492 C 0.06391 0.50074 0.80135
 C493 C 0.13140 0.12084 0.51917
 C494 C 0.13607 0.14768 0.51811
 C495 C 0.11694 0.14993 0.49915
 C496 C 0.11200 0.12337 0.50021
 C497 C 0.14965 0.11719 0.49955
 C498 C 0.13051 0.11945 0.48059
 C499 C 0.15462 0.14374 0.49849
 C500 C 0.13518 0.14629 0.47952
 C501 C 0.09842 0.16786 0.49894
 C502 C 0.08289 0.18230 0.49879
 C503 C 0.16756 0.09865 0.49978
 C504 C 0.18199 0.08311 0.49998
 H505 H 0.13004 0.11017 0.53548
 H506 H 0.13815 0.15949 0.53354
 H507 H 0.09427 0.11518 0.50092
 H508 H 0.12842 0.10764 0.46517
 H509 H 0.17236 0.15190 0.49778
 H510 H 0.13653 0.15696 0.46321
 C511 C 0.62190 0.63307 -0.02048
 C512 C 0.64857 0.63760 -0.01708
 C513 C 0.64949 0.61703 0.00045
 C514 C 0.62310 0.61224 -0.00296
 C515 C 0.61673 0.64973 0.00018
 C516 C 0.61766 0.62916 0.01770
 C517 C 0.64311 0.65456 0.00360
 C518 C 0.64433 0.63369 0.02112
 C519 C 0.66743 0.59853 0.00060
 C520 C 0.68188 0.58300 0.00072
 C521 C 0.59818 0.66763 0.00004
 C522 C 0.58264 0.68205 -0.00007
 H523 H 0.61247 0.63301 -0.03759
 H524 H 0.66149 0.64086 -0.03137
 H525 H 0.61506 0.59464 -0.00566
 H526 H 0.60475 0.62588 0.03200
 H527 H 0.65113 0.67216 0.00630
 H528 H 0.65376 0.63373 0.03823
 C529 C 0.86145 -0.12730 0.47732
 C530 C 0.88612 -0.12495 0.48867
 C531 C 0.88318 -0.14958 0.49941
 C532 C 0.85879 -0.15222 0.48807
 C533 C 0.85051 -0.11680 0.49972
 C534 C 0.84754 -0.14142 0.51048
 C535 C 0.87491 -0.11419 0.51106
 C536 C 0.87224 -0.13909 0.52181
 C537 C 0.90168 -0.16753 0.49926
 C538 C 0.91720 -0.18199 0.49914
 C539 C 0.83262 -0.09825 0.49990
 C540 C 0.81820 -0.08270 0.50005
 H541 H 0.85682 -0.12224 0.45903
 H542 H 0.90219 -0.11837 0.47969
 H543 H 0.85237 -0.16806 0.47862
 H544 H 0.83147 -0.14798 0.51945
 H545 H 0.88135 -0.09835 0.52051
 H546 H 0.87688 -0.14413 0.54010
 C547 C 0.36489 0.35401 1.01990
 C548 C 0.36953 0.38086 1.01899
 C549 C 0.35012 0.38328 1.00033
 C550 C 0.34517 0.35671 1.00124
 C551 C 0.38285 0.35055 0.99997
 C552 C 0.36344 0.35296 0.98131
 C553 C 0.38776 0.37712 0.99907
 C554 C 0.36808 0.37981 0.98042
 C555 C 0.33219 0.40180 1.00054
 C556 C 0.31776 0.41733 1.00072
 C557 C 0.40137 0.33263 0.99979
 C558 C 0.41691 0.31820 0.99964
 H559 H 0.36378 0.34320 1.03613
 H560 H 0.37185 0.39254 1.03448
 H561 H 0.32745 0.34854 1.00214
 H562 H 0.36114 0.34128 0.96582
 H563 H 0.40547 0.38532 0.99817
 H564 H 0.36920 0.39061 0.96418
 C565 C 0.85053 0.13878 0.48330
 C566 C 0.85699 0.15442 0.50471
 C567 C 0.88318 0.14991 0.49969
 C568 C 0.87701 0.13457 0.47829
 C569 C 0.85047 0.11715 0.49951
 C570 C 0.87666 0.11267 0.49449
 C571 C 0.85664 0.13248 0.52091
 C572 C 0.88310 0.12826 0.51589
 C573 C 0.90169 0.16784 0.49979
 C574 C 0.91722 0.18228 0.49988
 C575 C 0.83257 0.09861 0.49940
 C576 C 0.81815 0.08306 0.49931
 H577 H 0.83693 0.14290 0.46990
 H578 H 0.84912 0.17180 0.50891
 H579 H 0.88559 0.13563 0.46077
 H580 H 0.88456 0.09530 0.49029
 H581 H 0.84806 0.13141 0.53844
 H582 H 0.89670 0.12413 0.52929
 C583 C 0.35995 0.65114 -0.01330
 C584 C 0.36366 0.62527 -0.02110
 C585 C 0.35007 0.61705 0.00079
 C586 C 0.34606 0.64262 0.00860
 C587 C 0.38282 0.64976 0.00105
 C588 C 0.36924 0.64154 0.02294
 C589 C 0.38680 0.62418 -0.00675
 C590 C 0.37295 0.61569 0.01513
 C591 C 0.33214 0.59853 0.00063
 C592 C 0.31771 0.58300 0.00047
 C593 C 0.40136 0.66767 0.00117
 C594 C 0.41690 0.68210 0.00126
 H595 H 0.35481 0.66592 -0.02499
 H596 H 0.36117 0.61837 -0.03921
 H597 H 0.32910 0.64999 0.01491
 H598 H 0.37174 0.64844 0.04105
 H599 H 0.40375 0.61679 -0.01307
 H600 H 0.37811 0.60092 0.02681
 C601 C 0.15090 -0.13957 0.51427
 C602 C 0.12502 -0.13589 0.52206
 C603 C 0.11681 -0.14947 0.50017
 C604 C 0.14239 -0.15345 0.49236
 C605 C 0.14950 -0.11670 0.49993
 C606 C 0.14129 -0.13028 0.47803
 C607 C 0.12391 -0.11274 0.50773
 C608 C 0.11544 -0.12659 0.48584
 C609 C 0.09831 -0.16742 0.50030
 C610 C 0.08279 -0.18187 0.50040
 C611 C 0.16740 -0.09815 0.49978
 C612 C 0.18182 -0.08261 0.49965
 H613 H 0.16568 -0.14469 0.52595
 H614 H 0.11812 -0.13840 0.54017
 H615 H 0.14978 -0.17040 0.48605
 H616 H 0.14819 -0.12776 0.45992
 H617 H 0.11650 -0.09581 0.51404
 H618 H 0.10066 -0.12145 0.47415
 C619 C 0.63833 0.35069 1.01671
 C620 C 0.65394 0.35714 0.99527
 C621 C 0.64941 0.38332 1.00026
 C622 C 0.63410 0.37716 1.02169
 C623 C 0.61667 0.35060 1.00052
 C624 C 0.61217 0.37679 1.00551
 C625 C 0.63198 0.35675 0.97909
 C626 C 0.62775 0.38321 0.98409
 C627 C 0.66734 0.40184 1.00011
 C628 C 0.68178 0.41737 0.99997
 C629 C 0.59814 0.33268 1.00066
 C630 C 0.58260 0.31825 1.00076
 H631 H 0.64246 0.33711 1.03012
 H632 H 0.67132 0.34927 0.99106
 H633 H 0.63517 0.38576 1.03920
 H634 H 0.59480 0.38468 1.00973
 H635 H 0.63089 0.34816 0.96158
 H636 H 0.62359 0.39679 0.97068
 C637 C 0.49669 0.15421 1.14331
 C638 C 0.47883 0.13366 1.14494
 C639 C 0.49933 0.11661 1.14943
 C640 C 0.51720 0.13686 1.14808
 C641 C 0.49927 0.14944 1.11681
 C642 C 0.51976 0.13239 1.12130
 C643 C 0.48141 0.12919 1.11817
 C644 C 0.50190 0.11187 1.12292
 C645 C 0.49934 0.09802 1.16728
 C646 C 0.49933 0.08244 1.18166
 C647 C 0.49921 0.16742 1.09834
 C648 C 0.49915 0.18189 1.08284
 H649 H 0.49455 0.17183 1.15147
 H650 H 0.46200 0.13397 1.15487
 H651 H 0.53191 0.13980 1.16059
 H652 H 0.53659 0.13207 1.11137
 H653 H 0.46669 0.12623 1.10567
 H654 H 0.50404 0.09427 1.11473
 C655 C 0.02048 0.62258 0.63359
 C656 C 0.00362 0.62333 0.61220
 C657 C -0.00060 0.64962 0.61684
 C658 C 0.01626 0.64916 0.63796
 C659 C -0.00058 0.61692 0.64959
 C660 C -0.00481 0.64322 0.65426
 C661 C -0.01744 0.61740 0.62846
 C662 C -0.02167 0.64398 0.63283
 C663 C -0.00064 0.66752 0.59830
 C664 C -0.00068 0.68193 0.58274
 C665 C -0.00059 0.59840 0.66751
 C666 C -0.00063 0.58286 0.68194
 H667 H 0.03781 0.61358 0.63410
 H668 H 0.00708 0.61534 0.59470
 H669 H 0.03012 0.66243 0.64166
 H670 H -0.00827 0.65118 0.67176
 H671 H -0.03130 0.60414 0.62474
 H672 H -0.03900 0.65298 0.63231
 C673 C 0.48294 0.87197 -0.11671
 C674 C 0.50429 0.88760 -0.12324
 C675 C 0.49922 0.88304 -0.14941
 C676 C 0.47787 0.86768 -0.14315
 C677 C 0.49920 0.85037 -0.11663
 C678 C 0.49413 0.84578 -0.14280
 C679 C 0.52054 0.86573 -0.12291
 C680 C 0.51549 0.86144 -0.14936
 C681 C 0.49922 0.90154 -0.16735
 C682 C 0.49920 0.91706 -0.18180
 C683 C 0.49916 0.83248 -0.09807
 C684 C 0.49911 0.81809 -0.08251
 H685 H 0.46956 0.87611 -0.10308
 H686 H 0.50847 0.90499 -0.11540
 H687 H 0.46033 0.86869 -0.15167
 H688 H 0.48995 0.82837 -0.15062
 H689 H 0.53809 0.86473 -0.11438
 H690 H 0.52887 0.85732 -0.16299
 C691 C 0.99703 0.38742 0.37693
 C692 C 0.97912 0.36695 0.37862
 C693 C 0.99957 0.34987 0.38323
 C694 C 1.01747 0.37008 0.38181
 C695 C 0.99964 0.38255 0.35046
 C696 C 1.02009 0.36548 0.35506
 C697 C 0.98172 0.36235 0.35187
 C698 C 1.00218 0.34497 0.35676
 C699 C 0.99951 0.33199 0.40179
 C700 C 0.99944 0.31759 0.41736
 C701 C 0.99965 0.40106 0.33252
 C702 C 0.99964 0.41658 0.31808
 H703 H 0.99491 0.40507 0.38503
 H704 H 0.96228 0.36736 0.38852
 H705 H 1.03217 0.37307 0.39432
 H706 H 1.03693 0.36509 0.34516
 H707 H 0.96702 0.35938 0.33935
 H708 H 1.00429 0.32731 0.34869
 C709 C 0.52051 0.86876 0.12092
 C710 C 0.50183 0.88844 0.12344
 C711 C 0.50070 0.88356 0.15001
 C712 C 0.51939 0.86415 0.14777
 C713 C 0.50063 0.85080 0.11731
 C714 C 0.49950 0.84588 0.14387
 C715 C 0.48195 0.87021 0.11956
 C716 C 0.48081 0.86560 0.14641
 C717 C 0.50075 0.90211 0.16792
 C718 C 0.50081 0.91767 0.18234
 C719 C 0.50061 0.83286 0.09879
 C720 C 0.50062 0.81841 0.08326
 H721 H 0.53683 0.86987 0.11023
 H722 H 0.50278 0.90614 0.11523
 H723 H 0.53478 0.86187 0.15957
 H724 H 0.49854 0.82818 0.15206
 H725 H 0.46655 0.87251 0.10776
 H726 H 0.46449 0.86451 0.15711
 C727 C -0.01280 0.38508 0.62591
 C728 C 0.00930 0.37607 0.61274
 C729 C 0.00073 0.35069 0.61638
 C730 C -0.02137 0.35943 0.62928
 C731 C 0.00076 0.38331 0.64923
 C732 C -0.00781 0.35793 0.65291
 C733 C 0.02286 0.37456 0.63633
 C734 C 0.01430 0.34889 0.63970
 C735 C 0.00074 0.33283 0.59779
 C736 C 0.00076 0.31845 0.58220
 C737 C 0.00079 0.40178 0.66722
 C738 C 0.00083 0.41727 0.68171
 H739 H -0.02394 0.40016 0.62043
 H740 H 0.01633 0.38334 0.59602
 H741 H -0.03956 0.35301 0.62618
 H742 H -0.01485 0.35069 0.66963
 H743 H 0.04105 0.38099 0.63942
 H744 H 0.02544 0.33381 0.64516
 C745 C 0.51406 0.12632 0.88489
 C746 C 0.49197 0.11318 0.87585
 C747 C 0.50054 0.11688 0.85047
 C748 C 0.52264 0.12975 0.85924
 C749 C 0.50051 0.14965 0.88317
 C750 C 0.50908 0.15337 0.85779
 C751 C 0.47841 0.13677 0.87440
 C752 C 0.48698 0.14019 0.84873
 C753 C 0.50058 0.09832 0.83257
 C754 C 0.50064 0.08277 0.81816
 C755 C 0.50051 0.16759 0.90168
 C756 C 0.50053 0.18203 0.91722
 H757 H 0.52520 0.12081 0.89996
 H758 H 0.48494 0.09645 0.88309
 H759 H 0.54083 0.12666 0.85280
 H760 H 0.51612 0.17011 0.85058
 H761 H 0.46022 0.13986 0.88084
 H762 H 0.47584 0.14568 0.83365
 C763 C 1.00444 0.61176 0.37676
 C764 C 1.02176 0.63276 0.37792
 C765 C 1.00094 0.64924 0.38302
 C766 C 0.98361 0.62850 0.38213
 C767 C 1.00100 0.61644 0.35035
 C768 C 0.98017 0.63291 0.35545
 C769 C 1.01834 0.63717 0.35123
 C770 C 0.99750 0.65395 0.35662
 C771 C 1.00092 0.66720 0.40152
 C772 C 1.00092 0.68166 0.41704
 C773 C 1.00105 0.59788 0.33246
 C774 C 1.00111 0.58231 0.31805
 H775 H 1.00729 0.59421 0.38485
 H776 H 1.03886 0.63290 0.38736
 H777 H 0.96934 0.62513 0.39504
 H778 H 0.96308 0.63276 0.34600
 H779 H 1.03261 0.64053 0.33831
 H780 H 0.99465 0.67151 0.34856
 C781 C 1.14201 0.48870 0.15228
 C782 C 1.13966 0.47731 0.12760
 C783 C 1.15000 0.49974 0.11659
 C784 C 1.15264 0.51114 0.14097
 C785 C 1.11731 0.49932 0.14938
 C786 C 1.12764 0.52174 0.13837
 C787 C 1.11469 0.48792 0.12500
 C788 C 1.12529 0.51034 0.11372
 C789 C 1.16790 0.49998 0.09803
 C790 C 1.18232 0.50019 0.08247
 C791 C 1.09880 0.49909 0.16733
 C792 C 1.08328 0.49893 0.18180
 H793 H 1.14867 0.47981 0.16834
 H794 H 1.14481 0.45904 0.12296
 H795 H 1.16845 0.52070 0.14732
 H796 H 1.12250 0.54001 0.14300
 H797 H 1.09889 0.47837 0.11862
 H798 H 1.11861 0.51924 0.09767
 C799 C 0.62314 -0.00142 0.61194
 C800 C 0.62084 -0.02014 0.63160
 C801 C 0.61696 -0.00032 0.64959
 C802 C 0.61899 0.01839 0.63018
 C803 C 0.64969 0.00004 0.61684
 C804 C 0.64582 0.01986 0.63481
 C805 C 0.64767 -0.01869 0.63623
 C806 C 0.64351 0.00114 0.65452
 C807 C 0.59844 -0.00051 0.66752
 C808 C 0.58290 -0.00065 0.68197
 C809 C 0.66761 0.00024 0.59829
 C810 C 0.68204 0.00041 0.58275
 H811 H 0.61495 -0.00247 0.59423
 H812 H 0.61037 -0.03659 0.63048
 H813 H 0.60700 0.03364 0.62789
 H814 H 0.65630 0.03631 0.63592
 H815 H 0.65967 -0.03393 0.63851
 H816 H 0.65167 0.00219 0.67223
 C817 C -0.14350 0.49837 0.84552
 C818 C -0.14595 0.47994 0.86547
 C819 C -0.14967 0.50003 0.88318
 C820 C -0.14751 0.51848 0.86353
 C821 C -0.11694 0.49970 0.85043
 C822 C -0.12067 0.51979 0.86814
 C823 C -0.11911 0.48126 0.87008
 C824 C -0.12311 0.50136 0.88806
 C825 C -0.16758 0.50023 0.90173
 C826 C -0.18201 0.50039 0.91728
 C827 C -0.09842 0.49952 0.83250
 C828 C -0.08288 0.49940 0.81806
 H829 H -0.15167 0.49715 0.82782
 H830 H -0.15656 0.46355 0.86459
 H831 H -0.15940 0.53378 0.86105
 H832 H -0.11007 0.53617 0.86904
 H833 H -0.10723 0.46596 0.87258
 H834 H -0.11491 0.50258 0.90575
 C835 C 0.34590 0.00432 0.35669
 C836 C 0.36771 0.02069 0.35606
 C837 C 0.38321 -0.00067 0.35018
 C838 C 0.36170 -0.01706 0.35051
 C839 C 0.35049 -0.00027 0.38294
 C840 C 0.36599 -0.02163 0.37705
 C841 C 0.37201 0.01610 0.38259
 C842 C 0.38777 -0.00525 0.37643
 C843 C 0.40172 -0.00088 0.33224
 C844 C 0.41725 -0.00103 0.31778
 C845 C 0.33258 -0.00003 0.40148
 C846 C 0.31815 0.00017 0.41703
 H847 H 0.32847 0.00825 0.34879
 H848 H 0.36863 0.03809 0.34723
 H849 H 0.35767 -0.03069 0.33711
 H850 H 0.36509 -0.03902 0.38588
 H851 H 0.37605 0.02974 0.39598
 H852 H 0.40518 -0.00919 0.38436
 C853 C 0.11194 0.50411 0.87707
 C854 C 0.12837 0.48312 0.88267
 C855 C 0.14935 0.50016 0.88353
 C856 C 0.13318 0.52116 0.87819
 C857 C 0.11671 0.50040 0.85071
 C858 C 0.13768 0.51745 0.85155
 C859 C 0.13288 0.47940 0.85603
 C860 C 0.15415 0.49645 0.85717
 C861 C 0.16721 0.50002 0.90210
 C862 C 0.18160 0.49989 0.91768
 C863 C 0.09824 0.50053 0.83274
 C864 C 0.08274 0.50063 0.81826
 H865 H 0.09439 0.50726 0.88506
 H866 H 0.12474 0.46899 0.89567
 H867 H 0.13349 0.53833 0.88751
 H868 H 0.14129 0.53158 0.83855
 H869 H 0.13255 0.46223 0.84672
 H870 H 0.17171 0.49329 0.84921
 C871 C 0.64461 -0.02083 0.36621
 C872 C 0.61791 -0.01756 0.37070
 C873 C 0.61692 -0.00001 0.35016
 C874 C 0.64333 -0.00327 0.34537
 C875 C 0.64961 -0.00017 0.38292
 C876 C 0.64864 0.01739 0.36239
 C877 C 0.62319 0.00309 0.38768
 C878 C 0.62193 0.02064 0.36688
 C879 C 0.59841 0.00008 0.33222
 C880 C 0.58289 0.00015 0.31778
 C881 C 0.66752 -0.00027 0.40146
 C882 C 0.68194 -0.00035 0.41700
 H883 H 0.65413 -0.03788 0.36614
 H884 H 0.60508 -0.03193 0.37392
 H885 H 0.65140 -0.00589 0.32776
 H886 H 0.66148 0.03176 0.35918
 H887 H 0.61510 0.00570 0.40528
 H888 H 0.61241 0.03769 0.36696
 C889 C 0.86165 0.51596 0.14978
 C890 C 0.86578 0.52132 0.12336
 C891 C 0.85066 0.49984 0.11695
 C892 C 0.84623 0.49447 0.14308
 C893 C 0.88346 0.49999 0.14961
 C894 C 0.86835 0.47850 0.14320
 C895 C 0.88786 0.50535 0.12347
 C896 C 0.87248 0.48387 0.11679
 C897 C 0.83270 0.49974 0.09846
 C898 C 0.81824 0.49965 0.08295
 C899 C 0.90202 0.50007 0.16749
 C900 C 0.91758 0.50013 0.18190
 H901 H 0.85740 0.52916 0.16355
 H902 H 0.86452 0.53893 0.11500
 H903 H 0.82891 0.49000 0.15093
 H904 H 0.86962 0.46090 0.15156
 H905 H 0.90517 0.50983 0.11560
 H906 H 0.87674 0.47067 0.10303
 C907 C 0.34560 -0.00275 0.64328
 C908 C 0.36639 -0.02034 0.64482
 C909 C 0.38315 0.00034 0.64956
 C910 C 0.36266 0.01794 0.64832
 C911 C 0.35042 0.00014 0.61683
 C912 C 0.36718 0.02081 0.62158
 C913 C 0.37092 -0.01745 0.61808
 C914 C 0.38794 0.00322 0.62310
 C915 C 0.40167 0.00045 0.66748
 C916 C 0.41720 0.00053 0.68191
 C917 C 0.33250 0.00001 0.59830
 C918 C 0.31808 -0.00012 0.58276
 H919 H 0.32798 -0.00520 0.65137
 H920 H 0.36627 -0.03726 0.65458
 H921 H 0.35947 0.03250 0.66096
 H922 H 0.36731 0.03773 0.61182
 H923 H 0.37412 -0.03201 0.60545
 H924 H 0.40555 0.00568 0.61499
   
