data_POSCAR
  _audit_creation_date              2014-09-24
  _audit_creation_method            'ToBaCCo'
  _symmetry_space_group_name_H-M    'P1'
  _symmetry_Int_Tables_number       1
  _symmetry_cell_setting            triclinic
  loop_
  _symmetry_equiv_pos_as_xyz
 x,y,z
_cell_length_a 49.6164
_cell_length_b 49.7388
_cell_length_c 21.0655
_cell_angle_alpha 90.650200
_cell_angle_beta 89.146500
_cell_angle_gamma 119.500200
loop_
  _atom_site_label
  _atom_site_type_symbol
  _atom_site_fract_x
  _atom_site_fract_y
  _atom_site_fract_z
C1 C 0.16519 0.47481 0.55160
 C2 C 0.16638 0.47865 0.48717
 C3 C 0.18234 0.46450 0.46192
 N4 N 0.19166 0.45292 0.50937
 C5 C 0.18110 0.45918 0.56405
 C6 C 0.18757 0.46165 0.39625
 C7 C 0.20925 0.45250 0.37576
 C8 C 0.20873 0.43875 0.31770
 C9 C 0.23427 0.43477 0.31552
 C10 C 0.24974 0.44621 0.37219
 N11 N 0.23414 0.45663 0.40897
 C12 C 0.27888 0.44933 0.38668
 C13 C 0.29082 0.45605 0.44871
 C14 C 0.32191 0.46962 0.46323
 C15 C 0.32370 0.47165 0.52803
 C16 C 0.29351 0.45850 0.55130
 N17 N 0.27343 0.44931 0.50242
 C18 C 0.28457 0.45439 0.61642
 C19 C 0.25416 0.44668 0.63559
 C20 C 0.23969 0.43176 0.69158
 C21 C 0.21120 0.43008 0.69343
 C22 C 0.20910 0.44407 0.63864
 N23 N 0.23520 0.45376 0.60322
 C24 C 0.18486 0.45011 0.62502
 H25 H 0.15466 0.48344 0.58557
 H26 H 0.15712 0.49121 0.46249
 H27 H 0.24129 0.46760 0.56296
 H28 H 0.19156 0.43192 0.28090
 H29 H 0.24075 0.42474 0.27642
 H30 H 0.34137 0.47815 0.43050
 H31 H 0.34505 0.48241 0.55436
 H32 H 0.19414 0.41992 0.73114
 H33 H 0.24183 0.46904 0.45123
 H34 H 0.24858 0.42276 0.72723
 C35 C 0.53022 -0.15135 0.56228
 C36 C 0.52302 -0.15593 0.49913
 C37 C 0.53263 -0.17611 0.47670
 N38 N 0.54567 -0.18395 0.52395
 C39 C 0.54459 -0.16848 0.57649
 C40 C 0.53071 -0.18580 0.41281
 C41 C 0.53337 -0.21186 0.39538
 C42 C 0.54129 -0.21749 0.33543
 C43 C 0.53961 -0.24594 0.33765
 C44 C 0.52987 -0.25736 0.39869
 N45 N 0.52660 -0.23606 0.43365
 C46 C 0.52319 -0.28688 0.42153
 C47 C 0.52079 -0.29243 0.48778
 C48 C 0.50431 -0.32112 0.51670
 C49 C 0.51156 -0.31667 0.57978
 C50 C 0.53162 -0.28538 0.58752
 N51 N 0.53707 -0.27048 0.53154
 C52 C 0.54683 -0.27126 0.64422
 C53 C 0.55825 -0.23956 0.65537
 C54 C 0.57898 -0.22218 0.70221
 C55 C 0.58197 -0.19320 0.69974
 C56 C 0.56267 -0.19387 0.65181
 N57 N 0.54866 -0.22213 0.62449
 C58 C 0.55665 -0.16965 0.63674
 H59 H 0.52445 -0.13768 0.59405
 H60 H 0.51134 -0.14608 0.47312
 H61 H 0.53085 -0.23010 0.59153
 H62 H 0.54809 -0.20244 0.29461
 H63 H 0.54558 -0.25631 0.29854
 H64 H 0.48864 -0.34304 0.49480
 H65 H 0.50295 -0.33437 0.61591
 H66 H 0.59670 -0.17388 0.72994
 H67 H 0.51734 -0.23901 0.47945
 H68 H 0.59066 -0.22958 0.73481
 C69 C 1.14039 0.71078 0.45758
 C70 C 1.14367 0.70742 0.52110
 C71 C 1.17514 0.71936 0.53141
 N72 N 1.19114 0.73079 0.47661
 C73 C 1.16991 0.72510 0.43139
 C74 C 1.18918 0.71750 0.58819
 C75 C 1.22089 0.73893 0.59809
 C76 C 1.24127 0.73473 0.63562
 C77 C 1.26871 0.76228 0.63577
 C78 C 1.26436 0.78258 0.59832
 N79 N 1.23546 0.76785 0.57427
 C80 C 1.28543 0.81438 0.58891
 C81 C 1.28311 0.82831 0.53236
 C82 C 1.29267 0.85933 0.52365
 C83 C 1.28876 0.86286 0.46053
 C84 C 1.27697 0.83391 0.43256
 N85 N 1.27287 0.81271 0.47686
 C86 C 1.27306 0.82732 0.36652
 C87 C 1.24977 0.79758 0.34616
 C88 C 1.24823 0.78332 0.28809
 C89 C 1.22085 0.75559 0.28798
 C90 C 1.20649 0.75347 0.34606
 N91 N 1.22442 0.77890 0.38130
 C92 C 1.17719 0.72943 0.36599
 H93 H 1.11877 0.70356 0.43344
 H94 H 1.12489 0.69753 0.55539
 H95 H 1.21846 0.78441 0.42537
 H96 H 1.23728 0.71390 0.65936
 H97 H 1.28956 0.76639 0.65964
 H98 H 1.30095 0.87754 0.55895
 H99 H 1.29377 0.88431 0.43805
 H100 H 1.21311 0.73872 0.25001
 H101 H 1.22513 0.77803 0.54816
 H102 H 1.26525 0.79115 0.25014
 C103 C 0.87547 0.59574 0.52995
 C104 C 0.87662 0.59681 0.46494
 C105 C 0.84651 0.57866 0.44478
 N106 N 0.82704 0.56612 0.49454
 C107 C 0.84475 0.57595 0.54681
 C108 C 0.83782 0.56968 0.38186
 C109 C 0.80791 0.56171 0.36060
 C110 C 0.79603 0.54978 0.30135
 C111 C 0.76700 0.54689 0.29941
 C112 C 0.76151 0.55624 0.35831
 N113 N 0.78681 0.56577 0.39473
 C114 C 0.73433 0.55701 0.37663
 C115 C 0.72581 0.55749 0.44113
 C116 C 0.69926 0.55782 0.46080
 C117 C 0.69691 0.55364 0.52514
 C118 C 0.72240 0.55118 0.54400
 N119 N 0.73974 0.55314 0.49190
 C120 C 0.72713 0.54257 0.60576
 C121 C 0.75291 0.53814 0.61651
 C122 C 0.75445 0.51802 0.65979
 C123 C 0.78481 0.52481 0.66199
 C124 C 0.80118 0.54882 0.61998
 N125 N 0.78148 0.55631 0.59141
 C126 C 0.83344 0.56319 0.60741
 H127 H 0.89518 0.60757 0.56086
 H128 H 0.89721 0.60904 0.43564
 H129 H 0.78786 0.57506 0.56124
 H130 H 0.80700 0.54394 0.26306
 H131 H 0.75181 0.53851 0.25904
 H132 H 0.68211 0.55904 0.43175
 H133 H 0.67703 0.55048 0.55248
 H134 H 0.79339 0.51250 0.68971
 H135 H 0.79038 0.57677 0.43865
 H136 H 0.73583 0.49943 0.68583
 C137 C 0.40021 0.12266 0.47261
 C138 C 0.39420 0.12073 0.53661
 C139 C 0.40941 0.15075 0.56026
 N140 N 0.42342 0.17096 0.51244
 C141 C 0.41808 0.15376 0.45915
 C142 C 0.41503 0.15928 0.62509
 C143 C 0.42199 0.18950 0.64434
 C144 C 0.43862 0.20536 0.69763
 C145 C 0.44038 0.23381 0.69751
 C146 C 0.42487 0.23482 0.64410
 N147 N 0.41403 0.20783 0.61170
 C148 C 0.42160 0.26029 0.62453
 C149 C 0.41695 0.26361 0.55958
 C150 C 0.40485 0.28132 0.53568
 C151 C 0.41034 0.28344 0.47150
 C152 C 0.42497 0.26643 0.45820
 N153 N 0.42866 0.25397 0.51183
 C154 C 0.43833 0.26579 0.39918
 C155 C 0.44418 0.24155 0.38291
 C156 C 0.46301 0.24160 0.33353
 C157 C 0.46136 0.21307 0.33390
 C158 C 0.44156 0.19656 0.38346
 N159 N 0.43108 0.21401 0.41259
 C160 C 0.43247 0.16588 0.40033
 H161 H 0.39269 0.10344 0.43982
 H162 H 0.38094 0.09955 0.56297
 H163 H 0.41390 0.20661 0.44770
 H164 H 0.45011 0.19835 0.73143
 H165 H 0.45336 0.25211 0.73118
 H166 H 0.39389 0.29223 0.56193
 H167 H 0.40469 0.29639 0.43846
 H168 H 0.47359 0.20556 0.30179
 H169 H 0.40050 0.20162 0.57093
 H170 H 0.47678 0.26026 0.30111
 C171 C 0.84246 0.32183 0.50684
 C172 C 0.84445 0.31953 0.44232
 C173 C 0.82656 0.28856 0.42720
 N174 N 0.81385 0.27172 0.48047
 C175 C 0.82378 0.29205 0.52953
 C176 C 0.82284 0.27628 0.36510
 C177 C 0.79923 0.24631 0.34922
 C178 C 0.79794 0.23099 0.29298
 C179 C 0.76986 0.20416 0.29294
 C180 C 0.75482 0.20390 0.34916
 N181 N 0.77296 0.22959 0.38334
 C182 C 0.72417 0.18157 0.36526
 C183 C 0.71180 0.17836 0.42733
 C184 C 0.68082 0.16012 0.44358
 C185 C 0.67877 0.16235 0.50823
 C186 C 0.70856 0.18187 0.52937
 N187 N 0.72873 0.19161 0.47987
 C188 C 0.71706 0.18877 0.59369
 C189 C 0.74654 0.21256 0.61250
 C190 C 0.75901 0.21489 0.67201
 C191 C 0.78717 0.24156 0.67232
 C192 C 0.79105 0.25518 0.61317
 N193 N 0.76622 0.23710 0.57672
 C194 C 0.81666 0.28394 0.59459
 H195 H 0.85298 0.34324 0.53350
 H196 H 0.85704 0.33865 0.41012
 H197 H 0.76158 0.24274 0.53228
 H198 H 0.81520 0.23861 0.25536
 H199 H 0.76129 0.18705 0.25532
 H200 H 0.66165 0.14669 0.41221
 H201 H 0.65769 0.15096 0.53633
 H202 H 0.80311 0.24958 0.71156
 H203 H 0.76620 0.23726 0.42339
 H204 H 0.74908 0.19881 0.71098
 O205 O 0.97774 0.51167 -0.13617
 O206 O 1.02897 0.53406 0.11280
 O207 O 0.96252 0.51562 0.05413
 O208 O 1.07126 0.54330 -0.06979
 O209 O 0.97375 0.49413 0.12555
 O210 O 1.03327 0.54315 -0.11662
 O211 O 1.05218 0.55757 0.02724
 O212 O 0.95443 0.51541 -0.05299
 C213 C 0.95996 0.51941 -0.11034
 C214 C 1.04535 0.55887 0.08381
 C215 C 0.96320 0.51112 0.11063
 C216 C 1.06162 0.55483 -0.10979
 O217 O 1.03714 0.49111 -0.12198
 O218 O 0.98624 0.45212 0.07846
 O219 O 0.94113 0.45628 -0.06779
 O220 O 1.08293 0.52984 0.04713
 O221 O 1.04170 0.48861 0.08179
 O222 O 0.97962 0.46127 -0.13011
 O223 O 1.05131 0.48727 -0.02826
 O224 O 0.94490 0.45307 0.04905
 Co225 Co 1.00708 0.50190 -0.11534
 Co226 Co 1.00744 0.49336 0.08923
 Co227 Co 0.95511 0.48616 -0.00403
 Co228 Co 1.04936 0.52145 0.00036
 O229 O 1.00290 0.50071 -0.01231
 C230 C 1.04999 0.48123 -0.08591
 C231 C 0.95753 0.43883 0.07266
 C232 C 0.95161 0.44681 -0.11309
 C233 C 1.07019 0.50810 0.08998
 O234 O 0.50525 0.46389 -0.11991
 O235 O 0.46409 0.47304 0.10671
 O236 O 0.49173 0.44376 0.07105
 O237 O 0.46188 0.51742 -0.05293
 O238 O 0.51174 0.47363 0.14742
 O239 O 0.46795 0.48392 -0.11193
 O240 O 0.45284 0.50430 0.06075
 O241 O 0.48928 0.43713 -0.03648
 C242 C 0.48948 0.43837 -0.09476
 C243 C 0.44474 0.48120 0.09498
 C244 C 0.49903 0.44673 0.12759
 C245 C 0.45248 0.49662 -0.09586
 O246 O 0.51393 0.53957 -0.11190
 O247 O 0.54705 0.52713 0.10251
 O248 O 0.55139 0.48143 -0.05155
 O249 O 0.51149 0.54951 0.08746
 O250 O 0.50152 0.52000 0.16976
 O251 O 0.55068 0.51900 -0.10330
 O252 O 0.52063 0.56242 -0.02222
 O253 O 0.55348 0.48983 0.06340
 Co254 Co 0.50904 0.50123 -0.10061
 Co255 Co 0.50530 0.50074 0.10009
 Co256 Co 0.52043 0.46580 0.01127
 Co257 Co 0.48818 0.53024 0.01716
 O258 O 0.50566 0.49825 0.00327
 C259 C 0.52395 0.56389 -0.08054
 C260 C 0.56416 0.51543 0.09258
 C261 C 0.56439 0.50475 -0.08795
 C262 C 0.50449 0.54526 0.14605
 O263 O 0.53603 0.02659 -0.12785
 O264 O 0.51160 -0.03612 0.08689
 O265 O 0.54647 0.06059 0.05268
 O266 O 0.51420 -0.04382 -0.02346
 O267 O 0.54761 0.01933 0.08239
 O268 O 0.50889 -0.03032 -0.11691
 O269 O 0.47104 -0.07717 0.05139
 O270 O 0.54207 0.06480 -0.06419
 C271 C 0.55075 0.05451 -0.11105
 C272 C 0.49230 -0.06463 0.09483
 C273 C 0.56081 0.04799 0.07613
 C274 C 0.52072 -0.04139 -0.08104
 O275 O 0.45487 -0.02927 -0.10727
 O276 O 0.50563 0.03125 0.13101
 O277 O 0.48319 0.05130 -0.04648
 O278 O 0.44245 -0.04745 0.03132
 O279 O 0.46540 -0.02383 0.11704
 O280 O 0.48374 0.02570 -0.12884
 O281 O 0.45770 -0.06635 -0.06520
 O282 O 0.48389 0.04308 0.06117
 Co283 Co 0.49594 -0.00194 -0.10971
 Co284 Co 0.50630 -0.00215 0.09371
 Co285 Co 0.51285 0.05050 0.00110
 Co286 Co 0.47903 -0.04360 0.00468
 O287 O 0.49861 0.00271 -0.00746
 C288 C 0.44486 -0.05742 -0.10359
 C289 C 0.48914 0.04255 0.11730
 C290 C 0.47664 0.04384 -0.10257
 C291 C 0.44078 -0.04036 0.08752
 C292 C 1.13854 0.48053 0.26367
 N293 N 1.12541 0.46766 0.32024
 N294 N 1.14112 0.46138 0.36267
 C295 C 1.17053 0.46742 0.35025
 N296 N 1.18336 0.47971 0.29280
 N297 N 1.16778 0.48633 0.25052
 C298 C 1.12118 0.48799 0.21801
 N299 N 1.13576 0.50788 0.16938
 N300 N 1.11970 0.51478 0.12881
 C301 C 1.08849 0.50184 0.13530
 N302 N 1.07399 0.48192 0.18373
 N303 N 1.09005 0.47529 0.22458
 C304 C 0.51415 0.64243 0.30195
 N305 N 0.52111 0.64288 0.36392
 N306 N 0.52416 0.66577 0.40167
 C307 C 0.52012 0.68914 0.37968
 N308 N 0.51323 0.68859 0.31722
 N309 N 0.51040 0.66577 0.27904
 C310 C 0.51095 0.61700 0.26105
 N311 N 0.50996 0.61870 0.19695
 N312 N 0.50782 0.59574 0.16029
 C313 C 0.50639 0.57023 0.18645
 N314 N 0.50712 0.56842 0.25050
 N315 N 0.50949 0.59146 0.28711
 C316 C 0.33569 -0.10794 0.24000
 N317 N 0.34062 -0.10467 0.30335
 N318 N 0.32018 -0.12526 0.34356
 C319 C 0.29373 -0.15006 0.32267
 N320 N 0.28860 -0.15284 0.25899
 N321 N 0.30923 -0.13239 0.21840
 C322 C 0.36046 -0.08711 0.19650
 N323 N 0.36022 -0.09413 0.13389
 N324 N 0.38519 -0.07780 0.09735
 C325 C 0.41116 -0.05382 0.12213
 N326 N 0.41093 -0.04627 0.18412
 N327 N 0.38607 -0.06256 0.22053
 C328 C 0.89770 0.55090 0.27119
 N329 N 0.88457 0.56671 0.24593
 N330 N 0.86573 0.57310 0.28072
 C331 C 0.85931 0.56381 0.34206
 N332 N 0.87275 0.54831 0.36733
 N333 N 0.89151 0.54190 0.33260
 C334 C 0.91693 0.54230 0.23170
 N335 N 0.92800 0.52420 0.25482
 N336 N 0.94366 0.51477 0.21723
 C337 C 0.94879 0.52323 0.15528
 N338 N 0.93808 0.54164 0.13269
 N339 N 0.92248 0.55101 0.17009
 C340 C 0.46654 0.34284 0.28161
 N341 N 0.47195 0.34635 0.34487
 N342 N 0.46321 0.32181 0.38171
 C343 C 0.44875 0.29281 0.35681
 N344 N 0.44351 0.28927 0.29338
 N345 N 0.45225 0.31387 0.25646
 C346 C 0.47549 0.36996 0.24151
 N347 N 0.46905 0.36653 0.17863
 N348 N 0.47667 0.39111 0.14254
 C349 C 0.49098 0.41999 0.16796
 N350 N 0.49751 0.42348 0.23081
 N351 N 0.48986 0.39887 0.26696
 C352 C 0.66456 0.12405 0.22357
 N353 N 0.67027 0.11173 0.27545
 N354 N 0.68961 0.12995 0.32005
 C355 C 0.70396 0.16116 0.31433
 N356 N 0.69863 0.17346 0.26199
 N357 N 0.67917 0.15524 0.21759
 C358 C 0.64066 0.10412 0.17818
 N359 N 0.62990 0.11660 0.13522
 N360 N 0.60545 0.09855 0.09975
 C361 C 0.59106 0.06735 0.10544
 N362 N 0.60238 0.05485 0.14712
 N363 N 0.62672 0.07290 0.18288
 C364 C 0.42799 0.10232 -0.25219
 N365 N 0.42223 0.12456 -0.22878
 N366 N 0.41702 0.14234 -0.26799
 C367 C 0.41770 0.13887 -0.33209
 N368 N 0.42292 0.11612 -0.35469
 N369 N 0.42790 0.09824 -0.31579
 C370 C 0.43720 0.08485 -0.21087
 N371 N 0.44317 0.06315 -0.23651
 N372 N 0.45483 0.04940 -0.20130
 C373 C 0.46104 0.05690 -0.13913
 N374 N 0.45461 0.07824 -0.11304
 N375 N 0.44289 0.09201 -0.14834
 C376 C 0.66712 0.53257 -0.24530
 N377 N 0.68224 0.51613 -0.24622
 N378 N 0.70181 0.51965 -0.29359
 C379 C 0.70659 0.53903 -0.34287
 N380 N 0.69199 0.55603 -0.34029
 N381 N 0.67264 0.55284 -0.29285
 C382 C 0.64340 0.52720 -0.19694
 N383 N 0.63062 0.54578 -0.19520
 N384 N 0.60651 0.53924 -0.15745
 C385 C 0.59413 0.51388 -0.11986
 N386 N 0.60732 0.49555 -0.12026
 N387 N 0.63164 0.50217 -0.15811
 C388 C 0.87307 0.34668 -0.26998
 N389 N 0.88478 0.34412 -0.32684
 N390 N 0.86665 0.32374 -0.36998
 C391 C 0.83596 0.30488 -0.35824
 N392 N 0.82439 0.30715 -0.30060
 N393 N 0.84251 0.32776 -0.25746
 C394 C 0.89324 0.37073 -0.22488
 N395 N 0.88154 0.37853 -0.17355
 N396 N 0.90010 0.40222 -0.13627
 C397 C 0.93098 0.41876 -0.14896
 N398 N 0.94259 0.41055 -0.19963
 N399 N 0.92411 0.38706 -0.23686
 C400 C 0.56453 -0.10587 -0.22698
 N401 N 0.55863 -0.13447 -0.20980
 N402 N 0.55740 -0.15459 -0.25359
 C403 C 0.56147 -0.14715 -0.31635
 N404 N 0.56846 -0.11809 -0.33282
 N405 N 0.56989 -0.09793 -0.28915
 C406 C 0.55990 -0.08574 -0.18201
 N407 N 0.56213 -0.05914 -0.20344
 N408 N 0.55172 -0.04375 -0.16837
 C409 C 0.53888 -0.05419 -0.11028
 N410 N 0.53778 -0.08013 -0.08740
 N411 N 0.54810 -0.09569 -0.12279
 C412 C 0.34941 0.46633 -0.24937
 N413 N 0.32700 0.47362 -0.23533
 N414 N 0.30559 0.46904 -0.27813
 C415 C 0.30608 0.45751 -0.33685
 N416 N 0.32830 0.44982 -0.34997
 N417 N 0.34943 0.45405 -0.30713
 C418 C 0.37432 0.47267 -0.20501
 N419 N 0.39301 0.46052 -0.21705
 N420 N 0.41733 0.46779 -0.18081
 C421 C 0.42411 0.48768 -0.13132
 N422 N 0.40527 0.49973 -0.11853
 N423 N 0.38069 0.49227 -0.15481
 C424 C 1.13835 0.64904 -0.28031
 N425 N 1.16614 0.67333 -0.26434
 N426 N 1.18253 0.69537 -0.30662
 C427 C 1.17201 0.69397 -0.36663
 N428 N 1.14435 0.66925 -0.38214
 N429 N 1.12779 0.64742 -0.33993
 C430 C 1.11909 0.62520 -0.23419
 N431 N 1.08846 0.60720 -0.24545
 N432 N 1.07040 0.58519 -0.20490
 C433 C 1.08228 0.58007 -0.15180
 N434 N 1.11302 0.59798 -0.14030
 N435 N 1.13112 0.62036 -0.18072
 C436 C 0.89169 0.55453 -0.26616
 N437 N 0.86518 0.55343 -0.24506
 N438 N 0.84656 0.55671 -0.28546
 C439 C 0.85368 0.56117 -0.34850
 N440 N 0.88040 0.56244 -0.36883
 N441 N 0.89897 0.55917 -0.32871
 C442 C 0.91115 0.54844 -0.22373
 N443 N 0.93524 0.54581 -0.24805
 N444 N 0.95150 0.53759 -0.21128
 C445 C 0.94438 0.53188 -0.14873
 N446 N 0.92063 0.53504 -0.12404
 N447 N 0.90426 0.54316 -0.16094
 C448 C 0.44071 0.33270 -0.25177
 N449 N 0.43102 0.30394 -0.22884
 N450 N 0.42413 0.28034 -0.26845
 C451 C 0.42676 0.28455 -0.33249
 N452 N 0.43606 0.31340 -0.35471
 N453 N 0.44287 0.33691 -0.31540
 C454 C 0.45091 0.35956 -0.20955
 N455 N 0.46284 0.38815 -0.23502
 N456 N 0.47442 0.41310 -0.19803
 C457 C 0.47445 0.41044 -0.13407
 N458 N 0.46213 0.38181 -0.10825
 N459 N 0.45059 0.35677 -0.14541
 C460 C 0.65175 0.13283 -0.26886
 N461 N 0.65931 0.12010 -0.31851
 N462 N 0.68033 0.13787 -0.36150
 C463 C 0.69460 0.16912 -0.35665
 N464 N 0.68736 0.18192 -0.30651
 N465 N 0.66626 0.16409 -0.26345
 C466 C 0.62705 0.11280 -0.22418
 N467 N 0.61765 0.12476 -0.17592
 N468 N 0.59386 0.10627 -0.13839
 C469 C 0.57867 0.07520 -0.14789
 N470 N 0.58834 0.06335 -0.19567
 N471 N 0.61206 0.08176 -0.23299
 C472 C 1.12337 0.44741 -0.23258
 N473 N 1.11283 0.43432 -0.29033
 N474 N 1.13225 0.43445 -0.33476
 C475 C 1.16307 0.44788 -0.32340
 N476 N 1.17359 0.46060 -0.26525
 N477 N 1.15412 0.46042 -0.22069
 C478 C 1.10233 0.45094 -0.18765
 N479 N 1.11232 0.46497 -0.13029
 N480 N 1.09451 0.47244 -0.09448
 C481 C 1.06615 0.46616 -0.11496
 N482 N 1.05598 0.45144 -0.17142
 N483 N 1.07359 0.44377 -0.20682
 C484 C 0.55338 0.66896 -0.22607
 N485 N 0.54556 0.69023 -0.20546
 N486 N 0.54461 0.71018 -0.24601
 C487 C 0.55138 0.70947 -0.30857
 N488 N 0.55992 0.68869 -0.32860
 N489 N 0.56084 0.66882 -0.28822
 C490 C 0.55012 0.64393 -0.18469
 N491 N 0.55167 0.61964 -0.21059
 N492 N 0.54472 0.59477 -0.17618
 C493 C 0.53623 0.59330 -0.11429
 N494 N 0.53542 0.61791 -0.08765
 N495 N 0.54216 0.64278 -0.12234
 C496 C 0.35273 -0.13414 -0.27804
 N497 N 0.32949 -0.16284 -0.26357
 N498 N 0.30783 -0.17936 -0.30626
 C499 C 0.30856 -0.16813 -0.36536
 N500 N 0.33220 -0.13948 -0.37940
 N501 N 0.35363 -0.12279 -0.33671
 C502 C 0.37621 -0.11490 -0.23113
 N503 N 0.39286 -0.08396 -0.23992
 N504 N 0.41432 -0.06599 -0.19850
 C505 C 0.42029 -0.07821 -0.14692
 N506 N 0.40377 -0.10926 -0.13795
 N507 N 0.38193 -0.12729 -0.17921
 C508 C 0.51540 -0.13502 0.27331
 N509 N 0.53709 -0.12043 0.31868
 N510 N 0.54219 -0.13653 0.36239
 C511 C 0.52586 -0.16789 0.36240
 N512 N 0.50436 -0.18252 0.31660
 N513 N 0.49919 -0.16640 0.27295
 C514 C 0.50936 -0.11698 0.22616
 N515 N 0.48599 -0.13108 0.18379
 N516 N 0.48043 -0.11451 0.14191
 C517 C 0.49807 -0.08324 0.14080
 N518 N 0.52143 -0.06919 0.18306
 N519 N 0.52692 -0.08572 0.22499
 C520 C 0.33859 0.44765 0.24478
 N521 N 0.33454 0.43252 0.30038
 N522 N 0.31484 0.43222 0.34448
 C523 C 0.29851 0.44715 0.33489
 N524 N 0.30224 0.46188 0.27883
 N525 N 0.32190 0.46213 0.23470
 C526 C 0.36316 0.45149 0.19953
 N527 N 0.36897 0.46931 0.14731
 N528 N 0.39393 0.47683 0.11123
 C529 C 0.41399 0.46668 0.12560
 N530 N 0.40771 0.44806 0.17677
 N531 N 0.38271 0.44055 0.21299
 C532 C 1.11415 0.66284 0.23826
 N533 N 1.11403 0.65638 0.30061
 N534 N 1.13393 0.67756 0.34039
 C535 C 1.15469 0.70635 0.31999
 N536 N 1.15462 0.71295 0.25743
 N537 N 1.13491 0.69154 0.21720
 C538 C 1.09327 0.63805 0.19494
 N539 N 1.09887 0.63935 0.13133
 N540 N 1.08224 0.61473 0.09441
 C541 C 1.05923 0.58811 0.11973
 N542 N 1.05314 0.58728 0.18289
 N543 N 1.06979 0.61171 0.21968
 C544 C 0.45432 0.11028 0.28337
 N545 N 0.45982 0.11238 0.34659
 N546 N 0.45281 0.13005 0.38347
 C547 C 0.44022 0.14641 0.35855
 N548 N 0.43475 0.14433 0.29528
 N549 N 0.44166 0.12657 0.25844
 C550 C 0.46234 0.09122 0.24201
 N551 N 0.45471 0.08793 0.17984
 N552 N 0.46275 0.07172 0.14116
 C553 C 0.47875 0.05815 0.16292
 N554 N 0.48626 0.06116 0.22532
 N555 N 0.47809 0.07738 0.26425
 C556 C 0.66969 0.54794 0.23936
 N557 N 0.67770 0.52569 0.24646
 N558 N 0.69845 0.52876 0.28942
 C559 C 0.71232 0.55439 0.32658
 N560 N 0.70448 0.57680 0.31923
 N561 N 0.68343 0.57357 0.27664
 C562 C 0.64496 0.54290 0.19502
 N563 N 0.62999 0.55957 0.19938
 N564 N 0.60512 0.55215 0.16406
 C565 C 0.59460 0.52801 0.12265
 N566 N 0.61013 0.51199 0.11726
 N567 N 0.63478 0.51926 0.15269
 C568 C 0.88106 0.33561 0.22259
 N569 N 0.84981 0.32089 0.21638
 N570 N 0.83140 0.30147 0.26094
 C571 C 0.84353 0.29623 0.31366
 N572 N 0.87479 0.31072 0.31962
 N573 N 0.89322 0.33003 0.27487
 C574 C 0.90117 0.35946 0.17686
 N575 N 0.93247 0.37355 0.18171
 N576 N 0.95061 0.39774 0.14538
 C577 C 0.93813 0.40876 0.10294
 N578 N 0.90687 0.39424 0.09717
 N579 N 0.88874 0.36995 0.13321
   
