data_POSCAR
  _audit_creation_date              2014-09-24
  _audit_creation_method            'ToBaCCo'
  _symmetry_space_group_name_H-M    'P1'
  _symmetry_Int_Tables_number       1
  _symmetry_cell_setting            triclinic
  loop_
  _symmetry_equiv_pos_as_xyz
 x,y,z
_cell_length_a 14.4471
_cell_length_b 14.3161
_cell_length_c 14.6530
_cell_angle_alpha 88.621900
_cell_angle_beta 92.966100
_cell_angle_gamma 89.220900
loop_
  _atom_site_label
  _atom_site_type_symbol
  _atom_site_fract_x
  _atom_site_fract_y
  _atom_site_fract_z
C1 C 0.00197 0.40103 0.20790
 C2 C 0.08936 0.41874 0.26832
 C3 C 0.08861 0.49980 0.31403
 C4 C -0.00572 0.55365 0.30045
 C5 C -0.07583 0.40176 0.27031
 C6 C -0.08085 0.47958 0.32098
 C7 C -0.01230 0.48960 0.14814
 C8 C -0.01639 0.57041 0.19553
 H9 H 0.15135 0.37568 0.26541
 H10 H -0.01023 0.61813 0.34072
 H11 H -0.12235 0.34341 0.27592
 H12 H -0.00438 0.48932 0.07525
 C13 C 0.02276 0.41954 0.82681
 C14 C -0.04187 0.39425 0.75454
 C15 C -0.05912 0.46113 0.68419
 C16 C 0.00477 0.54020 0.69216
 C17 C 0.10861 0.43008 0.78098
 C18 C 0.09994 0.49721 0.70572
 C19 C -0.00325 0.51395 0.85443
 C20 C -0.01168 0.58150 0.78012
 H21 H -0.07956 0.32892 0.75718
 H22 H -0.00304 0.58987 0.63268
 H23 H 0.17341 0.39684 0.80514
 H24 H -0.00674 0.53305 0.92500
 C25 C 0.18729 -0.01409 0.40503
 C26 C 0.22374 0.08424 0.41261
 C27 C 0.27262 0.10225 0.49215
 C28 C 0.27903 0.01643 0.56003
 C29 C 0.27100 -0.07783 0.42535
 C30 C 0.31727 -0.06639 0.50609
 C31 C 0.12898 -0.02713 0.48890
 C32 C 0.17636 -0.00940 0.57025
 H33 H 0.21884 0.13382 0.35546
 H34 H 0.31842 0.02936 0.62551
 H35 H 0.29181 -0.13170 0.37939
 H36 H 0.05531 -0.03765 0.48313
 C37 C 0.79765 0.00076 0.39354
 C38 C 0.74688 -0.08575 0.39976
 C39 C 0.69044 -0.09171 0.47492
 C40 C 0.68435 -0.00599 0.52381
 C41 C 0.72329 0.07794 0.38428
 C42 C 0.66463 0.07494 0.45432
 C43 C 0.84473 0.01426 0.49150
 C44 C 0.78307 0.01030 0.55990
 H45 H 0.76474 -0.14739 0.36233
 H46 H 0.63306 -0.00957 0.57780
 H47 H 0.72827 0.13812 0.33875
 H48 H 0.91825 0.02006 0.50545
 C49 C 0.39263 0.21686 1.00396
 C50 C 0.40274 0.25978 1.09262
 C51 C 0.48764 0.31106 1.10369
 C52 C 0.54657 0.30635 1.02325
 C53 C 0.39909 0.29562 0.94012
 C54 C 0.48597 0.34014 0.94328
 C55 C 0.47608 0.15916 0.99558
 C56 C 0.56205 0.20676 1.00959
 H57 H 0.35234 0.25404 1.14459
 H58 H 0.61194 0.34620 1.03068
 H59 H 0.34725 0.31075 0.88516
 H60 H 0.47357 0.08626 0.97739
 C61 C 0.41164 0.80813 0.99704
 C62 C 0.40884 0.73045 0.92720
 C63 C 0.48200 0.67143 0.93455
 C64 C 0.54730 0.68964 1.01763
 C65 C 0.41436 0.75692 1.08980
 C66 C 0.48681 0.69573 1.10103
 C67 C 0.50312 0.85122 0.99195
 C68 C 0.57844 0.78446 1.00319
 H69 H 0.36179 0.73305 0.86713
 H70 H 0.60348 0.63591 1.02735
 H71 H 0.37499 0.77932 1.14644
 H72 H 0.51305 0.92466 0.97720
 B73 B 0.99154 1.08274 0.04763
 B74 B 0.97723 1.09564 -0.06678
 B75 B 1.08024 1.05179 -0.02033
 B76 B 1.05625 0.98399 0.07100
 B77 B 0.93874 0.98208 0.07944
 B78 B 0.88777 1.05083 -0.00816
 B79 B 0.98241 0.90371 -0.08490
 B80 B 0.99670 0.89108 0.03055
 B81 B 0.89384 0.93096 -0.01666
 B82 B 0.91738 1.00170 -0.10863
 B83 B 1.03172 1.00537 -0.11706
 B84 B 1.08279 0.93706 -0.03124
 B85 B 0.60900 0.49674 0.46831
 B86 B 0.60434 0.48865 0.58023
 B87 B 0.58432 0.59192 0.52708
 B88 B 0.52445 0.57195 0.42648
 B89 B 0.50803 0.45697 0.41925
 B90 B 0.55417 0.40452 0.51606
 B91 B 0.41422 0.51945 0.56825
 B92 B 0.41910 0.52734 0.45139
 B93 B 0.43954 0.42129 0.50784
 B94 B 0.50102 0.44339 0.60959
 B95 B 0.51798 0.55889 0.61404
 B96 B 0.46841 0.61320 0.51782
 N97 N 1.08734 1.21972 0.07795
 N98 N 1.09096 1.30344 0.11113
 C99 C 1.01401 1.31418 0.15599
 C100 C 0.96247 1.23190 0.14935
 N101 N 1.01217 1.17387 0.09864
 H102 H 0.89624 1.21705 0.17670
 N103 N 1.09135 0.74530 0.06499
 N104 N 1.09198 0.66371 0.10879
 C105 C 1.01108 0.65759 0.14943
 C106 C 0.95959 0.73858 0.12747
 N107 N 1.01311 0.79257 0.07479
 H108 H 0.88983 0.75518 0.14600
 N109 N 0.90861 1.25466 -0.05916
 N110 N 0.93251 1.34327 -0.06370
 C111 C 1.01443 1.34848 -0.10413
 C112 C 1.04005 1.25644 -0.11977
 N113 N 0.97071 1.19973 -0.09529
 H114 H 1.10069 1.23650 -0.15409
 N115 N 0.96455 0.82578 -0.23919
 N116 N 0.96622 0.74252 -0.27704
 C117 C 0.97777 0.67852 -0.20840
 C118 C 0.98283 0.72619 -0.12758
 N119 N 0.97645 0.81866 -0.14893
 H120 H 0.98909 0.69466 -0.06057
 N121 N 1.13117 0.88031 0.19214
 N122 N 1.15050 0.87570 0.28076
 C123 C 1.14569 0.96307 0.31139
 C124 C 1.12354 1.02191 0.23549
 N125 N 1.11476 0.96692 0.16144
 H126 H 1.11192 1.09657 0.23530
 N127 N 1.07000 1.10769 -0.25201
 N128 N 1.10485 1.10705 -0.33355
 C129 C 1.12753 1.01801 -0.34901
 C130 C 1.10600 0.96413 -0.27367
 N131 N 1.07013 1.02314 -0.21316
 H132 H 1.11961 0.89017 -0.26320
 N133 N 0.94757 0.90780 0.23473
 N134 N 0.92316 0.91932 0.31903
 C135 C 0.86226 0.99111 0.31689
 C136 C 0.84974 1.02246 0.22599
 N137 N 0.90530 0.96856 0.17679
 H138 H 0.80253 1.07624 0.19848
 N139 N 0.78981 0.93612 -0.20635
 N140 N 0.75702 0.93376 -0.29172
 C141 C 0.80384 0.99615 -0.34062
 C142 C 0.86471 1.04035 -0.28046
 N143 N 0.85481 0.99975 -0.19674
 H144 H 0.90909 1.09736 -0.29657
 N145 N 1.20800 1.10982 -0.11272
 N146 N 1.29000 1.14789 -0.10890
 C147 C 1.31162 1.16483 -0.02059
 C148 C 1.24093 1.12959 0.03049
 N149 N 1.17444 1.10011 -0.03092
 H150 H 1.23752 1.12757 0.10409
 N151 N 0.73088 1.07003 -0.08539
 N152 N 0.64679 1.10592 -0.08357
 C153 C 0.64635 1.16339 -0.01319
 C154 C 0.73689 1.16040 0.02921
 N155 N 0.78770 1.09762 -0.01759
 H156 H 0.76052 1.19630 0.08976
 N157 N 1.22294 0.91969 -0.12167
 N158 N 1.31287 0.90342 -0.11180
 C159 C 1.32965 0.86992 -0.02618
 C160 C 1.24604 0.86612 0.01496
 N161 N 1.17978 0.89699 -0.04702
 H162 H 1.23592 0.83840 0.08202
 N163 N 0.81495 0.77721 -0.03313
 N164 N 0.73406 0.73637 -0.02732
 C165 C 0.67264 0.80272 -0.00573
 C166 C 0.71985 0.88556 0.00409
 N167 N 0.80897 0.86711 -0.01506
 H168 H 0.69251 0.95009 0.02885
 N169 N 0.74622 0.39466 0.45086
 N170 N 0.83270 0.39176 0.42814
 C171 C 0.85252 0.47615 0.39318
 C172 C 0.77381 0.53204 0.39882
 N173 N 0.70714 0.47749 0.43384
 H174 H 0.76745 0.60390 0.37634
 N175 N 0.28632 0.63275 0.38915
 N176 N 0.19768 0.62843 0.36048
 C177 C 0.17818 0.53739 0.35162
 C178 C 0.25927 0.48676 0.37410
 N179 N 0.32600 0.54839 0.39678
 H180 H 0.26708 0.41172 0.37692
 N181 N 0.72533 0.37529 0.63002
 N182 N 0.81546 0.36605 0.63801
 C183 C 0.85200 0.45196 0.64252
 C184 C 0.77790 0.51549 0.63549
 N185 N 0.69896 0.46396 0.62839
 H186 H 0.78131 0.59072 0.63787
 N187 N 0.26424 0.60863 0.57726
 N188 N 0.17967 0.60374 0.60733
 C189 C 0.17716 0.52464 0.65786
 C190 C 0.26391 0.48073 0.65645
 N191 N 0.31743 0.53657 0.60620
 H192 H 0.28345 0.41265 0.68477
 N193 N 0.61959 0.61448 0.29548
 N194 N 0.61193 0.63979 0.20848
 C195 C 0.52289 0.66384 0.19125
 C196 C 0.47678 0.65444 0.27101
 N197 N 0.54018 0.62328 0.33575
 H198 H 0.40379 0.66466 0.27859
 N199 N 0.61266 0.58328 0.75809
 N200 N 0.60445 0.60418 0.84445
 C201 C 0.51564 0.63006 0.85199
 C202 C 0.46995 0.62632 0.76656
 N203 N 0.53333 0.59708 0.70962
 H204 H 0.39764 0.64069 0.74799
 N205 N 0.60346 0.41541 0.28722
 N206 N 0.60162 0.38134 0.20434
 C207 C 0.51394 0.35722 0.18412
 C208 C 0.46118 0.38081 0.25784
 N209 N 0.52079 0.41518 0.32291
 H210 H 0.38704 0.37474 0.26231
 N211 N 0.58723 0.34667 0.73411
 N212 N 0.59333 0.33065 0.82352
 C213 C 0.51607 0.36596 0.85630
 C214 C 0.46203 0.40322 0.78130
 N215 N 0.50874 0.38958 0.70467
 H216 H 0.39789 0.44174 0.78514
 N217 N 0.63922 0.72344 0.61906
 N218 N 0.65655 0.81250 0.60569
 C219 C 0.67641 0.82262 0.51780
 C220 C 0.67397 0.73645 0.47869
 N221 N 0.64620 0.67600 0.54315
 H222 H 0.67572 0.72459 0.40691
 N223 N 0.55891 0.24416 0.58500
 N224 N 0.57853 0.15665 0.56795
 C225 C 0.61527 0.15670 0.48577
 C226 C 0.61723 0.24761 0.45285
 N227 N 0.58382 0.30122 0.51854
 H228 H 0.64127 0.27129 0.38799
 N229 N 0.48338 0.77516 0.45424
 N230 N 0.45872 0.86344 0.46186
 C231 C 0.39645 0.86855 0.52661
 C232 C 0.38685 0.77629 0.56001
 N233 N 0.44160 0.71944 0.51194
 H234 H 0.34033 0.75423 0.61122
 N235 N 0.40605 0.28625 0.41260
 N236 N 0.37566 0.20065 0.41034
 C237 C 0.33447 0.18385 0.48851
 C238 C 0.34093 0.26594 0.53972
 N239 N 0.38667 0.32933 0.48819
 H240 H 0.31532 0.27746 0.60652
   
