data_POSCAR
  _audit_creation_date              2014-09-24
  _audit_creation_method            'ToBaCCo'
  _symmetry_space_group_name_H-M    'P1'
  _symmetry_Int_Tables_number       1
  _symmetry_cell_setting            triclinic
  loop_
  _symmetry_equiv_pos_as_xyz
 x,y,z
_cell_length_a 39.8488
_cell_length_b 36.8910
_cell_length_c 34.0293
_cell_angle_alpha 91.376900
_cell_angle_beta 92.228400
_cell_angle_gamma 86.472100
loop_
  _atom_site_label
  _atom_site_type_symbol
  _atom_site_fract_x
  _atom_site_fract_y
  _atom_site_fract_z
C1 C 1.23155 0.21476 0.21359
 C2 C 1.25126 0.23608 0.18570
 C3 C 1.27183 0.26476 0.20498
 C4 C 1.26672 0.26385 0.25328
 C5 C 1.25753 0.19882 0.24319
 C6 C 1.27610 0.22463 0.26507
 C7 C 1.21051 0.24325 0.23632
 C8 C 1.22883 0.26889 0.25861
 H9 H 1.25036 0.23222 0.15412
 H10 H 1.28135 0.28420 0.27005
 H11 H 1.26239 0.16975 0.24520
 H12 H 1.18336 0.24438 0.23335
 C13 C 0.72568 -0.27000 0.20067
 C14 C 0.74555 -0.24215 0.18083
 C15 C 0.76387 -0.21953 0.20704
 C16 C 0.75996 -0.22806 0.25039
 C17 C 0.75117 -0.29265 0.22564
 C18 C 0.77183 -0.27177 0.25476
 C19 C 0.70421 -0.24850 0.23018
 C20 C 0.72212 -0.22610 0.25692
 H21 H 0.74669 -0.24154 0.14917
 H22 H 0.77418 -0.21039 0.27114
 H23 H 0.75293 -0.32201 0.22544
 H24 H 0.67719 -0.25002 0.22953
 C25 C 0.72153 0.25136 -0.30269
 C26 C 0.74452 0.27275 -0.32328
 C27 C 0.77011 0.28854 -0.29922
 C28 C 0.76827 0.27910 -0.25586
 C29 C 0.74185 0.22240 -0.28345
 C30 C 0.76957 0.23421 -0.25516
 C31 C 0.70818 0.27465 -0.27111
 C32 C 0.73236 0.29000 -0.24487
 H33 H 0.74245 0.27570 -0.35486
 H34 H 0.78772 0.29116 -0.23617
 H35 H 0.73666 0.19398 -0.28693
 H36 H 0.68146 0.28107 -0.26856
 C37 C 1.23192 -0.25880 -0.28969
 C38 C 1.25831 -0.23937 -0.31072
 C39 C 1.28050 -0.22020 -0.28533
 C40 C 1.27327 -0.22310 -0.24170
 C41 C 1.25120 -0.28456 -0.26156
 C42 C 1.27532 -0.26725 -0.23313
 C43 C 1.21452 -0.23011 -0.26342
 C44 C 1.23624 -0.21137 -0.23721
 H45 H 1.25917 -0.23994 -0.34244
 H46 H 1.29048 -0.20801 -0.22168
 H47 H 1.24719 -0.31329 -0.26064
 H48 H 1.18754 -0.22461 -0.26523
 C49 C 0.21646 0.21121 0.78401
 C50 C 0.23824 0.22874 0.81229
 C51 C 0.26287 0.25365 0.79562
 C52 C 0.25787 0.25126 0.74655
 C53 C 0.19905 0.24127 0.75942
 C54 C 0.22078 0.26291 0.73943
 C55 C 0.23920 0.18974 0.75592
 C56 C 0.26172 0.21049 0.73623
 H57 H 0.23615 0.22614 0.84374
 H58 H 0.27507 0.26840 0.73145
 H59 H 0.17193 0.24421 0.75593
 H60 H 0.23953 0.16040 0.75301
 C61 C 0.72495 0.70951 0.79814
 C62 C 0.74105 0.74132 0.81400
 C63 C 0.75299 0.76470 0.78547
 C64 C 0.74589 0.75117 0.74319
 C65 C 0.69841 0.72280 0.77080
 C66 C 0.70811 0.74560 0.74098
 C67 C 0.75012 0.68953 0.77523
 C68 C 0.76410 0.70948 0.74231
 H69 H 0.74658 0.74471 0.84521
 H70 H 0.75502 0.76883 0.72045
 H71 H 0.67221 0.71725 0.77402
 H72 H 0.75977 0.66218 0.78202
 C73 C 0.73331 0.21192 0.30263
 C74 C 0.75575 0.23702 0.32566
 C75 C 0.77300 0.26349 0.30220
 C76 C 0.76236 0.25656 0.25523
 C77 C 0.70747 0.23586 0.28003
 C78 C 0.72084 0.26171 0.25240
 C79 C 0.75532 0.19302 0.27193
 C80 C 0.77080 0.21641 0.24664
 H81 H 0.75919 0.23624 0.35737
 H82 H 0.77453 0.27500 0.23550
 H83 H 0.68063 0.23400 0.28281
 H84 H 0.75988 0.16384 0.27136
 C85 C 0.22928 0.72941 0.29556
 C86 C 0.25196 0.75572 0.31621
 C87 C 0.27254 0.77705 0.29038
 C88 C 0.26305 0.76563 0.24396
 C89 C 0.20765 0.75156 0.26613
 C90 C 0.22496 0.77056 0.23844
 C91 C 0.25193 0.70391 0.27111
 C92 C 0.27202 0.72119 0.24139
 H93 H 0.25486 0.75754 0.34797
 H94 H 0.27696 0.78070 0.22253
 H95 H 0.18060 0.75396 0.26829
 H96 H 0.25332 0.67469 0.27369
 O97 O 1.04281 0.05430 0.06268
 O98 O 1.07733 0.01435 0.02765
 C99 C 1.07234 0.04060 0.05325
 O100 O 0.94071 -0.06306 0.06003
 O101 O 0.90491 -0.02501 0.02317
 C102 C 0.91083 -0.05034 0.04891
 O103 O 1.03443 -0.07247 0.06592
 O104 O 1.07323 -0.04648 0.02916
 C105 C 1.06514 -0.06803 0.05636
 O106 O 0.94888 0.06963 0.05796
 O107 O 0.90897 0.03891 0.02251
 C108 C 0.91789 0.06377 0.04765
 Zr109 Zr 0.99422 0.04137 0.04121
 O110 O 0.99426 0.03770 0.10307
 O111 O 0.99733 0.09840 0.04569
 Zr112 Zr 0.98841 -0.04896 0.04248
 O113 O 0.98619 -0.04495 0.10452
 O114 O 0.98775 -0.10622 0.04394
 O115 O 1.02169 -0.00772 0.05020
 O116 O 0.96183 0.00063 0.04819
 O117 O 0.94757 0.06541 -0.07759
 O118 O 0.90806 0.03759 -0.04357
 C119 C 0.91678 0.06123 -0.06842
 O120 O 1.03185 -0.07707 -0.07779
 O121 O 1.07217 -0.04879 -0.04035
 C122 C 1.06284 -0.07195 -0.06735
 O123 O 0.93828 -0.06739 -0.07641
 O124 O 0.90388 -0.02647 -0.04261
 C125 C 0.90881 -0.05356 -0.06715
 O126 O 1.04089 0.04792 -0.07889
 O127 O 1.07647 0.01138 -0.04018
 C128 C 1.07068 0.03487 -0.06767
 Zr129 Zr 0.99288 0.03787 -0.05820
 O130 O 0.98805 0.03481 -0.12039
 O131 O 0.99985 0.09421 -0.06009
 Zr132 Zr 0.98666 -0.05267 -0.05658
 O133 O 0.98231 -0.05603 -0.11873
 O134 O 0.98457 -0.10946 -0.05145
 Zr135 Zr 1.04086 -0.01261 -0.00670
 Zr136 Zr 0.94016 0.00166 -0.00921
 O137 O 0.96028 -0.00339 -0.06541
 O138 O 1.01970 -0.01196 -0.06448
 O139 O 0.96418 0.05103 -0.00937
 O140 O 1.01650 -0.06159 -0.00633
 O141 O 1.02311 0.04225 -0.00796
 O142 O 0.95708 -0.05353 -0.00769
 H143 H 0.94688 0.00342 0.07081
 H144 H 1.03023 -0.08491 -0.00569
 H145 H 0.94473 -0.00197 -0.08884
 H146 H 1.03954 0.06130 -0.00829
 H147 H 0.97222 -0.11381 0.02231
 H148 H 0.98357 -0.11960 -0.07868
 H149 H 0.99985 -0.04136 -0.12897
 H150 H 1.00745 0.01954 -0.12999
 H151 H 0.98488 0.10641 -0.04064
 H152 H 1.00888 0.10604 0.02238
 H153 H 0.99552 0.06288 0.11358
 H154 H 1.00556 -0.03136 0.11438
 O155 O 1.05426 0.56259 0.57306
 O156 O 1.09019 0.52519 0.53711
 C157 C 1.08417 0.55013 0.56376
 O158 O 0.95482 0.44287 0.56145
 O159 O 0.91908 0.48156 0.52539
 C160 C 0.92494 0.45522 0.54989
 O161 O 1.04898 0.43758 0.57097
 O162 O 1.08803 0.46451 0.53534
 C163 C 1.07977 0.44310 0.56256
 O164 O 0.96036 0.57598 0.56594
 O165 O 0.92181 0.54624 0.52737
 C166 C 0.92978 0.57052 0.55371
 Zr167 Zr 1.00647 0.54962 0.54932
 O168 O 1.00244 0.54754 0.61111
 O169 O 1.01230 0.60626 0.55342
 Zr170 Zr 1.00261 0.45888 0.54618
 O171 O 0.99796 0.45918 0.60795
 O172 O 1.00464 0.40138 0.54463
 O173 O 1.03468 0.50082 0.55695
 O174 O 0.97493 0.50761 0.55330
 O175 O 0.96153 0.57790 0.43163
 O176 O 0.92224 0.54648 0.46201
 C177 C 0.93074 0.57192 0.43934
 O178 O 1.04966 0.43708 0.42678
 O179 O 1.08848 0.46434 0.46724
 C180 C 1.08040 0.44226 0.43858
 O181 O 0.95589 0.44333 0.42634
 O182 O 0.91941 0.48254 0.45952
 C183 C 0.92588 0.45597 0.43475
 O184 O 1.05503 0.56288 0.43182
 O185 O 1.09060 0.52540 0.46937
 C186 C 1.08482 0.55024 0.44330
 Zr187 Zr 1.00712 0.54996 0.44988
 O188 O 1.00320 0.54762 0.38761
 O189 O 1.01330 0.60643 0.44837
 Zr190 Zr 1.00331 0.45930 0.44708
 O191 O 0.99962 0.46086 0.38490
 O192 O 1.00503 0.40183 0.44424
 Zr193 Zr 1.05515 0.49862 0.50059
 Zr194 Zr 0.95439 0.51029 0.49544
 O195 O 0.97569 0.50807 0.43975
 O196 O 1.03548 0.50120 0.44224
 O197 O 0.97726 0.56044 0.49834
 O198 O 1.03194 0.44889 0.49793
 O199 O 1.03611 0.55318 0.50127
 O200 O 0.97268 0.45537 0.49483
 H201 H 0.95941 0.50922 0.57542
 H202 H 1.04626 0.42597 0.49814
 H203 H 0.96037 0.51002 0.41614
 H204 H 1.05176 0.57307 0.50261
 H205 H 0.98568 0.39378 0.52737
 H206 H 0.98721 0.39398 0.46098
 H207 H 1.01937 0.47300 0.37606
 H208 H 1.02417 0.53528 0.37804
 H209 H 0.99999 0.61793 0.46972
 H210 H 0.99526 0.61814 0.53527
 H211 H 1.02306 0.53447 0.62192
 H212 H 1.01650 0.47289 0.61982
 O213 O 0.56043 -0.05537 0.57687
 O214 O 0.53113 -0.09195 0.53407
 C215 C 0.55265 -0.08697 0.56304
 O216 O 0.44052 0.05453 0.57523
 O217 O 0.47290 0.09440 0.54532
 C218 C 0.44919 0.08711 0.56848
 O219 O 0.44353 -0.04688 0.57118
 O220 O 0.47376 -0.08784 0.53246
 C221 C 0.45182 -0.07973 0.55902
 O222 O 0.56472 0.04493 0.58143
 O223 O 0.53420 0.08966 0.54744
 C224 C 0.55786 0.07856 0.57253
 Zr225 Zr 0.54413 -0.00270 0.55846
 O226 O 0.54170 -0.00118 0.62056
 O227 O 0.59724 -0.01021 0.56242
 Zr228 Zr 0.45980 0.00356 0.55369
 O229 O 0.45833 0.00457 0.61583
 O230 O 0.40675 0.00567 0.54719
 O231 O 0.50176 -0.03253 0.56113
 O232 O 0.50218 0.03208 0.56581
 O233 O 0.56682 0.05127 0.44945
 O234 O 0.53339 0.09299 0.48343
 C235 C 0.55841 0.08417 0.46117
 O236 O 0.44435 -0.03992 0.42747
 O237 O 0.47340 -0.08430 0.46346
 C238 C 0.45219 -0.07366 0.43550
 O239 O 0.44009 0.06031 0.44153
 O240 O 0.47278 0.09750 0.47980
 C241 C 0.44834 0.09207 0.45429
 O242 O 0.56217 -0.04839 0.43506
 O243 O 0.53071 -0.08850 0.46597
 C244 C 0.55352 -0.08096 0.44163
 Zr245 Zr 0.54475 0.00207 0.45931
 O246 O 0.53893 0.00738 0.39771
 O247 O 0.59763 -0.00275 0.45483
 Zr248 Zr 0.46076 0.00807 0.45498
 O249 O 0.46301 0.01528 0.39359
 O250 O 0.40766 0.00819 0.45029
 Zr251 Zr 0.50226 -0.05169 0.50222
 Zr252 Zr 0.50281 0.05733 0.51110
 O253 O 0.50303 0.03765 0.45258
 O254 O 0.50272 -0.02730 0.44686
 O255 O 0.55139 0.03111 0.51190
 O256 O 0.45388 -0.02543 0.50146
 O257 O 0.55074 -0.03213 0.50664
 O258 O 0.45387 0.03857 0.50668
 H259 H 0.50228 0.04759 0.59000
 H260 H 0.43395 -0.04023 0.49908
 H261 H 0.50333 0.05563 0.43143
 H262 H 0.57065 -0.04957 0.50643
 H263 H 0.39823 0.00502 0.57412
 H264 H 0.39898 0.02108 0.47399
 H265 H 0.47681 -0.00554 0.38272
 H266 H 0.56193 0.00852 0.38797
 H267 H 0.60716 -0.01031 0.48079
 H268 H 0.60631 0.00765 0.54505
 H269 H 0.53064 -0.02304 0.62839
 H270 H 0.47316 -0.01605 0.62548
 O271 O 0.54934 0.54910 0.06777
 O272 O 0.58308 0.51176 0.02912
 C273 C 0.57859 0.53667 0.05622
 O274 O 0.44947 0.43049 0.06589
 O275 O 0.41184 0.47020 0.03368
 C276 C 0.41915 0.44372 0.05762
 O277 O 0.54359 0.42348 0.06745
 O278 O 0.58009 0.45076 0.02868
 C279 C 0.57362 0.42902 0.05630
 O280 O 0.45585 0.56344 0.06773
 O281 O 0.41498 0.53390 0.03266
 C282 C 0.42468 0.55840 0.05785
 Zr283 Zr 0.50049 0.53646 0.04778
 O284 O 0.50014 0.53542 0.10997
 O285 O 0.50634 0.59312 0.04988
 Zr286 Zr 0.49624 0.44579 0.04652
 O287 O 0.49548 0.44721 0.10873
 O288 O 0.49776 0.38829 0.04598
 O289 O 0.52894 0.48759 0.05394
 O290 O 0.46929 0.49477 0.05515
 O291 O 0.44940 0.56535 -0.06410
 O292 O 0.41148 0.53350 -0.03197
 C293 C 0.41910 0.55963 -0.05424
 O294 O 0.53551 0.42152 -0.07592
 O295 O 0.57655 0.45006 -0.03997
 C296 C 0.56668 0.42705 -0.06681
 O297 O 0.44252 0.42797 -0.06774
 O298 O 0.40824 0.46860 -0.03333
 C299 C 0.41317 0.44117 -0.05750
 O300 O 0.54224 0.54904 -0.07274
 O301 O 0.57965 0.51061 -0.03854
 C302 C 0.57249 0.53583 -0.06385
 Zr303 Zr 0.49523 0.53565 -0.05176
 O304 O 0.48749 0.53041 -0.11354
 O305 O 0.49994 0.59183 -0.05882
 Zr306 Zr 0.49082 0.44537 -0.05280
 O307 O 0.48326 0.44865 -0.11460
 O308 O 0.49180 0.38807 -0.05764
 Zr309 Zr 0.54593 0.48483 -0.00409
 Zr310 Zr 0.44526 0.49696 -0.00104
 O311 O 0.46284 0.49415 -0.05860
 O312 O 0.52290 0.48681 -0.06094
 O313 O 0.46859 0.54682 -0.00093
 O314 O 0.52237 0.43530 -0.00410
 O315 O 0.52713 0.53942 -0.00274
 O316 O 0.46333 0.44196 -0.00226
 H317 H 0.45531 0.49690 0.07865
 H318 H 0.53635 0.41214 -0.00471
 H319 H 0.44580 0.49606 -0.08058
 H320 H 0.54282 0.55923 -0.00274
 H321 H 0.47752 0.38065 0.03101
 H322 H 0.48000 0.37960 -0.03489
 H323 H 0.50399 0.45733 -0.12529
 H324 H 0.50910 0.52133 -0.12462
 H325 H 0.50210 0.60266 -0.03209
 H326 H 0.48873 0.60452 0.03208
 H327 H 0.52071 0.52134 0.11933
 H328 H 0.51550 0.45964 0.11870
 C329 C 1.20922 0.18607 0.19658
 C330 C 1.20643 0.17478 0.15715
 C331 C 1.17958 0.15111 0.14266
 C332 C 1.18470 0.12829 0.10956
 C333 C 1.15925 0.10648 0.09488
 C334 C 1.12797 0.10745 0.11291
 C335 C 1.12278 0.13074 0.14559
 C336 C 1.14819 0.15228 0.16033
 C337 C 1.09936 0.08680 0.09730
 C338 C 1.10228 0.05693 0.07133
 H339 H 1.22431 0.18272 0.13640
 H340 H 1.20843 0.12739 0.09499
 H341 H 1.16394 0.08979 0.06889
 H342 H 1.09875 0.13260 0.15958
 H343 H 1.14275 0.17056 0.18493
 H344 H 1.07452 0.09583 0.10681
 H345 H 1.19349 0.17409 0.21739
 H346 H 1.12680 0.04599 0.06280
 C347 C 1.20708 0.72286 0.68322
 C348 C 1.21389 0.68847 0.66641
 C349 C 1.18696 0.66604 0.65006
 C350 C 1.19510 0.63711 0.62397
 C351 C 1.17032 0.61446 0.60957
 C352 C 1.13692 0.62012 0.62156
 C353 C 1.12900 0.64884 0.64798
 C354 C 1.15367 0.67145 0.66223
 C355 C 1.10919 0.59813 0.60639
 C356 C 1.11330 0.56660 0.58315
 H357 H 1.23950 0.67674 0.66744
 H358 H 1.22068 0.63218 0.61456
 H359 H 1.17754 0.59305 0.58882
 H360 H 1.10355 0.65377 0.65782
 H361 H 1.14659 0.69254 0.68347
 H362 H 1.08383 0.60814 0.61298
 H363 H 1.18261 0.73662 0.67777
 H364 H 1.13807 0.55504 0.57655
 C365 C 0.69482 0.23827 0.67200
 C366 C 0.69984 0.21161 0.64255
 C367 C 0.67119 0.19416 0.62241
 C368 C 0.67427 0.15680 0.61389
 C369 C 0.64669 0.13872 0.59860
 C370 C 0.61554 0.15780 0.59094
 C371 C 0.61299 0.19556 0.59705
 C372 C 0.64049 0.21361 0.61304
 C373 C 0.58586 0.13828 0.57672
 C374 C 0.58008 0.10451 0.59175
 H375 H 0.72507 0.19989 0.63821
 H376 H 0.69774 0.14131 0.62035
 H377 H 0.64972 0.10972 0.59292
 H378 H 0.58944 0.21089 0.59064
 H379 H 0.63766 0.24268 0.61822
 H380 H 0.56910 0.15011 0.55403
 H381 H 0.66909 0.24817 0.67689
 H382 H 0.59625 0.09438 0.61591
 C383 C 0.70379 0.70930 0.17190
 C384 C 0.70982 0.67276 0.16110
 C385 C 0.68311 0.65058 0.14365
 C386 C 0.69194 0.61795 0.12349
 C387 C 0.66709 0.59546 0.10881
 C388 C 0.63286 0.60522 0.11439
 C389 C 0.62420 0.63767 0.13490
 C390 C 0.64892 0.66003 0.14947
 C391 C 0.60517 0.58292 0.09980
 C392 C 0.60855 0.55319 0.07372
 H393 H 0.73449 0.65952 0.16644
 H394 H 0.71816 0.60975 0.11930
 H395 H 0.67496 0.57045 0.09375
 H396 H 0.59809 0.64573 0.13996
 H397 H 0.64104 0.68413 0.16623
 H398 H 0.58008 0.59191 0.10854
 H399 H 0.68100 0.72371 0.16084
 H400 H 0.63290 0.54350 0.06355
 C401 C 0.78474 -0.19262 0.19547
 C402 C 0.78686 -0.18162 0.15650
 C403 C 0.81115 -0.15575 0.14355
 C404 C 0.80504 -0.13864 0.10729
 C405 C 0.82853 -0.11629 0.09247
 C406 C 0.85888 -0.11073 0.11360
 C407 C 0.86483 -0.12755 0.15005
 C408 C 0.84128 -0.14975 0.16494
 C409 C 0.88603 -0.09025 0.09750
 C410 C 0.88173 -0.06612 0.06628
 H411 H 0.76952 -0.19152 0.13412
 H412 H 0.78222 -0.14311 0.08997
 H413 H 0.82326 -0.10459 0.06389
 H414 H 0.88816 -0.12410 0.16675
 H415 H 0.84744 -0.16314 0.19244
 H416 H 0.91100 -0.09479 0.11093
 H417 H 0.79940 -0.17931 0.21834
 H418 H 0.85686 -0.05873 0.05407
 C419 C 0.79459 0.31085 0.68776
 C420 C 0.79580 0.32321 0.64920
 C421 C 0.82220 0.34648 0.63599
 C422 C 0.81561 0.36769 0.60249
 C423 C 0.84021 0.38911 0.58839
 C424 C 0.87216 0.38956 0.60746
 C425 C 0.87880 0.36808 0.64075
 C426 C 0.85420 0.34683 0.65491
 C427 C 0.89983 0.41012 0.59262
 C428 C 0.89573 0.43796 0.56523
 H429 H 0.77593 0.31726 0.62794
 H430 H 0.79134 0.36757 0.58701
 H431 H 0.83425 0.40444 0.56210
 H432 H 0.90333 0.36744 0.65569
 H433 H 0.86076 0.33003 0.68000
 H434 H 0.92500 0.40291 0.60423
 H435 H 0.81290 0.31988 0.70956
 H436 H 0.87088 0.44732 0.55453
 C437 C 0.30683 -0.20015 0.70240
 C438 C 0.31661 -0.19888 0.66339
 C439 C 0.34293 -0.17550 0.65061
 C440 C 0.35881 -0.18399 0.61513
 C441 C 0.38231 -0.16134 0.60093
 C442 C 0.39024 -0.12951 0.62197
 C443 C 0.37445 -0.12116 0.65750
 C444 C 0.35106 -0.14380 0.67172
 C445 C 0.41250 -0.10283 0.60669
 C446 C 0.43439 -0.10953 0.57582
 H447 H 0.30553 -0.21633 0.64114
 H448 H 0.35267 -0.20801 0.59806
 H449 H 0.39323 -0.16833 0.57296
 H450 H 0.37972 -0.09655 0.67402
 H451 H 0.33865 -0.13559 0.69848
 H452 H 0.41106 -0.07594 0.62031
 H453 H 0.32075 -0.18555 0.72493
 H454 H 0.43841 -0.13656 0.56322
 C455 C 0.29295 0.28859 0.17968
 C456 C 0.30804 0.32029 0.19133
 C457 C 0.32852 0.33926 0.16383
 C458 C 0.33245 0.37670 0.16871
 C459 C 0.35280 0.39465 0.14371
 C460 C 0.37021 0.37515 0.11404
 C461 C 0.36629 0.33778 0.10922
 C462 C 0.34531 0.32007 0.13345
 C463 C 0.39511 0.39210 0.09044
 C464 C 0.39150 0.42779 0.07745
 H465 H 0.30395 0.33205 0.22042
 H466 H 0.31990 0.39202 0.19203
 H467 H 0.35597 0.42337 0.14858
 H468 H 0.37978 0.32217 0.08683
 H469 H 0.34312 0.29111 0.12919
 H470 H 0.41703 0.37524 0.08204
 H471 H 0.28317 0.27861 0.19902
 H472 H 0.36813 0.44385 0.08130
 C473 C 0.79168 0.20719 -0.22919
 C474 C 0.81618 0.21730 -0.20155
 C475 C 0.83586 0.19082 -0.17638
 C476 C 0.86450 0.20221 -0.15553
 C477 C 0.88423 0.17804 -0.13209
 C478 C 0.87547 0.14207 -0.12823
 C479 C 0.84635 0.13064 -0.14838
 C480 C 0.82677 0.15481 -0.17244
 C481 C 0.89894 0.11698 -0.10566
 C482 C 0.89035 0.08514 -0.08791
 H483 H 0.82162 0.24572 -0.19853
 H484 H 0.87202 0.22978 -0.15791
 H485 H 0.90665 0.18747 -0.11707
 H486 H 0.83925 0.10290 -0.14658
 H487 H 0.80468 0.14527 -0.18799
 H488 H 0.92471 0.12471 -0.10203
 H489 H 0.78161 0.22533 -0.24156
 H490 H 0.86436 0.07822 -0.08752
 C491 C 0.79706 0.70754 0.28324
 C492 C 0.81811 0.72196 0.31223
 C493 C 0.84045 0.69783 0.33727
 C494 C 0.86755 0.71218 0.35863
 C495 C 0.88985 0.68953 0.38106
 C496 C 0.88505 0.65225 0.38327
 C497 C 0.85748 0.63796 0.36259
 C498 C 0.83545 0.66049 0.33974
 C499 C 0.91045 0.62872 0.40498
 C500 C 0.90370 0.59551 0.42097
 H501 H 0.81915 0.75120 0.31578
 H502 H 0.87192 0.74081 0.35726
 H503 H 0.91105 0.70112 0.39657
 H504 H 0.85343 0.60923 0.36293
 H505 H 0.81468 0.64856 0.32379
 H506 H 0.93552 0.63836 0.40908
 H507 H 0.78506 0.72461 0.27057
 H508 H 0.87818 0.58703 0.42095
 C509 C 0.29954 0.21573 0.29584
 C510 C 0.30199 0.18144 0.31279
 C511 C 0.32498 0.17058 0.34616
 C512 C 0.31507 0.14344 0.37047
 C513 C 0.33706 0.12861 0.39935
 C514 C 0.36990 0.14000 0.40436
 C515 C 0.37973 0.16825 0.38104
 C516 C 0.35728 0.18360 0.35218
 C517 C 0.39323 0.11840 0.43092
 C518 C 0.42740 0.12322 0.43870
 H519 H 0.28413 0.16177 0.30360
 H520 H 0.29039 0.13287 0.36640
 H521 H 0.32874 0.10688 0.41672
 H522 H 0.40492 0.17751 0.38384
 H523 H 0.36574 0.20416 0.33339
 H524 H 0.38334 0.09429 0.44263
 H525 H 0.31440 0.23688 0.30869
 H526 H 0.43876 0.14809 0.43192
 C527 C 0.29562 0.70956 -0.20208
 C528 C 0.31792 0.72176 -0.17319
 C529 C 0.33641 0.69589 -0.14655
 C530 C 0.36401 0.70733 -0.12381
 C531 C 0.38364 0.68256 -0.10099
 C532 C 0.37575 0.64603 -0.10005
 C533 C 0.34731 0.63482 -0.12159
 C534 C 0.32781 0.65952 -0.14462
 C535 C 0.39956 0.61998 -0.07961
 C536 C 0.39203 0.58517 -0.06882
 H537 H 0.32318 0.75029 -0.17128
 H538 H 0.37105 0.73520 -0.12470
 H539 H 0.40554 0.69179 -0.08471
 H540 H 0.34080 0.60678 -0.12215
 H541 H 0.30648 0.64986 -0.16159
 H542 H 0.42482 0.62851 -0.07342
 H543 H 0.28705 0.72716 -0.21669
 H544 H 0.36643 0.57691 -0.07020
 C545 C 1.22522 -0.18750 -0.20698
 C546 C 1.19222 -0.18628 -0.19435
 C547 C 1.17963 -0.16329 -0.16145
 C548 C 1.15436 -0.17646 -0.13919
 C549 C 1.13757 -0.15392 -0.11206
 C550 C 1.14508 -0.11732 -0.10735
 C551 C 1.17209 -0.10473 -0.12740
 C552 C 1.18932 -0.12762 -0.15445
 C553 C 1.12272 -0.09185 -0.08466
 C554 C 1.08805 -0.09524 -0.08769
 H555 H 1.17502 -0.20555 -0.20649
 H556 H 1.14681 -0.20402 -0.14373
 H557 H 1.11769 -0.16477 -0.09593
 H558 H 1.17846 -0.07668 -0.12394
 H559 H 1.20866 -0.11681 -0.17147
 H560 H 1.13293 -0.06900 -0.06873
 H561 H 1.24357 -0.17218 -0.19052
 H562 H 1.07833 -0.11598 -0.10734
 C563 C 1.21423 0.29520 0.28449
 C564 C 1.18065 0.29464 0.29521
 C565 C 1.16207 0.32177 0.32037
 C566 C 1.12735 0.31841 0.32258
 C567 C 1.10769 0.34294 0.34474
 C568 C 1.12211 0.37147 0.36589
 C569 C 1.15705 0.37489 0.36455
 C570 C 1.17696 0.35020 0.34178
 C571 C 1.09890 0.39717 0.38712
 C572 C 1.10743 0.42098 0.41804
 H573 H 1.16614 0.27238 0.28471
 H574 H 1.11511 0.29681 0.30660
 H575 H 1.08088 0.33957 0.34524
 H576 H 1.16889 0.39683 0.38025
 H577 H 1.20368 0.35356 0.34108
 H578 H 1.07248 0.39568 0.37876
 H579 H 1.23002 0.31544 0.29744
 H580 H 1.13336 0.42304 0.42807
 C581 C 0.70739 -0.20442 0.28688
 C582 C 0.67361 -0.20567 0.29673
 C583 C 0.65667 -0.18098 0.32583
 C584 C 0.62564 -0.19017 0.33986
 C585 C 0.60736 -0.16640 0.36486
 C586 C 0.61978 -0.13275 0.37630
 C587 C 0.65104 -0.12383 0.36273
 C588 C 0.66931 -0.14758 0.33777
 C589 C 0.60045 -0.10520 0.40012
 C590 C 0.57143 -0.11119 0.42043
 H591 H 0.65845 -0.22622 0.28332
 H592 H 0.61518 -0.21563 0.33087
 H593 H 0.58320 -0.17415 0.37405
 H594 H 0.66111 -0.09795 0.37084
 H595 H 0.69264 -0.13898 0.32699
 H596 H 0.60990 -0.07826 0.40179
 H597 H 0.72349 -0.18677 0.30373
 H598 H 0.56224 -0.13806 0.42193
 C599 C 0.72439 0.31117 -0.21136
 C600 C 0.69287 0.31086 -0.19486
 C601 C 0.68171 0.33400 -0.16138
 C602 C 0.65691 0.32131 -0.13806
 C603 C 0.64061 0.34441 -0.11105
 C604 C 0.64830 0.38101 -0.10736
 C605 C 0.67502 0.39310 -0.12825
 C606 C 0.69165 0.36970 -0.15532
 C607 C 0.62626 0.40697 -0.08494
 C608 C 0.59151 0.40421 -0.08823
 H609 H 0.67551 0.29111 -0.20552
 H610 H 0.64910 0.29380 -0.14194
 H611 H 0.62084 0.33406 -0.09432
 H612 H 0.68148 0.42116 -0.12557
 H613 H 0.71058 0.38022 -0.17318
 H614 H 0.63682 0.42943 -0.06867
 H615 H 0.74390 0.32595 -0.19631
 H616 H 0.58156 0.38383 -0.10817
 C617 C 1.19118 0.18860 -0.19776
 C618 C 1.19998 0.15641 -0.17820
 C619 C 1.17412 0.13371 -0.16331
 C620 C 1.18145 0.11260 -0.12999
 C621 C 1.15669 0.09236 -0.11445
 C622 C 1.12425 0.09250 -0.13250
 C623 C 1.11744 0.11265 -0.16660
 C624 C 1.14208 0.13284 -0.18201
 C625 C 1.09623 0.07408 -0.11584
 C626 C 1.10002 0.04841 -0.08630
 H627 H 1.22633 0.14833 -0.17283
 H628 H 1.20606 0.11263 -0.11531
 H629 H 1.16292 0.07767 -0.08780
 H630 H 1.09279 0.11306 -0.18124
 H631 H 1.13592 0.14767 -0.20864
 H632 H 1.07104 0.08169 -0.12717
 H633 H 1.16500 0.19847 -0.19915
 H634 H 1.12476 0.03852 -0.07574
 C635 C 1.20741 0.71137 0.32357
 C636 C 1.21392 0.67633 0.33765
 C637 C 1.18745 0.65624 0.35517
 C638 C 1.19644 0.62770 0.38071
 C639 C 1.17172 0.60748 0.39632
 C640 C 1.13747 0.61528 0.38610
 C641 C 1.12870 0.64357 0.36016
 C642 C 1.15330 0.66372 0.34474
 C643 C 1.10987 0.59547 0.40175
 C644 C 1.11405 0.56591 0.42669
 H645 H 1.23868 0.66290 0.33514
 H646 H 1.22265 0.62115 0.38873
 H647 H 1.17974 0.58606 0.41627
 H648 H 1.10260 0.65002 0.35150
 H649 H 1.14543 0.68454 0.32390
 H650 H 1.08445 0.60539 0.39356
 H651 H 1.18460 0.72654 0.33212
 H652 H 1.13879 0.55475 0.43559
 C653 C 0.71705 0.18619 0.32847
 C654 C 0.69604 0.19935 0.35814
 C655 C 0.67547 0.17560 0.38008
 C656 C 0.64443 0.18956 0.39374
 C657 C 0.62311 0.16698 0.41190
 C658 C 0.63286 0.13007 0.41713
 C659 C 0.66461 0.11664 0.40501
 C660 C 0.68578 0.13915 0.38674
 C661 C 0.61044 0.10401 0.43283
 C662 C 0.57925 0.11303 0.44898
 H663 H 0.69204 0.22848 0.36247
 H664 H 0.63615 0.21772 0.38910
 H665 H 0.59885 0.17843 0.42059
 H666 H 0.67288 0.08840 0.40907
 H667 H 0.71007 0.12787 0.37773
 H668 H 0.61904 0.07558 0.43105
 H669 H 0.71919 0.15741 0.32132
 H670 H 0.57044 0.14097 0.45408
 C671 C 0.71144 0.68832 -0.17205
 C672 C 0.69908 0.65419 -0.18077
 C673 C 0.67552 0.63685 -0.15584
 C674 C 0.67448 0.59891 -0.15729
 C675 C 0.64992 0.58188 -0.13753
 C676 C 0.62562 0.60269 -0.11651
 C677 C 0.62673 0.64061 -0.11497
 C678 C 0.65160 0.65760 -0.13420
 C679 C 0.59771 0.58587 -0.09807
 C680 C 0.60073 0.55107 -0.08282
 H681 H 0.70525 0.64042 -0.20828
 H682 H 0.69233 0.58248 -0.17439
 H683 H 0.64921 0.55263 -0.14005
 H684 H 0.60799 0.65717 -0.09930
 H685 H 0.65103 0.68697 -0.13356
 H686 H 0.57446 0.60227 -0.09450
 H687 H 0.70564 0.70129 -0.14399
 H688 H 0.62486 0.53586 -0.08205
 C689 C 0.77227 -0.20535 -0.20575
 C690 C 0.77758 -0.19132 -0.16754
 C691 C 0.80249 -0.16418 -0.15675
 C692 C 0.79936 -0.14457 -0.12107
 C693 C 0.82413 -0.12148 -0.10772
 C694 C 0.85280 -0.11769 -0.12978
 C695 C 0.85571 -0.13695 -0.16571
 C696 C 0.83082 -0.15988 -0.17918
 C697 C 0.88132 -0.09662 -0.11478
 C698 C 0.87886 -0.06990 -0.08503
 H699 H 0.76285 -0.20028 -0.14400
 H700 H 0.77802 -0.14778 -0.10295
 H701 H 0.82129 -0.10795 -0.07941
 H702 H 0.87774 -0.13489 -0.18302
 H703 H 0.83464 -0.17529 -0.20625
 H704 H 0.90557 -0.10287 -0.12750
 H705 H 0.78348 -0.19265 -0.22996
 H706 H 0.85456 -0.06087 -0.07408
 C707 C 0.79630 0.29048 0.32324
 C708 C 0.80893 0.32098 0.30770
 C709 C 0.83201 0.34251 0.33210
 C710 C 0.83232 0.38018 0.32749
 C711 C 0.85426 0.40059 0.35085
 C712 C 0.87668 0.38326 0.37833
 C713 C 0.87661 0.34560 0.38248
 C714 C 0.85424 0.32544 0.35996
 C715 C 0.90246 0.40286 0.40057
 C716 C 0.89767 0.43849 0.41471
 H717 H 0.80093 0.32989 0.27846
 H718 H 0.81548 0.39375 0.30601
 H719 H 0.85446 0.42955 0.34654
 H720 H 0.89404 0.33172 0.40314
 H721 H 0.85486 0.29633 0.36373
 H722 H 0.92606 0.38778 0.40764
 H723 H 0.78470 0.27837 0.30573
 H724 H 0.87319 0.45288 0.41223
 C725 C 0.29920 -0.19834 0.30922
 C726 C 0.32193 -0.17855 0.29009
 C727 C 0.34738 -0.15808 0.31261
 C728 C 0.36448 -0.13179 0.29366
 C729 C 0.38777 -0.11123 0.31466
 C730 C 0.39499 -0.11709 0.35480
 C731 C 0.37847 -0.14401 0.37365
 C732 C 0.35483 -0.16422 0.35279
 C733 C 0.41746 -0.09263 0.37674
 C734 C 0.43497 -0.10149 0.41196
 H735 H 0.32086 -0.17758 0.25820
 H736 H 0.35928 -0.12660 0.26275
 H737 H 0.39999 -0.09043 0.29957
 H738 H 0.38284 -0.14868 0.40475
 H739 H 0.34225 -0.18447 0.36826
 H740 H 0.42006 -0.06608 0.36462
 H741 H 0.28599 -0.20974 0.29254
 H742 H 0.43567 -0.12890 0.42274
 C743 C 0.28445 0.27634 -0.17827
 C744 C 0.30202 0.30530 -0.19013
 C745 C 0.32171 0.32670 -0.16135
 C746 C 0.32588 0.36353 -0.16799
 C747 C 0.34544 0.38387 -0.14164
 C748 C 0.36181 0.36733 -0.10880
 C749 C 0.35755 0.33056 -0.10215
 C750 C 0.33729 0.31052 -0.12784
 C751 C 0.38662 0.38634 -0.08403
 C752 C 0.38391 0.42346 -0.07493
 H753 H 0.29940 0.31415 -0.22035
 H754 H 0.31415 0.37649 -0.19371
 H755 H 0.34898 0.41199 -0.14792
 H756 H 0.37034 0.31719 -0.07730
 H757 H 0.33475 0.28206 -0.12223
 H758 H 0.40853 0.37031 -0.07293
 H759 H 0.27444 0.26572 -0.19738
 H760 H 0.36066 0.43940 -0.08108
 C761 C 1.20887 -0.20836 0.20845
 C762 C 1.17454 -0.21031 0.19841
 C763 C 1.15467 -0.18710 0.16993
 C764 C 1.12247 -0.19764 0.15831
 C765 C 1.10088 -0.17537 0.13499
 C766 C 1.11085 -0.14194 0.12239
 C767 C 1.14347 -0.13151 0.13297
 C768 C 1.16525 -0.15394 0.15666
 C769 C 1.08546 -0.11831 0.10068
 C770 C 1.09254 -0.08937 0.07727
 H771 H 1.16087 -0.23117 0.21126
 H772 H 1.11358 -0.22296 0.16811
 H773 H 1.07593 -0.18409 0.12732
 H774 H 1.15179 -0.10560 0.12436
 H775 H 1.18965 -0.14462 0.16561
 H776 H 1.05946 -0.12508 0.10221
 H777 H 1.22396 -0.19145 0.19159
 H778 H 1.11829 -0.08330 0.07264
 C779 C 1.20960 0.29313 0.71717
 C780 C 1.17728 0.30964 0.72087
 C781 C 1.16214 0.33921 0.69630
 C782 C 1.17160 0.34447 0.65756
 C783 C 1.15265 0.36905 0.63343
 C784 C 1.12411 0.38865 0.64789
 C785 C 1.11585 0.38441 0.68709
 C786 C 1.13459 0.35999 0.71096
 C787 C 1.10026 0.41087 0.62276
 C788 C 1.10689 0.42386 0.58588
 H789 H 1.16206 0.30159 0.74442
 H790 H 1.19237 0.32831 0.64522
 H791 H 1.15943 0.37120 0.60314
 H792 H 1.09403 0.39917 0.69899
 H793 H 1.12676 0.35639 0.74070
 H794 H 1.07555 0.41740 0.63422
 H795 H 1.22714 0.30523 0.69865
 H796 H 1.13198 0.42120 0.57470
 C797 C 0.68367 -0.23660 0.71657
 C798 C 0.69020 -0.21383 0.68606
 C799 C 0.66256 -0.19071 0.66779
 C800 C 0.66031 -0.18626 0.62693
 C801 C 0.63446 -0.16358 0.60992
 C802 C 0.61115 -0.14429 0.63379
 C803 C 0.61368 -0.14857 0.67462
 C804 C 0.63886 -0.17187 0.69144
 C805 C 0.58654 -0.11649 0.61765
 C806 C 0.57086 -0.11899 0.58040
 H807 H 0.71522 -0.21301 0.67505
 H808 H 0.67852 -0.20030 0.60825
 H809 H 0.63356 -0.16001 0.57840
 H810 H 0.59635 -0.13348 0.69360
 H811 H 0.64045 -0.17428 0.72312
 H812 H 0.58077 -0.09265 0.63598
 H813 H 0.65752 -0.24015 0.72242
 H814 H 0.57307 -0.14413 0.56334
 C815 C 0.69622 0.28618 0.22688
 C816 C 0.70418 0.31054 0.19884
 C817 C 0.67723 0.33064 0.17584
 C818 C 0.68564 0.35574 0.14812
 C819 C 0.66045 0.37484 0.12590
 C820 C 0.62630 0.36890 0.13095
 C821 C 0.61802 0.34393 0.15886
 C822 C 0.64310 0.32498 0.18103
 C823 C 0.59841 0.38840 0.10875
 C824 C 0.60247 0.40963 0.07615
 H825 H 0.73032 0.31460 0.19326
 H826 H 0.71174 0.36068 0.14374
 H827 H 0.66805 0.39437 0.10538
 H828 H 0.59196 0.33896 0.16351
 H829 H 0.63560 0.30585 0.20216
 H830 H 0.57315 0.38550 0.11848
 H831 H 0.71415 0.27558 0.23800
 H832 H 0.62707 0.41264 0.06482
 C833 C 0.79255 0.20483 0.21681
 C834 C 0.79811 0.16846 0.20499
 C835 C 0.82244 0.15589 0.17514
 C836 C 0.81790 0.12265 0.15541
 C837 C 0.84137 0.10846 0.12889
 C838 C 0.87011 0.12721 0.12164
 C839 C 0.87474 0.16045 0.14144
 C840 C 0.85107 0.17481 0.16784
 C841 C 0.89677 0.11131 0.09624
 C842 C 0.89066 0.08538 0.06674
 H843 H 0.78307 0.14804 0.21649
 H844 H 0.79632 0.10730 0.16100
 H845 H 0.83745 0.08216 0.11535
 H846 H 0.89697 0.17508 0.13687
 H847 H 0.85591 0.19998 0.18340
 H848 H 0.92220 0.11954 0.10178
 H849 H 0.80478 0.22544 0.20151
 H850 H 0.86509 0.07906 0.05875
 C851 C 0.79137 0.69039 0.71662
 C852 C 0.80325 0.70193 0.68154
 C853 C 0.82997 0.67974 0.66176
 C854 C 0.83053 0.67805 0.62055
 C855 C 0.85524 0.65607 0.60172
 C856 C 0.88022 0.63624 0.62397
 C857 C 0.88017 0.63883 0.66511
 C858 C 0.85506 0.65996 0.68387
 C859 C 0.90734 0.61376 0.60532
 C860 C 0.90225 0.59339 0.57078
 H861 H 0.79171 0.72590 0.66743
 H862 H 0.81153 0.69325 0.60298
 H863 H 0.85517 0.65512 0.56989
 H864 H 0.89940 0.62407 0.68279
 H865 H 0.85550 0.66118 0.71571
 H866 H 0.93153 0.61101 0.62100
 H867 H 0.77656 0.70625 0.72673
 H868 H 0.87735 0.59307 0.55687
 C869 C 0.28652 0.19267 0.71357
 C870 C 0.31242 0.20898 0.69538
 C871 C 0.33982 0.18604 0.67728
 C872 C 0.35398 0.19638 0.64241
 C873 C 0.37778 0.17300 0.62355
 C874 C 0.38800 0.13912 0.63976
 C875 C 0.37501 0.12985 0.67562
 C876 C 0.35147 0.15306 0.69431
 C877 C 0.40990 0.11132 0.61942
 C878 C 0.43071 0.11770 0.58852
 H879 H 0.31238 0.23816 0.69318
 H880 H 0.34564 0.22186 0.62897
 H881 H 0.38702 0.18094 0.59577
 H882 H 0.38268 0.10413 0.68898
 H883 H 0.34209 0.14487 0.72198
 H884 H 0.40960 0.08378 0.62977
 H885 H 0.28605 0.16336 0.71096
 H886 H 0.43386 0.14507 0.57919
 C887 C 0.29654 0.69717 0.21619
 C888 C 0.31293 0.70685 0.18320
 C889 C 0.33648 0.68010 0.16431
 C890 C 0.33828 0.67833 0.12322
 C891 C 0.36006 0.65229 0.10523
 C892 C 0.38101 0.62846 0.12827
 C893 C 0.37983 0.63095 0.16932
 C894 C 0.35742 0.65615 0.18722
 C895 C 0.40569 0.60231 0.11040
 C896 C 0.39863 0.58252 0.07601
 H897 H 0.30727 0.73313 0.17004
 H898 H 0.32250 0.69672 0.10510
 H899 H 0.36113 0.65137 0.07347
 H900 H 0.39611 0.61312 0.18755
 H901 H 0.35684 0.65735 0.21902
 H902 H 0.42967 0.59714 0.12604
 H903 H 0.28473 0.71559 0.22642
 H904 H 0.37355 0.58445 0.06248
   
