data_POSCAR
  _audit_creation_date              2014-09-24
  _audit_creation_method            'ToBaCCo'
  _symmetry_space_group_name_H-M    'P1'
  _symmetry_Int_Tables_number       1
  _symmetry_cell_setting            triclinic
  loop_
  _symmetry_equiv_pos_as_xyz
 x,y,z
_cell_length_a 44.8783
_cell_length_b 45.7379
_cell_length_c 19.8363
_cell_angle_alpha 89.341300
_cell_angle_beta 90.906000
_cell_angle_gamma 90.114900
loop_
  _atom_site_label
  _atom_site_type_symbol
  _atom_site_fract_x
  _atom_site_fract_y
  _atom_site_fract_z
C1 C 1.27535 0.22097 0.27897
 C2 C 1.24946 0.23604 0.25936
 C3 C 1.22419 0.22054 0.23837
 C4 C 1.22422 0.18994 0.23706
 C5 C 1.25059 0.17497 0.25643
 C6 C 1.27683 0.19009 0.27747
 C7 C 1.24877 0.26829 0.26081
 C8 C 1.27077 0.28474 0.22758
 C9 C 1.26913 0.31552 0.22475
 C10 C 1.24619 0.32923 0.25988
 C11 C 1.22470 0.31315 0.29439
 C12 C 1.22556 0.28263 0.29357
 H13 H 1.29366 0.23394 0.29811
 H14 H 1.20467 0.23262 0.22149
 H15 H 1.28785 0.27328 0.20046
 H16 H 1.20852 0.27010 0.31916
 H17 H 1.25035 0.15148 0.25355
 H18 H 1.24506 0.35285 0.26181
 C19 C 0.77313 -0.28297 0.26691
 C20 C 0.74812 -0.26650 0.24524
 C21 C 0.72218 -0.28122 0.22321
 C22 C 0.72130 -0.31171 0.22236
 C23 C 0.74607 -0.32764 0.24433
 C24 C 0.77207 -0.31382 0.26834
 C25 C 0.74845 -0.23401 0.24750
 C26 C 0.77387 -0.21797 0.22946
 C27 C 0.77373 -0.18722 0.22988
 C28 C 0.74720 -0.17262 0.24669
 C29 C 0.72146 -0.18834 0.26574
 C30 C 0.72289 -0.21902 0.26754
 H31 H 0.79250 -0.27164 0.28674
 H32 H 0.70278 -0.26906 0.20584
 H33 H 0.79387 -0.22947 0.21554
 H34 H 0.70415 -0.23155 0.28578
 H35 H 0.74489 -0.35124 0.24141
 H36 H 0.74660 -0.14901 0.24361
 C37 C 0.77517 0.21957 -0.21688
 C38 C 0.74928 0.23477 -0.23566
 C39 C 0.72415 0.21938 -0.25838
 C40 C 0.72447 0.18876 -0.26257
 C41 C 0.75101 0.17376 -0.24464
 C42 C 0.77665 0.18899 -0.22176
 C43 C 0.74864 0.26696 -0.23239
 C44 C 0.77123 0.28363 -0.26294
 C45 C 0.76982 0.31441 -0.26404
 C46 C 0.74647 0.32787 -0.22982
 C47 C 0.72429 0.31155 -0.19821
 C48 C 0.72499 0.28106 -0.20073
 H49 H 0.79394 0.23185 -0.19713
 H50 H 0.70457 0.23154 -0.27449
 H51 H 0.78861 0.27239 -0.28954
 H52 H 0.70745 0.26837 -0.17738
 H53 H 0.75165 0.15023 -0.24852
 H54 H 0.74544 0.35146 -0.22662
 C55 C 1.27499 -0.28230 -0.24932
 C56 C 1.24885 -0.26587 -0.26190
 C57 C 1.22238 -0.28057 -0.28020
 C58 C 1.22205 -0.31094 -0.28577
 C59 C 1.24807 -0.32680 -0.27351
 C60 C 1.27506 -0.31305 -0.25577
 C61 C 1.24899 -0.23340 -0.25644
 C62 C 1.27383 -0.21683 -0.27612
 C63 C 1.27368 -0.18617 -0.27252
 C64 C 1.24752 -0.17202 -0.25173
 C65 C 1.22223 -0.18821 -0.23164
 C66 C 1.22387 -0.21888 -0.23221
 H67 H 1.29525 -0.27089 -0.23560
 H68 H 1.20207 -0.26854 -0.29107
 H69 H 1.29348 -0.22782 -0.29385
 H70 H 1.20560 -0.23175 -0.21284
 H71 H 1.24625 -0.35039 -0.27357
 H72 H 1.24683 -0.14838 -0.25266
 C73 C 0.22064 0.27626 0.73057
 C74 C 0.23571 0.25065 0.75069
 C75 C 0.21913 0.22642 0.77340
 C76 C 0.18773 0.22810 0.77954
 C77 C 0.17370 0.25493 0.76241
 C78 C 0.18986 0.27899 0.73764
 C79 C 0.26892 0.25072 0.75078
 C80 C 0.28397 0.27623 0.77094
 C81 C 0.31494 0.27968 0.76356
 C82 C 0.33092 0.25552 0.73907
 C83 C 0.31663 0.22912 0.72228
 C84 C 0.28552 0.22680 0.72822
 H85 H 0.23316 0.29433 0.70940
 H86 H 0.23109 0.20706 0.79003
 H87 H 0.27100 0.29321 0.79388
 H88 H 0.27426 0.20696 0.71266
 H89 H 0.14987 0.25712 0.76619
 H90 H 0.35459 0.25701 0.73066
 C91 C 0.71626 0.77049 0.73791
 C92 C 0.73474 0.74724 0.75852
 C93 C 0.72211 0.72240 0.78876
 C94 C 0.69110 0.71897 0.79420
 C95 C 0.67290 0.74243 0.77136
 C96 C 0.68494 0.76849 0.74377
 C97 C 0.76723 0.74729 0.74491
 C98 C 0.78543 0.77153 0.75972
 C99 C 0.81657 0.76993 0.75186
 C100 C 0.82909 0.74394 0.72790
 C101 C 0.81118 0.71966 0.71261
 C102 C 0.78033 0.72174 0.72025
 H103 H 0.72636 0.78917 0.71320
 H104 H 0.73713 0.70597 0.80899
 H105 H 0.77553 0.79104 0.78016
 H106 H 0.76646 0.70294 0.70910
 H107 H 0.64910 0.74056 0.77497
 H108 H 0.85293 0.74260 0.72069
 C109 C 0.71966 0.27703 0.22480
 C110 C 0.73485 0.25140 0.24487
 C111 C 0.71832 0.22696 0.26630
 C112 C 0.68703 0.22850 0.27023
 C113 C 0.67258 0.25485 0.25279
 C114 C 0.68865 0.27933 0.22994
 C115 C 0.76801 0.25150 0.24615
 C116 C 0.78289 0.27680 0.26806
 C117 C 0.81380 0.27987 0.26240
 C118 C 0.83015 0.25631 0.23722
 C119 C 0.81606 0.23004 0.21867
 C120 C 0.78484 0.22772 0.22326
 H121 H 0.73223 0.29535 0.20501
 H122 H 0.72981 0.20718 0.28215
 H123 H 0.77010 0.29432 0.28965
 H124 H 0.77369 0.20800 0.20652
 H125 H 0.64863 0.25621 0.25711
 H126 H 0.85403 0.25830 0.23169
 C127 C 0.21527 0.77003 0.24012
 C128 C 0.23389 0.74658 0.25871
 C129 C 0.22150 0.72149 0.28841
 C130 C 0.19056 0.71818 0.29582
 C131 C 0.17222 0.74185 0.27483
 C132 C 0.18404 0.76805 0.24750
 C133 C 0.26625 0.74690 0.24381
 C134 C 0.28439 0.77117 0.25884
 C135 C 0.31545 0.76993 0.24939
 C136 C 0.32796 0.74426 0.22370
 C137 C 0.31010 0.71998 0.20811
 C138 C 0.27932 0.72169 0.21736
 H139 H 0.22516 0.78889 0.21571
 H140 H 0.23667 0.70481 0.30692
 H141 H 0.27454 0.79042 0.28059
 H142 H 0.26551 0.70287 0.20591
 H143 H 0.14846 0.74004 0.27968
 H144 H 0.35172 0.74319 0.21530
 O145 O 1.05179 -0.04447 0.12874
 O146 O 1.02488 -0.07653 0.06368
 C147 C 1.04495 -0.07073 0.10964
 O148 O 0.94411 0.03893 0.11083
 O149 O 0.97487 0.07119 0.05614
 C150 C 0.95214 0.06531 0.09370
 O151 O 0.94686 -0.04239 0.12226
 O152 O 0.97207 -0.07560 0.05832
 C153 C 0.95236 -0.06886 0.10319
 O154 O 1.05679 0.03638 0.12015
 O155 O 1.02999 0.07032 0.05860
 C156 C 1.05157 0.06298 0.10021
 Zr157 Zr 1.03740 -0.00337 0.09072
 O158 O 1.03603 -0.00091 0.19714
 O159 O 1.08448 -0.00553 0.08968
 Zr160 Zr 0.96321 -0.00201 0.08615
 O161 O 0.96727 -0.00045 0.19228
 O162 O 0.91617 -0.00344 0.08976
 O163 O 0.99969 -0.02942 0.10151
 O164 O 1.00071 0.02346 0.10050
 O165 O 1.05768 0.03803 -0.10800
 O166 O 1.02924 0.07089 -0.05102
 C167 C 1.05111 0.06446 -0.09035
 O168 O 0.94851 -0.04227 -0.12184
 O169 O 0.97451 -0.07550 -0.05668
 C170 C 0.95483 -0.06885 -0.10307
 O171 O 0.94622 0.03865 -0.11461
 O172 O 0.97399 0.07145 -0.05350
 C173 C 0.95243 0.06499 -0.09562
 O174 O 1.05321 -0.04276 -0.11539
 O175 O 1.02705 -0.07598 -0.05194
 C176 C 1.04717 -0.06927 -0.09638
 Zr177 Zr 1.03849 -0.00237 -0.07939
 O178 O 1.03916 0.00130 -0.18586
 O179 O 1.08549 -0.00429 -0.07042
 Zr180 Zr 0.96416 -0.00179 -0.08446
 O181 O 0.96606 0.00193 -0.19085
 O182 O 0.91702 -0.00283 -0.08553
 Zr183 Zr 1.00007 -0.04658 0.00325
 Zr184 Zr 1.00148 0.04176 0.00285
 O185 O 1.00169 0.02401 -0.09436
 O186 O 1.00108 -0.02861 -0.09512
 O187 O 1.04418 0.02289 0.00596
 O188 O 0.95765 -0.02712 0.00064
 O189 O 1.04309 -0.02836 0.00607
 O190 O 0.95820 0.02393 0.00007
 H191 H 1.00082 0.03708 0.13902
 H192 H 0.93945 -0.03940 -0.00079
 H193 H 1.00204 0.03773 -0.13337
 H194 H 1.06084 -0.04119 0.00759
 H195 H 0.90878 0.00269 0.04452
 H196 H 0.91056 -0.00264 -0.13358
 H197 H 0.97578 -0.01591 -0.20762
 H198 H 1.02712 -0.01500 -0.20420
 H199 H 1.09319 -0.00428 -0.11700
 H200 H 1.09132 -0.00618 0.13746
 H201 H 1.02263 -0.01669 0.21294
 H202 H 0.94664 0.00040 0.20918
 O203 O 1.03628 0.54831 0.64317
 O204 O 1.07167 0.52400 0.58316
 C205 C 1.06372 0.54282 0.62801
 O206 O 0.95507 0.44134 0.60657
 O207 O 0.92352 0.47104 0.54487
 C208 C 0.92882 0.44859 0.58382
 O209 O 1.03694 0.44512 0.63214
 O210 O 1.07237 0.47251 0.57795
 C211 C 1.06442 0.45167 0.61922
 O212 O 0.95408 0.55015 0.62126
 O213 O 0.92294 0.52451 0.55033
 C214 C 0.92798 0.54423 0.59590
 Zr215 Zr 0.99631 0.53367 0.59719
 O216 O 0.99202 0.52751 0.70244
 O217 O 0.99677 0.57996 0.59828
 Zr218 Zr 0.99683 0.46104 0.58968
 O219 O 0.99184 0.46346 0.69519
 O220 O 0.99879 0.41486 0.59280
 O221 O 1.02323 0.49714 0.61204
 O222 O 0.96957 0.49685 0.59986
 O223 O 0.96145 0.55664 0.39225
 O224 O 0.92666 0.52652 0.44054
 C225 C 0.93417 0.54903 0.40407
 O226 O 1.04519 0.45147 0.39072
 O227 O 1.07604 0.47569 0.46459
 C228 C 1.07122 0.45721 0.41645
 O229 O 0.96285 0.44751 0.38068
 O230 O 0.92698 0.47311 0.43580
 C231 C 0.93532 0.45291 0.39450
 O232 O 1.04402 0.55334 0.39985
 O233 O 1.07568 0.52637 0.46771
 C234 C 1.07038 0.54674 0.42280
 Zr235 Zr 1.00172 0.53803 0.42774
 O236 O 1.00173 0.54102 0.32115
 O237 O 1.00272 0.58396 0.43898
 Zr238 Zr 1.00258 0.46519 0.41977
 O239 O 1.00278 0.46900 0.31324
 O240 O 1.00447 0.41900 0.41720
 Zr241 Zr 1.04407 0.49962 0.51774
 Zr242 Zr 0.95467 0.49906 0.49907
 O243 O 0.97619 0.50169 0.40596
 O244 O 1.02953 0.50211 0.41617
 O245 O 0.97265 0.54134 0.50772
 O246 O 1.02532 0.45766 0.50944
 O247 O 1.02479 0.54141 0.51810
 O248 O 0.97366 0.45707 0.49859
 H249 H 0.95442 0.49570 0.63564
 H250 H 1.03809 0.44001 0.51021
 H251 H 0.96370 0.50254 0.36432
 H252 H 1.03754 0.55903 0.52201
 H253 H 0.99475 0.40825 0.54621
 H254 H 1.00614 0.41361 0.36913
 H255 H 1.02141 0.47913 0.30057
 H256 H 1.01864 0.52922 0.30540
 H257 H 1.00454 0.59242 0.39299
 H258 H 0.99566 0.58594 0.64602
 H259 H 0.99071 0.54723 0.72227
 H260 H 0.99080 0.44296 0.71166
 O261 O 0.44719 -0.04185 0.37432
 O262 O 0.47347 -0.07519 0.43888
 C263 C 0.45358 -0.06846 0.39290
 O264 O 0.55636 0.03827 0.38611
 O265 O 0.52831 0.07109 0.44430
 C266 C 0.54986 0.06468 0.40405
 O267 O 0.55230 -0.04200 0.37780
 O268 O 0.52586 -0.07545 0.44001
 C269 C 0.54610 -0.06858 0.39594
 O270 O 0.44486 0.03898 0.38255
 O271 O 0.47294 0.07159 0.44368
 C272 C 0.45121 0.06528 0.40181
 Zr273 Zr 0.46291 -0.00156 0.41238
 O274 O 0.46627 0.00024 0.30616
 O275 O 0.41575 -0.00224 0.41492
 Zr276 Zr 0.53688 -0.00207 0.41404
 O277 O 0.53124 -0.00020 0.30812
 O278 O 0.58383 -0.00404 0.40821
 O279 O 0.49961 -0.02845 0.40030
 O280 O 0.50020 0.02454 0.40126
 O281 O 0.44481 0.03886 0.61014
 O282 O 0.47481 0.07121 0.55360
 C283 C 0.45257 0.06525 0.59256
 O284 O 0.55243 -0.04471 0.62074
 O285 O 0.52525 -0.07674 0.55629
 C286 C 0.54561 -0.07095 0.60157
 O287 O 0.55740 0.03620 0.61276
 O288 O 0.52989 0.07035 0.55359
 C289 C 0.55196 0.06285 0.59364
 O290 O 0.44748 -0.04263 0.61976
 O291 O 0.47227 -0.07571 0.55469
 C292 C 0.45288 -0.06905 0.60028
 Zr293 Zr 0.46296 -0.00206 0.58243
 O294 O 0.46313 0.00089 0.68886
 O295 O 0.41590 -0.00302 0.57520
 Zr296 Zr 0.53740 -0.00345 0.58483
 O297 O 0.53584 -0.00062 0.69123
 O298 O 0.58449 -0.00587 0.58542
 Zr299 Zr 0.49961 -0.04654 0.49853
 Zr300 Zr 0.50092 0.04187 0.49878
 O301 O 0.50074 0.02322 0.59608
 O302 O 0.49976 -0.02943 0.59691
 O303 O 0.45762 0.02417 0.49717
 O304 O 0.54250 -0.02806 0.49939
 O305 O 0.45714 -0.02725 0.49727
 O306 O 0.54353 0.02284 0.49979
 H307 H 0.50025 0.03845 0.36255
 H308 H 0.56040 -0.04069 0.49979
 H309 H 0.50114 0.03668 0.63489
 H310 H 0.43904 -0.03968 0.49634
 H311 H 0.59171 0.00093 0.45354
 H312 H 0.59109 -0.00626 0.63339
 H313 H 0.52676 -0.01892 0.70839
 H314 H 0.47516 -0.01560 0.70691
 H315 H 0.40856 -0.00310 0.62208
 H316 H 0.40837 -0.00260 0.36759
 H317 H 0.44566 0.00116 0.28773
 H318 H 0.55159 0.00073 0.28956
 O319 O 0.53506 0.54919 0.13428
 O320 O 0.57073 0.52445 0.07605
 C321 C 0.56258 0.54350 0.12023
 O322 O 0.45328 0.44281 0.09586
 O323 O 0.42234 0.47249 0.03250
 C324 C 0.42724 0.45011 0.07198
 O325 O 0.53495 0.44567 0.12424
 O326 O 0.57094 0.47284 0.07144
 C327 C 0.56257 0.45199 0.11221
 O328 O 0.45302 0.55162 0.10914
 O329 O 0.42221 0.52613 0.03718
 C330 C 0.42708 0.54587 0.08274
 Zr331 Zr 0.49531 0.53470 0.08706
 O332 O 0.49017 0.52880 0.19216
 O333 O 0.49610 0.58100 0.08772
 Zr334 Zr 0.49531 0.46211 0.08046
 O335 O 0.48965 0.46497 0.18570
 O336 O 0.49674 0.41593 0.08445
 O337 O 0.52186 0.49802 0.10339
 O338 O 0.46821 0.49815 0.08906
 O339 O 0.46233 0.55794 -0.11768
 O340 O 0.42666 0.52794 -0.07222
 C341 C 0.43489 0.55054 -0.10754
 O342 O 0.54500 0.45213 -0.11754
 O343 O 0.57548 0.47581 -0.04181
 C344 C 0.57086 0.45746 -0.09032
 O345 O 0.46267 0.44836 -0.12999
 O346 O 0.42667 0.47433 -0.07616
 C347 C 0.43509 0.45399 -0.11699
 O348 O 0.54484 0.55353 -0.10809
 O349 O 0.57572 0.52685 -0.03769
 C350 C 0.57094 0.54700 -0.08341
 Zr351 Zr 0.50219 0.53859 -0.08228
 O352 O 0.50733 0.54027 -0.18835
 O353 O 0.50328 0.58464 -0.07351
 Zr354 Zr 0.50227 0.46584 -0.08938
 O355 O 0.50375 0.46928 -0.19580
 O356 O 0.50383 0.41962 -0.09093
 Zr357 Zr 0.54338 0.50011 0.00986
 Zr358 Zr 0.45409 0.50026 -0.01233
 O359 O 0.47624 0.50252 -0.10466
 O360 O 0.52965 0.50244 -0.09209
 O361 O 0.47253 0.54236 -0.00345
 O362 O 0.52432 0.45829 0.00120
 O363 O 0.52446 0.54203 0.00901
 O364 O 0.47275 0.45812 -0.01149
 H365 H 0.45277 0.49720 0.12422
 H366 H 0.53695 0.44055 0.00244
 H367 H 0.46378 0.50322 -0.14631
 H368 H 0.53719 0.55965 0.01326
 H369 H 0.49320 0.40921 0.03774
 H370 H 0.50596 0.41405 -0.13878
 H371 H 0.51933 0.48384 -0.20682
 H372 H 0.48792 0.53584 -0.21026
 H373 H 0.50594 0.59264 -0.11970
 H374 H 0.49475 0.58708 0.13535
 H375 H 0.48886 0.54857 0.21171
 H376 H 0.48821 0.44454 0.20247
 C377 C 1.14562 0.14275 0.17424
 C378 C 1.14251 0.16947 0.20713
 C379 C 1.16804 0.18475 0.22794
 C380 C 1.19673 0.17383 0.21487
 C381 C 1.19860 0.14728 0.18021
 N382 N 1.17346 0.13253 0.16204
 C383 C 1.11977 0.12397 0.15749
 N384 N 1.12321 0.09466 0.16503
 C385 C 1.10124 0.07541 0.14974
 C386 C 1.07367 0.08514 0.12318
 C387 C 1.06948 0.11540 0.11460
 C388 C 1.09242 0.13497 0.13257
 H389 H 1.16520 0.20474 0.25573
 H390 H 1.21993 0.13818 0.16720
 H391 H 1.10590 0.05235 0.15651
 H392 H 1.04878 0.12384 0.09352
 H393 H 1.12070 0.17785 0.21904
 H394 H 1.08916 0.15823 0.12514
 C395 C 1.14941 0.63091 0.68943
 C396 C 1.14786 0.65266 0.73889
 C397 C 1.17051 0.67357 0.74360
 C398 C 1.19453 0.67265 0.69950
 C399 C 1.19447 0.65159 0.64885
 N400 N 1.17242 0.63139 0.64559
 C401 C 1.12775 0.60667 0.68401
 N402 N 1.13547 0.58293 0.64743
 C403 C 1.11628 0.56067 0.63458
 C404 C 1.08692 0.56196 0.65744
 C405 C 1.07893 0.58545 0.69843
 C406 C 1.09921 0.60787 0.71171
 H407 H 1.17030 0.68921 0.78419
 H408 H 1.21282 0.65024 0.61421
 H409 H 1.12351 0.54298 0.60303
 H410 H 1.05646 0.58750 0.71690
 H411 H 1.13035 0.65287 0.77566
 H412 H 1.09185 0.62644 0.74015
 C413 C 0.64625 0.14210 0.67021
 C414 C 0.64295 0.16815 0.70575
 C415 C 0.66836 0.18324 0.72797
 C416 C 0.69713 0.17280 0.71390
 C417 C 0.69922 0.14689 0.67693
 N418 N 0.67419 0.13232 0.65719
 C419 C 0.62054 0.12341 0.65146
 N420 N 0.62476 0.09406 0.65252
 C421 C 0.60288 0.07490 0.63609
 C422 C 0.57444 0.08481 0.61558
 C423 C 0.56947 0.11512 0.61307
 C424 C 0.59242 0.13454 0.63182
 H425 H 0.66537 0.20270 0.75760
 H426 H 0.72065 0.13816 0.66336
 H427 H 0.60815 0.05182 0.63765
 H428 H 0.54805 0.12370 0.59668
 H429 H 0.62110 0.17615 0.71857
 H430 H 0.58846 0.15787 0.62942
 C431 C 0.64864 0.63104 0.18681
 C432 C 0.64533 0.65415 0.23245
 C433 C 0.66823 0.67463 0.24004
 C434 C 0.69426 0.67202 0.20272
 C435 C 0.69610 0.64962 0.15545
 N436 N 0.67371 0.62987 0.14923
 C437 C 0.62656 0.60718 0.17898
 N438 N 0.63451 0.58327 0.14314
 C439 C 0.61525 0.56116 0.12911
 C440 C 0.58563 0.56269 0.15020
 C441 C 0.57734 0.58637 0.19025
 C442 C 0.59761 0.60865 0.20456
 H443 H 0.66643 0.69136 0.27797
 H444 H 0.71601 0.64695 0.12603
 H445 H 0.62272 0.54332 0.09832
 H446 H 0.55467 0.58862 0.20738
 H447 H 0.62616 0.65592 0.26433
 H448 H 0.58994 0.62721 0.23258
 C449 C 0.85525 -0.14079 0.18916
 C450 C 0.83580 -0.13058 0.23866
 C451 C 0.80922 -0.14549 0.25119
 C452 C 0.80153 -0.17051 0.21449
 C453 C 0.82131 -0.17974 0.16464
 N454 N 0.84713 -0.16484 0.15330
 C455 C 0.88348 -0.12518 0.17252
 N456 N 0.89595 -0.12908 0.11095
 C457 C 0.92009 -0.11345 0.08998
 C458 C 0.93258 -0.09177 0.13126
 C459 C 0.92122 -0.08860 0.19622
 C460 C 0.89706 -0.10542 0.21734
 H461 H 0.79487 -0.13761 0.29040
 H462 H 0.81616 -0.19862 0.13420
 H463 H 0.92805 -0.11643 0.03936
 H464 H 0.93031 -0.07220 0.22980
 H465 H 0.84053 -0.11103 0.26696
 H466 H 0.88887 -0.10228 0.26768
 C467 C 0.83393 0.36940 0.64765
 C468 C 0.80412 0.37821 0.64854
 C469 C 0.78286 0.35951 0.67516
 C470 C 0.79093 0.33188 0.70184
 C471 C 0.82087 0.32323 0.69602
 N472 N 0.84137 0.34221 0.67089
 C473 C 0.85777 0.38986 0.62817
 N474 N 0.88546 0.38590 0.65545
 C475 C 0.90826 0.40460 0.64299
 C476 C 0.90375 0.42916 0.60094
 C477 C 0.87542 0.43355 0.57181
 C478 C 0.85247 0.41386 0.58480
 H479 H 0.75997 0.36692 0.67423
 H480 H 0.82859 0.30241 0.71579
 H481 H 0.92984 0.40014 0.66589
 H482 H 0.87106 0.45193 0.53828
 H483 H 0.79722 0.39974 0.63164
 H484 H 0.83102 0.41737 0.56047
 C485 C 0.35521 -0.13994 0.68628
 C486 C 0.33653 -0.13045 0.73804
 C487 C 0.30981 -0.14514 0.75046
 C488 C 0.30124 -0.16921 0.71143
 C489 C 0.32017 -0.17760 0.65916
 N490 N 0.34615 -0.16298 0.64807
 C491 C 0.38365 -0.12469 0.66975
 N492 N 0.39576 -0.12843 0.60775
 C493 C 0.42011 -0.11314 0.58676
 C494 C 0.43319 -0.09196 0.62848
 C495 C 0.42222 -0.08900 0.69386
 C496 C 0.39784 -0.10551 0.71498
 H497 H 0.29611 -0.13795 0.79153
 H498 H 0.31429 -0.19567 0.62683
 H499 H 0.42773 -0.11591 0.53578
 H500 H 0.43176 -0.07295 0.72770
 H501 H 0.34199 -0.11167 0.76839
 H502 H 0.38996 -0.10251 0.76562
 C503 C 0.33227 0.37048 0.13300
 C504 C 0.30237 0.37900 0.13402
 C505 C 0.28136 0.36021 0.16138
 C506 C 0.28978 0.33277 0.18868
 C507 C 0.31972 0.32429 0.18207
 N508 N 0.33996 0.34337 0.15632
 C509 C 0.35601 0.39119 0.11400
 N510 N 0.38383 0.38677 0.14016
 C511 C 0.40663 0.40555 0.12847
 C512 C 0.40204 0.43070 0.08840
 C513 C 0.37357 0.43564 0.06054
 C514 C 0.35057 0.41584 0.07268
 H515 H 0.25840 0.36742 0.16092
 H516 H 0.32770 0.30360 0.20204
 H517 H 0.42830 0.40062 0.15038
 H518 H 0.36911 0.45457 0.02876
 H519 H 0.29518 0.40042 0.11696
 H520 H 0.32902 0.41982 0.04930
 C521 C 0.85753 0.14351 -0.16714
 C522 C 0.85921 0.17234 -0.19085
 C523 C 0.83299 0.18701 -0.20953
 C524 C 0.80493 0.17335 -0.20274
 C525 C 0.80451 0.14454 -0.17721
 N526 N 0.83039 0.13049 -0.16138
 C527 C 0.88446 0.12592 -0.15340
 N528 N 0.88530 0.09851 -0.17856
 C529 C 0.90807 0.07989 -0.16487
 C530 C 0.93154 0.08796 -0.12087
 C531 C 0.93164 0.11657 -0.09565
 C532 C 0.90821 0.13578 -0.11249
 H533 H 0.83492 0.20881 -0.23071
 H534 H 0.78374 0.13309 -0.16935
 H535 H 0.90690 0.05823 -0.18613
 H536 H 0.94905 0.12365 -0.06109
 H537 H 0.88057 0.18297 -0.19736
 H538 H 0.90789 0.15749 -0.09130
 C539 C 0.84230 0.63044 0.32922
 C540 C 0.84909 0.65852 0.30445
 C541 C 0.82597 0.67777 0.28699
 C542 C 0.79604 0.66888 0.29305
 C543 C 0.79060 0.64112 0.32215
 N544 N 0.81338 0.62299 0.33854
 C545 C 0.86566 0.60861 0.34491
 N546 N 0.89490 0.61559 0.33726
 C547 C 0.91708 0.59638 0.35254
 C548 C 0.91031 0.56834 0.37785
 C549 C 0.88032 0.56041 0.38409
 C550 C 0.85799 0.58044 0.36783
 H551 H 0.83170 0.69873 0.26487
 H552 H 0.76826 0.63369 0.33288
 H553 H 0.93995 0.60345 0.34705
 H554 H 0.87410 0.53902 0.40323
 H555 H 0.87194 0.66530 0.29707
 H556 H 0.83497 0.57399 0.37415
 C557 C 0.35657 0.14443 0.33124
 C558 C 0.35788 0.17441 0.31781
 C559 C 0.33179 0.18944 0.29975
 C560 C 0.30376 0.17498 0.29643
 C561 C 0.30392 0.14473 0.31225
 N562 N 0.32977 0.13062 0.32795
 C563 C 0.38354 0.12676 0.34493
 N564 N 0.38473 0.09968 0.31792
 C565 C 0.40741 0.08092 0.33143
 C566 C 0.43045 0.08846 0.37705
 C567 C 0.43025 0.11673 0.40416
 C568 C 0.40690 0.13608 0.38769
 H569 H 0.33445 0.21213 0.28562
 H570 H 0.28375 0.13193 0.31410
 H571 H 0.40653 0.05954 0.30866
 H572 H 0.44733 0.12339 0.43998
 H573 H 0.37902 0.18587 0.31842
 H574 H 0.40635 0.15744 0.41060
 C575 C 0.34684 0.63147 -0.20390
 C576 C 0.34669 0.65996 -0.17881
 C577 C 0.32365 0.67896 -0.19769
 C578 C 0.30074 0.66967 -0.24209
 C579 C 0.30347 0.64145 -0.26980
 N580 N 0.32568 0.62329 -0.24940
 C581 C 0.36918 0.61005 -0.18084
 N582 N 0.39700 0.61925 -0.16331
 C583 C 0.41835 0.60034 -0.14145
 C584 C 0.41198 0.57038 -0.13497
 C585 C 0.38337 0.56042 -0.15208
 C586 C 0.36198 0.58021 -0.17600
 H587 H 0.32308 0.70003 -0.17367
 H588 H 0.28818 0.63357 -0.30814
 H589 H 0.44009 0.60888 -0.12763
 H590 H 0.37768 0.53748 -0.14723
 H591 H 0.36344 0.66701 -0.14256
 H592 H 0.33987 0.57240 -0.18918
 C593 C 1.14134 -0.14550 -0.17281
 C594 C 1.13980 -0.17359 -0.19955
 C595 C 1.16600 -0.18731 -0.21941
 C596 C 1.19399 -0.17354 -0.21070
 C597 C 1.19429 -0.14553 -0.18211
 N598 N 1.16837 -0.13230 -0.16526
 C599 C 1.11423 -0.12875 -0.15828
 N600 N 1.11139 -0.10169 -0.18618
 C601 C 1.08846 -0.08374 -0.17164
 C602 C 1.06712 -0.09206 -0.12366
 C603 C 1.06894 -0.12045 -0.09597
 C604 C 1.09237 -0.13904 -0.11385
 H605 H 1.16404 -0.20841 -0.24313
 H606 H 1.21500 -0.13404 -0.17288
 H607 H 1.08800 -0.06226 -0.19510
 H608 H 1.05323 -0.12772 -0.05843
 H609 H 1.11849 -0.18426 -0.20754
 H610 H 1.09429 -0.16052 -0.09070
 C611 C 1.15711 0.36993 0.35807
 C612 C 1.14901 0.34455 0.32276
 C613 C 1.17085 0.32427 0.30678
 C614 C 1.20047 0.32922 0.32649
 C615 C 1.20712 0.35337 0.36706
 N616 N 1.18563 0.37308 0.38100
 C617 C 1.13593 0.39393 0.36856
 N618 N 1.14037 0.41222 0.42149
 C619 C 1.12134 0.43444 0.43469
 C620 C 1.09596 0.43888 0.39372
 C621 C 1.09207 0.42141 0.33655
 C622 C 1.11200 0.39903 0.32370
 H623 H 1.16499 0.30582 0.27544
 H624 H 1.22978 0.35753 0.38392
 H625 H 1.12522 0.44749 0.47910
 H626 H 1.07298 0.42431 0.30307
 H627 H 1.12631 0.34075 0.30587
 H628 H 1.10849 0.38588 0.27930
 C629 C 0.64020 -0.14476 0.31884
 C630 C 0.63877 -0.17301 0.29298
 C631 C 0.66507 -0.18694 0.27451
 C632 C 0.69305 -0.17322 0.28382
 C633 C 0.69322 -0.14495 0.31105
 N634 N 0.66722 -0.13155 0.32663
 C635 C 0.61303 -0.12802 0.33309
 N636 N 0.61038 -0.10080 0.30591
 C637 C 0.58747 -0.08284 0.32063
 C638 C 0.56597 -0.09132 0.36811
 C639 C 0.56759 -0.11986 0.39498
 C640 C 0.59100 -0.13844 0.37691
 H641 H 0.66322 -0.20823 0.25167
 H642 H 0.71390 -0.13345 0.32058
 H643 H 0.58717 -0.06124 0.29780
 H644 H 0.55175 -0.12726 0.43211
 H645 H 0.61749 -0.18373 0.28486
 H646 H 0.59278 -0.16004 0.39957
 C647 C 0.65595 0.36856 -0.14089
 C648 C 0.64836 0.34346 -0.17780
 C649 C 0.67032 0.32297 -0.19156
 C650 C 0.69948 0.32741 -0.16797
 C651 C 0.70542 0.35117 -0.12572
 N652 N 0.68389 0.37113 -0.11412
 C653 C 0.63499 0.39291 -0.13261
 N654 N 0.63904 0.41135 -0.07983
 C655 C 0.62029 0.43398 -0.06852
 C656 C 0.59556 0.43871 -0.11133
 C657 C 0.59210 0.42108 -0.16832
 C658 C 0.61178 0.39828 -0.17929
 H659 H 0.66502 0.30482 -0.22430
 H660 H 0.72770 0.35492 -0.10590
 H661 H 0.62381 0.44712 -0.02411
 H662 H 0.57349 0.42417 -0.20310
 H663 H 0.62607 0.34005 -0.19769
 H664 H 0.60863 0.38503 -0.22365
 C665 C 1.13326 0.15604 -0.16498
 C666 C 1.16151 0.15100 -0.19203
 C667 C 1.17992 0.17465 -0.20846
 C668 C 1.17043 0.20367 -0.19857
 C669 C 1.14242 0.20740 -0.16809
 N670 N 1.12502 0.18401 -0.15266
 C671 C 1.11209 0.13206 -0.14864
 N672 N 1.08968 0.13731 -0.10478
 C673 C 1.06938 0.11654 -0.08718
 C674 C 1.07090 0.08835 -0.11422
 C675 C 1.09338 0.08268 -0.16079
 C676 C 1.11384 0.10439 -0.17829
 H677 H 1.20088 0.16991 -0.23211
 H678 H 1.13436 0.22875 -0.15461
 H679 H 1.05254 0.12193 -0.05090
 H680 H 1.09540 0.06134 -0.18335
 H681 H 1.16952 0.12911 -0.20070
 H682 H 1.13055 0.09941 -0.21510
 C683 C 1.15096 0.63861 0.35994
 C684 C 1.18043 0.63836 0.33873
 C685 C 1.19386 0.66463 0.31893
 C686 C 1.17817 0.69151 0.32127
 C687 C 1.14908 0.69038 0.34747
 N688 N 1.13635 0.66444 0.36424
 C689 C 1.13399 0.61157 0.37032
 N690 N 1.10796 0.60857 0.33543
 C691 C 1.08892 0.58618 0.34708
 C692 C 1.09488 0.56577 0.39906
 C693 C 1.12240 0.56757 0.43367
 C694 C 1.14222 0.59045 0.41896
 H695 H 1.21582 0.66307 0.29782
 H696 H 1.13613 0.70985 0.35555
 H697 H 1.06825 0.58552 0.31827
 H698 H 1.12782 0.55240 0.47430
 H699 H 1.19230 0.61792 0.33376
 H700 H 1.16278 0.59264 0.44779
 C701 C 0.63154 0.15572 0.32432
 C702 C 0.65707 0.15107 0.28551
 C703 C 0.67563 0.17462 0.26935
 C704 C 0.66908 0.20278 0.29202
 C705 C 0.64409 0.20626 0.33299
 N706 N 0.62624 0.18308 0.34758
 C707 C 0.61018 0.13198 0.34145
 N708 N 0.59024 0.13651 0.39140
 C709 C 0.57007 0.11591 0.41059
 C710 C 0.56927 0.08858 0.37911
 C711 C 0.58912 0.08366 0.32647
 C712 C 0.60938 0.10524 0.30721
 H713 H 0.69465 0.17091 0.23767
 H714 H 0.63858 0.22743 0.35310
 H715 H 0.55529 0.12064 0.45164
 H716 H 0.58917 0.06299 0.30034
 H717 H 0.66294 0.12966 0.26759
 H718 H 0.62393 0.10080 0.26572
 C719 C 0.65141 0.63931 -0.14263
 C720 C 0.68116 0.63926 -0.16172
 C721 C 0.69458 0.66556 -0.18121
 C722 C 0.67859 0.69230 -0.18060
 C723 C 0.64913 0.69101 -0.15656
 N724 N 0.63645 0.66501 -0.14008
 C725 C 0.63462 0.61213 -0.13286
 N726 N 0.60921 0.60862 -0.16978
 C727 C 0.59029 0.58605 -0.15905
 C728 C 0.59566 0.56601 -0.10600
 C729 C 0.62261 0.56831 -0.06930
 C730 C 0.64236 0.59136 -0.08304
 H731 H 0.71684 0.66409 -0.20076
 H732 H 0.63586 0.71038 -0.14998
 H733 H 0.57009 0.58499 -0.18947
 H734 H 0.62757 0.55342 -0.02786
 H735 H 0.69331 0.61891 -0.16534
 H736 H 0.66243 0.59394 -0.05264
 C737 C 0.87543 -0.15926 -0.19733
 C738 C 0.84768 -0.15323 -0.22854
 C739 C 0.82834 -0.17620 -0.24458
 C740 C 0.83638 -0.20519 -0.22950
 C741 C 0.86400 -0.21020 -0.19698
 N742 N 0.88245 -0.18751 -0.18195
 C743 C 0.89694 -0.13589 -0.17830
 N744 N 0.91850 -0.14195 -0.13103
 C745 C 0.93828 -0.12146 -0.10880
 C746 C 0.93679 -0.09263 -0.13374
 C747 C 0.91554 -0.08625 -0.18457
 C748 C 0.89578 -0.10772 -0.20716
 H749 H 0.80728 -0.17132 -0.26958
 H750 H 0.87086 -0.23214 -0.18294
 H751 H 0.95443 -0.12752 -0.07007
 H752 H 0.91371 -0.06444 -0.20607
 H753 H 0.84057 -0.13113 -0.23980
 H754 H 0.87987 -0.10205 -0.24659
 C755 C 0.85794 0.36001 0.31432
 C756 C 0.82844 0.36100 0.29057
 C757 C 0.81403 0.33495 0.27339
 C758 C 0.82870 0.30785 0.28144
 C759 C 0.85805 0.30805 0.30710
 N760 N 0.87179 0.33372 0.32171
 C761 C 0.87529 0.38666 0.32797
 N762 N 0.90427 0.38705 0.30964
 C763 C 0.92287 0.40934 0.32543
 C764 C 0.91297 0.43270 0.36477
 C765 C 0.88275 0.43339 0.38214
 C766 C 0.86371 0.41043 0.36331
 H767 H 0.79169 0.33620 0.25225
 H768 H 0.87018 0.28793 0.31580
 H769 H 0.94585 0.40780 0.31017
 H770 H 0.87418 0.45092 0.41244
 H771 H 0.81710 0.38167 0.28302
 H772 H 0.84074 0.41049 0.37918
 C773 C 0.37409 -0.15905 0.29988
 C774 C 0.34601 -0.15309 0.27016
 C775 C 0.32674 -0.17614 0.25426
 C776 C 0.33519 -0.20514 0.26799
 C777 C 0.36313 -0.21009 0.29907
 N778 N 0.38150 -0.18733 0.31401
 C779 C 0.39553 -0.13559 0.31867
 N780 N 0.41744 -0.14167 0.36508
 C781 C 0.43722 -0.12112 0.38700
 C782 C 0.43540 -0.09223 0.36255
 C783 C 0.41376 -0.08581 0.31262
 C784 C 0.39398 -0.10733 0.29039
 H785 H 0.30542 -0.17130 0.23041
 H786 H 0.37031 -0.23204 0.31208
 H787 H 0.45366 -0.12720 0.42509
 H788 H 0.41165 -0.06395 0.29156
 H789 H 0.33860 -0.13099 0.26001
 H790 H 0.37774 -0.10164 0.25165
 C791 C 0.35845 0.36012 -0.19428
 C792 C 0.32764 0.35988 -0.20537
 C793 C 0.31325 0.33346 -0.21927
 C794 C 0.32929 0.30679 -0.22116
 C795 C 0.36031 0.30846 -0.20848
 N796 N 0.37371 0.33453 -0.19622
 C797 C 0.37534 0.38728 -0.18193
 N798 N 0.40382 0.38871 -0.20379
 C799 C 0.42221 0.41131 -0.18882
 C800 C 0.41266 0.43391 -0.14686
 C801 C 0.38285 0.43368 -0.12628
 C802 C 0.36404 0.41040 -0.14392
 H803 H 0.28975 0.33466 -0.23154
 H804 H 0.37419 0.28923 -0.20600
 H805 H 0.44485 0.41057 -0.20667
 H806 H 0.37454 0.45063 -0.09398
 H807 H 0.31493 0.37998 -0.20568
 H808 H 0.34158 0.40971 -0.12486
 C809 C 1.12537 -0.16242 0.19466
 C810 C 1.15503 -0.15627 0.21319
 C811 C 1.17459 -0.17915 0.22912
 C812 C 1.16483 -0.20848 0.22758
 C813 C 1.13498 -0.21346 0.20655
 N814 N 1.11653 -0.19078 0.19075
 C815 C 1.10365 -0.13894 0.17760
 N816 N 1.08083 -0.14450 0.13337
 C817 C 1.06080 -0.12364 0.11359
 C818 C 1.06316 -0.09507 0.13852
 C819 C 1.08579 -0.08930 0.18638
 C820 C 1.10595 -0.11107 0.20601
 H821 H 1.19694 -0.17351 0.24560
 H822 H 1.12631 -0.23532 0.20014
 H823 H 1.04373 -0.12916 0.07672
 H824 H 1.08849 -0.06771 0.20749
 H825 H 1.16324 -0.13403 0.21503
 H826 H 1.12313 -0.10598 0.24294
 C827 C 1.14433 0.35951 0.69302
 C828 C 1.17383 0.36049 0.71690
 C829 C 1.18880 0.33429 0.73117
 C830 C 1.17466 0.30716 0.72024
 C831 C 1.14540 0.30744 0.69401
 N832 N 1.13112 0.33316 0.68228
 C833 C 1.12631 0.38606 0.68232
 N834 N 1.09722 0.38494 0.69981
 C835 C 1.07797 0.40698 0.68564
 C836 C 1.08728 0.43171 0.64869
 C837 C 1.11760 0.43399 0.63260
 C838 C 1.13730 0.41122 0.64986
 H839 H 1.21112 0.33536 0.75249
 H840 H 1.13374 0.28733 0.68280
 H841 H 1.05496 0.40418 0.69988
 H842 H 1.12576 0.45263 0.60425
 H843 H 1.18472 0.38117 0.72684
 H844 H 1.16034 0.41255 0.63471
 C845 C 0.62652 -0.16231 0.68681
 C846 C 0.65607 -0.15604 0.70601
 C847 C 0.67557 -0.17883 0.72317
 C848 C 0.66587 -0.20818 0.72219
 C849 C 0.63616 -0.21330 0.70020
 N850 N 0.61775 -0.19071 0.68328
 C851 C 0.60479 -0.13891 0.66914
 N852 N 0.58212 -0.14454 0.62456
 C853 C 0.56201 -0.12376 0.60462
 C854 C 0.56412 -0.09521 0.62982
 C855 C 0.58664 -0.08938 0.67791
 C856 C 0.60688 -0.11104 0.69765
 H857 H 0.69780 -0.17306 0.74026
 H858 H 0.62756 -0.23520 0.69407
 H859 H 0.54504 -0.12933 0.56758
 H860 H 0.58914 -0.06782 0.69929
 H861 H 0.66424 -0.13379 0.70758
 H862 H 0.62391 -0.10591 0.73489
 C863 C 0.64234 0.35958 0.18638
 C864 C 0.67175 0.36075 0.21081
 C865 C 0.68698 0.33466 0.22472
 C866 C 0.67319 0.30742 0.21296
 C867 C 0.64398 0.30751 0.18642
 N868 N 0.62946 0.33312 0.17495
 C869 C 0.62412 0.38602 0.17548
 N870 N 0.59477 0.38443 0.19058
 C871 C 0.57551 0.40648 0.17629
 C872 C 0.58514 0.43174 0.14182
 C873 C 0.61567 0.43443 0.12809
 C874 C 0.63532 0.41164 0.14536
 H875 H 0.70922 0.33591 0.24642
 H876 H 0.63255 0.28732 0.17473
 H877 H 0.55230 0.40331 0.18848
 H878 H 0.62408 0.45347 0.10159
 H879 H 0.68241 0.38149 0.22139
 H880 H 0.65857 0.41336 0.13202
 C881 C 0.87378 0.16092 0.15783
 C882 C 0.87604 0.18876 0.12744
 C883 C 0.85660 0.21094 0.14584
 C884 C 0.83446 0.20557 0.19356
 C885 C 0.83182 0.17712 0.22013
 N886 N 0.85139 0.15590 0.20228
 C887 C 0.89506 0.13693 0.14296
 N888 N 0.88743 0.10877 0.15801
 C889 C 0.90559 0.08571 0.14515
 C890 C 0.93340 0.09025 0.11497
 C891 C 0.94202 0.11915 0.10069
 C892 C 0.92315 0.14242 0.11486
 H893 H 0.85898 0.23244 0.12308
 H894 H 0.81498 0.17208 0.25697
 H895 H 0.89794 0.06383 0.15705
 H896 H 0.96329 0.12385 0.07787
 H897 H 0.89250 0.19365 0.08976
 H898 H 0.93085 0.16436 0.10420
 C899 C 0.85016 0.63744 0.66223
 C900 C 0.82425 0.64682 0.62761
 C901 C 0.81167 0.67381 0.64324
 C902 C 0.82476 0.69148 0.69312
 C903 C 0.85042 0.68118 0.72674
 N904 N 0.86220 0.65492 0.71070
 C905 C 0.86580 0.60974 0.64756
 N906 N 0.88798 0.60119 0.69093
 C907 C 0.90623 0.57838 0.67837
 C908 C 0.90331 0.56299 0.61790
 C909 C 0.87949 0.57006 0.57415
 C910 C 0.86072 0.59352 0.58853
 H911 H 0.79182 0.68095 0.61610
 H912 H 0.86088 0.69372 0.76656
 H913 H 0.92411 0.57344 0.71394
 H914 H 0.87661 0.55880 0.52685
 H915 H 0.81354 0.63364 0.58939
 H916 H 0.84373 0.59960 0.55184
 C917 C 0.37408 0.16016 0.65997
 C918 C 0.37522 0.18761 0.62741
 C919 C 0.35576 0.20969 0.64625
 C920 C 0.33475 0.20459 0.69665
 C921 C 0.33314 0.17646 0.72540
 N922 N 0.35271 0.15534 0.70700
 C923 C 0.39549 0.13639 0.64457
 N924 N 0.38844 0.10822 0.66093
 C925 C 0.40671 0.08534 0.64740
 C926 C 0.43400 0.09008 0.61508
 C927 C 0.44209 0.11902 0.59961
 C928 C 0.42311 0.14211 0.61448
 H929 H 0.35730 0.23093 0.62183
 H930 H 0.31716 0.17165 0.76432
 H931 H 0.39950 0.06342 0.66033
 H932 H 0.46296 0.12386 0.57518
 H933 H 0.39083 0.19223 0.58774
 H934 H 0.43034 0.16411 0.60273
 C935 C 0.34942 0.63878 0.15156
 C936 C 0.32338 0.64840 0.11788
 C937 C 0.31063 0.67506 0.13563
 C938 C 0.32375 0.69215 0.18653
 C939 C 0.34959 0.68163 0.21904
 N940 N 0.36148 0.65567 0.20110
 C941 C 0.36499 0.61129 0.13515
 N942 N 0.38593 0.60123 0.17996
 C943 C 0.40407 0.57845 0.16655
 C944 C 0.40237 0.56471 0.10382
 C945 C 0.37995 0.57350 0.05788
 C946 C 0.36121 0.59686 0.07324
 H947 H 0.29061 0.68238 0.10941
 H948 H 0.36007 0.69375 0.25954
 H949 H 0.42095 0.57220 0.20353
 H950 H 0.37828 0.56374 0.00847
 H951 H 0.31269 0.63556 0.07898
 H952 H 0.34536 0.60440 0.03536
   
