data_POSCAR
  _audit_creation_date              2014-09-24
  _audit_creation_method            'ToBaCCo'
  _symmetry_space_group_name_H-M    'P1'
  _symmetry_Int_Tables_number       1
  _symmetry_cell_setting            triclinic
  loop_
  _symmetry_equiv_pos_as_xyz
 x,y,z
_cell_length_a 26.9728
_cell_length_b 26.6957
_cell_length_c 35.5307
_cell_angle_alpha 90.828800
_cell_angle_beta 90.412500
_cell_angle_gamma 88.848900
loop_
  _atom_site_label
  _atom_site_type_symbol
  _atom_site_fract_x
  _atom_site_fract_y
  _atom_site_fract_z
C1 C -0.00357 0.54891 1.02000
 C2 C -0.01169 0.54656 0.98014
 C3 C -0.01631 0.49917 0.96264
 C4 C -0.01187 0.45462 0.98268
 C5 C -0.00456 0.45646 1.02224
 C6 C 0.00153 0.50354 1.03987
 H7 H 0.00455 0.50502 1.07029
 H8 H -0.01917 0.49635 0.93223
 C9 C 0.45930 -0.00814 0.52248
 C10 C 0.45560 -0.00096 0.48324
 C11 C 0.49890 0.00465 0.46224
 C12 C 0.54645 0.00206 0.47901
 C13 C 0.54975 -0.00445 0.51871
 C14 C 0.50623 -0.01006 0.53958
 H15 H 0.50877 -0.01371 0.56990
 H16 H 0.49522 0.00779 0.43197
 C17 C 0.10125 0.00699 0.27057
 H18 H 0.10438 0.00753 0.24024
 C19 C 0.14395 0.00643 0.29301
 H20 H 0.17992 0.00588 0.27967
 C21 C 0.05035 0.00626 0.32462
 H22 H 0.01384 0.00703 0.33689
 C23 C 0.09206 0.00566 0.34813
 H24 H 0.08708 0.00596 0.37834
 N25 N 0.05565 0.00604 0.28657
 C26 C -0.04041 -0.05987 0.20081
 H27 H -0.06986 -0.03176 0.20025
 C28 C -0.04336 -0.10250 0.17775
 H29 H -0.07555 -0.10710 0.15976
 C30 C 0.03655 -0.08834 0.22592
 H31 H 0.06739 -0.08299 0.24499
 C32 C 0.03517 -0.13151 0.20326
 H33 H 0.06568 -0.15841 0.20467
 Zn34 Zn -0.00018 0.00595 0.25398
 N35 N -0.00061 -0.05325 0.22391
 C36 C 0.00679 0.05744 0.18503
 N37 N 0.00350 0.06298 0.22303
 C38 C 0.00331 0.10916 0.23971
 C39 C 0.00351 0.15224 0.21783
 C40 C 0.00760 0.09943 0.16213
 C41 C -0.06917 -0.03161 0.30446
 C42 C -0.11300 -0.03277 0.32510
 C43 C -0.13779 0.04637 0.29795
 C44 C -0.09350 0.04604 0.27789
 N45 N -0.05992 0.00773 0.28182
 H46 H 0.00867 0.02047 0.17232
 H47 H 0.00160 0.11249 0.27006
 H48 H 0.00115 0.18859 0.23166
 H49 H 0.01028 0.09403 0.13195
 H50 H -0.04237 -0.06218 0.30641
 H51 H -0.11979 -0.06457 0.34277
 H52 H -0.16361 0.07765 0.29487
 H53 H -0.08634 0.07627 0.25898
 C54 C -0.00507 -0.13894 0.17859
 C55 C 0.13968 0.00535 0.33237
 C56 C -0.14799 0.00667 0.32203
 C57 C 0.00492 0.14772 0.17839
 C58 C 0.00118 0.09852 0.76506
 H59 H 0.00153 0.10142 0.73472
 C60 C -0.00014 0.14187 0.78751
 H61 H -0.00009 0.17809 0.77420
 C62 C 0.00139 0.04754 0.81910
 H63 H 0.00111 0.01077 0.83132
 C64 C 0.00003 0.08989 0.84262
 H65 H -0.00127 0.08510 0.87280
 N66 N 0.00273 0.05257 0.78108
 C67 C 0.07211 -0.04581 0.69670
 H68 H 0.04470 -0.07474 0.69428
 C69 C 0.11542 -0.04935 0.67543
 H70 H 0.12074 -0.08086 0.65626
 C71 C 0.09807 0.03056 0.72452
 H72 H 0.09171 0.06115 0.74421
 C73 C 0.14184 0.02854 0.70379
 H74 H 0.16869 0.05779 0.70779
 Zn75 Zn 0.00465 -0.00420 0.74855
 N76 N 0.06395 -0.00597 0.72028
 C77 C -0.04700 0.00080 0.67831
 N78 N -0.05153 0.00058 0.71641
 C79 C -0.09671 0.00484 0.73302
 C80 C -0.13982 0.00758 0.71113
 C81 C -0.08918 0.00367 0.65532
 C82 C 0.04164 -0.07448 0.80025
 C83 C 0.04213 -0.11812 0.82152
 C84 C -0.03604 -0.14021 0.79282
 C85 C -0.03506 -0.09620 0.77218
 N86 N 0.00307 -0.06401 0.77658
 H87 H -0.01076 -0.00144 0.66560
 H88 H -0.09918 0.00555 0.76341
 H89 H -0.17544 0.01077 0.72491
 H90 H -0.08491 0.00265 0.62504
 H91 H 0.07198 -0.04870 0.80269
 H92 H 0.07323 -0.12587 0.84011
 H93 H -0.06727 -0.16477 0.78943
 H94 H -0.06481 -0.08798 0.75261
 C95 C 0.15091 -0.01171 0.67871
 C96 C -0.00039 0.13788 0.82689
 C97 C 0.00281 -0.15161 0.81801
 C98 C -0.13640 0.00661 0.67171
 C99 C -0.01009 -0.31640 0.08417
 C100 C -0.04298 -0.32301 0.05381
 C101 C -0.04102 -0.36745 0.03268
 C102 C -0.00605 -0.40559 0.04125
 C103 C 0.02502 -0.39786 0.07279
 N104 N 0.02238 -0.35420 0.09289
 C105 C -0.01019 -0.27003 0.10758
 N106 N 0.00821 -0.27212 0.14332
 C107 C 0.01007 -0.23113 0.16640
 C108 C -0.00707 -0.18421 0.15378
 C109 C -0.02577 -0.18112 0.11688
 C110 C -0.02733 -0.22375 0.09374
 H111 H -0.06795 -0.37240 0.01027
 H112 H 0.05272 -0.42569 0.08077
 H113 H 0.02438 -0.23546 0.19471
 H114 H -0.03828 -0.14555 0.10561
 H115 H -0.07085 -0.29489 0.04686
 H116 H -0.04071 -0.21997 0.06514
 C117 C -0.00729 0.32499 0.08711
 C118 C -0.04154 0.33170 0.05758
 C119 C -0.04083 0.37522 0.03651
 C120 C -0.00631 0.41281 0.04449
 C121 C 0.02543 0.40583 0.07572
 N122 N 0.02453 0.36260 0.09552
 C123 C -0.00498 0.27857 0.10968
 N124 N 0.02053 0.27886 0.14292
 C125 C 0.02452 0.23786 0.16513
 C126 C 0.00201 0.19282 0.15426
 C127 C -0.02404 0.19160 0.11994
 C128 C -0.02728 0.23395 0.09753
 H129 H -0.06851 0.37998 0.01457
 H130 H 0.05261 0.43353 0.08336
 H131 H 0.04571 0.24043 0.19103
 H132 H -0.04253 0.15802 0.11048
 H133 H -0.06939 0.30442 0.05086
 H134 H -0.04664 0.23095 0.07092
 C135 C 0.33014 -0.01699 0.59109
 C136 C 0.36699 -0.05493 0.59297
 C137 C 0.40922 -0.05191 0.57068
 C138 C 0.41483 -0.01138 0.54657
 C139 C 0.37783 0.02624 0.54609
 N140 N 0.33705 0.02253 0.56801
 C141 C 0.28447 -0.01769 0.61402
 N142 N 0.25890 0.02617 0.62001
 C143 C 0.21655 0.02894 0.64047
 C144 C 0.19713 -0.01435 0.65624
 C145 C 0.22250 -0.06012 0.65006
 C146 C 0.26599 -0.06201 0.62898
 H147 H 0.43737 -0.08135 0.57202
 H148 H 0.38141 0.05858 0.52835
 H149 H 0.19776 0.06489 0.64394
 H150 H 0.20899 -0.09442 0.66182
 H151 H 0.36399 -0.08620 0.61174
 H152 H 0.28416 -0.09796 0.62411
 C153 C -0.31450 0.00740 0.58109
 C154 C -0.32871 0.04572 0.55626
 C155 C -0.37303 0.04198 0.53598
 C156 C -0.40304 0.00017 0.54016
 C157 C -0.38812 -0.03672 0.56578
 N158 N -0.34488 -0.03225 0.58528
 C159 C -0.26815 0.00911 0.60364
 N160 N -0.26489 -0.01838 0.63557
 C161 C -0.22360 -0.01942 0.65770
 C162 C -0.18187 0.00804 0.64792
 C163 C -0.18413 0.03624 0.61490
 C164 C -0.22707 0.03688 0.59271
 H165 H -0.38405 0.07178 0.51712
 H166 H -0.41058 -0.06930 0.56996
 H167 H -0.22317 -0.04237 0.68255
 H168 H -0.15284 0.05807 0.60637
 H169 H -0.30664 0.07871 0.55296
 H170 H -0.22744 0.05815 0.56703
 C171 C -0.00604 -0.32887 0.90820
 C172 C -0.04053 -0.36655 0.90116
 C173 C -0.04236 -0.40742 0.92498
 C174 C -0.01050 -0.41103 0.95646
 C175 C 0.02346 -0.37219 0.96244
 N176 N 0.02460 -0.33274 0.93867
 C177 C -0.00293 -0.28450 0.88385
 N178 N 0.01483 -0.24102 0.89864
 C179 C 0.01775 -0.19853 0.87815
 C180 C 0.00205 -0.19818 0.84036
 C181 C -0.01524 -0.24295 0.82434
 C182 C -0.01764 -0.28608 0.84585
 H183 H -0.07012 -0.43539 0.91942
 H184 H 0.05013 -0.37375 0.98530
 H185 H 0.03121 -0.16483 0.89169
 H186 H -0.02647 -0.24478 0.79504
 H187 H -0.06676 -0.36420 0.87806
 H188 H -0.03027 -0.32026 0.83255
 C189 C -0.00177 0.31732 0.91916
 C190 C 0.03633 0.32976 0.94463
 C191 C 0.03306 0.37457 0.96519
 C192 C -0.00796 0.40702 0.96057
 C193 C -0.04460 0.39396 0.93423
 N194 N -0.04068 0.35005 0.91452
 C195 C -0.00043 0.27033 0.89645
 N196 N -0.02803 0.26789 0.86426
 C197 C -0.02874 0.22626 0.84180
 C198 C -0.00061 0.18342 0.85139
 C199 C 0.02755 0.18484 0.88474
 C200 C 0.02763 0.22798 0.90736
 H201 H 0.06265 0.38409 0.98461
 H202 H -0.07657 0.41835 0.92971
 H203 H -0.05170 0.22654 0.81670
 H204 H 0.05000 0.15279 0.89316
 H205 H 0.06884 0.30595 0.94828
 H206 H 0.04895 0.22755 0.93323
 C207 C -0.32803 0.00666 0.40852
 C208 C -0.36946 0.03766 0.40107
 C209 C -0.41086 0.03596 0.42426
 C210 C -0.41124 0.00416 0.45556
 C211 C -0.36882 -0.02639 0.46178
 N212 N -0.32906 -0.02420 0.43863
 C213 C -0.28277 0.00706 0.38514
 N214 N -0.23909 -0.00961 0.40033
 C215 C -0.19591 -0.01039 0.38080
 C216 C -0.19500 0.00636 0.34353
 C217 C -0.23974 0.02300 0.32712
 C218 C -0.28360 0.02327 0.34769
 H219 H -0.44181 0.06120 0.41844
 H220 H -0.36773 -0.05346 0.48413
 H221 H -0.16225 -0.02327 0.39465
 H222 H -0.24100 0.03509 0.29816
 H223 H -0.36983 0.06394 0.37820
 H224 H -0.31766 0.03516 0.33397
 C225 C 0.31730 -0.00256 0.42350
 C226 C 0.33044 -0.04280 0.44692
 C227 C 0.37544 -0.04224 0.46651
 C228 C 0.40732 -0.00178 0.46298
 C229 C 0.39328 0.03728 0.43896
 N230 N 0.34932 0.03591 0.42009
 C231 C 0.27062 -0.00135 0.40127
 N232 N 0.26782 0.02817 0.37036
 C233 C 0.22661 0.03112 0.34821
 C234 C 0.18459 0.00337 0.35677
 C235 C 0.18632 -0.02667 0.38887
 C236 C 0.22905 -0.02905 0.41120
 H237 H 0.38571 -0.07368 0.48406
 H238 H 0.41716 0.06894 0.43536
 H239 H 0.22662 0.05549 0.32413
 H240 H 0.15486 -0.04888 0.39646
 H241 H 0.30711 -0.07501 0.44951
 H242 H 0.22898 -0.05190 0.43607
   
