data_POSCAR
  _audit_creation_date              2014-09-24
  _audit_creation_method            'ToBaCCo'
  _symmetry_space_group_name_H-M    'P1'
  _symmetry_Int_Tables_number       1
  _symmetry_cell_setting            triclinic
  loop_
  _symmetry_equiv_pos_as_xyz
 x,y,z
_cell_length_a 34.5381
_cell_length_b 36.7269
_cell_length_c 35.6069
_cell_angle_alpha 89.819300
_cell_angle_beta 90.039800
_cell_angle_gamma 90.111800
loop_
  _atom_site_label
  _atom_site_type_symbol
  _atom_site_fract_x
  _atom_site_fract_y
  _atom_site_fract_z
O1 O 0.38592 0.31986 -0.03896
 O2 O 0.32621 0.37312 0.02716
 O3 O 0.37674 0.31690 0.03105
 O4 O 0.35153 0.37816 -0.04429
 O5 O 0.29533 0.35067 -0.05289
 O6 O 0.32737 0.28095 0.01767
 O7 O 0.27724 0.33565 0.01742
 O8 O 0.33316 0.28933 -0.05487
 Cu9 Cu 0.36399 0.35115 -0.00348
 Cu10 Cu 0.30303 0.31098 -0.01911
 C11 C 0.36884 0.29612 -0.05908
 C12 C 0.29146 0.36316 0.03358
 C13 C 0.35853 0.28739 0.03584
 C14 C 0.31984 0.37534 -0.06177
 O15 O 0.67926 0.63219 0.03386
 O16 O 0.62277 0.68035 -0.03803
 O17 O 0.67505 0.62864 -0.03785
 O18 O 0.62701 0.68412 0.03457
 O19 O 0.67356 0.72526 0.03027
 O20 O 0.72110 0.67028 -0.04246
 O21 O 0.66950 0.72130 -0.04289
 O22 O 0.72585 0.67333 0.02951
 Cu23 Cu 0.64620 0.65230 -0.00127
 Cu24 Cu 0.70201 0.70190 -0.00669
 C25 C 0.71260 0.64380 0.04293
 C26 C 0.63666 0.70904 -0.05273
 C27 C 0.70674 0.63980 -0.05193
 C28 C 0.64189 0.71427 0.04442
 O29 O 0.65580 0.38698 0.96526
 O30 O 0.60546 0.32940 1.03506
 O31 O 0.64349 0.38875 1.03889
 O32 O 0.61548 0.32610 0.96417
 O33 O 0.66691 0.29214 0.97559
 O34 O 0.70056 0.36221 1.04372
 O35 O 0.66065 0.30143 1.04754
 O36 O 0.70726 0.35175 0.97080
 Cu37 Cu 0.62502 0.36148 0.99954
 Cu38 Cu 0.68952 0.32401 1.01038
 C39 C 0.68973 0.37802 0.95516
 C40 C 0.62475 0.30594 1.05344
 C41 C 0.67662 0.38651 1.05403
 C42 C 0.63517 0.29756 0.95830
 O43 O 0.33137 0.62138 0.97115
 O44 O 0.38794 0.67354 1.04107
 O45 O 0.35193 0.61549 1.04422
 O46 O 0.38228 0.67778 0.97089
 O47 O 0.33180 0.71303 0.98163
 O48 O 0.29565 0.64330 1.05010
 O49 O 0.33469 0.70418 1.05454
 O50 O 0.28194 0.65851 0.97920
 Cu51 Cu 0.36735 0.64287 1.00428
 Cu52 Cu 0.30583 0.68301 1.01720
 C53 C 0.29699 0.63136 0.96319
 C54 C 0.37009 0.69725 1.06045
 C55 C 0.31926 0.61831 1.05996
 C56 C 0.36392 0.70701 0.96505
 O57 O 0.03434 0.34041 0.38775
 O58 O -0.03788 0.38926 0.32929
 O59 O -0.04384 0.35271 0.38823
 O60 O 0.03422 0.38868 0.33040
 O61 O 0.02964 0.34093 0.29303
 O62 O -0.04322 0.30023 0.35826
 O63 O -0.04586 0.33913 0.29595
 O64 O 0.03196 0.29444 0.34805
 Cu65 Cu -0.00171 0.37140 0.36377
 Cu66 Cu -0.00738 0.31375 0.32036
 C67 C 0.04644 0.30950 0.37667
 C68 C -0.05416 0.37208 0.30258
 C69 C -0.05717 0.32091 0.38357
 C70 C 0.04404 0.37202 0.30084
 O71 O -0.03903 0.61234 0.66375
 O72 O 0.04003 0.66162 0.61628
 O73 O 0.03650 0.61118 0.66845
 O74 O -0.03479 0.66662 0.61480
 O75 O -0.03428 0.70728 0.66037
 O76 O 0.03591 0.65295 0.71298
 O77 O 0.04062 0.70242 0.66179
 O78 O -0.03965 0.65420 0.70817
 Cu79 Cu 0.00051 0.63368 0.63636
 Cu80 Cu 0.00055 0.68317 0.69040
 C81 C -0.05283 0.62500 0.69400
 C82 C 0.05370 0.69036 0.63092
 C83 C 0.04856 0.62325 0.69983
 C84 C -0.04610 0.69681 0.62848
 O85 O 1.03992 0.61857 0.32382
 O86 O 0.96390 0.66724 0.37630
 O87 O 0.96492 0.61701 0.32525
 O88 O 1.03890 0.66991 0.37688
 O89 O 1.03740 0.71187 0.33238
 O90 O 0.96333 0.65992 0.28158
 O91 O 0.96221 0.70934 0.33180
 O92 O 1.03851 0.66143 0.28018
 Cu93 Cu 1.00256 0.63887 0.35506
 Cu94 Cu 1.00070 0.68990 0.30207
 C95 C 1.05126 0.63131 0.29249
 C96 C 0.94982 0.69630 0.36256
 C97 C 0.95120 0.62992 0.29490
 C98 C 1.04986 0.70049 0.36384
 O99 O 0.96297 0.32128 0.63264
 O100 O 1.03758 0.37354 0.68329
 O101 O 1.03717 0.32332 0.63075
 O102 O 0.96272 0.37499 0.68154
 O103 O 0.96243 0.33330 0.72643
 O104 O 1.03751 0.28182 0.67581
 O105 O 1.03762 0.33160 0.72794
 O106 O 0.96296 0.27988 0.67783
 Cu107 Cu 1.00004 0.35255 0.65262
 Cu108 Cu 1.00011 0.30261 0.70662
 C109 C 0.95122 0.29115 0.64616
 C110 C 1.04993 0.36145 0.71455
 C111 C 1.04928 0.29334 0.64409
 C112 C 0.95030 0.36323 0.71283
 O113 O 0.37472 0.03804 0.33134
 O114 O 0.32678 -0.03749 0.38027
 O115 O 0.37827 -0.03211 0.32638
 O116 O 0.32047 0.03330 0.38251
 O117 O 0.27438 0.03139 0.33950
 O118 O 0.33248 -0.03179 0.28300
 O119 O 0.28185 -0.03941 0.33609
 O120 O 0.32785 0.03852 0.28901
 Cu121 Cu 0.35458 0.00047 0.35960
 Cu122 Cu 0.29948 -0.00040 0.30765
 C123 C 0.35948 0.05103 0.30183
 C124 C 0.29645 -0.05150 0.36636
 C125 C 0.36516 -0.04266 0.29480
 C126 C 0.28752 0.04344 0.37034
 O127 O 0.62489 0.03365 0.66756
 O128 O 0.67041 -0.04257 0.61765
 O129 O 0.61865 -0.03652 0.67192
 O130 O 0.67591 0.02842 0.61384
 O131 O 0.72250 0.02650 0.65634
 O132 O 0.66552 -0.03681 0.71417
 O133 O 0.71628 -0.04459 0.66088
 O134 O 0.67248 0.03321 0.70914
 Cu135 Cu 0.64281 -0.00435 0.63833
 Cu136 Cu 0.69902 -0.00577 0.68919
 C137 C 0.64103 0.04637 0.69676
 C138 C 0.70108 -0.05658 0.63092
 C139 C 0.63222 -0.04702 0.70337
 C140 C 0.70878 0.03891 0.62581
 O141 O 0.37223 0.96260 0.67146
 O142 O 0.32781 1.03985 0.62251
 O143 O 0.37877 1.03253 0.67693
 O144 O 0.31900 0.96935 0.61986
 O145 O 0.27273 0.97217 0.66256
 O146 O 0.33269 1.03324 0.71994
 O147 O 0.28265 1.04275 0.66634
 O148 O 0.32528 0.96322 0.71364
 Cu149 Cu 0.35400 1.00100 0.64326
 Cu150 Cu 0.29862 1.00310 0.69481
 C151 C 0.35644 0.94985 0.70083
 C152 C 0.29783 1.05455 0.63619
 C153 C 0.36590 1.04309 0.70856
 C154 C 0.28571 0.95995 0.63178
 O155 O 0.62841 0.96670 0.32780
 O156 O 0.68165 1.04078 0.37389
 O157 O 0.62588 1.03705 0.32254
 O158 O 0.68320 0.97043 0.37785
 O159 O 0.72781 0.97021 0.33338
 O160 O 0.67007 1.03501 0.27780
 O161 O 0.72504 1.04059 0.32835
 O162 O 0.67367 0.96438 0.28400
 Cu163 Cu 0.65029 1.00422 0.35503
 Cu164 Cu 0.70347 1.00271 0.30130
 C165 C 0.64238 0.95266 0.29829
 C166 C 0.71288 1.05266 0.35952
 C167 C 0.63795 1.04661 0.29025
 C168 C 0.71527 0.95906 0.36489
 C169 C 0.88521 0.73905 0.49618
 C170 C 0.86793 0.75014 0.46230
 C171 C 0.83828 0.77624 0.46320
 C172 C 0.82813 0.79407 0.49671
 C173 C 0.84710 0.78331 0.53008
 C174 C 0.87474 0.75523 0.53029
 C175 C 0.79956 0.82499 0.49650
 C176 C 0.77996 0.83500 0.52955
 C177 C 0.75637 0.86602 0.53081
 C178 C 0.74931 0.88559 0.49756
 C179 C 0.76717 0.87556 0.46378
 C180 C 0.79301 0.84600 0.46380
 H181 H 0.90825 0.71927 0.49590
 H182 H 0.82389 0.78305 0.43718
 H183 H 0.84136 0.79720 0.55616
 H184 H 0.78338 0.81925 0.55501
 H185 H 0.73165 0.90978 0.49826
 H186 H 0.80846 0.84016 0.43817
 C187 C 0.11369 0.25935 0.50825
 C188 C 0.13021 0.25058 0.47335
 C189 C 0.16013 0.22456 0.47203
 C190 C 0.17162 0.20521 0.50435
 C191 C 0.15302 0.21343 0.53854
 C192 C 0.12518 0.24105 0.54108
 C193 C 0.20156 0.17552 0.50264
 C194 C 0.22195 0.16546 0.53528
 C195 C 0.24555 0.13454 0.53626
 C196 C 0.25273 0.11564 0.50279
 C197 C 0.23485 0.12621 0.46907
 C198 C 0.20846 0.15548 0.46947
 H199 H 0.09067 0.27909 0.50969
 H200 H 0.17388 0.21913 0.44539
 H201 H 0.15941 0.19797 0.56361
 H202 H 0.21879 0.18090 0.56086
 H203 H 0.27052 0.09153 0.50325
 H204 H 0.19286 0.16183 0.44398
 C205 C 0.11678 0.73924 0.49826
 C206 C 0.13378 0.74966 0.53254
 C207 C 0.16272 0.77663 0.53245
 C208 C 0.17253 0.79564 0.49945
 C209 C 0.15369 0.78568 0.46583
 C210 C 0.12683 0.75695 0.46464
 C211 C 0.20086 0.82677 0.50018
 C212 C 0.22027 0.83742 0.46718
 C213 C 0.24314 0.86891 0.46595
 C214 C 0.25014 0.88818 0.49924
 C215 C 0.23277 0.87738 0.53308
 C216 C 0.20733 0.84738 0.53308
 H217 H 0.09442 0.71871 0.49785
 H218 H 0.17692 0.78310 0.55864
 H219 H 0.15902 0.80067 0.44022
 H220 H 0.21715 0.82188 0.44164
 H221 H 0.26727 0.91278 0.49855
 H222 H 0.19219 0.84086 0.55878
 C223 C 0.88695 0.25818 0.50918
 C224 C 0.87959 0.23545 0.53992
 C225 C 0.85503 0.20543 0.53507
 C226 C 0.83494 0.19955 0.50099
 C227 C 0.84251 0.22354 0.47054
 C228 C 0.86906 0.25226 0.47456
 C229 C 0.80610 0.16887 0.49803
 C230 C 0.79603 0.15380 0.46303
 C231 C 0.76972 0.12466 0.46047
 C232 C 0.75483 0.10893 0.49352
 C233 C 0.76519 0.12264 0.52878
 C234 C 0.78917 0.15350 0.53056
 H235 H 0.90653 0.28102 0.51171
 H236 H 0.85173 0.18689 0.55841
 H237 H 0.82725 0.22105 0.44416
 H238 H 0.80890 0.16409 0.43747
 H239 H 0.73689 0.08486 0.49185
 H240 H 0.79464 0.16497 0.55793
 C241 C 0.49211 0.89028 0.74881
 C242 C 0.45712 0.87361 0.75976
 C243 C 0.45782 0.84578 0.78684
 C244 C 0.49221 0.83634 0.80553
 C245 C 0.52656 0.85485 0.79528
 C246 C 0.52714 0.88079 0.76617
 C247 C 0.49230 0.80796 0.83606
 C248 C 0.52680 0.78961 0.84501
 C249 C 0.52908 0.76567 0.87555
 C250 C 0.49517 0.75686 0.89530
 C251 C 0.45953 0.77290 0.88571
 C252 C 0.45864 0.79938 0.85704
 H253 H 0.49198 0.91179 0.72814
 H254 H 0.43103 0.83196 0.79343
 H255 H 0.55324 0.84971 0.81016
 H256 H 0.55268 0.79406 0.82863
 H257 H 0.49666 0.73857 0.91903
 H258 H 0.43161 0.81314 0.85157
 C259 C 0.49616 0.10871 0.24977
 C260 C 0.46075 0.12522 0.23999
 C261 C 0.46040 0.15273 0.21264
 C262 C 0.49383 0.16192 0.19242
 C263 C 0.52872 0.14401 0.20166
 C264 C 0.53053 0.11830 0.23102
 C265 C 0.49213 0.18988 0.16169
 C266 C 0.52537 0.21020 0.15245
 C267 C 0.52517 0.23546 0.12294
 C268 C 0.49031 0.24239 0.10402
 C269 C 0.45610 0.22385 0.11359
 C270 C 0.45753 0.19672 0.14145
 H271 H 0.49684 0.08752 0.27079
 H272 H 0.43347 0.16660 0.20693
 H273 H 0.55474 0.14959 0.18584
 H274 H 0.55186 0.20659 0.16818
 H275 H 0.48984 0.26154 0.08102
 H276 H 0.43150 0.18129 0.14716
 C277 C 0.50710 0.10595 0.74875
 C278 C 0.54233 0.12314 0.75770
 C279 C 0.54253 0.15192 0.78353
 C280 C 0.50873 0.16205 0.80276
 C281 C 0.47413 0.14301 0.79458
 C282 C 0.47270 0.11596 0.76680
 C283 C 0.50943 0.19191 0.83150
 C284 C 0.47512 0.21085 0.83992
 C285 C 0.47368 0.23644 0.86889
 C286 C 0.50798 0.24594 0.88736
 C287 C 0.54330 0.22945 0.87817
 C288 C 0.54363 0.20150 0.85121
 H289 H 0.50660 0.08362 0.72916
 H290 H 0.56948 0.16604 0.78865
 H291 H 0.44793 0.14871 0.80997
 H292 H 0.44889 0.20558 0.82434
 H293 H 0.50717 0.26547 0.90983
 H294 H 0.57055 0.18744 0.84607
 C295 C 0.50434 0.89149 0.25500
 C296 C 0.53923 0.87390 0.24603
 C297 C 0.53850 0.84398 0.22174
 C298 C 0.50444 0.83353 0.20307
 C299 C 0.46995 0.85241 0.21156
 C300 C 0.46937 0.88059 0.23828
 C301 C 0.50551 0.80420 0.17378
 C302 C 0.47193 0.78435 0.16471
 C303 C 0.47181 0.75883 0.13545
 C304 C 0.50672 0.75080 0.11710
 C305 C 0.54104 0.76916 0.12633
 C306 C 0.53986 0.79655 0.15375
 H307 H 0.50455 0.91473 0.27345
 H308 H 0.56522 0.82950 0.21691
 H309 H 0.44338 0.84591 0.19703
 H310 H 0.44535 0.78891 0.17993
 H311 H 0.50701 0.73127 0.09461
 H312 H 0.56591 0.81210 0.15879
 C313 C 0.73551 0.50608 0.88504
 C314 C 0.74339 0.47221 0.86844
 C315 C 0.76749 0.47087 0.83670
 C316 C 0.78731 0.50194 0.82369
 C317 C 0.77999 0.53527 0.84178
 C318 C 0.75350 0.53789 0.87153
 C319 C 0.81780 0.49922 0.79368
 C320 C 0.82955 0.53020 0.77330
 C321 C 0.86207 0.52954 0.74970
 C322 C 0.88054 0.49612 0.74286
 C323 C 0.86803 0.46416 0.76112
 C324 C 0.83761 0.46632 0.78720
 H325 H 0.71742 0.50743 0.90973
 H326 H 0.77159 0.44490 0.82315
 H327 H 0.79570 0.55951 0.83381
 H328 H 0.81435 0.55567 0.77646
 H329 H 0.90572 0.49524 0.72495
 H330 H 0.83040 0.44215 0.80305
 C331 C 0.25938 0.49085 0.10769
 C332 C 0.23546 0.46064 0.11342
 C333 C 0.20499 0.46323 0.13936
 C334 C 0.19980 0.49479 0.16145
 C335 C 0.22499 0.52472 0.15532
 C336 C 0.25413 0.52284 0.12806
 C337 C 0.16867 0.49607 0.19091
 C338 C 0.15293 0.52951 0.20259
 C339 C 0.12409 0.53115 0.23036
 C340 C 0.10936 0.49851 0.24542
 C341 C 0.12371 0.46462 0.23357
 C342 C 0.15402 0.46382 0.20732
 H343 H 0.28231 0.48999 0.08705
 H344 H 0.18559 0.44029 0.14216
 H345 H 0.22317 0.54909 0.17215
 H346 H 0.16259 0.55465 0.18982
 H347 H 0.08571 0.49944 0.26517
 H348 H 0.16605 0.43766 0.20004
 C349 C 0.74091 0.51069 0.10708
 C350 C 0.76556 0.53984 0.11520
 C351 C 0.79443 0.53510 0.14228
 C352 C 0.79664 0.50297 0.16410
 C353 C 0.77118 0.47392 0.15553
 C354 C 0.74381 0.47775 0.12660
 C355 C 0.82471 0.50113 0.19617
 C356 C 0.84076 0.46796 0.20849
 C357 C 0.86888 0.46722 0.23719
 C358 C 0.88231 0.50030 0.25224
 C359 C 0.86690 0.53361 0.24022
 C360 C 0.83684 0.53344 0.21387
 H361 H 0.71904 0.51325 0.08549
 H362 H 0.81461 0.55719 0.14667
 H363 H 0.77140 0.44902 0.17184
 H364 H 0.83214 0.44271 0.19536
 H365 H 0.90568 0.50028 0.27228
 H366 H 0.82362 0.55917 0.20667
 C367 C 0.26719 0.50435 0.88645
 C368 C 0.24371 0.53468 0.88005
 C369 C 0.21334 0.53186 0.85394
 C370 C 0.20749 0.49971 0.83288
 C371 C 0.23197 0.46963 0.83990
 C372 C 0.26123 0.47189 0.86696
 C373 C 0.17601 0.49771 0.80394
 C374 C 0.15844 0.46430 0.79494
 C375 C 0.12860 0.46217 0.76821
 C376 C 0.11481 0.49435 0.75142
 C377 C 0.13113 0.52821 0.76064
 C378 C 0.16251 0.52935 0.78576
 H379 H 0.29004 0.50532 0.90718
 H380 H 0.19427 0.55490 0.85036
 H381 H 0.22935 0.44474 0.82395
 H382 H 0.16734 0.43966 0.80915
 H383 H 0.09034 0.49321 0.73259
 H384 H 0.17603 0.55535 0.79128
 N385 N 0.21636 0.40078 0.08974
 N386 N 0.23046 0.37410 0.06890
 C387 C 0.26665 0.38404 0.05900
 C388 C 0.27429 0.41763 0.07425
 N389 N 0.24209 0.42736 0.09313
 H390 H 0.30065 0.43335 0.07142
 N391 N 0.78634 0.60134 0.09728
 N392 N 0.77289 0.63018 0.07897
 C393 C 0.73683 0.62150 0.06757
 C394 C 0.72873 0.58657 0.07901
 N395 N 0.76039 0.57470 0.09731
 H396 H 0.70236 0.57139 0.07405
 N397 N 0.75009 0.40744 0.88043
 N398 N 0.73722 0.38188 0.90349
 C399 C 0.70936 0.39725 0.92451
 C400 C 0.70540 0.43318 0.91359
 N401 N 0.73161 0.43855 0.88597
 H402 H 0.68654 0.45351 0.92565
 N403 N 0.22477 0.59494 0.90250
 N404 N 0.23811 0.62135 0.92425
 C405 C 0.27351 0.61096 0.93606
 C406 C 0.28145 0.57736 0.92100
 N407 N 0.25020 0.56808 0.90031
 H408 H 0.30725 0.56126 0.92538
 N409 N 0.12275 0.25113 0.40542
 N410 N 0.10073 0.26584 0.37907
 C411 C 0.07787 0.29037 0.39615
 C412 C 0.08660 0.29034 0.43398
 N413 N 0.11476 0.26517 0.43875
 H414 H 0.07224 0.30566 0.45577
 N415 N 0.12725 0.75136 0.60069
 N416 N 0.10615 0.73661 0.62780
 C417 C 0.08437 0.71058 0.61164
 C418 C 0.09278 0.70971 0.57384
 N419 N 0.11962 0.73582 0.56793
 H420 H 0.07898 0.69300 0.55275
 N421 N 0.87551 0.75518 0.39446
 N422 N 0.89727 0.74203 0.36711
 C423 C 0.91913 0.71561 0.38249
 C424 C 0.91005 0.71276 0.42002
 N425 N 0.88276 0.73817 0.42659
 H426 H 0.92352 0.69509 0.44054
 N427 N 0.89357 0.22114 0.60579
 N428 N 0.91155 0.23547 0.63515
 C429 C 0.92548 0.26800 0.62389
 C430 C 0.91587 0.27306 0.58680
 N431 N 0.89607 0.24313 0.57628
 H432 H 0.92347 0.29611 0.56932
 N433 N 0.39041 0.12068 0.23978
 N434 N 0.36234 0.10125 0.25529
 C435 C 0.37923 0.08008 0.28145
 C436 C 0.41841 0.08704 0.28160
 N437 N 0.42440 0.11249 0.25493
 H438 H 0.44030 0.07320 0.29799
 N439 N 0.61241 0.11587 0.75968
 N440 N 0.63980 0.09557 0.74440
 C441 C 0.62251 0.07589 0.71730
 C442 C 0.58388 0.08471 0.71628
 N443 N 0.57851 0.10963 0.74342
 H444 H 0.56177 0.07247 0.69885
 N445 N 0.38707 0.88069 0.76375
 N446 N 0.35911 0.90083 0.74904
 C447 C 0.37541 0.92027 0.72110
 C448 C 0.41401 0.91147 0.71900
 N449 N 0.42040 0.88681 0.74632
 H450 H 0.43548 0.92368 0.70077
 N451 N 0.60920 0.88025 0.24109
 N452 N 0.63760 0.90106 0.25383
 C453 C 0.62180 0.92295 0.27985
 C454 C 0.58297 0.91497 0.28285
 N455 N 0.57606 0.88820 0.25795
 H456 H 0.56181 0.92866 0.30012
 N457 N 0.40306 0.23836 0.86856
 N458 N 0.37420 0.25330 0.88743
 C459 C 0.39043 0.27593 0.91262
 C460 C 0.42993 0.27467 0.90858
 N461 N 0.43687 0.25070 0.88082
 H462 H 0.45114 0.28891 0.92539
 N463 N 0.59947 0.76902 0.87787
 N464 N 0.62901 0.75496 0.89661
 C465 C 0.61422 0.72898 0.91916
 C466 C 0.57473 0.72745 0.91375
 N467 N 0.56653 0.75308 0.88779
 H468 H 0.55414 0.71042 0.92850
 N469 N 0.40128 0.75479 0.13449
 N470 N 0.37321 0.73932 0.11481
 C471 C 0.39052 0.71733 0.08977
 C472 C 0.42990 0.71955 0.09472
 N473 N 0.43566 0.74344 0.12287
 H474 H 0.45183 0.70616 0.07813
 N475 N 0.59561 0.24156 0.12253
 N476 N 0.62319 0.25964 0.10454
 C477 C 0.60516 0.28303 0.08120
 C478 C 0.56584 0.27885 0.08540
 N479 N 0.56088 0.25251 0.11138
 H480 H 0.54341 0.29285 0.06988
 N481 N 0.24112 0.12890 0.60428
 N482 N 0.25378 0.10776 0.63184
 C483 C 0.27983 0.08507 0.61645
 C484 C 0.28291 0.09293 0.57873
 N485 N 0.25803 0.12040 0.57206
 H486 H 0.30004 0.07862 0.55812
 N487 N 0.78306 0.11170 0.39447
 N488 N 0.76843 0.09247 0.36638
 C489 C 0.73498 0.07794 0.37898
 C490 C 0.72945 0.08889 0.41554
 N491 N 0.76030 0.10961 0.42436
 H492 H 0.70611 0.08122 0.43424
 N493 N 0.76022 0.87097 0.59891
 N494 N 0.74663 0.89139 0.62648
 C495 C 0.71994 0.91353 0.61106
 C496 C 0.71745 0.90608 0.57326
 N497 N 0.74331 0.87943 0.56661
 H498 H 0.70002 0.92015 0.55259
 N499 N 0.23744 0.87551 0.39811
 N500 N 0.25037 0.89666 0.37065
 C501 C 0.27746 0.91843 0.38596
 C502 C 0.28093 0.91000 0.42348
 N503 N 0.25523 0.88316 0.43014
 H504 H 0.29904 0.92345 0.44402
 N505 N 0.11558 0.39805 0.78136
 N506 N 0.09530 0.37043 0.76781
 C507 C 0.07782 0.38265 0.73641
 C508 C 0.08779 0.41864 0.73116
 N509 N 0.11132 0.42737 0.75997
 H510 H 0.07814 0.43665 0.70896
 N511 N 0.11417 0.59654 0.22226
 N512 N 0.09564 0.62399 0.23816
 C513 C 0.07830 0.61055 0.26911
 C514 C 0.08656 0.57387 0.27159
 N515 N 0.10894 0.56605 0.24164
 H516 H 0.07629 0.55481 0.29258
 N517 N 0.87898 0.40140 0.23271
 N518 N 0.89884 0.37515 0.24953
 C519 C 0.91794 0.39077 0.27830
 C520 C 0.90928 0.42726 0.27864
 N521 N 0.88498 0.43303 0.24959
 H522 H 0.92036 0.44741 0.29795
 N523 N 0.86988 0.59535 0.75228
 N524 N 0.89230 0.62149 0.73869
 C525 C 0.91574 0.60578 0.71332
 C526 C 0.90699 0.56911 0.71169
 N527 N 0.87819 0.56358 0.73666
 H528 H 0.92143 0.54852 0.69519
 N529 N 0.77208 0.60035 0.88610
 N530 N 0.76026 0.62842 0.90624
 C531 C 0.72689 0.61821 0.92280
 C532 C 0.71858 0.58286 0.91224
 N533 N 0.74771 0.57260 0.88941
 H534 H 0.69418 0.56627 0.92078
 N535 N 0.32465 0.44656 0.87440
 N536 N 0.34149 0.42152 0.89543
 C537 C 0.31309 0.40039 0.90965
 C538 C 0.27806 0.41288 0.89598
 N539 N 0.28664 0.44207 0.87434
 H540 H 0.24934 0.40513 0.90526
 N541 N 0.31860 0.54669 0.12368
 N542 N 0.33728 0.57123 0.10341
 C543 C 0.31033 0.59304 0.08784
 C544 C 0.27425 0.58142 0.09985
 N545 N 0.28077 0.55213 0.12201
 H546 H 0.24628 0.58993 0.08929
 N547 N 0.67844 0.45672 0.11916
 N548 N 0.65931 0.43361 0.09762
 C549 C 0.68581 0.41145 0.08204
 C550 C 0.72199 0.42133 0.09535
 N551 N 0.71606 0.44991 0.11839
 H552 H 0.74990 0.41192 0.08558
 N553 N 0.89415 0.76616 0.59519
 N554 N 0.91526 0.75119 0.62214
 C555 C 0.92886 0.71947 0.60857
 C556 C 0.91534 0.71541 0.57229
 N557 N 0.89390 0.74533 0.56488
 H558 H 0.92107 0.69317 0.55323
 N559 N 0.87061 0.31344 0.45101
 N560 N 0.89236 0.33314 0.42815
 C561 C 0.91277 0.30966 0.40702
 C562 C 0.90222 0.27459 0.41732
 N563 N 0.87593 0.27822 0.44518
 H564 H 0.91616 0.24942 0.40927
 N565 N 0.10881 0.22645 0.60619
 N566 N 0.08885 0.23984 0.63473
 C567 C 0.07452 0.27206 0.62317
 C568 C 0.08628 0.27804 0.58660
 N569 N 0.10745 0.24875 0.57687
 H570 H 0.07932 0.30105 0.56879
 N571 N 0.10830 0.76955 0.39974
 N572 N 0.08801 0.75509 0.37197
 C573 C 0.07479 0.72269 0.38437
 C574 C 0.08766 0.71771 0.42083
 N575 N 0.10834 0.74779 0.42950
 H576 H 0.08179 0.69487 0.43925
 N577 N 0.59509 0.89639 0.77644
 N578 N 0.62361 0.91497 0.76055
 C579 C 0.60953 0.92911 0.72838
 C580 C 0.57118 0.91867 0.72511
 N581 N 0.56318 0.89826 0.75584
 H582 H 0.55133 0.92542 0.70265
 N583 N 0.40240 0.89765 0.22489
 N584 N 0.37412 0.91768 0.23903
 C585 C 0.38770 0.93244 0.27105
 C586 C 0.42539 0.92087 0.27607
 N587 N 0.43358 0.89921 0.24653
 H588 H 0.44468 0.92759 0.29899
 N589 N 0.59809 0.10303 0.21840
 N590 N 0.62726 0.08463 0.23332
 C591 C 0.61456 0.07073 0.26613
 C592 C 0.57637 0.08110 0.27078
 N593 N 0.56706 0.10122 0.24022
 H594 H 0.55741 0.07430 0.29395
 N595 N 0.40551 0.09954 0.78022
 N596 N 0.37653 0.08067 0.76557
 C597 C 0.38940 0.06670 0.73296
 C598 C 0.42740 0.07753 0.72810
 N599 N 0.43648 0.09799 0.75834
 H600 H 0.44627 0.07119 0.70478
 N601 N 0.60752 0.78281 0.10669
 N602 N 0.63524 0.76901 0.08530
 C603 C 0.62157 0.73731 0.07165
 C604 C 0.58464 0.73213 0.08522
 N605 N 0.57670 0.76123 0.10689
 H606 H 0.56551 0.70951 0.07932
 N607 N 0.39037 0.21061 0.08981
 N608 N 0.36308 0.22669 0.06922
 C609 C 0.37614 0.26051 0.06140
 C610 C 0.41203 0.26450 0.07763
 N611 N 0.42024 0.23285 0.09485
 H612 H 0.43072 0.28815 0.07613
 N613 N 0.60951 0.22041 0.90238
 N614 N 0.63513 0.23778 0.92376
 C615 C 0.61948 0.27041 0.93205
 C616 C 0.58381 0.27247 0.91516
 N617 N 0.57826 0.24074 0.89715
 H618 H 0.56355 0.29485 0.91677
 N619 N 0.39286 0.78284 0.90808
 N620 N 0.36627 0.76616 0.92900
 C621 C 0.38174 0.73411 0.93979
 C622 C 0.41850 0.73180 0.92501
 N623 N 0.42462 0.76273 0.90555
 H624 H 0.43877 0.70960 0.92838
 N625 N 0.78425 0.89556 0.40033
 N626 N 0.77143 0.91749 0.37348
 C627 C 0.73858 0.93274 0.38634
 C628 C 0.73164 0.91948 0.42202
 N629 N 0.76092 0.89635 0.42984
 H630 H 0.70749 0.92589 0.44015
 N631 N 0.21499 0.89825 0.59591
 N632 N 0.22800 0.92018 0.62260
 C633 C 0.26165 0.93441 0.61015
 C634 C 0.26891 0.92049 0.57492
 N635 N 0.23902 0.89807 0.56693
 H636 H 0.29369 0.92594 0.55717
 N637 N 0.21768 0.10605 0.40575
 N638 N 0.23064 0.08416 0.37906
 C639 C 0.26396 0.06953 0.39175
 C640 C 0.27106 0.08320 0.42715
 N641 N 0.24139 0.10587 0.43501
 H642 H 0.29551 0.07726 0.44516
 N643 N 0.77523 0.10662 0.59441
 N644 N 0.76165 0.08429 0.62051
 C645 C 0.73150 0.06638 0.60520
 C646 C 0.72689 0.07856 0.56865
 N647 N 0.75493 0.10374 0.56298
 H648 H 0.70563 0.06966 0.54831
 N649 N 0.87731 0.59888 0.23347
 N650 N 0.89964 0.62515 0.24678
 C651 C 0.92096 0.61026 0.27448
 C652 C 0.91096 0.57404 0.27791
 N653 N 0.88361 0.56786 0.25159
 H654 H 0.92349 0.55419 0.29680
 N655 N 0.88412 0.40147 0.77826
 N656 N 0.90534 0.37386 0.76625
 C657 C 0.92242 0.38498 0.73422
 C658 C 0.91119 0.42037 0.72703
 N659 N 0.88731 0.42980 0.75529
 H660 H 0.91987 0.43745 0.70368
 N661 N 0.12046 0.59352 0.76431
 N662 N 0.09869 0.61931 0.74927
 C663 C 0.07789 0.60358 0.72173
 C664 C 0.08762 0.56713 0.72028
 N665 N 0.11431 0.56188 0.74755
 H666 H 0.07555 0.54655 0.70200
 N667 N 0.10892 0.39959 0.22813
 N668 N 0.08785 0.37405 0.24492
 C669 C 0.07152 0.38979 0.27511
 C670 C 0.08319 0.42573 0.27628
 N671 N 0.10647 0.43093 0.24640
 H672 H 0.07484 0.44607 0.29662
   
