data_POSCAR
  _audit_creation_date              2014-09-24
  _audit_creation_method            'ToBaCCo'
  _symmetry_space_group_name_H-M    'P1'
  _symmetry_Int_Tables_number       1
  _symmetry_cell_setting            triclinic
  loop_
  _symmetry_equiv_pos_as_xyz
 x,y,z
_cell_length_a 48.0545
_cell_length_b 10.6127
_cell_length_c 21.4154
_cell_angle_alpha 90.588800
_cell_angle_beta 89.847800
_cell_angle_gamma 87.289000
loop_
  _atom_site_label
  _atom_site_type_symbol
  _atom_site_fract_x
  _atom_site_fract_y
  _atom_site_fract_z
C1 C 0.67799 0.15185 0.49752
 C2 C 0.69141 0.16365 0.55534
 C3 C 0.71972 0.19218 0.55580
 C4 C 0.73387 0.22290 0.50025
 C5 C 0.71869 0.22072 0.44368
 C6 C 0.69126 0.18134 0.44166
 C7 C 0.76383 0.26089 0.50121
 C8 C 0.77963 0.26429 0.44532
 C9 C 0.80687 0.30741 0.44471
 C10 C 0.81913 0.33929 0.50174
 C11 C 0.80518 0.32481 0.55850
 C12 C 0.77725 0.29208 0.55775
 H13 H 0.65648 0.12594 0.49600
 H14 H 0.73025 0.19107 0.60011
 H15 H 0.72767 0.25128 0.40059
 H16 H 0.77117 0.23205 0.40177
 H17 H 0.84044 0.36810 0.50244
 H18 H 0.76657 0.29086 0.60198
 C19 C 0.17908 0.65553 0.49892
 C20 C 0.19174 0.68487 0.55593
 C21 C 0.21915 0.72615 0.55495
 C22 C 0.23468 0.73010 0.49874
 C23 C 0.22105 0.69938 0.44244
 C24 C 0.19298 0.66893 0.44195
 C25 C 0.26451 0.76958 0.49893
 C26 C 0.27785 0.80538 0.44323
 C27 C 0.30576 0.83813 0.44309
 C28 C 0.31977 0.84808 0.49999
 C29 C 0.30755 0.81210 0.55626
 C30 C 0.28027 0.76929 0.55480
 H31 H 0.15764 0.62836 0.49848
 H32 H 0.22799 0.75689 0.59840
 H33 H 0.23175 0.69969 0.39820
 H34 H 0.26708 0.80763 0.39919
 H35 H 0.34109 0.87680 0.49976
 H36 H 0.27175 0.73408 0.59748
 C37 C 0.32217 0.19591 -0.50034
 C38 C 0.30835 0.20452 -0.55763
 C39 C 0.27926 0.22477 -0.55801
 C40 C 0.26396 0.24677 -0.50178
 C41 C 0.27921 0.24716 -0.44510
 C42 C 0.30795 0.21760 -0.44400
 C43 C 0.23262 0.27118 -0.50202
 C44 C 0.21688 0.26798 -0.44591
 C45 C 0.18802 0.29776 -0.44479
 C46 C 0.17443 0.32250 -0.50156
 C47 C 0.18880 0.31560 -0.55851
 C48 C 0.21786 0.29563 -0.55821
 H49 H 0.34454 0.17836 -0.49955
 H50 H 0.26913 0.22282 -0.60276
 H51 H 0.26926 0.27086 -0.40112
 H52 H 0.22668 0.24152 -0.40252
 H53 H 0.15209 0.34119 -0.50191
 H54 H 0.22842 0.29949 -0.60249
 C55 C -0.17598 0.67730 -0.49976
 C56 C -0.18948 0.70453 -0.55636
 C57 C -0.21819 0.73788 -0.55502
 C58 C -0.23385 0.73591 -0.49873
 C59 C -0.21911 0.71003 -0.44264
 C60 C -0.19015 0.68659 -0.44268
 C61 C -0.26512 0.76201 -0.49865
 C62 C -0.28009 0.78738 -0.44234
 C63 C -0.30919 0.80643 -0.44201
 C64 C -0.32340 0.81064 -0.49895
 C65 C -0.30945 0.78691 -0.55559
 C66 C -0.28061 0.75880 -0.55492
 H67 H -0.15373 0.65582 -0.49959
 H68 H -0.22797 0.76571 -0.59827
 H69 H -0.22961 0.70739 -0.39823
 H70 H -0.26965 0.79290 -0.39803
 H71 H -0.34580 0.82724 -0.49904
 H72 H -0.27073 0.73335 -0.59878
 O73 O -0.03685 0.79098 0.11679
 O74 O -0.06875 0.90312 0.05711
 C75 C -0.06218 0.82685 0.10226
 O76 O 0.03780 1.22505 0.10942
 O77 O 0.06974 1.10308 0.05288
 C78 C 0.06316 1.18795 0.09510
 O79 O -0.03949 1.21743 0.11638
 O80 O -0.07002 1.10907 0.05626
 C81 C -0.06440 1.18574 0.10160
 O82 O 0.04069 0.77248 0.11069
 O83 O 0.07109 0.88643 0.05364
 C84 C 0.06558 0.80481 0.09619
 Zr85 Zr 0.00152 0.84255 0.07853
 O86 O 0.00385 0.83609 0.17715
 O87 O 0.00158 0.64409 0.07106
 Zr88 Zr -0.00061 1.16277 0.07597
 O89 O 0.00079 1.19134 0.17365
 O90 O -0.00496 1.36061 0.06443
 O91 O -0.02404 1.00505 0.09012
 O92 O 0.02439 1.00120 0.08918
 O93 O 0.04091 0.76415 -0.10991
 O94 O 0.07115 0.88371 -0.05459
 C95 C 0.06575 0.79887 -0.09637
 O96 O -0.03967 1.21163 -0.11727
 O97 O -0.07010 1.10484 -0.05693
 C98 C -0.06455 1.18034 -0.10209
 O99 O 0.03786 1.21583 -0.11295
 O100 O 0.06979 1.09765 -0.05596
 C101 C 0.06321 1.17949 -0.09875
 O102 O -0.03665 0.78229 -0.11544
 O103 O -0.06867 0.89794 -0.05606
 C104 C -0.06201 0.81863 -0.10078
 Zr105 Zr 0.00159 0.83431 -0.07686
 O106 O 0.00420 0.81151 -0.17491
 O107 O 0.00026 0.63655 -0.06717
 Zr108 Zr -0.00059 1.15429 -0.07951
 O109 O 0.00205 1.16012 -0.17809
 O110 O -0.00489 1.35343 -0.07527
 Zr111 Zr -0.04147 1.00163 -0.00019
 Zr112 Zr 0.04238 0.99544 -0.00062
 O113 O 0.02439 0.99193 -0.09028
 O114 O -0.02406 0.99555 -0.09081
 O115 O 0.02710 0.81251 0.00090
 O116 O -0.02560 1.18297 -0.00165
 O117 O -0.02316 0.81770 0.00113
 O118 O 0.02464 1.18114 -0.00207
 H119 H 0.03631 1.00111 0.12683
 H120 H -0.03919 1.25623 -0.00179
 H121 H 0.03619 0.98922 -0.12831
 H122 H -0.03567 0.74608 0.00159
 H123 H 0.01353 1.39059 0.05289
 H124 H 0.01257 1.38382 -0.05749
 H125 H -0.01057 1.09718 -0.19486
 H126 H -0.00528 0.88699 -0.19323
 H127 H 0.01783 0.60699 -0.04688
 H128 H 0.00163 0.61264 0.11446
 H129 H -0.00937 0.90252 0.19378
 H130 H 0.00122 1.10679 0.19255
 O131 O 0.46293 0.29253 0.11450
 O132 O 0.43112 0.40900 0.05652
 C133 C 0.43764 0.33038 0.10075
 O134 O 0.53892 0.72265 0.11029
 O135 O 0.57020 0.59859 0.05279
 C136 C 0.56409 0.68264 0.09576
 O137 O 0.46133 0.72299 0.11712
 O138 O 0.43039 0.61621 0.05742
 C139 C 0.43630 0.69287 0.10252
 O140 O 0.54045 0.26876 0.10664
 O141 O 0.57088 0.38472 0.05078
 C142 C 0.56535 0.30158 0.09248
 Zr143 Zr 0.50128 0.34182 0.07543
 O144 O 0.50403 0.32450 0.17356
 O145 O 0.50065 0.14450 0.06387
 Zr146 Zr 0.50018 0.66167 0.07811
 O147 O 0.50286 0.67305 0.17663
 O148 O 0.49828 0.85978 0.07074
 O149 O 0.47618 0.50516 0.09003
 O150 O 0.52468 0.49808 0.08814
 O151 O 0.53968 0.27122 -0.11377
 O152 O 0.57063 0.38570 -0.05770
 C153 C 0.56473 0.30274 -0.10005
 O154 O 0.46080 0.71976 -0.11647
 O155 O 0.43009 0.61538 -0.05572
 C156 C 0.43583 0.68975 -0.10122
 O157 O 0.53822 0.72379 -0.11098
 O158 O 0.56993 0.60047 -0.05600
 C159 C 0.56351 0.68512 -0.09754
 O160 O 0.46202 0.29324 -0.11723
 O161 O 0.43074 0.41021 -0.05654
 C162 C 0.43687 0.33188 -0.10195
 Zr163 Zr 0.50071 0.34375 -0.08013
 O164 O 0.50298 0.33536 -0.17883
 O165 O 0.49878 0.14533 -0.07639
 Zr166 Zr 0.49966 0.66407 -0.07722
 O167 O 0.50113 0.68785 -0.17497
 O168 O 0.49615 0.86249 -0.06609
 Zr169 Zr 0.45851 0.50877 -0.00003
 Zr170 Zr 0.54232 0.49656 -0.00202
 O171 O 0.52405 0.50050 -0.09133
 O172 O 0.47566 0.50751 -0.09088
 O173 O 0.52643 0.31480 -0.00308
 O174 O 0.47494 0.68907 0.00112
 O175 O 0.47624 0.32370 -0.00184
 O176 O 0.52525 0.68329 0.00009
 H177 H 0.53660 0.49580 0.12581
 H178 H 0.46161 0.76331 0.00166
 H179 H 0.53586 0.49891 -0.12933
 H180 H 0.46353 0.25281 -0.00198
 H181 H 0.49780 0.89184 0.11434
 H182 H 0.51383 0.88902 -0.04763
 H183 H 0.49970 0.60312 -0.19381
 H184 H 0.48925 0.39920 -0.19502
 H185 H 0.51550 0.11319 -0.05364
 H186 H 0.50096 0.11070 0.10678
 H187 H 0.49352 0.39812 0.19195
 H188 H 0.49081 0.60872 0.19371
 C189 C 0.35793 0.21232 0.28078
 N190 N 0.36861 0.17085 0.33570
 N191 N 0.35257 0.16533 0.38609
 C192 C 0.32505 0.19989 0.38385
 N193 N 0.31420 0.24055 0.32855
 N194 N 0.33037 0.24714 0.27794
 C195 C 0.37694 0.22894 0.22801
 N196 N 0.36976 0.30475 0.17930
 N197 N 0.38873 0.33286 0.13657
 C198 C 0.41545 0.28569 0.14104
 N199 N 0.42230 0.20749 0.18884
 N200 N 0.40345 0.17987 0.23147
 C201 C -0.14167 0.71147 0.28315
 N202 N -0.16883 0.75335 0.28201
 N203 N -0.18466 0.74827 0.33323
 C204 C -0.17380 0.70317 0.38776
 N205 N -0.14671 0.66025 0.38798
 N206 N -0.13105 0.66398 0.33693
 C207 C -0.12282 0.72723 0.22998
 N208 N -0.09650 0.67564 0.23258
 N209 N -0.07768 0.70266 0.18976
 C210 C -0.08440 0.78254 0.14255
 N211 N -0.11096 0.83210 0.13888
 N212 N -0.12988 0.80479 0.18186
 C213 C 0.64292 0.78360 0.28007
 N214 N 0.63248 0.83612 0.33362
 N215 N 0.64782 0.83812 0.38512
 C216 C 0.67432 0.78793 0.38545
 N217 N 0.68494 0.73611 0.33155
 N218 N 0.66947 0.73331 0.27987
 C219 C 0.62451 0.77253 0.22579
 N220 N 0.63126 0.69314 0.17733
 N221 N 0.61257 0.67029 0.13310
 C222 C 0.58658 0.72667 0.13561
 N223 N 0.58024 0.80874 0.18308
 N224 N 0.59882 0.83124 0.22722
 C225 C 0.14122 1.31135 0.27722
 N226 N 0.12971 1.34948 0.33245
 N227 N 0.14509 1.35386 0.38381
 C228 C 0.17274 1.32145 0.38228
 N229 N 0.18439 1.28399 0.32670
 N230 N 0.16889 1.27847 0.27512
 C231 C 0.12293 1.29566 0.22312
 N232 N 0.13051 1.21832 0.17438
 N233 N 0.11194 1.18936 0.13085
 C234 C 0.08524 1.23752 0.13439
 N235 N 0.07805 1.31770 0.18207
 N236 N 0.09648 1.34594 0.22557
 C237 C 0.64411 0.16483 -0.28342
 N238 N 0.67161 0.18843 -0.28056
 N239 N 0.68727 0.18333 -0.33221
 C240 C 0.67598 0.15597 -0.38877
 N241 N 0.64850 0.13174 -0.39088
 N242 N 0.63296 0.13570 -0.33944
 C243 C 0.62559 0.18256 -0.22912
 N244 N 0.63255 0.25547 -0.17954
 N245 N 0.61365 0.28823 -0.13577
 C246 C 0.58724 0.24838 -0.13993
 N247 N 0.58067 0.17235 -0.18846
 N248 N 0.59943 0.14041 -0.23222
 C249 C 0.14549 0.67835 -0.28128
 N250 N 0.17159 0.72205 -0.28059
 N251 N 0.18688 0.72135 -0.33272
 C252 C 0.17652 0.67886 -0.38778
 N253 N 0.15050 0.63400 -0.38774
 N254 N 0.13535 0.63366 -0.33573
 C255 C 0.12704 0.69163 -0.22660
 N256 N 0.13321 0.76808 -0.17778
 N257 N 0.11428 0.79602 -0.13345
 C258 C 0.08860 0.74780 -0.13620
 N259 N 0.08286 0.66821 -0.18393
 N260 N 0.10169 0.64073 -0.22824
 C261 C 0.35527 0.80607 -0.28354
 N262 N 0.36484 0.85518 -0.33714
 N263 N 0.34919 0.85862 -0.38818
 C264 C 0.32321 0.81336 -0.38811
 N265 N 0.31343 0.76599 -0.33385
 N266 N 0.32922 0.76163 -0.28264
 C267 C 0.37421 0.79101 -0.23022
 N268 N 0.36817 0.71634 -0.18132
 N269 N 0.38730 0.68929 -0.13782
 C270 C 0.41308 0.73626 -0.14169
 N271 N 0.41876 0.81346 -0.18968
 N272 N 0.39970 0.84034 -0.23303
 C273 C -0.14636 1.31693 -0.27882
 N274 N -0.13661 1.36432 -0.33264
 N275 N -0.15251 1.37131 -0.38322
 C276 C -0.17897 1.33221 -0.38226
 N277 N -0.18894 1.28600 -0.32796
 N278 N -0.17290 1.27815 -0.27717
 C279 C -0.12704 1.29611 -0.22658
 N280 N -0.13297 1.21851 -0.17875
 N281 N -0.11349 1.18587 -0.13684
 C282 C -0.08744 1.22983 -0.14139
 N283 N -0.08185 1.30977 -0.18828
 N284 N -0.10124 1.34214 -0.23003
 C285 C 0.64252 0.80563 -0.27824
 N286 N 0.63153 0.84745 -0.33284
 N287 N 0.64717 0.85109 -0.38398
 C288 C 0.67458 0.81411 -0.38283
 N289 N 0.68575 0.77338 -0.32784
 N290 N 0.66998 0.76869 -0.27652
 C291 C 0.62388 0.78994 -0.22466
 N292 N 0.63116 0.71250 -0.17664
 N293 N 0.61238 0.68418 -0.13352
 C294 C 0.58575 0.73302 -0.13678
 N295 N 0.57883 0.81311 -0.18379
 N296 N 0.59748 0.84078 -0.22686
 C297 C 0.14112 1.29310 -0.28278
 N298 N 0.16854 1.25544 -0.28189
 N299 N 0.18397 1.25924 -0.33376
 C300 C 0.17247 1.29872 -0.38871
 N301 N 0.14508 1.33680 -0.38883
 N302 N 0.12979 1.33438 -0.33712
 C303 C 0.12289 1.27964 -0.22832
 N304 N 0.09663 1.33213 -0.22961
 N305 N 0.07824 1.30621 -0.18566
 C306 C 0.08531 1.22648 -0.13860
 N307 N 0.11185 1.17626 -0.13619
 N308 N 0.13036 1.20273 -0.18021
 C309 C 0.35602 0.22169 -0.28076
 N310 N 0.36503 0.15647 -0.33223
 N311 N 0.34934 0.15293 -0.38316
 C312 C 0.32393 0.21425 -0.38489
 N313 N 0.31460 0.27776 -0.33286
 N314 N 0.33042 0.28194 -0.28178
 C315 C 0.37521 0.23699 -0.22827
 N316 N 0.36908 0.31993 -0.18091
 N317 N 0.38828 0.34557 -0.13831
 C318 C 0.41424 0.28915 -0.14164
 N319 N 0.42006 0.20414 -0.18812
 N320 N 0.40091 0.17846 -0.23052
 C321 C -0.14140 0.69365 -0.28033
 N322 N -0.13054 0.65061 -0.33536
 N323 N -0.14636 0.64483 -0.38596
 C324 C -0.17383 0.68065 -0.38385
 N325 N -0.18486 0.72278 -0.32841
 N326 N -0.16891 0.72963 -0.27759
 C327 C -0.12254 0.71148 -0.22746
 N328 N -0.12980 0.78899 -0.17858
 N329 N -0.11090 0.81875 -0.13595
 C330 C -0.08415 0.77165 -0.14071
 N331 N -0.07722 0.69170 -0.18864
 N332 N -0.09601 0.66238 -0.23116
 C333 C 0.35442 0.83636 0.28026
 N334 N 0.32790 0.79751 0.27802
 N335 N 0.31176 0.80407 0.32891
 C336 C 0.32160 0.84906 0.38393
 N337 N 0.34800 0.88884 0.38545
 N338 N 0.36402 0.88303 0.33476
 C339 C 0.37390 0.81474 0.22793
 N340 N 0.39994 0.85800 0.23217
 N341 N 0.41937 0.82386 0.19020
 C342 C 0.41355 0.74482 0.14233
 N343 N 0.38728 0.70375 0.13703
 N344 N 0.36777 0.73816 0.17913
 C345 C -0.14546 1.30829 0.28401
 N346 N -0.17139 1.26276 0.28269
 N347 N -0.18721 1.26560 0.33405
 C348 C -0.17755 1.31228 0.38892
 N349 N -0.15175 1.35944 0.38940
 N350 N -0.13608 1.35759 0.33816
 C351 C -0.12637 1.29232 0.23066
 N352 N -0.10082 1.34102 0.23382
 N353 N -0.08162 1.31227 0.19050
 C354 C -0.08720 1.23366 0.14228
 N355 N -0.11303 1.18735 0.13806
 N356 N -0.13230 1.21630 0.18150
 C357 C 0.64489 0.18152 0.27558
 N358 N 0.63534 0.12736 0.32798
 N359 N 0.65036 0.12550 0.38004
 C360 C 0.67559 0.17771 0.38204
 N361 N 0.68533 0.23079 0.32922
 N362 N 0.67021 0.23326 0.27703
 C363 C 0.62652 0.19541 0.22119
 N364 N 0.63253 0.27379 0.17377
 N365 N 0.61367 0.30120 0.12975
 C366 C 0.58822 0.25068 0.13146
 N367 N 0.58263 0.16929 0.17778
 N368 N 0.60141 0.14210 0.22172
 C369 C 0.14546 0.67352 0.27756
 N370 N 0.13470 0.63504 0.33229
 N371 N 0.15015 0.62981 0.38364
 C372 C 0.17714 0.66184 0.38258
 N373 N 0.18804 0.69970 0.32749
 N374 N 0.17247 0.70586 0.27594
 C375 C 0.12689 0.69100 0.22366
 N376 N 0.13339 0.76650 0.17537
 N377 N 0.11441 0.79729 0.13201
 C378 C 0.08836 0.75291 0.13528
 N379 N 0.08227 0.67455 0.18252
 N380 N 0.10112 0.64441 0.22583
   
