data_POSCAR
  _audit_creation_date              2014-09-24
  _audit_creation_method            'ToBaCCo'
  _symmetry_space_group_name_H-M    'P1'
  _symmetry_Int_Tables_number       1
  _symmetry_cell_setting            triclinic
  loop_
  _symmetry_equiv_pos_as_xyz
 x,y,z
_cell_length_a 24.9300
_cell_length_b 24.9314
_cell_length_c 24.9248
_cell_angle_alpha 90.066600
_cell_angle_beta 90.080600
_cell_angle_gamma 90.019000
loop_
  _atom_site_label
  _atom_site_type_symbol
  _atom_site_fract_x
  _atom_site_fract_y
  _atom_site_fract_z
Zn1 Zn 0.79132 0.70925 0.79412
 Zn2 Zn 0.79174 0.79140 0.70746
 Zn3 Zn 0.70678 0.70689 0.70941
 Zn4 Zn 0.70733 0.79439 0.79210
 O5 O 0.74920 0.75049 0.75074
 O6 O 0.86142 0.72075 0.78422
 O7 O 0.77965 0.77979 0.63776
 O8 O 0.71827 0.63685 0.72142
 O9 O 0.86184 0.77987 0.71810
 O10 O 0.78145 0.63910 0.78376
 O11 O 0.71729 0.71660 0.63884
 O12 O 0.63722 0.78404 0.78042
 O13 O 0.78198 0.86166 0.71742
 O14 O 0.63667 0.71816 0.72071
 O15 O 0.71939 0.86425 0.78016
 O16 O 0.71758 0.78442 0.86269
 O17 O 0.77909 0.72047 0.86374
 C18 C 0.88657 0.75043 0.75147
 C19 C 0.74831 0.74791 0.61336
 C20 C 0.75041 0.61303 0.75295
 C21 C 0.61202 0.75145 0.75037
 C22 C 0.75126 0.88789 0.74834
 C23 C 0.74813 0.75260 0.88815
 Zn24 Zn 0.20682 0.70721 0.70714
 Zn25 Zn 0.20664 0.79286 0.79124
 Zn26 Zn 0.29128 0.70820 0.79216
 Zn27 Zn 0.29195 0.79157 0.70693
 O28 O 0.24911 0.74999 0.74935
 O29 O 0.13681 0.71860 0.71757
 O30 O 0.21698 0.78197 0.86151
 O31 O 0.27987 0.63835 0.78192
 O32 O 0.13651 0.78183 0.77996
 O33 O 0.21766 0.63686 0.71854
 O34 O 0.28050 0.72000 0.86212
 O35 O 0.36210 0.78066 0.71827
 O36 O 0.21816 0.86311 0.78003
 O37 O 0.36143 0.71810 0.78106
 O38 O 0.28120 0.86156 0.71760
 O39 O 0.28103 0.78022 0.63677
 O40 O 0.21758 0.71812 0.63707
 C41 C 0.11173 0.75036 0.74845
 C42 C 0.24850 0.75096 0.88676
 C43 C 0.24893 0.61265 0.75065
 C44 C 0.38674 0.74901 0.74961
 C45 C 0.25007 0.88729 0.74858
 C46 C 0.24901 0.74927 0.61198
 Zn47 Zn 0.70887 0.20733 0.79112
 Zn48 Zn 0.79249 0.20893 0.70563
 Zn49 Zn 0.70829 0.29402 0.70808
 Zn50 Zn 0.79397 0.29150 0.79197
 O51 O 0.75084 0.25047 0.74919
 O52 O 0.72067 0.13723 0.77993
 O53 O 0.77969 0.22006 0.63603
 O54 O 0.63815 0.28296 0.71955
 O55 O 0.78240 0.13888 0.71627
 O56 O 0.63890 0.21752 0.77951
 O57 O 0.71843 0.28427 0.63745
 O58 O 0.78364 0.36178 0.78221
 O59 O 0.86281 0.22016 0.71508
 O60 O 0.71985 0.36391 0.72042
 O61 O 0.86390 0.28000 0.78066
 O62 O 0.78305 0.27995 0.86182
 O63 O 0.71892 0.21858 0.86152
 C64 C 0.75200 0.11311 0.74786
 C65 C 0.74874 0.25237 0.61181
 C66 C 0.61361 0.24985 0.74942
 C67 C 0.75206 0.38778 0.75190
 C68 C 0.88830 0.25012 0.74746
 C69 C 0.75092 0.24931 0.88663
 Zn70 Zn 0.29380 0.20823 0.70862
 Zn71 Zn 0.20882 0.20729 0.79306
 Zn72 Zn 0.29299 0.29243 0.79306
 Zn73 Zn 0.20825 0.29210 0.70815
 O74 O 0.25088 0.25001 0.75071
 O75 O 0.28276 0.13829 0.71902
 O76 O 0.21995 0.21825 0.86327
 O77 O 0.36315 0.28304 0.78161
 O78 O 0.21984 0.13696 0.78155
 O79 O 0.36384 0.21919 0.72001
 O80 O 0.28290 0.28084 0.86312
 O81 O 0.21860 0.36261 0.71928
 O82 O 0.13868 0.21843 0.78243
 O83 O 0.28092 0.36209 0.78258
 O84 O 0.13821 0.28037 0.71888
 O85 O 0.21941 0.28095 0.63803
 O86 O 0.28345 0.21951 0.63857
 C87 C 0.25144 0.11267 0.74984
 C88 C 0.25175 0.24936 0.88814
 C89 C 0.38845 0.25158 0.75065
 C90 C 0.24973 0.38730 0.75125
 C91 C 0.11351 0.24943 0.75084
 C92 C 0.25177 0.25034 0.61337
 Zn93 Zn 0.70768 0.70659 0.20923
 Zn94 Zn 0.79308 0.79060 0.20744
 Zn95 Zn 0.70864 0.79388 0.29197
 Zn96 Zn 0.79218 0.70823 0.29406
 O97 O 0.75034 0.74982 0.25067
 O98 O 0.71807 0.71647 0.13875
 O99 O 0.78347 0.86093 0.21718
 O100 O 0.63850 0.78376 0.28047
 O101 O 0.78096 0.77912 0.13772
 O102 O 0.63769 0.71805 0.22060
 O103 O 0.72075 0.86364 0.27978
 O104 O 0.77986 0.71952 0.36379
 O105 O 0.86312 0.77879 0.21823
 O106 O 0.71890 0.78399 0.36251
 O107 O 0.86244 0.71945 0.28419
 O108 O 0.78175 0.63808 0.28352
 O109 O 0.71871 0.63651 0.22100
 C110 C 0.74928 0.74759 0.11330
 C111 C 0.75260 0.88722 0.24789
 C112 C 0.61318 0.75130 0.25040
 C113 C 0.74912 0.75197 0.38810
 C114 C 0.88773 0.74917 0.25154
 C115 C 0.75053 0.61234 0.25255
 Zn116 Zn 0.29324 0.79174 0.20748
 Zn117 Zn 0.20824 0.70726 0.20659
 Zn118 Zn 0.29263 0.70758 0.29168
 Zn119 Zn 0.20786 0.79211 0.29170
 O120 O 0.25039 0.74970 0.24935
 O121 O 0.28307 0.78048 0.13732
 O122 O 0.21872 0.63680 0.21787
 O123 O 0.36272 0.71730 0.28042
 O124 O 0.21961 0.71839 0.13652
 O125 O 0.36338 0.78123 0.21906
 O126 O 0.28082 0.63785 0.28137
 O127 O 0.21897 0.78126 0.36197
 O128 O 0.13816 0.71868 0.21693
 O129 O 0.28250 0.71931 0.36163
 O130 O 0.13771 0.78056 0.28070
 O131 O 0.21865 0.86252 0.28048
 O132 O 0.28183 0.86157 0.21818
 C133 C 0.25169 0.74935 0.11198
 C134 C 0.24974 0.61237 0.25007
 C135 C 0.38801 0.74893 0.24970
 C136 C 0.25115 0.75053 0.38674
 C137 C 0.11300 0.74966 0.24854
 C138 C 0.25033 0.88700 0.24902
 Zn139 Zn 0.70564 0.29289 0.20813
 Zn140 Zn 0.79107 0.20901 0.20561
 Zn141 Zn 0.79100 0.29103 0.29242
 Zn142 Zn 0.70714 0.20564 0.29066
 O143 O 0.74862 0.24967 0.24919
 O144 O 0.71500 0.28239 0.13743
 O145 O 0.86098 0.22073 0.21589
 O146 O 0.78064 0.36104 0.28213
 O147 O 0.77906 0.22096 0.13609
 O148 O 0.71730 0.36309 0.21988
 O149 O 0.86127 0.27992 0.28204
 O150 O 0.71775 0.21567 0.36115
 O151 O 0.78164 0.13863 0.21532
 O152 O 0.77908 0.27983 0.36217
 O153 O 0.71945 0.13592 0.27849
 O154 O 0.63688 0.21565 0.27962
 O155 O 0.63573 0.28172 0.22033
 C156 C 0.74653 0.25165 0.11183
 C157 C 0.88607 0.25047 0.24874
 C158 C 0.74945 0.38701 0.25143
 C159 C 0.74825 0.24760 0.38661
 C160 C 0.75123 0.11235 0.24648
 C161 C 0.61138 0.24833 0.25005
 Zn162 Zn 0.20587 0.29219 0.20870
 Zn163 Zn 0.29131 0.20819 0.20821
 Zn164 Zn 0.29082 0.29180 0.29341
 Zn165 Zn 0.20654 0.20677 0.29284
 O166 O 0.24857 0.24974 0.25077
 O167 O 0.21629 0.28101 0.13851
 O168 O 0.36143 0.21903 0.21954
 O169 O 0.27939 0.36159 0.28285
 O170 O 0.28044 0.21967 0.13815
 O171 O 0.21690 0.36257 0.21972
 O172 O 0.36096 0.28187 0.28220
 O173 O 0.21739 0.21760 0.36298
 O174 O 0.28048 0.13819 0.21851
 O175 O 0.28023 0.28030 0.36347
 O176 O 0.21775 0.13651 0.28123
 O177 O 0.13644 0.21796 0.28244
 O178 O 0.13585 0.28096 0.21996
 C179 C 0.24812 0.25024 0.11339
 C180 C 0.38615 0.25078 0.25078
 C181 C 0.24838 0.38704 0.25151
 C182 C 0.24862 0.24901 0.38817
 C183 C 0.24942 0.11239 0.24945
 C184 C 0.11123 0.24961 0.25157
 C185 C -0.05307 0.75030 0.75129
 C186 C -0.02815 0.80669 0.74935
 C187 C 0.02646 0.80666 0.74766
 C188 C 0.05138 0.75025 0.74864
 C189 C 0.02787 0.72349 0.79882
 C190 C -0.02671 0.72338 0.80028
 C191 C -0.02958 0.72088 0.70256
 C192 C 0.02500 0.72072 0.70111
 H193 H -0.05142 0.84348 0.74920
 H194 H 0.04974 0.84342 0.74590
 H195 H 0.05213 0.70617 0.83059
 H196 H -0.04882 0.70610 0.83352
 H197 H -0.05384 0.70186 0.67172
 H198 H 0.04712 0.70170 0.66879
 C199 C 0.75232 -0.05175 0.74742
 C200 C 0.79218 -0.02703 0.70728
 C201 C 0.79237 0.02752 0.70718
 C202 C 0.75268 0.05274 0.74724
 C203 C 0.69810 0.02793 0.73277
 C204 C 0.69792 -0.02669 0.73286
 C205 C 0.76737 -0.02670 0.80176
 C206 C 0.76756 0.02794 0.80167
 H207 H 0.81815 -0.05016 0.68110
 H208 H 0.81851 0.05033 0.68093
 H209 H 0.66270 0.05134 0.72303
 H210 H 0.66236 -0.04994 0.72318
 H211 H 0.77729 -0.04996 0.83721
 H212 H 0.77764 0.05135 0.83703
 C213 C 0.74781 0.75202 -0.05149
 C214 C 0.80436 0.75213 -0.02678
 C215 C 0.80472 0.74981 0.02775
 C216 C 0.74848 0.74824 0.05294
 C217 C 0.71950 0.79754 0.03001
 C218 C 0.71901 0.79956 -0.02459
 C219 C 0.72056 0.70187 -0.02832
 C220 C 0.72078 0.69985 0.02628
 H221 H 0.84103 0.75375 -0.05018
 H222 H 0.84169 0.74924 0.05082
 H223 H 0.70093 0.82827 0.05467
 H224 H 0.70016 0.83219 -0.04637
 H225 H 0.70263 0.67059 -0.05281
 H226 H 0.70322 0.66664 0.04822
 C227 C 0.55162 0.75143 0.75030
 C228 C 0.52782 0.70261 0.77923
 C229 C 0.47323 0.70131 0.77918
 C230 C 0.44713 0.74907 0.74993
 C231 C 0.47080 0.79902 0.77719
 C232 C 0.52539 0.80032 0.77752
 C233 C 0.52682 0.74989 0.69379
 C234 C 0.47220 0.74836 0.69360
 H235 H 0.55189 0.67161 0.79810
 H236 H 0.45092 0.66896 0.79786
 H237 H 0.44664 0.83074 0.79470
 H238 H 0.54760 0.83339 0.79516
 H239 H 0.55019 0.74989 0.65706
 H240 H 0.44901 0.74687 0.65673
 C241 C 0.25102 -0.05230 0.74825
 C242 C 0.29118 -0.02733 0.70856
 C243 C 0.29153 0.02718 0.70888
 C244 C 0.25168 0.05225 0.74887
 C245 C 0.19711 0.02769 0.73387
 C246 C 0.19677 -0.02697 0.73355
 C247 C 0.26578 -0.02769 0.80288
 C248 C 0.26612 0.02697 0.80320
 H249 H 0.31723 -0.05030 0.68230
 H250 H 0.31787 0.05008 0.68291
 H251 H 0.16184 0.05128 0.72411
 H252 H 0.16120 -0.05005 0.72351
 H253 H 0.27537 -0.05124 0.83822
 H254 H 0.27600 0.05008 0.83882
 C255 C 0.24869 0.75088 -0.05287
 C256 C 0.29955 0.77623 -0.02901
 C257 C 0.30106 0.77580 0.02559
 C258 C 0.25143 0.74985 0.05161
 C259 C 0.20345 0.78063 0.02828
 C260 C 0.20196 0.78132 -0.02632
 C261 C 0.24631 0.69431 -0.02846
 C262 C 0.24804 0.69374 0.02614
 H263 H 0.33173 0.79300 -0.05304
 H264 H 0.33476 0.79201 0.04797
 H265 H 0.17315 0.80020 0.05267
 H266 H 0.17019 0.80138 -0.04832
 H267 H 0.24365 0.65780 -0.05210
 H268 H 0.24705 0.65674 0.04904
 C269 C -0.05133 0.24972 0.74761
 C270 C -0.02620 0.30603 0.74954
 C271 C 0.02839 0.30581 0.75135
 C272 C 0.05314 0.24933 0.75048
 C273 C 0.02671 0.22003 0.79797
 C274 C -0.02787 0.22038 0.79641
 C275 C -0.02512 0.22255 0.69870
 C276 C 0.02948 0.22248 0.70026
 H277 H -0.04934 0.34291 0.74959
 H278 H 0.05179 0.34251 0.75311
 H279 H 0.04879 0.20098 0.83031
 H280 H -0.05216 0.20150 0.82719
 H281 H -0.04735 0.20524 0.66545
 H282 H 0.05366 0.20495 0.66857
 C283 C 0.75163 0.55266 0.75352
 C284 C 0.79228 0.52785 0.79295
 C285 C 0.79272 0.47330 0.79270
 C286 C 0.75247 0.44815 0.75306
 C287 C 0.69804 0.47260 0.76847
 C288 C 0.69760 0.52724 0.76870
 C289 C 0.76586 0.52801 0.69883
 C290 C 0.76630 0.47339 0.69859
 H291 H 0.81857 0.55095 0.81893
 H292 H 0.81936 0.45044 0.81846
 H293 H 0.66292 0.44895 0.77861
 H294 H 0.66211 0.55025 0.77904
 H295 H 0.77508 0.55154 0.66339
 H296 H 0.77589 0.45025 0.66294
 C297 C 0.74997 0.25003 -0.05298
 C298 C 0.79986 0.27524 -0.02654
 C299 C 0.79801 0.27595 0.02801
 C300 C 0.74660 0.25155 0.05147
 C301 C 0.70056 0.28268 0.02452
 C302 C 0.70236 0.28174 -0.03010
 C303 C 0.74547 0.19411 -0.02748
 C304 C 0.74341 0.19493 0.02710
 H305 H 0.83398 0.29081 -0.04860
 H306 H 0.83031 0.29233 0.05228
 H307 H 0.66906 0.30338 0.04628
 H308 H 0.67256 0.30172 -0.05480
 H309 H 0.74394 0.15704 -0.05033
 H310 H 0.73993 0.15856 0.05077
 C311 C 0.55325 0.24980 0.74979
 C312 C 0.52740 0.20046 0.77648
 C313 C 0.47282 0.20160 0.77674
 C314 C 0.44879 0.25183 0.75051
 C315 C 0.47504 0.29927 0.78027
 C316 C 0.52963 0.29816 0.77974
 C317 C 0.52792 0.25203 0.69356
 C318 C 0.47330 0.25339 0.69395
 H319 H 0.54985 0.16720 0.79333
 H320 H 0.44892 0.16956 0.79397
 H321 H 0.45284 0.33126 0.79973
 H322 H 0.55382 0.32896 0.79887
 H323 H 0.55092 0.25259 0.65661
 H324 H 0.44973 0.25527 0.65733
 C325 C 0.24951 0.55225 0.75144
 C326 C 0.28898 0.52753 0.79206
 C327 C 0.28917 0.47304 0.79221
 C328 C 0.24987 0.44771 0.75172
 C329 C 0.19515 0.47248 0.76552
 C330 C 0.19496 0.52716 0.76537
 C331 C 0.26502 0.52716 0.69729
 C332 C 0.26521 0.47251 0.69744
 H333 H 0.31467 0.55063 0.81863
 H334 H 0.31502 0.45034 0.81890
 H335 H 0.15966 0.44904 0.77481
 H336 H 0.15931 0.55041 0.77455
 H337 H 0.27519 0.55039 0.66192
 H338 H 0.27553 0.44907 0.66219
 C339 C 0.25139 0.24962 -0.05148
 C340 C 0.30027 0.27678 -0.02506
 C341 C 0.29866 0.27697 0.02953
 C342 C 0.24844 0.25022 0.05300
 C343 C 0.20098 0.27951 0.02639
 C344 C 0.20258 0.27905 -0.02820
 C345 C 0.24943 0.19336 -0.02634
 C346 C 0.24759 0.19368 0.02826
 H347 H 0.33357 0.29396 -0.04718
 H348 H 0.33035 0.29448 0.05381
 H349 H 0.16863 0.29861 0.04836
 H350 H 0.17181 0.29789 -0.05261
 H351 H 0.24943 0.15643 -0.04947
 H352 H 0.24583 0.15703 0.05168
 C353 C -0.05188 0.74905 0.25144
 C354 C -0.02707 0.80553 0.25053
 C355 C 0.02753 0.80568 0.24884
 C356 C 0.05260 0.74934 0.24878
 C357 C 0.02915 0.72160 0.29847
 C358 C -0.02545 0.72131 0.29992
 C359 C -0.02829 0.72059 0.20218
 C360 C 0.02629 0.72060 0.20073
 H361 H -0.05044 0.84226 0.25105
 H362 H 0.05071 0.84253 0.24775
 H363 H 0.05345 0.70373 0.32991
 H364 H -0.04753 0.70333 0.33281
 H365 H -0.05250 0.70205 0.17102
 H366 H 0.04845 0.70221 0.16808
 C367 C 0.75326 -0.05245 0.24656
 C368 C 0.79296 -0.02755 0.20636
 C369 C 0.79261 0.02703 0.20599
 C370 C 0.75259 0.05202 0.24585
 C371 C 0.69830 0.02662 0.23139
 C372 C 0.69865 -0.02799 0.23175
 C373 C 0.76795 -0.02701 0.30080
 C374 C 0.76761 0.02760 0.30043
 H375 H 0.81919 -0.05058 0.18036
 H376 H 0.81853 0.05001 0.17966
 H377 H 0.66270 0.04964 0.22140
 H378 H 0.66334 -0.05162 0.22208
 H379 H 0.77806 -0.05000 0.33637
 H380 H 0.77744 0.05127 0.33569
 C381 C 0.74794 0.74822 0.55297
 C382 C 0.80443 0.74745 0.52829
 C383 C 0.80468 0.74952 0.47373
 C384 C 0.74840 0.75153 0.44849
 C385 C 0.71897 0.70261 0.47163
 C386 C 0.71859 0.70085 0.52624
 C387 C 0.72116 0.79852 0.52956
 C388 C 0.72127 0.80030 0.47495
 H389 H 0.84113 0.74556 0.55172
 H390 H 0.84160 0.74959 0.45068
 H391 H 0.70003 0.67195 0.44710
 H392 H 0.69946 0.66848 0.54815
 H393 H 0.70360 0.83008 0.55390
 H394 H 0.70396 0.83358 0.45288
 C395 C 0.55283 0.75136 0.25040
 C396 C 0.52904 0.70209 0.27859
 C397 C 0.47446 0.70080 0.27854
 C398 C 0.44837 0.74900 0.25004
 C399 C 0.47204 0.79853 0.27807
 C400 C 0.52663 0.79982 0.27840
 C401 C 0.52801 0.75069 0.19389
 C402 C 0.47341 0.74917 0.19370
 H403 H 0.55312 0.67081 0.29698
 H404 H 0.45216 0.66817 0.29674
 H405 H 0.44788 0.82997 0.29608
 H406 H 0.54886 0.83260 0.29656
 H407 H 0.55137 0.75127 0.15716
 H408 H 0.45020 0.74828 0.15681
 C409 C 0.25060 -0.05258 0.24849
 C410 C 0.29041 -0.02735 0.20860
 C411 C 0.29019 0.02716 0.20869
 C412 C 0.25019 0.05197 0.24868
 C413 C 0.19584 0.02681 0.23392
 C414 C 0.19606 -0.02786 0.23382
 C415 C 0.26524 -0.02761 0.30298
 C416 C 0.26503 0.02705 0.30308
 H417 H 0.31662 -0.05014 0.18236
 H418 H 0.31621 0.05021 0.18254
 H419 H 0.16030 0.05000 0.22416
 H420 H 0.16070 -0.05135 0.22398
 H421 H 0.27514 -0.05092 0.33840
 H422 H 0.27476 0.05040 0.33858
 C423 C 0.24898 0.74943 0.55161
 C424 C 0.29983 0.72432 0.52768
 C425 C 0.30103 0.72467 0.47309
 C426 C 0.25113 0.75030 0.44712
 C427 C 0.20343 0.71930 0.47060
 C428 C 0.20225 0.71870 0.52519
 C429 C 0.24620 0.80596 0.52712
 C430 C 0.24761 0.80644 0.47250
 H431 H 0.33223 0.70781 0.55167
 H432 H 0.33472 0.70864 0.45068
 H433 H 0.17308 0.69956 0.44631
 H434 H 0.17065 0.69853 0.54727
 H435 H 0.24351 0.84248 0.55072
 H436 H 0.24631 0.84339 0.44953
 C437 C -0.05357 0.25025 0.24900
 C438 C -0.02841 0.30647 0.25235
 C439 C 0.02621 0.30615 0.25397
 C440 C 0.05088 0.24967 0.25152
 C441 C 0.02456 0.21915 0.29832
 C442 C -0.03002 0.21960 0.29694
 C443 C -0.02749 0.22437 0.19931
 C444 C 0.02708 0.22419 0.20070
 H445 H -0.05152 0.34335 0.25348
 H446 H 0.04966 0.34276 0.25663
 H447 H 0.04672 0.19927 0.33009
 H448 H -0.05425 0.19999 0.32731
 H449 H -0.04979 0.20801 0.16562
 H450 H 0.05114 0.20751 0.16847
 C451 C 0.75099 0.55194 0.25302
 C452 C 0.79114 0.52661 0.29256
 C453 C 0.79086 0.47208 0.29226
 C454 C 0.75043 0.44741 0.25243
 C455 C 0.69627 0.47255 0.26765
 C456 C 0.69656 0.52719 0.26796
 C457 C 0.76510 0.52715 0.19835
 C458 C 0.76480 0.47251 0.19804
 H459 H 0.81764 0.54934 0.31865
 H460 H 0.81713 0.44890 0.31811
 H461 H 0.66080 0.44934 0.27759
 H462 H 0.66133 0.55065 0.27817
 H463 H 0.77475 0.55059 0.16296
 H464 H 0.77419 0.44928 0.16240
 C465 C 0.74800 0.25185 0.55144
 C466 C 0.80436 0.25137 0.52645
 C467 C 0.80426 0.24913 0.47190
 C468 C 0.74782 0.24820 0.44698
 C469 C 0.71979 0.20009 0.47362
 C470 C 0.72002 0.20205 0.52823
 C471 C 0.71952 0.29974 0.52484
 C472 C 0.71957 0.29779 0.47022
 H473 H 0.84122 0.25258 0.54967
 H474 H 0.84104 0.24821 0.44864
 H475 H 0.70165 0.16711 0.45167
 H476 H 0.70191 0.17094 0.55270
 H477 H 0.70120 0.33256 0.54681
 H478 H 0.70114 0.32875 0.44577
 C479 C 0.55101 0.24833 0.25048
 C480 C 0.52493 0.19936 0.27761
 C481 C 0.47033 0.20068 0.27766
 C482 C 0.44653 0.25072 0.25083
 C483 C 0.47285 0.29837 0.28018
 C484 C 0.52744 0.29707 0.27986
 C485 C 0.52583 0.25007 0.19415
 C486 C 0.47123 0.25162 0.19434
 H487 H 0.54724 0.16625 0.29493
 H488 H 0.44626 0.16891 0.29516
 H489 H 0.45069 0.33065 0.29923
 H490 H 0.55167 0.32799 0.29876
 H491 H 0.54894 0.25018 0.15727
 H492 H 0.44780 0.25324 0.15763
 C493 C 0.24978 0.55197 0.25103
 C494 C 0.28909 0.52703 0.29169
 C495 C 0.28875 0.47254 0.29206
 C496 C 0.24913 0.44744 0.25175
 C497 C 0.19468 0.47279 0.26555
 C498 C 0.19501 0.52746 0.26517
 C499 C 0.26494 0.52651 0.19696
 C500 C 0.26461 0.47186 0.19734
 H501 H 0.31507 0.54998 0.31809
 H502 H 0.31443 0.44969 0.31879
 H503 H 0.15898 0.44973 0.27501
 H504 H 0.15961 0.55109 0.27431
 H505 H 0.27526 0.54951 0.16148
 H506 H 0.27464 0.44819 0.16217
 C507 C 0.25154 0.24994 0.55300
 C508 C 0.30108 0.22386 0.52690
 C509 C 0.29961 0.22354 0.47230
 C510 C 0.24887 0.24910 0.44853
 C511 C 0.20199 0.21878 0.47495
 C512 C 0.20345 0.21937 0.52954
 C513 C 0.24840 0.30611 0.52776
 C514 C 0.24670 0.30565 0.47316
 H515 H 0.33471 0.20750 0.54922
 H516 H 0.33174 0.20671 0.44821
 H517 H 0.17012 0.19890 0.45286
 H518 H 0.17304 0.19989 0.55384
 H519 H 0.24754 0.34307 0.55082
 H520 H 0.24420 0.34220 0.44966
   
