data_POSCAR
  _audit_creation_date              2014-09-24
  _audit_creation_method            'ToBaCCo'
  _symmetry_space_group_name_H-M    'P1'
  _symmetry_Int_Tables_number       1
  _symmetry_cell_setting            triclinic
  loop_
  _symmetry_equiv_pos_as_xyz
 x,y,z
_cell_length_a 41.7052
_cell_length_b 44.0080
_cell_length_c 42.5119
_cell_angle_alpha 91.776400
_cell_angle_beta 92.532700
_cell_angle_gamma 93.004300
loop_
  _atom_site_label
  _atom_site_type_symbol
  _atom_site_fract_x
  _atom_site_fract_y
  _atom_site_fract_z
C1 C 0.18874 1.22541 0.22088
 C2 C 0.18051 1.25234 0.20639
 C3 C 0.19575 1.26197 0.17907
 C4 C 0.21987 1.24427 0.16699
 C5 C 0.22841 1.21739 0.18131
 C6 C 0.21267 1.20785 0.20828
 C7 C 0.17279 1.21543 0.24740
 C8 C 0.18017 1.18799 0.26160
 C9 C 0.20435 1.17070 0.24874
 C10 C 0.22042 1.18041 0.22225
 C11 C 0.24370 1.16264 0.20912
 C12 C 0.25961 1.17200 0.18240
 C13 C 0.25189 1.19949 0.16859
 H14 H 0.16172 1.26498 0.21639
 H15 H 0.23185 1.25122 0.14603
 H16 H 0.15421 1.22899 0.25681
 H17 H 0.21074 1.14938 0.25849
 H18 H 0.24939 1.14130 0.21961
 H19 H 0.26326 1.20654 0.14739
 C20 C 0.81504 0.76852 0.20430
 C21 C 0.82704 0.74163 0.19202
 C22 C 0.81401 0.72795 0.16341
 C23 C 0.78801 0.74136 0.14796
 C24 C 0.77582 0.76823 0.16000
 C25 C 0.78949 0.78197 0.18818
 C26 C 0.82875 0.78250 0.23219
 C27 C 0.81788 0.81017 0.24406
 C28 C 0.79204 0.82329 0.22778
 C29 C 0.77788 0.80938 0.20002
 C30 C 0.75262 0.82282 0.18362
 C31 C 0.73869 0.80914 0.15552
 C32 C 0.75055 0.78188 0.14392
 H33 H 0.84667 0.73200 0.20499
 H34 H 0.77753 0.73118 0.12603
 H35 H 0.84855 0.77204 0.24435
 H36 H 0.78245 0.84416 0.23629
 H37 H 0.74463 0.84429 0.19251
 H38 H 0.74018 0.77138 0.12212
 C39 C 0.83516 1.21055 -0.20467
 C40 C 0.84779 1.23509 -0.18527
 C41 C 0.83232 1.24377 -0.15786
 C42 C 0.80425 1.22733 -0.14986
 C43 C 0.79129 1.20281 -0.16906
 C44 C 0.80675 1.19443 -0.19663
 C45 C 0.85082 1.20160 -0.23171
 C46 C 0.83849 1.17686 -0.25121
 C47 C 0.80992 1.16096 -0.24291
 C48 C 0.79418 1.16952 -0.21576
 C49 C 0.76635 1.15310 -0.20714
 C50 C 0.75076 1.16129 -0.17978
 C51 C 0.76345 1.18622 -0.16078
 H52 H 0.87007 1.24678 -0.19124
 H53 H 0.79246 1.23367 -0.12858
 H54 H 0.87282 1.21400 -0.23756
 H55 H 0.79997 1.14140 -0.25667
 H56 H 0.75684 1.13372 -0.22167
 H57 H 0.75243 1.19229 -0.13906
 C58 C 0.15029 0.78207 -0.22337
 C59 C 0.13779 0.75612 -0.20890
 C60 C 0.15496 0.74292 -0.18400
 C61 C 0.18541 0.75623 -0.17393
 C62 C 0.19813 0.78235 -0.18812
 C63 C 0.18053 0.79529 -0.21294
 C64 C 0.13275 0.79524 -0.24785
 C65 C 0.14502 0.82142 -0.26222
 C66 C 0.17520 0.83462 -0.25155
 C67 C 0.19300 0.82168 -0.22710
 C68 C 0.22281 0.83510 -0.21617
 C69 C 0.24026 0.82277 -0.19107
 C70 C 0.22799 0.79605 -0.17747
 H71 H 0.11435 0.74629 -0.21697
 H72 H 0.19931 0.74705 -0.15477
 H73 H 0.10937 0.78513 -0.25573
 H74 H 0.18467 0.85537 -0.26149
 H75 H 0.23223 0.85558 -0.22683
 H76 H 0.24154 0.78570 -0.15875
 C77 C 0.54463 1.01325 -0.04368
 H78 H 0.54888 0.98945 -0.04135
 C79 C 0.56443 1.03100 -0.06235
 H80 H 0.58396 1.02039 -0.07353
 C81 C 0.51481 1.05586 -0.03082
 H82 H 0.49529 1.06549 -0.01874
 C83 C 0.53404 1.07445 -0.04921
 H84 H 0.52933 1.09834 -0.05075
 N85 N 0.52079 1.02596 -0.02782
 C86 C 0.43935 1.02261 0.02478
 H87 H 0.42770 1.00419 0.01048
 C88 C 0.42066 1.04163 0.04234
 H89 H 0.39481 1.03760 0.04102
 C90 C 0.48682 1.05120 0.04238
 H91 H 0.51263 1.05502 0.04192
 C92 C 0.46898 1.07100 0.06004
 H93 H 0.48119 1.08991 0.07335
 Zn94 Zn 0.49649 1.00184 0.00000
 N95 N 0.47185 1.02752 0.02521
 C96 C 0.53079 0.98699 0.05676
 N97 N 0.52461 0.97951 0.02573
 C98 C 0.53762 0.95498 0.01210
 C99 C 0.55856 0.93744 0.02939
 C100 C 0.55163 0.97010 0.07499
 C101 C 0.46289 0.97612 -0.05481
 C102 C 0.44110 0.95568 -0.07150
 C103 C 0.43213 0.92978 -0.02309
 C104 C 0.45400 0.95071 -0.00742
 N105 N 0.46856 0.97348 -0.02332
 H106 H 0.51969 1.00604 0.06754
 H107 H 0.53141 0.94871 -0.01228
 H108 H 0.56818 0.91827 0.01731
 H109 H 0.55638 0.97673 0.09959
 H110 H 0.47484 0.99442 -0.06692
 H111 H 0.43707 0.95891 -0.09639
 H112 H 0.42053 0.91210 -0.00973
 H113 H 0.45907 0.94913 0.01764
 C114 C 0.43552 1.06614 0.06039
 C115 C 0.55942 1.06218 -0.06504
 C116 C 0.42500 0.93216 -0.05553
 C117 C 0.56616 0.94503 0.06143
 C118 C 0.00866 0.54757 1.05963
 H119 H 0.03467 0.54934 1.06072
 C120 C -0.00837 0.56714 1.07821
 H121 H 0.00467 0.58398 1.09368
 C122 C -0.03985 0.52357 1.03784
 H123 H -0.05198 0.50669 1.02189
 C124 C -0.05791 0.54292 1.05587
 H125 H -0.08384 0.54014 1.05401
 N126 N -0.00717 0.52609 1.04023
 C127 C 0.06476 0.45858 1.02904
 H128 H 0.06637 0.45764 1.00370
 C129 C 0.08246 0.43915 1.04760
 H130 H 0.09741 0.42336 1.03599
 C131 C 0.04147 0.47922 1.07424
 H132 H 0.02477 0.49415 1.08453
 C133 C 0.05870 0.46027 1.09364
 H134 H 0.05536 0.46120 1.11877
 Zn135 Zn 0.01875 0.50133 1.01589
 N136 N 0.04480 0.47812 1.04255
 C137 C 0.07651 0.52992 0.99402
 N138 N 0.04386 0.52796 0.99164
 C139 C 0.02730 0.54643 0.97259
 C140 C 0.04349 0.56743 0.95425
 C141 C 0.09378 0.55082 0.97626
 C142 C -0.02613 0.45241 1.00282
 C143 C -0.04409 0.43024 0.98433
 C144 C -0.02136 0.45163 0.93809
 C145 C -0.00391 0.47334 0.95748
 N146 N -0.00669 0.47346 0.98921
 H147 H 0.08922 0.51556 1.00992
 H148 H 0.00129 0.54483 0.97173
 H149 H 0.02907 0.58174 0.93987
 H150 H 0.11980 0.55203 0.97856
 H151 H -0.02743 0.45267 1.02819
 H152 H -0.05904 0.41397 0.99630
 H153 H -0.01852 0.45196 0.91288
 H154 H 0.01234 0.48966 0.94709
 C155 C 0.07942 0.43979 1.08045
 C156 C -0.04205 0.56514 1.07632
 C157 C -0.04176 0.42950 0.95130
 C158 C 0.07740 0.56987 0.95575
 C159 C 1.04810 -0.01140 0.51866
 H160 H 1.06062 0.00392 0.50346
 C161 C 1.06577 -0.02853 0.53959
 H162 H 1.09179 -0.02646 0.53989
 C163 C 0.99927 -0.03176 0.53774
 H164 H 0.97327 -0.03249 0.53710
 C165 C 1.01602 -0.04930 0.55912
 H166 H 1.00234 -0.06325 0.57474
 N167 N 1.01542 -0.01350 0.51787
 C168 C 1.02133 0.06489 0.46621
 H169 H 1.00679 0.07757 0.48182
 C170 C 1.04235 0.08045 0.44672
 H171 H 1.04418 0.10506 0.44810
 C172 C 1.03669 0.01742 0.44562
 H173 H 1.03416 -0.00718 0.44525
 C174 C 1.05811 0.03196 0.42605
 H175 H 1.07211 0.01839 0.41063
 Zn176 Zn 0.99129 0.01085 0.49062
 N177 N 1.01919 0.03391 0.46551
 C178 C 0.98291 0.05531 0.53793
 N179 N 0.96699 0.03604 0.51627
 C180 C 0.93436 0.03286 0.51473
 C181 C 0.91646 0.04942 0.53552
 C182 C 0.96596 0.07244 0.55920
 C183 C 0.96351 -0.04452 0.46199
 C184 C 0.94405 -0.06179 0.43970
 C185 C 0.92559 -0.01502 0.41878
 C186 C 0.94558 0.00125 0.44123
 N187 N 0.96382 -0.01361 0.46241
 H188 H 1.00892 0.05691 0.53909
 H189 H 0.92209 0.01679 0.49802
 H190 H 0.89050 0.04610 0.53404
 H191 H 0.97970 0.08707 0.57625
 H192 H 0.97870 -0.05589 0.47861
 H193 H 0.94449 -0.08626 0.44035
 H194 H 0.91128 -0.00255 0.40221
 H195 H 0.94669 0.02588 0.44178
 C196 C 1.06109 0.06382 0.42631
 C197 C 1.04985 -0.04786 0.56016
 C198 C 0.92471 -0.04701 0.41746
 C199 C 0.93208 0.06940 0.55843
 C200 C 0.18725 0.28794 1.16261
 C201 C 0.16416 0.30808 1.17164
 C202 C 0.15389 0.33271 1.15144
 N203 N 0.13108 0.35125 1.16123
 N204 N 0.12047 0.37286 1.14280
 C205 C 0.13226 0.37674 1.11383
 N206 N 0.15520 0.35830 1.10408
 N207 N 0.16583 0.33668 1.12254
 C208 C 0.11971 0.39965 1.09266
 C209 C 0.09555 0.41852 1.10158
 H210 H 0.15239 0.30596 1.19362
 H211 H 0.12946 0.40103 1.06960
 H212 H 0.19912 0.29246 1.14093
 H213 H 0.08754 0.41740 1.12544
 C214 C -0.17371 0.70192 1.14908
 C215 C -0.14665 0.68723 1.16015
 C216 C -0.13313 0.66221 1.14214
 N217 N -0.10484 0.65121 1.15226
 N218 N -0.09147 0.62945 1.13568
 C219 C -0.10592 0.61780 1.10836
 N220 N -0.13441 0.62855 1.09838
 N221 N -0.14775 0.65039 1.11493
 C222 C -0.09076 0.59457 1.08923
 C223 C -0.05945 0.58630 1.09626
 H224 H -0.13355 0.69470 1.18168
 H225 H -0.10387 0.58531 1.06826
 H226 H -0.18539 0.69320 1.12709
 H227 H -0.04615 0.59748 1.11623
 C228 C -0.15453 0.26893 0.86372
 C229 C -0.13359 0.29248 0.85456
 C230 C -0.12006 0.31649 0.87692
 N231 N -0.10023 0.33915 0.86669
 N232 N -0.08729 0.36075 0.88672
 C233 C -0.09370 0.36049 0.91777
 N234 N -0.11359 0.33785 0.92799
 N235 N -0.12654 0.31626 0.90796
 C236 C -0.07902 0.38378 0.94039
 C237 C -0.05818 0.40743 0.93097
 H238 H -0.12701 0.29379 0.83030
 H239 H -0.08475 0.38149 0.96474
 H240 H -0.16242 0.26933 0.88767
 H241 H -0.05404 0.40859 0.90602
 C242 C 0.14037 0.71748 0.83014
 C243 C 0.15400 0.70131 0.85479
 C244 C 0.13563 0.67663 0.86981
 N245 N 0.14975 0.66081 0.89307
 N246 N 0.13307 0.63905 0.90743
 C247 C 0.10161 0.63235 0.89906
 N248 N 0.08755 0.64813 0.87579
 N249 N 0.10422 0.66983 0.86142
 C250 C 0.08227 0.60921 0.91520
 C251 C 0.09539 0.59088 0.93829
 H252 H 0.17828 0.70655 0.86391
 H253 H 0.05711 0.60685 0.90801
 H254 H 0.11634 0.70994 0.82144
 H255 H 0.12122 0.59282 0.94279
 C256 C 1.16239 0.17862 0.28744
 C257 C 1.16703 0.15209 0.30405
 C258 C 1.14564 0.14174 0.32864
 N259 N 1.15038 0.11473 0.34214
 N260 N 1.13066 0.10419 0.36354
 C261 C 1.10542 0.12026 0.37232
 N262 N 1.10082 0.14746 0.35905
 N263 N 1.12054 0.15799 0.33755
 C264 C 1.08282 0.10812 0.39510
 C265 C 1.08442 0.07844 0.40551
 H266 H 1.18621 0.13747 0.29888
 H267 H 1.06373 0.12219 0.40223
 H268 H 1.14329 0.19269 0.29471
 H269 H 1.10263 0.06434 0.39635
 C270 C 1.12496 -0.16500 0.71278
 C271 C 1.13705 -0.14453 0.69122
 C272 C 1.11615 -0.13021 0.66782
 N273 N 1.12914 -0.10993 0.64796
 N274 N 1.11055 -0.09625 0.62706
 C275 C 1.07824 -0.10235 0.62522
 N276 N 1.06525 -0.12272 0.64502
 N277 N 1.08385 -0.13638 0.66595
 C278 C 1.05731 -0.08699 0.60263
 C279 C 1.06957 -0.06508 0.58262
 H280 H 1.16254 -0.13865 0.69116
 H281 H 1.03190 -0.09320 0.60219
 H282 H 1.09959 -0.17184 0.71099
 H283 H 1.09533 -0.06014 0.58342
 C284 C 0.83370 -0.17635 0.27144
 C285 C 0.82810 -0.14755 0.28436
 C286 C 0.84716 -0.13415 0.31181
 N287 N 0.84407 -0.10458 0.32054
 N288 N 0.86174 -0.09177 0.34475
 C289 C 0.88312 -0.10809 0.36124
 N290 N 0.88598 -0.13776 0.35272
 N291 N 0.86838 -0.15055 0.32842
 C292 C 0.90343 -0.09401 0.38755
 C293 C 0.90489 -0.06253 0.39385
 H294 H 0.81071 -0.13330 0.27363
 H295 H 0.91830 -0.10887 0.40081
 H296 H 0.85255 -0.18874 0.28279
 H297 H 0.89026 -0.04891 0.37866
 C298 C 0.85580 0.16855 0.72238
 C299 C 0.84549 0.14618 0.69949
 C300 C 0.86603 0.13662 0.67409
 N301 N 0.85406 0.11612 0.65154
 N302 N 0.87256 0.10630 0.62901
 C303 C 0.90379 0.11657 0.62820
 N304 N 0.91576 0.13714 0.65072
 N305 N 0.89723 0.14702 0.67323
 C306 C 0.92490 0.10485 0.60426
 C307 C 0.91317 0.08433 0.58011
 H308 H 0.82180 0.13507 0.69950
 H309 H 0.94999 0.11233 0.60655
 H310 H 0.87886 0.18043 0.71942
 H311 H 0.88745 0.07907 0.57835
 C312 C 0.28261 1.15153 0.16849
 C313 C 0.30772 1.16149 0.15008
 C314 C 0.32888 1.13996 0.13537
 N315 N 0.35543 1.15043 0.12089
 N316 N 0.37434 1.13111 0.10693
 C317 C 0.36729 1.10061 0.10685
 N318 N 0.34070 1.09018 0.12125
 N319 N 0.32190 1.10946 0.13531
 C320 C 0.38710 1.07893 0.09063
 C321 C 0.41663 1.08756 0.07850
 H322 H 0.31240 1.18556 0.14669
 H323 H 0.37820 1.05537 0.08858
 H324 H 0.28013 1.12761 0.17376
 H325 H 0.42674 1.11052 0.08322
 C326 C 0.72246 1.14222 -0.17086
 C327 C 0.69964 1.15225 -0.15042
 C328 C 0.67363 1.13180 -0.13960
 N329 N 0.65226 1.14263 -0.11947
 N330 N 0.62940 1.12414 -0.10838
 C331 C 0.62706 1.09410 -0.11703
 N332 N 0.64831 1.08330 -0.13731
 N333 N 0.67117 1.10179 -0.14840
 C334 C 0.60304 1.07304 -0.10373
 C335 C 0.58109 1.08291 -0.08226
 H336 H 0.70084 1.17565 -0.14167
 H337 H 0.60335 1.04923 -0.11067
 H338 H 0.71938 1.11932 -0.18106
 H339 H 0.58001 1.10714 -0.07737
 C340 C 0.27102 0.83865 -0.17971
 C341 C 0.28453 0.83608 -0.14933
 C342 C 0.31309 0.85481 -0.13760
 N343 N 0.32388 0.85297 -0.10718
 N344 N 0.34892 0.87061 -0.09580
 C345 C 0.36416 0.89075 -0.11442
 N346 N 0.35352 0.89244 -0.14491
 N347 N 0.32846 0.87481 -0.15630
 C348 C 0.39100 0.91135 -0.10184
 C349 C 0.40163 0.91144 -0.07013
 H350 H 0.27300 0.82135 -0.13283
 H351 H 0.40139 0.92710 -0.11800
 H352 H 0.28216 0.85484 -0.19512
 H353 H 0.39035 0.89465 -0.05543
 C354 C 0.71290 0.82320 0.13674
 C355 C 0.69432 0.84626 0.14818
 C356 C 0.67040 0.86074 0.12792
 N357 N 0.65365 0.88375 0.13978
 N358 N 0.63243 0.89752 0.12154
 C359 C 0.62718 0.88875 0.09074
 N360 N 0.64384 0.86566 0.07893
 N361 N 0.66507 0.85193 0.09715
 C362 C 0.60428 0.90396 0.06998
 C363 C 0.58750 0.92884 0.08038
 H364 H 0.69711 0.85420 0.17251
 H365 H 0.60157 0.89527 0.04595
 H366 H 0.70818 0.81474 0.11268
 H367 H 0.59160 0.93646 0.10480
   
