data_POSCAR
  _audit_creation_date              2014-09-24
  _audit_creation_method            'ToBaCCo'
  _symmetry_space_group_name_H-M    'P1'
  _symmetry_Int_Tables_number       1
  _symmetry_cell_setting            triclinic
  loop_
  _symmetry_equiv_pos_as_xyz
 x,y,z
_cell_length_a 27.9837
_cell_length_b 17.5606
_cell_length_c 16.4118
_cell_angle_alpha 89.817200
_cell_angle_beta 90.116000
_cell_angle_gamma 89.887900
loop_
  _atom_site_label
  _atom_site_type_symbol
  _atom_site_fract_x
  _atom_site_fract_y
  _atom_site_fract_z
O1 O 0.06749 0.13020 0.14974
 O2 O 0.11953 0.06132 0.07130
 C3 C 0.11038 0.11041 0.12794
 O4 O -0.06704 -0.14166 0.13981
 O5 O -0.11915 -0.06779 0.06590
 C6 C -0.10995 -0.12165 0.11775
 O7 O 0.06787 -0.13419 0.14895
 O8 O 0.11959 -0.06460 0.07104
 C9 C 0.11093 -0.11456 0.12747
 O10 O -0.06713 0.13772 0.14168
 O11 O -0.11917 0.06337 0.06919
 C12 C -0.11004 0.11722 0.12073
 Zr13 Zr 0.00021 0.09483 0.10367
 O14 O -0.00517 0.09391 0.23232
 O15 O 0.00561 0.21507 0.10398
 Zr16 Zr 0.00036 -0.09794 0.10329
 O17 O -0.00522 -0.09747 0.23192
 O18 O 0.00598 -0.21816 0.10428
 O19 O 0.04285 -0.00171 0.11953
 O20 O -0.04117 -0.00165 0.11832
 O21 O -0.06723 0.13975 -0.13948
 O22 O -0.11927 0.06621 -0.06579
 C23 C -0.11011 0.11996 -0.11769
 O24 O 0.06750 -0.13236 -0.14886
 O25 O 0.11953 -0.06374 -0.07008
 C26 C 0.11039 -0.11267 -0.12688
 O27 O -0.06714 -0.13955 -0.14116
 O28 O -0.11918 -0.06492 -0.06898
 C29 C -0.11005 -0.11885 -0.12041
 O30 O 0.06743 0.13214 -0.14792
 O31 O 0.11949 0.06213 -0.06987
 C32 C 0.11036 0.11204 -0.12612
 Zr33 Zr 0.00015 0.09586 -0.10253
 O34 O -0.00552 0.09533 -0.23119
 O35 O 0.00558 0.21607 -0.10341
 Zr36 Zr 0.00021 -0.09694 -0.10289
 O37 O -0.00531 -0.09630 -0.23155
 O38 O 0.00578 -0.21719 -0.10290
 Zr39 Zr 0.07106 -0.00116 0.00052
 Zr40 Zr -0.07053 -0.00089 0.00022
 O41 O -0.04127 -0.00030 -0.11775
 O42 O 0.04271 -0.00053 -0.11859
 O43 O -0.04233 0.11035 0.00056
 O44 O 0.04175 -0.11141 0.00023
 O45 O 0.04161 0.10918 0.00071
 O46 O -0.04221 -0.11225 0.00003
 H47 H -0.06300 -0.00215 0.16578
 H48 H 0.06350 -0.15600 0.00016
 H49 H -0.06313 0.00026 -0.16532
 H50 H 0.06328 0.15374 0.00088
 H51 H -0.01960 -0.23810 0.06864
 H52 H -0.02115 -0.23734 -0.07046
 H53 H 0.02109 -0.06460 -0.25276
 H54 H 0.02193 0.06601 -0.25252
 H55 H -0.02004 0.23606 -0.06794
 H56 H -0.02124 0.23533 0.07111
 H57 H 0.02148 0.06251 0.25358
 H58 H 0.02218 -0.06818 0.25339
 O59 O 0.56700 0.63380 0.64599
 O60 O 0.61909 0.56372 0.56886
 C61 C 0.60994 0.61373 0.62461
 O62 O 0.43305 0.36092 0.64143
 O63 O 0.38085 0.43412 0.56744
 C64 C 0.39013 0.38061 0.61966
 O65 O 0.56714 0.36908 0.64861
 O66 O 0.61916 0.43678 0.56881
 C67 C 0.61004 0.38806 0.62607
 O68 O 0.43291 0.64273 0.63731
 O69 O 0.38075 0.56825 0.56537
 C70 C 0.39003 0.62259 0.61618
 Zr71 Zr 0.49961 0.59788 0.60013
 O72 O 0.49467 0.60121 0.72876
 O73 O 0.50218 0.71791 0.59130
 Zr74 Zr 0.49967 0.40563 0.60338
 O75 O 0.49415 0.41069 0.73195
 O76 O 0.50515 0.28550 0.60855
 O77 O 0.54233 0.50178 0.61786
 O78 O 0.45792 0.50195 0.61633
 O79 O 0.43184 0.63997 0.35767
 O80 O 0.37964 0.56598 0.43073
 C81 C 0.38884 0.61990 0.37898
 O82 O 0.56708 0.36648 0.35231
 O83 O 0.61914 0.43668 0.42942
 C84 C 0.61001 0.38645 0.37389
 O85 O 0.43233 0.35945 0.36054
 O86 O 0.37990 0.43374 0.43256
 C87 C 0.38934 0.37949 0.38170
 O88 O 0.56635 0.63260 0.34833
 O89 O 0.61837 0.56424 0.42795
 C90 C 0.60924 0.61316 0.37079
 Zr91 Zr 0.49940 0.59563 0.39415
 O92 O 0.49377 0.59211 0.26553
 O93 O 0.50353 0.71587 0.39076
 Zr94 Zr 0.49969 0.40349 0.39683
 O95 O 0.49408 0.40441 0.26815
 O96 O 0.50520 0.28327 0.39611
 Zr97 Zr 0.57056 0.50038 0.49889
 Zr98 Zr 0.42850 0.50048 0.49830
 O99 O 0.45784 0.49945 0.38040
 O100 O 0.54229 0.49940 0.37972
 O101 O 0.45698 0.61141 0.49691
 O102 O 0.54094 0.39033 0.50040
 O103 O 0.54105 0.61061 0.49715
 O104 O 0.45730 0.38946 0.50016
 H105 H 0.43612 0.50249 0.66383
 H106 H 0.56239 0.34538 0.50090
 H107 H 0.43580 0.49916 0.33307
 H108 H 0.56258 0.65534 0.49677
 H109 H 0.48131 0.26474 0.57008
 H110 H 0.47977 0.26322 0.43195
 H111 H 0.52198 0.43247 0.24664
 H112 H 0.52175 0.56366 0.24485
 H113 H 0.48386 0.73507 0.43635
 H114 H 0.50246 0.73711 0.64801
 H115 H 0.51977 0.56708 0.75069
 H116 H 0.52316 0.43623 0.75279
 C117 C 0.22964 0.22063 0.24088
 C118 C 0.18325 0.23646 0.26866
 C119 C 0.14430 0.19948 0.23239
 C120 C 0.15155 0.14710 0.16867
 C121 C 0.19850 0.13130 0.14240
 C122 C 0.23762 0.16806 0.17810
 C123 C 0.27062 0.26053 0.27758
 C124 C 0.31697 0.24522 0.24926
 C125 C 0.35578 0.28397 0.28373
 C126 C 0.34843 0.33803 0.34577
 C127 C 0.30159 0.35234 0.37356
 C128 C 0.26261 0.31370 0.33976
 C129 C 0.28451 0.15388 0.15168
 C130 C 0.32354 0.19180 0.18670
 C131 C 0.17671 0.28951 0.33160
 C132 C 0.21574 0.32747 0.36659
 H133 H 0.29109 0.11341 0.10324
 H134 H 0.35912 0.17946 0.16436
 H135 H 0.14111 0.30210 0.35370
 H136 H 0.20915 0.36821 0.41475
 H137 H 0.10844 0.21207 0.25330
 H138 H 0.20470 0.09119 0.09344
 H139 H 0.39156 0.27241 0.26178
 H140 H 0.29536 0.39356 0.42141
 C141 C 0.77047 0.76161 0.22207
 C142 C 0.81666 0.74636 0.25167
 C143 C 0.85577 0.78429 0.21710
 C144 C 0.84888 0.83750 0.15368
 C145 C 0.80220 0.85177 0.12463
 C146 C 0.76292 0.81393 0.15852
 C147 C 0.72919 0.72250 0.25878
 C148 C 0.68296 0.73818 0.22964
 C149 C 0.64373 0.70173 0.26574
 C150 C 0.65056 0.64997 0.33056
 C151 C 0.69737 0.63450 0.35831
 C152 C 0.73673 0.67072 0.32282
 C153 C 0.71621 0.82767 0.13042
 C154 C 0.67689 0.79044 0.16541
 C155 C 0.82276 0.69380 0.31559
 C156 C 0.78345 0.65663 0.35061
 H157 H 0.70998 0.86777 0.08120
 H158 H 0.64145 0.80294 0.14223
 H159 H 0.85819 0.68152 0.33897
 H160 H 0.78968 0.61677 0.40007
 H161 H 0.89141 0.77280 0.24005
 H162 H 0.79630 0.89234 0.07572
 H163 H 0.60799 0.71406 0.24372
 H164 H 0.70329 0.59493 0.40817
 C165 C 0.77071 0.23775 0.77643
 C166 C 0.81693 0.25202 0.74695
 C167 C 0.85588 0.21370 0.78205
 C168 C 0.84881 0.16104 0.84586
 C169 C 0.80211 0.14767 0.87474
 C170 C 0.76298 0.18596 0.84034
 C171 C 0.72959 0.27734 0.73923
 C172 C 0.68333 0.26268 0.76829
 C173 C 0.64426 0.29961 0.73176
 C174 C 0.65127 0.35083 0.66659
 C175 C 0.69810 0.36529 0.63889
 C176 C 0.73731 0.32859 0.67482
 C177 C 0.71623 0.17322 0.86831
 C178 C 0.67707 0.21093 0.83286
 C179 C 0.82323 0.30404 0.68266
 C180 C 0.78407 0.34166 0.64715
 H181 H 0.70985 0.13354 0.91778
 H182 H 0.64158 0.19923 0.85596
 H183 H 0.85870 0.31554 0.65937
 H184 H 0.79044 0.38107 0.59742
 H185 H 0.89155 0.22447 0.75919
 H186 H 0.79610 0.10752 0.92393
 H187 H 0.60850 0.28806 0.75376
 H188 H 0.70412 0.40445 0.58877
 C189 C 0.22988 0.77878 0.75900
 C190 C 0.23773 0.83024 0.82287
 C191 C 0.19852 0.86629 0.85909
 C192 C 0.15160 0.85093 0.83223
 C193 C 0.14447 0.79957 0.76751
 C194 C 0.18352 0.76331 0.73070
 C195 C 0.27098 0.73973 0.72164
 C196 C 0.26312 0.68769 0.65830
 C197 C 0.30223 0.64978 0.62390
 C198 C 0.34902 0.66365 0.65231
 C199 C 0.35622 0.71666 0.71542
 C200 C 0.31730 0.75468 0.75047
 C201 C 0.17713 0.71141 0.66663
 C202 C 0.21628 0.67425 0.63098
 C203 C 0.28459 0.84412 0.84978
 C204 C 0.32373 0.80698 0.81415
 H205 H 0.14156 0.69912 0.64410
 H206 H 0.20980 0.63440 0.58192
 H207 H 0.29106 0.88375 0.89905
 H208 H 0.35928 0.81903 0.83690
 H209 H 0.20463 0.90559 0.90883
 H210 H 0.10864 0.78735 0.74613
 H211 H 0.29613 0.60945 0.57513
 H212 H 0.39197 0.72786 0.73785
 C213 C 0.22991 0.22313 0.76185
 C214 C 0.18355 0.23871 0.73330
 C215 C 0.14452 0.20164 0.76939
 C216 C 0.15163 0.14929 0.83364
 C217 C 0.19858 0.13391 0.86080
 C218 C 0.23777 0.17079 0.82529
 C219 C 0.27100 0.26291 0.72510
 C220 C 0.31732 0.24773 0.75405
 C221 C 0.35624 0.28615 0.71931
 C222 C 0.34905 0.33976 0.65630
 C223 C 0.30220 0.35402 0.62802
 C224 C 0.26311 0.31570 0.66209
 C225 C 0.28465 0.15685 0.85245
 C226 C 0.32375 0.19464 0.81740
 C227 C 0.17715 0.29150 0.66964
 C228 C 0.21626 0.32931 0.63461
 H229 H 0.29116 0.11659 0.90143
 H230 H 0.35929 0.18238 0.84030
 H231 H 0.14160 0.30393 0.64691
 H232 H 0.20974 0.36976 0.58582
 H233 H 0.10870 0.21396 0.74777
 H234 H 0.20472 0.09393 0.91021
 H235 H 0.39200 0.27458 0.74169
 H236 H 0.29604 0.39487 0.57947
 C237 C 0.77060 0.76463 0.77333
 C238 C 0.76273 0.81792 0.83545
 C239 C 0.80187 0.85600 0.86969
 C240 C 0.84876 0.84094 0.84250
 C241 C 0.85592 0.78692 0.78031
 C242 C 0.81696 0.74876 0.74539
 C243 C 0.72949 0.72496 0.73653
 C244 C 0.73736 0.67208 0.67402
 C245 C 0.69816 0.63520 0.63854
 C246 C 0.65119 0.65109 0.66480
 C247 C 0.64406 0.70403 0.72809
 C248 C 0.68310 0.74112 0.76414
 C249 C 0.82339 0.69520 0.68291
 C250 C 0.78426 0.65754 0.64780
 C251 C 0.71584 0.83218 0.86194
 C252 C 0.67670 0.79446 0.82687
 H253 H 0.85896 0.68242 0.66080
 H254 H 0.79078 0.61686 0.59953
 H255 H 0.70931 0.87303 0.91003
 H256 H 0.64112 0.80737 0.84886
 H257 H 0.79573 0.89718 0.91760
 H258 H 0.89171 0.77474 0.75875
 H259 H 0.70432 0.59478 0.58987
 H260 H 0.60822 0.71678 0.74898
 C261 C 0.22775 0.77760 0.23711
 C262 C 0.18135 0.75916 0.26266
 C263 C 0.14209 0.79604 0.22643
 C264 C 0.14878 0.85143 0.16454
 C265 C 0.19619 0.86963 0.14099
 C266 C 0.23550 0.83275 0.17665
 C267 C 0.26907 0.73786 0.27389
 C268 C 0.31547 0.75580 0.24775
 C269 C 0.35461 0.71729 0.28231
 C270 C 0.34757 0.66095 0.34250
 C271 C 0.30062 0.64408 0.36813
 C272 C 0.26132 0.68235 0.33408
 C273 C 0.28247 0.84954 0.15239
 C274 C 0.32177 0.81171 0.18731
 C275 C 0.17509 0.70365 0.32361
 C276 C 0.21438 0.66596 0.35876
 H277 H 0.28892 0.89205 0.10570
 H278 H 0.35736 0.82618 0.16661
 H279 H 0.13949 0.68896 0.34410
 H280 H 0.20794 0.62338 0.40538
 H281 H 0.10643 0.78082 0.24636
 H282 H 0.20290 0.91187 0.09403
 H283 H 0.39043 0.73098 0.26205
 H284 H 0.29451 0.60113 0.41450
 C285 C 0.77065 0.23425 0.22654
 C286 C 0.76279 0.18153 0.16385
 C287 C 0.80192 0.14324 0.12979
 C288 C 0.84878 0.15757 0.15768
 C289 C 0.85593 0.21101 0.22047
 C290 C 0.81697 0.24933 0.25524
 C291 C 0.72955 0.27416 0.26311
 C292 C 0.73739 0.32649 0.32616
 C293 C 0.69821 0.36367 0.36134
 C294 C 0.65127 0.34864 0.33421
 C295 C 0.64416 0.29621 0.27043
 C296 C 0.68319 0.25883 0.23468
 C297 C 0.82339 0.30232 0.31829
 C298 C 0.78427 0.34021 0.35320
 C299 C 0.71593 0.16805 0.13659
 C300 C 0.67681 0.20603 0.17142
 H301 H 0.85893 0.31448 0.34101
 H302 H 0.79077 0.38043 0.40190
 H303 H 0.70942 0.12764 0.08807
 H304 H 0.64125 0.19376 0.14881
 H305 H 0.79579 0.10250 0.08144
 H306 H 0.89170 0.22259 0.24259
 H307 H 0.70434 0.40368 0.41042
 H308 H 0.60835 0.28414 0.24885
   
