data_POSCAR
  _audit_creation_date              2014-09-24
  _audit_creation_method            'ToBaCCo'
  _symmetry_space_group_name_H-M    'P1'
  _symmetry_Int_Tables_number       1
  _symmetry_cell_setting            triclinic
  loop_
  _symmetry_equiv_pos_as_xyz
 x,y,z
_cell_length_a 39.8562
_cell_length_b 40.8260
_cell_length_c 43.0480
_cell_angle_alpha 93.352100
_cell_angle_beta 87.318800
_cell_angle_gamma 89.484700
loop_
  _atom_site_label
  _atom_site_type_symbol
  _atom_site_fract_x
  _atom_site_fract_y
  _atom_site_fract_z
N1 N 0.17507 1.26864 0.17605
 N2 N 0.14963 1.26653 0.19637
 C3 C 0.12583 1.28866 0.19046
 C4 C 0.13704 1.30553 0.16494
 C5 C 0.16849 1.29223 0.15660
 H6 H 0.10200 1.29169 0.20339
 H7 H 0.18514 1.29877 0.13742
 Cu8 Cu 0.15006 1.23419 0.22782
 Cu9 Cu 0.21466 1.24028 0.17596
 Cu10 Cu 0.20462 1.17143 0.21898
 N11 N 0.15356 1.20287 0.25996
 N12 N 0.17532 1.17840 0.25634
 C13 C 0.17121 1.15892 0.28031
 C14 C 0.14527 1.17167 0.30005
 C15 C 0.13476 1.19979 0.28645
 H16 H 0.18515 1.13637 0.28251
 H17 H 0.11430 1.21614 0.29450
 N18 N 0.24082 1.17536 0.18677
 N19 N 0.24495 1.20174 0.17076
 C20 C 0.27086 1.19648 0.14980
 C21 C 0.28374 1.16528 0.15289
 C22 C 0.26420 1.15272 0.17667
 H23 H 0.27905 1.21380 0.13305
 H24 H 0.26635 1.12852 0.18539
 H25 H 0.18420 1.20292 0.18776
 H26 H 0.20967 1.22044 0.21987
 N27 N 0.80926 0.75326 0.17901
 N28 N 0.82849 0.75288 0.20297
 C29 C 0.85102 0.72812 0.19822
 C30 C 0.84555 0.71205 0.16970
 C31 C 0.81878 0.72862 0.15824
 H32 H 0.87035 0.72282 0.21405
 H33 H 0.80780 0.72374 0.13596
 Cu34 Cu 0.82366 0.78573 0.23740
 Cu35 Cu 0.77504 0.78710 0.17547
 Cu36 Cu 0.77440 0.85195 0.23097
 N37 N 0.82727 0.82476 0.26499
 N38 N 0.80803 0.85063 0.26225
 C39 C 0.81641 0.87452 0.28322
 C40 C 0.84245 0.86303 0.30007
 C41 C 0.84858 0.83125 0.28787
 H42 H 0.80466 0.89855 0.28552
 H43 H 0.86763 0.81439 0.29466
 N44 N 0.74241 0.84865 0.19746
 N45 N 0.74259 0.82396 0.17624
 C46 C 0.71872 0.82946 0.15594
 C47 C 0.70281 0.85902 0.16480
 C48 C 0.71845 0.87045 0.19127
 H49 H 0.71369 0.81353 0.13577
 H50 H 0.71334 0.89329 0.20467
 H51 H 0.80287 0.82165 0.19947
 H52 H 0.76803 0.80196 0.22203
 N53 N 0.80539 1.24942 -0.15857
 N54 N 0.82722 1.25384 -0.18174
 C55 C 0.84745 1.27884 -0.17365
 C56 C 0.83772 1.29078 -0.14381
 C57 C 0.81089 1.27152 -0.13497
 H58 H 0.86810 1.28734 -0.18814
 H59 H 0.79688 1.27285 -0.11282
 Cu60 Cu 0.82790 1.22588 -0.21981
 Cu61 Cu 0.77272 1.21422 -0.16008
 Cu62 Cu 0.78049 1.15814 -0.22361
 N63 N 0.83599 1.19142 -0.25237
 N64 N 0.81708 1.16523 -0.25402
 C65 C 0.82837 1.14520 -0.27825
 C66 C 0.85603 1.15945 -0.29248
 C67 C 0.86012 1.18891 -0.27538
 H68 H 0.81773 1.12160 -0.28465
 H69 H 0.87934 1.20699 -0.27896
 N70 N 0.74521 1.15543 -0.19022
 N71 N 0.74225 1.17685 -0.16603
 C72 C 0.71693 1.16770 -0.14674
 C73 C 0.70336 1.13912 -0.15927
 C74 C 0.72186 1.13207 -0.18691
 H75 H 0.70938 1.18037 -0.12473
 H76 H 0.71909 1.11110 -0.20306
 H77 H 0.80437 1.18356 -0.18823
 H78 H 0.77128 1.20635 -0.20790
 N79 N 0.18246 0.74244 -0.18080
 N80 N 0.16009 0.74132 -0.20230
 C81 C 0.13790 0.71755 -0.19630
 C82 C 0.14686 0.70302 -0.16958
 C83 C 0.17532 0.71940 -0.16044
 H84 H 0.11637 0.71188 -0.20990
 H85 H 0.18918 0.71545 -0.13996
 Cu86 Cu 0.16087 0.77246 -0.23482
 Cu87 Cu 0.21772 0.77518 -0.17961
 Cu88 Cu 0.21927 0.83122 -0.23727
 N89 N 0.16206 0.80379 -0.26717
 N90 N 0.18492 0.82677 -0.26799
 C91 C 0.17911 0.84597 -0.29160
 C92 C 0.15097 0.83453 -0.30633
 C93 C 0.14090 0.80759 -0.29021
 H94 H 0.19375 0.86721 -0.29718
 H95 H 0.11934 0.79237 -0.29432
 N96 N 0.25185 0.83159 -0.20414
 N97 N 0.25134 0.81014 -0.18233
 C98 C 0.27568 0.81757 -0.16253
 C99 C 0.29224 0.84504 -0.17219
 C100 C 0.27652 0.85326 -0.19870
 H101 H 0.28049 0.80458 -0.14198
 H102 H 0.28204 0.87393 -0.21258
 H103 H 0.19179 0.81069 -0.20154
 H104 H 0.22008 0.78257 -0.22673
 C105 C 0.51943 1.04806 -0.01832
 H106 H 0.50124 1.05870 -0.00120
 C107 C 0.54115 1.06859 -0.03429
 H108 H 0.53850 1.09485 -0.02981
 C109 C 0.54513 1.00103 -0.04452
 H110 H 0.54683 0.97459 -0.04792
 C111 C 0.56733 1.02064 -0.06104
 H112 H 0.58606 1.00905 -0.07722
 N113 N 0.52176 1.01493 -0.02366
 C114 C 0.46535 1.00818 0.05946
 H115 H 0.48324 0.99184 0.06883
 C116 C 0.44233 1.02574 0.07965
 H117 H 0.44337 1.02324 0.10447
 C118 C 0.44207 1.03102 0.01580
 H119 H 0.44192 1.03257 -0.00920
 C120 C 0.41885 1.04928 0.03514
 H121 H 0.40084 1.06489 0.02484
 Zn122 Zn 0.49480 0.98668 0.00011
 N123 N 0.46497 1.01129 0.02818
 C124 C 0.54570 0.97751 0.04102
 N125 N 0.52436 0.96105 0.02214
 C126 C 0.52523 0.92773 0.01845
 C127 C 0.54796 0.90961 0.03455
 C128 C 0.56871 0.96041 0.05760
 C129 C 0.46861 0.96151 -0.05706
 C130 C 0.44704 0.94225 -0.07498
 C131 C 0.42450 0.91974 -0.02782
 C132 C 0.44640 0.93944 -0.01085
 N133 N 0.46802 0.95960 -0.02560
 H134 H 0.54478 1.00404 0.04317
 H135 H 0.50846 0.91510 0.00293
 H136 H 0.54768 0.88311 0.03171
 H137 H 0.58547 0.97405 0.07248
 H138 H 0.48536 0.97832 -0.06828
 H139 H 0.44777 0.94415 -0.09999
 H140 H 0.40700 0.90460 -0.01532
 H141 H 0.44590 0.93903 0.01427
 C142 C 0.41862 1.04658 0.06750
 C143 C 0.56588 1.05491 -0.05568
 C144 C 0.42469 0.92088 -0.06040
 C145 C 0.57021 0.92598 0.05439
 C146 C -0.01158 0.55229 1.04403
 H147 H 0.01539 0.55311 1.04582
 C148 C -0.03218 0.57460 1.06200
 H149 H -0.02082 0.59255 1.07765
 C150 C -0.05888 0.52853 1.02055
 H151 H -0.06914 0.51087 1.00400
 C152 C -0.08043 0.55052 1.03795
 H153 H -0.10719 0.54887 1.03509
 N154 N -0.02514 0.52982 1.02386
 C155 C 0.05334 0.45483 1.00762
 H156 H 0.05616 0.45439 0.98248
 C157 C 0.07228 0.43335 1.02401
 H158 H 0.08941 0.41626 1.01113
 C159 C 0.02595 0.47650 1.05449
 H160 H 0.00737 0.49286 1.06622
 C161 C 0.04421 0.45525 1.07181
 H162 H 0.03982 0.45584 1.09685
 Zn163 Zn 0.00496 0.50261 0.99849
 N164 N 0.03097 0.47604 1.02299
 C165 C 0.06660 0.53099 0.97763
 N166 N 0.03267 0.53074 0.97536
 C167 C 0.01700 0.55185 0.95737
 C168 C 0.03559 0.57391 0.94019
 C169 C 0.08619 0.55279 0.96093
 C170 C -0.03869 0.45126 0.98490
 C171 C -0.05573 0.42827 0.96645
 C172 C -0.03127 0.45200 0.92066
 C173 C -0.01466 0.47452 0.94002
 N174 N -0.01874 0.47385 0.97152
 H175 H 0.07856 0.51450 0.99254
 H176 H -0.01008 0.55151 0.95641
 H177 H 0.02256 0.59052 0.92602
 H178 H 0.11318 0.55209 0.96266
 H179 H -0.04110 0.45097 1.01002
 H180 H -0.07125 0.41034 0.97765
 H181 H -0.02804 0.45352 0.89571
 H182 H 0.00175 0.49226 0.92978
 C183 C 0.06788 0.43342 1.05659
 C184 C -0.06707 0.57424 1.05878
 C185 C -0.05191 0.42818 0.93383
 C186 C 0.07066 0.57475 0.94195
 C187 C 1.07980 -0.02373 0.52297
 H188 H 1.09219 -0.00759 0.50718
 C189 C 1.09879 -0.04056 0.54353
 H190 H 1.12577 -0.03776 0.54260
 C191 C 1.02963 -0.04666 0.54340
 H192 H 1.00256 -0.04842 0.54350
 C193 C 1.04761 -0.06397 0.56428
 H194 H 1.03408 -0.07910 0.58037
 N195 N 1.04586 -0.02702 0.52332
 C196 C 1.04307 0.05778 0.47441
 H197 H 1.02586 0.07015 0.49146
 C198 C 1.06165 0.07610 0.45334
 H199 H 1.05885 0.10256 0.45470
 C200 C 1.06654 0.00830 0.45100
 H201 H 1.06765 -0.01823 0.44984
 C202 C 1.08551 0.02557 0.42953
 H203 H 1.10074 0.01182 0.41176
 Zn204 Zn 1.01896 -0.00208 0.49821
 N205 N 1.04589 0.02450 0.47286
 C206 C 1.00256 0.04452 0.54719
 N207 N 0.98920 0.02342 0.52561
 C208 C 0.95551 0.01846 0.52538
 C209 C 0.93385 0.03484 0.54763
 C210 C 0.98177 0.06152 0.56982
 C211 C 0.99750 -0.06291 0.46973
 C212 C 0.97971 -0.08220 0.44836
 C213 C 0.95633 -0.03266 0.42961
 C214 C 0.97471 -0.01439 0.45112
 N215 N 0.99446 -0.02964 0.47086
 H216 H 1.02950 0.04755 0.54722
 H217 H 0.94536 0.00109 0.50853
 H218 H 0.90715 0.03052 0.54687
 H219 H 0.99293 0.07775 0.58716
 H220 H 1.01394 -0.07454 0.48515
 H221 H 0.98241 -0.10864 0.44794
 H222 H 0.94078 -0.01983 0.41420
 H223 H 0.97327 0.01213 0.45216
 C224 C 1.08323 0.06001 0.43046
 C225 C 1.08263 -0.06070 0.56488
 C226 C 0.95866 -0.06709 0.42792
 C227 C 0.94698 0.05628 0.57061
 C228 C 0.11986 0.36486 1.10760
 C229 C 0.08765 0.37623 1.11760
 N230 N 0.07251 0.36445 1.14347
 C231 C 0.08803 0.34159 1.15975
 C232 C 0.12033 0.32980 1.14965
 N233 N 0.13538 0.34206 1.12378
 N234 N 0.13497 0.37650 1.08165
 C235 C 0.11915 0.39879 1.06498
 C236 C 0.08656 0.40998 1.07462
 N237 N 0.07180 0.39848 1.10100
 H238 H 0.07505 0.33277 1.18017
 H239 H 0.13209 0.40781 1.04461
 C240 C -0.12701 0.64738 1.10944
 C241 C -0.09755 0.63537 1.12151
 N242 N -0.08756 0.64793 1.14942
 C243 C -0.10559 0.67218 1.16576
 C244 C -0.13491 0.68469 1.15353
 N245 N -0.14488 0.67177 1.12559
 N246 N -0.13692 0.63490 1.08148
 C247 C -0.11865 0.61097 1.06493
 C248 C -0.08883 0.59899 1.07677
 N249 N -0.07913 0.61169 1.10491
 H250 H -0.09676 0.68177 1.18781
 H251 H -0.12691 0.60218 1.04240
 C252 C -0.10180 0.35535 0.87925
 C253 C -0.11430 0.36567 0.90923
 N254 N -0.14245 0.35179 0.92129
 C255 C -0.15865 0.32788 0.90475
 C256 C -0.14607 0.31724 0.87471
 N257 N -0.11788 0.33145 0.86272
 N258 N -0.07347 0.36903 0.86733
 C259 C -0.05704 0.39266 0.88402
 C260 C -0.06947 0.40321 0.91421
 N261 N -0.09790 0.38918 0.92595
 H262 H -0.18098 0.31734 0.91509
 H263 H -0.03411 0.40236 0.87399
 C264 C 0.12508 0.64404 0.89047
 C265 C 0.09495 0.63098 0.88000
 N266 N 0.08258 0.64104 0.85327
 C267 C 0.09891 0.66379 0.83656
 C268 C 0.12899 0.67731 0.84714
 N269 N 0.14133 0.66690 0.87392
 N270 N 0.13733 0.63405 0.91729
 C271 C 0.12078 0.61154 0.93417
 C272 C 0.09037 0.59844 0.92386
 N273 N 0.07831 0.60870 0.89690
 H274 H 0.08824 0.67132 0.81546
 H275 H 0.13093 0.60470 0.95576
 C276 C 1.13170 0.11252 0.35928
 C277 C 1.10280 0.12523 0.37562
 N278 N 1.08922 0.15395 0.36754
 C279 C 1.10297 0.17034 0.34351
 C280 C 1.13148 0.15715 0.32637
 N281 N 1.14521 0.12859 0.33509
 N282 N 1.14543 0.08393 0.36741
 C283 C 1.13114 0.06702 0.39077
 C284 C 1.10132 0.07898 0.40659
 N285 N 1.08824 0.10820 0.39874
 H286 H 1.09121 0.19298 0.33765
 H287 H 1.14306 0.04452 0.39678
 C288 C 1.13380 -0.10872 0.63395
 C289 C 1.10422 -0.12155 0.62205
 N290 N 1.09107 -0.14917 0.63347
 C291 C 1.10600 -0.16447 0.65650
 C292 C 1.13548 -0.15141 0.66900
 N293 N 1.14865 -0.12382 0.65709
 N294 N 1.14678 -0.08094 0.62266
 C295 C 1.13144 -0.06530 0.60005
 C296 C 1.10149 -0.07790 0.58817
 N297 N 1.08875 -0.10586 0.59966
 H298 H 1.09458 -0.18634 0.66499
 H299 H 1.14208 -0.04277 0.59224
 C300 C 0.90283 -0.11998 0.35981
 C301 C 0.89557 -0.08733 0.36876
 N302 N 0.87046 -0.07153 0.35533
 C303 C 0.85234 -0.08712 0.33306
 C304 C 0.85983 -0.12015 0.32354
 N305 N 0.88505 -0.13576 0.33743
 N306 N 0.92899 -0.13593 0.37433
 C307 C 0.94789 -0.11986 0.39700
 C308 C 0.93939 -0.08660 0.40473
 N309 N 0.91387 -0.07167 0.39064
 H310 H 0.83262 -0.07358 0.32290
 H311 H 0.94232 -0.14151 0.38305
 C312 C 0.88576 0.10160 0.64446
 C313 C 0.91454 0.11714 0.63288
 N314 N 0.92321 0.14678 0.64586
 C315 C 0.90447 0.16156 0.67005
 C316 C 0.87571 0.14584 0.68209
 N317 N 0.86719 0.11617 0.66872
 N318 N 0.87707 0.07196 0.63159
 C319 C 0.89589 0.05706 0.60758
 C320 C 0.92497 0.07243 0.59586
 N321 N 0.93354 0.10220 0.60904
 H322 H 0.91230 0.18511 0.67979
 H323 H 0.88860 0.03308 0.59840
 C324 C 0.34561 1.10047 0.12482
 C325 C 0.35951 1.11326 0.09763
 N326 N 0.34910 1.14310 0.08928
 C327 C 0.32523 1.16072 0.10683
 C328 C 0.31082 1.14779 0.13389
 N329 N 0.32154 1.11788 0.14218
 N330 N 0.35606 1.07066 0.13320
 C331 C 0.37981 1.05297 0.11557
 C332 C 0.39365 1.06553 0.08806
 N333 N 0.38295 1.09549 0.07984
 H334 H 0.31734 1.18429 0.09935
 H335 H 0.38711 1.02902 0.12261
 C336 C 0.63831 1.11297 -0.10170
 C337 C 0.62791 1.08306 -0.11552
 N338 N 0.64174 1.07219 -0.14371
 C339 C 0.66569 1.08982 -0.15864
 C340 C 0.67649 1.11970 -0.14468
 N341 N 0.66231 1.13050 -0.11648
 N342 N 0.62470 1.12375 -0.07344
 C343 C 0.60109 1.10597 -0.05830
 C344 C 0.59055 1.07579 -0.07197
 N345 N 0.60447 1.06516 -0.10037
 H346 H 0.67627 1.08036 -0.18099
 H347 H 0.59145 1.11500 -0.03547
 C348 C 0.35413 0.86674 -0.11284
 C349 C 0.36718 0.89618 -0.12315
 N350 N 0.35627 0.90808 -0.14974
 C351 C 0.33265 0.89197 -0.16639
 C352 C 0.31910 0.86264 -0.15587
 N353 N 0.33044 0.85075 -0.12932
 N354 N 0.36502 0.85480 -0.08630
 C355 C 0.38807 0.87123 -0.06926
 C356 C 0.40075 0.90127 -0.07905
 N357 N 0.39007 0.91273 -0.10609
 H358 H 0.32438 0.90225 -0.18734
 H359 H 0.39646 0.86073 -0.04845
 C360 C 0.64193 0.87605 0.10481
 C361 C 0.62854 0.90661 0.11593
 N362 N 0.63902 0.92084 0.14299
 C363 C 0.66251 0.90597 0.15942
 C364 C 0.67636 0.87544 0.14824
 N365 N 0.66552 0.86121 0.12112
 N366 N 0.63152 0.86197 0.07764
 C367 C 0.60828 0.87707 0.06104
 C368 C 0.59480 0.90787 0.07204
 N369 N 0.60550 0.92176 0.09933
 H370 H 0.67031 0.91810 0.18083
 H371 H 0.60116 0.86543 0.03916
   
