data_POSCAR
  _audit_creation_date              2014-09-24
  _audit_creation_method            'ToBaCCo'
  _symmetry_space_group_name_H-M    'P1'
  _symmetry_Int_Tables_number       1
  _symmetry_cell_setting            triclinic
  loop_
  _symmetry_equiv_pos_as_xyz
 x,y,z
_cell_length_a 43.2303
_cell_length_b 41.2942
_cell_length_c 42.3964
_cell_angle_alpha 90.013300
_cell_angle_beta 89.967300
_cell_angle_gamma 90.001700
loop_
  _atom_site_label
  _atom_site_type_symbol
  _atom_site_fract_x
  _atom_site_fract_y
  _atom_site_fract_z
C1 C 0.21538 0.52227 1.05856
 H2 H 0.23141 0.54223 1.05657
 C3 C 0.19419 0.52172 1.08344
 H4 H 0.19466 0.54126 1.10047
 C5 C 0.19464 0.47360 1.03793
 H6 H 0.19471 0.45524 1.01972
 C7 C 0.17305 0.47204 1.06237
 H8 H 0.15679 0.45209 1.06268
 N9 N 0.21523 0.49841 1.03646
 C10 C 0.26766 0.55997 0.97977
 H11 H 0.25169 0.55835 0.96024
 C12 C 0.28907 0.58533 0.98083
 H13 H 0.28906 0.60322 0.96217
 C14 C 0.28800 0.53788 1.02698
 H15 H 0.28774 0.51889 1.04455
 C16 C 0.30965 0.56282 1.02905
 H17 H 0.32588 0.56283 1.04849
 Zn18 Zn 0.24138 0.50026 1.00072
 N19 N 0.26754 0.53692 1.00268
 C20 C 0.19466 0.52674 0.96337
 N21 N 0.21534 0.50201 0.96492
 C22 C 0.21565 0.47810 0.94284
 C23 C 0.19455 0.47857 0.91790
 C24 C 0.17318 0.52818 0.93884
 C25 C 0.28816 0.46283 0.97451
 C26 C 0.30982 0.43790 0.97237
 C27 C 0.28916 0.41523 1.02050
 C28 C 0.26773 0.44058 1.02163
 N29 N 0.26764 0.46370 0.99878
 H30 H 0.19458 0.54512 0.98156
 H31 H 0.23170 0.45818 0.94490
 H32 H 0.19496 0.45909 0.90082
 H33 H 0.15675 0.54796 0.93830
 H34 H 0.28792 0.48187 0.95698
 H35 H 0.32608 0.43796 0.95294
 H36 H 0.28911 0.39727 1.03910
 H37 H 0.25171 0.44212 1.04114
 C38 C 0.31061 0.58685 1.00562
 C39 C 0.17231 0.49652 1.08551
 C40 C 0.31073 0.41379 0.99572
 C41 C 0.17274 0.50371 0.91581
 C42 C 0.79704 0.52637 -0.03955
 H43 H 0.79658 0.54622 -0.02290
 C44 C 0.81783 0.52691 -0.06476
 H45 H 0.83323 0.54741 -0.06747
 C46 C 0.77834 0.47492 -0.05540
 H47 H 0.76327 0.45447 -0.05134
 C48 C 0.79924 0.47415 -0.08053
 H49 H 0.79976 0.45321 -0.09590
 N50 N 0.77763 0.50078 -0.03553
 C51 C 0.70386 0.53639 0.02515
 H52 H 0.70394 0.51692 0.04222
 C53 C 0.68109 0.56023 0.02659
 H54 H 0.66382 0.55907 0.04507
 C55 C 0.72571 0.56063 -0.02037
 H56 H 0.74248 0.56012 -0.03924
 C57 C 0.70357 0.58534 -0.01951
 H58 H 0.70375 0.60381 -0.03764
 Zn59 Zn 0.75176 0.50021 0.00043
 N60 N 0.72539 0.53678 0.00178
 C61 C 0.77863 0.52530 0.05618
 N62 N 0.77775 0.49948 0.03627
 C63 C 0.79707 0.47381 0.04014
 C64 C 0.81794 0.47312 0.06525
 C65 C 0.79962 0.52593 0.08122
 C66 C 0.70366 0.46425 -0.02411
 C67 C 0.68084 0.44046 -0.02553
 C68 C 0.70338 0.41518 0.02043
 C69 C 0.72556 0.43985 0.02128
 N70 N 0.72524 0.46376 -0.00083
 H71 H 0.76362 0.54582 0.05223
 H72 H 0.79646 0.45399 0.02346
 H73 H 0.83326 0.45255 0.06785
 H74 H 0.80027 0.54684 0.09662
 H75 H 0.70374 0.48376 -0.04114
 H76 H 0.66355 0.44169 -0.04396
 H77 H 0.70357 0.39666 0.03850
 H78 H 0.74238 0.44028 0.04008
 C79 C 0.68056 0.58494 0.00389
 C80 C 0.81932 0.50039 -0.08542
 C81 C 0.68033 0.41567 -0.00290
 C82 C 0.81961 0.49960 0.08596
 C83 C -0.02311 0.29451 0.46061
 H84 H -0.04067 0.29416 0.47868
 C85 C -0.02532 0.31697 0.43610
 H86 H -0.04509 0.33307 0.43557
 C87 C 0.02460 0.27529 0.44072
 H88 H 0.04461 0.25989 0.44302
 C89 C 0.02335 0.29734 0.41577
 H90 H 0.04231 0.29783 0.39906
 N91 N 0.00140 0.27397 0.46240
 C92 C -0.02600 0.18450 0.49578
 H93 H -0.00286 0.17504 0.49396
 C94 C -0.05078 0.16292 0.49513
 H95 H -0.04620 0.13728 0.49245
 C96 C -0.06012 0.22879 0.50245
 H97 H -0.06374 0.25440 0.50584
 C98 C -0.08562 0.20791 0.50258
 H99 H -0.10865 0.21781 0.50545
 Zn100 Zn 0.00395 0.24551 0.49770
 N101 N -0.03093 0.21692 0.49872
 C102 C -0.01502 0.26729 0.55873
 N103 N 0.00483 0.27176 0.53421
 C104 C 0.02561 0.29645 0.53419
 C105 C 0.02663 0.31831 0.55924
 C106 C -0.01492 0.28875 0.58425
 C107 C 0.04613 0.20193 0.46954
 C108 C 0.07185 0.18160 0.46802
 C109 C 0.08711 0.20036 0.51968
 C110 C 0.06102 0.22036 0.52021
 N111 N 0.04098 0.22058 0.49548
 H112 H -0.03112 0.24729 0.55844
 H113 H 0.04111 0.29941 0.51435
 H114 H 0.04310 0.33804 0.55842
 H115 H -0.03117 0.28506 0.60336
 H116 H 0.02972 0.20227 0.45028
 H117 H 0.07506 0.16660 0.44734
 H118 H 0.10242 0.20012 0.53988
 H119 H 0.05643 0.23507 0.54077
 C120 C -0.08107 0.17455 0.49840
 C121 C -0.00182 0.31879 0.41318
 C122 C 0.09257 0.18029 0.49349
 C123 C 0.00592 0.31489 0.58457
 C124 C 0.97667 0.70590 0.53861
 H125 H 0.95915 0.70623 0.52052
 C126 C 0.97437 0.68353 0.56318
 H127 H 0.95466 0.66737 0.56391
 C128 C 1.02442 0.72504 0.55849
 H129 H 1.04449 0.74036 0.55616
 C130 C 1.02305 0.70306 0.58348
 H131 H 1.04189 0.70235 0.60028
 N132 N 1.00125 0.72638 0.53679
 C133 C 0.97406 0.81578 0.50314
 H134 H 0.99720 0.82522 0.50496
 C135 C 0.94929 0.83738 0.50376
 H136 H 0.95389 0.86301 0.50641
 C137 C 0.93991 0.77151 0.49651
 H138 H 0.93627 0.74590 0.49316
 C139 C 0.91442 0.79241 0.49635
 H140 H 0.89139 0.78253 0.49349
 Zn141 Zn 1.00395 0.75474 0.50143
 N142 N 0.96910 0.78335 0.50025
 C143 C 0.98515 0.73272 0.44045
 N144 N 1.00495 0.72838 0.46501
 C145 C 1.02575 0.70371 0.46515
 C146 C 1.02683 0.68172 0.44021
 C147 C 0.98530 0.71113 0.41503
 C148 C 1.04602 0.79832 0.52966
 C149 C 1.07173 0.81865 0.53123
 C150 C 1.08721 0.79984 0.47964
 C151 C 1.06112 0.77984 0.47904
 N152 N 1.04097 0.77965 0.50371
 H153 H 0.96903 0.75271 0.44064
 H154 H 1.04121 0.70085 0.48502
 H155 H 1.04330 0.66200 0.44114
 H156 H 0.96908 0.71471 0.39590
 H157 H 1.02953 0.79800 0.54887
 H158 H 1.07487 0.83367 0.55192
 H159 H 1.10260 0.80006 0.45949
 H160 H 1.05661 0.76511 0.45849
 C161 C 0.91900 0.82577 0.50050
 C162 C 0.99781 0.68183 0.58603
 C163 C 1.09257 0.81993 0.50583
 C164 C 1.00614 0.68500 0.41486
 C165 C 0.46790 -0.02451 0.29875
 H166 H 0.48580 -0.04282 0.29859
 C167 C 0.44381 -0.02638 0.32058
 H168 H 0.44335 -0.04637 0.33709
 C169 C 0.44744 0.02415 0.27773
 H170 H 0.44928 0.04414 0.26142
 C171 C 0.42292 0.02325 0.29920
 H172 H 0.40595 0.04253 0.29888
 N173 N 0.46921 0.00037 0.27780
 C174 C 0.52803 -0.03726 0.20289
 H175 H 0.54599 -0.01900 0.20290
 C176 C 0.52898 -0.06246 0.18099
 H177 H 0.54801 -0.06329 0.16439
 C178 C 0.48115 -0.05729 0.22425
 H179 H 0.46221 -0.05476 0.24069
 C180 C 0.48110 -0.08291 0.20272
 H181 H 0.46210 -0.09998 0.20332
 Zn182 Zn 0.50383 0.00162 0.25053
 N183 N 0.50441 -0.03513 0.22394
 C184 C 0.55854 -0.02373 0.27781
 N185 N 0.53942 0.00240 0.27647
 C186 C 0.54371 0.02840 0.29568
 C187 C 0.56840 0.02908 0.31688
 C188 C 0.58314 -0.02436 0.29915
 C189 C 0.47773 0.03931 0.20335
 C190 C 0.47521 0.06439 0.18148
 C191 C 0.52288 0.08684 0.20160
 C192 C 0.52452 0.06122 0.22309
 N193 N 0.50198 0.03822 0.22370
 H194 H 0.55421 -0.04456 0.26303
 H195 H 0.52763 0.04845 0.29479
 H196 H 0.57131 0.04989 0.33213
 H197 H 0.59787 -0.04554 0.30022
 H198 H 0.46044 0.02038 0.20396
 H199 H 0.45572 0.06458 0.16546
 H200 H 0.54118 0.10474 0.20132
 H201 H 0.54412 0.05945 0.23876
 C202 C 0.50512 -0.08568 0.18038
 C203 C 0.42093 -0.00221 0.32111
 C204 C 0.49804 0.08856 0.18029
 C205 C 0.58826 0.00228 0.31904
 C206 C 0.54380 -0.02901 0.70385
 H207 H 0.52778 -0.04912 0.70474
 C208 C 0.56852 -0.02962 0.68264
 H209 H 0.57150 -0.05042 0.66739
 C210 C 0.55846 0.02317 0.72170
 H211 H 0.55405 0.04399 0.73646
 C212 C 0.58308 0.02387 0.70036
 H213 H 0.59774 0.04511 0.69928
 N214 N 0.53941 -0.00303 0.72304
 C215 C 0.47759 -0.03989 0.79618
 H216 H 0.46029 -0.02097 0.79552
 C217 C 0.47508 -0.06489 0.81813
 H218 H 0.45558 -0.06504 0.83417
 C219 C 0.52442 -0.06181 0.77650
 H220 H 0.54404 -0.06008 0.76083
 C221 C 0.52279 -0.08736 0.79809
 H222 H 0.54111 -0.10523 0.79843
 Zn223 Zn 0.50377 -0.00226 0.74896
 N224 N 0.50187 -0.03884 0.77583
 C225 C 0.44735 -0.02469 0.72176
 N226 N 0.46919 -0.00098 0.72168
 C227 C 0.46796 0.02388 0.70072
 C228 C 0.44388 0.02584 0.67891
 C229 C 0.42284 -0.02372 0.70032
 C230 C 0.52791 0.03663 0.79660
 C231 C 0.52886 0.06191 0.81842
 C232 C 0.48111 0.08243 0.79658
 C233 C 0.48110 0.05674 0.77513
 N234 N 0.50432 0.03451 0.77552
 H235 H 0.44912 -0.04468 0.73809
 H236 H 0.48591 0.04214 0.70086
 H237 H 0.44349 0.04583 0.66240
 H238 H 0.40580 -0.04293 0.70067
 H239 H 0.54581 0.01832 0.79668
 H240 H 0.54776 0.06290 0.83513
 H241 H 0.46223 0.09965 0.79609
 H242 H 0.46218 0.05422 0.75869
 C243 C 0.49795 -0.08902 0.81942
 C244 C 0.58829 -0.00275 0.68046
 C245 C 0.50511 0.08513 0.81878
 C246 C 0.42092 0.00176 0.67841
 C247 C 0.28411 0.02213 0.44199
 H248 H 0.26808 0.04208 0.44399
 C249 C 0.30527 0.02155 0.41708
 H250 H 0.30492 0.04098 0.39994
 C251 C 0.30497 -0.02650 0.46265
 H252 H 0.30497 -0.04483 0.48088
 C253 C 0.32650 -0.02805 0.43815
 H254 H 0.34289 -0.04786 0.43767
 N255 N 0.28432 -0.00172 0.46411
 C256 C 0.21154 0.03765 0.47359
 H257 H 0.21180 0.01862 0.45605
 C258 C 0.18992 0.06260 0.47145
 H259 H 0.17370 0.06258 0.45200
 C260 C 0.23189 0.05985 0.52076
 H261 H 0.24786 0.05827 0.54029
 C262 C 0.21050 0.08522 0.51964
 H263 H 0.21052 0.10317 0.53826
 Zn264 Zn 0.25819 0.00012 0.49986
 N265 N 0.23200 0.03673 0.49789
 C266 C 0.30491 0.02667 0.53716
 N267 N 0.28424 0.00191 0.53564
 C268 C 0.28398 -0.02198 0.55772
 C269 C 0.30512 -0.02149 0.58262
 C270 C 0.32643 0.02813 0.56165
 C271 C 0.23193 -0.05958 0.47889
 C272 C 0.21054 -0.08496 0.47996
 C273 C 0.18983 -0.06238 0.52813
 C274 C 0.21146 -0.03742 0.52604
 N275 N 0.23198 -0.03649 0.50177
 H276 H 0.30495 0.04503 0.51896
 H277 H 0.26793 -0.04191 0.55569
 H278 H 0.30475 -0.04096 0.59971
 H279 H 0.34285 0.04792 0.56216
 H280 H 0.24795 -0.05799 0.45939
 H281 H 0.21061 -0.10289 0.46133
 H282 H 0.17356 -0.06237 0.54755
 H283 H 0.21167 -0.01840 0.54360
 C284 C 0.18898 0.08670 0.49483
 C285 C 0.32703 -0.00365 0.41506
 C286 C 0.18896 -0.08646 0.50474
 C287 C 0.32692 0.00367 0.58468
 C288 C 0.70300 0.02633 0.53961
 H289 H 0.70349 0.04618 0.52298
 C290 C 0.68220 0.02689 0.56481
 H291 H 0.66682 0.04740 0.56753
 C292 C 0.72164 -0.02513 0.55545
 H293 H 0.73670 -0.04560 0.55139
 C294 C 0.70074 -0.02588 0.58057
 H295 H 0.70019 -0.04683 0.59593
 N296 N 0.72239 0.00073 0.53559
 C297 C 0.79624 0.03624 0.47496
 H298 H 0.79617 0.01673 0.45792
 C299 C 0.81899 0.06009 0.47348
 H300 H 0.83625 0.05891 0.45500
 C301 C 0.77437 0.06056 0.52044
 H302 H 0.75758 0.06008 0.53929
 C303 C 0.79648 0.08529 0.51953
 H304 H 0.79629 0.10380 0.53762
 Zn305 Zn 0.74829 0.00012 0.49965
 N306 N 0.77470 0.03666 0.49832
 C307 C 0.72154 0.02526 0.44387
 N308 N 0.72234 -0.00056 0.46378
 C309 C 0.70299 -0.02621 0.45985
 C310 C 0.68218 -0.02687 0.43468
 C311 C 0.70062 0.02591 0.41878
 C312 C 0.79633 -0.03592 0.52419
 C313 C 0.81911 -0.05976 0.52560
 C314 C 0.79654 -0.08497 0.47962
 C315 C 0.77441 -0.06026 0.47877
 N316 N 0.77476 -0.03637 0.50090
 H317 H 0.73657 0.04576 0.44787
 H318 H 0.70352 -0.04602 0.47653
 H319 H 0.66684 -0.04742 0.43203
 H320 H 0.70004 0.04681 0.40338
 H321 H 0.79628 -0.01642 0.54124
 H322 H 0.83640 -0.05857 0.54404
 H323 H 0.79633 -0.10349 0.46153
 H324 H 0.75760 -0.05980 0.45996
 C325 C 0.81949 0.08487 0.49613
 C326 C 0.68068 0.00037 0.58546
 C327 C 0.81959 -0.08453 0.50295
 C328 C 0.68061 -0.00040 0.41397
 C329 C 0.47415 0.20402 1.03475
 H330 H 0.45868 0.20114 1.01490
 C331 C 0.47315 0.18200 1.05967
 H332 H 0.45673 0.16223 1.05872
 C333 C 0.51470 0.23311 1.05946
 H334 H 0.53078 0.25314 1.05928
 C335 C 0.51463 0.21150 1.08484
 H336 H 0.53087 0.21510 1.10396
 N337 N 0.49489 0.22874 1.03491
 C338 C 0.45371 0.29870 0.97038
 H339 H 0.47017 0.29842 0.95115
 C340 C 0.42798 0.31901 0.96888
 H341 H 0.42481 0.33406 0.94822
 C342 C 0.43868 0.28014 1.02098
 H343 H 0.44323 0.26538 1.04151
 C344 C 0.41259 0.30012 1.02046
 H345 H 0.39722 0.30031 1.04064
 Zn346 Zn 0.49584 0.25511 0.99850
 N347 N 0.45880 0.28000 0.99629
 C348 C 0.47542 0.22544 0.94137
 N349 N 0.49854 0.22675 0.96313
 C350 C 0.52309 0.20622 0.96139
 C351 C 0.52541 0.18382 0.93682
 C352 C 0.47681 0.20343 0.91639
 C353 C 0.52575 0.31615 0.99678
 C354 C 0.55053 0.33773 0.99618
 C355 C 0.58537 0.29274 1.00359
 C356 C 0.55987 0.27186 1.00341
 N357 N 0.53068 0.28372 0.99967
 H358 H 0.45538 0.24080 0.94364
 H359 H 0.54055 0.20652 0.97952
 H360 H 0.54509 0.16763 0.93616
 H361 H 0.45802 0.20275 0.89953
 H362 H 0.50261 0.32560 0.99495
 H363 H 0.54595 0.36337 0.99354
 H364 H 0.60839 0.28285 1.00645
 H365 H 0.56349 0.24625 1.00675
 C366 C 0.40718 0.32025 0.99431
 C367 C 0.49386 0.18530 1.08499
 C368 C 0.58081 0.32610 0.99945
 C369 C 0.50203 0.18215 0.91391
 C370 C 0.47422 0.79627 -0.03441
 H371 H 0.45874 0.79923 -0.01455
 C372 C 0.47321 0.81816 -0.05942
 H373 H 0.45676 0.83791 -0.05856
 C374 C 0.51481 0.76710 -0.05901
 H375 H 0.53091 0.74709 -0.05875
 C376 C 0.51472 0.78859 -0.08450
 H377 H 0.53097 0.78492 -0.10361
 N378 N 0.49498 0.77157 -0.03447
 C379 C 0.45383 0.70175 0.03032
 H380 H 0.47032 0.70206 0.04951
 C381 C 0.42808 0.68146 0.03193
 H382 H 0.42493 0.66646 0.05261
 C383 C 0.43875 0.72023 -0.02028
 H384 H 0.44328 0.73495 -0.04083
 C385 C 0.41263 0.70027 -0.01965
 H386 H 0.39724 0.70007 -0.03978
 Zn387 Zn 0.49593 0.74533 0.00204
 N388 N 0.45889 0.72041 0.00437
 C389 C 0.47553 0.77507 0.05918
 N390 N 0.49860 0.77381 0.03732
 C391 C 0.52308 0.79445 0.03893
 C392 C 0.52539 0.81690 0.06344
 C393 C 0.47693 0.79712 0.08412
 C394 C 0.52590 0.68432 0.00390
 C395 C 0.55070 0.66277 0.00458
 C396 C 0.58551 0.70778 -0.00288
 C397 C 0.55998 0.72864 -0.00278
 N398 N 0.53080 0.71675 0.00096
 H399 H 0.45554 0.75963 0.05702
 H400 H 0.54049 0.79418 0.02072
 H401 H 0.54502 0.83317 0.06400
 H402 H 0.45818 0.79776 0.10105
 H403 H 0.50276 0.67484 0.00573
 H404 H 0.54615 0.63713 0.00728
 H405 H 0.60852 0.71770 -0.00574
 H406 H 0.56358 0.75425 -0.00617
 C407 C 0.40724 0.68021 0.00655
 C408 C 0.49392 0.81476 -0.08476
 C409 C 0.58098 0.67443 0.00132
 C410 C 0.50207 0.81851 0.08646
 C411 C 1.03277 0.47538 0.20079
 H412 H 1.01488 0.45706 0.20094
 C413 C 1.05686 0.47354 0.17894
 H414 H 1.05732 0.45356 0.16242
 C415 C 1.05320 0.52405 0.22183
 H416 H 1.05134 0.54404 0.23816
 C417 C 1.07771 0.52318 0.20035
 H418 H 1.09466 0.54247 0.20068
 N419 N 1.03144 0.50025 0.22176
 C420 C 0.97252 0.46267 0.29662
 H421 H 0.95460 0.48096 0.29662
 C422 C 0.97153 0.43744 0.31848
 H423 H 0.95258 0.43648 0.33517
 C424 C 1.01941 0.44255 0.27528
 H425 H 1.03839 0.44505 0.25887
 C426 C 1.01937 0.41693 0.29680
 H427 H 1.03827 0.39973 0.29639
 Zn428 Zn 0.99679 0.50150 0.24900
 N429 N 0.99618 0.46475 0.27558
 C430 C 0.94208 0.47615 0.22171
 N431 N 0.96121 0.50228 0.22304
 C432 C 0.95691 0.52826 0.20384
 C433 C 0.93218 0.52896 0.18269
 C434 C 0.91744 0.47553 0.20042
 C435 C 1.02283 0.53924 0.29622
 C436 C 1.02527 0.56430 0.31813
 C437 C 0.97757 0.58666 0.29799
 C438 C 0.97601 0.56105 0.27646
 N439 N 0.99859 0.53811 0.27585
 H440 H 0.94642 0.45532 0.23648
 H441 H 0.97299 0.54832 0.20472
 H442 H 0.92925 0.54978 0.16746
 H443 H 0.90270 0.45436 0.19937
 H444 H 1.04016 0.52034 0.29562
 H445 H 1.04474 0.56452 0.33418
 H446 H 0.95923 0.60451 0.29828
 H447 H 0.95642 0.55925 0.26078
 C448 C 0.99531 0.41426 0.31896
 C449 C 1.07971 0.49773 0.17842
 C450 C 1.00237 0.58841 0.31935
 C451 C 0.91230 0.50218 0.18055
 C452 C -0.04380 0.47091 0.79623
 H453 H -0.02778 0.45081 0.79535
 C454 C -0.06853 0.47032 0.81742
 H455 H -0.07152 0.44952 0.83267
 C456 C -0.05845 0.52308 0.77836
 H457 H -0.05404 0.54390 0.76360
 C458 C -0.08308 0.52380 0.79969
 H459 H -0.09774 0.54503 0.80075
 N460 N -0.03941 0.49689 0.77703
 C461 C 0.02247 0.45999 0.70396
 H462 H 0.03979 0.47889 0.70464
 C463 C 0.02496 0.43500 0.68197
 H464 H 0.04447 0.43484 0.66594
 C465 C -0.02440 0.43810 0.72358
 H466 H -0.04403 0.43985 0.73924
 C467 C -0.02279 0.41257 0.70196
 H468 H -0.04113 0.39472 0.70158
 Zn469 Zn -0.00375 0.49765 0.75114
 N470 N -0.00183 0.46106 0.72429
 C471 C 0.05265 0.47528 0.77841
 N472 N 0.03081 0.49898 0.77845
 C473 C 0.03200 0.52388 0.79939
 C474 C 0.05604 0.52585 0.82125
 C475 C 0.07712 0.47628 0.79991
 C476 C -0.02791 0.53644 0.70347
 C477 C -0.02889 0.56170 0.68163
 C478 C 0.01884 0.58230 0.70345
 C479 C 0.01887 0.55664 0.72493
 N480 N -0.00432 0.53439 0.72455
 H481 H 0.05091 0.45527 0.76210
 H482 H 0.01405 0.54213 0.79920
 H483 H 0.05640 0.54586 0.83775
 H484 H 0.09415 0.45706 0.79961
 H485 H -0.04580 0.51812 0.70341
 H486 H -0.04779 0.56264 0.66491
 H487 H 0.03769 0.59955 0.70393
 H488 H 0.03780 0.55417 0.74137
 C489 C 0.00206 0.41090 0.68063
 C490 C -0.08830 0.49719 0.81958
 C491 C -0.00517 0.58495 0.68125
 C492 C 0.07899 0.50177 0.82181
 N493 N 0.12242 0.13608 0.46888
 C494 C 0.11878 0.15712 0.49322
 N495 N 0.13889 0.15547 0.51779
 N496 N 0.16150 0.13353 0.51810
 C497 C 0.16491 0.11227 0.49388
 N498 N 0.14497 0.11413 0.46921
 N499 N 0.65818 0.63792 -0.01104
 C500 C 0.65515 0.60893 0.00382
 N501 N 0.62783 0.60185 0.01802
 N502 N 0.60441 0.62273 0.01724
 C503 C 0.60737 0.65170 0.00243
 N504 N 0.63480 0.65898 -0.01157
 N505 N 0.89566 -0.12244 0.51631
 C506 C 0.89265 -0.15144 0.50156
 N507 N 0.86522 -0.15871 0.48760
 N508 N 0.84187 -0.13759 0.48810
 C509 C 0.84496 -0.10856 0.50289
 N510 N 0.87229 -0.10150 0.51706
 N511 N 0.33818 0.36695 1.01894
 C512 C 0.33481 0.38824 0.99475
 N513 N 0.35481 0.38642 0.97010
 N514 N 0.37737 0.36448 0.96975
 C515 C 0.38096 0.34341 0.99406
 N516 N 0.36080 0.34501 1.01861
 N517 N 0.89556 0.12278 0.48260
 C518 C 0.89256 0.15178 0.49737
 N519 N 0.86515 0.15904 0.51140
 N520 N 0.84180 0.13793 0.51094
 C521 C 0.84486 0.10890 0.49613
 N522 N 0.87217 0.10185 0.48190
 N523 N 0.35476 0.61422 0.03108
 C524 C 0.33473 0.61237 0.00647
 N525 N 0.33813 0.63357 -0.01779
 N526 N 0.36079 0.65546 -0.01757
 C527 C 0.38098 0.65710 0.00693
 N528 N 0.37736 0.63610 0.03131
 N529 N 0.12232 -0.13586 0.53052
 C530 C 0.11877 -0.15690 0.50617
 N531 N 0.13896 -0.15524 0.48165
 N532 N 0.16157 -0.13329 0.48139
 C533 C 0.16489 -0.11203 0.50563
 N534 N 0.14487 -0.11391 0.53025
 N535 N 0.65798 0.36264 1.01190
 C536 C 0.65493 0.39169 0.99714
 N537 N 0.62760 0.39880 0.98299
 N538 N 0.60420 0.37789 0.98371
 C539 C 0.60718 0.34887 0.99843
 N540 N 0.63460 0.34156 1.01238
 N541 N 0.47389 0.11429 1.13393
 C542 C 0.49639 0.11460 1.15626
 N543 N 0.51773 0.13876 1.15549
 N544 N 0.51670 0.16148 1.13319
 C545 C 0.49432 0.16098 1.11071
 N546 N 0.47289 0.13695 1.11163
 N547 N -0.02729 0.63592 0.61321
 C548 C -0.00350 0.65734 0.61157
 N549 N 0.01944 0.65526 0.63337
 N550 N 0.01873 0.63257 0.65569
 C551 C -0.00495 0.61100 0.65719
 N552 N -0.02799 0.61324 0.63553
 N553 N 0.47383 0.88545 -0.13406
 C554 C 0.49633 0.88506 -0.15642
 N555 N 0.51771 0.86095 -0.15554
 N556 N 0.51672 0.83835 -0.13312
 C557 C 0.49434 0.83894 -0.11060
 N558 N 0.47287 0.86292 -0.11164
 N559 N 0.97307 0.36332 0.38700
 C560 C 0.99699 0.34203 0.38891
 N561 N 1.02002 0.34424 0.36716
 N562 N 1.01932 0.36685 0.34476
 C563 C 0.99553 0.38826 0.34308
 N564 N 0.97237 0.38593 0.36462
 N565 N 0.52774 0.88742 0.13560
 C566 C 0.50486 0.88958 0.15751
 N567 N 0.48137 0.86772 0.15626
 N568 N 0.48065 0.84499 0.13397
 C569 C 0.50341 0.84306 0.11195
 N570 N 0.52704 0.86468 0.11333
 N571 N -0.01684 0.33841 0.63299
 C572 C 0.00554 0.33902 0.61047
 N573 N 0.02705 0.36296 0.61157
 N574 N 0.02613 0.38544 0.63405
 C575 C 0.00364 0.38503 0.65641
 N576 N -0.01778 0.36096 0.65547
 N577 N 0.48118 0.13280 0.84426
 C578 C 0.50486 0.11122 0.84282
 N579 N 0.52788 0.11349 0.86450
 N580 N 0.52715 0.13620 0.88679
 C581 C 0.50337 0.15763 0.88839
 N582 N 0.48045 0.15551 0.86657
 N583 N 0.98345 0.66119 0.36657
 C584 C 1.00579 0.66071 0.38909
 N585 N 1.02728 0.63675 0.38815
 N586 N 1.02639 0.61413 0.36580
 C587 C 1.00392 0.61442 0.34342
 N588 N 0.98252 0.63851 0.34421
 N589 N 1.12820 0.47235 0.11094
 C590 C 1.14976 0.49628 0.10949
 N591 N 1.14846 0.52037 0.13133
 N592 N 1.12649 0.52066 0.15338
 C593 C 1.10483 0.49687 0.15459
 N594 N 1.10624 0.47264 0.13297
 N595 N 0.62397 0.02672 0.64537
 C596 C 0.61329 -0.00195 0.65668
 N597 N 0.62531 -0.02983 0.64490
 N598 N 0.64710 -0.02908 0.62269
 C599 C 0.65753 -0.00041 0.61113
 N600 N 0.64556 0.02748 0.62294
 N601 N -0.14556 0.52746 0.87710
 C602 C -0.15755 0.49959 0.88891
 N603 N -0.14713 0.47091 0.87735
 N604 N -0.12534 0.47013 0.85513
 C605 C -0.11331 0.49801 0.84336
 N606 N -0.12398 0.52669 0.85467
 N607 N 0.37412 0.02067 0.34613
 C608 C 0.39578 -0.00313 0.34489
 N609 N 0.39433 -0.02741 0.36645
 N610 N 0.37232 -0.02777 0.38843
 C611 C 0.35078 -0.00387 0.38981
 N612 N 0.35209 0.02031 0.36812
 N613 N 0.12742 0.52763 0.88911
 C614 C 0.14903 0.50380 0.89054
 N615 N 0.14782 0.47957 0.86890
 N616 N 0.12583 0.47908 0.84690
 C617 C 0.10410 0.50281 0.84560
 N618 N 0.10545 0.52715 0.86712
 N619 N 0.62519 0.02953 0.35452
 C620 C 0.61325 0.00159 0.34281
 N621 N 0.62400 -0.02703 0.35416
 N622 N 0.64558 -0.02768 0.37657
 C623 C 0.65748 0.00026 0.38832
 N624 N 0.64698 0.02888 0.37672
 N625 N 0.85341 0.52884 0.12309
 C626 C 0.84283 0.50023 0.11152
 N627 N 0.85474 0.47228 0.12323
 N628 N 0.87640 0.47291 0.14556
 C629 C 0.88723 0.50151 0.15687
 N630 N 0.87528 0.52947 0.14520
 N631 N 0.39435 0.02712 0.63318
 C632 C 0.39575 0.00279 0.65469
 N633 N 0.37402 -0.02094 0.65345
 N634 N 0.35197 -0.02046 0.63151
 C635 C 0.35070 0.00377 0.60988
 N636 N 0.37231 0.02760 0.61126
   
