data_POSCAR
  _audit_creation_date              2014-09-24
  _audit_creation_method            'ToBaCCo'
  _symmetry_space_group_name_H-M    'P1'
  _symmetry_Int_Tables_number       1
  _symmetry_cell_setting            triclinic
  loop_
  _symmetry_equiv_pos_as_xyz
 x,y,z
_cell_length_a 20.9482
_cell_length_b 22.1841
_cell_length_c 20.7155
_cell_angle_alpha 85.683900
_cell_angle_beta 91.087900
_cell_angle_gamma 93.012400
loop_
  _atom_site_label
  _atom_site_type_symbol
  _atom_site_fract_x
  _atom_site_fract_y
  _atom_site_fract_z
C1 C 0.15031 0.15039 0.20358
 N2 N 0.12127 0.19994 0.17736
 C3 C 0.15600 0.24588 0.14553
 N4 N 0.21959 0.24154 0.13845
 C5 C 0.24849 0.19151 0.16306
 N6 N 0.21408 0.14581 0.19579
 C7 C -0.16985 0.80485 0.26136
 N8 N -0.20547 0.85072 0.23597
 C9 C -0.22632 0.85172 0.17321
 N10 N -0.20962 0.80751 0.13559
 C11 C -0.17492 0.76106 0.16105
 N12 N -0.15527 0.75994 0.22400
 C13 C -0.11393 0.11933 -0.20664
 N14 N -0.17766 0.10628 -0.21261
 C15 C -0.21967 0.13462 -0.17840
 N16 N -0.19828 0.17847 -0.13999
 C17 C -0.13440 0.19145 -0.13335
 N18 N -0.09230 0.16165 -0.16660
 C19 C 0.17936 0.86674 -0.19932
 N20 N 0.13337 0.82124 -0.19037
 C21 C 0.12148 0.79650 -0.12932
 N22 N 0.15669 0.81630 -0.07864
 C23 C 0.20333 0.86045 -0.08862
 N24 N 0.21430 0.88568 -0.14870
 C25 C 0.14772 1.16994 0.75118
 N26 N 0.11679 1.21991 0.76417
 C27 C 0.11762 1.23998 0.82485
 N28 N 0.15128 1.21007 0.87284
 C29 C 0.18251 1.15990 0.86087
 N30 N 0.18184 1.14107 0.79950
 C31 C 0.85209 0.84157 0.79946
 N32 N 0.80535 0.87889 0.81238
 C33 C 0.75077 0.85591 0.84118
 N34 N 0.74406 0.79585 0.85887
 C35 C 0.79145 0.75896 0.84751
 N36 N 0.84545 0.78167 0.81774
 C37 C 0.15588 0.81739 1.22617
 N38 N 0.13398 0.77915 1.18210
 C39 C 0.16660 0.77359 1.12743
 N40 N 0.22206 0.80693 1.11683
 C41 C 0.24404 0.84658 1.16035
 N42 N 0.21134 0.85120 1.21580
 C43 C 0.87947 1.09679 1.20005
 N44 N 0.84717 1.08253 1.14587
 C45 C 0.84344 1.12285 1.09375
 N46 N 0.87247 1.17878 1.09614
 C47 C 0.90752 1.19289 1.14913
 N48 N 0.90905 1.15254 1.20189
 O49 O 0.46219 1.16654 1.10795
 O50 O 0.37170 1.10891 1.08510
 C51 C 0.40164 1.15373 1.11214
 O52 O 0.56014 1.10880 0.84290
 O53 O 0.64185 1.06363 0.89995
 C54 C 0.61914 1.09469 0.84985
 O55 O 0.39339 1.12558 0.88904
 O56 O 0.33689 1.08677 0.97787
 C57 C 0.34118 1.11662 0.92114
 O58 O 0.63070 1.14824 1.06587
 O59 O 0.67498 1.08017 1.00417
 C60 C 0.67919 1.12468 1.04118
 Zr61 Zr 0.53192 1.12368 1.05977
 O62 O 0.54207 1.21504 1.02182
 O63 O 0.56102 1.15112 1.15173
 Zr64 Zr 0.48447 1.09385 0.90879
 O65 O 0.49837 1.18752 0.88160
 O66 O 0.44941 1.07704 0.81500
 O67 O 0.45404 1.12524 0.99531
 O68 O 0.56221 1.11565 0.96700
 O69 O 0.61742 0.94783 1.12615
 O70 O 0.66865 0.98622 1.03396
 C71 C 0.66865 0.95912 1.09148
 O72 O 0.37593 0.91016 0.96789
 O73 O 0.33022 0.98554 1.01856
 C74 C 0.32783 0.93332 0.99480
 O75 O 0.54727 0.90055 0.91037
 O76 O 0.63457 0.96370 0.92960
 C77 C 0.60781 0.91619 0.90590
 O78 O 0.43815 0.94290 1.16022
 O79 O 0.36082 1.00082 1.11130
 C80 C 0.37919 0.95834 1.15276
 Zr81 Zr 0.52103 0.97360 1.10608
 O82 O 0.52451 0.88046 1.13566
 O83 O 0.54030 0.99448 1.20283
 Zr84 Zr 0.47265 0.94462 0.95377
 O85 O 0.46284 0.84944 0.97118
 O86 O 0.43649 0.93407 0.85884
 Zr87 Zr 0.41149 1.04184 1.03163
 Zr88 Zr 0.59280 1.02706 0.98312
 O89 O 0.54908 0.94418 1.01932
 O90 O 0.44291 0.95257 1.04727
 O91 O 0.58371 1.04686 1.08048
 O92 O 0.42181 1.02103 0.93491
 O93 O 0.47673 1.05448 1.10855
 O94 O 0.52945 1.01260 0.90489
 H95 H 0.59304 1.14801 0.94969
 H96 H 0.38283 1.01479 0.90788
 H97 H 0.57514 0.90807 1.02359
 H98 H 0.45934 1.06124 1.15141
 H99 H 0.47232 1.04271 0.80057
 H100 H 0.47312 0.93849 0.82910
 H101 H 0.49297 0.83784 1.00666
 H102 H 0.48954 0.85929 1.11218
 H103 H 0.58331 1.01513 1.20388
 H104 H 0.55926 1.11429 1.18167
 H105 H 0.49874 1.23042 1.01532
 H106 H 0.46987 1.20938 0.90823
 O107 O 0.03307 0.60908 -0.15955
 O108 O -0.01755 0.66216 -0.08647
 C109 C 0.01732 0.65938 -0.13715
 O110 O -0.15443 0.38984 -0.08326
 O111 O -0.06604 0.34121 -0.04473
 C112 C -0.12213 0.34176 -0.07203
 O113 O -0.18522 0.55303 -0.09832
 O114 O -0.12483 0.63466 -0.06474
 C115 C -0.17514 0.61030 -0.09290
 O116 O 0.06572 0.44472 -0.15280
 O117 O 0.03912 0.36575 -0.07847
 C118 C 0.06588 0.38823 -0.13209
 Zr119 Zr 0.02242 0.51845 -0.11717
 O120 O -0.01541 0.51018 -0.21183
 O121 O 0.11314 0.54218 -0.15709
 Zr122 Zr -0.12798 0.48139 -0.06826
 O123 O -0.15729 0.47163 -0.16544
 O124 O -0.22315 0.46501 -0.03621
 O125 O -0.06706 0.55254 -0.10742
 O126 O -0.04576 0.44824 -0.10219
 O127 O 0.12781 0.44591 0.06593
 O128 O 0.06505 0.36758 0.02892
 C129 C 0.11463 0.38863 0.05943
 O130 O -0.10859 0.56688 0.12917
 O131 O -0.09218 0.64088 0.04694
 C132 C -0.11133 0.62238 0.10457
 O133 O -0.08107 0.40128 0.13580
 O134 O -0.03474 0.34524 0.06229
 C135 C -0.06035 0.35118 0.11810
 O136 O 0.09544 0.61220 0.06126
 O137 O 0.00848 0.66233 0.02065
 C138 C 0.06310 0.66050 0.05116
 Zr139 Zr 0.07170 0.52198 0.03868
 O140 O 0.10521 0.52163 0.13576
 O141 O 0.16498 0.54746 0.00549
 Zr142 Zr -0.08073 0.48814 0.08664
 O143 O -0.06216 0.48738 0.18728
 O144 O -0.17907 0.47073 0.10659
 Zr145 Zr -0.04583 0.59069 -0.01892
 Zr146 Zr -0.01105 0.41446 -0.01135
 O147 O 0.00869 0.45513 0.07629
 O148 O -0.01075 0.55764 0.07252
 O149 O 0.06934 0.47026 -0.04110
 O150 O -0.12547 0.53420 0.01017
 O151 O 0.04834 0.57344 -0.04400
 O152 O -0.10538 0.42870 0.01571
 H153 H -0.05134 0.42047 -0.13739
 H154 H -0.16547 0.55334 0.02012
 H155 H 0.02564 0.43214 0.11514
 H156 H 0.08065 0.60683 -0.05415
 H157 H -0.22384 0.42932 -0.00453
 H158 H -0.18847 0.42661 0.10572
 H159 H -0.01566 0.49580 0.19255
 H160 H 0.07632 0.54600 0.15919
 H161 H 0.18064 0.51313 -0.01652
 H162 H 0.14389 0.54200 -0.12035
 H163 H -0.03659 0.54804 -0.22536
 H164 H -0.13966 0.50750 -0.19176
 O165 O 0.90985 0.07135 0.58469
 O166 O 0.99231 0.04436 0.65341
 C167 C 0.93875 0.06981 0.64045
 O168 O 0.90635 -0.16632 0.47463
 O169 O 0.93886 -0.11926 0.37736
 C170 C 0.90576 -0.16088 0.41174
 O171 O 0.94158 -0.12380 0.64614
 O172 O 1.01274 -0.05099 0.68153
 C173 C 0.97086 -0.09516 0.69171
 O174 O 0.88182 0.04444 0.41019
 O175 O 0.93213 -0.01744 0.34570
 C176 C 0.88939 0.02071 0.35571
 Zr177 Zr 0.93463 0.03514 0.49824
 O178 O 0.83465 0.02890 0.51155
 O179 O 0.92862 0.12963 0.47727
 Zr180 Zr 0.95306 -0.11236 0.54353
 O181 O 0.85394 -0.12613 0.56123
 O182 O 0.96762 -0.20325 0.57698
 O183 O 0.94395 -0.02785 0.57745
 O184 O 0.92030 -0.05184 0.47104
 O185 O 1.09540 0.07204 0.35953
 O186 O 1.03326 -0.00765 0.32398
 C187 C 1.06964 0.04097 0.31378
 O188 O 1.17013 -0.09696 0.58688
 O189 O 1.11787 -0.03966 0.65460
 C190 C 1.16381 -0.07371 0.64131
 O191 O 1.11899 -0.14933 0.42978
 O192 O 1.04494 -0.11245 0.35635
 C193 C 1.08932 -0.14904 0.37466
 O194 O 1.13602 0.10798 0.53463
 O195 O 1.09874 0.06196 0.63043
 C196 C 1.13204 0.10402 0.59783
 Zr197 Zr 1.09157 0.05391 0.46228
 O198 O 1.18923 0.05699 0.43700
 O199 O 1.08939 0.14722 0.43339
 Zr200 Zr 1.10975 -0.09307 0.50547
 O201 O 1.20415 -0.07974 0.47027
 O202 O 1.12971 -0.18221 0.54048
 Zr203 Zr 1.04261 -0.00867 0.59305
 Zr204 Zr 1.00126 -0.05021 0.41217
 O205 O 1.09952 -0.03079 0.42772
 O206 O 1.12518 -0.00568 0.53581
 O207 O 0.99947 0.04363 0.42302
 O208 O 1.04508 -0.10172 0.58018
 O209 O 1.02283 0.06735 0.53000
 O210 O 1.02030 -0.12688 0.47451
 H211 H 0.87734 -0.06133 0.45246
 H212 H 1.05628 -0.13017 0.61735
 H213 H 1.12868 -0.03407 0.39117
 H214 H 1.02225 0.10736 0.54816
 H215 H 0.98092 -0.22461 0.53959
 H216 H 1.08921 -0.20688 0.53801
 H217 H 1.22598 -0.04732 0.49403
 H218 H 1.21498 0.05878 0.47742
 H219 H 1.04947 0.16144 0.45020
 H220 H 0.94057 0.13891 0.43145
 H221 H 0.82564 -0.00610 0.54297
 H222 H 0.84264 -0.09772 0.59329
 N223 N 1.11554 0.10412 0.22843
 N224 N 1.08140 0.05967 0.24733
 N225 N 0.84869 -0.19756 0.32221
 N226 N 0.86421 -0.20317 0.38003
 N227 N 0.92785 0.09796 0.74791
 N228 N 0.90584 0.09414 0.69080
 N229 N 1.19382 -0.11018 0.74315
 N230 N 1.21020 -0.08829 0.68955
 N231 N 0.30989 1.18896 1.15690
 N232 N 0.36826 1.19081 1.15195
 N233 N 0.23797 0.87886 0.95935
 N234 N 0.26981 0.89768 1.00457
 N235 N 0.74799 0.90023 1.14619
 N236 N 0.73057 0.94834 1.11948
 N237 N 0.71929 1.12507 0.81105
 N238 N 0.66172 1.11710 0.79995
 N239 N 0.12419 0.29561 0.11484
 N240 N 0.15288 0.34478 0.09292
 N241 N -0.11175 0.24379 -0.10264
 N242 N -0.14794 0.28704 -0.09593
 N243 N 0.07754 0.74568 -0.11720
 N244 N 0.05228 0.71353 -0.16024
 N245 N -0.15538 0.71608 0.12045
 N246 N -0.13542 0.66579 0.14445
 N247 N 1.15543 0.15785 0.69049
 N248 N 1.16500 0.15017 0.63284
 N249 N 0.90627 -0.13569 0.77645
 N250 N 0.95816 -0.11311 0.75789
 N251 N 1.12868 -0.18646 0.28230
 N252 N 1.10295 -0.19595 0.33508
 N253 N 0.86535 0.06519 0.25403
 N254 N 0.84667 0.03707 0.30420
 N255 N 0.10422 0.29636 -0.16953
 N256 N 0.09828 0.35154 -0.17380
 N257 N -0.07449 0.24918 0.15580
 N258 N -0.06077 0.30204 0.16661
 N259 N -0.21528 0.70158 -0.13485
 N260 N -0.22406 0.64728 -0.11965
 N261 N 0.14607 0.72739 0.08616
 N262 N 0.08658 0.71384 0.07997
 N263 N 0.22912 1.13744 0.90689
 N264 N 0.28610 1.13826 0.88690
 N265 N 0.29891 0.88541 1.14421
 N266 N 0.32972 0.91946 1.18216
 N267 N 0.78963 1.11465 1.05254
 N268 N 0.74066 1.14317 1.06429
 N269 N 0.70490 0.89579 0.86073
 N270 N 0.64869 0.87678 0.87702
   
