data_POSCAR
  _audit_creation_date              2014-09-24
  _audit_creation_method            'ToBaCCo'
  _symmetry_space_group_name_H-M    'P1'
  _symmetry_Int_Tables_number       1
  _symmetry_cell_setting            triclinic
  loop_
  _symmetry_equiv_pos_as_xyz
 x,y,z
_cell_length_a 33.9554
_cell_length_b 34.3605
_cell_length_c 34.4030
_cell_angle_alpha 90.721700
_cell_angle_beta 90.840600
_cell_angle_gamma 89.476700
loop_
  _atom_site_label
  _atom_site_type_symbol
  _atom_site_fract_x
  _atom_site_fract_y
  _atom_site_fract_z
C1 C 0.02632 0.44709 0.19035
 H2 H 0.05041 0.46730 0.18815
 C3 C 0.02823 0.41092 0.17122
 H4 H 0.05345 0.40493 0.15321
 C5 C -0.03536 0.43140 0.21666
 H6 H -0.05944 0.43854 0.23564
 C7 C -0.03490 0.39524 0.19792
 H8 H -0.05882 0.37576 0.20386
 N9 N -0.00500 0.45648 0.21285
 C10 C -0.01158 0.58161 0.23643
 H11 H -0.01602 0.57979 0.26743
 C12 C -0.01100 0.61785 0.21880
 H13 H -0.01567 0.64377 0.23641
 C14 C -0.00031 0.54967 0.17610
 H15 H 0.00412 0.52296 0.15975
 C16 C 0.00048 0.58554 0.15716
 H17 H 0.00583 0.58614 0.12623
 Zn18 Zn -0.00390 0.50220 0.24445
 N19 N -0.00559 0.54852 0.21519
 C20 C 0.06916 0.53096 0.27142
 N21 N 0.04350 0.50098 0.27422
 C22 C 0.05268 0.46903 0.29561
 C23 C 0.08889 0.46651 0.31542
 C24 C 0.10543 0.52974 0.29083
 C25 C -0.08376 0.50972 0.25793
 C26 C -0.11887 0.50876 0.27830
 C27 C -0.08138 0.49590 0.33707
 C28 C -0.04682 0.49705 0.31546
 N29 N -0.04876 0.50312 0.27647
 H30 H 0.06206 0.55560 0.25342
 H31 H 0.03210 0.44523 0.29676
 H32 H 0.09576 0.44092 0.33236
 H33 H 0.12566 0.55361 0.28751
 H34 H -0.08435 0.51494 0.22698
 H35 H -0.14642 0.51384 0.26287
 H36 H -0.07951 0.48994 0.36787
 H37 H -0.01865 0.49239 0.32972
 C38 C -0.00427 0.62027 0.17876
 C39 C -0.00248 0.38375 0.17509
 C40 C -0.11806 0.50117 0.31830
 C41 C 0.11581 0.49719 0.31309
 C42 C 0.03623 0.54536 0.81391
 H43 H 0.06087 0.52520 0.81278
 C44 C 0.03820 0.57848 0.83799
 H45 H 0.06432 0.58348 0.85572
 C46 C -0.02727 0.56417 0.79124
 H47 H -0.05227 0.55949 0.77213
 C48 C -0.02667 0.59727 0.81495
 H49 H -0.05134 0.61744 0.81370
 N50 N 0.00382 0.53891 0.79109
 C51 C -0.00238 0.41670 0.75636
 H52 H -0.00731 0.42103 0.72557
 C53 C -0.00253 0.37924 0.77128
 H54 H -0.00800 0.35485 0.75178
 C55 C 0.00955 0.44374 0.81912
 H56 H 0.01400 0.46906 0.83756
 C57 C 0.00957 0.40660 0.83538
 H58 H 0.01459 0.40356 0.86634
 Zn59 Zn 0.00282 0.49657 0.75518
 N60 N 0.00403 0.44794 0.78016
 C61 C 0.07348 0.47037 0.72152
 N62 N 0.04702 0.50032 0.72244
 C63 C 0.05316 0.53349 0.70227
 C64 C 0.08691 0.53723 0.67977
 C65 C 0.10731 0.47277 0.69932
 C66 C -0.07743 0.48960 0.74784
 C67 C -0.11487 0.49113 0.73098
 C68 C -0.08537 0.50880 0.67034
 C69 C -0.04833 0.50697 0.68865
 N70 N -0.04521 0.49814 0.72690
 H71 H 0.06895 0.44475 0.73863
 H72 H 0.03206 0.55720 0.70406
 H73 H 0.09139 0.56376 0.66384
 H74 H 0.12827 0.44883 0.69964
 H75 H -0.07394 0.48177 0.77807
 H76 H -0.13888 0.48237 0.74904
 H77 H -0.08605 0.51807 0.64048
 H78 H -0.02221 0.51336 0.67242
 C79 C 0.00371 0.37375 0.81124
 C80 C 0.00644 0.60500 0.83852
 C81 C -0.12011 0.50146 0.69148
 C82 C 0.11447 0.50651 0.67811
 C83 C 0.19288 0.02884 0.44877
 H84 H 0.18811 0.05191 0.46991
 C85 C 0.17192 0.02883 0.41341
 H86 H 0.15057 0.05174 0.40774
 C87 C 0.22709 -0.02861 0.43001
 H88 H 0.24947 -0.05035 0.43579
 C89 C 0.20681 -0.02981 0.39456
 H90 H 0.21386 -0.05261 0.37371
 N91 N 0.21974 0.00023 0.45646
 C92 C 0.24115 -0.00562 0.58131
 H93 H 0.27297 -0.00690 0.58017
 C94 C 0.22250 -0.00839 0.61685
 H95 H 0.24024 -0.01132 0.64308
 C96 C 0.17973 0.00056 0.54818
 H97 H 0.16332 0.00366 0.52124
 C98 C 0.15973 -0.00194 0.58336
 H99 H 0.12786 -0.00079 0.58327
 Zn100 Zn 0.25060 0.00174 0.50289
 N101 N 0.21977 -0.00093 0.54797
 C102 C 0.27160 0.07498 0.53342
 N103 N 0.27922 0.04891 0.50433
 C104 C 0.30405 0.05775 0.47511
 C105 C 0.32211 0.09422 0.47436
 C106 C 0.28895 0.11155 0.53382
 C107 C 0.26287 -0.07652 0.50852
 C108 C 0.28235 -0.11225 0.50894
 C109 C 0.34403 -0.07863 0.50195
 C110 C 0.32317 -0.04322 0.50157
 N111 N 0.28323 -0.04303 0.50421
 H112 H 0.25114 0.06802 0.55594
 H113 H 0.30901 0.03686 0.45187
 H114 H 0.34102 0.10117 0.45040
 H115 H 0.28237 0.13173 0.55731
 H116 H 0.23116 -0.07538 0.51108
 H117 H 0.26543 -0.13851 0.51234
 H118 H 0.37573 -0.07864 0.49899
 H119 H 0.33876 -0.01615 0.49872
 C120 C 0.18128 -0.00655 0.61826
 C121 C 0.17886 -0.00084 0.38575
 C122 C 0.32338 -0.11373 0.50510
 C123 C 0.31415 0.12186 0.50378
 C124 C 0.80206 0.03015 0.55125
 H125 H 0.80406 0.05405 0.53122
 C126 C 0.81997 0.03295 0.58817
 H127 H 0.83646 0.05878 0.59599
 C128 C 0.77690 -0.03186 0.56610
 H129 H 0.75895 -0.05656 0.55829
 C130 C 0.79439 -0.03038 0.60298
 H131 H 0.78972 -0.05416 0.62269
 N132 N 0.78078 -0.00185 0.54102
 C133 C 0.76015 -0.01111 0.41541
 H134 H 0.72942 -0.01879 0.41730
 C135 C 0.77762 -0.00907 0.37918
 H136 H 0.75982 -0.01711 0.35410
 C137 C 0.81974 0.00653 0.44710
 H138 H 0.83575 0.01316 0.47373
 C139 C 0.83863 0.00889 0.41121
 H140 H 0.86897 0.01815 0.41139
 Zn141 Zn 0.75028 -0.00288 0.49406
 N142 N 0.78096 -0.00268 0.44839
 C143 C 0.72111 0.06759 0.46410
 N144 N 0.71734 0.04216 0.49379
 C145 C 0.69367 0.05061 0.52441
 C146 C 0.67319 0.08619 0.52617
 C147 C 0.70126 0.10321 0.46466
 C148 C 0.74340 -0.08228 0.48539
 C149 C 0.72619 -0.11889 0.48514
 C150 C 0.66321 -0.08808 0.49723
 C151 C 0.68175 -0.05181 0.49724
 N152 N 0.72132 -0.04974 0.49204
 H153 H 0.74052 0.06104 0.44033
 H154 H 0.69173 0.03030 0.54806
 H155 H 0.65544 0.09301 0.55128
 H156 H 0.70497 0.12296 0.44074
 H157 H 0.77474 -0.07971 0.48097
 H158 H 0.74447 -0.14435 0.47992
 H159 H 0.63190 -0.08945 0.50249
 H160 H 0.66472 -0.02552 0.50211
 C161 C 0.81741 0.00187 0.37608
 C162 C 0.81592 0.00248 0.61474
 C163 C 0.68569 -0.12227 0.49172
 C164 C 0.67752 0.11331 0.49630
 C165 C 0.55229 0.20297 0.96803
 H166 H 0.53083 0.20002 0.94466
 C167 C 0.58925 0.18471 0.96504
 H168 H 0.59584 0.16744 0.93938
 C169 C 0.57105 0.23152 1.02845
 H170 H 0.56478 0.25079 1.05259
 C171 C 0.60804 0.21386 1.02669
 H172 H 0.62903 0.21888 1.05018
 N173 N 0.54415 0.22636 0.99916
 C174 C 0.41872 0.25519 1.00651
 H175 H 0.42280 0.28618 1.01048
 C176 C 0.38099 0.23984 1.00742
 H177 H 0.35703 0.25976 1.01364
 C178 C 0.44660 0.19267 0.99612
 H179 H 0.47238 0.17459 0.99144
 C180 C 0.40915 0.17586 0.99686
 H181 H 0.40721 0.14486 0.99161
 Zn182 Zn 0.49863 0.25894 0.99884
 N183 N 0.45049 0.23178 1.00043
 C184 C 0.46930 0.28407 0.92663
 N185 N 0.49956 0.28818 0.95266
 C186 C 0.53192 0.30932 0.94407
 C187 C 0.53487 0.32690 0.90776
 C188 C 0.47103 0.30105 0.89020
 C189 C 0.49327 0.27104 1.07727
 C190 C 0.49578 0.29002 1.11310
 C191 C 0.51031 0.34969 1.07988
 C192 C 0.50762 0.32938 1.04441
 N193 N 0.49996 0.29059 1.04397
 H194 H 0.44421 0.26649 0.93340
 H195 H 0.55599 0.31138 0.96492
 H196 H 0.56127 0.34269 0.90088
 H197 H 0.44669 0.29716 0.86988
 H198 H 0.48685 0.24027 1.07591
 H199 H 0.49061 0.27378 1.13928
 H200 H 0.51739 0.38036 1.08011
 H201 H 0.51236 0.34439 1.01749
 C202 C 0.37516 0.19951 1.00209
 C203 C 0.61801 0.19095 0.99424
 C204 C 0.50505 0.32968 1.11480
 C205 C 0.50441 0.32218 0.88007
 C206 C 0.44852 0.79586 0.97272
 H207 H 0.46838 0.79633 0.94843
 C208 C 0.41215 0.81531 0.97033
 H209 H 0.40490 0.83007 0.94357
 C210 C 0.43337 0.77264 1.03509
 H211 H 0.44113 0.75548 1.06013
 C212 C 0.39695 0.79151 1.03401
 H213 H 0.37891 0.78971 1.05954
 N214 N 0.45821 0.77470 1.00462
 C215 C 0.58440 0.75028 1.01128
 H216 H 0.58229 0.71963 1.01765
 C217 C 0.62121 0.76753 1.00919
 H218 H 0.64735 0.75005 1.01471
 C219 C 0.55251 0.81009 0.99660
 H220 H 0.52558 0.82636 0.99146
 C221 C 0.58894 0.82863 0.99425
 H222 H 0.58978 0.85919 0.98705
 Zn223 Zn 0.50393 0.74259 1.00490
 N224 N 0.55105 0.77142 1.00436
 C225 C 0.53139 0.71291 0.93380
 N226 N 0.50169 0.71049 0.95975
 C227 C 0.46904 0.68901 0.95163
 C228 C 0.46514 0.66944 0.91584
 C229 C 0.52870 0.69394 0.89791
 C230 C 0.51381 0.73479 1.08390
 C231 C 0.51218 0.71782 1.12033
 C232 C 0.49400 0.65706 1.08909
 C233 C 0.49596 0.67531 1.05302
 N234 N 0.50498 0.71373 1.05127
 H235 H 0.55676 0.73066 0.94016
 H236 H 0.44542 0.68825 0.97236
 H237 H 0.43848 0.65346 0.90926
 H238 H 0.55259 0.69661 0.87762
 H239 H 0.52110 0.76525 1.08157
 H240 H 0.51901 0.73527 1.14593
 H241 H 0.48561 0.62678 1.09024
 H242 H 0.48930 0.65909 1.02666
 C243 C 0.62391 0.80706 1.00002
 C244 C 0.38494 0.81263 1.00092
 C245 C 0.50144 0.67867 1.12336
 C246 C 0.49495 0.67253 0.88818
 B247 B 1.00085 1.04123 0.02290
 B248 B 1.02687 1.00103 0.03923
 B249 B 0.97625 1.00081 0.03898
 B250 B 0.95942 1.02486 -0.00227
 B251 B 1.00008 1.03948 -0.02800
 B252 B 1.04195 1.02551 -0.00240
 B253 B 1.00129 0.95755 -0.02600
 B254 B 0.97449 0.99867 -0.04254
 B255 B 1.02553 0.99828 -0.04281
 B256 B 1.04300 0.97539 -0.00162
 B257 B 1.00253 0.95991 0.02393
 B258 B 0.96040 0.97419 -0.00127
 B259 B 0.54206 0.49870 0.47908
 B260 B 0.53958 0.49733 0.52892
 B261 B 0.52673 0.53931 0.50480
 B262 B 0.50236 0.52639 0.46236
 B263 B 0.50048 0.47641 0.45978
 B264 B 0.52319 0.45794 0.50104
 B265 B 0.45733 0.50132 0.52423
 B266 B 0.45973 0.50270 0.47433
 B267 B 0.47260 0.46073 0.49844
 B268 B 0.49700 0.47365 0.54088
 B269 B 0.49885 0.52368 0.54343
 B270 B 0.47611 0.54202 0.50214
 C271 C 1.00343 1.26806 0.12952
 C272 C 0.96701 1.28572 0.13648
 C273 C 0.96499 1.32399 0.15052
 C274 C 0.99956 1.34570 0.15819
 C275 C 1.03616 1.32759 0.14981
 C276 C 1.03797 1.28917 0.13581
 C277 C 1.00499 1.22826 0.11588
 C278 C 1.00521 1.19503 0.10413
 C279 C 1.00437 1.15573 0.08912
 C280 C 0.96857 1.13732 0.08219
 C281 C 0.96774 1.10050 0.06445
 C282 C 1.00188 1.08232 0.04953
 C283 C 1.03757 1.09853 0.06410
 C284 C 1.03911 1.13533 0.08187
 H285 H 0.93999 1.26987 0.13106
 H286 H 0.93596 1.33653 0.15426
 H287 H 1.06379 1.34197 0.15585
 H288 H 1.06641 1.27575 0.13046
 H289 H 0.94117 1.15139 0.09036
 H290 H 0.93968 1.08738 0.06229
 H291 H 1.06470 1.08208 0.06356
 H292 H 1.06735 1.14753 0.09021
 C293 C 1.00162 0.73345 0.12711
 C294 C 0.98260 0.70300 0.10716
 C295 C 0.98109 0.66595 0.12357
 C296 C 0.99847 0.65899 0.16024
 C297 C 1.01800 0.68968 0.17970
 C298 C 1.01950 0.72659 0.16327
 C299 C 1.00251 0.77188 0.11090
 C300 C 1.00335 0.80423 0.09774
 C301 C 1.00438 0.84283 0.08194
 C302 C 0.97393 0.86924 0.08906
 C303 C 0.97402 0.90597 0.07205
 C304 C 1.00483 0.91830 0.04802
 C305 C 1.03495 0.89017 0.04096
 C306 C 1.03499 0.85348 0.05797
 H307 H 0.96864 0.70800 0.07912
 H308 H 0.96560 0.64302 0.10802
 H309 H 1.03228 0.68512 0.20764
 H310 H 1.03448 0.74985 0.17888
 H311 H 0.94949 0.86118 0.10709
 H312 H 0.94899 0.92382 0.07753
 H313 H 1.05756 0.89449 0.02036
 H314 H 1.05834 0.83288 0.05121
 C315 C 1.00139 1.25758 -0.14419
 C316 C 1.02056 1.26504 -0.17896
 C317 C 1.02176 1.30291 -0.19315
 C318 C 1.00376 1.33387 -0.17271
 C319 C 0.98495 1.32616 -0.13751
 C320 C 0.98376 1.28821 -0.12338
 C321 C 1.00018 1.21857 -0.12965
 C322 C 0.99946 1.18609 -0.11694
 C323 C 0.99907 1.14787 -0.10048
 C324 C 1.03421 1.12788 -0.09345
 C325 C 1.03390 1.09266 -0.07364
 C326 C 0.99936 1.07808 -0.05688
 C327 C 0.96405 1.09508 -0.07151
 C328 C 0.96368 1.13035 -0.09129
 H329 H 1.03456 1.24159 -0.19513
 H330 H 1.03697 1.30802 -0.22003
 H331 H 0.97048 1.34931 -0.12136
 H332 H 0.96891 1.28272 -0.09636
 H333 H 1.06195 1.13961 -0.10288
 H334 H 1.06150 1.07808 -0.07081
 H335 H 0.93634 1.08049 -0.06978
 H336 H 0.93582 1.14365 -0.09965
 C337 C 1.00803 0.71650 -0.10405
 C338 C 0.97451 0.69325 -0.10242
 C339 C 0.97461 0.65617 -0.11954
 C340 C 1.00824 0.64188 -0.13865
 C341 C 1.04236 0.66479 -0.13871
 C342 C 1.04218 0.70195 -0.12160
 C343 C 1.00643 0.75614 -0.09017
 C344 C 1.00474 0.78969 -0.07964
 C345 C 1.00282 0.83004 -0.06805
 C346 C 0.98047 0.84193 -0.03668
 C347 C 0.97952 0.88110 -0.02536
 C348 C 1.00074 0.91098 -0.04438
 C349 C 1.02235 0.89678 -0.07681
 C350 C 1.02341 0.85763 -0.08832
 H351 H 0.94795 0.70420 -0.08888
 H352 H 0.94807 0.63898 -0.11865
 H353 H 1.06852 0.65476 -0.15356
 H354 H 1.06824 0.71978 -0.12314
 H355 H 0.96393 0.82090 -0.02048
 H356 H 0.96169 0.88669 -0.00059
 H357 H 1.04025 0.91358 -0.09441
 H358 H 1.04097 0.84885 -0.11307
 C359 C 1.12545 0.99728 0.27171
 C360 C 1.12976 0.96279 0.29256
 C361 C 1.14615 0.96355 0.33006
 C362 C 1.15851 0.99888 0.34723
 C363 C 1.15324 1.03353 0.32637
 C364 C 1.13685 1.03269 0.28882
 C365 C 1.10980 0.99632 0.23260
 C366 C 1.09663 0.99604 0.19987
 C367 C 1.08038 0.99690 0.16102
 C368 C 1.08452 0.96526 0.13570
 C369 C 1.06746 0.96642 0.09842
 C370 C 1.04834 1.00022 0.08355
 C371 C 1.04045 1.02906 0.11239
 C372 C 1.05745 1.02845 0.14951
 H373 H 1.12081 0.93525 0.27970
 H374 H 1.14934 0.93646 0.34559
 H375 H 1.16288 1.06110 0.33859
 H376 H 1.13361 1.05958 0.27293
 H377 H 1.10016 0.93929 0.14497
 H378 H 1.06995 0.94027 0.08157
 H379 H 1.01681 1.04946 0.10947
 H380 H 1.05063 1.05164 0.17005
 C381 C 1.12816 0.99059 -0.26944
 C382 C 1.11356 1.01623 -0.29761
 C383 C 1.13004 1.01648 -0.33464
 C384 C 1.16141 0.99115 -0.34377
 C385 C 1.17519 0.96486 -0.31551
 C386 C 1.15867 0.96463 -0.27860
 C387 C 1.11234 0.99122 -0.23092
 C388 C 1.09917 0.99164 -0.19861
 C389 C 1.08283 0.99199 -0.16032
 C390 C 1.10220 1.01048 -0.12940
 C391 C 1.08519 1.01186 -0.09260
 C392 C 1.04809 0.99544 -0.08531
 C393 C 1.03032 0.97573 -0.11730
 C394 C 1.04701 0.97418 -0.15405
 H395 H 1.08988 1.03641 -0.29078
 H396 H 1.11910 1.03726 -0.35569
 H397 H 1.19893 0.94463 -0.32190
 H398 H 1.17000 0.94451 -0.25707
 H399 H 1.13028 1.02440 -0.13377
 H400 H 1.10127 1.02739 -0.07118
 H401 H 1.00265 0.96094 -0.11431
 H402 H 1.03166 0.95922 -0.17761
 C403 C 0.86878 1.01088 0.26424
 C404 C 0.89271 1.00441 0.29700
 C405 C 0.87612 1.00205 0.33394
 C406 C 0.83493 1.00573 0.33890
 C407 C 0.81149 1.01314 0.30531
 C408 C 0.82824 1.01556 0.26859
 C409 C 0.88549 1.01131 0.22596
 C410 C 0.89954 1.01066 0.19392
 C411 C 0.91720 1.00841 0.15611
 C412 C 0.95115 0.98621 0.15110
 C413 C 0.96843 0.98324 0.11470
 C414 C 0.95341 1.00297 0.08162
 C415 C 0.91770 1.02377 0.08750
 C416 C 0.90013 1.02684 0.12407
 H417 H 0.92421 1.00048 0.29394
 H418 H 0.89573 0.99543 0.35803
 H419 H 0.78013 1.01836 0.30702
 H420 H 0.80941 1.02098 0.24349
 H421 H 0.96430 0.97075 0.17538
 H422 H 0.99362 0.96444 0.11326
 H423 H 0.90192 1.03712 0.06421
 H424 H 0.87296 1.04328 0.12715
 C425 C 0.85899 1.00840 -0.26687
 C426 C 0.86205 0.97369 -0.28838
 C427 C 0.84887 0.97204 -0.32705
 C428 C 0.83238 1.00515 -0.34495
 C429 C 0.82997 1.04012 -0.32330
 C430 C 0.84318 1.04170 -0.28452
 C431 C 0.87332 1.00984 -0.22717
 C432 C 0.88682 1.01042 -0.19448
 C433 C 0.90555 1.01071 -0.15655
 C434 C 0.88704 0.99620 -0.12394
 C435 C 0.90741 0.99420 -0.08818
 C436 C 0.94773 1.00390 -0.08399
 C437 C 0.96324 1.02304 -0.11684
 C438 C 0.94330 1.02537 -0.15242
 H439 H 0.87465 0.94784 -0.27524
 H440 H 0.85166 0.94482 -0.34302
 H441 H 0.81701 1.06599 -0.33603
 H442 H 0.84089 1.06882 -0.26828
 H443 H 0.85679 0.98654 -0.12599
 H444 H 0.89026 0.98554 -0.06443
 H445 H 0.99168 1.03635 -0.11624
 H446 H 0.95771 1.03845 -0.17687
 C447 C 1.25937 1.15281 0.00261
 C448 C 1.29188 1.12919 0.01165
 C449 C 1.32998 1.14430 0.01131
 C450 C 1.33650 1.18368 0.00202
 C451 C 1.30304 1.20696 -0.00729
 C452 C 1.26505 1.19165 -0.00695
 C453 C 1.22041 1.13660 0.00213
 C454 C 1.18870 1.12107 0.00142
 C455 C 1.15275 1.09920 0.00014
 C456 C 1.15533 1.05899 -0.00236
 C457 C 1.12141 1.03670 -0.00495
 C458 C 1.08297 1.05278 -0.00293
 C459 C 1.08170 1.09423 -0.00346
 C460 C 1.11576 1.11705 -0.00127
 H461 H 1.28778 1.09897 0.01914
 H462 H 1.35389 1.12512 0.01988
 H463 H 1.30577 1.23676 -0.01649
 H464 H 1.24013 1.21008 -0.01463
 H465 H 1.18385 1.04469 -0.00441
 H466 H 1.12687 1.00797 -0.01491
 H467 H 1.05397 1.10974 -0.00484
 H468 H 1.11309 1.14849 -0.00085
 C469 C 0.73607 1.14508 -0.01258
 C470 C 0.72950 1.18324 0.00047
 C471 C 0.69117 1.19826 0.00198
 C472 C 0.65875 1.17526 -0.00940
 C473 C 0.66568 1.13721 -0.02333
 C474 C 0.70412 1.12220 -0.02478
 C475 C 0.77528 1.12873 -0.01176
 C476 C 0.80751 1.11371 -0.01044
 C477 C 0.84467 1.09324 -0.00845
 C478 C 0.88043 1.11276 -0.00594
 C479 C 0.91590 1.09160 -0.00388
 C480 C 0.91721 1.05025 -0.00433
 C481 C 0.88003 1.03208 -0.00648
 C482 C 0.84471 1.05287 -0.00861
 H483 H 0.75396 1.20123 0.00993
 H484 H 0.68689 1.22794 0.01213
 H485 H 0.64136 1.11875 -0.03207
 H486 H 0.70886 1.09253 -0.03479
 H487 H 0.88105 1.14427 -0.00581
 H488 H 0.94261 1.10829 -0.00306
 H489 H 0.87649 1.00172 -0.00622
 H490 H 0.81717 1.03716 -0.01023
 C491 C 1.27015 0.86319 -0.00547
 C492 C 1.30044 0.87820 -0.02775
 C493 C 1.33821 0.86156 -0.02601
 C494 C 1.34657 0.82958 -0.00158
 C495 C 1.31517 0.81469 0.02028
 C496 C 1.27759 0.83135 0.01834
 C497 C 1.23156 0.88084 -0.00609
 C498 C 1.19925 0.89562 -0.00561
 C499 C 1.16097 0.91380 -0.00418
 C500 C 1.15064 0.93644 0.02793
 C501 C 1.11470 0.95649 0.02814
 C502 C 1.08642 0.95290 -0.00235
 C503 C 1.09968 0.93257 -0.03553
 C504 C 1.13565 0.91248 -0.03633
 H505 H 1.29501 0.90312 -0.04612
 H506 H 1.36095 0.87511 -0.04269
 H507 H 1.31872 0.78913 0.03804
 H508 H 1.25422 0.81926 0.03546
 H509 H 1.17143 0.94076 0.05177
 H510 H 1.11272 0.97981 0.04891
 H511 H 1.08470 0.93497 -0.06230
 H512 H 1.14441 0.89741 -0.06272
 C513 C 0.73877 0.85764 -0.00757
 C514 C 0.73163 0.82075 -0.02361
 C515 C 0.69408 0.80465 -0.02174
 C516 C 0.66315 0.82523 -0.00368
 C517 C 0.67042 0.86263 0.01169
 C518 C 0.70805 0.87867 0.00981
 C519 C 0.77783 0.87348 -0.00783
 C520 C 0.81035 0.88724 -0.00708
 C521 C 0.84853 0.90494 -0.00483
 C522 C 0.87313 0.90509 -0.03688
 C523 C 0.90858 0.92551 -0.03509
 C524 C 0.92049 0.94690 -0.00144
 C525 C 0.89545 0.94445 0.03094
 C526 C 0.86019 0.92401 0.02927
 H527 H 0.75516 0.80427 -0.03722
 H528 H 0.68924 0.77606 -0.03442
 H529 H 0.64732 0.87901 0.02606
 H530 H 0.71332 0.90724 0.02242
 H531 H 0.86456 0.89027 -0.06363
 H532 H 0.92609 0.92547 -0.06104
 H533 H 0.90094 0.95981 0.05735
 H534 H 0.84132 0.92421 0.05442
 C535 C 0.77244 0.49439 0.37883
 C536 C 0.77630 0.47723 0.34200
 C537 C 0.81206 0.47903 0.32264
 C538 C 0.84454 0.49813 0.33982
 C539 C 0.84064 0.51473 0.37718
 C540 C 0.80472 0.51294 0.39652
 C541 C 0.73487 0.49396 0.39761
 C542 C 0.70286 0.49382 0.41228
 C543 C 0.66417 0.49409 0.42877
 C544 C 0.65733 0.51310 0.46398
 C545 C 0.61935 0.51498 0.47891
 C546 C 0.58661 0.49756 0.45964
 C547 C 0.59483 0.47912 0.42354
 C548 C 0.63279 0.47727 0.40847
 H549 H 0.75153 0.46274 0.32808
 H550 H 0.81434 0.46539 0.29420
 H551 H 0.86502 0.52987 0.39099
 H552 H 0.80198 0.52645 0.42499
 H553 H 0.68124 0.52727 0.47965
 H554 H 0.61616 0.53208 0.50495
 H555 H 0.57223 0.46794 0.40510
 H556 H 0.63742 0.46336 0.38044
 C557 C 0.23157 0.49334 0.36506
 C558 C 0.20900 0.52754 0.36685
 C559 C 0.17102 0.52849 0.35077
 C560 C 0.15503 0.49517 0.33261
 C561 C 0.17760 0.46061 0.33168
 C562 C 0.21571 0.45975 0.34777
 C563 C 0.27116 0.49326 0.38056
 C564 C 0.30415 0.49454 0.39390
 C565 C 0.34309 0.49748 0.41064
 C566 C 0.35377 0.53097 0.43115
 C567 C 0.39071 0.53341 0.44924
 C568 C 0.41872 0.50282 0.44754
 C569 C 0.40703 0.46959 0.42560
 C570 C 0.37004 0.46691 0.40743
 H571 H 0.22091 0.55364 0.38036
 H572 H 0.15416 0.55535 0.35241
 H573 H 0.16625 0.43463 0.31753
 H574 H 0.23295 0.43311 0.34625
 H575 H 0.33319 0.55512 0.43387
 H576 H 0.39609 0.55953 0.46473
 H577 H 0.42597 0.44501 0.42216
 H578 H 0.36233 0.44065 0.39140
 C579 C 0.76624 0.50703 0.64089
 C580 C 0.79920 0.50380 0.61728
 C581 C 0.83705 0.50248 0.63383
 C582 C 0.84297 0.50402 0.67478
 C583 C 0.80874 0.50816 0.69786
 C584 C 0.77111 0.50952 0.68108
 C585 C 0.72727 0.50646 0.62406
 C586 C 0.69460 0.50508 0.61006
 C587 C 0.65591 0.50231 0.59288
 C588 C 0.64567 0.46925 0.57154
 C589 C 0.60884 0.46694 0.55328
 C590 C 0.58050 0.49717 0.55572
 C591 C 0.59184 0.53005 0.57832
 C592 C 0.62873 0.53261 0.59668
 H593 H 0.79564 0.50151 0.58598
 H594 H 0.86100 0.49794 0.61394
 H595 H 0.81025 0.51214 0.72903
 H596 H 0.74571 0.51254 0.69963
 H597 H 0.66646 0.44534 0.56833
 H598 H 0.60376 0.44122 0.53710
 H599 H 0.57282 0.55451 0.58201
 H600 H 0.63620 0.55858 0.61331
 C601 C 0.22471 0.51275 0.61901
 C602 C 0.21021 0.54543 0.63910
 C603 C 0.17363 0.54397 0.65727
 C604 C 0.15129 0.50968 0.65569
 C605 C 0.16566 0.47743 0.63446
 C606 C 0.20210 0.47898 0.61629
 C607 C 0.26350 0.51293 0.60271
 C608 C 0.29617 0.51188 0.58948
 C609 C 0.33526 0.50948 0.57398
 C610 C 0.36714 0.52462 0.59488
 C611 C 0.40523 0.52109 0.58032
 C612 C 0.41301 0.50274 0.54404
 C613 C 0.37990 0.48629 0.52460
 C614 C 0.34182 0.48989 0.53901
 H615 H 0.22754 0.57169 0.64148
 H616 H 0.16352 0.56910 0.67373
 H617 H 0.14888 0.45082 0.63231
 H618 H 0.21299 0.45355 0.60074
 H619 H 0.36272 0.53868 0.62288
 H620 H 0.42810 0.53114 0.59914
 H621 H 0.38280 0.46891 0.49872
 H622 H 0.31752 0.47674 0.52302
 C623 C 0.49338 0.62994 0.23725
 C624 C 0.47823 0.66713 0.22998
 C625 C 0.48021 0.68261 0.19274
 C626 C 0.49751 0.66109 0.16225
 C627 C 0.51186 0.62335 0.16961
 C628 C 0.50989 0.60792 0.20696
 C629 C 0.49347 0.61505 0.27611
 C630 C 0.49457 0.60257 0.30867
 C631 C 0.49733 0.58699 0.34719
 C632 C 0.46640 0.59108 0.37307
 C633 C 0.46904 0.57397 0.40971
 C634 C 0.50257 0.55228 0.42199
 C635 C 0.53351 0.54984 0.39508
 C636 C 0.53112 0.56683 0.35855
 H637 H 0.46533 0.68437 0.25319
 H638 H 0.46828 0.71149 0.18779
 H639 H 0.52558 0.60624 0.14680
 H640 H 0.52183 0.57911 0.21237
 H641 H 0.43990 0.60691 0.36479
 H642 H 0.44417 0.57787 0.42781
 H643 H 0.55993 0.53468 0.40098
 H644 H 0.55558 0.56354 0.33884
 C645 C 0.48625 0.62200 0.77361
 C646 C 0.49997 0.65995 0.77890
 C647 C 0.50209 0.67647 0.81610
 C648 C 0.49059 0.65521 0.84867
 C649 C 0.47593 0.61737 0.84307
 C650 C 0.47392 0.60079 0.80568
 C651 C 0.48642 0.60474 0.73532
 C652 C 0.48779 0.59105 0.70295
 C653 C 0.49060 0.57521 0.66420
 C654 C 0.47543 0.59574 0.63264
 C655 C 0.47918 0.58073 0.59492
 C656 C 0.49784 0.54440 0.58724
 C657 C 0.51447 0.52547 0.62007
 C658 C 0.51061 0.54029 0.65776
 H659 H 0.50948 0.67665 0.75428
 H660 H 0.51280 0.70593 0.81942
 H661 H 0.46705 0.60030 0.86764
 H662 H 0.46334 0.57132 0.80187
 H663 H 0.46105 0.62370 0.63706
 H664 H 0.46887 0.59909 0.57231
 H665 H 0.53211 0.49962 0.61731
 H666 H 0.52383 0.52464 0.68187
 C667 C 0.51242 0.38334 0.22774
 C668 C 0.49371 0.40307 0.19714
 C669 C 0.49229 0.38626 0.15990
 C670 C 0.50936 0.34943 0.15309
 C671 C 0.52910 0.33045 0.18380
 C672 C 0.53055 0.34729 0.22088
 C673 C 0.51139 0.39896 0.26660
 C674 C 0.50987 0.41142 0.29939
 C675 C 0.50719 0.42626 0.33845
 C676 C 0.48685 0.46079 0.34562
 C677 C 0.48362 0.47515 0.38347
 C678 C 0.50121 0.45614 0.41578
 C679 C 0.52024 0.42016 0.40741
 C680 C 0.52338 0.40558 0.36945
 H681 H 0.47950 0.43099 0.20225
 H682 H 0.47670 0.40136 0.13682
 H683 H 0.54306 0.30233 0.17920
 H684 H 0.54517 0.33186 0.24435
 H685 H 0.47302 0.47659 0.32193
 H686 H 0.46583 0.50083 0.38672
 H687 H 0.53172 0.40199 0.42968
 H688 H 0.53823 0.37797 0.36440
 C689 C 0.50995 0.36773 0.76470
 C690 C 0.52309 0.39030 0.79642
 C691 C 0.52207 0.37533 0.83405
 C692 C 0.50763 0.33773 0.84026
 C693 C 0.49530 0.31506 0.80805
 C694 C 0.49641 0.33000 0.77057
 C695 C 0.50873 0.38358 0.72624
 C696 C 0.50662 0.39670 0.69398
 C697 C 0.50314 0.41266 0.65567
 C698 C 0.53402 0.40929 0.62970
 C699 C 0.53093 0.42652 0.59322
 C700 C 0.49701 0.44768 0.58111
 C701 C 0.46599 0.44935 0.60800
 C702 C 0.46886 0.43221 0.64449
 H703 H 0.53350 0.41962 0.79215
 H704 H 0.53154 0.39348 0.85833
 H705 H 0.48471 0.28574 0.81186
 H706 H 0.48626 0.31228 0.74621
 H707 H 0.56082 0.39386 0.63778
 H708 H 0.55576 0.42300 0.57501
 H709 H 0.43922 0.46408 0.60213
 H710 H 0.44442 0.43487 0.66429
 C711 C 0.63514 0.76352 0.49561
 C712 C 0.61444 0.79384 0.47737
 C713 C 0.63054 0.83119 0.47639
 C714 C 0.66763 0.83858 0.49357
 C715 C 0.68792 0.80796 0.51218
 C716 C 0.67179 0.77075 0.51314
 C717 C 0.61886 0.72502 0.49677
 C718 C 0.60547 0.69270 0.49837
 C719 C 0.58914 0.65433 0.50107
 C720 C 0.59290 0.62746 0.47070
 C721 C 0.57528 0.59096 0.47303
 C722 C 0.55331 0.57967 0.50565
 C723 C 0.55125 0.60749 0.53616
 C724 C 0.56877 0.64398 0.53407
 H725 H 0.58597 0.78857 0.46378
 H726 H 0.61437 0.85407 0.46161
 H727 H 0.71619 0.81284 0.52628
 H728 H 0.68794 0.74761 0.52759
 H729 H 0.60892 0.63487 0.44485
 H730 H 0.57905 0.57214 0.44862
 H731 H 0.53600 0.60234 0.56200
 H732 H 0.56575 0.66441 0.55812
 C733 C 0.62398 0.22726 0.49979
 C734 C 0.66276 0.22239 0.48744
 C735 C 0.68016 0.18543 0.48680
 C736 C 0.65898 0.15262 0.49842
 C737 C 0.62016 0.15780 0.51139
 C738 C 0.60274 0.19493 0.51197
 C739 C 0.60625 0.26550 0.49968
 C740 C 0.59209 0.29782 0.49935
 C741 C 0.57552 0.33654 0.49916
 C742 C 0.59553 0.36695 0.48201
 C743 C 0.57982 0.40472 0.48284
 C744 C 0.54343 0.41368 0.50074
 C745 C 0.52439 0.38190 0.51826
 C746 C 0.53994 0.34418 0.51736
 H747 H 0.67957 0.24720 0.47819
 H748 H 0.71035 0.18255 0.47738
 H749 H 0.60307 0.13310 0.52030
 H750 H 0.57267 0.19839 0.52163
 H751 H 0.62366 0.36163 0.46837
 H752 H 0.59765 0.42659 0.47077
 H753 H 0.49799 0.38564 0.53460
 H754 H 0.52435 0.32104 0.53151
 C755 C 0.37887 0.77354 0.50565
 C756 C 0.39639 0.80455 0.52607
 C757 C 0.37900 0.84166 0.52521
 C758 C 0.34382 0.84796 0.50405
 C759 C 0.32705 0.81676 0.48295
 C760 C 0.34444 0.77985 0.48380
 C761 C 0.39573 0.73504 0.50702
 C762 C 0.40909 0.70244 0.50730
 C763 C 0.42488 0.66349 0.50646
 C764 C 0.46012 0.65586 0.48770
 C765 C 0.47499 0.61799 0.48552
 C766 C 0.45571 0.58608 0.50248
 C767 C 0.41929 0.59489 0.52039
 C768 C 0.40422 0.63287 0.52247
 H769 H 0.42315 0.79994 0.54299
 H770 H 0.39239 0.86509 0.54191
 H771 H 0.30033 0.82090 0.46587
 H772 H 0.33082 0.75614 0.46765
 H773 H 0.47599 0.67917 0.47411
 H774 H 0.50114 0.61431 0.46881
 H775 H 0.40105 0.57287 0.53165
 H776 H 0.37613 0.63821 0.53620
 C777 C 0.36226 0.23723 0.50278
 C778 C 0.38569 0.20520 0.49204
 C779 C 0.37008 0.16763 0.49201
 C780 C 0.33083 0.16166 0.50283
 C781 C 0.30748 0.19414 0.51324
 C782 C 0.32311 0.23160 0.51323
 C783 C 0.37823 0.27590 0.50272
 C784 C 0.39181 0.30819 0.50219
 C785 C 0.40885 0.34632 0.50051
 C786 C 0.40486 0.37299 0.53106
 C787 C 0.42323 0.40924 0.52949
 C788 C 0.44603 0.42041 0.49740
 C789 C 0.44876 0.39257 0.46700
 C790 C 0.43052 0.35644 0.46830
 H791 H 0.41604 0.20925 0.48384
 H792 H 0.38886 0.14322 0.48416
 H793 H 0.27695 0.19062 0.52105
 H794 H 0.30463 0.25619 0.52131
 H795 H 0.38806 0.36564 0.55643
 H796 H 0.41936 0.42793 0.55401
 H797 H 0.46498 0.39754 0.44175
 H798 H 0.43397 0.33609 0.44423
   
