data_POSCAR
  _audit_creation_date              2014-09-24
  _audit_creation_method            'ToBaCCo'
  _symmetry_space_group_name_H-M    'P1'
  _symmetry_Int_Tables_number       1
  _symmetry_cell_setting            triclinic
  loop_
  _symmetry_equiv_pos_as_xyz
 x,y,z
_cell_length_a 50.3762
_cell_length_b 46.2391
_cell_length_c 46.0880
_cell_angle_alpha 88.662600
_cell_angle_beta 89.397700
_cell_angle_gamma 89.872100
loop_
  _atom_site_label
  _atom_site_type_symbol
  _atom_site_fract_x
  _atom_site_fract_y
  _atom_site_fract_z
C1 C 0.18458 1.21707 0.21037
 C2 C 0.17218 1.24225 0.19970
 C3 C 0.18321 1.25853 0.17625
 C4 C 0.20807 1.24980 0.16492
 C5 C 0.22044 1.22431 0.17510
 C6 C 0.20844 1.20769 0.19763
 C7 C 0.17305 1.20094 0.23331
 C8 C 0.18431 1.17451 0.24334
 C9 C 0.20798 1.16507 0.22963
 C10 C 0.22007 1.18147 0.20711
 C11 C 0.24324 1.17155 0.19336
 C12 C 0.25550 1.18792 0.17080
 C13 C 0.24412 1.21462 0.16228
 H14 H 0.15392 1.24924 0.21002
 H15 H 0.21699 1.26141 0.14664
 H16 H 0.15564 1.20986 0.24371
 H17 H 0.21675 1.14439 0.23544
 H18 H 0.25128 1.15067 0.19984
 H19 H 0.25348 1.22782 0.14538
 C20 C 0.81704 0.78951 0.20997
 C21 C 0.82742 0.76560 0.19552
 C22 C 0.81581 0.75551 0.16983
 C23 C 0.79282 0.76991 0.15950
 C24 C 0.78211 0.79374 0.17395
 C25 C 0.79424 0.80352 0.19933
 C26 C 0.82950 0.79980 0.23475
 C27 C 0.81938 0.82391 0.24954
 C28 C 0.79604 0.83728 0.23903
 C29 C 0.78381 0.82765 0.21379
 C30 C 0.76186 0.84243 0.20221
 C31 C 0.75010 0.83327 0.17651
 C32 C 0.75999 0.80859 0.16280
 H33 H 0.84422 0.75450 0.20512
 H34 H 0.78381 0.76379 0.13935
 H35 H 0.84681 0.78840 0.24288
 H36 H 0.78820 0.85639 0.24927
 H37 H 0.75410 0.86133 0.21293
 H38 H 0.75103 0.80164 0.14284
 C39 C 0.82261 1.19762 -0.21742
 C40 C 0.83664 1.21961 -0.20383
 C41 C 0.82512 1.23478 -0.18081
 C42 C 0.79912 1.22803 -0.17166
 C43 C 0.78500 1.20575 -0.18473
 C44 C 0.79683 1.19046 -0.20767
 C45 C 0.83432 1.18230 -0.24014
 C46 C 0.82071 1.15963 -0.25375
 C47 C 0.79487 1.15268 -0.24343
 C48 C 0.78305 1.16771 -0.22053
 C49 C 0.75776 1.15994 -0.20999
 C50 C 0.74589 1.17472 -0.18682
 C51 C 0.75954 1.19801 -0.17471
 H52 H 0.85658 1.22499 -0.21116
 H53 H 0.79026 1.23945 -0.15369
 H54 H 0.85463 1.18746 -0.24607
 H55 H 0.78326 1.13620 -0.25368
 H56 H 0.74773 1.14167 -0.21924
 H57 H 0.75049 1.20999 -0.15725
 C58 C 0.18181 0.79577 -0.19291
 C59 C 0.16866 0.77205 -0.17980
 C60 C 0.17922 0.75727 -0.15523
 C61 C 0.20341 0.76761 -0.14400
 C62 C 0.21631 0.79178 -0.15645
 C63 C 0.20575 0.80564 -0.18128
 C64 C 0.17096 0.81018 -0.21716
 C65 C 0.18408 0.83390 -0.23058
 C66 C 0.20824 0.84333 -0.21894
 C67 C 0.21890 0.82970 -0.19415
 C68 C 0.24208 0.84025 -0.18154
 C69 C 0.25204 0.82731 -0.15599
 C70 C 0.23941 0.80266 -0.14400
 H71 H 0.14959 0.76617 -0.18841
 H72 H 0.21297 0.75660 -0.12598
 H73 H 0.15199 0.80313 -0.22523
 H74 H 0.21880 0.86132 -0.22910
 H75 H 0.25168 0.85934 -0.19080
 H76 H 0.24730 0.79236 -0.12454
 C77 C 0.52212 1.06184 -0.01779
 H78 H 0.50906 1.07077 -0.00153
 C79 C 0.54005 1.07990 -0.03277
 H80 H 0.54042 1.10276 -0.02823
 C81 C 0.53866 1.02100 -0.04243
 H82 H 0.53849 0.99785 -0.04536
 C83 C 0.55660 1.03831 -0.05819
 H84 H 0.57024 1.02836 -0.07331
 N85 N 0.52198 1.03293 -0.02263
 C86 C 0.45834 1.04315 0.01232
 H87 H 0.45631 1.04199 -0.01098
 C88 C 0.43971 1.05846 0.02849
 H89 H 0.42320 1.06851 0.01728
 C90 C 0.48151 1.02958 0.05495
 H91 H 0.49745 1.01780 0.06532
 C92 C 0.46368 1.04527 0.07193
 H93 H 0.46678 1.04592 0.09510
 Zn94 Zn 0.50132 1.00760 0.00102
 N95 N 0.47869 1.02904 0.02565
 C96 C 0.54243 0.99791 0.04049
 N97 N 0.52548 0.98435 0.02255
 C98 C 0.52705 0.95532 0.01866
 C99 C 0.54588 0.93870 0.03362
 C100 C 0.56125 0.98208 0.05623
 C101 C 0.47657 0.98902 -0.05071
 C102 C 0.45815 0.97322 -0.06633
 C103 C 0.44545 0.94800 -0.02186
 C104 C 0.46381 0.96452 -0.00707
 N105 N 0.47901 0.98443 -0.02159
 H106 H 0.54130 1.02114 0.04257
 H107 H 0.51417 0.94505 0.00343
 H108 H 0.54714 0.91576 0.02962
 H109 H 0.57397 0.99336 0.07097
 H110 H 0.48825 1.00558 -0.06171
 H111 H 0.45591 0.97788 -0.08930
 H112 H 0.43390 0.93198 -0.00981
 H113 H 0.46585 0.96165 0.01617
 C114 C 0.44222 1.05987 0.05880
 C115 C 0.55776 1.06806 -0.05302
 C116 C 0.44210 0.95251 -0.05187
 C117 C 0.56330 0.95201 0.05283
 C118 C -0.03011 0.52208 1.04824
 H119 H -0.01627 0.50752 1.05876
 C120 C -0.04349 0.54259 1.06469
 H121 H -0.04028 0.54306 1.08787
 C122 C -0.05012 0.54029 1.00522
 H123 H -0.05200 0.53968 0.98188
 C124 C -0.06402 0.56105 1.02087
 H125 H -0.07660 0.57641 1.00942
 N126 N -0.03362 0.52129 1.01904
 C127 C 0.03467 0.46935 1.01501
 H128 H 0.04426 0.48271 0.99847
 C129 C 0.04966 0.44937 1.03114
 H130 H 0.07068 0.44753 1.02650
 C131 C -0.00470 0.45409 1.03931
 H132 H -0.02601 0.45579 1.04199
 C133 C 0.00957 0.43435 1.05639
 H134 H -0.00101 0.42153 1.07267
 Zn135 Zn -0.01290 0.49632 0.99589
 N136 N 0.00800 0.47132 1.01936
 C137 C 0.02324 0.54046 0.98717
 N138 N 0.00932 0.52043 0.97256
 C139 C 0.01074 0.51916 0.94313
 C140 C 0.02701 0.53840 0.92729
 C141 C 0.03929 0.56040 0.97222
 C142 C -0.06150 0.47278 0.97611
 C143 C -0.07698 0.45343 0.96076
 C144 C -0.03685 0.43398 0.93963
 C145 C -0.02216 0.45350 0.95556
 N146 N -0.03460 0.47253 0.97319
 H147 H 0.02143 0.54124 1.01055
 H148 H -0.00081 0.50341 0.93183
 H149 H 0.02823 0.53665 0.90394
 H150 H 0.04937 0.57672 0.98444
 H151 H -0.07099 0.48739 0.99096
 H152 H -0.09829 0.45347 0.96400
 H153 H -0.02649 0.41932 0.92544
 H154 H -0.00071 0.45332 0.95411
 C155 C 0.03716 0.43144 1.05224
 C156 C -0.06050 0.56259 1.05096
 C157 C -0.06467 0.43353 0.94232
 C158 C 0.04150 0.55956 0.94181
 C159 C 1.03949 -0.01800 0.54510
 H160 H 1.03602 0.00505 0.54634
 C161 C 1.05449 -0.03222 0.56640
 H162 H 1.06209 -0.01981 0.58410
 C163 C 1.03194 -0.06211 0.52154
 H164 H 1.02260 -0.07396 0.50458
 C165 C 1.04738 -0.07708 0.54191
 H166 H 1.05030 -0.10009 0.53949
 N167 N 1.02847 -0.03303 0.52329
 C168 C 1.01355 0.02386 0.44890
 H169 H 0.99265 0.01938 0.44627
 C170 C 1.02686 0.04130 0.42849
 H171 H 1.01602 0.04981 0.41000
 C172 C 1.05304 0.01695 0.47570
 H173 H 1.06314 0.00720 0.49404
 C174 C 1.06714 0.03458 0.45586
 H175 H 1.08799 0.03860 0.45946
 Zn176 Zn 1.00637 -0.01205 0.49714
 N177 N 1.02668 0.01216 0.47195
 C178 C 0.98111 0.03963 0.51503
 N179 N 0.98299 0.01056 0.51966
 C180 C 0.96948 -0.00294 0.54176
 C181 C 0.95370 0.01301 0.56070
 C182 C 0.96529 0.05636 0.53321
 C183 C 1.00051 -0.05471 0.45539
 C184 C 0.98710 -0.07147 0.43551
 C185 C 0.94589 -0.05000 0.45145
 C186 C 0.96004 -0.03442 0.47178
 N187 N 0.98688 -0.03690 0.47326
 H188 H 0.99216 0.05001 0.49750
 H189 H 0.97161 -0.02606 0.54514
 H190 H 0.94397 0.00190 0.57878
 H191 H 0.96397 0.07944 0.52899
 H192 H 1.02195 -0.05556 0.45626
 H193 H 0.99854 -0.08601 0.42222
 H194 H 0.92474 -0.04636 0.44984
 H195 H 0.94965 -0.01939 0.48548
 C196 C 1.05402 0.04704 0.43182
 C197 C 1.05866 -0.06227 0.56506
 C198 C 0.95938 -0.06885 0.43275
 C199 C 0.95162 0.04317 0.55673
 C200 C 0.16781 0.32812 1.13645
 C201 C 0.13974 0.32774 1.13557
 C202 C 0.12659 0.30367 1.14866
 C203 C 0.14100 0.28169 1.16292
 C204 C 0.16895 0.28203 1.16349
 C205 C 0.18205 0.30559 1.14983
 C206 C 0.09907 0.30123 1.14700
 C207 C 0.08427 0.32165 1.13170
 C208 C 0.09640 0.34593 1.11806
 C209 C 0.12433 0.34990 1.12147
 C210 C 0.13579 0.37604 1.11108
 C211 C 0.12063 0.39715 1.09701
 C212 C 0.09375 0.39264 1.09172
 C213 C 0.08138 0.36669 1.10160
 C214 C 0.05463 0.36222 1.09390
 C215 C 0.04064 0.38304 1.07787
 C216 C 0.05251 0.40931 1.06922
 C217 C 0.07921 0.41388 1.07635
 H218 H 0.17942 0.34513 1.12624
 H219 H 0.13019 0.26326 1.17188
 H220 H 0.20347 0.30728 1.15008
 H221 H 0.08885 0.28300 1.15722
 H222 H 0.06312 0.31824 1.13166
 H223 H 0.15638 0.38121 1.11426
 H224 H 0.13022 0.41702 1.08968
 H225 H 0.04420 0.34239 1.09900
 H226 H 0.02049 0.37811 1.07176
 H227 H 0.08882 0.43402 1.07001
 C228 C -0.17678 0.69157 1.12155
 C229 C -0.14943 0.68494 1.12375
 C230 C -0.13404 0.70215 1.14217
 C231 C -0.14551 0.72531 1.15698
 C232 C -0.17275 0.73196 1.15462
 C233 C -0.18809 0.71452 1.13659
 C234 C -0.10709 0.69641 1.14569
 C235 C -0.09498 0.67361 1.13169
 C236 C -0.10933 0.65569 1.11309
 C237 C -0.13688 0.66186 1.10849
 C238 C -0.15077 0.64507 1.08844
 C239 C -0.13837 0.62292 1.07360
 C240 C -0.11177 0.61619 1.07839
 C241 C -0.09692 0.63214 1.09851
 C242 C -0.07024 0.62368 1.10326
 C243 C -0.05876 0.60103 1.08808
 C244 C -0.07332 0.58591 1.06768
 C245 C -0.09990 0.59355 1.06304
 H246 H -0.19023 0.67912 1.10884
 H247 H -0.13254 0.73879 1.16943
 H248 H -0.20930 0.71757 1.13477
 H249 H -0.09515 0.70964 1.15962
 H250 H -0.07407 0.67102 1.13555
 H251 H -0.17129 0.64884 1.08323
 H252 H -0.14981 0.61083 1.05822
 H253 H -0.05764 0.63390 1.11870
 H254 H -0.03814 0.59565 1.09198
 H255 H -0.11144 0.58163 1.04761
 C256 C -0.11830 0.27133 0.85718
 C257 C -0.12914 0.29866 0.86404
 C258 C -0.15544 0.30476 0.85499
 C259 C -0.17033 0.28386 0.84064
 C260 C -0.15929 0.25687 0.83435
 C261 C -0.13315 0.25093 0.84259
 C262 C -0.16674 0.33172 0.86018
 C263 C -0.15246 0.35305 0.87387
 C264 C -0.12628 0.34808 0.88349
 C265 C -0.11473 0.32014 0.87926
 C266 C -0.08935 0.31442 0.89080
 C267 C -0.07544 0.33534 0.90540
 C268 C -0.08596 0.36296 0.90876
 C269 C -0.11138 0.36995 0.89765
 C270 C -0.12064 0.39865 0.90103
 C271 C -0.10549 0.41912 0.91529
 C272 C -0.08062 0.41185 0.92672
 C273 C -0.07106 0.38362 0.92332
 H274 H -0.09827 0.26507 0.86235
 H275 H -0.19044 0.28876 0.83391
 H276 H -0.12421 0.23018 0.83800
 H277 H -0.18685 0.33649 0.85339
 H278 H -0.16282 0.37313 0.87710
 H279 H -0.07975 0.29367 0.88949
 H280 H -0.05609 0.32984 0.91402
 H281 H -0.13929 0.40621 0.89251
 H282 H -0.11318 0.44091 0.91701
 H283 H -0.05203 0.37750 0.93238
 C284 C 0.15730 0.70129 0.90034
 C285 C 0.13892 0.68470 0.88493
 C286 C 0.13359 0.69329 0.85591
 C287 C 0.14730 0.71659 0.84262
 C288 C 0.16582 0.73307 0.85802
 C289 C 0.17024 0.72492 0.88727
 C290 C 0.11446 0.67867 0.84023
 C291 C 0.09971 0.65641 0.85311
 C292 C 0.10419 0.64714 0.88205
 C293 C 0.12515 0.66043 0.89761
 C294 C 0.13196 0.64871 0.92510
 C295 C 0.11792 0.62576 0.93762
 C296 C 0.09608 0.61412 0.92372
 C297 C 0.08867 0.62477 0.89588
 C298 C 0.06557 0.61312 0.88344
 C299 C 0.05060 0.59188 0.89813
 C300 C 0.05823 0.58115 0.92552
 C301 C 0.08137 0.59214 0.93785
 H302 H 0.16133 0.69733 0.92301
 H303 H 0.14373 0.72107 0.81986
 H304 H 0.18282 0.73743 0.90105
 H305 H 0.11043 0.68490 0.81789
 H306 H 0.08532 0.64630 0.83951
 H307 H 0.14859 0.65636 0.93724
 H308 H 0.12390 0.61746 0.95876
 H309 H 0.05790 0.62077 0.86291
 H310 H 0.03251 0.58451 0.88825
 H311 H 0.08790 0.58381 0.95876
 C312 C 1.17466 0.12191 0.30602
 C313 C 1.14730 0.12477 0.31249
 C314 C 1.13264 0.14510 0.29570
 C315 C 1.14474 0.16081 0.27277
 C316 C 1.17204 0.15790 0.26628
 C317 C 1.18669 0.13812 0.28355
 C318 C 1.10580 0.14969 0.30170
 C319 C 1.09320 0.13503 0.32450
 C320 C 1.10684 0.11448 0.34191
 C321 C 1.13405 0.10843 0.33511
 C322 C 1.14683 0.08576 0.35061
 C323 C 1.13360 0.06973 0.37214
 C324 C 1.10741 0.07614 0.37976
 C325 C 1.09388 0.09912 0.36532
 C326 C 1.06793 0.10587 0.37507
 C327 C 1.05551 0.08943 0.39699
 C328 C 1.06834 0.06563 0.41002
 C329 C 1.09456 0.05945 0.40158
 H330 H 1.18759 0.10794 0.31849
 H331 H 1.13219 0.17459 0.25947
 H332 H 1.20791 0.13574 0.28084
 H333 H 1.09439 0.16505 0.28877
 H334 H 1.07239 0.13967 0.32731
 H335 H 1.16693 0.07919 0.34598
 H336 H 1.14408 0.05218 0.38307
 H337 H 1.05679 0.12404 0.36660
 H338 H 1.03567 0.09551 0.40382
 H339 H 1.10484 0.04120 0.41150
 C340 C 1.16327 -0.10637 0.71614
 C341 C 1.14803 -0.12144 0.69580
 C342 C 1.14476 -0.15164 0.70037
 C343 C 1.15733 -0.16610 0.72357
 C344 C 1.17221 -0.15085 0.74375
 C345 C 1.17490 -0.12082 0.73975
 C346 C 1.12866 -0.16728 0.68198
 C347 C 1.11475 -0.15343 0.65982
 C348 C 1.11716 -0.12336 0.65452
 C349 C 1.13532 -0.10746 0.67163
 C350 C 1.14050 -0.07833 0.66370
 C351 C 1.12759 -0.06485 0.64056
 C352 C 1.10829 -0.07946 0.62513
 C353 C 1.10240 -0.10874 0.63226
 C354 C 1.08141 -0.12192 0.61736
 C355 C 1.06737 -0.10682 0.59591
 C356 C 1.07393 -0.07820 0.58801
 C357 C 1.09464 -0.06478 0.60277
 H358 H 1.16569 -0.08321 0.71509
 H359 H 1.15528 -0.18935 0.72596
 H360 H 1.18548 -0.10816 0.75532
 H361 H 1.12630 -0.19045 0.68515
 H362 H 1.10280 -0.16708 0.64657
 H363 H 1.15511 -0.06555 0.67449
 H364 H 1.13237 -0.04252 0.63509
 H365 H 1.07463 -0.14353 0.62259
 H366 H 1.05085 -0.11760 0.58596
 H367 H 1.10024 -0.04277 0.59698
 C368 C 0.83247 -0.14076 0.32023
 C369 C 0.86048 -0.14176 0.32169
 C370 C 0.87448 -0.15395 0.29812
 C371 C 0.86078 -0.16612 0.27506
 C372 C 0.83289 -0.16501 0.27371
 C373 C 0.81904 -0.15178 0.29653
 C374 C 0.90216 -0.15346 0.29734
 C375 C 0.91632 -0.14011 0.31893
 C376 C 0.90329 -0.12767 0.34286
 C377 C 0.87508 -0.13024 0.34522
 C378 C 0.86253 -0.12176 0.37120
 C379 C 0.87697 -0.11014 0.39367
 C380 C 0.90420 -0.10523 0.39060
 C381 C 0.91761 -0.11326 0.36484
 C382 C 0.94466 -0.10566 0.36171
 C383 C 0.95788 -0.09130 0.38353
 C384 C 0.94497 -0.08456 0.40969
 C385 C 0.91802 -0.09193 0.41301
 H386 H 0.82040 -0.13075 0.33665
 H387 H 0.87219 -0.17482 0.25719
 H388 H 0.79757 -0.15073 0.29676
 H389 H 0.91303 -0.16296 0.27949
 H390 H 0.93765 -0.14074 0.31680
 H391 H 0.84159 -0.12478 0.37519
 H392 H 0.86657 -0.10424 0.41338
 H393 H 0.95584 -0.10932 0.34206
 H394 H 0.97821 -0.08485 0.37936
 H395 H 0.90754 -0.08721 0.43298
 C396 C 0.83750 0.10003 0.69514
 C397 C 0.85798 0.11240 0.67773
 C398 C 0.86580 0.14101 0.68373
 C399 C 0.85312 0.15657 0.70575
 C400 C 0.83282 0.14409 0.72322
 C401 C 0.82530 0.11549 0.71729
 C402 C 0.88637 0.15408 0.66781
 C403 C 0.90010 0.13905 0.64670
 C404 C 0.89345 0.11030 0.64018
 C405 C 0.87128 0.09721 0.65504
 C406 C 0.86302 0.06954 0.64649
 C407 C 0.87648 0.05470 0.62498
 C408 C 0.89905 0.06646 0.61154
 C409 C 0.90803 0.09431 0.61906
 C410 C 0.93165 0.10467 0.60559
 C411 C 0.94544 0.08819 0.58539
 C412 C 0.93623 0.06088 0.57764
 C413 C 0.91284 0.05028 0.59077
 H414 H 0.83097 0.07804 0.69289
 H415 H 0.85886 0.17887 0.70843
 H416 H 0.81078 0.10404 0.73060
 H417 H 0.89224 0.17612 0.67203
 H418 H 0.91560 0.15089 0.63542
 H419 H 0.84579 0.05886 0.65566
 H420 H 0.86936 0.03353 0.61914
 H421 H 0.94053 0.12504 0.61079
 H422 H 0.96384 0.09669 0.57637
 H423 H 0.90531 0.02930 0.58488
 C424 C 0.30512 1.17119 0.11069
 C425 C 0.32391 1.15330 0.12500
 C426 C 0.31961 1.14678 0.15488
 C427 C 0.29807 1.15901 0.16988
 C428 C 0.27945 1.17660 0.15536
 C429 C 0.28323 1.18231 0.12556
 C430 C 0.33657 1.12769 0.16954
 C431 C 0.35703 1.11385 0.15489
 C432 C 0.36200 1.11947 0.12509
 C433 C 0.34625 1.14091 0.11044
 C434 C 0.35358 1.14954 0.08190
 C435 C 0.37473 1.13661 0.06760
 C436 C 0.38878 1.11391 0.08072
 C437 C 0.38243 1.10470 0.10949
 C438 C 0.39622 1.08045 0.12109
 C439 C 0.41553 1.06618 0.10477
 C440 C 0.42222 1.07578 0.07653
 C441 C 0.40892 1.10008 0.06493
 H442 H 0.30610 1.17595 0.08770
 H443 H 0.29576 1.15451 0.19294
 H444 H 0.26885 1.19482 0.11329
 H445 H 0.33357 1.12280 0.19246
 H446 H 0.36918 1.09935 0.16775
 H447 H 0.34374 1.16691 0.07027
 H448 H 0.37969 1.14401 0.04572
 H449 H 0.39175 1.07120 0.14225
 H450 H 0.42468 1.04702 0.11420
 H451 H 0.41400 1.10822 0.04335
 C452 C 0.67683 1.14211 -0.18040
 C453 C 0.67225 1.14116 -0.15002
 C454 C 0.69155 1.15396 -0.13223
 C455 C 0.71517 1.16519 -0.14435
 C456 C 0.71995 1.16476 -0.17438
 C457 C 0.70022 1.15373 -0.19225
 C458 C 0.68748 1.15506 -0.10233
 C459 C 0.66471 1.14353 -0.08947
 C460 C 0.64528 1.12960 -0.10600
 C461 C 0.64941 1.12781 -0.13670
 C462 C 0.63117 1.11173 -0.15287
 C463 C 0.60984 1.09761 -0.13955
 C464 C 0.60532 1.09955 -0.10978
 C465 C 0.62241 1.11635 -0.09268
 C466 C 0.61596 1.11892 -0.06285
 C467 C 0.59449 1.10401 -0.05039
 C468 C 0.57872 1.08607 -0.06709
 C469 C 0.58397 1.08432 -0.09689
 H470 H 0.66263 1.13433 -0.19567
 H471 H 0.73020 1.17348 -0.13011
 H472 H 0.70284 1.15401 -0.21560
 H473 H 0.70213 1.16489 -0.08862
 H474 H 0.66345 1.14493 -0.06621
 H475 H 0.63339 1.10865 -0.17585
 H476 H 0.59678 1.08490 -0.15275
 H477 H 0.62703 1.13233 -0.04852
 H478 H 0.59069 1.10583 -0.02732
 H479 H 0.57146 1.07090 -0.11004
 C480 C 0.29236 0.85913 -0.09591
 C481 C 0.31540 0.86938 -0.11066
 C482 C 0.31783 0.86387 -0.14072
 C483 C 0.29727 0.85005 -0.15544
 C484 C 0.27433 0.84078 -0.14054
 C485 C 0.27227 0.84514 -0.11066
 C486 C 0.34070 0.87225 -0.15597
 C487 C 0.36141 0.88587 -0.14207
 C488 C 0.35981 0.89236 -0.11231
 C489 C 0.33607 0.88474 -0.09658
 C490 C 0.33347 0.89337 -0.06750
 C491 C 0.35347 0.90840 -0.05401
 C492 C 0.37709 0.91502 -0.06864
 C493 C 0.38088 0.90680 -0.09784
 C494 C 0.40570 0.91330 -0.11117
 C495 C 0.42547 0.92785 -0.09627
 C496 C 0.42129 0.93652 -0.06764
 C497 C 0.39693 0.92999 -0.05407
 H498 H 0.28927 0.86125 -0.07291
 H499 H 0.29916 0.84631 -0.17851
 H500 H 0.25472 0.83818 -0.09866
 H501 H 0.34269 0.86811 -0.17895
 H502 H 0.37822 0.89175 -0.15556
 H503 H 0.31582 0.88954 -0.05462
 H504 H 0.35042 0.91480 -0.03173
 H505 H 0.41071 0.90701 -0.13291
 H506 H 0.44428 0.93198 -0.10716
 H507 H 0.39314 0.93690 -0.03210
 C508 C 0.71194 0.89672 0.14478
 C509 C 0.68854 0.88363 0.13455
 C510 C 0.68518 0.85355 0.14011
 C511 C 0.70524 0.83721 0.15377
 C512 C 0.72852 0.85050 0.16302
 C513 C 0.73148 0.88037 0.15879
 C514 C 0.66187 0.83989 0.13195
 C515 C 0.64157 0.85544 0.11862
 C516 C 0.64408 0.88531 0.11212
 C517 C 0.66837 0.89938 0.11926
 C518 C 0.67199 0.92848 0.11014
 C519 C 0.65244 0.94354 0.09511
 C520 C 0.62822 0.93057 0.08917
 C521 C 0.62342 0.90147 0.09803
 C522 C 0.59798 0.88991 0.09261
 C523 C 0.57861 0.90634 0.07829
 C524 C 0.58382 0.93478 0.06867
 C525 C 0.60879 0.94667 0.07429
 H526 H 0.71563 0.91962 0.14273
 H527 H 0.70268 0.81413 0.15748
 H528 H 0.74930 0.89109 0.16589
 H529 H 0.65919 0.81690 0.13609
 H530 H 0.62437 0.84312 0.11284
 H531 H 0.69017 0.94010 0.11350
 H532 H 0.65628 0.96575 0.08825
 H533 H 0.59217 0.86847 0.09973
 H534 H 0.55930 0.89676 0.07511
 H535 H 0.61334 0.96850 0.06677
   
