data_POSCAR
  _audit_creation_date              2014-09-24
  _audit_creation_method            'ToBaCCo'
  _symmetry_space_group_name_H-M    'P1'
  _symmetry_Int_Tables_number       1
  _symmetry_cell_setting            triclinic
  loop_
  _symmetry_equiv_pos_as_xyz
 x,y,z
_cell_length_a 37.2104
_cell_length_b 37.2099
_cell_length_c 37.2093
_cell_angle_alpha 89.745800
_cell_angle_beta 90.004400
_cell_angle_gamma 89.999700
loop_
  _atom_site_label
  _atom_site_type_symbol
  _atom_site_fract_x
  _atom_site_fract_y
  _atom_site_fract_z
N1 N 0.22655 0.22522 0.22522
 N2 N -0.22562 0.77307 0.22690
 N3 N -0.22554 0.22683 -0.22683
 N4 N 0.22651 0.77474 -0.22527
 N5 N 0.22339 1.22420 0.77581
 N6 N 0.77663 0.77742 0.77739
 N7 N 0.22346 0.77577 1.22425
 N8 N 0.77651 1.22269 1.22265
 N9 N 0.53872 0.93619 1.03888
 N10 N 0.56403 0.91213 1.04528
 N11 N 0.46315 0.96113 1.06377
 N12 N 0.43759 0.95494 1.08761
 N13 N 0.46315 0.93622 1.03886
 N14 N 0.43758 0.91238 1.04506
 N15 N 0.53873 0.96110 1.06378
 N16 N 0.56404 0.95469 1.08783
 C17 C 0.57973 0.92433 1.07563
 C18 C 0.42176 0.92469 1.07531
 N19 N 0.46321 1.06360 1.03858
 N20 N 0.43784 1.08758 1.04482
 N21 N 0.53878 1.03856 1.06359
 N22 N 0.56433 1.04467 1.08742
 N23 N 0.53879 1.06358 1.03857
 N24 N 0.56433 1.08741 1.04467
 N25 N 0.46321 1.03859 1.06360
 N26 N 0.43783 1.04484 1.08757
 Mn27 Mn 0.50097 0.99984 1.06407
 C28 C 0.42212 1.07523 1.07521
 C29 C 0.58014 1.07498 1.07499
 N30 N 0.46318 0.93636 0.96140
 N31 N 0.43781 0.91239 0.95514
 N32 N 0.53876 0.96138 0.93639
 N33 N 0.56431 0.95527 0.91257
 N34 N 0.53875 0.93636 0.96141
 N35 N 0.56430 0.91253 0.95532
 N36 N 0.46318 0.96138 0.93638
 N37 N 0.43782 0.95513 0.91240
 Mn38 Mn 0.50095 0.93590 1.00014
 C39 C 0.42209 0.92474 0.92475
 C40 C 0.58012 0.92496 0.92500
 N41 N 0.53874 1.06375 0.96111
 N42 N 0.56405 1.08779 0.95470
 N43 N 0.46316 1.03884 0.93622
 N44 N 0.43760 1.04504 0.91237
 N45 N 0.46317 1.06375 0.96112
 N46 N 0.43761 1.08760 0.95493
 N47 N 0.53873 1.03884 0.93620
 N48 N 0.56404 1.04524 0.91215
 Mn49 Mn 0.50097 1.06405 0.99984
 Mn50 Mn 0.50096 1.00011 0.93592
 Cl51 Cl 0.50097 0.99997 0.99999
 C52 C 0.57974 1.07559 0.92434
 C53 C 0.42179 1.07530 0.92467
 N54 N 0.03808 0.46165 0.06354
 N55 N 0.04448 0.43614 0.08747
 N56 N 0.06300 0.53746 0.03891
 N57 N 0.08681 0.56298 0.04516
 N58 N 0.03805 0.53723 0.06389
 N59 N 0.04419 0.56259 0.08783
 N60 N 0.06303 0.46190 0.03857
 N61 N 0.08710 0.43657 0.04481
 C62 C 0.07487 0.42060 0.07513
 C63 C 0.07445 0.57853 0.07551
 N64 N 0.03806 0.53837 -0.06350
 N65 N 0.04446 0.56387 -0.08745
 N66 N 0.06301 0.46257 -0.03887
 N67 N 0.08683 0.43706 -0.04511
 N68 N 0.03805 0.46280 -0.06385
 N69 N 0.04420 0.43744 -0.08778
 N70 N 0.06301 0.53814 -0.03853
 N71 N 0.08709 0.56346 -0.04478
 Mn72 Mn 0.06339 0.50002 0.00002
 C73 C 0.07486 0.57942 -0.07511
 C74 C 0.07447 0.42151 -0.07546
 N75 N -0.03941 0.53717 0.06390
 N76 N -0.04567 0.56235 0.08799
 N77 N -0.06436 0.46183 0.03857
 N78 N -0.08822 0.43624 0.04463
 N79 N -0.03939 0.46160 0.06352
 N80 N -0.04555 0.43585 0.08727
 N81 N -0.06438 0.53741 0.03894
 N82 N -0.08833 0.56276 0.04535
 Mn83 Mn -0.00067 0.49941 0.06409
 C84 C -0.07602 0.57821 0.07578
 C85 C -0.07585 0.42016 0.07485
 N86 N -0.03940 0.46283 -0.06386
 N87 N -0.04565 0.43764 -0.08795
 N88 N -0.06438 0.53817 -0.03854
 N89 N -0.08823 0.56375 -0.04460
 N90 N -0.03941 0.53840 -0.06349
 N91 N -0.04557 0.56415 -0.08723
 N92 N -0.06437 0.46258 -0.03891
 N93 N -0.08832 0.43723 -0.04532
 Mn94 Mn -0.00068 0.50060 -0.06406
 Mn95 Mn -0.06476 0.50000 0.00002
 Cl96 Cl -0.00068 0.50001 0.00002
 C97 C -0.07599 0.42178 -0.07574
 C98 C -0.07587 0.57984 -0.07481
 N99 N 1.03803 0.06389 0.53718
 N100 N 1.04417 0.08783 0.56254
 N101 N 1.06300 0.03857 0.46185
 N102 N 1.08707 0.04482 0.43652
 N103 N 1.03804 0.06354 0.46161
 N104 N 1.04444 0.08748 0.43610
 N105 N 1.06299 0.03892 0.53741
 N106 N 1.08681 0.04516 0.56293
 C107 C 1.07445 0.07551 0.57848
 C108 C 1.07484 0.07514 0.42055
 N109 N 1.03804 -0.06384 0.46275
 N110 N 1.04418 -0.08778 0.43739
 N111 N 1.06301 -0.03852 0.53809
 N112 N 1.08709 -0.04477 0.56341
 N113 N 1.03806 -0.06349 0.53833
 N114 N 1.04447 -0.08744 0.56383
 N115 N 1.06299 -0.03887 0.46252
 N116 N 1.08681 -0.04511 0.43701
 Mn117 Mn 1.06337 0.00002 0.49997
 C118 C 1.07445 -0.07547 0.42146
 C119 C 1.07487 -0.07509 0.57937
 N120 N 0.96058 0.06352 0.46157
 N121 N 0.95441 0.08727 0.43582
 N122 N 0.93561 0.03894 0.53738
 N123 N 0.91165 0.04536 0.56273
 N124 N 0.96058 0.06390 0.53714
 N125 N 0.95431 0.08799 0.56231
 N126 N 0.93561 0.03857 0.46179
 N127 N 0.91175 0.04463 0.43621
 Mn128 Mn 0.99931 0.06409 0.49937
 C129 C 0.92411 0.07485 0.42013
 C130 C 0.92397 0.07578 0.57817
 N131 N 0.96059 -0.06349 0.53837
 N132 N 0.95444 -0.08722 0.56412
 N133 N 0.93561 -0.03891 0.46255
 N134 N 0.91165 -0.04533 0.43720
 N135 N 0.96058 -0.06386 0.46279
 N136 N 0.95432 -0.08795 0.43762
 N137 N 0.93562 -0.03853 0.53814
 N138 N 0.91177 -0.04459 0.56373
 Mn139 Mn 0.99932 -0.06405 0.50057
 Mn140 Mn 0.93523 0.00002 0.49997
 Cl141 Cl 0.99930 0.00002 0.49997
 C142 C 0.92414 -0.07480 0.57982
 C143 C 0.92398 -0.07575 0.42176
 C144 C 1.16762 0.16664 0.29609
 C145 C 1.14307 0.19007 0.31944
 C146 C 1.12375 0.17103 0.34410
 C147 C 1.13084 0.13042 0.34301
 C148 C 1.17167 0.12654 0.34751
 C149 C 1.19099 0.14557 0.32285
 C150 C 1.14261 0.13849 0.27932
 C151 C 1.12325 0.11943 0.30402
 C152 C 1.18859 0.18735 0.26986
 C153 C 1.20615 0.20481 0.24887
 C154 C 1.11025 0.11014 0.36990
 C155 C 1.09381 0.09392 0.39267
 H156 H 1.14101 0.21907 0.31680
 H157 H 1.10513 0.18372 0.36258
 H158 H 1.18429 0.11022 0.36822
 H159 H 1.22017 0.14556 0.32244
 H160 H 1.14031 0.13394 0.25061
 H161 H 1.10437 0.09854 0.29647
 C162 C 0.83277 -0.16822 0.29763
 C163 C 0.82559 -0.12762 0.29579
 C164 C 0.84457 -0.10835 0.32042
 C165 C 0.86886 -0.13159 0.34445
 C166 C 0.89265 -0.15278 0.31832
 C167 C 0.87366 -0.17205 0.29368
 C168 C 0.82475 -0.17892 0.33669
 C169 C 0.84371 -0.15968 0.36128
 C170 C 0.81214 -0.18911 0.27144
 C171 C 0.79474 -0.20660 0.25050
 C172 C 0.88907 -0.11108 0.37127
 C173 C 0.90524 -0.09468 0.39398
 H174 H 0.80725 -0.11512 0.27679
 H175 H 0.84251 -0.07934 0.32252
 H176 H 0.92182 -0.15263 0.31906
 H177 H 0.88656 -0.18842 0.27333
 H178 H 0.80583 -0.19980 0.34437
 H179 H 0.84102 -0.16409 0.39002
 C180 C 0.83280 0.16819 0.70236
 C181 C 0.82669 0.18062 0.66346
 C182 C 0.84563 0.16140 0.63885
 C183 C 0.86887 0.13160 0.65550
 C184 C 0.84271 0.10869 0.67781
 C185 C 0.82374 0.12794 0.70246
 C186 C 0.87365 0.16997 0.70787
 C187 C 0.89263 0.15072 0.68322
 C188 C 0.81218 0.18906 0.72858
 C189 C 0.79479 0.20652 0.74955
 C190 C 0.88907 0.11110 0.62866
 C191 C 0.90523 0.09471 0.60595
 H192 H 0.80902 0.20262 0.65590
 H193 H 0.84420 0.16693 0.61021
 H194 H 0.83941 0.07989 0.67457
 H195 H 0.80418 0.11563 0.72033
 H196 H 0.88653 0.18499 0.72925
 H197 H 0.92177 0.14924 0.68347
 C198 C 1.16763 -0.16665 0.70383
 C199 C 1.15239 -0.18977 0.67336
 C200 C 1.13309 -0.17072 0.64871
 C201 C 1.13088 -0.13040 0.65690
 C202 C 1.17009 -0.11801 0.66025
 C203 C 1.18940 -0.13707 0.68492
 C204 C 1.13493 -0.14730 0.71986
 C205 C 1.11559 -0.12822 0.69516
 C206 C 1.18859 -0.18737 0.73007
 C207 C 1.20613 -0.20484 0.75106
 C208 C 1.11030 -0.11011 0.63002
 C209 C 1.09385 -0.09388 0.60725
 H210 H 1.15638 -0.21860 0.67135
 H211 H 1.12054 -0.18324 0.62558
 H212 H 1.18164 -0.09615 0.64467
 H213 H 1.21750 -0.13153 0.69047
 H214 H 1.12764 -0.14847 0.74809
 H215 H 1.09172 -0.11304 0.70223
 C216 C 0.29751 1.16680 1.16679
 C217 C 0.29411 1.12595 1.17168
 C218 C 0.31883 1.10688 1.15260
 C219 C 0.34451 1.13054 1.13051
 C220 C 0.36122 1.15648 1.15776
 C221 C 0.33654 1.17553 1.17681
 C222 C 0.29528 1.17312 1.12604
 C223 C 0.32000 1.15404 1.10696
 C224 C 0.27122 1.18751 1.18750
 C225 C 0.25021 1.20491 1.20491
 C226 C 0.37143 1.11024 1.11020
 C227 C 0.39423 1.09401 1.09398
 H228 H 0.27404 1.11315 1.18860
 H229 H 0.31995 1.07772 1.15317
 H230 H 0.38996 1.15962 1.16175
 H231 H 0.34413 1.19498 1.19711
 H232 H 0.27597 1.19096 1.11331
 H233 H 0.32187 1.15554 1.07788
 C234 C 0.29748 0.83316 0.83317
 C235 C 0.28461 0.84356 0.87092
 C236 C 0.30935 0.86265 0.89001
 C237 C 0.34449 0.86942 0.86943
 C238 C 0.33301 0.88783 0.83425
 C239 C 0.30829 0.86876 0.81519
 C240 C 0.33295 0.81296 0.83920
 C241 C 0.35764 0.83201 0.85825
 C242 C 0.27119 0.81244 0.81245
 C243 C 0.25018 0.79504 0.79504
 C244 C 0.37142 0.88973 0.88973
 C245 C 0.39421 0.90596 0.90597
 H246 H 0.25840 0.83658 0.88170
 H247 H 0.30433 0.87202 0.91713
 H248 H 0.34333 0.91359 0.82515
 H249 H 0.29744 0.87819 0.78975
 H250 H 0.33820 0.78602 0.82940
 H251 H 0.38404 0.82139 0.86476
 C252 C 0.70371 0.83193 1.16803
 C253 C 0.70583 0.87260 1.17445
 C254 C 0.68124 0.89185 1.15520
 C255 C 0.65697 0.86852 1.13144
 C256 C 0.64008 0.84097 1.15718
 C257 C 0.66463 0.82175 1.17640
 C258 C 0.70747 0.82747 1.12721
 C259 C 0.68288 0.84673 1.10795
 C260 C 0.72986 0.81103 1.18893
 C261 C 0.75079 0.79350 1.20647
 C262 C 0.63019 0.88901 1.11095
 C263 C 0.60751 0.90539 1.09457
 H264 H 0.72497 0.88517 1.19248
 H265 H 0.67931 0.92092 1.15673
 H266 H 0.61133 0.83691 1.16006
 H267 H 0.65691 0.80122 1.19575
 H268 H 0.72768 0.81072 1.11454
 H269 H 0.68202 0.84647 1.07879
 C270 C 0.70377 1.16797 0.83200
 C271 C 0.66796 1.18769 0.83734
 C272 C 0.64340 1.16847 0.85655
 C273 C 0.65701 1.13138 0.86856
 C274 C 0.69186 1.13890 0.88930
 C275 C 0.71647 1.15815 0.87006
 C276 C 0.69366 1.13202 0.81462
 C277 C 0.66906 1.11278 0.83385
 C278 C 0.72993 1.18886 0.81112
 C279 C 0.75086 1.20639 0.79359
 C280 C 0.63021 1.11089 0.88903
 C281 C 0.60752 1.09452 0.90541
 H282 H 0.66240 1.21444 0.82697
 H283 H 0.61679 1.17876 0.86263
 H284 H 0.69678 1.12988 0.91665
 H285 H 0.74248 1.16564 0.88092
 H286 H 0.70486 1.12249 0.78946
 H287 H 0.65920 1.08677 0.82516
 C288 C 0.16766 0.29613 0.16662
 C289 C 0.12961 0.30216 0.18136
 C290 C 0.11028 0.32683 0.16231
 C291 C 0.13089 0.34305 0.13039
 C292 C 0.14295 0.31069 0.10796
 C293 C 0.16231 0.28599 0.12703
 C294 C 0.18491 0.33359 0.16569
 C295 C 0.16559 0.35824 0.14666
 C296 C 0.18863 0.26989 0.18734
 C297 C 0.20617 0.24889 0.20480
 C298 C 0.11030 0.36994 0.11012
 C299 C 0.09385 0.39271 0.09390
 H300 H 0.11879 0.28823 0.20466
 H301 H 0.08289 0.33405 0.16929
 H302 H 0.13682 0.30744 0.07964
 H303 H 0.17276 0.26159 0.11504
 H304 H 0.21011 0.34017 0.17881
 H305 H 0.17425 0.38593 0.14348
 C306 C -0.16716 0.29757 -0.16814
 C307 C -0.18713 0.33324 -0.16284
 C308 C -0.16818 0.35785 -0.14362
 C309 C -0.13108 0.34443 -0.13154
 C310 C -0.11221 0.33262 -0.16623
 C311 C -0.13118 0.30798 -0.18547
 C312 C -0.15749 0.28479 -0.13006
 C313 C -0.13850 0.30944 -0.11080
 C314 C -0.18779 0.27137 -0.18902
 C315 C -0.20519 0.25042 -0.20650
 C316 C -0.11088 0.37127 -0.11105
 C317 C -0.09472 0.39399 -0.09466
 H318 H -0.21385 0.33868 -0.17326
 H319 H -0.17867 0.38437 -0.13757
 H320 H -0.08621 0.34268 -0.17488
 H321 H -0.12143 0.29694 -0.21061
 H322 H -0.16487 0.25869 -0.11920
 H323 H -0.12961 0.30447 -0.08344
 C324 C 0.16761 0.70385 -0.16668
 C325 C 0.15549 0.67149 -0.18906
 C326 C 0.13618 0.64685 -0.17002
 C327 C 0.13086 0.65693 -0.13043
 C328 C 0.11359 0.69441 -0.13130
 C329 C 0.13293 0.71910 -0.15038
 C330 C 0.18824 0.68762 -0.13479
 C331 C 0.16892 0.66295 -0.11573
 C332 C 0.18857 0.73008 -0.18740
 C333 C 0.20612 0.75108 -0.20486
 C334 C 0.11027 0.63006 -0.11013
 C335 C 0.09383 0.60729 -0.09390
 H336 H 0.16151 0.66825 -0.21742
 H337 H 0.12567 0.62249 -0.18206
 H338 H 0.08842 0.70097 -0.11810
 H339 H 0.12434 0.74682 -0.15353
 H340 H 0.21560 0.69490 -0.12776
 H341 H 0.17973 0.64911 -0.09237
 C342 C -0.16724 0.70233 0.16822
 C343 C -0.17314 0.70526 0.12748
 C344 C -0.15415 0.68063 0.10821
 C345 C -0.13114 0.65551 0.13161
 C346 C -0.15752 0.63865 0.15853
 C347 C -0.17648 0.66324 0.17776
 C348 C -0.12640 0.70521 0.17337
 C349 C -0.10741 0.68058 0.15410
 C350 C -0.18787 0.72852 0.18911
 C351 C -0.20527 0.74947 0.20658
 C352 C -0.11093 0.62869 0.11110
 C353 C -0.09476 0.60598 0.09471
 H354 H -0.19065 0.72496 0.11487
 H355 H -0.15539 0.67923 0.07910
 H356 H -0.16100 0.60989 0.16218
 H357 H -0.19620 0.65555 0.19788
 H358 H -0.11354 0.72487 0.19058
 H359 H -0.07828 0.67914 0.15481
 C360 C 1.16516 0.16612 0.70440
 C361 C 1.14240 0.13564 0.72051
 C362 C 1.12347 0.11678 0.69549
 C363 C 1.12919 0.13029 0.65685
 C364 C 1.17002 0.12916 0.65108
 C365 C 1.18891 0.14798 0.67606
 C366 C 1.13857 0.18924 0.68285
 C367 C 1.11967 0.17041 0.65786
 C368 C 1.18574 0.18663 0.73096
 C369 C 1.20309 0.20394 0.75210
 C370 C 1.10907 0.11022 0.62962
 C371 C 1.09300 0.09416 0.60659
 H372 H 1.14124 0.12942 0.74902
 H373 H 1.10609 0.09440 0.70256
 H374 H 1.18296 0.11477 0.62930
 H375 H 1.21804 0.14972 0.67568
 H376 H 1.13486 0.21788 0.68690
 H377 H 1.09977 0.18292 0.64051
 C378 C 0.83367 -0.16535 0.70678
 C379 C 0.86269 -0.18760 0.68779
 C380 C 0.88150 -0.16872 0.66261
 C381 C 0.86948 -0.12941 0.65887
 C382 C 0.87248 -0.11380 0.69689
 C383 C 0.85364 -0.13271 0.72210
 C384 C 0.81018 -0.15015 0.67641
 C385 C 0.82899 -0.13127 0.65124
 C386 C 0.81318 -0.18593 0.73354
 C387 C 0.79584 -0.20332 0.75482
 C388 C 0.88952 -0.10931 0.63141
 C389 C 0.90556 -0.09329 0.60818
 H390 H 0.86803 -0.21571 0.69365
 H391 H 0.90296 -0.18065 0.64690
 H392 H 0.88803 -0.09002 0.70342
 H393 H 0.85304 -0.12514 0.75024
 H394 H 0.78128 -0.15384 0.67484
 H395 H 0.81619 -0.11880 0.62812
 C396 C 1.16522 -0.16614 0.29563
 C397 C 1.17436 -0.17648 0.33454
 C398 C 1.15546 -0.15765 0.35949
 C399 C 1.12923 -0.13027 0.34313
 C400 C 1.10543 -0.15216 0.31759
 C401 C 1.12436 -0.17102 0.29260
 C402 C 1.17132 -0.12537 0.29351
 C403 C 1.15239 -0.10651 0.31850
 C404 C 1.18581 -0.18665 0.26909
 C405 C 1.20316 -0.20396 0.24796
 C406 C 1.10909 -0.11019 0.37035
 C407 C 1.09301 -0.09412 0.39336
 H408 H 1.19398 -0.19684 0.34187
 H409 H 1.15889 -0.16188 0.38817
 H410 H 1.07629 -0.15275 0.31897
 H411 H 1.11145 -0.18777 0.27257
 H412 H 1.18891 -0.11247 0.27408
 H413 H 1.15376 -0.07744 0.32047
 C414 C 0.83356 0.16548 0.29326
 C415 C 0.82363 0.17508 0.33207
 C416 C 0.84245 0.15620 0.35721
 C417 C 0.86939 0.12951 0.34114
 C418 C 0.89322 0.15217 0.31610
 C419 C 0.87437 0.17109 0.29092
 C420 C 0.82819 0.12465 0.29081
 C421 C 0.84704 0.10573 0.31599
 C422 C 0.81306 0.18606 0.26652
 C423 C 0.79572 0.20345 0.24523
 C424 C 0.88946 0.10939 0.36857
 C425 C 0.90551 0.09336 0.39178
 H426 H 0.80356 0.19500 0.33920
 H427 H 0.83848 0.15994 0.38586
 H428 H 0.92232 0.15323 0.31796
 H429 H 0.88732 0.18835 0.27121
 H430 H 0.81113 0.11174 0.27102
 H431 H 0.84612 0.07661 0.31778
 C432 C 0.16520 0.29562 -0.16611
 C433 C 0.16936 0.29194 -0.12520
 C434 C 0.15044 0.31694 -0.10634
 C435 C 0.12923 0.34315 -0.13025
 C436 C 0.10561 0.31921 -0.15405
 C437 C 0.12453 0.29421 -0.17291
 C438 C 0.17611 0.33450 -0.17468
 C439 C 0.15722 0.35946 -0.15585
 C440 C 0.18576 0.26907 -0.18662
 C441 C 0.20311 0.24792 -0.20393
 C442 C 0.10910 0.37038 -0.11018
 C443 C 0.09304 0.39340 -0.09411
 H444 H 0.18568 0.27148 -0.11221
 H445 H 0.15055 0.31791 -0.07719
 H446 H 0.07659 0.32165 -0.15589
 H447 H 0.11172 0.27523 -0.19091
 H448 H 0.19687 0.34179 -0.19387
 H449 H 0.16181 0.38813 -0.15892
 C450 C -0.16642 0.29329 0.16544
 C451 C -0.17220 0.29118 0.12465
 C452 C -0.15334 0.31636 0.10573
 C453 C -0.13057 0.34116 0.12949
 C454 C -0.10672 0.31578 0.15174
 C455 C -0.12557 0.29060 0.17065
 C456 C -0.17596 0.33210 0.17543
 C457 C -0.15714 0.35724 0.15655
 C458 C -0.18693 0.26655 0.18601
 C459 C -0.20427 0.24527 0.20340
 C460 C -0.11050 0.36860 0.10938
 C461 C -0.09445 0.39181 0.09335
 H462 H -0.18953 0.27162 0.11175
 H463 H -0.15452 0.31837 0.07664
 H464 H -0.07760 0.31741 0.15253
 H465 H -0.11261 0.27066 0.18764
 H466 H -0.19579 0.33923 0.19559
 H467 H -0.16085 0.38589 0.16055
 C468 C -0.16635 0.70677 -0.16541
 C469 C -0.17195 0.70904 -0.12460
 C470 C -0.15312 0.68384 -0.10568
 C471 C -0.13055 0.65887 -0.12945
 C472 C -0.10669 0.68407 -0.15188
 C473 C -0.12552 0.70927 -0.17080
 C474 C -0.17611 0.66797 -0.17523
 C475 C -0.15731 0.64281 -0.15635
 C476 C -0.18684 0.73353 -0.18599
 C477 C -0.20417 0.75483 -0.20337
 C478 C -0.11050 0.63142 -0.10934
 C479 C -0.09447 0.60820 -0.09331
 H480 H -0.18914 0.72871 -0.11170
 H481 H -0.15417 0.68193 -0.07658
 H482 H -0.07758 0.68231 -0.15279
 H483 H -0.11255 0.72909 -0.18791
 H484 H -0.19605 0.66086 -0.19528
 H485 H -0.16116 0.61416 -0.16023
 C486 C 0.16523 0.70437 0.16617
 C487 C 0.12500 0.70371 0.17530
 C488 C 0.10606 0.67872 0.15644
 C489 C 0.12923 0.65686 0.13031
 C490 C 0.15930 0.64074 0.15356
 C491 C 0.17821 0.66569 0.17239
 C492 C 0.16686 0.70994 0.12529
 C493 C 0.14792 0.68495 0.10643
 C494 C 0.18581 0.73092 0.18668
 C495 C 0.20317 0.75206 0.20399
 C496 C 0.10909 0.62964 0.11024
 C497 C 0.09302 0.60663 0.09416
 H498 H 0.11248 0.72134 0.19481
 H499 H 0.07733 0.67495 0.15980
 H500 H 0.16525 0.61221 0.15509
 H501 H 0.20033 0.65852 0.19004
 H502 H 0.18155 0.73161 0.11232
 H503 H 0.14639 0.68521 0.07729
 C504 C 0.29524 1.16603 0.83398
 C505 C 0.29244 1.17097 0.87483
 C506 C 0.31758 1.15207 0.89372
 C507 C 0.34303 1.13010 0.86990
 C508 C 0.35917 1.15740 0.84342
 C509 C 0.33407 1.17627 0.82456
 C510 C 0.29317 1.12526 0.82812
 C511 C 0.31831 1.10636 0.84702
 C512 C 0.26853 1.18658 0.81343
 C513 C 0.24726 1.20392 0.79610
 C514 C 0.37040 1.10998 0.89001
 C515 C 0.39354 1.09390 0.90607
 H516 H 0.27247 1.18779 0.88776
 H517 H 0.31914 1.15270 0.92285
 H518 H 0.38783 1.16156 0.83980
 H519 H 0.34124 1.19659 0.80478
 H520 H 0.27367 1.11238 0.81072
 H521 H 0.32033 1.07729 0.84580
 C522 C 0.29526 0.83397 1.16605
 C523 C 0.33406 0.82274 1.17442
 C524 C 0.35915 0.84161 1.15554
 C525 C 0.34302 0.86991 1.13011
 C526 C 0.31924 0.89349 1.15410
 C527 C 0.29412 0.87459 1.17301
 C528 C 0.29155 0.83016 1.12515
 C529 C 0.31667 0.84906 1.10624
 C530 C 0.26857 0.81341 1.18661
 C531 C 0.24731 0.79607 1.20396
 C532 C 0.37038 0.89002 1.10999
 C533 C 0.39351 0.90609 1.09392
 H534 H 0.34123 0.80177 1.19351
 H535 H 0.38778 0.83681 1.15847
 H536 H 0.32186 0.92248 1.15603
 H537 H 0.27522 0.88738 1.19114
 H538 H 0.27099 0.81407 1.11219
 H539 H 0.31763 0.84918 1.07708
 C540 C 0.70632 1.16558 1.16555
 C541 C 0.66744 1.17501 1.17549
 C542 C 0.64244 1.15616 1.15664
 C543 C 0.65872 1.12967 1.12966
 C544 C 0.68404 1.10584 1.15200
 C545 C 0.70908 1.12473 1.17087
 C546 C 0.70862 1.17143 1.12474
 C547 C 0.68358 1.15255 1.10587
 C548 C 0.73291 1.18612 1.18608
 C549 C 0.75407 1.20348 1.20343
 C550 C 0.63143 1.10958 1.10958
 C551 C 0.60835 1.09354 1.09355
 H552 H 0.66016 1.19479 1.19558
 H553 H 0.61376 1.15980 1.16061
 H554 H 0.68247 1.07672 1.15287
 H555 H 0.72896 1.11179 1.18791
 H556 H 0.72821 1.18883 1.11181
 H557 H 0.68171 1.15376 1.07677
 C558 C 0.70639 0.83447 0.83449
 C559 C 0.70901 0.87532 0.82906
 C560 C 0.68395 0.89417 0.84793
 C561 C 0.65875 0.87032 0.87036
 C562 C 0.68372 0.84758 0.89417
 C563 C 0.70878 0.82873 0.87530
 C564 C 0.66751 0.82490 0.82464
 C565 C 0.64250 0.84372 0.84348
 C566 C 0.73300 0.81396 0.81395
 C567 C 0.75417 0.79662 0.79660
 C568 C 0.63144 0.89039 0.89044
 C569 C 0.60834 0.90641 0.90646
 H570 H 0.72883 0.88828 0.81195
 H571 H 0.68230 0.92329 0.84699
 H572 H 0.68192 0.84643 0.92328
 H573 H 0.72845 0.81142 0.88823
 H574 H 0.66026 0.80505 0.80460
 H575 H 0.61382 0.83999 0.83957
   
