data_POSCAR
  _audit_creation_date              2014-09-24
  _audit_creation_method            'ToBaCCo'
  _symmetry_space_group_name_H-M    'P1'
  _symmetry_Int_Tables_number       1
  _symmetry_cell_setting            triclinic
  loop_
  _symmetry_equiv_pos_as_xyz
 x,y,z
_cell_length_a 24.3090
_cell_length_b 24.0018
_cell_length_c 24.2977
_cell_angle_alpha 90.132600
_cell_angle_beta 90.208500
_cell_angle_gamma 89.805700
loop_
  _atom_site_label
  _atom_site_type_symbol
  _atom_site_fract_x
  _atom_site_fract_y
  _atom_site_fract_z
N1 N 0.18990 0.18990 0.18989
 N2 N -0.18718 0.81312 0.19051
 N3 N -0.19265 0.18649 -0.18979
 N4 N 0.19018 0.81025 -0.18973
 N5 N 0.18717 1.18435 0.81574
 N6 N 0.81022 0.81413 0.80811
 N7 N 0.18912 0.81042 1.18990
 N8 N 0.81028 1.18863 1.18938
 O9 O 0.57658 0.90002 0.90197
 O10 O 0.63694 0.95232 0.95320
 C11 C 0.62597 0.91559 0.91557
 O12 O 0.42151 1.09807 0.90397
 O13 O 0.36157 1.04737 0.95671
 C14 C 0.37231 1.08442 0.91957
 O15 O 0.57616 1.09358 0.90001
 O16 O 0.63656 1.04494 0.95453
 C17 C 0.62565 1.07995 0.91541
 O18 O 0.42174 0.89576 0.90699
 O19 O 0.36185 0.95129 0.95536
 C20 C 0.37250 0.91198 0.92029
 Zr21 Zr 0.49922 0.92722 0.93248
 O22 O 0.49268 0.92710 0.84556
 O23 O 0.50536 0.83921 0.93282
 Zr24 Zr 0.49908 1.06831 0.93186
 O25 O 0.49318 1.06972 0.84496
 O26 O 0.50464 1.15632 0.93387
 O27 O 0.54803 0.99757 0.92119
 O28 O 0.45149 0.99784 0.92220
 O29 O 0.42257 0.89652 1.09732
 O30 O 0.36231 0.95108 1.04822
 C31 C 0.37316 0.91231 1.08371
 O32 O 0.57727 1.09408 1.10324
 O33 O 0.63711 1.04481 1.04866
 C34 C 0.62651 1.08031 1.08751
 O35 O 0.42268 1.09979 1.09850
 O36 O 0.36237 1.04729 1.04766
 C37 C 0.37323 1.08531 1.08402
 O38 O 0.57760 0.90089 1.10148
 O39 O 0.63741 0.95256 1.04959
 C40 C 0.62683 0.91616 1.08739
 Zr41 Zr 0.49985 0.92807 1.07156
 O42 O 0.49435 0.92974 1.15851
 O43 O 0.50588 0.84007 1.07251
 Zr44 Zr 0.49987 1.06911 1.07112
 O45 O 0.49447 1.07159 1.15799
 O46 O 0.50595 1.15705 1.06862
 Zr47 Zr 0.58111 0.99802 1.00149
 Zr48 Zr 0.41780 0.99863 1.00190
 O49 O 0.45226 0.99878 1.08150
 O50 O 0.54891 0.99845 1.08197
 O51 O 0.45035 0.91703 1.00211
 O52 O 0.54718 1.07879 1.00138
 O53 O 0.54737 0.91741 1.00194
 O54 O 0.45038 1.07988 1.00155
 H55 H 0.42664 0.99764 0.88978
 H56 H 0.57219 1.11130 1.00135
 H57 H 0.42764 0.99887 1.11391
 H58 H 0.57244 0.88477 1.00189
 H59 H 0.47167 1.17061 0.95312
 H60 H 0.47324 1.17129 1.04874
 H61 H 0.52154 1.04449 1.17253
 H62 H 0.52713 0.94948 1.17271
 H63 H 0.47595 0.82539 1.04899
 H64 H 0.47471 0.82482 0.95528
 H65 H 0.52429 0.94824 0.83103
 H66 H 0.52096 1.04331 0.83059
 O67 O 0.09327 0.57729 -0.10329
 O68 O 0.04451 0.63865 -0.04963
 C69 C 0.07974 0.62741 -0.08806
 O70 O -0.10313 0.42138 -0.09730
 O71 O -0.04959 0.36031 -0.04794
 C72 C -0.08818 0.37128 -0.08330
 O73 O -0.09726 0.57830 -0.10325
 O74 O -0.04773 0.63916 -0.04972
 C75 C -0.08331 0.62833 -0.08816
 O76 O 0.09950 0.42101 -0.09741
 O77 O 0.04500 0.36031 -0.04943
 C78 C 0.08378 0.37117 -0.08422
 Zr79 Zr 0.06740 0.49920 -0.07212
 O80 O 0.06573 0.49224 -0.15901
 O81 O 0.15422 0.50554 -0.07309
 Zr82 Zr -0.07161 0.49981 -0.07189
 O83 O -0.07185 0.49303 -0.15877
 O84 O -0.15845 0.50676 -0.07181
 O85 O -0.00208 0.54926 -0.08271
 O86 O -0.00220 0.45105 -0.08199
 O87 O 0.09974 0.42145 0.09270
 O88 O 0.04576 0.36026 0.04406
 C89 C 0.08447 0.37144 0.07925
 O90 O -0.09635 0.57843 0.09883
 O91 O -0.04806 0.63917 0.04478
 C92 C -0.08287 0.62838 0.08361
 O93 O -0.10193 0.42201 0.09334
 O94 O -0.04905 0.36058 0.04389
 C95 C -0.08715 0.37182 0.07951
 O96 O 0.09416 0.57777 0.09840
 O97 O 0.04458 0.63902 0.04538
 C98 C 0.08020 0.62790 0.08373
 Zr99 Zr 0.06819 0.49959 0.06710
 O100 O 0.06840 0.49321 0.15400
 O101 O 0.15505 0.50586 0.06697
 Zr102 Zr -0.07094 0.50013 0.06722
 O103 O -0.07104 0.49391 0.15412
 O104 O -0.15780 0.50698 0.06655
 Zr105 Zr -0.00157 0.58250 -0.00227
 Zr106 Zr -0.00179 0.41680 -0.00229
 O107 O -0.00135 0.45156 0.07731
 O108 O -0.00128 0.54956 0.07807
 O109 O 0.07856 0.44962 -0.00248
 O110 O -0.08124 0.54839 -0.00231
 O111 O 0.07798 0.54767 -0.00249
 O112 O -0.08211 0.45030 -0.00228
 H113 H -0.00243 0.42574 -0.11427
 H114 H -0.11352 0.57371 -0.00232
 H115 H -0.00122 0.42649 0.10965
 H116 H 0.11029 0.57271 -0.00245
 H117 H -0.17288 0.47599 -0.04910
 H118 H -0.17235 0.47521 0.04505
 H119 H -0.04753 0.52415 0.16864
 H120 H 0.04631 0.52459 0.16855
 H121 H 0.16952 0.47461 0.04466
 H122 H 0.16898 0.47593 -0.04890
 H123 H 0.04476 0.52445 -0.17345
 H124 H -0.04935 0.52391 -0.17328
 O125 O 1.10311 -0.09392 0.57830
 O126 O 1.04967 -0.04367 0.63829
 C127 C 1.08808 -0.07969 0.62768
 O128 O 1.09781 0.10414 0.42349
 O129 O 1.04909 0.04921 0.36328
 C130 C 1.08440 0.08808 0.37412
 O131 O 1.10217 0.10008 0.57874
 O132 O 1.05077 0.04788 0.63860
 C133 C 1.08835 0.08443 0.62797
 O134 O 1.09865 -0.09899 0.42338
 O135 O 1.04844 -0.04557 0.36320
 C136 C 1.08442 -0.08407 0.37390
 Zr137 Zr 1.07161 -0.06832 0.50081
 O138 O 1.15846 -0.07051 0.49543
 O139 O 1.06947 -0.15629 0.50668
 Zr140 Zr 1.07214 0.07284 0.50092
 O141 O 1.15904 0.07116 0.49544
 O142 O 1.07301 0.16084 0.50680
 O143 O 1.08267 0.00228 0.54985
 O144 O 1.08189 0.00210 0.45333
 O145 O 0.90466 -0.09703 0.42306
 O146 O 0.95669 -0.04599 0.36290
 C147 C 0.91978 -0.08321 0.37375
 O148 O 0.90282 0.10092 0.57777
 O149 O 0.95421 0.04862 0.63816
 C150 C 0.91652 0.08532 0.62716
 O151 O 0.90715 0.10516 0.42272
 O152 O 0.95573 0.04982 0.36287
 C153 C 0.92038 0.08891 0.37342
 O154 O 0.90001 -0.09187 0.57738
 O155 O 0.95539 -0.04425 0.63781
 C156 C 0.91592 -0.07878 0.62681
 Zr157 Zr 0.93255 -0.06726 0.50041
 O158 O 0.84573 -0.06930 0.49443
 O159 O 0.93505 -0.15524 0.50645
 Zr160 Zr 0.93328 0.07406 0.50036
 O161 O 0.84640 0.07530 0.49416
 O162 O 0.93467 0.16207 0.50646
 Zr163 Zr 1.00232 0.00285 0.58225
 Zr164 Zr 1.00225 0.00242 0.41893
 O165 O 0.92271 0.00335 0.45286
 O166 O 0.92202 0.00361 0.54924
 O167 O 1.00199 -0.07890 0.45143
 O168 O 1.00271 0.08355 0.54858
 O169 O 1.00205 -0.07790 0.54839
 O170 O 1.00273 0.08406 0.45132
 H171 H 1.11436 0.00191 0.42879
 H172 H 1.00277 0.11613 0.57371
 H173 H 0.89021 0.00357 0.42814
 H174 H 1.00194 -0.11041 0.57345
 H175 H 1.04945 0.17549 0.47686
 H176 H 0.95550 0.17633 0.47460
 H177 H 0.83181 0.05326 0.52516
 H178 H 0.83125 -0.04140 0.52069
 H179 H 0.95347 -0.16967 0.47307
 H180 H 1.04900 -0.17042 0.47429
 H181 H 1.17294 -0.04455 0.52358
 H182 H 1.17317 0.05081 0.52794
 C183 C 1.14905 0.10785 0.23449
 C184 C 1.16450 0.16406 0.23657
 C185 C 1.15361 0.19537 0.28412
 C186 C 1.12821 0.17059 0.32943
 C187 C 1.11198 0.11453 0.32705
 C188 C 1.12243 0.08345 0.27912
 H189 H 1.15668 0.08321 0.19792
 H190 H 1.16522 0.23884 0.28613
 H191 H 1.12038 0.19539 0.36588
 H192 H 1.11060 0.04004 0.27643
 C193 C 0.89522 -0.14568 0.23310
 C194 C 0.83992 -0.16166 0.23677
 C195 C 0.81102 -0.15219 0.28571
 C196 C 0.83733 -0.12763 0.33082
 C197 C 0.89249 -0.11087 0.32696
 C198 C 0.92111 -0.11986 0.27766
 H199 H 0.91793 -0.15236 0.19540
 H200 H 0.76829 -0.16432 0.28894
 H201 H 0.81430 -0.12072 0.36832
 H202 H 0.96363 -0.10743 0.27380
 C203 C 0.84323 0.19142 0.71599
 C204 C 0.83365 0.16063 0.76392
 C205 C 0.85106 0.10491 0.76663
 C206 C 0.87840 0.08051 0.72219
 C207 C 0.88759 0.11113 0.67391
 C208 C 0.86935 0.16664 0.67095
 H209 H 0.83007 0.23449 0.71349
 H210 H 0.84440 0.08071 0.80353
 H211 H 0.89188 0.03755 0.72531
 H212 H 0.87627 0.19112 0.63425
 C213 C 1.18937 -0.16428 0.71250
 C214 C 1.16478 -0.16228 0.76446
 C215 C 1.11588 -0.13229 0.77181
 C216 C 1.09181 -0.10425 0.72760
 C217 C 1.11543 -0.10712 0.67490
 C218 C 1.16457 -0.13740 0.66779
 H219 H 1.22737 -0.18718 0.70665
 H220 H 1.09695 -0.13007 0.81203
 H221 H 1.05443 -0.08078 0.73466
 H222 H 1.18398 -0.14008 0.62782
 C223 C 0.22814 1.13335 1.11497
 C224 C 0.23587 1.16366 1.16364
 C225 C 0.28866 1.16858 1.18626
 C226 C 0.33366 1.14385 1.15999
 C227 C 0.32612 1.11289 1.11130
 C228 C 0.27273 1.10746 1.08942
 H229 H 0.18736 1.12924 1.09736
 H230 H 0.29486 1.19202 1.22389
 H231 H 0.37415 1.14837 1.17814
 H232 H 0.26535 1.08332 1.05246
 C233 C 0.23324 0.89174 0.85434
 C234 C 0.23603 0.83581 0.83769
 C235 C 0.28362 0.80464 0.84888
 C236 C 0.32842 0.82941 0.87548
 C237 C 0.32549 0.88528 0.89257
 C238 C 0.27738 0.91612 0.88209
 H239 H 0.19659 0.91624 0.84649
 H240 H 0.28615 0.76139 0.83633
 H241 H 0.36505 0.80481 0.88330
 H242 H 0.27429 0.95940 0.89453
 C243 C 0.71748 0.80876 1.15664
 C244 C 0.76556 0.83942 1.16619
 C245 C 0.76755 0.89563 1.15070
 C246 C 0.72234 0.92060 1.12496
 C247 C 0.67400 0.89004 1.11559
 C248 C 0.67167 0.83410 1.13220
 H249 H 0.71550 0.76533 1.16843
 H250 H 0.80456 0.91969 1.15755
 H251 H 0.72497 0.96388 1.11268
 H252 H 0.63494 0.80967 1.12507
 C253 C 0.76999 1.12968 0.88504
 C254 C 0.76189 1.15967 0.83632
 C255 C 0.70932 1.16276 0.81285
 C256 C 0.66481 1.13692 0.83849
 C257 C 0.67262 1.10667 0.88746
 C258 C 0.72589 1.10276 0.91003
 H259 H 0.81064 1.12664 0.90316
 H260 H 0.70287 1.18572 0.77505
 H261 H 0.62441 1.14039 0.81985
 H262 H 0.73352 1.07927 0.94724
 C263 C 0.19240 0.28482 0.15232
 C264 C 0.16328 0.23572 0.16282
 C265 C 0.10860 0.23095 0.14500
 C266 C 0.08339 0.27472 0.11668
 C267 C 0.11207 0.32440 0.10692
 C268 C 0.16676 0.32921 0.12521
 H269 H 0.23476 0.28880 0.16566
 H270 H 0.08586 0.19299 0.15234
 H271 H 0.04122 0.27011 0.10326
 H272 H 0.18979 0.36703 0.11801
 C273 C -0.11642 0.22553 -0.13587
 C274 C -0.16685 0.23278 -0.16295
 C275 C -0.19213 0.28528 -0.16317
 C276 C -0.16661 0.33058 -0.13742
 C277 C -0.11597 0.32355 -0.11003
 C278 C -0.09149 0.27035 -0.10903
 H279 H -0.09681 0.18497 -0.13516
 H280 H -0.23123 0.29112 -0.18390
 H281 H -0.18664 0.37093 -0.13861
 H282 H -0.05274 0.26342 -0.08802
 C283 C 0.14105 0.76988 -0.11131
 C284 C 0.16252 0.76434 -0.16446
 C285 C 0.15595 0.71405 -0.19310
 C286 C 0.12914 0.66921 -0.16830
 C287 C 0.10730 0.67470 -0.11505
 C288 C 0.11310 0.72566 -0.08705
 H289 H 0.14546 0.80874 -0.08901
 H290 H 0.17227 0.70949 -0.23427
 H291 H 0.12505 0.63048 -0.19088
 H292 H 0.09680 0.73103 -0.04602
 C293 C -0.13745 0.77345 0.11189
 C294 C -0.16198 0.76655 0.16343
 C295 C -0.16014 0.71447 0.18921
 C296 C -0.13474 0.66925 0.16316
 C297 C -0.10962 0.67601 0.11155
 C298 C -0.11079 0.72875 0.08649
 H299 H -0.13814 0.81377 0.09200
 H300 H -0.17875 0.70896 0.22924
 H301 H -0.13418 0.62923 0.18366
 H302 H -0.09143 0.73541 0.04710
 C303 C 1.16213 0.10150 0.76388
 C304 C 1.16523 0.16003 0.76908
 C305 C 1.14406 0.19303 0.72579
 C306 C 1.12087 0.16834 0.67899
 C307 C 1.11647 0.11028 0.67520
 C308 C 1.13708 0.07704 0.71797
 H309 H 1.17697 0.07467 0.79653
 H310 H 1.14637 0.23804 0.72783
 H311 H 1.10491 0.19463 0.64641
 H312 H 1.13383 0.03207 0.71577
 C313 C 0.80699 -0.14759 0.71425
 C314 C 0.83668 -0.15922 0.76248
 C315 C 0.89214 -0.14372 0.76615
 C316 C 0.91749 -0.11665 0.72230
 C317 C 0.88821 -0.10580 0.67355
 C318 C 0.83276 -0.12174 0.66974
 H319 H 0.76409 -0.15921 0.71100
 H320 H 0.91550 -0.15193 0.80329
 H321 H 0.96027 -0.10505 0.72614
 H322 H 0.80925 -0.11360 0.63266
 C323 C 1.11658 -0.12956 0.22798
 C324 C 1.16300 -0.16328 0.23597
 C325 C 1.18364 -0.17139 0.28922
 C326 C 1.15780 -0.14626 0.33432
 C327 C 1.11142 -0.11185 0.32656
 C328 C 1.09145 -0.10343 0.27275
 H329 H 1.10038 -0.12299 0.18693
 H330 H 1.21949 -0.19750 0.29569
 H331 H 1.17447 -0.15331 0.37510
 H332 H 1.05639 -0.07663 0.26511
 C333 C 0.84777 0.19509 0.28348
 C334 C 0.83724 0.16361 0.23591
 C335 C 0.85439 0.10783 0.23363
 C336 C 0.88219 0.08393 0.27814
 C337 C 0.89221 0.11510 0.32617
 C338 C 0.87438 0.17079 0.32866
 H339 H 0.83480 0.23824 0.28566
 H340 H 0.84692 0.08316 0.19700
 H341 H 0.89513 0.04078 0.27533
 H342 H 0.88173 0.19566 0.36519
 C343 C 0.19378 0.27410 -0.13816
 C344 C 0.16221 0.23070 -0.16155
 C345 C 0.10432 0.23543 -0.15997
 C346 C 0.07909 0.28093 -0.13438
 C347 C 0.11087 0.32367 -0.11132
 C348 C 0.16833 0.32045 -0.11411
 H349 H 0.23829 0.27258 -0.13943
 H350 H 0.07851 0.20278 -0.17670
 H351 H 0.03464 0.28308 -0.13307
 H352 H 0.19348 0.35325 -0.09667
 C353 C -0.11477 0.22669 0.13355
 C354 C -0.16400 0.23469 0.16228
 C355 C -0.18873 0.28744 0.16305
 C356 C -0.16382 0.33223 0.13622
 C357 C -0.11444 0.32444 0.10708
 C358 C -0.09062 0.27096 0.10548
 H359 H -0.09571 0.18587 0.13221
 H360 H -0.22698 0.29385 0.18491
 H361 H -0.18339 0.37279 0.13794
 H362 H -0.05308 0.26336 0.08291
 C363 C -0.14029 0.77305 -0.11348
 C364 C -0.16379 0.76725 -0.16586
 C365 C -0.16040 0.71590 -0.19322
 C366 C -0.13460 0.67038 -0.16794
 C367 C -0.11052 0.67614 -0.11551
 C368 C -0.11324 0.72813 -0.08885
 H369 H -0.14219 0.81271 -0.09222
 H370 H -0.17823 0.71115 -0.23386
 H371 H -0.13290 0.63094 -0.18962
 H372 H -0.09491 0.73396 -0.04867
 C373 C 0.13318 0.77316 0.11406
 C374 C 0.16201 0.76472 0.16336
 C375 C 0.16312 0.71170 0.18720
 C376 C 0.13654 0.66711 0.16137
 C377 C 0.10746 0.67524 0.11182
 C378 C 0.10557 0.72896 0.08881
 H379 H 0.13168 0.81418 0.09564
 H380 H 0.18507 0.70495 0.22548
 H381 H 0.13849 0.62637 0.18036
 H382 H 0.08320 0.73677 0.05103
 C383 C 0.27603 1.13808 0.80947
 C384 C 0.23276 1.16112 0.84091
 C385 C 0.23719 1.15923 0.89887
 C386 C 0.28258 1.13427 0.92428
 C387 C 0.32535 1.11195 0.89263
 C388 C 0.32214 1.11456 0.83511
 H389 H 0.27469 1.13940 0.76494
 H390 H 0.20455 1.17543 0.92464
 H391 H 0.28459 1.13283 0.96873
 H392 H 0.35481 1.09731 0.81004
 C393 C 0.28361 0.80522 1.15420
 C394 C 0.23554 0.83615 1.16394
 C395 C 0.23293 0.89196 1.14712
 C396 C 0.27754 0.91636 1.12046
 C397 C 0.32603 0.88572 1.11122
 C398 C 0.32888 0.83003 1.12871
 H399 H 0.28610 0.76207 1.16689
 H400 H 0.19603 0.91635 1.15382
 H401 H 0.27441 0.95948 1.10769
 H402 H 0.36573 0.80552 1.12188
 C403 C 0.76493 1.14813 1.10774
 C404 C 0.76397 1.16158 1.16395
 C405 C 0.71761 1.14771 1.19530
 C406 C 0.67239 1.12168 1.17050
 C407 C 0.67367 1.10778 1.11434
 C408 C 0.72044 1.12092 1.08333
 H409 H 0.80044 1.15803 1.08291
 H410 H 0.71634 1.15772 1.23875
 H411 H 0.63680 1.11170 1.19524
 H412 H 0.72216 1.11103 1.03992
 C413 C 0.71559 0.80912 0.84339
 C414 C 0.76344 0.83998 0.83374
 C415 C 0.76572 0.89591 0.85048
 C416 C 0.72102 0.92041 0.87736
 C417 C 0.67284 0.88971 0.88671
 C418 C 0.67027 0.83401 0.86900
 H419 H 0.71339 0.76590 0.83073
 H420 H 0.80255 0.92013 0.84365
 H421 H 0.72390 0.96349 0.89044
 H422 H 0.63369 0.80944 0.87606
   
