data_POSCAR
  _audit_creation_date              2014-09-24
  _audit_creation_method            'ToBaCCo'
  _symmetry_space_group_name_H-M    'P1'
  _symmetry_Int_Tables_number       1
  _symmetry_cell_setting            triclinic
  loop_
  _symmetry_equiv_pos_as_xyz
 x,y,z
_cell_length_a 59.4942
_cell_length_b 59.5855
_cell_length_c 9.0275
_cell_angle_alpha 89.703400
_cell_angle_beta 90.014000
_cell_angle_gamma 90.002900
loop_
  _atom_site_label
  _atom_site_type_symbol
  _atom_site_fract_x
  _atom_site_fract_y
  _atom_site_fract_z
C1 C 0.17950 0.23802 0.19306
 C2 C 0.17968 0.26099 0.18474
 C3 C 0.20191 0.26763 0.19963
 N4 N 0.21524 0.24943 0.21634
 C5 C 0.20166 0.23127 0.21236
 C6 C 0.20923 0.29020 0.20096
 C7 C 0.23172 0.29726 0.22310
 C8 C 0.23811 0.31943 0.24374
 C9 C 0.26094 0.31945 0.26546
 C10 C 0.26804 0.29730 0.25767
 N11 N 0.25015 0.28394 0.22913
 C12 C 0.29059 0.29030 0.27864
 C13 C 0.29776 0.26773 0.29053
 C14 C 0.31974 0.26114 0.31779
 C15 C 0.31964 0.23817 0.32609
 C16 C 0.29759 0.23137 0.30319
 N17 N 0.28432 0.24950 0.28148
 C18 C 0.29039 0.20874 0.29741
 C19 C 0.26797 0.20176 0.26972
 C20 C 0.26174 0.17976 0.24056
 C21 C 0.23892 0.17973 0.21892
 C22 C 0.23161 0.20173 0.23522
 N23 N 0.24942 0.21498 0.26844
 C24 C 0.20890 0.20866 0.21981
 H25 H 0.16474 0.22748 0.18456
 H26 H 0.16505 0.27158 0.17008
 H27 H 0.24869 0.23163 0.30045
 H28 H 0.22739 0.33410 0.24537
 H29 H 0.27110 0.33415 0.28694
 H30 H 0.33436 0.27176 0.33110
 H31 H 0.33420 0.22767 0.34567
 H32 H 0.22887 0.16514 0.19256
 H33 H 0.25069 0.26698 0.20574
 H34 H 0.27256 0.16519 0.23404
 C35 C 0.81982 0.23822 0.17630
 C36 C 0.82000 0.26119 0.18429
 C37 C 0.79799 0.26783 0.20966
 N38 N 0.78448 0.24964 0.21781
 C39 C 0.79772 0.23151 0.19747
 C40 C 0.79084 0.29040 0.22028
 C41 C 0.76827 0.29738 0.23982
 C42 C 0.76114 0.31951 0.22934
 C43 C 0.73830 0.31948 0.25095
 C44 C 0.73194 0.29733 0.27427
 N45 N 0.75039 0.28403 0.26988
 C46 C 0.70947 0.29028 0.29780
 C47 C 0.70216 0.26770 0.30113
 C48 C 0.67995 0.26106 0.31803
 C49 C 0.67976 0.23809 0.31067
 C50 C 0.70188 0.23135 0.28990
 N51 N 0.71545 0.24951 0.28412
 C52 C 0.70909 0.20873 0.28210
 C53 C 0.73177 0.20180 0.26522
 C54 C 0.73908 0.17975 0.27993
 C55 C 0.76189 0.17983 0.25760
 C56 C 0.76808 0.20190 0.22971
 N57 N 0.74956 0.21513 0.23225
 C58 C 0.79047 0.20893 0.20269
 H59 H 0.83437 0.22768 0.15803
 H60 H 0.83467 0.27178 0.17198
 H61 H 0.74885 0.23188 0.20163
 H62 H 0.77127 0.33420 0.20621
 H63 H 0.72756 0.33414 0.24766
 H64 H 0.66536 0.27164 0.33330
 H65 H 0.66501 0.22755 0.32056
 H66 H 0.77272 0.16525 0.26308
 H67 H 0.75096 0.26712 0.29599
 H68 H 0.72904 0.16510 0.30586
 C69 C 0.82016 0.73850 0.82246
 C70 C 0.82027 0.76147 0.81450
 C71 C 0.79823 0.76810 0.78968
 N72 N 0.78475 0.74988 0.78181
 C73 C 0.79805 0.73173 0.80181
 C74 C 0.79104 0.79068 0.77961
 C75 C 0.76846 0.79769 0.76048
 C76 C 0.76132 0.81979 0.77148
 C77 C 0.73848 0.81979 0.74990
 C78 C 0.73213 0.79769 0.72614
 N79 N 0.75059 0.78438 0.73020
 C80 C 0.70966 0.79068 0.70243
 C81 C 0.70237 0.76810 0.69937
 C82 C 0.68019 0.76142 0.68191
 C83 C 0.68005 0.73844 0.68989
 C84 C 0.70215 0.73176 0.71157
 N85 N 0.71569 0.74993 0.71738
 C86 C 0.70936 0.70918 0.72002
 C87 C 0.73198 0.70219 0.73685
 C88 C 0.73914 0.68014 0.72254
 C89 C 0.76197 0.68010 0.74399
 C90 C 0.76833 0.70214 0.77108
 N91 N 0.74984 0.71543 0.76884
 C92 C 0.79080 0.70910 0.79716
 H93 H 0.83475 0.72798 0.84048
 H94 H 0.83492 0.77208 0.82655
 H95 H 0.74920 0.73216 0.79880
 H96 H 0.77145 0.83444 0.79484
 H97 H 0.72773 0.83444 0.75354
 H98 H 0.66559 0.77199 0.66584
 H99 H 0.66534 0.72787 0.67969
 H100 H 0.77272 0.66547 0.73851
 H101 H 0.75119 0.76753 0.70355
 H102 H 0.72901 0.66556 0.69735
 C103 C 0.31942 0.73854 0.67822
 C104 C 0.31963 0.76150 0.68654
 C105 C 0.29762 0.76818 0.71115
 N106 N 0.28406 0.75002 0.71848
 C107 C 0.29729 0.73187 0.69842
 C108 C 0.29050 0.79075 0.72148
 C109 C 0.26793 0.79778 0.74065
 C110 C 0.26087 0.81992 0.72948
 C111 C 0.23805 0.81997 0.75134
 C112 C 0.23160 0.79784 0.77551
 N113 N 0.25003 0.78449 0.77129
 C114 C 0.20909 0.79085 0.80004
 C115 C 0.20175 0.76823 0.80332
 C116 C 0.17956 0.76153 0.82149
 C117 C 0.17935 0.73858 0.81326
 C118 C 0.20143 0.73186 0.79076
 N119 N 0.21501 0.75004 0.78469
 C120 C 0.20859 0.70923 0.78149
 C121 C 0.23124 0.70226 0.76375
 C122 C 0.23847 0.68016 0.77684
 C123 C 0.26129 0.68020 0.75474
 C124 C 0.26756 0.70230 0.72860
 N125 N 0.24907 0.71558 0.73188
 C126 C 0.28999 0.70930 0.70269
 H127 H 0.33396 0.72797 0.66031
 H128 H 0.33434 0.77206 0.67486
 H129 H 0.24842 0.73239 0.70288
 H130 H 0.27105 0.83457 0.70588
 H131 H 0.22737 0.83467 0.74780
 H132 H 0.16498 0.77209 0.83808
 H133 H 0.16461 0.72804 0.82374
 H134 H 0.27206 0.66558 0.75933
 H135 H 0.25058 0.76760 0.79825
 H136 H 0.22839 0.66549 0.80162
 O137 O 0.97861 0.01845 0.14383
 O138 O 1.02244 -0.02470 0.10106
 O139 O 1.02240 0.01843 0.14679
 O140 O 0.97867 -0.02468 0.09847
 O141 O 0.97899 -0.01873 -0.14347
 O142 O 1.02272 0.02440 -0.09516
 O143 O 1.02278 -0.01873 -0.14090
 O144 O 0.97894 0.02441 -0.09810
 Cu145 Cu 1.00050 -0.00374 0.14672
 Cu146 Cu 1.00090 0.00346 -0.14361
 C147 C 0.97138 0.02871 0.02998
 C148 C 1.03000 -0.02901 -0.02703
 C149 C 1.02994 0.02869 0.03381
 C150 C 0.97145 -0.02899 -0.03049
 O151 O 0.47780 0.51843 0.64347
 O152 O 0.52158 0.47527 0.59952
 O153 O 0.52159 0.51838 0.64578
 O154 O 0.47782 0.47531 0.59759
 O155 O 0.47807 0.48133 0.35569
 O156 O 0.52184 0.52440 0.40389
 O157 O 0.52185 0.48129 0.35763
 O158 O 0.47807 0.52446 0.40158
 Cu159 Cu 0.49967 0.49623 0.64579
 Cu160 Cu 0.49999 0.50349 0.35552
 C161 C 0.47055 0.52873 0.52979
 C162 C 0.52910 0.47098 0.47129
 C163 C 0.52911 0.52866 0.53279
 C164 C 0.47056 0.47104 0.46867
 O165 O -0.02173 0.52492 0.09817
 O166 O 0.02206 0.48164 0.14061
 O167 O 0.02205 0.52483 0.09452
 O168 O -0.02172 0.48172 0.14423
 O169 O -0.02217 0.47608 -0.09765
 O170 O 0.02159 0.51921 -0.14736
 O171 O 0.02158 0.47601 -0.10127
 O172 O -0.02220 0.51928 -0.14370
 Cu173 Cu 0.00021 0.50387 0.14353
 Cu174 Cu -0.00035 0.49706 -0.14665
 C175 C -0.02936 0.52940 -0.02979
 C176 C 0.02920 0.47151 0.02670
 C177 C 0.02921 0.52930 -0.03460
 C178 C -0.02932 0.47161 0.03151
 O179 O 0.47787 0.97607 0.40150
 O180 O 0.52166 1.01919 0.35238
 O181 O 0.52163 0.97602 0.39898
 O182 O 0.47785 1.01926 0.35537
 O183 O 0.47821 1.02494 0.59720
 O184 O 0.52199 0.98170 0.64084
 O185 O 0.52199 1.02487 0.59423
 O186 O 0.47822 0.98175 0.64334
 Cu187 Cu 0.49971 0.99705 0.35287
 Cu188 Cu 0.50014 1.00391 0.64304
 C189 C 0.47066 0.97161 0.53056
 C190 C 0.52922 1.02930 0.46522
 C191 C 0.52919 0.97155 0.52713
 C192 C 0.47063 1.02940 0.46907
 C193 C 1.19288 0.19226 0.20413
 C194 C 1.17876 0.17792 0.18986
 C195 C 1.16186 0.16089 0.17225
 C196 C 1.14045 0.16669 0.12079
 C197 C 1.12400 0.15016 0.10328
 C198 C 1.12877 0.12757 0.13710
 C199 C 1.15038 0.12193 0.18880
 C200 C 1.16680 0.13849 0.20617
 C201 C 1.11129 0.11000 0.11873
 C202 C 1.11691 0.08879 0.06170
 C203 C 1.10044 0.07227 0.04471
 C204 C 1.07815 0.07671 0.08445
 C205 C 1.07238 0.09774 0.14115
 C206 C 1.08882 0.11429 0.15826
 C207 C 1.06119 0.05971 0.06690
 C208 C 1.04693 0.04552 0.05205
 H209 H 1.13648 0.18398 0.09372
 H210 H 1.10764 0.15501 0.06134
 H211 H 1.15450 0.10475 0.21758
 H212 H 1.18333 0.13383 0.24629
 H213 H 1.13399 0.08507 0.02837
 H214 H 1.10507 0.05606 0.00021
 H215 H 1.05518 0.10134 0.17246
 H216 H 1.08400 0.13033 0.20421
 C217 C 0.69241 0.69189 0.70291
 C218 C 0.67828 0.67757 0.68826
 C219 C 0.66135 0.66057 0.67031
 C220 C 0.66610 0.63822 0.70692
 C221 C 0.64964 0.62170 0.68956
 C222 C 0.62818 0.62733 0.63517
 C223 C 0.62359 0.64987 0.59861
 C224 C 0.64008 0.66636 0.61612
 C225 C 0.61064 0.60981 0.61696
 C226 C 0.58811 0.61429 0.65392
 C227 C 0.57163 0.59778 0.63707
 C228 C 0.57742 0.57658 0.58312
 C229 C 0.59977 0.57194 0.54597
 C230 C 0.61628 0.58843 0.56273
 C231 C 0.56041 0.55962 0.56573
 C232 C 0.54613 0.54546 0.55095
 H233 H 0.68251 0.63358 0.74921
 H234 H 0.65360 0.60457 0.72046
 H235 H 0.60736 0.65470 0.55458
 H236 H 0.63626 0.68360 0.58701
 H237 H 0.58327 0.63047 0.69774
 H238 H 0.55438 0.60153 0.66636
 H239 H 0.60441 0.55561 0.50363
 H240 H 0.63341 0.58455 0.53142
 C241 C -0.19222 0.30772 0.20307
 C242 C -0.17811 0.32208 0.18846
 C243 C -0.16121 0.33915 0.17062
 C244 C -0.16599 0.36141 0.20775
 C245 C -0.14956 0.37800 0.19034
 C246 C -0.12812 0.37253 0.13541
 C247 C -0.12351 0.35007 0.09839
 C248 C -0.13996 0.33351 0.11594
 C249 C -0.11064 0.39013 0.11706
 C250 C -0.08807 0.38562 0.15324
 C251 C -0.07162 0.40219 0.13608
 C252 C -0.07749 0.42348 0.08264
 C253 C -0.09988 0.42814 0.04619
 C254 C -0.11635 0.41160 0.06325
 C255 C -0.06054 0.44052 0.06521
 C256 C -0.04630 0.45475 0.05023
 H257 H -0.18238 0.36594 0.25047
 H258 H -0.15354 0.39506 0.22174
 H259 H -0.10729 0.34536 0.05398
 H260 H -0.13612 0.31633 0.08640
 H261 H -0.08317 0.36937 0.19669
 H262 H -0.05435 0.39842 0.16492
 H263 H -0.10459 0.44455 0.00426
 H264 H -0.13351 0.41550 0.03245
 C265 C 0.30747 0.80805 0.70414
 C266 C 0.32162 0.82237 0.68927
 C267 C 0.33854 0.83941 0.67105
 C268 C 0.33383 0.86168 0.70824
 C269 C 0.35029 0.87824 0.69046
 C270 C 0.37169 0.87271 0.63510
 C271 C 0.37623 0.85024 0.59796
 C272 C 0.35975 0.83372 0.61589
 C273 C 0.38921 0.89027 0.61649
 C274 C 0.41179 0.88569 0.65217
 C275 C 0.42827 0.90223 0.63479
 C276 C 0.42243 0.92355 0.58163
 C277 C 0.40003 0.92827 0.54571
 C278 C 0.38353 0.91176 0.56297
 C279 C 0.43941 0.94055 0.56407
 C280 C 0.45367 0.95476 0.54911
 H281 H 0.31747 0.86625 0.75134
 H282 H 0.34636 0.89530 0.72192
 H283 H 0.39241 0.84549 0.55319
 H284 H 0.36353 0.81653 0.58632
 H285 H 0.41667 0.86943 0.69541
 H286 H 0.44555 0.89841 0.66326
 H287 H 0.39534 0.94470 0.50404
 H288 H 0.36637 0.91572 0.53257
 C289 C -0.19315 0.69272 -0.18690
 C290 C -0.17900 0.67839 -0.17267
 C291 C -0.16203 0.66138 -0.15545
 C292 C -0.16673 0.63911 -0.19269
 C293 C -0.15020 0.62260 -0.17631
 C294 C -0.12873 0.62817 -0.12224
 C295 C -0.12420 0.65063 -0.08493
 C296 C -0.14075 0.66710 -0.10146
 C297 C -0.11112 0.61066 -0.10532
 C298 C -0.08862 0.61532 -0.14260
 C299 C -0.07207 0.59882 -0.12703
 C300 C -0.07776 0.57745 -0.07417
 C301 C -0.10007 0.57264 -0.03654
 C302 C -0.11665 0.58912 -0.05199
 C303 C -0.06071 0.56047 -0.05880
 C304 C -0.04640 0.54626 -0.04581
 H305 H -0.18314 0.63452 -0.23489
 H306 H -0.15412 0.60554 -0.20795
 H307 H -0.10795 0.65541 -0.04125
 H308 H -0.13697 0.68430 -0.07188
 H309 H -0.08387 0.63164 -0.18568
 H310 H -0.05486 0.60271 -0.15682
 H311 H -0.10464 0.55617 0.00492
 H312 H -0.13374 0.58509 -0.02033
 C313 C 0.30646 1.19237 0.31345
 C314 C 0.32063 1.17806 0.32769
 C315 C 0.33763 1.16108 0.34476
 C316 C 0.33303 1.13884 0.30600
 C317 C 0.34960 1.12236 0.32197
 C318 C 0.37101 1.12793 0.37715
 C319 C 0.37544 1.15035 0.41596
 C320 C 0.35885 1.16679 0.39984
 C321 C 0.38867 1.11045 0.39368
 C322 C 0.41118 1.11524 0.35747
 C323 C 0.42777 1.09878 0.37273
 C324 C 0.42212 1.07733 0.42429
 C325 C 0.39980 1.07239 0.46069
 C326 C 0.38317 1.08882 0.44555
 C327 C 0.43922 1.06039 0.43955
 C328 C 0.45356 1.04623 0.45266
 H329 H 0.31667 1.13426 0.26292
 H330 H 0.34576 1.10534 0.28920
 H331 H 0.39163 1.15512 0.46055
 H332 H 0.36255 1.18396 0.43057
 H333 H 0.41591 1.13163 0.31547
 H334 H 0.44500 1.10277 0.34386
 H335 H 0.39525 1.05585 0.50110
 H336 H 0.36606 1.08470 0.47632
 C337 C 1.19307 -0.19276 -0.18426
 C338 C 1.17895 -0.17840 -0.17029
 C339 C 1.16207 -0.16134 -0.15353
 C340 C 1.13935 -0.16730 -0.14561
 C341 C 1.12291 -0.15074 -0.12919
 C342 C 1.12899 -0.12796 -0.12051
 C343 C 1.15190 -0.12214 -0.12882
 C344 C 1.16831 -0.13874 -0.14523
 C345 C 1.11153 -0.11034 -0.10337
 C346 C 1.11322 -0.08988 -0.18119
 C347 C 1.09672 -0.07336 -0.16551
 C348 C 1.07832 -0.07704 -0.07197
 C349 C 1.07650 -0.09731 0.00614
 C350 C 1.09297 -0.11386 -0.00938
 C351 C 1.06130 -0.06006 -0.05644
 C352 C 1.04702 -0.04586 -0.04326
 H353 H 1.13434 -0.18475 -0.15255
 H354 H 1.10542 -0.15573 -0.12531
 H355 H 1.15714 -0.10479 -0.12069
 H356 H 1.18586 -0.13396 -0.15107
 H357 H 1.12714 -0.08678 -0.25579
 H358 H 1.09827 -0.05775 -0.22678
 H359 H 1.06235 -0.10030 0.07920
 H360 H 1.09134 -0.12929 0.05353
 C361 C 0.69249 0.30757 0.31353
 C362 C 0.67833 0.32188 0.32694
 C363 C 0.66137 0.33889 0.34329
 C364 C 0.64012 0.33318 0.39796
 C365 C 0.62361 0.34968 0.41414
 C366 C 0.62816 0.37215 0.37576
 C367 C 0.64960 0.37770 0.32070
 C368 C 0.66608 0.36117 0.30466
 C369 C 0.61063 0.38969 0.39290
 C370 C 0.61627 0.41117 0.44530
 C371 C 0.59975 0.42767 0.46108
 C372 C 0.57738 0.42295 0.42475
 C373 C 0.57159 0.40165 0.37260
 C374 C 0.58808 0.38512 0.35670
 C375 C 0.56038 0.43994 0.44097
 C376 C 0.54611 0.45413 0.45464
 H377 H 0.63633 0.31598 0.42851
 H378 H 0.60739 0.34491 0.45866
 H379 H 0.65354 0.39478 0.28832
 H380 H 0.68248 0.36575 0.26184
 H381 H 0.63341 0.41513 0.47594
 H382 H 0.60441 0.44409 0.50200
 H383 H 0.55433 0.39782 0.34388
 H384 H 0.58323 0.36886 0.31424
 C385 C 0.80796 -0.19202 -0.20278
 C386 C 0.82210 -0.17772 -0.18775
 C387 C 0.83905 -0.16074 -0.16936
 C388 C 0.83442 -0.13842 -0.20707
 C389 C 0.85091 -0.12193 -0.18929
 C390 C 0.87228 -0.12758 -0.13339
 C391 C 0.87673 -0.15009 -0.09567
 C392 C 0.86022 -0.16655 -0.11361
 C393 C 0.88984 -0.11009 -0.11486
 C394 C 0.91242 -0.11468 -0.15016
 C395 C 0.92893 -0.09821 -0.13298
 C396 C 0.92314 -0.07693 -0.08046
 C397 C 0.90075 -0.07219 -0.04483
 C398 C 0.88420 -0.08863 -0.06190
 C399 C 0.94016 -0.05998 -0.06332
 C400 C 0.95444 -0.04581 -0.04867
 H401 H 0.81809 -0.13376 -0.25064
 H402 H 0.84705 -0.10482 -0.22121
 H403 H 0.89289 -0.15494 -0.05049
 H404 H 0.86395 -0.18378 -0.08364
 H405 H 0.91726 -0.13092 -0.19297
 H406 H 0.94621 -0.10205 -0.16118
 H407 H 0.89609 -0.05579 -0.00361
 H408 H 0.86705 -0.08467 -0.03179
 C409 C 0.30750 0.30762 0.29603
 C410 C 0.32160 0.32196 0.31089
 C411 C 0.33849 0.33899 0.32913
 C412 C 0.35967 0.33326 0.38506
 C413 C 0.37613 0.34976 0.40298
 C414 C 0.37161 0.37226 0.36508
 C415 C 0.35024 0.37784 0.30894
 C416 C 0.33381 0.36130 0.29117
 C417 C 0.38913 0.38980 0.38363
 C418 C 0.38342 0.41124 0.43648
 C419 C 0.39992 0.42773 0.45364
 C420 C 0.42233 0.42304 0.41828
 C421 C 0.42819 0.40177 0.36584
 C422 C 0.41172 0.38526 0.34856
 C423 C 0.43930 0.44003 0.43566
 C424 C 0.45356 0.45421 0.45045
 H425 H 0.36344 0.31604 0.41523
 H426 H 0.39230 0.34497 0.44831
 H427 H 0.34634 0.39493 0.27686
 H428 H 0.31747 0.36589 0.24747
 H429 H 0.36625 0.41517 0.46641
 H430 H 0.39521 0.44412 0.49477
 H431 H 0.44548 0.39797 0.33783
 H432 H 0.41662 0.36903 0.30587
 C433 C 0.19254 0.69285 -0.20274
 C434 C 0.17839 0.67850 -0.18850
 C435 C 0.16146 0.66146 -0.17103
 C436 C 0.14010 0.66719 -0.11874
 C437 C 0.12361 0.65066 -0.10161
 C438 C 0.12829 0.62815 -0.13667
 C439 C 0.14985 0.62258 -0.18918
 C440 C 0.16631 0.63914 -0.20615
 C441 C 0.11076 0.61058 -0.11881
 C442 C 0.11635 0.58918 -0.06322
 C443 C 0.09983 0.57266 -0.04672
 C444 C 0.07753 0.57729 -0.08545
 C445 C 0.07178 0.59850 -0.14078
 C446 C 0.08827 0.61505 -0.15740
 C447 C 0.06052 0.56030 -0.06809
 C448 C 0.04624 0.54612 -0.05319
 H449 H 0.13620 0.68442 -0.09080
 H450 H 0.10730 0.65545 -0.05903
 H451 H 0.15389 0.60547 -0.21894
 H452 H 0.18280 0.63454 -0.24698
 H453 H 0.13344 0.58531 -0.03062
 H454 H 0.10445 0.55632 -0.00329
 H455 H 0.05457 0.60225 -0.17130
 H456 H 0.08346 0.63124 -0.20227
 C457 C 0.69307 1.19233 0.29835
 C458 C 0.67892 1.17800 0.31287
 C459 C 0.66196 1.16100 0.33052
 C460 C 0.63924 1.16701 0.33368
 C461 C 0.62272 1.15052 0.35105
 C462 C 0.62873 1.12777 0.36537
 C463 C 0.65165 1.12191 0.36203
 C464 C 0.66814 1.13843 0.34467
 C465 C 0.61117 1.11023 0.38323
 C466 C 0.61309 1.08954 0.30982
 C467 C 0.59649 1.07311 0.32608
 C468 C 0.57775 1.07712 0.41577
 C469 C 0.57569 1.09762 0.48944
 C470 C 0.59227 1.11408 0.47331
 C471 C 0.56064 1.06021 0.43238
 C472 C 0.54630 1.04608 0.44690
 H473 H 0.63428 1.18443 0.32228
 H474 H 0.60523 1.15554 0.35119
 H475 H 0.65683 1.10459 0.37470
 H476 H 0.68570 1.13362 0.34263
 H477 H 0.62728 1.08618 0.23820
 H478 H 0.59822 1.05731 0.26833
 H479 H 0.56129 1.10088 0.55956
 H480 H 0.59044 1.12970 0.53283
 C481 C 0.19224 0.30749 0.18438
 C482 C 0.17808 0.32182 0.17032
 C483 C 0.16116 0.33887 0.15333
 C484 C 0.13976 0.33319 0.10139
 C485 C 0.12329 0.34975 0.08483
 C486 C 0.12803 0.37224 0.12011
 C487 C 0.14962 0.37776 0.17233
 C488 C 0.16606 0.36117 0.18874
 C489 C 0.11052 0.38985 0.10284
 C490 C 0.11614 0.41126 0.04759
 C491 C 0.09966 0.42783 0.03202
 C492 C 0.07738 0.42325 0.07146
 C493 C 0.07161 0.40201 0.12625
 C494 C 0.08805 0.38541 0.14194
 C495 C 0.06043 0.44033 0.05584
 C496 C 0.04619 0.45460 0.04272
 H497 H 0.13582 0.31598 0.07332
 H498 H 0.10695 0.34500 0.04252
 H499 H 0.15371 0.39485 0.20229
 H500 H 0.18257 0.36573 0.22940
 H501 H 0.13321 0.41510 0.01467
 H502 H 0.10429 0.44420 -0.01100
 H503 H 0.05441 0.39831 0.15733
 H504 H 0.08324 0.36922 0.18661
 C505 C 0.69267 0.80798 0.68623
 C506 C 0.67849 0.82229 0.67242
 C507 C 0.66152 0.83930 0.65563
 C508 C 0.66620 0.86153 0.69407
 C509 C 0.64970 0.87807 0.67775
 C510 C 0.62828 0.87257 0.62259
 C511 C 0.62376 0.85015 0.58431
 C512 C 0.64028 0.83365 0.60079
 C513 C 0.61072 0.89013 0.60532
 C514 C 0.58817 0.88549 0.64128
 C515 C 0.57167 0.90203 0.62530
 C516 C 0.57747 0.92342 0.57327
 C517 C 0.59983 0.92822 0.53711
 C518 C 0.61636 0.91170 0.55297
 C519 C 0.56047 0.94044 0.55717
 C520 C 0.54620 0.95467 0.54364
 H521 H 0.68259 0.86608 0.73697
 H522 H 0.65362 0.89510 0.71005
 H523 H 0.60755 0.84543 0.53971
 H524 H 0.63651 0.81649 0.57034
 H525 H 0.58333 0.86916 0.68368
 H526 H 0.55441 0.89816 0.65387
 H527 H 0.60449 0.94471 0.49629
 H528 H 0.63350 0.91572 0.52247
 C529 C 0.80744 0.19164 0.18589
 C530 C 0.82160 0.17734 0.17170
 C531 C 0.83857 0.16037 0.15461
 C532 C 0.83392 0.13806 0.19286
 C533 C 0.85046 0.12159 0.17686
 C534 C 0.87190 0.12722 0.12221
 C535 C 0.87638 0.14971 0.08389
 C536 C 0.85981 0.16615 0.10005
 C537 C 0.88952 0.10974 0.10568
 C538 C 0.91203 0.11441 0.14231
 C539 C 0.92860 0.09796 0.12686
 C540 C 0.92292 0.07662 0.07470
 C541 C 0.90059 0.07180 0.03793
 C542 C 0.88399 0.08823 0.05325
 C543 C 0.93999 0.05969 0.05931
 C544 C 0.95432 0.04553 0.04622
 H545 H 0.81753 0.13342 0.23549
 H546 H 0.84657 0.10450 0.20921
 H547 H 0.89259 0.15454 0.03967
 H548 H 0.86356 0.18337 0.06966
 H549 H 0.91679 0.13070 0.18475
 H550 H 0.94583 0.10185 0.15606
 H551 H 0.89602 0.05535 -0.00290
 H552 H 0.86689 0.08420 0.02217
 C553 C 0.30693 0.69199 0.68591
 C554 C 0.32107 0.67768 0.67180
 C555 C 0.33803 0.66067 0.65482
 C556 C 0.33329 0.63836 0.69244
 C557 C 0.34979 0.62185 0.67635
 C558 C 0.37127 0.62745 0.62222
 C559 C 0.37583 0.64994 0.58451
 C560 C 0.35931 0.66643 0.60074
 C561 C 0.38886 0.60993 0.60566
 C562 C 0.41136 0.61452 0.64287
 C563 C 0.42789 0.59802 0.62755
 C564 C 0.42218 0.57672 0.57503
 C565 C 0.39986 0.57198 0.53754
 C566 C 0.38330 0.58845 0.55275
 C567 C 0.43922 0.55975 0.55959
 C568 C 0.45351 0.54557 0.54634
 H569 H 0.31688 0.63375 0.73468
 H570 H 0.34585 0.60475 0.70827
 H571 H 0.39208 0.65475 0.54072
 H572 H 0.36312 0.68365 0.57084
 H573 H 0.41614 0.63078 0.68563
 H574 H 0.44511 0.60186 0.65719
 H575 H 0.39526 0.55556 0.49633
 H576 H 0.36620 0.58449 0.52115
   
