data_POSCAR
  _audit_creation_date              2014-09-24
  _audit_creation_method            'ToBaCCo'
  _symmetry_space_group_name_H-M    'P1'
  _symmetry_Int_Tables_number       1
  _symmetry_cell_setting            triclinic
  loop_
  _symmetry_equiv_pos_as_xyz
 x,y,z
_cell_length_a 34.7994
_cell_length_b 27.9655
_cell_length_c 38.3782
_cell_angle_alpha 94.194100
_cell_angle_beta 92.548800
_cell_angle_gamma 92.060900
loop_
  _atom_site_label
  _atom_site_type_symbol
  _atom_site_fract_x
  _atom_site_fract_y
  _atom_site_fract_z
C1 C 0.62239 0.60725 0.64629
 C2 C 0.58933 0.62857 0.63333
 C3 C 0.58682 0.64213 0.59875
 C4 C 0.61777 0.63399 0.57705
 C5 C 0.65115 0.61305 0.58969
 C6 C 0.65353 0.59978 0.62449
 C7 C 0.62471 0.59309 0.68065
 C8 C 0.65838 0.57301 0.69403
 C9 C 0.68949 0.56644 0.67215
 C10 C 0.68691 0.57854 0.63736
 C11 C 0.71695 0.56892 0.61505
 C12 C 0.71451 0.58145 0.58033
 C13 C 0.68193 0.60440 0.56795
 H14 H 0.56540 0.63402 0.65010
 H15 H 0.61598 0.64420 0.55033
 H16 H 0.60057 0.59899 0.69708
 H17 H 0.71545 0.55048 0.68181
 H18 H 0.74224 0.55143 0.62460
 H19 H 0.67992 0.61377 0.54103
 C20 C 0.88882 0.37726 0.12573
 C21 C 0.92468 0.35793 0.11902
 C22 C 0.93122 0.33406 0.08628
 C23 C 0.90113 0.32981 0.06030
 C24 C 0.86480 0.34741 0.06707
 C25 C 0.85867 0.37167 0.09974
 C26 C 0.88230 0.40106 0.15831
 C27 C 0.84571 0.41786 0.16550
 C28 C 0.81582 0.41207 0.13961
 C29 C 0.82212 0.38952 0.10667
 C30 C 0.79215 0.38326 0.08088
 C31 C 0.79792 0.35791 0.04877
 C32 C 0.83421 0.34010 0.04195
 H33 H 0.94747 0.36216 0.13928
 H34 H 0.90546 0.31124 0.03505
 H35 H 0.90520 0.40486 0.17852
 H36 H 0.78756 0.42491 0.14524
 H37 H 0.76394 0.39648 0.08625
 H38 H 0.83854 0.32053 0.01707
 C39 C 0.35915 0.10720 -0.15554
 C40 C 0.37301 0.15266 -0.16364
 C41 C 0.37678 0.19076 -0.13768
 C42 C 0.36431 0.18425 -0.10403
 C43 C 0.34917 0.13953 -0.09587
 C44 C 0.34770 0.10042 -0.12137
 C45 C 0.35777 0.06815 -0.18073
 C46 C 0.34641 0.02176 -0.17200
 C47 C 0.33517 0.01547 -0.13771
 C48 C 0.33527 0.05448 -0.11254
 C49 C 0.32320 0.04831 -0.07864
 C50 C 0.32261 0.08774 -0.05384
 C51 C 0.33601 0.13312 -0.06249
 H52 H 0.38279 0.15779 -0.18959
 H53 H 0.36680 0.21394 -0.08414
 H54 H 0.36695 0.07399 -0.20671
 H55 H 0.32605 -0.01981 -0.13051
 H56 H 0.31312 0.01320 -0.07187
 H57 H 0.33645 0.16336 -0.04310
 C58 C 0.10816 0.89460 0.35776
 C59 C 0.08176 0.85801 0.36529
 C60 C 0.08781 0.83193 0.39500
 C61 C 0.12162 0.84180 0.41625
 C62 C 0.14878 0.87713 0.40835
 C63 C 0.14192 0.90408 0.37925
 C64 C 0.10072 0.92292 0.32973
 C65 C 0.12679 0.96004 0.32257
 C66 C 0.16087 0.96857 0.34350
 C67 C 0.16839 0.94124 0.37213
 C68 C 0.20133 0.95126 0.39437
 C69 C 0.20845 0.92397 0.42311
 C70 C 0.18223 0.88677 0.42976
 H71 H 0.05579 0.85157 0.34876
 H72 H 0.12696 0.82195 0.43911
 H73 H 0.07441 0.91642 0.31360
 H74 H 0.18077 0.99764 0.33834
 H75 H 0.22145 0.98018 0.38934
 H76 H 0.18721 0.86628 0.45233
 N77 N 0.11123 0.22312 0.09824
 N78 N 0.09736 0.22304 0.12958
 C79 C 0.06481 0.24772 0.13022
 C80 C 0.05812 0.26369 0.09735
 C81 C 0.08783 0.24741 0.07762
 H82 H 0.04599 0.25043 0.15190
 H83 H 0.09108 0.25086 0.05001
 Cu84 Cu 0.11945 0.18364 0.16423
 Cu85 Cu 0.15663 0.18814 0.08565
 Cu86 Cu 0.19517 0.11614 0.14753
 N87 N 0.13121 0.12980 0.19145
 N88 N 0.16174 0.10438 0.18581
 C89 C 0.16331 0.06986 0.20855
 C90 C 0.13156 0.07375 0.22878
 C91 C 0.11161 0.11171 0.21726
 H92 H 0.18476 0.04285 0.20914
 H93 H 0.08479 0.12484 0.22661
 N94 N 0.21668 0.12181 0.10112
 N95 N 0.20258 0.15027 0.07806
 C96 C 0.22280 0.14591 0.04898
 C97 C 0.25038 0.11264 0.05391
 C98 C 0.24579 0.09764 0.08699
 H99 H 0.21682 0.16381 0.02542
 H100 H 0.26182 0.07066 0.09948
 H101 H 0.14778 0.13360 0.11873
 H102 H 0.18101 0.18481 0.13505
 N103 N 0.41469 0.77368 0.58051
 N104 N 0.42423 0.77631 0.61419
 C105 C 0.45525 0.74996 0.61971
 C106 C 0.46545 0.72996 0.58762
 C107 C 0.43926 0.74548 0.56325
 H108 H 0.46987 0.74706 0.64488
 H109 H 0.43879 0.73819 0.53516
 Cu110 Cu 0.39647 0.81617 0.64737
 Cu111 Cu 0.37243 0.80989 0.56206
 Cu112 Cu 0.36238 0.91482 0.61418
 N113 N 0.37684 0.86765 0.67727
 N114 N 0.36539 0.90749 0.66449
 C115 C 0.35601 0.93852 0.69102
 C116 C 0.36121 0.91607 0.72168
 C117 C 0.37428 0.87123 0.71224
 H118 H 0.34542 0.97396 0.68808
 H119 H 0.38205 0.84384 0.72945
 N120 N 0.34441 0.90635 0.56430
 N121 N 0.34586 0.86504 0.54540
 C122 C 0.32671 0.86792 0.51446
 C123 C 0.31312 0.91354 0.51380
 C124 C 0.32472 0.93721 0.54557
 H125 H 0.32250 0.83885 0.49431
 H126 H 0.31722 0.97283 0.55517
 H127 H 0.39769 0.86157 0.59537
 H128 H 0.34782 0.84371 0.60662
 N129 N 0.92015 0.68249 0.40563
 N130 N 0.93204 0.66845 0.37455
 C131 C 0.96511 0.69279 0.36907
 C132 C 0.97422 0.72301 0.39857
 C133 C 0.94553 0.71552 0.42138
 H134 H 0.98225 0.68693 0.34642
 H135 H 0.94367 0.73189 0.44764
 Cu136 Cu 0.90481 0.61654 0.34578
 Cu137 Cu 0.87327 0.65543 0.42374
 Cu138 Cu 0.85402 0.53892 0.39005
 N139 N 0.88032 0.55842 0.32235
 N140 N 0.85934 0.52912 0.33983
 C141 C 0.84348 0.49367 0.31765
 C142 C 0.85565 0.50100 0.28476
 C143 C 0.87905 0.54220 0.28833
 H144 H 0.82417 0.46526 0.32488
 H145 H 0.89254 0.56003 0.26771
 N146 N 0.83575 0.56435 0.43521
 N147 N 0.84000 0.61010 0.44650
 C148 C 0.82127 0.61756 0.47627
 C149 C 0.80521 0.57401 0.48401
 C150 C 0.81497 0.54093 0.45785
 H151 H 0.82066 0.65146 0.49168
 H152 H 0.80678 0.50313 0.45502
 H153 H 0.89498 0.59367 0.40502
 H154 H 0.84918 0.60906 0.38204
 N155 N 0.52968 0.35144 -0.11237
 N156 N 0.51749 0.38287 -0.13384
 C157 C 0.48191 0.36896 -0.14692
 C158 C 0.47139 0.32711 -0.13219
 C159 C 0.50219 0.31683 -0.11049
 H160 H 0.46566 0.38682 -0.16647
 H161 H 0.50539 0.28517 -0.09619
 Cu162 Cu 0.55069 0.43667 -0.14465
 Cu163 Cu 0.58228 0.35351 -0.09273
 Cu164 Cu 0.63157 0.46244 -0.09497
 N165 N 0.59088 0.48010 -0.15920
 N166 N 0.62274 0.48982 -0.13980
 C167 C 0.64749 0.51562 -0.15764
 C168 C 0.62995 0.52255 -0.18971
 C169 C 0.59405 0.49973 -0.19003
 H170 H 0.67685 0.52566 -0.14891
 H171 H 0.57332 0.49422 -0.21194
 N172 N 0.64672 0.41434 -0.06275
 N173 N 0.62976 0.37116 -0.06409
 C174 C 0.65042 0.34325 -0.04379
 C175 C 0.68128 0.37069 -0.02866
 C176 C 0.67826 0.41558 -0.04098
 H177 H 0.64417 0.30559 -0.04104
 H178 H 0.69905 0.44538 -0.03692
 H179 H 0.57909 0.42529 -0.08631
 H180 H 0.60947 0.40254 -0.12229
 N181 N 0.01134 0.27917 0.05102
 N182 N -0.02319 0.29703 0.04726
 C183 C -0.03325 0.31384 0.07936
 C184 C -0.00343 0.30548 0.10303
 N185 N 0.02356 0.28371 0.08427
 H186 H -0.00195 0.31255 0.13116
 N187 N 0.51025 0.69079 0.54881
 N188 N 0.54274 0.66761 0.55074
 C189 C 0.55196 0.66459 0.58503
 C190 C 0.52400 0.68684 0.60407
 N191 N 0.49862 0.70265 0.58054
 H192 H 0.52261 0.69202 0.63220
 N193 N 1.02926 0.75110 0.43661
 N194 N 1.06050 0.77946 0.43615
 C195 C 1.06020 0.79793 0.40457
 C196 C 1.02765 0.77919 0.38542
 N197 N 1.00936 0.75042 0.40642
 H198 H 1.01786 0.78580 0.35911
 N199 N 0.41888 0.29447 -0.17224
 N200 N 0.39335 0.25783 -0.17495
 C201 C 0.39671 0.23606 -0.14479
 C202 C 0.42522 0.26012 -0.12368
 N203 N 0.43835 0.29620 -0.14170
 H204 H 0.43667 0.25073 -0.09849
 N205 N 0.08304 0.03426 0.26151
 N206 N 0.08060 0.00343 0.28599
 C207 C 0.11687 -0.00836 0.29462
 C208 C 0.14173 0.01608 0.27443
 N209 N 0.11941 0.04215 0.25418
 H210 H 0.17282 0.01546 0.27468
 N211 N 0.68614 0.53582 -0.22360
 N212 N 0.69461 0.54808 -0.25512
 C213 C 0.66132 0.55931 -0.27149
 C214 C 0.63200 0.55333 -0.24874
 N215 N 0.64875 0.53859 -0.21937
 H216 H 0.60141 0.55725 -0.25335
 N217 N 0.34692 0.90824 0.78255
 N218 N 0.34231 0.93582 0.81150
 C219 C 0.34723 0.98185 0.80351
 C220 C 0.35463 0.98137 0.76827
 N221 N 0.35421 0.93494 0.75638
 H222 H 0.36026 1.01135 0.75270
 N223 N 0.80825 0.45242 0.24815
 N224 N 0.80430 0.43052 0.21635
 C225 C 0.83762 0.43855 0.20069
 C226 C 0.86214 0.46645 0.22382
 N227 N 0.84263 0.47426 0.25302
 H228 H 0.89128 0.47924 0.22003
 N229 N 0.29042 0.05098 0.02767
 N230 N 0.30956 0.04263 -0.00117
 C231 C 0.30686 0.08207 -0.01928
 C232 C 0.28533 0.11466 -0.00080
 N233 N 0.27562 0.09397 0.02823
 H234 H 0.27658 0.14939 -0.00825
 N235 N 0.78596 0.52433 0.53013
 N236 N 0.76260 0.52547 0.55647
 C237 C 0.74499 0.56768 0.55659
 C238 C 0.75849 0.59265 0.52962
 N239 N 0.78397 0.56435 0.51388
 H240 H 0.75012 0.62734 0.52177
 N241 N 0.72590 0.30932 -0.01423
 N242 N 0.75769 0.30486 0.00539
 C243 C 0.76559 0.34789 0.02297
 C244 C 0.73778 0.37899 0.01346
 N245 N 0.71365 0.35351 -0.00976
 H246 H 0.73541 0.41636 0.02237
 N247 N 0.28438 0.97605 0.48106
 N248 N 0.25704 0.98009 0.45634
 C249 C 0.24233 0.93538 0.44719
 C250 C 0.26173 0.90379 0.46687
 N251 N 0.28760 0.93051 0.48759
 H252 H 0.25673 0.86536 0.46695
   
