data_POSCAR
  _audit_creation_date              2014-09-24
  _audit_creation_method            'ToBaCCo'
  _symmetry_space_group_name_H-M    'P1'
  _symmetry_Int_Tables_number       1
  _symmetry_cell_setting            triclinic
  loop_
  _symmetry_equiv_pos_as_xyz
 x,y,z
_cell_length_a 34.6367
_cell_length_b 34.6057
_cell_length_c 29.4104
_cell_angle_alpha 89.833600
_cell_angle_beta 90.036500
_cell_angle_gamma 90.017800
loop_
  _atom_site_label
  _atom_site_type_symbol
  _atom_site_fract_x
  _atom_site_fract_y
  _atom_site_fract_z
C1 C 1.28155 0.20892 0.27136
 C2 C 1.25133 0.22923 0.25042
 C3 C 1.22109 0.20883 0.22977
 C4 C 1.22122 0.16839 0.22955
 C5 C 1.25125 0.14812 0.25097
 C6 C 1.28136 0.16844 0.27216
 C7 C 1.25132 0.27178 0.25013
 C8 C 1.28150 0.29210 0.22917
 C9 C 1.28128 0.33259 0.22832
 C10 C 1.25118 0.35288 0.24948
 C11 C 1.22118 0.33259 0.27094
 C12 C 1.22109 0.29214 0.27076
 H13 H 1.30473 0.22474 0.28777
 H14 H 1.19790 0.22448 0.21312
 H15 H 1.30467 0.27631 0.21277
 H16 H 1.19792 0.27647 0.28740
 H17 H 1.25114 0.11677 0.25112
 H18 H 1.25102 0.38423 0.24928
 C19 C 0.78028 -0.29247 0.27118
 C20 C 0.74990 -0.27212 0.25065
 C21 C 0.71961 -0.29245 0.23005
 C22 C 0.71984 -0.33289 0.22947
 C23 C 0.75004 -0.35322 0.25049
 C24 C 0.78020 -0.33294 0.27162
 C25 C 0.74987 -0.22958 0.25064
 C26 C 0.78022 -0.20917 0.23017
 C27 C 0.78006 -0.16872 0.22972
 C28 C 0.74989 -0.14850 0.25071
 C29 C 0.71970 -0.16886 0.27167
 C30 C 0.71952 -0.20930 0.27115
 H31 H 0.80351 -0.27670 0.28754
 H32 H 0.69630 -0.27676 0.21369
 H33 H 0.80352 -0.22478 0.21384
 H34 H 0.69622 -0.22502 0.28747
 H35 H 0.75001 -0.38456 0.25035
 H36 H 0.74990 -0.11717 0.25074
 C37 C 0.78097 0.20947 -0.23001
 C38 C 0.75059 0.22977 -0.25063
 C39 C 0.72023 0.20937 -0.27102
 C40 C 0.72041 0.16893 -0.27127
 C41 C 0.75061 0.14869 -0.25017
 C42 C 0.78081 0.16903 -0.22930
 C43 C 0.75059 0.27231 -0.25089
 C44 C 0.78092 0.29264 -0.27153
 C45 C 0.78074 0.33311 -0.27232
 C46 C 0.75051 0.35342 -0.25143
 C47 C 0.72036 0.33312 -0.23030
 C48 C 0.72023 0.29268 -0.23053
 H49 H 0.80428 0.22518 -0.21377
 H50 H 0.69692 0.22500 -0.28744
 H51 H 0.80419 0.27684 -0.28773
 H52 H 0.69695 0.27701 -0.21411
 H53 H 0.75062 0.11736 -0.25000
 H54 H 0.75039 0.38477 -0.25157
 C55 C 1.28046 -0.29241 -0.22901
 C56 C 1.24994 -0.27203 -0.24919
 C57 C 1.21946 -0.29230 -0.26945
 C58 C 1.21965 -0.33273 -0.27004
 C59 C 1.24998 -0.35311 -0.24941
 C60 C 1.28033 -0.33288 -0.22862
 C61 C 1.24996 -0.22951 -0.24918
 C62 C 1.28046 -0.20913 -0.26938
 C63 C 1.28030 -0.16870 -0.26987
 C64 C 1.25000 -0.14845 -0.24923
 C65 C 1.21967 -0.16877 -0.22856
 C66 C 1.21947 -0.20920 -0.22900
 H67 H 1.30384 -0.27669 -0.21288
 H68 H 1.19605 -0.27658 -0.28557
 H69 H 1.30385 -0.22477 -0.28550
 H70 H 1.19606 -0.22489 -0.21288
 H71 H 1.24992 -0.38446 -0.24957
 H72 H 1.25002 -0.11711 -0.24925
 C73 C 0.20857 0.27986 0.73057
 C74 C 0.22894 0.24964 0.75145
 C75 C 0.20866 0.21929 0.77219
 C76 C 0.16822 0.21932 0.77256
 C77 C 0.14792 0.24940 0.75114
 C78 C 0.16817 0.27957 0.72992
 C79 C 0.27144 0.24978 0.75156
 C80 C 0.29166 0.28013 0.77220
 C81 C 0.33211 0.28013 0.77271
 C82 C 0.35247 0.25008 0.75156
 C83 C 0.33227 0.21991 0.73044
 C84 C 0.29187 0.21959 0.73094
 H85 H 0.22421 0.30315 0.71407
 H86 H 0.22446 0.19612 0.78877
 H87 H 0.27582 0.30329 0.78856
 H88 H 0.27628 0.19630 0.71450
 H89 H 0.11659 0.24940 0.75095
 H90 H 0.38379 0.25012 0.75147
 C91 C 0.70766 0.78072 0.72946
 C92 C 0.72799 0.75040 0.75020
 C93 C 0.70769 0.72013 0.77106
 C94 C 0.66725 0.72032 0.77171
 C95 C 0.64695 0.75048 0.75045
 C96 C 0.66721 0.78061 0.72907
 C97 C 0.77050 0.75035 0.75005
 C98 C 0.79095 0.78054 0.77075
 C99 C 0.83136 0.78032 0.77109
 C100 C 0.85152 0.75027 0.74976
 C101 C 0.83114 0.72026 0.72856
 C102 C 0.79073 0.72013 0.72920
 H103 H 0.72341 0.80392 0.71290
 H104 H 0.72348 0.69689 0.78752
 H105 H 0.77537 0.80374 0.78732
 H106 H 0.77499 0.69696 0.71274
 H107 H 0.61561 0.75051 0.75053
 H108 H 0.88282 0.75024 0.74965
 C109 C 0.70878 0.28009 0.22893
 C110 C 0.72905 0.24961 0.24939
 C111 C 0.70868 0.21908 0.26962
 C112 C 0.66828 0.21922 0.26988
 C113 C 0.64806 0.24953 0.24895
 C114 C 0.66838 0.27988 0.22824
 C115 C 0.77153 0.24967 0.24965
 C116 C 0.79175 0.28020 0.26990
 C117 C 0.83214 0.28010 0.27059
 C118 C 0.85253 0.24981 0.25008
 C119 C 0.83236 0.21945 0.22935
 C120 C 0.79197 0.21920 0.22962
 H121 H 0.72447 0.30353 0.21278
 H122 H 0.72429 0.19569 0.28596
 H123 H 0.77601 0.30359 0.28589
 H124 H 0.77640 0.19577 0.21344
 H125 H 0.61675 0.24951 0.24879
 H126 H 0.88383 0.24986 0.25024
 C127 C 0.20778 0.78034 0.22950
 C128 C 0.22813 0.75003 0.25022
 C129 C 0.20784 0.71974 0.27106
 C130 C 0.16741 0.71991 0.27170
 C131 C 0.14709 0.75008 0.25046
 C132 C 0.16735 0.78022 0.22910
 C133 C 0.27062 0.75001 0.25007
 C134 C 0.29103 0.78025 0.27069
 C135 C 0.33144 0.78010 0.27099
 C136 C 0.35163 0.75005 0.24970
 C137 C 0.33128 0.71998 0.22859
 C138 C 0.29087 0.71979 0.22927
 H139 H 0.22353 0.80356 0.21295
 H140 H 0.22364 0.69650 0.28750
 H141 H 0.27543 0.80346 0.28722
 H142 H 0.27515 0.69658 0.21286
 H143 H 0.11575 0.75010 0.25055
 H144 H 0.38294 0.75006 0.24956
 O145 O 1.06648 0.01977 0.05696
 O146 O 0.93477 -0.02010 0.05681
 O147 O 0.98082 0.06567 0.05676
 O148 O 1.02046 -0.06612 0.05701
 O149 O 0.92729 0.04479 0.03195
 O150 O 1.07403 -0.04513 0.03236
 O151 O 0.95562 -0.07365 0.03216
 O152 O 1.04563 0.07336 0.03202
 C153 C 1.06397 0.05501 0.06167
 C154 C 0.93734 -0.05533 0.06172
 C155 C 0.94564 0.06294 0.06164
 C156 C 1.05566 -0.06355 0.06191
 O157 O 1.06643 -0.02021 -0.05568
 O158 O 0.93496 0.02014 -0.05598
 O159 O 1.02083 0.06576 -0.05594
 O160 O 0.98044 -0.06589 -0.05578
 O161 O 0.92701 -0.04475 -0.03114
 O162 O 1.07429 0.04462 -0.03110
 O163 O 1.04523 -0.07372 -0.03085
 O164 O 0.95604 0.07360 -0.03122
 Co165 Co 1.06343 -0.00023 0.00063
 Co166 Co 0.93788 0.00001 0.00042
 Co167 Co 1.00081 0.06270 0.00041
 Co168 Co 1.00046 -0.06296 0.00062
 O169 O 1.00065 -0.00012 0.00052
 C170 C 1.06351 -0.05540 -0.06055
 C171 C 0.93770 0.05537 -0.06086
 C172 C 1.05603 0.06310 -0.06072
 C173 C 0.94525 -0.06316 -0.06066
 O174 O 1.06571 0.52006 0.55606
 O175 O 0.93415 0.48023 0.55590
 O176 O 0.97968 0.56602 0.55574
 O177 O 1.02010 0.43439 0.55603
 O178 O 0.92628 0.54510 0.53072
 O179 O 1.07358 0.45529 0.53115
 O180 O 0.95528 0.42668 0.53145
 O181 O 1.04457 0.57369 0.53144
 C182 C 1.06284 0.55524 0.56108
 C183 C 0.93684 0.44500 0.56091
 C184 C 0.94447 0.56344 0.56037
 C185 C 1.05530 0.43692 0.56080
 O186 O 1.06585 0.48046 0.44328
 O187 O 0.93419 0.52018 0.44301
 O188 O 1.02015 0.56621 0.44323
 O189 O 0.97997 0.43454 0.44333
 O190 O 0.92648 0.45532 0.46815
 O191 O 1.07359 0.54530 0.46829
 O192 O 1.04478 0.42682 0.46791
 O193 O 0.95524 0.57377 0.46749
 Co194 Co 1.06277 0.50028 0.49968
 Co195 Co 0.93718 0.50021 0.49946
 Co196 Co 0.99992 0.56307 0.49948
 Co197 Co 1.00002 0.43747 0.49967
 O198 O 0.99997 0.50026 0.49957
 C199 C 1.06325 0.44523 0.43843
 C200 C 0.93683 0.55540 0.43801
 C201 C 1.05537 0.56371 0.43861
 C202 C 0.94478 0.43717 0.43847
 O203 O 0.56573 0.02002 0.55676
 O204 O 0.43414 -0.02011 0.55683
 O205 O 0.48017 0.06582 0.55675
 O206 O 0.51978 -0.06602 0.55709
 O207 O 0.42657 0.04480 0.53224
 O208 O 0.57332 -0.04491 0.53246
 O209 O 0.45496 -0.07362 0.53205
 O210 O 0.54493 0.07355 0.53162
 C211 C 0.56320 0.05527 0.56136
 C212 C 0.43683 -0.05533 0.56174
 C213 C 0.44498 0.06315 0.56174
 C214 C 0.55498 -0.06337 0.56201
 O215 O 0.56564 -0.02028 0.44426
 O216 O 0.43413 0.02028 0.44411
 O217 O 0.51982 0.06579 0.44389
 O218 O 0.47987 -0.06588 0.44426
 O219 O 0.42638 -0.04465 0.46876
 O220 O 0.57333 0.04458 0.46854
 O221 O 0.54467 -0.07376 0.46932
 O222 O 0.45509 0.07373 0.46896
 Co223 Co 0.56265 -0.00014 0.50051
 Co224 Co 0.43716 0.00007 0.50048
 Co225 Co 0.49999 0.06280 0.50032
 Co226 Co 0.49983 -0.06291 0.50066
 O227 O 0.49991 -0.00005 0.50050
 C228 C 0.56298 -0.05551 0.43960
 C229 C 0.43670 0.05553 0.43935
 C230 C 0.55497 0.06286 0.43885
 C231 C 0.44469 -0.06308 0.43929
 O232 O 0.56546 0.51985 0.05538
 O233 O 0.43382 0.48009 0.05555
 O234 O 0.47932 0.56580 0.05530
 O235 O 0.51989 0.43426 0.05519
 O236 O 0.42588 0.54498 0.03028
 O237 O 0.57326 0.45516 0.03004
 O238 O 0.45501 0.42656 0.03106
 O239 O 0.54419 0.57354 0.03107
 C240 C 0.56265 0.55503 0.06051
 C241 C 0.43657 0.44486 0.06055
 C242 C 0.44411 0.56325 0.05996
 C243 C 0.55509 0.43690 0.05986
 O244 O 0.56531 0.48060 -0.05757
 O245 O 0.43364 0.51998 -0.05736
 O246 O 0.51974 0.56619 -0.05724
 O247 O 0.47929 0.43450 -0.05728
 O248 O 0.42586 0.45510 -0.03212
 O249 O 0.57319 0.54536 -0.03222
 O250 O 0.54420 0.42687 -0.03314
 O251 O 0.45487 0.57357 -0.03297
 Co252 Co 0.56238 0.50023 -0.00109
 Co253 Co 0.43673 0.50005 -0.00092
 Co254 Co 0.49953 0.56294 -0.00097
 Co255 Co 0.49960 0.43740 -0.00104
 O256 O 0.49956 0.50016 -0.00101
 C257 C 0.56259 0.44539 -0.06261
 C258 C 0.43648 0.55518 -0.06246
 C259 C 0.55497 0.56381 -0.06185
 C260 C 0.44405 0.43683 -0.06180
 C261 C 1.13755 0.11251 0.15724
 C262 C 1.13554 0.07215 0.15678
 C263 C 1.11031 0.05342 0.12698
 C264 C 1.19118 0.14800 0.20572
 C265 C 1.08796 0.11547 0.09899
 C266 C 1.11324 0.13415 0.12885
 C267 C 1.16636 0.13164 0.18438
 C268 C 1.08685 0.07490 0.09706
 H269 H 1.15427 0.05512 0.17851
 H270 H 1.11010 0.02213 0.12633
 H271 H 1.07023 0.13275 0.07640
 H272 H 1.11462 0.16542 0.12887
 C273 C 1.13559 0.61211 0.65781
 C274 C 1.11168 0.63396 0.62919
 C275 C 1.08657 0.61551 0.59896
 C276 C 1.18942 0.64709 0.70634
 C277 C 1.10828 0.55327 0.62714
 C278 C 1.13332 0.57178 0.65730
 C279 C 1.16446 0.63096 0.68505
 C280 C 1.08530 0.57495 0.59691
 H281 H 1.11330 0.66523 0.62926
 H282 H 1.06920 0.63293 0.57614
 H283 H 1.10789 0.52198 0.62642
 H284 H 1.15176 0.55460 0.67922
 C285 C 0.63658 0.11296 0.65690
 C286 C 0.61230 0.13453 0.62843
 C287 C 0.58707 0.11580 0.59858
 C288 C 0.69028 0.14852 0.70512
 C289 C 0.60942 0.05380 0.62677
 C290 C 0.63460 0.07259 0.65656
 C291 C 0.66541 0.13213 0.68393
 C292 C 0.58600 0.07522 0.59675
 H293 H 0.61367 0.16581 0.62836
 H294 H 0.56936 0.13303 0.57592
 H295 H 0.60922 0.02251 0.62620
 H296 H 0.65331 0.05561 0.67836
 C297 C 0.63602 0.61183 0.15684
 C298 C 0.61187 0.63369 0.12850
 C299 C 0.58661 0.61526 0.09839
 C300 C 0.68975 0.64686 0.20559
 C301 C 0.60866 0.55300 0.12609
 C302 C 0.63386 0.57148 0.15612
 C303 C 0.66487 0.63070 0.18415
 C304 C 0.58539 0.57470 0.09619
 H305 H 0.61338 0.66496 0.12872
 H306 H 0.56904 0.63271 0.07582
 H307 H 0.60835 0.52171 0.12524
 H308 H 0.65245 0.55428 0.17782
 C309 C 0.86396 -0.11286 0.15765
 C310 C 0.88819 -0.13449 0.12937
 C311 C 0.91344 -0.11581 0.09939
 C312 C 0.81020 -0.14832 0.20604
 C313 C 0.89121 -0.05377 0.12711
 C314 C 0.86601 -0.07249 0.15702
 C315 C 0.83510 -0.13197 0.18478
 C316 C 0.91457 -0.07524 0.09726
 H317 H 0.88676 -0.16576 0.12953
 H318 H 0.93109 -0.13308 0.07687
 H319 H 0.89146 -0.02247 0.12631
 H320 H 0.84734 -0.05547 0.17868
 C321 C 0.86313 0.38766 0.65669
 C322 C 0.86539 0.42800 0.65614
 C323 C 0.89069 0.44665 0.62629
 C324 C 0.80924 0.35235 0.70510
 C325 C 0.91266 0.38455 0.59847
 C326 C 0.88729 0.36595 0.62839
 C327 C 0.83418 0.36864 0.68381
 C328 C 0.91399 0.42513 0.59642
 H329 H 0.84678 0.44509 0.67781
 H330 H 0.89108 0.47795 0.62555
 H331 H 0.93025 0.36724 0.57592
 H332 H 0.88572 0.33468 0.62849
 C333 C 0.36424 -0.11289 0.65831
 C334 C 0.38832 -0.13451 0.62984
 C335 C 0.41335 -0.11581 0.59965
 C336 C 0.31052 -0.14834 0.70664
 C337 C 0.39122 -0.05379 0.62758
 C338 C 0.36625 -0.07254 0.65770
 C339 C 0.33544 -0.13200 0.68545
 C340 C 0.41438 -0.07524 0.59750
 H341 H 0.38690 -0.16579 0.62999
 H342 H 0.43087 -0.13306 0.57696
 H343 H 0.39143 -0.02249 0.62677
 H344 H 0.34767 -0.05554 0.67950
 C345 C 0.36317 0.38730 0.15659
 C346 C 0.38735 0.36567 0.12822
 C347 C 0.41260 0.38435 0.09821
 C348 C 0.30961 0.35185 0.20543
 C349 C 0.39046 0.44639 0.12601
 C350 C 0.36527 0.42767 0.15595
 C351 C 0.33440 0.36820 0.18392
 C352 C 0.41379 0.42493 0.09611
 H353 H 0.38590 0.33440 0.12837
 H354 H 0.43021 0.36707 0.07564
 H355 H 0.39074 0.47768 0.12524
 H356 H 0.34666 0.44470 0.17767
 C357 C 0.86460 0.11319 -0.15693
 C358 C 0.88882 0.13473 -0.12849
 C359 C 0.91399 0.11596 -0.09847
 C360 C 0.81095 0.14872 -0.20548
 C361 C 0.89168 0.05401 -0.12644
 C362 C 0.86658 0.07282 -0.15640
 C363 C 0.83581 0.13237 -0.18413
 C364 C 0.91503 0.07538 -0.09644
 H365 H 0.88745 0.16601 -0.12857
 H366 H 0.93163 0.13316 -0.07583
 H367 H 0.89187 0.02271 -0.12572
 H368 H 0.84791 0.05587 -0.17818
 C369 C 0.86286 0.61257 0.34230
 C370 C 0.88701 0.63434 0.37060
 C371 C 0.91248 0.61580 0.40048
 C372 C 0.80877 0.64780 0.29408
 C373 C 0.89063 0.55365 0.37261
 C374 C 0.86522 0.57223 0.34281
 C375 C 0.83379 0.63152 0.31527
 C376 C 0.91391 0.57523 0.40249
 H377 H 0.88535 0.66560 0.37054
 H378 H 0.93005 0.63315 0.42304
 H379 H 0.89110 0.52235 0.37332
 H380 H 0.84662 0.55511 0.32114
 C381 C 0.36324 0.11347 0.34366
 C382 C 0.36518 0.07310 0.34418
 C383 C 0.39036 0.05425 0.37403
 C384 C 0.30972 0.14917 0.29498
 C385 C 0.41278 0.11617 0.40196
 C386 C 0.38755 0.13498 0.37205
 C387 C 0.33449 0.13273 0.31642
 C388 C 0.41384 0.07558 0.40394
 H389 H 0.34645 0.05617 0.32244
 H390 H 0.39053 0.02295 0.37472
 H391 H 0.43052 0.13334 0.42454
 H392 H 0.38622 0.16626 0.37198
 C393 C 0.36312 0.61248 -0.15855
 C394 C 0.38737 0.63419 -0.13032
 C395 C 0.41268 0.61559 -0.10033
 C396 C 0.30899 0.64782 -0.20646
 C397 C 0.39051 0.55348 -0.12802
 C398 C 0.36526 0.57213 -0.15794
 C399 C 0.33407 0.63149 -0.18547
 C400 C 0.41383 0.57502 -0.09815
 H401 H 0.38586 0.66546 -0.13048
 H402 H 0.43030 0.63291 -0.07779
 H403 H 0.39079 0.52218 -0.12719
 H404 H 0.34657 0.55506 -0.17956
 C405 C 1.13586 -0.11299 -0.15691
 C406 C 1.13406 -0.07263 -0.15640
 C407 C 1.10916 -0.05386 -0.12635
 C408 C 1.18947 -0.14847 -0.20511
 C409 C 1.08669 -0.11587 -0.09831
 C410 C 1.11164 -0.13459 -0.12843
 C411 C 1.16460 -0.13213 -0.18397
 C412 C 1.08587 -0.07530 -0.09625
 H413 H 1.15275 -0.05564 -0.17822
 H414 H 1.10913 -0.02256 -0.12562
 H415 H 1.06906 -0.13311 -0.07560
 H416 H 1.11291 -0.16587 -0.12850
 C417 C 1.13725 0.38811 0.34309
 C418 C 1.13503 0.42846 0.34354
 C419 C 1.10965 0.44704 0.37324
 C420 C 1.19109 0.35291 0.29472
 C421 C 1.08757 0.38487 0.40118
 C422 C 1.11300 0.36635 0.37140
 C423 C 1.16619 0.36915 0.31601
 C424 C 1.08624 0.42545 0.40309
 H425 H 1.15369 0.44560 0.32186
 H426 H 1.10928 0.47834 0.37387
 H427 H 1.06991 0.36750 0.42371
 H428 H 1.11454 0.33507 0.37140
 C429 C 0.63603 -0.11314 0.34383
 C430 C 0.63400 -0.07278 0.34415
 C431 C 0.60893 -0.05402 0.37402
 C432 C 0.68960 -0.14858 0.29541
 C433 C 0.58675 -0.11603 0.40236
 C434 C 0.61189 -0.13474 0.37242
 C435 C 0.66478 -0.13226 0.31670
 C436 C 0.58565 -0.07546 0.40416
 H437 H 0.65261 -0.05578 0.32226
 H438 H 0.60870 -0.02272 0.37456
 H439 H 0.56916 -0.13328 0.42511
 H440 H 0.61330 -0.16602 0.37251
 C441 C 0.63624 0.38853 -0.15844
 C442 C 0.63407 0.42888 -0.15782
 C443 C 0.60877 0.44739 -0.12798
 C444 C 0.69017 0.35342 -0.20670
 C445 C 0.58663 0.38515 -0.10030
 C446 C 0.61199 0.36669 -0.13021
 C447 C 0.66521 0.36963 -0.18550
 C448 C 0.58540 0.42571 -0.09817
 H449 H 0.65274 0.44606 -0.17943
 H450 H 0.60845 0.47868 -0.12718
 H451 H 0.56899 0.36772 -0.07781
 H452 H 0.61350 0.33542 -0.13036
 C453 C 1.11356 0.13692 -0.15636
 C454 C 1.07324 0.13478 -0.15598
 C455 C 1.05452 0.10945 -0.12617
 C456 C 1.14898 0.19080 -0.20480
 C457 C 1.11650 0.08726 -0.09801
 C458 C 1.13516 0.11265 -0.12789
 C459 C 1.13265 0.16587 -0.18349
 C460 C 1.07596 0.08602 -0.09615
 H461 H 1.05623 0.15347 -0.17778
 H462 H 1.02325 0.10913 -0.12558
 H463 H 1.13375 0.06958 -0.07535
 H464 H 1.16641 0.11414 -0.12785
 C465 C 1.11286 0.63761 0.34302
 C466 C 1.07254 0.63532 0.34327
 C467 C 1.05385 0.60998 0.37309
 C468 C 1.14820 0.69144 0.29444
 C469 C 1.11584 0.58808 0.40152
 C470 C 1.13449 0.61347 0.37163
 C471 C 1.13190 0.66653 0.31583
 C472 C 1.07530 0.58669 0.40324
 H473 H 1.05552 0.65390 0.32136
 H474 H 1.02258 0.60954 0.37357
 H475 H 1.13310 0.57049 0.42429
 H476 H 1.16573 0.61508 0.37177
 C477 C 0.61242 0.13531 0.34192
 C478 C 0.57209 0.13356 0.34268
 C479 C 0.55336 0.10862 0.37290
 C480 C 0.64791 0.18900 0.29344
 C481 C 0.61534 0.08601 0.40062
 C482 C 0.63402 0.11100 0.37033
 C483 C 0.63155 0.16409 0.31470
 C484 C 0.57481 0.08524 0.40294
 H485 H 0.55511 0.15232 0.32093
 H486 H 0.52209 0.10863 0.37384
 H487 H 0.63258 0.06831 0.42328
 H488 H 0.66527 0.11222 0.37007
 C489 C 0.61254 0.63801 -0.15709
 C490 C 0.57222 0.63585 -0.15675
 C491 C 0.55349 0.61043 -0.12705
 C492 C 0.64801 0.69185 -0.20556
 C493 C 0.61545 0.58822 -0.09888
 C494 C 0.63413 0.61369 -0.12865
 C495 C 0.63166 0.66694 -0.18422
 C496 C 0.57491 0.58694 -0.09710
 H497 H 0.55522 0.65457 -0.17853
 H498 H 0.52222 0.61009 -0.12651
 H499 H 0.63269 0.57048 -0.07626
 H500 H 0.66538 0.61519 -0.12858
 C501 C 0.88748 -0.13630 -0.15643
 C502 C 0.92782 -0.13449 -0.15579
 C503 C 0.94664 -0.10940 -0.12592
 C504 C 0.85181 -0.18972 -0.20502
 C505 C 0.88474 -0.08680 -0.09823
 C506 C 0.86598 -0.11194 -0.12816
 C507 C 0.86825 -0.16499 -0.18364
 C508 C 0.92529 -0.08589 -0.09612
 H509 H 0.94476 -0.15326 -0.17743
 H510 H 0.97791 -0.10934 -0.12513
 H511 H 0.86755 -0.06903 -0.07574
 H512 H 0.83472 -0.11317 -0.12833
 C513 C 0.88750 0.36425 0.34231
 C514 C 0.92781 0.36646 0.34275
 C515 C 0.94646 0.39154 0.37273
 C516 C 0.85232 0.31038 0.29409
 C517 C 0.88441 0.41337 0.40087
 C518 C 0.86582 0.38823 0.37082
 C519 C 0.86853 0.33536 0.31525
 C520 C 0.92494 0.41461 0.40284
 H521 H 0.94487 0.34796 0.32091
 H522 H 0.97773 0.39190 0.37341
 H523 H 0.86712 0.43082 0.42360
 H524 H 0.83458 0.38666 0.37080
 C525 C 0.38724 -0.13628 0.34335
 C526 C 0.42757 -0.13427 0.34397
 C527 C 0.44626 -0.10914 0.37388
 C528 C 0.35183 -0.18987 0.29480
 C529 C 0.38427 -0.08686 0.40164
 C530 C 0.36562 -0.11205 0.37166
 C531 C 0.36815 -0.16505 0.31615
 C532 C 0.42481 -0.08578 0.40375
 H533 H 0.44459 -0.15293 0.32229
 H534 H 0.47753 -0.10893 0.37466
 H535 H 0.36700 -0.06922 0.42418
 H536 H 0.33437 -0.11344 0.37152
 C537 C 0.38655 0.36268 -0.15670
 C538 C 0.42685 0.36520 -0.15665
 C539 C 0.44553 0.39063 -0.12708
 C540 C 0.35127 0.30868 -0.20479
 C541 C 0.38355 0.41217 -0.09849
 C542 C 0.36492 0.38668 -0.12813
 C543 C 0.36754 0.33367 -0.18362
 C544 C 0.42409 0.41379 -0.09698
 H545 H 0.44388 0.34673 -0.17853
 H546 H 0.47680 0.39124 -0.12675
 H547 H 0.36630 0.42964 -0.07575
 H548 H 0.33369 0.38490 -0.12784
 C549 C 1.11281 -0.13741 0.15785
 C550 C 1.07249 -0.13524 0.15726
 C551 C 1.05390 -0.10990 0.12734
 C552 C 1.14809 -0.19130 0.20644
 C553 C 1.11599 -0.08776 0.09952
 C554 C 1.13453 -0.11316 0.12950
 C555 C 1.13179 -0.16637 0.18507
 C556 C 1.07545 -0.08650 0.09744
 H557 H 1.05540 -0.15392 0.17897
 H558 H 1.02263 -0.10956 0.12659
 H559 H 1.13332 -0.07009 0.07695
 H560 H 1.16577 -0.11467 0.12963
 C561 C 1.11261 0.36327 0.65687
 C562 C 1.13429 0.38736 0.62828
 C563 C 1.11571 0.41267 0.59822
 C564 C 1.14786 0.30961 0.70583
 C565 C 1.05366 0.39077 0.62643
 C566 C 1.07230 0.36552 0.65642
 C567 C 1.13161 0.33444 0.68427
 C568 C 1.07517 0.41401 0.59632
 H569 H 1.16553 0.38579 0.62830
 H570 H 1.13301 0.43022 0.57549
 H571 H 1.02239 0.39117 0.62581
 H572 H 1.05523 0.34697 0.67832
 C573 C 0.61243 -0.13713 0.65786
 C574 C 0.63404 -0.11269 0.62960
 C575 C 0.61538 -0.08734 0.59966
 C576 C 0.64793 -0.19092 0.70639
 C577 C 0.55339 -0.10987 0.62733
 C578 C 0.57210 -0.13517 0.65721
 C579 C 0.63155 -0.16603 0.68505
 C580 C 0.57484 -0.08629 0.59753
 H581 H 0.66529 -0.11403 0.62977
 H582 H 0.63265 -0.06953 0.57717
 H583 H 0.52212 -0.10970 0.62653
 H584 H 0.55508 -0.15399 0.67884
 C585 C 0.61275 0.36391 0.15609
 C586 C 0.63432 0.38796 0.12736
 C587 C 0.61561 0.41310 0.09725
 C588 C 0.64813 0.31012 0.20455
 C589 C 0.55368 0.39112 0.12577
 C590 C 0.57244 0.36604 0.15580
 C591 C 0.63185 0.33506 0.18326
 C592 C 0.57507 0.41427 0.09546
 H593 H 0.66557 0.38644 0.12725
 H594 H 0.63280 0.43061 0.07437
 H595 H 0.52240 0.39143 0.12524
 H596 H 0.55548 0.34749 0.17782
 C597 C 0.88824 0.13556 0.15790
 C598 C 0.92856 0.13367 0.15729
 C599 C 0.94727 0.10869 0.12728
 C600 C 0.85278 0.18926 0.20600
 C601 C 0.88527 0.08632 0.09947
 C602 C 0.86661 0.11135 0.12954
 C603 C 0.86914 0.16436 0.18492
 C604 C 0.92580 0.08540 0.09732
 H605 H 0.94556 0.15235 0.17900
 H606 H 0.97854 0.10858 0.12647
 H607 H 0.86801 0.06869 0.07686
 H608 H 0.83536 0.11268 0.12969
 C609 C 0.88678 0.63676 0.65590
 C610 C 0.92710 0.63463 0.65561
 C611 C 0.94586 0.60949 0.62580
 C612 C 0.85137 0.69025 0.70456
 C613 C 0.88393 0.58748 0.59743
 C614 C 0.86522 0.61268 0.62731
 C615 C 0.86766 0.66548 0.68312
 C616 C 0.92448 0.58625 0.59570
 H617 H 0.94408 0.65318 0.67751
 H618 H 0.97713 0.60917 0.62532
 H619 H 0.86672 0.56992 0.57470
 H620 H 0.83397 0.61416 0.62719
 C621 C 0.38790 0.13640 0.65782
 C622 C 0.42822 0.13435 0.65710
 C623 C 0.44680 0.10921 0.62714
 C624 C 0.35264 0.18993 0.70654
 C625 C 0.38470 0.08702 0.59949
 C626 C 0.36617 0.11222 0.62952
 C627 C 0.36892 0.16515 0.68511
 C628 C 0.42523 0.08589 0.59730
 H629 H 0.44533 0.15298 0.67877
 H630 H 0.47807 0.10897 0.62630
 H631 H 0.36735 0.06940 0.57697
 H632 H 0.33492 0.11363 0.62974
 C633 C 0.38671 0.63647 0.15579
 C634 C 0.36505 0.61256 0.12711
 C635 C 0.38366 0.58738 0.09713
 C636 C 0.35150 0.68998 0.20459
 C637 C 0.44568 0.60906 0.12559
 C638 C 0.42702 0.63418 0.15550
 C639 C 0.36772 0.66520 0.18310
 C640 C 0.42420 0.58600 0.09539
 H641 H 0.33381 0.61417 0.12700
 H642 H 0.36638 0.56996 0.07432
 H643 H 0.47695 0.60862 0.12510
 H644 H 0.44407 0.65260 0.17747
   
