data_POSCAR
  _audit_creation_date              2014-09-24
  _audit_creation_method            'ToBaCCo'
  _symmetry_space_group_name_H-M    'P1'
  _symmetry_Int_Tables_number       1
  _symmetry_cell_setting            triclinic
  loop_
  _symmetry_equiv_pos_as_xyz
 x,y,z
_cell_length_a 47.9350
_cell_length_b 47.9060
_cell_length_c 54.9466
_cell_angle_alpha 90.058800
_cell_angle_beta 89.970300
_cell_angle_gamma 120.053100
loop_
  _atom_site_label
  _atom_site_type_symbol
  _atom_site_fract_x
  _atom_site_fract_y
  _atom_site_fract_z
O1 O 0.03042 0.53772 1.27376
 O2 O -0.03163 0.50663 1.22577
 O3 O -0.03230 0.50642 1.27318
 O4 O 0.03108 0.53812 1.22637
 O5 O 0.03053 0.49172 1.22593
 O6 O -0.03184 0.46053 1.27356
 O7 O -0.03220 0.46026 1.22617
 O8 O 0.03088 0.49183 1.27333
 Cu9 Cu -0.00060 0.52686 1.24977
 Cu10 Cu -0.00066 0.47145 1.24974
 C11 C 0.04127 0.52008 1.28166
 C12 C -0.04257 0.47810 1.21783
 C13 C -0.04273 0.47815 1.28142
 C14 C 0.04147 0.52026 1.21810
 O15 O 0.46099 0.49233 1.27459
 O16 O 0.49212 0.46131 1.22661
 O17 O 0.49225 0.46088 1.27402
 O18 O 0.46062 0.49252 1.22716
 O19 O 0.50697 0.53844 1.22678
 O20 O 0.53811 0.50731 1.27448
 O21 O 0.53847 0.50723 1.22706
 O22 O 0.50681 0.53874 1.27420
 Cu23 Cu 0.47187 0.47213 1.25059
 Cu24 Cu 0.52722 0.52756 1.25064
 C25 C 0.47857 0.52087 1.28254
 C26 C 0.52064 0.47897 1.21873
 C27 C 0.52049 0.47876 1.28231
 C28 C 0.47846 0.52079 1.21890
 O29 O 0.50702 0.96820 1.27501
 O30 O 0.53821 1.03033 1.22705
 O31 O 0.53860 1.03099 1.27446
 O32 O 0.50684 0.96755 1.22759
 O33 O 0.46104 0.96811 1.22715
 O34 O 0.49228 1.03049 1.27490
 O35 O 0.49241 1.03089 1.22747
 O36 O 0.46071 0.96770 1.27457
 Cu37 Cu 0.52729 0.99926 1.25103
 Cu38 Cu 0.47199 0.99931 1.25103
 C39 C 0.47850 0.95728 1.28293
 C40 C 0.52063 1.04124 1.21915
 C41 C 0.52081 1.04146 1.28278
 C42 C 0.47862 0.95718 1.21929
 O43 O 0.96917 0.50709 0.72588
 O44 O 1.03157 0.53830 0.77356
 O45 O 1.03194 0.53859 0.72613
 O46 O 0.96882 0.50701 0.77331
 O47 O 0.96927 0.46112 0.77367
 O48 O 1.03138 0.49222 0.72566
 O49 O 1.03203 0.49241 0.77309
 O50 O 0.96863 0.46070 0.72625
 Cu51 Cu 1.00038 0.52737 0.74973
 Cu52 Cu 1.00032 0.47199 0.74966
 C53 C 0.95823 0.47854 0.71801
 C54 C 1.04246 0.52068 0.78139
 C55 C 1.04232 0.52076 0.71775
 C56 C 0.95843 0.47876 0.78161
 O57 O 0.49241 0.46068 0.72634
 O58 O 0.46133 0.49195 0.77403
 O59 O 0.46102 0.49199 0.72662
 O60 O 0.49254 0.46046 0.77375
 O61 O 0.53844 0.50683 0.77414
 O62 O 0.50741 0.53788 0.72622
 O63 O 0.50723 0.53833 0.77362
 O64 O 0.53880 0.50657 0.72673
 Cu65 Cu 0.47218 0.47163 0.75019
 Cu66 Cu 0.52761 0.52704 0.75017
 C67 C 0.52092 0.47829 0.71847
 C68 C 0.47898 0.52049 0.78189
 C69 C 0.47890 0.52023 0.71832
 C70 C 0.52079 0.47833 0.78205
 O71 O 0.53837 0.03012 0.72591
 O72 O 0.50729 -0.03220 0.77359
 O73 O 0.50711 -0.03265 0.72618
 O74 O 0.53872 0.03056 0.77332
 O75 O 0.49235 0.02999 0.77377
 O76 O 0.46127 -0.03220 0.72580
 O77 O 0.46091 -0.03277 0.77321
 O78 O 0.49250 0.03056 0.72637
 Cu79 Cu 0.52750 -0.00104 0.74974
 Cu80 Cu 0.47212 -0.00112 0.74979
 C81 C 0.52074 0.04100 0.71808
 C82 C 0.47878 -0.04313 0.78146
 C83 C 0.47887 -0.04310 0.71784
 C84 C 0.52086 0.04091 0.78166
 O85 O 0.38071 0.66766 0.97250
 O86 O 0.38203 0.72206 0.97965
 C87 C 0.36195 0.72669 0.96779
 O88 O 0.33208 0.71224 0.97245
 O89 O 0.27765 0.65912 0.97948
 C90 C 0.27302 0.63437 0.96762
 O91 O 0.28744 0.61894 0.97233
 O92 O 0.34048 0.61765 0.97955
 C93 C 0.36528 0.63778 0.96776
 O94 O 0.38187 0.65915 1.02097
 O95 O 0.38058 0.71223 1.02812
 C96 C 0.36515 0.72667 1.03281
 O97 O 0.34043 0.72202 1.02094
 O98 O 0.28733 0.66757 1.02797
 C99 C 0.27286 0.63768 1.03262
 O100 O 0.27752 0.61758 1.02078
 O101 O 0.33187 0.61891 1.02801
 C102 C 0.36173 0.63436 1.03276
 Cr103 Cr 0.37947 0.68936 1.00031
 Cr104 Cr 0.31029 0.68932 1.00021
 Cr105 Cr 0.31024 0.62010 1.00017
 O106 O 0.33333 0.66626 1.00023
 O107 O 0.61934 0.33150 0.97275
 O108 O 0.61805 0.27705 0.97961
 C109 C 0.63809 0.27219 0.96789
 O110 O 0.66794 0.28651 0.97268
 O111 O 0.72240 0.33973 0.97951
 C112 C 0.72730 0.36468 0.96784
 O113 O 0.71303 0.38024 0.97269
 O114 O 0.65986 0.38145 0.97959
 C115 C 0.63490 0.36135 0.96792
 O116 O 0.61813 0.33973 1.02130
 O117 O 0.61938 0.28655 1.02816
 C118 C 0.63492 0.27226 1.03296
 O119 O 0.65983 0.27713 1.02124
 O120 O 0.71305 0.33162 1.02806
 C121 C 0.72733 0.36147 1.03290
 O122 O 0.72245 0.38153 1.02125
 O123 O 0.66804 0.38028 1.02814
 C124 C 0.63820 0.36471 1.03297
 Cr125 Cr 0.62060 0.30964 1.00045
 Cr126 Cr 0.68987 0.30968 1.00037
 Cr127 Cr 0.68991 0.37901 1.00042
 O128 O 0.66679 0.33278 1.00042
 O129 O 0.66767 0.37978 0.52781
 O130 O 0.72205 0.38114 0.52065
 C131 C 0.72671 0.36103 0.53245
 O132 O 0.71224 0.33114 0.52772
 O133 O 0.65914 0.27672 0.52055
 C134 C 0.63435 0.27203 0.53236
 O135 O 0.61891 0.28644 0.52765
 O136 O 0.61768 0.33957 0.52063
 C137 C 0.63780 0.36433 0.53249
 O138 O 0.65922 0.38117 0.47935
 O139 O 0.71226 0.37985 0.47219
 C140 C 0.72666 0.36440 0.46745
 O141 O 0.72200 0.33962 0.47925
 O142 O 0.66760 0.28648 0.47210
 C143 C 0.63774 0.27205 0.46736
 O144 O 0.61765 0.27675 0.47916
 O145 O 0.61902 0.33118 0.47214
 C146 C 0.63446 0.36108 0.46750
 Cr147 Cr 0.68939 0.37865 0.50000
 Cr148 Cr 0.68933 0.30941 0.49991
 Cr149 Cr 0.62015 0.30940 0.49990
 O150 O 0.66629 0.33248 0.49993
 O151 O 0.33187 0.61870 0.52775
 O152 O 0.27743 0.61742 0.52104
 C153 C 0.27253 0.63748 0.53273
 O154 O 0.28680 0.66733 0.52790
 O155 O 0.34002 0.72179 0.52108
 C156 C 0.36502 0.72673 0.53267
 O157 O 0.38059 0.71250 0.52775
 O158 O 0.38176 0.65927 0.52088
 C159 C 0.36171 0.63429 0.53255
 O160 O 0.33985 0.61741 0.47917
 O161 O 0.28668 0.61866 0.47247
 C162 C 0.27245 0.63425 0.46766
 O163 O 0.27740 0.65924 0.47934
 O164 O 0.33184 0.71249 0.47251
 C165 C 0.36166 0.72674 0.46762
 O166 O 0.38172 0.72179 0.47921
 O167 O 0.38041 0.66732 0.47233
 C168 C 0.36481 0.63747 0.46749
 Cr169 Cr 0.30990 0.61992 0.50011
 Cr170 Cr 0.30995 0.68927 0.50020
 Cr171 Cr 0.37924 0.68928 0.50004
 O172 O 0.33303 0.66616 0.50012
 C173 C 0.44416 0.55559 0.33612
 N174 N 0.42589 0.52500 0.32766
 N175 N 0.43699 0.51377 0.31022
 C176 C 0.46682 0.53267 0.30062
 N177 N 0.48507 0.56328 0.30910
 N178 N 0.47393 0.57453 0.32649
 C179 C 0.43202 0.56793 0.35547
 N180 N 0.44960 0.59903 0.36302
 N181 N 0.43871 0.61018 0.38067
 C182 C 0.40986 0.59063 0.39145
 N183 N 0.39228 0.55952 0.38390
 N184 N 0.40313 0.54839 0.36621
 C185 C 0.39800 0.60286 0.41108
 N186 N 0.37019 0.58280 0.42295
 N187 N 0.35959 0.59383 0.44089
 C188 C 0.37639 0.62535 0.44759
 N189 N 0.40416 0.64542 0.43567
 N190 N 0.41480 0.63436 0.41777
 C191 C 0.44363 0.88813 0.33646
 N192 N 0.42476 0.89902 0.32682
 N193 N 0.43606 0.92142 0.30945
 C194 C 0.46665 0.93374 0.30100
 N195 N 0.48548 0.92276 0.31061
 N196 N 0.47419 0.90042 0.32803
 C197 C 0.43124 0.86364 0.35578
 N198 N 0.45071 0.85423 0.36650
 N199 N 0.43955 0.83223 0.38416
 C200 C 0.40848 0.81875 0.39172
 N201 N 0.38899 0.82810 0.38096
 N202 N 0.40017 0.85017 0.36334
 C203 C 0.39624 0.79464 0.41131
 N204 N 0.36477 0.77996 0.41804
 N205 N 0.35372 0.75824 0.43590
 C206 C 0.37376 0.75047 0.44776
 N207 N 0.40523 0.76516 0.44103
 N208 N 0.41625 0.78681 0.42312
 C209 C 0.11149 0.55502 0.33625
 N210 N 0.10130 0.52562 0.32609
 N211 N 0.07896 0.51452 0.30867
 C212 C 0.06605 0.53244 0.30073
 N213 N 0.07629 0.56187 0.31085
 N214 N 0.09858 0.57294 0.32831
 C215 C 0.13591 0.56712 0.35562
 N216 N 0.14482 0.59571 0.36673
 N217 N 0.16677 0.60654 0.38444
 C218 C 0.18065 0.58921 0.39165
 N219 N 0.17178 0.56065 0.38051
 N220 N 0.14979 0.54979 0.36284
 C221 C 0.20469 0.60104 0.41129
 N222 N 0.21956 0.58439 0.41780
 N223 N 0.24122 0.59502 0.43570
 C224 C 0.24875 0.62265 0.44780
 N225 N 0.23387 0.63930 0.44128
 N226 N 0.21226 0.62871 0.42334
 C227 C 0.55549 0.44323 0.33654
 N228 N 0.52613 0.42401 0.32637
 N229 N 0.51500 0.43533 0.30906
 C230 C 0.53287 0.46626 0.30125
 N231 N 0.56227 0.48546 0.31137
 N232 N 0.57336 0.47416 0.32873
 C233 C 0.56758 0.43084 0.35580
 N234 N 0.59609 0.45054 0.36697
 N235 N 0.60690 0.43935 0.38461
 C236 C 0.58964 0.40804 0.39167
 N237 N 0.56118 0.38832 0.38045
 N238 N 0.55033 0.39952 0.36285
 C239 C 0.60143 0.39577 0.41123
 N240 N 0.58488 0.36415 0.41757
 N241 N 0.59546 0.35306 0.43545
 C242 C 0.62293 0.37322 0.44767
 N243 N 0.63948 0.40485 0.44132
 N244 N 0.62894 0.41591 0.42341
 C245 C 0.55577 0.11086 0.33611
 N246 N 0.57464 0.09996 0.32648
 N247 N 0.56330 0.07747 0.30916
 C248 C 0.53270 0.06509 0.30076
 N249 N 0.51387 0.07609 0.31036
 N250 N 0.52518 0.09852 0.32774
 C251 C 0.56816 0.13539 0.35539
 N252 N 0.54866 0.14471 0.36620
 N253 N 0.55983 0.16672 0.38387
 C254 C 0.59093 0.18028 0.39133
 N255 N 0.61046 0.17102 0.38048
 N256 N 0.59927 0.14894 0.36286
 C257 C 0.60317 0.20434 0.41094
 N258 N 0.63468 0.21914 0.41754
 N259 N 0.64573 0.24081 0.43546
 C260 C 0.62565 0.24839 0.44748
 N261 N 0.59413 0.23358 0.44087
 N262 N 0.58310 0.21198 0.42292
 C263 C 0.88689 0.44316 0.33579
 N264 N 0.89704 0.47253 0.32565
 N265 N 0.91942 0.48365 0.30827
 C266 C 0.93241 0.46576 0.30038
 N267 N 0.92220 0.43636 0.31048
 N268 N 0.89986 0.42527 0.32789
 C269 C 0.86251 0.43110 0.35514
 N270 N 0.85375 0.40260 0.36630
 N271 N 0.83187 0.39182 0.38404
 C272 C 0.81793 0.40911 0.39123
 N273 N 0.82663 0.43757 0.38002
 N274 N 0.84856 0.44838 0.36232
 C275 C 0.79403 0.39737 0.41091
 N276 N 0.77905 0.41395 0.41738
 N277 N 0.75751 0.40339 0.43536
 C278 C 0.75024 0.37593 0.44755
 N279 N 0.76522 0.35936 0.44107
 N280 N 0.78671 0.36987 0.42306
 C281 C 0.55614 0.44406 1.16421
 N282 N 0.52527 0.42612 1.17212
 N283 N 0.51398 0.43718 1.18955
 C284 C 0.53314 0.46663 1.19967
 N285 N 0.56401 0.48457 1.19176
 N286 N 0.57531 0.47348 1.17437
 C287 C 0.56854 0.43196 1.14487
 N288 N 0.59979 0.44930 1.13769
 N289 N 0.61098 0.43843 1.12005
 C290 C 0.59132 0.40985 1.10892
 N291 N 0.56006 0.39251 1.11611
 N292 N 0.54889 0.40335 1.13378
 C293 C 0.60358 0.39799 1.08931
 N294 N 0.58349 0.37031 1.07727
 N295 N 0.59453 0.35970 1.05935
 C296 C 0.62609 0.37634 1.05284
 N297 N 0.64620 0.40399 1.06493
 N298 N 0.63514 0.41463 1.08281
 C299 C 0.88840 0.44334 1.16423
 N300 N 0.90071 0.47393 1.17269
 N301 N 0.92302 0.48517 1.19013
 C302 C 0.93393 0.46629 1.19974
 N303 N 0.92159 0.43569 1.19126
 N304 N 0.89922 0.42442 1.17386
 C305 C 0.86396 0.43100 1.14488
 N306 N 0.85046 0.39991 1.13732
 N307 N 0.82844 0.38875 1.11967
 C308 C 0.81917 0.40830 1.10889
 N309 N 0.83268 0.43939 1.11645
 N310 N 0.85464 0.45053 1.13414
 C311 C 0.79512 0.39607 1.08926
 N312 N 0.78737 0.41612 1.07741
 N313 N 0.76576 0.40510 1.05947
 C314 C 0.75104 0.37359 1.05277
 N315 N 0.75873 0.35352 1.06467
 N316 N 0.78040 0.36457 1.08256
 C317 C 0.55565 0.11145 1.16452
 N318 N 0.52629 0.10133 1.17469
 N319 N 0.51517 0.07901 1.19212
 C320 C 0.53303 0.06603 1.20007
 N321 N 0.56242 0.07620 1.18995
 N322 N 0.57351 0.09847 1.17247
 C323 C 0.56776 0.13585 1.14513
 N324 N 0.59630 0.14467 1.13400
 N325 N 0.60714 0.16659 1.11628
 C326 C 0.58988 0.18055 1.10906
 N327 N 0.56138 0.17177 1.12022
 N328 N 0.55050 0.14980 1.13791
 C329 C 0.60172 0.20456 1.08940
 N330 N 0.58514 0.21952 1.08289
 N331 N 0.59576 0.24115 1.06497
 C332 C 0.62333 0.24858 1.05285
 N333 N 0.63991 0.23363 1.05937
 N334 N 0.62932 0.21205 1.07732
 C335 C 0.44311 0.55568 1.16446
 N336 N 0.42388 0.52630 1.17462
 N337 N 0.43513 0.51522 1.19201
 C338 C 0.46600 0.53314 1.19992
 N339 N 0.48521 0.56255 1.18981
 N340 N 0.47398 0.57361 1.17238
 C341 C 0.43081 0.56771 1.14510
 N342 N 0.45055 0.59622 1.13394
 N343 N 0.43946 0.60698 1.11619
 C344 C 0.40822 0.58966 1.10900
 N345 N 0.38846 0.56119 1.12020
 N346 N 0.39956 0.55040 1.13791
 C347 C 0.39607 0.60139 1.08931
 N348 N 0.36451 0.58480 1.08283
 N349 N 0.35353 0.59535 1.06486
 C350 C 0.37375 0.62283 1.05267
 N351 N 0.40531 0.63941 1.05916
 N352 N 0.41627 0.62890 1.07717
 C353 C 0.11200 0.55576 1.16383
 N354 N 0.09895 0.52485 1.17167
 N355 N 0.07656 0.51356 1.18904
 C356 C 0.06636 0.53276 1.19916
 N357 N 0.07942 0.56367 1.19133
 N358 N 0.10186 0.57498 1.17399
 C359 C 0.13645 0.56813 1.14455
 N360 N 0.15049 0.59942 1.13745
 N361 N 0.17251 0.61060 1.11981
 C362 C 0.18122 0.59086 1.10859
 N363 N 0.16719 0.55956 1.11569
 N364 N 0.14522 0.54841 1.13337
 C365 C 0.20522 0.60308 1.08898
 N366 N 0.21256 0.58292 1.07680
 N367 N 0.23413 0.59396 1.05885
 C368 C 0.24920 0.62557 1.05247
 N369 N 0.24192 0.64575 1.06469
 N370 N 0.22029 0.63469 1.08260
 C371 C 0.44367 0.88686 1.16476
 N372 N 0.47298 0.89694 1.17497
 N373 N 0.48408 0.91930 1.19240
 C374 C 0.46623 0.93232 1.20028
 N375 N 0.43688 0.92218 1.19012
 N376 N 0.42581 0.89987 1.17265
 C377 C 0.43163 0.86251 1.14535
 N378 N 0.40320 0.85380 1.13412
 N379 N 0.39245 0.83194 1.11633
 C380 C 0.40971 0.81795 1.10917
 N381 N 0.43810 0.82660 1.12044
 N382 N 0.44889 0.84851 1.13819
 C383 C 0.39800 0.79406 1.08945
 N384 N 0.41455 0.77903 1.08301
 N385 N 0.40403 0.75749 1.06501
 C386 C 0.37663 0.75026 1.05275
 N387 N 0.36009 0.76528 1.05919
 N388 N 0.37057 0.78677 1.07722
 C389 C 0.55626 0.44321 0.66409
 N390 N 0.52537 0.42534 0.67197
 N391 N 0.51414 0.43645 0.68939
 C392 C 0.53337 0.46587 0.69950
 N393 N 0.56426 0.48374 0.69163
 N394 N 0.57551 0.47260 0.67425
 C395 C 0.56856 0.43111 0.64476
 N396 N 0.59983 0.44838 0.63762
 N397 N 0.61095 0.43753 0.61993
 C398 C 0.59118 0.40907 0.60870
 N399 N 0.55991 0.39180 0.61584
 N400 N 0.54881 0.40261 0.63357
 C401 C 0.60334 0.39730 0.58903
 N402 N 0.58316 0.36980 0.57683
 N403 N 0.59415 0.35928 0.55883
 C404 C 0.62573 0.37584 0.55240
 N405 N 0.64593 0.40330 0.56464
 N406 N 0.63493 0.41386 0.58261
 C407 C 0.55563 0.11143 0.66375
 N408 N 0.52627 0.10124 0.67392
 N409 N 0.51519 0.07883 0.69128
 C410 C 0.53309 0.06586 0.69912
 N411 N 0.56248 0.07611 0.68899
 N412 N 0.57353 0.09846 0.67159
 C413 C 0.56767 0.13584 0.64443
 N414 N 0.59616 0.14467 0.63325
 N415 N 0.60692 0.16659 0.61554
 C416 C 0.58962 0.18053 0.60842
 N417 N 0.56117 0.17177 0.61964
 N418 N 0.55037 0.14979 0.63731
 C419 C 0.60136 0.20449 0.58878
 N420 N 0.58478 0.21947 0.58236
 N421 N 0.59534 0.24107 0.56443
 C422 C 0.62281 0.24840 0.55222
 N423 N 0.63938 0.23341 0.55865
 N424 N 0.62886 0.21187 0.57662
 C425 C 0.88769 0.44301 0.66370
 N426 N 0.90074 0.47393 0.67159
 N427 N 0.92313 0.48522 0.68897
 C428 C 0.93333 0.46603 0.69905
 N429 N 0.92028 0.43512 0.69117
 N430 N 0.89784 0.42380 0.67383
 C431 C 0.86321 0.43063 0.64440
 N432 N 0.84917 0.39933 0.63726
 N433 N 0.82714 0.38814 0.61962
 C434 C 0.81841 0.40787 0.60845
 N435 N 0.83244 0.43916 0.61559
 N436 N 0.85442 0.45033 0.63327
 C437 C 0.79438 0.39563 0.58883
 N438 N 0.78702 0.41578 0.57670
 N439 N 0.76544 0.40474 0.55876
 C440 C 0.75037 0.37313 0.55232
 N441 N 0.75766 0.35296 0.56449
 N442 N 0.77931 0.36402 0.58240
 C443 C 0.44357 0.55514 0.66379
 N444 N 0.42435 0.52575 0.67393
 N445 N 0.43560 0.51465 0.69133
 C446 C 0.46646 0.53258 0.69926
 N447 N 0.48566 0.56200 0.68917
 N448 N 0.47443 0.57306 0.67173
 C449 C 0.43123 0.56723 0.64444
 N450 N 0.45092 0.59581 0.63336
 N451 N 0.43979 0.60663 0.61568
 C452 C 0.40855 0.58930 0.60847
 N453 N 0.38884 0.56075 0.61959
 N454 N 0.39999 0.54990 0.63723
 C455 C 0.39632 0.60112 0.58886
 N456 N 0.36477 0.58447 0.58235
 N457 N 0.35372 0.59509 0.56447
 C458 C 0.37384 0.62271 0.55239
 N459 N 0.40539 0.63936 0.55891
 N460 N 0.41643 0.62878 0.57682
 C461 C 0.44450 0.88779 0.66422
 N462 N 0.47427 0.89868 0.67384
 N463 N 0.48540 0.92107 0.69125
 C464 C 0.46714 0.93336 0.69975
 N465 N 0.43731 0.92237 0.69016
 N466 N 0.42622 0.90004 0.67270
 C467 C 0.43237 0.86334 0.64484
 N468 N 0.40348 0.85395 0.63412
 N469 N 0.39262 0.83199 0.61640
 C470 C 0.41022 0.81855 0.60879
 N471 N 0.43907 0.82788 0.61955
 N472 N 0.44997 0.84990 0.63723
 C473 C 0.39835 0.79450 0.58913
 N474 N 0.41514 0.77985 0.58236
 N475 N 0.40447 0.75818 0.56444
 C476 C 0.37667 0.75043 0.55257
 N477 N 0.35988 0.76509 0.55935
 N478 N 0.37051 0.78670 0.57731
 C479 C 0.11138 0.55554 0.66413
 N480 N 0.10055 0.57445 0.67381
 N481 N 0.07818 0.56318 0.69121
 C482 C 0.06584 0.53258 0.69965
 N483 N 0.07677 0.51371 0.69000
 N484 N 0.09908 0.52496 0.67255
 C485 C 0.13584 0.56790 0.64477
 N486 N 0.14519 0.54839 0.63398
 N487 N 0.16716 0.55953 0.61629
 C488 C 0.18066 0.59062 0.60876
 N489 N 0.17136 0.61016 0.61959
 N490 N 0.14934 0.59899 0.63724
 C491 C 0.20473 0.60286 0.58913
 N492 N 0.21944 0.63436 0.58246
 N493 N 0.24112 0.64542 0.56456
 C494 C 0.24883 0.62536 0.55262
 N495 N 0.23412 0.59386 0.55930
 N496 N 0.21251 0.58283 0.57724
 C497 C 0.44408 0.55601 0.83627
 N498 N 0.42617 0.52511 0.82838
 N499 N 0.43723 0.51381 0.81097
 C500 C 0.46663 0.53301 0.80086
 N501 N 0.48454 0.56391 0.80874
 N502 N 0.47345 0.57522 0.82611
 C503 C 0.43203 0.56837 0.85560
 N504 N 0.44933 0.59966 0.86276
 N505 N 0.43852 0.61082 0.88044
 C506 C 0.41006 0.59108 0.89164
 N507 N 0.39275 0.55980 0.88448
 N508 N 0.40353 0.54865 0.86676
 C509 C 0.39830 0.60328 0.91129
 N510 N 0.37079 0.58310 0.92344
 N511 N 0.36026 0.59411 0.94142
 C512 C 0.37683 0.62571 0.94788
 N513 N 0.40431 0.64590 0.93570
 N514 N 0.41488 0.63488 0.91775
 C515 C 0.11281 0.55563 0.83584
 N516 N 0.09983 0.57353 0.82797
 N517 N 0.07752 0.56246 0.81054
 C518 C 0.06732 0.53306 0.80038
 N519 N 0.08030 0.51517 0.80824
 N520 N 0.10266 0.52627 0.82563
 C521 C 0.13718 0.56769 0.85521
 N522 N 0.15114 0.55041 0.86235
 N523 N 0.17306 0.56122 0.88006
 C524 C 0.18176 0.58966 0.89133
 N525 N 0.16780 0.60695 0.88418
 N526 N 0.14593 0.59618 0.86643
 C527 C 0.20566 0.60140 0.91102
 N528 N 0.21297 0.62889 0.92323
 N529 N 0.23446 0.63940 0.94125
 C530 C 0.24946 0.62284 0.94769
 N531 N 0.24220 0.59539 0.93544
 N532 N 0.22066 0.58484 0.91745
 C533 C 0.44349 0.88665 0.83596
 N534 N 0.42423 0.89670 0.82577
 N535 N 0.43547 0.91903 0.80836
 C536 C 0.46634 0.93205 0.80046
 N537 N 0.48557 0.92194 0.81059
 N538 N 0.47436 0.89967 0.82804
 C539 C 0.43121 0.86234 0.85535
 N540 N 0.45096 0.85368 0.86656
 N541 N 0.43988 0.83186 0.88434
 C542 C 0.40862 0.81787 0.89151
 N543 N 0.38885 0.82647 0.88026
 N544 N 0.39995 0.84834 0.86252
 C545 C 0.39646 0.79402 0.91122
 N546 N 0.36488 0.77898 0.91765
 N547 N 0.35387 0.75746 0.93564
 C548 C 0.37405 0.75027 0.94789
 N549 N 0.40563 0.76531 0.94145
 N550 N 0.41663 0.78677 0.92343
 C551 C 0.55569 0.44301 0.83658
 N552 N 0.52629 0.42378 0.82646
 N553 N 0.51520 0.43503 0.80905
 C554 C 0.53313 0.46589 0.80110
 N555 N 0.56256 0.48510 0.81119
 N556 N 0.57362 0.47387 0.82863
 C557 C 0.56778 0.43069 0.85594
 N558 N 0.59636 0.45039 0.86702
 N559 N 0.60719 0.43928 0.88471
 C560 C 0.58986 0.40803 0.89193
 N561 N 0.56131 0.38831 0.88081
 N562 N 0.55045 0.39944 0.86316
 C563 C 0.60169 0.39584 0.91156
 N564 N 0.58506 0.36428 0.91808
 N565 N 0.59569 0.35326 0.93598
 C566 C 0.62330 0.37342 0.94805
 N567 N 0.63993 0.40498 0.94152
 N568 N 0.62934 0.41598 0.92359
 C569 C 0.88822 0.44386 0.83627
 N570 N 0.89840 0.47325 0.82613
 N571 N 0.92073 0.48433 0.80869
 C572 C 0.93364 0.46641 0.80071
 N573 N 0.92340 0.43699 0.81081
 N574 N 0.90113 0.42593 0.82829
 C575 C 0.86380 0.43177 0.85567
 N576 N 0.85490 0.40320 0.86676
 N577 N 0.83297 0.39238 0.88448
 C578 C 0.81907 0.40970 0.89173
 N579 N 0.82793 0.43825 0.88061
 N580 N 0.84991 0.44909 0.86292
 C581 C 0.79504 0.39788 0.91140
 N582 N 0.78013 0.41451 0.91795
 N583 N 0.75848 0.40389 0.93586
 C584 C 0.75099 0.37628 0.94794
 N585 N 0.76590 0.35965 0.94138
 N586 N 0.78749 0.37023 0.92343
 C587 C 0.55622 0.11119 0.83630
 N588 N 0.57543 0.10106 0.82611
 N589 N 0.56417 0.07871 0.80867
 C590 C 0.53331 0.06572 0.80074
 N591 N 0.51412 0.07591 0.81088
 N592 N 0.52536 0.09821 0.82836
 C593 C 0.56855 0.13562 0.85569
 N594 N 0.54887 0.14446 0.86683
 N595 N 0.56000 0.16640 0.88457
 C596 C 0.59124 0.18036 0.89177
 N597 N 0.61094 0.17158 0.88059
 N598 N 0.59980 0.14958 0.86290
 C599 C 0.60347 0.20440 0.91144
 N600 N 0.63503 0.21937 0.91794
 N601 N 0.64608 0.24103 0.93587
 C602 C 0.62596 0.24847 0.94800
 N603 N 0.59440 0.23350 0.94149
 N604 N 0.58337 0.21189 0.92353
   
