data_POSCAR
  _audit_creation_date              2014-09-24
  _audit_creation_method            'ToBaCCo'
  _symmetry_space_group_name_H-M    'P1'
  _symmetry_Int_Tables_number       1
  _symmetry_cell_setting            triclinic
  loop_
  _symmetry_equiv_pos_as_xyz
 x,y,z
_cell_length_a 33.5684
_cell_length_b 33.5180
_cell_length_c 45.5368
_cell_angle_alpha 90.141000
_cell_angle_beta 89.273000
_cell_angle_gamma 89.730400
loop_
  _atom_site_label
  _atom_site_type_symbol
  _atom_site_fract_x
  _atom_site_fract_y
  _atom_site_fract_z
C1 C -0.00067 0.50125 0.98600
 C2 C 0.00063 0.50125 1.01592
 C3 C -0.00101 0.53891 1.03320
 C4 C 0.00373 0.46356 1.03288
 C5 C -0.00397 0.46361 0.96891
 C6 C 0.00123 0.53886 0.96884
 C7 C 0.02854 0.54686 1.05392
 C8 C 0.02751 0.58226 1.07020
 C9 C -0.00329 0.61000 1.06609
 C10 C -0.03323 0.60195 1.04574
 C11 C -0.03220 0.56650 1.02949
 C12 C 0.03457 0.43601 1.02708
 C13 C 0.03687 0.40047 1.04300
 C14 C 0.00863 0.39232 1.06505
 C15 C -0.02172 0.41996 1.07127
 C16 C -0.02408 0.45547 1.05536
 C17 C -0.03497 0.43653 0.97459
 C18 C -0.03748 0.40106 0.95851
 C19 C -0.00930 0.39251 0.93641
 C20 C 0.02123 0.41969 0.93032
 C21 C 0.02380 0.45512 0.94640
 C22 C -0.02821 0.54723 0.94807
 C23 C -0.02682 0.58251 0.93183
 C24 C 0.00417 0.60966 0.93600
 C25 C 0.03395 0.60127 0.95636
 C26 C 0.03263 0.56595 0.97261
 H27 H 0.05267 0.52585 1.05723
 H28 H 0.05085 0.58792 1.08590
 H29 H -0.05740 0.62297 1.04239
 H30 H -0.05570 0.56055 1.01403
 H31 H 0.05678 0.44205 1.01023
 H32 H 0.06061 0.37938 1.03812
 H33 H -0.04791 0.47643 1.06028
 H34 H -0.05714 0.44288 0.99146
 H35 H -0.06135 0.38033 0.96329
 H36 H 0.04311 0.41343 0.91322
 H37 H 0.04775 0.47572 0.94156
 H38 H -0.05250 0.52662 0.94471
 H39 H -0.04994 0.58866 0.91606
 H40 H 0.05819 0.62198 0.95964
 H41 H 0.05606 0.55968 0.98809
 H42 H -0.04365 0.41400 1.08834
 C43 C 0.50005 -0.00150 0.48473
 C44 C 0.49985 -0.00147 0.51468
 C45 C 0.46214 -0.00385 0.53204
 C46 C 0.53732 0.00109 0.53161
 C47 C 0.53778 -0.00392 0.46737
 C48 C 0.46256 0.00104 0.46781
 C49 C 0.45373 0.02490 0.55375
 C50 C 0.41825 0.02320 0.57007
 C51 C 0.39094 -0.00742 0.56501
 C52 C 0.39940 -0.03656 0.54372
 C53 C 0.43493 -0.03493 0.52740
 C54 C 0.56443 0.03231 0.52677
 C55 C 0.59965 0.03423 0.54276
 C56 C 0.60793 0.00521 0.56393
 C57 C 0.58074 -0.02559 0.56916
 C58 C 0.54555 -0.02756 0.55317
 C59 C 0.56528 -0.03499 0.47192
 C60 C 0.60081 -0.03667 0.45559
 C61 C 0.60900 -0.00757 0.43437
 C62 C 0.58141 0.02305 0.42940
 C63 C 0.54593 0.02479 0.44573
 C64 C 0.45459 -0.02765 0.44617
 C65 C 0.41937 -0.02571 0.43019
 C66 C 0.39189 0.00509 0.43552
 C67 C 0.39990 0.03415 0.45676
 C68 C 0.43515 0.03227 0.47274
 H69 H 0.47442 0.04894 0.55778
 H70 H 0.41204 0.04584 0.58655
 H71 H 0.37857 -0.06051 0.53974
 H72 H 0.44122 -0.05784 0.51116
 H73 H 0.55826 0.05515 0.51065
 H74 H 0.62038 0.05831 0.53866
 H75 H 0.52492 -0.05170 0.55736
 H76 H 0.55921 -0.05787 0.48810
 H77 H 0.62187 -0.06061 0.45950
 H78 H 0.58740 0.04565 0.41298
 H79 H 0.52501 0.04883 0.44177
 H80 H 0.47545 -0.05179 0.44191
 H81 H 0.41353 -0.04827 0.41374
 H82 H 0.37894 0.05824 0.46095
 H83 H 0.44111 0.05514 0.48892
 H84 H 0.58680 -0.04812 0.58555
 C85 C 0.08585 0.00413 0.25996
 H86 H 0.08763 0.00495 0.23623
 C87 C 0.12060 0.00577 0.27644
 H88 H 0.14931 0.00769 0.26541
 C89 C 0.04624 0.00108 0.30341
 H90 H 0.01722 -0.00014 0.31385
 C91 C 0.08028 0.00268 0.32072
 H92 H 0.07738 0.00225 0.34444
 N93 N 0.04965 0.00135 0.27358
 C94 C -0.02761 -0.05346 0.20868
 H95 H -0.05148 -0.03168 0.20806
 C96 C -0.02968 -0.08806 0.19162
 H97 H -0.05512 -0.09295 0.17768
 C98 C 0.03442 -0.07416 0.22801
 H99 H 0.05900 -0.06904 0.24259
 C100 C 0.03351 -0.10915 0.21132
 H101 H 0.05759 -0.13065 0.21287
 Zn102 Zn 0.00417 -0.00004 0.24943
 N103 N 0.00429 -0.04698 0.22619
 C104 C 0.00607 0.04317 0.19558
 N105 N 0.00588 0.04597 0.22541
 C106 C 0.00834 0.08196 0.23917
 C107 C 0.01008 0.11710 0.22281
 C108 C 0.00779 0.07762 0.17839
 C109 C -0.04984 -0.03272 0.28997
 C110 C -0.08466 -0.03513 0.30699
 C111 C -0.10549 0.02847 0.28738
 C112 C -0.07028 0.02971 0.27073
 N113 N -0.04312 -0.00045 0.27254
 H114 H 0.00509 0.01431 0.18503
 H115 H 0.00877 0.08326 0.26290
 H116 H 0.01172 0.14564 0.23395
 H117 H 0.00771 0.07520 0.15466
 H118 H -0.02807 -0.05660 0.29059
 H119 H -0.08974 -0.06085 0.32088
 H120 H -0.12695 0.05259 0.28585
 H121 H -0.06496 0.05459 0.25622
 C122 C 0.00120 -0.11611 0.19295
 C123 C 0.11776 0.00491 0.30709
 C124 C -0.11269 -0.00421 0.30569
 C125 C 0.00967 0.11489 0.19216
 C126 C -0.00915 0.08276 0.76053
 H127 H -0.00961 0.08407 0.73679
 C128 C -0.01113 0.11791 0.77701
 H129 H -0.01297 0.14645 0.76599
 C130 C -0.00657 0.04396 0.80397
 H131 H -0.00536 0.01511 0.81441
 C132 C -0.00851 0.07841 0.82129
 H133 H -0.00837 0.07599 0.84500
 N134 N -0.00640 0.04677 0.77414
 C135 C 0.05000 -0.03209 0.70936
 H136 H 0.02846 -0.05597 0.70870
 C137 C 0.08483 -0.03455 0.69232
 H138 H 0.09014 -0.06032 0.67838
 C139 C 0.06987 0.03040 0.72872
 H140 H 0.06433 0.05532 0.74329
 C141 C 0.10507 0.02910 0.71205
 H142 H 0.12631 0.05323 0.71363
 Zn143 Zn -0.00429 0.00070 0.75001
 N144 N 0.04299 0.00023 0.72686
 C145 C -0.04643 0.00164 0.69606
 N146 N -0.04981 0.00200 0.72589
 C147 C -0.08602 0.00481 0.73953
 C148 C -0.12080 0.00639 0.72307
 C149 C -0.08049 0.00317 0.67877
 C150 C 0.02813 -0.05253 0.79060
 C151 C 0.03054 -0.08697 0.80771
 C152 C -0.03257 -0.10814 0.78817
 C153 C -0.03382 -0.07330 0.77143
 N154 N -0.00390 -0.04615 0.77316
 H155 H -0.01740 0.00040 0.68560
 H156 H -0.08780 0.00570 0.76327
 H157 H -0.14952 0.00834 0.73412
 H158 H -0.07761 0.00267 0.65505
 H159 H 0.05182 -0.03078 0.79116
 H160 H 0.05606 -0.09176 0.82161
 H161 H -0.05651 -0.12960 0.78672
 H162 H -0.05851 -0.06826 0.75692
 C163 C 0.11256 -0.00363 0.69367
 C164 C -0.01065 0.11569 0.80766
 C165 C -0.00015 -0.11497 0.80650
 C166 C -0.11799 0.00543 0.69242
 C167 C -0.00396 -0.35677 0.08119
 C168 C -0.00418 -0.32621 0.09522
 C169 C -0.00392 -0.28988 0.11212
 C170 C -0.02516 -0.25634 0.10257
 C171 C -0.02448 -0.22095 0.11891
 C172 C -0.00255 -0.21898 0.14485
 C173 C 0.01861 -0.25254 0.15442
 C174 C 0.01793 -0.28791 0.13808
 C175 C -0.00154 -0.18256 0.16162
 C176 C -0.00042 -0.15219 0.17582
 H177 H -0.04212 -0.25753 0.08250
 H178 H -0.04094 -0.19516 0.11132
 H179 H 0.03567 -0.25134 0.17443
 H180 H 0.03449 -0.31365 0.14565
 C181 C 0.01060 0.35558 0.08126
 C182 C 0.01181 0.32487 0.09495
 C183 C 0.01276 0.28831 0.11143
 C184 C 0.00497 0.25188 0.09753
 C185 C 0.00498 0.21646 0.11372
 C186 C 0.01277 0.21735 0.14388
 C187 C 0.02077 0.25376 0.15774
 C188 C 0.02076 0.28916 0.14155
 C189 C 0.01197 0.18106 0.16069
 C190 C 0.01104 0.15081 0.17494
 H191 H -0.00133 0.25089 0.07427
 H192 H -0.00130 0.18848 0.10280
 H193 H 0.02677 0.25479 0.18105
 H194 H 0.02674 0.31718 0.15253
 C195 C 0.35425 -0.00871 0.58165
 C196 C 0.32360 -0.00927 0.59573
 C197 C 0.28715 -0.00936 0.61270
 C198 C 0.25214 -0.02458 0.60063
 C199 C 0.21660 -0.02396 0.61702
 C200 C 0.21594 -0.00812 0.64553
 C201 C 0.25098 0.00696 0.65762
 C202 C 0.28650 0.00635 0.64124
 C203 C 0.17934 -0.00692 0.66231
 C204 C 0.14882 -0.00558 0.67652
 H205 H 0.25230 -0.03673 0.57856
 H206 H 0.18966 -0.03567 0.60744
 H207 H 0.25080 0.01932 0.67963
 H208 H 0.31338 0.01825 0.65077
 C209 C -0.35575 0.00691 0.58031
 C210 C -0.32541 0.00791 0.59417
 C211 C -0.28932 0.00867 0.61088
 C212 C -0.25246 0.00168 0.59698
 C213 C -0.21749 0.00157 0.61337
 C214 C -0.21925 0.00844 0.64372
 C215 C -0.25610 0.01561 0.65760
 C216 C -0.29106 0.01572 0.64121
 C217 C -0.18340 0.00762 0.66070
 C218 C -0.15350 0.00672 0.67508
 H219 H -0.25079 -0.00388 0.57355
 H220 H -0.18916 -0.00405 0.60242
 H221 H -0.25780 0.02090 0.68106
 H222 H -0.31941 0.02107 0.65220
 C223 C 0.00529 -0.35394 0.91932
 C224 C 0.00579 -0.32356 0.90521
 C225 C 0.00589 -0.28744 0.88820
 C226 C 0.00047 -0.28920 0.85777
 C227 C -0.00021 -0.25409 0.84125
 C228 C 0.00450 -0.21707 0.85510
 C229 C 0.01009 -0.21531 0.88552
 C230 C 0.01078 -0.25043 0.90204
 C231 C 0.00315 -0.18095 0.83812
 C232 C 0.00176 -0.15081 0.82377
 H233 H -0.00340 -0.31765 0.84685
 H234 H -0.00460 -0.25579 0.81775
 H235 H 0.01373 -0.18683 0.89644
 H236 H 0.01492 -0.24874 0.92557
 C237 C -0.01149 0.35586 0.92001
 C238 C -0.01284 0.32523 0.90614
 C239 C -0.01392 0.28877 0.88943
 C240 C -0.00646 0.25215 0.90312
 C241 C -0.00650 0.21682 0.88670
 C242 C -0.01400 0.21799 0.85651
 C243 C -0.02169 0.25459 0.84285
 C244 C -0.02164 0.28991 0.85927
 C245 C -0.01316 0.18179 0.83946
 C246 C -0.01216 0.15159 0.82503
 H247 H -0.00036 0.25094 0.92641
 H248 H -0.00046 0.18869 0.89747
 H249 H -0.02745 0.25584 0.81952
 H250 H -0.02735 0.31807 0.84845
 C251 C -0.35431 -0.00892 0.41771
 C252 C -0.32367 -0.00954 0.40362
 C253 C -0.28722 -0.00969 0.38664
 C254 C -0.25204 -0.02473 0.39872
 C255 C -0.21651 -0.02417 0.38233
 C256 C -0.21604 -0.00857 0.35380
 C257 C -0.25126 0.00632 0.34170
 C258 C -0.28677 0.00576 0.35808
 C259 C -0.17945 -0.00741 0.33702
 C260 C -0.14894 -0.00611 0.32282
 H261 H -0.25204 -0.03669 0.42080
 H262 H -0.18943 -0.03573 0.39190
 H263 H -0.25123 0.01848 0.31968
 H264 H -0.31379 0.01752 0.34855
 C265 C 0.35554 0.00675 0.41916
 C266 C 0.32517 0.00773 0.40532
 C267 C 0.28907 0.00844 0.38863
 C268 C 0.25233 0.00107 0.40248
 C269 C 0.21735 0.00090 0.38610
 C270 C 0.21898 0.00810 0.35581
 C271 C 0.25570 0.01566 0.34199
 C272 C 0.29066 0.01583 0.35837
 C273 C 0.18314 0.00722 0.33883
 C274 C 0.15325 0.00626 0.32444
 H275 H 0.25076 -0.00475 0.42586
 H276 H 0.18912 -0.00502 0.39699
 H277 H 0.25730 0.02121 0.31858
 H278 H 0.31892 0.02148 0.34743
   
