data_POSCAR
  _audit_creation_date              2014-09-24
  _audit_creation_method            'ToBaCCo'
  _symmetry_space_group_name_H-M    'P1'
  _symmetry_Int_Tables_number       1
  _symmetry_cell_setting            triclinic
  loop_
  _symmetry_equiv_pos_as_xyz
 x,y,z
_cell_length_a 50.3398
_cell_length_b 51.6532
_cell_length_c 50.8303
_cell_angle_alpha 90.373200
_cell_angle_beta 89.583000
_cell_angle_gamma 89.588500
loop_
  _atom_site_label
  _atom_site_type_symbol
  _atom_site_fract_x
  _atom_site_fract_y
  _atom_site_fract_z
N1 N 0.27903 0.22268 0.21565
 N2 N 0.26778 0.24260 0.20407
 C3 C 0.28055 0.24720 0.18121
 C4 C 0.30081 0.22907 0.17840
 C5 C 0.29924 0.21384 0.20056
 H6 H 0.27514 0.26223 0.16751
 H7 H 0.31177 0.19744 0.20531
 Cu8 Cu 0.23731 0.26039 0.21994
 Cu9 Cu 0.26650 0.20978 0.24944
 Cu10 Cu 0.20000 0.22379 0.25963
 N11 N 0.20356 0.27313 0.23411
 N12 N 0.18924 0.25853 0.24977
 C13 C 0.16681 0.27119 0.25650
 C14 C 0.16699 0.29506 0.24455
 C15 C 0.19060 0.29576 0.23033
 H16 H 0.15134 0.26349 0.26904
 H17 H 0.19774 0.31134 0.21812
 N18 N 0.21863 0.19549 0.27757
 N19 N 0.24431 0.19090 0.27473
 C20 C 0.25137 0.17132 0.29064
 C21 C 0.22893 0.16335 0.30418
 C22 C 0.20859 0.17900 0.29536
 H23 H 0.27121 0.16330 0.29189
 H24 H 0.18805 0.17862 0.30173
 H25 H 0.23093 0.21548 0.23321
 H26 H 0.23775 0.23722 0.26180
 N27 N 0.72021 -0.22395 0.21646
 N28 N 0.72892 -0.24605 0.20657
 C29 C 0.71402 -0.25233 0.18553
 C30 C 0.69519 -0.23291 0.18215
 C31 C 0.69970 -0.21535 0.20210
 H32 H 0.71728 -0.26918 0.17317
 H33 H 0.68917 -0.19729 0.20551
 Cu34 Cu 0.75999 -0.26362 0.22102
 Cu35 Cu 0.73665 -0.20691 0.24624
 Cu36 Cu 0.79387 -0.23474 0.27012
 N37 N 0.79328 -0.27801 0.23429
 N38 N 0.80619 -0.26633 0.25332
 C39 C 0.82839 -0.27974 0.25870
 C40 C 0.82966 -0.30096 0.24224
 C41 C 0.80705 -0.29941 0.22684
 H42 H 0.84276 -0.27439 0.27346
 H43 H 0.80119 -0.31261 0.21137
 N44 N 0.77845 -0.20284 0.28486
 N45 N 0.75617 -0.19250 0.27621
 C46 C 0.75060 -0.17102 0.29044
 C47 C 0.77046 -0.16779 0.30880
 C48 C 0.78778 -0.18818 0.30466
 H49 H 0.73371 -0.15840 0.28731
 H50 H 0.80588 -0.19195 0.31536
 H51 H 0.77398 -0.22141 0.23721
 H52 H 0.75396 -0.23955 0.26217
 N53 N 0.72073 0.22420 0.79329
 N54 N 0.72749 0.24639 0.80403
 C55 C 0.71174 0.25105 0.82510
 C56 C 0.69426 0.23064 0.82761
 C57 C 0.70058 0.21394 0.80718
 H58 H 0.71327 0.26773 0.83794
 H59 H 0.69123 0.19563 0.80287
 Cu60 Cu 0.75683 0.26662 0.79019
 Cu61 Cu 0.73869 0.21022 0.76234
 Cu62 Cu 0.79215 0.24461 0.73783
 N63 N 0.78773 0.28488 0.77687
 N64 N 0.80121 0.27648 0.75623
 C65 C 0.82163 0.29256 0.75157
 C66 C 0.82098 0.31197 0.77053
 C67 C 0.79926 0.30647 0.78622
 H68 H 0.83618 0.28983 0.73605
 H69 H 0.79263 0.31727 0.80338
 N70 N 0.77983 0.21194 0.72197
 N71 N 0.75923 0.19911 0.73119
 C72 C 0.75562 0.17778 0.71636
 C73 C 0.77494 0.17710 0.69692
 C74 C 0.79002 0.19894 0.70108
 H75 H 0.74039 0.16354 0.71979
 H76 H 0.80713 0.20485 0.68969
 H77 H 0.77505 0.22724 0.77021
 H78 H 0.75233 0.24506 0.74759
 N79 N 0.27990 -0.23316 0.80027
 N80 N 0.26783 -0.25439 0.80777
 C81 C 0.28017 -0.26384 0.82914
 C82 C 0.30106 -0.24769 0.83525
 C83 C 0.30028 -0.22838 0.81654
 H84 H 0.27441 -0.28109 0.83964
 H85 H 0.31342 -0.21202 0.81485
 Cu86 Cu 0.23686 -0.26702 0.78897
 Cu87 Cu 0.26858 -0.21321 0.76991
 Cu88 Cu 0.21815 -0.23931 0.73237
 N89 N 0.20652 -0.27978 0.76928
 N90 N 0.19928 -0.26872 0.74720
 C91 C 0.17813 -0.28121 0.73742
 C92 C 0.17172 -0.30116 0.75424
 C93 C 0.19014 -0.29970 0.77435
 H94 H 0.16816 -0.27620 0.71935
 H95 H 0.19156 -0.31209 0.79134
 N96 N 0.23543 -0.20623 0.72382
 N97 N 0.25445 -0.19623 0.73837
 C98 C 0.26209 -0.17363 0.72782
 C99 C 0.24719 -0.16913 0.70564
 C100 C 0.23039 -0.19014 0.70364
 H101 H 0.27744 -0.16127 0.73559
 H102 H 0.21556 -0.19345 0.68875
 H103 H 0.22922 -0.22535 0.76853
 H104 H 0.25474 -0.24515 0.75039
 N105 N 0.71672 -0.23088 0.78364
 N106 N 0.72922 -0.24692 0.79935
 C107 C 0.71283 -0.25373 0.81909
 C108 C 0.68871 -0.24125 0.81558
 C109 C 0.69183 -0.22702 0.79284
 H110 H 0.71815 -0.26679 0.83476
 H111 H 0.67725 -0.21433 0.78405
 Cu112 Cu 0.76568 -0.25767 0.79290
 Cu113 Cu 0.73449 -0.21507 0.75359
 Cu114 Cu 0.79573 -0.24083 0.73618
 N115 N 0.79673 -0.27610 0.77958
 N116 N 0.80805 -0.26996 0.75711
 C117 C 0.82844 -0.28636 0.75230
 C118 C 0.82996 -0.30366 0.77300
 C119 C 0.80960 -0.29650 0.78997
 H120 H 0.84123 -0.28550 0.73516
 H121 H 0.80434 -0.30567 0.80835
 N122 N 0.77954 -0.21131 0.71772
 N123 N 0.75594 -0.20175 0.72406
 C124 C 0.75066 -0.18137 0.70849
 C125 C 0.77204 -0.17795 0.69162
 C126 C 0.78996 -0.19720 0.69804
 H127 H 0.73302 -0.16939 0.70998
 H128 H 0.80939 -0.20031 0.68932
 H129 H 0.75695 -0.24836 0.74710
 H130 H 0.77375 -0.22085 0.76445
 N131 N 0.27772 0.22250 0.78487
 N132 N 0.27194 0.24576 0.79400
 C133 C 0.28787 0.25111 0.81447
 C134 C 0.30449 0.23004 0.81831
 C135 C 0.29747 0.21224 0.79925
 H136 H 0.28687 0.26863 0.82617
 H137 H 0.30587 0.19308 0.79638
 Cu138 Cu 0.24297 0.26570 0.77903
 Cu139 Cu 0.25858 0.20691 0.75555
 Cu140 Cu 0.20513 0.24195 0.73080
 N141 N 0.21332 0.28561 0.76535
 N142 N 0.19793 0.27573 0.74710
 C143 C 0.17819 0.29265 0.74195
 C144 C 0.18154 0.31430 0.75774
 C145 C 0.20404 0.30925 0.77222
 H146 H 0.16276 0.28954 0.72761
 H147 H 0.21261 0.32171 0.78701
 N148 N 0.21602 0.20757 0.71696
 N149 N 0.23671 0.19459 0.72601
 C150 C 0.23988 0.17268 0.71180
 C151 C 0.22027 0.17181 0.69293
 C152 C 0.20540 0.19408 0.69686
 H153 H 0.25530 0.15840 0.71498
 H154 H 0.18844 0.20021 0.68548
 H155 H 0.24535 0.24075 0.73828
 H156 H 0.22303 0.22576 0.76322
 N157 N 0.28083 -0.23333 0.20894
 N158 N 0.27077 -0.25451 0.19873
 C159 C 0.28268 -0.25970 0.17557
 C160 C 0.30151 -0.24102 0.17105
 C161 C 0.29995 -0.22446 0.19264
 H162 H 0.27802 -0.27593 0.16291
 H163 H 0.31148 -0.20720 0.19608
 Cu164 Cu 0.24323 -0.27370 0.21639
 Cu165 Cu 0.26762 -0.21951 0.24258
 Cu166 Cu 0.20609 -0.24374 0.26225
 N167 N 0.20899 -0.28694 0.22650
 N168 N 0.19429 -0.27531 0.24455
 C169 C 0.17128 -0.28826 0.24719
 C170 C 0.17173 -0.30888 0.22960
 C171 C 0.19585 -0.30738 0.21676
 H172 H 0.15521 -0.28268 0.26032
 H173 H 0.20311 -0.31998 0.20118
 N174 N 0.22198 -0.21228 0.27770
 N175 N 0.24566 -0.20356 0.27088
 C176 C 0.25119 -0.18253 0.28566
 C177 C 0.22992 -0.17786 0.30248
 C178 C 0.21177 -0.19692 0.29680
 H179 H 0.26912 -0.17126 0.28399
 H180 H 0.19264 -0.19949 0.30619
 H181 H 0.24617 -0.25016 0.25847
 H182 H 0.23044 -0.23091 0.23190
 N183 N 0.71886 0.22253 0.20889
 N184 N 0.72614 0.24393 0.19708
 C185 C 0.70989 0.24833 0.17664
 C186 C 0.69150 0.22857 0.17561
 C187 C 0.69784 0.21250 0.19626
 H188 H 0.71171 0.26432 0.16315
 H189 H 0.68790 0.19478 0.20158
 Cu190 Cu 0.75676 0.26362 0.20860
 Cu191 Cu 0.73716 0.20934 0.23966
 Cu192 Cu 0.79334 0.24188 0.25948
 N193 N 0.78953 0.28033 0.21912
 N194 N 0.80351 0.27204 0.23915
 C195 C 0.82511 0.28701 0.24188
 C196 C 0.82466 0.30556 0.22239
 C197 C 0.80193 0.30071 0.20824
 H198 H 0.84031 0.28417 0.25651
 H199 H 0.79511 0.31115 0.19116
 N200 N 0.77996 0.21098 0.27768
 N201 N 0.75820 0.19885 0.27040
 C202 C 0.75352 0.17873 0.28646
 C203 C 0.77446 0.17682 0.30659
 C204 C 0.79075 0.19919 0.29865
 H205 H 0.73701 0.16562 0.28458
 H206 H 0.80875 0.20535 0.30825
 H207 H 0.75316 0.24407 0.25208
 H208 H 0.77377 0.22417 0.22867
 C209 C 0.23708 -0.02807 0.55644
 C210 C 0.23679 -0.00403 0.56941
 C211 C 0.23989 0.01920 0.55574
 C212 C 0.24280 0.01859 0.52803
 C213 C 0.24307 -0.00554 0.51448
 C214 C 0.24031 -0.02895 0.52872
 C215 C 0.24125 -0.05261 0.51486
 C216 C 0.24412 -0.05331 0.48761
 C217 C 0.24645 -0.03040 0.47304
 C218 C 0.24596 -0.00626 0.48660
 C219 C 0.24465 0.04153 0.51343
 C220 C 0.24705 0.04085 0.48616
 C221 C 0.24800 0.01720 0.47233
 C222 C 0.25013 0.01638 0.44455
 C223 C 0.25048 -0.00759 0.43155
 C224 C 0.24866 -0.03093 0.44525
 H225 H 0.23984 -0.07096 0.52487
 H226 H 0.24419 -0.07211 0.47812
 H227 H 0.24368 0.06035 0.52285
 H228 H 0.24777 0.05921 0.47610
 H229 H 0.23427 -0.00335 0.59060
 H230 H 0.25306 -0.00811 0.41035
 C231 C 0.75575 0.02459 0.56137
 C232 C 0.75660 0.00052 0.57386
 C233 C 0.75562 -0.02270 0.55950
 C234 C 0.75447 -0.02188 0.53168
 C235 C 0.75404 0.00239 0.51872
 C236 C 0.75454 0.02568 0.53362
 C237 C 0.75451 0.04949 0.52033
 C238 C 0.75384 0.05045 0.49301
 C239 C 0.75316 0.02765 0.47782
 C240 C 0.75326 0.00337 0.49077
 C241 C 0.75445 -0.04468 0.51641
 C242 C 0.75364 -0.04373 0.48908
 C243 C 0.75289 -0.01992 0.47583
 C244 C 0.75257 -0.01878 0.44802
 C245 C 0.75296 0.00533 0.43561
 C246 C 0.75316 0.02847 0.45002
 H247 H 0.75552 0.06772 0.53087
 H248 H 0.75432 0.06933 0.48393
 H249 H 0.75559 -0.06359 0.52536
 H250 H 0.75417 -0.06195 0.47848
 H251 H 0.75657 -0.00010 0.59518
 H252 H 0.75200 0.00616 0.41432
 C253 C 0.55098 0.24692 -0.02199
 C254 C 0.56375 0.24598 0.00236
 C255 C 0.54942 0.24605 0.02608
 C256 C 0.52131 0.24678 0.02554
 C257 C 0.50801 0.24743 0.00101
 C258 C 0.52289 0.24757 -0.02281
 C259 C 0.50927 0.24763 -0.04686
 C260 C 0.48166 0.24787 -0.04755
 C261 C 0.46647 0.24808 -0.02423
 C262 C 0.47976 0.24770 0.00030
 C263 C 0.50613 0.24615 0.04885
 C264 C 0.47850 0.24644 0.04815
 C265 C 0.46487 0.24736 0.02412
 C266 C 0.43676 0.24722 0.02325
 C267 C 0.42400 0.24727 -0.00113
 C268 C 0.43836 0.24790 -0.02482
 H269 H 0.51976 0.24700 -0.06549
 H270 H 0.47242 0.24739 -0.06669
 H271 H 0.51541 0.24496 0.06793
 H272 H 0.46798 0.24542 0.06674
 H273 H 0.58527 0.24642 0.00290
 H274 H 0.40248 0.24806 -0.00166
 C275 C 0.45109 0.77505 -0.02198
 C276 C 0.43733 0.77570 0.00207
 C277 C 0.45049 0.77374 0.02618
 C278 C 0.47846 0.77057 0.02627
 C279 C 0.49287 0.77084 0.00214
 C280 C 0.47921 0.77360 -0.02203
 C281 C 0.49406 0.77468 -0.04555
 C282 C 0.52169 0.77358 -0.04534
 C283 C 0.53562 0.76996 -0.02179
 C284 C 0.52106 0.76845 0.00221
 C285 C 0.49239 0.76687 0.04985
 C286 C 0.51989 0.76414 0.04988
 C287 C 0.53466 0.76499 0.02635
 C288 C 0.56273 0.76323 0.02638
 C289 C 0.57672 0.76544 0.00265
 C290 C 0.56373 0.76853 -0.02132
 H291 H 0.48459 0.77675 -0.06444
 H292 H 0.53194 0.77568 -0.06394
 H293 H 0.48222 0.76580 0.06861
 H294 H 0.52942 0.76178 0.06872
 H295 H 0.41603 0.77882 0.00193
 H296 H 0.59824 0.76399 0.00268
 C297 C 0.02535 0.44446 0.22518
 C298 C 0.00154 0.43051 0.22527
 C299 C -0.02322 0.44296 0.22625
 C300 C -0.02450 0.47030 0.22586
 C301 C -0.00068 0.48480 0.22556
 C302 C 0.02433 0.47188 0.22559
 C303 C 0.04760 0.48674 0.22661
 C304 C 0.04639 0.51365 0.22729
 C305 C 0.02188 0.52685 0.22680
 C306 C -0.00189 0.51232 0.22552
 C307 C -0.04900 0.48349 0.22532
 C308 C -0.05018 0.51037 0.22454
 C309 C -0.02689 0.52523 0.22443
 C310 C -0.02792 0.55262 0.22381
 C311 C -0.00417 0.56657 0.22500
 C312 C 0.02054 0.55420 0.22711
 H313 H 0.06706 0.47778 0.22720
 H314 H 0.06500 0.52398 0.22780
 H315 H -0.06763 0.47318 0.22509
 H316 H -0.06966 0.51931 0.22438
 H317 H 0.00224 0.40954 0.22500
 H318 H -0.00486 0.58752 0.22459
 C319 C 0.02310 0.44395 0.77344
 C320 C -0.00143 0.43177 0.77075
 C321 C -0.02469 0.44576 0.76571
 C322 C -0.02362 0.47305 0.76389
 C323 C 0.00100 0.48589 0.76735
 C324 C 0.02449 0.47131 0.77213
 C325 C 0.04844 0.48452 0.77619
 C326 C 0.04955 0.51141 0.77475
 C327 C 0.02658 0.52631 0.77008
 C328 C 0.00203 0.51340 0.76636
 C329 C -0.04667 0.48789 0.75961
 C330 C -0.04566 0.51475 0.75867
 C331 C -0.02155 0.52792 0.76191
 C332 C -0.02056 0.55527 0.76168
 C333 C 0.00379 0.56765 0.76513
 C334 C 0.02744 0.55371 0.76886
 H335 H 0.06658 0.47425 0.78082
 H336 H 0.06870 0.52032 0.77755
 H337 H -0.06589 0.47894 0.75741
 H338 H -0.06418 0.52506 0.75576
 H339 H -0.00222 0.41080 0.77156
 H340 H 0.00426 0.58863 0.76493
 C341 C 0.31975 0.22558 0.15647
 C342 C 0.32397 0.24465 0.13767
 C343 C 0.34322 0.24132 0.11579
 C344 C 0.35638 0.26310 0.10598
 C345 C 0.37459 0.26060 0.08521
 C346 C 0.37957 0.23628 0.07355
 C347 C 0.36591 0.21459 0.08292
 C348 C 0.34805 0.21701 0.10402
 C349 C 0.39779 0.23334 0.05080
 C350 C 0.42016 0.24879 0.04741
 H351 H 0.31417 0.26327 0.13998
 H352 H 0.35266 0.28206 0.11451
 H353 H 0.38422 0.27781 0.07789
 H354 H 0.36914 0.19574 0.07395
 H355 H 0.33763 0.19997 0.11067
 H356 H 0.39400 0.21802 0.03667
 H357 H 0.33152 0.20795 0.15589
 H358 H 0.42577 0.26218 0.06282
 C359 C 0.67641 0.77017 0.16239
 C360 C 0.67177 0.75181 0.14275
 C361 C 0.65321 0.75712 0.12101
 C362 C 0.63823 0.73692 0.11027
 C363 C 0.62067 0.74165 0.08960
 C364 C 0.61821 0.76666 0.07905
 C365 C 0.63365 0.78670 0.08943
 C366 C 0.65087 0.78205 0.11030
 C367 C 0.60104 0.77216 0.05628
 C368 C 0.57805 0.75833 0.05067
 H369 H 0.68100 0.73284 0.14377
 H370 H 0.64001 0.71749 0.11800
 H371 H 0.60961 0.72562 0.08150
 H372 H 0.63241 0.80602 0.08134
 H373 H 0.66277 0.79788 0.11764
 H374 H 0.60621 0.78837 0.04384
 H375 H 0.66478 0.78791 0.16255
 H376 H 0.57098 0.74393 0.06436
 C377 C 0.67383 0.22649 -0.15205
 C378 C 0.66578 0.24607 -0.13469
 C379 C 0.64571 0.24218 -0.11374
 C380 C 0.63100 0.26357 -0.10451
 C381 C 0.61240 0.26080 -0.08421
 C382 C 0.60840 0.23653 -0.07252
 C383 C 0.62340 0.21520 -0.08146
 C384 C 0.64178 0.21791 -0.10198
 C385 C 0.59002 0.23332 -0.05000
 C386 C 0.56756 0.24888 -0.04608
 H387 H 0.67358 0.26538 -0.13724
 H388 H 0.63397 0.28253 -0.11300
 H389 H 0.60178 0.27782 -0.07724
 H390 H 0.62093 0.19640 -0.07246
 H391 H 0.65336 0.20116 -0.10806
 H392 H 0.59390 0.21774 -0.03633
 H393 H 0.66438 0.20775 -0.15140
 H394 H 0.56184 0.26264 -0.06101
 C395 C 0.31948 0.74935 -0.14254
 C396 C 0.34090 0.76597 -0.13864
 C397 C 0.35925 0.76422 -0.11601
 C398 C 0.38398 0.77653 -0.11763
 C399 C 0.40161 0.77595 -0.09648
 C400 C 0.39469 0.76321 -0.07304
 C401 C 0.36996 0.75088 -0.07149
 C402 C 0.35237 0.75144 -0.09261
 C403 C 0.41232 0.76213 -0.04980
 C404 C 0.43545 0.77664 -0.04660
 H405 H 0.34494 0.78068 -0.15316
 H406 H 0.38976 0.78656 -0.13540
 H407 H 0.42054 0.78539 -0.09883
 H408 H 0.36404 0.74099 -0.05367
 H409 H 0.33327 0.74232 -0.09020
 H410 H 0.40649 0.74938 -0.03395
 H411 H 0.31610 0.73337 -0.12934
 H412 H 0.44216 0.78946 -0.06189
 C413 C 0.14553 0.31439 0.24688
 C414 C 0.14458 0.33730 0.23252
 C415 C 0.12143 0.35522 0.23392
 C416 C 0.12459 0.38133 0.22708
 C417 C 0.10302 0.39862 0.22844
 C418 C 0.07784 0.38995 0.23655
 C419 C 0.07468 0.36386 0.24312
 C420 C 0.09606 0.34662 0.24153
 C421 C 0.05440 0.40725 0.23886
 C422 C 0.05089 0.42984 0.22433
 H423 H 0.16138 0.34250 0.22031
 H424 H 0.14387 0.38845 0.22104
 H425 H 0.10627 0.41872 0.22367
 H426 H 0.05543 0.35666 0.24918
 H427 H 0.09237 0.32651 0.24592
 H428 H 0.03837 0.40103 0.25162
 H429 H 0.12970 0.30995 0.26056
 H430 H 0.06658 0.43650 0.21147
 C431 C 0.15089 0.68144 0.75081
 C432 C 0.14544 0.66132 0.76830
 C433 C 0.12300 0.64314 0.76494
 C434 C 0.12368 0.61925 0.77796
 C435 C 0.10282 0.60164 0.77540
 C436 C 0.08065 0.60775 0.75987
 C437 C 0.07991 0.63172 0.74703
 C438 C 0.10069 0.64930 0.74964
 C439 C 0.05786 0.59004 0.75635
 C440 C 0.05247 0.56851 0.77203
 H441 H 0.15856 0.65808 0.78475
 H442 H 0.14056 0.61408 0.78999
 H443 H 0.10443 0.58331 0.78539
 H444 H 0.06298 0.63705 0.73515
 H445 H 0.09882 0.66781 0.74000
 H446 H 0.04389 0.59480 0.74097
 H447 H 0.13892 0.68371 0.73338
 H448 H 0.06604 0.56283 0.78732
 C449 C -0.14963 0.68104 0.24208
 C450 C -0.14797 0.65948 0.22543
 C451 C -0.12461 0.64188 0.22617
 C452 C -0.12753 0.61543 0.22042
 C453 C -0.10587 0.59837 0.22268
 C454 C -0.08093 0.60766 0.23057
 C455 C -0.07794 0.63417 0.23555
 C456 C -0.09938 0.65114 0.23306
 C457 C -0.05768 0.59058 0.23464
 C458 C -0.05338 0.56718 0.22135
 H459 H -0.16444 0.65466 0.21276
 H460 H -0.14673 0.60786 0.21493
 H461 H -0.10894 0.57796 0.21904
 H462 H -0.05885 0.64183 0.24133
 H463 H -0.09604 0.67154 0.23654
 H464 H -0.04246 0.59757 0.24781
 H465 H -0.13400 0.68417 0.25624
 H466 H -0.06836 0.55989 0.20814
 C467 C -0.16130 0.33227 0.77446
 C468 C -0.14024 0.33744 0.75729
 C469 C -0.12016 0.35747 0.76283
 C470 C -0.10701 0.36939 0.74176
 C471 C -0.08703 0.38749 0.74639
 C472 C -0.07955 0.39367 0.77227
 C473 C -0.09251 0.38157 0.79332
 C474 C -0.11276 0.36377 0.78870
 C475 C -0.05701 0.41101 0.77779
 C476 C -0.04946 0.43109 0.76119
 H477 H -0.13867 0.32705 0.73877
 H478 H -0.11209 0.36453 0.72166
 H479 H -0.07687 0.39590 0.72971
 H480 H -0.08679 0.38574 0.81340
 H481 H -0.12191 0.35436 0.80538
 H482 H -0.04607 0.40807 0.79583
 H483 H -0.16435 0.34455 0.79158
 H484 H -0.06179 0.43616 0.74462
 C485 C 0.22617 0.14249 0.32353
 C486 C 0.24790 0.12908 0.33367
 C487 C 0.24499 0.10748 0.35242
 C488 C 0.26605 0.10151 0.36932
 C489 C 0.26406 0.08094 0.38696
 C490 C 0.24095 0.06580 0.38784
 C491 C 0.22012 0.07148 0.37059
 C492 C 0.22204 0.09211 0.35310
 C493 C 0.23837 0.04322 0.40537
 C494 C 0.25274 0.04012 0.42852
 H495 H 0.26779 0.13519 0.32849
 H496 H 0.28410 0.11281 0.36886
 H497 H 0.28088 0.07662 0.39935
 H498 H 0.20231 0.05983 0.37058
 H499 H 0.20577 0.09551 0.33974
 H500 H 0.22373 0.02874 0.40034
 H501 H 0.20631 0.13818 0.33041
 H502 H 0.26553 0.05544 0.43536
 C503 C 0.77932 0.15703 0.67662
 C504 C 0.75988 0.13877 0.67091
 C505 C 0.76352 0.11756 0.65157
 C506 C 0.74094 0.10686 0.63987
 C507 C 0.74332 0.08605 0.62235
 C508 C 0.76839 0.07529 0.61643
 C509 C 0.79098 0.08570 0.62842
 C510 C 0.78864 0.10680 0.64571
 C511 C 0.77118 0.05255 0.59883
 C512 C 0.75403 0.04824 0.57788
 H513 H 0.74057 0.14064 0.68027
 H514 H 0.72136 0.11457 0.64441
 H515 H 0.72543 0.07799 0.61405
 H516 H 0.81046 0.07747 0.62439
 H517 H 0.80638 0.11413 0.65498
 H518 H 0.78769 0.03934 0.60179
 H519 H 0.79780 0.15717 0.66561
 H520 H 0.73932 0.06278 0.57299
 C521 C 0.24959 -0.14641 0.68847
 C522 C 0.23461 -0.14316 0.66571
 C523 C 0.23738 -0.12045 0.64821
 C524 C 0.22903 -0.12245 0.62199
 C525 C 0.23156 -0.10150 0.60484
 C526 C 0.24227 -0.07794 0.61373
 C527 C 0.25042 -0.07593 0.63999
 C528 C 0.24785 -0.09681 0.65711
 C529 C 0.24582 -0.05518 0.59646
 C530 C 0.23331 -0.05188 0.57225
 H531 H 0.22117 -0.15835 0.65978
 H532 H 0.22087 -0.14043 0.61464
 H533 H 0.22552 -0.10414 0.58465
 H534 H 0.25864 -0.05800 0.64740
 H535 H 0.25376 -0.09409 0.67734
 H536 H 0.25867 -0.03992 0.60348
 H537 H 0.26434 -0.13225 0.69382
 H538 H 0.22027 -0.06663 0.56471
 C539 C 0.77376 -0.14685 0.32815
 C540 C 0.75335 -0.12954 0.33453
 C541 C 0.75684 -0.10830 0.35373
 C542 C 0.73491 -0.09964 0.36858
 C543 C 0.73762 -0.07950 0.38682
 C544 C 0.76232 -0.06743 0.39022
 C545 C 0.78408 -0.07564 0.37487
 C546 C 0.78146 -0.09602 0.35690
 C547 C 0.76560 -0.04540 0.40851
 C548 C 0.75041 -0.04229 0.43137
 H549 H 0.73378 -0.13248 0.32637
 H550 H 0.71567 -0.10857 0.36613
 H551 H 0.72025 -0.07303 0.39774
 H552 H 0.80317 -0.06630 0.37684
 H553 H 0.79856 -0.10171 0.34515
 H554 H 0.78112 -0.03155 0.40432
 H555 H 0.79256 -0.14572 0.33828
 H556 H 0.73685 -0.05736 0.43731
 C557 C 0.66499 0.75816 -0.16728
 C558 C 0.66623 0.74886 -0.14163
 C559 C 0.64367 0.75025 -0.12292
 C560 C 0.64910 0.75316 -0.09607
 C561 C 0.62845 0.75471 -0.07767
 C562 C 0.60189 0.75296 -0.08574
 C563 C 0.59639 0.74916 -0.11250
 C564 C 0.61711 0.74810 -0.13105
 C565 C 0.58003 0.75416 -0.06622
 C566 C 0.58103 0.77107 -0.04476
 H567 H 0.68520 0.74247 -0.13404
 H568 H 0.66942 0.75447 -0.08931
 H569 H 0.63333 0.75680 -0.05706
 H570 H 0.57606 0.74732 -0.11905
 H571 H 0.61238 0.74513 -0.15158
 H572 H 0.56339 0.74118 -0.06845
 H573 H 0.64680 0.76688 -0.17438
 H574 H 0.59786 0.78391 -0.04304
 C575 C 0.32430 0.22613 -0.16089
 C576 C 0.33227 0.24621 -0.14432
 C577 C 0.35085 0.24253 -0.12221
 C578 C 0.36511 0.26389 -0.11286
 C579 C 0.38203 0.26143 -0.09133
 C580 C 0.38479 0.23752 -0.07853
 C581 C 0.37028 0.21623 -0.08765
 C582 C 0.35356 0.21863 -0.10936
 C583 C 0.40132 0.23463 -0.05479
 C584 C 0.42342 0.24997 -0.04974
 H585 H 0.32520 0.26568 -0.14806
 H586 H 0.36302 0.28260 -0.12216
 H587 H 0.39226 0.27845 -0.08433
 H588 H 0.37179 0.19772 -0.07786
 H589 H 0.34226 0.20194 -0.11548
 H590 H 0.39644 0.21932 -0.04113
 H591 H 0.33305 0.20705 -0.15903
 H592 H 0.43022 0.26350 -0.06444
 C593 C 0.31860 0.75996 0.14752
 C594 C 0.34049 0.77615 0.14504
 C595 C 0.35791 0.77505 0.12143
 C596 C 0.38511 0.78014 0.12386
 C597 C 0.40217 0.77769 0.10207
 C598 C 0.39215 0.77043 0.07731
 C599 C 0.36483 0.76599 0.07485
 C600 C 0.34785 0.76843 0.09656
 C601 C 0.40929 0.76660 0.05375
 C602 C 0.43483 0.77669 0.05097
 H603 H 0.34620 0.78824 0.16150
 H604 H 0.39331 0.78528 0.14282
 H605 H 0.42314 0.78084 0.10499
 H606 H 0.35654 0.76061 0.05599
 H607 H 0.32685 0.76520 0.09375
 H608 H 0.40105 0.75571 0.03750
 H609 H 0.31446 0.74605 0.13210
 H610 H 0.44339 0.78777 0.06683
 C611 C 0.67032 0.22443 0.15625
 C612 C 0.66203 0.24391 0.13924
 C613 C 0.64164 0.23996 0.11883
 C614 C 0.62697 0.26137 0.11004
 C615 C 0.60842 0.25862 0.08991
 C616 C 0.60446 0.23437 0.07791
 C617 C 0.61927 0.21298 0.08654
 C618 C 0.63758 0.21567 0.10693
 C619 C 0.58668 0.23132 0.05511
 C620 C 0.56449 0.24709 0.05100
 H621 H 0.67008 0.26317 0.14155
 H622 H 0.63004 0.28035 0.11864
 H623 H 0.59794 0.27566 0.08319
 H624 H 0.61684 0.19419 0.07731
 H625 H 0.64910 0.19890 0.11269
 H626 H 0.59108 0.21598 0.04105
 H627 H 0.66057 0.20582 0.15603
 H628 H 0.55810 0.26058 0.06619
 C629 C -0.15206 0.67604 0.77683
 C630 C -0.13304 0.66867 0.75802
 C631 C -0.11307 0.64810 0.76265
 C632 C -0.10254 0.63430 0.74106
 C633 C -0.08269 0.61560 0.74460
 C634 C -0.07274 0.61061 0.76985
 C635 C -0.08314 0.62453 0.79141
 C636 C -0.10322 0.64299 0.78792
 C637 C -0.05038 0.59244 0.77412
 C638 C -0.04448 0.57157 0.75748
 H639 H -0.13326 0.67752 0.73878
 H640 H -0.10959 0.63814 0.72137
 H641 H -0.07462 0.60575 0.72744
 H642 H -0.07553 0.62127 0.81100
 H643 H -0.11034 0.65378 0.80490
 H644 H -0.03832 0.59522 0.79149
 H645 H -0.15345 0.66538 0.79505
 H646 H -0.05775 0.56669 0.74158
 C647 C -0.15545 0.32552 0.21665
 C648 C -0.13591 0.33224 0.23469
 C649 C -0.11512 0.35151 0.22903
 C650 C -0.10400 0.36539 0.24998
 C651 C -0.08369 0.38314 0.24544
 C652 C -0.07385 0.38702 0.21983
 C653 C -0.08463 0.37281 0.19893
 C654 C -0.10525 0.35535 0.20341
 C655 C -0.05142 0.40460 0.21473
 C656 C -0.04728 0.42696 0.22959
 H657 H -0.13649 0.32392 0.25418
 H658 H -0.11102 0.36245 0.26993
 H659 H -0.07523 0.39323 0.26208
 H660 H -0.07705 0.37523 0.17910
 H661 H -0.11288 0.34440 0.18693
 H662 H -0.03818 0.40025 0.19836
 H663 H -0.15681 0.33562 0.19811
 H664 H -0.06202 0.43299 0.24403
 C665 C 0.16496 0.33784 0.75943
 C666 C 0.13876 0.33821 0.75078
 C667 C 0.12123 0.36111 0.75382
 C668 C 0.09399 0.35734 0.75800
 C669 C 0.07676 0.37850 0.76076
 C670 C 0.08641 0.40389 0.75888
 C671 C 0.11355 0.40772 0.75403
 C672 C 0.13093 0.38651 0.75182
 C673 C 0.06804 0.42630 0.76027
 C674 C 0.04625 0.42665 0.77736
 H675 H 0.13006 0.32043 0.74359
 H676 H 0.08603 0.33795 0.75924
 H677 H 0.05577 0.37494 0.76364
 H678 H 0.12130 0.42713 0.75206
 H679 H 0.15177 0.38997 0.74793
 H680 H 0.07105 0.44212 0.74671
 H681 H 0.17300 0.35464 0.76932
 H682 H 0.04371 0.41063 0.79078
 C683 C 0.15092 0.67218 0.22389
 C684 C 0.12966 0.66772 0.24088
 C685 C 0.10909 0.64845 0.23463
 C686 C 0.09742 0.63420 0.25499
 C687 C 0.07813 0.61565 0.24942
 C688 C 0.06984 0.61145 0.22339
 C689 C 0.08099 0.62621 0.20314
 C690 C 0.10061 0.64440 0.20864
 C691 C 0.04850 0.59304 0.21708
 C692 C 0.04432 0.57042 0.23129
 H693 H 0.12903 0.67725 0.25992
 H694 H 0.10344 0.63728 0.27519
 H695 H 0.06927 0.60509 0.26555
 H696 H 0.07455 0.62358 0.18301
 H697 H 0.10875 0.65563 0.19262
 H698 H 0.03597 0.59712 0.20034
 H699 H 0.15315 0.66055 0.20619
 H700 H 0.05852 0.56464 0.24607
 C701 C 0.77628 -0.15733 0.67217
 C702 C 0.75604 -0.14036 0.66475
 C703 C 0.76017 -0.11867 0.64629
 C704 C 0.73841 -0.10912 0.63216
 C705 C 0.74130 -0.08803 0.61531
 C706 C 0.76604 -0.07584 0.61251
 C707 C 0.78773 -0.08517 0.62690
 C708 C 0.78492 -0.10646 0.64353
 C709 C 0.76937 -0.05253 0.59606
 C710 C 0.75368 -0.04737 0.57416
 H711 H 0.73607 -0.14355 0.67203
 H712 H 0.71906 -0.11794 0.63427
 H713 H 0.72395 -0.08088 0.60515
 H714 H 0.80690 -0.07586 0.62536
 H715 H 0.80194 -0.11279 0.65472
 H716 H 0.78519 -0.03925 0.60093
 H717 H 0.79578 -0.15591 0.66321
 H718 H 0.73971 -0.06175 0.56744
 C719 C 0.22637 -0.15706 0.32217
 C720 C 0.24748 -0.14235 0.33150
 C721 C 0.24387 -0.12152 0.35138
 C722 C 0.26481 -0.11560 0.36842
 C723 C 0.26216 -0.09563 0.38702
 C724 C 0.23856 -0.08094 0.38863
 C725 C 0.21778 -0.08664 0.37133
 C726 C 0.22031 -0.10679 0.35298
 C727 C 0.23567 -0.05844 0.40663
 C728 C 0.25003 -0.05544 0.42985
 H729 H 0.26750 -0.14718 0.32515
 H730 H 0.28328 -0.12645 0.36731
 H731 H 0.27889 -0.09128 0.39949
 H732 H 0.19959 -0.07532 0.37188
 H733 H 0.20407 -0.11030 0.33961
 H734 H 0.22129 -0.04361 0.40154
 H735 H 0.20669 -0.15423 0.33046
 H736 H 0.26241 -0.07111 0.43685
 C737 C 0.77875 0.15547 0.33066
 C738 C 0.75773 0.14055 0.33953
 C739 C 0.76113 0.12043 0.35978
 C740 C 0.73857 0.11024 0.37220
 C741 C 0.74107 0.09045 0.39064
 C742 C 0.76621 0.08022 0.39671
 C743 C 0.78878 0.09036 0.38427
 C744 C 0.78634 0.11049 0.36618
 C745 C 0.76914 0.05774 0.41426
 C746 C 0.75198 0.05309 0.43533
 H747 H 0.73810 0.14398 0.33158
 H748 H 0.71894 0.11746 0.36742
 H749 H 0.72325 0.08255 0.39939
 H750 H 0.80831 0.08258 0.38847
 H751 H 0.80410 0.11780 0.35675
 H752 H 0.78550 0.04440 0.41063
 H753 H 0.77655 0.16645 0.31830
 H754 H 0.73740 0.06759 0.44112
 C755 C 0.21591 0.15179 0.67265
 C756 C 0.23539 0.13344 0.66614
 C757 C 0.23177 0.11292 0.64605
 C758 C 0.25430 0.10230 0.63352
 C759 C 0.25184 0.08213 0.61525
 C760 C 0.22674 0.07193 0.60940
 C761 C 0.20421 0.08237 0.62210
 C762 C 0.20663 0.10280 0.64013
 C763 C 0.22374 0.04933 0.59165
 C764 C 0.24145 0.04366 0.57112
 H765 H 0.25470 0.13482 0.67528
 H766 H 0.27391 0.10952 0.63803
 H767 H 0.26971 0.07403 0.60644
 H768 H 0.18471 0.07457 0.61819
 H769 H 0.18892 0.11003 0.64996
 H770 H 0.20675 0.03688 0.59458
 H771 H 0.19745 0.15236 0.66188
 H772 H 0.25678 0.05738 0.56608
   
