data_POSCAR
  _audit_creation_date              2014-09-24
  _audit_creation_method            'ToBaCCo'
  _symmetry_space_group_name_H-M    'P1'
  _symmetry_Int_Tables_number       1
  _symmetry_cell_setting            triclinic
  loop_
  _symmetry_equiv_pos_as_xyz
 x,y,z
_cell_length_a 40.4802
_cell_length_b 38.0937
_cell_length_c 38.6706
_cell_angle_alpha 84.973900
_cell_angle_beta 93.917100
_cell_angle_gamma 94.041600
loop_
  _atom_site_label
  _atom_site_type_symbol
  _atom_site_fract_x
  _atom_site_fract_y
  _atom_site_fract_z
C1 C 0.29556 0.30535 0.23947
 H2 H 0.29816 0.30538 0.26750
 C3 C 0.31739 0.32666 0.21895
 H4 H 0.33681 0.34330 0.23114
 C5 C 0.26772 0.28287 0.18927
 H6 H 0.24887 0.26523 0.17780
 C7 C 0.28902 0.30375 0.16782
 H8 H 0.28624 0.30238 0.13989
 N9 N 0.27119 0.28419 0.22442
 C10 C 0.19659 0.26344 0.30138
 H11 H 0.19447 0.23488 0.30329
 C12 C 0.17688 0.28186 0.32089
 H13 H 0.15959 0.26748 0.33799
 C14 C 0.22141 0.31720 0.27646
 H15 H 0.23842 0.33090 0.25876
 C16 C 0.20216 0.33662 0.29549
 H17 H 0.20464 0.36522 0.29263
 Zn18 Zn 0.24404 0.25436 0.25416
 N19 N 0.21859 0.28126 0.28003
 C20 C 0.27285 0.22626 0.31933
 N21 N 0.27276 0.22658 0.28408
 C22 C 0.29426 0.20783 0.26875
 C23 C 0.31646 0.18699 0.28902
 C24 C 0.29469 0.20573 0.34059
 C25 C 0.19092 0.24078 0.20567
 C26 C 0.16887 0.22047 0.18492
 C27 C 0.19403 0.16805 0.21108
 C28 C 0.21563 0.18932 0.23131
 N29 N 0.21412 0.22505 0.22780
 H30 H 0.25616 0.24197 0.33104
 H31 H 0.29402 0.20903 0.24067
 H32 H 0.33332 0.17196 0.27658
 H33 H 0.29453 0.20542 0.36862
 H34 H 0.18995 0.26920 0.20379
 H35 H 0.15090 0.23324 0.16688
 H36 H 0.19574 0.13968 0.21362
 H37 H 0.23362 0.17719 0.24963
 C38 C 0.17979 0.31878 0.31797
 C39 C 0.31409 0.32579 0.18280
 C40 C 0.17066 0.18380 0.18747
 C41 C 0.31659 0.18585 0.32526
 C42 C 0.79626 0.80655 0.23876
 H43 H 0.79887 0.80668 0.26678
 C44 C 0.81800 0.82791 0.21817
 H45 H 0.83734 0.84465 0.23038
 C46 C 0.76848 0.78380 0.18867
 H47 H 0.74969 0.76604 0.17728
 C48 C 0.78968 0.80471 0.16712
 H49 H 0.78682 0.80317 0.13921
 N50 N 0.77197 0.78525 0.22380
 C51 C 0.69740 0.76429 0.30080
 H52 H 0.69537 0.73572 0.30269
 C53 C 0.67762 0.78262 0.32030
 H54 H 0.66036 0.76817 0.33741
 C55 C 0.72208 0.81812 0.27589
 H56 H 0.73905 0.83189 0.25821
 C57 C 0.70275 0.83747 0.29493
 H58 H 0.70515 0.86606 0.29208
 Zn59 Zn 0.74493 0.75536 0.25362
 N60 N 0.71936 0.78218 0.27946
 C61 C 0.77375 0.72738 0.31883
 N62 N 0.77374 0.72773 0.28359
 C63 C 0.79531 0.70903 0.26830
 C64 C 0.81747 0.68818 0.28861
 C65 C 0.79554 0.70684 0.34014
 C66 C 0.69183 0.74145 0.20518
 C67 C 0.66986 0.72100 0.18449
 C68 C 0.69524 0.66876 0.21077
 C69 C 0.71675 0.69016 0.23094
 N70 N 0.71511 0.72588 0.22734
 H71 H 0.75700 0.74305 0.33051
 H72 H 0.79512 0.71024 0.24023
 H73 H 0.83436 0.67315 0.27621
 H74 H 0.79530 0.70649 0.36816
 H75 H 0.69074 0.76986 0.20323
 H76 H 0.65183 0.73364 0.16643
 H77 H 0.69706 0.64040 0.21338
 H78 H 0.73479 0.67816 0.24928
 C79 C 0.68043 0.81954 0.31741
 C80 C 0.81470 0.82692 0.18200
 C81 C 0.67180 0.68435 0.18713
 C82 C 0.81749 0.68697 0.32485
 C83 C 0.79691 0.30445 0.74072
 H84 H 0.79959 0.30445 0.76875
 C85 C 0.81861 0.32587 0.72014
 H86 H 0.83802 0.34256 0.73229
 C87 C 0.76899 0.28196 0.69057
 H88 H 0.75014 0.26428 0.67913
 C89 C 0.79016 0.30295 0.66906
 H90 H 0.78730 0.30162 0.64114
 N91 N 0.77255 0.28325 0.72571
 C92 C 0.69805 0.26240 0.80279
 H93 H 0.69597 0.23383 0.80474
 C94 C 0.67827 0.28081 0.82223
 H95 H 0.66097 0.26643 0.83933
 C96 C 0.72279 0.31616 0.77779
 H97 H 0.73976 0.32986 0.76007
 C98 C 0.70347 0.33558 0.79675
 H99 H 0.70587 0.36417 0.79382
 Zn100 Zn 0.74547 0.25335 0.75549
 N101 N 0.72003 0.28022 0.78142
 C102 C 0.77433 0.22507 0.82058
 N103 N 0.77424 0.22554 0.78532
 C104 C 0.79573 0.20687 0.76989
 C105 C 0.81792 0.18592 0.79005
 C106 C 0.79614 0.20445 0.84178
 C107 C 0.69228 0.23982 0.70708
 C108 C 0.67024 0.21955 0.68628
 C109 C 0.69550 0.16711 0.71226
 C110 C 0.71708 0.18834 0.73253
 N111 N 0.71553 0.22407 0.72913
 H112 H 0.75764 0.24072 0.83235
 H113 H 0.79546 0.20819 0.74181
 H114 H 0.83471 0.17098 0.77736
 H115 H 0.79586 0.20411 0.86982
 H116 H 0.69127 0.26823 0.70528
 H117 H 0.65225 0.23234 0.66829
 H118 H 0.69726 0.13874 0.71470
 H119 H 0.73511 0.17620 0.75079
 C120 C 0.68109 0.31773 0.81923
 C121 C 0.81521 0.32505 0.68399
 C122 C 0.67210 0.18289 0.68871
 C123 C 0.81806 0.18457 0.82635
 C124 C 0.29585 0.80584 0.73997
 H125 H 0.29847 0.80591 0.76800
 C126 C 0.31764 0.82716 0.71941
 H127 H 0.33705 0.84384 0.73156
 C128 C 0.26802 0.78325 0.68983
 H129 H 0.24919 0.76556 0.67839
 C130 C 0.28928 0.80414 0.66833
 H131 H 0.28649 0.80272 0.64041
 N132 N 0.27150 0.78462 0.72496
 C133 C 0.19699 0.76367 0.80203
 H134 H 0.19495 0.73511 0.80394
 C135 C 0.17720 0.78203 0.82150
 H136 H 0.15992 0.76760 0.83860
 C137 C 0.22167 0.81748 0.77707
 H138 H 0.23864 0.83123 0.75937
 C139 C 0.20233 0.83685 0.79607
 H140 H 0.20472 0.86545 0.79318
 Zn141 Zn 0.24444 0.75472 0.75474
 N142 N 0.21895 0.78154 0.78067
 C143 C 0.27334 0.72650 0.81985
 N144 N 0.27325 0.72698 0.78459
 C145 C 0.29478 0.70835 0.76916
 C146 C 0.31700 0.68747 0.78935
 C147 C 0.29520 0.70592 0.84103
 C148 C 0.19131 0.74103 0.70629
 C149 C 0.16932 0.72067 0.68553
 C150 C 0.19463 0.66832 0.71167
 C151 C 0.21616 0.68964 0.73191
 N152 N 0.21456 0.72536 0.72841
 H153 H 0.25661 0.74211 0.83163
 H154 H 0.29453 0.70966 0.74109
 H155 H 0.33387 0.67251 0.77683
 H156 H 0.29503 0.70547 0.86906
 H157 H 0.19026 0.76944 0.70442
 H158 H 0.15132 0.73338 0.66749
 H159 H 0.19642 0.63996 0.71419
 H160 H 0.23419 0.67756 0.75021
 C161 C 0.17999 0.81895 0.81854
 C162 C 0.31433 0.82623 0.68326
 C163 C 0.17122 0.68401 0.68806
 C164 C 0.31712 0.68614 0.82559
 C165 C 0.03044 -0.03090 -0.03120
 C166 C 0.05151 -0.00695 -0.00722
 C167 C 0.03310 0.01219 0.01157
 C168 C -0.00460 0.00578 0.00480
 C169 C 0.00727 -0.05370 -0.00728
 C170 C -0.01102 -0.03440 0.01151
 C171 C 0.00780 -0.00621 -0.05372
 C172 C -0.01050 0.01292 -0.03478
 H173 H 0.07847 -0.00535 -0.00520
 H174 H -0.01952 0.02144 0.02017
 H175 H 0.00534 -0.08239 -0.00553
 H176 H 0.00614 -0.00429 -0.08198
 C177 C 0.03136 0.46911 0.46921
 C178 C 0.05250 0.49301 0.49319
 C179 C 0.03413 0.51211 0.51207
 C180 C -0.00357 0.50572 0.50538
 C181 C 0.00824 0.44627 0.49315
 C182 C -0.00999 0.46553 0.51202
 C183 C 0.00869 0.49383 0.44678
 C184 C -0.00955 0.51293 0.46581
 H185 H 0.07946 0.49461 0.49514
 H186 H -0.01847 0.52134 0.52081
 H187 H 0.00633 0.41758 0.49487
 H188 H 0.00701 0.49583 0.41852
 C189 C 0.53172 -0.03087 0.46908
 C190 C 0.55289 -0.00704 0.49311
 C191 C 0.53455 0.01205 0.51203
 C192 C 0.49684 0.00571 0.50533
 C193 C 0.50858 -0.05372 0.49300
 C194 C 0.49037 -0.03447 0.51191
 C195 C 0.50907 -0.00609 0.44671
 C196 C 0.49086 0.01300 0.46577
 H197 H 0.57985 -0.00551 0.49507
 H198 H 0.48198 0.02134 0.52080
 H199 H 0.50659 -0.08241 0.49462
 H200 H 0.50731 -0.00411 0.41845
 C201 C 0.53189 0.46858 -0.03085
 C202 C 0.55302 0.49251 -0.00689
 C203 C 0.53465 0.51168 0.01191
 C204 C 0.49694 0.50532 0.00519
 C205 C 0.50872 0.44582 -0.00690
 C206 C 0.49047 0.46515 0.01190
 C207 C 0.50926 0.49329 -0.05335
 C208 C 0.49101 0.51246 -0.03440
 H209 H 0.57998 0.49411 -0.00493
 H210 H 0.48205 0.52100 0.02056
 H211 H 0.50671 0.41713 -0.00519
 H212 H 0.50757 0.49520 -0.08161
 C213 C 0.12341 -0.12556 -0.12506
 N214 N 0.13582 -0.11401 -0.09431
 N215 N 0.11751 -0.09564 -0.07594
 C216 C 0.08623 -0.08827 -0.08776
 N217 N 0.07381 -0.09983 -0.11851
 N218 N 0.09213 -0.11820 -0.13689
 C219 C 0.14321 -0.14518 -0.14491
 C220 C 0.15993 -0.16157 -0.16158
 C221 C 0.06661 -0.06834 -0.06805
 C222 C 0.05023 -0.05150 -0.05145
 C223 C 0.12353 0.37440 0.37456
 N224 N 0.10394 0.39915 0.35848
 N225 N 0.08579 0.41755 0.37700
 C226 C 0.08669 0.41176 0.41215
 N227 N 0.10628 0.38701 0.42823
 N228 N 0.12443 0.36861 0.40971
 C229 C 0.14323 0.35475 0.35464
 C230 C 0.15985 0.33831 0.33792
 C231 C 0.06730 0.43170 0.43209
 C232 C 0.05106 0.44853 0.44884
 C233 C 0.62400 -0.12515 0.37412
 N234 N 0.60476 -0.10002 0.35817
 N235 N 0.58657 -0.08174 0.37675
 C236 C 0.58706 -0.08803 0.41184
 N237 N 0.60628 -0.11317 0.42780
 N238 N 0.62448 -0.13146 0.40922
 C239 C 0.64375 -0.14468 0.35414
 C240 C 0.66042 -0.16103 0.33738
 C241 C 0.56764 -0.06819 0.43186
 C242 C 0.55140 -0.05141 0.44866
 C243 C 0.62445 0.37347 -0.12470
 N244 N 0.60573 0.39895 -0.14086
 N245 N 0.58747 0.41742 -0.12254
 C246 C 0.58738 0.41097 -0.08749
 N247 N 0.60609 0.38548 -0.07132
 N248 N 0.62435 0.36701 -0.08965
 C249 C 0.64428 0.35375 -0.14441
 C250 C 0.66102 0.33727 -0.16098
 C251 C 0.56790 0.43101 -0.06773
 C252 C 0.55161 0.44792 -0.05111
 C253 C -0.11974 0.12401 -0.11739
 N254 N -0.13062 0.09211 -0.10250
 N255 N -0.10930 0.07078 -0.08521
 C256 C -0.07646 0.08072 -0.08230
 N257 N -0.06559 0.11265 -0.09713
 N258 N -0.08690 0.13398 -0.11442
 C259 C -0.14248 0.14635 -0.13720
 C260 C -0.16147 0.16483 -0.15443
 C261 C -0.05335 0.05718 -0.06490
 C262 C -0.03386 0.03715 -0.05087
 C263 C -0.11844 0.62439 0.38322
 N264 N -0.08558 0.63421 0.38615
 N265 N -0.06434 0.61283 0.40347
 C266 C -0.07532 0.58097 0.41840
 N267 N -0.10820 0.57117 0.41552
 N268 N -0.12944 0.59256 0.39820
 C269 C -0.14111 0.64678 0.36336
 C270 C -0.16005 0.66528 0.34611
 C271 C -0.05229 0.55735 0.43580
 C272 C -0.03286 0.53725 0.44980
 C273 C 0.38111 0.12367 0.38348
 N274 N 0.37036 0.09172 0.39840
 N275 N 0.39178 0.07050 0.41567
 C276 C 0.42459 0.08059 0.41854
 N277 N 0.43533 0.11256 0.40367
 N278 N 0.41391 0.13378 0.38640
 C279 C 0.35825 0.14589 0.36369
 C280 C 0.33918 0.16426 0.34647
 C281 C 0.44782 0.05715 0.43587
 C282 C 0.46740 0.03718 0.44982
 C283 C 0.38158 0.62361 -0.11653
 N284 N 0.37072 0.59179 -0.10143
 N285 N 0.39209 0.57044 -0.08427
 C286 C 0.42497 0.58028 -0.08170
 N287 N 0.43582 0.61212 -0.09675
 N288 N 0.41445 0.63347 -0.11391
 C289 C 0.35876 0.64597 -0.13619
 C290 C 0.33970 0.66445 -0.15330
 C291 C 0.44813 0.55673 -0.06441
 C292 C 0.46764 0.53669 -0.05045
 C293 C -0.12156 -0.11690 0.12073
 N294 N -0.08912 -0.11192 0.13156
 N295 N -0.06757 -0.09476 0.11048
 C296 C -0.07781 -0.08207 0.07793
 N297 N -0.11026 -0.08702 0.06712
 N298 N -0.13181 -0.10417 0.08821
 C299 C -0.14453 -0.13645 0.14298
 C300 C -0.16373 -0.15340 0.16142
 C301 C -0.05440 -0.06470 0.05481
 C302 C -0.03467 -0.05063 0.03519
 C303 C -0.12008 0.38263 0.62152
 N304 N -0.08756 0.38740 0.63214
 N305 N -0.06610 0.40466 0.61102
 C306 C -0.07651 0.41766 0.57864
 N307 N -0.10903 0.41294 0.56804
 N308 N -0.13049 0.39568 0.58916
 C309 C -0.14296 0.36298 0.64379
 C310 C -0.16208 0.34596 0.66226
 C311 C -0.05321 0.43513 0.55546
 C312 C -0.03356 0.44926 0.53578
 C313 C 0.37954 -0.11677 0.62093
 N314 N 0.41203 -0.11214 0.63172
 N315 N 0.43366 -0.09507 0.61067
 C316 C 0.42345 -0.08211 0.57821
 N317 N 0.39096 -0.08670 0.56744
 N318 N 0.36933 -0.10377 0.58849
 C319 C 0.35647 -0.13621 0.64314
 C320 C 0.33720 -0.15305 0.66156
 C321 C 0.44692 -0.06479 0.55514
 C322 C 0.46669 -0.05073 0.53555
 C323 C 0.37938 0.38289 0.12063
 N324 N 0.36927 0.39573 0.08810
 N325 N 0.39094 0.41284 0.06713
 C326 C 0.42338 0.41761 0.07805
 N327 N 0.43348 0.40480 0.11059
 N328 N 0.41181 0.38770 0.13157
 C329 C 0.35628 0.36341 0.14277
 C330 C 0.33698 0.34653 0.16114
 C331 C 0.44690 0.43493 0.05504
 C332 C 0.46673 0.44897 0.03550
 C333 C 0.11246 0.12201 0.12361
 N334 N 0.10469 0.13395 0.09017
 N335 N 0.08778 0.11285 0.06854
 C336 C 0.07812 0.07918 0.07970
 N337 N 0.08583 0.06727 0.11316
 N338 N 0.10274 0.08836 0.13479
 C339 C 0.13213 0.14412 0.14638
 C340 C 0.14933 0.16239 0.16526
 C341 C 0.06141 0.05592 0.05596
 C342 C 0.04812 0.03613 0.03583
 C343 C 0.11330 0.62206 0.62412
 N344 N 0.10366 0.58838 0.63529
 N345 N 0.08683 0.56724 0.61365
 C346 C 0.07913 0.57913 0.58018
 N347 N 0.08871 0.61283 0.56902
 N348 N 0.10554 0.63397 0.59067
 C349 C 0.13286 0.64423 0.64692
 C350 C 0.14998 0.66254 0.66582
 C351 C 0.06247 0.55585 0.55644
 C352 C 0.04919 0.53604 0.53631
 C353 C 0.61401 0.12128 0.62457
 N354 N 0.60448 0.08752 0.63555
 N355 N 0.58758 0.06652 0.61382
 C356 C 0.57970 0.07865 0.58045
 N357 N 0.58918 0.11243 0.56950
 N358 N 0.60608 0.13343 0.59123
 C359 C 0.63364 0.14331 0.64746
 C360 C 0.65081 0.16152 0.66642
 C361 C 0.56298 0.05552 0.55660
 C362 C 0.54965 0.03584 0.53638
 C363 C 0.61386 0.62210 0.12348
 N364 N 0.60600 0.63390 0.09002
 N365 N 0.58916 0.61267 0.06848
 C366 C 0.57966 0.57898 0.07975
 N367 N 0.58747 0.56720 0.11323
 N368 N 0.60431 0.58843 0.13477
 C369 C 0.63343 0.64438 0.14617
 C370 C 0.65056 0.66278 0.16499
 C371 C 0.56299 0.55559 0.05611
 C372 C 0.54970 0.53571 0.03607
   
