data_POSCAR
  _audit_creation_date              2014-09-24
  _audit_creation_method            'ToBaCCo'
  _symmetry_space_group_name_H-M    'P1'
  _symmetry_Int_Tables_number       1
  _symmetry_cell_setting            triclinic
  loop_
  _symmetry_equiv_pos_as_xyz
 x,y,z
_cell_length_a 34.1809
_cell_length_b 30.6163
_cell_length_c 42.7916
_cell_angle_alpha 90.143300
_cell_angle_beta 90.504100
_cell_angle_gamma 91.030500
loop_
  _atom_site_label
  _atom_site_type_symbol
  _atom_site_fract_x
  _atom_site_fract_y
  _atom_site_fract_z
O1 O 0.27112 0.34866 0.02752
 O2 O 0.34471 0.33422 -0.03310
 O3 O 0.27397 0.36406 -0.03306
 O4 O 0.33982 0.31207 0.02530
 O5 O 0.31290 0.24793 0.01338
 O6 O 0.24804 0.29902 -0.04342
 O7 O 0.31991 0.26881 -0.04426
 O8 O 0.24461 0.28403 0.01667
 Cu9 Cu 0.30972 0.34627 -0.00208
 Cu10 Cu 0.27851 0.26873 -0.01567
 C11 C 0.24552 0.31915 0.03265
 C12 C 0.34551 0.29890 -0.04852
 C13 C 0.24981 0.33981 -0.04830
 C14 C 0.33779 0.27073 0.02858
 O15 O 0.62911 0.64788 -0.02156
 O16 O 0.71127 0.61544 0.02811
 O17 O 0.64637 0.65575 0.03811
 O18 O 0.69189 0.60972 -0.03124
 O19 O 0.72688 0.67023 -0.03815
 O20 O 0.67243 0.72051 0.02757
 O21 O 0.73940 0.68029 0.02163
 O22 O 0.66014 0.70973 -0.03301
 Cu23 Cu 0.66676 0.62593 0.00467
 Cu24 Cu 0.70262 0.70181 -0.00621
 C25 C 0.63172 0.68296 -0.03713
 C26 C 0.73900 0.64249 0.03375
 C27 C 0.65100 0.69596 0.04450
 C28 C 0.71680 0.63176 -0.04668
 O29 O 0.74631 0.34196 0.97354
 O30 O 0.67866 0.29077 1.02935
 O31 O 0.74228 0.33721 1.03522
 O32 O 0.68454 0.28870 0.96970
 O33 O 0.71999 0.22919 0.97369
 O34 O 0.77639 0.27678 1.03866
 O35 O 0.71471 0.23143 1.03037
 O36 O 0.78349 0.28391 0.97592
 Cu37 Cu 0.70984 0.32105 1.00148
 Cu38 Cu 0.75381 0.25090 1.00381
 C39 C 0.77654 0.32170 0.96535
 C40 C 0.68442 0.25196 1.03840
 C41 C 0.76835 0.31455 1.04870
 C42 C 0.69116 0.24930 0.96215
 O43 O 0.32650 0.67100 1.03729
 O44 O 0.25547 0.64597 0.97636
 O45 O 0.31800 0.69875 0.97843
 O46 O 0.25953 0.63458 1.03526
 O47 O 0.22740 0.69470 1.04594
 O48 O 0.28585 0.75805 0.99110
 O49 O 0.22377 0.70685 0.98581
 O50 O 0.29698 0.73278 1.04829
 Cu51 Cu 0.29351 0.65787 1.00504
 Cu52 Cu 0.25527 0.72895 1.01899
 C53 C 0.32421 0.70562 1.05326
 C54 C 0.22751 0.67130 0.97061
 C55 C 0.31189 0.73946 0.97541
 C56 C 0.23310 0.65441 1.05023
 O57 O -0.04144 0.36832 0.33434
 O58 O 0.03594 0.30631 0.37381
 O59 O 0.02741 0.34191 0.31865
 O60 O -0.03226 0.33394 0.38929
 O61 O -0.05923 0.27266 0.37133
 O62 O 0.00103 0.28055 0.30020
 O63 O 0.00974 0.24505 0.35508
 O64 O -0.06729 0.30723 0.31495
 Cu65 Cu 0.00014 0.34374 0.35577
 Cu66 Cu -0.03175 0.27005 0.33381
 C67 C -0.06697 0.34853 0.31754
 C68 C 0.03580 0.26500 0.37124
 C69 C 0.02396 0.31331 0.29722
 C70 C -0.05568 0.30174 0.39254
 O71 O 0.03355 0.68871 0.62323
 O72 O -0.03689 0.64846 0.68338
 O73 O -0.04339 0.66933 0.62573
 O74 O 0.03659 0.65044 0.68031
 O75 O 0.03521 0.71909 0.69616
 O76 O -0.04816 0.73768 0.64167
 O77 O -0.04269 0.71645 0.69997
 O78 O 0.02385 0.75596 0.63987
 Cu79 Cu -0.00107 0.65839 0.65067
 Cu80 Cu -0.00748 0.73825 0.67170
 C81 C 0.03947 0.72987 0.62094
 C82 C -0.05106 0.67612 0.70234
 C83 C -0.05946 0.70620 0.62402
 C84 C 0.04901 0.68080 0.69804
 O85 O 1.02583 0.63943 0.30949
 O86 O 0.96635 0.70673 0.36306
 O87 O 0.95371 0.66366 0.31150
 O88 O 1.03956 0.68669 0.36215
 O89 O 1.06051 0.73370 0.32682
 O90 O 0.96761 0.72336 0.28450
 O91 O 0.98736 0.76530 0.33787
 O92 O 1.03416 0.69722 0.27919
 Cu93 Cu 0.99533 0.66806 0.33967
 Cu94 Cu 1.01328 0.73736 0.30580
 C95 C 1.03781 0.65668 0.28413
 C96 C 0.96760 0.74789 0.35966
 C97 C 0.94670 0.68933 0.28891
 C98 C 1.06569 0.71284 0.35200
 O99 O 0.96820 0.29576 0.64873
 O100 O 1.05851 0.35055 0.67628
 O101 O 1.04283 0.29190 0.63423
 O102 O 0.98695 0.34993 0.69536
 O103 O 0.99719 0.29451 0.72725
 O104 O 1.05118 0.23777 0.66751
 O105 O 1.06827 0.29739 0.71021
 O106 O 0.97775 0.24141 0.68159
 Cu107 Cu 1.01263 0.32723 0.66020
 Cu108 Cu 1.02454 0.26218 0.69968
 C109 C 0.95785 0.25908 0.65994
 C110 C 1.07819 0.33400 0.69836
 C111 C 1.05672 0.25473 0.64094
 C112 C 0.98422 0.33226 0.72220
 O113 O 0.39037 0.06308 0.30277
 O114 O 0.36659 -0.02516 0.35759
 O115 O 0.38554 -0.02037 0.29843
 O116 O 0.36910 0.06119 0.35971
 O117 O 0.30622 0.06213 0.34714
 O118 O 0.32356 -0.01599 0.28389
 O119 O 0.30417 -0.02239 0.34407
 O120 O 0.32766 0.06886 0.29054
 Cu121 Cu 0.38405 0.01872 0.33134
 Cu122 Cu 0.30899 0.02264 0.31492
 C123 C 0.36307 0.08168 0.28794
 C124 C 0.33151 -0.03867 0.36037
 C125 C 0.35768 -0.03052 0.27987
 C126 C 0.33507 0.07634 0.36321
 O127 O 0.62626 -0.07086 0.63568
 O128 O 0.60650 0.01277 0.69560
 O129 O 0.62753 0.01380 0.63766
 O130 O 0.60037 -0.07177 0.69359
 O131 O 0.66211 -0.07603 0.70860
 O132 O 0.68941 0.01155 0.65307
 O133 O 0.66905 0.01287 0.70918
 O134 O 0.68876 -0.06983 0.64941
 Cu135 Cu 0.60890 -0.02920 0.66418
 Cu136 Cu 0.68280 -0.03225 0.68275
 C137 C 0.66119 -0.08324 0.63161
 C138 C 0.63487 0.02789 0.71195
 C139 C 0.66275 0.02736 0.63581
 C140 C 0.62653 -0.08836 0.71072
 O141 O 0.37875 0.96225 0.69721
 O142 O 0.36499 1.04789 0.63853
 O143 O 0.38437 1.04547 0.69695
 O144 O 0.35940 0.96149 0.63875
 O145 O 0.29668 0.96658 0.65008
 O146 O 0.32191 1.05111 0.70907
 O147 O 0.30236 1.05148 0.65052
 O148 O 0.31605 0.96513 0.70917
 Cu149 Cu 0.37809 1.00386 0.66623
 Cu150 Cu 0.30291 1.00889 0.68103
 C151 C 0.34978 0.94919 0.71320
 C152 C 0.33161 1.06481 0.63494
 C153 C 0.35755 1.06261 0.71286
 C154 C 0.32404 0.94925 0.63478
 O155 O 0.62556 0.99150 0.29750
 O156 O 0.66970 1.06010 0.36199
 O157 O 0.62659 1.07338 0.31000
 O158 O 0.65131 0.97556 0.35301
 O159 O 0.71063 0.97595 0.33289
 O160 O 0.68497 1.07534 0.28819
 O161 O 0.72602 1.05797 0.33722
 O162 O 0.68384 0.99123 0.27564
 Cu163 Cu 0.63834 1.02583 0.33339
 Cu164 Cu 0.70662 1.02471 0.30601
 C165 C 0.64802 0.98036 0.27526
 C166 C 0.70605 1.07041 0.36014
 C167 C 0.65094 1.09097 0.29166
 C168 C 0.68492 0.95936 0.35099
 C169 C 0.91035 0.76812 0.51166
 C170 C 0.91679 0.77872 0.48092
 C171 C 0.88161 0.79357 0.46918
 N172 N 0.85402 0.79269 0.49162
 C173 C 0.87165 0.77754 0.51768
 C174 C 0.87490 0.80516 0.43775
 C175 C 0.83862 0.81989 0.42647
 C176 C 0.82775 0.81987 0.39522
 C177 C 0.79083 0.83692 0.39368
 C178 C 0.78052 0.84738 0.42400
 N179 N 0.80992 0.83717 0.44386
 C180 C 0.74542 0.86781 0.43223
 C181 C 0.73294 0.87284 0.46338
 C182 C 0.70298 0.89978 0.47248
 C183 C 0.69884 0.89431 0.50411
 C184 C 0.72618 0.86389 0.51320
 N185 N 0.74699 0.85074 0.48825
 C186 C 0.73005 0.84724 0.54381
 C187 C 0.76052 0.81935 0.55297
 C188 C 0.76018 0.79402 0.57974
 C189 C 0.79478 0.77164 0.58026
 C190 C 0.81535 0.78426 0.55392
 N191 N 0.79452 0.81382 0.53764
 C192 C 0.85287 0.76913 0.54632
 H193 H 0.93167 0.75493 0.52775
 H194 H 0.94402 0.77518 0.46853
 H195 H 0.80433 0.83214 0.51881
 H196 H 0.84450 0.80826 0.37562
 H197 H 0.77366 0.84124 0.37259
 H198 H 0.68615 0.92151 0.45791
 H199 H 0.67809 0.91095 0.51868
 H200 H 0.80379 0.74870 0.59802
 H201 H 0.81210 0.84580 0.46728
 H202 H 0.73715 0.79146 0.59687
 C203 C 0.31372 0.12813 0.48192
 C204 C 0.31395 0.12622 0.51385
 C205 C 0.28567 0.15472 0.52385
 N206 N 0.26824 0.17417 0.49925
 C207 C 0.28521 0.15763 0.47359
 C208 C 0.27679 0.16282 0.55532
 C209 C 0.24305 0.18511 0.56440
 C210 C 0.23648 0.20078 0.59422
 C211 C 0.19875 0.21577 0.59433
 C212 C 0.18347 0.20872 0.56456
 N213 N 0.21070 0.19019 0.54645
 C214 C 0.14379 0.21397 0.55631
 C215 C 0.13012 0.21546 0.52515
 C216 C 0.09109 0.21550 0.51624
 C217 C 0.09038 0.21622 0.48410
 C218 C 0.12902 0.21648 0.47459
 N219 N 0.15325 0.21673 0.49972
 C220 C 0.14123 0.21639 0.44315
 C221 C 0.18043 0.21081 0.43414
 C222 C 0.19441 0.21837 0.40431
 C223 C 0.23280 0.20529 0.40422
 C224 C 0.24096 0.18989 0.43394
 N225 N 0.20893 0.19340 0.45200
 C226 C 0.27585 0.16899 0.44263
 H227 H 0.33176 0.10896 0.46663
 H228 H 0.33220 0.10535 0.52793
 H229 H 0.20505 0.17903 0.47367
 H230 H 0.25643 0.20035 0.61399
 H231 H 0.18379 0.22910 0.61430
 H232 H 0.06580 0.21446 0.53128
 H233 H 0.06442 0.21580 0.46943
 H234 H 0.25213 0.20586 0.38432
 H235 H 0.20538 0.17550 0.52492
 H236 H 0.17836 0.23117 0.38453
 C237 C 0.11876 0.71809 0.50210
 C238 C 0.12486 0.71431 0.47043
 C239 C 0.14960 0.74870 0.46212
 N240 N 0.15987 0.77214 0.48780
 C241 C 0.14140 0.75328 0.51219
 C242 C 0.15978 0.76098 0.43130
 C243 C 0.18529 0.79703 0.42549
 C244 C 0.18620 0.82067 0.39789
 C245 C 0.21763 0.84908 0.39993
 C246 C 0.23449 0.84307 0.42910
 N247 N 0.21456 0.81127 0.44460
 C248 C 0.26935 0.86397 0.43965
 C249 C 0.28046 0.86528 0.47147
 C250 C 0.31494 0.88388 0.48287
 C251 C 0.31332 0.88113 0.51481
 C252 C 0.27783 0.86108 0.52190
 N253 N 0.25754 0.85203 0.49537
 C254 C 0.26356 0.85515 0.55250
 C255 C 0.22674 0.83564 0.55909
 C256 C 0.20733 0.83950 0.58723
 C257 C 0.17265 0.81624 0.58415
 C258 C 0.17225 0.79791 0.55450
 N259 N 0.20566 0.80930 0.53957
 C260 C 0.14200 0.77001 0.54286
 H261 H 0.10026 0.69705 0.51617
 H262 H 0.11203 0.68933 0.45548
 H263 H 0.21514 0.79699 0.51838
 H264 H 0.16639 0.81790 0.37811
 H265 H 0.22677 0.87125 0.38171
 H266 H 0.33840 0.89907 0.46977
 H267 H 0.33532 0.89396 0.53085
 H268 H 0.15062 0.81252 0.60201
 H269 H 0.22350 0.79592 0.46504
 H270 H 0.21678 0.85744 0.60782
 C271 C 0.71828 0.09411 0.48468
 C272 C 0.71293 0.08754 0.51616
 C273 C 0.73142 0.12225 0.53137
 N274 N 0.74670 0.15045 0.51048
 C275 C 0.73883 0.13329 0.48190
 C276 C 0.73290 0.12802 0.56400
 C277 C 0.76160 0.15448 0.57927
 C278 C 0.76138 0.16533 0.61074
 C279 C 0.79600 0.18762 0.61700
 C280 C 0.81615 0.19019 0.58911
 N281 N 0.79506 0.16983 0.56625
 C282 C 0.85411 0.20861 0.58571
 C283 C 0.86880 0.22122 0.55619
 C284 C 0.90747 0.23216 0.54980
 C285 C 0.90860 0.24479 0.51903
 C286 C 0.87079 0.24037 0.50756
 N287 N 0.84646 0.22622 0.53027
 C288 C 0.85906 0.25009 0.47672
 C289 C 0.82312 0.23495 0.46399
 C290 C 0.80713 0.24867 0.43587
 C291 C 0.77598 0.22092 0.42929
 C292 C 0.77344 0.19183 0.45392
 N293 N 0.80204 0.20070 0.47505
 C294 C 0.75005 0.15355 0.45375
 H295 H 0.70828 0.07228 0.46630
 H296 H 0.69817 0.05977 0.52671
 H297 H 0.81064 0.17994 0.49293
 H298 H 0.73893 0.15746 0.62759
 H299 H 0.80528 0.20047 0.63951
 H300 H 0.93252 0.23053 0.56533
 H301 H 0.93447 0.25490 0.50636
 H302 H 0.75810 0.22097 0.40829
 H303 H 0.80501 0.16242 0.54401
 H304 H 0.81779 0.27468 0.42095
 C305 C 0.45844 0.83794 0.74704
 C306 C 0.49801 0.83111 0.74629
 C307 C 0.51045 0.82792 0.77707
 N308 N 0.47993 0.83260 0.79659
 C309 C 0.44815 0.83896 0.77826
 C310 C 0.54984 0.82402 0.78683
 C311 C 0.55984 0.80703 0.81659
 C312 C 0.59728 0.80615 0.82942
 C313 C 0.59472 0.78310 0.85696
 C314 C 0.55567 0.77201 0.86076
 N315 N 0.53469 0.78622 0.83603
 C316 C 0.54053 0.74746 0.88582
 C317 C 0.50123 0.74892 0.89523
 C318 C 0.48674 0.72792 0.92140
 C319 C 0.44872 0.74033 0.92432
 C320 C 0.44097 0.76789 0.89945
 N321 N 0.47342 0.77380 0.88205
 C322 C 0.40548 0.78983 0.89468
 C323 C 0.39785 0.81563 0.86804
 C324 C 0.36669 0.84374 0.86504
 C325 C 0.36835 0.86089 0.83543
 C326 C 0.40010 0.84229 0.82096
 N327 N 0.41783 0.81460 0.84089
 C328 C 0.41073 0.84931 0.78956
 H329 H 0.43950 0.84177 0.72688
 H330 H 0.51555 0.82851 0.72547
 H331 H 0.43949 0.79275 0.83494
 H332 H 0.62394 0.82028 0.82018
 H333 H 0.61883 0.77607 0.87258
 H334 H 0.50233 0.70732 0.93761
 H335 H 0.42971 0.73078 0.94323
 H336 H 0.34836 0.88444 0.82583
 H337 H 0.50570 0.77768 0.83115
 H338 H 0.34467 0.85113 0.88214
 C339 C 0.48314 0.18937 0.26090
 C340 C 0.52334 0.19003 0.26203
 C341 C 0.53582 0.18985 0.23136
 N342 N 0.50478 0.18941 0.21155
 C343 C 0.47257 0.18905 0.22957
 C344 C 0.57503 0.18544 0.22201
 C345 C 0.58628 0.18805 0.19044
 C346 C 0.62092 0.17198 0.17892
 C347 C 0.62141 0.18127 0.14765
 C348 C 0.58670 0.20208 0.14073
 N349 N 0.56564 0.20677 0.16708
 C350 C 0.57658 0.21755 0.11077
 C351 C 0.53896 0.23166 0.10243
 C352 C 0.52902 0.24873 0.07355
 C353 C 0.48904 0.25255 0.07323
 C354 C 0.47604 0.23750 0.10188
 N355 N 0.50656 0.22473 0.11966
 C356 C 0.43651 0.22938 0.10914
 C357 C 0.42425 0.21220 0.13813
 C358 C 0.38811 0.19231 0.14290
 C359 C 0.38771 0.17836 0.17333
 C360 C 0.42325 0.19108 0.18666
 N361 N 0.44530 0.21218 0.16509
 C362 C 0.43392 0.18358 0.21819
 H363 H 0.46387 0.18853 0.28083
 H364 H 0.54127 0.18970 0.28300
 H365 H 0.47186 0.22841 0.16914
 H366 H 0.64342 0.15462 0.19143
 H367 H 0.64490 0.17335 0.13199
 H368 H 0.54832 0.25603 0.05427
 H369 H 0.47146 0.26319 0.05362
 H370 H 0.36394 0.16021 0.18399
 H371 H 0.54056 0.22512 0.16957
 H372 H 0.36461 0.18735 0.12610
 C373 C 0.48446 0.14668 0.74353
 C374 C 0.52410 0.14029 0.74337
 C375 C 0.53652 0.14239 0.77422
 N376 N 0.50601 0.15010 0.79319
 C377 C 0.47414 0.15256 0.77447
 C378 C 0.57475 0.13377 0.78484
 C379 C 0.58731 0.14431 0.81554
 C380 C 0.62050 0.12804 0.82974
 C381 C 0.62379 0.14788 0.85844
 C382 C 0.59202 0.17517 0.86142
 N383 N 0.57019 0.17323 0.83488
 C384 C 0.58540 0.20255 0.88754
 C385 C 0.54972 0.22410 0.89253
 C386 C 0.54308 0.25362 0.91641
 C387 C 0.50422 0.26418 0.91458
 C388 C 0.48822 0.24025 0.88996
 N389 N 0.51598 0.21548 0.87673
 C390 C 0.44791 0.23854 0.88218
 C391 C 0.43234 0.21154 0.85814
 C392 C 0.39348 0.19829 0.85538
 C393 C 0.39024 0.17382 0.82849
 C394 C 0.42687 0.17412 0.81487
 N395 N 0.45240 0.19706 0.83319
 C396 C 0.43544 0.15608 0.78529
 H397 H 0.46541 0.14695 0.72320
 H398 H 0.54167 0.13467 0.72288
 H399 H 0.48071 0.20663 0.82726
 H400 H 0.64043 0.10424 0.82058
 H401 H 0.64743 0.14269 0.87485
 H402 H 0.56365 0.26570 0.93386
 H403 H 0.48921 0.28560 0.93045
 H404 H 0.36361 0.15808 0.82009
 H405 H 0.54738 0.19370 0.82894
 H406 H 0.36966 0.20490 0.87099
 C407 C 0.47821 0.75056 0.08105
 C408 C 0.51835 0.75242 0.08060
 C409 C 0.53011 0.77654 0.10655
 N410 N 0.49866 0.78918 0.12294
 C411 C 0.46693 0.77327 0.10741
 C412 C 0.56913 0.78112 0.11706
 C413 C 0.58004 0.80754 0.14291
 C414 C 0.61558 0.80539 0.15853
 C415 C 0.61521 0.83684 0.18161
 C416 C 0.57951 0.85747 0.17929
 N417 N 0.55832 0.83957 0.15552
 C418 C 0.56840 0.89387 0.19742
 C419 C 0.52915 0.90698 0.19933
 C420 C 0.51704 0.94712 0.21022
 C421 C 0.47688 0.94543 0.21023
 C422 C 0.46590 0.90431 0.19940
 N423 N 0.49788 0.88089 0.19257
 C424 C 0.42712 0.88770 0.19802
 C425 C 0.41669 0.85063 0.17999
 C426 C 0.38203 0.82682 0.18280
 C427 C 0.38225 0.79511 0.15996
 C428 C 0.41710 0.80041 0.14405
 N429 N 0.43786 0.83448 0.15621
 C430 C 0.42831 0.77450 0.11855
 H431 H 0.45952 0.73333 0.06441
 H432 H 0.53670 0.73663 0.06365
 H433 H 0.46313 0.84858 0.14695
 H434 H 0.63929 0.78344 0.15379
 H435 H 0.63859 0.84358 0.19824
 H436 H 0.53511 0.97493 0.21710
 H437 H 0.45801 0.97167 0.21718
 H438 H 0.35950 0.77072 0.15573
 H439 H 0.53230 0.85161 0.14648
 H440 H 0.35906 0.83146 0.19965
 C441 C 0.82141 0.48028 0.92698
 C442 C 0.81150 0.52329 0.92335
 C443 C 0.81824 0.53369 0.89235
 N444 N 0.83101 0.49855 0.87682
 C445 C 0.83281 0.46581 0.89782
 C446 C 0.80530 0.57176 0.87755
 C447 C 0.81954 0.58537 0.84816
 C448 C 0.80421 0.61882 0.83042
 C449 C 0.82744 0.62286 0.80426
 C450 C 0.85597 0.59135 0.80666
 N451 N 0.85117 0.56899 0.83364
 C452 C 0.88688 0.58525 0.78530
 C453 C 0.90684 0.54518 0.78381
 C454 C 0.94278 0.53850 0.76988
 C455 C 0.94971 0.49447 0.77163
 C456 C 0.91820 0.47603 0.78710
 N457 N 0.89204 0.50689 0.79453
 C458 C 0.91326 0.43132 0.79379
 C459 C 0.88649 0.41618 0.81622
 C460 C 0.87366 0.37318 0.81903
 C461 C 0.85384 0.37029 0.84681
 C462 C 0.85527 0.41162 0.86002
 N463 N 0.87491 0.43951 0.84111
 C464 C 0.84080 0.42229 0.88972
 H465 H 0.81934 0.46170 0.94838
 H466 H 0.79968 0.54419 0.94124
 H467 H 0.88488 0.47088 0.84688
 H468 H 0.77922 0.63855 0.83594
 H469 H 0.82348 0.64601 0.78549
 H470 H 0.96257 0.56267 0.76011
 H471 H 0.97540 0.47815 0.76321
 H472 H 0.84036 0.34102 0.85631
 H473 H 0.87053 0.54637 0.84281
 H474 H 0.87896 0.34644 0.80311
 C475 C 0.04883 0.44491 0.23216
 C476 C 0.05166 0.48973 0.23427
 C477 C 0.08628 0.50163 0.21984
 N478 N 0.10462 0.46590 0.20903
 C479 C 0.08177 0.43121 0.21640
 C480 C 0.10125 0.54449 0.21662
 C481 C 0.13296 0.55340 0.19674
 C482 C 0.15583 0.59118 0.19775
 C483 C 0.17712 0.59204 0.17061
 C484 C 0.16640 0.55482 0.15391
 N485 N 0.14010 0.53101 0.17026
 C486 C 0.17546 0.54726 0.12238
 C487 C 0.17278 0.50506 0.10927
 C488 C 0.17485 0.49502 0.07778
 C489 C 0.17220 0.45025 0.07561
 C490 C 0.16830 0.43471 0.10583
 N491 N 0.16879 0.46821 0.12634
 C492 C 0.16672 0.39027 0.11445
 C493 C 0.15150 0.37660 0.14358
 C494 C 0.15577 0.33542 0.15639
 C495 C 0.13460 0.33468 0.18371
 C496 C 0.11803 0.37543 0.18684
 N497 N 0.12848 0.40077 0.16231
 C498 C 0.09165 0.38732 0.21060
 H499 H 0.02486 0.42486 0.24073
 H500 H 0.03043 0.51090 0.24476
 H501 H 0.11707 0.43116 0.15698
 H502 H 0.15561 0.61652 0.21544
 H503 H 0.19673 0.61813 0.16327
 H504 H 0.17746 0.51736 0.05834
 H505 H 0.17244 0.43140 0.05419
 H506 H 0.13166 0.30716 0.19939
 H507 H 0.12272 0.50564 0.16120
 H508 H 0.17229 0.30863 0.14705
 C509 C 0.82371 0.46133 0.08392
 C510 C 0.82149 0.50569 0.07989
 C511 C 0.81990 0.52372 0.10948
 N512 N 0.82064 0.49212 0.13147
 C513 C 0.82280 0.45384 0.11587
 C514 C 0.81576 0.56850 0.11589
 C515 C 0.82233 0.58617 0.14589
 C516 C 0.81055 0.62706 0.15556
 C517 C 0.82646 0.63380 0.18489
 C518 C 0.84741 0.59679 0.19212
 N519 N 0.84445 0.56776 0.16837
 C520 C 0.87223 0.59227 0.21831
 C521 C 0.88412 0.55049 0.22828
 C522 C 0.91459 0.54168 0.24884
 C523 C 0.91318 0.49750 0.25426
 C524 C 0.88302 0.48074 0.23588
 N525 N 0.86519 0.51296 0.22010
 C526 C 0.87035 0.43685 0.23590
 C527 C 0.85068 0.41757 0.21002
 C528 C 0.83338 0.37634 0.20962
 C529 C 0.81967 0.36927 0.17950
 C530 C 0.82887 0.40652 0.16250
 N531 N 0.84801 0.43558 0.18123
 C532 C 0.82134 0.41225 0.13016
 H533 H 0.82603 0.43751 0.06536
 H534 H 0.82147 0.52272 0.05776
 H535 H 0.86184 0.46434 0.17402
 H536 H 0.79292 0.64996 0.14265
 H537 H 0.82350 0.66291 0.19900
 H538 H 0.93623 0.56412 0.25858
 H539 H 0.93263 0.47952 0.26939
 H540 H 0.80454 0.34010 0.17115
 H541 H 0.86112 0.53986 0.16580
 H542 H 0.83121 0.35361 0.22888
 C543 C 0.10915 0.53961 0.73429
 C544 C 0.11413 0.49539 0.73223
 C545 C 0.13354 0.48301 0.75919
 N546 N 0.14029 0.51818 0.77782
 C547 C 0.12477 0.55284 0.76288
 C548 C 0.14631 0.44015 0.76523
 C549 C 0.16426 0.42761 0.79351
 C550 C 0.18491 0.38951 0.79735
 C551 C 0.19637 0.38815 0.82824
 C552 C 0.18191 0.42521 0.84246
 N553 N 0.16235 0.44913 0.82106
 C554 C 0.18477 0.43431 0.87486
 C555 C 0.17654 0.47574 0.88751
 C556 C 0.17266 0.48465 0.91905
 C557 C 0.16642 0.52869 0.92149
 C558 C 0.16660 0.54514 0.89136
 N559 N 0.17287 0.51276 0.87060
 C560 C 0.16395 0.58991 0.88384
 C561 C 0.15756 0.60527 0.85314
 C562 C 0.16159 0.64854 0.84420
 C563 C 0.15078 0.65058 0.81324
 C564 C 0.14114 0.60832 0.80383
 N565 N 0.14490 0.58097 0.82848
 C566 C 0.12666 0.59664 0.77379
 H567 H 0.09608 0.55936 0.71626
 H568 H 0.10486 0.47496 0.71278
 H569 H 0.13529 0.54865 0.82944
 H570 H 0.19113 0.36529 0.77970
 H571 H 0.21330 0.36259 0.83896
 H572 H 0.17388 0.46187 0.93830
 H573 H 0.16212 0.54654 0.94301
 H574 H 0.15010 0.68015 0.79956
 H575 H 0.14472 0.47560 0.82570
 H576 H 0.17111 0.67602 0.85845
 N577 N 0.16484 0.32093 0.08521
 N578 N 0.18510 0.30081 0.06325
 C579 C 0.21648 0.32665 0.05716
 C580 C 0.21501 0.36287 0.07619
 N581 N 0.18227 0.35839 0.09319
 H582 H 0.23523 0.39051 0.07693
 N583 N 0.82146 0.63500 0.08463
 N584 N 0.80166 0.65587 0.06267
 C585 C 0.77046 0.63022 0.05524
 C586 C 0.77167 0.59300 0.07321
 N587 N 0.80392 0.59724 0.09121
 H588 H 0.75039 0.56642 0.07417
 N589 N 0.85612 0.35474 0.91720
 N590 N 0.83976 0.32678 0.93697
 C591 C 0.80420 0.34240 0.94372
 C592 C 0.79917 0.38074 0.92750
 N593 N 0.83232 0.38747 0.91134
 H594 H 0.77374 0.40132 0.92709
 N595 N 0.14976 0.65516 0.91531
 N596 N 0.16611 0.67832 0.93842
 C597 C 0.19969 0.65823 0.94596
 C598 C 0.20347 0.62241 0.92692
 N599 N 0.17179 0.62138 0.90825
 H600 H 0.22712 0.59933 0.92651
 N601 N 0.10120 0.18563 0.40097
 N602 N 0.07290 0.19726 0.38151
 C603 C 0.06591 0.23971 0.38733
 C604 C 0.09069 0.25383 0.41109
 N605 N 0.11211 0.21904 0.41890
 H606 H 0.09258 0.28578 0.42195
 N607 N 0.08265 0.79907 0.56388
 N608 N 0.05549 0.78978 0.58471
 C609 C 0.06254 0.74932 0.59547
 C610 C 0.09531 0.73381 0.58039
 N611 N 0.10682 0.76612 0.56086
 H612 H 0.11039 0.70353 0.58438
 N613 N 0.92131 0.83423 0.40007
 N614 N 0.94597 0.82013 0.37876
 C615 C 0.94588 0.77618 0.38080
 C616 C 0.92048 0.76365 0.40418
 N617 N 0.90596 0.80090 0.41567
 H618 H 0.91212 0.73089 0.41125
 N619 N 0.88434 0.18291 0.63417
 N620 N 0.91170 0.19527 0.65469
 C621 C 0.92357 0.23586 0.64652
 C622 C 0.90238 0.24812 0.62050
 N623 N 0.87856 0.21399 0.61322
 H624 H 0.90556 0.27797 0.60717
 N625 N 0.36847 0.17774 0.24131
 N626 N 0.34812 0.15024 0.25905
 C627 C 0.37295 0.11874 0.26783
 C628 C 0.40900 0.12775 0.25520
 N629 N 0.40509 0.16475 0.23875
 H630 H 0.43517 0.10842 0.25682
 N631 N 0.63913 0.12077 0.76218
 N632 N 0.65637 0.09245 0.74357
 C633 C 0.62832 0.06403 0.73372
 C634 C 0.59333 0.07575 0.74681
 N635 N 0.60127 0.11135 0.76448
 H636 H 0.56515 0.05932 0.74440
 N637 N 0.34518 0.86181 0.76783
 N638 N 0.32758 0.88863 0.74812
 C639 C 0.35580 0.91507 0.73650
 C640 C 0.39106 0.90387 0.74963
 N641 N 0.38332 0.87040 0.76900
 H642 H 0.41943 0.91923 0.74598
 N643 N 0.63283 0.92893 0.20143
 N644 N 0.65469 0.95145 0.22162
 C645 C 0.63345 0.95594 0.24780
 C646 C 0.59767 0.93522 0.24307
 N647 N 0.59847 0.91877 0.21374
 H648 H 0.57367 0.93211 0.25930
 N649 N 0.42479 0.30960 0.89858
 N650 N 0.39786 0.32689 0.91663
 C651 C 0.37696 0.29337 0.92878
 C652 C 0.39228 0.25480 0.91799
 N653 N 0.42196 0.26643 0.89903
 H654 H 0.38364 0.22176 0.92413
 N655 N 0.55969 0.67578 0.90298
 N656 N 0.58208 0.65764 0.92448
 C657 C 0.60265 0.69035 0.93835
 C658 C 0.59258 0.72926 0.92452
 N659 N 0.56572 0.71859 0.90249
 H660 H 0.60238 0.76200 0.93069
 N661 N 0.40495 0.70127 0.10556
 N662 N 0.37736 0.68184 0.08840
 C663 C 0.35428 0.71358 0.07723
 C664 C 0.36854 0.75332 0.08804
 N665 N 0.40025 0.74406 0.10552
 H666 H 0.35880 0.78569 0.08198
 N667 N 0.61959 0.17792 0.07618
 N668 N 0.64977 0.18583 0.05776
 C669 C 0.65489 0.22956 0.05710
 C670 C 0.62684 0.24841 0.07536
 N671 N 0.60552 0.21503 0.08689
 H672 H 0.62298 0.28269 0.08054
 N673 N 0.34074 0.15027 0.57922
 N674 N 0.35663 0.12328 0.59968
 C675 C 0.32685 0.10040 0.61257
 C676 C 0.29223 0.11441 0.59972
 N677 N 0.30214 0.14545 0.57897
 H678 H 0.26301 0.10127 0.60343
 N679 N 0.77521 0.12671 0.40519
 N680 N 0.76440 0.10476 0.37995
 C681 C 0.72601 0.09494 0.38281
 C682 C 0.71332 0.11197 0.41097
 N683 N 0.74530 0.13138 0.42423
 H684 H 0.68423 0.11041 0.42074
 N685 N 0.66266 0.85219 0.56228
 N686 N 0.64320 0.87036 0.58547
 C687 C 0.67018 0.88831 0.60503
 C688 C 0.70682 0.88059 0.59313
 N689 N 0.70084 0.85810 0.56644
 H690 H 0.73486 0.89251 0.60187
 N691 N 0.33169 0.87110 0.41270
 N692 N 0.34933 0.89653 0.39195
 C693 C 0.32299 0.92619 0.38272
 C694 C 0.28865 0.91848 0.39870
 N695 N 0.29528 0.88368 0.41712
 H696 H 0.26205 0.93712 0.39784
 N697 N 0.15442 0.41128 0.71247
 N698 N 0.13674 0.38252 0.69368
 C699 C 0.11129 0.35937 0.71130
 C700 C 0.11358 0.37526 0.74146
 N701 N 0.14077 0.40759 0.74122
 H702 H 0.09402 0.36796 0.76059
 N703 N 0.07411 0.61660 0.21243
 N704 N 0.05808 0.64710 0.22969
 C705 C 0.05454 0.63083 0.25875
 C706 C 0.06889 0.58873 0.25879
 N707 N 0.08099 0.58133 0.22927
 H708 H 0.07144 0.56649 0.27829
 N709 N 0.86597 0.42794 0.29203
 N710 N 0.88261 0.40535 0.31471
 C711 C 0.90388 0.37432 0.30087
 C712 C 0.90006 0.37880 0.26882
 N713 N 0.87596 0.41260 0.26430
 H714 H 0.91636 0.36241 0.25081
 N715 N 0.89952 0.66253 0.77452
 N716 N 0.91522 0.68784 0.75274
 C717 C 0.92456 0.66166 0.72866
 C718 C 0.91361 0.61945 0.73626
 N719 N 0.89858 0.62118 0.76533
 H720 H 0.91771 0.59027 0.72243
 N721 N 0.73736 0.56583 0.88974
 N722 N 0.71358 0.57908 0.91183
 C723 C 0.73173 0.61281 0.92649
 C724 C 0.76749 0.62034 0.91228
 N725 N 0.76999 0.58980 0.88955
 H726 H 0.79119 0.64155 0.92034
 N727 N 0.17972 0.35949 0.89398
 N728 N 0.19696 0.33321 0.91414
 C729 C 0.22475 0.35717 0.92924
 C730 C 0.22397 0.39932 0.91764
 N731 N 0.19546 0.39928 0.89558
 H732 H 0.24297 0.42675 0.92377
 N733 N 0.16439 0.62149 0.10505
 N734 N 0.17950 0.65128 0.08617
 C735 C 0.20971 0.63252 0.07161
 C736 C 0.21278 0.59009 0.08216
 N737 N 0.18388 0.58460 0.10308
 H738 H 0.23443 0.56620 0.07606
 N739 N 0.83142 0.33770 0.11146
 N740 N 0.81795 0.31064 0.08948
 C741 C 0.78862 0.33123 0.07460
 C742 C 0.78408 0.37145 0.08850
 N743 N 0.81164 0.37451 0.11117
 H744 H 0.76357 0.39656 0.08217
 N745 N 0.87425 0.69741 0.56211
 N746 N 0.89814 0.67944 0.58267
 C747 C 0.91129 0.71181 0.60169
 C748 C 0.89441 0.75039 0.59231
 N749 N 0.87160 0.73980 0.56752
 H750 H 0.90019 0.78312 0.60103
 N751 N 0.90204 0.31280 0.46596
 N752 N 0.92526 0.32761 0.44359
 C753 C 0.92296 0.29835 0.41998
 C754 C 0.89761 0.26502 0.42856
 N755 N 0.88514 0.27536 0.45737
 H756 H 0.88958 0.23580 0.41553
 N757 N 0.11418 0.18057 0.60163
 N758 N 0.09149 0.19100 0.62523
 C759 C 0.07873 0.23167 0.61964
 C760 C 0.09399 0.24590 0.59155
 N761 N 0.11608 0.21294 0.58124
 H762 H 0.09167 0.27778 0.58087
 N763 N 0.16030 0.73622 0.37721
 N764 N 0.13531 0.72512 0.35469
 C765 C 0.10039 0.71907 0.36838
 C766 C 0.10449 0.72744 0.39994
 N767 N 0.14245 0.73877 0.40454
 H768 H 0.08120 0.73085 0.41670
 N769 N 0.61505 0.82143 0.76261
 N770 N 0.63682 0.84454 0.74287
 C771 C 0.61487 0.87826 0.73347
 C772 C 0.57928 0.87530 0.74808
 N773 N 0.58035 0.83942 0.76614
 H774 H 0.55520 0.89768 0.74620
 N775 N 0.36152 0.91660 0.20598
 N776 N 0.34158 0.93749 0.22765
 C777 C 0.36574 0.94240 0.25253
 C778 C 0.40098 0.92390 0.24553
 N779 N 0.39736 0.90845 0.21619
 H780 H 0.42711 0.92304 0.25999
 N781 N 0.64036 0.18709 0.24604
 N782 N 0.66233 0.16150 0.26365
 C783 C 0.63865 0.12888 0.27360
 C784 C 0.60164 0.13523 0.26178
 N785 N 0.60381 0.17183 0.24460
 H786 H 0.57643 0.11342 0.26337
 N787 N 0.36918 0.15593 0.76201
 N788 N 0.34690 0.13098 0.74341
 C789 C 0.36864 0.09639 0.73560
 C790 C 0.40460 0.10075 0.74987
 N791 N 0.40401 0.13832 0.76613
 H792 H 0.42894 0.07869 0.74846
 N793 N 0.60145 0.71149 0.11626
 N794 N 0.62243 0.68750 0.09713
 C795 C 0.63166 0.71289 0.07248
 C796 C 0.61563 0.75355 0.07712
 N797 N 0.59710 0.75122 0.10481
 H798 H 0.61477 0.78072 0.06100
 N799 N 0.39499 0.19397 0.07005
 N800 N 0.36829 0.20383 0.04880
 C801 C 0.36479 0.24763 0.04930
 C802 C 0.39039 0.26458 0.07159
 N803 N 0.40847 0.22984 0.08400
 H804 H 0.39507 0.29835 0.07839
 N805 N 0.62783 0.17018 0.92677
 N806 N 0.65714 0.18123 0.94573
 C807 C 0.66334 0.22455 0.94242
 C808 C 0.63663 0.23997 0.92086
 N809 N 0.61517 0.20481 0.91153
 H810 H 0.63325 0.27311 0.91266
 N811 N 0.36542 0.82211 0.93527
 N812 N 0.34015 0.80980 0.95695
 C813 C 0.33562 0.76611 0.95426
 C814 C 0.35840 0.75195 0.93005
 N815 N 0.37665 0.78789 0.91889
 H816 H 0.36206 0.71884 0.92177
 N817 N 0.68282 0.87186 0.40492
 N818 N 0.66585 0.89534 0.38289
 C819 C 0.69372 0.92210 0.37104
 C820 C 0.72840 0.91461 0.38669
 N821 N 0.72026 0.88307 0.40766
 H822 H 0.75579 0.93273 0.38497
 N823 N 0.32290 0.85686 0.58432
 N824 N 0.34052 0.88211 0.60551
 C825 C 0.31521 0.91377 0.61270
 C826 C 0.28145 0.90725 0.59532
 N827 N 0.28743 0.87130 0.57796
 H828 H 0.25596 0.92770 0.59420
 N829 N 0.34012 0.16214 0.41910
 N830 N 0.35747 0.13607 0.39895
 C831 C 0.32887 0.11121 0.38576
 C832 C 0.29355 0.12311 0.39791
 N833 N 0.30177 0.15494 0.41865
 H834 H 0.26509 0.10792 0.39389
 N835 N 0.66553 0.10777 0.57608
 N836 N 0.64581 0.08100 0.59469
 C837 C 0.67244 0.06143 0.61308
 C838 C 0.70918 0.07703 0.60529
 N839 N 0.70351 0.10598 0.58217
 H840 H 0.73723 0.06718 0.61457
 N841 N 0.89804 0.66696 0.21784
 N842 N 0.91672 0.69499 0.23652
 C843 C 0.91758 0.67678 0.26514
 C844 C 0.89817 0.63699 0.26349
 N845 N 0.88726 0.63144 0.23339
 H846 H 0.89530 0.61302 0.28191
 N847 N 0.95595 0.36926 0.79695
 N848 N 0.97411 0.34175 0.77853
 C849 C 0.96812 0.35532 0.74898
 C850 C 0.94589 0.39254 0.74974
 N851 N 0.93880 0.39990 0.78024
 H852 H 0.93484 0.41133 0.73028
 N853 N 0.13505 0.66410 0.74325
 N854 N 0.11470 0.68860 0.72362
 C855 C 0.07868 0.67014 0.72151
 C856 C 0.07756 0.63377 0.74032
 N857 N 0.11327 0.63090 0.75343
 H858 H 0.05355 0.61060 0.74319
 N859 N 0.05748 0.31728 0.21887
 N860 N 0.03932 0.29604 0.24168
 C861 C 0.04508 0.31991 0.26791
 C862 C 0.06751 0.35608 0.26057
 N863 N 0.07428 0.35365 0.22972
 H864 H 0.07575 0.38313 0.27575
   
