data_POSCAR
  _audit_creation_date              2014-09-24
  _audit_creation_method            'ToBaCCo'
  _symmetry_space_group_name_H-M    'P1'
  _symmetry_Int_Tables_number       1
  _symmetry_cell_setting            triclinic
  loop_
  _symmetry_equiv_pos_as_xyz
 x,y,z
_cell_length_a 39.7659
_cell_length_b 54.1710
_cell_length_c 36.8180
_cell_angle_alpha 90.072000
_cell_angle_beta 90.000000
_cell_angle_gamma 90.066800
loop_
  _atom_site_label
  _atom_site_type_symbol
  _atom_site_fract_x
  _atom_site_fract_y
  _atom_site_fract_z
O1 O 0.29143 0.22557 0.25330
 O2 O 0.24312 0.27355 0.20559
 O3 O 0.29135 0.27361 0.25337
 O4 O 0.24318 0.22546 0.20554
 O5 O 0.20571 0.22539 0.24963
 O6 O 0.25387 0.27356 0.29752
 O7 O 0.20562 0.27350 0.24973
 O8 O 0.25394 0.22551 0.29744
 Cu9 Cu 0.27101 0.24955 0.22502
 Cu10 Cu 0.22602 0.24949 0.27799
 C11 C 0.28097 0.21732 0.28355
 C12 C 0.21612 0.28179 0.21951
 C13 C 0.28087 0.28184 0.28365
 C14 C 0.21617 0.21709 0.21935
 O15 O 0.70755 0.27426 0.25121
 O16 O 0.75533 0.22623 0.20278
 O17 O 0.70762 0.22618 0.25122
 O18 O 0.75528 0.27426 0.20278
 O19 O 0.79323 0.27436 0.24639
 O20 O 0.74560 0.22628 0.29487
 O21 O 0.79331 0.22634 0.24643
 O22 O 0.74554 0.27436 0.29486
 Cu23 Cu 0.72763 0.25022 0.22264
 Cu24 Cu 0.77321 0.25035 0.27502
 C25 C 0.71836 0.28255 0.28133
 C26 C 0.78254 0.21808 0.21627
 C27 C 0.71845 0.21798 0.28135
 C28 C 0.78250 0.28257 0.21621
 O29 O 0.74562 0.77438 0.70518
 O30 O 0.79318 0.72632 0.75361
 O31 O 0.74545 0.72630 0.70519
 O32 O 0.79334 0.77434 0.75361
 O33 O 0.75542 0.77443 0.79725
 O34 O 0.70749 0.72638 0.74885
 O35 O 0.75521 0.72640 0.79729
 O36 O 0.70766 0.77446 0.74885
 Cu37 Cu 0.77318 0.75033 0.72502
 Cu38 Cu 0.72763 0.75043 0.77742
 C39 C 0.71849 0.78267 0.71873
 C40 C 0.78237 0.71815 0.78378
 C41 C 0.71826 0.71810 0.71873
 C42 C 0.78268 0.78264 0.78381
 O43 O 0.29150 0.77431 0.74675
 O44 O 0.24325 0.72627 0.79457
 O45 O 0.29145 0.72627 0.74674
 O46 O 0.24328 0.77436 0.79455
 O47 O 0.20578 0.77432 0.75050
 O48 O 0.25392 0.72622 0.70263
 O49 O 0.20572 0.72621 0.75048
 O50 O 0.25397 0.77427 0.70264
 Cu51 Cu 0.27111 0.75031 0.77508
 Cu52 Cu 0.22608 0.75025 0.72216
 C53 C 0.28102 0.78252 0.71649
 C54 C 0.21625 0.71797 0.78070
 C55 C 0.28094 0.71801 0.71648
 C56 C 0.21626 0.78267 0.78075
 C57 C 1.01886 0.01835 0.01877
 C58 C 0.98326 0.01851 0.01838
 C59 C 0.96595 -0.00019 -0.00028
 C60 C 0.98323 -0.01890 -0.01886
 C61 C 1.01883 -0.01878 -0.01909
 C62 C 1.03615 -0.00023 -0.00012
 H63 H 1.06342 -0.00024 -0.00006
 H64 H 0.93868 -0.00017 -0.00034
 C65 C 0.51806 0.51844 0.51949
 C66 C 0.48251 0.51926 0.51763
 C67 C 0.46526 0.50108 0.49786
 C68 C 0.48251 0.48186 0.48040
 C69 C 0.51805 0.48105 0.48221
 C70 C 0.53531 0.49923 0.50201
 H71 H 0.56256 0.49886 0.50286
 H72 H 0.43800 0.50144 0.49702
 C73 C -0.01775 0.48114 0.01890
 C74 C 0.01785 0.48127 0.01918
 C75 C 0.03519 0.49982 0.00029
 C76 C 0.01791 0.51839 -0.01856
 C77 C -0.01769 0.51854 -0.01821
 C78 C -0.03501 0.49985 0.00036
 H79 H -0.06228 0.49987 0.00039
 H80 H 0.06246 0.49981 0.00027
 C81 C 0.48314 0.98087 0.51744
 C82 C 0.51869 0.98178 0.51932
 C83 C 0.53593 1.00100 0.50184
 C84 C 0.51866 1.01910 0.48202
 C85 C 0.48312 1.01821 0.48018
 C86 C 0.46588 0.99898 0.49765
 H87 H 0.43863 0.99855 0.49679
 H88 H 0.56318 1.00144 0.50270
 C89 C 1.14990 0.17055 0.19801
 C90 C 1.16143 0.16133 0.16478
 C91 C 1.19107 0.17065 0.14962
 C92 C 1.20919 0.18912 0.16759
 C93 C 1.19790 0.19859 0.20116
 C94 C 1.16793 0.18902 0.21610
 C95 C 1.14286 0.14230 0.14621
 C96 C 1.12736 0.12639 0.13055
 C97 C 1.10925 0.10779 0.11207
 C98 C 1.09380 0.09198 0.09615
 C99 C 1.07535 0.07318 0.07694
 C100 C 1.08125 0.06925 0.03989
 C101 C 1.06305 0.05123 0.02106
 C102 C 1.03862 0.03705 0.03907
 C103 C 1.03315 0.04084 0.07637
 C104 C 1.05135 0.05889 0.09517
 H105 H 1.12695 0.16346 0.20998
 H106 H 1.20022 0.16364 0.12388
 H107 H 1.23206 0.19592 0.15511
 H108 H 1.15832 0.19574 0.24180
 H109 H 1.09979 0.08019 0.02553
 H110 H 1.06764 0.04858 -0.00768
 H111 H 1.01475 0.02987 0.09086
 H112 H 1.04666 0.06172 0.12386
 C113 C 0.65071 0.67118 0.69548
 C114 C 0.66245 0.66196 0.66230
 C115 C 0.69241 0.67109 0.64755
 C116 C 0.71059 0.68936 0.66588
 C117 C 0.69902 0.69875 0.69927
 C118 C 0.66885 0.68945 0.71387
 C119 C 0.64375 0.64315 0.64340
 C120 C 0.62807 0.62740 0.62759
 C121 C 0.60970 0.60896 0.60909
 C122 C 0.59397 0.59322 0.59332
 C123 C 0.57513 0.57444 0.57452
 C124 C 0.55222 0.58104 0.54735
 C125 C 0.53378 0.56282 0.52923
 C126 C 0.53789 0.53781 0.53831
 C127 C 0.56119 0.53130 0.56531
 C128 C 0.57965 0.54954 0.58339
 H129 H 0.62755 0.66424 0.70714
 H130 H 0.70171 0.66408 0.62187
 H131 H 0.73370 0.69611 0.65390
 H132 H 0.65925 0.69627 0.73950
 H133 H 0.54862 0.60024 0.54018
 H134 H 0.51631 0.56821 0.50812
 H135 H 0.56476 0.51212 0.57266
 H136 H 0.59735 0.54423 0.60434
 C137 C -0.15070 0.32833 0.19345
 C138 C -0.16236 0.33735 0.16019
 C139 C -0.19236 0.32823 0.14555
 C140 C -0.21067 0.31013 0.16404
 C141 C -0.19920 0.30083 0.19761
 C142 C -0.16891 0.31023 0.21205
 C143 C -0.14356 0.35599 0.14113
 C144 C -0.12780 0.37163 0.12524
 C145 C -0.10934 0.38999 0.10675
 C146 C -0.09358 0.40574 0.09110
 C147 C -0.07478 0.42463 0.07259
 C148 C -0.05078 0.41819 0.04643
 C149 C -0.03234 0.43657 0.02869
 C150 C -0.03758 0.46157 0.03716
 C151 C -0.06196 0.46791 0.06314
 C152 C -0.08040 0.44953 0.08083
 H153 H -0.12749 0.33528 0.20504
 H154 H -0.20162 0.33511 0.11980
 H155 H -0.23378 0.30345 0.15194
 H156 H -0.15915 0.30364 0.23774
 H157 H -0.04631 0.39899 0.03976
 H158 H -0.01399 0.43131 0.00838
 H159 H -0.06638 0.48708 0.07004
 H160 H -0.09893 0.45471 0.10100
 C161 C 0.34882 0.82937 0.69398
 C162 C 0.33745 0.83849 0.66064
 C163 C 0.30763 0.82935 0.64554
 C164 C 0.28923 0.81114 0.66369
 C165 C 0.30045 0.80183 0.69724
 C166 C 0.33047 0.81116 0.71219
 C167 C 0.35639 0.85722 0.64191
 C168 C 0.37227 0.87290 0.62624
 C169 C 0.39088 0.89124 0.60790
 C170 C 0.40680 0.90690 0.59223
 C171 C 0.42583 0.92558 0.57353
 C172 C 0.42139 0.92913 0.53617
 C173 C 0.43996 0.94721 0.51796
 C174 C 0.46330 0.96184 0.53691
 C175 C 0.46737 0.95837 0.57447
 C176 C 0.44881 0.94026 0.59265
 H177 H 0.37187 0.83632 0.70591
 H178 H 0.29860 0.83628 0.61974
 H179 H 0.26624 0.80435 0.65145
 H180 H 0.33981 0.80440 0.73795
 H181 H 0.40364 0.91790 0.52113
 H182 H 0.43642 0.94963 0.48901
 H183 H 0.48487 0.96970 0.58969
 H184 H 0.45235 0.93774 0.62158
 C185 C -0.15003 0.67151 -0.19261
 C186 C -0.16172 0.66248 -0.15934
 C187 C -0.19171 0.67159 -0.14467
 C188 C -0.20995 0.68969 -0.16317
 C189 C -0.19840 0.69892 -0.19665
 C190 C -0.16822 0.68962 -0.21118
 C191 C -0.14298 0.64382 -0.14030
 C192 C -0.12728 0.62817 -0.12442
 C193 C -0.10890 0.60979 -0.10596
 C194 C -0.09321 0.59403 -0.09031
 C195 C -0.07449 0.57511 -0.07182
 C196 C -0.05043 0.58153 -0.04569
 C197 C -0.03207 0.56314 -0.02797
 C198 C -0.03745 0.53814 -0.03644
 C199 C -0.06189 0.53182 -0.06239
 C200 C -0.08025 0.55022 -0.08005
 H201 H -0.12685 0.66458 -0.20422
 H202 H -0.20099 0.66471 -0.11893
 H203 H -0.23306 0.69646 -0.15124
 H204 H -0.15863 0.69632 -0.23687
 H205 H -0.04585 0.60073 -0.03903
 H206 H -0.01366 0.56837 -0.00769
 H207 H -0.06641 0.51265 -0.06927
 H208 H -0.09883 0.54506 -0.10020
 C209 C 0.30761 1.17043 0.35433
 C210 C 0.33740 1.16133 0.33917
 C211 C 0.34875 1.17052 0.30585
 C212 C 0.33041 1.18874 0.28772
 C213 C 0.30042 1.19802 0.30273
 C214 C 0.28922 1.18865 0.33626
 C215 C 0.35631 1.14258 0.35780
 C216 C 0.37218 1.12688 0.37337
 C217 C 0.39079 1.10849 0.39157
 C218 C 0.40671 1.09280 0.40710
 C219 C 0.42575 1.07407 0.42563
 C220 C 0.42124 1.04916 0.41667
 C221 C 0.43983 1.03097 0.43456
 C222 C 0.46325 1.03754 0.46146
 C223 C 0.46738 1.06256 0.47059
 C224 C 0.44881 1.08073 0.45267
 H225 H 0.29859 1.16344 0.38012
 H226 H 0.37178 1.16361 0.29388
 H227 H 0.33973 1.19555 0.26198
 H228 H 0.26625 1.19539 0.34855
 H229 H 0.40343 1.04381 0.39582
 H230 H 0.43625 1.01178 0.42716
 H231 H 0.48494 1.06798 0.49163
 H232 H 0.45240 1.09994 0.45991
 C233 C 1.14995 -0.17093 -0.19792
 C234 C 1.16150 -0.16166 -0.16471
 C235 C 1.19116 -0.17091 -0.14956
 C236 C 1.20929 -0.18935 -0.16752
 C237 C 1.19799 -0.19886 -0.20106
 C238 C 1.16799 -0.18937 -0.21599
 C239 C 1.14291 -0.14266 -0.14615
 C240 C 1.12740 -0.12677 -0.13051
 C241 C 1.10927 -0.10821 -0.11207
 C242 C 1.09380 -0.09241 -0.09619
 C243 C 1.07532 -0.07363 -0.07704
 C244 C 1.08109 -0.06971 -0.03997
 C245 C 1.06288 -0.05170 -0.02120
 C246 C 1.03858 -0.03750 -0.03931
 C247 C 1.03323 -0.04128 -0.07664
 C248 C 1.05143 -0.05933 -0.09537
 H249 H 1.12699 -0.16390 -0.20988
 H250 H 1.20031 -0.16386 -0.12383
 H251 H 1.23218 -0.19608 -0.15505
 H252 H 1.15837 -0.19613 -0.24167
 H253 H 1.09953 -0.08066 -0.02554
 H254 H 1.06738 -0.04906 0.00756
 H255 H 1.01493 -0.03030 -0.09120
 H256 H 1.04685 -0.06214 -0.12408
 C257 C 0.65087 0.32938 0.30465
 C258 C 0.66262 0.33859 0.33784
 C259 C 0.69258 0.32950 0.35257
 C260 C 0.71075 0.31126 0.33420
 C261 C 0.69915 0.30187 0.30081
 C262 C 0.66899 0.31115 0.28623
 C263 C 0.64392 0.35735 0.35678
 C264 C 0.62823 0.37305 0.37263
 C265 C 0.60983 0.39142 0.39116
 C266 C 0.59407 0.40711 0.40696
 C267 C 0.57519 0.42582 0.42578
 C268 C 0.57980 0.42942 0.46312
 C269 C 0.56131 0.44750 0.48145
 C270 C 0.53788 0.46206 0.46263
 C271 C 0.53367 0.45854 0.42507
 C272 C 0.55214 0.44045 0.40679
 H273 H 0.62770 0.33629 0.29301
 H274 H 0.70190 0.33650 0.37825
 H275 H 0.73386 0.30453 0.34617
 H276 H 0.65937 0.30432 0.26059
 H277 H 0.59760 0.41823 0.47807
 H278 H 0.56496 0.44996 0.51038
 H279 H 0.51611 0.46982 0.40995
 H280 H 0.54847 0.43788 0.37788
 C281 C 0.84974 -0.17176 -0.19350
 C282 C 0.83814 -0.16264 -0.16023
 C283 C 0.80810 -0.17165 -0.14557
 C284 C 0.78969 -0.18973 -0.16404
 C285 C 0.80108 -0.19912 -0.19762
 C286 C 0.83142 -0.18984 -0.21208
 C287 C 0.85705 -0.14402 -0.14119
 C288 C 0.87290 -0.12839 -0.12532
 C289 C 0.89145 -0.11005 -0.10685
 C290 C 0.90728 -0.09431 -0.09120
 C291 C 0.92615 -0.07541 -0.07270
 C292 C 0.95017 -0.08185 -0.04657
 C293 C 0.96863 -0.06348 -0.02880
 C294 C 0.96341 -0.03847 -0.03720
 C295 C 0.93903 -0.03213 -0.06316
 C296 C 0.92056 -0.05052 -0.08087
 H297 H 0.87297 -0.16489 -0.20510
 H298 H 0.79889 -0.16470 -0.11982
 H299 H 0.76654 -0.19631 -0.15192
 H300 H 0.84112 -0.19651 -0.23777
 H301 H 0.95461 -0.10106 -0.03995
 H302 H 0.98699 -0.06873 -0.00851
 H303 H 0.93462 -0.01297 -0.07000
 H304 H 0.90202 -0.04533 -0.10102
 C305 C 0.30736 0.32887 0.35454
 C306 C 0.33711 0.33806 0.33940
 C307 C 0.34849 0.32889 0.30606
 C308 C 0.33022 0.31059 0.28789
 C309 C 0.30026 0.30121 0.30288
 C310 C 0.28903 0.31056 0.33644
 C311 C 0.35596 0.35690 0.35805
 C312 C 0.37177 0.37268 0.37364
 C313 C 0.39033 0.39115 0.39185
 C314 C 0.40620 0.40692 0.40738
 C315 C 0.42520 0.42574 0.42590
 C316 C 0.42064 0.45062 0.41694
 C317 C 0.43921 0.46890 0.43481
 C318 C 0.46266 0.46244 0.46170
 C319 C 0.46684 0.43745 0.47084
 C320 C 0.44829 0.41920 0.45293
 H321 H 0.29832 0.33584 0.38035
 H322 H 0.37150 0.33588 0.29409
 H323 H 0.33956 0.30380 0.26212
 H324 H 0.26609 0.30375 0.34871
 H325 H 0.40281 0.45589 0.39611
 H326 H 0.43558 0.48806 0.42741
 H327 H 0.48442 0.43211 0.49187
 H328 H 0.45192 0.40001 0.46017
 C329 C 0.19026 0.67068 -0.14877
 C330 C 0.16057 0.66136 -0.16395
 C331 C 0.14902 0.67059 -0.19716
 C332 C 0.16707 0.68905 -0.21518
 C333 C 0.19698 0.69852 -0.20017
 C334 C 0.20836 0.68913 -0.16673
 C335 C 0.14200 0.64234 -0.14543
 C336 C 0.12650 0.62643 -0.12982
 C337 C 0.10839 0.60784 -0.11142
 C338 C 0.09293 0.59202 -0.09557
 C339 C 0.07446 0.57323 -0.07645
 C340 C 0.05049 0.55892 -0.09477
 C341 C 0.03228 0.54087 -0.07606
 C342 C 0.03770 0.53709 -0.03876
 C343 C 0.06209 0.55128 -0.02066
 C344 C 0.08030 0.56930 -0.03941
 H345 H 0.19943 0.66367 -0.12307
 H346 H 0.12606 0.66351 -0.20914
 H347 H 0.15763 0.69586 -0.24086
 H348 H 0.23127 0.69601 -0.15444
 H349 H 0.04584 0.56174 -0.12346
 H350 H 0.01391 0.52989 -0.09062
 H351 H 0.06664 0.54864 0.00808
 H352 H 0.09881 0.58025 -0.02498
 C353 C 0.69281 1.17106 0.35258
 C354 C 0.66288 1.16184 0.33784
 C355 C 0.65111 1.17095 0.30466
 C356 C 0.66917 1.18922 0.28624
 C357 C 0.69930 1.19863 0.30082
 C358 C 0.71092 1.18933 0.33422
 C359 C 0.64425 1.14304 0.35677
 C360 C 0.62862 1.12730 0.37260
 C361 C 0.61027 1.10888 0.39111
 C362 C 0.59456 1.09317 0.40689
 C363 C 0.57572 1.07442 0.42568
 C364 C 0.55273 1.05969 0.40666
 C365 C 0.53429 1.04156 0.42491
 C366 C 0.53848 1.03811 0.46246
 C367 C 0.56186 1.05277 0.48131
 C368 C 0.58031 1.07088 0.46302
 H369 H 0.70215 1.16413 0.37826
 H370 H 0.62796 1.16394 0.29301
 H371 H 0.65952 1.19597 0.26061
 H372 H 0.73400 1.19616 0.34619
 H373 H 0.54907 1.06220 0.37774
 H374 H 0.51676 1.03021 0.40976
 H375 H 0.56548 1.05037 0.51025
 H376 H 0.59807 1.08215 0.47799
 C377 C 0.19004 0.32907 0.14907
 C378 C 0.16037 0.33833 0.16429
 C379 C 0.14885 0.32905 0.19750
 C380 C 0.16693 0.31062 0.21547
 C381 C 0.19682 0.30121 0.20042
 C382 C 0.20817 0.31064 0.16698
 C383 C 0.14178 0.35733 0.14582
 C384 C 0.12627 0.37322 0.13025
 C385 C 0.10816 0.39180 0.11188
 C386 C 0.09271 0.40761 0.09606
 C387 C 0.07426 0.42640 0.07697
 C388 C 0.05038 0.44071 0.09533
 C389 C 0.03220 0.45876 0.07665
 C390 C 0.03758 0.46255 0.03934
 C391 C 0.06188 0.44834 0.02120
 C392 C 0.08006 0.43032 0.03991
 H393 H 0.19919 0.33612 0.12337
 H394 H 0.12590 0.33608 0.20951
 H395 H 0.15751 0.30377 0.24115
 H396 H 0.23108 0.30381 0.15466
 H397 H 0.04577 0.43790 0.12403
 H398 H 0.01390 0.46975 0.09125
 H399 H 0.06640 0.45098 -0.00754
 H400 H 0.09851 0.41936 0.02546
 C401 C 0.65121 0.82963 0.69544
 C402 C 0.66297 0.83875 0.66224
 C403 C 0.69288 0.82955 0.64750
 C404 C 0.71098 0.81131 0.66585
 C405 C 0.69936 0.80201 0.69926
 C406 C 0.66925 0.81139 0.71386
 C407 C 0.64434 0.85752 0.64331
 C408 C 0.62871 0.87322 0.62747
 C409 C 0.61036 0.89160 0.60896
 C410 C 0.59464 0.90729 0.59317
 C411 C 0.57580 0.92600 0.57437
 C412 C 0.58030 0.95093 0.58322
 C413 C 0.56183 0.96910 0.56514
 C414 C 0.53853 0.96249 0.53814
 C415 C 0.53443 0.93745 0.52908
 C416 C 0.55289 0.91931 0.54720
 H417 H 0.62808 0.83662 0.70710
 H418 H 0.70222 0.83648 0.62180
 H419 H 0.73405 0.80449 0.65387
 H420 H 0.65962 0.80463 0.73950
 H421 H 0.59800 0.95631 0.60417
 H422 H 0.56539 0.98829 0.57248
 H423 H 0.51696 0.93199 0.50797
 H424 H 0.54930 0.90008 0.54003
 C425 C 0.85037 0.17159 0.19268
 C426 C 0.83871 0.16245 0.15941
 C427 C 0.80868 0.17145 0.14474
 C428 C 0.79035 0.18954 0.16324
 C429 C 0.80186 0.19887 0.19671
 C430 C 0.83210 0.18967 0.21123
 C431 C 0.85754 0.14380 0.14038
 C432 C 0.87332 0.12816 0.12453
 C433 C 0.89179 0.10978 0.10609
 C434 C 0.90755 0.09402 0.09047
 C435 C 0.92633 0.07510 0.07200
 C436 C 0.95046 0.08150 0.04595
 C437 C 0.96887 0.06310 0.02824
 C438 C 0.96348 0.03811 0.03663
 C439 C 0.93898 0.03180 0.06250
 C440 C 0.92057 0.05021 0.08015
 H441 H 0.87359 0.16473 0.20428
 H442 H 0.79942 0.16449 0.11901
 H443 H 0.76720 0.19622 0.15131
 H444 H 0.84166 0.19646 0.23691
 H445 H 0.95504 0.10070 0.03935
 H446 H 0.98732 0.06833 0.00802
 H447 H 0.93445 0.01264 0.06932
 H448 H 0.90194 0.04505 0.10024
 C449 C 0.30741 0.67104 0.64556
 C450 C 0.33719 0.66192 0.66066
 C451 C 0.34860 0.67112 0.69399
 C452 C 0.33032 0.68937 0.71219
 C453 C 0.30033 0.69867 0.69723
 C454 C 0.28907 0.68929 0.66369
 C455 C 0.35605 0.64314 0.64195
 C456 C 0.37187 0.62742 0.62630
 C457 C 0.39042 0.60903 0.60798
 C458 C 0.40628 0.59333 0.59234
 C459 C 0.42526 0.57461 0.57366
 C460 C 0.44822 0.55999 0.59280
 C461 C 0.46675 0.54186 0.57465
 C462 C 0.46267 0.53830 0.53709
 C463 C 0.43933 0.55285 0.51812
 C464 C 0.42079 0.57096 0.53632
 H465 H 0.29835 0.66405 0.61976
 H466 H 0.37163 0.66419 0.70592
 H467 H 0.33967 0.69618 0.73794
 H468 H 0.26610 0.69605 0.65145
 H469 H 0.45177 0.56259 0.62173
 H470 H 0.48424 0.53059 0.58988
 H471 H 0.43579 0.55037 0.48918
 H472 H 0.40305 0.58215 0.52126
   
