data_POSCAR
  _audit_creation_date              2014-09-24
  _audit_creation_method            'ToBaCCo'
  _symmetry_space_group_name_H-M    'P1'
  _symmetry_Int_Tables_number       1
  _symmetry_cell_setting            triclinic
  loop_
  _symmetry_equiv_pos_as_xyz
 x,y,z
_cell_length_a 42.6155
_cell_length_b 42.5499
_cell_length_c 42.7889
_cell_angle_alpha 89.953000
_cell_angle_beta 89.971300
_cell_angle_gamma 89.962500
loop_
  _atom_site_label
  _atom_site_type_symbol
  _atom_site_fract_x
  _atom_site_fract_y
  _atom_site_fract_z
N1 N 0.28520 0.36997 1.35251
 N2 N 0.28701 0.34719 1.37327
 C3 C 0.26339 0.35035 1.39402
 C4 C 0.24613 0.37642 1.38563
 C5 C 0.26042 0.38840 1.35930
 H6 H 0.25916 0.33505 1.41378
 H7 H 0.25346 0.40901 1.34619
 Cu8 Cu 0.32051 0.31618 1.37124
 Cu9 Cu 0.31539 0.37438 1.31855
 Cu10 Cu 0.37521 0.31899 1.31491
 N11 N 0.35404 0.28517 1.36921
 N12 N 0.37542 0.28646 1.34703
 C13 C 0.39602 0.26278 1.35100
 C14 C 0.38695 0.24594 1.37699
 C15 C 0.36032 0.26057 1.38809
 H16 H 0.41610 0.25824 1.33618
 H17 H 0.34671 0.25386 1.40838
 N18 N 0.37094 0.35373 1.28460
 N19 N 0.34818 0.37481 1.28601
 C20 C 0.35179 0.39549 1.26240
 C21 C 0.37796 0.38694 1.24556
 C22 C 0.38961 0.36048 1.26005
 H23 H 0.33664 0.41535 1.25780
 H24 H 0.41018 0.34726 1.25323
 H25 H 0.32753 0.32749 1.31579
 H26 H 0.35250 0.35284 1.34113
 N27 N 1.21555 0.63147 0.85358
 N28 N 1.21367 0.65422 0.87432
 C29 C 1.23726 0.65106 0.89507
 C30 C 1.25460 0.62503 0.88674
 C31 C 1.24034 0.61308 0.86041
 H32 H 1.24146 0.66633 0.91482
 H33 H 1.24733 0.59246 0.84738
 Cu34 Cu 1.18015 0.68520 0.87226
 Cu35 Cu 1.18544 0.62706 0.81958
 Cu36 Cu 1.12565 0.68241 0.81581
 N37 N 1.14666 0.71623 0.87007
 N38 N 1.12536 0.71492 0.84785
 C39 C 1.10469 0.73855 0.85173
 C40 C 1.11365 0.75538 0.87772
 C41 C 1.14027 0.74079 0.88892
 H42 H 1.08460 0.74300 0.83693
 H43 H 1.15375 0.74748 0.90926
 N44 N 1.12996 0.64773 0.78557
 N45 N 1.15271 0.62666 0.78700
 C46 C 1.14914 0.60600 0.76341
 C47 C 1.12299 0.61458 0.74655
 C48 C 1.11132 0.64101 0.76102
 H49 H 1.16428 0.58613 0.75883
 H50 H 1.09074 0.65422 0.75420
 H51 H 1.17337 0.67395 0.81686
 H52 H 1.14831 0.64851 0.84215
 N53 N 0.71429 -0.13000 0.14639
 N54 N 0.71256 -0.15288 0.12578
 C55 C 0.73595 -0.14953 0.10483
 C56 C 0.75302 -0.12326 0.11287
 C57 C 0.73881 -0.11136 0.13927
 H58 H 0.74023 -0.16490 0.08516
 H59 H 0.74574 -0.09069 0.15224
 Cu60 Cu 0.67977 -0.18460 0.12818
 Cu61 Cu 0.68447 -0.12585 0.18059
 Cu62 Cu 0.62484 -0.18107 0.18462
 N63 N 0.64562 -0.21490 0.13033
 N64 N 0.62424 -0.21342 0.15250
 C65 C 0.60338 -0.23685 0.14849
 C66 C 0.61229 -0.25370 0.12247
 C67 C 0.63908 -0.23935 0.11142
 H68 H 0.58328 -0.24124 0.16331
 H69 H 0.65266 -0.24617 0.09115
 N70 N 0.62936 -0.14658 0.21500
 N71 N 0.65210 -0.12555 0.21346
 C72 C 0.64865 -0.10491 0.23711
 C73 C 0.62259 -0.11347 0.25411
 C74 C 0.61085 -0.13988 0.23967
 H75 H 0.66379 -0.08504 0.24157
 H76 H 0.59028 -0.15304 0.24657
 H77 H 0.67259 -0.17286 0.18355
 H78 H 0.64764 -0.14769 0.15781
 N79 N -0.21612 1.12949 -0.35311
 N80 N -0.21435 1.15238 -0.37374
 C81 C -0.23788 1.14924 -0.39454
 C82 C -0.25509 1.12310 -0.38635
 C83 C -0.24082 1.11105 -0.36004
 H84 H -0.24216 1.16463 -0.41421
 H85 H -0.24773 1.09034 -0.34709
 Cu86 Cu -0.18105 1.18350 -0.37150
 Cu87 Cu -0.18597 1.12498 -0.31912
 Cu88 Cu -0.12649 1.18059 -0.31508
 N89 N -0.14777 1.21467 -0.36917
 N90 N -0.12645 1.21333 -0.34696
 C91 C -0.10596 1.23712 -0.35075
 C92 C -0.11504 1.25405 -0.37666
 C93 C -0.14154 1.23937 -0.38792
 H94 H -0.08588 1.24158 -0.33595
 H95 H -0.15506 1.24609 -0.40825
 N96 N -0.13059 1.14565 -0.28503
 N97 N -0.15324 1.12450 -0.28656
 C98 C -0.14955 1.10371 -0.26305
 C99 C -0.12345 1.11229 -0.24616
 C100 C -0.11193 1.13886 -0.26051
 H101 H -0.16463 1.08379 -0.25853
 H102 H -0.09147 1.15215 -0.25358
 H103 H -0.17415 1.17197 -0.31612
 H104 H -0.14895 1.14682 -0.34156
 N105 N 0.71605 0.62879 0.64614
 N106 N 0.71421 0.65118 0.62499
 C107 C 0.73766 0.64749 0.60415
 C108 C 0.75487 0.62149 0.61285
 C109 C 0.74069 0.61011 0.63950
 H110 H 0.74196 0.66249 0.58419
 H111 H 0.74775 0.58980 0.65300
 Cu112 Cu 0.68137 0.68289 0.62694
 Cu113 Cu 0.68627 0.62535 0.68055
 Cu114 Cu 0.62716 0.68135 0.68394
 N115 N 0.64792 0.71398 0.62883
 N116 N 0.62685 0.71327 0.65131
 C117 C 0.60652 0.73718 0.64732
 C118 C 0.61542 0.75358 0.62101
 C119 C 0.64168 0.73842 0.60974
 H120 H 0.58676 0.74224 0.66237
 H121 H 0.65513 0.74476 0.58925
 N122 N 0.63140 0.64718 0.71478
 N123 N 0.65391 0.62584 0.71351
 C124 C 0.65025 0.60555 0.73745
 C125 C 0.62431 0.61467 0.75436
 C126 C 0.61286 0.64102 0.73956
 H127 H 0.66514 0.58552 0.74217
 H128 H 0.59242 0.65450 0.74628
 H129 H 0.64929 0.64699 0.65787
 H130 H 0.67478 0.67245 0.68263
 N131 N 0.78508 0.37121 0.14867
 N132 N 0.78659 0.34847 0.12790
 C133 C 0.76294 0.35192 0.10727
 C134 C 0.74597 0.37815 0.11568
 C135 C 0.76048 0.38991 0.14197
 H136 H 0.75847 0.33671 0.08753
 H137 H 0.75372 0.41053 0.15511
 Cu138 Cu 0.81972 0.31710 0.12982
 Cu139 Cu 0.81535 0.37514 0.18258
 Cu140 Cu 0.87460 0.31911 0.18593
 N141 N 0.85289 0.28576 0.13164
 N142 N 0.87437 0.28676 0.15370
 C143 C 0.89471 0.26288 0.14955
 C144 C 0.88536 0.24622 0.12359
 C145 C 0.85883 0.26117 0.11271
 H146 H 0.91482 0.25807 0.16421
 H147 H 0.84510 0.25468 0.09247
 N148 N 0.87071 0.35373 0.21635
 N149 N 0.84817 0.37504 0.21507
 C150 C 0.85196 0.39550 0.23880
 C151 C 0.87803 0.38654 0.25558
 C152 C 0.88942 0.36009 0.24093
 H153 H 0.83700 0.41547 0.24354
 H154 H 0.90984 0.34660 0.24768
 H155 H 0.85223 0.35329 0.15987
 H156 H 0.82706 0.32812 0.18523
 N157 N 0.28481 0.12970 0.85234
 N158 N 0.28658 0.15205 0.87350
 C159 C 0.26303 0.14837 0.89423
 C160 C 0.24583 0.12244 0.88543
 C161 C 0.26012 0.11108 0.85884
 H162 H 0.25866 0.16334 0.91418
 H163 H 0.25309 0.09082 0.84530
 Cu164 Cu 0.31944 0.18370 0.87167
 Cu165 Cu 0.31470 0.12625 0.81807
 Cu166 Cu 0.37389 0.18213 0.81488
 N167 N 0.35293 0.21472 0.86991
 N168 N 0.37409 0.21401 0.84751
 C169 C 0.39438 0.23790 0.85156
 C170 C 0.38537 0.25428 0.87783
 C171 C 0.35907 0.23913 0.88900
 H172 H 0.41418 0.24297 0.83657
 H173 H 0.34553 0.24547 0.90943
 N174 N 0.36971 0.14799 0.78404
 N175 N 0.34717 0.12671 0.78526
 C176 C 0.35085 0.10644 0.76136
 C177 C 0.37685 0.11548 0.74452
 C178 C 0.38832 0.14179 0.75932
 H179 H 0.33593 0.08646 0.75662
 H180 H 0.40880 0.15521 0.75266
 H181 H 0.35163 0.14780 0.84089
 H182 H 0.32626 0.17336 0.81601
 N183 N 0.21403 0.86980 0.35286
 N184 N 0.21228 0.84734 0.37394
 C185 C 0.23582 0.85093 0.39467
 C186 C 0.25299 0.87694 0.38594
 C187 C 0.23871 0.88841 0.35941
 H188 H 0.24019 0.83587 0.41456
 H189 H 0.24571 0.90875 0.34594
 Cu190 Cu 0.17943 0.81566 0.37206
 Cu191 Cu 0.18417 0.87339 0.31861
 Cu192 Cu 0.12495 0.81759 0.31531
 N193 N 0.14581 0.78478 0.37025
 N194 N 0.12465 0.78563 0.34788
 C195 C 0.10425 0.76182 0.35193
 C196 C 0.11318 0.74535 0.37818
 C197 C 0.13955 0.76035 0.38933
 H198 H 0.08442 0.75687 0.33695
 H199 H 0.15308 0.75389 0.40973
 N200 N 0.12921 0.85180 0.28452
 N201 N 0.15175 0.87306 0.28579
 C202 C 0.14813 0.89340 0.26190
 C203 C 0.12215 0.88441 0.24503
 C204 C 0.11065 0.85806 0.25979
 H205 H 0.16308 0.91337 0.25718
 H206 H 0.09019 0.84465 0.25308
 H207 H 0.14726 0.85176 0.34143
 H208 H 0.17262 0.82630 0.31643
 Zn209 Zn -0.01753 1.00246 0.03911
 Zn210 Zn 0.03895 0.98319 0.00275
 Zn211 Zn -0.02521 0.97474 -0.02491
 Zn212 Zn 0.00198 1.03929 -0.01692
 O213 O -0.00051 0.99987 -0.00005
 O214 O 0.00788 0.98752 0.06898
 O215 O 0.04284 0.94765 -0.01895
 O216 O -0.05902 0.95973 -0.00455
 O217 O 0.04990 0.97331 0.04193
 O218 O -0.05298 0.98045 0.04260
 O219 O -0.00442 0.94098 -0.03957
 O220 O -0.01984 1.04278 -0.05232
 O221 O 0.06876 1.00883 -0.01211
 O222 O -0.04006 0.99520 -0.05865
 O223 O 0.04126 1.05052 -0.02678
 O224 O -0.01313 1.06919 0.00840
 O225 O -0.02759 1.04181 0.05005
 C226 C 0.03517 0.97577 0.06754
 C227 C 0.02375 0.93216 -0.03556
 C228 C -0.06815 0.96367 0.02341
 C229 C -0.03631 1.02339 -0.06761
 C230 C 0.06711 1.03604 -0.02407
 C231 C -0.02504 1.06762 0.03550
 Zn232 Zn 0.45986 0.01691 0.50214
 Zn233 Zn 0.49683 -0.03921 0.48254
 Zn234 Zn 0.52402 0.02537 0.47444
 Zn235 Zn 0.51633 -0.00244 0.53848
 O236 O 0.49932 0.00021 0.49934
 O237 O 0.43005 -0.00879 0.48743
 O238 O 0.51856 -0.04263 0.44708
 O239 O 0.50322 0.05915 0.45975
 O240 O 0.45754 -0.05052 0.47289
 O241 O 0.45594 0.05248 0.48035
 O242 O 0.53889 0.00491 0.44071
 O243 O 0.55169 0.01964 0.54196
 O244 O 0.51216 -0.06912 0.50778
 O245 O 0.55782 0.04040 0.49480
 O246 O 0.52658 -0.04177 0.54940
 O247 O 0.49089 0.01239 0.56838
 O248 O 0.44894 0.02679 0.54133
 C249 C 0.43169 -0.03604 0.47561
 C250 C 0.53508 -0.02326 0.43177
 C251 C 0.47506 0.06798 0.46373
 C252 C 0.56688 0.03646 0.52277
 C253 C 0.52417 -0.06756 0.53482
 C254 C 0.46364 0.02423 0.56694
 Zn255 Zn 1.00455 0.45831 0.48476
 Zn256 Zn 1.04139 0.51449 0.50430
 Zn257 Zn 0.97718 0.52279 0.47666
 Zn258 Zn 0.98494 0.49516 0.54072
 O259 O 1.00197 0.49774 0.50156
 O260 O 1.04387 0.44713 0.47495
 O261 O 1.04517 0.55006 0.48251
 O262 O 0.96237 0.50233 0.44298
 O263 O 1.07127 0.48888 0.48945
 O264 O 0.98277 0.45481 0.44933
 O265 O 0.99786 0.55654 0.46192
 O266 O 0.94948 0.51721 0.54420
 O267 O 1.05231 0.52443 0.54348
 O268 O 0.94336 0.53781 0.49698
 O269 O 1.01035 0.51008 0.57056
 O270 O 0.97481 0.45583 0.55168
 O271 O 0.98934 0.42841 0.51009
 C272 C 1.06968 0.46166 0.47755
 C273 C 1.02598 0.56546 0.46588
 C274 C 0.96621 0.47417 0.43403
 C275 C 0.93428 0.53395 0.52496
 C276 C 1.03758 0.52194 0.56910
 C277 C 0.97731 0.43001 0.53714
 Zn278 Zn 0.48347 0.49840 0.96070
 Zn279 Zn 0.47569 0.52592 1.02483
 Zn280 Zn 0.50303 0.46144 1.01659
 Zn281 Zn 0.53987 0.51769 0.99709
 O282 O 0.50046 0.50092 0.99986
 O283 O 0.44811 0.52057 0.95724
 O284 O 0.46088 0.50533 1.05853
 O285 O 0.48782 0.43160 0.99127
 O286 O 0.44190 0.54102 1.00450
 O287 O 0.47322 0.45910 0.94975
 O288 O 0.48130 0.45784 1.05204
 O289 O 0.56971 0.49206 1.01194
 O290 O 0.49639 0.55967 1.03958
 O291 O 0.54234 0.45021 1.02632
 O292 O 0.54366 0.55326 1.01884
 O293 O 0.55089 0.52753 0.95789
 O294 O 0.50897 0.51320 0.93081
 C295 C 0.43288 0.53726 0.97649
 C296 C 0.46476 0.47714 1.06742
 C297 C 0.47575 0.43325 0.96426
 C298 C 0.56813 0.46478 1.02374
 C299 C 0.52450 0.56862 1.03554
 C300 C 0.53625 0.52496 0.93226
 C301 C 1.22052 0.38824 0.40052
 C302 C 1.19779 0.39887 0.41357
 C303 C 1.17109 0.41154 0.42853
 C304 C 1.14815 0.42256 0.44087
 C305 C 1.12107 0.43575 0.45464
 C306 C 1.09773 0.44735 0.46563
 C307 C 0.28163 0.61255 0.90251
 C308 C 0.30435 0.60187 0.91552
 C309 C 0.33107 0.58909 0.93033
 C310 C 0.35405 0.57788 0.94239
 C311 C 0.38123 0.56431 0.95561
 C312 C 0.40467 0.55226 0.96586
 C313 C -0.21995 0.88919 0.09708
 C314 C -0.19718 0.89980 0.08410
 C315 C -0.17035 0.91246 0.06938
 C316 C -0.14726 0.92353 0.05739
 C317 C -0.11997 0.93693 0.04425
 C318 C -0.09643 0.94883 0.03404
 C319 C 0.71795 0.11067 0.59777
 C320 C 0.69530 0.10011 0.58459
 C321 C 0.66865 0.08755 0.56953
 C322 C 0.64570 0.07655 0.55726
 C323 C 0.61855 0.06322 0.54383
 C324 C 0.59510 0.05133 0.53346
 C325 C 0.40140 0.22022 0.38925
 C326 C 0.41410 0.19736 0.40014
 C327 C 0.42865 0.17045 0.41297
 C328 C 0.44059 0.14730 0.42408
 C329 C 0.45379 0.11993 0.43738
 C330 C 0.46414 0.09633 0.44913
 C331 C 0.89956 0.27962 0.61101
 C332 C 0.91249 0.30228 0.60006
 C333 C 0.92747 0.32888 0.58716
 C334 C 0.93991 0.35173 0.57604
 C335 C 0.95390 0.37870 0.56281
 C336 C 0.96511 0.40198 0.55127
 C337 C 0.09896 0.78091 -0.10999
 C338 C 0.08599 0.80359 -0.09910
 C339 C 0.07108 0.83026 -0.08629
 C340 C 0.05883 0.85323 -0.07520
 C341 C 0.04530 0.88041 -0.06192
 C342 C 0.03475 0.90389 -0.05017
 C343 C 0.59772 0.72066 1.11028
 C344 C 0.58500 0.69784 1.09942
 C345 C 0.57051 0.67096 1.08659
 C346 C 0.55865 0.64782 1.07543
 C347 C 0.54557 0.62049 1.06204
 C348 C 0.53532 0.59693 1.05021
 C349 C 0.39063 0.40253 1.21856
 C350 C 0.40132 0.41550 1.19587
 C351 C 0.41399 0.43035 1.16918
 C352 C 0.42503 0.44253 1.14623
 C353 C 0.43833 0.45593 1.11909
 C354 C 0.45010 0.46633 1.09564
 C355 C 0.60994 -0.09778 0.28105
 C356 C 0.59918 -0.08475 0.30365
 C357 C 0.58638 -0.06984 0.33023
 C358 C 0.57520 -0.05765 0.35310
 C359 C 0.56175 -0.04430 0.38017
 C360 C 0.54985 -0.03395 0.40357
 C361 C -0.11080 1.09674 -0.21913
 C362 C -0.10008 1.08391 -0.19639
 C363 C -0.08734 1.06929 -0.16961
 C364 C -0.07623 1.05735 -0.14658
 C365 C -0.06286 1.04423 -0.11935
 C366 C -0.05103 1.03403 -0.09586
 C367 C 1.11036 0.59906 0.71955
 C368 C 1.09970 0.58614 0.69685
 C369 C 1.08712 0.57125 0.67020
 C370 C 1.07621 0.55890 0.64732
 C371 C 1.06315 0.54504 0.62033
 C372 C 1.05169 0.53396 0.59708
 C373 C 0.78206 0.60890 0.59743
 C374 C 0.80495 0.59820 0.58473
 C375 C 0.83189 0.58546 0.57028
 C376 C 0.85506 0.57431 0.55851
 C377 C 0.88242 0.56083 0.54560
 C378 C 0.90599 0.54885 0.53553
 C379 C 0.71894 0.39084 1.10010
 C380 C 0.69622 0.40160 1.08717
 C381 C 0.66952 0.41437 1.07233
 C382 C 0.64659 0.42546 1.06009
 C383 C 0.61952 0.43875 1.04643
 C384 C 0.59618 0.45042 1.03554
 C385 C 0.21859 1.10984 -0.09928
 C386 C 0.19569 1.09915 -0.08663
 C387 C 0.16878 1.08644 -0.07212
 C388 C 0.14571 1.07537 -0.06012
 C389 C 0.11853 1.06210 -0.04666
 C390 C 0.09515 1.05042 -0.03586
 C391 C 0.28020 -0.11046 0.40126
 C392 C 0.30309 -0.09971 0.41387
 C393 C 0.32999 -0.08691 0.42826
 C394 C 0.35306 -0.07573 0.44013
 C395 C 0.38023 -0.06231 0.45342
 C396 C 0.40362 -0.05052 0.46404
 C397 C 0.60040 -0.21913 0.60806
 C398 C 0.58783 -0.19621 0.59721
 C399 C 0.57326 -0.16930 0.58446
 C400 C 0.56112 -0.14622 0.57347
 C401 C 0.54741 -0.11902 0.56038
 C402 C 0.53634 -0.09563 0.54892
 C403 C 1.09818 0.71806 0.39113
 C404 C 1.08575 0.69508 0.40199
 C405 C 1.07152 0.66805 0.41482
 C406 C 1.05983 0.64482 0.42598
 C407 C 1.04690 0.61742 0.43939
 C408 C 1.03674 0.59381 0.45122
 C409 C -0.09968 1.21903 0.11040
 C410 C -0.08723 1.19619 0.09927
 C411 C -0.07291 1.16936 0.08615
 C412 C -0.06101 1.14631 0.07484
 C413 C -0.04764 1.11914 0.06142
 C414 C -0.03686 1.09574 0.04974
 C415 C 0.40027 0.28159 0.89080
 C416 C 0.41273 0.30455 0.90165
 C417 C 0.42714 0.33150 0.91442
 C418 C 0.43915 0.35460 0.92545
 C419 C 0.45272 0.38181 0.93859
 C420 C 0.46369 0.40519 0.95011
 C421 C 0.61142 0.59952 0.78149
 C422 C 0.60042 0.58696 0.80425
 C423 C 0.58733 0.57256 0.83097
 C424 C 0.57596 0.56065 0.85389
 C425 C 0.56240 0.54731 0.88092
 C426 C 0.55060 0.53662 0.90422
 C427 C 0.38971 0.10024 0.71746
 C428 C 0.40058 0.08751 0.69475
 C429 C 0.41344 0.07283 0.66809
 C430 C 0.42457 0.06066 0.64522
 C431 C 0.43784 0.04702 0.61822
 C432 C 0.44944 0.03610 0.59494
 C433 C 0.10932 0.89971 0.21797
 C434 C 0.09843 0.91246 0.19527
 C435 C 0.08553 0.92715 0.16864
 C436 C 0.07435 0.93933 0.14577
 C437 C 0.06103 0.95297 0.11879
 C438 C 0.04940 0.96389 0.09553
 C439 C 0.89084 0.40174 0.28267
 C440 C 0.90172 0.41433 0.30544
 C441 C 0.91467 0.42871 0.33220
 C442 C 0.92595 0.44047 0.35521
 C443 C 0.93950 0.45343 0.38239
 C444 C 0.95145 0.46354 0.40584
   
