data_POSCAR
  _audit_creation_date              2014-09-24
  _audit_creation_method            'ToBaCCo'
  _symmetry_space_group_name_H-M    'P1'
  _symmetry_Int_Tables_number       1
  _symmetry_cell_setting            triclinic
  loop_
  _symmetry_equiv_pos_as_xyz
 x,y,z
_cell_length_a 19.4544
_cell_length_b 19.6315
_cell_length_c 35.3119
_cell_angle_alpha 90.920500
_cell_angle_beta 92.907500
_cell_angle_gamma 104.503600
loop_
  _atom_site_label
  _atom_site_type_symbol
  _atom_site_fract_x
  _atom_site_fract_y
  _atom_site_fract_z
C1 C -0.03819 0.67106 0.99749
 C2 C -0.04179 0.63674 1.03231
 C3 C -0.03099 0.56845 1.03271
 C4 C -0.01138 0.53682 1.00016
 C5 C -0.00390 0.57505 0.96644
 C6 C -0.02032 0.64087 0.96414
 C7 C -0.00035 0.46363 1.00120
 C8 C -0.00761 0.42146 0.96762
 C9 C 0.00216 0.35313 0.96850
 C10 C 0.01668 0.32530 1.00333
 C11 C 0.02271 0.36493 1.03719
 C12 C 0.01595 0.43437 1.03589
 H13 H -0.04220 0.72495 0.99696
 H14 H -0.04097 0.53894 1.05824
 H15 H 0.01214 0.55239 0.94142
 H16 H -0.02303 0.43992 0.94062
 H17 H 0.02240 0.27182 1.00412
 H18 H 0.02421 0.46500 1.06217
 C19 C 0.33591 0.04770 0.50227
 C20 C 0.37216 0.03757 0.53616
 C21 C 0.43936 0.02348 0.53474
 C22 C 0.47292 0.02288 0.50010
 C23 C 0.43521 0.03510 0.46659
 C24 C 0.36628 0.04484 0.46742
 C25 C 0.54531 0.00750 0.49880
 C26 C 0.57028 -0.01173 0.46422
 C27 C 0.63726 -0.02654 0.46246
 C28 C 0.67706 -0.02733 0.49671
 C29 C 0.65354 -0.01107 0.53190
 C30 C 0.58949 0.00999 0.53221
 H31 H 0.28228 0.05424 0.50280
 H32 H 0.46415 0.01256 0.56111
 H33 H 0.45806 0.03724 0.43931
 H34 H 0.53685 -0.01852 0.43850
 H35 H 0.73046 -0.03396 0.49589
 H36 H 0.57327 0.02554 0.55895
 C37 C 0.11037 0.07185 0.28590
 H38 H 0.10715 0.11476 0.26778
 C39 C 0.16620 0.08121 0.31357
 H40 H 0.20539 0.13133 0.31656
 C41 C 0.06349 -0.04517 0.30475
 H42 H 0.02298 -0.09415 0.30143
 C43 C 0.11917 -0.03855 0.33220
 H44 H 0.12075 -0.08243 0.35014
 N45 N 0.05957 0.00980 0.28248
 C46 C -0.09792 -0.10979 0.19915
 H47 H -0.14101 -0.08565 0.20414
 C48 C -0.10770 -0.16475 0.17230
 H49 H -0.15895 -0.18333 0.15710
 C50 C 0.02212 -0.11267 0.21195
 H51 H 0.07320 -0.09052 0.22661
 C52 C 0.01467 -0.16775 0.18525
 H53 H 0.06047 -0.18746 0.17956
 Zn54 Zn -0.02153 -0.00130 0.24829
 N55 N -0.03348 -0.08414 0.21782
 C56 C -0.00455 0.06225 0.17792
 N57 N -0.00970 0.07677 0.21533
 C58 C -0.00318 0.14415 0.22809
 C59 C 0.00810 0.19959 0.20273
 C60 C 0.00748 0.11579 0.15188
 C61 C -0.12615 -0.07654 0.29305
 C62 C -0.18007 -0.08793 0.31849
 C63 C -0.18802 0.03174 0.31035
 C64 C -0.13454 0.04049 0.28449
 N65 N -0.10305 -0.01260 0.27737
 H66 H -0.00868 0.00906 0.16800
 H67 H -0.00521 0.15529 0.25804
 H68 H 0.01345 0.25291 0.21322
 H69 H 0.01087 0.10262 0.12225
 H70 H -0.10154 -0.11856 0.28639
 H71 H -0.19662 -0.13906 0.33095
 H72 H -0.20915 0.07610 0.31735
 H73 H -0.11668 0.09057 0.27140
 C74 C -0.05045 -0.19325 0.16434
 C75 C 0.17067 0.02566 0.33724
 C76 C -0.21001 -0.03260 0.32862
 C77 C 0.01425 0.18552 0.16412
 C78 C 0.02324 0.13454 0.77622
 H79 H 0.01913 0.14466 0.74627
 C80 C 0.01624 0.18539 0.80310
 H81 H 0.00731 0.23485 0.79369
 C82 C 0.03590 0.05642 0.82502
 H83 H 0.04268 0.00601 0.83374
 C84 C 0.02909 0.10528 0.85260
 H85 H 0.03205 0.09204 0.88219
 N86 N 0.03210 0.07118 0.78760
 C87 C 0.12855 -0.04667 0.70973
 H88 H 0.09622 -0.09837 0.71560
 C89 C 0.18024 -0.03992 0.68317
 H90 H 0.18730 -0.08696 0.66916
 C91 C 0.15218 0.07728 0.71769
 H92 H 0.13925 0.12272 0.73028
 C93 C 0.20464 0.08646 0.69122
 H94 H 0.23281 0.13927 0.68430
 Zn95 Zn 0.02957 -0.00297 0.75199
 N96 N 0.11440 0.01144 0.72575
 C97 C -0.03338 -0.01343 0.67838
 N98 N -0.04684 -0.00802 0.71556
 C99 C -0.11202 -0.00355 0.72606
 C100 C -0.16715 -0.00595 0.69852
 C101 C -0.08655 -0.01623 0.65017
 C102 C 0.07524 -0.10256 0.79615
 C103 C 0.06783 -0.15660 0.82200
 C104 C -0.05964 -0.18129 0.81061
 C105 C -0.04980 -0.12709 0.78474
 N106 N 0.01679 -0.08788 0.77875
 H107 H 0.01873 -0.01551 0.67026
 H108 H -0.12111 0.00215 0.75578
 H109 H -0.21899 -0.00317 0.70719
 H110 H -0.07418 -0.02003 0.62077
 H111 H 0.12752 -0.06956 0.79164
 H112 H 0.11474 -0.16496 0.83710
 H113 H -0.11312 -0.21027 0.81620
 H114 H -0.09554 -0.11420 0.77096
 C115 C 0.21771 0.02733 0.67273
 C116 C 0.01765 0.17018 0.84184
 C117 C -0.00041 -0.19519 0.83039
 C118 C -0.15467 -0.01316 0.66001
 C119 C -0.08892 -0.27424 0.06521
 C120 C -0.05232 -0.32797 0.06621
 C121 C -0.02204 -0.34173 0.10163
 C122 C -0.02347 -0.29970 0.13385
 C123 C -0.05630 -0.24373 0.13183
 C124 C -0.09069 -0.23283 0.09743
 H125 H -0.11668 -0.26366 0.03952
 H126 H 0.00754 -0.38148 0.10426
 H127 H 0.00282 -0.30983 0.16016
 H128 H -0.11666 -0.19023 0.09488
 C129 C 0.07790 0.28670 0.07727
 C130 C 0.03139 0.33090 0.07373
 C131 C -0.01355 0.33450 0.10327
 C132 C -0.01600 0.29035 0.13423
 C133 C 0.02632 0.24194 0.13600
 C134 C 0.07529 0.24262 0.10802
 H135 H 0.11399 0.28385 0.05527
 H136 H -0.05019 0.36786 0.10115
 H137 H -0.05426 0.29074 0.15542
 H138 H 0.10954 0.20678 0.10914
 C139 C 0.34166 -0.01151 0.60033
 C140 C 0.33803 0.03868 0.57285
 C141 C 0.29926 0.08861 0.58004
 C142 C 0.26270 0.08673 0.61321
 C143 C 0.26423 0.03501 0.64010
 C144 C 0.30537 -0.01317 0.63361
 H145 H 0.37049 -0.05113 0.59558
 H146 H 0.29626 0.12856 0.55966
 H147 H 0.23085 0.12408 0.61699
 H148 H 0.30829 -0.05321 0.65393
 C149 C -0.30292 0.02924 0.59787
 C150 C -0.30497 -0.01527 0.56571
 C151 C -0.26268 -0.06416 0.56764
 C152 C -0.21681 -0.06527 0.59900
 C153 C -0.21119 -0.01758 0.62961
 C154 C -0.25618 0.02830 0.62934
 H155 H -0.33332 0.06842 0.59802
 H156 H -0.26532 -0.10278 0.54502
 H157 H -0.18463 -0.10302 0.59902
 H158 H -0.25275 0.06580 0.65262
 C159 C -0.06292 -0.27728 0.92251
 C160 C -0.01807 -0.32280 0.92953
 C161 C 0.02916 -0.32970 0.90141
 C162 C 0.03376 -0.28977 0.86869
 C163 C -0.00971 -0.24322 0.86274
 C164 C -0.05888 -0.23842 0.88966
 H165 H -0.10256 -0.27221 0.94206
 H166 H 0.06598 -0.36244 0.90539
 H167 H 0.07223 -0.29436 0.84830
 H168 H -0.09289 -0.20269 0.88594
 C169 C -0.04042 0.23876 0.93226
 C170 C -0.00247 0.30974 0.93327
 C171 C 0.03619 0.33672 0.90190
 C172 C 0.04045 0.29219 0.87114
 C173 C 0.00606 0.22012 0.87138
 C174 C -0.03631 0.19452 0.90167
 H175 H -0.07174 0.21700 0.95574
 H176 H 0.06606 0.39129 0.90209
 H177 H 0.07343 0.31328 0.84816
 H178 H -0.06493 0.13961 0.90214
 C179 C -0.35052 -0.00392 0.39406
 C180 C -0.33365 -0.03704 0.42729
 C181 C -0.28227 -0.07640 0.42517
 C182 C -0.24467 -0.07709 0.39270
 C183 C -0.25774 -0.03958 0.36078
 C184 C -0.31269 -0.00484 0.36139
 H185 H -0.38903 0.02742 0.39382
 H186 H -0.27012 -0.10678 0.44874
 H187 H -0.20294 -0.10467 0.39344
 H188 H -0.32508 0.02352 0.33699
 C189 C 0.31468 -0.00949 0.40455
 C190 C 0.32298 0.04541 0.43174
 C191 C 0.28455 0.09655 0.42621
 C192 C 0.23729 0.09184 0.39450
 C193 C 0.22664 0.03512 0.36825
 C194 C 0.26645 -0.01495 0.37327
 H195 H 0.34319 -0.04994 0.40843
 H196 H 0.29007 0.13927 0.44685
 H197 H 0.20680 0.13081 0.39131
 H198 H 0.25923 -0.05898 0.35331
   
