data_POSCAR
  _audit_creation_date              2014-09-24
  _audit_creation_method            'ToBaCCo'
  _symmetry_space_group_name_H-M    'P1'
  _symmetry_Int_Tables_number       1
  _symmetry_cell_setting            triclinic
  loop_
  _symmetry_equiv_pos_as_xyz
 x,y,z
_cell_length_a 58.2442
_cell_length_b 57.1775
_cell_length_c 58.3113
_cell_angle_alpha 89.915300
_cell_angle_beta 90.014000
_cell_angle_gamma 90.009300
loop_
  _atom_site_label
  _atom_site_type_symbol
  _atom_site_fract_x
  _atom_site_fract_y
  _atom_site_fract_z
N1 N 0.59853 0.66204 0.61567
 N2 N 0.58985 0.65279 0.63443
 C3 C 0.57115 0.66511 0.64068
 C4 C 0.56812 0.68289 0.62500
 C5 C 0.58569 0.68054 0.60935
 H6 H 0.56051 0.66146 0.65546
 H7 H 0.58885 0.69145 0.59451
 Cu8 Cu 0.60380 0.62554 0.64880
 Cu9 Cu 0.62575 0.64941 0.60081
 Cu10 Cu 0.65043 0.60027 0.62551
 N11 N 0.61756 0.59766 0.66216
 N12 N 0.63580 0.58787 0.65296
 C13 C 0.64178 0.56899 0.66545
 C14 C 0.62643 0.56699 0.68332
 C15 C 0.61127 0.58533 0.68086
 H16 H 0.65616 0.55762 0.66182
 H17 H 0.59683 0.58933 0.69183
 N18 N 0.66274 0.61538 0.59771
 N19 N 0.65334 0.63411 0.58831
 C20 C 0.66564 0.64026 0.56968
 C21 C 0.68349 0.62465 0.56738
 C22 C 0.68127 0.60912 0.58531
 H23 H 0.66196 0.65496 0.55859
 H24 H 0.69235 0.59442 0.58900
 H25 H 0.62112 0.61543 0.61207
 H26 H 0.64007 0.63456 0.62981
 N27 N 0.90278 0.33819 0.11483
 N28 N 0.91201 0.34796 0.13305
 C29 C 0.93071 0.33563 0.13933
 C30 C 0.93314 0.31731 0.12419
 C31 C 0.91526 0.31933 0.10885
 H32 H 0.94171 0.33961 0.15375
 H33 H 0.91160 0.30799 0.09448
 Cu34 Cu 0.89869 0.37583 0.14678
 Cu35 Cu 0.87531 0.35063 0.10020
 Cu36 Cu 0.85068 0.39974 0.12484
 N37 N 0.88437 0.40308 0.16070
 N38 N 0.86559 0.41234 0.15203
 C39 C 0.85932 0.43084 0.16484
 C40 C 0.87501 0.43318 0.18237
 C41 C 0.89067 0.41539 0.17937
 H42 H 0.84449 0.44176 0.16166
 H43 H 0.90547 0.41175 0.18999
 N44 N 0.83813 0.38447 0.09729
 N45 N 0.84751 0.36575 0.08790
 C46 C 0.83508 0.35953 0.06939
 C47 C 0.81716 0.37506 0.06716
 C48 C 0.81948 0.39064 0.08500
 H49 H 0.83875 0.34484 0.05832
 H50 H 0.80842 0.40534 0.08867
 H51 H 0.87969 0.38490 0.11055
 H52 H 0.86190 0.36574 0.12947
 N53 N 0.40211 0.16189 -0.11505
 N54 N 0.41130 0.15209 -0.13326
 C55 C 0.43001 0.16440 -0.13955
 C56 C 0.43252 0.18274 -0.12444
 C57 C 0.41464 0.18073 -0.10911
 H58 H 0.44100 0.16039 -0.15397
 H59 H 0.41104 0.19209 -0.09474
 Cu60 Cu 0.39793 0.12423 -0.14695
 Cu61 Cu 0.37464 0.14951 -0.10038
 Cu62 Cu 0.34992 0.10039 -0.12495
 N63 N 0.38356 0.09698 -0.16084
 N64 N 0.36479 0.08774 -0.15214
 C65 C 0.35848 0.06922 -0.16492
 C66 C 0.37415 0.06685 -0.18246
 C67 C 0.38983 0.08463 -0.17949
 H68 H 0.34365 0.05831 -0.16171
 H69 H 0.40462 0.08825 -0.19012
 N70 N 0.33742 0.11571 -0.09741
 N71 N 0.34684 0.13443 -0.08805
 C72 C 0.33443 0.14068 -0.06954
 C73 C 0.31649 0.12517 -0.06728
 C74 C 0.31878 0.10957 -0.08510
 H75 H 0.33813 0.15538 -0.05848
 H76 H 0.30769 0.09487 -0.08875
 H77 H 0.37896 0.11522 -0.11070
 H78 H 0.36117 0.13437 -0.12963
 N79 N 0.09721 0.83775 0.38525
 N80 N 0.08796 0.84756 0.36702
 C81 C 0.06927 0.83522 0.36076
 C82 C 0.06685 0.81687 0.37591
 C83 C 0.08474 0.81887 0.39124
 H84 H 0.05826 0.83923 0.34634
 H85 H 0.08840 0.80749 0.40562
 Cu86 Cu 0.10126 0.87547 0.35327
 Cu87 Cu 0.12467 0.85018 0.39986
 Cu88 Cu 0.14925 0.89939 0.37519
 N89 N 0.11554 0.90278 0.33934
 N90 N 0.13431 0.91204 0.34800
 C91 C 0.14056 0.93059 0.33518
 C92 C 0.12487 0.93295 0.31765
 C93 C 0.10922 0.91513 0.32067
 H94 H 0.15538 0.94152 0.33834
 H95 H 0.09442 0.91148 0.31005
 N96 N 0.16183 0.88406 0.40274
 N97 N 0.15246 0.86531 0.41214
 C98 C 0.16490 0.85906 0.43065
 C99 C 0.18281 0.87461 0.43287
 C100 C 0.18047 0.89023 0.41503
 H101 H 0.16124 0.84434 0.44174
 H102 H 0.19152 0.90496 0.41134
 H103 H 0.12026 0.88448 0.38950
 H104 H 0.13807 0.86539 0.37058
 N105 N 0.09764 0.16248 0.11448
 N106 N 0.08871 0.15298 0.13296
 C107 C 0.07011 0.16540 0.13928
 C108 C 0.06719 0.18370 0.12393
 C109 C 0.08505 0.18123 0.10841
 H110 H 0.05941 0.16128 0.15386
 H111 H 0.08879 0.19230 0.09385
 Cu112 Cu 0.10227 0.12528 0.14686
 Cu113 Cu 0.12493 0.14991 0.09964
 Cu114 Cu 0.14946 0.10061 0.12421
 N115 N 0.11616 0.09757 0.16045
 N116 N 0.13463 0.08806 0.15151
 C117 C 0.14070 0.06933 0.16413
 C118 C 0.12519 0.06688 0.18201
 C119 C 0.10984 0.08518 0.17906
 H120 H 0.15525 0.05825 0.16040
 H121 H 0.09528 0.08931 0.18978
 N122 N 0.16192 0.11589 0.09655
 N123 N 0.15256 0.13462 0.08719
 C124 C 0.16491 0.14080 0.06862
 C125 C 0.18297 0.12524 0.06613
 C126 C 0.18047 0.10969 0.08420
 H127 H 0.16112 0.15568 0.05783
 H128 H 0.19125 0.09481 0.08799
 H129 H 0.12037 0.11575 0.11035
 H130 H 0.13881 0.13478 0.12871
 N131 N 0.40132 0.83722 0.61520
 N132 N 0.40998 0.84646 0.63391
 C133 C 0.42866 0.83415 0.64020
 C134 C 0.43190 0.81616 0.62462
 C135 C 0.41415 0.81871 0.60898
 H136 H 0.43902 0.83793 0.65511
 H137 H 0.41085 0.80807 0.59404
 Cu138 Cu 0.39602 0.87370 0.64822
 Cu139 Cu 0.37413 0.84987 0.60023
 Cu140 Cu 0.34945 0.89901 0.62471
 N141 N 0.38230 0.90166 0.66137
 N142 N 0.36409 0.91143 0.65214
 C143 C 0.35815 0.93031 0.66454
 C144 C 0.37348 0.93260 0.68259
 C145 C 0.38858 0.91405 0.67997
 H146 H 0.34383 0.94160 0.66055
 H147 H 0.40298 0.90976 0.69087
 N148 N 0.33716 0.88388 0.59696
 N149 N 0.34658 0.86521 0.58762
 C150 C 0.33431 0.85908 0.56899
 C151 C 0.31624 0.87463 0.56643
 C152 C 0.31865 0.89011 0.58453
 H153 H 0.33814 0.84424 0.55822
 H154 H 0.30782 0.90495 0.58831
 H155 H 0.37880 0.88385 0.61142
 H156 H 0.35979 0.86473 0.62916
 N157 N 0.90182 0.66251 0.38513
 N158 N 0.91051 0.65332 0.36642
 C159 C 0.92916 0.66570 0.36015
 C160 C 0.93235 0.68369 0.37576
 C161 C 0.91459 0.68105 0.39138
 H162 H 0.93954 0.66198 0.34524
 H163 H 0.91125 0.69167 0.40632
 Cu164 Cu 0.89662 0.62606 0.35206
 Cu165 Cu 0.87465 0.64978 0.40005
 Cu166 Cu 0.85009 0.60061 0.37547
 N167 N 0.88297 0.59808 0.33885
 N168 N 0.86478 0.58826 0.34806
 C169 C 0.85888 0.56938 0.33562
 C170 C 0.87422 0.56716 0.31758
 C171 C 0.88929 0.58573 0.32025
 H172 H 0.84457 0.55805 0.33958
 H173 H 0.90368 0.59008 0.30936
 N174 N 0.83774 0.61567 0.40323
 N175 N 0.84711 0.63436 0.41260
 C176 C 0.83482 0.64044 0.43122
 C177 C 0.81678 0.62485 0.43374
 C178 C 0.81923 0.60939 0.41563
 H179 H 0.83862 0.65528 0.44201
 H180 H 0.80844 0.59453 0.41183
 H181 H 0.87940 0.61582 0.38882
 H182 H 0.86035 0.63492 0.37108
 N183 N 0.59882 0.33765 -0.11527
 N184 N 0.59017 0.34689 -0.13401
 C185 C 0.57151 0.33456 -0.14030
 C186 C 0.56827 0.31654 -0.12468
 C187 C 0.58601 0.31912 -0.10903
 H188 H 0.56117 0.33833 -0.15523
 H189 H 0.58931 0.30847 -0.09407
 Cu190 Cu 0.60412 0.37416 -0.14836
 Cu191 Cu 0.62598 0.35031 -0.10030
 Cu192 Cu 0.65064 0.39951 -0.12485
 N193 N 0.61783 0.40216 -0.16155
 N194 N 0.63601 0.41194 -0.15230
 C195 C 0.64195 0.43084 -0.16473
 C196 C 0.62665 0.43313 -0.18282
 C197 C 0.61156 0.41456 -0.18018
 H198 H 0.65626 0.44215 -0.16074
 H199 H 0.59719 0.41026 -0.19110
 N200 N 0.66292 0.38437 -0.09706
 N201 N 0.65351 0.36567 -0.08769
 C202 C 0.66577 0.35953 -0.06905
 C203 C 0.68382 0.37510 -0.06650
 C204 C 0.68142 0.39060 -0.08463
 H205 H 0.66194 0.34467 -0.05825
 H206 H 0.69223 0.40546 -0.08842
 H207 H 0.62129 0.38429 -0.11156
 H208 H 0.64034 0.36521 -0.12924
 C209 C 0.02881 0.23395 0.10521
 C210 C 0.01441 0.23636 0.12425
 C211 C 0.01723 0.22161 0.14320
 C212 C 0.03437 0.20449 0.14312
 C213 C -0.05017 0.30069 0.12429
 C214 C 0.04597 0.21685 0.10508
 C215 C -0.00326 0.25396 0.12433
 C216 C -0.01805 0.26870 0.12436
 C217 C -0.03538 0.28595 0.12435
 C218 C 0.04897 0.20188 0.12405
 H219 H 0.02675 0.24526 0.09043
 H220 H 0.00619 0.22335 0.15805
 H221 H 0.03620 0.19348 0.15810
 H222 H 0.05669 0.21533 0.09003
 C223 C 0.48667 0.78332 0.63938
 C224 C 0.48518 0.76401 0.62475
 C225 C 0.46631 0.76171 0.61008
 C226 C 0.44900 0.77864 0.61002
 C227 C 0.55032 0.70027 0.62495
 C228 C 0.46938 0.80027 0.63936
 C229 C 0.50299 0.74657 0.62479
 C230 C 0.51791 0.73196 0.62484
 C231 C 0.53539 0.71486 0.62490
 C232 C 0.45030 0.79816 0.62466
 H233 H 0.50123 0.78529 0.65078
 H234 H 0.46496 0.74680 0.59871
 H235 H 0.43456 0.77626 0.59860
 H236 H 0.47114 0.81507 0.65074
 C237 C 0.96654 0.73826 0.39037
 C238 C 0.98542 0.73606 0.37571
 C239 C 0.98700 0.71677 0.36108
 C240 C 0.96977 0.69974 0.36107
 C241 C 1.05016 0.80024 0.37582
 C242 C 0.94929 0.72126 0.39041
 C243 C 1.00316 0.75359 0.37570
 C244 C 1.01800 0.76829 0.37571
 C245 C 1.03535 0.78552 0.37576
 C246 C 0.95067 0.70176 0.37575
 H247 H 0.96512 0.75316 0.40175
 H248 H 1.00157 0.71487 0.34968
 H249 H 0.97159 0.68496 0.34967
 H250 H 0.93484 0.72357 0.40182
 C251 C 0.53395 0.26201 -0.11007
 C252 C 0.51510 0.26427 -0.12476
 C253 C 0.51358 0.28359 -0.13943
 C254 C 0.53084 0.30059 -0.13943
 C255 C 0.45020 0.20026 -0.12458
 C256 C 0.55124 0.27898 -0.11002
 C257 C 0.49731 0.24679 -0.12476
 C258 C 0.48244 0.23213 -0.12474
 C259 C 0.46504 0.21495 -0.12467
 C260 C 0.54991 0.29851 -0.12471
 H261 H 0.53532 0.24710 -0.09866
 H262 H 0.49902 0.28554 -0.15085
 H263 H 0.52907 0.31539 -0.15085
 H264 H 0.56567 0.27661 -0.09859
 C265 C 0.10595 0.02908 0.23209
 C266 C 0.12491 0.01436 0.23495
 C267 C 0.14396 0.01675 0.22053
 C268 C 0.14406 0.03380 0.20331
 C269 C 0.12483 -0.04962 0.29989
 C270 C 0.10600 0.04615 0.21489
 C271 C 0.12486 -0.00316 0.25270
 C272 C 0.12483 -0.01782 0.26757
 C273 C 0.12482 -0.03498 0.28500
 C274 C 0.12508 0.04874 0.20027
 H275 H 0.09109 0.02736 0.24314
 H276 H 0.15876 0.00547 0.22262
 H277 H 0.15912 0.03531 0.19257
 H278 H 0.09101 0.05713 0.21303
 C279 C 0.60751 0.47088 -0.23298
 C280 C 0.62628 0.48593 -0.23549
 C281 C 0.64516 0.48377 -0.22081
 C282 C 0.64529 0.46664 -0.20367
 C283 C 0.62630 0.55035 -0.30001
 C284 C 0.60760 0.45372 -0.21587
 C285 C 0.62620 0.50355 -0.25314
 C286 C 0.62619 0.51831 -0.26792
 C287 C 0.62623 0.53559 -0.28523
 C288 C 0.62650 0.45137 -0.20098
 H289 H 0.59278 0.47242 -0.24424
 H290 H 0.65981 0.49531 -0.22262
 H291 H 0.66022 0.46532 -0.19273
 H292 H 0.59275 0.44248 -0.21428
 C293 C 0.39269 0.97030 0.73266
 C294 C 0.37391 0.98532 0.73519
 C295 C 0.35502 0.98317 0.72054
 C296 C 0.35486 0.96607 0.70343
 C297 C 0.37414 1.04941 0.79984
 C298 C 0.39258 0.95317 0.71557
 C299 C 0.37401 1.00288 0.75285
 C300 C 0.37407 1.01758 0.76765
 C301 C 0.37412 1.03476 0.78500
 C302 C 0.37365 0.95082 0.70072
 H303 H 0.40744 0.97183 0.74389
 H304 H 0.34036 0.99469 0.72238
 H305 H 0.33991 0.96475 0.69251
 H306 H 0.40743 0.94195 0.71397
 C307 C 0.89349 0.52960 0.26745
 C308 C 0.87474 0.51455 0.26487
 C309 C 0.85583 0.51663 0.27952
 C310 C 0.85565 0.53369 0.29666
 C311 C 0.87502 0.45058 0.20011
 C312 C 0.89336 0.54669 0.28457
 C313 C 0.87486 0.49702 0.24719
 C314 C 0.87494 0.48236 0.23236
 C315 C 0.87499 0.46521 0.21497
 C316 C 0.87442 0.54897 0.29941
 H317 H 0.90824 0.52812 0.25622
 H318 H 0.84119 0.50509 0.27765
 H319 H 0.84070 0.53496 0.30758
 H320 H 0.90819 0.55794 0.28621
 C321 C 0.23751 0.11095 0.03327
 C322 C 0.23518 0.12522 0.01391
 C323 C 0.21582 0.13950 0.01158
 C324 C 0.19885 0.13954 0.02853
 C325 C 0.29904 0.12519 -0.04988
 C326 C 0.22056 0.11093 0.05025
 C327 C 0.25264 0.12521 -0.00355
 C328 C 0.26726 0.12520 -0.01817
 C329 C 0.28440 0.12520 -0.03528
 C330 C 0.20099 0.12524 0.04810
 H331 H 0.25245 0.09984 0.03527
 H332 H 0.21382 0.15060 -0.00336
 H333 H 0.18401 0.15064 0.02613
 H334 H 0.22296 0.09983 0.06508
 C335 C 0.76228 0.61045 0.46667
 C336 C 0.76466 0.62464 0.48604
 C337 C 0.78405 0.63888 0.48836
 C338 C 0.80100 0.63896 0.47139
 C339 C 0.70089 0.62462 0.54993
 C340 C 0.77921 0.61048 0.44967
 C341 C 0.74721 0.62461 0.50351
 C342 C 0.73260 0.62460 0.51815
 C343 C 0.71550 0.62461 0.53529
 C344 C 0.79880 0.62476 0.45180
 H345 H 0.74732 0.59938 0.46467
 H346 H 0.78608 0.64992 0.50332
 H347 H 0.81585 0.65004 0.47379
 H348 H 0.77677 0.59946 0.43482
 C349 C 0.73829 0.38937 -0.03349
 C350 C 0.73588 0.37514 -0.01411
 C351 C 0.71648 0.36091 -0.01181
 C352 C 0.69955 0.36088 -0.02881
 C353 C 0.79970 0.37507 0.04977
 C354 C 0.72139 0.38939 -0.05051
 C355 C 0.75331 0.37512 0.00339
 C356 C 0.76793 0.37510 0.01803
 C357 C 0.78506 0.37509 0.03515
 C358 C 0.70178 0.37513 -0.04840
 H359 H 0.75327 0.40043 -0.03547
 H360 H 0.71441 0.34984 0.00315
 H361 H 0.68468 0.34981 -0.02643
 H362 H 0.72386 0.40045 -0.06537
 C363 C 0.28354 0.86045 0.51181
 C364 C 0.26413 0.87466 0.51410
 C365 C 0.26173 0.88887 0.53345
 C366 C 0.27866 0.88890 0.55046
 C367 C 0.20027 0.87461 0.45026
 C368 C 0.30049 0.86042 0.52879
 C369 C 0.24668 0.87464 0.49662
 C370 C 0.23206 0.87462 0.48199
 C371 C 0.21492 0.87461 0.46487
 C372 C 0.29827 0.87465 0.54836
 H373 H 0.28559 0.84939 0.49687
 H374 H 0.24675 0.89992 0.53542
 H375 H 0.27619 0.89994 0.56529
 H376 H 0.31536 0.84937 0.52642
   
