data_POSCAR
  _audit_creation_date              2014-09-24
  _audit_creation_method            'ToBaCCo'
  _symmetry_space_group_name_H-M    'P1'
  _symmetry_Int_Tables_number       1
  _symmetry_cell_setting            triclinic
  loop_
  _symmetry_equiv_pos_as_xyz
 x,y,z
_cell_length_a 28.3626
_cell_length_b 28.6516
_cell_length_c 28.9016
_cell_angle_alpha 90.617400
_cell_angle_beta 90.064100
_cell_angle_gamma 90.251100
loop_
  _atom_site_label
  _atom_site_type_symbol
  _atom_site_fract_x
  _atom_site_fract_y
  _atom_site_fract_z
C1 C 0.15551 0.19417 0.22445
 C2 C 0.15483 0.22863 0.19025
 C3 C 0.18776 0.22810 0.15525
 C4 C 0.22221 0.19315 0.15381
 C5 C 0.22362 0.15877 0.18739
 C6 C 0.18929 0.15918 0.22360
 C7 C 0.12702 0.18724 0.26226
 N8 N 0.14151 0.14888 0.28537
 C9 C 0.17978 0.13126 0.26202
 C10 C 0.26203 0.13054 0.17586
 N11 N 0.28312 0.14728 0.13657
 C12 C 0.25857 0.18539 0.12332
 C13 C 0.17878 0.26592 0.12732
 N14 N 0.14102 0.28944 0.14468
 C15 C 0.12628 0.26677 0.18315
 H16 H 0.09741 0.20889 0.27224
 H17 H 0.19948 0.10068 0.27187
 H18 H 0.27341 0.10036 0.19498
 H19 H 0.26678 0.20646 0.09346
 H20 H 0.19870 0.27553 0.09696
 H21 H 0.09690 0.27745 0.20463
 C22 C -0.15168 0.80793 0.23226
 C23 C -0.15364 0.77537 0.19552
 C24 C -0.18770 0.77987 0.16145
 C25 C -0.21989 0.81694 0.16360
 C26 C -0.21759 0.84875 0.19958
 C27 C -0.18360 0.84415 0.23381
 C28 C -0.12367 0.81269 0.27110
 N29 N -0.13826 0.85081 0.29562
 C30 C -0.17505 0.87009 0.27272
 C31 C -0.25334 0.88026 0.19420
 N32 N -0.27784 0.86846 0.15564
 C33 C -0.25744 0.82964 0.13650
 C34 C -0.18222 0.74318 0.13088
 N35 N -0.14562 0.71660 0.14518
 C36 C -0.12793 0.73597 0.18486
 H37 H -0.09497 0.79002 0.28095
 H38 H -0.19485 0.90059 0.28303
 H39 H -0.26150 0.90924 0.21718
 H40 H -0.26892 0.81103 0.10576
 H41 H -0.20344 0.73617 0.10040
 H42 H -0.09907 0.72236 0.20505
 C43 C -0.16530 0.19076 -0.22596
 C44 C -0.16348 0.22653 -0.19259
 C45 C -0.19680 0.22859 -0.15785
 C46 C -0.23268 0.19490 -0.15585
 C47 C -0.23492 0.15931 -0.18865
 C48 C -0.20062 0.15724 -0.22435
 C49 C -0.13713 0.18103 -0.26361
 N50 N -0.15410 0.14219 -0.28558
 C51 C -0.19291 0.12749 -0.26173
 C52 C -0.27384 0.13220 -0.17728
 N53 N -0.29487 0.15070 -0.13856
 C54 C -0.26964 0.18902 -0.12562
 C55 C -0.18642 0.26711 -0.13074
 N56 N -0.14752 0.28843 -0.14833
 C57 C -0.13339 0.26382 -0.18616
 H58 H -0.10675 0.20132 -0.27389
 H59 H -0.21418 0.09730 -0.27094
 H60 H -0.28547 0.10146 -0.19615
 H61 H -0.27757 0.21120 -0.09607
 H62 H -0.20624 0.27871 -0.10085
 H63 H -0.10339 0.27259 -0.20757
 C64 C 0.15549 0.81063 -0.23130
 C65 C 0.15528 0.77536 -0.19714
 C66 C 0.18978 0.77618 -0.16303
 C67 C 0.22415 0.81119 -0.16214
 C68 C 0.22397 0.84528 -0.19515
 C69 C 0.18994 0.84501 -0.22958
 C70 C 0.12849 0.82016 -0.27011
 N71 N 0.14654 0.85912 -0.29096
 C72 C 0.18400 0.87409 -0.26609
 C73 C 0.26178 0.87400 -0.18721
 N74 N 0.28536 0.85799 -0.14999
 C75 C 0.26248 0.81943 -0.13415
 C76 C 0.18304 0.73847 -0.13519
 N77 N 0.14518 0.71408 -0.15066
 C78 C 0.12769 0.73616 -0.18868
 H79 H 0.09855 0.79987 -0.28206
 H80 H 0.20571 0.90412 -0.27421
 H81 H 0.27197 0.90397 -0.20752
 H82 H 0.27280 0.79830 -0.10512
 H83 H 0.20442 0.72919 -0.10563
 H84 H 0.09773 0.72454 -0.20901
 C85 C 0.19125 1.16129 0.77315
 C86 C 0.22529 1.15957 0.80935
 C87 C 0.22493 1.19386 0.84358
 C88 C 0.19171 1.22956 0.84288
 C89 C 0.15857 1.23121 0.80816
 C90 C 0.15840 1.19711 0.77310
 C91 C 0.18151 1.13404 0.73407
 N92 N 0.14395 1.15288 0.71101
 C93 C 0.13002 1.19130 0.73498
 C94 C 0.13081 1.26970 0.81669
 N95 N 0.14679 1.29136 0.85594
 C96 C 0.18411 1.26694 0.87195
 C97 C 0.26060 1.18506 0.87414
 N98 N 0.28352 1.14612 0.86029
 C99 C 0.26237 1.12998 0.82054
 H100 H 0.20065 1.10314 0.72358
 H101 H 0.10105 1.21374 0.72530
 H102 H 0.10162 1.28084 0.79546
 H103 H 0.20424 1.27570 0.90275
 H104 H 0.26938 1.20569 0.90460
 H105 H 0.27295 1.09935 0.80106
 C106 C 0.82749 0.84392 0.77440
 C107 C 0.78997 0.84399 0.80480
 C108 C 0.78515 0.80902 0.83689
 C109 C 0.81887 0.77326 0.83852
 C110 C 0.85601 0.77319 0.80736
 C111 C 0.86031 0.80880 0.77503
 C112 C 0.83798 0.87286 0.73905
 N113 N 0.87682 0.85612 0.71729
 C114 C 0.89095 0.81686 0.73915
 C115 C 0.88247 0.73436 0.81538
 N116 N 0.86297 0.71087 0.85106
 C117 C 0.82379 0.73427 0.86546
 C118 C 0.74390 0.81798 0.86034
 N119 N 0.72448 0.85732 0.84243
 C120 C 0.75249 0.87336 0.80858
 H121 H 0.81712 0.90266 0.72937
 H122 H 0.92039 0.79517 0.72886
 H123 H 0.91398 0.72402 0.79681
 H124 H 0.80031 0.72393 0.89299
 H125 H 0.72886 0.79730 0.88782
 H126 H 0.74565 0.90394 0.78793
 C127 C 0.18612 0.85393 1.23090
 C128 C 0.22136 0.85464 1.19789
 C129 C 0.22344 0.82035 1.16406
 C130 C 0.18905 0.78476 1.16287
 C131 C 0.15381 0.78427 1.19613
 C132 C 0.15247 0.81911 1.23052
 C133 C 0.17845 0.88204 1.26838
 N134 N 0.14071 0.86535 1.29138
 C135 C 0.12419 0.82672 1.26850
 C136 C 0.12617 0.74564 1.18779
 N137 N 0.14337 0.72269 1.15024
 C138 C 0.18193 0.74617 1.13468
 C139 C 0.26339 0.82945 1.13861
 N140 N 0.28489 0.86820 1.15691
 C141 C 0.25908 0.88385 1.19288
 H142 H 0.19939 0.91210 1.27879
 H143 H 0.09476 0.80511 1.27881
 H144 H 0.09572 0.73485 1.20763
 H145 H 0.20328 0.73581 1.10531
 H146 H 0.27573 0.80908 1.10936
 H147 H 0.26794 0.91372 1.21455
 C148 C 0.81934 1.15480 1.22672
 C149 C 0.78108 1.14979 1.19544
 C150 C 0.77601 1.18126 1.15964
 C151 C 0.80866 1.21785 1.15451
 C152 C 0.84595 1.22211 1.18502
 C153 C 0.85138 1.19073 1.22100
 C154 C 0.83351 1.13139 1.26595
 N155 N 0.87316 1.15263 1.28370
 C156 C 0.88411 1.18878 1.25593
 C157 C 0.87142 1.26077 1.17323
 N158 N 0.85057 1.28056 1.13610
 C159 C 0.81215 1.25462 1.12422
 C160 C 0.73622 1.16877 1.13506
 N161 N 0.71654 1.13031 1.15463
 C162 C 0.74374 1.11860 1.19164
 H163 H 0.81545 1.10154 1.28021
 H164 H 0.91337 1.21269 1.26131
 H165 H 0.90250 1.27396 1.19089
 H166 H 0.78825 1.26231 1.09611
 H167 H 0.72303 1.18675 1.10505
 H168 H 0.73688 1.08942 1.21420
 N169 N 0.54320 1.07025 0.94509
 N170 N 0.57843 1.09943 0.93577
 N171 N 0.44477 1.02993 0.91812
 N172 N 0.41061 1.03301 0.88734
 N173 N 0.44273 1.06438 0.94848
 N174 N 0.40681 1.09209 0.93861
 N175 N 0.54335 1.03526 0.91524
 N176 N 0.57783 1.03969 0.88509
 C177 C 0.59955 1.07971 0.89797
 C178 C 0.38697 1.07166 0.90042
 N179 N 0.45210 0.90049 0.95724
 N180 N 0.41694 0.87040 0.95518
 N181 N 0.54878 0.93494 0.92030
 N182 N 0.58384 0.92805 0.89095
 N183 N 0.54966 0.90434 0.95371
 N184 N 0.58470 0.87481 0.94957
 N185 N 0.44968 0.93055 0.92352
 N186 N 0.41244 0.92203 0.89749
 Mn187 Mn 0.49676 0.98272 0.91887
 C188 C 0.39262 0.88434 0.91776
 C189 C 0.60830 0.88878 0.90925
 N190 N 0.44610 1.06963 1.05100
 N191 N 0.40830 1.09574 1.05932
 N192 N 0.55039 1.04484 1.07901
 N193 N 0.58747 1.05431 1.10544
 N194 N 0.54633 1.07593 1.04606
 N195 N 0.58066 1.10714 1.04923
 N196 N 0.45113 1.03880 1.08411
 N197 N 0.41727 1.04290 1.11514
 Mn198 Mn 0.49433 1.07099 0.99768
 C199 C 0.39067 1.07845 1.09967
 C200 C 0.60601 1.09338 1.08642
 N201 N 0.55413 0.90983 1.05050
 N202 N 0.59049 0.88198 1.05365
 N203 N 0.45608 0.93839 1.08646
 N204 N 0.42003 0.93167 1.11467
 N205 N 0.45713 0.90518 1.05495
 N206 N 0.42315 0.87467 1.06091
 N207 N 0.55597 0.94335 1.08170
 N208 N 0.59432 0.93888 1.10750
 Mn209 Mn 0.50309 0.90494 1.00416
 Mn210 Mn 0.50361 0.99148 1.08355
 Cl211 Cl 0.49940 0.98801 1.00113
 C212 C 0.61523 0.90025 1.08907
 C213 C 0.40035 0.89145 1.09806
 N214 N 0.06469 0.45382 0.06851
 N215 N 0.07480 0.41818 0.09532
 N216 N 0.09152 0.55215 0.03099
 N217 N 0.12146 0.58767 0.03100
 N218 N 0.06536 0.55216 0.06856
 N219 N 0.07582 0.58767 0.09620
 N220 N 0.09118 0.45339 0.03126
 N221 N 0.12006 0.41722 0.03182
 C222 C 0.10947 0.39561 0.07208
 C223 C 0.11238 0.61200 0.07324
 N224 N 0.03355 0.55029 -0.09307
 N225 N 0.03349 0.58486 -0.12291
 N226 N 0.07192 0.45280 -0.06697
 N227 N 0.09954 0.41759 -0.07829
 N228 N 0.03365 0.45234 -0.09256
 N229 N 0.03423 0.41694 -0.12215
 N230 N 0.07196 0.55128 -0.06763
 N231 N 0.09911 0.58679 -0.07962
 Mn232 Mn 0.08229 0.50245 -0.01820
 C233 C 0.07455 0.60738 -0.11422
 C234 C 0.07551 0.39558 -0.11274
 N235 N -0.03427 0.55262 0.08705
 N236 N -0.03436 0.58802 0.11665
 N237 N -0.07361 0.45466 0.06102
 N238 N -0.10133 0.41876 0.06969
 N239 N -0.03529 0.45439 0.08669
 N240 N -0.03475 0.41822 0.11461
 N241 N -0.07253 0.55281 0.06142
 N242 N -0.09970 0.58843 0.07291
 Mn243 Mn 0.01526 0.50321 0.07818
 C244 C -0.07533 0.61006 0.10744
 C245 C -0.07742 0.39389 0.10470
 N246 N -0.06594 0.45220 -0.07365
 N247 N -0.07709 0.41623 -0.10041
 N248 N -0.09172 0.55110 -0.03656
 N249 N -0.12148 0.58638 -0.03753
 N250 N -0.06568 0.55010 -0.07405
 N251 N -0.07672 0.58475 -0.10147
 N252 N -0.09240 0.45309 -0.03642
 N253 N -0.12234 0.41763 -0.03684
 Mn254 Mn -0.01621 0.50117 -0.08380
 Mn255 Mn -0.08307 0.50302 0.01253
 Cl256 Cl -0.00035 0.50250 -0.00282
 C257 C -0.11234 0.39501 -0.07698
 C258 C -0.11155 0.60699 -0.07826
 N259 N 0.92404 0.06510 0.55335
 N260 N 0.89731 0.07488 0.58950
 N261 N 0.95511 0.08936 0.45177
 N262 N 0.95046 0.11276 0.41248
 N263 N 0.91859 0.06154 0.45714
 N264 N 0.88870 0.06501 0.42277
 N265 N 0.96009 0.09395 0.55091
 N266 N 0.95867 0.12419 0.58596
 C267 C 0.91918 0.11181 0.60970
 C268 C 0.90833 0.09696 0.39525
 N269 N 1.08648 0.04002 0.44944
 N270 N 1.11651 0.04078 0.41443
 N271 N 1.06221 0.08025 0.54720
 N272 N 1.07317 0.10768 0.58294
 N273 N 1.08929 0.04304 0.54706
 N274 N 1.11926 0.04437 0.58201
 N275 N 1.05849 0.07653 0.44829
 N276 N 1.06916 0.10301 0.41228
 Mn277 Mn 1.00912 0.08607 0.49931
 C278 C 1.10551 0.08015 0.39129
 C279 C 1.10911 0.08483 0.60415
 N280 N 0.90582 -0.03694 0.45847
 N281 N 0.87581 -0.03924 0.42359
 N282 N 0.93842 -0.07065 0.55346
 N283 N 0.93267 -0.09658 0.59022
 N284 N 0.91119 -0.03391 0.55526
 N285 N 0.88572 -0.03371 0.59328
 N286 N 0.93437 -0.07274 0.45727
 N287 N 0.92481 -0.10048 0.42189
 Mn288 Mn 0.91459 0.01409 0.50626
 C289 C 0.88815 -0.07915 0.40133
 C290 C 0.89969 -0.07305 0.61446
 N291 N 1.07371 -0.05748 0.55026
 N292 N 1.10210 -0.06895 0.58471
 N293 N 1.03348 -0.08668 0.45407
 N294 N 1.03336 -0.11702 0.41953
 N295 N 1.07078 -0.05953 0.45265
 N296 N 1.09711 -0.07043 0.41671
 N297 N 1.03658 -0.08496 0.54992
 N298 N 1.03837 -0.11554 0.58343
 Mn299 Mn 1.08071 -0.00849 0.49999
 Mn300 Mn 0.98564 -0.07900 0.50351
 Cl301 Cl 0.99778 0.00355 0.50222
 C302 C 1.07913 -0.10528 0.60497
 C303 C 1.07322 -0.10635 0.39660
 C304 C 1.11916 0.13366 0.32475
 C305 C 1.13117 0.09540 0.34867
 H306 H 1.08942 0.15371 0.33748
 H307 H 1.16030 0.07408 0.33704
 C308 C 0.88136 -0.13386 0.33597
 C309 C 0.86577 -0.09584 0.35877
 H310 H 0.91097 -0.15301 0.34991
 H311 H 0.83660 -0.07546 0.34632
 C312 C 0.86320 0.12085 0.67531
 C313 C 0.90199 0.13560 0.65233
 H314 H 0.84462 0.09035 0.66207
 H315 H 0.92198 0.16551 0.66438
 C316 C 1.13224 -0.11843 0.67024
 C317 C 1.09468 -0.13133 0.64564
 H318 H 1.15202 -0.08801 0.65919
 H319 H 1.07344 -0.16091 0.65580
 C320 C 0.32190 1.13148 1.11264
 C321 C 0.34798 1.09474 1.12526
 H322 H 0.33260 1.15003 1.08182
 H323 H 0.33867 1.07563 1.15602
 C324 C 0.32550 0.87810 0.86615
 C325 C 0.34938 0.86161 0.90215
 H326 H 0.33877 0.90880 0.84865
 H327 H 0.33761 0.83131 0.92089
 C328 C 0.68315 0.89176 1.14131
 C329 C 0.65895 0.87844 1.10397
 H330 H 0.67081 0.92145 1.16144
 H331 H 0.67014 0.84899 1.08321
 C332 C 0.66608 1.13549 0.88497
 C333 C 0.64139 1.09732 0.87267
 H334 H 0.65465 1.15505 0.91526
 H335 H 0.65203 1.07688 0.84287
 C336 C 0.11942 0.33143 0.12756
 C337 C 0.13264 0.35250 0.08827
 H338 H 0.09083 0.34641 0.14759
 H339 H 0.16065 0.33817 0.06724
 C340 C -0.12443 0.33021 -0.13192
 C341 C -0.13675 0.35230 -0.09271
 H342 H -0.09557 0.34398 -0.15229
 H343 H -0.16485 0.33900 -0.07127
 C344 C 0.12958 0.67196 -0.12852
 C345 C 0.08962 0.64955 -0.13936
 H346 H 0.15111 0.65854 -0.10066
 H347 H 0.06694 0.66248 -0.16641
 C348 C -0.13041 0.67490 0.12139
 C349 C -0.09076 0.65237 0.13242
 H350 H -0.15170 0.66195 0.09280
 H351 H -0.06830 0.66525 0.16000
 C352 C 1.12200 0.13836 0.67107
 C353 C 1.13422 0.10013 0.64685
 H354 H 1.09266 0.15877 0.65836
 H355 H 1.16292 0.07849 0.65850
 C356 C 0.89682 -0.12686 0.67849
 C357 C 0.88097 -0.08820 0.65825
 H358 H 0.92587 -0.14595 0.66302
 H359 H 0.85322 -0.06709 0.67286
 C360 C 1.12505 -0.11463 0.33102
 C361 C 1.08782 -0.13021 0.35429
 H362 H 1.14390 -0.08419 0.34418
 H363 H 1.06728 -0.15986 0.34240
 C364 C 0.89816 0.14237 0.32279
 C365 C 0.88506 0.10850 0.35133
 H366 H 0.92899 0.16316 0.33166
 H367 H 0.85398 0.08794 0.34363
 C368 C 0.13022 0.33061 -0.12285
 C369 C 0.09187 0.35348 -0.13712
 H370 H 0.14879 0.34356 -0.09244
 H371 H 0.07133 0.34123 -0.16636
 C372 C -0.13411 0.32251 0.11414
 C373 C -0.09555 0.34469 0.12908
 H374 H -0.15398 0.33624 0.08540
 H375 H -0.08620 0.36989 0.11664
 C376 C -0.11831 0.67098 -0.13216
 C377 C -0.13484 0.64919 -0.09478
 H378 H -0.08755 0.65682 -0.14955
 H379 H -0.16442 0.66257 -0.07527
 C380 C 0.12292 0.68065 0.13165
 C381 C 0.13866 0.66057 0.09285
 H382 H 0.09314 0.66528 0.14958
 H383 H 0.12586 0.63567 0.08188
 C384 C 0.32332 1.12820 0.88567
 C385 C 0.34586 1.08900 0.87412
 H386 H 0.33539 1.14772 0.91582
 H387 H 0.33442 1.06879 0.84431
 C388 C 0.32792 0.89008 1.14308
 C389 C 0.35779 0.86884 1.11479
 H390 H 0.33632 0.92459 1.15661
 H391 H 0.35007 0.83432 1.10128
 C392 C 0.67461 1.10530 1.13960
 C393 C 0.64876 1.11845 1.10290
 H394 H 0.66383 1.07470 1.15869
 H395 H 0.65885 1.14887 1.08348
 C396 C 0.68189 0.87971 0.85584
 C397 C 0.65655 0.86289 0.88996
 H398 H 0.67118 0.91147 0.83860
 H399 H 0.63196 0.87786 0.89773
   
