data_POSCAR
  _audit_creation_date              2014-09-24
  _audit_creation_method            'ToBaCCo'
  _symmetry_space_group_name_H-M    'P1'
  _symmetry_Int_Tables_number       1
  _symmetry_cell_setting            triclinic
  loop_
  _symmetry_equiv_pos_as_xyz
 x,y,z
_cell_length_a 19.8696
_cell_length_b 23.5317
_cell_length_c 25.3228
_cell_angle_alpha 92.196000
_cell_angle_beta 91.574200
_cell_angle_gamma 89.049700
loop_
  _atom_site_label
  _atom_site_type_symbol
  _atom_site_fract_x
  _atom_site_fract_y
  _atom_site_fract_z
C1 C 0.38401 0.32638 1.40246
 C2 C 0.34191 0.36095 1.43448
 C3 C 0.31149 0.41022 1.41444
 C4 C 0.32204 0.42471 1.36233
 C5 C 0.36425 0.39124 1.33006
 C6 C 0.39533 0.34180 1.34994
 C7 C 0.41786 0.27852 1.42271
 C8 C 0.46243 0.24632 1.39107
 C9 C 0.47237 0.26125 1.33872
 C10 C 0.43971 0.30912 1.31796
 C11 C 0.45309 0.32645 1.26672
 C12 C 0.42318 0.37619 1.24729
 C13 C 0.37805 0.40793 1.27900
 H14 H 0.33444 0.35065 1.47526
 H15 H 0.29922 0.46344 1.34765
 H16 H 0.41174 0.26768 1.46351
 H17 H 0.50824 0.23702 1.31503
 H18 H 0.48792 0.30210 1.24224
 H19 H 0.35457 0.44634 1.26435
 C20 C 1.11479 0.68802 0.88862
 C21 C 1.14238 0.64951 0.92427
 C22 C 1.17173 0.59841 0.90579
 C23 C 1.17460 0.58551 0.85147
 C24 C 1.14717 0.62369 0.81514
 C25 C 1.11779 0.67546 0.83370
 C26 C 1.08059 0.73712 0.90695
 C27 C 1.04930 0.77325 0.87095
 C28 C 1.05468 0.76233 0.81652
 C29 C 1.08815 0.71325 0.79751
 C30 C 1.08732 0.69893 0.74326
 C31 C 1.11287 0.64629 0.72503
 C32 C 1.14470 0.60950 0.76088
 H33 H 1.13981 0.65857 0.96651
 H34 H 1.19678 0.54538 0.83773
 H35 H 1.07513 0.74567 0.94903
 H36 H 1.02896 0.79022 0.78913
 H37 H 1.06189 0.72653 0.71551
 H38 H 1.16457 0.56868 0.74681
 C39 C 0.63637 -0.16749 0.10719
 C40 C 0.68303 -0.13776 0.07822
 C41 C 0.72323 -0.09563 0.10339
 C42 C 0.71649 -0.08296 0.15745
 C43 C 0.67056 -0.11194 0.18657
 C44 C 0.63066 -0.15473 0.16191
 C45 C 0.59387 -0.20831 0.08246
 C46 C 0.54641 -0.23602 0.11204
 C47 C 0.54214 -0.22410 0.16652
 C48 C 0.58354 -0.18326 0.19177
 C49 C 0.57615 -0.16799 0.24562
 C50 C 0.61497 -0.12399 0.26904
 C51 C 0.66246 -0.09711 0.23977
 H52 H 0.68837 -0.14730 0.03632
 H53 H 0.74706 -0.05031 0.17703
 H54 H 0.59601 -0.21712 0.04019
 H55 H 0.50429 -0.24489 0.18870
 H56 H 0.53831 -0.18801 0.26833
 H57 H 0.69143 -0.06280 0.25840
 C58 C -0.10188 1.15353 -0.40007
 C59 C -0.14268 1.11680 -0.43114
 C60 C -0.17133 1.06948 -0.40910
 C61 C -0.15997 1.05872 -0.35544
 C62 C -0.11910 1.09512 -0.32362
 C63 C -0.08968 1.14248 -0.34619
 C64 C -0.07366 1.20153 -0.42162
 C65 C -0.03447 1.23875 -0.38940
 C66 C -0.02135 1.22704 -0.33654
 C67 C -0.04797 1.17894 -0.31484
 C68 C -0.03392 1.16716 -0.26208
 C69 C -0.06274 1.12065 -0.23949
 C70 C -0.10605 1.08484 -0.26992
 H71 H -0.15186 1.12462 -0.47268
 H72 H -0.18215 1.02180 -0.33885
 H73 H -0.08441 1.21123 -0.46251
 H74 H 0.00874 1.25635 -0.31212
 H75 H -0.00056 1.19427 -0.23814
 H76 H -0.12744 1.04821 -0.25232
 C77 C 0.63431 0.68019 0.62202
 C78 C 0.68372 0.65488 0.58963
 C79 C 0.71529 0.60332 0.60290
 C80 C 0.69646 0.57640 0.64895
 C81 C 0.64612 0.60039 0.68124
 C82 C 0.61435 0.65208 0.66731
 C83 C 0.60723 0.73456 0.61179
 C84 C 0.56012 0.76023 0.64593
 C85 C 0.53734 0.73051 0.68862
 C86 C 0.56456 0.67695 0.69998
 C87 C 0.54579 0.64966 0.74545
 C88 C 0.57834 0.59913 0.76028
 C89 C 0.62862 0.57480 0.72825
 H90 H 0.69961 0.67620 0.55499
 H91 H 0.72129 0.53704 0.65982
 H92 H 0.62525 0.75806 0.57913
 H93 H 0.50165 0.75101 0.71517
 H94 H 0.50829 0.66921 0.77092
 H95 H 0.65405 0.53606 0.74017
 C96 C 0.83714 0.33685 0.09945
 C97 C 0.79200 0.36827 0.06806
 C98 C 0.75383 0.41280 0.09084
 C99 C 0.75702 0.42382 0.14548
 C100 C 0.80222 0.39325 0.17737
 C101 C 0.84355 0.35020 0.15422
 C102 C 0.88004 0.29582 0.07624
 C103 C 0.93059 0.26929 0.10650
 C104 C 0.93743 0.28261 0.16089
 C105 C 0.89422 0.32328 0.18503
 C106 C 0.90392 0.34081 0.23836
 C107 C 0.86318 0.38439 0.26109
 C108 C 0.81108 0.40871 0.23102
 H109 H 0.78971 0.36068 0.02553
 H110 H 0.72788 0.45904 0.16246
 H111 H 0.87674 0.28673 0.03393
 H112 H 0.97812 0.26331 0.18369
 H113 H 0.94452 0.32209 0.26164
 H114 H 0.78095 0.44294 0.24856
 C115 C 0.34146 0.15974 0.88325
 C116 C 0.31254 0.12198 0.91733
 C117 C 0.29014 0.06888 0.89797
 C118 C 0.29626 0.05315 0.84434
 C119 C 0.32535 0.09031 0.80972
 C120 C 0.34782 0.14396 0.82921
 C121 C 0.36436 0.21293 0.90223
 C122 C 0.39206 0.25091 0.86759
 C123 C 0.39806 0.23529 0.81407
 C124 C 0.37752 0.18154 0.79480
 C125 C 0.38775 0.16416 0.74207
 C126 C 0.36778 0.10997 0.72310
 C127 C 0.33452 0.07413 0.75643
 H128 H 0.30756 0.13368 0.95891
 H129 H 0.27910 0.01175 0.82986
 H130 H 0.35904 0.22550 0.94355
 H131 H 0.41969 0.26490 0.78776
 H132 H 0.41291 0.19204 0.71609
 H133 H 0.31958 0.03228 0.74153
 C134 C 0.14851 0.79944 0.38062
 C135 C 0.19940 0.82345 0.41330
 C136 C 0.23414 0.87112 0.39783
 C137 C 0.21753 0.89556 0.34913
 C138 C 0.16800 0.87113 0.31506
 C139 C 0.13403 0.82244 0.33069
 C140 C 0.11133 0.75318 0.39707
 C141 C 0.06093 0.72963 0.36364
 C142 C 0.04920 0.75055 0.31319
 C143 C 0.08515 0.79688 0.29650
 C144 C 0.07154 0.81896 0.24672
 C145 C 0.10372 0.86774 0.23127
 C146 C 0.15189 0.89409 0.26557
 H147 H 0.21239 0.80512 0.45094
 H148 H 0.24482 0.93216 0.33705
 H149 H 0.12028 0.73655 0.43603
 H150 H 0.01001 0.73191 0.28769
 H151 H 0.03403 0.79936 0.22030
 H152 H 0.17713 0.93175 0.25351
 Zn153 Zn 0.04791 1.06564 -0.03068
 Zn154 Zn -0.07080 0.99930 -0.02572
 Zn155 Zn 0.05767 0.95119 0.01313
 Zn156 Zn -0.00805 1.04283 0.07221
 O157 O 0.00749 1.01489 0.00716
 O158 O 0.00688 1.07012 -0.09448
 O159 O -0.06474 0.93565 -0.06404
 O160 O 0.14322 0.96333 -0.00437
 O161 O -0.09686 1.05192 -0.07116
 O162 O 0.13474 1.04769 -0.04072
 O163 O 0.02802 0.89439 -0.03185
 O164 O 0.05464 1.01599 0.11797
 O165 O -0.13520 0.98657 0.01875
 O166 O 0.05976 0.92908 0.08113
 O167 O -0.08768 1.01818 0.09432
 O168 O -0.00736 1.11965 0.07629
 O169 O 0.04379 1.13502 0.00123
 C170 C -0.05624 1.06907 -0.10465
 C171 C -0.02297 0.89462 -0.06358
 C172 C 0.16936 1.00429 -0.02743
 C173 C 0.06829 0.96321 0.12111
 C174 C -0.13516 0.99302 0.06864
 C175 C 0.01810 1.15322 0.04424
 Zn176 Zn 0.49740 -0.07755 0.49782
 Zn177 Zn 0.56500 0.01054 0.56816
 Zn178 Zn 0.57983 0.00772 0.45778
 Zn179 Zn 0.45283 0.04343 0.50145
 O180 O 0.52279 -0.00495 0.50660
 O181 O 0.50945 -0.11589 0.55816
 O182 O 0.65495 0.01950 0.56298
 O183 O 0.56232 -0.03627 0.40133
 O184 O 0.55430 -0.04753 0.61076
 O185 O 0.54232 -0.11389 0.44489
 O186 O 0.66392 -0.00900 0.47921
 O187 O 0.47616 0.10837 0.46919
 O188 O 0.52922 0.07266 0.60035
 O189 O 0.57677 0.08055 0.44079
 O190 O 0.42556 0.06237 0.56755
 O191 O 0.38397 0.01068 0.46473
 O192 O 0.41060 -0.08058 0.47539
 C193 C 0.53254 -0.09784 0.60312
 C194 C 0.69078 0.00480 0.52372
 C195 C 0.55723 -0.09002 0.40257
 C196 C 0.53131 0.11866 0.44689
 C197 C 0.46609 0.07993 0.60425
 C198 C 0.37048 -0.04193 0.45869
 Zn199 Zn 1.05169 0.43683 0.46024
 Zn200 Zn 1.06552 0.55488 0.50282
 Zn201 Zn 0.93425 0.51096 0.46204
 Zn202 Zn 0.99596 0.47381 0.56032
 O203 O 1.01173 0.49452 0.49571
 O204 O 1.14170 0.44413 0.45951
 O205 O 1.04159 0.60931 0.45640
 O206 O 0.91369 0.45555 0.41206
 O207 O 1.15127 0.53300 0.49168
 O208 O 1.01969 0.43251 0.39419
 O209 O 0.94345 0.57436 0.42718
 O210 O 0.91667 0.50157 0.58255
 O211 O 1.06521 0.58420 0.57022
 O212 O 0.86600 0.52606 0.50740
 O213 O 1.05921 0.49993 0.60540
 O214 O 0.99338 0.39922 0.56474
 O215 O 1.03299 0.36939 0.48740
 C216 C 1.17756 0.48630 0.47487
 C217 C 0.98882 0.61164 0.42657
 C218 C 0.95745 0.43242 0.38157
 C219 C 0.86655 0.52279 0.55761
 C220 C 1.07330 0.55223 0.60953
 C221 C 1.00767 0.35943 0.53151
 Zn222 Zn 0.41279 0.48959 0.94113
 Zn223 Zn 0.39902 0.53953 1.04996
 Zn224 Zn 0.49831 0.44622 1.03170
 Zn225 Zn 0.52169 0.56168 0.98865
 O226 O 0.45822 0.50914 1.00280
 O227 O 0.32457 0.50625 0.94325
 O228 O 0.39996 0.50470 1.11151
 O229 O 0.47878 0.38230 0.99390
 O230 O 0.31396 0.53650 1.02646
 O231 O 0.41733 0.41480 0.92674
 O232 O 0.47168 0.43324 1.09770
 O233 O 0.60414 0.53803 1.00681
 O234 O 0.41364 0.61296 1.06447
 O235 O 0.58850 0.45176 1.03631
 O236 O 0.50717 0.62999 1.02236
 O237 O 0.52647 0.57518 0.91920
 O238 O 0.44337 0.52346 0.88432
 C239 C 0.28858 0.52373 0.98132
 C240 C 0.43050 0.46047 1.12704
 C241 C 0.44430 0.37398 0.95147
 C242 C 0.62694 0.49207 1.02523
 C243 C 0.45911 0.64654 1.05166
 C244 C 0.49150 0.55737 0.87943
 N245 N 1.27845 0.44600 0.44532
 N246 N 1.24925 0.48209 0.47323
 N247 N 0.19549 0.56250 0.93983
 N248 N 0.21788 0.53024 0.97330
 N249 N -0.22713 0.93241 0.07432
 N250 N -0.18772 0.96862 0.09684
 N251 N 0.79362 0.03439 0.56028
 N252 N 0.76239 0.00223 0.52932
 N253 N 0.50236 0.20777 0.41180
 N254 N 0.54508 0.17403 0.42883
 N255 N 0.98604 0.29226 0.59279
 N256 N 0.99435 0.30249 0.54454
 N257 N 0.00698 0.81241 -0.11251
 N258 N -0.03603 0.84793 -0.09952
 N259 N 0.50025 0.73229 1.08853
 N260 N 0.45302 0.70470 1.06907
 N261 N 0.43987 0.39449 1.19577
 N262 N 0.41621 0.44097 1.17825
 N263 N 0.60223 -0.09979 0.32019
 N264 N 0.56944 -0.12322 0.35553
 N265 N -0.04289 1.10846 -0.18656
 N266 N -0.08135 1.08425 -0.15546
 N267 N 1.09675 0.62736 0.67186
 N268 N 1.09480 0.57446 0.66009
 N269 N 0.76907 0.58099 0.57081
 N270 N 0.81077 0.54376 0.58773
 N271 N 0.72361 0.44959 1.06069
 N272 N 0.69790 0.48634 1.03303
 N273 N 0.26385 1.03369 -0.06992
 N274 N 0.23892 1.00024 -0.04002
 N275 N 0.28977 -0.10899 0.43026
 N276 N 0.31059 -0.05817 0.42978
 N277 N 0.54564 -0.18538 0.64402
 N278 N 0.53387 -0.13379 0.64725
 N279 N 1.02013 0.69152 0.38015
 N280 N 0.97723 0.65747 0.39203
 N281 N -0.02342 1.23858 0.08213
 N282 N 0.02022 1.21287 0.05664
 N283 N 0.41071 0.30685 0.88564
 N284 N 0.43278 0.31708 0.93258
 N285 N 0.56395 0.57466 0.80971
 N286 N 0.50497 0.57725 0.82822
 N287 N 0.38794 0.08798 0.67239
 N288 N 0.44161 0.10494 0.65221
 N289 N 0.08456 0.89013 0.18108
 N290 N 0.09068 0.94228 0.17099
 N291 N 0.87870 0.40930 0.31240
 N292 N 0.93812 0.40610 0.33195
   
