data_POSCAR
  _audit_creation_date              2014-09-24
  _audit_creation_method            'ToBaCCo'
  _symmetry_space_group_name_H-M    'P1'
  _symmetry_Int_Tables_number       1
  _symmetry_cell_setting            triclinic
  loop_
  _symmetry_equiv_pos_as_xyz
 x,y,z
_cell_length_a 57.7947
_cell_length_b 57.7687
_cell_length_c 45.5930
_cell_angle_alpha 89.974300
_cell_angle_beta 89.969800
_cell_angle_gamma 90.144100
loop_
  _atom_site_label
  _atom_site_type_symbol
  _atom_site_fract_x
  _atom_site_fract_y
  _atom_site_fract_z
O1 O -0.02192 0.29542 0.02757
 O2 O 0.02363 0.29494 -0.02913
 O3 O -0.02156 0.29520 -0.02952
 O4 O 0.02331 0.29554 0.02796
 O5 O 0.02307 0.25736 0.02832
 O6 O -0.02159 0.25702 -0.02902
 O7 O 0.02340 0.25680 -0.02860
 O8 O -0.02195 0.25724 0.02790
 Cu9 Cu 0.00088 0.29911 -0.00082
 Cu10 Cu 0.00072 0.25330 -0.00030
 C11 C -0.02981 0.27635 0.03732
 C12 C 0.03143 0.27576 -0.03853
 C13 C -0.02933 0.27602 -0.03902
 C14 C 0.03095 0.27647 0.03788
 O15 O 0.52277 0.79521 0.47199
 O16 O 0.47794 0.79572 0.52957
 O17 O 0.52316 0.79525 0.52911
 O18 O 0.47754 0.79544 0.47248
 O19 O 0.47727 0.75726 0.47278
 O20 O 0.52264 0.75708 0.52922
 O21 O 0.47762 0.75755 0.52969
 O22 O 0.52229 0.75704 0.47227
 Cu23 Cu 0.50040 0.79925 0.50077
 Cu24 Cu 0.49992 0.75342 0.50101
 C25 C 0.53027 0.77600 0.46236
 C26 C 0.47002 0.77669 0.53937
 C27 C 0.53077 0.77608 0.53877
 C28 C 0.46952 0.77633 0.46305
 O29 O 0.97772 0.70495 -0.02896
 O30 O 1.02283 0.70526 0.02828
 O31 O 0.97760 0.70478 0.02812
 O32 O 1.02293 0.70528 -0.02886
 O33 O 1.02260 0.74342 -0.02870
 O34 O 0.97747 0.74296 0.02811
 O35 O 1.02248 0.74344 0.02825
 O36 O 0.97759 0.74309 -0.02879
 Cu37 Cu 1.00031 0.70124 -0.00036
 Cu38 Cu 1.00002 0.74702 -0.00027
 C39 C 0.96980 0.72401 -0.03861
 C40 C 1.03044 0.72445 0.03797
 C41 C 0.96968 0.72383 0.03774
 C42 C 1.03063 0.72448 -0.03851
 O43 O 0.52288 0.20382 0.52832
 O44 O 0.47745 0.20415 0.47161
 O45 O 0.52268 0.20424 0.47126
 O46 O 0.47768 0.20425 0.52873
 O47 O 0.47803 0.24243 0.52881
 O48 O 0.52275 0.24242 0.47150
 O49 O 0.47771 0.24233 0.47185
 O50 O 0.52303 0.24200 0.52840
 Cu51 Cu 0.50014 0.20028 0.49996
 Cu52 Cu 0.50040 0.24611 0.50015
 C53 C 0.53082 0.22289 0.53795
 C54 C 0.46973 0.22332 0.46212
 C55 C 0.53050 0.22339 0.46167
 C56 C 0.47010 0.22339 0.53852
 O57 O 0.70351 -0.02286 0.02720
 O58 O 0.70418 0.02244 -0.02987
 O59 O 0.70405 -0.02279 -0.02989
 O60 O 0.70366 0.02239 0.02725
 O61 O 0.74181 0.02225 0.02769
 O62 O 0.74220 -0.02271 -0.02928
 O63 O 0.74230 0.02230 -0.02925
 O64 O 0.74166 -0.02278 0.02762
 Cu65 Cu 0.70001 -0.00020 -0.00137
 Cu66 Cu 0.74580 -0.00023 -0.00075
 C67 C 0.72252 -0.03066 0.03705
 C68 C 0.72339 0.03023 -0.03929
 C69 C 0.72323 -0.03055 -0.03926
 C70 C 0.72272 0.03012 0.03715
 O71 O 0.20331 0.52321 0.47274
 O72 O 0.20336 0.47792 0.52977
 O73 O 0.20340 0.52318 0.52983
 O74 O 0.20336 0.47796 0.47270
 O75 O 0.24152 0.47820 0.47269
 O76 O 0.24156 0.52321 0.52966
 O77 O 0.24152 0.47814 0.52960
 O78 O 0.24147 0.52325 0.47273
 Cu79 Cu 0.19952 0.50057 0.50127
 Cu80 Cu 0.24532 0.50072 0.50116
 C81 C 0.22241 0.53107 0.46308
 C82 C 0.22250 0.47018 0.53931
 C83 C 0.22253 0.53102 0.53941
 C84 C 0.22248 0.47025 0.46304
 O85 O 0.29502 1.02395 0.02999
 O86 O 0.29509 0.97873 -0.02717
 O87 O 0.29529 1.02398 -0.02715
 O88 O 0.29500 0.97869 0.02994
 O89 O 0.25684 0.97875 0.02969
 O90 O 0.25716 1.02387 -0.02720
 O91 O 0.25693 0.97883 -0.02723
 O92 O 0.25690 1.02380 0.02975
 Cu93 Cu 0.29893 1.00134 0.00143
 Cu94 Cu 0.25317 1.00132 0.00124
 C95 C 0.27590 1.03174 0.03961
 C96 C 0.27597 0.97097 -0.03689
 C97 C 0.27623 1.03179 -0.03691
 C98 C 0.27584 0.97088 0.03947
 O99 O 0.79687 0.52218 0.52795
 O100 O 0.79661 0.47729 0.47042
 O101 O 0.79645 0.52250 0.47085
 O102 O 0.79700 0.47692 0.52755
 O103 O 0.75884 0.47680 0.52791
 O104 O 0.75829 0.52218 0.47143
 O105 O 0.75845 0.47720 0.47096
 O106 O 0.75871 0.52184 0.52833
 Cu107 Cu 0.80057 0.49974 0.49916
 Cu108 Cu 0.75477 0.49948 0.49972
 C109 C 0.77778 0.52978 0.53787
 C110 C 0.77744 0.46952 0.46091
 C111 C 0.77723 0.53019 0.46151
 C112 C 0.77797 0.46899 0.53733
 C113 C 0.21489 0.23259 0.17324
 C114 C 0.23165 0.21583 0.17314
 C115 C 0.24293 0.21734 0.19989
 N116 N 0.23362 0.23441 0.21634
 C117 C 0.21649 0.24379 0.20005
 C118 C 0.26043 0.20208 0.20946
 C119 C 0.27376 0.20591 0.23500
 C120 C 0.28767 0.18944 0.24832
 C121 C 0.29845 0.20021 0.27150
 C122 C 0.29084 0.22296 0.27170
 N123 N 0.27591 0.22632 0.24928
 C124 C 0.29862 0.24017 0.29142
 C125 C 0.28735 0.26164 0.29521
 C126 C 0.29609 0.28005 0.31129
 C127 C 0.27932 0.29678 0.31142
 C128 C 0.26088 0.28806 0.29540
 N129 N 0.26580 0.26655 0.28556
 C130 C 0.23939 0.29930 0.29179
 C131 C 0.22215 0.29151 0.27213
 C132 C 0.19939 0.29906 0.27207
 C133 C 0.18860 0.28829 0.24889
 C134 C 0.20508 0.27447 0.23544
 N135 N 0.22550 0.27664 0.24964
 C136 C 0.20125 0.26125 0.20981
 H137 H 0.20281 0.23602 0.15565
 H138 H 0.23502 0.20380 0.15546
 H139 H 0.24135 0.27033 0.24248
 H140 H 0.28987 0.17153 0.24197
 H141 H 0.31057 0.19220 0.28646
 H142 H 0.31277 0.28124 0.32199
 H143 H 0.28051 0.31342 0.32223
 H144 H 0.17068 0.29046 0.24261
 H145 H 0.26954 0.24219 0.24225
 H146 H 0.19139 0.31112 0.28710
 C147 C 0.79532 0.77917 0.18814
 C148 C 0.77848 0.79584 0.18811
 C149 C 0.76013 0.78705 0.20428
 N150 N 0.76517 0.76557 0.21411
 C151 C 0.78670 0.76074 0.20431
 C152 C 0.73860 0.79821 0.20802
 C153 C 0.72143 0.79036 0.22778
 C154 C 0.69865 0.79782 0.22794
 C155 C 0.68794 0.78702 0.25119
 C156 C 0.70449 0.77327 0.26460
 N157 N 0.72489 0.77551 0.25029
 C158 C 0.70075 0.76004 0.29026
 C159 C 0.71613 0.74268 0.29997
 C160 C 0.71473 0.73155 0.32685
 C161 C 0.73157 0.71487 0.32687
 C162 C 0.74270 0.71637 0.29999
 N163 N 0.73321 0.73334 0.28356
 C164 C 0.76020 0.70115 0.29031
 C165 C 0.77341 0.70499 0.26466
 C166 C 0.78734 0.68856 0.25130
 C167 C 0.79805 0.69936 0.22806
 C168 C 0.79037 0.72208 0.22785
 N169 N 0.77546 0.72540 0.25033
 C170 C 0.79807 0.73932 0.20810
 H171 H 0.81195 0.78042 0.17731
 H172 H 0.77957 0.81248 0.17727
 H173 H 0.76906 0.74124 0.25738
 H174 H 0.69057 0.80985 0.21292
 H175 H 0.67002 0.78913 0.25754
 H176 H 0.70273 0.73498 0.34455
 H177 H 0.73511 0.70292 0.34459
 H178 H 0.81018 0.69139 0.21307
 H179 H 0.74078 0.76927 0.25737
 H180 H 0.78961 0.67066 0.25768
 C181 C 0.77908 0.20390 0.18807
 C182 C 0.79589 0.22069 0.18802
 C183 C 0.78722 0.23911 0.20407
 N184 N 0.76569 0.23416 0.21386
 C185 C 0.76070 0.21261 0.20415
 C186 C 0.79855 0.26061 0.20774
 C187 C 0.79084 0.27782 0.22746
 C188 C 0.79847 0.30060 0.22758
 C189 C 0.78777 0.31134 0.25081
 C190 C 0.77389 0.29483 0.26424
 N191 N 0.77596 0.27441 0.24997
 C192 C 0.76068 0.29861 0.28989
 C193 C 0.74319 0.28330 0.29963
 C194 C 0.73203 0.28480 0.32648
 C195 C 0.71523 0.26800 0.32653
 C196 C 0.71668 0.25680 0.29972
 N197 N 0.73375 0.26620 0.28328
 C198 C 0.70134 0.23931 0.29008
 C199 C 0.70508 0.22606 0.26446
 C200 C 0.68855 0.21217 0.25113
 C201 C 0.69925 0.20143 0.22789
 C202 C 0.72202 0.20905 0.22768
 N203 N 0.72546 0.22396 0.25014
 C204 C 0.73920 0.20130 0.20794
 H205 H 0.78022 0.18723 0.17733
 H206 H 0.81254 0.21951 0.17725
 H207 H 0.74135 0.23032 0.25717
 H208 H 0.81057 0.30864 0.21255
 H209 H 0.79001 0.32926 0.25714
 H210 H 0.73552 0.29684 0.34412
 H211 H 0.70322 0.26454 0.34423
 H212 H 0.69119 0.18932 0.21292
 H213 H 0.76960 0.25853 0.25708
 H214 H 0.67064 0.20994 0.25752
 C215 C 0.27796 0.70525 0.31364
 C216 C 0.29483 0.72198 0.31367
 C217 C 0.28674 0.73995 0.29634
 N218 N 0.26542 0.73482 0.28597
 C219 C 0.26007 0.71357 0.29637
 C220 C 0.29836 0.76123 0.29204
 C221 C 0.29076 0.77856 0.27239
 C222 C 0.29949 0.80093 0.27124
 C223 C 0.28873 0.81179 0.24814
 C224 C 0.27373 0.79576 0.23578
 N225 N 0.27520 0.77553 0.25058
 C226 C 0.26036 0.79962 0.21030
 C227 C 0.24242 0.78475 0.20080
 C228 C 0.23047 0.78713 0.17462
 C229 C 0.21362 0.77037 0.17454
 C230 C 0.21577 0.75835 0.20072
 N231 N 0.23330 0.76725 0.21679
 C232 C 0.20075 0.74049 0.21009
 C233 C 0.20465 0.72688 0.23539
 C234 C 0.18827 0.71252 0.24828
 C235 C 0.19899 0.70170 0.27144
 C236 C 0.22162 0.70974 0.27208
 N237 N 0.22497 0.72493 0.24988
 C238 C 0.23868 0.70216 0.29208
 H239 H 0.27869 0.68892 0.32525
 H240 H 0.31109 0.72110 0.32538
 H241 H 0.24079 0.73160 0.24311
 H242 H 0.31250 0.80857 0.28533
 H243 H 0.29186 0.82940 0.24103
 H244 H 0.23341 0.79976 0.15747
 H245 H 0.20108 0.76751 0.15729
 H246 H 0.19102 0.68930 0.28613
 H247 H 0.26807 0.75987 0.24407
 H248 H 0.17045 0.71008 0.24167
 C249 C 0.76905 0.21393 0.82656
 C250 C 0.78594 0.23064 0.82647
 C251 C 0.78446 0.24184 0.79964
 N252 N 0.76729 0.23251 0.78334
 C253 C 0.75781 0.21547 0.79978
 C254 C 0.79984 0.25927 0.78989
 C255 C 0.79613 0.27247 0.76422
 C256 C 0.81270 0.28625 0.75074
 C257 C 0.80199 0.29705 0.72756
 C258 C 0.77917 0.28957 0.72752
 N259 N 0.77571 0.27469 0.75002
 C260 C 0.76196 0.29747 0.70793
 C261 C 0.74037 0.28630 0.70435
 C262 C 0.72197 0.29514 0.68843
 C263 C 0.70505 0.27845 0.68855
 C264 C 0.71369 0.25997 0.70453
 N265 N 0.73530 0.26479 0.71412
 C266 C 0.70227 0.23851 0.70827
 C267 C 0.70995 0.22125 0.72795
 C268 C 0.70220 0.19851 0.72812
 C269 C 0.71292 0.18769 0.75129
 C270 C 0.72693 0.20412 0.76463
 N271 N 0.72491 0.22455 0.75037
 C272 C 0.74021 0.20024 0.79018
 H273 H 0.76556 0.20192 0.84425
 H274 H 0.79803 0.23404 0.84408
 H275 H 0.73140 0.24039 0.75741
 H276 H 0.83064 0.28838 0.75702
 H277 H 0.81007 0.30911 0.71252
 H278 H 0.72088 0.31181 0.67770
 H279 H 0.68836 0.27973 0.67791
 H280 H 0.71059 0.16978 0.75762
 H281 H 0.75981 0.26844 0.75719
 H282 H 0.69002 0.19054 0.71317
 C283 C 0.27931 0.70484 0.69062
 C284 C 0.29616 0.72159 0.69068
 C285 C 0.28746 0.74004 0.70664
 N286 N 0.26587 0.73515 0.71627
 C287 C 0.26088 0.71361 0.70655
 C288 C 0.29882 0.76152 0.71036
 C289 C 0.29105 0.77881 0.72993
 C290 C 0.29878 0.80156 0.73004
 C291 C 0.28794 0.81241 0.75309
 C292 C 0.27390 0.79599 0.76644
 N293 N 0.27601 0.77552 0.75229
 C294 C 0.26051 0.79990 0.79190
 C295 C 0.24292 0.78464 0.80152
 C296 C 0.23161 0.78622 0.82825
 C297 C 0.21477 0.76946 0.82821
 C298 C 0.21635 0.75820 0.80145
 N299 N 0.23354 0.76753 0.78514
 C300 C 0.20104 0.74071 0.79174
 C301 C 0.20491 0.72739 0.76621
 C302 C 0.18842 0.71352 0.75276
 C303 C 0.19925 0.70267 0.72969
 C304 C 0.22205 0.71022 0.72969
 N305 N 0.22538 0.72517 0.75212
 C306 C 0.23932 0.70237 0.71014
 H307 H 0.28045 0.68817 0.67989
 H308 H 0.31284 0.72037 0.68001
 H309 H 0.24124 0.73151 0.75931
 H310 H 0.31100 0.80951 0.71511
 H311 H 0.29020 0.83034 0.75936
 H312 H 0.23502 0.79828 0.84589
 H313 H 0.20265 0.76607 0.84581
 H314 H 0.19124 0.69056 0.71468
 H315 H 0.26953 0.75969 0.75938
 H316 H 0.17046 0.71138 0.75896
 C317 C 0.21583 0.23245 0.82867
 C318 C 0.23277 0.21589 0.82900
 C319 C 0.24398 0.21724 0.80217
 N320 N 0.23445 0.23403 0.78547
 C321 C 0.21725 0.24338 0.80166
 C322 C 0.26154 0.20199 0.79271
 C323 C 0.27486 0.20579 0.76712
 C324 C 0.28881 0.18933 0.75386
 C325 C 0.29958 0.20009 0.73062
 C326 C 0.29191 0.22282 0.73034
 N327 N 0.27695 0.22618 0.75275
 C328 C 0.29966 0.24004 0.71058
 C329 C 0.28828 0.26144 0.70672
 C330 C 0.29697 0.27992 0.69070
 C331 C 0.28007 0.29653 0.69044
 C332 C 0.26160 0.28765 0.70630
 N333 N 0.26663 0.26619 0.71619
 C334 C 0.23999 0.29871 0.70972
 C335 C 0.22270 0.29075 0.72921
 C336 C 0.19985 0.29799 0.72900
 C337 C 0.18904 0.28718 0.75215
 C338 C 0.20559 0.27364 0.76588
 N339 N 0.22608 0.27600 0.75184
 C340 C 0.20179 0.26054 0.79162
 H341 H 0.20373 0.23593 0.84624
 H342 H 0.23632 0.20409 0.84689
 H343 H 0.24197 0.26994 0.75919
 H344 H 0.29108 0.17144 0.76030
 H345 H 0.31174 0.19209 0.71570
 H346 H 0.31370 0.28125 0.68014
 H347 H 0.28120 0.31318 0.67962
 H348 H 0.17105 0.28915 0.75825
 H349 H 0.27051 0.24203 0.75972
 H350 H 0.19180 0.30991 0.71381
 C351 C 0.79756 0.77949 0.80985
 C352 C 0.78075 0.79618 0.80973
 C353 C 0.76239 0.78733 0.79367
 N354 N 0.76741 0.76579 0.78403
 C355 C 0.78893 0.76099 0.79386
 C356 C 0.74086 0.79847 0.78989
 C357 C 0.72369 0.79055 0.77023
 C358 C 0.70090 0.79801 0.77007
 C359 C 0.69018 0.78712 0.74693
 C360 C 0.70672 0.77331 0.73360
 N361 N 0.72712 0.77561 0.74783
 C362 C 0.70297 0.75996 0.70806
 C363 C 0.71831 0.74252 0.69850
 C364 C 0.71687 0.73122 0.67175
 C365 C 0.73370 0.71454 0.67187
 C366 C 0.74486 0.71619 0.69869
 N367 N 0.73540 0.73327 0.71497
 C368 C 0.76236 0.70100 0.70849
 C369 C 0.77560 0.70496 0.73406
 C370 C 0.78950 0.68858 0.74756
 C371 C 0.80022 0.69947 0.77070
 C372 C 0.79258 0.72221 0.77069
 N373 N 0.77769 0.72544 0.74818
 C374 C 0.80027 0.73953 0.79030
 H375 H 0.81419 0.78078 0.82065
 H376 H 0.78185 0.81287 0.82042
 H377 H 0.77130 0.74125 0.74099
 H378 H 0.69283 0.81011 0.78501
 H379 H 0.67226 0.78920 0.74060
 H380 H 0.70486 0.73455 0.65405
 H381 H 0.73721 0.70247 0.65428
 H382 H 0.81232 0.69156 0.78575
 H383 H 0.74301 0.76933 0.74078
 H384 H 0.79174 0.67064 0.74135
 C385 C 0.27489 0.08560 0.10232
 C386 C 0.29603 0.07687 0.09233
 C387 C 0.29646 0.05884 0.07183
 C388 C 0.27566 0.04932 0.06093
 C389 C 0.25450 0.05815 0.07150
 C390 C 0.25417 0.07612 0.09198
 C391 C 0.27422 0.10476 0.12247
 C392 C 0.27292 0.12104 0.13892
 C393 C 0.27049 0.14071 0.15803
 C394 C 0.28827 0.15714 0.16027
 C395 C 0.28520 0.17695 0.17747
 C396 C 0.26428 0.18049 0.19248
 C397 C 0.24669 0.16376 0.19059
 C398 C 0.24977 0.14398 0.17341
 H399 H 0.31219 0.08413 0.10017
 H400 H 0.31309 0.05258 0.06433
 H401 H 0.23810 0.05137 0.06379
 H402 H 0.23771 0.08278 0.09954
 H403 H 0.30433 0.15482 0.14837
 H404 H 0.29891 0.18973 0.17868
 H405 H 0.23047 0.16622 0.20208
 H406 H 0.23588 0.13143 0.17176
 C407 C 0.77697 0.58455 0.60152
 C408 C 0.79809 0.57637 0.59068
 C409 C 0.79845 0.55829 0.57025
 C410 C 0.77765 0.54825 0.56038
 C411 C 0.75655 0.55645 0.57170
 C412 C 0.75624 0.57447 0.59211
 C413 C 0.77632 0.60372 0.62163
 C414 C 0.77504 0.61999 0.63809
 C415 C 0.77261 0.63962 0.65724
 C416 C 0.79036 0.65608 0.65946
 C417 C 0.78725 0.67589 0.67666
 C418 C 0.76632 0.67938 0.69167
 C419 C 0.74878 0.66258 0.68984
 C420 C 0.75191 0.64282 0.67267
 H421 H 0.81424 0.58410 0.59778
 H422 H 0.81496 0.55239 0.56193
 H423 H 0.74023 0.54911 0.56459
 H424 H 0.73980 0.58070 0.60031
 H425 H 0.80640 0.65381 0.64753
 H426 H 0.80092 0.68871 0.67784
 H427 H 0.73257 0.66500 0.70136
 H428 H 0.73805 0.63022 0.67104
 C429 C 0.72281 0.91388 0.09981
 C430 C 0.70177 0.92241 0.08917
 C431 C 0.70159 0.94074 0.06908
 C432 C 0.72249 0.95068 0.05934
 C433 C 0.74350 0.94216 0.07050
 C434 C 0.74363 0.92389 0.09057
 C435 C 0.72324 0.89435 0.11939
 C436 C 0.72427 0.87774 0.13536
 C437 C 0.72631 0.85767 0.15386
 C438 C 0.72744 0.86009 0.18439
 C439 C 0.73098 0.84066 0.20213
 C440 C 0.73349 0.81867 0.18943
 C441 C 0.73185 0.81628 0.15886
 C442 C 0.72831 0.83570 0.14116
 H443 H 0.68555 0.91474 0.09613
 H444 H 0.68513 0.94689 0.06089
 H445 H 0.75989 0.94942 0.06349
 H446 H 0.76001 0.91737 0.09862
 H447 H 0.72598 0.87702 0.19442
 H448 H 0.73222 0.84277 0.22568
 H449 H 0.73369 0.79942 0.14874
 H450 H 0.72752 0.83363 0.11757
 C451 C 0.22357 0.41458 0.60186
 C452 C 0.20241 0.42312 0.59165
 C453 C 0.20197 0.44148 0.57162
 C454 C 0.22275 0.45148 0.56153
 C455 C 0.24390 0.44295 0.57227
 C456 C 0.24427 0.42464 0.59228
 C457 C 0.22425 0.39499 0.62136
 C458 C 0.22546 0.37835 0.63724
 C459 C 0.22767 0.35824 0.65565
 C460 C 0.22850 0.36058 0.68621
 C461 C 0.23209 0.34112 0.70391
 C462 C 0.23495 0.31920 0.69113
 C463 C 0.23365 0.31690 0.66052
 C464 C 0.23005 0.33634 0.64288
 H465 H 0.18627 0.41542 0.59888
 H466 H 0.18541 0.44762 0.56375
 H467 H 0.26019 0.45024 0.56497
 H468 H 0.26075 0.41813 0.60000
 H469 H 0.22675 0.37745 0.69631
 H470 H 0.23306 0.34317 0.72748
 H471 H 0.23574 0.30009 0.65035
 H472 H 0.22947 0.33434 0.61926
 C473 C 0.91455 0.27581 0.09980
 C474 C 0.92451 0.25501 0.09056
 C475 C 0.94283 0.25522 0.07056
 C476 C 0.95145 0.27629 0.05948
 C477 C 0.94153 0.29715 0.06921
 C478 C 0.92316 0.29689 0.08923
 C479 C 0.89499 0.27533 0.11934
 C480 C 0.87835 0.27435 0.13526
 C481 C 0.85822 0.27245 0.15370
 C482 C 0.86056 0.27153 0.18426
 C483 C 0.84105 0.26816 0.20196
 C484 C 0.81909 0.26563 0.18919
 C485 C 0.81679 0.26708 0.15859
 C486 C 0.83628 0.27044 0.14094
 H487 H 0.91794 0.23859 0.09855
 H488 H 0.95007 0.23886 0.06355
 H489 H 0.94774 0.31365 0.06109
 H490 H 0.91552 0.31309 0.09619
 H491 H 0.87746 0.27301 0.19435
 H492 H 0.84309 0.26708 0.22553
 H493 H 0.79995 0.26524 0.14842
 H494 H 0.83429 0.27110 0.11733
 C495 C 0.41492 0.77645 0.60260
 C496 C 0.42367 0.79749 0.59207
 C497 C 0.44189 0.79764 0.57184
 C498 C 0.45152 0.77672 0.56185
 C499 C 0.44280 0.75570 0.57293
 C500 C 0.42463 0.75559 0.59314
 C501 C 0.39542 0.77606 0.62222
 C502 C 0.37879 0.77511 0.63815
 C503 C 0.35864 0.77321 0.65655
 C504 C 0.33671 0.77137 0.64372
 C505 C 0.31718 0.76804 0.66130
 C506 C 0.31943 0.76645 0.69190
 C507 C 0.34139 0.76878 0.70474
 C508 C 0.36093 0.77211 0.68711
 H509 H 0.41623 0.81373 0.59920
 H510 H 0.44820 0.81411 0.56373
 H511 H 0.44982 0.73929 0.56573
 H512 H 0.41794 0.73921 0.60110
 H513 H 0.33475 0.77213 0.62011
 H514 H 0.30035 0.76632 0.65109
 H515 H 0.34339 0.76756 0.72830
 H516 H 0.37784 0.77344 0.69724
 C517 C 0.08505 0.72584 0.10184
 C518 C 0.07513 0.74649 0.09202
 C519 C 0.05719 0.74601 0.07151
 C520 C 0.04891 0.72481 0.06048
 C521 C 0.05881 0.70409 0.07073
 C522 C 0.07680 0.70462 0.09127
 C523 C 0.10411 0.72662 0.12211
 C524 C 0.12029 0.72791 0.13872
 C525 C 0.13983 0.73021 0.15805
 C526 C 0.15750 0.71365 0.15776
 C527 C 0.17715 0.71672 0.17524
 C528 C 0.17929 0.73643 0.19301
 C529 C 0.16137 0.75277 0.19363
 C530 C 0.14172 0.74966 0.17622
 H531 H 0.08142 0.76301 0.10002
 H532 H 0.04997 0.76227 0.06411
 H533 H 0.05285 0.68749 0.06265
 H534 H 0.08440 0.68853 0.09867
 H535 H 0.15626 0.69861 0.14367
 H536 H 0.19090 0.70403 0.17448
 H537 H 0.16281 0.76806 0.20726
 H538 H 0.12819 0.76260 0.17656
 C539 C 0.58633 0.22326 0.60050
 C540 C 0.57659 0.24410 0.59103
 C541 C 0.55830 0.24395 0.57101
 C542 C 0.54951 0.22291 0.56014
 C543 C 0.55920 0.20200 0.57011
 C544 C 0.57753 0.20220 0.59015
 C545 C 0.60587 0.22368 0.62002
 C546 C 0.62250 0.22467 0.63592
 C547 C 0.64261 0.22663 0.65433
 C548 C 0.66454 0.22875 0.64153
 C549 C 0.68401 0.23217 0.65915
 C550 C 0.68172 0.23357 0.68976
 C551 C 0.65976 0.23096 0.70256
 C552 C 0.64027 0.22752 0.68489
 H553 H 0.58330 0.26050 0.59887
 H554 H 0.55124 0.26034 0.56381
 H555 H 0.55283 0.18552 0.56215
 H556 H 0.58499 0.18596 0.59730
 H557 H 0.66654 0.22814 0.61791
 H558 H 0.70085 0.23409 0.64896
 H559 H 0.65772 0.23201 0.72613
 H560 H 0.62337 0.22595 0.69499
 C561 C 0.72500 0.08409 0.89796
 C562 C 0.74562 0.07462 0.90850
 C563 C 0.74510 0.05665 0.92899
 C564 C 0.72384 0.04782 0.93938
 C565 C 0.70315 0.05732 0.92827
 C566 C 0.70377 0.07534 0.90775
 C567 C 0.72585 0.10319 0.87770
 C568 C 0.72726 0.11940 0.86113
 C569 C 0.72978 0.13899 0.84186
 C570 C 0.71206 0.15538 0.83944
 C571 C 0.71523 0.17513 0.82212
 C572 C 0.73620 0.17866 0.80718
 C573 C 0.75371 0.16194 0.80920
 C574 C 0.75052 0.14222 0.82650
 H575 H 0.76216 0.08129 0.90108
 H576 H 0.76142 0.04987 0.93685
 H577 H 0.68644 0.05104 0.93560
 H578 H 0.68769 0.08259 0.89974
 H579 H 0.69597 0.15307 0.85131
 H580 H 0.70157 0.18789 0.82079
 H581 H 0.76996 0.16438 0.79773
 H582 H 0.76437 0.12969 0.82827
 C583 C 0.22313 0.58648 0.40026
 C584 C 0.24391 0.57663 0.40977
 C585 C 0.24365 0.55838 0.42988
 C586 C 0.22255 0.54972 0.44079
 C587 C 0.20172 0.55951 0.43078
 C588 C 0.20203 0.57780 0.41066
 C589 C 0.22366 0.60595 0.38060
 C590 C 0.22469 0.62250 0.36455
 C591 C 0.22665 0.64250 0.34590
 C592 C 0.22558 0.66471 0.35813
 C593 C 0.22904 0.68418 0.34046
 C594 C 0.23358 0.68158 0.31041
 C595 C 0.23417 0.65934 0.29809
 C596 C 0.23077 0.63985 0.31581
 H597 H 0.26034 0.58325 0.40190
 H598 H 0.25999 0.55124 0.43710
 H599 H 0.18520 0.55325 0.43877
 H600 H 0.18585 0.58534 0.40348
 H601 H 0.22246 0.66695 0.38139
 H602 H 0.22854 0.70126 0.35023
 H603 H 0.23775 0.65711 0.27495
 H604 H 0.23176 0.62275 0.30617
 C605 C 0.27501 0.91619 0.89942
 C606 C 0.25429 0.92604 0.90913
 C607 C 0.25464 0.94403 0.92959
 C608 C 0.27577 0.95245 0.94066
 C609 C 0.29655 0.94262 0.93052
 C610 C 0.29615 0.92457 0.91004
 C611 C 0.27433 0.89705 0.87924
 C612 C 0.27304 0.88080 0.86272
 C613 C 0.27063 0.86120 0.84349
 C614 C 0.24997 0.85794 0.82799
 C615 C 0.24689 0.83822 0.81070
 C616 C 0.26442 0.82151 0.80883
 C617 C 0.28530 0.82504 0.82394
 C618 C 0.28837 0.84481 0.84125
 H619 H 0.23783 0.91965 0.90110
 H620 H 0.23833 0.95119 0.93691
 H621 H 0.31309 0.94869 0.93863
 H622 H 0.31230 0.91703 0.90271
 H623 H 0.23611 0.87047 0.82964
 H624 H 0.23070 0.83575 0.79914
 H625 H 0.29896 0.81228 0.82276
 H626 H 0.30439 0.84712 0.85325
 C627 C 0.77609 0.41513 0.39673
 C628 C 0.75543 0.42491 0.40675
 C629 C 0.75590 0.44281 0.42732
 C630 C 0.77710 0.45119 0.43822
 C631 C 0.79783 0.44149 0.42770
 C632 C 0.79730 0.42354 0.40710
 C633 C 0.77528 0.39597 0.37662
 C634 C 0.77384 0.37967 0.36021
 C635 C 0.77125 0.35999 0.34117
 C636 C 0.75047 0.35672 0.32593
 C637 C 0.74721 0.33693 0.30881
 C638 C 0.76469 0.32018 0.30685
 C639 C 0.78567 0.32371 0.32172
 C640 C 0.78892 0.34353 0.33887
 H641 H 0.73892 0.41851 0.39890
 H642 H 0.73964 0.44990 0.43491
 H643 H 0.81442 0.44756 0.43564
 H644 H 0.81340 0.41606 0.39952
 H645 H 0.73666 0.36930 0.32763
 H646 H 0.73094 0.33448 0.29741
 H647 H 0.79931 0.31091 0.32044
 H648 H 0.80502 0.34585 0.35067
 C649 C 0.08549 0.27455 0.89905
 C650 C 0.07672 0.29572 0.90886
 C651 C 0.05865 0.29620 0.92929
 C652 C 0.04911 0.27542 0.94028
 C653 C 0.05799 0.25422 0.92991
 C654 C 0.07602 0.25384 0.90951
 C655 C 0.10459 0.27386 0.87883
 C656 C 0.12080 0.27261 0.86226
 C657 C 0.14038 0.27029 0.84300
 C658 C 0.15652 0.28831 0.84031
 C659 C 0.17630 0.28536 0.82303
 C660 C 0.18011 0.26432 0.80841
 C661 C 0.16364 0.24651 0.81068
 C662 C 0.14389 0.24948 0.82793
 H663 H 0.08398 0.31187 0.90093
 H664 H 0.05234 0.31286 0.93663
 H665 H 0.05118 0.23784 0.93770
 H666 H 0.08272 0.23735 0.90208
 H667 H 0.15400 0.30445 0.85195
 H668 H 0.18887 0.29925 0.82150
 H669 H 0.16631 0.23020 0.79947
 H670 H 0.13154 0.23542 0.82991
 C671 C 0.58479 0.77453 0.39831
 C672 C 0.57655 0.79576 0.40872
 C673 C 0.55857 0.79632 0.42929
 C674 C 0.54867 0.77560 0.43974
 C675 C 0.55693 0.75438 0.42885
 C676 C 0.57486 0.75388 0.40831
 C677 C 0.60387 0.77373 0.37805
 C678 C 0.62007 0.77240 0.36146
 C679 C 0.63962 0.77000 0.34214
 C680 C 0.65592 0.78788 0.33957
 C681 C 0.67563 0.78485 0.32216
 C682 C 0.67920 0.76388 0.30730
 C683 C 0.66257 0.74620 0.30950
 C684 C 0.64290 0.74924 0.32687
 H685 H 0.58416 0.81186 0.40117
 H686 H 0.55262 0.81293 0.43724
 H687 H 0.54969 0.73813 0.43641
 H688 H 0.58113 0.73735 0.40044
 H689 H 0.65358 0.80398 0.35137
 H690 H 0.68832 0.79864 0.32071
 H691 H 0.66506 0.72994 0.29811
 H692 H 0.63043 0.73528 0.32876
 C693 C 0.91561 0.72452 0.89918
 C694 C 0.92461 0.70345 0.90905
 C695 C 0.94278 0.70320 0.92933
 C696 C 0.95217 0.72409 0.94013
 C697 C 0.94313 0.74518 0.92961
 C698 C 0.92501 0.74534 0.90935
 C699 C 0.89621 0.72497 0.87941
 C700 C 0.87969 0.72598 0.86333
 C701 C 0.85967 0.72793 0.84473
 C702 C 0.83767 0.72985 0.85734
 C703 C 0.81828 0.73316 0.83956
 C704 C 0.82073 0.73466 0.80898
 C705 C 0.84276 0.73228 0.79636
 C706 C 0.86217 0.72896 0.81419
 H707 H 0.91742 0.68723 0.90134
 H708 H 0.94923 0.68662 0.93678
 H709 H 0.94982 0.76164 0.93722
 H710 H 0.91814 0.76175 0.90188
 H711 H 0.83554 0.72914 0.88093
 H712 H 0.80139 0.73492 0.84961
 H713 H 0.84493 0.73343 0.77281
 H714 H 0.87913 0.72758 0.80422
 C715 C 0.41432 0.22438 0.39939
 C716 C 0.42289 0.20322 0.40959
 C717 C 0.44117 0.20280 0.42970
 C718 C 0.45105 0.22359 0.43990
 C719 C 0.44249 0.24475 0.42918
 C720 C 0.42426 0.24511 0.40909
 C721 C 0.39483 0.22502 0.37980
 C722 C 0.37824 0.22615 0.36385
 C723 C 0.35817 0.22822 0.34541
 C724 C 0.33621 0.23013 0.35816
 C725 C 0.31677 0.23355 0.34052
 C726 C 0.31912 0.23518 0.30994
 C727 C 0.34110 0.23280 0.29717
 C728 C 0.36056 0.22937 0.31486
 H729 H 0.41528 0.18707 0.40227
 H730 H 0.44734 0.18623 0.43753
 H731 H 0.44971 0.26106 0.43655
 H732 H 0.41772 0.26159 0.40138
 H733 H 0.33417 0.22933 0.38176
 H734 H 0.29992 0.23530 0.35068
 H735 H 0.34318 0.23404 0.27361
 H736 H 0.37748 0.22799 0.30478
 C737 C 0.72454 0.91424 0.89772
 C738 C 0.70335 0.92276 0.90785
 C739 C 0.70284 0.94100 0.92803
 C740 C 0.72358 0.95088 0.93837
 C741 C 0.74477 0.94238 0.92770
 C742 C 0.74522 0.92419 0.90754
 C743 C 0.72526 0.89475 0.87810
 C744 C 0.72644 0.87816 0.86217
 C745 C 0.72858 0.85806 0.84375
 C746 C 0.72967 0.86041 0.81320
 C747 C 0.73321 0.84094 0.79555
 C748 C 0.73576 0.81899 0.80837
 C749 C 0.73417 0.81667 0.83896
 C750 C 0.73063 0.83613 0.85656
 H751 H 0.68724 0.91513 0.90044
 H752 H 0.68625 0.94713 0.93582
 H753 H 0.76104 0.94960 0.93518
 H754 H 0.76173 0.91769 0.89989
 H755 H 0.72815 0.87732 0.80309
 H756 H 0.73440 0.84299 0.77199
 H757 H 0.73603 0.79984 0.84915
 H758 H 0.72986 0.83412 0.88017
 C759 C 0.22344 0.41489 0.40016
 C760 C 0.20230 0.42336 0.41056
 C761 C 0.20190 0.44163 0.43071
 C762 C 0.22269 0.45161 0.44074
 C763 C 0.24382 0.44314 0.42984
 C764 C 0.24417 0.42492 0.40972
 C765 C 0.22409 0.39542 0.38050
 C766 C 0.22524 0.37885 0.36450
 C767 C 0.22735 0.35879 0.34599
 C768 C 0.22847 0.36123 0.31544
 C769 C 0.23194 0.34179 0.29769
 C770 C 0.23440 0.31979 0.31039
 C771 C 0.23281 0.31739 0.34097
 C772 C 0.22933 0.33681 0.35867
 H773 H 0.18616 0.41567 0.40337
 H774 H 0.18536 0.44772 0.43871
 H775 H 0.26013 0.45041 0.43710
 H776 H 0.26063 0.41846 0.40187
 H777 H 0.22703 0.37817 0.30541
 H778 H 0.23315 0.34391 0.27414
 H779 H 0.23460 0.30052 0.35109
 H780 H 0.22854 0.33473 0.38227
 C781 C 0.27566 0.08560 0.90023
 C782 C 0.29673 0.07683 0.91038
 C783 C 0.29701 0.05884 0.93096
 C784 C 0.27614 0.04938 0.94175
 C785 C 0.25506 0.05824 0.93101
 C786 C 0.25487 0.07617 0.91045
 C787 C 0.27513 0.10475 0.88004
 C788 C 0.27391 0.12103 0.86356
 C789 C 0.27150 0.14069 0.84440
 C790 C 0.28950 0.15683 0.84155
 C791 C 0.28646 0.17662 0.82426
 C792 C 0.26536 0.18043 0.80979
 C793 C 0.24754 0.16399 0.81235
 C794 C 0.25059 0.14425 0.82960
 H795 H 0.31294 0.08404 0.90262
 H796 H 0.31359 0.05256 0.93859
 H797 H 0.23861 0.05151 0.93864
 H798 H 0.23845 0.08286 0.90276
 H799 H 0.30570 0.15432 0.85302
 H800 H 0.30035 0.18917 0.82258
 H801 H 0.23116 0.16667 0.80134
 H802 H 0.23652 0.13194 0.83176
 C803 C 0.77562 0.58514 0.39806
 C804 C 0.79687 0.57678 0.40823
 C805 C 0.79748 0.55870 0.42865
 C806 C 0.77679 0.54880 0.43918
 C807 C 0.75555 0.55720 0.42857
 C808 C 0.75500 0.57524 0.40818
 C809 C 0.77475 0.60428 0.37789
 C810 C 0.77331 0.62050 0.36136
 C811 C 0.77073 0.64006 0.34212
 C812 C 0.78844 0.65655 0.33960
 C813 C 0.78522 0.67626 0.32224
 C814 C 0.76423 0.67964 0.30737
 C815 C 0.74672 0.66283 0.30952
 C816 C 0.74995 0.64316 0.32685
 H817 H 0.81294 0.58437 0.40058
 H818 H 0.81410 0.55264 0.43640
 H819 H 0.73932 0.54997 0.43620
 H820 H 0.73845 0.58160 0.40049
 H821 H 0.80455 0.65435 0.35141
 H822 H 0.79887 0.68909 0.32082
 H823 H 0.73045 0.66518 0.29813
 H824 H 0.73612 0.63055 0.32872
 C825 C 0.08455 0.72587 0.89887
 C826 C 0.07499 0.74653 0.90915
 C827 C 0.05699 0.74608 0.92959
 C828 C 0.04823 0.72485 0.94019
 C829 C 0.05782 0.70411 0.92932
 C830 C 0.07587 0.70465 0.90886
 C831 C 0.10371 0.72665 0.87872
 C832 C 0.11998 0.72802 0.86225
 C833 C 0.13964 0.73049 0.84311
 C834 C 0.14295 0.75121 0.82771
 C835 C 0.16273 0.75435 0.81052
 C836 C 0.17942 0.73679 0.80864
 C837 C 0.17582 0.71585 0.82364
 C838 C 0.15601 0.71274 0.84085
 H839 H 0.08161 0.76305 0.90158
 H840 H 0.05014 0.76243 0.93725
 H841 H 0.05159 0.68742 0.93682
 H842 H 0.08318 0.68854 0.90104
 H843 H 0.13044 0.76508 0.82937
 H844 H 0.16524 0.77058 0.79903
 H845 H 0.18856 0.70217 0.82243
 H846 H 0.15365 0.69667 0.85276
 C847 C 0.58529 0.22453 0.39799
 C848 C 0.57547 0.24523 0.40781
 C849 C 0.55747 0.24482 0.42825
 C850 C 0.54901 0.22365 0.43920
 C851 C 0.55883 0.20288 0.42897
 C852 C 0.57689 0.20335 0.40850
 C853 C 0.60442 0.22527 0.37779
 C854 C 0.62063 0.22662 0.36123
 C855 C 0.64020 0.22909 0.34195
 C856 C 0.64345 0.24981 0.32653
 C857 C 0.66313 0.25294 0.30917
 C858 C 0.67979 0.23537 0.30713
 C859 C 0.67627 0.21443 0.32216
 C860 C 0.65655 0.21133 0.33955
 H861 H 0.58189 0.26172 0.39987
 H862 H 0.55033 0.26112 0.43566
 H863 H 0.55275 0.18631 0.43702
 H864 H 0.58443 0.18722 0.40111
 H865 H 0.63095 0.26369 0.32831
 H866 H 0.66559 0.26917 0.29766
 H867 H 0.68900 0.20074 0.32084
 H868 H 0.65424 0.19526 0.35148
 C869 C 0.91605 0.27470 0.89716
 C870 C 0.92586 0.25403 0.90710
 C871 C 0.94382 0.25448 0.92757
 C872 C 0.95225 0.27568 0.93842
 C873 C 0.94249 0.29643 0.92802
 C874 C 0.92447 0.29591 0.90752
 C875 C 0.89690 0.27390 0.87704
 C876 C 0.88065 0.27247 0.86058
 C877 C 0.86103 0.26986 0.84143
 C878 C 0.85780 0.24905 0.82623
 C879 C 0.83809 0.24578 0.80901
 C880 C 0.82137 0.26329 0.80691
 C881 C 0.82486 0.28431 0.82174
 C882 C 0.84462 0.28756 0.83899
 H883 H 0.91944 0.23751 0.89926
 H884 H 0.95095 0.23821 0.93509
 H885 H 0.94858 0.31302 0.93595
 H886 H 0.91696 0.31202 0.90001
 H887 H 0.87036 0.23523 0.82804
 H888 H 0.83566 0.22950 0.79763
 H889 H 0.81209 0.29796 0.82035
 H890 H 0.84691 0.30369 0.85076
 C891 C 0.41402 0.77552 0.40040
 C892 C 0.42378 0.75476 0.41011
 C893 C 0.44202 0.75505 0.43019
 C894 C 0.45078 0.77617 0.44089
 C895 C 0.44104 0.79700 0.43074
 C896 C 0.42275 0.79665 0.41064
 C897 C 0.39467 0.77496 0.38055
 C898 C 0.37827 0.77392 0.36427
 C899 C 0.35848 0.77204 0.34527
 C900 C 0.36048 0.76095 0.31807
 C901 C 0.34095 0.75789 0.30038
 C902 C 0.31929 0.76585 0.30984
 C903 C 0.31738 0.77721 0.33691
 C904 C 0.33692 0.78032 0.35455
 H905 H 0.41713 0.73830 0.40236
 H906 H 0.44912 0.73871 0.43752
 H907 H 0.44737 0.81354 0.43857
 H908 H 0.41528 0.81283 0.40330
 H909 H 0.37704 0.75433 0.31078
 H910 H 0.34259 0.74894 0.27962
 H911 H 0.30071 0.78334 0.34449
 H912 H 0.33516 0.78883 0.37560
 C913 C 0.27469 0.91571 0.10262
 C914 C 0.25398 0.92549 0.09279
 C915 C 0.25438 0.94363 0.07254
 C916 C 0.27554 0.95226 0.06180
 C917 C 0.29631 0.94250 0.07209
 C918 C 0.29586 0.92432 0.09236
 C919 C 0.27405 0.89641 0.12256
 C920 C 0.27298 0.88003 0.13890
 C921 C 0.27104 0.86027 0.15795
 C922 C 0.25641 0.86112 0.18243
 C923 C 0.25330 0.84145 0.19987
 C924 C 0.26485 0.82084 0.19298
 C925 C 0.27980 0.82013 0.16875
 C926 C 0.28285 0.83979 0.15126
 H927 H 0.23750 0.91892 0.10055
 H928 H 0.23809 0.95074 0.06508
 H929 H 0.31288 0.94873 0.06423
 H930 H 0.31199 0.91682 0.09980
 H931 H 0.24713 0.87684 0.18772
 H932 H 0.24165 0.84215 0.21847
 H933 H 0.28867 0.80425 0.16311
 H934 H 0.29408 0.83891 0.13226
 C935 C 0.77757 0.41347 0.60003
 C936 C 0.75676 0.42338 0.59076
 C937 C 0.75692 0.44164 0.57068
 C938 C 0.77796 0.45027 0.55954
 C939 C 0.79884 0.44041 0.56929
 C940 C 0.79862 0.42209 0.58939
 C941 C 0.77710 0.39394 0.61963
 C942 C 0.77607 0.37731 0.63558
 C943 C 0.77407 0.35718 0.65400
 C944 C 0.77310 0.35949 0.68456
 C945 C 0.76965 0.33997 0.70223
 C946 C 0.76706 0.31802 0.68942
 C947 C 0.76853 0.31574 0.65882
 C948 C 0.77199 0.33524 0.64121
 H949 H 0.74036 0.41679 0.59879
 H950 H 0.74055 0.44884 0.56366
 H951 H 0.81531 0.44664 0.56112
 H952 H 0.81483 0.41449 0.59637
 H953 H 0.77461 0.37639 0.69468
 H954 H 0.76853 0.34199 0.72580
 H955 H 0.76664 0.29892 0.64863
 H956 H 0.77266 0.33327 0.61759
 C957 C 0.72334 0.08535 0.10017
 C958 C 0.74411 0.07535 0.09090
 C959 C 0.74387 0.05715 0.07074
 C960 C 0.72280 0.04869 0.05953
 C961 C 0.70196 0.05862 0.06933
 C962 C 0.70226 0.07687 0.08951
 C963 C 0.72390 0.10486 0.11977
 C964 C 0.72500 0.12148 0.13569
 C965 C 0.72707 0.14160 0.15410
 C966 C 0.72898 0.16356 0.14129
 C967 C 0.73247 0.18305 0.15888
 C968 C 0.73415 0.18074 0.18946
 C969 C 0.73176 0.15876 0.20228
 C970 C 0.72827 0.13925 0.18464
 H971 H 0.76053 0.08182 0.09896
 H972 H 0.76021 0.04989 0.06370
 H973 H 0.68546 0.05251 0.06112
 H974 H 0.68608 0.08453 0.09650
 H975 H 0.72814 0.16556 0.11769
 H976 H 0.73423 0.19990 0.14868
 H977 H 0.73304 0.15671 0.22584
 H978 H 0.72690 0.12233 0.19476
 C979 C 0.22348 0.58644 0.60222
 C980 C 0.24421 0.57655 0.59262
 C981 C 0.24388 0.55829 0.57253
 C982 C 0.22275 0.54966 0.56172
 C983 C 0.20195 0.55949 0.57182
 C984 C 0.20234 0.57780 0.59193
 C985 C 0.22410 0.60597 0.62180
 C986 C 0.22522 0.62259 0.63773
 C987 C 0.22729 0.64271 0.65616
 C988 C 0.22942 0.66465 0.64338
 C989 C 0.23287 0.68413 0.66101
 C990 C 0.23430 0.68183 0.69162
 C991 C 0.23169 0.65986 0.70441
 C992 C 0.22824 0.64036 0.68673
 H993 H 0.26067 0.58314 0.60039
 H994 H 0.26019 0.55113 0.56523
 H995 H 0.18541 0.55327 0.56391
 H996 H 0.18619 0.58537 0.59916
 H997 H 0.22877 0.66666 0.61977
 H998 H 0.23479 0.70097 0.65083
 H999 H 0.23277 0.65781 0.72798
 H1000 H 0.22668 0.62345 0.69683
 C1001 C 0.91411 0.72423 0.10034
 C1002 C 0.92278 0.70316 0.08995
 C1003 C 0.94113 0.70295 0.06990
 C1004 C 0.95098 0.72385 0.05997
 C1005 C 0.94231 0.74490 0.07088
 C1006 C 0.92401 0.74506 0.09090
 C1007 C 0.89454 0.72467 0.11986
 C1008 C 0.87790 0.72566 0.13577
 C1009 C 0.85778 0.72760 0.15418
 C1010 C 0.83582 0.72934 0.14141
 C1011 C 0.81633 0.73270 0.15902
 C1012 C 0.81863 0.73441 0.18959
 C1013 C 0.84061 0.73218 0.20238
 C1014 C 0.86012 0.72883 0.18473
 H1015 H 0.91519 0.68694 0.09706
 H1016 H 0.94739 0.68646 0.06191
 H1017 H 0.94949 0.76128 0.06370
 H1018 H 0.91739 0.76146 0.09874
 H1019 H 0.83382 0.72847 0.11780
 H1020 H 0.79948 0.73432 0.14884
 H1021 H 0.84265 0.73349 0.22594
 H1022 H 0.87703 0.72757 0.19483
 C1023 C 0.41518 0.22435 0.60202
 C1024 C 0.42521 0.24508 0.59245
 C1025 C 0.44331 0.24474 0.57214
 C1026 C 0.45165 0.22361 0.56107
 C1027 C 0.44170 0.20281 0.57117
 C1028 C 0.42355 0.20320 0.59149
 C1029 C 0.39578 0.22498 0.62179
 C1030 C 0.37924 0.22610 0.63785
 C1031 C 0.35919 0.22818 0.65637
 C1032 C 0.36158 0.22899 0.68694
 C1033 C 0.34214 0.23240 0.70471
 C1034 C 0.32018 0.23509 0.69200
 C1035 C 0.31785 0.23384 0.66138
 C1036 C 0.33726 0.23044 0.64367
 H1037 H 0.41883 0.26154 0.60041
 H1038 H 0.45059 0.26106 0.56487
 H1039 H 0.44771 0.18626 0.56307
 H1040 H 0.41586 0.18705 0.59871
 H1041 H 0.37849 0.22735 0.69698
 H1042 H 0.34423 0.23337 0.72829
 H1043 H 0.30102 0.23587 0.65125
 H1044 H 0.33522 0.22992 0.62005
 C1045 C 0.08546 0.27585 0.10186
 C1046 C 0.07723 0.29695 0.09100
 C1047 C 0.05926 0.29724 0.07044
 C1048 C 0.04936 0.27639 0.06046
 C1049 C 0.05761 0.25531 0.07179
 C1050 C 0.07553 0.25507 0.09232
 C1051 C 0.10451 0.27527 0.12215
 C1052 C 0.12066 0.27400 0.13877
 C1053 C 0.14016 0.27156 0.15811
 C1054 C 0.15659 0.28932 0.16053
 C1055 C 0.17629 0.28619 0.17789
 C1056 C 0.17970 0.26523 0.19286
 C1057 C 0.16293 0.24768 0.19085
 C1058 C 0.14327 0.25083 0.17352
 H1059 H 0.08485 0.31314 0.09818
 H1060 H 0.05331 0.31374 0.06212
 H1061 H 0.05038 0.23896 0.06461
 H1062 H 0.08181 0.23865 0.10055
 H1063 H 0.15438 0.30540 0.14863
 H1064 H 0.18910 0.29987 0.17922
 H1065 H 0.16530 0.23144 0.20234
 H1066 H 0.13070 0.23697 0.17174
 C1067 C 0.58612 0.77471 0.60162
 C1068 C 0.57787 0.79593 0.59115
 C1069 C 0.55962 0.79646 0.57098
 C1070 C 0.54946 0.77575 0.56100
 C1071 C 0.55772 0.75455 0.57196
 C1072 C 0.57592 0.75406 0.59210
 C1073 C 0.60547 0.77389 0.62146
 C1074 C 0.62186 0.77249 0.63771
 C1075 C 0.64161 0.76998 0.65665
 C1076 C 0.65800 0.78780 0.65896
 C1077 C 0.67782 0.78473 0.67612
 C1078 C 0.68141 0.76376 0.69103
 C1079 C 0.66473 0.74613 0.68905
 C1080 C 0.64495 0.74922 0.67191
 H1081 H 0.58568 0.81202 0.59834
 H1082 H 0.55366 0.81306 0.56297
 H1083 H 0.55029 0.73829 0.56477
 H1084 H 0.58219 0.73754 0.60002
 H1085 H 0.65563 0.80391 0.64717
 H1086 H 0.69054 0.79848 0.67742
 H1087 H 0.66723 0.72988 0.70049
 H1088 H 0.63241 0.73531 0.67023
   
