data_POSCAR
  _audit_creation_date              2014-09-24
  _audit_creation_method            'ToBaCCo'
  _symmetry_space_group_name_H-M    'P1'
  _symmetry_Int_Tables_number       1
  _symmetry_cell_setting            triclinic
  loop_
  _symmetry_equiv_pos_as_xyz
 x,y,z
_cell_length_a 37.2275
_cell_length_b 37.1838
_cell_length_c 37.2452
_cell_angle_alpha 89.960100
_cell_angle_beta 89.996300
_cell_angle_gamma 89.887500
loop_
  _atom_site_label
  _atom_site_type_symbol
  _atom_site_fract_x
  _atom_site_fract_y
  _atom_site_fract_z
C1 C 0.27687 0.25005 0.22327
 C2 C 0.25020 0.27669 0.22325
 C3 C 0.22357 0.27675 0.24985
 C4 C 0.22365 0.25012 0.27650
 C5 C 0.25030 0.22346 0.27656
 C6 C 0.27690 0.22344 0.24994
 H7 H 0.25015 0.29729 0.20262
 H8 H 0.20305 0.25015 0.29709
 H9 H 0.29754 0.20281 0.24997
 C10 C 0.72268 -0.25039 0.22273
 C11 C 0.72264 -0.22384 0.24945
 C12 C 0.74932 -0.22381 0.27598
 C13 C 0.77609 -0.25036 0.27582
 C14 C 0.77622 -0.27695 0.24914
 C15 C 0.74949 -0.27694 0.22260
 H16 H 0.70194 -0.20324 0.24965
 H17 H 0.79672 -0.25026 0.29641
 H18 H 0.74956 -0.29752 0.20194
 C19 C 0.72461 0.25112 0.77607
 C20 C 0.75115 0.27779 0.77604
 C21 C 0.77782 0.27784 0.74944
 C22 C 0.77788 0.25113 0.72287
 C23 C 0.75134 0.22444 0.72289
 C24 C 0.72473 0.22447 0.74950
 H25 H 0.75099 0.29840 0.79665
 H26 H 0.79846 0.25105 0.70224
 H27 H 0.70419 0.20382 0.74952
 C28 C 0.27570 -0.25121 0.77768
 C29 C 0.24896 -0.27769 0.77776
 C30 C 0.22232 -0.27765 0.75113
 C31 C 0.22249 -0.25104 0.72442
 C32 C 0.24921 -0.22455 0.72433
 C33 C 0.27580 -0.22466 0.75096
 H34 H 0.24895 -0.29822 0.79848
 H35 H 0.20194 -0.25090 0.70376
 H36 H 0.29648 -0.20416 0.75089
 C37 C 0.72335 -0.25048 0.77725
 C38 C 0.75006 -0.27707 0.77731
 C39 C 0.77673 -0.27705 0.75073
 C40 C 0.77663 -0.25039 0.72410
 C41 C 0.74991 -0.22380 0.72405
 C42 C 0.72329 -0.22386 0.75063
 H43 H 0.75004 -0.29766 0.79797
 H44 H 0.79722 -0.25027 0.70347
 H45 H 0.70260 -0.20327 0.75059
 C46 C 0.27659 0.25008 0.77634
 C47 C 0.24993 0.27672 0.77632
 C48 C 0.22323 0.27667 0.74982
 C49 C 0.22320 0.24995 0.72332
 C50 C 0.24985 0.22330 0.72331
 C51 C 0.27654 0.22338 0.74983
 H52 H 0.24996 0.29740 0.79685
 H53 H 0.20253 0.24990 0.70279
 H54 H 0.29717 0.20275 0.74983
 C55 C 0.27763 -0.25028 0.22276
 C56 C 0.25080 -0.27669 0.22258
 C57 C 0.22409 -0.27656 0.24907
 C58 C 0.22418 -0.25004 0.27576
 C59 C 0.25097 -0.22364 0.27598
 C60 C 0.27768 -0.22375 0.24949
 H61 H 0.25065 -0.29727 0.20194
 H62 H 0.20350 -0.24995 0.29627
 H63 H 0.29839 -0.20326 0.24973
 C64 C 0.72369 0.25013 0.22322
 C65 C 0.72377 0.22350 0.24984
 C66 C 0.75034 0.22354 0.27647
 C67 C 0.77685 0.25022 0.27647
 C68 C 0.77679 0.27686 0.24986
 C69 C 0.75021 0.27681 0.22324
 H70 H 0.70324 0.20284 0.24983
 H71 H 0.79742 0.25026 0.29708
 H72 H 0.75016 0.29743 0.20263
 O73 O 0.22067 0.03436 0.46517
 O74 O 0.22049 -0.03580 0.53510
 O75 O 0.22045 0.03425 0.53510
 O76 O 0.22076 -0.03568 0.46515
 O77 O 0.28017 -0.03574 0.46536
 O78 O 0.27986 0.03418 0.53530
 O79 O 0.27989 -0.03587 0.53531
 O80 O 0.28008 0.03430 0.46537
 Cu81 Cu 0.21460 -0.00072 0.50011
 Cu82 Cu 0.28599 -0.00080 0.50036
 C83 C 0.25040 0.04617 0.45347
 C84 C 0.25016 -0.04767 0.54702
 C85 C 0.25011 0.04603 0.54699
 C86 C 0.25052 -0.04750 0.45344
 O87 O 0.78016 0.03456 0.53490
 O88 O 0.77960 -0.03559 0.46506
 O89 O 0.77997 0.03445 0.46499
 O90 O 0.77975 -0.03550 0.53502
 O91 O 0.72034 -0.03505 0.53516
 O92 O 0.72056 0.03489 0.46514
 O93 O 0.72019 -0.03515 0.46521
 O94 O 0.72076 0.03500 0.53505
 Cu95 Cu 0.78586 -0.00058 0.49998
 Cu96 Cu 0.71447 -0.00004 0.50016
 C97 C 0.75056 0.04664 0.54675
 C98 C 0.74980 -0.04720 0.45333
 C99 C 0.75030 0.04648 0.45325
 C100 C 0.75001 -0.04707 0.54692
 O101 O 0.46558 0.22048 0.03436
 O102 O 0.53560 0.22072 -0.03558
 O103 O 0.53553 0.22053 0.03435
 O104 O 0.46563 0.22062 -0.03557
 O105 O 0.46545 0.28009 -0.03548
 O106 O 0.53535 0.28001 0.03444
 O107 O 0.53542 0.28019 -0.03549
 O108 O 0.46540 0.27996 0.03445
 Cu109 Cu 0.50060 0.21458 -0.00063
 Cu110 Cu 0.50039 0.28606 -0.00051
 C111 C 0.45368 0.25018 0.04622
 C112 C 0.54734 0.25049 -0.04733
 C113 C 0.54723 0.25025 0.04620
 C114 C 0.45373 0.25037 -0.04732
 O115 O 0.53488 0.77903 0.03576
 O116 O 0.46476 0.77878 -0.03408
 O117 O 0.46492 0.77894 0.03585
 O118 O 0.53473 0.77894 -0.03418
 O119 O 0.53495 0.71946 -0.03404
 O120 O 0.46513 0.71946 0.03600
 O121 O 0.46498 0.71931 -0.03393
 O122 O 0.53510 0.71956 0.03590
 Cu123 Cu 0.49980 0.78492 0.00082
 Cu124 Cu 0.50007 0.71345 0.00100
 C125 C 0.54683 0.74933 0.04762
 C126 C 0.45303 0.74900 -0.04579
 C127 C 0.45324 0.74920 0.04773
 C128 C 0.54662 0.74920 -0.04593
 O129 O 0.03458 0.46587 0.21950
 O130 O -0.03550 0.53600 0.21932
 O131 O 0.03449 0.53591 0.21926
 O132 O -0.03537 0.46595 0.21955
 O133 O -0.03533 0.46611 0.27893
 O134 O 0.03453 0.53606 0.27864
 O135 O -0.03546 0.53616 0.27869
 O136 O 0.03462 0.46603 0.27888
 Cu137 Cu -0.00046 0.50093 0.21342
 Cu138 Cu -0.00041 0.50112 0.28478
 C139 C 0.04642 0.45410 0.24922
 C140 C -0.04733 0.54791 0.24898
 C141 C 0.04632 0.54777 0.24890
 C142 C -0.04712 0.45421 0.24929
 O143 O 0.03438 0.53555 0.78029
 O144 O -0.03554 0.46552 0.77983
 O145 O 0.03442 0.46551 0.77992
 O146 O -0.03560 0.53558 0.78020
 O147 O -0.03553 0.53593 0.72082
 O148 O 0.03449 0.46586 0.72054
 O149 O -0.03546 0.46587 0.72046
 O150 O 0.03445 0.53589 0.72091
 Cu151 Cu -0.00060 0.50051 0.78605
 Cu152 Cu -0.00051 0.50093 0.71469
 C153 C 0.04624 0.54753 0.75067
 C154 C -0.04729 0.45386 0.75007
 C155 C 0.04627 0.45386 0.75018
 C156 C -0.04739 0.54757 0.75055
 C157 C 0.30421 0.25001 0.19591
 C158 C 0.32710 0.24999 0.17300
 C159 C 0.35389 0.24998 0.14616
 C160 C 0.37676 0.25000 0.12324
 C161 C 0.40355 0.25004 0.09639
 C162 C 0.42643 0.25010 0.07348
 C163 C 0.69670 0.74959 0.19693
 C164 C 0.67374 0.74958 0.17409
 C165 C 0.64686 0.74955 0.14733
 C166 C 0.62392 0.74953 0.12447
 C167 C 0.59706 0.74948 0.09769
 C168 C 0.57413 0.74942 0.07483
 C169 C 0.69723 0.25108 -0.19661
 C170 C 0.67429 0.25101 -0.17374
 C171 C 0.64742 0.25090 -0.14698
 C172 C 0.62447 0.25079 -0.12414
 C173 C 0.59758 0.25067 -0.09739
 C174 C 0.57464 0.25059 -0.07454
 C175 C 0.30306 0.74874 -0.19499
 C176 C 0.32599 0.74872 -0.17212
 C177 C 0.35287 0.74874 -0.14536
 C178 C 0.37583 0.74877 -0.12253
 C179 C 0.40273 0.74883 -0.09579
 C180 C 0.42570 0.74890 -0.07297
 C181 C 0.19616 0.30414 0.24979
 C182 C 0.17322 0.32708 0.24971
 C183 C 0.14637 0.35395 0.24959
 C184 C 0.12345 0.37691 0.24948
 C185 C 0.09661 0.40381 0.24937
 C186 C 0.07370 0.42678 0.24929
 C187 C 0.19633 0.69657 0.75118
 C188 C 0.17332 0.67377 0.75119
 C189 C 0.14639 0.64708 0.75115
 C190 C 0.12340 0.62428 0.75108
 C191 C 0.09649 0.59757 0.75097
 C192 C 0.07353 0.57473 0.75084
 C193 C -0.19772 0.69723 0.24903
 C194 C -0.17467 0.67439 0.24895
 C195 C -0.14768 0.64765 0.24890
 C196 C -0.12465 0.62481 0.24888
 C197 C -0.09768 0.59804 0.24889
 C198 C -0.07468 0.57517 0.24891
 C199 C -0.19636 0.30380 0.74943
 C200 C -0.17354 0.32677 0.74946
 C201 C -0.14682 0.35368 0.74954
 C202 C -0.12401 0.37666 0.74963
 C203 C -0.09730 0.40358 0.74977
 C204 C -0.07447 0.42654 0.74990
 C205 C 0.25035 0.19609 0.30395
 C206 C 0.25039 0.17316 0.32686
 C207 C 0.25043 0.14629 0.35368
 C208 C 0.25046 0.12335 0.37656
 C209 C 0.25047 0.09646 0.40336
 C210 C 0.25046 0.07350 0.42624
 C211 C 0.75139 0.19701 0.69561
 C212 C 0.75136 0.17401 0.67280
 C213 C 0.75127 0.14705 0.64612
 C214 C 0.75114 0.12402 0.62334
 C215 C 0.75095 0.09705 0.59667
 C216 C 0.75078 0.07402 0.57389
 C217 C 0.24936 -0.19725 0.69688
 C218 C 0.24950 -0.17438 0.67391
 C219 C 0.24968 -0.14759 0.64702
 C220 C 0.24982 -0.12470 0.62407
 C221 C 0.24997 -0.09788 0.59721
 C222 C 0.25007 -0.07496 0.57428
 C223 C 0.74926 -0.19652 0.30341
 C224 C 0.74924 -0.17368 0.32637
 C225 C 0.74928 -0.14693 0.35328
 C226 C 0.74934 -0.12409 0.37624
 C227 C 0.74946 -0.09732 0.40313
 C228 C 0.74960 -0.07445 0.42606
 C229 C 0.69599 0.74948 -0.19546
 C230 C 0.67309 0.74943 -0.17259
 C231 C 0.64630 0.74935 -0.14581
 C232 C 0.62343 0.74930 -0.12292
 C233 C 0.59666 0.74924 -0.09610
 C234 C 0.57381 0.74921 -0.07320
 C235 C 0.30400 0.25014 -0.19644
 C236 C 0.32695 0.25021 -0.17364
 C237 C 0.35381 0.25029 -0.14692
 C238 C 0.37674 0.25034 -0.12410
 C239 C 0.40358 0.25038 -0.09736
 C240 C 0.42649 0.25039 -0.07452
 C241 C 0.30358 0.74961 0.19699
 C242 C 0.32654 0.74951 0.17417
 C243 C 0.35339 0.74941 0.14744
 C244 C 0.37631 0.74933 0.12461
 C245 C 0.40313 0.74925 0.09784
 C246 C 0.42602 0.74921 0.07497
 C247 C 0.69641 0.25009 0.19587
 C248 C 0.67357 0.25008 0.17296
 C249 C 0.64683 0.25008 0.14612
 C250 C 0.62401 0.25011 0.12320
 C251 C 0.59727 0.25016 0.09636
 C252 C 0.57443 0.25021 0.07345
 C253 C -0.19730 0.69709 0.75077
 C254 C -0.17433 0.67421 0.75079
 C255 C -0.14744 0.64742 0.75079
 C256 C -0.12449 0.62454 0.75076
 C257 C -0.09761 0.59774 0.75072
 C258 C -0.07467 0.57484 0.75065
 C259 C -0.19599 0.30427 0.24984
 C260 C -0.17320 0.32723 0.24980
 C261 C -0.14653 0.35413 0.24971
 C262 C -0.12376 0.37710 0.24962
 C263 C -0.09708 0.40398 0.24950
 C264 C -0.07427 0.42693 0.24941
 C265 C 0.19586 0.30404 0.74982
 C266 C 0.17295 0.32697 0.74983
 C267 C 0.14613 0.35382 0.74986
 C268 C 0.12323 0.37676 0.74991
 C269 C 0.09642 0.40362 0.74998
 C270 C 0.07352 0.42657 0.75007
 C271 C 0.19657 0.69633 0.24890
 C272 C 0.17352 0.67363 0.24880
 C273 C 0.14654 0.64704 0.24874
 C274 C 0.12351 0.62433 0.24872
 C275 C 0.09658 0.59770 0.24875
 C276 C 0.07360 0.57492 0.24880
 C277 C 0.74983 -0.19645 0.69671
 C278 C 0.74980 -0.17356 0.67379
 C279 C 0.74980 -0.14678 0.64695
 C280 C 0.74982 -0.12391 0.62401
 C281 C 0.74986 -0.09714 0.59715
 C282 C 0.74992 -0.07428 0.57421
 C283 C 0.25101 -0.19641 0.30341
 C284 C 0.25100 -0.17362 0.32639
 C285 C 0.25094 -0.14695 0.35331
 C286 C 0.25086 -0.12417 0.37629
 C287 C 0.25075 -0.09748 0.40319
 C288 C 0.25065 -0.07467 0.42615
 C289 C 0.75040 0.19618 0.30380
 C290 C 0.75043 0.17326 0.32668
 C291 C 0.75045 0.14642 0.35347
 C292 C 0.75044 0.12349 0.37634
 C293 C 0.75042 0.09665 0.40313
 C294 C 0.75037 0.07373 0.42601
 C295 C 0.24982 0.19588 0.69608
 C296 C 0.24982 0.17291 0.67328
 C297 C 0.24984 0.14603 0.64657
 C298 C 0.24987 0.12308 0.62376
 C299 C 0.24993 0.09622 0.59703
 C300 C 0.25000 0.07329 0.57419
   
