data_POSCAR
  _audit_creation_date              2014-09-24
  _audit_creation_method            'ToBaCCo'
  _symmetry_space_group_name_H-M    'P1'
  _symmetry_Int_Tables_number       1
  _symmetry_cell_setting            triclinic
  loop_
  _symmetry_equiv_pos_as_xyz
 x,y,z
_cell_length_a 20.8611
_cell_length_b 21.2737
_cell_length_c 26.5346
_cell_angle_alpha 89.894400
_cell_angle_beta 89.399400
_cell_angle_gamma 89.700300
loop_
  _atom_site_label
  _atom_site_type_symbol
  _atom_site_fract_x
  _atom_site_fract_y
  _atom_site_fract_z
B1 B 0.28505 0.23365 0.30423
 B2 B 0.20778 0.22460 0.29134
 B3 B 0.23752 0.29727 0.29585
 B4 B 0.31336 0.29635 0.27254
 B5 B 0.32824 0.22139 0.25230
 B6 B 0.26222 0.17693 0.26393
 B7 B 0.22818 0.26932 0.19789
 B8 B 0.30613 0.27753 0.21163
 B9 B 0.27548 0.20595 0.20661
 B10 B 0.19971 0.20639 0.22998
 B11 B 0.18458 0.28111 0.25060
 B12 B 0.25121 0.32586 0.23805
 B13 B 0.72540 0.78525 0.19983
 B14 B 0.69428 0.71803 0.22036
 B15 B 0.77039 0.71954 0.19958
 B16 B 0.80283 0.78852 0.21667
 B17 B 0.74506 0.82948 0.24947
 B18 B 0.67720 0.78512 0.25107
 B19 B 0.77124 0.72011 0.30010
 B20 B 0.80216 0.78849 0.28016
 B21 B 0.72597 0.78581 0.30074
 B22 B 0.69333 0.71732 0.28302
 B23 B 0.75114 0.67682 0.25035
 B24 B 0.81935 0.72124 0.24914
 B25 B 0.70334 0.23824 -0.29607
 B26 B 0.77992 0.21450 -0.29546
 B27 B 0.76342 0.29122 -0.29823
 B28 B 0.69635 0.30584 -0.26270
 B29 B 0.67318 0.23560 -0.23728
 B30 B 0.72544 0.17866 -0.25794
 B31 B 0.79343 0.26297 -0.20293
 B32 B 0.71659 0.28661 -0.20298
 B33 B 0.73329 0.20997 -0.20078
 B34 B 0.80011 0.19543 -0.23595
 B35 B 0.82335 0.26562 -0.26156
 B36 B 0.77103 0.32258 -0.24069
 B37 B 0.29519 0.75621 -0.29266
 B38 B 0.22321 0.78876 -0.28180
 B39 B 0.22892 0.71137 -0.29299
 B40 B 0.29680 0.68411 -0.26610
 B41 B 0.33271 0.74583 -0.23735
 B42 B 0.28674 0.81116 -0.24723
 B43 B 0.21421 0.72812 -0.19346
 B44 B 0.28653 0.69530 -0.20427
 B45 B 0.28094 0.77193 -0.19261
 B46 B 0.21332 0.80058 -0.21939
 B47 B 0.17704 0.73848 -0.24872
 B48 B 0.22312 0.67321 -0.23856
 B49 B 1.22669 1.27967 0.69589
 B50 B 1.19196 1.21532 0.71871
 B51 B 1.26806 1.21177 0.69860
 B52 B 1.30477 1.27929 0.71251
 B53 B 1.25002 1.32531 0.74276
 B54 B 1.17919 1.28543 0.74687
 B55 B 1.26983 1.21968 0.79962
 B56 B 1.30444 1.28363 0.77560
 B57 B 1.22869 1.28830 0.79610
 B58 B 1.19141 1.21960 0.78272
 B59 B 1.24652 1.17317 0.75179
 B60 B 1.31718 1.21366 0.74807
 B61 B 0.77732 0.71926 0.80233
 B62 B 0.69931 0.71775 0.78882
 B63 B 0.73500 0.78679 0.79961
 B64 B 0.81050 0.78363 0.77563
 B65 B 0.81982 0.71115 0.74898
 B66 B 0.75042 0.67001 0.75744
 B67 B 0.72306 0.77307 0.69998
 B68 B 0.80156 0.77415 0.71338
 B69 B 0.76566 0.70582 0.70261
 B70 B 0.69029 0.70852 0.72644
 B71 B 0.68096 0.78089 0.75348
 B72 B 0.75049 0.82191 0.74438
 B73 B 1.22953 0.71388 0.29521
 B74 B 1.20433 0.78770 0.28576
 B75 B 1.28211 0.77413 0.29575
 B76 B 1.30316 0.70503 0.26785
 B77 B 1.23596 0.67665 0.23981
 B78 B 1.17446 0.72804 0.25109
 B79 B 1.26560 0.78980 0.19586
 B80 B 1.29136 0.71556 0.20540
 B81 B 1.21358 0.72925 0.19575
 B82 B 1.19250 0.79833 0.22335
 B83 B 1.25976 0.82703 0.25162
 B84 B 1.32167 0.77535 0.23998
 B85 B 0.79425 1.25548 0.20406
 B86 B 0.71597 1.26944 0.21274
 B87 B 0.74325 1.19543 0.21200
 B88 B 0.81701 1.19327 0.23950
 B89 B 0.83255 1.26793 0.25753
 B90 B 0.76913 1.31479 0.24080
 B91 B 0.72567 1.22779 0.30939
 B92 B 0.80502 1.21686 0.30009
 B93 B 0.77664 1.29108 0.30027
 B94 B 0.70267 1.29119 0.27364
 B95 B 0.68699 1.21616 0.25463
 B96 B 0.75070 1.16942 0.27124
 O97 O 0.46092 1.10476 0.06838
 O98 O 0.54555 0.89063 0.05579
 O99 O 0.38494 0.97487 0.05450
 O100 O 0.60948 1.01658 0.06990
 O101 O 0.43258 0.88773 0.03460
 O102 O 0.57496 1.11060 0.05803
 O103 O 0.62871 0.92201 0.02059
 O104 O 0.38244 1.08267 0.02391
 C105 C 0.40195 1.09937 0.06500
 C106 C 0.60474 0.89138 0.05468
 C107 C 0.39138 0.91738 0.06087
 C108 C 0.60756 1.07187 0.08377
 O109 O 0.55620 1.11803 -0.04938
 O110 O 0.46708 0.90255 -0.06671
 O111 O 0.40359 1.04611 -0.06891
 O112 O 0.61932 0.98392 -0.06254
 O113 O 0.57491 0.89339 -0.05022
 O114 O 0.44562 1.12900 -0.03605
 O115 O 0.63390 1.08059 -0.01227
 O116 O 0.38020 0.93699 -0.03762
 Co117 Co 0.50949 1.10599 0.00946
 Co118 Co 0.50535 0.90361 -0.00555
 Co119 Co 0.40032 1.00967 -0.00667
 Co120 Co 0.61039 1.00153 0.00356
 O121 O 0.50600 1.00516 0.00011
 C122 C 0.61460 1.10921 -0.04911
 C123 C 0.40843 0.90302 -0.06798
 C124 C 0.41064 1.10435 -0.06934
 C125 C 0.61309 0.92797 -0.07515
 O126 O 0.94751 0.61044 0.56060
 O127 O 1.04533 0.39550 0.55849
 O128 O 0.88772 0.47601 0.56006
 O129 O 1.10557 0.52796 0.56761
 O130 O 0.93357 0.38754 0.54262
 O131 O 1.06163 0.61862 0.55119
 O132 O 1.12608 0.42855 0.52127
 O133 O 0.87131 0.57770 0.51845
 C134 C 0.88896 0.60313 0.55695
 C135 C 1.10434 0.39915 0.55696
 C136 C 0.89407 0.41937 0.56937
 C137 C 1.09802 0.58461 0.57829
 O138 O 1.04654 0.61817 0.44364
 O139 O 0.96418 0.40230 0.43674
 O140 O 0.89427 0.52929 0.43204
 O141 O 1.11350 0.48614 0.43691
 O142 O 1.07223 0.39462 0.45109
 O143 O 0.93358 0.61977 0.45401
 O144 O 1.12450 0.58571 0.48332
 O145 O 0.87854 0.42380 0.47212
 Co146 Co 0.99767 0.60703 0.50231
 Co147 Co 1.00339 0.40418 0.49769
 Co148 Co 0.89531 0.50165 0.49614
 Co149 Co 1.10513 0.50662 0.50215
 O150 O 1.00041 0.50481 0.49984
 C151 C 1.10532 0.61140 0.44511
 C152 C 0.90558 0.40396 0.43449
 C153 C 0.89951 0.58698 0.42468
 C154 C 1.10836 0.43021 0.42477
 O155 O 1.05854 0.42256 0.09257
 O156 O 1.03952 0.57702 -0.08880
 O157 O 1.05156 0.38323 -0.06540
 O158 O 1.02110 0.61347 0.06852
 O159 O 1.07833 0.47485 -0.08603
 O160 O 1.07256 0.53330 0.09010
 O161 O 1.06642 0.61226 -0.01653
 O162 O 1.09383 0.39357 0.01987
 C163 C 1.10012 0.39412 0.06629
 C164 C 1.07473 0.61166 -0.06283
 C165 C 1.09092 0.41842 -0.08556
 C166 C 1.07054 0.59103 0.08632
 O167 O 0.93940 0.54993 0.10036
 O168 O 0.95514 0.42786 -0.09566
 O169 O 0.97846 0.36327 0.05468
 O170 O 0.94780 0.61658 -0.05073
 O171 O 0.91403 0.53183 -0.08071
 O172 O 0.92663 0.43831 0.08778
 O173 O 0.90620 0.58858 0.03073
 O174 O 0.93368 0.37826 -0.02747
 Co175 Co 0.99911 0.48706 0.08423
 Co176 Co 0.99655 0.50201 -0.07926
 Co177 Co 1.01288 0.39160 -0.00400
 Co178 Co 0.98681 0.59588 0.00746
 O179 O 0.99874 0.49403 0.00207
 C180 C 0.89755 0.58011 0.07623
 C181 C 0.92465 0.38544 -0.07296
 C182 C 0.93097 0.38116 0.07896
 C183 C 0.90538 0.58863 -0.07335
 O184 O 0.58176 0.96677 0.58787
 O185 O 0.56697 1.04355 0.41645
 O186 O 0.58389 0.90147 0.47596
 O187 O 0.56674 1.11398 0.52960
 O188 O 0.54786 0.93474 0.40584
 O189 O 0.54120 1.07138 0.60015
 O190 O 0.52416 1.12657 0.44512
 O191 O 0.54858 0.88041 0.55956
 C192 C 0.59102 0.90998 0.58124
 C193 C 0.56917 1.10111 0.42218
 C194 C 0.59048 0.90624 0.43001
 C195 C 0.57381 1.11095 0.57575
 O196 O 0.41744 1.02447 0.59420
 O197 O 0.41697 0.95794 0.41793
 O198 O 0.42617 0.88608 0.52940
 O199 O 0.40678 1.10255 0.48217
 O200 O 0.43856 1.06888 0.41064
 O201 O 0.45849 0.92042 0.60018
 O202 O 0.44764 1.11214 0.56573
 O203 O 0.46559 0.87728 0.44386
 Co204 Co 0.49940 0.99617 0.58663
 Co205 Co 0.49263 1.00095 0.42151
 Co206 Co 0.50479 0.89816 0.50232
 Co207 Co 0.48717 1.10255 0.50542
 O208 O 0.49581 0.99957 0.50387
 C209 C 0.40506 1.08007 0.58549
 C210 C 0.41856 0.90007 0.42226
 C211 C 0.42166 0.88553 0.57591
 C212 C 0.40030 1.10180 0.43624
 O213 O 1.09393 1.07167 0.45629
 O214 O 0.87060 1.02685 0.54786
 O215 O 0.98094 1.08507 0.43741
 O216 O 1.06472 1.02557 0.60752
 O217 O 0.88689 1.04828 0.45640
 O218 O 1.09337 1.08107 0.54598
 O219 O 0.94641 1.05276 0.60211
 O220 O 1.06311 1.03251 0.38452
 C221 C 1.09999 1.07053 0.40891
 C222 C 0.89114 1.06009 0.58439
 C223 C 0.92189 1.09145 0.43769
 C224 C 1.07998 1.07745 0.59185
 O225 O 1.12310 0.95411 0.55237
 O226 O 0.91343 0.92079 0.44337
 O227 O 1.03507 0.92639 0.42609
 O228 O 0.92258 0.94025 0.59770
 O229 O 0.89956 0.89971 0.52838
 O230 O 1.12480 0.94660 0.45817
 O231 O 1.04277 0.91014 0.59377
 O232 O 0.94730 0.98683 0.39091
 Co233 Co 1.09975 1.01091 0.50368
 Co234 Co 0.90052 0.97567 0.49521
 Co235 Co 1.01109 1.00529 0.43492
 Co236 Co 0.99461 0.98265 0.59200
 O237 O 0.99822 0.99158 0.50897
 C238 C 1.10181 0.91365 0.58342
 C239 C 0.91725 0.93776 0.39864
 C240 C 1.09164 0.91287 0.42953
 C241 C 0.90697 0.89394 0.57423
 O242 O 0.59159 0.58505 -0.03501
 O243 O 0.37245 0.51708 0.05170
 O244 O 0.46036 0.57563 -0.06617
 O245 O 0.56540 0.52973 0.11231
 O246 O 0.37791 0.53054 -0.03716
 O247 O 0.59458 0.58603 0.05160
 O248 O 0.44970 0.55539 0.09858
 O249 O 0.56443 0.53297 -0.09862
 C250 C 0.58917 0.58049 -0.08142
 C251 C 0.39414 0.55891 0.08201
 C252 C 0.40130 0.57300 -0.06318
 C253 C 0.58248 0.58098 0.09671
 O254 O 0.62935 0.45798 0.05681
 O255 O 0.42171 0.41470 -0.05857
 O256 O 0.54093 0.42325 -0.07268
 O257 O 0.42630 0.43969 0.09812
 O258 O 0.42285 0.39140 0.03031
 O259 O 0.62778 0.45985 -0.03883
 O260 O 0.54565 0.41646 0.09772
 O261 O 0.45805 0.47613 -0.12022
 Co262 Co 0.60261 0.51951 0.00868
 Co263 Co 0.40755 0.46582 -0.00116
 Co264 Co 0.49833 0.49818 -0.06460
 Co265 Co 0.49668 0.48626 0.09364
 O266 O 0.50423 0.49530 0.01136
 C267 C 0.60460 0.41664 0.08690
 C268 C 0.42522 0.42718 -0.10614
 C269 C 0.60031 0.42062 -0.06711
 C270 C 0.42061 0.38972 0.07629
 N271 N 0.29050 1.10301 0.09665
 N272 N 0.25689 1.13066 0.13266
 C273 C 0.29758 1.16042 0.16323
 C274 C 0.36034 1.14904 0.14684
 C275 C 0.35344 1.11414 0.10370
 H276 H 0.40455 1.16617 0.16221
 H277 H 0.27003 1.07941 0.06640
 H278 H 0.20685 1.13158 0.13455
 N279 N 0.77658 0.62733 0.57997
 N280 N 0.74355 0.65194 0.61774
 C281 C 0.78447 0.66633 0.65468
 C282 C 0.84615 0.64780 0.64028
 C283 C 0.83921 0.62537 0.59215
 H284 H 0.89001 0.65083 0.66129
 H285 H 0.75647 0.61379 0.54579
 H286 H 0.69431 0.66108 0.61711
 N287 N 0.71034 0.84645 0.07162
 N288 N 0.74295 0.82261 0.10924
 C289 C 0.70329 0.81601 0.14908
 C290 C 0.64246 0.83825 0.13641
 C291 C 0.64917 0.85634 0.08662
 H292 H 0.60060 0.84349 0.16038
 H293 H 0.73042 0.85710 0.03640
 H294 H 0.79161 0.81091 0.10722
 N295 N 1.21447 0.37938 0.58401
 N296 N 1.24660 0.34784 0.61811
 C297 C 1.20497 0.31548 0.64697
 C298 C 1.14255 0.32817 0.63074
 C299 C 1.15117 0.36909 0.59051
 H300 H 1.09782 0.31157 0.64676
 H301 H 1.23613 0.40823 0.55696
 H302 H 1.29637 0.34957 0.62175
 N303 N 0.72009 1.10154 -0.09240
 N304 N 0.75080 1.12556 -0.13157
 C305 C 0.71297 1.16879 -0.15341
 C306 C 0.65389 1.17007 -0.12786
 C307 C 0.66086 1.12701 -0.08914
 H308 H 0.61245 1.19914 -0.13575
 H309 H 0.73974 1.06791 -0.06834
 H310 H 0.79657 1.11154 -0.14334
 N311 N 1.21364 0.60794 0.40554
 N312 N 1.24558 0.63296 0.36737
 C313 C 1.20709 0.67355 0.34306
 C314 C 1.14600 0.67061 0.36561
 C315 C 1.15278 0.62959 0.40574
 H316 H 1.10235 0.69366 0.35457
 H317 H 1.23377 0.57641 0.43110
 H318 H 1.29328 0.62224 0.35842
 N319 N 0.34512 0.80635 -0.06665
 N320 N 0.30903 0.77388 -0.09750
 C321 C 0.31170 0.80051 -0.14363
 C322 C 0.35235 0.85207 -0.14190
 C323 C 0.37265 0.85347 -0.09258
 H324 H 0.36504 0.88408 -0.17210
 H325 H 0.35035 0.79652 -0.02831
 H326 H 0.28453 0.73333 -0.08679
 N327 N 0.89312 0.40835 0.34315
 N328 N 0.85543 0.38429 0.30898
 C329 C 0.80901 0.34854 0.33138
 C330 C 0.81436 0.35802 0.38318
 C331 C 0.87069 0.39177 0.38840
 H332 H 0.78440 0.34116 0.41359
 H333 H 0.93480 0.43370 0.33522
 H334 H 0.86571 0.38856 0.27052
 N335 N 1.18588 0.31109 0.06588
 N336 N 1.21645 0.27590 0.09924
 C337 C 1.19819 0.29344 0.14613
 C338 C 1.15387 0.34227 0.14179
 C339 C 1.14763 0.35229 0.09052
 H340 H 1.12950 0.36729 0.17194
 H341 H 1.19088 0.30638 0.02685
 H342 H 1.25071 0.24202 0.08963
 N343 N 0.68584 0.84040 0.57470
 N344 N 0.71516 0.79898 0.60372
 C345 C 0.69383 0.80612 0.65147
 C346 C 0.64802 0.85407 0.65207
 C347 C 0.64486 0.87487 0.60279
 H348 H 0.61945 0.87034 0.68378
 H349 H 0.69413 0.84520 0.53618
 H350 H 0.75091 0.76837 0.59085
 N351 N 1.13335 0.71372 -0.06837
 N352 N 1.16583 0.74582 -0.10288
 C353 C 1.17261 0.71034 -0.14471
 C354 C 1.13992 0.65431 -0.13686
 C355 C 1.11716 0.65765 -0.08780
 H356 H 1.13337 0.61618 -0.16320
 H357 H 1.12091 0.73090 -0.03271
 H358 H 1.18287 0.79137 -0.09763
 N359 N 0.68273 1.10851 0.40643
 N360 N 0.72273 1.14017 0.37802
 C361 C 0.69391 1.19208 0.35810
 C362 C 0.62967 1.19035 0.37445
 C363 C 0.62542 1.13598 0.40451
 H364 H 0.59037 1.21878 0.36074
 H365 H 0.69329 1.06475 0.42240
 H366 H 0.76581 1.11938 0.36716
 N367 N 0.79536 0.64040 0.07633
 N368 N 0.76421 0.67956 0.10652
 C369 C 0.79408 0.68130 0.15131
 C370 C 0.84631 0.64025 0.14931
 C371 C 0.84546 0.61553 0.10114
 H372 H 0.88150 0.63150 0.17820
 H373 H 0.78290 0.63176 0.03899
 H374 H 0.72263 0.70368 0.09635
 N375 N 0.32014 1.15692 0.57355
 N376 N 0.28780 1.19531 0.60315
 C377 C 0.29121 1.17401 0.65084
 C378 C 0.32828 1.11966 0.65134
 C379 C 0.34641 1.11119 0.60162
 H380 H 0.34708 1.09547 0.68399
 H381 H 0.32855 1.16542 0.53542
 H382 H 0.26607 1.23623 0.59020
 N383 N 0.89074 0.27533 -0.08736
 N384 N 0.86112 0.24234 -0.12215
 C385 C 0.83981 0.28168 -0.15818
 C386 C 0.85900 0.34255 -0.14615
 C387 C 0.89023 0.33643 -0.10073
 H388 H 0.85002 0.38556 -0.16681
 H389 H 0.91215 0.25587 -0.05548
 H390 H 0.85529 0.19386 -0.12050
 N391 N 0.36206 0.79866 0.41865
 N392 N 0.32915 0.76505 0.38631
 C393 C 0.31713 0.79987 0.34504
 C394 C 0.34403 0.85945 0.35222
 C395 C 0.37202 0.85646 0.39958
 H396 H 0.34657 0.89778 0.32542
 H397 H 0.38014 0.78099 0.45243
 H398 H 0.31794 0.71815 0.39222
 N399 N 1.14904 1.17298 0.41368
 N400 N 1.17252 1.21588 0.38350
 C401 C 1.16647 1.19656 0.33533
 C402 C 1.13733 1.13809 0.33515
 C403 C 1.12828 1.12508 0.38566
 H404 H 1.12926 1.10731 0.30343
 H405 H 1.14982 1.17590 0.45298
 H406 H 1.19769 1.25415 0.39714
 N407 N 0.55999 0.67178 -0.13382
 N408 N 0.58739 0.70581 -0.16957
 C409 C 0.64950 0.68867 -0.17336
 C410 C 0.66144 0.64057 -0.13950
 C411 C 0.60416 0.63248 -0.11469
 H412 H 0.70447 0.61274 -0.13505
 H413 H 0.51160 0.67422 -0.12382
 H414 H 0.56357 0.73955 -0.19116
 N415 N 0.81366 1.14748 0.57867
 N416 N 0.78895 1.19056 0.60881
 C417 C 0.80775 1.17910 0.65656
 C418 C 0.84860 1.12761 0.65614
 C419 C 0.85056 1.10909 0.60609
 H420 H 0.87249 1.10591 0.68779
 H421 H 0.80612 1.14530 0.53994
 H422 H 0.76027 1.22738 0.59615
 N423 N 0.38670 0.67128 0.09217
 N424 N 0.37111 0.70916 0.12960
 C425 C 0.33028 0.67998 0.16126
 C426 C 0.32193 0.61872 0.14327
 C427 C 0.35875 0.61499 0.09899
 H428 H 0.29607 0.58102 0.16169
 H429 H 0.42241 0.68148 0.06551
 H430 H 0.39225 0.75268 0.13473
 N431 N 1.20604 0.91266 0.62352
 N432 N 1.23475 0.88499 0.66134
 C433 C 1.19825 0.83697 0.67784
 C434 C 1.14199 0.83565 0.65018
 C435 C 1.14951 0.88437 0.61578
 H436 H 1.10127 0.80493 0.65499
 H437 H 1.22372 0.95265 0.60527
 H438 H 1.27862 0.89972 0.67556
 N439 N 0.67382 0.32243 0.08440
 N440 N 0.69712 0.28120 0.11651
 C441 C 0.68189 0.29864 0.16426
 C442 C 0.64659 0.35406 0.16162
 C443 C 0.64366 0.36773 0.11035
 H444 H 0.62780 0.38186 0.19259
 H445 H 0.67739 0.31839 0.04545
 H446 H 0.72514 0.24295 0.10517
 N447 N 0.92890 0.90014 0.31097
 N448 N 0.90201 0.85868 0.28115
 C449 C 0.85567 0.82806 0.30706
 C450 C 0.85456 0.85028 0.35630
 C451 C 0.90072 0.89668 0.35664
 H452 H 0.82222 0.83800 0.38671
 H453 H 0.96511 0.93098 0.29969
 H454 H 0.91330 0.85411 0.24289
 N455 N 0.44051 0.38268 -0.19122
 N456 N 0.41020 0.34479 -0.22196
 C457 C 0.36079 0.31848 -0.19684
 C458 C 0.36169 0.33894 -0.14690
 C459 C 0.41139 0.38123 -0.14567
 H460 H 0.32690 0.33077 -0.11727
 H461 H 0.47854 0.41147 -0.20232
 H462 H 0.42098 0.34052 -0.26034
 N463 N 1.19330 0.43037 -0.13075
 N464 N 1.23071 0.39605 -0.16002
 C465 C 1.20891 0.33617 -0.16081
 C466 C 1.15486 0.33281 -0.13014
 C467 C 1.14670 0.39366 -0.11237
 H468 H 1.12193 0.29391 -0.12627
 H469 H 1.19679 0.47899 -0.12671
 H470 H 1.26711 0.41529 -0.18243
 N471 N 0.67067 0.82119 0.42936
 N472 N 0.70662 0.79015 0.39682
 C473 C 0.70061 0.81685 0.35107
 C474 C 0.65865 0.86782 0.35508
 C475 C 0.64107 0.86881 0.40554
 H476 H 0.63982 0.89669 0.32499
 H477 H 0.66202 0.80591 0.46608
 H478 H 0.73155 0.74934 0.40611
 N479 N 0.82675 0.67529 -0.06908
 N480 N 0.79683 0.71238 -0.10121
 C481 C 0.80427 0.68861 -0.14785
 C482 C 0.83944 0.63289 -0.14479
 C483 C 0.85268 0.62610 -0.09412
 H484 H 0.85740 0.60434 -0.17562
 H485 H 0.83289 0.68587 -0.03103
 H486 H 0.77381 0.75423 -0.09116
 N487 N 0.34864 1.20730 0.43204
 N488 N 0.32188 1.24340 0.39746
 C489 C 0.31503 1.20953 0.35514
 C490 C 0.33938 1.14942 0.36317
 C491 C 0.35976 1.14977 0.41234
 H492 H 0.34400 1.11139 0.33631
 H493 H 0.36268 1.22342 0.46733
 H494 H 0.31001 1.29068 0.40270
 N495 N 1.16736 0.65758 0.07411
 N496 N 1.20208 0.69689 0.10096
 C497 C 1.17856 0.69893 0.14854
 C498 C 1.12643 0.65831 0.15160
 C499 C 1.12168 0.63257 0.10404
 H500 H 1.09727 0.64730 0.18439
 H501 H 1.17549 0.64765 0.03604
 H502 H 1.24277 0.71966 0.08706
 N503 N 0.61723 1.21974 0.58340
 N504 N 0.64629 1.25457 0.61748
 C505 C 0.65852 1.21887 0.65828
 C506 C 0.63419 1.15882 0.64986
 C507 C 0.60935 1.16111 0.60180
 H508 H 0.63628 1.11832 0.67454
 H509 H 0.60258 1.23623 0.54824
 H510 H 0.65952 1.30134 0.61190
 N511 N 0.88988 0.27196 0.08683
 N512 N 0.85568 0.23832 0.11919
 C513 C 0.83145 0.27702 0.15463
 C514 C 0.85075 0.33839 0.14368
 C515 C 0.88819 0.33299 0.10079
 H516 H 0.84307 0.38027 0.16608
 H517 H 0.91633 0.25281 0.05689
 H518 H 0.85118 0.18947 0.11794
 N519 N 0.34165 0.79939 0.57663
 N520 N 0.31197 0.76290 0.60960
 C521 C 0.33250 0.77606 0.65657
 C522 C 0.37811 0.82372 0.65241
 C523 C 0.38148 0.83773 0.60125
 H524 H 0.40164 0.84820 0.68272
 H525 H 0.33274 0.79939 0.53798
 H526 H 0.27532 0.73266 0.59948
 N527 N 0.32637 1.18680 -0.07121
 N528 N 0.28651 1.21343 -0.10331
 C529 C 0.29756 1.18992 -0.14969
 C530 C 0.34618 1.14442 -0.14614
 C531 C 0.36367 1.14477 -0.09579
 H532 H 0.36782 1.11727 -0.17634
 H533 H 0.32752 1.19702 -0.03273
 H534 H 0.25351 1.24839 -0.09340
 N535 N 0.79135 0.59327 0.39069
 N536 N 0.75621 0.63071 0.36278
 C537 C 0.79279 0.67852 0.34590
 C538 C 0.85425 0.67186 0.36540
 C539 C 0.85105 0.61645 0.39297
 H540 H 0.89595 0.70058 0.35792
 H541 H 0.77429 0.55228 0.40774
 H542 H 0.70872 0.62125 0.35341
 N543 N 0.70916 1.05828 0.13110
 N544 N 0.74667 1.09111 0.16097
 C545 C 0.71827 1.14660 0.17122
 C546 C 0.65891 1.14812 0.14690
 C547 C 0.65542 1.09167 0.12144
 H548 H 0.62265 1.18463 0.14811
 H549 H 0.72103 1.01397 0.11676
 H550 H 0.79055 1.07506 0.17472
 N551 N 1.20660 0.58968 0.61169
 N552 N 1.24179 0.62513 0.64078
 C553 C 1.20507 0.67149 0.66053
 C554 C 1.14292 0.66536 0.64188
 C555 C 1.14637 0.61238 0.61125
 H556 H 1.10075 0.69276 0.65145
 H557 H 1.22419 0.55047 0.59230
 H558 H 1.29003 0.61582 0.64803
 N559 N 0.71849 0.92535 -0.11922
 N560 N 0.75258 0.88607 -0.14721
 C561 C 0.71751 0.83434 -0.15643
 C562 C 0.65830 0.84138 -0.13224
 C563 C 0.66069 0.89994 -0.10979
 H564 H 0.61768 0.81040 -0.13260
 H565 H 0.73508 0.96866 -0.10664
 H566 H 0.79810 0.89623 -0.16172
 N567 N 1.21602 0.42926 0.38469
 N568 N 1.25072 0.39407 0.35378
 C569 C 1.21418 0.34690 0.33682
 C570 C 1.15249 0.35355 0.35753
 C571 C 1.15626 0.40566 0.38838
 H572 H 1.11112 0.32412 0.35153
 H573 H 1.23391 0.46781 0.40421
 H574 H 1.29873 0.40250 0.34462
 N575 N 0.28239 0.87279 0.07296
 N576 N 0.24912 0.84125 0.10728
 C577 C 0.28629 0.83072 0.14766
 C578 C 0.34554 0.85970 0.13890
 C579 C 0.34163 0.88387 0.09049
 H580 H 0.38655 0.86076 0.16352
 H581 H 0.26484 0.88597 0.03774
 H582 H 0.20177 0.82684 0.10270
 N583 N 0.78852 0.42198 0.61292
 N584 N 0.75288 0.38827 0.64404
 C585 C 0.78432 0.33493 0.65559
 C586 C 0.84352 0.33500 0.62964
 C587 C 0.84431 0.39164 0.60329
 H588 H 0.88196 0.30085 0.63231
 H589 H 0.77486 0.46603 0.59909
 H590 H 0.70890 0.40336 0.65895
 N591 N 1.05186 1.12734 0.67327
 N592 N 1.08226 1.16041 0.70760
 C593 C 1.13685 1.18256 0.68713
 C594 C 1.13919 1.16422 0.63654
 C595 C 1.08570 1.12793 0.62959
 H596 H 1.17673 1.16997 0.60924
 H597 H 1.01121 1.10046 0.68111
 H598 H 1.06766 1.16411 0.74525
 N599 N 0.55639 0.67816 0.14315
 N600 N 0.58335 0.71170 0.17880
 C601 C 0.64044 0.68532 0.18995
 C602 C 0.64853 0.63116 0.16235
 C603 C 0.59593 0.63014 0.13200
 H604 H 0.68882 0.59888 0.16205
 H605 H 0.51211 0.68819 0.12701
 H606 H 0.56328 0.75239 0.19432
 N607 N 1.06945 0.82934 0.36963
 N608 N 1.09530 0.80458 0.32888
 C609 C 1.15791 0.81898 0.32681
 C610 C 1.17167 0.85785 0.36805
 C611 C 1.11361 0.86323 0.39435
 H612 H 1.21595 0.88176 0.37603
 H613 H 1.02064 0.82618 0.37845
 H614 H 1.06970 0.77783 0.30305
 N615 N 0.68331 0.33882 -0.07187
 N616 N 0.71217 0.30397 -0.10612
 C617 C 0.68889 0.31782 -0.15227
 C618 C 0.64012 0.36218 -0.14608
 C619 C 0.63864 0.37385 -0.09433
 H620 H 0.61163 0.38438 -0.17501
 H621 H 0.69474 0.33872 -0.03382
 H622 H 0.74645 0.27037 -0.09682
 N623 N 0.85713 1.18724 0.43156
 N624 N 0.82783 1.21906 0.39608
 C625 C 0.84609 1.19864 0.34970
 C626 C 0.88963 1.14957 0.35713
 C627 C 0.89416 1.14394 0.40968
 H628 H 0.90854 1.11750 0.32900
 H629 H 0.84703 1.19156 0.46995
 H630 H 0.78737 1.24551 0.40439
 N631 N 0.30500 0.56837 -0.11304
 N632 N 0.27868 0.59504 -0.15229
 C633 C 0.31263 0.64629 -0.16493
 C634 C 0.36567 0.65043 -0.13340
 C635 C 0.35779 0.60043 -0.10021
 H636 H 0.40263 0.68578 -0.13368
 H637 H 0.28830 0.52680 -0.09670
 H638 H 0.23798 0.57765 -0.16985
 N639 N 0.93214 0.79807 0.62112
 N640 N 0.90937 0.77338 0.66335
 C641 C 0.85142 0.79898 0.67332
 C642 C 0.83872 0.84342 0.63710
 C643 C 0.88897 0.83958 0.60335
 H644 H 0.80013 0.87760 0.63699
 H645 H 0.97851 0.79033 0.60715
 H646 H 0.93421 0.74105 0.68555
 N647 N 0.44869 0.30477 0.13294
 N648 N 0.42014 0.28253 0.17369
 C649 C 0.35757 0.29842 0.17223
 C650 C 0.34637 0.33255 0.12935
 C651 C 0.40474 0.33509 0.10512
 H652 H 0.30393 0.35948 0.12028
 H653 H 0.49827 0.30434 0.12699
 H654 H 0.44385 0.25870 0.20253
   
