data_POSCAR
  _audit_creation_date              2014-09-24
  _audit_creation_method            'ToBaCCo'
  _symmetry_space_group_name_H-M    'P1'
  _symmetry_Int_Tables_number       1
  _symmetry_cell_setting            triclinic
  loop_
  _symmetry_equiv_pos_as_xyz
 x,y,z
_cell_length_a 40.8294
_cell_length_b 41.9953
_cell_length_c 37.8426
_cell_angle_alpha 91.420500
_cell_angle_beta 89.012700
_cell_angle_gamma 91.446800
loop_
  _atom_site_label
  _atom_site_type_symbol
  _atom_site_fract_x
  _atom_site_fract_y
  _atom_site_fract_z
C1 C 0.21422 0.18371 0.22420
 C2 C 0.19759 0.17080 0.25350
 C3 C 0.16951 0.18536 0.26745
 C4 C 0.15826 0.21320 0.25271
 C5 C 0.17456 0.22631 0.22343
 C6 C 0.20260 0.21153 0.20893
 C7 C 0.24159 0.16870 0.20917
 C8 C 0.25719 0.18104 0.17901
 C9 C 0.24576 0.20873 0.16386
 C10 C 0.21842 0.22407 0.17860
 C11 C 0.20592 0.25111 0.16295
 C12 C 0.17792 0.26545 0.17734
 C13 C 0.16254 0.25330 0.20761
 H14 H 0.20599 0.14904 0.26486
 H15 H 0.13631 0.22416 0.26342
 H16 H 0.25035 0.14708 0.22053
 H17 H 0.25775 0.21796 0.14030
 H18 H 0.21744 0.26056 0.13926
 H19 H 0.14066 0.26441 0.21827
 C20 C -0.23600 0.81541 0.21879
 C21 C -0.22471 0.82563 0.25213
 C22 C -0.19987 0.80917 0.26845
 C23 C -0.18683 0.78198 0.25205
 C24 C -0.19772 0.77161 0.21874
 C25 C -0.22226 0.78842 0.20181
 C26 C -0.25976 0.83247 0.20150
 C27 C -0.26965 0.82308 0.16743
 C28 C -0.25606 0.79627 0.15050
 C29 C -0.23225 0.77885 0.16746
 C30 C -0.21735 0.75275 0.15031
 C31 C -0.19277 0.73642 0.16723
 C32 C -0.18333 0.74560 0.20139
 H33 H -0.23440 0.84696 0.26477
 H34 H -0.16725 0.76964 0.26459
 H35 H -0.27009 0.85345 0.21427
 H36 H -0.26355 0.78933 0.12398
 H37 H -0.22426 0.74563 0.12367
 H38 H -0.16400 0.73301 0.21404
 C39 C -0.23666 0.19659 -0.25034
 C40 C -0.21844 0.18365 -0.27881
 C41 C -0.18864 0.19812 -0.28925
 C42 C -0.17732 0.22601 -0.27210
 C43 C -0.19510 0.23911 -0.24358
 C44 C -0.22481 0.22433 -0.23238
 C45 C -0.26563 0.18142 -0.23845
 C46 C -0.28259 0.19340 -0.20866
 C47 C -0.27088 0.22100 -0.19080
 C48 C -0.24193 0.23656 -0.20240
 C49 C -0.22890 0.26324 -0.18372
 C50 C -0.19917 0.27752 -0.19487
 C51 C -0.18268 0.26575 -0.22492
 H52 H -0.22677 0.16176 -0.29198
 H53 H -0.15398 0.23674 -0.28008
 H54 H -0.27448 0.15977 -0.25178
 H55 H -0.28380 0.22986 -0.16742
 H56 H -0.24126 0.27228 -0.16009
 H57 H -0.15946 0.27669 -0.23298
 C58 C 0.22620 0.80715 -0.25122
 C59 C 0.21226 0.81761 -0.28239
 C60 C 0.18611 0.80036 -0.29780
 C61 C 0.17436 0.77209 -0.28274
 C62 C 0.18797 0.76137 -0.25158
 C63 C 0.21388 0.77900 -0.23555
 C64 C 0.25118 0.82511 -0.23457
 C65 C 0.26366 0.81546 -0.20240
 C66 C 0.25158 0.78746 -0.18686
 C67 C 0.22660 0.76914 -0.20318
 C68 C 0.21312 0.74191 -0.18706
 C69 C 0.18715 0.72474 -0.20292
 C70 C 0.17494 0.73422 -0.23523
 H71 H 0.22093 0.83975 -0.29390
 H72 H 0.15376 0.75913 -0.29448
 H73 H 0.26038 0.84703 -0.24614
 H74 H 0.26111 0.78040 -0.16173
 H75 H 0.22209 0.73462 -0.16177
 H76 H 0.15450 0.72104 -0.24698
 C77 C 0.19040 1.22879 0.79446
 C78 C 0.17279 1.21024 0.76944
 C79 C 0.18570 1.18177 0.75560
 C80 C 0.21639 1.17188 0.76648
 C81 C 0.23424 1.19008 0.79144
 C82 C 0.22126 1.21866 0.80553
 C83 C 0.17742 1.25691 0.80920
 C84 C 0.19486 1.27477 0.83485
 C85 C 0.22553 1.26476 0.84566
 C86 C 0.23886 1.23675 0.83124
 C87 C 0.26909 1.22603 0.84277
 C88 C 0.28173 1.19752 0.82896
 C89 C 0.26448 1.17977 0.80322
 H90 H 0.14895 1.21773 0.76110
 H91 H 0.22619 1.14977 0.75588
 H92 H 0.15357 1.26461 0.80113
 H93 H 0.23879 1.27849 0.86572
 H94 H 0.28245 1.23944 0.86296
 H95 H 0.27431 1.15756 0.79296
 C96 C 0.82111 0.76608 0.80194
 C97 C 0.83860 0.78165 0.77477
 C98 C 0.82760 0.81056 0.76203
 C99 C 0.79898 0.82390 0.77621
 C100 C 0.78130 0.80871 0.80332
 C101 C 0.79233 0.77969 0.81630
 C102 C 0.83215 0.73749 0.81551
 C103 C 0.81483 0.72258 0.84318
 C104 C 0.78620 0.73604 0.85723
 C105 C 0.77484 0.76457 0.84404
 C106 C 0.74667 0.77862 0.85861
 C107 C 0.73596 0.80751 0.84579
 C108 C 0.75311 0.82239 0.81814
 H109 H 0.86085 0.77148 0.76384
 H110 H 0.79065 0.84632 0.76639
 H111 H 0.85444 0.72710 0.80493
 H112 H 0.77307 0.72456 0.87881
 H113 H 0.73333 0.76739 0.88019
 H114 H 0.74472 0.84486 0.80856
 C115 C 0.19907 0.76816 1.22581
 C116 C 0.18471 0.78442 1.25484
 C117 C 0.19875 0.81319 1.26772
 C118 C 0.22736 0.82573 1.25184
 C119 C 0.24200 0.80988 1.22282
 C120 C 0.22787 0.78096 1.20976
 C121 C 0.18470 0.73987 1.21182
 C122 C 0.19884 0.72451 1.18211
 C123 C 0.22756 0.73707 1.16656
 C124 C 0.24210 0.76526 1.18005
 C125 C 0.27002 0.77858 1.16354
 C126 C 0.28370 0.80743 1.17619
 C127 C 0.26995 0.82293 1.20592
 H128 H 0.16238 0.77504 1.26704
 H129 H 0.23785 0.84815 1.26171
 H130 H 0.16227 0.73021 1.22356
 H131 H 0.23819 0.72528 1.14338
 H132 H 0.28065 0.76695 1.14029
 H133 H 0.28056 0.84545 1.21531
 C134 C 0.82163 1.22831 1.23237
 C135 C 0.83915 1.21086 1.25671
 C136 C 0.82594 1.18213 1.26970
 C137 C 0.79509 1.17084 1.25858
 C138 C 0.77733 1.18789 1.23431
 C139 C 0.79055 1.21677 1.22119
 C140 C 0.83487 1.25662 1.21825
 C141 C 0.81737 1.27322 1.19326
 C142 C 0.78650 1.26190 1.18256
 C143 C 0.77300 1.23372 1.19621
 C144 C 0.74272 1.22164 1.18435
 C145 C 0.72993 1.19280 1.19696
 C146 C 0.74698 1.17609 1.22209
 H147 H 0.86313 1.21939 1.26518
 H148 H 0.78510 1.14852 1.26847
 H149 H 0.85892 1.26542 1.22613
 H150 H 0.77333 1.27471 1.16296
 H151 H 0.72950 1.23420 1.16458
 H152 H 0.73702 1.15357 1.23140
 O153 O 0.52037 0.96134 0.94502
 O154 O 0.46877 0.97640 1.05751
 O155 O 0.56947 0.99748 1.02422
 O156 O 0.41837 0.99389 0.96550
 O157 O 0.53094 0.97697 1.05954
 O158 O 0.46110 0.96979 0.94278
 O159 O 0.45378 0.96341 1.00458
 O160 O 0.56393 0.98932 0.96023
 C161 C 0.55061 0.96340 0.94958
 C162 C 0.45516 0.95705 1.03641
 C163 C 0.56009 0.97835 1.04809
 C164 C 0.43061 0.97505 0.94084
 O165 O 0.47410 1.03188 0.92740
 O166 O 0.53190 1.03785 1.06544
 O167 O 0.54260 1.05231 0.95791
 O168 O 0.43261 1.01724 1.03011
 O169 O 0.47187 1.04057 1.05848
 O170 O 0.53259 1.01762 0.91891
 O171 O 0.45065 1.04556 0.97646
 O172 O 0.55233 1.05871 1.01834
 Co173 Co 0.49735 0.99687 0.93957
 Co174 Co 0.50054 1.00796 1.05420
 Co175 Co 0.55273 1.02317 0.99001
 Co176 Co 0.45463 1.00488 0.98996
 O177 O 0.50324 1.00952 0.99634
 C178 C 0.45760 1.05147 0.94527
 C179 C 0.54860 1.05907 1.05081
 C180 C 0.54314 1.04469 0.92658
 C181 C 0.44217 1.03792 1.05205
 O182 O 0.03255 0.47168 0.06747
 O183 O 0.03087 0.53230 -0.05580
 O184 O 0.03664 0.44471 -0.01179
 O185 O 0.04997 0.54779 0.01351
 O186 O 0.03690 0.47448 -0.05659
 O187 O 0.03553 0.53172 0.06684
 O188 O 0.01824 0.57856 -0.02845
 O189 O 0.00629 0.43264 0.04098
 C190 C 0.02829 0.44245 0.06159
 C191 C 0.03148 0.56295 -0.05530
 C192 C 0.04966 0.45319 -0.03976
 C193 C 0.05564 0.54605 0.04614
 O194 O -0.03052 0.53196 0.06804
 O195 O -0.02972 0.46391 -0.05401
 O196 O -0.04820 0.45231 0.01704
 O197 O -0.03528 0.55376 -0.01081
 O198 O -0.03575 0.52169 -0.05533
 O199 O -0.03329 0.47189 0.06921
 O200 O -0.00410 0.56917 0.04000
 O201 O -0.01744 0.41917 -0.02606
 Co202 Co 0.00104 0.50169 0.06313
 Co203 Co 0.00060 0.49825 -0.04981
 Co204 Co -0.00558 0.45233 0.00074
 Co205 Co 0.00713 0.54696 -0.00042
 O206 O 0.00084 0.49988 0.00726
 C207 C -0.02641 0.56077 0.06121
 C208 C -0.03145 0.43336 -0.05212
 C209 C -0.05338 0.45588 0.04991
 C210 C -0.04845 0.54382 -0.03812
 O211 O 1.04221 0.04060 0.48284
 O212 O 0.94029 0.02101 0.54184
 O213 O 0.96735 0.00527 0.43135
 O214 O 1.02753 0.00452 0.59174
 O215 O 0.93504 0.02189 0.47545
 O216 O 1.04676 0.03036 0.54603
 O217 O 0.98956 0.03537 0.55563
 O218 O 1.02716 0.01424 0.43510
 C219 C 1.03796 0.03947 0.45024
 C220 C 0.95992 0.04122 0.55482
 C221 C 0.94452 0.02263 0.44355
 C222 C 1.04952 0.02431 0.57862
 O223 O 1.06137 -0.03105 0.52882
 O224 O 0.93198 -0.03914 0.47298
 O225 O 1.03129 -0.04957 0.45393
 O226 O 0.96777 -0.01929 0.57854
 O227 O 0.94195 -0.04331 0.53664
 O228 O 1.06709 -0.01481 0.46641
 O229 O 1.01712 -0.04651 0.55544
 O230 O 0.97485 -0.05653 0.44558
 Co231 Co 1.04868 0.00442 0.50585
 Co232 Co 0.94287 -0.00973 0.50684
 Co233 Co 1.00040 -0.02049 0.44639
 Co234 Co 1.00374 -0.00588 0.55317
 O235 O 0.99621 -0.00925 0.50093
 C236 C 1.04583 -0.05164 0.54617
 C237 C 0.94519 -0.05864 0.45246
 C238 C 1.06023 -0.04147 0.45363
 C239 C 0.94820 -0.04077 0.56859
 C240 C 1.11537 0.14207 0.34177
 N241 N 1.12709 0.13650 0.37427
 N242 N 1.10946 0.11918 0.39707
 C243 C 1.07956 0.10705 0.38809
 N244 N 1.06778 0.11277 0.35565
 N245 N 1.08540 0.13009 0.33285
 C246 C 1.13529 0.15840 0.31616
 C247 C 1.15172 0.17131 0.29374
 C248 C 1.06269 0.08512 0.41079
 C249 C 1.05023 0.06508 0.42919
 C250 C 0.84750 -0.15289 0.35120
 N251 N 0.87900 -0.16134 0.35550
 N252 N 0.89806 -0.14542 0.37844
 C253 C 0.88614 -0.12057 0.39778
 N254 N 0.85458 -0.11226 0.39367
 N255 N 0.83552 -0.12817 0.37071
 C256 C 0.82863 -0.16726 0.32327
 C257 C 0.81433 -0.17857 0.29821
 C258 C 0.90761 -0.10077 0.41882
 C259 C 0.92526 -0.08245 0.43496
 C260 C 0.87371 0.15202 0.64323
 N261 N 0.90292 0.14371 0.65633
 N262 N 0.92297 0.12525 0.63729
 C263 C 0.91449 0.11472 0.60449
 N264 N 0.88538 0.12323 0.59130
 N265 N 0.86530 0.14167 0.61034
 C266 C 0.85095 0.16913 0.66522
 C267 C 0.83231 0.18262 0.68513
 C268 C 0.93344 0.09106 0.58627
 C269 C 0.94710 0.06925 0.57159
 C270 C 1.13446 -0.15943 0.62747
 N271 N 1.10131 -0.16152 0.63014
 N272 N 1.08282 -0.14360 0.61032
 C273 C 1.09695 -0.12309 0.58715
 N274 N 1.13010 -0.12120 0.58427
 N275 N 1.14858 -0.13911 0.60410
 C276 C 1.15409 -0.17519 0.65235
 C277 C 1.16971 -0.18716 0.67500
 C278 C 1.07754 -0.10014 0.57028
 C279 C 1.06226 -0.07896 0.55817
 C280 C 0.32981 1.13195 1.13321
 N281 N 0.34609 1.11051 1.15204
 N282 N 0.36877 1.09247 1.13640
 C283 C 0.37580 1.09531 1.10145
 N284 N 0.35955 1.11678 1.08263
 N285 N 0.33687 1.13482 1.09827
 C286 C 0.30439 1.15033 1.14970
 C287 C 0.28250 1.16511 1.16349
 C288 C 0.39949 1.07524 1.08437
 C289 C 0.41911 1.05822 1.06977
 C290 C 0.32951 0.87414 0.84881
 N291 N 0.33476 0.90428 0.83753
 N292 N 0.35494 0.92435 0.85490
 C293 C 0.37046 0.91489 0.88410
 N294 N 0.36523 0.88474 0.89536
 N295 N 0.34505 0.86467 0.87800
 C296 C 0.30699 0.85287 0.83070
 C297 C 0.28757 0.83546 0.81560
 C298 C 0.39170 0.93663 0.90331
 C299 C 0.40947 0.95449 0.92005
 C300 C 0.66718 0.87871 1.12000
 N301 N 0.66188 0.90796 1.13464
 N302 N 0.64120 0.92756 1.11992
 C303 C 0.62523 0.91852 1.09006
 N304 N 0.63053 0.88926 1.07537
 N305 N 0.65123 0.86965 1.09011
 C306 C 0.68947 0.85779 1.13611
 C307 C 0.70849 0.84102 1.15044
 C308 C 0.60258 0.93952 1.07466
 C309 C 0.58333 0.95728 1.06228
 C310 C 0.64242 1.14136 0.83076
 N311 N 0.64026 1.10987 0.82195
 N312 N 0.61809 1.09093 0.83772
 C313 C 0.59729 1.10291 0.86272
 N314 N 0.59935 1.13443 0.87141
 N315 N 0.62153 1.15338 0.85564
 C316 C 0.66827 1.16104 0.81607
 C317 C 0.69091 1.17673 0.80431
 C318 C 0.57622 1.08196 0.88280
 C319 C 0.56010 1.06462 0.90161
 C320 C 0.12991 0.33668 0.13121
 N321 N 0.12086 0.33395 0.09695
 N322 N 0.10107 0.35510 0.08349
 C323 C 0.08959 0.37947 0.10395
 N324 N 0.09871 0.38225 0.13819
 N325 N 0.11851 0.36110 0.15165
 C326 C 0.14884 0.31249 0.14651
 C327 C 0.16315 0.29143 0.16010
 C328 C 0.06767 0.40169 0.08967
 C329 C 0.04939 0.42028 0.07723
 C330 C -0.14593 0.34438 -0.13976
 N331 N -0.12652 0.36494 -0.15829
 N332 N -0.10416 0.38334 -0.14187
 C333 C -0.10040 0.38155 -0.10646
 N334 N -0.11988 0.36108 -0.08792
 N335 N -0.14222 0.34268 -0.10433
 C336 C -0.16733 0.32219 -0.15800
 C337 C -0.18327 0.30241 -0.17420
 C338 C -0.07551 0.40031 -0.08880
 C339 C -0.05493 0.41558 -0.07288
 C340 C 0.13514 0.65496 -0.15240
 N341 N 0.14312 0.64497 -0.11994
 N342 N 0.12309 0.62510 -0.10249
 C343 C 0.09448 0.61465 -0.11695
 N344 N 0.08655 0.62456 -0.14947
 N345 N 0.10659 0.64442 -0.16692
 C346 C 0.15521 0.67840 -0.16998
 C347 C 0.17069 0.69905 -0.18482
 C348 C 0.07190 0.59529 -0.09690
 C349 C 0.05312 0.58000 -0.07875
 C350 C -0.13671 0.66760 0.12170
 N351 N -0.11682 0.67423 0.09363
 N352 N -0.09481 0.65330 0.08220
 C353 C -0.09184 0.62525 0.09870
 N354 N -0.11177 0.61858 0.12671
 N355 N -0.13379 0.63951 0.13814
 C356 C -0.15837 0.69116 0.13587
 C357 C -0.17511 0.71151 0.14924
 C358 C -0.06811 0.60280 0.08645
 C359 C -0.04859 0.58377 0.07553
 C360 C 1.13546 0.12470 0.68814
 N361 N 1.15061 0.09960 0.67229
 N362 N 1.13420 0.07965 0.65065
 C363 C 1.10208 0.08415 0.64420
 N364 N 1.08693 0.10925 0.66004
 N365 N 1.10335 0.12920 0.68168
 C366 C 1.15308 0.14583 0.71200
 C367 C 1.16817 0.16305 0.73231
 C368 C 1.08423 0.06259 0.62102
 C369 C 1.06876 0.04482 0.60164
 C370 C 0.87608 -0.13954 0.68791
 N371 N 0.90403 -0.12295 0.69593
 N372 N 0.91849 -0.10403 0.67224
 C373 C 0.90542 -0.10101 0.63981
 N374 N 0.87750 -0.11764 0.63176
 N375 N 0.86303 -0.13656 0.65546
 C376 C 0.85948 -0.15855 0.71410
 C377 C 0.84489 -0.17360 0.73643
 C378 C 0.92053 -0.07993 0.61461
 C379 C 0.93313 -0.06207 0.59357
 C380 C 1.15389 -0.13413 0.34605
 N381 N 1.16000 -0.10222 0.34798
 N382 N 1.14391 -0.08394 0.37140
 C383 C 1.12128 -0.09699 0.39375
 N384 N 1.11524 -0.12892 0.39189
 N385 N 1.13133 -0.14720 0.36847
 C386 C 1.16985 -0.15347 0.31931
 C387 C 1.18302 -0.16910 0.29616
 C388 C 1.10168 -0.07699 0.41666
 C389 C 1.08372 -0.06047 0.43449
 C390 C 0.87401 0.12710 0.33556
 N391 N 0.86387 0.12460 0.36973
 N392 N 0.87801 0.10432 0.39095
 C393 C 0.90267 0.08580 0.37864
 N394 N 0.91285 0.08833 0.34447
 N395 N 0.89871 0.10862 0.32326
 C396 C 0.85766 0.14783 0.31223
 C397 C 0.84320 0.16444 0.29240
 C398 C 0.91748 0.06348 0.40137
 C399 C 0.92980 0.04474 0.42053
 C400 C 0.15357 0.35049 -0.11756
 N401 N 0.13994 0.37356 -0.13653
 N402 N 0.12327 0.39673 -0.12028
 C403 C 0.11987 0.39769 -0.08454
 N404 N 0.13365 0.37470 -0.06557
 N405 N 0.15033 0.35153 -0.08182
 C406 C 0.16908 0.32398 -0.13516
 C407 C 0.18137 0.30112 -0.14953
 C408 C 0.09791 0.41977 -0.06761
 C409 C 0.07721 0.43640 -0.05421
 C410 C -0.14417 0.34980 0.14114
 N411 N -0.14543 0.34890 0.10533
 N412 N -0.13161 0.37223 0.08655
 C413 C -0.11634 0.39736 0.10303
 N414 N -0.11523 0.39834 0.13887
 N415 N -0.12904 0.37499 0.15765
 C416 C -0.15735 0.32360 0.16103
 C417 C -0.16850 0.30094 0.17658
 C418 C -0.09742 0.42003 0.08290
 C419 C -0.07891 0.43753 0.06694
 C420 C -0.14881 0.64583 -0.11213
 N421 N -0.14698 0.64524 -0.07639
 N422 N -0.13149 0.62192 -0.06087
 C423 C -0.11752 0.59834 -0.08057
 N424 N -0.11954 0.59883 -0.11631
 N425 N -0.13503 0.62215 -0.13185
 C426 C -0.16264 0.67262 -0.12886
 C427 C -0.17342 0.69580 -0.14236
 C428 C -0.09628 0.57640 -0.06438
 C429 C -0.07590 0.56006 -0.05165
 C430 C 0.15554 0.65008 0.13208
 N431 N 0.15505 0.65034 0.09625
 N432 N 0.13899 0.62747 0.07808
 C433 C 0.12310 0.60348 0.09517
 N434 N 0.12373 0.60314 0.13100
 N435 N 0.13978 0.62602 0.14919
 C436 C 0.17102 0.67594 0.15153
 C437 C 0.18391 0.69842 0.16669
 C438 C 0.10218 0.58135 0.07612
 C439 C 0.08231 0.56422 0.06137
 C440 C 0.36238 1.15763 0.86979
 N441 N 0.38093 1.13792 0.84930
 N442 N 0.40356 1.12024 0.86375
 C443 C 0.40843 1.12179 0.89913
 N444 N 0.39003 1.14168 0.91958
 N445 N 0.36740 1.15936 0.90513
 C446 C 0.33519 1.17337 0.85496
 C447 C 0.31130 1.18512 0.84290
 C448 C 0.42877 1.09906 0.91526
 C449 C 0.44345 1.07823 0.92896
 C450 C 0.35680 0.85129 1.11949
 N451 N 0.38453 0.86294 1.13481
 N452 N 0.40611 0.88041 1.11632
 C453 C 0.40070 0.88663 1.08193
 N454 N 0.37305 0.87483 1.06657
 N455 N 0.35147 0.85735 1.08505
 C456 C 0.33210 0.83504 1.14011
 C457 C 0.31049 0.82220 1.15700
 C458 C 0.42147 0.90911 1.06376
 C459 C 0.43766 0.92994 1.05011
 C460 C 0.65002 1.15238 1.14911
 N461 N 0.64341 1.16086 1.11567
 N462 N 0.62060 1.14495 1.09709
 C463 C 0.60367 1.12013 1.11143
 N464 N 0.61015 1.11177 1.14495
 N465 N 0.63296 1.12767 1.16352
 C466 C 0.67695 1.16726 1.16751
 C467 C 0.70062 1.17912 1.18171
 C468 C 0.58226 1.10047 1.09007
 C469 C 0.56592 1.08243 1.07201
 C470 C 0.65901 0.85486 0.89015
 N471 N 0.63300 0.86206 0.87029
 N472 N 0.60993 0.88115 0.88333
 C473 C 0.61216 0.89360 0.91664
 N474 N 0.63810 0.88629 0.93656
 N475 N 0.66116 0.86719 0.92352
 C476 C 0.68534 0.83681 0.87499
 C477 C 0.70810 0.82284 0.86184
 C478 C 0.58923 0.91675 0.92927
 C479 C 0.57099 0.93742 0.93903
   
