data_POSCAR
  _audit_creation_date              2014-09-24
  _audit_creation_method            'ToBaCCo'
  _symmetry_space_group_name_H-M    'P1'
  _symmetry_Int_Tables_number       1
  _symmetry_cell_setting            triclinic
  loop_
  _symmetry_equiv_pos_as_xyz
 x,y,z
_cell_length_a 26.5186
_cell_length_b 25.4137
_cell_length_c 28.4711
_cell_angle_alpha 90.645300
_cell_angle_beta 89.983300
_cell_angle_gamma 89.418700
loop_
  _atom_site_label
  _atom_site_type_symbol
  _atom_site_fract_x
  _atom_site_fract_y
  _atom_site_fract_z
B1 B 0.25903 0.21648 0.21664
 B2 B 0.28608 0.27332 0.23228
 B3 B 0.22481 0.27186 0.21931
 B4 B 0.20014 0.21522 0.23910
 B5 B 0.24868 0.18166 0.26542
 B6 B 0.30232 0.21796 0.26012
 B7 B 0.23462 0.27490 0.31292
 B8 B 0.20787 0.21796 0.29774
 B9 B 0.26933 0.21959 0.31031
 B10 B 0.29349 0.27612 0.29057
 B11 B 0.24491 0.30943 0.26441
 B12 B 0.19136 0.27324 0.26939
 B13 B 0.74680 0.78755 0.18467
 B14 B 0.72800 0.72593 0.19518
 B15 B 0.78816 0.73747 0.18112
 B16 B 0.80565 0.79508 0.20588
 B17 B 0.75452 0.81884 0.23621
 B18 B 0.70597 0.77585 0.22876
 B19 B 0.78224 0.72448 0.27438
 B20 B 0.80100 0.78606 0.26409
 B21 B 0.74074 0.77468 0.27789
 B22 B 0.72331 0.71710 0.25340
 B23 B 0.77456 0.69330 0.22306
 B24 B 0.82299 0.73647 0.23018
 B25 B 0.71366 0.23949 -0.21026
 B26 B 0.70610 0.30120 -0.22974
 B27 B 0.76099 0.28200 -0.20590
 B28 B 0.77310 0.21906 -0.22168
 B29 B 0.72409 0.19951 -0.25646
 B30 B 0.68236 0.25073 -0.26109
 B31 B 0.77170 0.28131 -0.29965
 B32 B 0.77869 0.21971 -0.28024
 B33 B 0.72393 0.23861 -0.30421
 B34 B 0.71201 0.30172 -0.28848
 B35 B 0.76092 0.32127 -0.25333
 B36 B 0.80269 0.26988 -0.24911
 B37 B 0.28123 0.77519 -0.29399
 B38 B 0.22257 0.78355 -0.27363
 B39 B 0.24036 0.72572 -0.29750
 B40 B 0.30094 0.71339 -0.28279
 B41 B 0.32014 0.76559 -0.24870
 B42 B 0.27113 0.80930 -0.24365
 B43 B 0.24271 0.71723 -0.20369
 B44 B 0.30146 0.70918 -0.22424
 B45 B 0.28342 0.76688 -0.20023
 B46 B 0.22285 0.77915 -0.21486
 B47 B 0.20354 0.72719 -0.24919
 B48 B 0.25264 0.68332 -0.25414
 B49 B 1.24975 1.27647 0.77478
 B50 B 1.30483 1.30009 0.75615
 B51 B 1.30028 1.23658 0.77018
 B52 B 1.24333 1.21471 0.75323
 B53 B 1.21252 1.26668 0.72777
 B54 B 1.25099 1.32014 0.73064
 B55 B 1.29783 1.24516 0.67611
 B56 B 1.24263 1.22111 0.69434
 B57 B 1.24672 1.28490 0.68067
 B58 B 1.30387 1.30675 0.69768
 B59 B 1.33458 1.25460 0.72310
 B60 B 1.29626 1.20117 0.72036
 B61 B 0.76698 0.72011 0.80216
 B62 B 0.71062 0.69414 0.79060
 B63 B 0.71462 0.75825 0.80370
 B64 B 0.76794 0.78137 0.78010
 B65 B 0.79682 0.72962 0.75117
 B66 B 0.76087 0.67506 0.75828
 B67 B 0.70486 0.74700 0.71003
 B68 B 0.76113 0.77335 0.72184
 B69 B 0.75688 0.70925 0.70850
 B70 B 0.70350 0.68598 0.73231
 B71 B 0.67479 0.73758 0.76116
 B72 B 0.71064 0.79229 0.75362
 B73 B 1.21224 0.74517 0.19257
 B74 B 1.27456 0.74150 0.20178
 B75 B 1.24721 0.80008 0.19283
 B76 B 1.19000 0.80057 0.21867
 B77 B 1.18287 0.74037 0.24450
 B78 B 1.23572 0.70340 0.23327
 B79 B 1.26362 0.78894 0.28541
 B80 B 1.20148 0.79273 0.27622
 B81 B 1.22880 0.73427 0.28532
 B82 B 1.28595 0.73371 0.25951
 B83 B 1.29311 0.79386 0.23366
 B84 B 1.24027 0.83076 0.24502
 B85 B 0.77874 1.27246 0.21120
 B86 B 0.71750 1.28141 0.22303
 B87 B 0.73997 1.22073 0.21264
 B88 B 0.79811 1.21591 0.23594
 B89 B 0.81113 1.27549 0.26168
 B90 B 0.76070 1.31658 0.25281
 B91 B 0.72860 1.23466 0.30600
 B92 B 0.79015 1.22518 0.29411
 B93 B 0.76795 1.28630 0.30453
 B94 B 0.70953 1.29122 0.28104
 B95 B 0.69658 1.23135 0.25530
 B96 B 0.74693 1.19038 0.26424
 O97 O 0.56564 1.10869 0.09466
 O98 O 0.62372 1.05601 0.05624
 C99 C 0.61148 1.09380 0.08571
 O100 O 0.42631 0.91445 0.08965
 O101 O 0.36975 0.96669 0.05005
 C102 C 0.38075 0.92840 0.07853
 O103 O 0.56576 0.92009 0.09864
 O104 O 0.62394 0.96479 0.05498
 C105 C 0.61171 0.93102 0.08699
 O106 O 0.42682 1.11569 0.08628
 O107 O 0.36999 1.06212 0.04860
 C108 C 0.38128 1.10135 0.07639
 Zr109 Zr 0.49651 1.07967 0.06976
 O110 O 0.48928 1.07542 0.14375
 O111 O 0.49951 1.16254 0.07580
 Zr112 Zr 0.49609 0.94838 0.07279
 O113 O 0.48844 0.95899 0.14638
 O114 O 0.49912 0.86623 0.08326
 O115 O 0.54201 1.01372 0.08134
 O116 O 0.45122 1.01496 0.07927
 O117 O 0.42995 1.10482 -0.07406
 O118 O 0.37205 1.05788 -0.03221
 C119 C 0.38394 1.09249 -0.06365
 O120 O 0.56927 0.91420 -0.07004
 O121 O 0.62502 0.96447 -0.02756
 C122 C 0.61471 0.92839 -0.05877
 O123 O 0.42782 0.91299 -0.06831
 O124 O 0.37120 0.96692 -0.02943
 C125 C 0.38217 0.92880 -0.05848
 O126 O 0.56998 1.09937 -0.07430
 O127 O 0.62542 1.05323 -0.02803
 C128 C 0.61529 1.08598 -0.06159
 Zr129 Zr 0.49925 1.07516 -0.04853
 O130 O 0.49583 1.07129 -0.12280
 O131 O 0.50421 1.15827 -0.04997
 Zr132 Zr 0.49841 0.94284 -0.04561
 O133 O 0.49455 0.94111 -0.11992
 O134 O 0.50256 0.85961 -0.04393
 Zr135 Zr 0.57384 1.01040 0.01334
 Zr136 Zr 0.42145 1.01279 0.01085
 O137 O 0.45495 1.00936 -0.05630
 O138 O 0.54436 1.00794 -0.05553
 O139 O 0.45286 1.08873 0.00947
 O140 O 0.54115 0.93518 0.01443
 O141 O 0.54199 1.08656 0.01115
 O142 O 0.45229 0.93589 0.01298
 H143 H 0.42685 1.01613 0.10567
 H144 H 0.56318 0.90348 0.01491
 H145 H 0.43323 1.00846 -0.08459
 H146 H 0.56450 1.11742 0.01056
 H147 H 0.50105 0.84964 0.05177
 H148 H 0.47430 0.84738 -0.02427
 H149 H 0.52442 0.95965 -0.13199
 H150 H 0.52473 1.04957 -0.13386
 H151 H 0.47501 1.17294 -0.03236
 H152 H 0.50203 1.17614 0.04354
 H153 H 0.52213 1.06366 0.15659
 H154 H 0.52169 0.96944 0.15898
 O155 O 1.05714 0.62644 0.57801
 O156 O 1.11920 0.58289 0.53641
 C157 C 1.10404 0.61671 0.56819
 O158 O 0.93173 0.42722 0.57490
 O159 O 0.87380 0.47189 0.53001
 C160 C 0.88562 0.43785 0.56185
 O161 O 1.07366 0.43938 0.58053
 O162 O 1.12682 0.49216 0.53839
 C163 C 1.11830 0.45642 0.56964
 O164 O 0.91873 0.62294 0.56659
 O165 O 0.86746 0.56375 0.52876
 C166 C 0.87487 0.60440 0.55619
 Zr167 Zr 0.99082 0.59307 0.55025
 O168 O 0.98249 0.59036 0.62421
 O169 O 0.98927 0.67623 0.55346
 Zr170 Zr 1.00161 0.46163 0.55392
 O171 O 1.00270 0.46999 0.62812
 O172 O 1.01052 0.37900 0.55886
 O173 O 1.04134 0.53148 0.56239
 O174 O 0.95148 0.52430 0.55922
 O175 O 0.92353 0.60896 0.40404
 O176 O 0.86957 0.55818 0.44701
 C177 C 0.87900 0.59212 0.41445
 O178 O 1.08053 0.43389 0.41445
 O179 O 1.13058 0.48989 0.45735
 C180 C 1.12414 0.45247 0.42673
 O181 O 0.94076 0.41684 0.41497
 O182 O 0.87764 0.46531 0.45076
 C183 C 0.89358 0.42718 0.42332
 O184 O 1.06236 0.62101 0.40726
 O185 O 1.12182 0.57974 0.45304
 C186 C 1.10849 0.61224 0.42002
 Zr187 Zr 0.99478 0.58842 0.43186
 O188 O 0.99380 0.58413 0.35753
 O189 O 0.99117 0.67174 0.43085
 Zr190 Zr 1.00657 0.45703 0.43535
 O191 O 1.00358 0.46004 0.36103
 O192 O 1.01701 0.37464 0.43006
 Zr193 Zr 1.07426 0.53159 0.49489
 Zr194 Zr 0.92260 0.51893 0.49042
 O195 O 0.95689 0.51826 0.42370
 O196 O 1.04642 0.52619 0.42561
 O197 O 0.94693 0.59764 0.48936
 O198 O 1.04845 0.45335 0.49617
 O199 O 1.03572 0.60427 0.49211
 O200 O 0.96017 0.44525 0.49349
 H201 H 0.92732 0.52439 0.58574
 H202 H 1.07280 0.42359 0.49744
 H203 H 0.93540 0.51412 0.39546
 H204 H 1.05518 0.63735 0.49218
 H205 H 0.98643 0.36267 0.53667
 H206 H 1.01642 0.36116 0.46244
 H207 H 1.03652 0.47275 0.34970
 H208 H 1.02412 0.56410 0.34733
 H209 H 0.95860 0.68297 0.44490
 H210 H 0.97609 0.68843 0.52298
 H211 H 1.01308 0.57321 0.63712
 H212 H 0.96775 0.47513 0.63955
 O213 O 0.91609 0.41179 -0.08964
 O214 O 0.96563 0.35368 -0.04872
 C215 C 0.92986 0.36456 -0.07815
 O216 O 1.09908 0.56222 -0.08554
 O217 O 1.04566 0.61998 -0.04719
 C218 C 1.08326 0.60947 -0.07492
 O219 O 1.09799 0.41539 -0.09373
 O220 O 1.05150 0.35569 -0.05249
 C221 C 1.08528 0.36759 -0.08371
 O222 O 0.90684 0.55690 -0.08281
 O223 O 0.95551 0.61825 -0.04484
 C224 C 0.91787 0.60509 -0.07188
 Zr225 Zr 0.94306 0.48553 -0.06683
 O226 O 0.95064 0.49118 -0.14068
 O227 O 0.86418 0.48155 -0.07647
 Zr228 Zr 1.06890 0.48815 -0.06808
 O229 O 1.06099 0.49414 -0.14189
 O230 O 1.14805 0.48774 -0.07700
 O231 O 1.00705 0.43901 -0.07722
 O232 O 1.00444 0.53377 -0.07548
 O233 O 0.91003 0.55817 0.07112
 O234 O 0.95840 0.61847 0.03276
 C235 C 0.92130 0.60599 0.05997
 O236 O 1.09583 0.41384 0.07559
 O237 O 1.05152 0.35447 0.03083
 C238 C 1.08356 0.36611 0.06352
 O239 O 1.09994 0.56075 0.07173
 O240 O 1.04998 0.61977 0.03218
 C241 C 1.08693 0.60836 0.06066
 O242 O 0.92095 0.41216 0.07773
 O243 O 0.96847 0.35403 0.03360
 C244 C 0.93546 0.36481 0.06617
 Zr245 Zr 0.94401 0.48579 0.05189
 O246 O 0.94858 0.49336 0.12594
 O247 O 0.86475 0.47844 0.05655
 Zr248 Zr 1.07038 0.48770 0.05050
 O249 O 1.06913 0.49426 0.12472
 O250 O 1.15011 0.48287 0.05136
 Zr251 Zr 1.00846 0.40765 -0.00885
 Zr252 Zr 1.00437 0.56628 -0.00710
 O253 O 1.00610 0.53338 0.06037
 O254 O 1.00845 0.43950 0.05994
 O255 O 0.93223 0.53184 -0.00692
 O256 O 1.08027 0.44215 -0.00931
 O257 O 0.93507 0.43995 -0.00758
 O258 O 1.07844 0.53485 -0.00829
 H259 H 1.00302 0.55858 -0.10208
 H260 H 1.11044 0.41885 -0.00943
 H261 H 1.00570 0.55793 0.08767
 H262 H 0.90548 0.41652 -0.00649
 H263 H 1.16305 0.47787 -0.04657
 H264 H 1.16273 0.50874 0.02856
 H265 H 1.05196 0.46287 0.13695
 H266 H 0.96479 0.46100 0.13802
 H267 H 0.84992 0.50001 0.03125
 H268 H 0.84930 0.47603 -0.04512
 H269 H 0.95822 0.45547 -0.15319
 H270 H 1.04990 0.45953 -0.15411
 O271 O 0.41895 0.92130 0.41541
 O272 O 0.46542 0.86008 0.45601
 C273 C 0.43090 0.87312 0.42568
 O274 O 0.60531 1.05741 0.41145
 O275 O 0.56361 1.11985 0.45627
 C276 C 0.59632 1.10561 0.42402
 O277 O 0.59554 0.91204 0.40748
 O278 O 0.55015 0.85510 0.45260
 C279 C 0.58181 0.86508 0.41937
 O280 O 0.42005 1.06838 0.42298
 O281 O 0.47393 1.12492 0.46092
 C282 C 0.43577 1.11525 0.43397
 Zr283 Zr 0.44849 0.99298 0.44093
 O284 O 0.44680 0.99936 0.36683
 O285 O 0.36871 0.99145 0.44300
 Zr286 Zr 0.57444 0.98686 0.43464
 O287 O 0.56777 0.99258 0.36072
 O288 O 0.65370 0.97825 0.42878
 O289 O 0.50948 0.94252 0.42800
 O290 O 0.51248 1.03636 0.42971
 O291 O 0.42441 1.06420 0.58012
 O292 O 0.47170 1.12325 0.53884
 C293 C 0.43606 1.11163 0.56870
 O294 O 0.60862 0.91412 0.57552
 O295 O 0.55775 0.85649 0.53527
 C296 C 0.59359 0.86717 0.56512
 O297 O 0.61662 1.05895 0.56980
 O298 O 0.56533 1.12072 0.53547
 C299 C 0.60379 1.10725 0.56104
 O300 O 0.42850 0.91870 0.58335
 O301 O 0.47197 0.85852 0.53784
 C302 C 0.43987 0.87084 0.57039
 Zr303 Zr 0.45576 0.99172 0.55943
 O304 O 0.46790 0.99725 0.63287
 O305 O 0.37727 0.99089 0.57217
 Zr306 Zr 0.58109 0.98759 0.55304
 O307 O 0.57804 0.99397 0.62726
 O308 O 0.66053 0.98218 0.55748
 Zr309 Zr 0.51280 0.91054 0.49601
 Zr310 Zr 0.51721 1.06941 0.49771
 O311 O 0.51997 1.03682 0.56528
 O312 O 0.51778 0.94177 0.56490
 O313 O 0.44335 1.03932 0.50120
 O314 O 0.58613 0.94112 0.49292
 O315 O 0.44131 0.94712 0.50000
 O316 O 0.58925 1.03353 0.49358
 H317 H 0.51175 1.06033 0.40250
 H318 H 0.61537 0.91664 0.49084
 H319 H 0.52177 1.06178 0.59222
 H320 H 0.41062 0.92526 0.50093
 H321 H 0.66912 1.00431 0.45037
 H322 H 0.67311 0.97597 0.52522
 H323 H 0.56708 0.95966 0.63958
 H324 H 0.47639 0.96158 0.64424
 H325 H 0.36067 0.99057 0.54111
 H326 H 0.35746 1.01872 0.46588
 H327 H 0.46252 0.96707 0.35342
 H328 H 0.54937 0.96131 0.34923
 O329 O 1.08309 0.88489 0.56092
 O330 O 1.04911 0.93322 0.62193
 C331 C 1.07799 0.89608 0.60519
 O332 O 1.07284 1.08466 0.44281
 O333 O 1.01670 1.04192 0.39497
 C334 C 1.05242 1.07516 0.40207
 O335 O 1.09827 1.06895 0.57191
 O336 O 1.05598 1.02175 0.62745
 C337 C 1.09086 1.05397 0.61480
 O338 O 1.05619 0.89179 0.43199
 O339 O 1.01051 0.95162 0.38935
 C340 C 1.03950 0.91072 0.39264
 Zr341 Zr 1.04995 0.92029 0.50157
 O342 O 1.12806 0.92162 0.48594
 O343 O 1.05385 0.83729 0.49685
 Zr344 Zr 1.05881 1.05164 0.50952
 O345 O 1.13654 1.04567 0.49308
 O346 O 1.06627 1.13382 0.51986
 O347 O 1.07076 0.98181 0.54592
 O348 O 1.05721 0.98833 0.46358
 O349 O 0.89231 0.90435 0.45452
 O350 O 0.93032 0.95715 0.40046
 C351 C 0.90024 0.91975 0.41184
 O352 O 0.91565 1.08075 0.59710
 O353 O 0.96918 1.02843 0.63968
 C354 C 0.93373 1.06358 0.63643
 O355 O 0.90223 1.09853 0.46858
 O356 O 0.93479 1.04906 0.40778
 C357 C 0.90743 1.08742 0.42435
 O358 O 0.90340 0.90364 0.58545
 O359 O 0.96256 0.94102 0.63381
 C360 C 0.92320 0.91240 0.62637
 Zr361 Zr 0.92412 0.92980 0.51878
 O362 O 0.84542 0.94114 0.52603
 O363 O 0.91561 0.84706 0.51950
 Zr364 Zr 0.93342 1.06108 0.52729
 O365 O 0.85403 1.06746 0.53339
 O366 O 0.94001 1.14323 0.53858
 Zr367 Zr 1.00237 0.98490 0.58388
 Zr368 Zr 0.98061 0.99608 0.44531
 O369 O 0.91301 0.99928 0.48365
 O370 O 0.92559 0.99276 0.56581
 O371 O 0.98006 0.91764 0.46878
 O372 O 1.00302 1.06285 0.55952
 O373 O 0.99232 0.91183 0.54984
 O374 O 0.99035 1.07018 0.47784
 H375 H 1.08265 0.98759 0.43806
 H376 H 1.00804 1.09200 0.58240
 H377 H 0.88078 1.00274 0.46628
 H378 H 0.99247 0.87921 0.56857
 H379 H 1.04247 1.15144 0.49826
 H380 H 0.95795 1.15775 0.51125
 H381 H 0.84291 1.03866 0.55396
 H382 H 0.83046 0.90558 0.52482
 H383 H 0.93655 0.83230 0.49367
 H384 H 1.02045 0.82415 0.50624
 H385 H 1.14639 0.92854 0.51562
 H386 H 1.15203 1.02088 0.51554
 O387 O 0.55462 0.38303 0.07785
 O388 O 0.52161 0.44756 0.12611
 C389 C 0.54692 0.40459 0.11890
 O390 O 0.59407 0.54719 -0.06789
 O391 O 0.53542 0.50812 -0.11561
 C392 C 0.57630 0.53419 -0.10888
 O393 O 0.60104 0.55818 0.06348
 O394 O 0.54481 0.53077 0.11912
 C395 C 0.58581 0.55394 0.10658
 O396 O 0.54546 0.36510 -0.05328
 O397 O 0.51348 0.42181 -0.10828
 C398 C 0.53677 0.37901 -0.09625
 Zr399 Zr 0.53101 0.40675 0.01034
 O400 O 0.60666 0.37998 0.00547
 O401 O 0.50723 0.32865 0.02201
 Zr402 Zr 0.56651 0.53331 0.00031
 O403 O 0.64242 0.50702 -0.00436
 O404 O 0.59088 0.61231 -0.00196
 O405 O 0.55969 0.47145 0.04705
 O406 O 0.55658 0.46315 -0.03526
 O407 O 0.37530 0.41852 -0.05176
 O408 O 0.43089 0.44788 -0.10722
 C409 C 0.38983 0.42478 -0.09475
 O410 O 0.42609 0.61028 0.06464
 O411 O 0.46125 0.55604 0.11980
 C412 C 0.43606 0.59746 0.10768
 O413 O 0.42960 0.60123 -0.06699
 O414 O 0.45605 0.53310 -0.11480
 C415 C 0.43613 0.57917 -0.10792
 O416 O 0.37880 0.43420 0.07870
 O417 O 0.43788 0.47300 0.12637
 C418 C 0.39670 0.44727 0.11955
 Zr419 Zr 0.40898 0.44537 0.01106
 O420 O 0.33273 0.47063 0.00739
 O421 O 0.38616 0.36678 0.02144
 Zr422 Zr 0.44426 0.57174 0.00081
 O423 O 0.36721 0.59365 -0.00438
 O424 O 0.46407 0.65218 0.00000
 Zr425 Zr 0.48990 0.49672 0.07531
 Zr426 Zr 0.48565 0.48213 -0.06400
 O427 O 0.41650 0.50727 -0.03469
 O428 O 0.41828 0.51587 0.04786
 O429 O 0.46591 0.41176 -0.03048
 O430 O 0.50912 0.56619 0.04027
 O431 O 0.46889 0.42106 0.05211
 O432 O 0.50697 0.55819 -0.04181
 H433 H 0.58469 0.45233 -0.05630
 H434 H 0.51764 0.59829 0.05856
 H435 H 0.38743 0.51461 -0.05556
 H436 H 0.46189 0.39344 0.07545
 H437 H 0.57245 0.62971 -0.02778
 H438 H 0.49073 0.65608 -0.02395
 H439 H 0.35005 0.58130 0.02426
 H440 H 0.32632 0.49476 0.03429
 H441 H 0.40307 0.34469 -0.00279
 H442 H 0.48609 0.31795 -0.00501
 H443 H 0.62709 0.40337 0.02570
 H444 H 0.65115 0.49004 0.02571
 C445 C 0.27299 1.18901 0.16780
 C446 C 0.27563 1.13652 0.16170
 C447 C 0.30261 1.11001 0.12209
 C448 C 0.34147 1.13240 0.10015
 H449 H 0.26115 1.11111 0.18871
 H450 H 0.29671 1.06816 0.11735
 H451 H 0.28455 1.21460 0.13980
 H452 H 0.35099 1.17274 0.10853
 C453 C 0.78038 0.68555 0.66123
 C454 C 0.77116 0.63636 0.64545
 C455 C 0.80134 0.60851 0.60848
 C456 C 0.83221 0.63253 0.57850
 H457 H 0.74426 0.61260 0.66415
 H458 H 0.80145 0.56588 0.60925
 H459 H 0.80891 0.70917 0.64483
 H460 H 0.83343 0.67500 0.57775
 C461 C 0.72495 0.81912 0.14135
 C462 C 0.73525 0.86986 0.13308
 C463 C 0.70052 0.90336 0.10520
 C464 C 0.65061 0.90004 0.11160
 H465 H 0.76700 0.88855 0.15009
 H466 H 0.71593 0.93336 0.08280
 H467 H 0.69391 0.80119 0.12269
 H468 H 0.63662 0.87214 0.13694
 C469 C 1.21536 0.30900 0.63802
 C470 C 1.20872 0.36104 0.63220
 C471 C 1.16657 0.38224 0.60361
 C472 C 1.16253 0.43371 0.59409
 H473 H 1.23149 0.38855 0.65212
 H474 H 1.13737 0.35567 0.59171
 H475 H 1.19218 0.28217 0.61786
 H476 H 1.19309 0.45982 0.60339
 C477 C 0.68283 1.21946 -0.16616
 C478 C 0.68986 1.17271 -0.14570
 C479 C 0.65159 1.15319 -0.11255
 C480 C 0.65776 1.10896 -0.08785
 H481 H 0.72120 1.14740 -0.15596
 H482 H 0.61602 1.17452 -0.11013
 H483 H 0.65154 1.24368 -0.15434
 H484 H 0.69379 1.08847 -0.08821
 C485 C 1.21639 0.70333 0.33242
 C486 C 1.21305 0.65063 0.33469
 C487 C 1.18671 0.62266 0.37322
 C488 C 1.14638 0.64371 0.39508
 H489 H 1.22677 0.62660 0.30566
 H490 H 1.19484 0.58111 0.37742
 H491 H 1.20510 0.72693 0.36254
 H492 H 1.13464 0.68338 0.38643
 C493 C 0.30758 0.78637 -0.15214
 C494 C 0.30681 0.83671 -0.13785
 C495 C 0.34363 0.85582 -0.10288
 C496 C 0.34008 0.90425 -0.08424
 H497 H 0.28294 0.86517 -0.15550
 H498 H 0.37627 0.83136 -0.09511
 H499 H 0.33062 0.75854 -0.13303
 H500 H 0.30637 0.92774 -0.09013
 C501 C 0.78695 0.31877 0.34940
 C502 C 0.77870 0.37059 0.35649
 C503 C 0.80916 0.40317 0.38980
 C504 C 0.85780 0.39194 0.39878
 H505 H 0.75086 0.39088 0.33535
 H506 H 0.79328 0.44030 0.40199
 H507 H 0.81378 0.29906 0.37171
 H508 H 0.87470 0.35717 0.38278
 C509 C 1.20635 0.30275 0.17504
 C510 C 1.16570 0.29108 0.14974
 C511 C 1.14713 0.33017 0.11613
 C512 C 1.10637 0.32241 0.08973
 H513 H 1.14450 0.25566 0.15627
 H514 H 1.16579 0.36795 0.11509
 H515 H 1.22638 0.33874 0.16773
 H516 H 1.08823 0.28439 0.08908
 C517 C 0.67544 0.76158 0.66306
 C518 C 0.62534 0.77033 0.66153
 C519 C 0.59808 0.79551 0.62182
 C520 C 0.62085 0.82476 0.58937
 H521 H 0.60279 0.76218 0.69225
 H522 H 0.55732 0.79742 0.62438
 H523 H 0.69817 0.76698 0.63204
 H524 H 0.66148 0.82772 0.58924
 C525 C 1.22399 0.68512 -0.16007
 C526 C 1.17756 0.69101 -0.14246
 C527 C 1.15577 0.64975 -0.11319
 C528 C 1.10882 0.65415 -0.09656
 H529 H 1.15355 0.72327 -0.15376
 H530 H 1.17712 0.61365 -0.10801
 H531 H 1.24729 0.65237 -0.14880
 H532 H 1.08808 0.69087 -0.10010
 C533 C 0.70198 1.21144 0.35133
 C534 C 0.65758 1.22857 0.36928
 C535 C 0.62676 1.19619 0.40183
 C536 C 0.62675 1.14366 0.39754
 H537 H 0.64170 1.26573 0.35796
 H538 H 0.60090 1.21565 0.42595
 H539 H 0.71825 1.17513 0.36411
 H540 H 0.65027 1.12572 0.37054
 C541 C 0.81484 0.71718 0.13446
 C542 C 0.80602 0.66873 0.11762
 C543 C 0.83973 0.63815 0.08648
 C544 C 0.88869 0.64805 0.07931
 H545 H 0.77479 0.64650 0.13114
 H546 H 0.82468 0.60090 0.07430
 H547 H 0.84581 0.74000 0.12112
 H548 H 0.90544 0.68491 0.08997
 C549 C 0.32407 1.22503 0.62865
 C550 C 0.37110 1.23878 0.61573
 C551 C 0.40388 1.20410 0.58576
 C552 C 0.40417 1.15203 0.59243
 H553 H 0.38835 1.27319 0.63140
 H554 H 0.43124 1.22154 0.56257
 H555 H 0.30691 1.19147 0.61150
 H556 H 0.37845 1.13663 0.61842
 C557 C 0.78075 0.30558 -0.15810
 C558 C 0.82595 0.29194 -0.14094
 C559 C 0.85257 0.32806 -0.10939
 C560 C 0.90138 0.32113 -0.09913
 H561 H 0.84654 0.25849 -0.15554
 H562 H 0.83345 0.36415 -0.09852
 H563 H 0.76104 0.33978 -0.14395
 H564 H 0.92080 0.28465 -0.10805
 C565 C 0.28810 0.81532 0.33062
 C566 C 0.33390 0.80341 0.34763
 C567 C 0.35852 0.84036 0.38071
 C568 C 0.40362 0.83087 0.40040
 H569 H 0.35481 0.76964 0.33414
 H570 H 0.34028 0.87822 0.38690
 H571 H 0.26852 0.84976 0.34451
 H572 H 0.42146 0.79255 0.39636
 C573 C 1.17272 1.19191 0.33484
 C574 C 1.13228 1.16318 0.32566
 C575 C 1.10676 1.13940 0.36576
 C576 C 1.07177 1.10272 0.36083
 H577 H 1.11984 1.15586 0.28995
 H578 H 1.11913 1.15049 0.40080
 H579 H 1.18448 1.19629 0.37109
 H580 H 1.05877 1.09127 0.32614
 C581 C 0.68724 0.65669 -0.17275
 C582 C 0.66325 0.61268 -0.18383
 C583 C 0.64386 0.58161 -0.14539
 C584 C 0.60313 0.55218 -0.15047
 H585 H 0.65593 0.60145 -0.22001
 H586 H 0.65982 0.58824 -0.11075
 H587 H 0.69249 0.66744 -0.13610
 H588 H 0.58640 0.54626 -0.18484
 C589 C 0.81304 1.18038 0.69161
 C590 C 0.84269 1.14327 0.70992
 C591 C 0.86451 1.10534 0.67664
 C592 C 0.91140 1.08626 0.67941
 H593 H 0.84976 1.14070 0.74729
 H594 H 0.84288 1.09819 0.64482
 H595 H 0.80965 1.18267 0.65370
 H596 H 0.93394 1.09142 0.71081
 C597 C 0.31009 0.71738 0.16335
 C598 C 0.35394 0.69440 0.17350
 C599 C 0.38233 0.66854 0.13594
 C600 C 0.41604 0.63106 0.14535
 H601 H 0.36713 0.69158 0.20942
 H602 H 0.37173 0.67666 0.09991
 H603 H 0.29710 0.71836 0.12728
 H604 H 0.42516 0.62160 0.18144
 C605 C 1.18554 0.82026 0.69854
 C606 C 1.14087 0.83784 0.71431
 C607 C 1.10738 0.86971 0.68414
 C608 C 1.10704 0.86313 0.63737
 H609 H 1.12923 0.83028 0.75005
 H610 H 1.08249 0.89835 0.70081
 H611 H 1.19787 0.83076 0.66378
 H612 H 1.12928 0.83187 0.62119
 C613 C 0.68268 0.30657 0.18502
 C614 C 0.63732 0.32693 0.19390
 C615 C 0.60760 0.34570 0.15428
 C616 C 0.56993 0.37997 0.15992
 H617 H 0.62286 0.33031 0.22943
 H618 H 0.61952 0.33414 0.11914
 H619 H 0.69590 0.30461 0.14903
 H620 H 0.55943 0.39379 0.19478
 C621 C 0.83661 0.81744 0.29862
 C622 C 0.83613 0.80913 0.34497
 C623 C 0.86222 0.84108 0.38004
 C624 C 0.87564 0.89098 0.37372
 H625 H 0.81384 0.77821 0.35957
 H626 H 0.86760 0.82298 0.41399
 H627 H 0.85979 0.84785 0.28381
 H628 H 0.87068 0.91008 0.34024
 C629 C 0.33660 0.33668 -0.21159
 C630 C 0.33515 0.38908 -0.21302
 C631 C 0.36080 0.41904 -0.17611
 C632 C 0.35758 0.40365 -0.13142
 H633 H 0.31584 0.40971 -0.24094
 H634 H 0.38329 0.45256 -0.18583
 H635 H 0.35901 0.31755 -0.18486
 H636 H 0.33148 0.37304 -0.12168
 C637 C 1.22732 0.29742 -0.17651
 C638 C 1.17882 0.29308 -0.16374
 C639 C 1.15698 0.32970 -0.12810
 C640 C 1.11029 0.32439 -0.11062
 H641 H 1.15396 0.26712 -0.18310
 H642 H 1.17854 0.36422 -0.11843
 H643 H 1.25125 0.32352 -0.15631
 H644 H 1.08927 0.28890 -0.11792
 C645 C 0.71829 0.79873 0.32454
 C646 C 0.67277 0.78808 0.34163
 C647 C 0.65087 0.82514 0.37610
 C648 C 0.60436 0.82064 0.39319
 H649 H 0.65033 0.75651 0.32696
 H650 H 0.67242 0.85987 0.38531
 H651 H 0.73840 0.83200 0.33912
 H652 H 0.58257 0.78547 0.38672
 C653 C 0.80047 0.70490 -0.15294
 C654 C 0.80348 0.65480 -0.13866
 C655 C 0.83600 0.63284 -0.10151
 C656 C 0.88415 0.64587 -0.09247
 H657 H 0.78020 0.62553 -0.15562
 H658 H 0.82217 0.59618 -0.08752
 H659 H 0.82301 0.73489 -0.13602
 H660 H 0.89994 0.68198 -0.10555
 C661 C 0.29096 1.18991 0.35427
 C662 C 0.33778 1.19694 0.37008
 C663 C 0.36148 1.15650 0.39934
 C664 C 0.40926 1.16039 0.41339
 H665 H 0.36053 1.22888 0.35712
 H666 H 0.34072 1.12085 0.40637
 H667 H 0.26936 1.15701 0.36698
 H668 H 0.42976 1.19656 0.40825
 C669 C 1.18354 0.72164 0.14768
 C670 C 1.19475 0.67340 0.13082
 C671 C 1.16348 0.64069 0.09897
 C672 C 1.11668 0.65131 0.08289
 H673 H 1.22776 0.65319 0.14428
 H674 H 1.17969 0.60216 0.09157
 H675 H 1.15053 0.74255 0.13521
 H676 H 1.09952 0.68975 0.08787
 C677 C 0.70273 1.21571 0.64759
 C678 C 0.70687 1.16426 0.63741
 C679 C 0.68075 1.13615 0.59942
 C680 C 0.63464 1.14860 0.58338
 H681 H 0.72902 1.13890 0.65981
 H682 H 0.69674 1.09781 0.59085
 H683 H 0.68087 1.24149 0.62526
 H684 H 0.61736 1.18639 0.59148
 C685 C 0.80134 0.29722 0.16488
 C686 C 0.84798 0.28899 0.14810
 C687 C 0.86851 0.32685 0.11406
 C688 C 0.91328 0.32088 0.09270
 H689 H 0.87200 0.25837 0.16239
 H690 H 0.84702 0.36274 0.10819
 H691 H 0.77921 0.32893 0.14994
 H692 H 0.93444 0.28443 0.09604
 C693 C 0.30098 0.80702 0.66286
 C694 C 0.34463 0.79571 0.64161
 C695 C 0.36836 0.83546 0.61235
 C696 C 0.41398 0.82777 0.59376
 H697 H 0.36527 0.75987 0.64960
 H698 H 0.34940 0.87318 0.60826
 H699 H 0.28212 0.84397 0.65533
 H700 H 0.43251 0.78965 0.59587
 C701 C 0.33155 1.21378 -0.18681
 C702 C 0.31602 1.17812 -0.15569
 C703 C 0.35325 1.15607 -0.12214
 C704 C 0.34297 1.11805 -0.09118
 H705 H 0.27772 1.16370 -0.15655
 H706 H 0.39160 1.17020 -0.12457
 H707 H 0.37050 1.22621 -0.18527
 H708 H 0.30478 1.10385 -0.08776
 C709 C 0.80412 0.69015 0.31581
 C710 C 0.78055 0.67900 0.35617
 C711 C 0.80739 0.64977 0.39362
 C712 C 0.83842 0.60946 0.38316
 H713 H 0.74372 0.69576 0.36368
 H714 H 0.80434 0.66408 0.42949
 H715 H 0.84252 0.67633 0.31059
 H716 H 0.84089 0.59533 0.34718
 C717 C 0.72321 1.18911 0.16650
 C718 C 0.72381 1.13620 0.16261
 C719 C 0.69433 1.10657 0.12651
 C720 C 0.64998 1.12499 0.11083
 H721 H 0.74351 1.11312 0.18869
 H722 H 0.70512 1.06618 0.11879
 H723 H 0.70586 1.21196 0.13898
 H724 H 0.63716 1.16341 0.12295
 C725 C 1.21570 0.70612 0.65463
 C726 C 1.22284 0.65742 0.63681
 C727 C 1.18987 0.63357 0.60027
 C728 C 1.14096 0.64669 0.59631
 H729 H 1.25211 0.63239 0.65129
 H730 H 1.20447 0.59981 0.58089
 H731 H 1.18813 0.73209 0.63884
 H732 H 1.12544 0.67762 0.61861
 C733 C 0.68836 0.78149 -0.15014
 C734 C 0.69174 0.83174 -0.13563
 C735 C 0.65338 0.85436 -0.10311
 C736 C 0.65732 0.90267 -0.08407
 H737 H 0.71930 0.85748 -0.15121
 H738 H 0.61954 0.83190 -0.09673
 H739 H 0.66010 0.75696 -0.13413
 H740 H 0.69195 0.92441 -0.08821
 C741 C 1.21836 0.30368 0.36046
 C742 C 1.21100 0.35579 0.36348
 C743 C 1.17437 0.37809 0.39733
 C744 C 1.16905 0.43000 0.40353
 H745 H 1.22583 0.38140 0.33672
 H746 H 1.14792 0.35184 0.41397
 H747 H 1.20401 0.27954 0.38838
 H748 H 1.19658 0.45663 0.38917
 C749 C 0.26121 0.83213 0.14678
 C750 C 0.26280 0.88503 0.14564
 C751 C 0.29473 0.91436 0.11197
 C752 C 0.34079 0.89645 0.10013
 H753 H 0.24432 0.90803 0.17300
 H754 H 0.28428 0.95458 0.10398
 H755 H 0.27789 0.80983 0.11805
 H756 H 0.35281 0.85829 0.11285
 C757 C 0.80613 0.30027 0.65790
 C758 C 0.80481 0.34875 0.63991
 C759 C 0.84705 0.36798 0.61059
 C760 C 0.84294 0.41271 0.58639
 H761 H 0.77455 0.37575 0.64959
 H762 H 0.88247 0.34629 0.61032
 H763 H 0.83687 0.27424 0.64758
 H764 H 0.80667 0.43273 0.58519
 C765 C 1.21316 1.18304 0.66090
 C766 C 1.18497 1.14329 0.67547
 C767 C 1.15766 1.11242 0.64024
 C768 C 1.12287 1.07718 0.65155
 H769 H 1.18070 1.13499 0.71250
 H770 H 1.16437 1.12132 0.60360
 H771 H 1.21609 1.19065 0.62362
 H772 H 1.11562 1.06816 0.68803
 C773 C 0.69281 0.69597 0.15963
 C774 C 0.67020 0.65091 0.17010
 C775 C 0.64308 0.62179 0.13352
 C776 C 0.61540 0.57983 0.14346
 H777 H 0.67264 0.63484 0.20514
 H778 H 0.64475 0.63595 0.09774
 H779 H 0.69037 0.71077 0.12418
 H780 H 0.61124 0.56722 0.17949
 C781 C 1.16702 0.81587 0.31567
 C782 C 1.11941 0.83076 0.30920
 C783 C 1.09102 0.84733 0.35055
 C784 C 1.05637 0.88535 0.34894
 H785 H 1.10249 0.83191 0.27457
 H786 H 1.10359 0.83234 0.38417
 H787 H 1.18292 0.81730 0.35074
 H788 H 1.04489 0.90176 0.31557
 C789 C 0.67013 0.34227 -0.20382
 C790 C 0.62173 0.33207 -0.19455
 C791 C 0.59214 0.36644 -0.16308
 C792 C 0.55850 0.34605 -0.13362
 H793 H 0.60500 0.29551 -0.20634
 H794 H 0.60168 0.40779 -0.16031
 H795 H 0.68679 0.37827 -0.19058
 H796 H 0.55298 0.30387 -0.13261
 C797 C 0.82757 1.19531 0.32747
 C798 C 0.82146 1.19361 0.37400
 C799 C 0.85319 1.16205 0.40514
 C800 C 0.87995 1.11993 0.39079
 H801 H 0.79200 1.21638 0.39107
 H802 H 0.85140 1.17240 0.44212
 H803 H 0.85871 1.17480 0.31064
 H804 H 0.88064 1.10768 0.35429
 C805 C 0.34030 0.67189 -0.19889
 C806 C 0.38522 0.68883 -0.18379
 C807 C 0.41431 0.65964 -0.14881
 C808 C 0.41758 0.60726 -0.14902
 H809 H 0.39695 0.72871 -0.19062
 H810 H 0.43152 0.68228 -0.12070
 H811 H 0.32726 0.63315 -0.18954
 H812 H 0.40421 0.58451 -0.17885
 C813 C 0.78597 0.81249 0.68724
 C814 C 0.82915 0.83654 0.69717
 C815 C 0.85275 0.86811 0.66122
 C816 C 0.89887 0.88770 0.66643
 H817 H 0.84820 0.83074 0.73044
 H818 H 0.83256 0.87307 0.62839
 H819 H 0.76804 0.81831 0.65350
 H820 H 0.91895 0.88428 0.69942
 C821 C 0.32420 0.30045 0.19842
 C822 C 0.33187 0.35224 0.19921
 C823 C 0.35839 0.37627 0.16020
 C824 C 0.37092 0.42685 0.16056
 H825 H 0.31577 0.37723 0.22656
 H826 H 0.36747 0.35185 0.12973
 H827 H 0.34148 0.27630 0.17113
 H828 H 0.36564 0.45135 0.19160
   
