data_POSCAR
  _audit_creation_date              2014-09-24
  _audit_creation_method            'ToBaCCo'
  _symmetry_space_group_name_H-M    'P1'
  _symmetry_Int_Tables_number       1
  _symmetry_cell_setting            triclinic
  loop_
  _symmetry_equiv_pos_as_xyz
 x,y,z
_cell_length_a 40.6303
_cell_length_b 40.6027
_cell_length_c 12.6965
_cell_angle_alpha 90.014300
_cell_angle_beta 89.918400
_cell_angle_gamma 119.773300
loop_
  _atom_site_label
  _atom_site_type_symbol
  _atom_site_fract_x
  _atom_site_fract_y
  _atom_site_fract_z
C1 C 0.20766 0.48460 0.44419
 C2 C 0.20599 0.47920 0.55597
 C3 C 0.23433 0.47427 0.60516
 C4 C 0.26512 0.47608 0.54869
 C5 C 0.26619 0.48118 0.43735
 C6 C 0.23856 0.48692 0.38843
 H7 H 0.23898 0.48907 0.30324
 H8 H 0.23413 0.47235 0.69028
 C9 C 0.52700 -0.27004 0.44268
 C10 C 0.52304 -0.27159 0.55412
 C11 C 0.52391 -0.24114 0.60853
 C12 C 0.52886 -0.20831 0.55594
 C13 C 0.52995 -0.20817 0.44353
 C14 C 0.53078 -0.23801 0.38981
 H15 H 0.53129 -0.23763 0.30440
 H16 H 0.52340 -0.24230 0.69380
 C17 C 1.27176 0.79535 0.44179
 C18 C 1.27442 0.79269 0.55284
 C19 C 1.24521 0.76266 0.60818
 C20 C 1.21284 0.73470 0.55680
 C21 C 1.20920 0.73744 0.44634
 C22 C 1.23860 0.76800 0.39105
 H23 H 1.23600 0.76971 0.30655
 H24 H 1.24761 0.76124 0.69292
 C25 C 0.78644 0.52133 0.44466
 C26 C 0.78934 0.52352 0.55661
 C27 C 0.75743 0.51841 0.61411
 C28 C 0.72355 0.51186 0.56575
 C29 C 0.72215 0.51253 0.45368
 C30 C 0.75348 0.51681 0.39560
 H31 H 0.75231 0.51668 0.31028
 H32 H 0.75881 0.51939 0.69925
 C33 C 0.47629 0.26616 0.44529
 C34 C 0.47324 0.26381 0.55732
 C35 C 0.47691 0.23499 0.60843
 C36 C 0.48148 0.20761 0.55242
 C37 C 0.48369 0.21004 0.44068
 C38 C 0.48172 0.23946 0.38928
 H39 H 0.48345 0.24099 0.30399
 H40 H 0.47521 0.23323 0.69362
 C41 C 0.73118 0.21558 0.44525
 C42 C 0.73450 0.21250 0.55562
 C43 C 0.76459 0.24275 0.60929
 C44 C 0.79170 0.27567 0.55669
 C45 C 0.78865 0.27772 0.44547
 C46 C 0.75825 0.24813 0.39211
 H47 H 0.75642 0.24986 0.30724
 H48 H 0.76653 0.24066 0.69388
 N49 N 0.96037 0.54562 0.11260
 N50 N 0.93093 0.55079 0.12546
 N51 N 1.03978 0.56206 0.18641
 N52 N 1.06588 0.58134 0.25821
 N53 N 1.04037 0.58482 0.11195
 N54 N 1.06719 0.62007 0.13016
 N55 N 0.96026 0.52243 0.18481
 N56 N 0.93085 0.51098 0.24797
 C57 C 0.91283 0.52890 0.21041
 C58 C 1.08290 0.61735 0.22122
 N59 N 1.03917 0.46744 0.11353
 N60 N 1.06728 0.46046 0.12873
 N61 N 0.95940 0.45154 0.18538
 N62 N 0.93057 0.43353 0.25063
 N63 N 0.95938 0.42823 0.11370
 N64 N 0.93079 0.39353 0.12898
 N65 N 1.03931 0.49061 0.18597
 N66 N 1.06740 0.49994 0.25276
 Mn67 Mn 0.99975 0.50666 0.18679
 C68 C 1.08465 0.48115 0.21543
 C69 C 0.91297 0.39751 0.21406
 N70 N 1.04073 0.58452 -0.11580
 N71 N 1.07029 0.61874 -0.13063
 N72 N 0.96077 0.52285 -0.18862
 N73 N 0.93457 0.51608 -0.26011
 N74 N 0.96067 0.54552 -0.11497
 N75 N 0.93399 0.55431 -0.13331
 N76 N 1.04003 0.56097 -0.18777
 N77 N 1.06880 0.57827 -0.25323
 Mn78 Mn 1.00055 0.56558 -0.00153
 C79 C 1.08743 0.61429 -0.21708
 C80 C 0.91802 0.53570 -0.22388
 N81 N 0.95945 0.42812 -0.11317
 N82 N 0.93129 0.39329 -0.12945
 N83 N 1.03947 0.49017 -0.18542
 N84 N 1.06832 0.50029 -0.25014
 N85 N 1.03925 0.46714 -0.11259
 N86 N 1.06788 0.46079 -0.12608
 N87 N 0.95963 0.45132 -0.18546
 N88 N 0.93160 0.43307 -0.25252
 Mn89 Mn 0.99930 0.44729 0.00036
 Mn90 Mn 0.99992 0.50624 -0.18787
 Cl91 Cl 0.99989 0.50653 -0.00052
 C92 C 0.91406 0.39696 -0.21639
 C93 C 1.08586 0.48185 -0.21203
 N94 N 0.45413 0.41662 0.11422
 N95 N 0.44853 0.38208 0.13087
 N96 N 0.43761 0.48108 0.17836
 N97 N 0.41842 0.49079 0.24325
 N98 N 0.41507 0.45755 0.10625
 N99 N 0.38003 0.45067 0.11949
 N100 N 0.47671 0.44012 0.18629
 N101 N 0.48733 0.42246 0.25334
 C102 C 0.46959 0.38632 0.21791
 C103 C 0.38270 0.47184 0.20441
 N104 N 0.53367 0.57299 0.10528
 N105 N 0.54281 0.60870 0.12222
 N106 N 0.54775 0.50943 0.18575
 N107 N 0.56542 0.50040 0.25734
 N108 N 0.57134 0.53035 0.11124
 N109 N 0.60575 0.53587 0.12970
 N110 N 0.50935 0.55072 0.17658
 N111 N 0.50127 0.57042 0.24358
 Mn112 Mn 0.49277 0.49539 0.18282
 C113 C 0.52203 0.60648 0.20847
 C114 C 0.60140 0.51682 0.22093
 N115 N 0.41558 0.45593 -0.11918
 N116 N 0.38086 0.44959 -0.13683
 N117 N 0.47679 0.43642 -0.18815
 N118 N 0.48361 0.41611 -0.25693
 N119 N 0.45447 0.41466 -0.11266
 N120 N 0.44577 0.37907 -0.12718
 N121 N 0.43901 0.47850 -0.19156
 N122 N 0.42100 0.48804 -0.26048
 Mn123 Mn 0.43446 0.43575 -0.00275
 C124 C 0.38480 0.47002 -0.22510
 C125 C 0.46435 0.38053 -0.21697
 N126 N 0.57170 0.52847 -0.11640
 N127 N 0.60543 0.53149 -0.12682
 N128 N 0.51059 0.54817 -0.19270
 N129 N 0.50104 0.56705 -0.25894
 N130 N 0.53440 0.57116 -0.12167
 N131 N 0.54204 0.60637 -0.13822
 N132 N 0.54841 0.50586 -0.18891
 N133 N 0.56555 0.49281 -0.25031
 Mn134 Mn 0.55330 0.55116 -0.00553
 Mn135 Mn 0.49373 0.49234 -0.19159
 Cl136 Cl 0.49359 0.49368 -0.00430
 C137 C 0.60111 0.50913 -0.21096
 C138 C 0.52079 0.60320 -0.22357
 N139 N 0.42658 -0.03924 0.10706
 N140 N 0.39131 -0.06657 0.12359
 N141 N 0.48903 0.04069 0.18001
 N142 N 0.49877 0.06939 0.24501
 N143 N 0.46645 0.04060 0.10604
 N144 N 0.45978 0.06905 0.11942
 N145 N 0.44910 -0.03924 0.18105
 N146 N 0.42995 -0.06662 0.24945
 C147 C 0.39400 -0.08358 0.21245
 C148 C 0.48049 0.08685 0.20588
 N149 N 0.58305 0.04070 0.11679
 N150 N 0.61736 0.06989 0.13222
 N151 N 0.51980 -0.03925 0.18817
 N152 N 0.50868 -0.06815 0.25344
 N153 N 0.54362 -0.03918 0.11813
 N154 N 0.54940 -0.06805 0.13385
 N155 N 0.55923 0.04051 0.18701
 N156 N 0.57647 0.06957 0.25159
 Mn157 Mn 0.50425 0.00062 0.18516
 C158 C 0.61269 0.08763 0.21665
 C159 C 0.52745 -0.08581 0.21873
 N160 N 0.46859 0.04002 -0.12058
 N161 N 0.46149 0.06788 -0.13873
 N162 N 0.45243 -0.04031 -0.18902
 N163 N 0.43423 -0.06862 -0.25563
 N164 N 0.42878 -0.03940 -0.11991
 N165 N 0.39376 -0.06658 -0.13881
 N166 N 0.49203 0.03978 -0.19151
 N167 N 0.50166 0.06763 -0.25965
 Mn168 Mn 0.44721 0.00051 -0.00696
 C169 C 0.48251 0.08500 -0.22535
 C170 C 0.39779 -0.08475 -0.22280
 N171 N 0.54553 -0.03990 -0.10848
 N172 N 0.55400 -0.06703 -0.12342
 N173 N 0.56297 0.03960 -0.18670
 N174 N 0.58259 0.06615 -0.25723
 N175 N 0.58513 0.04025 -0.11048
 N176 N 0.62034 0.06765 -0.12624
 N177 N 0.52369 -0.03987 -0.18459
 N178 N 0.51724 -0.06651 -0.25441
 Mn179 Mn 0.56477 0.00050 0.00406
 Mn180 Mn 0.50770 -0.00023 -0.18921
 Cl181 Cl 0.50602 0.00032 -0.00186
 C182 C 0.53595 -0.08345 -0.21433
 C183 C 0.61819 0.08353 -0.21780
 C184 C 1.13958 0.45910 0.41160
 C185 C 1.17766 0.48384 0.38523
 C186 C 1.18453 0.50867 0.29912
 C187 C 1.15420 0.50759 0.24223
 C188 C 1.11649 0.48112 0.26845
 C189 C 1.10985 0.45836 0.35674
 C190 C 1.08613 0.41629 0.36785
 C191 C 1.11886 0.41726 0.42847
 H192 H 1.21322 0.52949 0.27709
 H193 H 1.16019 0.52717 0.17757
 H194 H 1.08050 0.40126 0.29107
 H195 H 1.06062 0.40800 0.41746
 H196 H 1.13234 0.40288 0.38691
 H197 H 1.11219 0.40967 0.51295
 C198 C 0.50171 0.66194 0.41020
 C199 C 0.52626 0.70002 0.38337
 C200 C 0.55083 0.70707 0.29641
 C201 C 0.55000 0.67692 0.23889
 C202 C 0.52397 0.63903 0.26524
 C203 C 0.50074 0.63237 0.35295
 C204 C 0.45856 0.60944 0.35814
 C205 C 0.45944 0.64165 0.42043
 H206 H 0.57128 0.73586 0.27397
 H207 H 0.56931 0.68327 0.17332
 H208 H 0.44868 0.58303 0.40489
 H209 H 0.44525 0.60557 0.27938
 H210 H 0.44950 0.63333 0.50266
 H211 H 0.44638 0.65629 0.37816
 C212 C 0.33946 -0.16244 0.40629
 C213 C 0.30129 -0.17532 0.38206
 C214 C 0.29387 -0.15671 0.29875
 C215 C 0.32379 -0.12664 0.24302
 C216 C 0.36181 -0.11490 0.26793
 C217 C 0.36885 -0.13272 0.35175
 C218 C 0.39223 -0.15166 0.35016
 C219 C 0.35987 -0.18469 0.40660
 H220 H 0.26503 -0.16457 0.27824
 H221 H 0.31717 -0.11283 0.18029
 H222 H 0.41795 -0.13626 0.39980
 H223 H 0.39734 -0.15870 0.26928
 H224 H 0.36804 -0.18922 0.48625
 H225 H 0.34541 -0.21076 0.35753
 C226 C 0.82803 0.49483 0.38787
 C227 C 0.81569 0.52106 0.37556
 C228 C 0.83374 0.54851 0.29500
 C229 C 0.86469 0.55053 0.23714
 C230 C 0.87813 0.52505 0.25850
 C231 C 0.85774 0.49696 0.33290
 C232 C 0.85826 0.46594 0.39413
 C233 C 0.82445 0.46329 0.45616
 H234 H 0.82512 0.56940 0.28020
 H235 H 0.87891 0.57284 0.17937
 H236 H 0.88438 0.47636 0.44237
 H237 H 0.85089 0.44055 0.34502
 H238 H 0.83138 0.47152 0.54001
 H239 H 0.79747 0.43641 0.44252
 C240 C 0.49754 0.33474 0.41259
 C241 C 0.47517 0.29664 0.38410
 C242 C 0.44866 0.28790 0.30219
 C243 C 0.44676 0.31699 0.24690
 C244 C 0.47130 0.35535 0.27278
 C245 C 0.49540 0.36329 0.35921
 C246 C 0.53714 0.38966 0.36889
 C247 C 0.53929 0.35816 0.42789
 H248 H 0.42956 0.25862 0.28086
 H249 H 0.42644 0.30949 0.18362
 H250 H 0.54378 0.41459 0.41932
 H251 H 0.55194 0.39659 0.29147
 H252 H 0.54691 0.36490 0.51230
 H253 H 0.55528 0.34670 0.38481
 C254 C 0.66275 0.17065 0.39996
 C255 C 0.70126 0.18492 0.38134
 C256 C 0.71058 0.16775 0.29790
 C257 C 0.68185 0.13650 0.24137
 C258 C 0.64314 0.12185 0.26672
 C259 C 0.63537 0.14084 0.34549
 C260 C 0.60389 0.13951 0.40858
 C261 C 0.63478 0.17341 0.47032
 H262 H 0.74001 0.17765 0.27871
 H263 H 0.69003 0.12334 0.18032
 H264 H 0.58900 0.11305 0.45596
 H265 H 0.58532 0.14662 0.36102
 H266 H 0.63673 0.16622 0.55351
 H267 H 0.63414 0.20020 0.45837
 C268 C 0.50532 0.16295 -0.42232
 C269 C 0.48191 0.17764 -0.39162
 C270 C 0.45704 0.15970 -0.30576
 C271 C 0.45688 0.12935 -0.25191
 C272 C 0.48202 0.11652 -0.28096
 C273 C 0.50531 0.13318 -0.36829
 C274 C 0.54731 0.15077 -0.37486
 C275 C 0.54755 0.18334 -0.43385
 H276 H 0.43696 0.16841 -0.28136
 H277 H 0.43740 0.11631 -0.18678
 H278 H 0.55575 0.13360 -0.42393
 H279 H 0.56127 0.15907 -0.29651
 H280 H 0.55689 0.18519 -0.51690
 H281 H 0.56169 0.21061 -0.38988
 C282 C 0.69817 0.52375 -0.27169
 C283 C 0.69249 0.50479 -0.36842
 C284 C 0.65445 0.47851 -0.39508
 C285 C 0.62416 0.47809 -0.33971
 C286 C 0.63130 0.50321 -0.25501
 C287 C 0.66840 0.52331 -0.21723
 C288 C 0.69176 0.56378 -0.18451
 C289 C 0.72459 0.56429 -0.24346
 H290 H 0.64801 0.45988 -0.46226
 H291 H 0.59551 0.45995 -0.36766
 H292 H 0.69612 0.56677 -0.09786
 H293 H 0.68198 0.58237 -0.22064
 H294 H 0.74773 0.56740 -0.19050
 H295 H 0.73415 0.58341 -0.31312
 C296 C 0.83599 0.34352 -0.41255
 C297 C 0.82146 0.30525 -0.38504
 C298 C 0.83930 0.29757 -0.30019
 C299 C 0.86948 0.32723 -0.24476
 C300 C 0.88227 0.36533 -0.27149
 C301 C 0.86571 0.37267 -0.35786
 C302 C 0.84829 0.39746 -0.36305
 C303 C 0.81560 0.36558 -0.42215
 H304 H 0.83073 0.26867 -0.27796
 H305 H 0.88256 0.32031 -0.18070
 H306 H 0.86529 0.42310 -0.41220
 H307 H 0.84013 0.40307 -0.28425
 H308 H 0.81360 0.37342 -0.50464
 H309 H 0.78845 0.35250 -0.37753
 C310 C 0.52022 -0.18065 -0.27982
 C311 C 0.53456 -0.17637 -0.38308
 C312 C 0.55674 -0.13844 -0.41939
 C313 C 0.55792 -0.10789 -0.36343
 C314 C 0.53871 -0.11412 -0.26708
 C315 C 0.52245 -0.15031 -0.22315
 C316 C 0.48408 -0.17389 -0.17592
 C317 C 0.48142 -0.20713 -0.23802
 H318 H 0.57266 -0.13206 -0.49196
 H319 H 0.57299 -0.07963 -0.39681
 H320 H 0.46355 -0.16502 -0.20215
 H321 H 0.48543 -0.17711 -0.08935
 H322 H 0.45935 -0.21756 -0.30048
 H323 H 0.48095 -0.22957 -0.18688
 C324 C 0.33212 0.49297 -0.42933
 C325 C 0.29413 0.47351 -0.39560
 C326 C 0.28616 0.45015 -0.30514
 C327 C 0.31535 0.44846 -0.24957
 C328 C 0.35340 0.47045 -0.28173
 C329 C 0.36069 0.49137 -0.37438
 C330 C 0.38857 0.53207 -0.39485
 C331 C 0.35742 0.53391 -0.45587
 H332 H 0.25733 0.43261 -0.27768
 H333 H 0.30818 0.43051 -0.18055
 H334 H 0.41243 0.53554 -0.44543
 H335 H 0.39708 0.54955 -0.32194
 H336 H 0.36400 0.53839 -0.54115
 H337 H 0.34798 0.55273 -0.41938
 C338 C 1.17053 0.71041 -0.28472
 C339 C 1.18419 0.70312 -0.37814
 C340 C 1.17039 0.66489 -0.40575
 C341 C 1.13961 0.63577 -0.35066
 C342 C 1.12269 0.64419 -0.26536
 C343 C 1.14047 0.68167 -0.22963
 C344 C 1.12427 0.70657 -0.20320
 C345 C 1.15733 0.73811 -0.26326
 H346 H 1.18174 0.65772 -0.47368
 H347 H 1.12772 0.60699 -0.37875
 H348 H 1.12522 0.71213 -0.11722
 H349 H 1.09633 0.69707 -0.24121
 H350 H 1.17736 0.76173 -0.21177
 H351 H 1.14860 0.74701 -0.33594
 C352 C 0.81981 0.51704 -0.28297
 C353 C 0.82255 0.53090 -0.38629
 C354 C 0.85991 0.55337 -0.42630
 C355 C 0.89138 0.55549 -0.37312
 C356 C 0.88655 0.53687 -0.27626
 C357 C 0.85093 0.52022 -0.22924
 C358 C 0.82858 0.48194 -0.18038
 C359 C 0.79438 0.47825 -0.23917
 H360 H 0.86516 0.56898 -0.49904
 H361 H 0.91925 0.57092 -0.40870
 H362 H 0.82628 0.48360 -0.09351
 H363 H 0.83771 0.46171 -0.20790
 H364 H 0.77233 0.47754 -0.18579
 H365 H 0.78361 0.45585 -0.30083
 C366 C 0.48250 0.30050 -0.28030
 C367 C 0.46582 0.28843 -0.38015
 C368 C 0.44099 0.30162 -0.41262
 C369 C 0.43978 0.33126 -0.35825
 C370 C 0.46192 0.34703 -0.26766
 C371 C 0.48058 0.32909 -0.22546
 C372 C 0.52028 0.34577 -0.18641
 C373 C 0.52249 0.31449 -0.24629
 H374 H 0.42361 0.29024 -0.48217
 H375 H 0.42270 0.34272 -0.38909
 H376 H 0.52143 0.34316 -0.09952
 H377 H 0.53933 0.37461 -0.21865
 H378 H 0.52499 0.29394 -0.19378
 H379 H 0.54286 0.32516 -0.31322
 C380 C 0.69566 0.18233 -0.28193
 C381 C 0.70803 0.17833 -0.38186
 C382 C 0.69538 0.14089 -0.41717
 C383 C 0.66638 0.10958 -0.36275
 C384 C 0.65090 0.11508 -0.26960
 C385 C 0.66801 0.15148 -0.22680
 C386 C 0.65063 0.17378 -0.18547
 C387 C 0.68112 0.20769 -0.24553
 H388 H 0.70644 0.13581 -0.48911
 H389 H 0.65524 0.08135 -0.39515
 H390 H 0.65350 0.17731 -0.09856
 H391 H 0.62155 0.16355 -0.21640
 H392 H 0.70163 0.23063 -0.19309
 H393 H 0.66978 0.21734 -0.31093
 C394 C 1.16449 0.50562 -0.40537
 C395 C 1.17831 0.48112 -0.38011
 C396 C 1.16087 0.45635 -0.29361
 C397 C 1.13113 0.45679 -0.23691
 C398 C 1.11839 0.48226 -0.26440
 C399 C 1.13491 0.50550 -0.35176
 C400 C 1.15188 0.54741 -0.36380
 C401 C 1.18461 0.54744 -0.42216
 H402 H 1.16912 0.43568 -0.27191
 H403 H 1.11801 0.43709 -0.17231
 H404 H 1.16020 0.56276 -0.28731
 H405 H 1.13429 0.55450 -0.41564
 H406 H 1.21198 0.56232 -0.37897
 H407 H 1.18598 0.55508 -0.50673
 C408 C 0.55286 0.69020 -0.39073
 C409 C 0.52271 0.69749 -0.38322
 C410 C 0.49022 0.67154 -0.32655
 C411 C 0.48916 0.64020 -0.27532
 C412 C 0.52113 0.63534 -0.27661
 C413 C 0.55214 0.65992 -0.33832
 C414 C 0.59314 0.68249 -0.31043
 C415 C 0.59391 0.71569 -0.36812
 H416 H 0.46560 0.67521 -0.32341
 H417 H 0.46390 0.62046 -0.23249
 H418 H 0.61023 0.67159 -0.35007
 H419 H 0.59787 0.68718 -0.22416
 H420 H 0.61136 0.72383 -0.44108
 H421 H 0.59910 0.73969 -0.31547
 C422 C 0.33537 -0.17981 -0.34732
 C423 C 0.30492 -0.17647 -0.38537
 C424 C 0.30680 -0.14101 -0.37619
 C425 C 0.33692 -0.11106 -0.32161
 C426 C 0.36616 -0.11584 -0.27840
 C427 C 0.36585 -0.14986 -0.29726
 C428 C 0.36962 -0.17587 -0.22127
 C429 C 0.33612 -0.20863 -0.27628
 H430 H 0.28464 -0.13678 -0.40950
 H431 H 0.33737 -0.08431 -0.31298
 H432 H 0.36344 -0.17151 -0.13869
 H433 H 0.39661 -0.17615 -0.23242
 H434 H 0.31046 -0.22319 -0.22563
 H435 H 0.34387 -0.22771 -0.31903
 C436 C 0.54736 -0.16457 0.28746
 C437 C 0.52529 -0.18045 0.37786
 C438 C 0.49779 -0.16998 0.40179
 C439 C 0.49747 -0.13989 0.34745
 C440 C 0.52386 -0.12052 0.26632
 C441 C 0.54669 -0.13534 0.23307
 C442 C 0.58829 -0.11605 0.21134
 C443 C 0.58892 -0.14828 0.27067
 H444 H 0.47830 -0.18328 0.46677
 H445 H 0.47805 -0.13052 0.37277
 H446 H 0.60424 -0.08817 0.25176
 H447 H 0.59448 -0.11572 0.12592
 H448 H 0.60535 -0.13912 0.34526
 H449 H 0.59528 -0.16659 0.21927
 C450 C 0.30905 0.49790 0.27876
 C451 C 0.29174 0.47478 0.36669
 C452 C 0.29831 0.44402 0.38221
 C453 C 0.32772 0.44253 0.32741
 C454 C 0.34984 0.47094 0.25393
 C455 C 0.33756 0.49613 0.22415
 C456 C 0.35843 0.53777 0.20358
 C457 C 0.32647 0.53961 0.26157
 H458 H 0.28283 0.42291 0.44210
 H459 H 0.33440 0.42051 0.34637
 H460 H 0.35970 0.54444 0.11828
 H461 H 0.38593 0.55236 0.24577
 H462 H 0.30889 0.54645 0.20875
 H463 H 0.33548 0.55641 0.33543
 C464 C 1.18045 0.69667 0.28682
 C465 C 1.17561 0.70940 0.38515
 C466 C 1.13796 0.69543 0.42036
 C467 C 1.10735 0.66544 0.36659
 C468 C 1.11381 0.65002 0.27475
 C469 C 1.15029 0.66797 0.23237
 C470 C 1.17374 0.65137 0.19462
 C471 C 1.20683 0.68289 0.25434
 H472 H 1.13230 0.70631 0.49180
 H473 H 1.07894 0.65363 0.39828
 H474 H 1.17768 0.65375 0.10776
 H475 H 1.16420 0.62263 0.22752
 H476 H 1.22979 0.70342 0.20185
 H477 H 1.21648 0.67248 0.32203
 C478 C 0.45182 0.14271 0.38089
 C479 C 0.48284 0.17951 0.37517
 C480 C 0.51445 0.18539 0.31498
 C481 C 0.51373 0.15516 0.25832
 C482 C 0.48083 0.11916 0.25773
 C483 C 0.45085 0.11318 0.32358
 C484 C 0.40976 0.09681 0.29883
 C485 C 0.41086 0.12915 0.36208
 H486 H 0.53971 0.21309 0.31302
 H487 H 0.53848 0.16002 0.21366
 H488 H 0.39211 0.06858 0.33616
 H489 H 0.40447 0.09812 0.21341
 H490 H 0.39401 0.11957 0.43604
 H491 H 0.40619 0.14926 0.31356
 C492 C 0.67349 0.53325 0.42907
 C493 C 0.69010 0.51203 0.39481
 C494 C 0.67464 0.48965 0.30345
 C495 C 0.64596 0.49145 0.24521
 C496 C 0.63204 0.51541 0.27775
 C497 C 0.64463 0.53418 0.37376
 C498 C 0.65930 0.57495 0.40058
 C499 C 0.69083 0.57368 0.46185
 H500 H 0.68521 0.47139 0.27591
 H501 H 0.63505 0.47459 0.17441
 H502 H 0.63931 0.57888 0.45185
 H503 H 0.66962 0.59376 0.33030
 H504 H 0.68864 0.57662 0.54819
 H505 H 0.71949 0.59176 0.42740
 C506 C 0.85626 0.31302 0.38756
 C507 C 0.81953 0.30765 0.38152
 C508 C 0.81406 0.33387 0.32219
 C509 C 0.84459 0.36344 0.26698
 C510 C 0.88055 0.36621 0.26709
 C511 C 0.88607 0.34163 0.33178
 C512 C 0.90253 0.31689 0.30647
 C513 C 0.86985 0.28555 0.36806
 H514 H 0.78641 0.33170 0.31964
 H515 H 0.83995 0.38350 0.22236
 H516 H 0.93053 0.32703 0.34469
 H517 H 0.90168 0.31077 0.22082
 H518 H 0.87901 0.27778 0.44193
 H519 H 0.84999 0.26119 0.31832
   
