data_POSCAR
  _audit_creation_date              2014-09-24
  _audit_creation_method            'ToBaCCo'
  _symmetry_space_group_name_H-M    'P1'
  _symmetry_Int_Tables_number       1
  _symmetry_cell_setting            triclinic
  loop_
  _symmetry_equiv_pos_as_xyz
 x,y,z
_cell_length_a 22.2691
_cell_length_b 22.3104
_cell_length_c 31.1080
_cell_angle_alpha 90.412400
_cell_angle_beta 89.767400
_cell_angle_gamma 120.898100
loop_
  _atom_site_label
  _atom_site_type_symbol
  _atom_site_fract_x
  _atom_site_fract_y
  _atom_site_fract_z
C1 C 0.03172 0.48383 1.28697
 C2 C -0.04279 0.44424 1.28753
 C3 C -0.07946 0.42843 1.24845
 C4 C -0.04586 0.45339 1.20864
 C5 C 0.02845 0.49372 1.20829
 C6 C 0.06543 0.50825 1.24706
 H7 H 0.12192 0.54203 1.24613
 H8 H -0.13589 0.39399 1.24914
 C9 C 0.54635 0.50832 1.20917
 C10 C 0.50579 0.54035 1.21067
 C11 C 0.48281 0.55084 1.25017
 C12 C 0.49907 0.52991 1.28863
 C13 C 0.54227 0.50024 1.28723
 C14 C 0.56387 0.48829 1.24741
 H15 H 0.59601 0.46470 1.24615
 H16 H 0.45050 0.57430 1.25081
 C17 C 0.43528 0.96718 1.29063
 C18 C 0.48280 1.04083 1.29012
 C19 C 0.50157 1.07544 1.25053
 C20 C 0.47480 1.03879 1.21170
 C21 C 0.42588 0.96623 1.21365
 C22 C 0.39795 0.93567 1.25301
 H23 H 0.35668 0.88107 1.25340
 H24 H 0.53724 1.13158 1.24993
 C25 C 1.03920 0.49514 0.78723
 C26 C 0.96574 0.45149 0.78673
 C27 C 0.93162 0.42709 0.74718
 C28 C 0.96691 0.45221 0.70803
 C29 C 1.04017 0.50182 0.70831
 C30 C 1.07503 0.52050 0.74813
 H31 H 1.13108 0.55697 0.74901
 H32 H 0.87549 0.39090 0.74699
 C33 C 0.55201 0.52082 0.70904
 C34 C 0.50910 0.55046 0.70956
 C35 C 0.48490 0.56077 0.74903
 C36 C 0.50359 0.54361 0.78818
 C37 C 0.54896 0.51636 0.78761
 C38 C 0.57093 0.50394 0.74799
 H39 H 0.60348 0.48079 0.74743
 H40 H 0.45124 0.58265 0.74927
 C41 C 0.47644 0.03081 0.70675
 C42 C 0.45500 -0.04102 0.70621
 C43 C 0.44410 -0.07589 0.74568
 C44 C 0.45596 -0.04042 0.78508
 C45 C 0.47822 0.03121 0.78539
 C46 C 0.48870 0.06596 0.74628
 H47 H 0.50880 0.12174 0.74662
 H48 H 0.42676 -0.13107 0.74581
 O49 O 0.44600 0.68476 0.95453
 O50 O 0.44012 0.79836 0.96687
 C51 C 0.39567 0.80089 0.94295
 O52 O 0.33106 0.76731 0.95160
 O53 O 0.21807 0.64875 0.95921
 C54 C 0.21324 0.59618 0.93970
 O55 O 0.24185 0.56360 0.95323
 O56 O 0.36151 0.57404 0.96491
 C57 C 0.41548 0.62008 0.94509
 O58 O 0.44659 0.66865 1.03981
 O59 O 0.43282 0.77561 1.05257
 C60 C 0.39162 0.79649 1.06310
 O61 O 0.33996 0.78488 1.03942
 O62 O 0.22796 0.66340 1.04620
 C63 C 0.20258 0.60011 1.05648
 O64 O 0.22060 0.56039 1.03851
 O65 O 0.34273 0.57402 1.05056
 C66 C 0.40717 0.61208 1.05921
 Cr67 Cr 0.43729 0.72963 1.00332
 Cr68 Cr 0.28163 0.71467 0.99928
 Cr69 Cr 0.29337 0.57210 1.00188
 O70 O 0.33715 0.67186 1.00162
 O71 O 0.57239 0.34870 0.94794
 O72 O 0.54189 0.22061 0.96300
 C73 C 0.57785 0.20457 0.93911
 O74 O 0.64092 0.22439 0.94759
 O75 O 0.76919 0.32271 0.95813
 C76 C 0.78702 0.37811 0.93700
 O77 O 0.77156 0.42281 0.94880
 O78 O 0.67217 0.44904 0.96035
 C79 C 0.61548 0.41229 0.93949
 O80 O 0.57496 0.37455 1.03229
 O81 O 0.55321 0.24954 1.04766
 C82 C 0.57771 0.21148 1.05815
 O83 O 0.62226 0.20625 1.03489
 O84 O 0.74931 0.30855 1.04515
 C85 C 0.78715 0.37212 1.05571
 O86 O 0.78998 0.42200 1.03455
 O87 O 0.68777 0.44311 1.04619
 C88 C 0.62475 0.42394 1.05344
 Cr89 Cr 0.56437 0.29945 0.99772
 Cr90 Cr 0.69418 0.26772 0.99646
 Cr91 Cr 0.72806 0.43055 0.99741
 O92 O 0.66248 0.33272 0.99726
 O93 O 0.67929 0.45698 0.53281
 O94 O 0.77799 0.42850 0.54625
 C95 C 0.79793 0.38600 0.55482
 O96 O 0.77742 0.32960 0.53392
 O97 O 0.64926 0.23361 0.55066
 C98 C 0.58574 0.21275 0.55876
 O99 O 0.54939 0.22763 0.53467
 O100 O 0.58278 0.35687 0.54962
 C101 C 0.62666 0.42086 0.55705
 O102 O 0.69419 0.44446 0.44722
 O103 O 0.79598 0.42214 0.46097
 C104 C 0.79167 0.37092 0.43994
 O105 O 0.74919 0.30757 0.44920
 O106 O 0.62179 0.20594 0.46538
 C107 C 0.57671 0.20974 0.44224
 O108 O 0.55853 0.25411 0.44954
 O109 O 0.58155 0.37861 0.46455
 C110 C 0.63020 0.42240 0.44043
 Cr111 Cr 0.73464 0.43470 0.49693
 Cr112 Cr 0.69828 0.27141 0.49972
 Cr113 Cr 0.57140 0.30544 0.49964
 O114 O 0.66840 0.33737 0.49864
 O115 O 0.35736 0.56769 0.53628
 O116 O 0.23704 0.55855 0.54501
 C117 C 0.20366 0.58890 0.55362
 O118 O 0.21150 0.64072 0.53247
 O119 O 0.32623 0.75920 0.54377
 C120 C 0.39130 0.79395 0.55180
 O121 O 0.43596 0.79163 0.52735
 O122 O 0.44283 0.67957 0.54221
 C123 C 0.41259 0.61633 0.55407
 O124 O 0.34053 0.56079 0.45055
 O125 O 0.21990 0.55084 0.45801
 C126 C 0.20689 0.59135 0.43646
 O127 O 0.22978 0.65477 0.44646
 O128 O 0.34081 0.77794 0.45704
 C129 C 0.39056 0.78656 0.43267
 O130 O 0.42915 0.76191 0.44130
 O131 O 0.44467 0.65738 0.45804
 C132 C 0.40403 0.59916 0.44032
 Cr133 Cr 0.29021 0.56339 0.49740
 Cr134 Cr 0.27928 0.70654 0.49489
 Cr135 Cr 0.43421 0.72058 0.49240
 O136 O 0.33445 0.66302 0.49486
 C137 C 0.43424 0.48972 0.35784
 C138 C 0.47453 0.54269 0.32731
 C139 C 0.49042 0.61128 0.33537
 C140 C 0.46959 0.62849 0.37308
 C141 C 0.43139 0.57778 0.40404
 C142 C 0.41498 0.50805 0.39731
 C143 C 0.40862 0.41841 0.34898
 C144 C 0.37213 0.36766 0.38008
 C145 C 0.35890 0.38661 0.42012
 C146 C 0.37956 0.45601 0.42872
 H147 H 0.41620 0.40128 0.31790
 H148 H 0.35423 0.31342 0.37310
 H149 H 0.33147 0.34718 0.44441
 H150 H 0.36803 0.46837 0.46021
 H151 H 0.52061 0.65256 0.31250
 H152 H 0.48202 0.68188 0.37759
 C153 C 0.42683 0.85650 0.31585
 C154 C 0.43138 0.92266 0.32428
 C155 C 0.42398 0.93981 0.36681
 C156 C 0.41411 0.89636 0.40084
 C157 C 0.40606 0.83107 0.39411
 C158 C 0.40846 0.80897 0.35136
 C159 C 0.43989 0.83686 0.27341
 C160 C 0.41271 0.76225 0.26791
 C161 C 0.38822 0.71599 0.30204
 C162 C 0.38931 0.73944 0.34341
 H163 H 0.48395 0.89958 0.25128
 H164 H 0.41375 0.74016 0.23701
 H165 H 0.37076 0.66144 0.29650
 H166 H 0.37197 0.70155 0.36903
 H167 H 0.42039 0.98484 0.37452
 H168 H 0.40945 0.91285 0.43294
 C169 C 0.13542 0.50090 0.32790
 C170 C 0.07375 0.50511 0.32473
 C171 C 0.05817 0.53726 0.35860
 C172 C 0.10158 0.56464 0.39446
 C173 C 0.16334 0.56302 0.39731
 C174 C 0.18212 0.53364 0.36303
 C175 C 0.15095 0.46302 0.29761
 C176 C 0.21443 0.46484 0.29895
 C177 C 0.26333 0.50363 0.33056
 C178 C 0.24736 0.53754 0.36235
 H179 H 0.11422 0.43149 0.27273
 H180 H 0.22610 0.43684 0.27499
 H181 H 0.31353 0.50693 0.33067
 H182 H 0.28703 0.56835 0.38568
 H183 H 0.01343 0.54394 0.35679
 H184 H 0.08720 0.58810 0.42005
 C185 C 0.61473 0.53734 0.35595
 C186 C 0.56904 0.48463 0.32661
 C187 C 0.54761 0.41478 0.33463
 C188 C 0.56718 0.39602 0.37215
 C189 C 0.61045 0.44671 0.40224
 C190 C 0.63471 0.51805 0.39450
 C191 C 0.64182 0.60882 0.34757
 C192 C 0.68462 0.65976 0.37745
 C193 C 0.70186 0.64066 0.41590
 C194 C 0.67745 0.57055 0.42445
 H195 H 0.63046 0.62596 0.31787
 H196 H 0.70446 0.71434 0.37077
 H197 H 0.73468 0.68043 0.43911
 H198 H 0.69201 0.55796 0.45471
 H199 H 0.51384 0.37416 0.31207
 H200 H 0.54886 0.34132 0.37758
 C201 C 0.46138 0.10672 0.34550
 C202 C 0.50370 0.08238 0.32732
 C203 C 0.56620 0.09829 0.34741
 C204 C 0.58748 0.13790 0.38507
 C205 C 0.54644 0.16189 0.40448
 C206 C 0.48099 0.14372 0.38542
 C207 C 0.39815 0.09207 0.32564
 C208 C 0.35424 0.11146 0.34512
 C209 C 0.37115 0.14381 0.38519
 C210 C 0.43309 0.15887 0.40549
 H211 H 0.38161 0.06471 0.29517
 H212 H 0.30596 0.09967 0.32956
 H213 H 0.33561 0.15652 0.40093
 H214 H 0.44089 0.17992 0.43759
 H215 H 0.59898 0.08021 0.33371
 H216 H 0.63744 0.15091 0.39874
 C217 C 0.92371 0.37917 0.35712
 C218 C 0.91693 0.42125 0.32557
 C219 C 0.86812 0.44248 0.33225
 C220 C 0.82948 0.42641 0.36983
 C221 C 0.83643 0.38677 0.40176
 C222 C 0.88346 0.36237 0.39573
 C223 C 0.96674 0.35055 0.35039
 C224 C 0.97381 0.31068 0.38205
 C225 C 0.93694 0.29701 0.42048
 C226 C 0.89166 0.32195 0.42723
 H227 H 0.99473 0.35814 0.32053
 H228 H 1.00777 0.28994 0.37662
 H229 H 0.94268 0.26606 0.44496
 H230 H 0.86310 0.30904 0.45718
 H231 H 0.86167 0.47436 0.30872
 H232 H 0.79316 0.44474 0.37389
 C233 C 0.64071 0.53000 1.15497
 C234 C 0.56966 0.49379 1.16788
 C235 C 0.51873 0.44356 1.14070
 C236 C 0.53741 0.42460 1.10264
 C237 C 0.60765 0.45730 1.08943
 C238 C 0.65930 0.51523 1.11402
 C239 C 0.69353 0.58166 1.18156
 C240 C 0.76235 0.62092 1.16721
 C241 C 0.77956 0.61079 1.12593
 C242 C 0.72869 0.55935 1.09935
 H243 H 0.68206 0.59329 1.21328
 H244 H 0.80210 0.66078 1.18778
 H245 H 0.83254 0.64339 1.11426
 H246 H 0.74441 0.55729 1.06690
 H247 H 0.46411 0.41633 1.15009
 H248 H 0.49634 0.38180 1.08432
 C249 C 0.84947 0.43818 1.16919
 C250 C 0.91254 0.43598 1.17074
 C251 C 0.93071 0.41063 1.13428
 C252 C 0.88974 0.38981 1.09721
 C253 C 0.82700 0.38953 1.09609
 C254 C 0.80440 0.40979 1.13300
 C255 C 0.83099 0.47037 1.20187
 C256 C 0.76514 0.46353 1.20246
 C257 C 0.71741 0.42681 1.16987
 C258 C 0.73734 0.40194 1.13475
 H259 H 0.86696 0.50091 1.22729
 H260 H 0.75081 0.48613 1.22856
 H261 H 0.66531 0.41895 1.17131
 H262 H 0.69942 0.37517 1.10948
 H263 H 0.97596 0.40473 1.13460
 H264 H 0.90667 0.37289 1.06936
 C265 C 0.48614 0.13845 1.16689
 C266 C 0.49448 0.07976 1.17095
 C267 C 0.53004 0.06641 1.13857
 C268 C 0.55586 0.10907 1.10238
 C269 C 0.55128 0.16941 1.09848
 C270 C 0.51996 0.18679 1.13277
 C271 C 0.44601 0.15104 1.19697
 C272 C 0.44650 0.21361 1.19693
 C273 C 0.48689 0.26474 1.16711
 C274 C 0.52331 0.25190 1.13535
 H275 H 0.41446 0.11291 1.22104
 H276 H 0.41695 0.22321 1.22087
 H277 H 0.48981 0.31453 1.16861
 H278 H 0.55593 0.29482 1.11437
 H279 H 0.53849 0.02294 1.14140
 H280 H 0.58058 0.09508 1.07742
 C281 C 0.53317 0.61327 1.14333
 C282 C 0.48435 0.56126 1.17130
 C283 C 0.41321 0.52564 1.16110
 C284 C 0.38977 0.54147 1.12407
 C285 C 0.43698 0.59128 1.09483
 C286 C 0.51033 0.62403 1.10303
 C287 C 0.60431 0.65495 1.15470
 C288 C 0.65360 0.69970 1.12494
 C289 C 0.63274 0.70366 1.08353
 C290 C 0.56200 0.66629 1.07248
 H291 H 0.62221 0.65278 1.18658
 H292 H 0.70834 0.73006 1.13373
 H293 H 0.67150 0.73619 1.05988
 H294 H 0.54948 0.66927 1.03942
 H295 H 0.37531 0.48583 1.18240
 H296 H 0.33382 0.51493 1.11874
 C297 C 0.06413 0.57059 1.14135
 C298 C 0.07058 0.52342 1.16853
 C299 C 0.11761 0.50178 1.15761
 C300 C 0.15800 0.52580 1.12064
 C301 C 0.15232 0.57171 1.09276
 C302 C 0.10294 0.59247 1.10218
 C303 C 0.02005 0.59654 1.15226
 C304 C 0.00991 0.63844 1.12376
 C305 C 0.04377 0.65567 1.08417
 C306 C 0.08985 0.63310 1.07334
 H307 H -0.00715 0.58449 1.18273
 H308 H -0.02503 0.65695 1.13224
 H309 H 0.03448 0.68694 1.06175
 H310 H 0.11344 0.64648 1.04181
 H311 H 0.12318 0.46584 1.17810
 H312 H 0.19525 0.50928 1.11426
 C313 C 0.44329 0.87283 1.17995
 C314 C 0.41525 0.91777 1.17824
 C315 C 0.37986 0.91927 1.14188
 C316 C 0.37302 0.87913 1.10604
 C317 C 0.40351 0.83748 1.10413
 C318 C 0.44129 0.83582 1.14128
 C319 C 0.47828 0.86795 1.21799
 C320 C 0.52905 0.84839 1.21056
 C321 C 0.52601 0.81133 1.17384
 C322 C 0.47958 0.80117 1.14093
 H323 H 0.56549 0.85555 1.23583
 H324 H 0.55941 0.78939 1.17107
 H325 H 0.47830 0.76879 1.11488
 H326 H 0.35778 0.95269 1.14111
 H327 H 0.34481 0.88255 1.07878
 C328 C 0.64710 0.53115 0.65845
 C329 C 0.57536 0.50345 0.66835
 C330 C 0.52424 0.45372 0.64092
 C331 C 0.54266 0.42977 0.60478
 C332 C 0.61302 0.45431 0.59453
 C333 C 0.66640 0.50628 0.62151
 C334 C 0.70018 0.58302 0.68483
 C335 C 0.77046 0.60861 0.67599
 C336 C 0.78942 0.58328 0.64087
 C337 C 0.73840 0.53280 0.61393
 H338 H 0.68808 0.60461 0.71245
 H339 H 0.81044 0.64809 0.69664
 H340 H 0.84411 0.60293 0.63444
 H341 H 0.75705 0.51511 0.58779
 H342 H 0.46925 0.43156 0.64828
 H343 H 0.50098 0.39046 0.58488
 C344 C 0.46782 0.11480 0.65583
 C345 C 0.49691 0.07351 0.66698
 C346 C 0.55194 0.07816 0.64254
 C347 C 0.57845 0.12260 0.60756
 C348 C 0.55251 0.16591 0.59626
 C349 C 0.49719 0.16322 0.62120
 C350 C 0.41045 0.10937 0.67887
 C351 C 0.38506 0.15339 0.66991
 C352 C 0.41623 0.20356 0.63803
 C353 C 0.47165 0.20872 0.61398
 H354 H 0.38475 0.07112 0.70398
 H355 H 0.34155 0.14913 0.68815
 H356 H 0.39737 0.23878 0.63186
 H357 H 0.49441 0.24977 0.59064
 H358 H 0.57566 0.04795 0.65112
 H359 H 0.62054 0.12356 0.58938
 C360 C 0.93753 0.39820 0.63242
 C361 C 0.92345 0.42858 0.66834
 C362 C 0.86821 0.44146 0.66619
 C363 C 0.82921 0.42766 0.62903
 C364 C 0.84451 0.40162 0.59220
 C365 C 0.90020 0.38797 0.59330
 C366 C 0.98807 0.37816 0.63442
 C367 C 1.00609 0.35461 0.59774
 C368 C 0.97362 0.34991 0.55868
 C369 C 0.92107 0.36620 0.55636
 H370 H 1.01432 0.38107 0.66424
 H371 H 1.04600 0.34076 0.59952
 H372 H 0.98889 0.33310 0.53007
 H373 H 0.89824 0.36294 0.52530
 H374 H 0.85622 0.46426 0.69333
 H375 H 0.78620 0.43718 0.62921
 C376 C 0.53721 0.62169 0.64094
 C377 C 0.48800 0.57033 0.66930
 C378 C 0.41687 0.53468 0.65864
 C379 C 0.39394 0.54909 0.62069
 C380 C 0.44150 0.59867 0.59159
 C381 C 0.51437 0.63321 0.60076
 C382 C 0.60874 0.66220 0.65179
 C383 C 0.65770 0.70791 0.62218
 C384 C 0.63626 0.71458 0.58147
 C385 C 0.56541 0.67786 0.57073
 H386 H 0.62729 0.65884 0.68320
 H387 H 0.71258 0.73767 0.63070
 H388 H 0.67465 0.74889 0.55820
 H389 H 0.55166 0.68376 0.53845
 H390 H 0.37864 0.49535 0.68003
 H391 H 0.33820 0.52196 0.61440
 C392 C 0.48323 0.88781 0.65779
 C393 C 0.44553 0.92192 0.66726
 C394 C 0.39683 0.91806 0.63723
 C395 C 0.38145 0.87748 0.60006
 C396 C 0.41545 0.84063 0.59058
 C397 C 0.46814 0.84677 0.61946
 C398 C 0.53847 0.89679 0.68464
 C399 C 0.57467 0.86258 0.67598
 C400 C 0.55809 0.82025 0.63986
 C401 C 0.50617 0.81293 0.61175
 H402 H 0.55539 0.93157 0.71203
 H403 H 0.61628 0.86958 0.69715
 H404 H 0.58657 0.79395 0.63313
 H405 H 0.49779 0.78139 0.58396
 H406 H 0.36800 0.94427 0.64350
 H407 H 0.34175 0.87431 0.57855
 C408 C 0.06218 0.55926 0.63631
 C409 C 0.08051 0.52933 0.67033
 C410 C 0.13944 0.52252 0.66508
 C411 C 0.17666 0.54022 0.62677
 C412 C 0.15658 0.56503 0.59168
 C413 C 0.09707 0.57242 0.59582
 C414 C 0.01211 0.57941 0.64216
 C415 C -0.01020 0.60243 0.60759
 C416 C 0.01741 0.60660 0.56681
 C417 C 0.07076 0.59211 0.56083
 H418 H -0.01043 0.57695 0.67346
 H419 H -0.04968 0.61623 0.61231
 H420 H -0.00171 0.62237 0.53981
 H421 H 0.09001 0.59558 0.52848
 H422 H 0.15545 0.50041 0.69032
 H423 H 0.22219 0.53472 0.62474
 C424 C 0.44029 0.50720 0.86075
 C425 C 0.47760 0.55833 0.82889
 C426 C 0.49435 0.62714 0.83647
 C427 C 0.47570 0.64595 0.87467
 C428 C 0.44145 0.59746 0.90765
 C429 C 0.42668 0.52769 0.90152
 C430 C 0.41559 0.43594 0.85283
 C431 C 0.38584 0.38711 0.88568
 C432 C 0.37967 0.40827 0.92679
 C433 C 0.39972 0.47770 0.93480
 H434 H 0.41975 0.41762 0.82129
 H435 H 0.36870 0.33286 0.87940
 H436 H 0.35869 0.37058 0.95256
 H437 H 0.39558 0.49153 0.96753
 H438 H 0.52253 0.66704 0.81250
 H439 H 0.48722 0.69900 0.87799
 C440 C 0.13749 0.50302 0.83205
 C441 C 0.08131 0.51529 0.82738
 C442 C 0.07076 0.55425 0.85878
 C443 C 0.11384 0.57984 0.89482
 C444 C 0.17116 0.57049 0.89961
 C445 C 0.18564 0.53499 0.86657
 C446 C 0.14755 0.46049 0.80246
 C447 C 0.20717 0.45526 0.80425
 C448 C 0.25800 0.49250 0.83517
 C449 C 0.24782 0.53225 0.86587
 H450 H 0.10966 0.43113 0.77758
 H451 H 0.21469 0.42345 0.78093
 H452 H 0.30554 0.49054 0.83541
 H453 H 0.29045 0.56229 0.88780
 H454 H 0.02910 0.56541 0.85525
 H455 H 0.10238 0.60761 0.91910
 C456 C 0.49175 0.89880 0.83913
 C457 C 0.44560 0.92104 0.82579
 C458 C 0.38886 0.90769 0.85174
 C459 C 0.37577 0.87088 0.88986
 C460 C 0.41878 0.84565 0.90369
 C461 C 0.47835 0.86021 0.87807
 C462 C 0.55162 0.91504 0.81452
 C463 C 0.59615 0.89174 0.82667
 C464 C 0.58236 0.85233 0.86365
 C465 C 0.52453 0.83679 0.88912
 H466 H 0.56507 0.94670 0.78600
 H467 H 0.64158 0.90430 0.80729
 H468 H 0.61682 0.83374 0.87279
 H469 H 0.51751 0.80581 0.91694
 H470 H 0.35388 0.92547 0.84213
 H471 H 0.33062 0.86138 0.90860
 C472 C 0.60692 0.54150 0.86186
 C473 C 0.57076 0.49526 0.82721
 C474 C 0.55217 0.42520 0.83026
 C475 C 0.56681 0.40010 0.86694
 C476 C 0.59964 0.44362 0.90251
 C477 C 0.61826 0.51489 0.90067
 C478 C 0.63224 0.61365 0.85874
 C479 C 0.66188 0.65759 0.89422
 C480 C 0.66757 0.63070 0.93319
 C481 C 0.64626 0.56019 0.93654
 H482 H 0.62887 0.63649 0.82896
 H483 H 0.67972 0.71261 0.89161
 H484 H 0.68908 0.66476 0.96094
 H485 H 0.65069 0.54188 0.96772
 H486 H 0.52499 0.38908 0.80405
 H487 H 0.55271 0.34588 0.86726
 C488 C 0.86942 0.45452 0.82798
 C489 C 0.92129 0.43557 0.82574
 C490 C 0.92605 0.39605 0.85894
 C491 C 0.88132 0.37634 0.89444
 C492 C 0.82865 0.39308 0.89688
 C493 C 0.81983 0.42890 0.86201
 C494 C 0.86548 0.49826 0.79675
 C495 C 0.81004 0.51039 0.79658
 C496 C 0.75752 0.47931 0.82729
 C497 C 0.76195 0.43874 0.85957
 H498 H 0.90510 0.52356 0.77220
 H499 H 0.80719 0.54301 0.77204
 H500 H 0.71336 0.48700 0.82624
 H501 H 0.71862 0.41390 0.88172
 H502 H 0.96491 0.38066 0.85743
 H503 H 0.88840 0.34845 0.92039
 C504 C 0.46379 0.10950 0.83925
 C505 C 0.49676 0.07245 0.82603
 C506 C 0.55217 0.07819 0.85023
 C507 C 0.57514 0.11924 0.88706
 C508 C 0.54548 0.15860 0.90065
 C509 C 0.48940 0.15470 0.87602
 C510 C 0.40610 0.10288 0.81626
 C511 C 0.37649 0.14262 0.82744
 C512 C 0.40356 0.18951 0.86159
 C513 C 0.45920 0.19570 0.88563
 H514 H 0.38335 0.06700 0.78946
 H515 H 0.33278 0.13754 0.80921
 H516 H 0.38125 0.22134 0.86960
 H517 H 0.47809 0.23405 0.91090
 H518 H 0.57894 0.05145 0.84009
 H519 H 0.61788 0.12104 0.90472
   
