data_POSCAR
  _audit_creation_date              2014-09-24
  _audit_creation_method            'ToBaCCo'
  _symmetry_space_group_name_H-M    'P1'
  _symmetry_Int_Tables_number       1
  _symmetry_cell_setting            triclinic
  loop_
  _symmetry_equiv_pos_as_xyz
 x,y,z
_cell_length_a 12.3611
_cell_length_b 12.3611
_cell_length_c 31.5166
_cell_angle_alpha 89.840300
_cell_angle_beta 90.159700
_cell_angle_gamma 119.728900
loop_
  _atom_site_label
  _atom_site_type_symbol
  _atom_site_fract_x
  _atom_site_fract_y
  _atom_site_fract_z
C1 C 0.00124 -0.00080 0.49995
 C2 C 0.99920 0.00123 0.16672
 C3 C 0.00180 1.00180 0.83333
 O4 O 0.56708 -0.07210 0.04041
 O5 O 0.35470 -0.06956 -0.04175
 O6 O 0.53181 -0.13361 -0.04126
 O7 O 0.32914 -0.13074 0.03934
 O8 O 0.42957 0.07511 0.04010
 O9 O 0.64153 0.07201 -0.04167
 O10 O 0.46445 0.13606 -0.04173
 O11 O 0.66753 0.13375 0.03928
 Cu12 Cu 0.43745 -0.11830 -0.00091
 Cu13 Cu 0.55897 0.12103 -0.00113
 C14 C 0.65482 0.03315 0.05372
 C15 C 0.37411 0.03649 -0.05530
 C16 C 0.62213 -0.03415 -0.05492
 C17 C 0.34196 -0.03007 0.05355
 O18 O 0.07201 0.64153 0.70834
 O19 O 0.07511 0.42957 0.62657
 O20 O 0.13375 0.66753 0.62739
 O21 O 0.13606 0.46445 0.70840
 O22 O -0.06956 0.35470 0.70842
 O23 O -0.07210 0.56708 0.62625
 O24 O -0.13074 0.32914 0.62733
 O25 O -0.13361 0.53181 0.70792
 Cu26 Cu 0.12103 0.55897 0.66780
 Cu27 Cu -0.11830 0.43745 0.66757
 C28 C -0.03415 0.62213 0.72159
 C29 C -0.03007 0.34196 0.61312
 C30 C 0.03315 0.65482 0.61294
 C31 C 0.03649 0.37411 0.72197
 O32 O 0.64287 0.56917 0.37449
 O33 O 0.43080 0.35807 0.29213
 O34 O 0.66915 0.53622 0.29312
 O35 O 0.46471 0.33082 0.37347
 O36 O 0.35808 0.43080 0.37454
 O37 O 0.56917 0.64287 0.29218
 O38 O 0.33082 0.46471 0.29319
 O39 O 0.53622 0.66915 0.37355
 Cu40 Cu 0.56040 0.44005 0.33330
 Cu41 Cu 0.44005 0.56040 0.33337
 C42 C 0.62481 0.65694 0.38772
 C43 C 0.34287 0.37630 0.27895
 C44 C 0.65694 0.62481 0.27894
 C45 C 0.37630 0.34287 0.38771
 C46 C -0.12838 0.18346 0.54536
 C47 C -0.01811 0.21151 0.51565
 C48 C -0.02508 0.08720 0.52895
 C49 C -0.13663 0.05821 0.55822
 C50 C 0.06588 0.15540 0.56618
 C51 C 0.07394 0.27878 0.55248
 C52 C -0.03527 0.24958 0.58171
 C53 C -0.04497 0.12592 0.59531
 H54 H -0.20858 0.19639 0.53708
 H55 H -0.01201 0.25139 0.48369
 H56 H -0.22656 -0.03032 0.56013
 H57 H 0.14822 0.15099 0.57755
 H58 H 0.16124 0.36981 0.54994
 H59 H -0.05555 0.09068 0.62833
 C60 C 0.72019 0.79235 0.21852
 C61 C 0.84218 0.90750 0.23262
 C62 C 0.91238 0.88655 0.19563
 C63 C 0.78951 0.76935 0.18197
 C64 C 0.94237 0.80433 0.22506
 C65 C 0.87250 0.82638 0.26191
 C66 C 0.75018 0.71253 0.24790
 C67 C 0.81846 0.68741 0.21181
 H68 H 0.62848 0.78780 0.21563
 H69 H 0.84503 0.99341 0.24391
 H70 H 0.75078 0.73637 0.14988
 H71 H 1.03168 0.80382 0.22730
 H72 H 0.90649 0.85009 0.29508
 H73 H 0.80739 0.59523 0.20353
 C74 C 0.28814 0.15607 -0.10797
 C75 C 0.24846 0.08250 -0.15029
 C76 C 0.10943 0.02797 -0.13840
 C77 C 0.14912 0.10326 -0.09641
 C78 C 0.11135 -0.08252 -0.11543
 C79 C 0.24895 -0.02928 -0.12780
 C80 C 0.28605 0.04324 -0.08617
 C81 C 0.14974 -0.00787 -0.07391
 H82 H 0.36251 0.25470 -0.10453
 H83 H 0.29377 0.12608 -0.18082
 H84 H 0.11392 0.16167 -0.08218
 H85 H 0.04415 -0.18341 -0.11469
 H86 H 0.28984 -0.08443 -0.14079
 H87 H 0.10874 -0.04557 -0.04231
 C88 C 0.13125 0.81422 0.54519
 C89 C 0.02074 0.78666 0.51548
 C90 C 0.02788 0.91081 0.52886
 C91 C 0.13969 0.93934 0.55812
 C92 C -0.06274 0.84212 0.56608
 C93 C -0.07100 0.71891 0.55229
 C94 C 0.03845 0.74764 0.58151
 C95 C 0.04835 0.87114 0.59519
 H96 H 0.21135 0.80136 0.53688
 H97 H 0.01431 0.74722 0.48350
 H98 H 0.22964 1.02784 0.56006
 H99 H -0.14495 0.84638 0.57749
 H100 H -0.15835 0.62795 0.54971
 H101 H 0.05924 0.90596 0.62822
 C102 C 0.27889 0.20948 0.21846
 C103 C 0.15706 0.09417 0.23258
 C104 C 0.08641 0.11557 0.19564
 C105 C 0.20912 0.23292 0.18196
 C106 C 0.05681 0.19746 0.22513
 C107 C 0.12712 0.17496 0.26192
 C108 C 0.24927 0.28897 0.24790
 C109 C 0.18056 0.31452 0.21187
 H110 H 0.37055 0.21405 0.21552
 H111 H 0.15435 0.00814 0.24382
 H112 H 0.24743 0.26621 0.14987
 H113 H -0.03248 0.19794 0.22742
 H114 H 0.09354 0.15087 0.29510
 H115 H 0.19155 0.40680 0.20363
 C116 C 0.74630 0.02929 -0.12759
 C117 C 0.88411 0.08451 -0.11509
 C118 C 0.88744 -0.02630 -0.13705
 C119 C 0.74811 -0.08279 -0.14904
 C120 C 0.84868 -0.09951 -0.09458
 C121 C 0.84694 0.01198 -0.07309
 C122 C 0.71031 -0.04113 -0.08547
 C123 C 0.70941 -0.15432 -0.10626
 H124 H 0.70435 0.08291 -0.14128
 H125 H 0.94999 0.18573 -0.11495
 H126 H 0.70318 -0.12792 -0.17945
 H127 H 0.88495 -0.15647 -0.07971
 H128 H 0.88826 0.05165 -0.04170
 H129 H 0.63587 -0.25309 -0.10227
 C130 C 0.18346 -0.12838 0.12131
 C131 C 0.21151 -0.01812 0.15102
 C132 C 0.08720 -0.02508 0.13772
 C133 C 0.05821 -0.13663 0.10845
 C134 C 0.15540 0.06588 0.10048
 C135 C 0.27878 0.07394 0.11419
 C136 C 0.24958 -0.03527 0.08496
 C137 C 0.12592 -0.04497 0.07135
 H138 H 0.19639 -0.20858 0.12959
 H139 H 0.25139 -0.01201 0.18297
 H140 H -0.03032 -0.22656 0.10654
 H141 H 0.15099 0.14822 0.08912
 H142 H 0.36981 0.16124 0.11673
 H143 H 0.09069 -0.05555 0.03834
 C144 C 0.68741 0.81846 0.45485
 C145 C 0.76935 0.78951 0.48470
 C146 C 0.88655 0.91238 0.47103
 C147 C 0.80433 0.94237 0.44161
 C148 C 0.90750 0.84218 0.43404
 C149 C 0.79235 0.72018 0.44815
 C150 C 0.71253 0.75018 0.41877
 C151 C 0.82639 0.87250 0.40476
 H152 H 0.59523 0.80739 0.46314
 H153 H 0.73637 0.75078 0.51678
 H154 H 0.80382 1.03168 0.43937
 H155 H 0.99341 0.84503 0.42276
 H156 H 0.78780 0.62848 0.45104
 H157 H 0.85009 0.90649 0.37159
 C158 C -0.02927 0.24895 0.79447
 C159 C -0.08252 0.11135 0.78209
 C160 C 0.02797 0.10943 0.80507
 C161 C 0.08250 0.24846 0.81695
 C162 C 0.10326 0.14912 0.76308
 C163 C -0.00787 0.14974 0.74058
 C164 C 0.04324 0.28605 0.75284
 C165 C 0.15607 0.28814 0.77463
 H166 H -0.08443 0.28984 0.80746
 H167 H -0.18341 0.04414 0.78135
 H168 H 0.12608 0.29377 0.84748
 H169 H 0.16167 0.11392 0.74885
 H170 H -0.04557 0.10874 0.70898
 H171 H 0.25470 0.36251 0.77120
 C172 C 0.87114 0.04835 0.07148
 C173 C 0.93934 0.13969 0.10855
 C174 C 0.91081 0.02788 0.13781
 C175 C 0.84212 -0.06274 0.10059
 C176 C 0.78666 0.02074 0.15118
 C177 C 0.81422 0.13125 0.12148
 C178 C 0.74764 0.03845 0.08515
 C179 C 0.71891 -0.07100 0.11438
 H180 H 0.90596 0.05924 0.03845
 H181 H 1.02784 0.22964 0.10660
 H182 H 0.84638 -0.14495 0.08918
 H183 H 0.74722 0.01431 0.18317
 H184 H 0.80136 0.21134 0.12979
 H185 H 0.62795 -0.15835 0.11696
 C186 C 0.17496 0.12712 0.40474
 C187 C 0.19746 0.05681 0.44154
 C188 C 0.11557 0.08641 0.47102
 C189 C 0.09418 0.15706 0.43409
 C190 C 0.23292 0.20912 0.48470
 C191 C 0.31452 0.18056 0.45479
 C192 C 0.28897 0.24927 0.41877
 C193 C 0.20948 0.27889 0.44820
 H194 H 0.15087 0.09354 0.37156
 H195 H 0.19794 -0.03248 0.43924
 H196 H 0.00814 0.15435 0.42285
 H197 H 0.26621 0.24743 0.51680
 H198 H 0.40680 0.19155 0.46304
 H199 H 0.21405 0.37055 0.45114
 C200 C 0.01198 0.84694 0.73976
 C201 C -0.09951 0.84868 0.76124
 C202 C -0.02630 0.88744 0.80372
 C203 C 0.08451 0.88411 0.78176
 C204 C -0.08279 0.74811 0.81570
 C205 C -0.15432 0.70941 0.77292
 C206 C -0.04113 0.71031 0.75213
 C207 C 0.02929 0.74630 0.79426
 H208 H 0.05165 0.88826 0.70836
 H209 H -0.15647 0.88495 0.74638
 H210 H 0.18573 0.94999 0.78162
 H211 H -0.12792 0.70318 0.84611
 H212 H -0.25309 0.63587 0.76894
 H213 H 0.08291 0.70435 0.80795
   
