data_POSCAR
  _audit_creation_date              2014-09-24
  _audit_creation_method            'ToBaCCo'
  _symmetry_space_group_name_H-M    'P1'
  _symmetry_Int_Tables_number       1
  _symmetry_cell_setting            triclinic
  loop_
  _symmetry_equiv_pos_as_xyz
 x,y,z
_cell_length_a 20.3238
_cell_length_b 20.3238
_cell_length_c 52.6244
_cell_angle_alpha 89.837500
_cell_angle_beta 90.162500
_cell_angle_gamma 119.876800
loop_
  _atom_site_label
  _atom_site_type_symbol
  _atom_site_fract_x
  _atom_site_fract_y
  _atom_site_fract_z
C1 C 0.00169 0.00015 0.50010
 C2 C 1.00021 0.00163 0.16658
 C3 C -0.00107 0.99887 0.83334
 O4 O 0.40469 -0.05710 -0.02526
 O5 O 0.53509 -0.05667 0.02430
 O6 O 0.40192 -0.06675 0.02413
 O7 O 0.52781 -0.06727 -0.02507
 O8 O 0.59197 0.05783 -0.02540
 O9 O 0.46251 0.05836 0.02407
 O10 O 0.59568 0.06844 0.02396
 O11 O 0.46883 0.06801 -0.02534
 Cu12 Cu 0.46126 -0.07422 -0.00046
 Cu13 Cu 0.53586 0.07544 -0.00070
 C14 C 0.41486 0.00616 -0.03370
 C15 C 0.58802 0.00673 0.03254
 C16 C 0.40974 -0.00489 0.03250
 C17 C 0.58163 -0.00559 -0.03362
 O18 O -0.05704 0.40463 0.69195
 O19 O -0.05661 0.53503 0.64239
 O20 O -0.06669 0.40186 0.64256
 O21 O -0.06721 0.52775 0.69175
 O22 O 0.05790 0.59191 0.69209
 O23 O 0.05842 0.46245 0.64262
 O24 O 0.06850 0.59562 0.64273
 O25 O 0.06807 0.46877 0.69202
 Cu26 Cu -0.07416 0.46120 0.66715
 Cu27 Cu 0.07550 0.53580 0.66739
 C28 C 0.00622 0.41480 0.70039
 C29 C 0.00679 0.58796 0.63414
 C30 C -0.00483 0.40968 0.63419
 C31 C -0.00553 0.58157 0.70030
 O32 O 0.46481 0.40732 0.30860
 O33 O 0.59474 0.53683 0.35810
 O34 O 0.47183 0.40385 0.35798
 O35 O 0.59779 0.53023 0.30873
 O36 O 0.53689 0.59468 0.30858
 O37 O 0.40738 0.46475 0.35809
 O38 O 0.53029 0.59772 0.35796
 O39 O 0.40391 0.47177 0.30871
 Cu40 Cu 0.53844 0.46341 0.33335
 Cu41 Cu 0.46347 0.53838 0.33333
 C42 C 0.41179 0.41782 0.30025
 C43 C 0.58432 0.58979 0.36643
 C44 C 0.41788 0.41172 0.36643
 C45 C 0.58985 0.58426 0.30026
 C46 C 0.05562 0.30679 0.58790
 C47 C -0.01486 0.24967 0.57894
 C48 C -0.08150 0.24605 0.58762
 C49 C -0.07791 0.29873 0.60535
 C50 C -0.01398 0.04919 0.51634
 C51 C 0.05939 0.35971 0.60567
 C52 C -0.01891 0.19370 0.56134
 C53 C -0.02101 0.14684 0.54685
 C54 C -0.01994 0.09305 0.53022
 C55 C -0.00746 0.35593 0.61471
 H56 H 0.10761 0.31001 0.58132
 H57 H -0.13631 0.20208 0.58085
 H58 H -0.13051 0.29417 0.61187
 H59 H 0.11440 0.40296 0.61251
 C60 C 0.75404 0.67163 0.25391
 C61 C 0.75037 0.73471 0.24518
 C62 C 0.69299 0.74794 0.25401
 C63 C 0.63988 0.69861 0.27171
 C64 C 0.95128 0.93682 0.18282
 C65 C 0.70117 0.62235 0.27157
 C66 C 0.80655 0.78684 0.22766
 C67 C 0.85353 0.83178 0.21324
 C68 C 0.90741 0.88685 0.19667
 C69 C 0.64372 0.63548 0.28081
 H70 H 0.79820 0.66087 0.24724
 H71 H 0.68973 0.79676 0.24739
 H72 H 0.59646 0.71031 0.27846
 H73 H 0.70578 0.57427 0.27815
 C74 C 0.32669 0.08280 -0.08019
 C75 C 0.26370 0.01615 -0.08882
 C76 C 0.25081 -0.05431 -0.07987
 C77 C 0.30038 -0.05806 -0.06216
 C78 C 0.06037 0.01389 -0.15124
 C79 C 0.37620 0.07924 -0.06252
 C80 C 0.21132 0.02013 -0.10636
 C81 C 0.16612 0.02200 -0.12080
 C82 C 0.11070 0.02046 -0.13738
 C83 C 0.36340 0.00879 -0.05316
 H84 H 0.33719 0.13761 -0.08696
 H85 H 0.20207 -0.10631 -0.08642
 H86 H 0.28893 -0.11307 -0.05532
 H87 H 0.42420 0.13184 -0.05602
 C88 C 0.08428 0.75257 0.58777
 C89 C 0.01779 0.74911 0.57887
 C90 C -0.05284 0.69177 0.58761
 C91 C -0.05691 0.63848 0.60538
 C92 C 0.01744 0.95088 0.51633
 C93 C 0.08039 0.69951 0.60550
 C94 C 0.02212 0.80548 0.56128
 C95 C 0.02437 0.85265 0.54681
 C96 C 0.02340 0.90677 0.53019
 C97 C 0.00978 0.64209 0.61465
 H98 H 0.13921 0.79671 0.58117
 H99 H -0.10472 0.68868 0.58086
 H100 H -0.11205 0.59507 0.61205
 H101 H 0.13288 0.70396 0.61220
 C102 C 0.30830 0.25458 0.25400
 C103 C 0.25085 0.26789 0.24515
 C104 C 0.24724 0.33088 0.25386
 C105 C 0.30024 0.37999 0.27154
 C106 C 0.04936 0.06633 0.18280
 C107 C 0.36154 0.30374 0.27171
 C108 C 0.19454 0.21592 0.22762
 C109 C 0.14742 0.17111 0.21320
 C110 C 0.09338 0.11619 0.19663
 C111 C 0.35776 0.36677 0.28080
 H112 H 0.31152 0.20582 0.24739
 H113 H 0.20303 0.34170 0.24718
 H114 H 0.29567 0.42801 0.27810
 H115 H 0.40501 0.29198 0.27848
 C116 C 0.66885 -0.08324 -0.07974
 C117 C 0.73183 -0.01680 -0.08850
 C118 C 0.74500 0.05386 -0.07979
 C119 C 0.69573 0.05801 -0.06216
 C120 C 0.93402 -0.01679 -0.15049
 C121 C 0.61963 -0.07927 -0.06215
 C122 C 0.78394 -0.02123 -0.10593
 C123 C 0.82889 -0.02357 -0.12026
 C124 C 0.88399 -0.02269 -0.13673
 C125 C 0.63273 -0.00863 -0.05301
 H126 H 0.65814 -0.13818 -0.08632
 H127 H 0.79374 0.10569 -0.08644
 H128 H 0.70739 0.11316 -0.05549
 H129 H 0.57164 -0.13172 -0.05553
 C130 C 0.24611 -0.08156 0.07907
 C131 C 0.24973 -0.01492 0.08774
 C132 C 0.30685 0.05556 0.07878
 C133 C 0.35977 0.05933 0.06101
 C134 C 0.04925 -0.01404 0.15034
 C135 C 0.29879 -0.07797 0.06134
 C136 C 0.19376 -0.01897 0.10535
 C137 C 0.14690 -0.02107 0.11983
 C138 C 0.09311 -0.02001 0.13647
 C139 C 0.35600 -0.00752 0.05197
 H140 H 0.20214 -0.13637 0.08584
 H141 H 0.31007 0.10755 0.08537
 H142 H 0.40302 0.11434 0.05418
 H143 H 0.29423 -0.13057 0.05481
 C144 C 0.67169 0.75398 0.41278
 C145 C 0.73477 0.75031 0.42150
 C146 C 0.74800 0.69293 0.41267
 C147 C 0.69867 0.63982 0.39497
 C148 C 0.93688 0.95122 0.48386
 C149 C 0.62241 0.70111 0.39512
 C150 C 0.78690 0.80649 0.43903
 C151 C 0.83184 0.85347 0.45345
 C152 C 0.88691 0.90735 0.47002
 C153 C 0.63554 0.64366 0.38587
 H154 H 0.66093 0.79814 0.41945
 H155 H 0.79682 0.68967 0.41930
 H156 H 0.71037 0.59640 0.38823
 H157 H 0.57433 0.70572 0.38854
 C158 C 0.08286 0.32663 0.74688
 C159 C 0.01621 0.26364 0.75550
 C160 C -0.05425 0.25075 0.74656
 C161 C -0.05800 0.30031 0.72884
 C162 C 0.01395 0.06031 0.81793
 C163 C 0.07930 0.37614 0.72920
 C164 C 0.02019 0.21126 0.77305
 C165 C 0.02206 0.16606 0.78748
 C166 C 0.02052 0.11064 0.80407
 C167 C 0.00885 0.36334 0.71985
 H168 H 0.13767 0.33712 0.75364
 H169 H -0.10625 0.20201 0.75310
 H170 H -0.11301 0.28887 0.72201
 H171 H 0.13190 0.42414 0.72271
 C172 C 0.75263 0.08422 0.07892
 C173 C 0.74917 0.01773 0.08782
 C174 C 0.69183 -0.05290 0.07908
 C175 C 0.63854 -0.05697 0.06130
 C176 C 0.95094 0.01738 0.15035
 C177 C 0.69958 0.08033 0.06119
 C178 C 0.80555 0.02206 0.10541
 C179 C 0.85271 0.02431 0.11988
 C180 C 0.90683 0.02334 0.13649
 C181 C 0.64215 0.00972 0.05204
 H182 H 0.79677 0.13915 0.08552
 H183 H 0.68874 -0.10478 0.08583
 H184 H 0.59514 -0.11211 0.05463
 H185 H 0.70402 0.13282 0.05448
 C186 C 0.33095 0.24718 0.41282
 C187 C 0.26795 0.25079 0.42154
 C188 C 0.25464 0.30824 0.41268
 C189 C 0.30380 0.36148 0.39497
 C190 C 0.06639 0.04930 0.48389
 C191 C 0.38006 0.30018 0.39515
 C192 C 0.21598 0.19447 0.43907
 C193 C 0.17117 0.14736 0.45349
 C194 C 0.11625 0.09332 0.47005
 C195 C 0.36683 0.35770 0.38588
 H196 H 0.34176 0.20297 0.41951
 H197 H 0.20588 0.31145 0.41930
 H198 H 0.29204 0.40495 0.38821
 H199 H 0.42807 0.29561 0.38858
 C200 C -0.08317 0.66879 0.74642
 C201 C -0.01674 0.73177 0.75518
 C202 C 0.05392 0.74494 0.74647
 C203 C 0.05807 0.69566 0.72884
 C204 C -0.01673 0.93396 0.81718
 C205 C -0.07921 0.61957 0.72883
 C206 C -0.02117 0.78388 0.77261
 C207 C -0.02351 0.82883 0.78695
 C208 C -0.02263 0.88393 0.80342
 C209 C -0.00857 0.63266 0.71970
 H210 H -0.13812 0.65808 0.75300
 H211 H 0.10576 0.79368 0.75312
 H212 H 0.11322 0.70733 0.72218
 H213 H -0.13166 0.57158 0.72222
   
