data_POSCAR
  _audit_creation_date              2014-09-24
  _audit_creation_method            'ToBaCCo'
  _symmetry_space_group_name_H-M    'P1'
  _symmetry_Int_Tables_number       1
  _symmetry_cell_setting            triclinic
  loop_
  _symmetry_equiv_pos_as_xyz
 x,y,z
_cell_length_a 24.5373
_cell_length_b 23.0052
_cell_length_c 23.0411
_cell_angle_alpha 92.100100
_cell_angle_beta 90.374600
_cell_angle_gamma 90.097400
loop_
  _atom_site_label
  _atom_site_type_symbol
  _atom_site_fract_x
  _atom_site_fract_y
  _atom_site_fract_z
O1 O 0.55813 0.10494 0.02353
 O2 O 0.44574 -0.03915 -0.12182
 O3 O 0.57185 0.04799 -0.06289
 O4 O 0.39062 0.04927 0.01724
 O5 O 0.55105 -0.02669 -0.11864
 O6 O 0.46046 0.10653 0.00541
 O7 O 0.38528 -0.03371 -0.05110
 O8 O 0.63204 0.05184 0.02407
 C9 C 0.60918 0.10282 0.03259
 C10 C 0.39709 -0.03302 -0.10447
 C11 C 0.57287 0.02288 -0.11167
 C12 C 0.41054 0.09697 0.00073
 O13 O 0.44200 0.06022 0.10494
 O14 O 0.55420 -0.11633 -0.04471
 O15 O 0.58405 -0.03215 0.07001
 O16 O 0.42066 -0.10590 0.02856
 O17 O 0.45393 -0.12740 -0.05616
 O18 O 0.54022 0.03613 0.11497
 O19 O 0.43350 -0.02946 0.09778
 O20 O 0.61330 -0.04833 -0.03282
 Co21 Co 0.50020 0.06765 0.05634
 Co22 Co 0.50146 -0.07082 -0.07779
 Co23 Co 0.57385 0.00773 0.00443
 Co24 Co 0.41435 -0.02765 0.02213
 O25 O 0.49451 -0.01126 -0.00138
 C26 C 0.42710 0.01513 0.12737
 C27 C 0.60235 -0.10106 -0.03552
 C28 C 0.57100 -0.00721 0.11659
 C29 C 0.42812 -0.14192 -0.01226
 O30 O -0.10080 0.43785 -0.03749
 O31 O 0.05879 0.52963 0.11205
 O32 O -0.04108 0.40691 0.03827
 O33 O -0.07406 0.61382 0.02036
 O34 O 0.03397 0.42563 0.08684
 O35 O -0.11389 0.53152 0.00650
 O36 O -0.00805 0.59242 0.10156
 O37 O -0.04601 0.36984 -0.06644
 C38 C -0.09504 0.38901 -0.06380
 C39 C 0.02668 0.56807 0.13286
 C40 C -0.01313 0.40245 0.08364
 C41 C -0.11608 0.58321 0.02290
 O42 O -0.06383 0.58191 -0.08349
 O43 O 0.09979 0.43497 -0.01100
 O44 O 0.02950 0.43792 -0.09516
 O45 O 0.07210 0.61229 0.03361
 O46 O 0.11806 0.53386 0.01496
 O47 O -0.04049 0.48531 -0.12311
 O48 O 0.00927 0.62456 -0.05014
 O49 O 0.04098 0.36943 -0.01206
 Co50 Co -0.07224 0.50908 -0.05446
 Co51 Co 0.07095 0.48247 0.04644
 Co52 Co -0.00707 0.42587 -0.02873
 Co53 Co -0.00045 0.60120 0.02343
 O54 O 0.00104 0.50865 -0.00132
 C55 C -0.02631 0.61856 -0.08873
 C56 C 0.08965 0.38198 -0.01369
 C57 C 0.00294 0.45916 -0.13530
 C58 C 0.11635 0.58753 0.02371
 O59 O -0.05446 -0.10178 0.46357
 O60 O 0.10310 -0.00016 0.52942
 O61 O 0.03876 -0.00342 0.35157
 O62 O -0.00892 -0.03653 0.62174
 O63 O 0.09186 -0.00142 0.42678
 O64 O -0.07483 -0.07533 0.56723
 O65 O 0.06600 0.03439 0.60755
 O66 O 0.02421 -0.07769 0.42812
 C67 C -0.00915 -0.11633 0.44165
 C68 C 0.10440 0.00745 0.58289
 C69 C 0.08780 -0.00010 0.37198
 C70 C -0.04272 -0.07659 0.61066
 O71 O -0.12666 0.02031 0.53104
 O72 O 0.04293 0.10531 0.43589
 O73 O -0.05565 -0.03889 0.37394
 O74 O -0.00963 0.11430 0.58286
 O75 O 0.06739 0.11077 0.53836
 O76 O -0.10950 -0.00153 0.43377
 O77 O -0.08179 0.04225 0.60930
 O78 O -0.02955 0.06624 0.39885
 Co79 Co -0.08439 -0.03574 0.49869
 Co80 Co 0.06829 0.05019 0.48414
 Co81 Co -0.00143 -0.00403 0.41672
 Co82 Co -0.00843 0.03675 0.59551
 O83 O -0.01019 0.01207 0.50295
 C84 C -0.12596 0.03843 0.58214
 C85 C 0.00054 0.10970 0.40585
 C86 C -0.10297 -0.02535 0.38529
 C87 C 0.03202 0.13930 0.56614
 C88 C -0.35840 0.15612 0.03413
 C89 C -0.30403 0.15463 0.01811
 C90 C -0.27468 0.20710 0.00292
 N91 N -0.22746 0.20180 -0.02676
 N92 N -0.20080 0.24881 -0.04277
 C93 C -0.22044 0.30285 -0.02986
 N94 N -0.26766 0.30824 0.00008
 N95 N -0.29460 0.26109 0.01582
 C96 C -0.18834 0.35437 -0.04300
 C97 C -0.13985 0.34817 -0.07330
 H98 H -0.28400 0.11323 0.00991
 H99 H -0.19867 0.39563 -0.02172
 H100 H -0.37931 0.19733 0.03998
 H101 H -0.13024 0.30703 -0.09524
 C102 C 0.40679 0.80436 -0.01091
 C103 C 0.37439 0.78666 0.03494
 C104 C 0.33819 0.73558 0.03027
 N105 N 0.29837 0.73016 0.07016
 N106 N 0.26120 0.68823 0.06408
 C107 C 0.26245 0.64969 0.01804
 N108 N 0.30326 0.65387 -0.02115
 N109 N 0.34034 0.69631 -0.01531
 C110 C 0.21741 0.60772 0.00878
 C111 C 0.16542 0.62408 0.02678
 H112 H 0.36987 0.81498 0.07328
 H113 H 0.22409 0.56668 -0.01457
 H114 H 0.41180 0.77516 -0.04850
 H115 H 0.15971 0.66788 0.04469
 C116 C 0.37563 0.14481 -0.01752
 C117 C 0.31910 0.14181 -0.01670
 C118 C 0.28517 0.19406 -0.02204
 N119 N 0.23021 0.18879 -0.02285
 N120 N 0.19878 0.23581 -0.02393
 C121 C 0.22093 0.29003 -0.02394
 N122 N 0.27600 0.29537 -0.02339
 N123 N 0.30753 0.24822 -0.02251
 C124 C 0.18566 0.34202 -0.02189
 C125 C 0.12937 0.33531 -0.02352
 H126 H 0.29921 0.10089 -0.00843
 H127 H 0.20363 0.38493 -0.01657
 H128 H 0.39529 0.18549 -0.02724
 H129 H 0.11238 0.29196 -0.02929
 C130 C -0.35310 0.85785 -0.02650
 C131 C -0.36004 0.79944 -0.01436
 C132 C -0.31271 0.76488 0.00391
 N133 N -0.31545 0.70597 0.00528
 N134 N -0.27172 0.67517 0.02000
 C135 C -0.22399 0.70233 0.03457
 N136 N -0.22173 0.76112 0.03422
 N137 N -0.26517 0.79174 0.01928
 C138 C -0.17348 0.66999 0.04502
 C139 C -0.16923 0.61001 0.03588
 H140 H -0.40004 0.77955 -0.01717
 H141 H -0.13670 0.69542 0.05241
 H142 H -0.31249 0.87641 -0.02442
 H143 H -0.20567 0.58386 0.02940
 C144 C 0.03355 -0.41184 0.19375
 C145 C -0.00553 -0.37737 0.22162
 C146 C 0.00815 -0.33707 0.27049
 N147 N -0.03227 -0.31422 0.30393
 N148 N -0.02175 -0.27173 0.34320
 C149 C 0.02946 -0.24986 0.35007
 N150 N 0.07004 -0.27293 0.31683
 N151 N 0.05964 -0.31600 0.27797
 C152 C 0.03906 -0.19713 0.38699
 C153 C -0.00022 -0.17809 0.42658
 H154 H -0.04634 -0.37546 0.20353
 H155 H 0.07303 -0.16915 0.37699
 H156 H 0.07273 -0.41831 0.21447
 H157 H -0.03231 -0.20790 0.43807
 C158 C 0.01714 0.44805 0.80356
 C159 C 0.05467 0.40535 0.78716
 C160 C 0.04494 0.36731 0.73536
 N161 N 0.08330 0.32821 0.71779
 N162 N 0.07180 0.28767 0.67670
 C163 C 0.02130 0.28428 0.65220
 N164 N -0.01687 0.32369 0.66935
 N165 N -0.00520 0.36458 0.70996
 C166 C 0.00577 0.23457 0.61367
 C167 C 0.04464 0.19888 0.58707
 H168 H 0.08561 0.39234 0.81781
 H169 H -0.03697 0.22294 0.61028
 H170 H -0.01139 0.46323 0.77139
 H171 H 0.08680 0.21293 0.58637
 C172 C -0.03377 0.36622 0.13010
 C173 C -0.00456 0.35814 0.18118
 C174 C -0.01842 0.31223 0.22162
 N175 N 0.00992 0.30848 0.27203
 N176 N 0.00122 0.26463 0.30699
 C177 C -0.03603 0.22255 0.29290
 N178 N -0.06480 0.22654 0.24267
 N179 N -0.05625 0.27061 0.20774
 C180 C -0.04159 0.17084 0.32870
 C181 C -0.01016 0.16541 0.37879
 H182 H 0.03162 0.38405 0.19032
 H183 H -0.06607 0.13448 0.31241
 H184 H -0.07109 0.34198 0.12191
 H185 H 0.01450 0.20198 0.39419
 C186 C -0.02712 -0.34670 0.86591
 C187 C 0.01217 -0.30370 0.85837
 C188 C 0.00851 -0.26148 0.81223
 N189 N -0.03417 -0.26114 0.77427
 N190 N -0.03751 -0.22072 0.73434
 C191 C 0.00176 -0.17929 0.73114
 N192 N 0.04438 -0.17997 0.76885
 N193 N 0.04771 -0.22026 0.80864
 C194 C -0.00121 -0.13272 0.68949
 C195 C -0.04273 -0.12698 0.64833
 H196 H 0.04618 -0.29913 0.88849
 H197 H 0.03122 -0.10067 0.69219
 H198 H -0.06013 -0.35154 0.83456
 H199 H -0.07460 -0.15945 0.64350
 C200 C 0.35536 -0.02493 0.85910
 C201 C 0.35782 -0.02523 0.79858
 C202 C 0.30715 -0.01637 0.76485
 N203 N 0.30491 -0.02858 0.70677
 N204 N 0.25842 -0.02197 0.67728
 C205 C 0.21255 -0.00287 0.70483
 N206 N 0.21504 0.00982 0.76261
 N207 N 0.26129 0.00307 0.79198
 C208 C 0.16086 0.00590 0.67359
 C209 C 0.15384 -0.00878 0.61490
 H210 H 0.39576 -0.03400 0.77614
 H211 H 0.12756 0.02603 0.69751
 H212 H 0.31567 -0.01876 0.87893
 H213 H 0.18671 -0.02958 0.59089
 C214 C -0.40486 -0.02355 0.17212
 C215 C -0.35734 -0.05649 0.17362
 C216 C -0.31920 -0.05242 0.22313
 N217 N -0.26833 -0.07459 0.21704
 N218 N -0.23108 -0.06600 0.25873
 C219 C -0.24318 -0.03481 0.30816
 N220 N -0.29440 -0.01353 0.31482
 N221 N -0.33167 -0.02193 0.27295
 C222 C -0.20114 -0.02263 0.35297
 C223 C -0.14660 -0.03544 0.34231
 H224 H -0.34341 -0.07872 0.13417
 H225 H -0.21293 -0.00216 0.39407
 H226 H -0.41853 -0.00050 0.21118
 H227 H -0.13499 -0.05492 0.30070
 C228 C 0.39599 0.01598 0.18161
 C229 C 0.36085 -0.02962 0.19358
 C230 C 0.31771 -0.02349 0.23715
 N231 N 0.27156 -0.05563 0.23053
 N232 N 0.23031 -0.04817 0.26726
 C233 C 0.23392 -0.00866 0.31234
 N234 N 0.28053 0.02267 0.31976
 N235 N 0.32159 0.01573 0.28253
 C236 C 0.18790 0.00092 0.35194
 C237 C 0.13455 -0.00989 0.33358
 H238 H 0.35974 -0.06785 0.16468
 H239 H 0.19581 0.01978 0.39489
 H240 H 0.39463 0.05605 0.20776
 H241 H 0.12654 -0.02406 0.28898
 C242 C -0.39374 0.04884 0.84289
 C243 C -0.37934 0.01891 0.79153
 C244 C -0.33091 0.03547 0.75786
 N245 N -0.32360 0.01305 0.70315
 N246 N -0.27788 0.02358 0.67430
 C247 C -0.23729 0.05640 0.69923
 N248 N -0.24456 0.07878 0.75398
 N249 N -0.29055 0.06877 0.78259
 C250 C -0.18433 0.06324 0.66977
 C251 C -0.17870 0.05121 0.61033
 H252 H -0.40124 -0.02029 0.77815
 H253 H -0.14864 0.07391 0.69598
 H254 H -0.37316 0.08943 0.85428
 H255 H -0.21515 0.04343 0.58435
   
