data_POSCAR
  _audit_creation_date              2014-09-24
  _audit_creation_method            'ToBaCCo'
  _symmetry_space_group_name_H-M    'P1'
  _symmetry_Int_Tables_number       1
  _symmetry_cell_setting            triclinic
  loop_
  _symmetry_equiv_pos_as_xyz
 x,y,z
_cell_length_a 50.0548
_cell_length_b 48.8794
_cell_length_c 38.6253
_cell_angle_alpha 89.644400
_cell_angle_beta 90.164200
_cell_angle_gamma 120.177900
loop_
  _atom_site_label
  _atom_site_type_symbol
  _atom_site_fract_x
  _atom_site_fract_y
  _atom_site_fract_z
O1 O 0.02952 0.47349 0.02579
 O2 O -0.00004 0.51410 -0.02870
 O3 O 0.03952 0.53107 0.02163
 O4 O -0.01244 0.45586 -0.02318
 O5 O -0.04871 0.44533 0.01564
 O6 O 0.00306 0.51925 0.06070
 O7 O -0.03672 0.50334 0.00969
 O8 O -0.00715 0.46204 0.06437
 Cu9 Cu 0.01778 0.49458 -0.00498
 Cu10 Cu -0.02607 0.48142 0.04141
 C11 C 0.01669 0.46134 0.05455
 C12 C -0.02347 0.51549 -0.01898
 C13 C 0.03004 0.53759 0.04918
 C14 C -0.03967 0.43804 -0.01158
 O15 O 0.50521 0.54523 -0.00584
 O16 O 0.48318 0.46720 -0.04210
 O17 O 0.46092 0.48787 0.00546
 O18 O 0.52813 0.52506 -0.05325
 O19 O 0.55642 0.51879 -0.01353
 O20 O 0.48916 0.48072 0.04456
 O21 O 0.51227 0.46110 -0.00326
 O22 O 0.53327 0.53861 0.03396
 Cu23 Cu 0.49154 0.50695 -0.02798
 Cu24 Cu 0.52564 0.49918 0.01939
 C25 C 0.52267 0.55501 0.02052
 C26 C 0.49407 0.45095 -0.02900
 C27 C 0.46371 0.47818 0.03512
 C28 C 0.55375 0.52820 -0.04340
 O29 O 0.52275 0.98762 -0.06223
 O30 O 0.44818 0.94123 -0.01850
 O31 O 0.46868 0.98229 -0.06935
 O32 O 0.50315 0.94974 -0.00867
 O33 O 0.51647 0.99042 0.02591
 O34 O 0.47952 1.02093 -0.03263
 O35 O 0.46054 0.98025 0.01827
 O36 O 0.53480 1.02821 -0.02793
 Cu37 Cu 0.48449 0.96128 -0.04327
 Cu38 Cu 0.49909 1.00896 -0.00056
 C39 C 0.54131 1.01580 -0.05300
 C40 C 0.44175 0.95248 0.00756
 C41 C 0.46808 1.00714 -0.06112
 C42 C 0.51566 0.96470 0.01905
 O43 O 0.98725 0.52197 0.52547
 O44 O 1.02112 0.48984 0.46509
 O45 O 0.98315 0.46739 0.51730
 O46 O 1.02646 0.54512 0.47401
 O47 O 1.06523 0.55864 0.51030
 O48 O 1.02245 0.48084 0.55283
 O49 O 1.06049 0.50384 0.50065
 O50 O 1.02604 0.53533 0.56170
 Cu51 Cu 1.00060 0.50479 0.49184
 Cu52 Cu 1.04747 0.52106 0.53498
 C53 C 1.00059 0.53372 0.55405
 C54 C 1.04661 0.49150 0.47244
 C55 C 0.99545 0.46099 0.54256
 C56 C 1.05340 0.56505 0.48467
 O57 O 0.55089 0.52820 0.45134
 O58 O 0.51635 0.45003 0.49322
 O59 O 0.50019 0.47424 0.44224
 O60 O 0.56614 0.50405 0.50272
 O61 O 0.54061 0.51679 0.53969
 O62 O 0.47591 0.48897 0.47866
 O63 O 0.49066 0.46350 0.52911
 O64 O 0.52648 0.54253 0.48808
 Cu65 Cu 0.53585 0.48774 0.46862
 Cu66 Cu 0.50598 0.50448 0.51251
 C67 C 0.54449 0.54861 0.46241
 C68 C 0.49791 0.44354 0.51846
 C69 C 0.47693 0.47684 0.45009
 C70 C 0.56417 0.51482 0.53187
 O71 O 0.49585 -0.03684 0.48460
 O72 O 0.46104 -0.00652 0.54563
 O73 O 0.44354 -0.03786 0.48779
 O74 O 0.51380 -0.00405 0.54192
 O75 O 0.53292 0.04062 0.51220
 O76 O 0.46343 0.00658 0.45755
 O77 O 0.47966 0.03776 0.51517
 O78 O 0.51586 0.00774 0.45461
 Cu79 Cu 0.47667 -0.02582 0.51792
 Cu80 Cu 0.50008 0.02767 0.48187
 C81 C 0.51146 -0.02000 0.45903
 C82 C 0.46435 0.02069 0.54083
 C83 C 0.44158 -0.02138 0.46335
 C84 C 0.53505 0.02435 0.53668
 C85 C 0.32588 0.47135 0.22711
 C86 C 0.32833 0.47342 0.26250
 C87 C 0.29845 0.45890 0.27535
 N88 N 0.27786 0.44805 0.24905
 C89 C 0.29457 0.45553 0.21953
 C90 C 0.29028 0.45482 0.31076
 C91 C 0.26101 0.44876 0.32227
 C92 C 0.24966 0.43948 0.35562
 C93 C 0.22244 0.43995 0.35739
 C94 C 0.21785 0.44937 0.32505
 N95 N 0.24134 0.45449 0.30376
 C96 C 0.19413 0.45597 0.31684
 C97 C 0.18646 0.45878 0.28224
 C98 C 0.16925 0.47242 0.27180
 C99 C 0.16619 0.46906 0.23651
 C100 C 0.18169 0.45356 0.22657
 N101 N 0.19410 0.44734 0.25454
 C102 C 0.18368 0.44456 0.19239
 C103 C 0.20656 0.43738 0.18222
 C104 C 0.20675 0.42348 0.15108
 C105 C 0.23461 0.42434 0.14920
 C106 C 0.25062 0.43866 0.17927
 N107 N 0.23328 0.44633 0.19935
 C108 C 0.28157 0.44712 0.18604
 H109 H 0.34504 0.48094 0.20911
 H110 H 0.34972 0.48490 0.27700
 H111 H 0.24100 0.46074 0.22107
 H112 H 0.26023 0.43368 0.37675
 H113 H 0.20799 0.43455 0.38010
 H114 H 0.16032 0.48414 0.28772
 H115 H 0.15447 0.47773 0.22008
 H116 H 0.24245 0.41599 0.12778
 H117 H 0.24582 0.46542 0.27959
 H118 H 0.18899 0.41435 0.13136
 C119 C 0.55237 0.69023 0.24425
 C120 C 0.54941 0.69091 0.27946
 C121 C 0.55667 0.72147 0.28769
 N122 N 0.56370 0.73937 0.25864
 C123 C 0.56096 0.72027 0.23207
 C124 C 0.55792 0.73288 0.32156
 C125 C 0.55925 0.76193 0.32807
 C126 C 0.56649 0.77711 0.35979
 C127 C 0.56247 0.80282 0.35629
 C128 C 0.55279 0.80260 0.32253
 N129 N 0.55106 0.77769 0.30546
 C130 C 0.54302 0.82321 0.30943
 C131 C 0.53886 0.82620 0.27368
 C132 C 0.52284 0.83994 0.25968
 C133 C 0.52495 0.83870 0.22436
 C134 C 0.54230 0.82436 0.21794
 N135 N 0.55075 0.81672 0.24814
 C136 C 0.55107 0.81939 0.18482
 C137 C 0.56266 0.79871 0.17944
 C138 C 0.57785 0.79801 0.14978
 C139 C 0.58263 0.77277 0.15333
 C140 C 0.56996 0.75857 0.18491
 N141 N 0.55809 0.77470 0.20079
 C142 C 0.56728 0.72996 0.19713
 H143 H 0.54822 0.66980 0.22932
 H144 H 0.54236 0.67100 0.29683
 H145 H 0.54411 0.76732 0.22269
 H146 H 0.57348 0.77011 0.38320
 H147 H 0.56573 0.81943 0.37654
 H148 H 0.51042 0.84934 0.27339
 H149 H 0.51444 0.84697 0.20566
 H150 H 0.59371 0.76542 0.13451
 H151 H 0.54092 0.76956 0.28137
 H152 H 0.58447 0.81382 0.12768
 C153 C 0.13329 0.70165 0.21840
 C154 C 0.12952 0.70088 0.25356
 C155 C 0.15181 0.73018 0.26583
 N156 N 0.16897 0.74885 0.23924
 C157 C 0.15810 0.73126 0.21020
 C158 C 0.15543 0.73939 0.30094
 C159 C 0.18008 0.76849 0.31301
 C160 C 0.18092 0.78155 0.34508
 C161 C 0.20977 0.80786 0.34839
 C162 C 0.22560 0.81040 0.31807
 N163 N 0.20735 0.78642 0.29657
 C164 C 0.25687 0.83309 0.31197
 C165 C 0.26981 0.84034 0.27835
 C166 C 0.30105 0.85868 0.27081
 C167 C 0.30344 0.86150 0.23547
 C168 C 0.27366 0.84428 0.22253
 N169 N 0.25311 0.83149 0.24875
 C170 C 0.26587 0.84151 0.18709
 C171 C 0.23686 0.81791 0.17418
 C172 C 0.22618 0.81697 0.14078
 C173 C 0.19905 0.78854 0.13748
 C174 C 0.19348 0.77323 0.16922
 N175 N 0.21661 0.79127 0.19140
 C176 C 0.16908 0.74227 0.17622
 H177 H 0.11880 0.68261 0.20103
 H178 H 0.11216 0.68095 0.26824
 H179 H 0.22041 0.78390 0.21527
 H180 H 0.16280 0.77277 0.36438
 H181 H 0.21821 0.82325 0.37067
 H182 H 0.32025 0.86883 0.28872
 H183 H 0.32474 0.87427 0.22094
 H184 H 0.18515 0.78014 0.11427
 H185 H 0.21459 0.78039 0.27417
 H186 H 0.23707 0.83457 0.12055
 C187 C 0.85500 0.53417 0.78052
 C188 C 0.85700 0.53519 0.74505
 C189 C 0.84277 0.55164 0.73356
 N190 N 0.83214 0.56067 0.76078
 C191 C 0.83960 0.55002 0.78951
 C192 C 0.84024 0.55881 0.69861
 C193 C 0.81891 0.56804 0.68771
 C194 C 0.81873 0.58023 0.65524
 C195 C 0.79229 0.58217 0.65330
 C196 C 0.77711 0.57137 0.68475
 N197 N 0.79359 0.56296 0.70560
 C198 C 0.74710 0.56583 0.69196
 C199 C 0.73515 0.56168 0.72603
 C200 C 0.70517 0.55366 0.73460
 C201 C 0.70346 0.55273 0.77002
 C202 C 0.73271 0.56137 0.78216
 N203 N 0.75203 0.56690 0.75521
 C204 C 0.74164 0.56500 0.81742
 C205 C 0.77035 0.56900 0.82838
 C206 C 0.78284 0.57900 0.86112
 C207 C 0.80883 0.57630 0.86293
 C208 C 0.81154 0.56474 0.83123
 N209 N 0.78813 0.56058 0.81023
 C210 C 0.83334 0.55537 0.82367
 H211 H 0.86342 0.52254 0.79759
 H212 H 0.86720 0.52442 0.72959
 H213 H 0.78227 0.54845 0.78689
 H214 H 0.83543 0.58623 0.63466
 H215 H 0.78479 0.58985 0.63085
 H216 H 0.68626 0.54904 0.71749
 H217 H 0.68280 0.54623 0.78482
 H218 H 0.82367 0.58159 0.88530
 H219 H 0.78573 0.55016 0.72855
 H220 H 0.77380 0.58682 0.88185
 C221 C 0.39630 0.28449 0.73820
 C222 C 0.39666 0.28346 0.77367
 C223 C 0.40202 0.25912 0.78269
 N224 N 0.40504 0.24537 0.75384
 C225 C 0.40135 0.26068 0.72659
 C226 C 0.40748 0.25241 0.81680
 C227 C 0.41116 0.22630 0.82552
 C228 C 0.42229 0.22218 0.85690
 C229 C 0.42112 0.19348 0.85542
 C230 C 0.40871 0.18044 0.82346
 N231 N 0.40252 0.20053 0.80555
 C232 C 0.40178 0.15001 0.81231
 C233 C 0.39274 0.13969 0.77797
 C234 C 0.37740 0.10843 0.76732
 C235 C 0.37601 0.10898 0.73186
 C236 C 0.39052 0.14056 0.72210
 N237 N 0.40050 0.15928 0.75031
 C238 C 0.39705 0.15190 0.68767
 C239 C 0.40387 0.18279 0.67838
 C240 C 0.41450 0.19671 0.64618
 C241 C 0.41655 0.22579 0.64710
 C242 C 0.40776 0.22928 0.68010
 N243 N 0.39951 0.20265 0.69873
 C244 C 0.40581 0.25574 0.69157
 H245 H 0.39344 0.30142 0.72284
 H246 H 0.39421 0.29953 0.79075
 H247 H 0.38863 0.19700 0.72271
 H248 H 0.43027 0.23794 0.87885
 H249 H 0.42830 0.18335 0.87587
 H250 H 0.36835 0.08743 0.78342
 H251 H 0.36576 0.08851 0.71515
 H252 H 0.42342 0.24211 0.62551
 H253 H 0.39011 0.19548 0.78257
 H254 H 0.41996 0.18696 0.62405
 C255 C 0.68456 0.16694 0.76860
 C256 C 0.68215 0.16662 0.73319
 C257 C 0.71203 0.18134 0.72033
 N258 N 0.73260 0.19060 0.74667
 C259 C 0.71585 0.18180 0.77622
 C260 C 0.72005 0.18517 0.68486
 C261 C 0.75029 0.20629 0.67296
 C262 C 0.76067 0.20697 0.63952
 C263 C 0.79009 0.23262 0.63747
 C264 C 0.79691 0.24685 0.66973
 N265 N 0.77258 0.23062 0.69124
 C266 C 0.82405 0.27550 0.67773
 C267 C 0.83311 0.28593 0.71210
 C268 C 0.85591 0.31612 0.72150
 C269 C 0.85870 0.31581 0.75679
 C270 C 0.83722 0.28558 0.76786
 N271 N 0.82165 0.26730 0.74052
 C272 C 0.83323 0.27495 0.80252
 C273 C 0.80713 0.24641 0.81371
 C274 C 0.80479 0.23128 0.84500
 C275 C 0.77501 0.20617 0.84718
 C276 C 0.76009 0.20644 0.81699
 N277 N 0.77982 0.23099 0.79673
 C278 C 0.72851 0.18565 0.80983
 H279 H 0.66542 0.15754 0.78661
 H280 H 0.66082 0.15701 0.71868
 H281 H 0.77387 0.23894 0.77458
 H282 H 0.74817 0.19096 0.61857
 H283 H 0.80463 0.24017 0.61467
 H284 H 0.86905 0.33643 0.70485
 H285 H 0.87446 0.33573 0.77252
 H286 H 0.76540 0.18968 0.86863
 H287 H 0.76987 0.23810 0.71543
 H288 H 0.82255 0.23780 0.86445
 C289 C 0.03028 0.44748 0.07758
 C290 C 0.05858 0.44988 0.06989
 C291 C 0.07632 0.44303 0.09540
 N292 N 0.10566 0.45049 0.08781
 N293 N 0.12299 0.44658 0.11130
 C294 C 0.11161 0.43500 0.14330
 N295 N 0.08210 0.42713 0.15078
 N296 N 0.06478 0.43114 0.12729
 C297 C 0.13116 0.43230 0.17006
 C298 C 0.16280 0.44473 0.16506
 H299 H 0.06952 0.45974 0.04519
 H300 H 0.12076 0.42155 0.19468
 H301 H 0.01930 0.43790 0.10232
 H302 H 0.17270 0.45409 0.13984
 C303 C 0.52977 0.58537 0.03592
 C304 C 0.54804 0.59724 0.06544
 C305 C 0.55142 0.62505 0.08389
 N306 N 0.56873 0.63503 0.11312
 N307 N 0.57066 0.65908 0.13121
 C308 C 0.55532 0.67402 0.12075
 N309 N 0.53821 0.66422 0.09135
 N310 N 0.53630 0.64018 0.07324
 C311 C 0.55568 0.69930 0.14159
 C312 C 0.57159 0.70903 0.17290
 H313 H 0.55905 0.58493 0.07639
 H314 H 0.54147 0.70905 0.13324
 H315 H 0.51906 0.59786 0.02467
 H316 H 0.58445 0.69799 0.18198
 C317 C 0.41234 0.93229 0.02548
 C318 C 0.40347 0.94174 0.05515
 C319 C 0.37551 0.91967 0.07467
 N320 N 0.36734 0.92966 0.10331
 N321 N 0.34272 0.90957 0.12186
 C322 C 0.32539 0.87872 0.11249
 N323 N 0.33350 0.86877 0.08378
 N324 N 0.35807 0.88886 0.06521
 C325 C 0.29890 0.85592 0.13344
 C326 C 0.28954 0.86494 0.16309
 H327 H 0.41782 0.96550 0.06495
 H328 H 0.28730 0.83120 0.12620
 H329 H 0.39771 0.90862 0.01556
 H330 H 0.30233 0.88941 0.17124
 C331 C 0.98618 0.54499 0.57909
 C332 C 0.95677 0.54071 0.57355
 C333 C 0.94022 0.54834 0.59971
 N334 N 0.91049 0.54051 0.59384
 N335 N 0.89466 0.54618 0.61758
 C336 C 0.90800 0.55998 0.64812
 N337 N 0.93784 0.56805 0.65391
 N338 N 0.95366 0.56229 0.63018
 C339 C 0.89041 0.56548 0.67498
 C340 C 0.85889 0.55466 0.67144
 H341 H 0.94467 0.52994 0.54972
 H342 H 0.90232 0.57765 0.69838
 H343 H 0.99825 0.55531 0.60306
 H344 H 0.84754 0.54395 0.64725
 C345 C 0.48606 0.41291 0.53616
 C346 C 0.46404 0.40283 0.56242
 C347 C 0.45645 0.37486 0.58384
 N348 N 0.43143 0.36234 0.60504
 N349 N 0.42516 0.33779 0.62557
 C350 C 0.44388 0.32512 0.62588
 N351 N 0.46895 0.33773 0.60481
 N352 N 0.47507 0.36207 0.58410
 C353 C 0.43807 0.29882 0.64918
 C354 C 0.41001 0.28051 0.66619
 H355 H 0.45268 0.41620 0.56805
 H356 H 0.45647 0.29353 0.65293
 H357 H 0.49604 0.39849 0.52928
 H358 H 0.39183 0.28623 0.66342
 C359 C 0.56187 0.03869 0.56011
 C360 C 0.58425 0.07067 0.55776
 C361 C 0.60861 0.08683 0.58391
 N362 N 0.62848 0.11840 0.58095
 N363 N 0.64996 0.13379 0.60499
 C364 C 0.65237 0.11819 0.63295
 N365 N 0.63259 0.08656 0.63585
 N366 N 0.61107 0.07115 0.61180
 C367 C 0.67564 0.13512 0.66003
 C368 C 0.69589 0.16772 0.65833
 H369 H 0.58303 0.08491 0.53689
 H370 H 0.67691 0.12171 0.68177
 H371 H 0.56290 0.02432 0.58094
 H372 H 0.69573 0.18071 0.63558
 C373 C 0.45516 0.01952 0.91602
 C374 C 0.45183 0.04539 0.92465
 C375 C 0.44148 0.06092 0.89960
 N376 N 0.43326 0.08192 0.91082
 N377 N 0.42536 0.09744 0.88835
 C378 C 0.42568 0.09272 0.85379
 N379 N 0.43394 0.07174 0.84257
 N380 N 0.44159 0.05603 0.86505
 C381 C 0.41887 0.11098 0.82847
 C382 C 0.40518 0.12877 0.83759
 H383 H 0.45719 0.05490 0.95064
 H384 H 0.42571 0.11105 0.80189
 H385 H 0.44761 0.00870 0.89080
 H386 H 0.39920 0.12915 0.86443
 C387 C 0.57889 0.54162 0.93398
 C388 C 0.60701 0.54366 0.94229
 C389 C 0.63239 0.55404 0.91723
 N390 N 0.65574 0.54830 0.92393
 N391 N 0.67819 0.55600 0.90091
 C392 C 0.67829 0.56999 0.87039
 N393 N 0.65523 0.57627 0.86390
 N394 N 0.63261 0.56833 0.88685
 C395 C 0.70198 0.57676 0.84394
 C396 C 0.71970 0.56205 0.84506
 H397 H 0.60988 0.53516 0.96722
 H398 H 0.70408 0.59181 0.82221
 H399 H 0.57590 0.54936 0.90865
 H400 H 0.71810 0.54807 0.86767
 C401 C 0.93941 0.41052 0.97116
 C402 C 0.94612 0.40090 0.94003
 C403 C 0.92192 0.37437 0.92003
 N404 N 0.92906 0.36585 0.88959
 N405 N 0.90707 0.34300 0.87042
 C406 C 0.87709 0.32784 0.88095
 N407 N 0.86999 0.33622 0.91147
 N408 N 0.89198 0.35902 0.93065
 C409 C 0.85226 0.30383 0.85919
 C410 C 0.85823 0.29466 0.82739
 H411 H 0.96917 0.41395 0.92915
 H412 H 0.82856 0.29448 0.86748
 H413 H 0.91636 0.39680 0.98193
 H414 H 0.88192 0.30528 0.81854
 C415 C 0.52389 0.96691 0.43364
 C416 C 0.51727 0.93564 0.43614
 C417 C 0.52567 0.92009 0.40933
 N418 N 0.51635 0.88895 0.41286
 N419 N 0.52280 0.87395 0.38857
 C420 C 0.53884 0.88952 0.35975
 N421 N 0.54832 0.92076 0.35623
 N422 N 0.54180 0.93579 0.38056
 C423 C 0.54579 0.87292 0.33267
 C424 C 0.53518 0.84056 0.33510
 H425 H 0.50408 0.92129 0.45805
 H426 H 0.55966 0.88633 0.31067
 H427 H 0.53691 0.98146 0.41178
 H428 H 0.52263 0.82771 0.35804
 C429 C 0.45114 0.46616 0.42546
 C430 C 0.42655 0.47124 0.43176
 C431 C 0.40177 0.46362 0.40654
 N432 N 0.38069 0.47265 0.41290
 N433 N 0.35854 0.46687 0.39002
 C434 C 0.35656 0.45172 0.35995
 N435 N 0.37749 0.44244 0.35370
 N436 N 0.39974 0.44832 0.37655
 C437 C 0.33278 0.44611 0.33402
 C438 C 0.31342 0.45881 0.33741
 H439 H 0.42602 0.48254 0.45559
 H440 H 0.33104 0.43245 0.31128
 H441 H 0.45218 0.45539 0.40146
 H442 H 0.31430 0.47112 0.36099
 C443 C 0.07086 0.59406 0.46792
 C444 C 0.06043 0.60291 0.43873
 C445 C 0.08110 0.63143 0.41849
 N446 N 0.07038 0.63911 0.38990
 N447 N 0.08935 0.66386 0.37029
 C448 C 0.11976 0.68178 0.37854
 N449 N 0.13041 0.67423 0.40723
 N450 N 0.11145 0.64955 0.42685
 C451 C 0.14153 0.70791 0.35614
 C452 C 0.13232 0.71700 0.32621
 H453 H 0.03707 0.58785 0.42938
 H454 H 0.16590 0.71920 0.36240
 H455 H 0.09404 0.60976 0.47739
 H456 H 0.10810 0.70483 0.31919
 C457 C 0.96461 0.53080 0.95786
 C458 C 0.93546 0.52740 0.96201
 C459 C 0.92173 0.53790 0.93503
 N460 N 0.89150 0.52949 0.93701
 N461 N 0.87832 0.53718 0.91168
 C462 C 0.89491 0.55364 0.88347
 N463 N 0.92523 0.56240 0.88170
 N464 N 0.93839 0.55463 0.90698
 C465 C 0.88036 0.56097 0.85452
 C466 C 0.84865 0.54946 0.85340
 H467 H 0.92143 0.51454 0.98416
 H468 H 0.89476 0.57488 0.83304
 H469 H 0.97817 0.54279 0.93510
 H470 H 0.83460 0.53705 0.87572
 C471 C 0.48617 0.42023 0.95598
 C472 C 0.46189 0.40476 0.93262
 C473 C 0.45545 0.37543 0.91514
 N474 N 0.42870 0.35848 0.89732
 N475 N 0.42308 0.33258 0.88012
 C476 C 0.44411 0.32278 0.87991
 N477 N 0.47090 0.33975 0.89769
 N478 N 0.47643 0.36553 0.91511
 C479 C 0.43906 0.29545 0.85916
 C480 C 0.41056 0.27495 0.84414
 H481 H 0.44711 0.41448 0.92684
 H482 H 0.45860 0.29227 0.85413
 H483 H 0.49975 0.40955 0.96354
 H484 H 0.39122 0.27862 0.84845
 C485 C 0.57021 0.03376 0.92741
 C486 C 0.59110 0.06579 0.93264
 C487 C 0.61758 0.08359 0.90917
 N488 N 0.63667 0.11520 0.91329
 N489 N 0.65966 0.13167 0.89100
 C490 C 0.66438 0.11709 0.86378
 N491 N 0.64546 0.08549 0.85986
 N492 N 0.62254 0.06906 0.88212
 C493 C 0.68807 0.13499 0.83743
 C494 C 0.70790 0.16760 0.83916
 H495 H 0.58715 0.07837 0.95315
 H496 H 0.68888 0.12235 0.81488
 H497 H 0.57430 0.02144 0.90674
 H498 H 0.70909 0.18017 0.86264
 C499 C 0.06003 0.47918 0.44746
 C500 C 0.08968 0.48371 0.45133
 C501 C 0.10400 0.47372 0.42476
 N502 N 0.13431 0.48251 0.42734
 N503 N 0.14787 0.47457 0.40289
 C504 C 0.13158 0.45742 0.37502
 N505 N 0.10120 0.44838 0.37261
 N506 N 0.08766 0.45641 0.39699
 C507 C 0.14648 0.44953 0.34711
 C508 C 0.17835 0.46176 0.34605
 H509 H 0.10338 0.49622 0.47372
 H510 H 0.13217 0.43465 0.32622
 H511 H 0.04665 0.46745 0.42460
 H512 H 0.19231 0.47515 0.36792
 C513 C 0.55769 0.57917 0.44422
 C514 C 0.54731 0.60043 0.44981
 C515 C 0.55630 0.62782 0.42678
 N516 N 0.54147 0.64458 0.42894
 N517 N 0.54775 0.66792 0.40656
 C518 C 0.56920 0.67544 0.38127
 N519 N 0.58437 0.65902 0.37948
 N520 N 0.57803 0.63563 0.40178
 C521 C 0.57458 0.69924 0.35455
 C522 C 0.55631 0.71324 0.35187
 H523 H 0.53017 0.59544 0.46965
 H524 H 0.59172 0.70401 0.33479
 H525 H 0.57416 0.58375 0.42371
 H526 H 0.54051 0.71015 0.37264
 C527 C 0.41563 0.96622 0.44206
 C528 C 0.39090 0.93534 0.44544
 C529 C 0.36530 0.92180 0.42037
 N530 N 0.34357 0.89066 0.42222
 N531 N 0.32122 0.87771 0.39858
 C532 C 0.31970 0.89548 0.37229
 N533 N 0.34119 0.92670 0.37070
 N534 N 0.36358 0.93963 0.39428
 C535 C 0.29662 0.88111 0.34455
 C536 C 0.27666 0.84853 0.34260
 H537 H 0.39096 0.92009 0.46589
 H538 H 0.29682 0.89623 0.32380
 H539 H 0.41529 0.98113 0.42137
 H540 H 0.27489 0.83363 0.36438
 C541 C 0.52892 0.95222 0.04432
 C542 C 0.52513 0.92204 0.04186
 C543 C 0.53470 0.90831 0.06998
 N544 N 0.52757 0.87764 0.06837
 N545 N 0.53474 0.86450 0.09443
 C546 C 0.54936 0.88155 0.12306
 N547 N 0.55675 0.91229 0.12452
 N548 N 0.54954 0.92542 0.09849
 C549 C 0.55604 0.86700 0.15283
 C550 C 0.54673 0.83492 0.15384
 H551 H 0.51325 0.90739 0.01973
 H552 H 0.56755 0.88165 0.17509
 H553 H 0.54032 0.96659 0.06679
 H554 H 0.53706 0.82077 0.13079
 C555 C 0.43758 0.46449 0.05946
 C556 C 0.41065 0.46550 0.05321
 C557 C 0.38651 0.45634 0.07970
 N558 N 0.36339 0.46277 0.07457
 N559 N 0.34233 0.45628 0.09910
 C560 C 0.34353 0.44299 0.12962
 N561 N 0.36641 0.43616 0.13456
 N562 N 0.38754 0.44276 0.11009
 C563 C 0.32165 0.43752 0.15779
 C564 C 0.30105 0.44884 0.15620
 H565 H 0.40810 0.47537 0.02907
 H566 H 0.32301 0.42595 0.18118
 H567 H 0.44054 0.45541 0.08395
 H568 H 0.29850 0.45878 0.13212
 C569 C 0.05063 0.56576 0.06939
 C570 C 0.07533 0.59287 0.05511
 C571 C 0.09644 0.61888 0.07781
 N572 N 0.10879 0.64956 0.06768
 N573 N 0.12699 0.67298 0.08907
 C574 C 0.13386 0.66645 0.12103
 N575 N 0.12200 0.63582 0.13077
 N576 N 0.10347 0.61248 0.10968
 C577 C 0.15305 0.69147 0.14566
 C578 C 0.15427 0.72058 0.14653
 H579 H 0.07842 0.59543 0.02730
 H580 H 0.16346 0.68530 0.16669
 H581 H 0.04578 0.56528 0.09679
 H582 H 0.14433 0.72742 0.12564
 C583 C 0.45087 0.03252 0.56616
 C584 C 0.44773 0.05884 0.55988
 C585 C 0.43744 0.07222 0.58723
 N586 N 0.42811 0.09319 0.57919
 N587 N 0.41986 0.10627 0.60407
 C588 C 0.42092 0.09900 0.63788
 N589 N 0.43037 0.07815 0.64587
 N590 N 0.43833 0.06488 0.62102
 C591 C 0.41406 0.11471 0.66583
 C592 C 0.39875 0.13157 0.66027
 H593 H 0.45310 0.06995 0.53454
 H594 H 0.42253 0.11398 0.69145
 H595 H 0.44330 0.02010 0.59070
 H596 H 0.39090 0.13261 0.63440
 C597 C 0.58845 0.52358 0.55794
 C598 C 0.61791 0.52935 0.54984
 C599 C 0.63934 0.53199 0.57738
 N600 N 0.67036 0.55029 0.57301
 N601 N 0.68970 0.55230 0.59801
 C602 C 0.67864 0.53561 0.62794
 N603 N 0.64768 0.51697 0.63203
 N604 N 0.62837 0.51535 0.60732
 C605 C 0.69935 0.53716 0.65573
 C606 C 0.72761 0.56428 0.66216
 H607 H 0.62525 0.53181 0.52309
 H608 H 0.69104 0.51721 0.67338
 H609 H 0.58256 0.52448 0.58473
 H610 H 0.73616 0.58417 0.64443
 C611 C 0.97826 0.43063 0.56101
 C612 C 0.94714 0.40947 0.55449
 C613 C 0.92867 0.38188 0.57693
 N614 N 0.89750 0.36509 0.57337
 N615 N 0.88024 0.34144 0.59508
 C616 C 0.89356 0.33361 0.62106
 N617 N 0.92477 0.35006 0.62427
 N618 N 0.94201 0.37378 0.60264
 C619 C 0.87475 0.30939 0.64697
 C620 C 0.84274 0.29578 0.64837
 H621 H 0.93537 0.41454 0.53405
 H622 H 0.88652 0.30399 0.66712
 H623 H 0.98988 0.42592 0.58192
 H624 H 0.83071 0.29962 0.62722
   
