data_POSCAR
  _audit_creation_date              2014-09-24
  _audit_creation_method            'ToBaCCo'
  _symmetry_space_group_name_H-M    'P1'
  _symmetry_Int_Tables_number       1
  _symmetry_cell_setting            triclinic
  loop_
  _symmetry_equiv_pos_as_xyz
 x,y,z
_cell_length_a 27.7355
_cell_length_b 27.7668
_cell_length_c 26.5972
_cell_angle_alpha 90.112300
_cell_angle_beta 90.537300
_cell_angle_gamma 95.635400
loop_
  _atom_site_label
  _atom_site_type_symbol
  _atom_site_fract_x
  _atom_site_fract_y
  _atom_site_fract_z
O1 O 0.04996 0.28635 -0.02956
 O2 O -0.04286 0.29062 0.06821
 O3 O 0.04411 0.27479 0.06192
 O4 O -0.04379 0.30643 -0.03447
 O5 O -0.06014 0.22936 -0.05470
 O6 O 0.01350 0.19847 0.05459
 O7 O -0.07865 0.22152 0.03975
 O8 O 0.02480 0.20931 -0.04275
 Cu9 Cu 0.00200 0.29821 0.01626
 Cu10 Cu -0.02773 0.20656 -0.00034
 C11 C 0.05463 0.24607 -0.05097
 C12 C -0.07700 0.25669 0.07052
 C13 C 0.04342 0.23075 0.07463
 C14 C -0.06473 0.27363 -0.06275
 O15 O 0.55966 0.78976 0.43201
 O16 O 0.46706 0.79100 0.53018
 O17 O 0.56286 0.80090 0.52926
 O18 O 0.46604 0.77900 0.43314
 O19 O 0.46646 0.70005 0.44404
 O20 O 0.56228 0.72191 0.53842
 O21 O 0.46810 0.71220 0.54022
 O22 O 0.56063 0.71085 0.44264
 Cu23 Cu 0.51376 0.79829 0.48054
 Cu24 Cu 0.51441 0.70336 0.49252
 C25 C 0.57586 0.74996 0.42087
 C26 C 0.45109 0.75166 0.55120
 C27 C 0.57993 0.76456 0.54920
 C28 C 0.45004 0.73573 0.42247
 O29 O 1.05105 0.71803 0.03743
 O30 O 0.96576 0.73763 -0.06608
 O31 O 1.05731 0.72007 -0.06020
 O32 O 0.95902 0.72780 0.03014
 O33 O 0.97877 0.80650 0.03832
 O34 O 1.07381 0.79933 -0.05639
 O35 O 0.98405 0.81668 -0.05853
 O36 O 1.06998 0.79692 0.04277
 Cu37 Cu 1.00663 0.71794 -0.01558
 Cu38 Cu 1.02886 0.81274 -0.00795
 C39 C 1.07440 0.75446 0.05854
 C40 C 0.95999 0.78073 -0.07911
 C41 C 1.08198 0.75843 -0.07442
 C42 C 0.95251 0.76815 0.05011
 O43 O 0.53221 0.21595 0.55998
 O44 O 0.43958 0.20808 0.45970
 O45 O 0.53375 0.21202 0.46204
 O46 O 0.43787 0.21103 0.55699
 O47 O 0.44166 0.29080 0.55457
 O48 O 0.53760 0.29190 0.45978
 O49 O 0.44297 0.28775 0.45656
 O50 O 0.53552 0.29566 0.55789
 Cu51 Cu 0.48551 0.20379 0.50992
 Cu52 Cu 0.48990 0.29955 0.50675
 C53 C 0.54944 0.25714 0.57642
 C54 C 0.42524 0.24635 0.44111
 C55 C 0.55191 0.25229 0.44487
 C56 C 0.42352 0.25061 0.57212
 O57 O 0.71460 -0.03944 0.03545
 O58 O 0.71203 0.06924 -0.04462
 O59 O 0.71590 -0.02443 -0.06061
 O60 O 0.70750 0.05112 0.05207
 O61 O 0.78726 0.06465 0.05495
 O62 O 0.79573 -0.01384 -0.05540
 O63 O 0.79191 0.07826 -0.04332
 O64 O 0.79430 -0.02510 0.04084
 Cu65 Cu 0.70437 0.01332 -0.00531
 Cu66 Cu 0.80028 0.02775 -0.00070
 C67 C 0.75522 -0.04991 0.05261
 C68 C 0.75188 0.09172 -0.05850
 C69 C 0.75724 -0.03333 -0.07622
 C70 C 0.74600 0.06954 0.07361
 O71 O 0.19020 0.43509 0.55533
 O72 O 0.19633 0.52163 0.44996
 O73 O 0.18749 0.42788 0.45792
 O74 O 0.19710 0.52954 0.54801
 O75 O 0.27695 0.53328 0.54372
 O76 O 0.26667 0.42448 0.46297
 O77 O 0.27539 0.51838 0.44654
 O78 O 0.27019 0.44086 0.55926
 Cu79 Cu 0.18478 0.47857 0.50286
 Cu80 Cu 0.28033 0.47947 0.50284
 C81 C 0.22919 0.42391 0.57572
 C82 C 0.23690 0.53402 0.42956
 C83 C 0.22522 0.40810 0.44624
 C84 C 0.23878 0.54901 0.56061
 O85 O 0.29510 1.03648 0.05313
 O86 O 0.31080 0.94819 -0.04735
 O87 O 0.29646 1.03961 -0.04361
 O88 O 0.30697 0.94393 0.05080
 O89 O 0.22822 0.92295 0.04425
 O90 O 0.21729 1.02120 -0.04671
 O91 O 0.23128 0.93123 -0.05214
 O92 O 0.21627 1.01587 0.05182
 Cu93 Cu 0.31030 0.99378 0.00385
 Cu94 Cu 0.21522 0.97111 -0.00050
 C95 C 0.25302 1.04182 0.06928
 C96 C 0.27355 0.92529 -0.06721
 C97 C 0.25504 1.04672 -0.06147
 C98 C 0.26948 0.91639 0.06249
 O99 O 0.81214 0.56750 0.54134
 O100 O 0.80075 0.46865 0.44934
 O101 O 0.80781 0.56317 0.44406
 O102 O 0.79906 0.47372 0.54666
 O103 O 0.71914 0.47207 0.54361
 O104 O 0.72818 0.56338 0.44479
 O105 O 0.72124 0.46989 0.44729
 O106 O 0.73234 0.56554 0.54363
 Cu107 Cu 0.81302 0.51830 0.49519
 Cu108 Cu 0.71719 0.51823 0.49470
 C109 C 0.77413 0.58265 0.55898
 C110 C 0.75930 0.45211 0.43291
 C111 C 0.76914 0.57840 0.42705
 C112 C 0.75734 0.45736 0.56188
 C113 C 0.22966 0.18339 0.22274
 C114 C 0.18915 0.21041 0.22647
 C115 C 0.18671 0.24303 0.26652
 C116 C 0.22463 0.25134 0.30215
 C117 C 0.26565 0.22476 0.29770
 C118 C 0.26684 0.19060 0.25880
 H119 H 0.29794 0.16999 0.25589
 H120 H 0.15531 0.26325 0.26902
 C121 C 0.76531 0.79905 0.20009
 C122 C 0.80315 0.76865 0.20153
 C123 C 0.80352 0.73315 0.23854
 C124 C 0.76680 0.72703 0.27437
 C125 C 0.72882 0.75789 0.27369
 C126 C 0.72865 0.79344 0.23609
 H127 H 0.70017 0.81751 0.23508
 H128 H 0.83223 0.70927 0.23873
 C129 C 0.77793 0.24873 0.22479
 C130 C 0.74139 0.20918 0.23040
 C131 C 0.70464 0.21233 0.26596
 C132 C 0.70468 0.25210 0.29830
 C133 C 0.74221 0.29019 0.29464
 C134 C 0.77751 0.28849 0.25754
 H135 H 0.80448 0.31922 0.25391
 H136 H 0.67650 0.18260 0.26978
 C137 C 0.21726 0.72906 0.20895
 C138 C 0.26060 0.76063 0.20665
 C139 C 0.29763 0.75497 0.24177
 C140 C 0.29406 0.71733 0.27724
 C141 C 0.25203 0.68370 0.27723
 C142 C 0.21399 0.69082 0.24366
 H143 H 0.18129 0.66599 0.24431
 H144 H 0.33005 0.78016 0.24116
 C145 C 0.70846 0.27119 0.72016
 C146 C 0.74587 0.30949 0.71443
 C147 C 0.78614 0.31208 0.74700
 C148 C 0.78973 0.27866 0.78570
 C149 C 0.75292 0.23994 0.79140
 C150 C 0.71318 0.23654 0.75794
 H151 H 0.68475 0.20718 0.76222
 H152 H 0.81501 0.34105 0.74274
 C153 C 0.29667 0.74815 0.69692
 C154 C 0.25750 0.71126 0.69944
 C155 C 0.22308 0.71328 0.73766
 C156 C 0.22721 0.75048 0.77382
 C157 C 0.26784 0.78575 0.77240
 C158 C 0.30117 0.78489 0.73337
 H159 H 0.33209 0.81197 0.73249
 H160 H 0.19245 0.68588 0.73885
 C161 C 0.23876 0.27825 0.72867
 C162 C 0.27367 0.24452 0.72402
 C163 C 0.27327 0.20635 0.75866
 C164 C 0.23955 0.20088 0.79767
 C165 C 0.20536 0.23510 0.80263
 C166 C 0.20531 0.27318 0.76805
 H167 H 0.17871 0.29909 0.77172
 H168 H 0.29997 0.18049 0.75552
 C169 C 0.78292 0.75213 0.69391
 C170 C 0.74396 0.78122 0.69059
 C171 C 0.74119 0.81701 0.72813
 C172 C 0.77680 0.82531 0.76599
 C173 C 0.81695 0.79760 0.76616
 C174 C 0.81962 0.76176 0.72987
 H175 H 0.84887 0.73855 0.73202
 H176 H 0.71058 0.83833 0.72881
 C177 C 0.20184 0.08218 0.12695
 C178 C 0.24701 0.07768 0.10521
 C179 C 0.28554 0.11265 0.11870
 C180 C 0.27942 0.14790 0.15559
 C181 C 0.23502 0.14865 0.18086
 C182 C 0.19627 0.11625 0.16416
 C183 C 0.16203 0.08250 0.19322
 C184 C 0.16806 0.04500 0.15261
 H185 H 0.32070 0.11258 0.10133
 H186 H 0.30990 0.17376 0.16528
 H187 H 0.12498 0.09448 0.19404
 H188 H 0.17706 0.07302 0.23041
 H189 H 0.13444 0.03540 0.13021
 H190 H 0.18652 0.01363 0.16622
 C191 C 0.74380 0.62182 0.63445
 C192 C 0.77866 0.62007 0.59810
 C193 C 0.81762 0.65706 0.59947
 C194 C 0.81926 0.69863 0.63129
 C195 C 0.78293 0.70704 0.66641
 C196 C 0.74776 0.66996 0.67642
 C197 C 0.67428 0.66103 0.69742
 C198 C 0.67246 0.60072 0.64289
 H199 H 0.84637 0.65585 0.57235
 H200 H 0.84900 0.72648 0.62629
 H201 H 0.64902 0.68964 0.69310
 H202 H 0.66923 0.64902 0.73739
 H203 H 0.65077 0.59649 0.60754
 H204 H 0.66587 0.56438 0.66111
 C205 C 0.79704 0.90995 0.12100
 C206 C 0.75798 0.90939 0.08734
 C207 C 0.72271 0.86925 0.08806
 C208 C 0.72535 0.83262 0.12435
 C209 C 0.76294 0.83596 0.16059
 C210 C 0.79921 0.87435 0.15712
 C211 C 0.81752 0.91020 0.19649
 C212 C 0.81566 0.94911 0.15675
 H213 H 0.69272 0.86678 0.06152
 H214 H 0.69747 0.80245 0.12501
 H215 H 0.85502 0.90552 0.20915
 H216 H 0.79114 0.91320 0.22731
 H217 H 0.85208 0.96604 0.14600
 H218 H 0.78856 0.97507 0.16468
 C219 C 0.19586 0.34757 0.61740
 C220 C 0.22681 0.39046 0.61859
 C221 C 0.25669 0.39957 0.66140
 C222 C 0.25901 0.36386 0.69878
 C223 C 0.23394 0.31759 0.69216
 C224 C 0.19965 0.31177 0.65321
 C225 C 0.19071 0.27226 0.61525
 C226 C 0.18630 0.31141 0.57605
 H227 H 0.27931 0.43349 0.66509
 H228 H 0.28253 0.37135 0.73115
 H229 H 0.15612 0.24951 0.62185
 H230 H 0.22287 0.25208 0.60968
 H231 H 0.14908 0.31140 0.56019
 H232 H 0.21572 0.31352 0.54784
 C233 C 0.84218 0.23146 0.10055
 C234 C 0.88791 0.25653 0.10797
 C235 C 0.89854 0.27716 0.15579
 C236 C 0.86379 0.27280 0.19434
 C237 C 0.81640 0.25035 0.18534
 C238 C 0.80711 0.22994 0.13763
 C239 C 0.76757 0.23766 0.10126
 C240 C 0.80567 0.24049 0.06085
 H241 H 0.93418 0.29519 0.16403
 H242 H 0.87407 0.28765 0.23097
 H243 H 0.75149 0.27228 0.10760
 H244 H 0.74131 0.20525 0.09682
 H245 H 0.81215 0.27747 0.04495
 H246 H 0.80040 0.21050 0.03296
 C247 C 0.39612 0.70906 0.61408
 C248 C 0.41094 0.75107 0.58715
 C249 C 0.38346 0.79092 0.59241
 C250 C 0.34554 0.78970 0.62742
 C251 C 0.33432 0.74863 0.65777
 C252 C 0.35923 0.70813 0.64883
 C253 C 0.38403 0.67718 0.68446
 C254 C 0.42480 0.67819 0.64646
 H255 H 0.39187 0.82336 0.57038
 H256 H 0.32579 0.82120 0.63169
 H257 H 0.36395 0.64078 0.68868
 H258 H 0.39483 0.69617 0.72027
 H259 H 0.42831 0.64229 0.62906
 H260 H 0.45936 0.69773 0.66020
 C261 C 0.11502 0.70171 0.11494
 C262 C 0.10437 0.74793 0.10012
 C263 C 0.12406 0.78755 0.12981
 C264 C 0.15791 0.78104 0.16836
 C265 C 0.17442 0.73524 0.17655
 C266 C 0.14941 0.69562 0.15197
 C267 C 0.16824 0.65431 0.12506
 C268 C 0.13069 0.66094 0.08428
 H269 H 0.11483 0.82386 0.12223
 H270 H 0.17375 0.81237 0.18910
 H271 H 0.16106 0.61977 0.14596
 H272 H 0.20619 0.66271 0.11231
 H273 H 0.10204 0.63009 0.08158
 H274 H 0.14686 0.67323 0.04782
 C275 C 0.60713 0.21916 0.63371
 C276 C 0.58540 0.26005 0.61799
 C277 C 0.59823 0.30360 0.64453
 C278 C 0.63624 0.30679 0.68043
 C279 C 0.66319 0.26696 0.68925
 C280 C 0.64479 0.22248 0.66851
 C281 C 0.66969 0.18405 0.64307
 C282 C 0.62869 0.18085 0.60435
 H283 H 0.58040 0.33566 0.63614
 H284 H 0.64644 0.34114 0.69884
 H285 H 0.66984 0.15101 0.66657
 H286 H 0.70551 0.19767 0.62758
 H287 H 0.60576 0.14571 0.60517
 H288 H 0.64056 0.19337 0.56635
 C289 C 0.79505 0.14762 0.88354
 C290 C 0.75240 0.13124 0.90878
 C291 C 0.71063 0.15476 0.89836
 C292 C 0.71141 0.19118 0.86150
 C293 C 0.75348 0.20415 0.83307
 C294 C 0.79542 0.18253 0.84601
 C295 C 0.82668 0.15516 0.81301
 C296 C 0.82702 0.11783 0.85432
 H297 H 0.67710 0.14447 0.91788
 H298 H 0.67859 0.20825 0.85420
 H299 H 0.86324 0.17392 0.80685
 H300 H 0.80751 0.14115 0.77826
 H301 H 0.86312 0.11682 0.87260
 H302 H 0.80865 0.08191 0.84334
 C303 C 0.19921 0.59080 0.37115
 C304 C 0.23911 0.56669 0.38556
 C305 C 0.28116 0.57463 0.35598
 C306 C 0.28460 0.61054 0.31826
 C307 C 0.24667 0.64029 0.31048
 C308 C 0.20281 0.62636 0.33455
 C309 C 0.16824 0.65554 0.36075
 C310 C 0.16483 0.61686 0.40143
 H311 H 0.31215 0.55477 0.36340
 H312 H 0.31796 0.61692 0.29745
 H313 H 0.13394 0.65676 0.33905
 H314 H 0.18521 0.69132 0.37383
 H315 H 0.12839 0.59640 0.40352
 H316 H 0.18066 0.62996 0.43810
 C317 C 0.26957 0.90414 0.84239
 C318 C 0.27864 0.89099 0.89196
 C319 C 0.28335 0.84206 0.90239
 C320 C 0.28264 0.80805 0.86305
 C321 C 0.27696 0.82241 0.81266
 C322 C 0.26944 0.87069 0.80346
 C323 C 0.29544 0.90662 0.76909
 C324 C 0.29535 0.94327 0.81158
 H325 H 0.28708 0.83015 0.94087
 H326 H 0.28555 0.77038 0.87190
 H327 H 0.27252 0.91523 0.73645
 H328 H 0.33237 0.89739 0.75949
 H329 H 0.27224 0.97290 0.80349
 H330 H 0.33216 0.95531 0.82653
 C331 C 0.71148 0.39677 0.37293
 C332 C 0.75505 0.41060 0.39829
 C333 C 0.79337 0.38126 0.39268
 C334 C 0.78907 0.34198 0.35898
 C335 C 0.74650 0.33141 0.33014
 C336 C 0.70753 0.35843 0.33931
 C337 C 0.67693 0.38360 0.30353
 C338 C 0.68127 0.42589 0.34028
 H339 H 0.82689 0.38905 0.41365
 H340 H 0.81923 0.32034 0.35486
 H341 H 0.63954 0.36525 0.30047
 H342 H 0.69522 0.39200 0.26712
 H343 H 0.64632 0.43201 0.35817
 H344 H 0.70206 0.45895 0.32524
 C345 C 0.09174 0.20510 0.87787
 C346 C 0.09542 0.24103 0.91500
 C347 C 0.13973 0.27039 0.91972
 C348 C 0.17709 0.26649 0.88472
 C349 C 0.17059 0.23342 0.84439
 C350 C 0.12808 0.20203 0.84293
 C351 C 0.09286 0.19055 0.80088
 C352 C 0.05291 0.19378 0.83912
 H353 H 0.14486 0.29731 0.94930
 H354 H 0.20992 0.29093 0.88758
 H355 H 0.09441 0.15337 0.78587
 H356 H 0.09418 0.21957 0.77203
 H357 H 0.03162 0.15844 0.84618
 H358 H 0.03091 0.22456 0.83233
 C359 C 0.66051 0.74109 0.39683
 C360 C 0.61337 0.74900 0.38285
 C361 C 0.60290 0.75475 0.33154
 C362 C 0.64026 0.75667 0.29584
 C363 C 0.68889 0.75367 0.31098
 C364 C 0.69745 0.74434 0.36193
 C365 C 0.73292 0.76927 0.39826
 C366 C 0.69245 0.76548 0.43666
 H367 H 0.56618 0.75886 0.31927
 H368 H 0.63121 0.76145 0.25661
 H369 H 0.74478 0.80711 0.38706
 H370 H 0.76266 0.74691 0.40823
 H371 H 0.68093 0.80114 0.44805
 H372 H 0.69884 0.74068 0.46829
 C373 C 0.87537 0.78815 0.89386
 C374 C 0.92442 0.78967 0.88216
 C375 C 0.93885 0.80387 0.83338
 C376 C 0.90375 0.80903 0.79563
 C377 C 0.85396 0.80111 0.80666
 C378 C 0.84093 0.79346 0.85689
 C379 C 0.80520 0.75662 0.88005
 C380 C 0.84307 0.75077 0.92083
 H381 H 0.97690 0.80820 0.82384
 H382 H 0.91535 0.81679 0.75748
 H383 H 0.79730 0.72391 0.85604
 H384 H 0.77283 0.77291 0.89410
 H385 H 0.85707 0.71460 0.92068
 H386 H 0.83244 0.76378 0.95830
 C387 C 0.36583 0.19652 0.38676
 C388 C 0.38787 0.24205 0.40093
 C389 C 0.37352 0.28266 0.37482
 C390 C 0.33459 0.27745 0.33989
 C391 C 0.30888 0.23169 0.33122
 C392 C 0.32758 0.19152 0.35280
 C393 C 0.30235 0.15000 0.38070
 C394 C 0.34425 0.15555 0.41821
 H395 H 0.39101 0.31851 0.38269
 H396 H 0.32326 0.30927 0.32148
 H397 H 0.30066 0.11577 0.35873
 H398 H 0.26733 0.15855 0.39682
 H399 H 0.36653 0.12439 0.41799
 H400 H 0.33359 0.16747 0.45612
 C401 C 0.80546 0.92753 0.85960
 C402 C 0.76097 0.93166 0.88265
 C403 C 0.72178 0.89757 0.86938
 C404 C 0.72673 0.86299 0.83138
 C405 C 0.77083 0.86199 0.80560
 C406 C 0.81002 0.89402 0.82175
 C407 C 0.84353 0.92811 0.79226
 C408 C 0.83847 0.96511 0.83362
 H409 H 0.68734 0.89765 0.88820
 H410 H 0.69605 0.83726 0.82200
 H411 H 0.82760 0.93802 0.75563
 H412 H 0.88052 0.91608 0.79023
 H413 H 0.81957 0.99650 0.82097
 H414 H 0.87262 0.97456 0.85519
 C415 C 0.19783 0.36818 0.36586
 C416 C 0.22049 0.36581 0.41270
 C417 C 0.23707 0.32142 0.42697
 C418 C 0.23539 0.28248 0.39254
 C419 C 0.21984 0.28831 0.34229
 C420 C 0.19819 0.33071 0.33138
 C421 C 0.20559 0.36466 0.28811
 C422 C 0.20518 0.40580 0.32590
 H423 H 0.25250 0.31729 0.46405
 H424 H 0.24858 0.24896 0.40462
 H425 H 0.17391 0.36195 0.26200
 H426 H 0.24131 0.36291 0.26989
 H427 H 0.17326 0.42676 0.32154
 H428 H 0.24063 0.42808 0.32956
 C429 C 0.29122 0.11488 0.88934
 C430 C 0.25125 0.08235 0.90178
 C431 C 0.20784 0.08589 0.87425
 C432 C 0.20413 0.12355 0.83932
 C433 C 0.24276 0.15985 0.83288
 C434 C 0.28694 0.15262 0.85600
 C435 C 0.32053 0.18696 0.88594
 C436 C 0.32529 0.14573 0.92264
 H437 H 0.17660 0.05991 0.87980
 H438 H 0.17094 0.12445 0.81794
 H439 H 0.30214 0.21720 0.90212
 H440 H 0.35457 0.19804 0.86548
 H441 H 0.30974 0.15205 0.96021
 H442 H 0.36214 0.13319 0.92340
 C443 C 0.73284 0.61644 0.35303
 C444 C 0.77135 0.61411 0.38647
 C445 C 0.81145 0.64910 0.38022
 C446 C 0.81044 0.68554 0.34296
 C447 C 0.76940 0.68761 0.31115
 C448 C 0.73206 0.65077 0.31692
 C449 C 0.68316 0.63134 0.29800
 C450 C 0.68416 0.59255 0.33919
 H451 H 0.84272 0.64931 0.40493
 H452 H 0.84099 0.71280 0.34002
 H453 H 0.68442 0.61657 0.25922
 H454 H 0.65490 0.65628 0.30433
 H455 H 0.68591 0.55537 0.32422
 H456 H 0.65718 0.59600 0.36931
 C457 C 0.13845 0.79769 0.86557
 C458 C 0.11858 0.75588 0.89003
 C459 C 0.13691 0.71167 0.87747
 C460 C 0.17240 0.70979 0.84007
 C461 C 0.18936 0.75168 0.81316
 C462 C 0.17194 0.79535 0.82739
 C463 C 0.14867 0.83109 0.79576
 C464 C 0.11247 0.83423 0.83773
 H465 H 0.12387 0.67847 0.89638
 H466 H 0.18608 0.67547 0.83179
 H467 H 0.13223 0.81474 0.76063
 H468 H 0.17207 0.86543 0.79047
 H469 H 0.07484 0.82036 0.82677
 H470 H 0.11593 0.86994 0.85709
 C471 C 0.63880 0.26059 0.42190
 C472 C 0.59018 0.25343 0.40732
 C473 C 0.57906 0.25064 0.35560
 C474 C 0.61637 0.25027 0.31997
 C475 C 0.66531 0.25292 0.33558
 C476 C 0.67546 0.26002 0.38690
 C477 C 0.70648 0.23391 0.42146
 C478 C 0.66611 0.23412 0.45979
 H479 H 0.54166 0.24741 0.34291
 H480 H 0.60702 0.24707 0.28040
 H481 H 0.73997 0.25677 0.43288
 H482 H 0.71218 0.19711 0.40758
 H483 H 0.67643 0.25667 0.49344
 H484 H 0.64817 0.19742 0.46799
 C485 C 0.86491 0.31231 0.90184
 C486 C 0.90512 0.28656 0.89464
 C487 C 0.91233 0.26824 0.84613
 C488 C 0.87628 0.26981 0.80861
 C489 C 0.83162 0.28692 0.82032
 C490 C 0.82872 0.31246 0.86541
 C491 C 0.78960 0.31085 0.90361
 C492 C 0.82908 0.30917 0.94335
 H493 H 0.94406 0.24976 0.83834
 H494 H 0.88129 0.25330 0.77235
 H495 H 0.76439 0.27731 0.90213
 H496 H 0.77178 0.34498 0.90449
 H497 H 0.82782 0.27360 0.96244
 H498 H 0.83311 0.34153 0.96826
 C499 C 0.36428 0.71204 0.39987
 C500 C 0.41158 0.72631 0.38503
 C501 C 0.42153 0.72865 0.33337
 C502 C 0.38339 0.72272 0.29791
 C503 C 0.33470 0.71502 0.31369
 C504 C 0.32664 0.70716 0.36512
 C505 C 0.29245 0.72770 0.40039
 C506 C 0.33393 0.73339 0.43846
 H507 H 0.45837 0.73694 0.32057
 H508 H 0.39180 0.72653 0.25836
 H509 H 0.26287 0.70027 0.41203
 H510 H 0.28067 0.76270 0.38716
 H511 H 0.32791 0.70952 0.47177
 H512 H 0.34656 0.77177 0.44724
 C513 C 0.29341 0.88261 0.14496
 C514 C 0.27402 0.87553 0.09657
 C515 C 0.25862 0.82781 0.08143
 C516 C 0.25749 0.78947 0.11620
 C517 C 0.26945 0.79863 0.16732
 C518 C 0.29077 0.84511 0.17962
 C519 C 0.28039 0.87775 0.22194
 C520 C 0.28320 0.91885 0.18401
 H521 H 0.24572 0.82050 0.04334
 H522 H 0.24422 0.75339 0.10384
 H523 H 0.31029 0.88144 0.25023
 H524 H 0.24355 0.86899 0.23762
 H525 H 0.31466 0.94622 0.19054
 H526 H 0.24797 0.93398 0.17764
 C527 C 0.73421 0.37341 0.58946
 C528 C 0.75252 0.42072 0.60108
 C529 C 0.76100 0.43316 0.65180
 C530 C 0.75658 0.39715 0.68906
 C531 C 0.74414 0.34807 0.67605
 C532 C 0.73083 0.33775 0.62594
 C533 C 0.74597 0.30050 0.59049
 C534 C 0.75006 0.33976 0.55049
 H535 H 0.77221 0.47030 0.66237
 H536 H 0.76466 0.40742 0.72775
 H537 H 0.71616 0.27177 0.58245
 H538 H 0.78129 0.28745 0.60115
 H539 H 0.72293 0.33338 0.51960
 H540 H 0.78786 0.34983 0.53800
 C541 C 0.69886 0.11111 0.13775
 C542 C 0.74278 0.09606 0.12131
 C543 C 0.78385 0.10709 0.15255
 C544 C 0.78223 0.13998 0.19283
 C545 C 0.74023 0.16381 0.20060
 C546 C 0.69760 0.14422 0.17654
 C547 C 0.65682 0.16759 0.15292
 C548 C 0.65844 0.13141 0.10995
 H549 H 0.81795 0.09320 0.14383
 H550 H 0.81519 0.15090 0.21376
 H551 H 0.66711 0.20574 0.14179
 H552 H 0.62316 0.16180 0.17537
 H553 H 0.67013 0.14837 0.07366
 H554 H 0.62552 0.10520 0.10758
 C555 C 0.25327 0.63719 0.57864
 C556 C 0.24337 0.58984 0.59586
 C557 C 0.24265 0.58205 0.64812
 C558 C 0.24720 0.62155 0.68182
 C559 C 0.25257 0.66957 0.66385
 C560 C 0.25714 0.67605 0.61180
 C561 C 0.23157 0.70703 0.57680
 C562 C 0.22696 0.66436 0.54049
 H563 H 0.23769 0.54556 0.66281
 H564 H 0.24596 0.61461 0.72186
 H565 H 0.25589 0.73832 0.56297
 H566 H 0.19624 0.71613 0.59170
 H567 H 0.24829 0.67122 0.50564
 H568 H 0.18893 0.64857 0.53441
 C569 C 0.87411 0.73647 0.08896
 C570 C 0.91455 0.77031 0.08790
 C571 C 0.91785 0.80577 0.12649
 C572 C 0.88184 0.80535 0.16415
 C573 C 0.84088 0.77072 0.16284
 C574 C 0.83907 0.73698 0.12415
 C575 C 0.81044 0.69309 0.10372
 C576 C 0.85019 0.69240 0.06364
 H577 H 0.94876 0.83276 0.12852
 H578 H 0.88631 0.83150 0.19440
 H579 H 0.77478 0.70125 0.08826
 H580 H 0.80935 0.66212 0.13023
 H581 H 0.83740 0.69997 0.02503
 H582 H 0.87191 0.66097 0.06705
 C583 C 0.35958 0.20654 0.62485
 C584 C 0.38638 0.24977 0.61149
 C585 C 0.37927 0.29141 0.63991
 C586 C 0.34291 0.28999 0.67678
 C587 C 0.31164 0.24750 0.68471
 C588 C 0.32334 0.20547 0.66033
 C589 C 0.29231 0.16701 0.63270
 C590 C 0.33194 0.16860 0.59332
 H591 H 0.40160 0.32504 0.63364
 H592 H 0.33984 0.32195 0.69912
 H593 H 0.25792 0.17943 0.61840
 H594 H 0.28819 0.13243 0.65393
 H595 H 0.32074 0.18270 0.55634
 H596 H 0.35019 0.13475 0.59159
 C597 C 0.12835 0.22222 0.10014
 C598 C 0.07909 0.21714 0.11160
 C599 C 0.06566 0.20146 0.16030
 C600 C 0.10148 0.19757 0.19788
 C601 C 0.15106 0.20838 0.18682
 C602 C 0.16332 0.21775 0.13669
 C603 C 0.19740 0.25644 0.11407
 C604 C 0.15887 0.26146 0.07374
 H605 H 0.02775 0.19571 0.17019
 H606 H 0.09045 0.18827 0.23587
 H607 H 0.23049 0.24195 0.09937
 H608 H 0.20407 0.28881 0.13879
 H609 H 0.16987 0.24993 0.03584
 H610 H 0.14335 0.29686 0.07500
 C611 C 0.64654 0.73120 0.59632
 C612 C 0.62221 0.77070 0.58343
 C613 C 0.64275 0.81576 0.60157
 C614 C 0.68375 0.81863 0.63406
 C615 C 0.70639 0.77671 0.64888
 C616 C 0.68867 0.73326 0.62368
 C617 C 0.69028 0.67729 0.61734
 C618 C 0.64006 0.67853 0.59014
 H619 H 0.62680 0.84856 0.59166
 H620 H 0.69741 0.85413 0.64774
 H621 H 0.71402 0.61183 0.69742
 H622 H 0.71438 0.67744 0.58335
 H623 H 0.60824 0.66308 0.61200
 H624 H 0.63980 0.66731 0.54993
   
