data_POSCAR
  _audit_creation_date              2014-09-24
  _audit_creation_method            'ToBaCCo'
  _symmetry_space_group_name_H-M    'P1'
  _symmetry_Int_Tables_number       1
  _symmetry_cell_setting            triclinic
  loop_
  _symmetry_equiv_pos_as_xyz
 x,y,z
_cell_length_a 32.7308
_cell_length_b 33.6464
_cell_length_c 33.6816
_cell_angle_alpha 94.158700
_cell_angle_beta 95.021500
_cell_angle_gamma 85.222800
loop_
  _atom_site_label
  _atom_site_type_symbol
  _atom_site_fract_x
  _atom_site_fract_y
  _atom_site_fract_z
N1 N 0.12346 0.12814 0.24492
 N2 N 0.15936 0.11426 0.26096
 C3 C 0.15442 0.10093 0.29696
 C4 C 0.11319 0.10776 0.30384
 C5 C 0.09450 0.12462 0.27000
 H6 H 0.17911 0.08911 0.31731
 H7 H 0.06242 0.13469 0.26422
 Cu8 Cu 0.20884 0.11799 0.23374
 Cu9 Cu 0.11712 0.15152 0.19363
 Cu10 Cu 0.20616 0.17976 0.15892
 N11 N 0.25372 0.11708 0.19950
 N12 N 0.25314 0.14081 0.17002
 C13 C 0.28889 0.13394 0.15251
 C14 C 0.31291 0.10436 0.17235
 C15 C 0.28946 0.09443 0.20182
 H16 H 0.29688 0.14955 0.12764
 H17 H 0.29766 0.07240 0.22353
 N18 N 0.15071 0.20444 0.14230
 N19 N 0.11701 0.19171 0.15425
 C20 C 0.08449 0.21635 0.14261
 C21 C 0.09806 0.24644 0.12269
 C22 C 0.14026 0.23780 0.12252
 H23 H 0.05376 0.21459 0.15143
 H24 H 0.16199 0.25623 0.11187
 H25 H 0.17355 0.13501 0.16942
 H26 H 0.17139 0.17765 0.20805
 N27 N -0.07167 0.92975 0.17652
 N28 N -0.10492 0.95233 0.16498
 C29 C -0.11680 0.97623 0.19641
 C30 C -0.09007 0.96774 0.22928
 C31 C -0.06166 0.93850 0.21554
 H32 H -0.14514 0.99522 0.19636
 H33 H -0.03769 0.92229 0.23343
 Cu34 Cu -0.13704 0.94231 0.11352
 Cu35 Cu -0.04839 0.88418 0.14360
 Cu36 Cu -0.10458 0.86146 0.05801
 N37 N -0.17295 0.91714 0.07157
 N38 N -0.16002 0.88619 0.04864
 C39 C -0.19195 0.87352 0.02435
 C40 C -0.22685 0.89760 0.03310
 C41 C -0.21351 0.92526 0.06286
 H42 H -0.19027 0.84724 0.00388
 H43 H -0.23214 0.94832 0.07853
 N44 N -0.05992 0.82511 0.07851
 N45 N -0.03811 0.83424 0.11209
 C46 C -0.01377 0.80201 0.12293
 C47 C -0.02140 0.77082 0.09509
 C48 C -0.05059 0.78651 0.06707
 H49 H 0.00482 0.80035 0.15102
 H50 H -0.06649 0.77026 0.04231
 H51 H -0.07799 0.91914 0.10025
 H52 H -0.10985 0.88714 0.12578
 N53 N -0.15276 0.17884 -0.22437
 N54 N -0.16612 0.14330 -0.22258
 C55 C -0.15804 0.12075 -0.25614
 C56 C -0.13897 0.14377 -0.28026
 C57 C -0.13602 0.18035 -0.25917
 H58 H -0.16649 0.09045 -0.26292
 H59 H -0.12257 0.20616 -0.26834
 Cu60 Cu -0.19641 0.13194 -0.17841
 Cu61 Cu -0.15704 0.22003 -0.18096
 Cu62 Cu -0.22380 0.20490 -0.10989
 N63 N -0.24294 0.12881 -0.14733
 N64 N -0.25388 0.15726 -0.12062
 C65 C -0.28900 0.14869 -0.10617
 C66 C -0.30106 0.11344 -0.12576
 C67 C -0.27093 0.10151 -0.15137
 H68 H -0.30567 0.16787 -0.08489
 H69 H -0.27014 0.07588 -0.17269
 N70 N -0.19830 0.25560 -0.11246
 N71 N -0.17266 0.26125 -0.13934
 C72 C -0.16054 0.29863 -0.13332
 C73 C -0.17971 0.31738 -0.10135
 C74 C -0.20348 0.28938 -0.08885
 H75 H -0.13944 0.31136 -0.15090
 H76 H -0.22282 0.29319 -0.06420
 H77 H -0.16890 0.18712 -0.13443
 H78 H -0.21358 0.20320 -0.16921
 N79 N 0.11027 0.78807 -0.25077
 N80 N 0.12834 0.82174 -0.24812
 C81 C 0.12171 0.83891 -0.28325
 C82 C 0.09816 0.81462 -0.30926
 C83 C 0.09127 0.78273 -0.28761
 H84 H 0.13328 0.86684 -0.28938
 H85 H 0.07429 0.75721 -0.29795
 Cu86 Cu 0.15888 0.83967 -0.19889
 Cu87 Cu 0.11450 0.75351 -0.20616
 Cu88 Cu 0.20702 0.76428 -0.14902
 N89 N 0.20174 0.84870 -0.15654
 N90 N 0.22305 0.81898 -0.13911
 C91 C 0.25473 0.83342 -0.11557
 C92 C 0.25218 0.87456 -0.11778
 C93 C 0.21793 0.88313 -0.14377
 H94 H 0.27766 0.81540 -0.09824
 H95 H 0.20699 0.91188 -0.15465
 N96 N 0.17512 0.71667 -0.14948
 N97 N 0.13899 0.71345 -0.16975
 C98 C 0.12345 0.67959 -0.16102
 C99 C 0.15126 0.66056 -0.13400
 C100 C 0.18362 0.68480 -0.12738
 H101 H 0.09399 0.66979 -0.17315
 H102 H 0.21063 0.68038 -0.10683
 H103 H 0.14680 0.78546 -0.15831
 H104 H 0.17310 0.76708 -0.20387
 N105 N 0.11504 1.04929 0.83222
 N106 N 0.08278 1.07274 0.82047
 C107 C 0.07287 1.06406 0.78129
 C108 C 0.10039 1.03338 0.76811
 C109 C 0.12645 1.02456 0.80129
 H110 H 0.04853 1.07988 0.76347
 H111 H 0.15310 1.00329 0.80245
 Cu112 Cu 0.05953 1.11449 0.85700
 Cu113 Cu 0.14288 1.05529 0.88529
 Cu114 Cu 0.11116 1.13892 0.94470
 N115 N 0.04813 1.16602 0.88582
 N116 N 0.06889 1.17524 0.92000
 C117 C 0.05872 1.21351 0.93173
 C118 C 0.03035 1.22937 0.90324
 C119 C 0.02394 1.19838 0.87457
 H120 H 0.07277 1.22922 0.95791
 H121 H 0.00531 1.19997 0.84649
 N122 N 0.16250 1.10590 0.95708
 N123 N 0.17443 1.07417 0.93436
 C124 C 0.21411 1.06342 0.94493
 C125 C 0.22797 1.08992 0.97535
 C126 C 0.19436 1.11610 0.98284
 H127 H 0.23275 1.04085 0.92867
 H128 H 0.19453 1.14335 1.00196
 H129 H 0.09694 1.08471 0.91633
 H130 H 0.12803 1.11621 0.88934
 N131 N 0.85273 0.88542 0.74638
 N132 N 0.88559 0.86232 0.75706
 C133 C 0.90879 0.85495 0.72596
 C134 C 0.88966 0.87496 0.69419
 C135 C 0.85429 0.89439 0.70820
 H136 H 0.93709 0.83587 0.72629
 H137 H 0.83060 0.91208 0.69141
 Cu138 Cu 0.89375 0.84242 0.80989
 Cu139 Cu 0.80966 0.89877 0.78265
 Cu140 Cu 0.80999 0.83274 0.85824
 N141 N 0.89532 0.80668 0.85226
 N142 N 0.86224 0.80056 0.86976
 C143 C 0.87099 0.76889 0.89243
 C144 C 0.91165 0.75472 0.88851
 C145 C 0.92601 0.77974 0.86313
 H146 H 0.84890 0.75577 0.90858
 H147 H 0.95554 0.77664 0.85069
 N148 N 0.76128 0.86910 0.84159
 N149 N 0.76205 0.89418 0.81325
 C150 C 0.72495 0.91404 0.80756
 C151 C 0.69930 0.90122 0.83351
 C152 C 0.72327 0.87284 0.85495
 H153 H 0.71708 0.93591 0.78562
 H154 H 0.71354 0.85591 0.87806
 H155 H 0.83493 0.88063 0.83888
 H156 H 0.81977 0.84135 0.79987
 N157 N 0.14433 0.88227 1.18993
 N158 N 0.13141 0.84866 1.19988
 C159 C 0.11046 0.85640 1.23277
 C160 C 0.11058 0.89702 1.24374
 C161 C 0.13200 0.91235 1.21558
 H162 H 0.09878 0.83388 1.24915
 H163 H 0.14124 0.94248 1.21573
 Cu164 Cu 0.14875 0.79737 1.17208
 Cu165 Cu 0.18426 0.88310 1.15109
 Cu166 Cu 0.21479 0.80111 1.09697
 N167 N 0.16285 0.75076 1.13460
 N168 N 0.18819 0.75273 1.10643
 C169 C 0.19279 0.71694 1.08630
 C170 C 0.16906 0.69102 1.10213
 C171 C 0.15019 0.71339 1.13260
 H172 H 0.21201 0.71033 1.06178
 H173 H 0.12911 0.70312 1.15192
 N174 N 0.24849 0.84670 1.10548
 N175 N 0.23637 0.87873 1.12736
 C176 C 0.26630 0.90406 1.13180
 C177 C 0.29889 0.88718 1.11136
 C178 C 0.28650 0.85089 1.09455
 H179 H 0.26490 0.93209 1.14970
 H180 H 0.30458 0.82832 1.07770
 H181 H 0.15813 0.82136 1.11978
 H182 H 0.20462 0.81244 1.15500
 N183 N 0.84474 1.18178 1.26215
 N184 N 0.86926 1.21122 1.26413
 C185 C 0.89287 1.21113 1.29873
 C186 C 0.88325 1.17999 1.31969
 C187 C 0.85263 1.16175 1.29569
 H188 H 0.91559 1.23223 1.30786
 H189 H 0.83758 1.13575 1.30200
 Cu190 Cu 0.86975 1.24882 1.22254
 Cu191 Cu 0.80532 1.17113 1.21514
 Cu192 Cu 0.80652 1.23318 1.14155
 N193 N 0.85419 1.29031 1.18574
 N194 N 0.83146 1.28396 1.15210
 C195 C 0.82827 1.31740 1.13172
 C196 C 0.84963 1.34607 1.15452
 C197 C 0.86567 1.32783 1.18842
 H198 H 0.81089 1.32103 1.10323
 H199 H 0.88480 1.34071 1.21304
 N200 N 0.78373 1.18141 1.13154
 N201 N 0.78143 1.15801 1.16082
 C202 C 0.75917 1.12713 1.14713
 C203 C 0.74757 1.13122 1.10702
 C204 C 0.76382 1.16583 1.09814
 H205 H 0.75102 1.10419 1.16524
 H206 H 0.75914 1.17994 1.07010
 H207 H 0.84991 1.19655 1.19105
 H208 H 0.81107 1.23252 1.21433
 N209 N 0.52399 1.07619 0.95721
 N210 N 0.55780 1.09241 0.94975
 N211 N 0.43223 1.05617 0.95453
 N212 N 0.39173 1.05976 0.94892
 N213 N 0.44480 1.07899 0.98575
 N214 N 0.41318 1.09874 1.00199
 N215 N 0.51078 1.05359 0.92605
 N216 N 0.53485 1.05417 0.89683
 C217 C 0.56362 1.07880 0.91166
 C218 C 0.38042 1.08681 0.97837
 N219 N 0.44089 0.93935 0.95422
 N220 N 0.40864 0.91769 0.95335
 N221 N 0.50914 0.96876 0.90751
 N222 N 0.53202 0.97050 0.87742
 N223 N 0.52080 0.93680 0.92712
 N224 N 0.55242 0.91655 0.91124
 N225 N 0.43072 0.97213 0.93564
 N226 N 0.39182 0.97404 0.92209
 Mn227 Mn 0.47057 1.01279 0.93061
 C228 C 0.37829 0.94015 0.93317
 C229 C 0.55858 0.93765 0.87991
 N230 N 0.48110 1.06395 1.06446
 N231 N 0.45007 1.08419 1.08152
 N232 N 0.57218 1.03014 1.05575
 N233 N 0.61180 1.03022 1.06787
 N234 N 0.56015 1.06184 1.03595
 N235 N 0.59110 1.08384 1.03337
 N236 N 0.49370 1.03220 1.08402
 N237 N 0.47218 1.03040 1.11499
 Mn238 Mn 0.50249 1.07077 1.01093
 C239 C 0.44534 1.06301 1.11329
 C240 C 0.62295 1.06405 1.05356
 N241 N 0.55730 0.92196 1.00595
 N242 N 0.58893 0.90008 0.99177
 N243 N 0.49100 0.94751 1.06518
 N244 N 0.46677 0.94639 1.09430
 N245 N 0.47778 0.92507 1.03380
 N246 N 0.44422 0.90838 1.04098
 N247 N 0.56984 0.94519 1.03692
 N248 N 0.61003 0.93984 1.04448
 Mn249 Mn 0.49913 0.93013 0.98024
 Mn250 Mn 0.53200 0.98854 1.06086
 Cl251 Cl 0.50108 1.00053 0.99567
 C252 C 0.62146 0.91138 1.01641
 C253 C 0.43820 0.92147 1.07910
 N254 N -0.07097 0.48092 -0.05823
 N255 N -0.08910 0.45085 -0.07779
 N256 N -0.05871 0.56922 -0.02972
 N257 N -0.06877 0.60796 -0.03205
 N258 N -0.03696 0.55528 -0.05934
 N259 N -0.03101 0.58410 -0.08218
 N260 N -0.09174 0.49496 -0.02790
 N261 N -0.12446 0.47497 -0.02614
 C262 C -0.12269 0.44795 -0.05773
 C263 C -0.05135 0.61661 -0.06509
 N264 N -0.01131 0.55969 0.08081
 N265 N 0.00517 0.59040 0.10079
 N266 N -0.07582 0.49734 0.05760
 N267 N -0.10969 0.48183 0.06595
 N268 N -0.04463 0.48581 0.08246
 N269 N -0.05633 0.46266 0.10855
 N270 N -0.04207 0.57193 0.05578
 N271 N -0.04695 0.61132 0.05782
 Mn272 Mn -0.06761 0.53361 0.01404
 C273 C -0.01759 0.62225 0.08634
 C274 C -0.09677 0.46019 0.09771
 N275 N 0.04319 0.51490 -0.06786
 N276 N 0.05516 0.54209 -0.08993
 N277 N 0.03948 0.42790 -0.04175
 N278 N 0.04560 0.38857 -0.04575
 N279 N 0.00901 0.44056 -0.06689
 N280 N -0.00630 0.41025 -0.08867
 N281 N 0.07391 0.50167 -0.04335
 N282 N 0.10750 0.51918 -0.04824
 Mn283 Mn -0.01402 0.49797 -0.06363
 C284 C 0.09551 0.54403 -0.07749
 C285 C 0.01700 0.37813 -0.07534
 N286 N 0.03498 0.44504 0.07378
 N287 N 0.03051 0.41643 0.09747
 N288 N 0.08967 0.50522 0.04209
 N289 N 0.12130 0.52647 0.03928
 N290 N 0.06874 0.51967 0.07219
 N291 N 0.08561 0.55117 0.09036
 N292 N 0.05631 0.43104 0.04389
 N293 N 0.06770 0.39270 0.04684
 Mn294 Mn 0.01205 0.50252 0.07778
 Mn295 Mn 0.06525 0.46614 0.00015
 Cl296 Cl -0.00110 0.50006 0.00706
 C297 C 0.05136 0.38412 0.08043
 C298 C 0.11868 0.55464 0.06987
 N299 N 0.92296 -0.02027 0.44058
 N300 N 0.90266 -0.00438 0.40921
 N301 N 0.94645 -0.08006 0.50570
 N302 N 0.94485 -0.10942 0.52922
 N303 N 0.92315 -0.04852 0.51789
 N304 N 0.90565 -0.05580 0.55031
 N305 N 0.94753 -0.05112 0.42928
 N306 N 0.94460 -0.05685 0.38998
 C307 C 0.91610 -0.02779 0.37801
 C308 C 0.91896 -0.09424 0.55646
 N309 N 1.06580 -0.07959 0.52194
 N310 N 1.08494 -0.09642 0.55346
 N311 N 1.03528 -0.07088 0.43181
 N312 N 1.03569 -0.08123 0.39317
 N313 N 1.06766 -0.05164 0.44469
 N314 N 1.09052 -0.04775 0.41504
 N315 N 1.03398 -0.09927 0.50800
 N316 N 1.03119 -0.13029 0.52914
 Mn317 Mn 0.99061 -0.07572 0.46834
 C318 C 1.06321 -0.12834 0.55712
 C319 C 1.07056 -0.06676 0.38332
 N320 N 0.93525 0.03167 0.55254
 N321 N 0.90549 0.04407 0.57583
 N322 N 0.96883 0.07750 0.48773
 N323 N 0.96949 0.10997 0.46826
 N324 N 0.93628 0.05832 0.47527
 N325 N 0.91427 0.07701 0.44640
 N326 N 0.96851 0.05020 0.56415
 N327 N 0.96216 0.07514 0.59529
 Mn328 Mn 0.92886 0.00514 0.49660
 C329 C 0.92337 0.07023 0.60311
 C330 C 0.93537 0.10932 0.44270
 N331 N 1.08060 0.02737 0.47930
 N332 N 1.09709 0.03385 0.44599
 N333 N 1.05516 0.03101 0.56688
 N334 N 1.05874 0.03948 0.60578
 N335 N 1.07942 -0.00054 0.55704
 N336 N 1.10038 -0.01430 0.58924
 N337 N 1.05628 0.05860 0.49018
 N338 N 1.05591 0.08666 0.46487
 Mn339 Mn 1.07403 -0.02626 0.50087
 Mn340 Mn 1.01243 0.05445 0.52732
 Cl341 Cl 1.00147 -0.01062 0.49834
 C342 C 1.08197 0.07136 0.43793
 C343 C 1.08733 0.01132 0.61927
 N344 N 1.04780 0.10888 0.38274
 N345 N 1.05570 0.11757 0.34458
 C346 C 1.09425 0.10250 0.33843
 C347 C 1.11145 0.08322 0.37194
 C348 C 1.08124 0.08797 0.39881
 H349 H 1.14170 0.06778 0.37621
 H350 H 1.01999 0.11632 0.39549
 H351 H 1.03517 0.13406 0.32541
 N352 N 0.87774 0.00979 0.32340
 N353 N 0.87664 0.00912 0.28401
 C354 C 0.90407 -0.02011 0.27129
 C355 C 0.92328 -0.03895 0.30382
 C356 C 0.90557 -0.01927 0.33616
 H357 H 0.94629 -0.06399 0.30398
 H358 H 0.85953 0.02964 0.34101
 H359 H 0.85721 0.02818 0.26634
 N360 N 0.90335 0.13963 0.62535
 N361 N 0.88774 0.15924 0.65651
 C362 C 0.87530 0.13266 0.68000
 C363 C 0.88272 0.09426 0.66266
 C364 C 0.90083 0.10023 0.62812
 H365 H 0.87914 0.06615 0.67518
 H366 H 0.91728 0.15298 0.60351
 H367 H 0.88723 0.19020 0.66213
 N368 N 1.04976 -0.18830 0.59109
 N369 N 1.05848 -0.20312 0.62633
 C370 C 1.08355 -0.17913 0.64887
 C371 C 1.09148 -0.14770 0.62682
 C372 C 1.06931 -0.15474 0.59034
 H373 H 1.10933 -0.12256 0.63643
 H374 H 1.03008 -0.20066 0.56826
 H375 H 1.04663 -0.22880 0.63486
 N376 N 0.41019 1.04864 1.17180
 N377 N 0.37284 1.05952 1.18781
 C378 C 0.35240 1.08758 1.16541
 C379 C 0.37626 1.09545 1.13494
 C380 C 0.41200 1.07021 1.14001
 H381 H 0.36805 1.11548 1.11129
 H382 H 0.43187 1.02643 1.18222
 H383 H 0.36305 1.04694 1.21244
 N384 N 0.30634 0.96010 0.91246
 N385 N 0.27128 0.94189 0.89716
 C386 C 0.27917 0.90218 0.89952
 C387 C 0.31900 0.89418 0.91723
 C388 C 0.33514 0.93136 0.92387
 H389 H 0.33540 0.86520 0.92074
 H390 H 0.31016 0.99050 0.91156
 H391 H 0.24485 0.95708 0.88438
 N392 N 0.67760 0.86839 0.98520
 N393 N 0.72057 0.86491 0.98984
 C394 C 0.73251 0.89278 1.01837
 C395 C 0.69809 0.91434 1.03229
 C396 C 0.66460 0.89809 1.01114
 H397 H 0.69727 0.93837 1.05546
 H398 H 0.65942 0.85038 0.96559
 H399 H 0.73933 0.84391 0.97403
 N400 N 0.61205 1.05589 0.86125
 N401 N 0.65074 1.06441 0.85177
 C402 C 0.66244 1.09547 0.87645
 C403 C 0.63212 1.10703 0.90244
 C404 C 0.60126 1.08147 0.89182
 H405 H 0.63250 1.13062 0.92606
 H406 H 0.59546 1.03275 0.84752
 H407 H 0.66662 1.04932 0.82891
 N408 N 0.02502 0.33160 0.11686
 N409 N 0.03681 0.29503 0.12707
 C410 C 0.07361 0.28379 0.11291
 C411 C 0.08550 0.31445 0.09211
 C412 C 0.05377 0.34421 0.09560
 H413 H 0.11379 0.31564 0.07799
 H414 H -0.00217 0.34763 0.12461
 H415 H 0.02033 0.27878 0.14460
 N416 N -0.18151 0.41075 -0.04304
 N417 N -0.19636 0.37597 -0.05421
 C418 C -0.17454 0.35800 -0.08352
 C419 C -0.14473 0.38247 -0.09161
 C420 C -0.15007 0.41545 -0.06509
 H421 H -0.12098 0.37615 -0.11212
 H422 H -0.19192 0.43019 -0.01981
 H423 H -0.22033 0.36454 -0.04120
 N424 N 0.16191 0.57485 -0.07575
 N425 N 0.17659 0.60566 -0.09030
 C426 C 0.14677 0.62360 -0.11447
 C427 C 0.11149 0.60316 -0.11555
 C428 C 0.12248 0.57257 -0.09036
 H429 H 0.08170 0.61050 -0.13098
 H430 H 0.17846 0.55639 -0.05537
 H431 H 0.20632 0.61446 -0.08307
 N432 N 0.01952 0.67513 0.12633
 N433 N 0.01913 0.71452 0.12814
 C434 C -0.00882 0.72843 0.09965
 C435 C -0.02701 0.69670 0.07885
 C436 C -0.00842 0.66360 0.09694
 H437 H -0.05133 0.69755 0.05492
 H438 H 0.03800 0.65673 0.14545
 H439 H 0.03708 0.73137 0.14912
 N440 N 1.12862 -0.01928 0.67680
 N441 N 1.13170 -0.01360 0.71618
 C442 C 1.10444 0.01677 0.72687
 C443 C 1.08314 0.03104 0.69289
 C444 C 1.09954 0.00752 0.66185
 H445 H 1.05955 0.05551 0.69091
 H446 H 1.14647 -0.04082 0.66063
 H447 H 1.15244 -0.03005 0.73520
 N448 N 0.93656 -0.14831 0.60249
 N449 N 0.92987 -0.15588 0.63915
 C450 C 0.90301 -0.12704 0.65350
 C451 C 0.89202 -0.09978 0.62468
 C452 C 0.91432 -0.11435 0.59287
 H453 H 0.87238 -0.07236 0.62726
 H454 H 0.95720 -0.16545 0.58500
 H455 H 0.94400 -0.18017 0.65409
 N456 N 1.09928 -0.03470 0.32937
 N457 N 1.10887 -0.04378 0.29241
 C458 C 1.09887 -0.08129 0.28126
 C459 C 1.08121 -0.09651 0.31246
 C460 C 1.08246 -0.06594 0.34243
 H461 H 1.07124 -0.12617 0.31400
 H462 H 1.10468 -0.00765 0.34546
 H463 H 1.12329 -0.02481 0.27583
 N464 N 0.94575 0.17163 0.41175
 N465 N 0.93232 0.19008 0.37937
 C466 C 0.90312 0.16914 0.35875
 C467 C 0.89746 0.13585 0.37914
 C468 C 0.92534 0.13866 0.41254
 H469 H 0.87743 0.11222 0.37014
 H470 H 0.96919 0.18114 0.43244
 H471 H 0.94378 0.21616 0.37140
 N472 N -0.01779 0.32579 -0.11907
 N473 N -0.01446 0.28636 -0.12471
 C474 C 0.01567 0.27174 -0.09865
 C475 C 0.03223 0.30308 -0.07551
 C476 C 0.01039 0.33675 -0.08960
 H477 H 0.05733 0.30172 -0.05237
 H478 H -0.03880 0.34470 -0.13538
 H479 H -0.03239 0.27001 -0.14616
 N480 N -0.12668 0.44770 0.15958
 N481 N -0.14001 0.41680 0.17509
 C482 C -0.14513 0.38750 0.14611
 C483 C -0.13503 0.40053 0.11031
 C484 C -0.12316 0.43890 0.12037
 H485 H -0.13111 0.38275 0.08262
 H486 H -0.11698 0.47310 0.17628
 H487 H -0.14282 0.41493 0.20554
 N488 N -0.01943 0.66753 -0.09859
 N489 N -0.02871 0.70403 -0.11007
 C490 C -0.06619 0.71722 -0.09859
 C491 C -0.08115 0.68786 -0.07802
 C492 C -0.05047 0.65676 -0.07910
 H493 H -0.11093 0.68805 -0.06634
 H494 H 0.00749 0.65009 -0.10471
 H495 H -0.01001 0.71885 -0.12673
 N496 N 0.17560 0.59291 0.05297
 N497 N 0.18852 0.62895 0.06110
 C498 C 0.16530 0.64878 0.08840
 C499 C 0.13643 0.62406 0.09841
 C500 C 0.14399 0.58896 0.07500
 H501 H 0.11199 0.63136 0.11799
 H502 H 0.18744 0.57196 0.03169
 H503 H 0.21228 0.63987 0.04734
 N504 N 0.32518 1.12150 1.01781
 N505 N 0.28474 1.12154 1.01770
 C506 C 0.27124 1.09588 0.98777
 C507 C 0.30426 1.07906 0.96789
 C508 C 0.33771 1.09619 0.98765
 H509 H 0.30398 1.05802 0.94206
 H510 H 0.34364 1.13862 1.03806
 H511 H 0.26691 1.13906 1.03760
 N512 N 0.39028 0.93902 1.13166
 N513 N 0.35320 0.93091 1.13951
 C514 C 0.33951 0.90299 1.11198
 C515 C 0.36920 0.89285 1.08523
 C516 C 0.40085 0.91666 1.09883
 H517 H 0.36741 0.87231 1.05899
 H518 H 0.40745 0.96040 1.14794
 H519 H 0.33763 0.94453 1.16330
 N520 N 0.67972 1.09446 1.02662
 N521 N 0.71267 1.11259 1.04075
 C522 C 0.71905 1.10795 1.08025
 C523 C 0.68925 1.08493 1.09164
 C524 C 0.66464 1.07748 1.05665
 H525 H 0.68324 1.07902 1.12167
 H526 H 0.66641 1.09584 0.99735
 H527 H 0.72887 1.12983 1.02391
 N528 N 0.59754 0.94944 0.82264
 N529 N 0.63475 0.94037 0.81082
 C530 C 0.65566 0.91522 0.83614
 C531 C 0.63039 0.90759 0.86528
 C532 C 0.59389 0.93022 0.85565
 H533 H 0.63822 0.89019 0.89105
 H534 H 0.57549 0.96932 0.80882
 H535 H 0.64567 0.95206 0.78625
   
