data_POSCAR
  _audit_creation_date              2014-09-24
  _audit_creation_method            'ToBaCCo'
  _symmetry_space_group_name_H-M    'P1'
  _symmetry_Int_Tables_number       1
  _symmetry_cell_setting            triclinic
  loop_
  _symmetry_equiv_pos_as_xyz
 x,y,z
_cell_length_a 45.7466
_cell_length_b 49.1867
_cell_length_c 46.4312
_cell_angle_alpha 89.929900
_cell_angle_beta 90.032300
_cell_angle_gamma 90.056600
loop_
  _atom_site_label
  _atom_site_type_symbol
  _atom_site_fract_x
  _atom_site_fract_y
  _atom_site_fract_z
C1 C 1.20912 0.26031 0.29446
 H2 H 1.20770 0.23836 0.29512
 C3 C 1.19189 0.27596 0.31293
 H4 H 1.17707 0.26608 0.32784
 C5 C 1.23018 0.30009 0.27430
 H6 H 1.24534 0.30945 0.25948
 C7 C 1.21337 0.31648 0.29239
 H8 H 1.21545 0.33839 0.29124
 N9 N 1.22743 0.27254 0.27531
 C10 C 1.23757 0.21445 0.20514
 H11 H 1.26116 0.21350 0.20387
 C12 C 1.22049 0.19895 0.18639
 H13 H 1.23091 0.18590 0.17068
 C14 C 1.19508 0.23249 0.22726
 H15 H 1.18523 0.24577 0.24299
 C16 C 1.17719 0.21732 0.20891
 H17 H 1.15364 0.21872 0.21080
 Zn18 Zn 1.24963 0.24999 0.25051
 N19 N 1.22470 0.23040 0.22542
 C20 C 1.26764 0.19824 0.27115
 N21 N 1.27128 0.22559 0.27388
 C22 C 1.28966 0.23617 0.29403
 C23 C 1.30594 0.21900 0.31188
 C24 C 1.28345 0.18033 0.28854
 C25 C 1.26207 0.28829 0.20776
 C26 C 1.27924 0.30449 0.18973
 C27 C 1.32243 0.28480 0.21127
 C28 C 1.30444 0.26895 0.22893
 N29 N 1.27483 0.27124 0.22715
 H30 H 1.25237 0.19018 0.25561
 H31 H 1.29175 0.25799 0.29610
 H32 H 1.32072 0.22769 0.32765
 H33 H 1.28048 0.15860 0.28598
 H34 H 1.23849 0.28939 0.20647
 H35 H 1.26889 0.31821 0.17458
 H36 H 1.34597 0.28304 0.21296
 H37 H 1.31419 0.25483 0.24393
 C38 C 1.19004 0.20024 0.18847
 C39 C 1.19391 0.30430 0.31173
 C40 C 1.30969 0.30280 0.19160
 C41 C 1.30290 0.19079 0.30902
 C42 C 0.71125 -0.23641 0.29318
 H43 H 0.70918 -0.25824 0.29529
 C44 C 0.69500 -0.21926 0.31099
 H45 H 0.68021 -0.22785 0.32679
 C46 C 0.73323 -0.19843 0.27024
 H47 H 0.74847 -0.19035 0.25470
 C48 C 0.71741 -0.18058 0.28762
 H49 H 0.72026 -0.15884 0.28513
 N50 N 0.72960 -0.22579 0.27302
 C51 C 0.73869 -0.28842 0.20710
 H52 H 0.76227 -0.28960 0.20588
 C53 C 0.72148 -0.30451 0.18904
 H54 H 0.73180 -0.31826 0.17393
 C55 C 0.69637 -0.26892 0.22811
 H56 H 0.68666 -0.25478 0.24306
 C57 C 0.67834 -0.28466 0.21042
 H58 H 0.65481 -0.28281 0.21203
 Zn59 Zn 0.75119 -0.25019 0.24975
 N60 N 0.72597 -0.27135 0.22642
 C61 C 0.77051 -0.30028 0.27371
 N62 N 0.77330 -0.27274 0.27462
 C63 C 0.79159 -0.26049 0.29377
 C64 C 0.80876 -0.27613 0.31236
 C65 C 0.78725 -0.31666 0.29193
 C66 C 0.76329 -0.21470 0.20433
 C67 C 0.78039 -0.19926 0.18554
 C68 C 0.82366 -0.21774 0.20811
 C69 C 0.80576 -0.23285 0.22651
 N70 N 0.77614 -0.23067 0.22466
 H71 H 0.75536 -0.30964 0.25889
 H72 H 0.79304 -0.23854 0.29435
 H73 H 0.82355 -0.26625 0.32728
 H74 H 0.78515 -0.33858 0.29087
 H75 H 0.73970 -0.21369 0.20307
 H76 H 0.76999 -0.18619 0.16979
 H77 H 0.84722 -0.21920 0.21001
 H78 H 0.81557 -0.24615 0.24228
 C79 C 0.69104 -0.30269 0.19081
 C80 C 0.69804 -0.19110 0.30807
 C81 C 0.81083 -0.20064 0.18763
 C82 C 0.80668 -0.30447 0.31127
 C83 C 0.70902 0.26036 -0.20764
 H84 H 0.70866 0.23843 -0.20593
 C85 C 0.69133 0.27606 -0.18961
 H86 H 0.67720 0.26621 -0.17405
 C87 C 0.72817 0.30010 -0.22966
 H88 H 0.74287 0.30945 -0.24491
 C89 C 0.71086 0.31652 -0.21205
 H90 H 0.71209 0.33844 -0.21406
 N91 N 0.72671 0.27252 -0.22741
 C92 C 0.74158 0.21157 -0.29425
 H93 H 0.76520 0.21210 -0.29534
 C94 C 0.72589 0.19413 -0.31227
 H95 H 0.73741 0.18114 -0.32728
 C96 C 0.69764 0.22780 -0.27335
 H97 H 0.68669 0.24111 -0.25838
 C98 C 0.68111 0.21066 -0.29100
 H99 H 0.65749 0.21068 -0.28938
 Zn100 Zn 0.75055 0.24996 -0.25075
 N101 N 0.72736 0.22762 -0.27494
 C102 C 0.77211 0.20054 -0.22724
 N103 N 0.77348 0.22815 -0.22577
 C104 C 0.79073 0.24083 -0.20599
 C105 C 0.80825 0.22560 -0.18732
 C106 C 0.78924 0.18458 -0.20898
 C107 C 0.76175 0.28712 -0.29521
 C108 C 0.77852 0.30345 -0.31350
 C109 C 0.82215 0.28631 -0.29034
 C110 C 0.80454 0.27033 -0.27249
 N111 N 0.77489 0.27133 -0.27490
 H112 H 0.75774 0.19078 -0.24251
 H113 H 0.79104 0.26280 -0.20495
 H114 H 0.82219 0.23583 -0.17187
 H115 H 0.78821 0.16262 -0.21048
 H116 H 0.73817 0.28718 -0.29698
 H117 H 0.76773 0.31620 -0.32932
 H118 H 0.84571 0.28554 -0.28797
 H119 H 0.81464 0.25715 -0.25677
 C120 C 0.69539 0.19354 -0.31046
 C121 C 0.69222 0.30440 -0.19192
 C122 C 0.80902 0.30317 -0.31093
 C123 C 0.80760 0.19722 -0.18898
 C124 C 1.20936 -0.24050 -0.20443
 H125 H 1.20920 -0.26247 -0.20350
 C126 C 1.19183 -0.22550 -0.18563
 H127 H 1.17803 -0.23590 -0.17019
 C128 C 1.22760 -0.19996 -0.22558
 H129 H 1.24183 -0.19003 -0.24086
 C130 C 1.21046 -0.18423 -0.20719
 H131 H 1.21132 -0.16225 -0.20861
 N132 N 1.22639 -0.22758 -0.22422
 C133 C 1.23808 -0.28596 -0.29386
 H134 H 1.26165 -0.28595 -0.29568
 C135 C 1.22129 -0.30216 -0.31222
 H136 H 1.23193 -0.31480 -0.32816
 C137 C 1.19530 -0.26945 -0.27095
 H138 H 1.18520 -0.25641 -0.25516
 C139 C 1.17771 -0.28532 -0.28889
 H140 H 1.15415 -0.28472 -0.28659
 Zn141 Zn 1.24925 -0.24909 -0.24934
 N142 N 1.22494 -0.27037 -0.27343
 C143 C 1.27202 -0.29916 -0.22852
 N144 N 1.27331 -0.27159 -0.22621
 C145 C 1.29097 -0.25939 -0.20647
 C146 C 1.30882 -0.27503 -0.18852
 C147 C 1.28950 -0.31554 -0.21099
 C148 C 1.25767 -0.21052 -0.29273
 C149 C 1.27314 -0.19300 -0.31085
 C150 C 1.31816 -0.20947 -0.28991
 C151 C 1.30185 -0.22668 -0.27215
 N152 N 1.27213 -0.22657 -0.27354
 H153 H 1.25732 -0.30854 -0.24375
 H154 H 1.29118 -0.23746 -0.20473
 H155 H 1.32294 -0.26517 -0.17296
 H156 H 1.28841 -0.33746 -0.21302
 H157 H 1.23405 -0.21114 -0.29366
 H158 H 1.26146 -0.18002 -0.32579
 H159 H 1.34180 -0.20943 -0.28848
 H160 H 1.31298 -0.24001 -0.25728
 C161 C 1.19085 -0.30193 -0.30957
 C162 C 1.19229 -0.19712 -0.18720
 C163 C 1.30365 -0.19236 -0.30926
 C164 C 1.30811 -0.30336 -0.19089
 C165 C 0.25825 0.21012 0.70760
 H166 H 0.23463 0.21066 0.70665
 C167 C 0.27378 0.19273 0.68946
 H168 H 0.26213 0.17976 0.67449
 C169 C 0.30238 0.22638 0.72823
 H170 H 0.31346 0.23970 0.74313
 C171 C 0.31874 0.20929 0.71046
 H172 H 0.34238 0.20933 0.71190
 N173 N 0.27265 0.22616 0.72682
 C174 C 0.20972 0.23967 0.79587
 H175 H 0.20953 0.26165 0.79682
 C176 C 0.19215 0.22457 0.81461
 H177 H 0.17831 0.23495 0.83001
 C178 C 0.22806 0.19927 0.77472
 H179 H 0.24234 0.18944 0.75946
 C180 C 0.21090 0.18341 0.79304
 H181 H 0.21184 0.16143 0.79154
 Zn182 Zn 0.24969 0.24855 0.75101
 N183 N 0.22682 0.22688 0.77611
 C184 C 0.19570 0.26880 0.72933
 N185 N 0.22534 0.26982 0.72688
 C186 C 0.23846 0.28550 0.70646
 C187 C 0.22167 0.30170 0.68810
 C188 C 0.17810 0.28467 0.71139
 C189 C 0.29140 0.25899 0.79391
 C190 C 0.30920 0.27470 0.81185
 C191 C 0.28969 0.31514 0.78937
 C192 C 0.27227 0.29869 0.77186
 N193 N 0.27367 0.27113 0.77417
 H194 H 0.18560 0.25569 0.74512
 H195 H 0.26204 0.28557 0.70466
 H196 H 0.23229 0.31441 0.67216
 H197 H 0.15454 0.28398 0.71368
 H198 H 0.29171 0.23705 0.79566
 H199 H 0.32337 0.26489 0.82739
 H200 H 0.28851 0.33706 0.78733
 H201 H 0.25753 0.30802 0.75663
 C202 C 0.19263 0.19617 0.81302
 C203 C 0.30428 0.19219 0.69106
 C204 C 0.30837 0.30304 0.80947
 C205 C 0.19122 0.30137 0.69072
 C206 C 0.76089 0.71346 0.70606
 H207 H 0.73731 0.71339 0.70426
 C208 C 0.77765 0.69719 0.68779
 H209 H 0.76700 0.68444 0.67193
 C210 C 0.80369 0.73021 0.72883
 H211 H 0.81381 0.74335 0.74455
 C212 C 0.82126 0.71427 0.71098
 H213 H 0.84482 0.71495 0.71326
 N214 N 0.77404 0.72920 0.72639
 C215 C 0.70808 0.73999 0.79353
 H216 H 0.70774 0.76193 0.79522
 C217 C 0.69033 0.72425 0.81151
 H218 H 0.67618 0.73411 0.82702
 C219 C 0.72726 0.70033 0.77157
 H220 H 0.74200 0.69103 0.75636
 C221 C 0.70990 0.68383 0.78912
 H222 H 0.71118 0.66192 0.78707
 Zn223 Zn 0.74971 0.75051 0.75050
 N224 N 0.72581 0.72789 0.77381
 C225 C 0.69689 0.77267 0.72777
 N226 N 0.72661 0.77287 0.72625
 C227 C 0.74090 0.78892 0.70693
 C228 C 0.72528 0.80635 0.68883
 C229 C 0.68043 0.78979 0.71004
 C230 C 0.78987 0.75959 0.79526
 C231 C 0.80746 0.77479 0.81389
 C232 C 0.78852 0.81583 0.79216
 C233 C 0.77133 0.79989 0.77395
 N234 N 0.77265 0.77228 0.77547
 H235 H 0.68587 0.75934 0.74275
 H236 H 0.76452 0.78840 0.70590
 H237 H 0.73686 0.81934 0.67381
 H238 H 0.65680 0.78976 0.71160
 H239 H 0.79013 0.73761 0.79633
 H240 H 0.82140 0.76455 0.82933
 H241 H 0.78756 0.83779 0.79061
 H242 H 0.75698 0.80967 0.75867
 C243 C 0.69119 0.69589 0.80922
 C244 C 0.80811 0.69750 0.69041
 C245 C 0.80688 0.80317 0.81216
 C246 C 0.69478 0.80692 0.69056
 C247 C 0.76352 0.21491 0.20360
 H248 H 0.73993 0.21381 0.20235
 C249 C 0.78064 0.19958 0.18480
 H250 H 0.77027 0.18650 0.16905
 C251 C 0.80596 0.23314 0.22577
 H252 H 0.81575 0.24644 0.24155
 C253 C 0.82389 0.21816 0.20737
 H254 H 0.84744 0.21969 0.20926
 N255 N 0.77635 0.23086 0.22394
 C256 C 0.71157 0.23622 0.29252
 H257 H 0.70951 0.25803 0.29463
 C258 C 0.69537 0.21900 0.31037
 H259 H 0.68063 0.22752 0.32621
 C260 C 0.73348 0.19834 0.26951
 H261 H 0.74869 0.19032 0.25392
 C262 C 0.71771 0.18042 0.28692
 H263 H 0.72055 0.15868 0.28442
 Zn264 Zn 0.75139 0.25020 0.24905
 N265 N 0.72986 0.22568 0.27230
 C266 C 0.69654 0.26883 0.22751
 N267 N 0.72613 0.27137 0.22579
 C268 C 0.73881 0.28856 0.20651
 C269 C 0.72157 0.30468 0.18850
 C270 C 0.67848 0.28459 0.20987
 C271 C 0.79175 0.26039 0.29308
 C272 C 0.80889 0.27597 0.31173
 C273 C 0.78740 0.31655 0.29139
 C274 C 0.77068 0.30023 0.27311
 N275 N 0.77348 0.27269 0.27395
 H276 H 0.68687 0.25459 0.24243
 H277 H 0.76239 0.28983 0.20527
 H278 H 0.73184 0.31852 0.17342
 H279 H 0.65494 0.28266 0.21150
 H280 H 0.79320 0.23844 0.29360
 H281 H 0.82368 0.26605 0.32664
 H282 H 0.78530 0.33847 0.29039
 H283 H 0.75554 0.30963 0.25831
 C284 C 0.69840 0.19085 0.30743
 C285 C 0.81108 0.20106 0.18689
 C286 C 0.80681 0.30431 0.31072
 C287 C 0.69113 0.30274 0.19029
 C288 C 0.26211 0.71181 0.20732
 H289 H 0.23852 0.71075 0.20605
 C290 C 0.27921 0.69562 0.18929
 H291 H 0.26879 0.68194 0.17415
 C292 C 0.30457 0.73103 0.22847
 H293 H 0.31438 0.74509 0.24347
 C294 C 0.32248 0.71518 0.21080
 H295 H 0.34603 0.71689 0.21249
 N296 N 0.27495 0.72879 0.22670
 C297 C 0.20940 0.73952 0.29420
 H298 H 0.20804 0.76147 0.29491
 C299 C 0.19218 0.72381 0.31270
 H300 H 0.17744 0.73363 0.32767
 C301 C 0.23029 0.69981 0.27391
 H302 H 0.24539 0.69050 0.25904
 C303 C 0.21350 0.68336 0.29203
 H304 H 0.21552 0.66144 0.29084
 Zn305 Zn 0.24984 0.74999 0.25015
 N306 N 0.22763 0.72735 0.27497
 C307 C 0.19527 0.76765 0.22708
 N308 N 0.22489 0.76972 0.22515
 C309 C 0.23774 0.78575 0.20487
 C310 C 0.22065 0.80137 0.18623
 C311 C 0.17737 0.78293 0.20883
 C312 C 0.29001 0.76365 0.29364
 C313 C 0.30634 0.78076 0.31152
 C314 C 0.28390 0.81951 0.28828
 C315 C 0.26804 0.80167 0.27086
 N316 N 0.27162 0.77431 0.27353
 H317 H 0.18544 0.75431 0.24281
 H318 H 0.26133 0.78670 0.20353
 H319 H 0.23106 0.81448 0.17051
 H320 H 0.15382 0.78154 0.21079
 H321 H 0.29205 0.74182 0.29568
 H322 H 0.32111 0.77200 0.32726
 H323 H 0.28096 0.84125 0.28577
 H324 H 0.25276 0.80979 0.25536
 C325 C 0.19413 0.69546 0.31145
 C326 C 0.30967 0.69723 0.19114
 C327 C 0.30334 0.80898 0.30873
 C328 C 0.19020 0.80010 0.18840
 N329 N 1.05197 0.02883 0.03155
 N330 N 1.07174 0.04775 0.03685
 N331 N 1.03160 -0.02833 0.05159
 N332 N 1.03699 -0.04722 0.07111
 N333 N 1.05192 -0.02832 0.03161
 N334 N 1.07169 -0.04720 0.03697
 N335 N 1.03166 0.02882 0.05154
 N336 N 1.03704 0.04773 0.07099
 C337 C 1.06187 0.05950 0.06127
 C338 C 1.06182 -0.05896 0.06144
 N339 N 0.94834 -0.02830 0.03140
 N340 N 0.92867 -0.04735 0.03654
 N341 N 0.96869 0.02882 0.05138
 N342 N 0.96347 0.04791 0.07066
 N343 N 0.94842 0.02883 0.03133
 N344 N 0.92884 0.04792 0.03640
 N345 N 0.96861 -0.02832 0.05144
 N346 N 0.96332 -0.04738 0.07078
 Mn347 Mn 1.00013 0.00025 0.05179
 C348 C 0.93857 -0.05920 0.06095
 C349 C 0.93877 0.05976 0.06077
 N350 N 1.05192 -0.02828 -0.03043
 N351 N 1.07161 -0.04726 -0.03556
 N352 N 1.03175 0.02886 -0.05056
 N353 N 1.03724 0.04776 -0.07004
 N354 N 1.05201 0.02884 -0.03049
 N355 N 1.07183 0.04771 -0.03576
 N356 N 1.03167 -0.02829 -0.05049
 N357 N 1.03701 -0.04728 -0.06985
 Mn358 Mn 1.05225 0.00027 0.00056
 C359 C 1.06175 -0.05907 -0.05997
 C360 C 1.06206 0.05949 -0.06024
 N361 N 0.94841 0.02886 -0.03071
 N362 N 0.92855 0.04764 -0.03614
 N363 N 0.96864 -0.02829 -0.05065
 N364 N 0.96313 -0.04711 -0.07017
 N365 N 0.94834 -0.02828 -0.03065
 N366 N 0.92847 -0.04709 -0.03600
 N367 N 0.96871 0.02888 -0.05071
 N368 N 0.96321 0.04767 -0.07030
 Mn369 Mn 0.94808 0.00028 0.00035
 Mn370 Mn 1.00020 0.00029 -0.05090
 Cl371 Cl 1.00017 0.00027 0.00044
 C372 C 0.93834 0.05935 -0.06065
 C373 C 0.93825 -0.05881 -0.06047
 N374 N 1.05162 0.52812 0.53264
 N375 N 1.07152 0.54687 0.53811
 N376 N 1.03128 0.47093 0.55257
 N377 N 1.03686 0.45221 0.57222
 N378 N 1.05160 0.47099 0.53258
 N379 N 1.07155 0.45232 0.53808
 N380 N 1.03131 0.52807 0.55263
 N381 N 1.03683 0.54678 0.57226
 C382 C 1.06173 0.55849 0.56264
 C383 C 1.06179 0.44061 0.56261
 N384 N 0.94796 0.47094 0.53244
 N385 N 0.92786 0.45237 0.53797
 N386 N 0.96826 0.52805 0.55257
 N387 N 0.96258 0.54663 0.57229
 N388 N 0.94800 0.52809 0.53250
 N389 N 0.92799 0.54669 0.53802
 N390 N 0.96822 0.47089 0.55250
 N391 N 0.96245 0.45229 0.57223
 Mn392 Mn 0.99977 0.49949 0.55285
 C393 C 0.93747 0.44074 0.56260
 C394 C 0.93765 0.55825 0.56265
 N395 N 1.05173 0.47113 0.47049
 N396 N 1.07181 0.45261 0.46493
 N397 N 1.03152 0.52833 0.45048
 N398 N 1.03735 0.54688 0.43071
 N399 N 1.05178 0.52828 0.47055
 N400 N 1.07193 0.54679 0.46498
 N401 N 1.03148 0.47116 0.45042
 N402 N 1.03724 0.45266 0.43064
 Mn403 Mn 1.05196 0.49963 0.50157
 C404 C 1.06220 0.44108 0.44026
 C405 C 1.06235 0.55840 0.44033
 N406 N 0.94812 0.52822 0.47041
 N407 N 0.92811 0.54683 0.46487
 N408 N 0.96841 0.47115 0.45035
 N409 N 0.96278 0.45255 0.43063
 N410 N 0.94810 0.47110 0.47034
 N411 N 0.92810 0.45247 0.46478
 N412 N 0.96844 0.52829 0.45042
 N413 N 0.96279 0.54695 0.43072
 Mn414 Mn 0.94777 0.49959 0.50142
 Mn415 Mn 0.99996 0.49973 0.45014
 Cl416 Cl 0.99986 0.49961 0.50149
 C417 C 0.93783 0.55851 0.44031
 C418 C 0.93783 0.44090 0.44021
 N419 N 0.53006 -0.04813 0.52919
 N420 N 0.54912 -0.06742 0.53531
 N421 N 0.46879 -0.02929 0.54947
 N422 N 0.44959 -0.03516 0.56979
 N423 N 0.46867 -0.04810 0.52940
 N424 N 0.44940 -0.06723 0.53551
 N425 N 0.53021 -0.02931 0.54925
 N426 N 0.54936 -0.03535 0.56957
 C427 C 0.56129 -0.05888 0.56023
 C428 C 0.43739 -0.05859 0.56043
 N429 N 0.46876 0.04821 0.52923
 N430 N 0.44962 0.06741 0.53534
 N431 N 0.53026 0.02946 0.54914
 N432 N 0.54942 0.03554 0.56945
 N433 N 0.53016 0.04825 0.52900
 N434 N 0.54923 0.06757 0.53505
 N435 N 0.46884 0.02942 0.54937
 N436 N 0.44975 0.03538 0.56973
 Mn437 Mn 0.49953 0.00007 0.54957
 C438 C 0.43764 0.05884 0.56034
 C439 C 0.56137 0.05908 0.56001
 N440 N 0.46836 -0.04819 0.46732
 N441 N 0.44926 -0.06750 0.46130
 N442 N 0.52968 -0.02937 0.44695
 N443 N 0.54897 -0.03521 0.42673
 N444 N 0.52976 -0.04815 0.46711
 N445 N 0.54909 -0.06723 0.46116
 N446 N 0.46825 -0.02941 0.44717
 N447 N 0.44907 -0.03549 0.42689
 Mn448 Mn 0.49922 -0.04835 0.49825
 C449 C 0.43710 -0.05901 0.43634
 C450 C 0.56116 -0.05860 0.43622
 N451 N 0.52984 0.04815 0.46692
 N452 N 0.54926 0.06718 0.46093
 N453 N 0.46830 0.02937 0.44707
 N454 N 0.44904 0.03535 0.42683
 N455 N 0.46845 0.04818 0.46715
 N456 N 0.44929 0.06741 0.46112
 N457 N 0.52973 0.02934 0.44685
 N458 N 0.54908 0.03511 0.42664
 Mn459 Mn 0.49930 0.04840 0.49807
 Mn460 Mn 0.49899 -0.00002 0.44674
 Cl461 Cl 0.49926 0.00003 0.49816
 C462 C 0.56135 0.05849 0.43606
 C463 C 0.43707 0.05885 0.43623
 N464 N 0.55208 0.52883 0.03066
 N465 N 0.57206 0.54750 0.03619
 N466 N 0.53182 0.47165 0.05074
 N467 N 0.53741 0.45296 0.07041
 N468 N 0.55212 0.47167 0.03072
 N469 N 0.57207 0.45300 0.03624
 N470 N 0.53178 0.52879 0.05067
 N471 N 0.53739 0.54743 0.07035
 C472 C 0.56232 0.55910 0.06076
 C473 C 0.56232 0.44134 0.06081
 N474 N 0.44843 0.47149 0.03092
 N475 N 0.42841 0.45288 0.03662
 N476 N 0.46874 0.52869 0.05080
 N477 N 0.46310 0.54723 0.07057
 N478 N 0.44837 0.52866 0.03085
 N479 N 0.42830 0.54718 0.03652
 N480 N 0.46880 0.47154 0.05088
 N481 N 0.46321 0.45297 0.07069
 Mn482 Mn 0.50029 0.50017 0.05104
 C483 C 0.43821 0.44133 0.06124
 C484 C 0.43807 0.55877 0.06111
 N485 N 0.55206 0.47166 -0.03142
 N486 N 0.57218 0.45319 -0.03710
 N487 N 0.53165 0.52879 -0.05146
 N488 N 0.53729 0.54735 -0.07128
 N489 N 0.55200 0.52883 -0.03149
 N490 N 0.57205 0.54741 -0.03717
 N491 N 0.53170 0.47162 -0.05139
 N492 N 0.53741 0.45312 -0.07119
 Mn493 Mn 0.55235 0.50025 -0.00038
 C494 C 0.56246 0.44161 -0.06171
 C495 C 0.56230 0.55897 -0.06180
 N496 N 0.44830 0.52864 -0.03130
 N497 N 0.42832 0.54728 -0.03681
 N498 N 0.46863 0.47152 -0.05125
 N499 N 0.46299 0.45287 -0.07092
 N500 N 0.44835 0.47149 -0.03123
 N501 N 0.42836 0.45281 -0.03673
 N502 N 0.46858 0.52867 -0.05132
 N503 N 0.46295 0.54734 -0.07101
 Mn504 Mn 0.44808 0.50007 -0.00019
 Mn505 Mn 0.50013 0.50015 -0.05163
 Cl506 Cl 0.50021 0.50016 -0.00030
 C507 C 0.43803 0.55894 -0.06140
 C508 C 0.43807 0.44120 -0.06130
 C509 C 1.09642 0.14266 0.12025
 C510 C 1.11220 0.13553 0.14881
 C511 C 1.13958 0.15040 0.13787
 C512 C 1.12409 0.15786 0.10957
 C513 C 1.10831 0.11631 0.10697
 C514 C 1.13568 0.13118 0.09601
 C515 C 1.12381 0.10890 0.13526
 C516 C 1.15143 0.12404 0.12457
 C517 C 1.15729 0.16881 0.15546
 C518 C 1.17211 0.18342 0.17032
 C519 C 1.09125 0.09674 0.09017
 C520 C 1.07762 0.08004 0.07676
 H521 H 1.07360 0.15009 0.11828
 H522 H 1.10275 0.13752 0.17072
 H523 H 1.12443 0.17821 0.09922
 H524 H 1.14514 0.12917 0.07410
 H525 H 1.12351 0.08856 0.14565
 H526 H 1.17424 0.11658 0.12653
 C527 C 1.12930 0.63619 0.59628
 C528 C 1.11702 0.65692 0.61829
 C529 C 1.14058 0.64800 0.63991
 C530 C 1.15313 0.62758 0.61819
 C531 C 1.10888 0.61439 0.60885
 C532 C 1.13245 0.60551 0.63048
 C533 C 1.09631 0.63480 0.63057
 C534 C 1.12016 0.62619 0.65245
 C535 C 1.15840 0.66628 0.65753
 C536 C 1.17317 0.68094 0.67236
 C537 C 1.09156 0.59513 0.59192
 C538 C 1.07770 0.57872 0.57835
 H539 H 1.13284 0.64008 0.57299
 H540 H 1.11089 0.67828 0.61349
 H541 H 1.17669 0.62482 0.61329
 H542 H 1.13861 0.58416 0.63532
 H543 H 1.07275 0.63755 0.63546
 H544 H 1.11660 0.62228 0.67574
 C545 C 0.63298 0.13191 0.59595
 C546 C 0.62129 0.14989 0.62076
 C547 C 0.64738 0.14108 0.63940
 C548 C 0.65937 0.12338 0.61486
 C549 C 0.61551 0.10778 0.60807
 C550 C 0.64159 0.09894 0.62671
 C551 C 0.60356 0.12550 0.63262
 C552 C 0.62990 0.11695 0.65152
 C553 C 0.66476 0.15979 0.65703
 C554 C 0.67880 0.17521 0.67173
 C555 C 0.59711 0.08966 0.59076
 C556 C 0.58124 0.07533 0.57665
 H557 H 0.63407 0.13785 0.57290
 H558 H 0.61312 0.17103 0.61850
 H559 H 0.68252 0.12273 0.60775
 H560 H 0.64974 0.07780 0.62896
 H561 H 0.58042 0.12618 0.63976
 H562 H 0.62880 0.11102 0.67457
 C563 C 0.59629 0.63669 0.12744
 C564 C 0.61764 0.62788 0.15162
 C565 C 0.64045 0.64791 0.13976
 C566 C 0.61939 0.65703 0.11585
 C567 C 0.60921 0.61460 0.10786
 C568 C 0.63202 0.63462 0.09598
 C569 C 0.63028 0.60552 0.13179
 C570 C 0.65334 0.62581 0.12018
 C571 C 0.65814 0.66600 0.15777
 C572 C 0.67298 0.68047 0.17277
 C573 C 0.59211 0.59549 0.09048
 C574 C 0.57835 0.57919 0.07664
 H575 H 0.57264 0.64096 0.13021
 H576 H 0.61191 0.62530 0.17470
 H577 H 0.61511 0.67843 0.10951
 H578 H 0.63774 0.63718 0.07290
 H579 H 0.63459 0.58414 0.13816
 H580 H 0.67699 0.62153 0.11740
 C581 C 0.86971 -0.13620 0.09373
 C582 C 0.88239 -0.15913 0.11297
 C583 C 0.86125 -0.15074 0.13707
 C584 C 0.84831 -0.12814 0.11811
 C585 C 0.89242 -0.11646 0.10629
 C586 C 0.87127 -0.10813 0.13039
 C587 C 0.90539 -0.13905 0.12523
 C588 C 0.88396 -0.13099 0.14959
 C589 C 0.84359 -0.16922 0.15462
 C590 C 0.82878 -0.18385 0.16947
 C591 C 0.90939 -0.09675 0.08959
 C592 C 0.92294 -0.07992 0.07628
 H593 H 0.86407 -0.13811 0.07057
 H594 H 0.88674 -0.18033 0.10603
 H595 H 0.82465 -0.12386 0.11539
 H596 H 0.86688 -0.08695 0.13738
 H597 H 0.92906 -0.14331 0.12795
 H598 H 0.88962 -0.12906 0.17275
 C599 C 0.86633 0.36607 0.59677
 C600 C 0.87850 0.34286 0.61594
 C601 C 0.85782 0.35179 0.64021
 C602 C 0.84538 0.37469 0.62132
 C603 C 0.88972 0.38526 0.60908
 C604 C 0.86903 0.39415 0.63336
 C605 C 0.90218 0.36236 0.62796
 C606 C 0.88121 0.37098 0.65249
 C607 C 0.83991 0.33353 0.65787
 C608 C 0.82510 0.31884 0.67271
 C609 C 0.90721 0.40441 0.59207
 C610 C 0.92125 0.42069 0.57843
 H611 H 0.86041 0.36426 0.57366
 H612 H 0.88218 0.32155 0.60897
 H613 H 0.82183 0.37957 0.61878
 H614 H 0.86532 0.41544 0.64035
 H615 H 0.92573 0.35750 0.63050
 H616 H 0.88714 0.37281 0.67560
 C617 C 0.35905 -0.12553 0.59672
 C618 C 0.37119 -0.14903 0.61547
 C619 C 0.35120 -0.13994 0.64022
 C620 C 0.33876 -0.11673 0.62176
 C621 C 0.38302 -0.10679 0.60869
 C622 C 0.36305 -0.09768 0.63343
 C623 C 0.39542 -0.13002 0.62716
 C624 C 0.37519 -0.12119 0.65216
 C625 C 0.33393 -0.15859 0.65797
 C626 C 0.32002 -0.17401 0.67279
 C627 C 0.40145 -0.08880 0.59128
 C628 C 0.41740 -0.07462 0.57712
 H629 H 0.35260 -0.12709 0.57373
 H630 H 0.37435 -0.17034 0.60829
 H631 H 0.31524 -0.11150 0.61976
 H632 H 0.35990 -0.07636 0.64061
 H633 H 0.41892 -0.13528 0.62920
 H634 H 0.38165 -0.11964 0.67515
 C635 C 0.39739 0.37986 0.14057
 C636 C 0.36432 0.38290 0.14687
 C637 C 0.36018 0.35248 0.14059
 C638 C 0.39300 0.34914 0.13455
 C639 C 0.39136 0.38587 0.10863
 C640 C 0.38725 0.35545 0.10231
 C641 C 0.35854 0.38918 0.11469
 C642 C 0.35414 0.35848 0.10865
 C643 C 0.34252 0.33431 0.15860
 C644 C 0.32771 0.31976 0.17358
 C645 C 0.40844 0.40499 0.09119
 C646 C 0.42219 0.42127 0.07726
 H647 H 0.41536 0.38885 0.15352
 H648 H 0.35471 0.39401 0.16539
 H649 H 0.40698 0.33247 0.14292
 H650 H 0.39686 0.34438 0.08378
 H651 H 0.34453 0.40584 0.10634
 H652 H 0.33615 0.34950 0.09571
 C653 C 0.89773 0.12333 -0.13803
 C654 C 0.86511 0.11898 -0.14562
 C655 C 0.85901 0.14876 -0.13773
 C656 C 0.89138 0.15342 -0.13039
 C657 C 0.89105 0.11534 -0.10672
 C658 C 0.88498 0.14512 -0.09877
 C659 C 0.85867 0.11072 -0.11408
 C660 C 0.85231 0.14078 -0.10642
 C661 C 0.84090 0.16675 -0.15544
 C662 C 0.82580 0.18095 -0.17048
 C663 C 0.90849 0.09610 -0.08984
 C664 C 0.92239 0.07965 -0.07633
 H665 H 0.91660 0.11596 -0.15084
 H666 H 0.85674 0.10841 -0.16507
 H667 H 0.90462 0.17119 -0.13729
 H668 H 0.89337 0.15565 -0.07931
 H669 H 0.84540 0.09296 -0.10721
 H670 H 0.83343 0.14815 -0.09362
 C671 C 0.86560 0.63187 0.40581
 C672 C 0.87744 0.65583 0.38747
 C673 C 0.85774 0.64670 0.36247
 C674 C 0.84563 0.62305 0.38052
 C675 C 0.88998 0.61369 0.39375
 C676 C 0.87027 0.60461 0.36874
 C677 C 0.90212 0.63734 0.37570
 C678 C 0.88212 0.62852 0.35043
 C679 C 0.83962 0.66460 0.34467
 C680 C 0.82461 0.67890 0.32965
 C681 C 0.90759 0.59473 0.41080
 C682 C 0.92166 0.57853 0.42447
 H683 H 0.85902 0.63304 0.42878
 H684 H 0.88016 0.67710 0.39496
 H685 H 0.82221 0.61737 0.38231
 H686 H 0.86751 0.58335 0.36121
 H687 H 0.92554 0.64300 0.37391
 H688 H 0.88871 0.62733 0.32746
 C689 C 0.35927 0.12664 0.40086
 C690 C 0.37119 0.14958 0.38120
 C691 C 0.35008 0.14040 0.35737
 C692 C 0.33786 0.11774 0.37674
 C693 C 0.38237 0.10726 0.38846
 C694 C 0.36127 0.09806 0.36463
 C695 C 0.39455 0.12993 0.36907
 C696 C 0.37319 0.12102 0.34499
 C697 C 0.33246 0.15900 0.33984
 C698 C 0.31822 0.17430 0.32517
 C699 C 0.40099 0.08923 0.40565
 C700 C 0.41703 0.07498 0.41967
 H701 H 0.35373 0.12873 0.42402
 H702 H 0.37509 0.17096 0.38782
 H703 H 0.31433 0.11295 0.37970
 H704 H 0.35739 0.07668 0.35802
 H705 H 0.41807 0.13475 0.36609
 H706 H 0.37874 0.11892 0.32183
 C707 C 0.39767 0.62205 -0.13954
 C708 C 0.36507 0.61775 -0.14728
 C709 C 0.35908 0.64764 -0.13976
 C710 C 0.39143 0.65224 -0.13228
 C711 C 0.39076 0.61441 -0.10818
 C712 C 0.38480 0.64429 -0.10061
 C713 C 0.35841 0.60985 -0.11569
 C714 C 0.35216 0.64001 -0.10840
 C715 C 0.34118 0.66564 -0.15767
 C716 C 0.32621 0.67999 -0.17268
 C717 C 0.40807 0.59533 -0.09097
 C718 C 0.42195 0.57904 -0.07723
 H719 H 0.41658 0.61447 -0.15215
 H720 H 0.35677 0.60703 -0.16666
 H721 H 0.40480 0.66988 -0.13931
 H722 H 0.39312 0.65499 -0.08122
 H723 H 0.34501 0.59222 -0.10867
 H724 H 0.33324 0.64759 -0.09580
 C725 C 1.12917 -0.13719 -0.09250
 C726 C 1.11712 -0.15807 -0.11454
 C727 C 1.14076 -0.14904 -0.13601
 C728 C 1.15308 -0.12849 -0.11427
 C729 C 1.10872 -0.11555 -0.10529
 C730 C 1.13238 -0.10659 -0.12678
 C731 C 1.09637 -0.13609 -0.12702
 C732 C 1.12030 -0.12739 -0.14875
 C733 C 1.15889 -0.16699 -0.15362
 C734 C 1.17404 -0.18107 -0.16865
 C735 C 1.09133 -0.09620 -0.08864
 C736 C 1.07753 -0.07959 -0.07535
 H737 H 1.13259 -0.14099 -0.06917
 H738 H 1.11108 -0.17946 -0.10972
 H739 H 1.17660 -0.12557 -0.10922
 H740 H 1.13846 -0.08522 -0.13164
 H741 H 1.07285 -0.13898 -0.13206
 H742 H 1.11687 -0.12356 -0.17208
 C743 C 1.10845 0.38363 0.36079
 C744 C 1.14225 0.38424 0.35931
 C745 C 1.14265 0.35316 0.36260
 C746 C 1.10910 0.35227 0.36383
 C747 C 1.11029 0.38612 0.39373
 C748 C 1.11065 0.35504 0.39706
 C749 C 1.14384 0.38700 0.39249
 C750 C 1.14451 0.35563 0.39554
 C751 C 1.16084 0.33526 0.34491
 C752 C 1.17590 0.32095 0.32998
 C753 C 1.09260 0.40503 0.41073
 C754 C 1.07847 0.42117 0.42439
 H755 H 1.09343 0.39534 0.34668
 H756 H 1.15544 0.39607 0.34361
 H757 H 1.09501 0.33778 0.35184
 H758 H 1.09745 0.34325 0.41277
 H759 H 1.15795 0.40148 0.40446
 H760 H 1.15954 0.34392 0.40963
 C761 C 0.61375 -0.10996 0.35597
 C762 C 0.64748 -0.10835 0.35350
 C763 C 0.64907 -0.13929 0.35780
 C764 C 0.61563 -0.14116 0.36000
 C765 C 0.61643 -0.10644 0.38873
 C766 C 0.61804 -0.13738 0.39301
 C767 C 0.64988 -0.10453 0.38656
 C768 C 0.65177 -0.13578 0.39056
 C769 C 0.66684 -0.15776 0.34036
 C770 C 0.68116 -0.17299 0.32578
 C771 C 0.59761 -0.08860 0.40582
 C772 C 0.58140 -0.07452 0.41976
 H773 H 0.59793 -0.09913 0.34192
 H774 H 0.65979 -0.09663 0.33704
 H775 H 0.60173 -0.15642 0.34891
 H776 H 0.60574 -0.14913 0.40946
 H777 H 0.66374 -0.08926 0.39767
 H778 H 0.66760 -0.14663 0.40459
 C779 C 0.60824 0.38483 -0.14188
 C780 C 0.64205 0.38460 -0.14313
 C781 C 0.64151 0.35345 -0.14062
 C782 C 0.60793 0.35340 -0.13963
 C783 C 0.60990 0.38656 -0.10888
 C784 C 0.60932 0.35541 -0.10633
 C785 C 0.64348 0.38659 -0.10988
 C786 C 0.64319 0.35516 -0.10761
 C787 C 0.65935 0.33547 -0.15860
 C788 C 0.67423 0.32110 -0.17366
 C789 C 0.59257 0.40553 -0.09155
 C790 C 0.57864 0.42169 -0.07770
 H791 H 0.59368 0.39722 -0.15580
 H792 H 0.65569 0.39643 -0.15845
 H793 H 0.59351 0.33955 -0.15206
 H794 H 0.59567 0.34361 -0.09100
 H795 H 0.65792 0.40044 -0.09747
 H796 H 0.65777 0.34277 -0.09371
 C797 C 1.10346 0.12297 -0.13752
 C798 C 1.10921 0.15326 -0.13029
 C799 C 1.14181 0.14893 -0.13676
 C800 C 1.13631 0.11894 -0.14424
 C801 C 1.10952 0.11560 -0.10592
 C802 C 1.14211 0.11131 -0.11241
 C803 C 1.11497 0.14558 -0.09838
 C804 C 1.14788 0.14157 -0.10516
 C805 C 1.16006 0.16682 -0.15442
 C806 C 1.17529 0.18089 -0.16947
 C807 C 1.09197 0.09636 -0.08916
 C808 C 1.07802 0.07987 -0.07577
 H809 H 1.08500 0.11512 -0.15063
 H810 H 1.09591 0.17074 -0.13785
 H811 H 1.14528 0.10818 -0.16328
 H812 H 1.15545 0.09384 -0.10488
 H813 H 1.10598 0.15630 -0.07933
 H814 H 1.16635 0.14942 -0.09207
 C815 C 1.14416 0.61336 0.39338
 C816 C 1.14343 0.61529 0.36010
 C817 C 1.14292 0.64644 0.36247
 C818 C 1.14392 0.64479 0.39551
 C819 C 1.11057 0.61342 0.39370
 C820 C 1.11002 0.64456 0.39611
 C821 C 1.10959 0.61509 0.36067
 C822 C 1.10933 0.64652 0.36278
 C823 C 1.16110 0.66439 0.34472
 C824 C 1.17615 0.67875 0.32975
 C825 C 1.09286 0.59448 0.41075
 C826 C 1.07869 0.57833 0.42444
 H827 H 1.15830 0.59952 0.40614
 H828 H 1.15736 0.60344 0.34512
 H829 H 1.15824 0.65721 0.40964
 H830 H 1.09608 0.65639 0.41111
 H831 H 1.09529 0.60268 0.34651
 H832 H 1.09521 0.66035 0.35000
 C833 C 0.65036 0.10518 0.38744
 C834 C 0.64901 0.10788 0.35419
 C835 C 0.64951 0.13898 0.35734
 C836 C 0.65116 0.13658 0.39029
 C837 C 0.61681 0.10617 0.38842
 C838 C 0.61733 0.13727 0.39154
 C839 C 0.61518 0.10859 0.35547
 C840 C 0.61596 0.13993 0.35835
 C841 C 0.66728 0.15743 0.33983
 C842 C 0.68158 0.17268 0.32519
 C843 C 0.59794 0.08838 0.40558
 C844 C 0.58167 0.07435 0.41957
 H845 H 0.66428 0.09068 0.39959
 H846 H 0.66225 0.09602 0.33862
 H847 H 0.66614 0.14831 0.40440
 H848 H 0.60410 0.14915 0.40711
 H849 H 0.60020 0.09686 0.34134
 H850 H 0.60201 0.15442 0.34621
 C851 C 0.59700 0.63483 -0.13057
 C852 C 0.61815 0.65677 -0.11867
 C853 C 0.64129 0.64757 -0.14057
 C854 C 0.62041 0.62594 -0.15273
 C855 C 0.60963 0.61432 -0.10891
 C856 C 0.63278 0.60517 -0.13082
 C857 C 0.63050 0.63594 -0.09673
 C858 C 0.65390 0.62705 -0.11891
 C859 C 0.65918 0.66563 -0.15851
 C860 C 0.67411 0.68003 -0.17354
 C861 C 0.59231 0.59524 -0.09163
 C862 C 0.57841 0.57900 -0.07779
 H863 H 0.57340 0.63783 -0.13517
 H864 H 0.61234 0.67819 -0.11388
 H865 H 0.61645 0.62202 -0.17594
 H866 H 0.63862 0.58376 -0.13565
 H867 H 0.63445 0.63984 -0.07351
 H868 H 0.67749 0.62404 -0.11431
 C869 C 0.86404 -0.10634 -0.12400
 C870 C 0.87533 -0.12390 -0.14928
 C871 C 0.85860 -0.14837 -0.13693
 C872 C 0.84706 -0.13107 -0.11188
 C873 C 0.89082 -0.11491 -0.10619
 C874 C 0.87410 -0.13937 -0.09380
 C875 C 0.90237 -0.13221 -0.13124
 C876 C 0.88536 -0.15700 -0.11914
 C877 C 0.84038 -0.16638 -0.15451
 C878 C 0.82518 -0.18058 -0.16944
 C879 C 0.90834 -0.09564 -0.08945
 C880 C 0.92228 -0.07915 -0.07605
 H881 H 0.85546 -0.08531 -0.12583
 H882 H 0.87563 -0.11772 -0.17228
 H883 H 0.82411 -0.13079 -0.10412
 H884 H 0.87381 -0.14552 -0.07079
 H885 H 0.92532 -0.13247 -0.13900
 H886 H 0.89391 -0.17805 -0.11735
 C887 C 0.87735 0.39307 0.36383
 C888 C 0.88724 0.36496 0.35249
 C889 C 0.85780 0.35295 0.36211
 C890 C 0.84767 0.38080 0.37319
 C891 C 0.89002 0.38584 0.39352
 C892 C 0.86058 0.37383 0.40314
 C893 C 0.90019 0.35799 0.38245
 C894 C 0.87045 0.34567 0.39179
 C895 C 0.83970 0.33512 0.34424
 C896 C 0.82471 0.32087 0.32916
 C897 C 0.90761 0.40474 0.41063
 C898 C 0.92167 0.42091 0.42433
 H899 H 0.88039 0.41277 0.35251
 H900 H 0.89799 0.36112 0.33146
 H901 H 0.82588 0.38998 0.36919
 H902 H 0.84983 0.37768 0.42417
 H903 H 0.92199 0.34884 0.38646
 H904 H 0.86738 0.32596 0.40307
 C905 C 0.36849 -0.09995 0.35956
 C906 C 0.37897 -0.12738 0.34688
 C907 C 0.35049 -0.14075 0.35724
 C908 C 0.33970 -0.11360 0.36966
 C909 C 0.38266 -0.10759 0.38846
 C910 C 0.35417 -0.12095 0.39885
 C911 C 0.39341 -0.13474 0.37602
 C912 C 0.36467 -0.14838 0.38614
 C913 C 0.33291 -0.15932 0.33965
 C914 C 0.31867 -0.17459 0.32493
 C915 C 0.40120 -0.08953 0.40570
 C916 C 0.41716 -0.07523 0.41975
 H917 H 0.37024 -0.07984 0.34882
 H918 H 0.38900 -0.13023 0.32533
 H919 H 0.31740 -0.10512 0.36685
 H920 H 0.34416 -0.11809 0.42041
 H921 H 0.41570 -0.14325 0.37881
 H922 H 0.36292 -0.16849 0.39687
 C923 C 0.37872 0.39243 -0.13802
 C924 C 0.38883 0.36418 -0.14877
 C925 C 0.35923 0.35226 -0.13951
 C926 C 0.34888 0.38025 -0.12902
 C927 C 0.39084 0.38561 -0.10800
 C928 C 0.36124 0.37369 -0.09874
 C929 C 0.40123 0.35762 -0.11847
 C930 C 0.37133 0.34539 -0.10949
 C931 C 0.34136 0.33418 -0.15738
 C932 C 0.32643 0.31976 -0.17235
 C933 C 0.40813 0.40475 -0.09082
 C934 C 0.42200 0.42107 -0.07711
 H935 H 0.38195 0.41198 -0.14957
 H936 H 0.39999 0.36007 -0.16954
 H937 H 0.32717 0.38937 -0.13355
 H938 H 0.35008 0.37781 -0.07797
 H939 H 0.42295 0.34853 -0.11393
 H940 H 0.36807 0.32583 -0.09797
 C941 C 1.09901 -0.12722 0.13659
 C942 C 1.10879 -0.15588 0.12664
 C943 C 1.13966 -0.14985 0.13802
 C944 C 1.13014 -0.12151 0.14822
 C945 C 1.10832 -0.11573 0.10721
 C946 C 1.13919 -0.10975 0.11861
 C947 C 1.11782 -0.14406 0.09696
 C948 C 1.14898 -0.13836 0.10864
 C949 C 1.15741 -0.16831 0.15555
 C950 C 1.17225 -0.18298 0.17034
 C951 C 1.09123 -0.09615 0.09042
 C952 C 1.07757 -0.07947 0.07699
 H953 H 1.07827 -0.12243 0.14789
 H954 H 1.09650 -0.17507 0.13015
 H955 H 1.13539 -0.11243 0.16948
 H956 H 1.15152 -0.09057 0.11513
 H957 H 1.11255 -0.15311 0.07569
 H958 H 1.16972 -0.14314 0.09735
 C959 C 1.13002 0.36353 0.59645
 C960 C 1.15343 0.37222 0.61876
 C961 C 1.14088 0.35137 0.64011
 C962 C 1.11774 0.34236 0.61808
 C963 C 1.10912 0.38489 0.60897
 C964 C 1.09655 0.36405 0.63031
 C965 C 1.13226 0.39385 0.63100
 C966 C 1.11997 0.37274 0.65259
 C967 C 1.15873 0.33313 0.65777
 C968 C 1.17352 0.31849 0.67263
 C969 C 1.09174 0.40409 0.59198
 C970 C 1.07783 0.42045 0.57837
 H971 H 1.13394 0.35995 0.57317
 H972 H 1.17701 0.37538 0.61421
 H973 H 1.11199 0.32098 0.61298
 H974 H 1.07297 0.36090 0.63486
 H975 H 1.13804 0.41523 0.63614
 H976 H 1.11604 0.37634 0.67587
 C977 C 0.60329 -0.12495 0.63335
 C978 C 0.62075 -0.14952 0.62168
 C979 C 0.64700 -0.14072 0.64010
 C980 C 0.62979 -0.11640 0.65203
 C981 C 0.61527 -0.10748 0.60855
 C982 C 0.64151 -0.09865 0.62697
 C983 C 0.63248 -0.13180 0.59661
 C984 C 0.65903 -0.12327 0.61531
 C985 C 0.66429 -0.15939 0.65785
 C986 C 0.67826 -0.17478 0.67265
 C987 C 0.59694 -0.08940 0.59112
 C988 C 0.58111 -0.07510 0.57694
 H989 H 0.58017 -0.12544 0.64059
 H990 H 0.61239 -0.17063 0.61969
 H991 H 0.62885 -0.11029 0.67502
 H992 H 0.64985 -0.07753 0.62894
 H993 H 0.63341 -0.13791 0.57363
 H994 H 0.68215 -0.12280 0.60809
 C995 C 0.62519 0.39381 0.13551
 C996 C 0.61343 0.36775 0.15025
 C997 C 0.64043 0.35226 0.13948
 C998 C 0.65244 0.37805 0.12501
 C999 C 0.60916 0.38567 0.10774
 C1000 C 0.63616 0.37018 0.09697
 C1001 C 0.59711 0.35989 0.12220
 C1002 C 0.62441 0.34407 0.11171
 C1003 C 0.65815 0.33412 0.15740
 C1004 C 0.67303 0.31961 0.17233
 C1005 C 0.59206 0.40484 0.09044
 C1006 C 0.57831 0.42119 0.07665
 H1007 H 0.62534 0.41447 0.14511
 H1008 H 0.60428 0.36656 0.17235
 H1009 H 0.67538 0.38533 0.12636
 H1010 H 0.64531 0.37139 0.07486
 H1011 H 0.57417 0.35263 0.12084
 H1012 H 0.62430 0.32340 0.10214
 C1013 C 0.86950 0.10867 0.12801
 C1014 C 0.88216 0.12982 0.14928
 C1015 C 0.86157 0.15134 0.13648
 C1016 C 0.84868 0.13044 0.11544
 C1017 C 0.89276 0.11707 0.10586
 C1018 C 0.87219 0.13858 0.09301
 C1019 C 0.90568 0.13796 0.12689
 C1020 C 0.88482 0.15981 0.11434
 C1021 C 0.84389 0.16978 0.15395
 C1022 C 0.82906 0.18435 0.16876
 C1023 C 0.90971 0.09736 0.08925
 C1024 C 0.92322 0.08051 0.07602
 H1025 H 0.86340 0.08742 0.13345
 H1026 H 0.88605 0.12643 0.17261
 H1027 H 0.82504 0.12756 0.11093
 H1028 H 0.86830 0.14194 0.06968
 H1029 H 0.92932 0.14083 0.13139
 H1030 H 0.89088 0.18107 0.10894
 C1031 C 0.86382 0.60522 0.62739
 C1032 C 0.87551 0.62307 0.65230
 C1033 C 0.85841 0.64733 0.64003
 C1034 C 0.84645 0.62974 0.61536
 C1035 C 0.89018 0.61381 0.60900
 C1036 C 0.87309 0.63806 0.59670
 C1037 C 0.90214 0.63139 0.63367
 C1038 C 0.88477 0.65596 0.62166
 C1039 C 0.84056 0.66561 0.65763
 C1040 C 0.82578 0.68030 0.67241
 C1041 C 0.90758 0.59463 0.59204
 C1042 C 0.92153 0.57832 0.57844
 H1043 H 0.85538 0.58414 0.62957
 H1044 H 0.87632 0.61709 0.67535
 H1045 H 0.82336 0.62926 0.60803
 H1046 H 0.87229 0.64401 0.57364
 H1047 H 0.92524 0.63186 0.64101
 H1048 H 0.89317 0.67704 0.61950
 C1049 C 0.39443 0.13433 0.62085
 C1050 C 0.36542 0.14773 0.61120
 C1051 C 0.35188 0.14010 0.64038
 C1052 C 0.38064 0.12697 0.65027
 C1053 C 0.38358 0.10707 0.60872
 C1054 C 0.37005 0.09943 0.63790
 C1055 C 0.35482 0.12020 0.59879
 C1056 C 0.34098 0.11285 0.62827
 C1057 C 0.33462 0.15865 0.65820
 C1058 C 0.32071 0.17397 0.67307
 C1059 C 0.40192 0.08912 0.59125
 C1060 C 0.41778 0.07493 0.57704
 H1061 H 0.41662 0.14298 0.61761
 H1062 H 0.36334 0.16780 0.60043
 H1063 H 0.39108 0.12997 0.67163
 H1064 H 0.37214 0.07937 0.64867
 H1065 H 0.34441 0.11719 0.57743
 H1066 H 0.31879 0.10424 0.63154
 C1067 C 0.36536 0.60542 0.12745
 C1068 C 0.37760 0.62335 0.15204
 C1069 C 0.36002 0.64752 0.14022
 C1070 C 0.34752 0.62984 0.11588
 C1071 C 0.39115 0.61414 0.10836
 C1072 C 0.37358 0.63829 0.09651
 C1073 C 0.40367 0.63181 0.13271
 C1074 C 0.38581 0.65628 0.12115
 C1075 C 0.34239 0.66569 0.15820
 C1076 C 0.32762 0.68025 0.17315
 C1077 C 0.40823 0.59503 0.09097
 C1078 C 0.42200 0.57878 0.07708
 H1079 H 0.35711 0.58430 0.12986
 H1080 H 0.37908 0.61739 0.17507
 H1081 H 0.32424 0.62922 0.10915
 H1082 H 0.37211 0.64423 0.07349
 H1083 H 0.42695 0.63242 0.13943
 H1084 H 0.39403 0.67740 0.11876
   
