data_POSCAR
  _audit_creation_date              2014-09-24
  _audit_creation_method            'ToBaCCo'
  _symmetry_space_group_name_H-M    'P1'
  _symmetry_Int_Tables_number       1
  _symmetry_cell_setting            triclinic
  loop_
  _symmetry_equiv_pos_as_xyz
 x,y,z
_cell_length_a 46.8466
_cell_length_b 27.1140
_cell_length_c 15.5256
_cell_angle_alpha 89.997200
_cell_angle_beta 89.979000
_cell_angle_gamma 90.058300
loop_
  _atom_site_label
  _atom_site_type_symbol
  _atom_site_fract_x
  _atom_site_fract_y
  _atom_site_fract_z
C1 C 0.72572 0.26809 0.54471
 C2 C 0.72929 0.27406 0.45460
 C3 C 0.75314 0.25336 0.41353
 C4 C 0.77377 0.22581 0.45896
 C5 C 0.77114 0.22244 0.55064
 C6 C 0.74655 0.24172 0.59052
 H7 H 0.74497 0.24082 0.66016
 H8 H 0.75402 0.25526 0.34387
 C9 C 0.22830 0.77560 0.53943
 C10 C 0.22803 0.77008 0.44911
 C11 C 0.25044 0.74489 0.40887
 C12 C 0.27334 0.72518 0.45622
 C13 C 0.27375 0.73050 0.54775
 C14 C 0.25084 0.75550 0.58732
 H15 H 0.25079 0.76091 0.65652
 H16 H 0.24988 0.74018 0.33952
 C17 C 0.27137 0.27244 -0.54510
 C18 C 0.27189 0.27460 -0.45421
 C19 C 0.24915 0.25443 -0.40735
 C20 C 0.22517 0.23349 -0.44823
 C21 C 0.22479 0.23078 -0.54058
 C22 C 0.24780 0.25163 -0.58683
 H23 H 0.24869 0.24838 -0.65636
 H24 H 0.24930 0.25846 -0.33787
 C25 C -0.22975 0.77859 -0.54904
 C26 C -0.22736 0.77437 -0.45872
 C27 C -0.24919 0.75047 -0.41299
 C28 C -0.27381 0.73151 -0.45402
 C29 C -0.27625 0.73674 -0.54552
 C30 C -0.25434 0.76137 -0.59049
 H31 H -0.25525 0.76385 -0.66019
 H32 H -0.24770 0.74977 -0.34336
 O33 O -0.03918 0.90725 0.14478
 O34 O -0.07069 0.95456 0.06785
 C35 C -0.06494 0.92051 0.12353
 O36 O 0.03929 1.08307 0.16642
 O37 O 0.07121 1.04339 0.07812
 C38 C 0.06506 1.07297 0.14097
 O39 O -0.04094 1.07535 0.17255
 O40 O -0.07171 1.03588 0.08034
 C41 C -0.06642 1.06381 0.14616
 O42 O 0.04129 0.90541 0.13596
 O43 O 0.07215 0.95826 0.06761
 C44 C 0.06681 0.92100 0.11761
 Zr45 Zr 0.00095 0.93360 0.09904
 O46 O 0.00424 0.92589 0.23437
 O47 O -0.00143 0.85601 0.08540
 Zr48 Zr -0.00056 1.05785 0.11861
 O49 O 0.00232 1.05400 0.25443
 O50 O -0.00470 1.13554 0.12551
 O51 O -0.02518 0.99385 0.12560
 O52 O 0.02491 0.99586 0.12471
 O53 O 0.04168 0.92134 -0.16266
 O54 O 0.07231 0.96540 -0.07677
 C55 C 0.06716 0.93409 -0.13798
 O56 O -0.04080 1.09341 -0.14402
 O57 O -0.07117 1.04322 -0.06875
 C58 C -0.06617 1.07796 -0.12386
 O59 O 0.03874 1.10079 -0.13398
 O60 O 0.07094 1.05086 -0.06517
 C61 C 0.06463 1.08774 -0.11505
 O62 O -0.03868 0.92287 -0.17113
 O63 O -0.07050 0.96048 -0.07989
 C64 C -0.06443 0.93238 -0.14484
 Zr65 Zr 0.00111 0.94476 -0.11765
 O66 O 0.00440 0.95112 -0.25318
 O67 O -0.00106 0.86698 -0.12794
 Zr68 Zr -0.00066 1.06897 -0.09788
 O69 O 0.00266 1.07592 -0.23336
 O70 O -0.00495 1.14632 -0.08464
 Zr71 Zr -0.04223 0.99948 0.00027
 Zr72 Zr 0.04274 1.00307 0.00080
 O73 O 0.02501 1.00875 -0.12334
 O74 O -0.02522 1.00663 -0.12482
 O75 O 0.02670 0.93064 -0.01055
 O76 O -0.02561 1.07130 0.01170
 O77 O -0.02366 0.92913 -0.01085
 O78 O 0.02481 1.07409 0.01202
 H79 H 0.03762 0.99361 0.17554
 H80 H -0.03900 1.09946 0.01615
 H81 H 0.03789 1.01192 -0.17367
 H82 H -0.03626 0.89986 -0.01510
 H83 H 0.01302 1.15020 0.10203
 H84 H 0.01049 1.15778 -0.04608
 H85 H -0.01294 1.05629 -0.25922
 H86 H -0.01127 0.97281 -0.27270
 H87 H 0.01567 0.85325 -0.09742
 H88 H 0.01501 0.84556 0.04984
 H89 H -0.01170 0.94452 0.26047
 H90 H -0.01086 1.02769 0.27357
 O91 O 0.46196 0.40957 0.15459
 O92 O 0.42973 0.45414 0.07541
 C93 C 0.43605 0.42177 0.13398
 O94 O 0.54019 0.58753 0.15343
 O95 O 0.57186 0.54139 0.07460
 C96 C 0.56592 0.57501 0.13125
 O97 O 0.46029 0.57841 0.16696
 O98 O 0.42901 0.53733 0.07866
 C99 C 0.43470 0.56641 0.14250
 O100 O 0.54201 0.40770 0.14420
 O101 O 0.57254 0.45665 0.06654
 C102 C 0.56747 0.42178 0.12147
 Zr103 Zr 0.50144 0.43439 0.10463
 O104 O 0.50504 0.42986 0.24030
 O105 O 0.49887 0.35655 0.09596
 Zr106 Zr 0.50030 0.55893 0.11281
 O107 O 0.50441 0.55738 0.24856
 O108 O 0.49587 0.63662 0.11625
 O109 O 0.47547 0.49557 0.12633
 O110 O 0.52566 0.49705 0.12401
 O111 O 0.54054 0.41222 -0.15490
 O112 O 0.57197 0.45976 -0.07770
 C113 C 0.56618 0.42578 -0.13391
 O114 O 0.45953 0.58740 -0.15079
 O115 O 0.42870 0.54010 -0.07105
 C116 C 0.43399 0.57346 -0.12886
 O117 O 0.53982 0.59288 -0.14545
 O118 O 0.57137 0.54486 -0.07006
 C119 C 0.56559 0.57965 -0.12442
 O120 O 0.46080 0.41751 -0.16441
 O121 O 0.42925 0.45697 -0.07488
 C122 C 0.43515 0.42819 -0.13901
 Zr123 Zr 0.50064 0.43919 -0.11233
 O124 O 0.50399 0.44132 -0.24825
 O125 O 0.49741 0.36132 -0.11599
 Zr126 Zr 0.49983 0.56377 -0.10430
 O127 O 0.50255 0.56729 -0.24029
 O128 O 0.49620 0.64150 -0.09684
 Zr129 Zr 0.45784 0.49790 0.00132
 Zr130 Zr 0.54305 0.50012 -0.00089
 O131 O 0.52496 0.50234 -0.12486
 O132 O 0.47472 0.50126 -0.12458
 O133 O 0.52664 0.42774 -0.00521
 O134 O 0.47507 0.56964 0.00551
 O135 O 0.47616 0.42711 -0.00374
 O136 O 0.52553 0.57167 0.00432
 H137 H 0.53861 0.49643 0.17443
 H138 H 0.46188 0.59816 0.00802
 H139 H 0.53767 0.50354 -0.17584
 H140 H 0.46338 0.39799 -0.00539
 H141 H 0.51181 0.65088 0.08267
 H142 H 0.51301 0.65396 -0.06502
 H143 H 0.48674 0.54725 -0.26394
 H144 H 0.48897 0.46377 -0.26965
 H145 H 0.51337 0.34785 -0.08162
 H146 H 0.51623 0.34485 0.06597
 H147 H 0.49004 0.45113 0.26528
 H148 H 0.48980 0.53438 0.27095
 C149 C 0.34324 0.32640 0.31340
 C150 C 0.34675 0.28701 0.37150
 C151 C 0.32317 0.26859 0.41590
 C152 C 0.29606 0.28882 0.40226
 C153 C 0.29308 0.32624 0.34064
 N154 N 0.31645 0.34414 0.29890
 C155 C 0.36775 0.34964 0.26807
 N156 N 0.36264 0.37865 0.19805
 C157 C 0.38390 0.40202 0.15425
 C158 C 0.41243 0.39689 0.18050
 C159 C 0.41815 0.36757 0.25295
 C160 C 0.39601 0.34426 0.29702
 H161 H 0.32609 0.23898 0.46191
 H162 H 0.27238 0.34238 0.32807
 H163 H 0.37845 0.42438 0.09891
 H164 H 0.43975 0.36308 0.27648
 H165 H 0.36730 0.27023 0.38301
 H166 H 0.40122 0.32330 0.35405
 C167 C -0.16159 0.83653 0.29862
 C168 C -0.18907 0.85716 0.29204
 C169 C -0.21134 0.83772 0.34084
 C170 C -0.20630 0.79844 0.39720
 C171 C -0.17867 0.77877 0.40219
 N172 N -0.15726 0.79821 0.35376
 C173 C -0.13704 0.85641 0.24960
 N174 N -0.11005 0.84825 0.27908
 C175 C -0.08657 0.86693 0.23895
 C176 C -0.08963 0.89621 0.16502
 C177 C -0.11722 0.90383 0.13237
 C178 C -0.14084 0.88376 0.17377
 H179 H -0.23238 0.85405 0.33624
 H180 H -0.17412 0.74819 0.44483
 H181 H -0.06568 0.85993 0.26608
 H182 H -0.12068 0.92563 0.07487
 H183 H -0.19338 0.88872 0.25159
 H184 H -0.16170 0.88965 0.14592
 C185 C 0.65822 0.67063 0.30814
 C186 C 0.66672 0.71905 0.28983
 C187 C 0.68874 0.74051 0.33721
 C188 C 0.70184 0.71449 0.40497
 C189 C 0.69301 0.66549 0.41964
 N190 N 0.67184 0.64506 0.37133
 C191 C 0.63457 0.64721 0.26055
 N192 N 0.63675 0.59917 0.23577
 C193 C 0.61541 0.57570 0.19258
 C194 C 0.58981 0.60047 0.17431
 C195 C 0.58704 0.64976 0.20016
 C196 C 0.60947 0.67341 0.24243
 H197 H 0.69474 0.77824 0.32302
 H198 H 0.70324 0.64315 0.46844
 H199 H 0.61817 0.53745 0.17439
 H200 H 0.56760 0.67005 0.18725
 H201 H 0.65655 0.73999 0.23901
 H202 H 0.60698 0.71140 0.26256
 C203 C 0.15962 1.15691 0.32292
 C204 C 0.16960 1.13689 0.40029
 C205 C 0.19190 1.16005 0.44374
 C206 C 0.20365 1.20446 0.41241
 C207 C 0.19383 1.22159 0.33182
 N208 N 0.17231 1.19790 0.29012
 C209 C 0.13519 1.13491 0.27754
 N210 N 0.13627 1.12893 0.19056
 C211 C 0.11416 1.10910 0.14558
 C212 C 0.08897 1.09538 0.18828
 C213 C 0.08723 1.10218 0.27758
 C214 C 0.11044 1.12142 0.32260
 H215 H 0.19992 1.14301 0.50192
 H216 H 0.20208 1.25528 0.30393
 H217 H 0.11612 1.10460 0.07653
 H218 H 0.06816 1.09177 0.31262
 H219 H 0.16038 1.10344 0.42645
 H220 H 0.10893 1.12650 0.39165
 C221 C 0.65822 0.33185 -0.31404
 C222 C 0.66685 0.28354 -0.29580
 C223 C 0.68926 0.26270 -0.34216
 C224 C 0.70275 0.28925 -0.40873
 C225 C 0.69343 0.33787 -0.42424
 N226 N 0.67192 0.35775 -0.37670
 C227 C 0.63459 0.35498 -0.26612
 N228 N 0.63672 0.40299 -0.24109
 C229 C 0.61548 0.42609 -0.19692
 C230 C 0.59007 0.40089 -0.17775
 C231 C 0.58738 0.35160 -0.20380
 C232 C 0.60968 0.32839 -0.24719
 H233 H 0.69544 0.22512 -0.32762
 H234 H 0.70392 0.36081 -0.47167
 H235 H 0.61817 0.46434 -0.17865
 H236 H 0.56808 0.33097 -0.19024
 H237 H 0.65660 0.26231 -0.24542
 H238 H 0.60723 0.29040 -0.26741
 C239 C 0.16218 0.84853 -0.32018
 C240 C 0.19041 0.86602 -0.31513
 C241 C 0.21188 0.84230 -0.36147
 C242 C 0.20533 0.80180 -0.41379
 C243 C 0.17690 0.78594 -0.41860
 N244 N 0.15633 0.80937 -0.37233
 C245 C 0.13844 0.87147 -0.27136
 N246 N 0.11113 0.86236 -0.29684
 C247 C 0.08814 0.88159 -0.25533
 C248 C 0.09191 0.91213 -0.18316
 C249 C 0.11987 0.92156 -0.15509
 C250 C 0.14310 0.90121 -0.19852
 H251 H 0.23362 0.85569 -0.35701
 H252 H 0.17113 0.75456 -0.45803
 H253 H 0.06699 0.87315 -0.27919
 H254 H 0.12384 0.94444 -0.09917
 H255 H 0.19605 0.89790 -0.27699
 H256 H 0.16427 0.90823 -0.17381
 C257 C 0.33944 0.66825 -0.30025
 C258 C 0.31108 0.66698 -0.27100
 C259 C 0.28959 0.68867 -0.32022
 C260 C 0.29595 0.71163 -0.39935
 C261 C 0.32493 0.71484 -0.42311
 N262 N 0.34548 0.69309 -0.37426
 C263 C 0.36306 0.64348 -0.25332
 N264 N 0.39047 0.65696 -0.27093
 C265 C 0.41331 0.63536 -0.23225
 C266 C 0.40933 0.59740 -0.17179
 C267 C 0.38127 0.58259 -0.15319
 C268 C 0.35818 0.60526 -0.19384
 H269 H 0.26776 0.68520 -0.29800
 H270 H 0.33137 0.73482 -0.48022
 H271 H 0.43454 0.64794 -0.24894
 H272 H 0.37710 0.55318 -0.10768
 H273 H 0.30527 0.64945 -0.21098
 H274 H 0.33694 0.59194 -0.17973
 C275 C -0.16261 1.16561 -0.29420
 C276 C -0.19118 1.15720 -0.27098
 C277 C -0.21301 1.17651 -0.32149
 C278 C -0.20673 1.20457 -0.39539
 C279 C -0.17779 1.21470 -0.41289
 N280 N -0.15687 1.19487 -0.36325
 C281 C -0.13847 1.14315 -0.24688
 N282 N -0.11175 1.16195 -0.25820
 C283 C -0.08837 1.14223 -0.21943
 C284 C -0.09117 1.10087 -0.16577
 C285 C -0.11850 1.08080 -0.15357
 C286 C -0.14206 1.10150 -0.19415
 H287 H -0.23482 1.16743 -0.30452
 H288 H -0.17173 1.23831 -0.46605
 H289 H -0.06769 1.15883 -0.23085
 H290 H -0.12169 1.04848 -0.11369
 H291 H -0.19691 1.13586 -0.21482
 H292 H -0.16257 1.08392 -0.18559
 C293 C 0.66064 0.67068 -0.29909
 C294 C 0.68939 0.66296 -0.27728
 C295 C 0.71087 0.68320 -0.32825
 C296 C 0.70417 0.71168 -0.40130
 C297 C 0.67503 0.72073 -0.41785
 N298 N 0.65445 0.70002 -0.36770
 C299 C 0.63680 0.64768 -0.25037
 N300 N 0.60971 0.66465 -0.26259
 C301 C 0.58667 0.64434 -0.22248
 C302 C 0.59019 0.60422 -0.16632
 C303 C 0.61793 0.58627 -0.15281
 C304 C 0.64111 0.60747 -0.19483
 H305 H 0.73281 0.67480 -0.31189
 H306 H 0.66851 0.74486 -0.46968
 H307 H 0.56567 0.65929 -0.23511
 H308 H 0.62178 0.55503 -0.11093
 H309 H 0.69562 0.64164 -0.22166
 H310 H 0.66188 0.59122 -0.18496
 C311 C 0.15556 1.18682 -0.29527
 C312 C 0.15046 1.21436 -0.37037
 C313 C 0.17341 1.23110 -0.41960
 C314 C 0.20163 1.21986 -0.39572
 C315 C 0.20575 1.19410 -0.31785
 N316 N 0.18301 1.17776 -0.27143
 C317 C 0.13201 1.16462 -0.24441
 N318 N 0.13742 1.12385 -0.19574
 C319 C 0.11659 1.09966 -0.15146
 C320 C 0.08818 1.11601 -0.15556
 C321 C 0.08235 1.15898 -0.20289
 C322 C 0.10411 1.18344 -0.24682
 H323 H 0.16901 1.25256 -0.47691
 H324 H 0.22699 1.18437 -0.29631
 H325 H 0.12214 1.06694 -0.11523
 H326 H 0.06087 1.17351 -0.20687
 H327 H 0.12907 1.22173 -0.39301
 H328 H 0.09894 1.21662 -0.28212
 C329 C 0.34063 0.34406 -0.31981
 C330 C 0.32798 0.36841 -0.38951
 C331 C 0.30498 0.34657 -0.43162
 C332 C 0.29532 0.29967 -0.40658
 C333 C 0.30823 0.27708 -0.33514
 N334 N 0.33024 0.29963 -0.29377
 C335 C 0.36510 0.36586 -0.27475
 N336 N 0.36473 0.36941 -0.18734
 C337 C 0.38678 0.38963 -0.14268
 C338 C 0.41116 0.40632 -0.18636
 C339 C 0.41216 0.40216 -0.27623
 C340 C 0.38897 0.38253 -0.32083
 H341 H 0.29486 0.36615 -0.48411
 H342 H 0.30117 0.24119 -0.31322
 H343 H 0.38546 0.39201 -0.07317
 H344 H 0.43065 0.41486 -0.31186
 H345 H 0.33560 0.40422 -0.41029
 H346 H 0.38979 0.37964 -0.39038
 C347 C -0.15773 0.83910 -0.31947
 C348 C -0.16698 0.79146 -0.29807
 C349 C -0.18950 0.77020 -0.34385
 C350 C -0.20312 0.79663 -0.40986
 C351 C -0.19361 0.84483 -0.42737
 N352 N -0.17119 0.86430 -0.38331
 C353 C -0.13381 0.86244 -0.27344
 N354 N -0.11218 0.88369 -0.31893
 C355 C -0.08958 0.90574 -0.27944
 C356 C -0.08845 0.90840 -0.18933
 C357 C -0.11075 0.88745 -0.14144
 C358 C -0.13329 0.86384 -0.18324
 H359 H -0.19613 0.73298 -0.32824
 H360 H -0.20404 0.86714 -0.47575
 H361 H -0.07278 0.92185 -0.31826
 H362 H -0.11045 0.88865 -0.07173
 H363 H -0.15654 0.77066 -0.24757
 H364 H -0.15037 0.84759 -0.14571
 C365 C 0.33921 0.64859 0.32118
 C366 C 0.32564 0.62522 0.39056
 C367 C 0.30321 0.64906 0.43251
 C368 C 0.29522 0.69688 0.40760
 C369 C 0.30874 0.71813 0.33592
 N370 N 0.33011 0.69376 0.29493
 C371 C 0.36356 0.62569 0.27722
 N372 N 0.36387 0.62353 0.18969
 C373 C 0.38626 0.60413 0.14554
 C374 C 0.41040 0.58718 0.18990
 C375 C 0.41072 0.58976 0.28000
 C376 C 0.38710 0.60839 0.32406
 H377 H 0.29268 0.63091 0.48593
 H378 H 0.30286 0.75464 0.31405
 H379 H 0.38543 0.60283 0.07587
 H380 H 0.42901 0.57674 0.31608
 H381 H 0.33230 0.58895 0.41171
 H382 H 0.38745 0.61041 0.39373
 C383 C -0.16173 1.14927 0.32308
 C384 C -0.17425 1.12739 0.39536
 C385 C -0.19636 1.15160 0.43791
 C386 C -0.20538 1.19888 0.41136
 C387 C -0.19304 1.21808 0.33540
 N388 N -0.17178 1.19330 0.29424
 C389 C -0.13738 1.12583 0.27925
 N390 N -0.13732 1.12188 0.19187
 C391 C -0.11515 1.10117 0.14836
 C392 C -0.09096 1.08452 0.19308
 C393 C -0.09044 1.08888 0.28298
 C394 C -0.11381 1.10889 0.32643
 H395 H -0.20638 1.13308 0.49179
 H396 H -0.19903 1.25400 0.31113
 H397 H -0.11611 1.09877 0.07880
 H398 H -0.07211 1.07641 0.31946
 H399 H -0.16713 1.09172 0.41821
 H400 H -0.11323 1.11220 0.39593
 C401 C 0.66361 0.33615 0.29717
 C402 C 0.69147 0.35557 0.29325
 C403 C 0.71295 0.33490 0.34387
 C404 C 0.70673 0.29560 0.39926
 C405 C 0.67881 0.27696 0.40099
 N406 N 0.65824 0.29759 0.35104
 C407 C 0.63955 0.35736 0.24751
 N408 N 0.61238 0.34687 0.27298
 C409 C 0.58908 0.36582 0.23268
 C410 C 0.59240 0.39784 0.16237
 C411 C 0.62019 0.40821 0.13365
 C412 C 0.64374 0.38791 0.17550
 H413 H 0.73430 0.35022 0.34133
 H414 H 0.67336 0.24623 0.44238
 H415 H 0.56807 0.35660 0.25685
 H416 H 0.62382 0.43221 0.07895
 H417 H 0.69671 0.38704 0.25360
 H418 H 0.66478 0.39607 0.15083
 C419 C 0.16014 0.82844 0.29607
 C420 C 0.16531 0.77740 0.29640
 C421 C 0.18769 0.75849 0.34565
 C422 C 0.20469 0.79017 0.39511
 C423 C 0.19920 0.84097 0.39207
 N424 N 0.17741 0.85864 0.34307
 C425 C 0.13628 0.85015 0.24640
 N426 N 0.13897 0.89662 0.21404
 C427 C 0.11751 0.91931 0.17028
 C428 C 0.09115 0.89544 0.15883
 C429 C 0.08793 0.84757 0.19182
 C430 C 0.11042 0.82475 0.23511
 H431 H 0.19155 0.71911 0.34611
 H432 H 0.21220 0.86648 0.42867
 H433 H 0.12079 0.95646 0.14671
 H434 H 0.06793 0.82790 0.18480
 H435 H 0.15246 0.75237 0.25835
 H436 H 0.10722 0.78827 0.26173
   
