data_POSCAR
  _audit_creation_date              2014-09-24
  _audit_creation_method            'ToBaCCo'
  _symmetry_space_group_name_H-M    'P1'
  _symmetry_Int_Tables_number       1
  _symmetry_cell_setting            triclinic
  loop_
  _symmetry_equiv_pos_as_xyz
 x,y,z
_cell_length_a 23.5753
_cell_length_b 23.4951
_cell_length_c 52.7438
_cell_angle_alpha 90.949000
_cell_angle_beta 91.341100
_cell_angle_gamma 120.015800
loop_
  _atom_site_label
  _atom_site_type_symbol
  _atom_site_fract_x
  _atom_site_fract_y
  _atom_site_fract_z
C1 C 0.00166 0.05191 0.51427
 C2 C -0.04811 0.00300 0.49425
 C3 C -0.02663 -0.03460 0.48237
 C4 C 0.04201 -0.01968 0.49141
 C5 C 0.01560 0.00943 0.53221
 C6 C 0.03595 -0.02867 0.52021
 C7 C 0.06492 0.09213 0.50027
 C8 C 0.08599 0.05481 0.48829
 H9 H -0.09754 -0.00536 0.49149
 H10 H 0.05984 -0.04975 0.48166
 H11 H 0.00135 0.00281 0.55188
 H12 H 0.08942 0.14532 0.49901
 C13 C 0.95494 -0.07560 0.18192
 C14 C 1.00273 -0.07603 0.16260
 C15 C 1.03787 -0.01706 0.15109
 C16 C 1.02178 0.03589 0.15992
 C17 C 0.99507 -0.02094 0.19947
 C18 C 1.03248 0.04032 0.18737
 C19 C 0.91202 -0.05511 0.16699
 C20 C 0.94697 0.00327 0.15545
 H21 H 1.01187 -0.11666 0.15992
 H22 H 1.04975 0.08365 0.15044
 H23 H 1.00486 -0.02765 0.21914
 H24 H 0.85893 -0.08495 0.16510
 C25 C 0.04951 1.02973 0.84846
 C26 C 0.04855 1.07735 0.82904
 C27 C -0.01139 1.05398 0.81696
 C28 C -0.06409 0.98576 0.82524
 C29 C -0.00562 1.01697 0.86633
 C30 C -0.06495 0.99460 0.85414
 C31 C 0.02583 0.96491 0.83368
 C32 C -0.03341 0.94195 0.82151
 H33 H 0.08934 1.12671 0.82666
 H34 H -0.11270 0.96642 0.81533
 H35 H 0.00323 1.03274 0.88623
 H36 H 0.05477 0.94079 0.83201
 O37 O 0.60964 0.12803 -0.02116
 O38 O 0.50348 0.13264 0.02852
 O39 O 0.61508 0.13211 0.02807
 O40 O 0.50285 0.13559 -0.02060
 O41 O 0.44512 0.02687 -0.02165
 O42 O 0.55863 0.02338 0.02672
 O43 O 0.44761 0.02390 0.02736
 O44 O 0.55138 0.01933 -0.02223
 Cu45 Cu 0.56357 0.14310 0.00393
 Cu46 Cu 0.49490 0.01248 0.00254
 C47 C 0.59834 0.07245 -0.02990
 C48 C 0.45671 0.07862 0.03591
 C49 C 0.60685 0.07729 0.03515
 C50 C 0.45479 0.08197 -0.02919
 O51 O -0.03511 0.54732 0.69370
 O52 O -0.02082 0.43873 0.64627
 O53 O -0.01517 0.55204 0.64561
 O54 O -0.03425 0.43620 0.69480
 O55 O -0.14172 0.38230 0.68776
 O56 O -0.12258 0.50035 0.63845
 O57 O -0.12825 0.38652 0.63910
 O58 O -0.14261 0.49408 0.68682
 Cu59 Cu -0.01560 0.49885 0.67090
 Cu60 Cu -0.14471 0.43554 0.66243
 C61 C -0.09124 0.53972 0.69792
 C62 C -0.07229 0.39402 0.63479
 C63 C -0.06529 0.54636 0.63387
 C64 C -0.09066 0.38883 0.69921
 O65 O 0.47043 0.42635 0.35903
 O66 O 0.57669 0.53612 0.31032
 O67 O 0.46317 0.42886 0.31016
 O68 O 0.58144 0.53835 0.35935
 O69 O 0.63453 0.48307 0.35748
 O70 O 0.51376 0.37112 0.30820
 O71 O 0.62781 0.47889 0.30834
 O72 O 0.52291 0.37046 0.35734
 Cu73 Cu 0.51777 0.48810 0.33500
 Cu74 Cu 0.57995 0.42010 0.33275
 C75 C 0.47805 0.37910 0.36605
 C76 C 0.62051 0.52617 0.30125
 C77 C 0.46779 0.38123 0.30104
 C78 C 0.62880 0.53054 0.36631
 C79 C -0.05740 0.26318 0.58742
 C80 C -0.03058 0.22628 0.59792
 C81 C -0.02362 0.18044 0.58232
 C82 C -0.04330 0.17195 0.55630
 C83 C -0.07108 0.20802 0.54591
 C84 C -0.07819 0.25380 0.56153
 C85 C -0.10585 0.28955 0.55071
 C86 C -0.12591 0.28031 0.52517
 C87 C -0.11891 0.23556 0.50990
 C88 C -0.09182 0.19968 0.52005
 C89 C 0.00352 0.14424 0.59323
 C90 C 0.02351 0.15334 0.61876
 C91 C 0.01698 0.19840 0.63398
 C92 C -0.00992 0.23441 0.62382
 C93 C -0.03180 0.12836 0.54021
 C94 C -0.01887 0.09310 0.52781
 C95 C -0.06316 0.31080 0.60337
 C96 C -0.06738 0.34954 0.61732
 H97 H -0.11226 0.32489 0.56184
 H98 H -0.14699 0.30804 0.51719
 H99 H -0.13458 0.22857 0.49008
 H100 H -0.08747 0.16532 0.50746
 H101 H 0.00957 0.10852 0.58219
 H102 H 0.04423 0.12531 0.62676
 H103 H 0.03277 0.20544 0.65379
 H104 H -0.01421 0.26865 0.63649
 C105 C 0.75070 0.65806 0.25276
 C106 C 0.81138 0.70845 0.26335
 C107 C 0.85635 0.75879 0.24775
 C108 C 0.84031 0.75845 0.22170
 C109 C 0.78082 0.70668 0.21091
 C110 C 0.73584 0.65628 0.22650
 C111 C 0.67634 0.60537 0.21538
 C112 C 0.66171 0.60429 0.18955
 C113 C 0.70568 0.65364 0.17431
 C114 C 0.76462 0.70442 0.18477
 C115 C 0.91640 0.80910 0.25880
 C116 C 0.93163 0.80954 0.28452
 C117 C 0.88769 0.76025 0.29977
 C118 C 0.82813 0.71025 0.28943
 C119 C 0.88239 0.81415 0.20661
 C120 C 0.91607 0.86264 0.19490
 C121 C 0.70300 0.60957 0.26912
 C122 C 0.66440 0.57072 0.28338
 H123 H 0.64066 0.56590 0.22648
 H124 H 0.61600 0.56495 0.18134
 H125 H 0.69408 0.65258 0.15426
 H126 H 0.79738 0.74163 0.17215
 H127 H 0.95228 0.84838 0.24768
 H128 H 0.97781 0.84831 0.29265
 H129 H 0.89979 0.76074 0.31973
 H130 H 0.79557 0.67305 0.30209
 C131 C 0.32045 0.08661 -0.07814
 C132 C 0.32083 0.07654 -0.10466
 C133 C 0.26956 0.07268 -0.12064
 C134 C 0.21832 0.07892 -0.10998
 C135 C 0.21944 0.09179 -0.08360
 C136 C 0.27064 0.09559 -0.06762
 C137 C 0.27025 0.10759 -0.04123
 C138 C 0.22079 0.11582 -0.03097
 C139 C 0.17068 0.11205 -0.04661
 C140 C 0.16972 0.10014 -0.07263
 C141 C 0.27041 0.06170 -0.14705
 C142 C 0.32065 0.05490 -0.15740
 C143 C 0.37084 0.05873 -0.14177
 C144 C 0.37115 0.06937 -0.11568
 C145 C 0.16160 0.06631 -0.12565
 C146 C 0.11227 0.05212 -0.13789
 C147 C 0.36970 0.08543 -0.06152
 C148 C 0.40924 0.08382 -0.04712
 H149 H 0.30815 0.11094 -0.02828
 H150 H 0.22138 0.12517 -0.01077
 H151 H 0.13235 0.11844 -0.03854
 H152 H 0.12984 0.09789 -0.08403
 H153 H 0.23251 0.05857 -0.15996
 H154 H 0.32063 0.04663 -0.17765
 H155 H 0.40974 0.05342 -0.14990
 H156 H 0.41123 0.07204 -0.10428
 C157 C -0.02816 0.69659 0.58700
 C158 C -0.03981 0.68954 0.56037
 C159 C -0.02214 0.74597 0.54575
 C160 C 0.00702 0.80901 0.55788
 C161 C 0.01899 0.81609 0.58450
 C162 C 0.00122 0.75973 0.59911
 C163 C 0.01318 0.76805 0.62574
 C164 C 0.04195 0.83023 0.63756
 C165 C 0.05936 0.88534 0.62325
 C166 C 0.04816 0.87867 0.59703
 C167 C -0.03452 0.73778 0.51918
 C168 C -0.06342 0.67557 0.50736
 C169 C -0.08081 0.62038 0.52166
 C170 C -0.06921 0.62700 0.54788
 C171 C 0.02093 0.86621 0.54339
 C172 C 0.02990 0.91423 0.53228
 C173 C -0.04497 0.63962 0.60214
 C174 C -0.05620 0.59510 0.61594
 H175 H 0.00037 0.72675 0.63775
 H176 H 0.05076 0.83564 0.65792
 H177 H 0.08170 0.93355 0.63251
 H178 H 0.06272 0.92309 0.58674
 H179 H -0.02196 0.77925 0.50727
 H180 H -0.07261 0.67015 0.48701
 H181 H -0.10345 0.57216 0.51240
 H182 H -0.08360 0.58269 0.55823
 C183 C 0.31320 0.25585 0.25436
 C184 C 0.25200 0.22370 0.26618
 C185 C 0.19383 0.18241 0.25148
 C186 C 0.19716 0.17336 0.22507
 C187 C 0.25829 0.20537 0.21325
 C188 C 0.31655 0.24676 0.22795
 C189 C 0.37711 0.27812 0.21576
 C190 C 0.38006 0.26889 0.18975
 C191 C 0.32310 0.22857 0.17536
 C192 C 0.26276 0.19692 0.18688
 C193 C 0.13323 0.15079 0.26372
 C194 C 0.13020 0.15983 0.28973
 C195 C 0.18706 0.20027 0.30411
 C196 C 0.24738 0.23184 0.29260
 C197 C 0.13797 0.12851 0.21045
 C198 C 0.08837 0.08869 0.19918
 C199 C 0.37185 0.29975 0.26948
 C200 C 0.41770 0.33667 0.28324
 H201 H 0.42269 0.30991 0.22620
 H202 H 0.42681 0.29317 0.18072
 H203 H 0.32567 0.22154 0.15517
 H204 H 0.21979 0.16591 0.17492
 H205 H 0.08757 0.11890 0.25336
 H206 H 0.08345 0.13534 0.29876
 H207 H 0.18447 0.20723 0.32430
 H208 H 0.29019 0.26255 0.30466
 C209 C 0.71786 0.04659 -0.07755
 C210 C 0.73451 0.07286 -0.10199
 C211 C 0.77519 0.05844 -0.11710
 C212 C 0.79885 0.01782 -0.10766
 C213 C 0.78184 -0.00881 -0.08330
 C214 C 0.74132 0.00568 -0.06818
 C215 C 0.72538 -0.02120 -0.04377
 C216 C 0.74873 -0.06123 -0.03463
 C217 C 0.78841 -0.07534 -0.04943
 C218 C 0.80491 -0.04960 -0.07349
 C219 C 0.79157 0.08555 -0.14142
 C220 C 0.76825 0.12563 -0.15056
 C221 C 0.72849 0.13973 -0.13578
 C222 C 0.71163 0.11376 -0.11174
 C223 C 0.84384 0.00650 -0.12226
 C224 C 0.88372 -0.00078 -0.13352
 C225 C 0.67602 0.06042 -0.06194
 C226 C 0.64083 0.06836 -0.04789
 H227 H 0.69483 -0.01160 -0.03147
 H228 H 0.73603 -0.08133 -0.01594
 H229 H 0.80650 -0.10640 -0.04223
 H230 H 0.83580 -0.06215 -0.08430
 H231 H 0.82233 0.07594 -0.15362
 H232 H 0.78105 0.14580 -0.16924
 H233 H 0.71058 0.17095 -0.14297
 H234 H 0.68063 0.12610 -0.10090
 C235 C 0.31142 0.06369 0.08078
 C236 C 0.31742 0.07234 0.10752
 C237 C 0.26114 0.05644 0.12175
 C238 C 0.19921 0.03201 0.10913
 C239 C 0.19364 0.02549 0.08232
 C240 C 0.24990 0.04147 0.06810
 C241 C 0.24298 0.03428 0.04130
 C242 C 0.18228 0.01187 0.02894
 C243 C 0.12730 -0.00375 0.04285
 C244 C 0.13261 0.00287 0.06924
 C245 C 0.26830 0.06513 0.14848
 C246 C 0.32930 0.08897 0.16080
 C247 C 0.38430 0.10463 0.14688
 C248 C 0.37869 0.09637 0.12053
 C249 C 0.14129 0.01337 0.12371
 C250 C 0.09359 -0.00149 0.13597
 C251 C 0.36713 0.07367 0.06626
 C252 C 0.41032 0.07829 0.05311
 H253 H 0.28432 0.04610 0.02960
 H254 H 0.17788 0.00657 0.00845
 H255 H 0.08026 -0.02109 0.03316
 H256 H 0.08844 -0.00984 0.07923
 H257 H 0.22701 0.05394 0.16013
 H258 H 0.33394 0.09564 0.18126
 H259 H 0.43160 0.12331 0.15654
 H260 H 0.42284 0.10933 0.11048
 C261 C 0.76825 0.68211 0.41082
 C262 C 0.77717 0.67931 0.43730
 C263 C 0.82031 0.73766 0.45167
 C264 C 0.85420 0.79848 0.43945
 C265 C 0.84702 0.80088 0.41283
 C266 C 0.80402 0.74254 0.39847
 C267 C 0.79743 0.74629 0.37187
 C268 C 0.83218 0.80593 0.35986
 C269 C 0.87424 0.86294 0.37392
 C270 C 0.88176 0.86074 0.40010
 C271 C 0.82816 0.73368 0.47816
 C272 C 0.79434 0.67380 0.49010
 C273 C 0.75227 0.61677 0.47603
 C274 C 0.74351 0.61922 0.44993
 C275 C 0.89600 0.85853 0.45428
 C276 C 0.93085 0.90788 0.46682
 C277 C 0.71964 0.62424 0.39634
 C278 C 0.67840 0.57918 0.38329
 H279 H 0.76560 0.70328 0.36006
 H280 H 0.82641 0.80791 0.33953
 H281 H 0.90118 0.90914 0.36448
 H282 H 0.91510 0.90640 0.41022
 H283 H 0.86059 0.77663 0.48989
 H284 H 0.80104 0.67161 0.51036
 H285 H 0.72628 0.57036 0.48539
 H286 H 0.71040 0.57358 0.43975
 C287 C -0.08932 0.25102 0.74493
 C288 C -0.08739 0.25612 0.77175
 C289 C -0.07357 0.21395 0.78642
 C290 C -0.06142 0.16721 0.77415
 C291 C -0.06674 0.15981 0.74736
 C292 C -0.08096 0.20168 0.73271
 C293 C -0.08609 0.19330 0.70595
 C294 C -0.07773 0.14476 0.69402
 C295 C -0.06343 0.10410 0.70835
 C296 C -0.05782 0.11138 0.73472
 C297 C -0.07185 0.21997 0.81321
 C298 C -0.08350 0.26630 0.82516
 C299 C -0.09683 0.30763 0.81082
 C300 C -0.09866 0.30292 0.78440
 C301 C -0.04274 0.12735 0.78905
 C302 C -0.02756 0.09426 0.80156
 C303 C -0.09475 0.29930 0.72980
 C304 C -0.09533 0.34007 0.71637
 H305 H -0.09726 0.22363 0.69397
 H306 H -0.08257 0.13855 0.67357
 H307 H -0.05683 0.06656 0.69899
 H308 H -0.04689 0.07840 0.74505
 H309 H -0.06194 0.18875 0.82518
 H310 H -0.08236 0.27000 0.84568
 H311 H -0.10591 0.34348 0.82020
 H312 H -0.10951 0.33589 0.77401
 C313 C 0.74770 0.07308 0.08049
 C314 C 0.75250 0.08530 0.10704
 C315 C 0.79969 0.07883 0.12208
 C316 C 0.84165 0.06001 0.11047
 C317 C 0.83878 0.05062 0.08379
 C318 C 0.79171 0.05724 0.06874
 C319 C 0.78950 0.04715 0.04211
 C320 C 0.83260 0.03109 0.03069
 C321 C 0.87845 0.02441 0.04542
 C322 C 0.88169 0.03394 0.07169
 C323 C 0.80321 0.09074 0.14862
 C324 C 0.76141 0.10867 0.15998
 C325 C 0.71525 0.11495 0.14527
 C326 C 0.71058 0.10339 0.11910
 C327 C 0.88349 0.04476 0.12613
 C328 C 0.91478 0.02824 0.13936
 C329 C 0.69669 0.07523 0.06527
 C330 C 0.65486 0.07625 0.05203
 H331 H 0.75473 0.05182 0.02983
 H332 H 0.83047 0.02389 0.01029
 H333 H 0.91178 0.01188 0.03646
 H334 H 0.91839 0.02851 0.08235
 H335 H 0.83849 0.08670 0.16083
 H336 H 0.76489 0.11777 0.18030
 H337 H 0.68290 0.12890 0.15419
 H338 H 0.67398 0.10899 0.10844
 C339 C 0.34437 0.24327 0.41266
 C340 C 0.28685 0.18999 0.40123
 C341 C 0.23601 0.14505 0.41665
 C342 C 0.24304 0.15360 0.44339
 C343 C 0.30190 0.20491 0.45483
 C344 C 0.35269 0.24993 0.43942
 C345 C 0.41070 0.30135 0.45127
 C346 C 0.41839 0.30804 0.47762
 C347 C 0.36874 0.26400 0.49270
 C348 C 0.31103 0.21297 0.48154
 C349 C 0.17862 0.09272 0.40482
 C350 C 0.17176 0.08476 0.37848
 C351 C 0.22153 0.12855 0.36339
 C352 C 0.27844 0.18077 0.37452
 C353 C 0.18779 0.11381 0.45903
 C354 C 0.14145 0.08444 0.47224
 C355 C 0.39364 0.29236 0.39688
 C356 C 0.43314 0.33272 0.38325
 H357 H 0.45072 0.33673 0.44032
 H358 H 0.46312 0.34759 0.48639
 H359 H 0.37496 0.26937 0.51317
 H360 H 0.27391 0.17978 0.49406
 H361 H 0.13873 0.05723 0.41579
 H362 H 0.12763 0.04432 0.36973
 H363 H 0.21607 0.12198 0.34294
 H364 H 0.31577 0.21352 0.36197
 C365 C -0.10151 0.67652 0.74352
 C366 C -0.09038 0.73559 0.73242
 C367 C -0.08580 0.78782 0.74797
 C368 C -0.09232 0.78069 0.77451
 C369 C -0.10707 0.72033 0.78540
 C370 C -0.11163 0.66808 0.76986
 C371 C -0.12540 0.60857 0.78122
 C372 C -0.13453 0.60083 0.80722
 C373 C -0.13009 0.65191 0.82242
 C374 C -0.11646 0.71111 0.81175
 C375 C -0.07373 0.84674 0.73653
 C376 C -0.06659 0.85380 0.71042
 C377 C -0.07113 0.80272 0.69520
 C378 C -0.08275 0.74423 0.70596
 C379 C -0.07701 0.83729 0.79085
 C380 C -0.05983 0.88487 0.80469
 C381 C -0.09952 0.62592 0.72802
 C382 C -0.09630 0.58551 0.71469
 H383 H -0.12947 0.56742 0.77015
 H384 H -0.14512 0.55495 0.81560
 H385 H -0.13726 0.64563 0.84260
 H386 H -0.11377 0.74934 0.82431
 H387 H -0.07015 0.88769 0.74760
 H388 H -0.05756 0.89913 0.70196
 H389 H -0.06572 0.80839 0.67492
 H390 H -0.08597 0.70589 0.69333
   
