data_POSCAR
  _audit_creation_date              2014-09-24
  _audit_creation_method            'ToBaCCo'
  _symmetry_space_group_name_H-M    'P1'
  _symmetry_Int_Tables_number       1
  _symmetry_cell_setting            triclinic
  loop_
  _symmetry_equiv_pos_as_xyz
 x,y,z
_cell_length_a 43.0883
_cell_length_b 36.2301
_cell_length_c 33.1655
_cell_angle_alpha 90.918700
_cell_angle_beta 88.516300
_cell_angle_gamma 89.486300
loop_
  _atom_site_label
  _atom_site_type_symbol
  _atom_site_fract_x
  _atom_site_fract_y
  _atom_site_fract_z
C1 C 1.25872 0.23233 0.24693
 C2 C 0.74915 -0.25840 0.24519
 C3 C 0.74974 0.24902 -0.25211
 C4 C 1.25263 -0.25131 -0.25124
 C5 C 0.25042 0.25798 0.75709
 C6 C 0.74884 0.75277 0.75496
 C7 C 0.74245 0.25896 0.25275
 C8 C 0.24999 0.75897 0.24891
 O9 O 1.04076 0.07388 0.06810
 O10 O 1.07583 0.03593 0.03425
 C11 C 1.06891 0.06330 0.05859
 O12 O 0.95422 -0.06242 0.07247
 O13 O 0.91990 -0.02705 0.03766
 C14 C 0.92631 -0.05338 0.06240
 O15 O 1.04005 -0.05666 0.07935
 O16 O 1.07536 -0.02682 0.03889
 C17 C 1.06825 -0.04909 0.06785
 O18 O 0.95481 0.08037 0.06082
 O19 O 0.92014 0.04039 0.03264
 C20 C 0.92683 0.07023 0.05275
 Zr21 Zr 0.99759 0.05307 0.04963
 O22 O 0.99220 0.05223 0.11328
 O23 O 0.99990 0.11122 0.05407
 Zr24 Zr 0.99717 -0.03856 0.05685
 O25 O 0.99153 -0.02797 0.11963
 O26 O 0.99951 -0.09551 0.06934
 O27 O 1.02546 0.00750 0.06106
 O28 O 0.96941 0.00824 0.06060
 O29 O 0.95697 0.06737 -0.07094
 O30 O 0.92145 0.03435 -0.03386
 C31 C 0.92871 0.05915 -0.06023
 O32 O 1.04328 -0.06802 -0.06513
 O33 O 1.07691 -0.03175 -0.02998
 C34 C 1.07107 -0.05824 -0.05531
 O35 O 0.95632 -0.07007 -0.06101
 O36 O 0.92117 -0.03084 -0.02903
 C37 C 0.92816 -0.05929 -0.05186
 O38 O 1.04377 0.06090 -0.07563
 O39 O 1.07724 0.03025 -0.03492
 C40 C 1.07153 0.05234 -0.06426
 Zr41 Zr 0.99969 0.04504 -0.05244
 O42 O 0.99703 0.03726 -0.11569
 O43 O 1.00329 0.10273 -0.06003
 Zr44 Zr 0.99932 -0.04706 -0.04520
 O45 O 0.99704 -0.04951 -0.10890
 O46 O 1.00216 -0.10536 -0.04331
 Zr47 Zr 1.04490 0.00248 0.00211
 Zr48 Zr 0.95178 0.00378 0.00219
 O49 O 0.97222 -0.00116 -0.05604
 O50 O 1.02766 -0.00204 -0.05672
 O51 O 0.97141 0.05679 -0.00207
 O52 O 1.02497 -0.05020 0.00637
 O53 O 1.02541 0.05574 -0.00202
 O54 O 0.97092 -0.04982 0.00629
 H55 H 0.95394 0.01025 0.08320
 H56 H 1.03844 -0.07240 0.00796
 H57 H 0.95833 -0.00269 -0.07936
 H58 H 1.03911 0.07748 -0.00409
 H59 H 0.99965 -0.10865 0.04302
 H60 H 0.98695 -0.11348 -0.02249
 H61 H 1.01662 -0.03937 -0.12012
 H62 H 1.01645 0.02484 -0.12529
 H63 H 0.98946 0.11468 -0.03932
 H64 H 1.00224 0.12024 0.02622
 H65 H 1.01284 0.04698 0.12441
 H66 H 1.01182 -0.01992 0.12977
 O67 O 1.04796 0.56444 0.56604
 O68 O 1.08262 0.52887 0.52862
 C69 C 1.07603 0.55387 0.55602
 O70 O 0.96076 0.43271 0.56501
 O71 O 0.92640 0.46789 0.52995
 C72 C 0.93279 0.44224 0.55554
 O73 O 1.04762 0.43560 0.56771
 O74 O 1.08251 0.46670 0.52769
 C75 C 1.07575 0.44389 0.55628
 O76 O 0.96139 0.57003 0.56249
 O77 O 0.92677 0.53320 0.52958
 C78 C 0.93335 0.56026 0.55400
 Zr79 Zr 1.00460 0.54569 0.54551
 O80 O 1.00033 0.54186 0.60912
 O81 O 1.00621 0.60376 0.55229
 Zr82 Zr 1.00431 0.45325 0.54559
 O83 O 1.00002 0.45531 0.60934
 O84 O 1.00757 0.39491 0.54654
 O85 O 1.03238 0.49920 0.55289
 O86 O 0.97695 0.50008 0.55329
 O87 O 0.96286 0.56741 0.42684
 O88 O 0.92735 0.53266 0.46200
 C89 C 0.93464 0.55896 0.43732
 O90 O 1.04877 0.43176 0.42155
 O91 O 1.08316 0.46548 0.45828
 C92 C 1.07678 0.44072 0.43108
 O93 O 0.96253 0.42760 0.42935
 O94 O 0.92721 0.46600 0.46232
 C95 C 0.93435 0.43793 0.43882
 O96 O 1.04918 0.56077 0.41962
 O97 O 1.08323 0.52849 0.45816
 C98 C 1.07705 0.55173 0.43000
 Zr99 Zr 1.00558 0.54412 0.44339
 O100 O 1.00209 0.54127 0.37984
 O101 O 1.00943 0.60228 0.44148
 Zr102 Zr 1.00521 0.45181 0.44354
 O103 O 1.00158 0.45571 0.38015
 O104 O 1.00788 0.39378 0.43674
 Zr105 Zr 1.05152 0.49798 0.49363
 Zr106 Zr 0.95818 0.49945 0.49529
 O107 O 0.97789 0.49824 0.43659
 O108 O 1.03353 0.49733 0.43505
 O109 O 0.97763 0.55276 0.49493
 O110 O 1.03164 0.44510 0.49411
 O111 O 1.03208 0.55147 0.49392
 O112 O 0.97722 0.44555 0.49516
 H113 H 0.96241 0.50083 0.57694
 H114 H 1.04530 0.42295 0.49412
 H115 H 0.96351 0.49799 0.41373
 H116 H 1.04610 0.57298 0.49346
 H117 H 0.99066 0.38497 0.53003
 H118 H 1.00486 0.38361 0.46399
 H119 H 1.02219 0.46260 0.36893
 H120 H 1.02037 0.52730 0.36896
 H121 H 0.99425 0.61283 0.46149
 H122 H 1.01119 0.61377 0.52540
 H123 H 1.02063 0.53377 0.61930
 H124 H 1.01776 0.46953 0.61952
 O125 O 0.54005 0.05793 0.58160
 O126 O 0.57664 0.02879 0.54053
 C127 C 0.56855 0.05033 0.57072
 O128 O 0.45842 -0.07770 0.56296
 O129 O 0.42313 -0.04043 0.53219
 C130 C 0.43031 -0.06864 0.55375
 O131 O 0.54457 -0.06976 0.56957
 O132 O 0.57870 -0.03356 0.53405
 C133 C 0.57240 -0.05901 0.56000
 O134 O 0.45362 0.06038 0.57551
 O135 O 0.42081 0.02507 0.53805
 C136 C 0.42607 0.05061 0.56478
 Zr137 Zr 0.49781 0.03953 0.55781
 O138 O 0.49258 0.03027 0.62055
 O139 O 0.49752 0.09687 0.57062
 Zr140 Zr 0.50114 -0.05243 0.54839
 O141 O 0.49560 -0.05526 0.61191
 O142 O 0.50704 -0.11047 0.54464
 O143 O 0.52729 -0.00590 0.56106
 O144 O 0.47183 -0.00794 0.56026
 O145 O 0.45629 0.06950 0.44220
 O146 O 0.42205 0.02976 0.47234
 C147 C 0.42843 0.05893 0.45164
 O148 O 0.54740 -0.05978 0.42285
 O149 O 0.58016 -0.02867 0.46471
 C150 C 0.57479 -0.05040 0.43428
 O151 O 0.46169 -0.07126 0.43050
 O152 O 0.42469 -0.03723 0.46591
 C153 C 0.43312 -0.06355 0.44083
 O154 O 0.54258 0.06620 0.43380
 O155 O 0.57778 0.03342 0.47020
 C156 C 0.57065 0.05746 0.44331
 Zr157 Zr 0.49969 0.04673 0.45616
 O158 O 0.49600 0.04970 0.39274
 O159 O 0.50201 0.10501 0.46019
 Zr160 Zr 0.50307 -0.04517 0.44675
 O161 O 0.49888 -0.03637 0.38408
 O162 O 0.50892 -0.10213 0.43380
 Zr163 Zr 0.54696 -0.00101 0.50246
 Zr164 Zr 0.45381 -0.00458 0.50203
 O165 O 0.47390 0.00019 0.44394
 O166 O 0.52944 0.00232 0.44374
 O167 O 0.47119 0.04952 0.50766
 O168 O 0.52926 -0.05478 0.49695
 O169 O 0.52548 0.05125 0.50769
 O170 O 0.47509 -0.05724 0.49683
 H171 H 0.45686 -0.00999 0.58330
 H172 H 0.54386 -0.07605 0.49484
 H173 H 0.45954 0.00112 0.42109
 H174 H 0.53879 0.07334 0.50951
 H175 H 0.49208 -0.11998 0.52495
 H176 H 0.50595 -0.11495 0.45964
 H177 H 0.51903 -0.02723 0.37352
 H178 H 0.51406 0.03635 0.38035
 H179 H 0.48625 0.11337 0.48065
 H180 H 0.50156 0.10939 0.54482
 H181 H 0.51285 0.02180 0.63050
 H182 H 0.51326 -0.04225 0.62400
 O183 O 0.44393 0.44821 -0.07048
 O184 O 0.47079 0.40770 -0.03140
 C185 C 0.45063 0.41523 -0.05864
 O186 O 0.55502 0.54949 -0.07105
 O187 O 0.52551 0.59321 -0.03645
 C188 C 0.54738 0.58342 -0.06242
 O189 O 0.55227 0.44799 -0.07272
 O190 O 0.52483 0.40763 -0.03303
 C191 C 0.54508 0.41498 -0.06161
 O192 O 0.43819 0.55009 -0.06598
 O193 O 0.46805 0.59351 -0.03436
 C194 C 0.44491 0.58384 -0.05659
 Zr195 Zr 0.45936 0.50010 -0.05020
 O196 O 0.46381 0.50250 -0.11388
 O197 O 0.41064 0.49630 -0.05496
 Zr198 Zr 0.53621 0.49963 -0.05105
 O199 O 0.53132 0.49869 -0.11430
 O200 O 0.58516 0.49811 -0.05765
 O201 O 0.49797 0.46584 -0.05729
 O202 O 0.49770 0.53278 -0.05886
 O203 O 0.43607 0.55523 0.06362
 O204 O 0.46781 0.59629 0.03086
 C205 C 0.44362 0.58836 0.05323
 O206 O 0.55015 0.45336 0.07523
 O207 O 0.52358 0.41020 0.03863
 C208 C 0.54319 0.41957 0.06610
 O209 O 0.55258 0.55479 0.06939
 O210 O 0.52525 0.59558 0.03117
 C211 C 0.54589 0.58785 0.05793
 O212 O 0.43984 0.45385 0.07254
 O213 O 0.46888 0.41017 0.03720
 C214 C 0.44654 0.42000 0.06232
 Zr215 Zr 0.45812 0.50406 0.05202
 O216 O 0.46316 0.51076 0.11508
 O217 O 0.40965 0.50288 0.06323
 Zr218 Zr 0.53522 0.50349 0.05076
 O219 O 0.53370 0.50979 0.11439
 O220 O 0.58431 0.49970 0.05002
 Zr221 Zr 0.49721 0.44584 0.00219
 Zr222 Zr 0.49706 0.55777 -0.00117
 O223 O 0.49633 0.53711 0.05777
 O224 O 0.49650 0.47038 0.06041
 O225 O 0.45237 0.53430 0.00008
 O226 O 0.54171 0.46927 0.00072
 O227 O 0.45270 0.47046 0.00174
 O228 O 0.54205 0.53434 -0.00116
 H229 H 0.49751 0.54920 -0.08248
 H230 H 0.56009 0.45267 0.00102
 H231 H 0.49551 0.55535 0.08039
 H232 H 0.43371 0.45526 0.00160
 H233 H 0.59347 0.49312 -0.03080
 H234 H 0.59239 0.51940 0.03238
 H235 H 0.52066 0.48984 0.12549
 H236 H 0.46476 0.48584 0.12669
 H237 H 0.39998 0.50030 0.03665
 H238 H 0.40137 0.50809 -0.03034
 H239 H 0.47356 0.47905 -0.12362
 H240 H 0.55266 0.49891 -0.12618
 C241 C 1.25157 0.17009 0.20844
 C242 C 1.23494 0.14783 0.18191
 C243 C 1.21062 0.16285 0.16023
 C244 C 1.20510 0.20109 0.16234
 C245 C 1.22173 0.22326 0.18863
 C246 C 1.24324 0.20761 0.21493
 N247 N 1.19024 0.13885 0.13895
 N248 N 1.16421 0.15089 0.12729
 C249 C 1.14171 0.12839 0.10809
 C250 C 1.11235 0.14369 0.10233
 C251 C 1.08879 0.12233 0.08642
 C252 C 1.09435 0.08523 0.07533
 C253 C 1.12415 0.07001 0.08005
 C254 C 1.14769 0.09139 0.09676
 H255 H 1.27024 0.15754 0.22472
 H256 H 1.24019 0.11858 0.17951
 H257 H 1.18726 0.21371 0.14460
 H258 H 1.21656 0.25256 0.18995
 H259 H 1.10755 0.17216 0.11101
 H260 H 1.06621 0.13499 0.08258
 H261 H 1.12901 0.04149 0.07163
 H262 H 1.17031 0.07905 0.10106
 C263 C 1.20533 0.73694 0.70688
 C264 C 1.18575 0.71527 0.68409
 C265 C 1.19283 0.67830 0.67604
 C266 C 1.22042 0.66307 0.69065
 C267 C 1.24023 0.68489 0.71413
 C268 C 1.23241 0.72207 0.72375
 N269 N 1.17074 0.65752 0.65380
 N270 N 1.17478 0.62474 0.64018
 C271 C 1.15018 0.60689 0.61905
 C272 C 1.15582 0.57358 0.59791
 C273 C 1.13192 0.55635 0.57685
 C274 C 1.10186 0.57200 0.57714
 C275 C 1.09635 0.60526 0.59858
 C276 C 1.12017 0.62256 0.61909
 H277 H 1.19896 0.76563 0.71214
 H278 H 1.16474 0.72742 0.67263
 H279 H 1.22651 0.63450 0.68416
 H280 H 1.26160 0.67267 0.72413
 H281 H 1.17875 0.56111 0.59754
 H282 H 1.13684 0.53061 0.56078
 H283 H 1.07358 0.61818 0.59935
 H284 H 1.11500 0.64819 0.63520
 C285 C 0.73256 0.22406 0.67751
 C286 C 0.71499 0.20001 0.65410
 C287 C 0.69495 0.17484 0.67240
 C288 C 0.69252 0.17402 0.71464
 C289 C 0.71021 0.19771 0.73807
 C290 C 0.73133 0.22261 0.72017
 N291 N 0.67637 0.15148 0.64770
 N292 N 0.65505 0.13174 0.66317
 C293 C 0.63537 0.10878 0.63969
 C294 C 0.60848 0.09508 0.65821
 C295 C 0.58719 0.07525 0.63579
 C296 C 0.59283 0.06805 0.59451
 C297 C 0.62060 0.08018 0.57622
 C298 C 0.64166 0.10086 0.59860
 H299 H 0.74645 0.24408 0.66164
 H300 H 0.71648 0.20155 0.62153
 H301 H 0.67687 0.15514 0.72963
 H302 H 0.70767 0.19640 0.77058
 H303 H 0.60351 0.10090 0.68986
 H304 H 0.56606 0.06593 0.65064
 H305 H 0.62538 0.07496 0.54442
 H306 H 0.66249 0.11103 0.58379
 C307 C 0.70229 0.69906 0.24238
 C308 C 0.67680 0.68358 0.22356
 C309 C 0.67078 0.69119 0.18337
 C310 C 0.69084 0.71453 0.16191
 C311 C 0.71662 0.72999 0.18066
 C312 C 0.72331 0.72195 0.22124
 N313 N 0.64432 0.67441 0.16549
 N314 N 0.63546 0.68082 0.12988
 C315 C 0.60935 0.66179 0.11350
 C316 C 0.60164 0.66673 0.07305
 C317 C 0.57888 0.64474 0.05521
 C318 C 0.56366 0.61748 0.07766
 C319 C 0.57011 0.61423 0.11877
 C320 C 0.59258 0.63617 0.13656
 H321 H 0.70557 0.69342 0.27396
 H322 H 0.66137 0.66587 0.24059
 H323 H 0.68641 0.72117 0.13086
 H324 H 0.73040 0.74919 0.16344
 H325 H 0.61431 0.68637 0.05484
 H326 H 0.57477 0.64728 0.02341
 H327 H 0.55874 0.59335 0.13676
 H328 H 0.59774 0.63189 0.16792
 C329 C 0.78811 -0.25307 0.18553
 C330 C 0.80834 -0.23309 0.16048
 C331 C 0.81247 -0.19520 0.16706
 C332 C 0.79730 -0.17787 0.20014
 C333 C 0.77778 -0.19787 0.22569
 C334 C 0.77137 -0.23557 0.21779
 N335 N 0.83359 -0.17518 0.14163
 N336 N 0.83221 -0.14011 0.13926
 C337 C 0.85477 -0.11948 0.11669
 C338 C 0.84872 -0.08236 0.10796
 C339 C 0.87148 -0.06081 0.08887
 C340 C 0.90090 -0.07598 0.07935
 C341 C 0.90665 -0.11338 0.08751
 C342 C 0.88376 -0.13500 0.10568
 H343 H 0.78518 -0.28228 0.17953
 H344 H 0.82065 -0.24711 0.13574
 H345 H 0.80128 -0.14900 0.20698
 H346 H 0.76831 -0.18336 0.25197
 H347 H 0.82649 -0.06999 0.11649
 H348 H 0.86651 -0.03208 0.08291
 H349 H 0.92904 -0.12590 0.08009
 H350 H 0.88909 -0.16348 0.11233
 C351 C 0.79694 0.25555 0.70046
 C352 C 0.81829 0.27567 0.67759
 C353 C 0.81631 0.31410 0.67652
 C354 C 0.79323 0.33248 0.70000
 C355 C 0.77209 0.31238 0.72369
 C356 C 0.77271 0.27327 0.72314
 N357 N 0.83882 0.33348 0.65255
 N358 N 0.83595 0.36724 0.64297
 C359 C 0.85981 0.38535 0.61974
 C360 C 0.85398 0.42013 0.60337
 C361 C 0.87729 0.43843 0.58131
 C362 C 0.90701 0.42242 0.57601
 C363 C 0.91261 0.38742 0.59224
 C364 C 0.88928 0.36902 0.61361
 H365 H 0.79903 0.22574 0.70006
 H366 H 0.83636 0.26116 0.66024
 H367 H 0.79195 0.36234 0.70067
 H368 H 0.75575 0.32791 0.74260
 H369 H 0.83139 0.43309 0.60779
 H370 H 0.87234 0.46541 0.56933
 H371 H 0.93517 0.37421 0.58854
 H372 H 0.89450 0.34224 0.62592
 C373 C 0.25473 -0.18797 0.71183
 C374 C 0.26948 -0.16460 0.68427
 C375 C 0.29407 -0.17779 0.65962
 C376 C 0.30194 -0.21544 0.66017
 C377 C 0.28733 -0.23867 0.68754
 C378 C 0.26523 -0.22476 0.71619
 N379 N 0.31263 -0.15237 0.63710
 N380 N 0.33826 -0.16307 0.62078
 C381 C 0.35943 -0.13912 0.60059
 C382 C 0.38873 -0.15329 0.58964
 C383 C 0.41157 -0.13029 0.57400
 C384 C 0.40527 -0.09267 0.56841
 C385 C 0.37537 -0.07863 0.57770
 C386 C 0.35258 -0.10170 0.59418
 H387 H 0.23551 -0.17678 0.72978
 H388 H 0.26247 -0.13586 0.68318
 H389 H 0.32023 -0.22671 0.64052
 H390 H 0.29458 -0.26736 0.68800
 H391 H 0.39418 -0.18209 0.59454
 H392 H 0.43429 -0.14190 0.56649
 H393 H 0.37001 -0.04970 0.57352
 H394 H 0.32998 -0.09025 0.60255
 C395 C 0.31301 0.23139 0.21342
 C396 C 0.33697 0.24722 0.19061
 C397 C 0.33320 0.28228 0.17457
 C398 C 0.30476 0.30114 0.18103
 C399 C 0.28089 0.28550 0.20421
 C400 C 0.28508 0.25100 0.22248
 N401 N 0.35843 0.29850 0.15226
 N402 N 0.35434 0.32833 0.13339
 C403 C 0.37837 0.34752 0.11213
 C404 C 0.36995 0.37980 0.09279
 C405 C 0.39246 0.40212 0.07546
 C406 C 0.42407 0.39259 0.07696
 C407 C 0.43274 0.35908 0.09435
 C408 C 0.40988 0.33661 0.11224
 H409 H 0.31648 0.20374 0.22445
 H410 H 0.35847 0.23201 0.18520
 H411 H 0.30096 0.32807 0.16828
 H412 H 0.25912 0.30046 0.20750
 H413 H 0.34580 0.38834 0.09235
 H414 H 0.38516 0.42751 0.06153
 H415 H 0.45699 0.35122 0.09567
 H416 H 0.41681 0.31156 0.12706
 C417 C 0.78823 0.24717 -0.19459
 C418 C 0.80864 0.22897 -0.16928
 C419 C 0.81196 0.19057 -0.17143
 C420 C 0.79516 0.17056 -0.19987
 C421 C 0.77534 0.18869 -0.22582
 C422 C 0.77064 0.22740 -0.22298
 N423 N 0.83396 0.17263 -0.14647
 N424 N 0.83326 0.13800 -0.14049
 C425 C 0.85656 0.11949 -0.11807
 C426 C 0.85113 0.08359 -0.10462
 C427 C 0.87426 0.06409 -0.08479
 C428 C 0.90348 0.07998 -0.07914
 C429 C 0.90875 0.11612 -0.09238
 C430 C 0.88543 0.13583 -0.11135
 H431 H 0.78622 0.27695 -0.19229
 H432 H 0.82196 0.24485 -0.14801
 H433 H 0.79818 0.14094 -0.20302
 H434 H 0.76461 0.17196 -0.24867
 H435 H 0.82900 0.07064 -0.10979
 H436 H 0.86962 0.03629 -0.07490
 H437 H 0.93097 0.12917 -0.08806
 H438 H 0.89024 0.16343 -0.12170
 C439 C 0.76965 0.67520 0.26058
 C440 C 0.78842 0.65135 0.28240
 C441 C 0.80948 0.66527 0.31004
 C442 C 0.81230 0.70371 0.31456
 C443 C 0.79347 0.72759 0.29293
 C444 C 0.77059 0.71391 0.26696
 N445 N 0.82801 0.64004 0.33254
 N446 N 0.84876 0.65149 0.35625
 C447 C 0.86815 0.62747 0.37893
 C448 C 0.89393 0.64270 0.39745
 C449 C 0.91482 0.62028 0.41744
 C450 C 0.91000 0.58210 0.42016
 C451 C 0.88334 0.56681 0.40328
 C452 C 0.86262 0.58934 0.38234
 H453 H 0.75462 0.66286 0.23869
 H454 H 0.78665 0.62182 0.27759
 H455 H 0.82887 0.71539 0.33505
 H456 H 0.79608 0.75706 0.29742
 H457 H 0.89838 0.67198 0.39527
 H458 H 0.93515 0.63275 0.43034
 H459 H 0.87928 0.53740 0.40478
 H460 H 0.84267 0.57699 0.36847
 C461 C 0.25534 0.18019 0.29903
 C462 C 0.26833 0.15929 0.32955
 C463 C 0.29648 0.16974 0.34608
 C464 C 0.31024 0.20291 0.33398
 C465 C 0.29757 0.22337 0.30324
 C466 C 0.27135 0.21068 0.28278
 N467 N 0.31240 0.14503 0.37193
 N468 N 0.33821 0.15446 0.38645
 C469 C 0.35781 0.13050 0.40833
 C470 C 0.38634 0.14437 0.41995
 C471 C 0.40880 0.12098 0.43496
 C472 C 0.40300 0.08312 0.43899
 C473 C 0.37359 0.06938 0.42974
 C474 C 0.35108 0.09298 0.41402
 H475 H 0.23341 0.17157 0.28701
 H476 H 0.25693 0.13438 0.33945
 H477 H 0.33153 0.21242 0.34714
 H478 H 0.30903 0.24862 0.29464
 H479 H 0.39170 0.17321 0.41557
 H480 H 0.43105 0.13247 0.44266
 H481 H 0.36857 0.04032 0.43295
 H482 H 0.32906 0.08177 0.40503
 C483 C 0.30932 0.74754 -0.22729
 C484 C 0.33315 0.73293 -0.20462
 C485 C 0.32807 0.70223 -0.18072
 C486 C 0.29853 0.68596 -0.17986
 C487 C 0.27466 0.70016 -0.20331
 C488 C 0.27981 0.73060 -0.22864
 N489 N 0.35331 0.68833 -0.15781
 N490 N 0.34925 0.66542 -0.12955
 C491 C 0.37446 0.65022 -0.10755
 C492 C 0.36746 0.62585 -0.07651
 C493 C 0.39108 0.60659 -0.05780
 C494 C 0.42228 0.61151 -0.06963
 C495 C 0.42969 0.63758 -0.09908
 C496 C 0.40584 0.65695 -0.11802
 H497 H 0.31423 0.77284 -0.24293
 H498 H 0.35555 0.74626 -0.20487
 H499 H 0.29390 0.66234 -0.16112
 H500 H 0.25198 0.68761 -0.20134
 H501 H 0.34349 0.62046 -0.06808
 H502 H 0.38490 0.58624 -0.03546
 H503 H 0.45357 0.64123 -0.10910
 H504 H 0.41182 0.67576 -0.14195
 C505 C 1.20492 -0.24838 -0.20250
 C506 C 1.18523 -0.22934 -0.17537
 C507 C 1.19301 -0.19435 -0.16111
 C508 C 1.22224 -0.17984 -0.17128
 C509 C 1.24226 -0.19923 -0.19823
 C510 C 1.23257 -0.23215 -0.21739
 N511 N 1.16967 -0.17352 -0.13915
 N512 N 1.17337 -0.14069 -0.12611
 C513 C 1.14788 -0.12068 -0.10734
 C514 C 1.15305 -0.08661 -0.08831
 C515 C 1.12816 -0.06618 -0.07117
 C516 C 1.09761 -0.07939 -0.07341
 C517 C 1.09256 -0.11354 -0.09266
 C518 C 1.11740 -0.13403 -0.10927
 H519 H 1.19776 -0.27543 -0.21266
 H520 H 1.16319 -0.24135 -0.16660
 H521 H 1.22915 -0.15321 -0.15948
 H522 H 1.26457 -0.18740 -0.20599
 H523 H 1.17637 -0.07587 -0.08683
 H524 H 1.13278 -0.03992 -0.05657
 H525 H 1.06939 -0.12464 -0.09473
 H526 H 1.11266 -0.16013 -0.12412
 C527 C 1.20384 0.24952 0.27362
 C528 C 1.18276 0.27294 0.29402
 C529 C 1.19245 0.30625 0.31089
 C530 C 1.22387 0.31590 0.30760
 C531 C 1.24508 0.29257 0.28661
 C532 C 1.23520 0.25963 0.26758
 N533 N 1.16961 0.32917 0.33125
 N534 N 1.17572 0.35832 0.35137
 C535 C 1.15106 0.37966 0.37048
 C536 C 1.15792 0.40846 0.39745
 C537 C 1.13393 0.42868 0.41719
 C538 C 1.10266 0.42049 0.40991
 C539 C 1.09603 0.39194 0.38230
 C540 C 1.11986 0.37177 0.36293
 H541 H 1.19541 0.22322 0.26285
 H542 H 1.15871 0.26479 0.29728
 H543 H 1.23200 0.34125 0.32124
 H544 H 1.26929 0.30026 0.28541
 H545 H 1.18185 0.41491 0.40357
 H546 H 1.13984 0.45050 0.43825
 H547 H 1.07230 0.38480 0.37579
 H548 H 1.11381 0.34986 0.34209
 C549 C 0.72984 -0.23733 0.31759
 C550 C 0.71317 -0.21262 0.34297
 C551 C 0.69608 -0.18367 0.32685
 C552 C 0.69506 -0.18025 0.28485
 C553 C 0.71164 -0.20473 0.25954
 C554 C 0.73056 -0.23284 0.27526
 N555 N 0.67892 -0.15891 0.35333
 N556 N 0.66251 -0.13299 0.33930
 C557 C 0.64386 -0.10851 0.36414
 C558 C 0.62187 -0.08646 0.34548
 C559 C 0.60031 -0.06589 0.36863
 C560 C 0.60100 -0.06641 0.41084
 C561 C 0.62431 -0.08657 0.42971
 C562 C 0.64555 -0.10790 0.40644
 H563 H 0.74165 -0.25999 0.33157
 H564 H 0.71331 -0.21627 0.37531
 H565 H 0.68143 -0.15863 0.27146
 H566 H 0.71042 -0.20114 0.22726
 H567 H 0.62043 -0.08673 0.31293
 H568 H 0.58239 -0.05055 0.35364
 H569 H 0.62486 -0.08762 0.46228
 H570 H 0.66251 -0.12471 0.42139
 C571 C 0.70357 0.29399 -0.25103
 C572 C 0.67780 0.31137 -0.23240
 C573 C 0.67092 0.30622 -0.19150
 C574 C 0.69053 0.28382 -0.16908
 C575 C 0.71660 0.26669 -0.18753
 C576 C 0.72403 0.27180 -0.22897
 N577 N 0.64412 0.32443 -0.17368
 N578 N 0.63388 0.31827 -0.13804
 C579 C 0.60777 0.33856 -0.12095
 C580 C 0.59781 0.33224 -0.08103
 C581 C 0.57513 0.35517 -0.06216
 C582 C 0.56245 0.38492 -0.08300
 C583 C 0.57102 0.38959 -0.12376
 C584 C 0.59333 0.36664 -0.14260
 H585 H 0.70738 0.29736 -0.28316
 H586 H 0.66273 0.32840 -0.25015
 H587 H 0.68552 0.27920 -0.13742
 H588 H 0.72994 0.24831 -0.16924
 H589 H 0.60863 0.31063 -0.06396
 H590 H 0.56911 0.35122 -0.03070
 H591 H 0.56151 0.41226 -0.14058
 H592 H 0.60028 0.37201 -0.17354
 C593 C 1.19630 0.22896 -0.23109
 C594 C 1.17645 0.20400 -0.21262
 C595 C 1.18720 0.18014 -0.18357
 C596 C 1.21863 0.18078 -0.17356
 C597 C 1.23880 0.20590 -0.19229
 C598 C 1.22776 0.23192 -0.22009
 N599 N 1.16522 0.15568 -0.16556
 N600 N 1.17122 0.13290 -0.13796
 C601 C 1.14690 0.11033 -0.12158
 C602 C 1.15255 0.08789 -0.08852
 C603 C 1.12832 0.06794 -0.07043
 C604 C 1.09803 0.07023 -0.08526
 C605 C 1.09280 0.09176 -0.11932
 C606 C 1.11689 0.11153 -0.13726
 H607 H 1.18661 0.24501 -0.25493
 H608 H 1.15243 0.20294 -0.22141
 H609 H 1.22761 0.16176 -0.15179
 H610 H 1.26318 0.20487 -0.18522
 H611 H 1.17554 0.08658 -0.07617
 H612 H 1.13313 0.05160 -0.04422
 H613 H 1.06988 0.09398 -0.13177
 H614 H 1.11181 0.12835 -0.16300
 C615 C 1.21606 0.70322 0.24363
 C616 C 1.19726 0.67590 0.26031
 C617 C 1.19416 0.67248 0.30204
 C618 C 1.20990 0.69706 0.32713
 C619 C 1.22827 0.72494 0.31068
 C620 C 1.23266 0.72833 0.26824
 N621 N 1.17303 0.64588 0.31822
 N622 N 1.17301 0.63667 0.35511
 C623 C 1.15021 0.61226 0.37176
 C624 C 1.15431 0.59799 0.41029
 C625 C 1.13111 0.57675 0.42869
 C626 C 1.10313 0.57021 0.40903
 C627 C 1.09939 0.58384 0.37000
 C628 C 1.12279 0.60443 0.35139
 H629 H 1.21746 0.70518 0.21107
 H630 H 1.18472 0.65757 0.24056
 H631 H 1.20696 0.69571 0.35960
 H632 H 1.23778 0.74439 0.33191
 H633 H 1.17527 0.60396 0.42639
 H634 H 1.13450 0.56680 0.45890
 H635 H 1.07811 0.57908 0.35411
 H636 H 1.11898 0.61530 0.32169
 C637 C 0.72254 0.24348 0.32581
 C638 C 0.70562 0.22083 0.35201
 C639 C 0.68812 0.19170 0.33680
 C640 C 0.68675 0.18625 0.29491
 C641 C 0.70356 0.20862 0.26886
 C642 C 0.72309 0.23655 0.28368
 N643 N 0.67124 0.16840 0.36390
 N644 N 0.65481 0.14235 0.35007
 C645 C 0.63653 0.11851 0.37467
 C646 C 0.61488 0.09625 0.35559
 C647 C 0.59422 0.07527 0.37828
 C648 C 0.59547 0.07558 0.42046
 C649 C 0.61828 0.09626 0.43977
 C650 C 0.63865 0.11805 0.41692
 H651 H 0.73486 0.26635 0.33893
 H652 H 0.70605 0.22608 0.38423
 H653 H 0.67285 0.16447 0.28214
 H654 H 0.70221 0.20328 0.23674
 H655 H 0.61321 0.09637 0.32306
 H656 H 0.57672 0.05943 0.36298
 H657 H 0.61928 0.09696 0.47236
 H658 H 0.65545 0.13498 0.43212
 C659 C 0.70464 0.70637 -0.24673
 C660 C 0.67956 0.68792 -0.22923
 C661 C 0.67232 0.69247 -0.18820
 C662 C 0.69099 0.71502 -0.16437
 C663 C 0.71661 0.73291 -0.18162
 C664 C 0.72426 0.72864 -0.22326
 N665 N 0.64641 0.67300 -0.17150
 N666 N 0.63354 0.68116 -0.13747
 C667 C 0.60891 0.65896 -0.12136
 C668 C 0.59229 0.67047 -0.08634
 C669 C 0.57031 0.64713 -0.06821
 C670 C 0.56554 0.61160 -0.08431
 C671 C 0.58100 0.60120 -0.12066
 C672 C 0.60229 0.62458 -0.13903
 H673 H 0.70857 0.70374 -0.27904
 H674 H 0.66520 0.67068 -0.24796
 H675 H 0.68570 0.71893 -0.13249
 H676 H 0.72935 0.75131 -0.16231
 H677 H 0.59688 0.69712 -0.07263
 H678 H 0.55807 0.65622 -0.04092
 H679 H 0.57739 0.57431 -0.13441
 H680 H 0.61451 0.61503 -0.16621
 C681 C 0.78791 -0.24726 -0.18817
 C682 C 0.80842 -0.22977 -0.16219
 C683 C 0.81147 -0.19140 -0.16234
 C684 C 0.79435 -0.17070 -0.18946
 C685 C 0.77440 -0.18808 -0.21597
 C686 C 0.76991 -0.22670 -0.21505
 N687 N 0.83344 -0.17402 -0.13674
 N688 N 0.83253 -0.13937 -0.12977
 C689 C 0.85563 -0.12087 -0.10701
 C690 C 0.85041 -0.08416 -0.09467
 C691 C 0.87361 -0.06433 -0.07540
 C692 C 0.90266 -0.08084 -0.06907
 C693 C 0.90763 -0.11792 -0.08083
 C694 C 0.88424 -0.13788 -0.09940
 H695 H 0.78609 -0.27704 -0.18755
 H696 H 0.82204 -0.24616 -0.14199
 H697 H 0.79717 -0.14109 -0.19112
 H698 H 0.76335 -0.17085 -0.23775
 H699 H 0.82849 -0.07072 -0.10062
 H700 H 0.86920 -0.03578 -0.06673
 H701 H 0.92973 -0.13142 -0.07602
 H702 H 0.88886 -0.16616 -0.10893
 C703 C 0.76699 0.32377 0.26444
 C704 C 0.78692 0.34717 0.28528
 C705 C 0.80682 0.33314 0.31402
 C706 C 0.80744 0.29494 0.32057
 C707 C 0.78739 0.27156 0.29999
 C708 C 0.76547 0.28569 0.27314
 N709 N 0.82634 0.35801 0.33576
 N710 N 0.84655 0.34622 0.35985
 C711 C 0.86662 0.37007 0.38189
 C712 C 0.89249 0.35439 0.39979
 C713 C 0.91391 0.37662 0.41923
 C714 C 0.90947 0.41505 0.42202
 C715 C 0.88273 0.43081 0.40579
 C716 C 0.86153 0.40847 0.38538
 H717 H 0.75292 0.33592 0.24157
 H718 H 0.78693 0.37638 0.27888
 H719 H 0.82313 0.28314 0.34194
 H720 H 0.78825 0.24229 0.30607
 H721 H 0.89657 0.32488 0.39753
 H722 H 0.93427 0.36380 0.43169
 H723 H 0.87895 0.46040 0.40743
 H724 H 0.84149 0.42112 0.37203
 C725 C 0.26158 -0.17795 0.28081
 C726 C 0.27865 -0.15609 0.30691
 C727 C 0.30132 -0.17176 0.33050
 C728 C 0.30640 -0.21003 0.32865
 C729 C 0.28900 -0.23223 0.30309
 C730 C 0.26561 -0.21702 0.27874
 N731 N 0.32055 -0.14780 0.35340
 N732 N 0.34532 -0.15940 0.36906
 C733 C 0.36570 -0.13533 0.38997
 C734 C 0.39530 -0.14846 0.39853
 C735 C 0.41703 -0.12494 0.41524
 C736 C 0.40929 -0.08791 0.42433
 C737 C 0.37913 -0.07502 0.41736
 C738 C 0.35748 -0.09852 0.39980
 H739 H 0.24631 -0.16323 0.26126
 H740 H 0.27520 -0.12643 0.30731
 H741 H 0.32423 -0.22274 0.34634
 H742 H 0.29409 -0.26157 0.30177
 H743 H 0.40182 -0.17674 0.39106
 H744 H 0.43999 -0.13574 0.42101
 H745 H 0.37264 -0.04663 0.42435
 H746 H 0.33461 -0.08787 0.39343
 C747 C 0.29173 0.30672 -0.23574
 C748 C 0.31501 0.32454 -0.21509
 C749 C 0.31858 0.31889 -0.17407
 C750 C 0.29665 0.29776 -0.15278
 C751 C 0.27245 0.28050 -0.17339
 C752 C 0.27094 0.28262 -0.21586
 N753 N 0.34529 0.33454 -0.15596
 N754 N 0.35490 0.32694 -0.12107
 C755 C 0.38252 0.34423 -0.10679
 C756 C 0.39109 0.34034 -0.06654
 C757 C 0.41577 0.36088 -0.05124
 C758 C 0.43199 0.38553 -0.07619
 C759 C 0.42481 0.38729 -0.11708
 C760 C 0.40048 0.36676 -0.13231
 H761 H 0.29128 0.30979 -0.26814
 H762 H 0.33146 0.34138 -0.23163
 H763 H 0.29845 0.29422 -0.12058
 H764 H 0.25587 0.26486 -0.15594
 H765 H 0.37766 0.32291 -0.04656
 H766 H 0.42058 0.35966 -0.01938
 H767 H 0.43692 0.40626 -0.13677
 H768 H 0.39485 0.36988 -0.16370
 C769 C 1.20018 -0.20495 0.24964
 C770 C 1.17791 -0.18320 0.23143
 C771 C 1.18030 -0.17600 0.19037
 C772 C 1.20412 -0.19280 0.16689
 C773 C 1.22620 -0.21530 0.18482
 C774 C 1.22599 -0.22011 0.22727
 N775 N 1.15811 -0.15162 0.17340
 N776 N 1.16186 -0.13785 0.13860
 C777 C 1.13901 -0.11374 0.12240
 C778 C 1.14512 -0.09669 0.08549
 C779 C 1.12261 -0.07418 0.06836
 C780 C 1.09351 -0.06884 0.08785
 C781 C 1.08776 -0.08535 0.12532
 C782 C 1.11031 -0.10747 0.14252
 H783 H 1.19800 -0.20882 0.28191
 H784 H 1.15916 -0.17104 0.24967
 H785 H 1.20557 -0.18871 0.13463
 H786 H 1.24320 -0.22858 0.16484
 H787 H 1.16716 -0.10132 0.06973
 H788 H 1.12755 -0.06212 0.03924
 H789 H 1.06557 -0.08171 0.14105
 H790 H 1.10502 -0.12027 0.17112
 C791 C 1.21080 0.31016 0.75349
 C792 C 1.19184 0.33453 0.73312
 C793 C 1.19418 0.33703 0.69125
 C794 C 1.21680 0.31588 0.66989
 C795 C 1.23574 0.29103 0.69027
 C796 C 1.23193 0.28636 0.73236
 N797 N 1.17205 0.35964 0.67144
 N798 N 1.17377 0.36698 0.63406
 C799 C 1.14969 0.38785 0.61559
 C800 C 1.15460 0.40168 0.57677
 C801 C 1.13085 0.42082 0.55768
 C802 C 1.10158 0.42568 0.57695
 C803 C 1.09683 0.41199 0.61597
 C804 C 1.12068 0.39351 0.63523
 H805 H 1.20804 0.30854 0.78598
 H806 H 1.17476 0.35105 0.74999
 H807 H 1.21940 0.31798 0.63746
 H808 H 1.25317 0.27581 0.67277
 H809 H 1.17680 0.39747 0.56126
 H810 H 1.13511 0.43094 0.52751
 H811 H 1.07461 0.41551 0.63165
 H812 H 1.11620 0.38298 0.66516
 C813 C 0.70792 -0.19620 0.75268
 C814 C 0.68827 -0.17228 0.73289
 C815 C 0.68887 -0.17110 0.69093
 C816 C 0.70901 -0.19469 0.66861
 C817 C 0.72839 -0.21932 0.68835
 C818 C 0.72889 -0.21985 0.73099
 N819 N 0.66713 -0.14756 0.67194
 N820 N 0.66940 -0.13896 0.63497
 C821 C 0.64568 -0.11719 0.61720
 C822 C 0.65136 -0.10064 0.57990
 C823 C 0.62788 -0.08042 0.56162
 C824 C 0.59821 -0.07749 0.58008
 C825 C 0.59276 -0.09384 0.61765
 C826 C 0.61629 -0.11326 0.63617
 H827 H 0.70682 -0.19632 0.78533
 H828 H 0.67235 -0.15466 0.75034
 H829 H 0.70900 -0.19495 0.63596
 H830 H 0.74217 -0.23831 0.66980
 H831 H 0.67392 -0.10354 0.56497
 H832 H 0.63264 -0.06800 0.53268
 H833 H 0.57018 -0.09179 0.63269
 H834 H 0.61126 -0.12596 0.66490
 C835 C 0.69839 0.30620 0.24995
 C836 C 0.67339 0.32313 0.23160
 C837 C 0.66543 0.31313 0.19245
 C838 C 0.68300 0.28589 0.17148
 C839 C 0.70842 0.26909 0.18966
 C840 C 0.71715 0.27958 0.22910
 N841 N 0.63975 0.33179 0.17495
 N842 N 0.62815 0.32266 0.14133
 C843 C 0.60328 0.34404 0.12512
 C844 C 0.59090 0.33409 0.08780
 C845 C 0.56922 0.35721 0.06950
 C846 C 0.56013 0.39084 0.08812
 C847 C 0.57116 0.39948 0.12661
 C848 C 0.59236 0.37634 0.14497
 H849 H 0.70308 0.31372 0.28092
 H850 H 0.65981 0.34385 0.24825
 H851 H 0.67696 0.27740 0.14126
 H852 H 0.72025 0.24701 0.17309
 H853 H 0.59890 0.30916 0.07222
 H854 H 0.56096 0.34985 0.03996
 H855 H 0.56431 0.42502 0.14193
 H856 H 0.60117 0.38462 0.17399
 C857 C 0.76944 0.19586 0.23657
 C858 C 0.78764 0.17259 0.21175
 C859 C 0.80161 0.18568 0.17653
 C860 C 0.79762 0.22294 0.16654
 C861 C 0.77886 0.24632 0.19116
 C862 C 0.76317 0.23282 0.22576
 N863 N 0.82064 0.16064 0.15272
 N864 N 0.83848 0.17104 0.12406
 C865 C 0.85808 0.14522 0.10206
 C866 C 0.88430 0.15839 0.08147
 C867 C 0.90614 0.13375 0.06435
 C868 C 0.90166 0.09546 0.06662
 C869 C 0.87438 0.08215 0.08497
 C870 C 0.85285 0.10690 0.10308
 H871 H 0.76075 0.18450 0.26453
 H872 H 0.79147 0.14426 0.22050
 H873 H 0.80885 0.23391 0.13980
 H874 H 0.77615 0.27495 0.18293
 H875 H 0.88856 0.18778 0.08041
 H876 H 0.92695 0.14459 0.05003
 H877 H 0.87053 0.05273 0.08705
 H878 H 0.83256 0.09613 0.11862
 C879 C 0.79436 0.74878 0.70407
 C880 C 0.81593 0.72961 0.67936
 C881 C 0.81581 0.69110 0.67726
 C882 C 0.79443 0.67177 0.70133
 C883 C 0.77315 0.69090 0.72671
 C884 C 0.77176 0.72996 0.72734
 N885 N 0.83850 0.67239 0.65186
 N886 N 0.83656 0.63833 0.64224
 C887 C 0.86028 0.61994 0.61809
 C888 C 0.85496 0.58436 0.60274
 C889 C 0.87830 0.56526 0.58057
 C890 C 0.90757 0.58129 0.57414
 C891 C 0.91265 0.61719 0.58914
 C892 C 0.88921 0.63642 0.61065
 H893 H 0.79506 0.77866 0.70482
 H894 H 0.83275 0.74485 0.66160
 H895 H 0.79467 0.64189 0.70125
 H896 H 0.75837 0.67465 0.74614
 H897 H 0.83278 0.57131 0.60829
 H898 H 0.87378 0.53757 0.56957
 H899 H 0.93491 0.63035 0.58451
 H900 H 0.89396 0.66384 0.62224
 C901 C 0.30275 0.22449 0.74221
 C902 C 0.32150 0.19970 0.72048
 C903 C 0.31003 0.17992 0.68801
 C904 C 0.27890 0.18446 0.67759
 C905 C 0.25975 0.20964 0.69957
 C906 C 0.27171 0.23150 0.73129
 N907 N 0.33135 0.15575 0.66697
 N908 N 0.32530 0.13455 0.63735
 C909 C 0.35009 0.11258 0.61950
 C910 C 0.34443 0.08758 0.58792
 C911 C 0.36894 0.06667 0.57023
 C912 C 0.39942 0.07072 0.58396
 C913 C 0.40477 0.09560 0.61583
 C914 C 0.38053 0.11618 0.63332
 H915 H 0.31299 0.23736 0.76820
 H916 H 0.34531 0.19555 0.72931
 H917 H 0.26947 0.16867 0.65286
 H918 H 0.23561 0.21225 0.69172
 H919 H 0.32115 0.08444 0.57691
 H920 H 0.36413 0.04781 0.54556
 H921 H 0.42785 0.09952 0.62726
 H922 H 0.38583 0.13525 0.65759
 C923 C 0.29488 0.77093 0.20078
 C924 C 0.32018 0.75934 0.17627
 C925 C 0.32702 0.72183 0.17127
 C926 C 0.30923 0.69610 0.19257
 C927 C 0.28457 0.70750 0.21796
 C928 C 0.27559 0.74526 0.22150
 N929 N 0.35213 0.70976 0.14493
 N930 N 0.35018 0.67871 0.12681
 C931 C 0.37437 0.66190 0.10238
 C932 C 0.36647 0.63138 0.07879
 C933 C 0.38943 0.60933 0.06042
 C934 C 0.42093 0.61726 0.06544
 C935 C 0.42912 0.64942 0.08669
 C936 C 0.40580 0.67177 0.10529
 H937 H 0.29014 0.80028 0.20353
 H938 H 0.33406 0.77962 0.16058
 H939 H 0.31493 0.66695 0.19029
 H940 H 0.27332 0.68616 0.23515
 H941 H 0.34238 0.62354 0.07639
 H942 H 0.38260 0.58477 0.04394
 H943 H 0.45331 0.65581 0.09113
 H944 H 0.41232 0.69522 0.12375
   
