data_POSCAR
  _audit_creation_date              2014-09-24
  _audit_creation_method            'ToBaCCo'
  _symmetry_space_group_name_H-M    'P1'
  _symmetry_Int_Tables_number       1
  _symmetry_cell_setting            triclinic
  loop_
  _symmetry_equiv_pos_as_xyz
 x,y,z
_cell_length_a 23.3821
_cell_length_b 23.3081
_cell_length_c 23.3326
_cell_angle_alpha 91.892800
_cell_angle_beta 88.012900
_cell_angle_gamma 92.113700
loop_
  _atom_site_label
  _atom_site_type_symbol
  _atom_site_fract_x
  _atom_site_fract_y
  _atom_site_fract_z
C1 C 0.47905 0.97595 -0.65546
 C2 C 0.43516 1.00107 -0.62162
 C3 C 0.44695 1.01784 -0.56467
 C4 C 0.49882 1.00520 -0.53951
 C5 C 0.54207 0.98051 -0.57502
 C6 C 0.53301 0.96632 -0.63324
 C7 C 0.50582 1.01471 -0.47589
 C8 C 0.56013 1.01691 -0.45128
 C9 C 0.56592 1.01912 -0.39120
 C10 C 0.51655 1.02587 -0.35564
 C11 C 0.46266 1.02867 -0.37939
 C12 C 0.45744 1.01958 -0.43859
 H13 H 0.47130 0.96362 -0.69959
 H14 H 0.41570 1.04245 -0.54044
 H15 H 0.58176 0.96866 -0.55708
 H16 H 0.59829 1.01704 -0.47862
 H17 H 0.51948 1.02914 -0.30951
 H18 H 0.41465 1.01580 -0.45460
 C19 C -0.65230 1.52392 0.02490
 C20 C -0.63491 1.46698 0.02654
 C21 C -0.57763 1.45548 0.01092
 C22 C -0.53634 1.50039 0.00071
 C23 C -0.55576 1.55738 0.00173
 C24 C -0.61411 1.56954 0.01052
 C25 C -0.47329 1.48837 -0.00919
 C26 C -0.43415 1.53091 -0.03086
 C27 C -0.37524 1.52189 -0.03543
 C28 C -0.35476 1.46897 -0.02079
 C29 C -0.39211 1.42401 -0.00334
 C30 C -0.45092 1.43465 0.00385
 H31 H -0.69659 1.53274 0.03496
 H32 H -0.56534 1.41146 0.00975
 H33 H -0.52602 1.59259 -0.00621
 H34 H -0.44825 1.57127 -0.04544
 H35 H -0.30899 1.46332 -0.02234
 H36 H -0.47854 1.40038 0.01952
 C37 C -0.01474 0.34825 0.52991
 C38 C -0.00564 0.36598 0.47306
 C39 C -0.00852 0.42484 0.46224
 C40 C -0.01950 0.46529 0.50727
 C41 C -0.03177 0.44537 0.56297
 C42 C -0.02805 0.38710 0.57508
 C43 C -0.01283 0.52833 0.49750
 C44 C 0.00918 0.56557 0.54065
 C45 C 0.01712 0.62506 0.53275
 C46 C 0.00488 0.64669 0.47905
 C47 C -0.01337 0.60961 0.43381
 C48 C -0.02452 0.55114 0.44436
 H49 H -0.01227 0.30336 0.53919
 H50 H 0.00253 0.43951 0.41962
 H51 H -0.04348 0.47542 0.59733
 H52 H 0.01911 0.54813 0.58132
 H53 H 0.01441 0.69157 0.47100
 H54 H -0.04168 0.52329 0.41063
 O55 O -0.14102 0.98578 -0.09037
 O56 O 0.14991 1.02829 -0.06473
 O57 O -0.00450 1.09277 -0.13187
 O58 O 0.02580 0.94159 -0.15879
 O59 O 0.03062 0.86389 -0.10056
 O60 O -0.01878 1.15074 -0.05089
 O61 O 0.08690 1.03023 -0.13857
 O62 O -0.06442 1.00465 -0.15287
 Zr63 Zr 0.00656 1.01018 -0.09970
 O64 O 0.06056 0.96049 -0.05601
 O65 O -0.05694 1.04505 -0.04749
 C66 C -0.11846 0.99552 -0.14093
 C67 C 0.13770 1.03462 -0.11799
 C68 C -0.01386 1.14196 -0.10601
 C69 C 0.03492 0.88793 -0.14989
 H70 H 0.06775 1.09376 -0.05554
 O71 O 0.04501 1.06193 -0.03794
 H72 H -0.05878 0.91971 -0.09592
 O73 O -0.04141 0.94374 -0.06497
 O74 O 0.13310 1.00934 0.08920
 O75 O -0.15538 0.95467 0.06082
 O76 O 0.05130 1.15064 0.03428
 O77 O 0.09450 0.86380 -0.01872
 O78 O -0.05768 0.83841 -0.03403
 O79 O -0.10099 1.12620 0.01620
 O80 O -0.02399 1.04799 0.15678
 O81 O -0.01105 0.89678 0.13044
 O82 O -0.02502 1.12839 0.10212
 O83 O 0.00645 0.83839 0.05073
 O84 O 0.13080 1.09463 0.02708
 O85 O -0.16025 1.04632 -0.00065
 O86 O -0.13742 0.89419 -0.02752
 O87 O 0.15328 0.94357 -0.00143
 O88 O 0.05728 0.98612 0.15100
 O89 O -0.09495 0.95859 0.13703
 Zr90 Zr 0.09601 1.01140 0.00809
 Zr91 Zr -0.10290 0.97825 -0.01017
 Zr92 Zr -0.01815 1.09329 0.01698
 Zr93 Zr 0.01134 0.89651 -0.01749
 Zr94 Zr -0.01408 0.97930 0.09773
 O95 O -0.05268 0.92738 0.03642
 O96 O 0.03483 1.04555 0.06335
 C97 C 0.11098 0.99886 0.13979
 C98 C -0.14457 0.94923 0.11446
 C99 C 0.10582 1.14299 0.03686
 C100 C 0.14439 0.88893 -0.01151
 C101 C -0.11234 0.84560 -0.03619
 C102 C -0.15073 1.10104 0.00859
 C103 C -0.02295 1.10303 0.15076
 C104 C -0.00339 0.84709 0.10547
 H105 H -0.09692 1.04561 0.08139
 O106 O -0.06764 1.02922 0.05460
 H107 H 0.07436 0.92112 0.06857
 O108 O 0.04977 0.94497 0.04613
 C109 C 0.31644 1.01262 0.27671
 C110 C 0.26976 1.00676 0.31365
 C111 C 0.27470 1.00230 0.37241
 C112 C 0.33003 1.00280 0.39392
 C113 C 0.37970 1.00674 0.35660
 C114 C 0.37182 1.01281 0.29690
 O115 O 0.30258 1.01544 0.22224
 C116 C 0.24585 1.01067 0.22484
 C117 C 0.22361 1.00492 0.27974
 C118 C 0.16536 0.99634 0.29186
 C119 C 0.12857 0.99378 0.24549
 C120 C 0.15028 1.00090 0.18837
 C121 C 0.21007 1.00937 0.17827
 H122 H 0.23725 0.99733 0.40065
 H123 H 0.33349 0.99640 0.43937
 H124 H 0.40741 1.01822 0.26649
 H125 H 0.14891 0.99080 0.33533
 H126 H 0.08331 0.98581 0.25428
 H127 H 0.22849 1.01395 0.13538
 C128 C -0.32468 0.94541 0.29386
 C129 C -0.34016 0.90757 0.25024
 C130 C -0.39537 0.88461 0.24515
 C131 C -0.43697 0.90253 0.28574
 C132 C -0.42312 0.94292 0.33082
 C133 C -0.36513 0.96270 0.33588
 O134 O -0.27150 0.96695 0.28701
 C135 C -0.25324 0.94225 0.23789
 C136 C -0.29375 0.90534 0.21395
 C137 C -0.28643 0.87919 0.16002
 C138 C -0.23573 0.89241 0.12888
 C139 C -0.19353 0.93105 0.15186
 C140 C -0.20177 0.95530 0.20785
 H141 H -0.40656 0.85540 0.20993
 H142 H -0.48005 0.88455 0.28178
 H143 H -0.35274 0.99486 0.36810
 H144 H -0.31953 0.85137 0.14161
 H145 H -0.22997 0.87380 0.08610
 H146 H -0.17103 0.98623 0.22569
 C147 C -0.31240 1.02478 -0.28701
 C148 C -0.27279 0.99261 -0.31716
 C149 C -0.28234 0.96896 -0.37151
 C150 C -0.33518 0.97836 -0.39559
 C151 C -0.37695 1.01225 -0.36592
 C152 C -0.36443 1.03633 -0.31085
 O153 O -0.29617 1.04071 -0.23471
 C154 C -0.24509 1.01816 -0.23190
 C155 C -0.22854 0.98884 -0.28153
 C156 C -0.17651 0.96199 -0.28811
 C157 C -0.14007 0.96545 -0.24155
 C158 C -0.15683 0.99420 -0.18947
 C159 C -0.21013 1.02091 -0.18455
 H160 H -0.25093 0.94273 -0.39390
 H161 H -0.34382 0.95756 -0.43666
 H162 H -0.39417 1.06293 -0.28664
 H163 H -0.16441 0.93923 -0.32761
 H164 H -0.09934 0.94474 -0.24553
 H165 H -0.22366 1.04338 -0.14531
 C166 C 0.34835 1.03178 -0.26006
 C167 C 0.31252 1.07083 -0.28134
 C168 C 0.32373 1.09810 -0.33271
 C169 C 0.37385 1.08431 -0.36382
 C170 C 0.41142 1.04356 -0.34355
 C171 C 0.39877 1.01745 -0.29036
 O172 O 0.32798 1.00894 -0.21168
 C173 C 0.27819 1.03406 -0.20251
 C174 C 0.26690 1.07223 -0.24406
 C175 C 0.21590 1.10079 -0.24528
 C176 C 0.17431 1.08894 -0.20232
 C177 C 0.18453 1.04954 -0.15909
 C178 C 0.23767 1.02241 -0.15853
 H179 H 0.29458 1.12837 -0.34865
 H180 H 0.38334 1.10523 -0.40399
 H181 H 0.42618 0.98569 -0.27417
 H182 H 0.20784 1.13001 -0.27895
 H183 H 0.13376 1.10990 -0.20308
 H184 H 0.24594 0.99124 -0.12670
 C185 C 0.28328 1.32625 0.03526
 C186 C 0.24043 1.34125 0.07404
 C187 C 0.23790 1.39523 0.10040
 C188 C 0.28065 1.43607 0.08544
 C189 C 0.32516 1.42305 0.04406
 C190 C 0.32696 1.36613 0.02006
 O191 O 0.27533 1.27360 0.01254
 C192 C 0.22633 1.25530 0.03752
 C193 C 0.20337 1.29524 0.07555
 C194 C 0.15042 1.28712 0.10354
 C195 C 0.11935 1.23594 0.09133
 C196 C 0.14171 1.19408 0.05200
 C197 C 0.19650 1.20345 0.02545
 H198 H 0.20366 1.40589 0.13087
 H199 H 0.27917 1.47771 0.10727
 H200 H 0.35858 1.35405 -0.01265
 H201 H 0.13296 1.31968 0.13259
 H202 H 0.07754 1.22914 0.11198
 H203 H 0.21394 1.17273 -0.00566
 C204 C 0.28725 0.68837 -0.01298
 C205 C 0.32186 0.73576 -0.00110
 C206 C 0.37870 0.73150 0.01341
 C207 C 0.40047 0.67617 0.01637
 C208 C 0.36524 0.62588 0.00529
 C209 C 0.30780 0.63336 -0.01075
 O210 O 0.23403 0.70097 -0.02409
 C211 C 0.23478 0.75773 -0.01876
 C212 C 0.28747 0.78136 -0.00489
 C213 C 0.29690 0.84012 0.00466
 C214 C 0.24995 0.87564 0.00062
 C215 C 0.19478 0.85200 -0.01252
 C216 C 0.18773 0.79205 -0.02315
 H217 H 0.40510 0.76941 0.02336
 H218 H 0.44384 0.67332 0.03031
 H219 H 0.27932 0.59767 -0.02261
 H220 H 0.33859 0.85788 0.01592
 H221 H 0.25645 0.92133 0.00910
 H222 H 0.14645 0.77219 -0.03287
 C223 C -0.29144 0.66351 -0.04314
 C224 C -0.24724 0.64815 -0.08029
 C225 C -0.24458 0.59415 -0.10711
 C226 C -0.28864 0.55378 -0.09416
 C227 C -0.33394 0.56775 -0.05461
 C228 C -0.33595 0.62398 -0.02979
 O229 O -0.28382 0.71587 -0.01968
 C230 C -0.23355 0.73370 -0.04225
 C231 C -0.20941 0.69368 -0.07943
 C232 C -0.15505 0.70131 -0.10454
 C233 C -0.12401 0.75207 -0.09039
 C234 C -0.14775 0.79419 -0.05214
 C235 C -0.20384 0.78525 -0.02856
 H236 H -0.20904 0.58297 -0.13576
 H237 H -0.28674 0.51108 -0.11373
 H238 H -0.36924 0.63548 0.00147
 H239 H -0.13661 0.66873 -0.13290
 H240 H -0.08125 0.75844 -0.10902
 H241 H -0.22273 0.81621 0.00123
 C242 C -0.29688 1.29547 -0.01398
 C243 C -0.32291 1.25998 0.02572
 C244 C -0.37189 1.27509 0.05746
 C245 C -0.39462 1.32898 0.04805
 C246 C -0.36893 1.36622 0.00655
 C247 C -0.31965 1.34803 -0.02533
 O248 O -0.24889 1.27521 -0.03728
 C249 C -0.24443 1.22563 -0.01191
 C250 C -0.28897 1.21369 0.02650
 C251 C -0.29229 1.16377 0.05788
 C252 C -0.24755 1.12521 0.04982
 C253 C -0.20032 1.13806 0.01208
 C254 C -0.19904 1.18875 -0.01947
 H255 H -0.39109 1.24705 0.08940
 H256 H -0.43132 1.34187 0.07419
 H257 H -0.29898 1.37394 -0.05821
 H258 H -0.32767 1.15511 0.08787
 H259 H -0.24852 1.08656 0.07442
 H260 H -0.16331 1.19949 -0.04842
 C261 C -0.00633 1.28363 0.33282
 C262 C 0.02094 1.23569 0.34838
 C263 C 0.04438 1.23025 0.40147
 C264 C 0.03775 1.27535 0.44158
 C265 C 0.00717 1.32492 0.42878
 C266 C -0.01302 1.32988 0.37219
 O267 O -0.02771 1.27795 0.28056
 C268 C -0.01379 1.22501 0.26338
 C269 C 0.01578 1.19777 0.30386
 C270 C 0.03158 1.14129 0.29785
 C271 C 0.01668 1.11124 0.24775
 C272 C -0.01295 1.13767 0.20403
 C273 C -0.02811 1.19594 0.21175
 H274 H 0.06614 1.19201 0.41212
 H275 H 0.05703 1.27130 0.48269
 H276 H -0.03727 1.36614 0.36048
 H277 H 0.05404 1.12075 0.33093
 H278 H 0.02926 1.06720 0.24280
 H279 H -0.05085 1.21730 0.17942
 C280 C -0.04789 1.28825 -0.29964
 C281 C -0.02562 1.32229 -0.25605
 C282 C -0.00764 1.37919 -0.26358
 C283 C -0.01117 1.40128 -0.31867
 C284 C -0.03312 1.36666 -0.36484
 C285 C -0.05369 1.30985 -0.35397
 O286 O -0.05797 1.23410 -0.28537
 C287 C -0.04161 1.23379 -0.23154
 C288 C -0.02200 1.28677 -0.21125
 C289 C -0.00087 1.29549 -0.15651
 C290 C 0.00030 1.24766 -0.12150
 C291 C -0.01828 1.19231 -0.14214
 C292 C -0.03988 1.18555 -0.19792
 H293 H 0.01092 1.40487 -0.22898
 H294 H 0.00601 1.44430 -0.32575
 H295 H -0.07148 1.28201 -0.38735
 H296 H 0.01480 1.33743 -0.14155
 H297 H 0.01720 1.25342 -0.07897
 H298 H -0.05435 1.14390 -0.21486
 C299 C 0.03421 0.74950 -0.36347
 C300 C 0.07236 0.72765 -0.32718
 C301 C 0.09560 0.67408 -0.33608
 C302 C 0.07807 0.64089 -0.38379
 C303 C 0.03805 0.66151 -0.42230
 C304 C 0.01742 0.71788 -0.41255
 O305 O 0.01287 0.79879 -0.34365
 C306 C 0.03820 0.80803 -0.29380
 C307 C 0.07530 0.76576 -0.28218
 C308 C 0.10311 0.76379 -0.23073
 C309 C 0.09131 0.80638 -0.18882
 C310 C 0.05211 0.84979 -0.19871
 C311 C 0.02621 0.85154 -0.25263
 H312 H 0.12502 0.65762 -0.30635
 H313 H 0.09655 0.59925 -0.39085
 H314 H -0.01439 0.73478 -0.43942
 H315 H 0.13136 0.72950 -0.22235
 H316 H 0.11146 0.80457 -0.14782
 H317 H -0.00499 0.88324 -0.26071
 C318 C -0.02749 0.70695 0.30855
 C319 C -0.00801 0.67223 0.26374
 C320 C 0.00781 0.61616 0.27118
 C321 C 0.00415 0.59541 0.32707
 C322 C -0.01533 0.63061 0.37431
 C323 C -0.03211 0.68706 0.36429
 O324 O -0.03760 0.75971 0.29306
 C325 C -0.02404 0.75835 0.23738
 C326 C -0.00580 0.70589 0.21708
 C327 C 0.01247 0.69608 0.16023
 C328 C 0.01225 0.74240 0.12302
 C329 C -0.00565 0.79720 0.14334
 C330 C -0.02458 0.80467 0.20141
 H331 H 0.02390 0.58985 0.23552
 H332 H 0.01865 0.55263 0.33366
 H333 H -0.04713 0.71525 0.39896
 H334 H 0.02713 0.65453 0.14526
 H335 H 0.02701 0.73579 0.07888
 H336 H -0.03851 0.84570 0.21873
   
