data_POSCAR
  _audit_creation_date              2014-09-24
  _audit_creation_method            'ToBaCCo'
  _symmetry_space_group_name_H-M    'P1'
  _symmetry_Int_Tables_number       1
  _symmetry_cell_setting            triclinic
  loop_
  _symmetry_equiv_pos_as_xyz
 x,y,z
_cell_length_a 46.1706
_cell_length_b 41.9421
_cell_length_c 41.4216
_cell_angle_alpha 90.107400
_cell_angle_beta 90.835400
_cell_angle_gamma 87.710300
loop_
  _atom_site_label
  _atom_site_type_symbol
  _atom_site_fract_x
  _atom_site_fract_y
  _atom_site_fract_z
N1 N 0.59477 0.68025 0.61096
 N2 N 0.57790 0.66080 0.62603
 C3 C 0.55239 0.67614 0.63208
 C4 C 0.55345 0.70690 0.62048
 C5 C 0.58066 0.70874 0.60716
 H6 H 0.53439 0.66576 0.64411
 H7 H 0.58923 0.72893 0.59483
 Cu8 Cu 0.59070 0.61740 0.63688
 Cu9 Cu 0.63279 0.66638 0.59529
 Cu10 Cu 0.65998 0.59355 0.62318
 N11 N 0.60877 0.58047 0.65850
 N12 N 0.63599 0.57165 0.65359
 C13 C 0.64326 0.54653 0.67259
 C14 C 0.61932 0.53912 0.69030
 C15 C 0.59768 0.56114 0.68070
 H16 H 0.66450 0.53467 0.67372
 H17 H 0.57584 0.56363 0.68968
 N18 N 0.68072 0.61955 0.59228
 N19 N 0.67063 0.64770 0.58206
 C20 C 0.68907 0.65902 0.56034
 C21 C 0.71176 0.63678 0.55673
 C22 C 0.70574 0.61212 0.57725
 H23 H 0.68561 0.68109 0.54717
 H24 H 0.71836 0.59002 0.58031
 H25 H 0.62784 0.61758 0.59581
 H26 H 0.63932 0.63678 0.63469
 N27 N 0.91571 0.32783 0.10200
 N28 N 0.93214 0.34680 0.11888
 C29 C 0.95821 0.33209 0.12429
 C30 C 0.95798 0.30212 0.11009
 C31 C 0.93064 0.30021 0.09634
 H32 H 0.97569 0.34235 0.13790
 H33 H 0.92246 0.28040 0.08267
 Cu34 Cu 0.91795 0.38860 0.13316
 Cu35 Cu 0.87705 0.34135 0.08662
 Cu36 Cu 0.84823 0.41150 0.11875
 N37 N 0.89897 0.42315 0.15719
 N38 N 0.87172 0.43190 0.15155
 C39 C 0.86381 0.45531 0.17223
 C40 C 0.88731 0.46159 0.19187
 C41 C 0.90936 0.44073 0.18170
 H42 H 0.84236 0.46657 0.17337
 H43 H 0.93104 0.43790 0.19178
 N44 N 0.82800 0.38695 0.08547
 N45 N 0.83852 0.35960 0.07391
 C46 C 0.81990 0.34885 0.05141
 C47 C 0.79681 0.37066 0.04847
 C48 C 0.80258 0.39448 0.07051
 H49 H 0.82333 0.32735 0.03729
 H50 H 0.78942 0.41585 0.07511
 H51 H 0.88079 0.39008 0.09081
 H52 H 0.86981 0.36807 0.12779
 N53 N 0.40923 0.18191 -0.10321
 N54 N 0.41926 0.17033 -0.13055
 C55 C 0.44186 0.18736 -0.13967
 C56 C 0.44623 0.21077 -0.11671
 C57 C 0.42526 0.20652 -0.09386
 H58 H 0.45450 0.18274 -0.16105
 H59 H 0.42187 0.22044 -0.07214
 Cu60 Cu 0.40245 0.13357 -0.15125
 Cu61 Cu 0.37595 0.16449 -0.08206
 Cu62 Cu 0.34636 0.09802 -0.11740
 N63 N 0.38613 0.09559 -0.17006
 N64 N 0.36407 0.08196 -0.15685
 C65 C 0.35689 0.05660 -0.17481
 C66 C 0.37554 0.05419 -0.20063
 C67 C 0.39387 0.07919 -0.19679
 H68 H 0.33953 0.04104 -0.16931
 H69 H 0.41140 0.08500 -0.21249
 N70 N 0.33136 0.11774 -0.07751
 N71 N 0.34223 0.14342 -0.06435
 C72 C 0.32664 0.15170 -0.03815
 C73 C 0.30522 0.13001 -0.03450
 C74 C 0.30879 0.10882 -0.05989
 H75 H 0.33050 0.17199 -0.02276
 H76 H 0.29555 0.08881 -0.06549
 H77 H 0.38321 0.11860 -0.09916
 H78 H 0.35729 0.14507 -0.12284
 N79 N 0.07724 0.82465 0.40618
 N80 N 0.06252 0.84272 0.38531
 C81 C 0.03653 0.83017 0.37959
 C82 C 0.03514 0.80249 0.39767
 C83 C 0.06134 0.79975 0.41417
 H84 H 0.02050 0.83986 0.36262
 H85 H 0.06838 0.78084 0.43057
 Cu86 Cu 0.07941 0.87942 0.36543
 Cu87 Cu 0.11601 0.83452 0.42110
 Cu88 Cu 0.15080 0.89055 0.37660
 N89 N 0.10077 0.90633 0.33688
 N90 N 0.12873 0.91004 0.34089
 C91 C 0.13794 0.92957 0.31778
 C92 C 0.11444 0.93853 0.29820
 C93 C 0.09122 0.92339 0.31107
 H94 H 0.15998 0.93700 0.31577
 H95 H 0.06903 0.92469 0.30227
 N96 N 0.16911 0.86839 0.41399
 N97 N 0.15537 0.84792 0.43177
 C98 C 0.17252 0.83883 0.45696
 C99 C 0.19840 0.85395 0.45460
 C100 C 0.19555 0.87253 0.42711
 H101 H 0.16663 0.82259 0.47579
 H102 H 0.21113 0.88878 0.41810
 H103 H 0.11690 0.88210 0.40719
 H104 H 0.12537 0.85111 0.37558
 N105 N 0.08982 0.17461 0.11135
 N106 N 0.07330 0.15569 0.12758
 C107 C 0.04811 0.17139 0.13431
 C108 C 0.04903 0.20186 0.12194
 C109 C 0.07580 0.20315 0.10747
 H110 H 0.03049 0.16148 0.14741
 H111 H 0.08413 0.22301 0.09438
 Cu112 Cu 0.08625 0.11259 0.13916
 Cu113 Cu 0.12723 0.15991 0.09444
 Cu114 Cu 0.15442 0.08694 0.12230
 N115 N 0.10475 0.07613 0.16109
 N116 N 0.13139 0.06626 0.15454
 C117 C 0.13918 0.04170 0.17409
 C118 C 0.11614 0.03597 0.19405
 C119 C 0.09464 0.05819 0.18504
 H120 H 0.16024 0.02948 0.17412
 H121 H 0.07351 0.06158 0.19575
 N122 N 0.17429 0.11207 0.08991
 N123 N 0.16441 0.14040 0.07997
 C124 C 0.18258 0.15137 0.05777
 C125 C 0.20471 0.12874 0.05333
 C126 C 0.19885 0.10415 0.07417
 H127 H 0.17950 0.17370 0.04493
 H128 H 0.21138 0.08205 0.07747
 H129 H 0.12165 0.11128 0.09613
 H130 H 0.13511 0.13077 0.13398
 N131 N 0.41781 0.83138 0.59614
 N132 N 0.43198 0.84865 0.61714
 C133 C 0.45805 0.83428 0.62345
 C134 C 0.46016 0.80643 0.60549
 C135 C 0.43425 0.80530 0.58856
 H136 H 0.47379 0.84290 0.64062
 H137 H 0.42774 0.78665 0.57225
 Cu138 Cu 0.41444 0.88709 0.63601
 Cu139 Cu 0.37894 0.84359 0.58080
 Cu140 Cu 0.34289 0.90296 0.62405
 N141 N 0.39258 0.91655 0.66351
 N142 N 0.36453 0.92196 0.65941
 C143 C 0.35502 0.94307 0.68176
 C144 C 0.37844 0.95130 0.70086
 C145 C 0.40191 0.93410 0.68855
 H146 H 0.33288 0.95226 0.68344
 H147 H 0.42412 0.93439 0.69718
 N148 N 0.32512 0.88107 0.58704
 N149 N 0.33938 0.85939 0.56966
 C150 C 0.32253 0.85085 0.54456
 C151 C 0.29633 0.86785 0.54643
 C152 C 0.29860 0.88656 0.57371
 H153 H 0.32881 0.83357 0.52630
 H154 H 0.28244 0.90370 0.58248
 H155 H 0.37711 0.89158 0.59395
 H156 H 0.36892 0.86178 0.62596
 N157 N 0.90904 0.68041 0.39257
 N158 N 0.92625 0.66118 0.37576
 C159 C 0.95067 0.67617 0.36903
 C160 C 0.94846 0.70651 0.38194
 C161 C 0.92178 0.70848 0.39676
 H162 H 0.96867 0.66586 0.35563
 H163 H 0.91277 0.72838 0.41045
 Cu164 Cu 0.91516 0.61862 0.36353
 Cu165 Cu 0.87277 0.66648 0.41025
 Cu166 Cu 0.84848 0.59484 0.38153
 N167 N 0.89789 0.58307 0.34131
 N168 N 0.87181 0.57397 0.34832
 C169 C 0.86472 0.54999 0.32849
 C170 C 0.88754 0.54371 0.30796
 C171 C 0.90832 0.56515 0.31673
 H172 H 0.84421 0.53842 0.32845
 H173 H 0.92905 0.56823 0.30558
 N174 N 0.82810 0.61997 0.41495
 N175 N 0.83690 0.64777 0.42536
 C176 C 0.81877 0.65880 0.44841
 C177 C 0.79765 0.63673 0.45266
 C178 C 0.80426 0.61247 0.43115
 H179 H 0.82134 0.68065 0.46184
 H180 H 0.79273 0.59072 0.42796
 H181 H 0.88070 0.61773 0.40740
 H182 H 0.86559 0.63832 0.37026
 N183 N 0.58389 0.32380 -0.10439
 N184 N 0.57248 0.33650 -0.13089
 C185 C 0.54892 0.32041 -0.13956
 C186 C 0.54539 0.29644 -0.11720
 C187 C 0.56785 0.29939 -0.09516
 H188 H 0.53517 0.32594 -0.16031
 H189 H 0.57228 0.28466 -0.07413
 Cu190 Cu 0.58920 0.37317 -0.15121
 Cu191 Cu 0.61895 0.33946 -0.08416
 Cu192 Cu 0.64866 0.40536 -0.11928
 N193 N 0.60570 0.41073 -0.17007
 N194 N 0.62923 0.42285 -0.15769
 C195 C 0.63653 0.44793 -0.17560
 C196 C 0.61640 0.45198 -0.20034
 C197 C 0.59708 0.42795 -0.19619
 H198 H 0.65511 0.46227 -0.17102
 H199 H 0.57849 0.42308 -0.21130
 N200 N 0.66525 0.38437 -0.08037
 N201 N 0.65435 0.35887 -0.06731
 C202 C 0.67098 0.34975 -0.04168
 C203 C 0.69311 0.37074 -0.03826
 C204 C 0.68887 0.39234 -0.06321
 H205 H 0.66724 0.32950 -0.02639
 H206 H 0.70228 0.41210 -0.06874
 H207 H 0.61230 0.38592 -0.09974
 H208 H 0.63570 0.35900 -0.12523
 C209 C -0.01998 0.27831 0.10920
 C210 C 0.00709 0.28269 0.12007
 C211 C 0.03033 0.25757 0.11845
 C212 C 0.02558 0.22666 0.12316
 H213 H 0.01329 0.30590 0.12855
 H214 H 0.05223 0.26519 0.11525
 H215 H -0.02509 0.25569 0.09825
 H216 H 0.00413 0.21930 0.12929
 C217 C 0.52971 0.73136 0.62101
 C218 C 0.53410 0.76236 0.61625
 C219 C 0.51039 0.78701 0.61669
 C220 C 0.48370 0.78171 0.60537
 H221 H 0.55594 0.77040 0.61369
 H222 H 0.51571 0.81065 0.62479
 H223 H 0.50821 0.72363 0.62643
 H224 H 0.47905 0.75887 0.59466
 C225 C 1.01319 0.78057 0.39863
 C226 C 0.98720 0.78553 0.38424
 C227 C 0.96467 0.76163 0.38520
 C228 C 0.97088 0.73043 0.38134
 H229 H 0.98140 0.80822 0.37301
 H230 H 0.94232 0.77023 0.38699
 H231 H 1.01747 0.75880 0.41225
 H232 H 0.99292 0.72218 0.37641
 C233 C 0.46862 0.23485 -0.11578
 C234 C 0.48370 0.24220 -0.14194
 C235 C 0.50591 0.26656 -0.14191
 C236 C 0.52270 0.27274 -0.11620
 H237 H 0.47860 0.23138 -0.16496
 H238 H 0.50964 0.27823 -0.16468
 H239 H 0.47189 0.24753 -0.09331
 H240 H 0.52073 0.25922 -0.09415
 C241 C 0.11338 -0.03978 0.27019
 C242 C 0.13735 -0.02800 0.25772
 C243 C 0.13745 -0.00577 0.23008
 C244 C 0.11454 0.01270 0.22055
 H245 H 0.15839 -0.03552 0.26746
 H246 H 0.15805 -0.00350 0.21837
 H247 H 0.09230 -0.03398 0.25955
 H248 H 0.09422 0.01194 0.23313
 C249 C 0.61858 0.51506 -0.28647
 C250 C 0.59449 0.50787 -0.27074
 C251 C 0.59423 0.48289 -0.24565
 C252 C 0.61685 0.47640 -0.22579
 H253 H 0.57385 0.51946 -0.27713
 H254 H 0.57412 0.47099 -0.24234
 H255 H 0.63860 0.50150 -0.28150
 H256 H 0.63614 0.49015 -0.22732
 C257 C 0.37645 1.03048 0.77306
 C258 C 0.35525 1.01006 0.76802
 C259 C 0.35512 0.98683 0.74117
 C260 C 0.37925 0.97433 0.72775
 H261 H 0.33617 1.01142 0.78290
 H262 H 0.33416 0.97883 0.73331
 H263 H 0.39459 1.03086 0.75682
 H264 H 0.40035 0.98042 0.73706
 C265 C 0.88725 0.48462 0.21876
 C266 C 0.91112 0.49115 0.23593
 C267 C 0.91103 0.51415 0.26304
 C268 C 0.88777 0.52037 0.28134
 H269 H 0.93189 0.48049 0.22917
 H270 H 0.93125 0.52522 0.26870
 H271 H 0.86678 0.49688 0.22401
 H272 H 0.86808 0.50772 0.27717
 C273 C 0.28291 0.13055 -0.00938
 C274 C 0.26713 0.10517 -0.00341
 C275 C 0.24452 0.10470 0.02139
 C276 C 0.22847 0.13053 0.03008
 H277 H 0.27170 0.08299 -0.01609
 H278 H 0.23966 0.08155 0.03093
 H279 H 0.28015 0.15201 0.00500
 H280 H 0.23162 0.15331 0.01866
 C281 C 0.73598 0.63695 0.53401
 C282 C 0.74252 0.66285 0.51713
 C283 C 0.76632 0.66273 0.49366
 C284 C 0.77402 0.63696 0.47615
 H285 H 0.73099 0.68538 0.52146
 H286 H 0.77658 0.68509 0.48959
 H287 H 0.74898 0.61504 0.53156
 H288 H 0.76222 0.61529 0.47838
 C289 C 0.77232 0.36908 0.02535
 C290 C 0.75560 0.39489 0.01774
 C291 C 0.73223 0.39485 -0.00693
 C292 C 0.71637 0.36952 -0.01348
 H293 H 0.76045 0.41781 0.02809
 H294 H 0.72708 0.41733 -0.01888
 H295 H 0.76918 0.34664 0.01308
 H296 H 0.71971 0.34773 0.00029
 C297 C 0.22269 0.85208 0.47800
 C298 C 0.24955 0.85958 0.46998
 C299 C 0.27407 0.85828 0.49319
 C300 C 0.27131 0.86734 0.52404
 H301 H 0.25425 0.86532 0.44517
 H302 H 0.29534 0.85217 0.48380
 H303 H 0.21848 0.84346 0.50205
 H304 H 0.25055 0.87646 0.53267
   
