data_POSCAR
  _audit_creation_date              2014-09-24
  _audit_creation_method            'ToBaCCo'
  _symmetry_space_group_name_H-M    'P1'
  _symmetry_Int_Tables_number       1
  _symmetry_cell_setting            triclinic
  loop_
  _symmetry_equiv_pos_as_xyz
 x,y,z
_cell_length_a 39.2179
_cell_length_b 39.0662
_cell_length_c 39.1488
_cell_angle_alpha 99.669600
_cell_angle_beta 86.689000
_cell_angle_gamma 97.817900
loop_
  _atom_site_label
  _atom_site_type_symbol
  _atom_site_fract_x
  _atom_site_fract_y
  _atom_site_fract_z
O1 O 0.54480 0.50925 0.02954
 O2 O 0.45065 0.50514 0.02781
 O3 O 0.49327 0.46033 0.03246
 O4 O 0.50236 0.55385 0.02478
 O5 O 0.50455 0.53993 -0.03222
 O6 O 0.49598 0.44648 -0.02453
 O7 O 0.45320 0.49078 -0.02908
 O8 O 0.54753 0.49557 -0.02746
 Cu9 Cu 0.49749 0.50851 0.03435
 Cu10 Cu 0.50060 0.49182 -0.03403
 C11 C 0.56230 0.50302 0.00138
 C12 C 0.43570 0.49739 -0.00094
 C13 C 0.49327 0.43739 0.00527
 C14 C 0.50479 0.56290 -0.00505
 O15 O -0.03043 0.54124 0.50512
 O16 O -0.02462 0.44699 0.49773
 O17 O -0.02524 0.49895 0.54890
 O18 O -0.02991 0.48933 0.45417
 O19 O 0.02668 0.50048 0.44955
 O20 O 0.03143 0.50900 0.54425
 O21 O 0.03200 0.45763 0.49286
 O22 O 0.02617 0.55194 0.50121
 Cu23 Cu -0.03322 0.49306 0.50196
 Cu24 Cu 0.03475 0.50583 0.49648
 C25 C -0.00314 0.56284 0.50440
 C26 C 0.00470 0.43617 0.49410
 C27 C 0.00391 0.50539 0.56279
 C28 C -0.00247 0.49349 0.43564
 O29 O 0.50424 0.02529 0.55314
 O30 O 0.50729 0.03115 0.46006
 O31 O 0.45902 0.03067 0.50860
 O32 O 0.55234 0.02540 0.50465
 O33 O 0.54195 -0.03217 0.49248
 O34 O 0.44880 -0.02684 0.49543
 O35 O 0.49735 -0.02641 0.44742
 O36 O 0.49329 -0.03216 0.54067
 Cu37 Cu 0.50674 0.03388 0.50785
 Cu38 Cu 0.49435 -0.03514 0.49275
 C39 C 0.49830 -0.00443 0.56297
 C40 C 0.50274 0.00341 0.43778
 C41 C 0.43794 0.00282 0.50245
 C42 C 0.56311 -0.00434 0.49815
 C43 C 0.50313 -0.03402 -0.07750
 C44 C 0.50619 -0.06767 -0.07129
 C45 C 0.50517 -0.07526 -0.03756
 C46 C 0.50199 -0.04828 -0.00895
 C47 C 0.49955 -0.01386 -0.01481
 C48 C 0.49989 -0.00672 -0.04921
 C49 C 0.49735 0.02756 -0.05441
 C50 C 0.49436 0.05427 -0.02643
 C51 C 0.49426 0.04788 0.00788
 C52 C 0.49674 0.01348 0.01378
 C53 C 0.50154 -0.05476 0.02535
 C54 C 0.49844 -0.02808 0.05333
 C55 C 0.49637 0.00633 0.04819
 C56 C 0.49342 0.03371 0.07651
 C57 C 0.49045 0.06738 0.07022
 C58 C 0.49128 0.07491 0.03648
 H59 H 0.49774 0.03411 -0.08022
 H60 H 0.49199 0.08002 -0.03204
 H61 H 0.50366 -0.08056 0.03096
 H62 H 0.49756 -0.03483 0.07908
 H63 H 0.50840 -0.08852 -0.09310
 H64 H 0.48849 0.08833 0.09198
 C65 C 0.03412 0.50788 0.92736
 C66 C 0.06807 0.50926 0.93706
 C67 C 0.07567 0.50685 0.97095
 C68 C 0.04871 0.50413 0.99635
 C69 C 0.01413 0.50292 0.98689
 C70 C 0.00677 0.50452 0.95220
 C71 C -0.02768 0.50309 0.94334
 C72 C -0.05441 0.50021 0.96808
 C73 C -0.04769 0.49925 1.00277
 C74 C -0.01312 0.50028 1.01221
 C75 C 0.05548 0.50331 1.03104
 C76 C 0.02881 0.50085 1.05589
 C77 C -0.00570 0.49893 1.04697
 C78 C -0.03299 0.49644 1.07202
 C79 C -0.06689 0.49548 1.06235
 C80 C -0.07463 0.49695 1.02826
 H81 H -0.03434 0.50428 0.91716
 H82 H -0.08043 0.49875 0.95965
 H83 H 0.08156 0.50501 1.03944
 H84 H 0.03561 0.50075 1.08226
 H85 H 0.08885 0.51132 0.91769
 H86 H -0.08765 0.49383 1.08181
 C87 C -0.03442 -0.07528 0.50809
 C88 C -0.06823 -0.06740 0.50938
 C89 C -0.07535 -0.03386 0.50660
 C90 C -0.04780 -0.00695 0.50344
 C91 C -0.01333 -0.01447 0.50258
 C92 C -0.00660 -0.04879 0.50476
 C93 C 0.02774 -0.05565 0.50389
 C94 C 0.05497 -0.02941 0.50071
 C95 C 0.04896 0.00485 0.49871
 C96 C 0.01449 0.01237 0.49953
 C97 C -0.05378 0.02738 0.50164
 C98 C -0.02655 0.05357 0.49827
 C99 C 0.00779 0.04668 0.49728
 C100 C 0.03563 0.07312 0.49375
 C101 C 0.06943 0.06520 0.49246
 C102 C 0.07649 0.03171 0.49544
 H103 H 0.03393 -0.08143 0.50574
 H104 H 0.08084 -0.03636 0.49966
 H105 H -0.07960 0.03444 0.50295
 H106 H -0.03276 0.07932 0.49640
 H107 H -0.08939 -0.08801 0.51154
 H108 H 0.09064 0.08573 0.49013
 C109 C -0.32813 0.50321 1.00472
 C110 C -0.34448 0.49597 0.97282
 C111 C -0.38000 0.49632 0.97164
 C112 C -0.39990 0.50398 1.00234
 C113 C -0.38341 0.51179 1.03416
 C114 C -0.34796 0.51140 1.03533
 C115 C -0.29068 0.50155 1.00625
 C116 C -0.27816 0.48626 1.03223
 C117 C -0.24297 0.48477 1.03398
 C118 C -0.21941 0.49854 1.00978
 C119 C -0.23189 0.51376 0.98371
 C120 C -0.26718 0.51517 0.98190
 C121 C -0.18197 0.49741 1.01225
 C122 C -0.15793 0.52653 1.00743
 C123 C -0.12286 0.52612 1.01180
 C124 C -0.11125 0.49649 1.02073
 C125 C -0.13506 0.46722 1.02504
 C126 C -0.17009 0.46760 1.02071
 H127 H -0.32994 0.48925 0.94883
 H128 H -0.39193 0.49015 0.94671
 H129 H -0.39794 0.51795 1.05828
 H130 H -0.33600 0.51764 1.06025
 H131 H -0.29565 0.47515 1.05110
 H132 H -0.23413 0.47328 1.05464
 H133 H -0.21438 0.52434 0.96455
 H134 H -0.27604 0.52735 0.96175
 H135 H -0.16635 0.55003 1.00139
 H136 H -0.10483 0.54914 1.00893
 H137 H -0.12650 0.44421 1.03212
 H138 H -0.18792 0.44462 1.02414
 C139 C 0.32778 0.49660 0.99652
 C140 C 0.34461 0.50577 1.02806
 C141 C 0.38014 0.50554 1.02902
 C142 C 0.39979 0.49648 0.99833
 C143 C 0.38270 0.48709 0.96678
 C144 C 0.34713 0.48702 0.96595
 C145 C 0.29024 0.49758 0.99533
 C146 C 0.26939 0.47027 0.97539
 C147 C 0.23417 0.47170 0.97344
 C148 C 0.21915 0.50061 0.99114
 C149 C 0.23995 0.52781 1.01129
 C150 C 0.27512 0.52623 1.01351
 C151 C 0.18209 0.50274 0.98779
 C152 C 0.17120 0.53393 0.98164
 C153 C 0.13646 0.53544 0.97672
 C154 C 0.11205 0.50597 0.97835
 C155 C 0.12271 0.47495 0.98497
 C156 C 0.15747 0.47332 0.98961
 H157 H 0.33020 0.51293 1.05206
 H158 H 0.39220 0.51285 1.05386
 H159 H 0.39676 0.47994 0.94256
 H160 H 0.33482 0.48016 0.94123
 H161 H 0.28036 0.44778 0.96134
 H162 H 0.21879 0.45052 0.95748
 H163 H 0.22896 0.55028 1.02538
 H164 H 0.29067 0.54775 1.02886
 H165 H 0.18969 0.55684 0.97970
 H166 H 0.12862 0.55946 0.97129
 H167 H 0.10414 0.45189 0.98600
 H168 H 0.16515 0.44906 0.99455
 C169 C -0.00998 -0.32893 0.51019
 C170 C 0.02226 -0.34112 0.50875
 C171 C 0.02455 -0.37677 0.50699
 C172 C -0.00539 -0.40121 0.50685
 C173 C -0.03767 -0.38884 0.50877
 C174 C -0.03990 -0.35322 0.51027
 C175 C -0.01243 -0.29112 0.51105
 C176 C -0.03852 -0.27494 0.53105
 C177 C -0.04136 -0.23966 0.53110
 C178 C -0.01806 -0.21960 0.51131
 C179 C 0.00830 -0.23566 0.49165
 C180 C 0.01102 -0.27099 0.49144
 C181 C -0.02156 -0.18226 0.51073
 C182 C -0.01521 -0.16821 0.47979
 C183 C -0.01901 -0.13330 0.47908
 C184 C -0.02929 -0.11184 0.50922
 C185 C -0.03576 -0.12561 0.54011
 C186 C -0.03175 -0.16047 0.54093
 H187 H 0.04582 -0.32306 0.50924
 H188 H 0.04991 -0.38507 0.50576
 H189 H -0.06137 -0.40670 0.50863
 H190 H -0.06515 -0.34483 0.51081
 H191 H -0.05673 -0.28951 0.54682
 H192 H -0.06222 -0.22827 0.54621
 H193 H 0.02697 -0.22089 0.47648
 H194 H 0.03118 -0.28268 0.47541
 H195 H -0.00795 -0.18437 0.45593
 H196 H -0.01429 -0.12306 0.45494
 H197 H -0.04380 -0.10930 0.56356
 H198 H -0.03639 -0.17028 0.56528
 C199 C 0.01171 0.32633 0.48900
 C200 C 0.04156 0.35088 0.49090
 C201 C 0.03931 0.38645 0.49213
 C202 C 0.00712 0.39835 0.49169
 C203 C -0.02273 0.37383 0.48956
 C204 C -0.02046 0.33821 0.48814
 C205 C 0.01411 0.28859 0.48848
 C206 C -0.01036 0.26828 0.50692
 C207 C -0.00767 0.23301 0.50711
 C208 C 0.01965 0.21722 0.48900
 C209 C 0.04398 0.23746 0.47035
 C210 C 0.04120 0.27268 0.47004
 C211 C 0.02306 0.17996 0.48997
 C212 C 0.03443 0.15824 0.46029
 C213 C 0.03831 0.12343 0.46148
 C214 C 0.03056 0.10964 0.49223
 C215 C 0.01918 0.13107 0.52189
 C216 C 0.01544 0.16592 0.52079
 H217 H 0.06669 0.34270 0.49216
 H218 H 0.06279 0.40469 0.49395
 H219 H -0.04790 0.38213 0.48898
 H220 H -0.04391 0.31995 0.48613
 H221 H -0.03133 0.27978 0.52173
 H222 H -0.02709 0.21807 0.52137
 H223 H 0.06556 0.22624 0.45644
 H224 H 0.06025 0.28745 0.45522
 H225 H 0.04009 0.16807 0.43605
 H226 H 0.04725 0.10716 0.43842
 H227 H 0.01352 0.12085 0.54594
 H228 H 0.00724 0.18207 0.54426
 C229 C 0.49752 -0.01107 -0.32996
 C230 C 0.50480 0.02148 -0.34130
 C231 C 0.50466 0.02374 -0.37655
 C232 C 0.49757 -0.00662 -0.40147
 C233 C 0.49017 -0.03921 -0.38993
 C234 C 0.49001 -0.04135 -0.35462
 C235 C 0.49810 -0.01346 -0.29255
 C236 C 0.47209 -0.03488 -0.27709
 C237 C 0.47276 -0.03726 -0.24189
 C238 C 0.49965 -0.01853 -0.22150
 C239 C 0.52568 0.00286 -0.23698
 C240 C 0.52483 0.00550 -0.27209
 C241 C 0.50071 -0.02161 -0.18431
 C242 C 0.53169 -0.02585 -0.17006
 C243 C 0.53251 -0.02961 -0.13523
 C244 C 0.50252 -0.02872 -0.11400
 C245 C 0.47161 -0.02428 -0.12800
 C246 C 0.47068 -0.02081 -0.16289
 H247 H 0.51031 0.04529 -0.32281
 H248 H 0.51042 0.04935 -0.38421
 H249 H 0.48457 -0.06321 -0.40815
 H250 H 0.48461 -0.06682 -0.34662
 H251 H 0.45104 -0.04957 -0.29217
 H252 H 0.45252 -0.05418 -0.23072
 H253 H 0.54657 0.01778 -0.22183
 H254 H 0.54537 0.02199 -0.28339
 H255 H 0.55510 -0.02697 -0.18605
 H256 H 0.55649 -0.03334 -0.12482
 H257 H 0.44820 -0.02378 -0.11193
 H258 H 0.44654 -0.01730 -0.17311
 C259 C 0.50228 0.01096 0.32917
 C260 C 0.50864 0.04121 0.35417
 C261 C 0.50914 0.03873 0.38934
 C262 C 0.50330 0.00592 0.40037
 C263 C 0.49730 -0.02438 0.37535
 C264 C 0.49681 -0.02188 0.34016
 C265 C 0.50093 0.01371 0.29185
 C266 C 0.51541 -0.01026 0.26611
 C267 C 0.51402 -0.00763 0.23103
 C268 C 0.49804 0.01898 0.22087
 C269 C 0.48353 0.04292 0.24662
 C270 C 0.48496 0.04032 0.28167
 C271 C 0.49660 0.02191 0.18361
 C272 C 0.46679 0.03064 0.17056
 C273 C 0.46566 0.03406 0.13568
 C274 C 0.49420 0.02858 0.11312
 C275 C 0.52403 0.01995 0.12599
 C276 C 0.52518 0.01650 0.16087
 H277 H 0.51347 0.06686 0.34652
 H278 H 0.51396 0.06257 0.40791
 H279 H 0.49261 -0.05005 0.38297
 H280 H 0.49145 -0.04566 0.32160
 H281 H 0.52817 -0.03086 0.27311
 H282 H 0.52515 -0.02668 0.21182
 H283 H 0.47139 0.06397 0.23970
 H284 H 0.47320 0.05896 0.30081
 H285 H 0.44422 0.03460 0.18729
 H286 H 0.44251 0.04096 0.12622
 H287 H 0.54651 0.01623 0.10904
 H288 H 0.54871 0.01032 0.17021
 C289 C 0.51012 -0.32802 -0.01384
 C290 C 0.50719 -0.35395 -0.04351
 C291 C 0.50594 -0.38930 -0.04071
 C292 C 0.50744 -0.39957 -0.00816
 C293 C 0.51072 -0.37365 0.02148
 C294 C 0.51213 -0.33829 0.01866
 C295 C 0.51043 -0.29050 -0.01672
 C296 C 0.49286 -0.26843 0.00829
 C297 C 0.49252 -0.23335 0.00527
 C298 C 0.50963 -0.21948 -0.02290
 C299 C 0.52739 -0.24148 -0.04780
 C300 C 0.52782 -0.27655 -0.04472
 C301 C 0.50863 -0.18233 -0.02646
 C302 C 0.53787 -0.16218 -0.03869
 C303 C 0.53675 -0.12734 -0.04224
 C304 C 0.50652 -0.11196 -0.03333
 C305 C 0.47726 -0.13191 -0.02130
 C306 C 0.47829 -0.16677 -0.01786
 H307 H 0.50508 -0.34701 -0.06887
 H308 H 0.50325 -0.40864 -0.06403
 H309 H 0.51213 -0.38067 0.04692
 H310 H 0.51497 -0.31895 0.04196
 H311 H 0.47885 -0.27841 0.02995
 H312 H 0.47898 -0.21702 0.02515
 H313 H 0.54052 -0.23175 -0.07001
 H314 H 0.54194 -0.29272 -0.06421
 H315 H 0.56174 -0.17322 -0.04515
 H316 H 0.55951 -0.11226 -0.05170
 H317 H 0.45359 -0.12047 -0.01476
 H318 H 0.45514 -0.18170 -0.00900
 C319 C 0.48766 0.32820 0.01379
 C320 C 0.48555 0.33858 -0.01864
 C321 C 0.48707 0.37398 -0.02136
 C322 C 0.49054 0.39983 0.00832
 C323 C 0.49213 0.38947 0.04081
 C324 C 0.49080 0.35408 0.04351
 C325 C 0.48722 0.29063 0.01654
 C326 C 0.46997 0.27667 0.04461
 C327 C 0.47021 0.24152 0.04750
 C328 C 0.48760 0.21943 0.02234
 C329 C 0.50458 0.23332 -0.00588
 C330 C 0.50446 0.26848 -0.00870
 C331 C 0.48837 0.18218 0.02568
 C332 C 0.51848 0.16632 0.01661
 C333 C 0.51930 0.13138 0.01988
 C334 C 0.49007 0.11164 0.03224
 C335 C 0.46007 0.12731 0.04160
 C336 C 0.45915 0.16223 0.03820
 H337 H 0.48253 0.31931 -0.04196
 H338 H 0.48557 0.38107 -0.04675
 H339 H 0.49497 0.40876 0.06415
 H340 H 0.49299 0.34706 0.06882
 H341 H 0.45610 0.29288 0.06429
 H342 H 0.45719 0.23179 0.06977
 H343 H 0.51786 0.21694 -0.02595
 H344 H 0.51836 0.27845 -0.03042
 H345 H 0.54162 0.18109 0.00752
 H346 H 0.54281 0.11974 0.01300
 H347 H 0.43734 0.11240 0.05133
 H348 H 0.43545 0.17348 0.04502
 C349 C -0.32818 -0.01130 0.49863
 C350 C -0.34040 0.02147 0.50490
 C351 C -0.37563 0.02377 0.50442
 C352 C -0.39945 -0.00665 0.49760
 C353 C -0.38719 -0.03939 0.49094
 C354 C -0.35198 -0.04168 0.49146
 C355 C -0.29084 -0.01384 0.49999
 C356 C -0.27967 -0.04006 0.51558
 C357 C -0.24458 -0.04249 0.51699
 C358 C -0.21980 -0.01879 0.50281
 C359 C -0.23094 0.00744 0.48721
 C360 C -0.26606 0.00992 0.48587
 C361 C -0.18250 -0.02162 0.50411
 C362 C -0.16020 -0.01696 0.47534
 C363 C -0.12528 -0.02050 0.47630
 C364 C -0.11198 -0.02843 0.50613
 C365 C -0.13410 -0.03309 0.53488
 C366 C -0.16902 -0.02961 0.53395
 H367 H -0.32276 0.04534 0.51089
 H368 H -0.38423 0.04939 0.50973
 H369 H -0.40483 -0.06333 0.48548
 H370 H -0.34334 -0.06728 0.48601
 H371 H -0.29808 -0.05851 0.52706
 H372 H -0.23685 -0.06323 0.52883
 H373 H -0.21247 0.02628 0.47634
 H374 H -0.27385 0.03020 0.47341
 H375 H -0.16989 -0.01136 0.45181
 H376 H -0.10866 -0.01744 0.45365
 H377 H -0.12428 -0.03946 0.55803
 H378 H -0.18544 -0.03297 0.55665
 C379 C 0.32909 0.00903 0.50260
 C380 C 0.35229 0.03903 0.51373
 C381 C 0.38761 0.03702 0.51384
 C382 C 0.40047 0.00490 0.50307
 C383 C 0.37719 -0.02517 0.49232
 C384 C 0.34192 -0.02309 0.49198
 C385 C 0.29169 0.01131 0.50172
 C386 C 0.27259 -0.00615 0.47319
 C387 C 0.23747 -0.00363 0.47209
 C388 C 0.22063 0.01620 0.49962
 C389 C 0.23967 0.03345 0.52828
 C390 C 0.27485 0.03113 0.52926
 C391 C 0.18343 0.01922 0.49830
 C392 C 0.16154 0.01701 0.52780
 C393 C 0.12663 0.02049 0.52669
 C394 C 0.11304 0.02625 0.49608
 C395 C 0.13477 0.02854 0.46662
 C396 C 0.16963 0.02485 0.46763
 H397 H 0.34317 0.06421 0.52173
 H398 H 0.40485 0.06067 0.52225
 H399 H 0.38624 -0.05032 0.48387
 H400 H 0.32460 -0.04671 0.48365
 H401 H 0.28495 -0.02136 0.45145
 H402 H 0.22340 -0.01742 0.44981
 H403 H 0.22744 0.04918 0.54972
 H404 H 0.28885 0.04462 0.55170
 H405 H 0.17139 0.01241 0.55168
 H406 H 0.11022 0.01899 0.54975
 H407 H 0.12471 0.03336 0.44291
 H408 H 0.18598 0.02713 0.44466
 C409 C -0.00933 0.48843 1.32557
 C410 C -0.03884 0.48008 1.34619
 C411 C -0.03650 0.48125 1.38182
 C412 C -0.00459 0.49070 1.39765
 C413 C 0.02506 0.49834 1.37695
 C414 C 0.02270 0.49725 1.34128
 C415 C -0.01218 0.48896 1.28802
 C416 C 0.01286 0.47635 1.26375
 C417 C 0.01028 0.47747 1.22849
 C418 C -0.01735 0.49130 1.21679
 C419 C -0.04246 0.50370 1.24106
 C420 C -0.03988 0.50259 1.27624
 C421 C -0.02007 0.49296 1.17947
 C422 C -0.03111 0.52238 1.16925
 C423 C -0.03482 0.52359 1.13425
 C424 C -0.02730 0.49558 1.10884
 C425 C -0.01601 0.46627 1.11878
 C426 C -0.01233 0.46499 1.15384
 H427 H -0.06379 0.47261 1.33475
 H428 H -0.05979 0.47499 1.39700
 H429 H 0.05002 0.50578 1.38838
 H430 H 0.04584 0.50419 1.32616
 H431 H 0.03433 0.46539 1.27200
 H432 H 0.03017 0.46797 1.21045
 H433 H -0.06430 0.51407 1.23282
 H434 H -0.05936 0.51292 1.29432
 H435 H -0.03677 0.54454 1.18832
 H436 H -0.04365 0.54635 1.12693
 H437 H -0.01052 0.44426 1.09940
 H438 H -0.00421 0.44181 1.16093
 C439 C 0.00964 0.51190 0.67319
 C440 C 0.03967 0.51199 0.65177
 C441 C 0.03783 0.51034 0.61601
 C442 C 0.00589 0.50831 0.60079
 C443 C -0.02414 0.50844 0.62218
 C444 C -0.02228 0.51031 0.65800
 C445 C 0.01161 0.51281 0.71112
 C446 C -0.01343 0.49259 0.72905
 C447 C -0.01098 0.49260 0.76451
 C448 C 0.01666 0.51270 0.78285
 C449 C 0.04150 0.53319 0.76499
 C450 C 0.03895 0.53332 0.72959
 C451 C 0.02001 0.51173 0.82027
 C452 C 0.03225 0.54223 0.84303
 C453 C 0.03654 0.54100 0.87796
 C454 C 0.02833 0.50939 0.89077
 C455 C 0.01584 0.47898 0.86838
 C456 C 0.01173 0.48011 0.83340
 H457 H 0.06460 0.51261 0.66255
 H458 H 0.06142 0.51009 0.60021
 H459 H -0.04913 0.50710 0.61125
 H460 H -0.04584 0.51074 0.67382
 H461 H -0.03461 0.47620 0.71555
 H462 H -0.03078 0.47688 0.77757
 H463 H 0.06334 0.54865 0.77823
 H464 H 0.05842 0.54955 0.71667
 H465 H 0.03840 0.56707 0.83388
 H466 H 0.04628 0.56466 0.89504
 H467 H 0.00973 0.45432 0.87795
 H468 H 0.00281 0.45605 0.81649
   
