data_POSCAR
  _audit_creation_date              2014-09-24
  _audit_creation_method            'ToBaCCo'
  _symmetry_space_group_name_H-M    'P1'
  _symmetry_Int_Tables_number       1
  _symmetry_cell_setting            triclinic
  loop_
  _symmetry_equiv_pos_as_xyz
 x,y,z
_cell_length_a 25.2739
_cell_length_b 26.6552
_cell_length_c 25.0192
_cell_angle_alpha 90.135700
_cell_angle_beta 90.241800
_cell_angle_gamma 90.025400
loop_
  _atom_site_label
  _atom_site_type_symbol
  _atom_site_fract_x
  _atom_site_fract_y
  _atom_site_fract_z
Si1 Si 1.24881 0.25056 0.25074
 Si2 Si 0.74941 -0.24750 0.24834
 Si3 Si 0.75332 0.25084 -0.24972
 Si4 Si 1.25088 -0.25002 -0.24988
 Si5 Si 0.24754 0.24975 0.74922
 Si6 Si 0.74952 0.74900 0.75209
 Si7 Si 0.75101 0.24786 0.24898
 Si8 Si 0.25021 0.74975 0.24966
 N9 N 1.09642 0.05098 0.05778
 N10 N 1.13295 0.08505 0.06823
 N11 N 1.05922 -0.05446 0.09519
 N12 N 1.07040 -0.08787 0.13251
 N13 N 1.09594 -0.05442 0.05821
 N14 N 1.13289 -0.08785 0.06933
 N15 N 1.06005 0.05097 0.09507
 N16 N 1.07070 0.08516 0.13175
 C17 C 1.11604 0.10645 0.11424
 C18 C 1.11621 -0.10890 0.11552
 N19 N 0.90768 -0.05194 0.05801
 N20 N 0.87029 -0.08491 0.06861
 N21 N 0.94635 0.05233 0.09527
 N22 N 0.93589 0.08564 0.13287
 N23 N 0.90997 0.05351 0.05765
 N24 N 0.87396 0.08786 0.06853
 N25 N 0.94466 -0.05290 0.09500
 N26 N 0.93324 -0.08645 0.13191
 Mn27 Mn 1.00257 -0.00113 0.09564
 C28 C 0.88699 -0.10654 0.11455
 C29 C 0.89137 0.10825 0.11493
 N30 N 1.09505 -0.05494 -0.05677
 N31 N 1.13181 -0.08852 -0.06748
 N32 N 1.05912 0.04965 -0.09517
 N33 N 1.07023 0.08223 -0.13309
 N34 N 1.09570 0.05043 -0.05772
 N35 N 1.13253 0.08384 -0.06912
 N36 N 1.05799 -0.05544 -0.09372
 N37 N 1.06871 -0.08934 -0.13063
 Mn38 Mn 1.09627 -0.00189 0.00036
 C39 C 1.11457 -0.11010 -0.11335
 C40 C 1.11579 0.10373 -0.11603
 N41 N 0.90912 0.05263 -0.05758
 N42 N 0.87264 0.08645 -0.06887
 N43 N 0.94373 -0.05421 -0.09370
 N44 N 0.93227 -0.08836 -0.13022
 N45 N 0.90698 -0.05281 -0.05681
 N46 N 0.86960 -0.08606 -0.06719
 N47 N 0.94504 0.05104 -0.09530
 N48 N 0.93373 0.08353 -0.13342
 Mn49 Mn 0.90797 0.00044 0.00034
 Mn50 Mn 1.00148 -0.00233 -0.09495
 Cl51 Cl 1.00209 -0.00124 0.00035
 C52 C 0.88881 0.10584 -0.11604
 C53 C 0.88618 -0.10835 -0.11284
 N54 N 1.09328 0.55484 0.55582
 N55 N 1.12979 0.58870 0.56718
 N56 N 1.05666 0.44820 0.59172
 N57 N 1.06826 0.41521 0.62925
 N58 N 1.09402 0.44947 0.55542
 N59 N 1.13217 0.41758 0.56757
 N60 N 1.05737 0.55338 0.59358
 N61 N 1.06869 0.58585 0.63180
 C62 C 1.11353 0.60807 0.61444
 C63 C 1.11518 0.39595 0.61334
 N64 N 0.90464 0.45090 0.55581
 N65 N 0.86618 0.41945 0.56817
 N66 N 0.94353 0.55429 0.59398
 N67 N 0.93249 0.58623 0.63273
 N68 N 0.90732 0.55628 0.55625
 N69 N 0.87095 0.59000 0.56814
 N70 N 0.94247 0.44910 0.59191
 N71 N 0.93096 0.41621 0.62943
 Mn72 Mn 1.00002 0.50110 0.59316
 C73 C 0.88354 0.39755 0.61382
 C74 C 0.88755 0.60878 0.61567
 N75 N 1.09276 0.44937 0.44017
 N76 N 1.12907 0.41528 0.42938
 N77 N 1.05666 0.55433 0.40238
 N78 N 1.06830 0.58655 0.36416
 N79 N 1.09295 0.55530 0.44011
 N80 N 1.12987 0.58872 0.42878
 N81 N 1.05581 0.44939 0.40310
 N82 N 1.06641 0.41598 0.36570
 Mn83 Mn 1.09377 0.50236 0.49784
 C84 C 1.11179 0.39449 0.38303
 C85 C 1.11366 0.60832 0.38153
 N86 N 0.90676 0.55665 0.44077
 N87 N 0.87063 0.59089 0.42974
 N88 N 0.94141 0.44976 0.40370
 N89 N 0.92996 0.41586 0.36685
 N90 N 0.90423 0.45131 0.44022
 N91 N 0.86636 0.41881 0.42891
 N92 N 0.94263 0.55503 0.40296
 N93 N 0.93162 0.58775 0.36506
 Mn94 Mn 0.90525 0.50391 0.49823
 Mn95 Mn 0.99909 0.50200 0.40262
 Cl96 Cl 0.99955 0.50232 0.49797
 C97 C 0.88704 0.61032 0.38267
 C98 C 0.88327 0.39651 0.38340
 N99 N 0.55693 0.05428 0.59625
 N100 N 0.59056 0.06641 0.63474
 N101 N 0.44607 0.08953 0.55920
 N102 N 0.41179 0.12531 0.57037
 N103 N 0.44623 0.05527 0.59683
 N104 N 0.41262 0.06733 0.63506
 N105 N 0.55750 0.08827 0.55834
 N106 N 0.59198 0.12393 0.56967
 C107 C 0.61281 0.10951 0.61707
 C108 C 0.39080 0.11073 0.61749
 N109 N 0.44298 0.05524 0.40711
 N110 N 0.40891 0.06794 0.36934
 N111 N 0.55587 0.08846 0.44341
 N112 N 0.58978 0.12435 0.43161
 N113 N 0.55384 0.05485 0.40495
 N114 N 0.58587 0.06752 0.36562
 N115 N 0.44502 0.09001 0.44438
 N116 N 0.41269 0.12722 0.43285
 Mn117 Mn 0.50118 0.08936 0.50136
 C118 C 0.38983 0.11264 0.38644
 C119 C 0.60871 0.11050 0.38333
 N120 N 0.44489 -0.05352 0.59587
 N121 N 0.41185 -0.06612 0.63441
 N122 N 0.55518 -0.08857 0.55741
 N123 N 0.58723 -0.12591 0.56941
 N124 N 0.55614 -0.05424 0.59517
 N125 N 0.58938 -0.06729 0.63362
 N126 N 0.44476 -0.08785 0.55811
 N127 N 0.41208 -0.12457 0.56996
 Mn128 Mn 0.50100 0.00042 0.59655
 C129 C 0.39122 -0.11027 0.61715
 C130 C 0.60897 -0.11181 0.61652
 N131 N 0.55336 -0.05382 0.40488
 N132 N 0.58653 -0.06611 0.36631
 N133 N 0.44298 -0.08815 0.44343
 N134 N 0.41107 -0.12557 0.43097
 N135 N 0.44196 -0.05359 0.40610
 N136 N 0.40888 -0.06675 0.36736
 N137 N 0.55352 -0.08823 0.44237
 N138 N 0.58626 -0.12487 0.43019
 Mn139 Mn 0.49796 0.00068 0.40524
 Mn140 Mn 0.49917 -0.08834 0.50035
 Cl141 Cl 0.49982 0.00056 0.50084
 C142 C 0.60719 -0.11029 0.38314
 C143 C 0.38932 -0.11148 0.38393
 N144 N 0.59400 0.55039 0.05864
 N145 N 0.63154 0.58341 0.06918
 N146 N 0.55567 0.44657 0.09687
 N147 N 0.56608 0.41308 0.13432
 N148 N 0.59179 0.44500 0.05932
 N149 N 0.62740 0.41020 0.06997
 N150 N 0.55701 0.55204 0.09532
 N151 N 0.56835 0.58646 0.13165
 C152 C 0.61475 0.60606 0.11449
 C153 C 0.61061 0.39021 0.11663
 N154 N 0.40473 0.44793 0.05855
 N155 N 0.36723 0.41518 0.06957
 N156 N 0.44239 0.55356 0.09508
 N157 N 0.43070 0.58676 0.13257
 N158 N 0.40556 0.55306 0.05788
 N159 N 0.36785 0.58563 0.06927
 N160 N 0.44134 0.44784 0.09596
 N161 N 0.42987 0.41462 0.13323
 Mn162 Mn 0.49912 0.50007 0.09635
 C163 C 0.38375 0.39420 0.11591
 C164 C 0.38434 0.60697 0.11561
 N165 N 0.59263 0.44436 -0.05599
 N166 N 0.63051 0.41218 -0.06774
 N167 N 0.55744 0.55012 -0.09367
 N168 N 0.56895 0.58357 -0.13072
 N169 N 0.59430 0.54943 -0.05652
 N170 N 0.63196 0.58209 -0.06748
 N171 N 0.55603 0.44435 -0.09342
 N172 N 0.56793 0.41167 -0.13136
 Mn173 Mn 0.59355 0.49725 0.00142
 C174 C 0.61426 0.39144 -0.11442
 C175 C 0.61534 0.60359 -0.11355
 N176 N 0.40614 0.55176 -0.05730
 N177 N 0.36909 0.58486 -0.06875
 N178 N 0.44175 0.44581 -0.09374
 N179 N 0.43009 0.41247 -0.13111
 N180 N 0.40483 0.44677 -0.05695
 N181 N 0.36687 0.41451 -0.06867
 N182 N 0.44291 0.55147 -0.09425
 N183 N 0.43185 0.58474 -0.13173
 Mn184 Mn 0.40497 0.49984 0.00053
 Mn185 Mn 0.49951 0.49798 -0.09430
 Cl186 Cl 0.49929 0.49879 0.00099
 C187 C 0.38592 0.60564 -0.11489
 C188 C 0.38350 0.39285 -0.11463
 C189 C 1.22592 0.19389 0.15770
 C190 C 1.20664 0.21120 0.20680
 C191 C 1.15679 0.19561 0.22443
 C192 C 1.12661 0.16261 0.19348
 C193 C 1.14610 0.14445 0.14463
 C194 C 1.19574 0.16088 0.12665
 H195 H 1.26475 0.20496 0.14392
 H196 H 1.14162 0.20801 0.26264
 H197 H 1.08855 0.15044 0.20837
 H198 H 1.21179 0.14729 0.08925
 C199 C 1.20982 0.71076 0.65177
 C200 C 1.20748 0.70956 0.70780
 C201 C 1.17156 0.67713 0.73262
 C202 C 1.13978 0.64515 0.70206
 C203 C 1.14415 0.64450 0.64618
 C204 C 1.17912 0.67776 0.62120
 H205 H 1.23522 0.73679 0.63121
 H206 H 1.16799 0.67640 0.77566
 H207 H 1.11286 0.61994 0.72223
 H208 H 1.18244 0.67843 0.57806
 C209 C 0.68208 0.17067 0.73446
 C210 C 0.71315 0.20691 0.70887
 C211 C 0.71369 0.20878 0.65288
 C212 C 0.68149 0.17652 0.62298
 C213 C 0.64957 0.14087 0.64857
 C214 C 0.65084 0.13756 0.70454
 H215 H 0.68163 0.16830 0.77767
 H216 H 0.73850 0.23516 0.63197
 H217 H 0.68152 0.17943 0.57980
 H218 H 0.62643 0.11048 0.72520
 C219 C 0.73003 0.68456 0.16312
 C220 C 0.70727 0.71102 0.20569
 C221 C 0.65315 0.70485 0.21618
 C222 C 0.62284 0.67111 0.18613
 C223 C 0.64590 0.64375 0.14433
 C224 C 0.69956 0.65142 0.13246
 H225 H 0.77138 0.68946 0.15344
 H226 H 0.63404 0.72531 0.24793
 H227 H 0.58142 0.66626 0.19576
 H228 H 0.71832 0.63097 0.10025
 C229 C 0.84169 -0.19203 0.22550
 C230 C 0.79266 -0.20837 0.20580
 C231 C 0.77537 -0.19255 0.15535
 C232 C 0.80675 -0.16036 0.12497
 C233 C 0.85570 -0.14339 0.14485
 C234 C 0.87315 -0.15995 0.19515
 H235 H 0.85533 -0.20332 0.26475
 H236 H 0.73722 -0.20424 0.13989
 H237 H 0.79225 -0.14801 0.08639
 H238 H 0.91057 -0.14727 0.21154
 C239 C 0.76814 0.32467 0.67042
 C240 C 0.79329 0.29468 0.70886
 C241 C 0.84802 0.29944 0.71667
 C242 C 0.87740 0.33271 0.68547
 C243 C 0.85254 0.36157 0.64575
 C244 C 0.79762 0.35722 0.63843
 H245 H 0.72567 0.32259 0.66483
 H246 H 0.86820 0.27814 0.74728
 H247 H 0.91961 0.33583 0.69238
 H248 H 0.77733 0.37968 0.60873
 C249 C 0.29314 -0.15521 0.72013
 C250 C 0.29246 -0.20701 0.70967
 C251 C 0.32421 -0.22641 0.66887
 C252 C 0.35540 -0.19458 0.63821
 C253 C 0.35649 -0.14284 0.64879
 C254 C 0.32541 -0.12334 0.69019
 H255 H 0.26931 -0.13923 0.75166
 H256 H 0.32493 -0.26631 0.66064
 H257 H 0.37951 -0.21066 0.60686
 H258 H 0.32579 -0.08356 0.69908
 C259 C 0.26826 0.31744 0.16538
 C260 C 0.29097 0.29181 0.20859
 C261 C 0.34505 0.29816 0.21958
 C262 C 0.37545 0.33118 0.18914
 C263 C 0.35249 0.35753 0.14650
 C264 C 0.29881 0.34978 0.13433
 H265 H 0.22691 0.31238 0.15537
 H266 H 0.36408 0.27830 0.25187
 H267 H 0.41689 0.33617 0.19903
 H268 H 0.28013 0.36952 0.10151
 C269 C 0.83641 0.18175 -0.23229
 C270 C 0.79616 0.20969 -0.20796
 C271 C 0.78662 0.20362 -0.15319
 C272 C 0.81728 0.17031 -0.12307
 C273 C 0.85812 0.14278 -0.14724
 C274 C 0.86771 0.14912 -0.20206
 H275 H 0.84355 0.18508 -0.27479
 H276 H 0.75475 0.22353 -0.13377
 H277 H 0.80878 0.16579 -0.08097
 H278 H 0.89849 0.12790 -0.22185
 C279 C 0.79035 0.71272 0.34628
 C280 C 0.79305 0.71210 0.29025
 C281 C 0.82958 0.68037 0.26519
 C282 C 0.86145 0.64835 0.29545
 C283 C 0.85662 0.64702 0.35128
 C284 C 0.82117 0.67972 0.37652
 H285 H 0.76455 0.73827 0.36711
 H286 H 0.83358 0.68021 0.22219
 H287 H 0.88877 0.62362 0.27507
 H288 H 0.81749 0.67990 0.41964
 C289 C 0.32257 0.22834 0.33303
 C290 C 0.29037 0.20832 0.29258
 C291 C 0.29047 0.15633 0.28346
 C292 C 0.32270 0.12491 0.31413
 C293 C 0.35447 0.14501 0.35496
 C294 C 0.35383 0.19692 0.36445
 H295 H 0.32368 0.26840 0.34028
 H296 H 0.26625 0.13979 0.25234
 H297 H 0.32269 0.08497 0.30606
 H298 H 0.37846 0.21343 0.39535
 C299 C 0.27073 0.68316 -0.16446
 C300 C 0.29319 0.70850 -0.20780
 C301 C 0.34705 0.70152 -0.21908
 C302 C 0.37749 0.66831 -0.18865
 C303 C 0.35478 0.64238 -0.14577
 C304 C 0.30132 0.65066 -0.13345
 H305 H 0.22955 0.68857 -0.15433
 H306 H 0.36585 0.72101 -0.25161
 H307 H 0.41874 0.66287 -0.19869
 H308 H 0.28279 0.63124 -0.10047
 C309 C 1.15776 -0.19668 -0.22456
 C310 C 1.20777 -0.21166 -0.20632
 C311 C 1.22629 -0.19482 -0.15661
 C312 C 1.19519 -0.16293 -0.12551
 C313 C 1.14536 -0.14713 -0.14403
 C314 C 1.12663 -0.16476 -0.19353
 H315 H 1.14315 -0.20875 -0.26324
 H316 H 1.26519 -0.20544 -0.14232
 H317 H 1.21068 -0.14972 -0.08759
 H318 H 1.08847 -0.15300 -0.20884
 C319 C 1.20804 0.29143 0.34803
 C320 C 1.20492 0.29114 0.29201
 C321 C 1.16821 0.32249 0.26649
 C322 C 1.13656 0.35498 0.29632
 C323 C 1.14188 0.35725 0.35212
 C324 C 1.17749 0.32493 0.37781
 H325 H 1.23408 0.26629 0.36921
 H326 H 1.16400 0.32204 0.22347
 H327 H 1.10910 0.37942 0.27561
 H328 H 1.18154 0.32549 0.42093
 C329 C 0.67555 -0.22538 0.32986
 C330 C 0.70739 -0.20527 0.28957
 C331 C 0.70632 -0.15338 0.28005
 C332 C 0.67363 -0.12213 0.31039
 C333 C 0.64245 -0.14232 0.35127
 C334 C 0.64393 -0.19415 0.36095
 H335 H 0.67503 -0.26539 0.33728
 H336 H 0.73015 -0.13687 0.24888
 H337 H 0.67296 -0.08226 0.30217
 H338 H 0.61973 -0.21076 0.39185
 C339 C 0.73268 0.32061 -0.16732
 C340 C 0.70992 0.29111 -0.20770
 C341 C 0.65531 0.29438 -0.21739
 C342 C 0.62388 0.32688 -0.18695
 C343 C 0.64658 0.35592 -0.14590
 C344 C 0.70121 0.35213 -0.13611
 H345 H 0.77490 0.31920 -0.15985
 H346 H 0.63703 0.27262 -0.24902
 H347 H 0.58191 0.32931 -0.19545
 H348 H 0.71988 0.37447 -0.10512
 C349 C 1.16557 0.17991 -0.23264
 C350 C 1.20605 0.20809 -0.20872
 C351 C 1.21695 0.20184 -0.15412
 C352 C 1.18726 0.16819 -0.12370
 C353 C 1.14606 0.14057 -0.14742
 C354 C 1.13522 0.14700 -0.20209
 H355 H 1.15746 0.18333 -0.27502
 H356 H 1.24910 0.22193 -0.13509
 H357 H 1.19668 0.16358 -0.08173
 H358 H 1.10411 0.12568 -0.22154
 C359 C 1.17326 0.67728 0.26407
 C360 C 1.20853 0.71067 0.28932
 C361 C 1.20919 0.71243 0.34559
 C362 C 1.17853 0.67907 0.37557
 C363 C 1.14462 0.64485 0.35007
 C364 C 1.14138 0.64504 0.29408
 H365 H 1.16990 0.67597 0.22102
 H366 H 1.23293 0.73938 0.36713
 H367 H 1.18084 0.68041 0.41879
 H368 H 1.11514 0.61931 0.27338
 C369 C 0.67286 0.17386 0.26529
 C370 C 0.70841 0.20666 0.29068
 C371 C 0.71203 0.20676 0.34660
 C372 C 0.67963 0.17524 0.37677
 C373 C 0.64434 0.14211 0.35137
 C374 C 0.64157 0.14129 0.29536
 H375 H 0.66974 0.17310 0.22210
 H376 H 0.73987 0.23084 0.36719
 H377 H 0.68249 0.17637 0.41996
 H378 H 0.61430 0.11636 0.27491
 C379 C 0.73048 0.68163 -0.16249
 C380 C 0.70766 0.70730 -0.20566
 C381 C 0.65367 0.70044 -0.21680
 C382 C 0.62348 0.66703 -0.18656
 C383 C 0.64652 0.64065 -0.14395
 C384 C 0.70013 0.64884 -0.13166
 H385 H 0.77178 0.68697 -0.15243
 H386 H 0.63457 0.72020 -0.24913
 H387 H 0.58212 0.66175 -0.19661
 H388 H 0.71891 0.62912 -0.09889
 C389 C 0.84260 -0.19695 -0.22264
 C390 C 0.79268 -0.21187 -0.20448
 C391 C 0.77424 -0.19420 -0.15519
 C392 C 0.80531 -0.16154 -0.12452
 C393 C 0.85507 -0.14585 -0.14302
 C394 C 0.87368 -0.16435 -0.19207
 H395 H 0.85719 -0.20959 -0.26100
 H396 H 0.73543 -0.20478 -0.14093
 H397 H 0.78990 -0.14771 -0.08695
 H398 H 0.91178 -0.15276 -0.20739
 C399 C 0.84691 0.29381 0.28519
 C400 C 0.79177 0.29129 0.29115
 C401 C 0.76724 0.32265 0.32871
 C402 C 0.79719 0.35592 0.35974
 C403 C 0.85215 0.35933 0.35279
 C404 C 0.87677 0.32798 0.31526
 H405 H 0.86723 0.26986 0.25711
 H406 H 0.72495 0.32119 0.33464
 H407 H 0.77719 0.37975 0.38835
 H408 H 0.91917 0.32974 0.30937
 C409 C 0.29142 -0.15710 0.27921
 C410 C 0.29006 -0.20909 0.28934
 C411 C 0.32167 -0.22812 0.33092
 C412 C 0.35290 -0.19616 0.36216
 C413 C 0.35447 -0.14444 0.35172
 C414 C 0.32368 -0.12522 0.30978
 H415 H 0.26817 -0.14062 0.24743
 H416 H 0.32233 -0.26795 0.33946
 H417 H 0.37668 -0.21217 0.39392
 H418 H 0.32429 -0.08548 0.30083
 C419 C 0.26639 0.32020 -0.16862
 C420 C 0.28993 0.29080 -0.20843
 C421 C 0.34455 0.29455 -0.21713
 C422 C 0.37526 0.32752 -0.18633
 C423 C 0.35180 0.35661 -0.14596
 C424 C 0.29716 0.35229 -0.13707
 H425 H 0.22413 0.31828 -0.16189
 H426 H 0.36340 0.27281 -0.24826
 H427 H 0.41727 0.33035 -0.19410
 H428 H 0.27797 0.37465 -0.10660
 C429 C 1.15941 -0.19672 0.22645
 C430 C 1.20902 -0.21297 0.20812
 C431 C 1.22728 -0.19571 0.15850
 C432 C 1.19647 -0.16295 0.12778
 C433 C 1.14706 -0.14631 0.14633
 C434 C 1.12864 -0.16392 0.19574
 H435 H 1.14467 -0.20843 0.26504
 H436 H 1.26589 -0.20653 0.14384
 H437 H 1.21189 -0.14977 0.09002
 H438 H 1.09088 -0.15154 0.21123
 C439 C 1.15195 0.29736 0.71558
 C440 C 1.20667 0.29301 0.70772
 C441 C 1.23128 0.32335 0.66947
 C442 C 1.20133 0.35585 0.63769
 C443 C 1.14646 0.35988 0.64510
 C444 C 1.12209 0.33067 0.68464
 H445 H 1.13221 0.27580 0.74612
 H446 H 1.27372 0.32168 0.66392
 H447 H 1.22125 0.37860 0.60815
 H448 H 1.07993 0.33356 0.69158
 C449 C 0.70716 -0.15646 0.72051
 C450 C 0.70747 -0.20839 0.71089
 C451 C 0.67542 -0.22808 0.67010
 C452 C 0.64438 -0.19640 0.63869
 C453 C 0.64371 -0.14452 0.64850
 C454 C 0.67509 -0.12479 0.68986
 H455 H 0.73121 -0.14017 0.75190
 H456 H 0.67451 -0.26806 0.66238
 H457 H 0.62005 -0.21266 0.60740
 H458 H 0.67508 -0.08490 0.69823
 C459 C 0.71149 0.29053 0.15150
 C460 C 0.70524 0.28656 0.20703
 C461 C 0.66427 0.31339 0.23174
 C462 C 0.63210 0.34578 0.20205
 C463 C 0.64066 0.35219 0.14710
 C464 C 0.68003 0.32361 0.12193
 H465 H 0.74093 0.26889 0.13064
 H466 H 0.65722 0.30964 0.27414
 H467 H 0.60164 0.36695 0.22241
 H468 H 0.68680 0.32715 0.07939
 C469 C 0.79734 0.15469 0.21953
 C470 C 0.79516 0.20629 0.20857
 C471 C 0.82732 0.22594 0.16800
 C472 C 0.85882 0.19406 0.13698
 C473 C 0.85968 0.14248 0.14746
 C474 C 0.82942 0.12308 0.18926
 H475 H 0.77466 0.13842 0.25164
 H476 H 0.82799 0.26586 0.16021
 H477 H 0.88264 0.20957 0.10515
 H478 H 0.83020 0.08329 0.19804
 C479 C 0.79055 0.71038 0.65375
 C480 C 0.79310 0.70886 0.70978
 C481 C 0.82948 0.67657 0.73446
 C482 C 0.86151 0.64510 0.70374
 C483 C 0.85695 0.64481 0.64782
 C484 C 0.82150 0.67794 0.62304
 H485 H 0.76478 0.73627 0.63326
 H486 H 0.83322 0.67559 0.77751
 H487 H 0.88875 0.61998 0.72379
 H488 H 0.81794 0.67890 0.57989
 C489 C 0.28837 0.20861 0.65218
 C490 C 0.28859 0.20654 0.70817
 C491 C 0.32015 0.17074 0.73407
 C492 C 0.35210 0.13822 0.70449
 C493 C 0.35364 0.14172 0.64856
 C494 C 0.32132 0.17698 0.62264
 H495 H 0.26323 0.23465 0.63101
 H496 H 0.32041 0.16824 0.77728
 H497 H 0.37680 0.11142 0.72541
 H498 H 0.32149 0.18001 0.57947
 C499 C 0.26887 0.68537 0.16457
 C500 C 0.29076 0.71013 0.20919
 C501 C 0.34464 0.70227 0.22100
 C502 C 0.37509 0.66909 0.19043
 C503 C 0.35279 0.64374 0.14661
 C504 C 0.29955 0.65280 0.13351
 H505 H 0.22805 0.69135 0.15311
 H506 H 0.36388 0.72105 0.25393
 H507 H 0.41618 0.66325 0.20117
 H508 H 0.28127 0.63404 0.09973
   
