data_POSCAR
  _audit_creation_date              2014-09-24
  _audit_creation_method            'ToBaCCo'
  _symmetry_space_group_name_H-M    'P1'
  _symmetry_Int_Tables_number       1
  _symmetry_cell_setting            triclinic
  loop_
  _symmetry_equiv_pos_as_xyz
 x,y,z
_cell_length_a 52.7563
_cell_length_b 52.3902
_cell_length_c 52.2127
_cell_angle_alpha 89.954800
_cell_angle_beta 89.984400
_cell_angle_gamma 90.056200
loop_
  _atom_site_label
  _atom_site_type_symbol
  _atom_site_fract_x
  _atom_site_fract_y
  _atom_site_fract_z
C1 C 0.60506 0.62486 0.64515
 C2 C 0.58628 0.64379 0.64493
 C3 C 0.58650 0.66284 0.62609
 C4 C 0.60546 0.66312 0.60731
 C5 C 0.62438 0.64432 0.60722
 C6 C 0.62421 0.62508 0.62621
 C7 C 0.60505 0.60571 0.66395
 C8 C 0.62392 0.58689 0.66398
 C9 C 0.64291 0.58705 0.64519
 C10 C 0.64319 0.60606 0.62626
 C11 C 0.66210 0.60641 0.60737
 C12 C 0.66221 0.62550 0.58857
 C13 C 0.64344 0.64439 0.58849
 H14 H 0.57150 0.64375 0.65938
 H15 H 0.60545 0.67796 0.59281
 H16 H 0.59040 0.60546 0.67854
 H17 H 0.65746 0.57242 0.64533
 H18 H 0.67673 0.59187 0.60724
 H19 H 0.64371 0.65909 0.57384
 C20 C 0.89571 0.37459 0.14431
 C21 C 0.91456 0.35572 0.14408
 C22 C 0.91441 0.33669 0.12522
 C23 C 0.89542 0.33641 0.10644
 C24 C 0.87646 0.35516 0.10637
 C25 C 0.87657 0.37436 0.12538
 C26 C 0.89565 0.39370 0.16312
 C27 C 0.87672 0.41243 0.16318
 C28 C 0.85774 0.41226 0.14443
 C29 C 0.85753 0.39331 0.12546
 C30 C 0.83862 0.39297 0.10658
 C31 C 0.83858 0.37394 0.08775
 C32 C 0.85740 0.35510 0.08764
 H33 H 0.92931 0.35582 0.15856
 H34 H 0.89542 0.32162 0.09189
 H35 H 0.91026 0.39401 0.17773
 H36 H 0.84318 0.42686 0.14465
 H37 H 0.82396 0.40747 0.10648
 H38 H 0.85717 0.34045 0.07297
 C39 C 0.39496 0.12449 -0.14529
 C40 C 0.41379 0.14342 -0.14506
 C41 C 0.41359 0.16244 -0.12623
 C42 C 0.39460 0.16271 -0.10748
 C43 C 0.37565 0.14391 -0.10740
 C44 C 0.37579 0.12470 -0.12639
 C45 C 0.39494 0.10537 -0.16409
 C46 C 0.37602 0.08657 -0.16416
 C47 C 0.35700 0.08673 -0.14540
 C48 C 0.35676 0.10570 -0.12646
 C49 C 0.33782 0.10603 -0.10760
 C50 C 0.33774 0.12509 -0.08880
 C51 C 0.35656 0.14397 -0.08869
 H52 H 0.42858 0.14340 -0.15950
 H53 H 0.39463 0.17753 -0.09298
 H54 H 0.40961 0.10514 -0.17867
 H55 H 0.34240 0.07212 -0.14556
 H56 H 0.32315 0.09151 -0.10750
 H57 H 0.35631 0.15865 -0.07405
 C58 C 0.10448 0.87453 0.35541
 C59 C 0.08570 0.85555 0.35555
 C60 C 0.08586 0.83646 0.37438
 C61 C 0.10481 0.83620 0.39320
 C62 C 0.12371 0.85505 0.39335
 C63 C 0.12358 0.87432 0.37439
 C64 C 0.10452 0.89371 0.33665
 C65 C 0.12336 0.91257 0.33671
 C66 C 0.14229 0.91244 0.35551
 C67 C 0.14255 0.89340 0.37441
 C68 C 0.16142 0.89307 0.39333
 C69 C 0.16150 0.87395 0.41209
 C70 C 0.14274 0.85501 0.41211
 H71 H 0.07098 0.85564 0.34103
 H72 H 0.10482 0.82137 0.40772
 H73 H 0.08995 0.89400 0.32200
 H74 H 0.15678 0.92714 0.35538
 H75 H 0.17603 0.90765 0.39350
 H76 H 0.14298 0.84029 0.42674
 N77 N 0.09546 0.16704 0.11366
 N78 N 0.08561 0.15674 0.13440
 C79 C 0.06509 0.17032 0.14148
 C80 C 0.06212 0.19004 0.12427
 C81 C 0.08158 0.18752 0.10686
 H82 H 0.05320 0.16624 0.15785
 H83 H 0.08534 0.19964 0.09052
 Cu84 Cu 0.10056 0.12659 0.15006
 Cu85 Cu 0.12545 0.15316 0.09703
 Cu86 Cu 0.15188 0.09883 0.12393
 N87 N 0.11529 0.09580 0.16461
 N88 N 0.13538 0.08504 0.15430
 C89 C 0.14167 0.06422 0.16802
 C90 C 0.12461 0.06192 0.18786
 C91 C 0.10811 0.08214 0.18526
 H92 H 0.15746 0.05171 0.16392
 H93 H 0.09217 0.08650 0.19751
 N94 N 0.16585 0.11560 0.09322
 N95 N 0.15579 0.13632 0.08298
 C96 C 0.16958 0.14316 0.06235
 C97 C 0.18907 0.12593 0.05963
 C98 C 0.18629 0.10872 0.07937
 H99 H 0.16578 0.15943 0.05019
 H100 H 0.19828 0.09246 0.08329
 H101 H 0.11982 0.11594 0.10899
 H102 H 0.14086 0.13629 0.12925
 N103 N 0.40442 0.83343 0.61404
 N104 N 0.41459 0.84417 0.63437
 C105 C 0.43517 0.83069 0.64147
 C106 C 0.43786 0.81060 0.62468
 C107 C 0.41815 0.81278 0.60752
 H108 H 0.44730 0.83507 0.65757
 H109 H 0.41414 0.80032 0.59152
 Cu110 Cu 0.39985 0.87465 0.64952
 Cu111 Cu 0.37420 0.84702 0.59753
 Cu112 Cu 0.34766 0.90141 0.62422
 N113 N 0.38479 0.90513 0.66434
 N114 N 0.36435 0.91549 0.65434
 C115 C 0.35783 0.93616 0.66816
 C116 C 0.37513 0.93876 0.68774
 C117 C 0.39198 0.91890 0.68490
 H118 H 0.34174 0.94834 0.66430
 H119 H 0.40817 0.91482 0.69693
 N120 N 0.33357 0.88435 0.59376
 N121 N 0.34366 0.86362 0.58361
 C122 C 0.32980 0.85661 0.56310
 C123 C 0.31022 0.87374 0.56037
 C124 C 0.31303 0.89107 0.57997
 H125 H 0.33362 0.84031 0.55100
 H126 H 0.30102 0.90733 0.58382
 H127 H 0.37954 0.88446 0.60874
 H128 H 0.35926 0.86414 0.62982
 N129 N 0.90490 0.66643 0.38627
 N130 N 0.91502 0.65579 0.36587
 C131 C 0.93557 0.66936 0.35874
 C132 C 0.93829 0.68940 0.37559
 C133 C 0.91864 0.68709 0.39282
 H134 H 0.94765 0.66505 0.34258
 H135 H 0.91467 0.69949 0.40888
 Cu136 Cu 0.90028 0.62529 0.35071
 Cu137 Cu 0.87476 0.65270 0.40286
 Cu138 Cu 0.84824 0.59825 0.37617
 N139 N 0.88522 0.59478 0.33588
 N140 N 0.86485 0.58430 0.34596
 C141 C 0.85835 0.56362 0.33214
 C142 C 0.87556 0.56114 0.31247
 C143 C 0.89237 0.58109 0.31526
 H144 H 0.84231 0.55134 0.33606
 H145 H 0.90850 0.58526 0.30317
 N146 N 0.83421 0.61520 0.40672
 N147 N 0.84429 0.63596 0.41687
 C148 C 0.83045 0.64292 0.43741
 C149 C 0.81090 0.62572 0.44016
 C150 C 0.81370 0.60841 0.42055
 H151 H 0.83426 0.65923 0.44949
 H152 H 0.80168 0.59213 0.41670
 H153 H 0.88014 0.61529 0.39155
 H154 H 0.85974 0.63558 0.37061
 N155 N 0.59532 0.33375 -0.11380
 N156 N 0.58489 0.34474 -0.13386
 C157 C 0.56431 0.33122 -0.14095
 C158 C 0.56190 0.31084 -0.12442
 C159 C 0.58176 0.31290 -0.10744
 H160 H 0.55201 0.33577 -0.15686
 H161 H 0.58600 0.30021 -0.09166
 Cu162 Cu 0.59921 0.37560 -0.14876
 Cu163 Cu 0.62562 0.34730 -0.09743
 Cu164 Cu 0.65215 0.40173 -0.12415
 N165 N 0.61471 0.40576 -0.16391
 N166 N 0.63541 0.41588 -0.15419
 C167 C 0.64212 0.43637 -0.16823
 C168 C 0.62469 0.43910 -0.18768
 C169 C 0.60755 0.41949 -0.18451
 H170 H 0.65843 0.44836 -0.16462
 H171 H 0.59120 0.41555 -0.19636
 N172 N 0.66632 0.38463 -0.09375
 N173 N 0.65624 0.36386 -0.08359
 C174 C 0.67015 0.35681 -0.06313
 C175 C 0.68975 0.37396 -0.06044
 C176 C 0.68690 0.39133 -0.08002
 H177 H 0.66634 0.34049 -0.05104
 H178 H 0.69891 0.40762 -0.08388
 H179 H 0.62037 0.38488 -0.10826
 H180 H 0.64006 0.36462 -0.12992
 C181 C 0.00685 0.24483 0.12471
 C182 C 0.01279 0.27005 0.13242
 C183 C -0.00639 0.28909 0.13255
 C184 C -0.03139 0.28282 0.12495
 C185 C -0.03733 0.25760 0.11724
 C186 C -0.01816 0.23855 0.11714
 C187 C -0.02457 0.21348 0.10938
 C188 C -0.04920 0.20740 0.10193
 C189 C -0.06794 0.22603 0.10201
 C190 C -0.06219 0.25087 0.10956
 C191 C -0.00000 0.31416 0.14034
 C192 C 0.02463 0.32025 0.14779
 C193 C 0.04339 0.30163 0.14766
 C194 C 0.03764 0.27679 0.14009
 C195 C -0.05098 0.30227 0.12504
 C196 C -0.06724 0.31843 0.12512
 C197 C 0.02646 0.22538 0.12456
 C198 C 0.04273 0.20925 0.12443
 H199 H -0.01064 0.19833 0.10899
 H200 H -0.05377 0.18812 0.09606
 H201 H -0.08705 0.22121 0.09621
 H202 H -0.07741 0.26470 0.10930
 H203 H -0.01393 0.32930 0.14076
 H204 H 0.02919 0.33952 0.15369
 H205 H 0.06250 0.30646 0.15346
 H206 H 0.05288 0.26298 0.14031
 C207 C 0.49309 0.75578 0.62548
 C208 C 0.48670 0.73010 0.63101
 C209 C 0.50588 0.71105 0.63119
 C210 C 0.53133 0.71780 0.62582
 C211 C 0.53772 0.74348 0.62031
 C212 C 0.51855 0.76252 0.62015
 C213 C 0.52541 0.78807 0.61462
 C214 C 0.55050 0.79461 0.60938
 C215 C 0.56924 0.77598 0.60952
 C216 C 0.56304 0.75068 0.61491
 C217 C 0.49903 0.68552 0.63680
 C218 C 0.47395 0.67898 0.64206
 C219 C 0.45520 0.69760 0.64187
 C220 C 0.46139 0.72289 0.63643
 C221 C 0.55090 0.69833 0.62593
 C222 C 0.56714 0.68215 0.62600
 C223 C 0.47349 0.77522 0.62522
 C224 C 0.45722 0.79137 0.62498
 H225 H 0.51151 0.80324 0.61429
 H226 H 0.55541 0.81424 0.60519
 H227 H 0.58869 0.78116 0.60544
 H228 H 0.57828 0.73688 0.61479
 H229 H 0.51294 0.67036 0.63717
 H230 H 0.46905 0.65936 0.64630
 H231 H 0.43575 0.69242 0.64598
 H232 H 0.44614 0.73668 0.63652
 C233 C 0.99350 0.74435 0.37486
 C234 C 1.01917 0.73743 0.37858
 C235 C 1.03834 0.75652 0.37843
 C236 C 1.03173 0.78242 0.37455
 C237 C 1.00606 0.78934 0.37079
 C238 C 0.98688 0.77026 0.37096
 C239 C 0.96135 0.77765 0.36720
 C240 C 0.95495 0.80317 0.36336
 C241 C 0.97369 0.82182 0.36318
 C242 C 0.99899 0.81511 0.36684
 C243 C 1.06387 0.74913 0.38221
 C244 C 1.07029 0.72361 0.38602
 C245 C 1.05155 0.70495 0.38616
 C246 C 1.02626 0.71166 0.38249
 C247 C 1.05130 0.80193 0.37446
 C248 C 1.06754 0.81814 0.37441
 C249 C 0.97390 0.72486 0.37509
 C250 C 0.95765 0.70867 0.37530
 H251 H 0.94609 0.76383 0.36718
 H252 H 0.93533 0.80849 0.36052
 H253 H 0.96862 0.84162 0.36018
 H254 H 1.01289 0.83030 0.36653
 H255 H 1.07913 0.76296 0.38227
 H256 H 1.08991 0.71830 0.38888
 H257 H 1.05663 0.68515 0.38912
 H258 H 1.01236 0.69645 0.38276
 C259 C 0.50684 0.25573 -0.12539
 C260 C 0.48121 0.26251 -0.12114
 C261 C 0.46208 0.24337 -0.12138
 C262 C 0.46870 0.21757 -0.12588
 C263 C 0.49433 0.21081 -0.13018
 C264 C 0.51346 0.22994 -0.12993
 C265 C 0.53895 0.22270 -0.13425
 C266 C 0.54536 0.19729 -0.13871
 C267 C 0.52666 0.17859 -0.13898
 C268 C 0.50141 0.18516 -0.13478
 C269 C 0.43659 0.25060 -0.11706
 C270 C 0.43017 0.27602 -0.11265
 C271 C 0.44886 0.29473 -0.11243
 C272 C 0.47412 0.28816 -0.11661
 C273 C 0.44918 0.19802 -0.12604
 C274 C 0.43296 0.18179 -0.12614
 C275 C 0.52639 0.27527 -0.12507
 C276 C 0.54261 0.29150 -0.12478
 H277 H 0.55417 0.23656 -0.13423
 H278 H 0.56495 0.19209 -0.14198
 H279 H 0.53174 0.15888 -0.14246
 H280 H 0.48754 0.16993 -0.13518
 H281 H 0.42137 0.23674 -0.11705
 H282 H 0.41058 0.28121 -0.10939
 H283 H 0.44378 0.31444 -0.10900
 H284 H 0.48797 0.30340 -0.11626
 C285 C 0.12366 0.00668 0.24334
 C286 C 0.10596 -0.01361 0.24194
 C287 C 0.10581 -0.03287 0.26114
 C288 C 0.12335 -0.03172 0.28163
 C289 C 0.14100 -0.01140 0.28307
 C290 C 0.14116 0.00786 0.26388
 C291 C 0.15899 0.02798 0.26573
 C292 C 0.17616 0.02906 0.28598
 C293 C 0.17601 0.01023 0.30474
 C294 C 0.15867 -0.00981 0.30341
 C295 C 0.08794 -0.05297 0.25932
 C296 C 0.07073 -0.05401 0.23911
 C297 C 0.07088 -0.03519 0.22034
 C298 C 0.08825 -0.01517 0.22164
 C299 C 0.12329 -0.05147 0.30116
 C300 C 0.12329 -0.06786 0.31737
 C301 C 0.12392 0.02628 0.22366
 C302 C 0.12420 0.04255 0.20731
 H303 H 0.15985 0.04308 0.25161
 H304 H 0.18967 0.04459 0.28710
 H305 H 0.18939 0.01115 0.32043
 H306 H 0.15929 -0.02400 0.31847
 H307 H 0.08708 -0.06806 0.27346
 H308 H 0.05719 -0.06952 0.23802
 H309 H 0.05746 -0.03608 0.20469
 H310 H 0.08763 -0.00098 0.20659
 C311 C 0.62411 0.49413 -0.24338
 C312 C 0.64322 0.49438 -0.26242
 C313 C 0.64310 0.51357 -0.28169
 C314 C 0.62387 0.53240 -0.28179
 C315 C 0.60473 0.53213 -0.26278
 C316 C 0.60484 0.51293 -0.24351
 C317 C 0.58551 0.51306 -0.22471
 C318 C 0.56661 0.53162 -0.22492
 C319 C 0.56650 0.55039 -0.24375
 C320 C 0.58529 0.55073 -0.26251
 C321 C 0.66241 0.51343 -0.30052
 C322 C 0.68130 0.49486 -0.30033
 C323 C 0.68143 0.47610 -0.28149
 C324 C 0.66266 0.47577 -0.26271
 C325 C 0.62382 0.55207 -0.30139
 C326 C 0.62384 0.56842 -0.31766
 C327 C 0.62429 0.47458 -0.22363
 C328 C 0.62446 0.45838 -0.20723
 H329 H 0.58479 0.49886 -0.20967
 H330 H 0.55197 0.53143 -0.21039
 H331 H 0.55177 0.56476 -0.24383
 H332 H 0.58439 0.56572 -0.27676
 H333 H 0.66312 0.52763 -0.31557
 H334 H 0.69592 0.49504 -0.31488
 H335 H 0.69615 0.46172 -0.28143
 H336 H 0.66356 0.46079 -0.24846
 C337 C 0.37573 0.99400 0.74313
 C338 C 0.39578 0.99504 0.76112
 C339 C 0.39589 1.01423 0.78036
 C340 C 0.37593 1.03226 0.78150
 C341 C 0.35588 1.03121 0.76351
 C342 C 0.35578 1.01203 0.74427
 C343 C 0.33553 1.01137 0.72649
 C344 C 0.31594 1.02915 0.72770
 C345 C 0.31603 1.04790 0.74652
 C346 C 0.33572 1.04900 0.76427
 C347 C 0.41614 1.01490 0.79813
 C348 C 0.43572 0.99711 0.79694
 C349 C 0.43561 0.97834 0.77813
 C350 C 0.41593 0.97723 0.76038
 C351 C 0.37603 1.05185 0.80115
 C352 C 0.37605 1.06815 0.81745
 C353 C 0.37559 0.97438 0.72349
 C354 C 0.37542 0.95811 0.70718
 H355 H 0.33461 0.99716 0.71150
 H356 H 0.30060 1.02837 0.71395
 H357 H 0.30076 1.06166 0.74738
 H358 H 0.33494 1.06394 0.77856
 H359 H 0.41706 1.02913 0.81311
 H360 H 0.45106 0.99789 0.81068
 H361 H 0.45087 0.96457 0.77728
 H362 H 0.41669 0.96229 0.74611
 C363 C 0.87623 0.50595 0.25702
 C364 C 0.85636 0.48779 0.25592
 C365 C 0.85650 0.46863 0.23665
 C366 C 0.87652 0.46773 0.21861
 C367 C 0.89640 0.48589 0.21971
 C368 C 0.89625 0.50506 0.23897
 C369 C 0.91631 0.52300 0.23967
 C370 C 0.93597 0.52203 0.22187
 C371 C 0.93612 0.50329 0.20304
 C372 C 0.91661 0.48537 0.20188
 C373 C 0.83642 0.45070 0.23594
 C374 C 0.81677 0.45167 0.25375
 C375 C 0.81664 0.47039 0.27259
 C376 C 0.83615 0.48830 0.27375
 C377 C 0.87666 0.44815 0.19893
 C378 C 0.87672 0.43187 0.18262
 C379 C 0.87605 0.52555 0.27668
 C380 C 0.87586 0.54180 0.29301
 H381 H 0.91704 0.53793 0.25396
 H382 H 0.95117 0.53590 0.22269
 H383 H 0.95143 0.50262 0.18925
 H384 H 0.91757 0.47116 0.18689
 H385 H 0.83569 0.43578 0.22164
 H386 H 0.80157 0.43780 0.25292
 H387 H 0.80133 0.47106 0.28638
 H388 H 0.83520 0.50250 0.28876
 C389 C 0.24411 0.12576 0.00435
 C390 C 0.25673 0.14872 -0.00220
 C391 C 0.27591 0.14860 -0.02133
 C392 C 0.28234 0.12552 -0.03382
 C393 C 0.26970 0.10256 -0.02730
 C394 C 0.25054 0.10267 -0.00816
 C395 C 0.23819 0.07948 -0.00196
 C396 C 0.24458 0.05681 -0.01432
 C397 C 0.26331 0.05670 -0.03305
 C398 C 0.27579 0.07925 -0.03954
 C399 C 0.28828 0.17179 -0.02752
 C400 C 0.28187 0.19446 -0.01518
 C401 C 0.26311 0.19458 0.00351
 C402 C 0.25062 0.17204 0.01001
 C403 C 0.30197 0.12538 -0.05332
 C404 C 0.31827 0.12526 -0.06951
 C405 C 0.22457 0.12586 0.02395
 C406 C 0.20836 0.12591 0.04023
 H407 H 0.22349 0.07859 0.01248
 H408 H 0.23494 0.03925 -0.00934
 H409 H 0.26820 0.03905 -0.04260
 H410 H 0.29022 0.07820 -0.05423
 H411 H 0.30300 0.17266 -0.04193
 H412 H 0.29152 0.21202 -0.02015
 H413 H 0.25820 0.21224 0.01304
 H414 H 0.23616 0.17310 0.02467
 C415 C 0.75576 0.62582 0.49534
 C416 C 0.74308 0.64879 0.50163
 C417 C 0.72391 0.64877 0.52076
 C418 C 0.71753 0.62577 0.53351
 C419 C 0.73021 0.60280 0.52724
 C420 C 0.74937 0.60282 0.50809
 C421 C 0.76177 0.57962 0.50213
 C422 C 0.75542 0.55705 0.51474
 C423 C 0.73670 0.55703 0.53347
 C424 C 0.72417 0.57959 0.53973
 C425 C 0.71149 0.67196 0.52670
 C426 C 0.71784 0.69454 0.51411
 C427 C 0.73660 0.69456 0.49541
 C428 C 0.74914 0.67201 0.48916
 C429 C 0.69792 0.62573 0.55303
 C430 C 0.68164 0.62565 0.56924
 C431 C 0.77533 0.62583 0.47577
 C432 C 0.79157 0.62579 0.45952
 H433 H 0.77646 0.57866 0.48770
 H434 H 0.76509 0.53947 0.50994
 H435 H 0.73184 0.53945 0.54321
 H436 H 0.70975 0.57861 0.55443
 H437 H 0.69677 0.67290 0.54111
 H438 H 0.70816 0.71211 0.51889
 H439 H 0.74147 0.71216 0.48568
 H440 H 0.76359 0.67300 0.47449
 C441 C 0.74498 0.37376 -0.00538
 C442 C 0.75152 0.39677 0.00721
 C443 C 0.77070 0.39676 0.02633
 C444 C 0.78325 0.37374 0.03272
 C445 C 0.77673 0.35073 0.02012
 C446 C 0.75752 0.35074 0.00102
 C447 C 0.75132 0.32750 -0.01130
 C448 C 0.76373 0.30490 -0.00494
 C449 C 0.78251 0.30489 0.01373
 C450 C 0.78901 0.32749 0.02618
 C451 C 0.77690 0.41999 0.03867
 C452 C 0.76450 0.44260 0.03230
 C453 C 0.74576 0.44261 0.01360
 C454 C 0.73926 0.42002 0.00114
 C455 C 0.80287 0.37374 0.05223
 C456 C 0.81915 0.37380 0.06842
 C457 C 0.72538 0.37378 -0.02492
 C458 C 0.70912 0.37384 -0.04113
 H459 H 0.73684 0.32653 -0.02594
 H460 H 0.75875 0.28730 -0.01455
 H461 H 0.79210 0.28729 0.01860
 H462 H 0.80374 0.32652 0.04056
 H463 H 0.79135 0.42095 0.05334
 H464 H 0.76948 0.46019 0.04192
 H465 H 0.73619 0.46022 0.00871
 H466 H 0.72456 0.42101 -0.01327
 C467 C 0.25508 0.87362 0.50523
 C468 C 0.24867 0.89664 0.49256
 C469 C 0.22948 0.89666 0.47345
 C470 C 0.21680 0.87368 0.46714
 C471 C 0.22322 0.85066 0.47980
 C472 C 0.24243 0.85063 0.49889
 C473 C 0.24853 0.82739 0.51126
 C474 C 0.23600 0.80482 0.50496
 C475 C 0.21721 0.80485 0.48631
 C476 C 0.21081 0.82745 0.47381
 C477 C 0.22340 0.91990 0.46105
 C478 C 0.23592 0.94247 0.46734
 C479 C 0.25468 0.94245 0.48602
 C480 C 0.26106 0.91986 0.49855
 C481 C 0.19718 0.87372 0.44763
 C482 C 0.18091 0.87380 0.43143
 C483 C 0.27466 0.87361 0.52478
 C484 C 0.29090 0.87365 0.54102
 H485 H 0.26301 0.82639 0.52590
 H486 H 0.24091 0.78721 0.51462
 H487 H 0.20753 0.78727 0.48150
 H488 H 0.19606 0.82651 0.45944
 H489 H 0.20894 0.92089 0.44638
 H490 H 0.23104 0.96007 0.45766
 H491 H 0.26435 0.96003 0.49085
 H492 H 0.27578 0.92081 0.51295
   
