data_POSCAR
  _audit_creation_date              2014-09-24
  _audit_creation_method            'ToBaCCo'
  _symmetry_space_group_name_H-M    'P1'
  _symmetry_Int_Tables_number       1
  _symmetry_cell_setting            triclinic
  loop_
  _symmetry_equiv_pos_as_xyz
 x,y,z
_cell_length_a 30.8290
_cell_length_b 30.8279
_cell_length_c 30.6281
_cell_angle_alpha 90.097900
_cell_angle_beta 90.091700
_cell_angle_gamma 120.188400
loop_
  _atom_site_label
  _atom_site_type_symbol
  _atom_site_fract_x
  _atom_site_fract_y
  _atom_site_fract_z
C1 C 0.52471 0.07620 0.05957
 H2 H 0.56037 0.07736 0.05916
 C3 C 0.51878 0.11038 0.08510
 H4 H 0.54990 0.13789 0.10458
 C5 C 0.44092 0.03976 0.03380
 H6 H 0.41102 0.01281 0.01314
 C7 C 0.43341 0.07337 0.05888
 H8 H 0.39759 0.07194 0.05778
 N9 N 0.48599 0.04163 0.03480
 C10 C 0.52154 -0.07703 0.01392
 H11 H 0.52171 -0.07821 -0.02138
 C12 C 0.52869 -0.11134 0.03808
 H13 H 0.53457 -0.13896 0.02140
 C14 C 0.51175 -0.04088 0.07892
 H15 H 0.50392 -0.01422 0.09471
 C16 C 0.51871 -0.07451 0.10429
 H17 H 0.51669 -0.07331 0.13955
 Zn18 Zn 0.49938 -0.00066 -0.00052
 N19 N 0.51338 -0.04265 0.03456
 C20 C 0.59851 0.04034 -0.03474
 N21 N 0.55510 0.04180 -0.03576
 C22 C 0.55077 0.07608 -0.06046
 C23 C 0.59090 0.11037 -0.08590
 C24 C 0.63966 0.07408 -0.05974
 C25 C 0.40065 -0.07764 -0.01508
 C26 C 0.35905 -0.11231 -0.03927
 C27 C 0.40583 -0.07548 -0.10547
 C28 C 0.44653 -0.04152 -0.08001
 N29 N 0.44320 -0.04313 -0.03567
 H30 H 0.60160 0.01363 -0.01412
 H31 H 0.51611 0.07692 -0.06006
 H32 H 0.58715 0.13764 -0.10533
 H33 H 0.67421 0.07298 -0.05862
 H34 H 0.39940 -0.07865 0.02022
 H35 H 0.32559 -0.13996 -0.02242
 H36 H 0.40920 -0.07421 -0.14075
 H37 H 0.48104 -0.01473 -0.09575
 C38 C 0.52701 -0.11019 0.08367
 C39 C 0.47277 0.10901 0.08469
 C40 C 0.36174 -0.11139 -0.08492
 C41 C 0.63576 0.10942 -0.08548
 C42 C -0.07633 0.47520 0.60699
 H43 H -0.07749 0.43954 0.60740
 C44 C -0.11051 0.48112 0.58146
 H45 H -0.13802 0.44999 0.56198
 C46 C -0.03991 0.55900 0.63275
 H47 H -0.01296 0.58890 0.65340
 C48 C -0.07352 0.56649 0.60766
 H49 H -0.07210 0.60231 0.60876
 N50 N -0.04177 0.51393 0.63175
 C51 C 0.07691 0.47841 0.65262
 H52 H 0.07810 0.47826 0.68793
 C53 C 0.11122 0.47127 0.62846
 H54 H 0.13885 0.46539 0.64515
 C55 C 0.04075 0.48819 0.58763
 H56 H 0.01410 0.49601 0.57184
 C57 C 0.07439 0.48123 0.56226
 H58 H 0.07319 0.48324 0.52700
 Zn59 Zn 0.00053 0.50056 0.66707
 N60 N 0.04253 0.48657 0.63199
 C61 C -0.04045 0.40144 0.70129
 N62 N -0.04192 0.44485 0.70231
 C63 C -0.07619 0.44917 0.72703
 C64 C -0.11047 0.40904 0.75247
 C65 C -0.07417 0.36029 0.72630
 C66 C 0.07750 0.59932 0.68163
 C67 C 0.11214 0.64090 0.70584
 C68 C 0.07535 0.59416 0.77199
 C69 C 0.04139 0.55344 0.74656
 N70 N 0.04299 0.55675 0.70221
 H71 H -0.01374 0.39835 0.68067
 H72 H -0.07703 0.48383 0.72663
 H73 H -0.13774 0.41278 0.77191
 H74 H -0.07307 0.32573 0.72518
 H75 H 0.07854 0.60058 0.64633
 H76 H 0.13987 0.67444 0.68920
 H77 H 0.07429 0.59102 0.80725
 H78 H 0.01462 0.51893 0.76232
 C79 C 0.11007 0.47293 0.58287
 C80 C -0.10916 0.52712 0.58186
 C81 C 0.11118 0.63817 0.75143
 C82 C -0.10952 0.36418 0.75204
 C83 C 0.55136 0.47484 0.39333
 H84 H 0.51667 0.43917 0.39280
 C85 C 0.59152 0.48086 0.41889
 H86 H 0.58777 0.44979 0.43828
 C87 C 0.59914 0.55857 0.36783
 H88 H 0.60222 0.58841 0.34725
 C89 C 0.64032 0.56617 0.39295
 H90 H 0.67491 0.60199 0.39197
 N91 N 0.55569 0.51349 0.36868
 C92 C 0.40123 0.47775 0.34759
 H93 H 0.39985 0.47746 0.31229
 C94 C 0.35975 0.47067 0.37171
 H95 H 0.32619 0.46471 0.35499
 C96 C 0.44730 0.48781 0.41264
 H97 H 0.48185 0.49572 0.42848
 C98 C 0.40669 0.48092 0.43797
 H99 H 0.40995 0.48308 0.47324
 Zn100 Zn 0.49991 0.49996 0.33328
 N101 N 0.44384 0.48601 0.36828
 C102 C 0.44129 0.40073 0.29873
 N103 N 0.48638 0.44417 0.29788
 C104 C 0.52502 0.44850 0.27323
 C105 C 0.51901 0.40833 0.24767
 C106 C 0.43370 0.35954 0.27361
 C107 C 0.52214 0.59865 0.31896
 C108 C 0.52922 0.64013 0.29485
 C109 C 0.51897 0.59318 0.22859
 C110 C 0.51208 0.55256 0.25392
 N111 N 0.51387 0.55603 0.29828
 H112 H 0.41145 0.39765 0.31931
 H113 H 0.56070 0.48319 0.27376
 H114 H 0.55007 0.41208 0.22829
 H115 H 0.39787 0.32496 0.27459
 H116 H 0.52243 0.60004 0.35427
 H117 H 0.53518 0.67370 0.31156
 H118 H 0.51682 0.58991 0.19332
 H119 H 0.50417 0.51802 0.23808
 C120 C 0.36264 0.47253 0.41730
 C121 C 0.63642 0.52688 0.41864
 C122 C 0.52737 0.63724 0.24925
 C123 C 0.47299 0.36344 0.24792
 C124 C 0.14690 0.46862 0.55737
 C125 C 0.17839 0.46621 0.53594
 C126 C 0.21597 0.46476 0.51079
 C127 C 0.24866 0.46471 0.48931
 C128 C 0.28763 0.46602 0.46418
 C129 C 0.32150 0.46833 0.44277
 C130 C 0.53132 0.85298 0.10917
 C131 C 0.53373 0.82150 0.13061
 C132 C 0.53517 0.78391 0.15576
 C133 C 0.53522 0.75122 0.17724
 C134 C 0.53390 0.71224 0.20237
 C135 C 0.53158 0.67837 0.22379
 C136 C 0.32424 0.85486 0.89186
 C137 C 0.29014 0.82319 0.87039
 C138 C 0.25089 0.78542 0.84519
 C139 C 0.21796 0.75258 0.82366
 C140 C 0.18008 0.71344 0.79846
 C141 C 0.14833 0.67944 0.77699
 C142 C 0.85468 0.53302 0.55669
 C143 C 0.82342 0.53629 0.53558
 C144 C 0.78575 0.53819 0.51084
 C145 C 0.75273 0.53816 0.48971
 C146 C 0.71312 0.53620 0.46496
 C147 C 0.67854 0.53286 0.44384
 C148 C 0.46686 0.14516 0.10986
 C149 C 0.46358 0.17642 0.13097
 C150 C 0.46168 0.21409 0.15571
 C151 C 0.46170 0.24711 0.17685
 C152 C 0.46366 0.28673 0.20160
 C153 C 0.46700 0.32131 0.22272
 C154 C -0.32214 0.14570 0.88945
 C155 C -0.28756 0.17705 0.86843
 C156 C -0.24793 0.21479 0.84380
 C157 C -0.21487 0.24786 0.82277
 C158 C -0.17713 0.28750 0.79814
 C159 C -0.14579 0.32208 0.77712
   
