data_POSCAR
  _audit_creation_date              2014-09-24
  _audit_creation_method            'ToBaCCo'
  _symmetry_space_group_name_H-M    'P1'
  _symmetry_Int_Tables_number       1
  _symmetry_cell_setting            triclinic
  loop_
  _symmetry_equiv_pos_as_xyz
 x,y,z
_cell_length_a 72.2841
_cell_length_b 72.7238
_cell_length_c 13.3017
_cell_angle_alpha 89.339800
_cell_angle_beta 91.929300
_cell_angle_gamma 119.598900
loop_
  _atom_site_label
  _atom_site_type_symbol
  _atom_site_fract_x
  _atom_site_fract_y
  _atom_site_fract_z
C1 C 0.27919 0.55710 0.60864
 C2 C 0.27722 0.55198 0.50885
 C3 C 0.25795 0.54808 0.44842
 C4 C 0.29187 0.54594 0.46277
 C5 C 0.29838 0.56092 0.66973
 C6 C 0.26032 0.55449 0.66160
 C7 C 0.24445 0.52794 0.40696
 C8 C 0.22455 0.52303 0.36499
 C9 C 0.21802 0.53825 0.36330
 C10 C 0.23189 0.55872 0.39976
 C11 C 0.25183 0.56364 0.44138
 C12 C 0.29402 0.52916 0.50354
 C13 C 0.30804 0.52355 0.46249
 C14 C 0.31988 0.53444 0.37938
 C15 C 0.31744 0.55084 0.33648
 C16 C 0.30335 0.55650 0.37775
 C17 C 0.31885 0.57516 0.63629
 C18 C 0.33673 0.57509 0.67926
 C19 C 0.33437 0.56107 0.75716
 C20 C 0.31426 0.54815 0.79651
 C21 C 0.29635 0.54815 0.75345
 C22 C 0.25846 0.57206 0.68931
 C23 C 0.23894 0.56919 0.72174
 C24 C 0.22139 0.54875 0.72779
 C25 C 0.22364 0.53122 0.70528
 C26 C 0.24297 0.53406 0.67248
 H27 H 0.24881 0.51569 0.41199
 H28 H 0.21398 0.50710 0.33747
 H29 H 0.22707 0.57067 0.39935
 H30 H 0.26213 0.57932 0.47216
 H31 H 0.28490 0.52049 0.56759
 H32 H 0.30970 0.51076 0.49585
 H33 H 0.30165 0.56928 0.34465
 H34 H 0.32080 0.58527 0.57241
 H35 H 0.35219 0.58506 0.64782
 H36 H 0.31224 0.53713 0.85633
 H37 H 0.28078 0.53702 0.78057
 H38 H 0.27168 0.58792 0.68036
 H39 H 0.23732 0.58287 0.73839
 H40 H 0.21016 0.51535 0.70914
 H41 H 0.24415 0.52037 0.65083
 H42 H 0.32648 0.55929 0.27183
 C43 C 0.45969 -0.27079 0.48181
 C44 C 0.45326 -0.27520 0.38317
 C45 C 0.44916 -0.29532 0.33564
 C46 C 0.45404 -0.25825 0.31778
 C47 C 0.46315 -0.25086 0.52846
 C48 C 0.46678 -0.28381 0.54004
 C49 C 0.46065 -0.29495 0.25182
 C50 C 0.45970 -0.31354 0.21814
 C51 C 0.44711 -0.33268 0.26715
 C52 C 0.43455 -0.33340 0.34657
 C53 C 0.43544 -0.31483 0.38019
 C54 C 0.47396 -0.24133 0.29315
 C55 C 0.47554 -0.22299 0.25129
 C56 C 0.45723 -0.22136 0.23353
 C57 C 0.43715 -0.23865 0.25243
 C58 C 0.43554 -0.25717 0.29394
 C59 C 0.44611 -0.24686 0.53552
 C60 C 0.44988 -0.22675 0.56238
 C61 C 0.47069 -0.21052 0.58326
 C62 C 0.48763 -0.21470 0.58117
 C63 C 0.48387 -0.23482 0.55427
 C64 C 0.45630 -0.29449 0.62688
 C65 C 0.46197 -0.30822 0.67601
 C66 C 0.47837 -0.31105 0.63927
 C67 C 0.48939 -0.29973 0.55504
 C68 C 0.48370 -0.28613 0.50597
 H69 H 0.47137 -0.28013 0.21637
 H70 H 0.46961 -0.31279 0.15714
 H71 H 0.42485 -0.34811 0.38542
 H72 H 0.42628 -0.31550 0.44426
 H73 H 0.48837 -0.24191 0.31194
 H74 H 0.49114 -0.20966 0.23759
 H75 H 0.42009 -0.27004 0.31357
 H76 H 0.43002 -0.25909 0.51616
 H77 H 0.43666 -0.22370 0.56393
 H78 H 0.50380 -0.20223 0.59715
 H79 H 0.49721 -0.23758 0.54853
 H80 H 0.44330 -0.29276 0.65431
 H81 H 0.45328 -0.31692 0.74104
 H82 H 0.50211 -0.30174 0.52582
 H83 H 0.49214 -0.27775 0.43986
 H84 H 0.42289 -0.23747 0.23954
 C85 C 1.27342 0.72666 0.55941
 C86 C 1.27515 0.72737 0.45738
 C87 C 1.29077 0.74724 0.40881
 C88 C 1.25882 0.71003 0.39292
 C89 C 1.25313 0.71130 0.60490
 C90 C 1.28972 0.74394 0.62413
 C91 C 1.28890 0.76544 0.41937
 C92 C 1.30521 0.78509 0.38970
 C93 C 1.32351 0.78677 0.34817
 C94 C 1.32505 0.76851 0.33285
 C95 C 1.30864 0.74875 0.36277
 C96 C 1.24584 0.71403 0.32570
 C97 C 1.22728 0.69724 0.28336
 C98 C 1.22167 0.67635 0.30710
 C99 C 1.23538 0.67226 0.36805
 C100 C 1.25395 0.68903 0.41022
 C101 C 1.25169 0.69461 0.66432
 C102 C 1.23179 0.67878 0.69594
 C103 C 1.21337 0.67977 0.66897
 C104 C 1.21496 0.69687 0.61294
 C105 C 1.23472 0.71256 0.58135
 C106 C 1.31127 0.74961 0.61868
 C107 C 1.32713 0.76886 0.65889
 C108 C 1.32156 0.78244 0.70637
 C109 C 1.30006 0.77608 0.71916
 C110 C 1.28419 0.75685 0.67866
 H111 H 1.27519 0.76450 0.45483
 H112 H 1.30379 0.79904 0.40197
 H113 H 1.33913 0.76960 0.30063
 H114 H 1.31034 0.73486 0.35469
 H115 H 1.24920 0.73008 0.31190
 H116 H 1.21672 0.70056 0.23664
 H117 H 1.26381 0.68564 0.46162
 H118 H 1.26578 0.69344 0.68266
 H119 H 1.23076 0.66561 0.73929
 H120 H 1.20086 0.69785 0.59164
 H121 H 1.23563 0.72541 0.53572
 H122 H 1.31581 0.73978 0.57735
 H123 H 1.34369 0.77361 0.64804
 H124 H 1.29553 0.78648 0.75530
 H125 H 1.26769 0.75285 0.68334
 H126 H 1.23115 0.65616 0.38719
 C127 C 0.72169 0.44578 0.54592
 C128 C 0.72144 0.44270 0.44464
 C129 C 0.74141 0.44727 0.39544
 C130 C 0.70285 0.43937 0.38029
 C131 C 0.70643 0.45131 0.59004
 C132 C 0.73969 0.44788 0.61123
 C133 C 0.75907 0.46772 0.40344
 C134 C 0.77880 0.47189 0.36965
 C135 C 0.78114 0.45573 0.32657
 C136 C 0.76339 0.43546 0.31437
 C137 C 0.74350 0.43126 0.34828
 C138 C 0.70535 0.45408 0.30516
 C139 C 0.68761 0.45489 0.26563
 C140 C 0.66728 0.44083 0.29979
 C141 C 0.66451 0.42479 0.36696
 C142 C 0.68221 0.42392 0.40638
 C143 C 0.69338 0.43940 0.66857
 C144 C 0.67866 0.44452 0.70708
 C145 C 0.67710 0.46172 0.66782
 C146 C 0.69046 0.47389 0.59113
 C147 C 0.70513 0.46883 0.55310
 C148 C 0.74593 0.43241 0.60839
 C149 C 0.76546 0.43645 0.65167
 C150 C 0.77874 0.45586 0.69949
 C151 C 0.77186 0.47068 0.70919
 C152 C 0.75235 0.46666 0.66572
 H153 H 0.75768 0.48028 0.43916
 H154 H 0.79238 0.48761 0.37947
 H155 H 0.76504 0.42284 0.28104
 H156 H 0.73003 0.41540 0.34163
 H157 H 0.72109 0.46616 0.28416
 H158 H 0.68994 0.46749 0.21437
 H159 H 0.67997 0.41238 0.46381
 H160 H 0.69434 0.42598 0.69853
 H161 H 0.66846 0.43502 0.76673
 H162 H 0.68951 0.48728 0.56032
 H163 H 0.71542 0.47851 0.49412
 H164 H 0.73628 0.41776 0.56732
 H165 H 0.77065 0.42490 0.64311
 H166 H 0.78206 0.48583 0.74537
 H167 H 0.74788 0.47883 0.66848
 H168 H 0.64888 0.41395 0.39456
 C169 C 0.54989 0.27514 0.56279
 C170 C 0.55149 0.27398 0.46125
 C171 C 0.55100 0.29009 0.39323
 C172 C 0.54892 0.25437 0.41536
 C173 C 0.54808 0.25789 0.62989
 C174 C 0.54536 0.29117 0.60544
 C175 C 0.53348 0.28422 0.32645
 C176 C 0.52982 0.29966 0.28181
 C177 C 0.54372 0.32108 0.30283
 C178 C 0.56214 0.32709 0.36271
 C179 C 0.56587 0.31165 0.40707
 C180 C 0.52927 0.23567 0.42073
 C181 C 0.52729 0.21645 0.39131
 C182 C 0.54489 0.21568 0.35562
 C183 C 0.56437 0.23439 0.34622
 C184 C 0.56636 0.25375 0.37568
 C185 C 0.56371 0.25174 0.63107
 C186 C 0.55954 0.23242 0.67327
 C187 C 0.53987 0.21929 0.71630
 C188 C 0.52495 0.22619 0.72278
 C189 C 0.52908 0.24545 0.68020
 C190 C 0.56093 0.30815 0.66290
 C191 C 0.55742 0.32463 0.69172
 C192 C 0.53824 0.32403 0.66386
 C193 C 0.52240 0.30667 0.60978
 C194 C 0.52591 0.29031 0.58101
 H195 H 0.52174 0.26772 0.31519
 H196 H 0.51547 0.29485 0.23598
 H197 H 0.57294 0.34362 0.37981
 H198 H 0.57951 0.31648 0.45802
 H199 H 0.51569 0.23592 0.45124
 H200 H 0.51214 0.20208 0.39859
 H201 H 0.58164 0.26806 0.37161
 H202 H 0.57853 0.26121 0.59335
 H203 H 0.57121 0.22727 0.66746
 H204 H 0.50963 0.21617 0.75553
 H205 H 0.51678 0.24983 0.67995
 H206 H 0.57603 0.30902 0.68191
 H207 H 0.56980 0.33795 0.73377
 H208 H 0.50746 0.30596 0.58800
 H209 H 0.51373 0.27725 0.53684
 H210 H 0.57805 0.23394 0.31840
 C211 C 0.72382 0.27548 0.54579
 C212 C 0.72539 0.27486 0.44398
 C213 C 0.70926 0.25669 0.38274
 C214 C 0.74550 0.28981 0.39571
 C215 C 0.74083 0.29310 0.60667
 C216 C 0.70792 0.25645 0.59886
 C217 C 0.71531 0.24387 0.33096
 C218 C 0.69986 0.22462 0.28897
 C219 C 0.67824 0.21807 0.29757
 C220 C 0.67211 0.23135 0.34373
 C221 C 0.68757 0.25067 0.38540
 C222 C 0.76396 0.28863 0.41891
 C223 C 0.78357 0.30403 0.38431
 C224 C 0.78494 0.32072 0.32580
 C225 C 0.76647 0.32161 0.29922
 C226 C 0.74672 0.30608 0.33370
 C227 C 0.74644 0.31417 0.58494
 C228 C 0.76568 0.33085 0.62246
 C229 C 0.77934 0.32664 0.68331
 C230 C 0.77302 0.30579 0.71163
 C231 C 0.75381 0.28910 0.67386
 C232 C 0.68983 0.25570 0.63878
 C233 C 0.67314 0.23644 0.67218
 C234 C 0.67464 0.21798 0.66672
 C235 C 0.69317 0.21899 0.63196
 C236 C 0.70973 0.23810 0.59841
 H237 H 0.73190 0.24811 0.32821
 H238 H 0.70476 0.21441 0.25387
 H239 H 0.65541 0.22639 0.35112
 H240 H 0.68259 0.26045 0.42407
 H241 H 0.76322 0.27611 0.46657
 H242 H 0.79776 0.30319 0.40527
 H243 H 0.73259 0.30719 0.31558
 H244 H 0.73661 0.31756 0.53335
 H245 H 0.77037 0.34689 0.59968
 H246 H 0.78346 0.30228 0.75835
 H247 H 0.74993 0.27301 0.69094
 H248 H 0.68816 0.26971 0.63887
 H249 H 0.65882 0.23580 0.69871
 H250 H 0.69449 0.20482 0.62710
 H251 H 0.72356 0.23843 0.56746
 H252 H 0.76740 0.33452 0.25406
 N253 N 0.97815 0.52097 0.11616
 N254 N 0.95992 0.52103 0.11768
 N255 N 1.02360 0.53014 0.18523
 N256 N 1.04209 0.53903 0.23543
 N257 N 1.02312 0.54322 0.11756
 N258 N 1.04123 0.56131 0.12035
 N259 N 0.97854 0.50781 0.18371
 N260 N 0.96055 0.49861 0.23252
 C261 C 0.94933 0.50732 0.19165
 C262 C 1.05267 0.55857 0.19534
 N263 N 1.02332 0.47827 0.10618
 N264 N 1.04099 0.47713 0.10956
 N265 N 0.97886 0.46845 0.17693
 N266 N 0.96160 0.45855 0.23050
 N267 N 0.97853 0.45611 0.10470
 N268 N 0.96104 0.43750 0.10735
 N269 N 1.02368 0.49066 0.17825
 N270 N 1.04163 0.49829 0.23228
 Mn271 Mn 1.00118 0.49929 0.18235
 C272 C 1.05204 0.48943 0.18933
 C273 C 0.95088 0.43923 0.18700
 N274 N 1.02193 0.54437 -0.09890
 N275 N 1.03929 0.56306 -0.10284
 N276 N 0.97670 0.50979 -0.17220
 N277 N 0.95847 0.50171 -0.22422
 N278 N 0.97713 0.52223 -0.10016
 N279 N 0.95924 0.52294 -0.10160
 N280 N 1.02148 0.53200 -0.17129
 N281 N 1.03850 0.54197 -0.22637
 Mn282 Mn 1.00010 0.53293 0.00884
 C283 C 1.04924 0.56134 -0.18344
 C284 C 0.94800 0.51039 -0.18026
 N285 N 0.97725 0.45723 -0.11178
 N286 N 0.95927 0.43899 -0.11616
 N287 N 1.02186 0.49268 -0.17781
 N288 N 1.04003 0.50226 -0.22497
 N289 N 1.02226 0.47954 -0.11021
 N290 N 1.04070 0.47988 -0.11011
 N291 N 0.97682 0.47033 -0.17945
 N292 N 0.95855 0.46131 -0.23145
 Mn293 Mn 1.00033 0.46755 -0.00296
 Mn294 Mn 0.99920 0.50118 -0.17648
 Cl295 Cl 1.00020 0.50024 0.00294
 C296 C 0.94799 0.44169 -0.19222
 C297 C 1.05138 0.49377 -0.18328
 N298 N 0.47536 0.45247 0.09970
 N299 N 0.47446 0.43390 0.09545
 N300 N 0.46458 0.48591 0.18132
 N301 N 0.45384 0.49217 0.23642
 N302 N 0.45301 0.47507 0.10269
 N303 N 0.43410 0.47369 0.10222
 N304 N 0.48679 0.46324 0.17895
 N305 N 0.49390 0.45225 0.23055
 C306 C 0.48578 0.43391 0.17844
 C307 C 0.43482 0.48418 0.18667
 N308 N 0.51834 0.53906 0.15094
 N309 N 0.51738 0.55671 0.15306
 N310 N 0.52643 0.50195 0.20870
 N311 N 0.53462 0.49149 0.25668
 N312 N 0.54045 0.51614 0.14892
 N313 N 0.55848 0.51569 0.15509
 N314 N 0.50409 0.52484 0.21003
 N315 N 0.49312 0.53257 0.25286
 Mn316 Mn 0.49549 0.49400 0.19607
 C317 C 0.50197 0.55258 0.21848
 C318 C 0.55470 0.50055 0.22391
 N319 N 0.45678 0.48081 -0.11146
 N320 N 0.43932 0.48232 -0.11135
 N321 N 0.49289 0.47215 -0.17482
 N322 N 0.50197 0.46380 -0.22853
 N323 N 0.47893 0.45792 -0.11505
 N324 N 0.47813 0.43954 -0.12672
 N325 N 0.47080 0.49518 -0.17088
 N326 N 0.46310 0.50674 -0.21202
 Mn327 Mn 0.46581 0.46633 -0.00641
 C328 C 0.44332 0.49819 -0.17602
 C329 C 0.49230 0.44342 -0.19878
 N330 N 0.54422 0.52138 -0.06561
 N331 N 0.56264 0.52166 -0.06267
 N332 N 0.51064 0.53375 -0.14197
 N333 N 0.50427 0.54520 -0.19503
 N334 N 0.52230 0.54446 -0.06324
 N335 N 0.52419 0.56346 -0.06078
 N336 N 0.53261 0.51070 -0.14465
 N337 N 0.54283 0.50341 -0.19715
 Mn338 Mn 0.53156 0.53047 0.04310
 Mn339 Mn 0.50173 0.50295 -0.15940
 Cl340 Cl 0.49864 0.49843 0.01836
 C341 C 0.56161 0.51067 -0.14585
 C342 C 0.51303 0.56369 -0.14380
 N343 N 0.45993 -0.02253 0.11612
 N344 N 0.44120 -0.03951 0.12816
 N345 N 0.49713 0.02145 0.18245
 N346 N 0.50702 0.03887 0.23742
 N347 N 0.48269 0.02203 0.12178
 N348 N 0.48243 0.03988 0.13406
 N349 N 0.47442 -0.02308 0.17641
 N350 N 0.46591 -0.04047 0.23101
 C351 C 0.44518 -0.05035 0.20079
 C352 C 0.49741 0.04998 0.20744
 N353 N 0.54692 0.02134 0.07649
 N354 N 0.56520 0.03923 0.07400
 N355 N 0.51346 -0.02355 0.14807
 N356 N 0.50516 -0.04210 0.19294
 N357 N 0.52420 -0.02333 0.06974
 N358 N 0.52338 -0.04176 0.05968
 N359 N 0.53618 0.02106 0.15480
 N360 N 0.54690 0.03877 0.20726
 Mn361 Mn 0.50535 -0.00105 0.16664
 C362 C 0.56508 0.04969 0.15692
 C363 C 0.51188 -0.05306 0.13830
 N364 N 0.47672 0.02307 -0.09310
 N365 N 0.47595 0.04081 -0.08808
 N366 N 0.46485 -0.02137 -0.17708
 N367 N 0.45421 -0.03915 -0.22895
 N368 N 0.45410 -0.02159 -0.09878
 N369 N 0.43591 -0.03956 -0.09568
 N370 N 0.48734 0.02320 -0.17159
 N371 N 0.49404 0.04102 -0.22195
 Mn372 Mn 0.46812 0.00026 0.01160
 C373 C 0.48651 0.05163 -0.16980
 C374 C 0.43607 -0.05008 -0.17835
 N375 N 0.51862 -0.02199 -0.14488
 N376 N 0.52003 -0.03912 -0.16108
 N377 N 0.52653 0.02301 -0.19875
 N378 N 0.53447 0.04122 -0.24670
 N379 N 0.54108 0.02261 -0.13820
 N380 N 0.55926 0.04055 -0.14373
 N381 N 0.50401 -0.02166 -0.20511
 N382 N 0.49506 -0.03861 -0.26377
 Mn383 Mn 0.53294 -0.00034 -0.03427
 Mn384 Mn 0.49563 0.00079 -0.18941
 Cl385 Cl 0.50050 -0.00009 -0.01138
 C386 C 0.50542 -0.04916 -0.23595
 C387 C 0.55493 0.05178 -0.21277
 C388 C 1.11444 0.50740 0.25141
 C389 C 1.12032 0.49366 0.30123
 C390 C 1.14219 0.50018 0.31945
 C391 C 1.15803 0.52045 0.28824
 C392 C 1.15216 0.53403 0.23683
 C393 C 1.13029 0.52753 0.21886
 C394 C 1.12478 0.54155 0.16913
 C395 C 1.14045 0.56143 0.13844
 C396 C 1.16184 0.56762 0.15406
 C397 C 1.16774 0.55415 0.20282
 C398 C 1.14769 0.48608 0.36844
 C399 C 1.13204 0.46608 0.39792
 C400 C 1.11065 0.45980 0.38113
 C401 C 1.10476 0.47338 0.33350
 C402 C 1.18026 0.52746 0.31200
 C403 C 1.19852 0.53288 0.33493
 C404 C 1.09213 0.50069 0.23192
 C405 C 1.07371 0.49532 0.21395
 H406 H 1.10836 0.53749 0.15510
 H407 H 1.13594 0.57222 0.10387
 H408 H 1.17392 0.58306 0.12954
 H409 H 1.18458 0.55970 0.21393
 H410 H 1.16411 0.49028 0.38382
 H411 H 1.13653 0.45543 0.43457
 H412 H 1.09855 0.44432 0.40507
 H413 H 1.08791 0.46778 0.32195
 C414 C 0.47482 0.59027 0.22051
 C415 C 0.45689 0.58572 0.27770
 C416 C 0.44853 0.59979 0.27549
 C417 C 0.45840 0.61847 0.21772
 C418 C 0.47550 0.62236 0.15588
 C419 C 0.48376 0.60823 0.15729
 C420 C 0.50111 0.61265 0.09601
 C421 C 0.51015 0.63062 0.03586
 C422 C 0.50199 0.64438 0.03416
 C423 C 0.48483 0.64035 0.09313
 C424 C 0.43037 0.59477 0.33161
 C425 C 0.42057 0.57621 0.38739
 C426 C 0.42887 0.56256 0.39052
 C427 C 0.44695 0.56728 0.33716
 C428 C 0.45269 0.63481 0.23043
 C429 C 0.44936 0.64923 0.24497
 C430 C 0.48414 0.57659 0.22584
 C431 C 0.49227 0.56557 0.22607
 H432 H 0.50789 0.60232 0.09383
 H433 H 0.52344 0.63378 -0.01035
 H434 H 0.50894 0.65819 -0.01349
 H435 H 0.47891 0.65141 0.08862
 H436 H 0.42332 0.60489 0.33109
 H437 H 0.40641 0.57237 0.42818
 H438 H 0.42119 0.54818 0.43408
 H439 H 0.45277 0.55614 0.34138
 C440 C 0.40073 -0.11108 0.26764
 C441 C 0.38372 -0.12166 0.19634
 C442 C 0.36870 -0.14339 0.20920
 C443 C 0.37046 -0.15431 0.29452
 C444 C 0.38729 -0.14366 0.36660
 C445 C 0.40240 -0.12193 0.35347
 C446 C 0.41872 -0.11148 0.42792
 C447 C 0.42002 -0.12218 0.51317
 C448 C 0.40543 -0.14349 0.52532
 C449 C 0.38926 -0.15421 0.45292
 C450 C 0.35210 -0.15374 0.13576
 C451 C 0.35028 -0.14287 0.05248
 C452 C 0.36475 -0.12152 0.04078
 C453 C 0.38131 -0.11096 0.11159
 C454 C 0.35409 -0.17600 0.31155
 C455 C 0.33996 -0.19370 0.32730
 C456 C 0.41678 -0.08927 0.25007
 C457 C 0.42987 -0.07135 0.23033
 H458 H 0.43046 -0.09492 0.42162
 H459 H 0.43247 -0.11389 0.56999
 H460 H 0.40654 -0.15174 0.59148
 H461 H 0.37821 -0.17076 0.46591
 H462 H 0.34044 -0.17033 0.14156
 H463 H 0.33758 -0.15106 -0.00330
 H464 H 0.36329 -0.11314 -0.02407
 H465 H 0.39223 -0.09438 0.09869
 C466 C 0.88635 0.48631 0.23995
 C467 C 0.88017 0.49980 0.28615
 C468 C 0.85825 0.49279 0.29937
 C469 C 0.84259 0.47225 0.26708
 C470 C 0.84876 0.45873 0.22114
 C471 C 0.87070 0.46580 0.20736
 C472 C 0.87647 0.45194 0.16186
 C473 C 0.86104 0.43158 0.13257
 C474 C 0.83961 0.42475 0.14518
 C475 C 0.83344 0.43813 0.18869
 C476 C 0.85249 0.50669 0.34481
 C477 C 0.86793 0.52690 0.37607
 C478 C 0.88936 0.53365 0.36410
 C479 C 0.89550 0.52033 0.31969
 C480 C 0.82026 0.46509 0.28334
 C481 C 0.80211 0.46015 0.30055
 C482 C 0.90877 0.49371 0.22478
 C483 C 0.92736 0.50000 0.21104
 H484 H 0.89294 0.45651 0.15044
 H485 H 0.86576 0.42096 0.10069
 H486 H 0.82771 0.40893 0.12192
 H487 H 0.81658 0.43212 0.19730
 H488 H 0.83604 0.50217 0.35620
 H489 H 0.86323 0.53737 0.40975
 H490 H 0.90129 0.54933 0.38901
 H491 H 0.91238 0.52634 0.31175
 C492 C 0.50589 0.39088 0.22745
 C493 C 0.49495 0.37056 0.18231
 C494 C 0.50366 0.35682 0.19043
 C495 C 0.52327 0.36351 0.24345
 C496 C 0.53421 0.38383 0.28846
 C497 C 0.52526 0.39737 0.28237
 C498 C 0.53615 0.41733 0.33100
 C499 C 0.55576 0.42406 0.38038
 C500 C 0.56489 0.41114 0.38287
 C501 C 0.55415 0.39109 0.33914
 C502 C 0.49239 0.33654 0.14508
 C503 C 0.47294 0.32993 0.09418
 C504 C 0.46434 0.34330 0.08705
 C505 C 0.47523 0.36347 0.12971
 C506 C 0.53136 0.34892 0.25836
 C507 C 0.53745 0.33645 0.27549
 C508 C 0.49791 0.40557 0.21260
 C509 C 0.49192 0.41821 0.19811
 H510 H 0.52984 0.42808 0.32977
 H511 H 0.56415 0.43961 0.41469
 H512 H 0.58044 0.41669 0.41837
 H513 H 0.56183 0.38155 0.34386
 H514 H 0.49845 0.32559 0.14859
 H515 H 0.46449 0.31434 0.06022
 H516 H 0.44915 0.33802 0.04814
 H517 H 0.46791 0.37331 0.12199
 C518 C 0.60708 0.11249 0.20341
 C519 C 0.60037 0.12732 0.17831
 C520 C 0.61468 0.14931 0.19206
 C521 C 0.63560 0.15631 0.23058
 C522 C 0.64241 0.14149 0.25412
 C523 C 0.62806 0.11951 0.24099
 C524 C 0.63515 0.10498 0.26603
 C525 C 0.65589 0.11199 0.30206
 C526 C 0.67001 0.13349 0.31386
 C527 C 0.66340 0.14814 0.29084
 C528 C 0.60757 0.16383 0.16739
 C529 C 0.58680 0.15679 0.13146
 C530 C 0.57277 0.13528 0.11879
 C531 C 0.57945 0.12066 0.14069
 C532 C 0.65003 0.17863 0.24947
 C533 C 0.66258 0.19686 0.26898
 C534 C 0.59246 0.09005 0.18951
 C535 C 0.58016 0.07150 0.17623
 H536 H 0.62477 0.08809 0.25787
 H537 H 0.66105 0.10066 0.32090
 H538 H 0.68611 0.13886 0.34199
 H539 H 0.67496 0.16469 0.30192
 H540 H 0.61790 0.18071 0.17648
 H541 H 0.58150 0.16806 0.11432
 H542 H 0.55653 0.12986 0.09280
 H543 H 0.56792 0.10410 0.12968
 C544 C 0.50538 0.11410 -0.21462
 C545 C 0.52362 0.12667 -0.27138
 C546 C 0.53181 0.14887 -0.27763
 C547 C 0.52130 0.15828 -0.23000
 C548 C 0.50283 0.14567 -0.17479
 C549 C 0.49484 0.12351 -0.16710
 C550 C 0.47621 0.11120 -0.11252
 C551 C 0.46567 0.12049 -0.06762
 C552 C 0.47360 0.14217 -0.07427
 C553 C 0.49199 0.15471 -0.12700
 C554 C 0.55052 0.16122 -0.33159
 C555 C 0.56076 0.15189 -0.37864
 C556 C 0.55238 0.13010 -0.37536
 C557 C 0.53404 0.11755 -0.32231
 C558 C 0.52862 0.18064 -0.24379
 C559 C 0.53421 0.19898 -0.25976
 C560 C 0.49802 0.09171 -0.20151
 C561 C 0.49240 0.07328 -0.18835
 H562 H 0.46946 0.09427 -0.10493
 H563 H 0.45127 0.11079 -0.02738
 H564 H 0.46543 0.14932 -0.03859
 H565 H 0.49755 0.17151 -0.13010
 H566 H 0.55760 0.17822 -0.33682
 H567 H 0.57538 0.16168 -0.41692
 H568 H 0.56041 0.12291 -0.41197
 H569 H 0.52830 0.10071 -0.32070
 C570 C 0.60541 0.49230 -0.20354
 C571 C 0.62531 0.50679 -0.24349
 C572 C 0.64037 0.50019 -0.26294
 C573 C 0.63539 0.47909 -0.24305
 C574 C 0.61570 0.46473 -0.20101
 C575 C 0.60060 0.47130 -0.18179
 C576 C 0.58077 0.45647 -0.14248
 C577 C 0.57599 0.43574 -0.12328
 C578 C 0.59095 0.42946 -0.13958
 C579 C 0.61060 0.44372 -0.17819
 C580 C 0.66021 0.51502 -0.30236
 C581 C 0.66497 0.53572 -0.32261
 C582 C 0.65019 0.54212 -0.30429
 C583 C 0.63056 0.52790 -0.26515
 C584 C 0.65015 0.47202 -0.27066
 C585 C 0.66265 0.46678 -0.29747
 C586 C 0.58996 0.49902 -0.18440
 C587 C 0.57711 0.50452 -0.16775
 H588 H 0.56860 0.46058 -0.12835
 H589 H 0.56044 0.42437 -0.09730
 H590 H 0.58714 0.41334 -0.12402
 H591 H 0.62167 0.43808 -0.19063
 H592 H 0.67225 0.51081 -0.31793
 H593 H 0.68020 0.54682 -0.35309
 H594 H 0.65394 0.55820 -0.32048
 H595 H 0.61960 0.53364 -0.25203
 C596 C 0.88479 0.39962 -0.24576
 C597 C 0.87098 0.40620 -0.29052
 C598 C 0.84869 0.39187 -0.29794
 C599 C 0.84043 0.37082 -0.26381
 C600 C 0.85428 0.36418 -0.22003
 C601 C 0.87650 0.37861 -0.21098
 C602 C 0.89002 0.37153 -0.16773
 C603 C 0.88184 0.35077 -0.13481
 C604 C 0.86010 0.33672 -0.14279
 C605 C 0.84640 0.34325 -0.18481
 C606 C 0.83511 0.39905 -0.33923
 C607 C 0.84332 0.41978 -0.37259
 C608 C 0.86515 0.43359 -0.36834
 C609 C 0.87891 0.42695 -0.32803
 C610 C 0.81796 0.35558 -0.27923
 C611 C 0.79961 0.34228 -0.29489
 C612 C 0.90735 0.41462 -0.23107
 C613 C 0.92600 0.42695 -0.21538
 H614 H 0.90705 0.38186 -0.15967
 H615 H 0.89244 0.34558 -0.10287
 H616 H 0.85382 0.32065 -0.11639
 H617 H 0.82961 0.33173 -0.18935
 H618 H 0.81804 0.38881 -0.34505
 H619 H 0.83269 0.42513 -0.40248
 H620 H 0.87144 0.44962 -0.39520
 H621 H 0.89576 0.43832 -0.32531
 C622 C 0.49023 -0.10864 -0.32774
 C623 C 0.50524 -0.11186 -0.37917
 C624 C 0.50108 -0.13275 -0.39908
 C625 C 0.48197 -0.15031 -0.36724
 C626 C 0.46667 -0.14710 -0.31863
 C627 C 0.47078 -0.12621 -0.29913
 C628 C 0.45524 -0.12343 -0.25038
 C629 C 0.43617 -0.14078 -0.22231
 C630 C 0.43213 -0.16119 -0.24129
 C631 C 0.44718 -0.16442 -0.28869
 C632 C 0.51637 -0.13556 -0.45014
 C633 C 0.53525 -0.11823 -0.48055
 C634 C 0.53933 -0.09781 -0.46089
 C635 C 0.52456 -0.09457 -0.41077
 C636 C 0.47805 -0.17165 -0.38406
 C637 C 0.47474 -0.18939 -0.39815
 C638 C 0.49534 -0.08738 -0.29912
 C639 C 0.49986 -0.06983 -0.27223
 H640 H 0.45758 -0.10786 -0.23413
 H641 H 0.42442 -0.13841 -0.18597
 H642 H 0.41724 -0.17458 -0.21940
 H643 H 0.44331 -0.18060 -0.30208
 H644 H 0.51392 -0.15114 -0.46706
 H645 H 0.54679 -0.12066 -0.51944
 H646 H 0.55404 -0.08440 -0.48456
 H647 H 0.52843 -0.07839 -0.39737
 C648 C 0.40759 0.52762 -0.17883
 C649 C 0.38978 0.51950 -0.11630
 C650 C 0.37653 0.52883 -0.11757
 C651 C 0.38107 0.54610 -0.18182
 C652 C 0.39958 0.55500 -0.23970
 C653 C 0.41286 0.54570 -0.23841
 C654 C 0.43122 0.55480 -0.29735
 C655 C 0.43645 0.57277 -0.35480
 C656 C 0.42347 0.58188 -0.35587
 C657 C 0.40513 0.57307 -0.29970
 C658 C 0.35873 0.52037 -0.05512
 C659 C 0.35404 0.50305 0.00630
 C660 C 0.36690 0.49381 0.00699
 C661 C 0.38465 0.50194 -0.05302
 C662 C 0.36547 0.55300 -0.19711
 C663 C 0.35168 0.55744 -0.21488
 C664 C 0.42029 0.51722 -0.18211
 C665 C 0.43071 0.50842 -0.18212
 H666 H 0.44187 0.54836 -0.29830
 H667 H 0.45070 0.57972 -0.39836
 H668 H 0.42766 0.59590 -0.40021
 H669 H 0.39558 0.58078 -0.30232
 H670 H 0.34834 0.52711 -0.05272
 H671 H 0.34042 0.49683 0.05397
 H672 H 0.36323 0.48041 0.05511
 H673 H 0.39430 0.49436 -0.04893
 C674 C 1.11013 0.60542 -0.24992
 C675 C 1.11807 0.62688 -0.22351
 C676 C 1.13998 0.64173 -0.23439
 C677 C 1.15379 0.63504 -0.27220
 C678 C 1.14579 0.61364 -0.30009
 C679 C 1.12379 0.59887 -0.29078
 C680 C 1.11597 0.57777 -0.32311
 C681 C 1.12961 0.57130 -0.36079
 C682 C 1.15125 0.58555 -0.36613
 C683 C 1.15931 0.60656 -0.33733
 C684 C 1.14756 0.66311 -0.20737
 C685 C 1.13380 0.66968 -0.17234
 C686 C 1.11232 0.65520 -0.16296
 C687 C 1.10449 0.63399 -0.18729
 C688 C 1.17583 0.65053 -0.28924
 C689 C 1.19373 0.66399 -0.30678
 C690 C 1.08824 0.58994 -0.22998
 C691 C 1.07027 0.57700 -0.21026
 H692 H 1.09929 0.56603 -0.31901
 H693 H 1.12341 0.55504 -0.38410
 H694 H 1.16186 0.58029 -0.39273
 H695 H 1.17623 0.61713 -0.34382
 H696 H 1.16414 0.67498 -0.21328
 H697 H 1.13984 0.68610 -0.15240
 H698 H 1.10167 0.66040 -0.13603
 H699 H 1.08766 0.62331 -0.17858
 C700 C 0.88462 0.48967 -0.22505
 C701 C 0.86995 0.46945 -0.18816
 C702 C 0.84774 0.46199 -0.19854
 C703 C 0.84038 0.47485 -0.24530
 C704 C 0.85506 0.49505 -0.28244
 C705 C 0.87726 0.50245 -0.27259
 C706 C 0.89164 0.52260 -0.31112
 C707 C 0.88428 0.53515 -0.35751
 C708 C 0.86257 0.52799 -0.36647
 C709 C 0.84805 0.50817 -0.32990
 C710 C 0.83335 0.44159 -0.16263
 C711 C 0.84071 0.42876 -0.11955
 C712 C 0.86244 0.43599 -0.11023
 C713 C 0.87697 0.45621 -0.14243
 C714 C 0.81777 0.46715 -0.25920
 C715 C 0.79923 0.46145 -0.27561
 C716 C 0.90726 0.49738 -0.21284
 C717 C 0.92598 0.50357 -0.20013
 H718 H 0.90868 0.52885 -0.30589
 H719 H 0.89549 0.55051 -0.38663
 H720 H 0.85692 0.53783 -0.40223
 H721 H 0.83133 0.50330 -0.33909
 H722 H 0.81630 0.43527 -0.16871
 H723 H 0.82951 0.41304 -0.09417
 H724 H 0.86809 0.42579 -0.07896
 H725 H 0.89371 0.46107 -0.13366
 C726 C 0.51129 0.40044 -0.25957
 C727 C 0.53139 0.40655 -0.29968
 C728 C 0.53830 0.39143 -0.30886
 C729 C 0.52480 0.37019 -0.28034
 C730 C 0.50461 0.36405 -0.24096
 C731 C 0.49783 0.37922 -0.23072
 C732 C 0.47748 0.37266 -0.19223
 C733 C 0.46417 0.35170 -0.16524
 C734 C 0.47087 0.33690 -0.17440
 C735 C 0.49085 0.34292 -0.21156
 C736 C 0.55872 0.39804 -0.34628
 C737 C 0.57192 0.41898 -0.37412
 C738 C 0.56494 0.43362 -0.36775
 C739 C 0.54491 0.42757 -0.33095
 C740 C 0.53093 0.35427 -0.29718
 C741 C 0.53491 0.34035 -0.31379
 C742 C 0.50473 0.41605 -0.24344
 C743 C 0.49906 0.42868 -0.22575
 H744 H 0.47155 0.38358 -0.18332
 H745 H 0.44860 0.34695 -0.13673
 H746 H 0.46054 0.32067 -0.15245
 H747 H 0.49536 0.33082 -0.21696
 H748 H 0.56477 0.38717 -0.35328
 H749 H 0.58767 0.42389 -0.40072
 H750 H 0.57523 0.44984 -0.38991
 H751 H 0.54027 0.43958 -0.32617
 C752 C 0.59614 0.11432 -0.26593
 C753 C 0.59286 0.13011 -0.22206
 C754 C 0.60803 0.15185 -0.23459
 C755 C 0.62648 0.15765 -0.28992
 C756 C 0.62947 0.14188 -0.33599
 C757 C 0.61421 0.12017 -0.32434
 C758 C 0.61752 0.10471 -0.37147
 C759 C 0.63547 0.11052 -0.42784
 C760 C 0.65049 0.13174 -0.43831
 C761 C 0.64757 0.14729 -0.39362
 C762 C 0.60428 0.16735 -0.19138
 C763 C 0.58590 0.16154 -0.13850
 C764 C 0.57104 0.14031 -0.12659
 C765 C 0.57455 0.12469 -0.16633
 C766 C 0.64261 0.17973 -0.29970
 C767 C 0.65682 0.19756 -0.31198
 C768 C 0.58129 0.09209 -0.24910
 C769 C 0.56923 0.07362 -0.23383
 H770 H 0.60629 0.08799 -0.36531
 H771 H 0.63778 0.09850 -0.46322
 H772 H 0.66455 0.13619 -0.48094
 H773 H 0.65968 0.16357 -0.40470
 H774 H 0.61537 0.18407 -0.19916
 H775 H 0.58307 0.17359 -0.10729
 H776 H 0.55658 0.13590 -0.08733
 H777 H 0.56249 0.10838 -0.15533
 C778 C 1.11516 0.51719 -0.21856
 C779 C 1.12987 0.53760 -0.18073
 C780 C 1.15212 0.54551 -0.18871
 C781 C 1.15950 0.53286 -0.23331
 C782 C 1.14477 0.51250 -0.27164
 C783 C 1.12255 0.50470 -0.26473
 C784 C 1.10816 0.48438 -0.30427
 C785 C 1.11551 0.47200 -0.34825
 C786 C 1.13723 0.47952 -0.35390
 C787 C 1.15175 0.49955 -0.31690
 C788 C 1.16650 0.56607 -0.15207
 C789 C 1.15911 0.57863 -0.11034
 C790 C 1.13737 0.57095 -0.10304
 C791 C 1.12286 0.55055 -0.13605
 C792 C 1.18215 0.54052 -0.24125
 C793 C 1.20046 0.54527 -0.25237
 C794 C 1.09244 0.50888 -0.20873
 C795 C 1.07361 0.50186 -0.19889
 H796 H 1.09110 0.47781 -0.30139
 H797 H 1.10429 0.45646 -0.37772
 H798 H 1.14290 0.46978 -0.38705
 H799 H 1.16847 0.50467 -0.32387
 H800 H 1.18354 0.57270 -0.15631
 H801 H 1.17029 0.59443 -0.08371
 H802 H 1.13170 0.58086 -0.07153
 H803 H 1.10611 0.54526 -0.12843
 C804 C 0.50087 0.61196 -0.20791
 C805 C 0.48143 0.61045 -0.17997
 C806 C 0.47725 0.62724 -0.20251
 C807 C 0.49241 0.64531 -0.25381
 C808 C 0.51210 0.64710 -0.27905
 C809 C 0.51631 0.63035 -0.25639
 C810 C 0.53601 0.63239 -0.28363
 C811 C 0.55116 0.65054 -0.33123
 C812 C 0.54710 0.66698 -0.35275
 C813 C 0.52781 0.66535 -0.32727
 C814 C 0.45782 0.62551 -0.17314
 C815 C 0.44278 0.60755 -0.12416
 C816 C 0.44671 0.59100 -0.10379
 C817 C 0.46586 0.59241 -0.13011
 C818 C 0.48722 0.66136 -0.28686
 C819 C 0.48297 0.67444 -0.31902
 C820 C 0.50513 0.59477 -0.18591
 C821 C 0.50880 0.58059 -0.16742
 H822 H 0.53991 0.62004 -0.26847
 H823 H 0.56616 0.65185 -0.35136
 H824 H 0.55897 0.68108 -0.38931
 H825 H 0.52542 0.67860 -0.34519
 H826 H 0.45404 0.63797 -0.18781
 H827 H 0.42786 0.60631 -0.10332
 H828 H 0.43460 0.57679 -0.06983
 H829 H 0.46816 0.57910 -0.11223
 C830 C 0.39443 -0.11294 -0.22461
 C831 C 0.38107 -0.12048 -0.31201
 C832 C 0.36632 -0.14241 -0.32298
 C833 C 0.36526 -0.15670 -0.24703
 C834 C 0.37912 -0.14925 -0.16122
 C835 C 0.39374 -0.12727 -0.14987
 C836 C 0.40760 -0.12018 -0.06382
 C837 C 0.40710 -0.13441 0.00859
 C838 C 0.39272 -0.15589 -0.00232
 C839 C 0.37882 -0.16331 -0.08601
 C840 C 0.35294 -0.14956 -0.41067
 C841 C 0.35429 -0.13546 -0.48571
 C842 C 0.36891 -0.11404 -0.47546
 C843 C 0.38213 -0.10654 -0.38958
 C844 C 0.34988 -0.17901 -0.25810
 C845 C 0.33674 -0.19730 -0.27184
 C846 C 0.40886 -0.09046 -0.21108
 C847 C 0.42104 -0.07190 -0.19764
 H848 H 0.41903 -0.10363 -0.05185
 H849 H 0.41783 -0.12872 0.07381
 H850 H 0.39230 -0.16685 0.05447
 H851 H 0.36793 -0.18015 -0.09138
 H852 H 0.34147 -0.16610 -0.42278
 H853 H 0.34407 -0.14123 -0.55260
 H854 H 0.37004 -0.10319 -0.53444
 H855 H 0.39325 -0.08974 -0.38497
 C856 C 0.48611 -0.11710 0.16063
 C857 C 0.47524 -0.12774 0.24792
 C858 C 0.46643 -0.15001 0.25529
 C859 C 0.46882 -0.16141 0.17597
 C860 C 0.47879 -0.15091 0.08679
 C861 C 0.48750 -0.12866 0.07910
 C862 C 0.49770 -0.11845 -0.01022
 C863 C 0.49931 -0.12990 -0.08944
 C864 C 0.49066 -0.15168 -0.08219
 C865 C 0.48051 -0.16215 0.00480
 C866 C 0.45548 -0.16036 0.34287
 C867 C 0.45332 -0.14903 0.42095
 C868 C 0.46228 -0.12721 0.41456
 C869 C 0.47310 -0.11660 0.32916
 C870 C 0.46310 -0.18336 0.19066
 C871 C 0.45965 -0.20108 0.20727
 C872 C 0.49579 -0.09428 0.15447
 C873 C 0.50354 -0.07538 0.14818
 H874 H 0.50458 -0.10154 -0.01969
 H875 H 0.50734 -0.12182 -0.15675
 H876 H 0.49185 -0.16050 -0.14421
 H877 H 0.47397 -0.17912 0.00698
 H878 H 0.44834 -0.17731 0.35144
 H879 H 0.44468 -0.15723 0.48681
 H880 H 0.46083 -0.11843 0.47600
 H881 H 0.47968 -0.09962 0.32751
 C882 C 0.39054 0.50153 0.24742
 C883 C 0.39413 0.52138 0.21127
 C884 C 0.37922 0.52822 0.22965
 C885 C 0.36101 0.51532 0.28578
 C886 C 0.35720 0.49527 0.32027
 C887 C 0.37202 0.48836 0.30099
 C888 C 0.36795 0.46833 0.33659
 C889 C 0.34972 0.45546 0.38976
 C890 C 0.33520 0.46219 0.40852
 C891 C 0.33881 0.48184 0.37439
 C892 C 0.38297 0.54795 0.19120
 C893 C 0.40117 0.56074 0.13765
 C894 C 0.41597 0.55423 0.12189
 C895 C 0.41248 0.53472 0.15696
 C896 C 0.34669 0.52294 0.31286
 C897 C 0.33459 0.52863 0.34032
 C898 C 0.40582 0.49466 0.22825
 C899 C 0.41885 0.48948 0.21054
 H900 H 0.37879 0.46242 0.32383
 H901 H 0.34685 0.44019 0.41656
 H902 H 0.32104 0.45212 0.44974
 H903 H 0.32700 0.48632 0.39062
 H904 H 0.37195 0.55370 0.20251
 H905 H 0.40401 0.57594 0.10993
 H906 H 0.43055 0.56451 0.08469
 H907 H 0.42446 0.53039 0.14215
 C908 C 1.11622 0.60041 0.23501
 C909 C 1.12431 0.62032 0.18739
 C910 C 1.14648 0.63502 0.19337
 C911 C 1.16045 0.62975 0.24710
 C912 C 1.15244 0.60966 0.29260
 C913 C 1.13021 0.59506 0.28792
 C914 C 1.12252 0.57531 0.33646
 C915 C 1.13647 0.56987 0.38542
 C916 C 1.15825 0.58394 0.38788
 C917 C 1.16621 0.60372 0.34310
 C918 C 1.15417 0.65485 0.14556
 C919 C 1.14032 0.66008 0.09406
 C920 C 1.11862 0.64578 0.08897
 C921 C 1.11063 0.62606 0.13435
 C922 C 1.18266 0.64568 0.26287
 C923 C 1.20073 0.65943 0.28018
 C924 C 1.09361 0.58531 0.22628
 C925 C 1.07484 0.57303 0.21487
 H926 H 1.10572 0.56378 0.33579
 H927 H 1.13038 0.55454 0.42051
 H928 H 1.16905 0.57950 0.42451
 H929 H 1.18327 0.61416 0.34711
 H930 H 1.17094 0.66649 0.14735
 H931 H 1.14646 0.67534 0.05817
 H932 H 1.10788 0.64998 0.04986
 H933 H 1.09362 0.61549 0.12797
 C934 C 0.51808 0.11189 0.27474
 C935 C 0.50436 0.11995 0.24769
 C936 C 0.51155 0.14186 0.25892
 C937 C 0.53241 0.15560 0.29754
 C938 C 0.54614 0.14754 0.32468
 C939 C 0.53882 0.12553 0.31486
 C940 C 0.55256 0.11769 0.34532
 C941 C 0.57320 0.13132 0.38166
 C942 C 0.58056 0.15291 0.38855
 C943 C 0.56718 0.16100 0.36136
 C944 C 0.49750 0.14954 0.23123
 C945 C 0.47689 0.13590 0.19487
 C946 C 0.46981 0.11443 0.18489
 C947 C 0.48335 0.10648 0.21013
 C948 C 0.53890 0.17764 0.31544
 C949 C 0.54259 0.19540 0.33224
 C950 C 0.51108 0.08976 0.25613
 C951 C 0.50485 0.07148 0.23628
 H952 H 0.54758 0.10103 0.34038
 H953 H 0.58360 0.12511 0.40366
 H954 H 0.59667 0.16344 0.41586
 H955 H 0.57352 0.17788 0.36879
 H956 H 0.50224 0.16612 0.23739
 H957 H 0.46635 0.14203 0.17427
 H958 H 0.45374 0.10386 0.15715
 H959 H 0.47708 0.08965 0.20071
 C960 C 0.59398 0.47536 0.26110
 C961 C 0.58848 0.45623 0.21030
 C962 C 0.60251 0.44777 0.21590
 C963 C 0.62206 0.45868 0.27089
 C964 C 0.62726 0.47747 0.32421
 C965 C 0.61314 0.48580 0.31949
 C966 C 0.61863 0.50454 0.37372
 C967 C 0.63757 0.51480 0.43081
 C968 C 0.65143 0.50671 0.43513
 C969 C 0.64641 0.48826 0.38283
 C970 C 0.59641 0.42832 0.16724
 C971 C 0.57675 0.41725 0.11648
 C972 C 0.56302 0.42549 0.11121
 C973 C 0.56892 0.44496 0.15552
 C974 C 0.63697 0.45077 0.27401
 C975 C 0.65030 0.44545 0.28182
 C976 C 0.58007 0.48442 0.25204
 C977 C 0.56855 0.49193 0.24162
 H978 H 0.60835 0.51144 0.37275
 H979 H 0.64152 0.52913 0.47169
 H980 H 0.66618 0.51478 0.47908
 H981 H 0.65770 0.48259 0.38913
 H982 H 0.60656 0.42128 0.16975
 H983 H 0.57211 0.40216 0.08144
 H984 H 0.54764 0.41671 0.07291
 H985 H 0.55766 0.45068 0.14945
 C986 C 0.88927 0.39555 0.24299
 C987 C 0.88068 0.37478 0.20424
 C988 C 0.85869 0.36007 0.21394
 C989 C 0.84545 0.36623 0.26247
 C990 C 0.85404 0.38703 0.30084
 C991 C 0.87610 0.40162 0.29269
 C992 C 0.88447 0.42212 0.33458
 C993 C 0.87127 0.42822 0.38027
 C994 C 0.84957 0.41417 0.38503
 C995 C 0.84100 0.39369 0.34721
 C996 C 0.85046 0.33935 0.17489
 C997 C 0.86364 0.33327 0.12880
 C998 C 0.88518 0.34761 0.12023
 C999 C 0.89366 0.36819 0.15659
 C1000 C 0.82346 0.35067 0.27984
 C1001 C 0.80559 0.33726 0.29819
 C1002 C 0.91140 0.41092 0.22725
 C1003 C 0.92958 0.42376 0.21085
 H1004 H 0.90121 0.43370 0.33122
 H1005 H 0.87785 0.44410 0.41005
 H1006 H 0.83926 0.41920 0.41740
 H1007 H 0.82404 0.38329 0.35324
 H1008 H 0.83379 0.32764 0.17970
 H1009 H 0.85710 0.31735 0.09971
 H1010 H 0.89539 0.34276 0.08506
 H1011 H 0.91051 0.37877 0.14787
   
