data_POSCAR
  _audit_creation_date              2014-09-24
  _audit_creation_method            'ToBaCCo'
  _symmetry_space_group_name_H-M    'P1'
  _symmetry_Int_Tables_number       1
  _symmetry_cell_setting            triclinic
  loop_
  _symmetry_equiv_pos_as_xyz
 x,y,z
_cell_length_a 50.3013
_cell_length_b 52.8621
_cell_length_c 51.0776
_cell_angle_alpha 88.197400
_cell_angle_beta 91.351100
_cell_angle_gamma 87.777800
loop_
  _atom_site_label
  _atom_site_type_symbol
  _atom_site_fract_x
  _atom_site_fract_y
  _atom_site_fract_z
N1 N 0.25091 0.19640 0.17271
 N2 N 0.24061 0.21549 0.15827
 C3 C 0.25784 0.22179 0.13964
 C4 C 0.28022 0.20571 0.14248
 C5 C 0.27503 0.18980 0.16368
 H6 H 0.25434 0.23706 0.12525
 H7 H 0.28808 0.17498 0.17240
 Cu8 Cu 0.20612 0.23088 0.16565
 Cu9 Cu 0.23281 0.18237 0.20283
 Cu10 Cu 0.17582 0.21520 0.22155
 N11 N 0.17747 0.25195 0.17902
 N12 N 0.16559 0.24578 0.20080
 C13 C 0.14723 0.26404 0.20591
 C14 C 0.14764 0.28278 0.18627
 C15 C 0.16714 0.27433 0.16953
 H16 H 0.13485 0.26378 0.22291
 H17 H 0.17391 0.28394 0.15208
 N18 N 0.18973 0.18381 0.23978
 N19 N 0.21151 0.17140 0.23269
 C20 C 0.21646 0.15148 0.24940
 C21 C 0.19686 0.15130 0.26799
 C22 C 0.18020 0.17207 0.26118
 H23 H 0.23323 0.13821 0.24821
 H24 H 0.16286 0.17861 0.27149
 H25 H 0.19414 0.19453 0.19284
 H26 H 0.21504 0.21713 0.21086
 N27 N 0.74787 -0.18523 0.19828
 N28 N 0.75271 -0.20871 0.19160
 C29 C 0.73388 -0.21532 0.17429
 C30 C 0.71593 -0.19488 0.16981
 C31 C 0.72565 -0.17608 0.18550
 H32 H 0.73342 -0.23376 0.16581
 H33 H 0.71723 -0.15718 0.18774
 Cu34 Cu 0.78284 -0.22893 0.20616
 Cu35 Cu 0.77029 -0.16879 0.22380
 Cu36 Cu 0.82929 -0.20090 0.24231
 N37 N 0.81816 -0.24433 0.21238
 N38 N 0.83662 -0.23297 0.22567
 C39 C 0.85909 -0.24767 0.22659
 C40 C 0.85445 -0.26971 0.21333
 C41 C 0.82810 -0.26676 0.20459
 H42 H 0.87714 -0.24290 0.23688
 H43 H 0.81689 -0.27970 0.19313
 N44 N 0.81800 -0.16831 0.25696
 N45 N 0.79575 -0.15576 0.24956
 C46 C 0.79277 -0.13518 0.26427
 C47 C 0.81398 -0.13499 0.28201
 C48 C 0.82958 -0.15625 0.27677
 H49 H 0.77561 -0.12219 0.26336
 H50 H 0.84756 -0.16291 0.28724
 H51 H 0.80360 -0.18880 0.21170
 H52 H 0.78793 -0.20067 0.24247
 N53 N 0.74612 0.20899 0.80099
 N54 N 0.74906 0.23283 0.80650
 C55 C 0.73193 0.23942 0.82515
 C56 C 0.71731 0.21857 0.83176
 C57 C 0.72691 0.19958 0.81592
 H58 H 0.73030 0.25807 0.83318
 H59 H 0.72061 0.18029 0.81538
 Cu60 Cu 0.77507 0.25322 0.78924
 Cu61 Cu 0.76733 0.19219 0.77473
 Cu62 Cu 0.82114 0.22459 0.75236
 N63 N 0.80791 0.26916 0.78063
 N64 N 0.82637 0.25762 0.76711
 C65 C 0.84712 0.27277 0.76465
 C66 C 0.84129 0.29524 0.77717
 C67 C 0.81610 0.29210 0.78708
 H68 H 0.86477 0.26790 0.75395
 H69 H 0.80458 0.30520 0.79851
 N70 N 0.81202 0.19110 0.73975
 N71 N 0.79137 0.17881 0.74813
 C72 C 0.78919 0.15756 0.73451
 C73 C 0.80940 0.15640 0.71655
 C74 C 0.82351 0.17801 0.72056
 H75 H 0.77353 0.14434 0.73702
 H76 H 0.84018 0.18440 0.70954
 H77 H 0.79958 0.21340 0.78443
 H78 H 0.78001 0.22370 0.75395
 N79 N 0.24778 -0.20718 0.80783
 N80 N 0.23985 -0.22845 0.81850
 C81 C 0.25648 -0.23561 0.83865
 C82 C 0.27593 -0.21788 0.84079
 C83 C 0.26968 -0.20006 0.82087
 H84 H 0.25464 -0.25253 0.85078
 H85 H 0.28060 -0.18347 0.81577
 Cu86 Cu 0.20910 -0.24509 0.80438
 Cu87 Cu 0.22975 -0.19093 0.77712
 Cu88 Cu 0.17471 -0.22060 0.75193
 N89 N 0.17824 -0.26159 0.79029
 N90 N 0.16481 -0.25186 0.76978
 C91 C 0.14493 -0.26712 0.76368
 C92 C 0.14588 -0.28775 0.78130
 C93 C 0.16739 -0.28340 0.79795
 H94 H 0.13116 -0.26348 0.74734
 H95 H 0.17487 -0.29527 0.81428
 N96 N 0.18788 -0.18886 0.73666
 N97 N 0.20879 -0.17758 0.74619
 C98 C 0.21319 -0.15694 0.73099
 C99 C 0.19417 -0.15509 0.71087
 C100 C 0.17846 -0.17570 0.71520
 H101 H 0.22925 -0.14434 0.73422
 H102 H 0.16176 -0.18111 0.70323
 H103 H 0.19275 -0.20498 0.78405
 H104 H 0.21477 -0.22348 0.76214
 N105 N 0.75757 -0.19266 0.83413
 N106 N 0.76263 -0.21612 0.84259
 C107 C 0.74482 -0.22224 0.86078
 C108 C 0.72754 -0.20150 0.86391
 C109 C 0.73637 -0.18308 0.84660
 H110 H 0.74448 -0.24052 0.87083
 H111 H 0.72776 -0.16423 0.84289
 Cu112 Cu 0.79148 -0.23695 0.82874
 Cu113 Cu 0.77795 -0.17674 0.80665
 Cu114 Cu 0.83453 -0.20979 0.78800
 N115 N 0.82572 -0.25324 0.82118
 N116 N 0.84291 -0.24202 0.80625
 C117 C 0.86475 -0.25728 0.80437
 C118 C 0.86102 -0.27965 0.81858
 C119 C 0.83588 -0.27627 0.82902
 H120 H 0.88149 -0.25279 0.79245
 H121 H 0.82564 -0.28944 0.84144
 N122 N 0.82261 -0.17700 0.77167
 N123 N 0.80125 -0.16409 0.77905
 C124 C 0.79753 -0.14327 0.76328
 C125 C 0.81730 -0.14331 0.74489
 C126 C 0.83284 -0.16495 0.75085
 H127 H 0.78083 -0.12983 0.76412
 H128 H 0.84992 -0.17178 0.74030
 H129 H 0.79323 -0.20909 0.78994
 H130 H 0.81200 -0.19710 0.81890
 N131 N 0.25386 0.18150 0.80706
 N132 N 0.24476 0.20061 0.82050
 C133 C 0.26198 0.20466 0.84036
 C134 C 0.28311 0.18707 0.83937
 C135 C 0.27715 0.17267 0.81792
 H136 H 0.25936 0.21952 0.85423
 H137 H 0.28915 0.15732 0.81029
 Cu138 Cu 0.21186 0.21902 0.81018
 Cu139 Cu 0.23540 0.17025 0.77585
 Cu140 Cu 0.18189 0.20816 0.75219
 N141 N 0.18551 0.24284 0.79424
 N142 N 0.17375 0.23860 0.77165
 C143 C 0.15693 0.25834 0.76507
 C144 C 0.15827 0.27601 0.78457
 C145 C 0.17667 0.26538 0.80278
 H146 H 0.14502 0.25987 0.74716
 H147 H 0.18337 0.27340 0.82086
 N148 N 0.19360 0.17649 0.73558
 N149 N 0.21407 0.16217 0.74463
 C150 C 0.21777 0.14253 0.72882
 C151 C 0.19875 0.14448 0.70876
 C152 C 0.18369 0.16624 0.71376
 H153 H 0.23329 0.12793 0.73166
 H154 H 0.16720 0.17439 0.70198
 H155 H 0.22082 0.20659 0.76584
 H156 H 0.19742 0.18507 0.78259
 N157 N 0.24967 -0.20421 0.19597
 N158 N 0.24560 -0.22676 0.18693
 C159 C 0.26413 -0.23224 0.16913
 C160 C 0.28083 -0.21203 0.16691
 C161 C 0.27094 -0.19460 0.18432
 H162 H 0.26535 -0.24972 0.15873
 H163 H 0.27844 -0.17616 0.18812
 Cu164 Cu 0.21652 -0.24696 0.19909
 Cu165 Cu 0.22720 -0.18904 0.22222
 Cu166 Cu 0.16929 -0.21929 0.23569
 N167 N 0.18197 -0.26157 0.20371
 N168 N 0.16310 -0.24998 0.21673
 C169 C 0.14122 -0.26385 0.21622
 C170 C 0.14680 -0.28544 0.20246
 C171 C 0.17288 -0.28344 0.19486
 H172 H 0.12292 -0.25910 0.22597
 H173 H 0.18427 -0.29681 0.18358
 N174 N 0.17948 -0.18825 0.25310
 N175 N 0.20174 -0.17685 0.24815
 C176 C 0.20401 -0.15730 0.26421
 C177 C 0.18214 -0.15634 0.28024
 C178 C 0.16700 -0.17630 0.27250
 H179 H 0.22070 -0.14506 0.26456
 H180 H 0.14873 -0.18232 0.28099
 H181 H 0.21048 -0.22148 0.23756
 H182 H 0.19436 -0.20651 0.20705
 N183 N 0.75259 0.20473 0.19780
 N184 N 0.76302 0.22190 0.18242
 C185 C 0.74652 0.22694 0.16159
 C186 C 0.72445 0.21228 0.16424
 C187 C 0.72901 0.19844 0.18746
 H188 H 0.74995 0.24075 0.14609
 H189 H 0.71618 0.18469 0.19610
 Cu190 Cu 0.79642 0.23704 0.19175
 Cu191 Cu 0.77041 0.19151 0.22986
 Cu192 Cu 0.82530 0.22309 0.25100
 N193 N 0.82348 0.25802 0.20666
 N194 N 0.83468 0.25246 0.22972
 C195 C 0.85189 0.27039 0.23561
 C196 C 0.85150 0.28832 0.21519
 C197 C 0.83320 0.27973 0.19709
 H198 H 0.86356 0.27043 0.25364
 H199 H 0.82683 0.28886 0.17864
 N200 N 0.81243 0.19294 0.26966
 N201 N 0.79135 0.18098 0.26167
 C202 C 0.78729 0.16153 0.27856
 C203 C 0.80674 0.16118 0.29828
 C204 C 0.82233 0.18144 0.29188
 H205 H 0.77128 0.14864 0.27659
 H206 H 0.83951 0.18757 0.30267
 H207 H 0.78646 0.22620 0.23685
 H208 H 0.80884 0.20168 0.22193
 C209 C 0.16411 -0.01231 0.51430
 C210 C 0.16638 0.01430 0.51388
 C211 C 0.16777 0.02751 0.48974
 C212 C 0.16715 0.01489 0.46601
 C213 C 0.16522 -0.01175 0.46640
 C214 C 0.16324 -0.02493 0.49052
 H215 H 0.16230 -0.04540 0.49086
 H216 H 0.16897 0.04796 0.48940
 C217 C 0.81768 0.00641 0.53529
 C218 C 0.81740 -0.02036 0.53558
 C219 C 0.81724 -0.03275 0.51165
 C220 C 0.81697 -0.01923 0.48751
 C221 C 0.81710 0.00756 0.48735
 C222 C 0.81787 0.01993 0.51124
 H223 H 0.81753 0.04047 0.51109
 H224 H 0.81780 -0.05327 0.51184
 C225 C 0.48475 0.19172 0.01286
 C226 C 0.48346 0.18936 -0.01463
 C227 C 0.50708 0.18869 -0.02865
 C228 C 0.53189 0.19122 -0.01607
 C229 C 0.53317 0.19424 0.01139
 C230 C 0.50952 0.19433 0.02546
 H231 H 0.51043 0.19588 0.04658
 H232 H 0.50605 0.18719 -0.04977
 C233 C 0.47213 0.79541 0.01804
 C234 C 0.47258 0.79354 -0.00954
 C235 C 0.49714 0.79217 -0.02201
 C236 C 0.52127 0.79311 -0.00779
 C237 C 0.52079 0.79558 0.01971
 C238 C 0.49625 0.79683 0.03221
 H239 H 0.49600 0.79793 0.05337
 H240 H 0.49749 0.79099 -0.04316
 C241 C 0.00780 0.48119 0.18936
 C242 C -0.02022 0.48297 0.19134
 C243 C -0.03287 0.50679 0.19419
 C244 C -0.01834 0.52892 0.19507
 C245 C 0.00958 0.52712 0.19234
 C246 C 0.02227 0.50335 0.18929
 H247 H 0.04378 0.50199 0.18814
 H248 H -0.05435 0.50814 0.19560
 C249 C 0.01602 0.51950 0.79921
 C250 C -0.01210 0.51951 0.80040
 C251 C -0.02487 0.49648 0.79839
 C252 C -0.01050 0.47356 0.79518
 C253 C 0.01759 0.47359 0.79405
 C254 C 0.03046 0.49651 0.79641
 H255 H 0.05195 0.49658 0.79513
 H256 H -0.04633 0.49629 0.79988
 C257 C 0.31010 0.22717 0.11079
 C258 C 0.33340 0.22762 0.09645
 C259 C 0.35168 0.20687 0.09764
 C260 C 0.34643 0.18576 0.11390
 C261 C 0.32318 0.18536 0.12832
 C262 C 0.30472 0.20604 0.12692
 C263 C 0.37631 0.20831 0.08243
 C264 C 0.38997 0.18780 0.07441
 C265 C 0.41440 0.18932 0.05892
 C266 C 0.42115 0.16938 0.04252
 C267 C 0.44404 0.17011 0.02761
 C268 C 0.46069 0.19074 0.02897
 C269 C 0.45439 0.21040 0.04584
 C270 C 0.43144 0.20974 0.06070
 H271 H 0.29656 0.24358 0.10946
 H272 H 0.33712 0.24421 0.08430
 H273 H 0.36042 0.16972 0.11597
 H274 H 0.31973 0.16876 0.14051
 H275 H 0.38252 0.22699 0.07656
 H276 H 0.38230 0.16919 0.07799
 H277 H 0.40854 0.15330 0.04107
 H278 H 0.44881 0.15455 0.01501
 H279 H 0.46714 0.22638 0.04732
 H280 H 0.42738 0.22503 0.07379
 C281 C 0.67619 0.82833 0.15128
 C282 C 0.65320 0.82923 0.13528
 C283 C 0.64637 0.80831 0.12069
 C284 C 0.66283 0.78620 0.12278
 C285 C 0.68576 0.78523 0.13879
 C286 C 0.69289 0.80627 0.15337
 C287 C 0.62147 0.80990 0.10447
 C288 C 0.61744 0.79565 0.08353
 C289 C 0.59238 0.79635 0.06751
 C290 C 0.58782 0.77614 0.05097
 C291 C 0.56456 0.77578 0.03552
 C292 C 0.54550 0.79582 0.03606
 C293 C 0.54994 0.81610 0.05245
 C294 C 0.57321 0.81650 0.06791
 H295 H 0.68054 0.84502 0.16203
 H296 H 0.64073 0.84642 0.13422
 H297 H 0.65782 0.76933 0.11261
 H298 H 0.69761 0.76773 0.13971
 H299 H 0.60622 0.82345 0.11018
 H300 H 0.63305 0.78242 0.07785
 H301 H 0.60222 0.76042 0.05017
 H302 H 0.56138 0.75982 0.02319
 H303 H 0.53551 0.83182 0.05298
 H304 H 0.57611 0.83283 0.07969
 C305 C 0.69127 0.23690 -0.13149
 C306 C 0.67098 0.23563 -0.11334
 C307 C 0.65513 0.21443 -0.11171
 C308 C 0.65974 0.19457 -0.12897
 C309 C 0.68001 0.19585 -0.14715
 C310 C 0.69603 0.21703 -0.14867
 C311 C 0.63335 0.21433 -0.09267
 C312 C 0.62258 0.19312 -0.08340
 C313 C 0.59993 0.19312 -0.06537
 C314 C 0.58365 0.17214 -0.06493
 C315 C 0.56166 0.17152 -0.04879
 C316 C 0.55575 0.19172 -0.03247
 C317 C 0.57221 0.21255 -0.03247
 C318 C 0.59422 0.21321 -0.04864
 H319 H 0.70317 0.25349 -0.13192
 H320 H 0.66773 0.25127 -0.10044
 H321 H 0.64738 0.17829 -0.12906
 H322 H 0.68274 0.18035 -0.16027
 H323 H 0.62605 0.23256 -0.08624
 H324 H 0.62991 0.17489 -0.08980
 H325 H 0.58772 0.15635 -0.07744
 H326 H 0.54922 0.15525 -0.04900
 H327 H 0.56790 0.22837 -0.02006
 H328 H 0.60672 0.22935 -0.04774
 C329 C 0.30637 0.75921 -0.12595
 C330 C 0.32836 0.75846 -0.10868
 C331 C 0.34329 0.78001 -0.10521
 C332 C 0.33592 0.80239 -0.11969
 C333 C 0.31396 0.80313 -0.13705
 C334 C 0.29893 0.78154 -0.14042
 C335 C 0.36701 0.77799 -0.08737
 C336 C 0.37758 0.79792 -0.07596
 C337 C 0.40163 0.79579 -0.05854
 C338 C 0.40576 0.81469 -0.04035
 C339 C 0.42861 0.81381 -0.02418
 C340 C 0.44785 0.79403 -0.02599
 C341 C 0.44392 0.77522 -0.04430
 C342 C 0.42107 0.77606 -0.06046
 H343 H 0.29555 0.74210 -0.12821
 H344 H 0.33376 0.74091 -0.09798
 H345 H 0.34735 0.81922 -0.11817
 H346 H 0.30885 0.82065 -0.14783
 H347 H 0.37532 0.75914 -0.08275
 H348 H 0.36778 0.81645 -0.07852
 H349 H 0.39129 0.83024 -0.03869
 H350 H 0.43147 0.82878 -0.01051
 H351 H 0.45863 0.75991 -0.04616
 H352 H 0.41910 0.76158 -0.07479
 C353 C 0.13316 0.32332 0.16204
 C354 C 0.11863 0.34641 0.16043
 C355 C 0.10204 0.35371 0.18077
 C356 C 0.10058 0.33752 0.20305
 C357 C 0.11514 0.31445 0.20470
 C358 C 0.13167 0.30704 0.18424
 C359 C 0.08756 0.37869 0.17850
 C360 C 0.06518 0.38410 0.19132
 C361 C 0.05094 0.40924 0.19003
 C362 C 0.03324 0.41508 0.21001
 C363 C 0.01937 0.43847 0.20985
 C364 C 0.02261 0.45640 0.18945
 C365 C 0.04020 0.45069 0.16938
 C366 C 0.05413 0.42727 0.16952
 H367 H 0.14555 0.31837 0.14582
 H368 H 0.12028 0.35860 0.14314
 H369 H 0.08880 0.34280 0.21960
 H370 H 0.11366 0.30269 0.22226
 H371 H 0.09583 0.39285 0.16568
 H372 H 0.05694 0.36970 0.20390
 H373 H 0.03032 0.40158 0.22598
 H374 H 0.00615 0.44263 0.22571
 H375 H 0.04283 0.46426 0.15340
 H376 H 0.06693 0.42335 0.15332
 C377 C 0.10819 0.68954 0.76333
 C378 C 0.09210 0.66855 0.76362
 C379 C 0.09635 0.64886 0.78245
 C380 C 0.11736 0.65046 0.80091
 C381 C 0.13345 0.67141 0.80068
 C382 C 0.12924 0.69132 0.78183
 C383 C 0.07929 0.62660 0.78143
 C384 C 0.07601 0.61060 0.80192
 C385 C 0.06004 0.58765 0.80062
 C386 C 0.06570 0.56774 0.81899
 C387 C 0.05142 0.54563 0.81846
 C388 C 0.03090 0.54314 0.79977
 C389 C 0.02496 0.56307 0.78151
 C390 C 0.03927 0.58521 0.78199
 H391 H 0.10397 0.70418 0.74840
 H392 H 0.07620 0.66773 0.74903
 H393 H 0.12202 0.63535 0.81523
 H394 H 0.14937 0.67156 0.81524
 H395 H 0.06927 0.62344 0.76292
 H396 H 0.08597 0.61380 0.82045
 H397 H 0.08144 0.56919 0.83365
 H398 H 0.05624 0.53049 0.83277
 H399 H 0.00923 0.56147 0.76688
 H400 H 0.03371 0.60037 0.76800
 C401 C -0.10064 0.71031 0.21737
 C402 C -0.08322 0.68937 0.21436
 C403 C -0.09262 0.66681 0.20471
 C404 C -0.11953 0.66576 0.19708
 C405 C -0.13685 0.68679 0.19952
 C406 C -0.12781 0.70935 0.21005
 C407 C -0.07409 0.64468 0.20228
 C408 C -0.08148 0.62109 0.20785
 C409 C -0.06366 0.59848 0.20528
 C410 C -0.06659 0.57751 0.22230
 C411 C -0.05123 0.55526 0.21941
 C412 C -0.03298 0.55337 0.19910
 C413 C -0.03019 0.57431 0.18190
 C414 C -0.04519 0.59678 0.18511
 H415 H -0.09253 0.72724 0.22515
 H416 H -0.06245 0.69065 0.22007
 H417 H -0.12716 0.64873 0.18897
 H418 H -0.15742 0.68492 0.19357
 H419 H -0.05371 0.64801 0.19717
 H420 H -0.10104 0.61823 0.21563
 H421 H -0.08089 0.57834 0.23782
 H422 H -0.05384 0.53933 0.23285
 H423 H -0.01709 0.57305 0.16547
 H424 H -0.04312 0.61240 0.17118
 C425 C -0.15323 0.33926 0.78943
 C426 C -0.13780 0.36059 0.79078
 C427 C -0.11148 0.35973 0.78248
 C428 C -0.10089 0.33725 0.77226
 C429 C -0.11644 0.31599 0.77044
 C430 C -0.14289 0.31660 0.77907
 C431 C -0.09602 0.38287 0.78366
 C432 C -0.06969 0.38234 0.78832
 C433 C -0.05469 0.40576 0.78986
 C434 C -0.03303 0.40659 0.80756
 C435 C -0.01880 0.42867 0.80961
 C436 C -0.02550 0.45002 0.79337
 C437 C -0.04696 0.44904 0.77540
 C438 C -0.06144 0.42714 0.77365
 H439 H -0.17344 0.34096 0.79608
 H440 H -0.14644 0.37783 0.79849
 H441 H -0.08079 0.33622 0.76514
 H442 H -0.10745 0.29912 0.76240
 H443 H -0.10698 0.40093 0.78211
 H444 H -0.05907 0.36443 0.79269
 H445 H -0.02745 0.39029 0.82017
 H446 H -0.00262 0.42911 0.82393
 H447 H -0.05235 0.46520 0.76253
 H448 H -0.07763 0.42683 0.75933
 C449 C 0.21707 0.11810 0.29941
 C450 C 0.21563 0.10207 0.32155
 C451 C 0.19206 0.10090 0.33558
 C452 C 0.16989 0.11632 0.32711
 C453 C 0.17135 0.13245 0.30501
 C454 C 0.19499 0.13360 0.29094
 C455 C 0.19190 0.08448 0.35963
 C456 C 0.16971 0.07548 0.36986
 C457 C 0.16983 0.05971 0.39438
 C458 C 0.14903 0.04319 0.39851
 C459 C 0.14820 0.02847 0.42168
 C460 C 0.16810 0.03014 0.44121
 C461 C 0.18868 0.04692 0.43732
 C462 C 0.18956 0.06159 0.41416
 H463 H 0.23571 0.11866 0.28932
 H464 H 0.23308 0.09060 0.32781
 H465 H 0.15159 0.11653 0.33781
 H466 H 0.15394 0.14407 0.29906
 H467 H 0.21104 0.07894 0.36863
 H468 H 0.15081 0.07886 0.35952
 H469 H 0.13342 0.04164 0.38375
 H470 H 0.13190 0.01595 0.42449
 H471 H 0.20410 0.04864 0.45225
 H472 H 0.20539 0.07474 0.41213
 C473 C 0.83640 0.13786 0.68058
 C474 C 0.83958 0.12116 0.66013
 C475 C 0.82019 0.10360 0.65461
 C476 C 0.79745 0.10303 0.67010
 C477 C 0.79423 0.11977 0.69054
 C478 C 0.81354 0.13758 0.69588
 C479 C 0.82373 0.08744 0.63164
 C480 C 0.81162 0.06550 0.62855
 C481 C 0.81416 0.05014 0.60483
 C482 C 0.79446 0.03281 0.59933
 C483 C 0.79559 0.01847 0.57683
 C484 C 0.81665 0.02101 0.55954
 C485 C 0.83661 0.03796 0.56514
 C486 C 0.83555 0.05225 0.58766
 H487 H 0.85185 0.15108 0.68415
 H488 H 0.85724 0.12208 0.64845
 H489 H 0.78161 0.09035 0.66605
 H490 H 0.77622 0.11909 0.70164
 H491 H 0.83676 0.09433 0.61671
 H492 H 0.79862 0.05867 0.64355
 H493 H 0.77788 0.03067 0.61227
 H494 H 0.77991 0.00558 0.57275
 H495 H 0.85315 0.03996 0.55214
 H496 H 0.85170 0.06460 0.59153
 C497 C 0.21219 -0.11906 0.68425
 C498 C 0.21035 -0.10173 0.66297
 C499 C 0.18808 -0.10074 0.64585
 C500 C 0.16765 -0.11767 0.65041
 C501 C 0.16949 -0.13500 0.67168
 C502 C 0.19184 -0.13603 0.68881
 C503 C 0.18769 -0.08276 0.62289
 C504 C 0.16552 -0.07519 0.60919
 C505 C 0.16555 -0.05835 0.58539
 C506 C 0.14439 -0.05936 0.56708
 C507 C 0.14387 -0.04432 0.54406
 C508 C 0.16431 -0.02765 0.53911
 C509 C 0.18531 -0.02628 0.55754
 C510 C 0.18588 -0.04133 0.58055
 H511 H 0.22983 -0.11932 0.69679
 H512 H 0.22651 -0.08909 0.65981
 H513 H 0.15048 -0.11819 0.63735
 H514 H 0.15337 -0.14769 0.67448
 H515 H 0.20668 -0.07580 0.61707
 H516 H 0.14650 -0.08214 0.61489
 H517 H 0.12840 -0.07215 0.57039
 H518 H 0.12748 -0.04565 0.53010
 H519 H 0.20141 -0.01367 0.55399
 H520 H 0.20212 -0.03935 0.59448
 C521 C 0.80679 -0.09277 0.30224
 C522 C 0.80895 -0.07694 0.32357
 C523 C 0.82092 -0.08611 0.34725
 C524 C 0.83184 -0.11099 0.34890
 C525 C 0.83018 -0.12663 0.32745
 C526 C 0.81727 -0.11780 0.30404
 C527 C 0.82174 -0.06960 0.37004
 C528 C 0.81739 -0.07857 0.39431
 C529 C 0.81709 -0.06246 0.41740
 C530 C 0.79949 -0.06779 0.43753
 C531 C 0.79918 -0.05342 0.45999
 C532 C 0.81691 -0.03377 0.46304
 C533 C 0.83496 -0.02879 0.44309
 C534 C 0.83484 -0.04280 0.42031
 H535 H 0.79695 -0.08544 0.28434
 H536 H 0.80062 -0.05773 0.32184
 H537 H 0.84169 -0.11836 0.36679
 H538 H 0.83836 -0.14585 0.32946
 H539 H 0.82403 -0.04949 0.36654
 H540 H 0.81222 -0.09816 0.39720
 H541 H 0.78579 -0.08300 0.43575
 H542 H 0.78507 -0.05768 0.47505
 H543 H 0.84939 -0.01428 0.44527
 H544 H 0.84913 -0.03876 0.40537
 C545 C 0.68977 0.82345 -0.11647
 C546 C 0.66736 0.82500 -0.10084
 C547 C 0.65857 0.80348 -0.08736
 C548 C 0.67328 0.78043 -0.08917
 C549 C 0.69571 0.77887 -0.10480
 C550 C 0.70413 0.80030 -0.11886
 C551 C 0.63438 0.80600 -0.07138
 C552 C 0.61914 0.78650 -0.06519
 C553 C 0.59426 0.78901 -0.05025
 C554 C 0.57556 0.77009 -0.05237
 C555 C 0.55187 0.77155 -0.03868
 C556 C 0.54648 0.79183 -0.02230
 C557 C 0.56514 0.81076 -0.01999
 C558 C 0.58890 0.80931 -0.03366
 H559 H 0.69571 0.84048 -0.12664
 H560 H 0.65663 0.84307 -0.09954
 H561 H 0.66779 0.76358 -0.07837
 H562 H 0.70627 0.76074 -0.10588
 H563 H 0.62817 0.82493 -0.06604
 H564 H 0.62408 0.76800 -0.07263
 H565 H 0.57924 0.75416 -0.06480
 H566 H 0.53780 0.75668 -0.04065
 H567 H 0.56133 0.82666 -0.00756
 H568 H 0.60306 0.82391 -0.03083
 C569 C 0.32548 0.16406 -0.14499
 C570 C 0.34865 0.16234 -0.12930
 C571 C 0.35419 0.18117 -0.11145
 C572 C 0.33608 0.20200 -0.10978
 C573 C 0.31290 0.20374 -0.12549
 C574 C 0.30734 0.18485 -0.14338
 C575 C 0.37955 0.17896 -0.09596
 C576 C 0.38353 0.19062 -0.07331
 C577 C 0.40924 0.18941 -0.05839
 C578 C 0.41433 0.20866 -0.04085
 C579 C 0.43839 0.20864 -0.02665
 C580 C 0.45773 0.18911 -0.02939
 C581 C 0.45265 0.16966 -0.04666
 C582 C 0.42858 0.16967 -0.06093
 H583 H 0.32191 0.14904 -0.15836
 H584 H 0.36233 0.14618 -0.13112
 H585 H 0.33997 0.21740 -0.09698
 H586 H 0.29968 0.22021 -0.12389
 H587 H 0.39538 0.16727 -0.10380
 H588 H 0.36761 0.20222 -0.06548
 H589 H 0.39978 0.22402 -0.03843
 H590 H 0.44203 0.22402 -0.01368
 H591 H 0.46725 0.15432 -0.04888
 H592 H 0.42518 0.15402 -0.07354
 C593 C 0.32190 0.81007 0.15337
 C594 C 0.34395 0.81236 0.13747
 C595 C 0.34881 0.79529 0.11748
 C596 C 0.33122 0.77552 0.11401
 C597 C 0.30915 0.77319 0.12997
 C598 C 0.30418 0.79046 0.14984
 C599 C 0.37289 0.79833 0.10157
 C600 C 0.37613 0.78844 0.07791
 C601 C 0.40060 0.79114 0.06251
 C602 C 0.40668 0.77300 0.04384
 C603 C 0.42978 0.77446 0.02928
 C604 C 0.44707 0.79437 0.03277
 C605 C 0.44082 0.81280 0.05107
 C606 C 0.41775 0.81132 0.06571
 H607 H 0.31901 0.82358 0.16860
 H608 H 0.35729 0.82761 0.14079
 H609 H 0.33458 0.76145 0.09942
 H610 H 0.29604 0.75782 0.12664
 H611 H 0.38847 0.80933 0.10993
 H612 H 0.36069 0.77731 0.06951
 H613 H 0.39377 0.75736 0.04086
 H614 H 0.43436 0.75983 0.01552
 H615 H 0.45377 0.82843 0.05392
 H616 H 0.41337 0.82620 0.07919
 C617 C 0.67601 0.20555 0.15670
 C618 C 0.65348 0.20523 0.14023
 C619 C 0.65530 0.21060 0.11330
 C620 C 0.67999 0.21700 0.10315
 C621 C 0.70247 0.21781 0.11974
 C622 C 0.70072 0.21188 0.14664
 C623 C 0.63093 0.21018 0.09659
 C624 C 0.63103 0.20295 0.07168
 C625 C 0.60618 0.20136 0.05584
 C626 C 0.60395 0.18204 0.03780
 C627 C 0.58027 0.17959 0.02333
 C628 C 0.55869 0.19691 0.02612
 C629 C 0.56120 0.21660 0.04373
 C630 C 0.58467 0.21881 0.05847
 H631 H 0.67397 0.20123 0.17739
 H632 H 0.63460 0.20051 0.14851
 H633 H 0.68186 0.22181 0.08254
 H634 H 0.72128 0.22276 0.11148
 H635 H 0.61210 0.21425 0.10576
 H636 H 0.64947 0.19623 0.06329
 H637 H 0.62030 0.16844 0.03541
 H638 H 0.57871 0.16399 0.01022
 H639 H 0.54493 0.23032 0.04604
 H640 H 0.58606 0.23432 0.07172
 C641 C -0.09546 0.69943 0.81140
 C642 C -0.07866 0.67773 0.81241
 C643 C -0.08773 0.65461 0.82199
 C644 C -0.11351 0.65376 0.83185
 C645 C -0.13018 0.67558 0.83145
 C646 C -0.12165 0.69869 0.82065
 C647 C -0.07002 0.63168 0.82128
 C648 C -0.07915 0.60922 0.81475
 C649 C -0.06142 0.58666 0.81138
 C650 C -0.06782 0.56968 0.79189
 C651 C -0.05153 0.54818 0.78811
 C652 C -0.02877 0.54293 0.80414
 C653 C -0.02274 0.55962 0.82415
 C654 C -0.03873 0.58145 0.82755
 H655 H -0.08764 0.71674 0.80347
 H656 H -0.05872 0.67885 0.80499
 H657 H -0.12079 0.63622 0.83991
 H658 H -0.14999 0.67392 0.83891
 H659 H -0.04878 0.63389 0.82369
 H660 H -0.10004 0.60778 0.80953
 H661 H -0.08528 0.57326 0.77930
 H662 H -0.05668 0.53562 0.77259
 H663 H -0.00580 0.55564 0.83731
 H664 H -0.03372 0.59390 0.84320
 C665 C -0.11959 0.32027 0.23581
 C666 C -0.10577 0.34267 0.23460
 C667 C -0.10527 0.35728 0.21124
 C668 C -0.11928 0.34914 0.18906
 C669 C -0.13316 0.32671 0.19027
 C670 C -0.13349 0.31197 0.21367
 C671 C -0.09073 0.38118 0.21126
 C672 C -0.08199 0.39284 0.18957
 C673 C -0.06686 0.41637 0.19021
 C674 C -0.04962 0.42176 0.16972
 C675 C -0.03466 0.44350 0.16989
 C676 C -0.03674 0.46032 0.19054
 C677 C -0.05459 0.45542 0.21060
 C678 C -0.06956 0.43371 0.21045
 H679 H -0.11954 0.30971 0.25428
 H680 H -0.09539 0.34859 0.25205
 H681 H -0.12006 0.36020 0.17086
 H682 H -0.14364 0.32102 0.17282
 H683 H -0.08590 0.38864 0.23021
 H684 H -0.08450 0.38422 0.17079
 H685 H -0.04746 0.40894 0.15371
 H686 H -0.02137 0.44716 0.15395
 H687 H -0.05668 0.46828 0.22659
 H688 H -0.08336 0.43076 0.22607
 C689 C 0.15028 0.31822 0.80490
 C690 C 0.13661 0.34165 0.80597
 C691 C 0.11589 0.34846 0.78795
 C692 C 0.10948 0.33139 0.76836
 C693 C 0.12320 0.30791 0.76727
 C694 C 0.14371 0.30097 0.78560
 C695 C 0.10200 0.37359 0.79023
 C696 C 0.07784 0.37975 0.77962
 C697 C 0.06369 0.40454 0.78315
 C698 C 0.04358 0.41263 0.76490
 C699 C 0.02899 0.43533 0.76805
 C700 C 0.03394 0.45020 0.78979
 C701 C 0.05418 0.44235 0.80794
 C702 C 0.06882 0.41967 0.80479
 H703 H 0.16609 0.31382 0.81920
 H704 H 0.14215 0.35447 0.82113
 H705 H 0.09422 0.33607 0.75357
 H706 H 0.11758 0.29525 0.75206
 H707 H 0.11210 0.38729 0.80175
 H708 H 0.06770 0.36629 0.76785
 H709 H 0.03910 0.40131 0.74816
 H710 H 0.01360 0.44117 0.75369
 H711 H 0.05814 0.45345 0.82496
 H712 H 0.08348 0.41381 0.81980
 C713 C 0.10162 0.69810 0.19384
 C714 C 0.08478 0.67804 0.18992
 C715 C 0.09499 0.65297 0.19113
 C716 C 0.12246 0.64824 0.19536
 C717 C 0.13942 0.66834 0.19847
 C718 C 0.12908 0.69341 0.19805
 C719 C 0.07684 0.63202 0.18744
 C720 C 0.07827 0.61113 0.20297
 C721 C 0.05988 0.59028 0.19983
 C722 C 0.04996 0.57814 0.22217
 C723 C 0.03299 0.55798 0.21967
 C724 C 0.02633 0.54926 0.19482
 C725 C 0.03669 0.56096 0.17247
 C726 C 0.05305 0.58159 0.17491
 H727 H 0.09325 0.71730 0.19325
 H728 H 0.06368 0.68206 0.18648
 H729 H 0.13083 0.62903 0.19594
 H730 H 0.16052 0.66426 0.20176
 H731 H 0.06094 0.63456 0.17278
 H732 H 0.09234 0.60988 0.21942
 H733 H 0.05520 0.58441 0.24154
 H734 H 0.02537 0.54889 0.23709
 H735 H 0.03198 0.55417 0.15318
 H736 H 0.06093 0.59031 0.15742
 C737 C 0.80983 -0.10046 0.72292
 C738 C 0.81143 -0.08407 0.70100
 C739 C 0.82208 -0.09282 0.67767
 C740 C 0.83212 -0.11796 0.67690
 C741 C 0.83101 -0.13417 0.69893
 C742 C 0.81956 -0.12568 0.72206
 C743 C 0.82273 -0.07551 0.65441
 C744 C 0.81780 -0.08348 0.63020
 C745 C 0.81762 -0.06652 0.60665
 C746 C 0.79974 -0.07077 0.58594
 C747 C 0.79947 -0.05551 0.56312
 C748 C 0.81749 -0.03601 0.56031
 C749 C 0.83587 -0.03216 0.58084
 C750 C 0.83574 -0.04707 0.60394
 H751 H 0.80113 -0.09337 0.74058
 H752 H 0.80380 -0.06469 0.70206
 H753 H 0.84098 -0.12505 0.65932
 H754 H 0.83858 -0.15352 0.69762
 H755 H 0.82557 -0.05559 0.65745
 H756 H 0.81212 -0.10283 0.62762
 H757 H 0.78578 -0.08580 0.58754
 H758 H 0.78512 -0.05892 0.54761
 H759 H 0.85054 -0.01781 0.57888
 H760 H 0.85027 -0.04386 0.61933
 C761 C 0.15305 -0.13952 0.31569
 C762 C 0.14873 -0.12391 0.33690
 C763 C 0.16808 -0.10719 0.34490
 C764 C 0.19207 -0.10656 0.33131
 C765 C 0.19642 -0.12219 0.31013
 C766 C 0.17704 -0.13899 0.30211
 C767 C 0.16311 -0.09180 0.36824
 C768 C 0.17529 -0.07017 0.37285
 C769 C 0.17169 -0.05533 0.39681
 C770 C 0.19113 -0.03808 0.40335
 C771 C 0.18901 -0.02394 0.42589
 C772 C 0.16716 -0.02646 0.44221
 C773 C 0.14753 -0.04348 0.43569
 C774 C 0.14964 -0.05769 0.41312
 H775 H 0.13755 -0.15206 0.31015
 H776 H 0.13015 -0.12492 0.34713
 H777 H 0.20793 -0.09463 0.33734
 H778 H 0.21527 -0.12135 0.30048
 H779 H 0.14893 -0.09888 0.38198
 H780 H 0.18923 -0.06312 0.35883
 H781 H 0.20827 -0.03581 0.39116
 H782 H 0.20458 -0.01116 0.43073
 H783 H 0.13044 -0.04558 0.44797
 H784 H 0.13377 -0.07014 0.40851
 C785 C 0.83119 0.14522 0.33944
 C786 C 0.83384 0.12879 0.36139
 C787 C 0.81544 0.10993 0.36579
 C788 C 0.79400 0.10808 0.34784
 C789 C 0.79132 0.12455 0.32590
 C790 C 0.80985 0.14338 0.32139
 C791 C 0.81881 0.09343 0.38978
 C792 C 0.80809 0.07067 0.39263
 C793 C 0.81117 0.05455 0.41692
 C794 C 0.79221 0.03630 0.42195
 C795 C 0.79410 0.02096 0.44477
 C796 C 0.81525 0.02333 0.46281
 C797 C 0.83445 0.04127 0.45770
 C798 C 0.83258 0.05662 0.43491
 H799 H 0.84591 0.15938 0.33681
 H800 H 0.85043 0.13078 0.37499
 H801 H 0.77885 0.09441 0.35088
 H802 H 0.77446 0.12258 0.31271
 H803 H 0.83078 0.10056 0.40558
 H804 H 0.79604 0.06353 0.37690
 H805 H 0.77564 0.03417 0.40836
 H806 H 0.77895 0.00738 0.44846
 H807 H 0.85106 0.04320 0.47128
 H808 H 0.84817 0.06973 0.43140
 C809 C 0.21738 0.11116 0.67971
 C810 C 0.21533 0.09581 0.65807
 C811 C 0.19194 0.09631 0.64255
 C812 C 0.17057 0.11274 0.64902
 C813 C 0.17268 0.12824 0.67064
 C814 C 0.19613 0.12766 0.68621
 C815 C 0.19128 0.08054 0.61908
 C816 C 0.16882 0.07294 0.60763
 C817 C 0.16879 0.05768 0.58376
 C818 C 0.14757 0.04182 0.57895
 C819 C 0.14680 0.02750 0.55639
 C820 C 0.16718 0.02896 0.53815
 C821 C 0.18815 0.04512 0.54270
 C822 C 0.18898 0.05936 0.56523
 H823 H 0.23589 0.11039 0.69097
 H824 H 0.23218 0.08354 0.65335
 H825 H 0.15247 0.11420 0.63713
 H826 H 0.15592 0.14069 0.67507
 H827 H 0.21029 0.07420 0.61161
 H828 H 0.14986 0.07704 0.61649
 H829 H 0.13160 0.04046 0.59273
 H830 H 0.13020 0.01547 0.55302
 H831 H 0.20393 0.04670 0.52874
 H832 H 0.20515 0.07203 0.56775
   
