data_POSCAR
  _audit_creation_date              2014-09-24
  _audit_creation_method            'ToBaCCo'
  _symmetry_space_group_name_H-M    'P1'
  _symmetry_Int_Tables_number       1
  _symmetry_cell_setting            triclinic
  loop_
  _symmetry_equiv_pos_as_xyz
 x,y,z
_cell_length_a 36.8408
_cell_length_b 21.1510
_cell_length_c 14.7287
_cell_angle_alpha 89.483500
_cell_angle_beta 89.795100
_cell_angle_gamma 89.532500
loop_
  _atom_site_label
  _atom_site_type_symbol
  _atom_site_fract_x
  _atom_site_fract_y
  _atom_site_fract_z
O1 O 0.71763 0.29985 0.58440
 O2 O 0.78617 0.26364 0.40962
 O3 O 0.71942 0.30361 0.41008
 O4 O 0.78667 0.26489 0.58610
 O5 O 0.77051 0.16453 0.58102
 O6 O 0.69999 0.20505 0.41368
 O7 O 0.76708 0.16559 0.40625
 O8 O 0.70202 0.19953 0.58887
 Cu9 Cu 0.75440 0.29296 0.49833
 Cu10 Cu 0.73316 0.17367 0.49790
 C11 C 0.69710 0.25614 0.61380
 C12 C 0.78826 0.20835 0.37690
 C13 C 0.69781 0.26135 0.38318
 C14 C 0.79088 0.20772 0.61081
 O15 O 0.27761 0.68880 0.59252
 O16 O 0.20860 0.73157 0.42201
 O17 O 0.27452 0.68367 0.41713
 O18 O 0.21182 0.73521 0.59758
 O19 O 0.23415 0.83157 0.58707
 O20 O 0.29614 0.78000 0.40487
 O21 O 0.23095 0.82779 0.41210
 O22 O 0.30028 0.78419 0.58163
 Cu23 Cu 0.24097 0.70016 0.50814
 Cu24 Cu 0.26777 0.81544 0.49583
 C25 C 0.30110 0.72906 0.61647
 C26 C 0.20772 0.78713 0.38845
 C27 C 0.29597 0.72271 0.37958
 C28 C 0.21199 0.79256 0.62216
 O29 O 0.20110 0.27255 -0.40544
 O30 O 0.26064 0.32909 -0.58873
 O31 O 0.19790 0.27231 -0.58346
 O32 O 0.26440 0.32662 -0.41418
 O33 O 0.29105 0.23293 -0.41968
 O34 O 0.22461 0.17931 -0.58570
 O35 O 0.28708 0.23506 -0.59460
 O36 O 0.22755 0.17943 -0.41013
 Cu37 Cu 0.22803 0.30939 -0.49763
 Cu38 Cu 0.26016 0.19730 -0.50277
 C39 C 0.20409 0.21623 -0.37533
 C40 C 0.28435 0.29200 -0.62190
 C41 C 0.20001 0.21637 -0.61461
 C42 C 0.28940 0.28870 -0.38879
 O43 O -0.26528 0.65964 -0.57720
 O44 O -0.20040 0.72722 -0.41570
 O45 O -0.26278 0.66556 -0.40201
 O46 O -0.20416 0.71874 -0.59019
 O47 O -0.23297 0.81005 -0.59205
 O48 O -0.29233 0.75583 -0.40549
 O49 O -0.23160 0.81610 -0.41653
 O50 O -0.29568 0.74956 -0.57993
 Cu51 Cu -0.23019 0.68369 -0.49521
 Cu52 Cu -0.26607 0.79200 -0.49955
 C53 C -0.29233 0.69221 -0.60378
 C54 C -0.20420 0.78430 -0.39068
 C55 C -0.28817 0.70061 -0.37203
 C56 C -0.20808 0.77416 -0.62276
 N57 N -0.03735 1.06858 -0.16203
 N58 N -0.06483 1.07449 -0.21842
 N59 N 0.03768 1.11281 -0.09334
 N60 N 0.06644 1.14955 -0.09995
 N61 N 0.03883 1.06869 -0.15541
 N62 N 0.06838 1.07373 -0.20544
 N63 N -0.03885 1.11237 -0.09962
 N64 N -0.06753 1.14937 -0.11211
 C65 C -0.08366 1.12475 -0.18634
 C66 C 0.08532 1.12417 -0.17002
 N67 N 0.03442 1.06572 0.16396
 N68 N 0.06214 1.07113 0.21969
 N69 N -0.04153 1.11059 0.09563
 N70 N -0.06935 1.14961 0.10617
 N71 N -0.04180 1.06626 0.15850
 N72 N -0.06965 1.07415 0.21376
 N73 N 0.03472 1.11108 0.10241
 N74 N 0.06255 1.14893 0.11506
 Mn75 Mn -0.00202 1.11264 0.00124
 C76 C 0.07932 1.12325 0.18837
 C77 C -0.08646 1.12670 0.18093
 N78 N 0.03963 0.93370 -0.15654
 N79 N 0.06927 0.93027 -0.20638
 N80 N -0.03776 0.88835 -0.10094
 N81 N -0.06738 0.85407 -0.11062
 N82 N -0.03654 0.93315 -0.16310
 N83 N -0.06499 0.93049 -0.21665
 N84 N 0.03917 0.88830 -0.09545
 N85 N 0.06866 0.85256 -0.10296
 Mn86 Mn 0.00116 1.00100 -0.16018
 C87 C 0.08742 0.87944 -0.17263
 C88 C -0.08418 0.88135 -0.18306
 N89 N -0.04153 0.93039 0.15685
 N90 N -0.07085 0.92446 0.20778
 N91 N 0.03638 0.88648 0.10000
 N92 N 0.06467 0.84869 0.11246
 N93 N 0.03486 0.92943 0.16361
 N94 N 0.06180 0.92141 0.22140
 N95 N -0.04017 0.88608 0.09495
 N96 N -0.06841 0.84825 0.10289
 Mn97 Mn -0.00351 0.99790 0.16184
 Mn98 Mn -0.00058 0.88627 -0.00039
 Cl99 Cl -0.00124 0.99945 0.00076
 C100 C -0.08729 0.87312 0.17329
 C101 C 0.08014 0.87036 0.18937
 N102 N 0.54320 0.60096 -0.09274
 N103 N 0.57286 0.63524 -0.10104
 N104 N 0.46625 0.56802 -0.16201
 N105 N 0.43976 0.57945 -0.21997
 N106 N 0.46698 0.61161 -0.09908
 N107 N 0.44085 0.65377 -0.11260
 N108 N 0.54245 0.55695 -0.15504
 N109 N 0.57174 0.55957 -0.20671
 C110 C 0.59047 0.60847 -0.17201
 C111 C 0.42437 0.63352 -0.18909
 N112 N 0.45775 0.38830 -0.09921
 N113 N 0.42939 0.35226 -0.11323
 N114 N 0.53669 0.42179 -0.15572
 N115 N 0.56446 0.41038 -0.20999
 N116 N 0.53384 0.37725 -0.09352
 N117 N 0.55951 0.33395 -0.10403
 N118 N 0.46048 0.43168 -0.16299
 N119 N 0.43417 0.42540 -0.22297
 Mn120 Mn 0.50144 0.49470 -0.16013
 C121 C 0.41505 0.37506 -0.19135
 C122 C 0.57844 0.35573 -0.17655
 N123 N 0.46399 0.61031 0.09715
 N124 N 0.43659 0.65080 0.10466
 N125 N 0.53713 0.55452 0.16560
 N126 N 0.56522 0.55392 0.22055
 N127 N 0.54062 0.59877 0.10318
 N128 N 0.57155 0.62917 0.11395
 N129 N 0.46126 0.56521 0.15856
 N130 N 0.43200 0.57327 0.20890
 Mn131 Mn 0.50373 0.60644 0.00218
 C132 C 0.41695 0.62672 0.17471
 C133 C 0.58674 0.60016 0.18733
 N134 N 0.53091 0.37598 0.10115
 N135 N 0.55773 0.33489 0.11216
 N136 N 0.45544 0.43065 0.15693
 N137 N 0.42551 0.42953 0.20598
 N138 N 0.45477 0.38668 0.09493
 N139 N 0.42441 0.35415 0.10096
 N140 N 0.53152 0.41915 0.16456
 N141 N 0.55867 0.40853 0.22090
 Mn142 Mn 0.49431 0.38128 0.00085
 Mn143 Mn 0.49633 0.49242 0.16242
 Cl144 Cl 0.49896 0.49381 0.00121
 C145 C 0.57457 0.35583 0.18736
 C146 C 0.40614 0.38157 0.17040
 C147 C 0.35846 0.39312 0.28645
 C148 C 0.32912 0.37188 0.33681
 C149 C 0.31094 0.31702 0.31252
 C150 C 0.32027 0.28626 0.23065
 C151 C 0.34969 0.30903 0.17682
 C152 C 0.37060 0.36088 0.20886
 C153 C 0.35626 0.27924 0.09296
 N154 N 0.33584 0.22945 0.06741
 N155 N 0.30898 0.20749 0.11908
 C156 C 0.30040 0.23431 0.19957
 H157 H 0.37266 0.43409 0.31134
 H158 H 0.32189 0.39660 0.39855
 H159 H 0.37622 0.29567 0.04515
 H160 H 0.27761 0.21563 0.23736
 C161 C -0.11935 0.78647 0.25057
 C162 C -0.14874 0.76269 0.29913
 C163 C -0.18123 0.79764 0.30855
 C164 C -0.18474 0.85594 0.25962
 C165 C -0.15407 0.88105 0.21300
 C166 C -0.12103 0.84650 0.21094
 C167 C -0.15765 0.93969 0.16803
 N168 N -0.19006 0.97039 0.16765
 N169 N -0.21912 0.94615 0.20850
 C170 C -0.21771 0.89003 0.25369
 H171 H -0.09433 0.75919 0.24843
 H172 H -0.14512 0.71760 0.33346
 H173 H -0.13516 0.96095 0.13190
 H174 H -0.24279 0.87213 0.28100
 C175 C 0.63140 0.68213 0.22692
 C176 C 0.65999 0.70413 0.27918
 C177 C 0.67933 0.66360 0.33803
 C178 C 0.67023 0.59813 0.34075
 C179 C 0.64274 0.57525 0.28232
 C180 C 0.62154 0.61844 0.22992
 C181 C 0.63739 0.50947 0.27838
 N182 N 0.65554 0.47010 0.33557
 N183 N 0.67879 0.49198 0.39627
 C184 C 0.68654 0.55436 0.40145
 H185 H 0.61595 0.71584 0.18657
 H186 H 0.66640 0.75399 0.27529
 H187 H 0.61959 0.48866 0.22919
 H188 H 0.70475 0.56822 0.45444
 C189 C 0.11259 1.20885 0.26248
 C190 C 0.14233 1.23193 0.30933
 C191 C 0.17389 1.19481 0.32250
 C192 C 0.17635 1.13527 0.27675
 C193 C 0.14518 1.11097 0.23265
 C194 C 0.11299 1.14768 0.22797
 C195 C 0.14755 1.05122 0.19150
 N196 N 0.17941 1.01895 0.19131
 N197 N 0.20915 1.04273 0.22827
 C198 C 0.20890 1.09972 0.26967
 H199 H 0.08832 1.23793 0.25719
 H200 H 0.13958 1.27824 0.33959
 H201 H 0.12464 1.03035 0.15764
 H202 H 0.23469 1.11711 0.29225
 C203 C 0.64348 0.34495 -0.21054
 C204 C 0.67209 0.32080 -0.26186
 C205 C 0.66645 0.27270 -0.32520
 C206 C 0.63095 0.24700 -0.33451
 C207 C 0.60203 0.27133 -0.28079
 C208 C 0.60844 0.32152 -0.22044
 C209 C 0.56704 0.24641 -0.29194
 N210 N 0.56130 0.20057 -0.35370
 N211 N 0.58809 0.17844 -0.40551
 C212 C 0.62248 0.20019 -0.39863
 H213 H 0.64851 0.38347 -0.16442
 H214 H 0.69876 0.34123 -0.25388
 H215 H 0.54414 0.26311 -0.25249
 H216 H 0.64226 0.18080 -0.44467
 C217 C 0.13471 0.88988 -0.29022
 C218 C 0.16478 0.86991 -0.33926
 C219 C 0.18405 0.81567 -0.31363
 C220 C 0.17446 0.78367 -0.23212
 C221 C 0.14403 0.80488 -0.17991
 C222 C 0.12269 0.85710 -0.21230
 C223 C 0.13696 0.77329 -0.09707
 N224 N 0.15808 0.72376 -0.07036
 N225 N 0.18606 0.70368 -0.11995
 C226 C 0.19505 0.73204 -0.19960
 H227 H 0.12012 0.93086 -0.31604
 H228 H 0.17192 0.89550 -0.40080
 H229 H 0.11586 0.78777 -0.05116
 H230 H 0.21871 0.71478 -0.23555
 C231 C 0.36545 0.62221 -0.26437
 C232 C 0.33480 0.64520 -0.30858
 C233 C 0.32912 0.71049 -0.32276
 C234 C 0.35397 0.75330 -0.28161
 C235 C 0.38612 0.72935 -0.23932
 C236 C 0.39179 0.66306 -0.23113
 C237 C 0.41185 0.77298 -0.20832
 N238 N 0.40446 0.83577 -0.21166
 N239 N 0.37318 0.85801 -0.24403
 C240 C 0.34767 0.81919 -0.27831
 H241 H 0.36888 0.57144 -0.25747
 H242 H 0.31637 0.61064 -0.33603
 H243 H 0.43787 0.75833 -0.18199
 H244 H 0.32239 0.84063 -0.29918
 C245 C -0.11834 1.14223 -0.32616
 C246 C -0.14858 1.16157 -0.37516
 C247 C -0.17812 1.19000 -0.33183
 C248 C -0.17737 1.19912 -0.23690
 C249 C -0.14673 1.17818 -0.18588
 C250 C -0.11668 1.14988 -0.23173
 C251 C -0.14819 1.18450 -0.09082
 N252 N -0.17756 1.21182 -0.05097
 N253 N -0.20578 1.23264 -0.09926
 C254 C -0.20675 1.22704 -0.19082
 H255 H -0.09598 1.12066 -0.36287
 H256 H -0.14891 1.15428 -0.44794
 H257 H -0.12684 1.16729 -0.04714
 H258 H -0.23055 1.24400 -0.22671
 C259 C 0.62653 0.69463 -0.23841
 C260 C 0.65643 0.71726 -0.28598
 C261 C 0.68651 0.67798 -0.30644
 C262 C 0.68744 0.61582 -0.26649
 C263 C 0.65592 0.59224 -0.22147
 C264 C 0.62503 0.63165 -0.21027
 C265 C 0.65663 0.53017 -0.18627
 N266 N 0.68723 0.49465 -0.19278
 N267 N 0.71723 0.51715 -0.23123
 C268 C 0.71856 0.57628 -0.26730
 H269 H 0.60341 0.72580 -0.22812
 H270 H 0.65484 0.76555 -0.31092
 H271 H 0.63347 0.50997 -0.15170
 H272 H 0.74457 0.59179 -0.29181
 C273 C 0.12096 1.21162 -0.23391
 C274 C 0.15023 1.23412 -0.28400
 C275 C 0.17977 1.19442 -0.30723
 C276 C 0.18144 1.13266 -0.26647
 C277 C 0.15065 1.10925 -0.21861
 C278 C 0.11985 1.14861 -0.20582
 C279 C 0.15198 1.04738 -0.18256
 N280 N 0.18257 1.01203 -0.19105
 N281 N 0.21201 1.03457 -0.23211
 C282 C 0.21270 1.09351 -0.26902
 H283 H 0.09784 1.24261 -0.22254
 H284 H 0.14833 1.28224 -0.30947
 H285 H 0.12939 1.02729 -0.14557
 H286 H 0.23834 1.10935 -0.29570
 C287 C 0.36321 0.39051 -0.29546
 C288 C 0.33216 0.37109 -0.34054
 C289 C 0.31824 0.31040 -0.32679
 C290 C 0.33511 0.26951 -0.26254
 C291 C 0.36805 0.28764 -0.22022
 C292 C 0.38200 0.34970 -0.23600
 C293 C 0.38594 0.24176 -0.16590
 N294 N 0.37018 0.18522 -0.14855
 N295 N 0.33797 0.17059 -0.18256
 C296 C 0.31992 0.21071 -0.23883
 H297 H 0.37290 0.43798 -0.30846
 H298 H 0.31965 0.40317 -0.38919
 H299 H 0.41258 0.24850 -0.13852
 H300 H 0.29362 0.19649 -0.26327
 C301 C -0.12522 0.79526 -0.22872
 C302 C -0.15361 0.77247 -0.28104
 C303 C -0.17608 0.81352 -0.33190
 C304 C -0.17036 0.88018 -0.32555
 C305 C -0.14311 0.90303 -0.26638
 C306 C -0.11879 0.86009 -0.22323
 C307 C -0.14105 0.96866 -0.25210
 N308 N -0.16225 1.00898 -0.30063
 N309 N -0.18530 0.98818 -0.36257
 C310 C -0.18984 0.92560 -0.37744
 H311 H -0.10724 0.76169 -0.19528
 H312 H -0.15732 0.72177 -0.28371
 H313 H -0.12333 0.98833 -0.20161
 H314 H -0.20802 0.91338 -0.43119
 C315 C 0.38392 0.71398 0.24871
 C316 C 0.35453 0.73683 0.29867
 C317 C 0.32285 0.70088 0.31035
 C318 C 0.31985 0.64288 0.26244
 C319 C 0.35045 0.61866 0.21460
 C320 C 0.38289 0.65398 0.21021
 C321 C 0.34741 0.55991 0.17121
 N322 N 0.31552 0.52851 0.17344
 N323 N 0.28643 0.55211 0.21535
 C324 C 0.28737 0.60821 0.25911
 H325 H 0.40853 0.74162 0.24526
 H326 H 0.35754 0.78168 0.33264
 H327 H 0.36983 0.53921 0.13398
 H328 H 0.26231 0.62562 0.28779
 C329 C -0.14454 1.10873 0.25807
 C330 C -0.17588 1.12799 0.30254
 C331 C -0.18438 1.19249 0.31310
 C332 C -0.16238 1.23785 0.26653
 C333 C -0.12948 1.21801 0.22365
 C334 C -0.12044 1.15258 0.22059
 C335 C -0.10653 1.26491 0.18737
 N336 N -0.11732 1.32628 0.18630
 N337 N -0.14938 1.34416 0.21939
 C338 C -0.17230 1.30226 0.25881
 H339 H -0.13855 1.05856 0.25528
 H340 H -0.19226 1.09146 0.33396
 H341 H -0.08002 1.25420 0.16040
 H342 H -0.19843 1.31987 0.28052
 C343 C 0.60283 0.28467 0.29941
 C344 C 0.63288 0.26075 0.34553
 C345 C 0.66807 0.27917 0.32106
 C346 C 0.67314 0.31911 0.24425
 C347 C 0.64247 0.34287 0.19670
 C348 C 0.60721 0.32662 0.22654
 C349 C 0.64815 0.38301 0.12145
 N350 N 0.68244 0.39759 0.09534
 N351 N 0.71129 0.37463 0.13922
 C352 C 0.70785 0.33584 0.21256
 H353 H 0.57589 0.27182 0.32249
 H354 H 0.62847 0.23024 0.40386
 H355 H 0.62569 0.40279 0.08317
 H356 H 0.73225 0.31771 0.24428
 C357 C 0.13241 0.88627 0.29014
 C358 C 0.16349 0.86734 0.33628
 C359 C 0.17788 0.80639 0.32629
 C360 C 0.16138 0.76474 0.26393
 C361 C 0.12863 0.78305 0.21896
 C362 C 0.11400 0.84507 0.23231
 C363 C 0.11172 0.73758 0.16421
 N364 N 0.12780 0.68060 0.15034
 N365 N 0.15948 0.66531 0.18790
 C366 C 0.17681 0.70535 0.24401
 H367 H 0.12239 0.93387 0.30132
 H368 H 0.17568 0.90026 0.38295
 H369 H 0.08576 0.74531 0.13303
 H370 H 0.20278 0.69063 0.27091
   
