data_POSCAR
  _audit_creation_date              2014-09-24
  _audit_creation_method            'ToBaCCo'
  _symmetry_space_group_name_H-M    'P1'
  _symmetry_Int_Tables_number       1
  _symmetry_cell_setting            triclinic
  loop_
  _symmetry_equiv_pos_as_xyz
 x,y,z
_cell_length_a 38.3898
_cell_length_b 38.3891
_cell_length_c 38.4366
_cell_angle_alpha 90.102600
_cell_angle_beta 89.884300
_cell_angle_gamma 90.000500
loop_
  _atom_site_label
  _atom_site_type_symbol
  _atom_site_fract_x
  _atom_site_fract_y
  _atom_site_fract_z
C1 C 0.32750 0.37422 1.37088
 C2 C 0.34391 0.34448 1.38419
 C3 C 0.37344 0.33082 1.36755
 C4 C 0.38661 0.34702 1.33764
 C5 C 0.37025 0.37675 1.32431
 C6 C 0.34072 0.39038 1.34094
 H7 H 0.33345 0.33173 1.40713
 H8 H 0.40923 0.33628 1.32446
 H9 H 0.32786 0.41316 1.33032
 C10 C 1.17762 0.62910 0.87774
 C11 C 1.16089 0.65860 0.89141
 C12 C 1.13090 0.67167 0.87531
 C13 C 1.11760 0.65523 0.84562
 C14 C 1.13427 0.62580 0.83192
 C15 C 1.16424 0.61270 0.84799
 H16 H 1.17137 0.67163 0.91417
 H17 H 1.09464 0.66561 0.83292
 H18 H 1.17733 0.59013 0.83707
 C19 C 0.66922 -0.13343 0.12577
 C20 C 0.65538 -0.11679 0.15519
 C21 C 0.62564 -0.13021 0.17152
 C22 C 0.60961 -0.16027 0.15841
 C23 C 0.62339 -0.17697 0.12896
 C24 C 0.65318 -0.16350 0.11264
 H25 H 0.66795 -0.09374 0.16567
 H26 H 0.58681 -0.17083 0.17137
 H27 H 0.66412 -0.17663 0.09008
 C28 C -0.17585 1.13414 -0.37056
 C29 C -0.15896 1.16379 -0.38346
 C30 C -0.12923 1.17672 -0.36669
 C31 C -0.11639 1.15987 -0.33703
 C32 C -0.13328 1.13021 -0.32413
 C33 C -0.16298 1.11735 -0.34092
 H34 H -0.16920 1.17695 -0.40622
 H35 H -0.09360 1.16998 -0.32376
 H36 H -0.17627 1.09461 -0.33072
 C37 C 0.67285 0.63467 0.62269
 C38 C 0.65574 0.66421 0.60989
 C39 C 0.62572 0.67669 0.62661
 C40 C 0.61281 0.65954 0.65609
 C41 C 0.62991 0.63000 0.66890
 C42 C 0.65988 0.61757 0.65216
 H43 H 0.66600 0.67771 0.58733
 H44 H 0.58984 0.66943 0.66928
 H45 H 0.67335 0.59494 0.66233
 C46 C 0.83127 0.36935 0.12952
 C47 C 0.84409 0.38634 0.15913
 C48 C 0.87349 0.37331 0.17628
 C49 C 0.89014 0.34328 0.16376
 C50 C 0.87735 0.32624 0.13412
 C51 C 0.84792 0.33935 0.11701
 H52 H 0.83096 0.40932 0.16906
 H53 H 0.91265 0.33300 0.17734
 H54 H 0.83768 0.32603 0.09430
 C55 C 0.32203 0.12679 0.87428
 C56 C 0.33934 0.15623 0.88727
 C57 C 0.36899 0.16899 0.87022
 C58 C 0.38139 0.15228 0.84024
 C59 C 0.36416 0.12288 0.82718
 C60 C 0.33450 0.11011 0.84422
 H61 H 0.32955 0.16946 0.91026
 H62 H 0.40410 0.16242 0.82682
 H63 H 0.32096 0.08758 0.83383
 C64 C 0.17160 0.87220 0.37539
 C65 C 0.15845 0.88892 0.34577
 C66 C 0.12876 0.87583 0.32912
 C67 C 0.11214 0.84606 0.34212
 C68 C 0.12521 0.82933 0.37170
 C69 C 0.15492 0.84243 0.38836
 H70 H 0.17151 0.91172 0.33539
 H71 H 0.08941 0.83567 0.32898
 H72 H 0.16524 0.82917 0.41101
 Zn73 Zn -0.01158 0.95621 0.02264
 Zn74 Zn -0.04619 1.01946 -0.00545
 Zn75 Zn 0.02376 1.02555 0.02858
 Zn76 Zn 0.01645 0.99051 -0.04076
 O77 O -0.00433 0.99801 0.00131
 O78 O -0.05661 0.94750 0.03098
 O79 O -0.04865 1.06063 0.01602
 O80 O 0.03615 1.00450 0.06855
 O81 O -0.08237 0.99459 0.01038
 O82 O 0.00953 0.95363 0.06380
 O83 O 0.00293 1.06571 0.04106
 O84 O 0.05763 1.01162 -0.04405
 O85 O -0.05504 1.02812 -0.05032
 O86 O 0.06372 1.03755 0.00700
 O87 O -0.00866 1.00636 -0.07663
 O88 O 0.02500 0.94547 -0.04928
 O89 O 0.00451 0.91999 -0.00199
 C90 C -0.08397 0.96506 0.02512
 C91 C -0.02722 1.07768 0.03450
 C92 C 0.02868 0.97462 0.08066
 C93 C 0.07515 1.03034 -0.02323
 C94 C -0.03784 1.02185 -0.07786
 C95 C 0.01945 0.91824 -0.03142
 Zn96 Zn 0.47702 0.01172 0.45563
 Zn97 Zn 0.47082 -0.02371 0.52477
 Zn98 Zn 0.54035 -0.01630 0.48999
 Zn99 Zn 0.50498 0.04627 0.51902
 O100 O 0.49823 0.00444 0.49742
 O101 O 0.43580 -0.00944 0.45287
 O102 O 0.49234 -0.06366 0.53669
 O103 O 0.54900 -0.02480 0.44500
 O104 O 0.43085 -0.03610 0.50360
 O105 O 0.50178 -0.00429 0.41947
 O106 O 0.54355 -0.05749 0.51098
 O107 O 0.54989 0.05519 0.52776
 O108 O 0.45823 -0.00296 0.56492
 O109 O 0.57624 0.00885 0.50595
 O110 O 0.48340 0.04864 0.56011
 O111 O 0.48918 0.08245 0.49427
 O112 O 0.46871 0.05675 0.44707
 C113 C 0.41883 -0.02862 0.47374
 C114 C 0.52263 -0.07505 0.52957
 C115 C 0.53123 -0.01922 0.41777
 C116 C 0.57746 0.03803 0.52148
 C117 C 0.46481 0.02716 0.57701
 C118 C 0.47452 0.08409 0.46475
 Zn119 Zn 1.04458 0.52191 0.51133
 Zn120 Zn 0.98113 0.49392 0.54589
 Zn121 Zn 0.97535 0.52795 0.47602
 Zn122 Zn 1.01010 0.45846 0.48337
 O123 O 1.00272 0.50062 0.50410
 O124 O 1.05321 0.53027 0.55630
 O125 O 0.94002 0.51548 0.54832
 O126 O 0.99655 0.56793 0.46364
 O127 O 1.00597 0.50976 0.58202
 O128 O 1.04736 0.56312 0.49021
 O129 O 0.93518 0.54051 0.49677
 O130 O 0.98908 0.45518 0.44222
 O131 O 0.97232 0.44903 0.55479
 O132 O 0.96339 0.50636 0.43612
 O133 O 0.99408 0.42260 0.50850
 O134 O 1.05514 0.44985 0.47488
 O135 O 1.08074 0.49716 0.49531
 C136 C 1.03555 0.52445 0.58362
 C137 C 0.92309 0.53400 0.52687
 C138 C 1.02645 0.58002 0.47109
 C139 C 0.97049 0.47608 0.42471
 C140 C 0.97855 0.42142 0.53765
 C141 C 1.08241 0.46767 0.48043
 Zn142 Zn 0.48374 0.48788 0.95352
 Zn143 Zn 0.54699 0.51648 0.98790
 Zn144 Zn 0.47754 0.52290 1.02291
 Zn145 Zn 0.51234 0.45336 1.01655
 O146 O 0.50511 0.49520 0.99527
 O147 O 0.50851 0.50374 0.91733
 O148 O 0.54982 0.55777 1.00913
 O149 O 0.43755 0.53520 1.00200
 O150 O 0.55549 0.52493 0.94287
 O151 O 0.44251 0.50916 0.95087
 O152 O 0.49864 0.56288 1.03514
 O153 O 0.49112 0.45071 1.05782
 O154 O 0.58315 0.49167 1.00372
 O155 O 0.46525 0.50194 1.06288
 O156 O 0.55739 0.44479 1.02493
 O157 O 0.49631 0.41716 0.99185
 O158 O 0.47515 0.44282 0.94502
 C159 C 0.53782 0.51895 0.91563
 C160 C 0.52868 0.57483 1.02802
 C161 C 0.42553 0.52809 0.97204
 C162 C 0.47229 0.47193 1.07485
 C163 C 0.58474 0.46238 1.01891
 C164 C 0.48106 0.41551 0.96262
 C165 C 1.17904 0.46219 0.46032
 C166 C 1.18097 0.43031 0.44271
 C167 C 1.15094 0.41010 0.43849
 C168 C 1.11897 0.42192 0.45135
 C169 C 1.29802 0.38658 0.38634
 C170 C 1.14709 0.47408 0.47322
 C171 C 1.21350 0.41872 0.42808
 C172 C 1.24045 0.40888 0.41530
 C173 C 1.27166 0.39706 0.39984
 C174 C 1.11661 0.45421 0.46860
 H175 H 1.20213 0.47805 0.46369
 H176 H 1.15215 0.38539 0.42488
 H177 H 1.09604 0.40599 0.44734
 H178 H 1.14618 0.49905 0.48634
 C179 C 0.33932 0.57669 0.97325
 C180 C 0.32623 0.56859 0.94024
 C181 C 0.34547 0.54720 0.91784
 C182 C 0.37768 0.53400 0.92826
 C183 C 0.20752 0.61706 0.89249
 C184 C 0.37162 0.56348 0.98378
 C185 C 0.29329 0.58234 0.92889
 C186 C 0.26596 0.59353 0.91832
 C187 C 0.23428 0.60632 0.90485
 C188 C 0.39119 0.54202 0.96134
 H189 H 0.32464 0.59327 0.99079
 H190 H 0.33560 0.54079 0.89222
 H191 H 0.39201 0.51757 0.91034
 H192 H 0.38127 0.57014 1.00940
 C193 C -0.18105 0.95766 0.04234
 C194 C -0.18295 0.92545 0.05923
 C195 C -0.15266 0.90586 0.06426
 C196 C -0.12051 0.91854 0.05278
 C197 C -0.30106 0.87890 0.11080
 C198 C -0.14892 0.97041 0.03082
 C199 C -0.21576 0.91287 0.07229
 C200 C -0.24296 0.90225 0.08385
 C201 C -0.27446 0.88972 0.09807
 C202 C -0.11823 0.95108 0.03612
 H203 H -0.20435 0.97307 0.03837
 H204 H -0.15383 0.88092 0.07736
 H205 H -0.09742 0.90299 0.05728
 H206 H -0.14808 0.99555 0.01810
 C207 C 0.67424 0.04541 0.53990
 C208 C 0.67573 0.07705 0.55796
 C209 C 0.64529 0.09642 0.56320
 C210 C 0.61339 0.08402 0.55084
 C211 C 0.79292 0.12161 0.61297
 C212 C 0.64236 0.03294 0.52749
 C213 C 0.70824 0.08918 0.57207
 C214 C 0.73522 0.09934 0.58447
 C215 C 0.76648 0.11129 0.59959
 C216 C 0.61151 0.05199 0.53307
 H217 H 0.69765 0.03018 0.53575
 H218 H 0.64614 0.12092 0.57721
 H219 H 0.59016 0.09933 0.55559
 H220 H 0.64183 0.00819 0.51393
 C221 C 0.45718 0.18113 0.45779
 C222 C 0.44032 0.18307 0.42561
 C223 C 0.43537 0.15282 0.40588
 C224 C 0.44689 0.12067 0.41839
 C225 C 0.38847 0.30112 0.37974
 C226 C 0.46874 0.14899 0.47038
 C227 C 0.42718 0.21587 0.41321
 C228 C 0.41556 0.24306 0.40275
 C229 C 0.40126 0.27454 0.39040
 C230 C 0.46351 0.11835 0.45091
 H231 H 0.46108 0.20439 0.47331
 H232 H 0.42229 0.15403 0.38095
 H233 H 0.44245 0.09762 0.40274
 H234 H 0.48143 0.14812 0.49550
 C235 C 0.93674 0.35371 0.59607
 C236 C 0.94188 0.32323 0.57671
 C237 C 0.95991 0.32465 0.54507
 C238 C 0.97238 0.35651 0.53258
 C239 C 0.88648 0.20623 0.62143
 C240 C 0.94917 0.38558 0.58365
 C241 C 0.92769 0.29075 0.58887
 C242 C 0.91521 0.26382 0.59907
 C243 C 0.89997 0.23261 0.61107
 C244 C 0.96690 0.38740 0.55161
 H245 H 0.92277 0.35291 0.62057
 H246 H 0.96397 0.30121 0.52985
 H247 H 0.98589 0.35699 0.50783
 H248 H 0.94450 0.40884 0.59895
 C249 C 0.03986 0.82169 -0.03657
 C250 C 0.05757 0.81970 -0.06837
 C251 C 0.06173 0.84965 -0.08864
 C252 C 0.04873 0.88161 -0.07696
 C253 C 0.11447 0.70275 -0.11163
 C254 C 0.02681 0.85363 -0.02482
 C255 C 0.07236 0.78719 -0.07980
 C256 C 0.08528 0.76026 -0.08953
 C257 C 0.10087 0.72909 -0.10123
 C258 C 0.03138 0.88403 -0.04475
 H259 H 0.03652 0.79866 -0.02066
 H260 H 0.07542 0.84838 -0.11329
 H261 H 0.05271 0.90448 -0.09293
 H262 H 0.01362 0.85459 0.00009
 C263 C 0.58320 0.65488 1.04708
 C264 C 0.56082 0.67420 1.06841
 C265 C 0.52772 0.66117 1.07649
 C266 C 0.51708 0.62885 1.06332
 C267 C 0.60868 0.79306 1.11688
 C268 C 0.57267 0.62264 1.03392
 C269 C 0.57227 0.70717 1.08213
 C270 C 0.58287 0.73454 1.09331
 C271 C 0.59635 0.76626 1.10611
 C272 C 0.53950 0.60919 1.04191
 H273 H 0.60889 0.66470 1.04069
 H274 H 0.51019 0.67591 1.09302
 H275 H 0.49140 0.61925 1.06996
 H276 H 0.59059 0.60824 1.01753
 C277 C 0.42378 0.47317 1.16109
 C278 C 0.43179 0.44011 1.17414
 C279 C 0.45310 0.41766 1.15487
 C280 C 0.46631 0.42809 1.12266
 C281 C 0.38308 0.39239 1.29278
 C282 C 0.43700 0.48371 1.12880
 C283 C 0.41800 0.42874 1.20707
 C284 C 0.40677 0.41818 1.23439
 C285 C 0.39391 0.40472 1.26604
 C286 C 0.45837 0.46123 1.10919
 H287 H 0.40727 0.49074 1.17580
 H288 H 0.45944 0.39200 1.16470
 H289 H 0.48267 0.41013 1.10829
 H290 H 0.43040 0.50937 1.11918
 C291 C 0.53675 -0.03949 0.32129
 C292 C 0.56859 -0.05714 0.31935
 C293 C 0.58877 -0.06131 0.34933
 C294 C 0.57695 -0.04837 0.38125
 C295 C 0.61244 -0.11381 0.20255
 C296 C 0.52486 -0.02651 0.35319
 C297 C 0.58018 -0.07186 0.28688
 C298 C 0.59004 -0.08472 0.25998
 C299 C 0.60190 -0.10025 0.22885
 C300 C 0.54470 -0.03109 0.38361
 H301 H 0.52091 -0.03615 0.29823
 H302 H 0.61345 -0.07495 0.34812
 H303 H 0.59285 -0.05236 0.40414
 H304 H 0.49992 -0.01337 0.35410
 C305 C -0.09605 1.06357 -0.14561
 C306 C -0.07659 1.05840 -0.17600
 C307 C -0.04497 1.04034 -0.17452
 C308 C -0.03259 1.02789 -0.14268
 C309 C -0.12081 1.11368 -0.29297
 C310 C -0.08375 1.05116 -0.11375
 C311 C -0.08862 1.07258 -0.20846
 C312 C -0.09869 1.08505 -0.23539
 C313 C -0.11055 1.10025 -0.26659
 C314 C -0.05172 1.03342 -0.11187
 H315 H -0.12054 1.07756 -0.14647
 H316 H -0.02967 1.03625 -0.19789
 H317 H -0.00785 1.01436 -0.14214
 H318 H -0.09911 1.05587 -0.09056
 C319 C 1.09473 0.56348 0.65226
 C320 C 1.07505 0.55845 0.68251
 C321 C 1.04278 0.54161 0.68059
 C322 C 1.03006 0.53013 0.64848
 C323 C 1.12135 0.60991 0.80056
 C324 C 1.08209 0.55205 0.62014
 C325 C 1.08760 0.57148 0.71529
 C326 C 1.09816 0.58301 0.74248
 C327 C 1.11062 0.59720 0.77397
 C328 C 1.04949 0.53543 0.61784
 H329 H 1.11972 0.57655 0.65345
 H330 H 1.02730 0.53764 0.70385
 H331 H 1.00489 0.51744 0.64763
 H332 H 1.09770 0.55654 0.59708
 C333 C 0.83673 0.58238 0.52515
 C334 C 0.82362 0.57487 0.55833
 C335 C 0.84293 0.55401 0.58100
 C336 C 0.87520 0.54073 0.57069
 C337 C 0.70449 0.62255 0.60652
 C338 C 0.86909 0.56908 0.51473
 C339 C 0.79056 0.58861 0.56958
 C340 C 0.76312 0.59966 0.58020
 C341 C 0.73133 0.61217 0.59388
 C342 C 0.88872 0.54812 0.53744
 H343 H 0.82200 0.59854 0.50739
 H344 H 0.83306 0.54805 0.60675
 H345 H 0.88956 0.52469 0.58884
 H346 H 0.87875 0.57525 0.48898
 C347 C 0.65316 0.40492 1.06075
 C348 C 0.68329 0.42490 1.05611
 C349 C 0.68145 0.45657 1.03824
 C350 C 0.64951 0.46849 1.02550
 C351 C 0.80023 0.38188 1.11273
 C352 C 0.62119 0.41678 1.04807
 C353 C 0.71581 0.41335 1.07067
 C354 C 0.74274 0.40361 1.08346
 C355 C 0.77391 0.39203 1.09902
 C356 C 0.61893 0.44887 1.03056
 H357 H 0.65428 0.38038 1.07459
 H358 H 0.70462 0.47227 1.03454
 H359 H 0.64868 0.49331 1.01217
 H360 H 0.59819 0.40103 1.05242
 C361 C 0.15431 1.04804 -0.07948
 C362 C 0.17437 1.06922 -0.05773
 C363 C 0.16212 1.07773 -0.02442
 C364 C 0.12984 1.06509 -0.01297
 C365 C 0.29242 1.11516 -0.10994
 C366 C 0.12214 1.03542 -0.06816
 C367 C 0.20725 1.08233 -0.07012
 C368 C 0.23446 1.09289 -0.08174
 C369 C 0.26591 1.10495 -0.09652
 C370 C 0.10946 1.04382 -0.03478
 H371 H 0.16350 1.04132 -0.10531
 H372 H 0.17744 1.09417 -0.00738
 H373 H 0.12083 1.07202 0.01284
 H374 H 0.10720 1.01911 -0.08564
 C375 C 0.33250 -0.07714 0.47370
 C376 C 0.31954 -0.06843 0.44081
 C377 C 0.33890 -0.04670 0.41895
 C378 C 0.37109 -0.03375 0.42976
 C379 C 0.20129 -0.11585 0.39071
 C380 C 0.36480 -0.06417 0.48464
 C381 C 0.28665 -0.08193 0.42895
 C382 C 0.25940 -0.09284 0.41783
 C383 C 0.22787 -0.10531 0.40365
 C384 C 0.38449 -0.04236 0.46272
 H385 H 0.31773 -0.09400 0.49083
 H386 H 0.32915 -0.03982 0.39343
 H387 H 0.38550 -0.01703 0.41222
 H388 H 0.37436 -0.07128 0.51014
 C389 C 0.52358 -0.16201 0.57674
 C390 C 0.55694 -0.17422 0.56832
 C391 C 0.57880 -0.15415 0.54725
 C392 C 0.56753 -0.12200 0.53467
 C393 C 0.60899 -0.29213 0.61429
 C394 C 0.51219 -0.12974 0.56413
 C395 C 0.56928 -0.20708 0.58142
 C396 C 0.58086 -0.23426 0.59199
 C397 C 0.59561 -0.26566 0.60406
 C398 C 0.53411 -0.10935 0.54298
 H399 H 0.50645 -0.17734 0.59309
 H400 H 0.60468 -0.16332 0.54060
 H401 H 0.58510 -0.10704 0.51845
 H402 H 0.48633 -0.12076 0.57100
 C403 C 1.02633 0.66633 0.42275
 C404 C 1.05928 0.67937 0.43137
 C405 C 1.08124 0.66007 0.45297
 C406 C 1.07047 0.62785 0.46588
 C407 C 1.10904 0.79790 0.38421
 C408 C 1.01544 0.63400 0.43568
 C409 C 1.07107 0.71232 0.41794
 C410 C 1.08211 0.73963 0.40708
 C411 C 1.09619 0.77124 0.39468
 C412 C 1.03745 0.61437 0.45736
 H413 H 1.00912 0.68106 0.40600
 H414 H 1.10680 0.66989 0.45978
 H415 H 1.08808 0.61349 0.48250
 H416 H 0.98989 0.62438 0.42864
 C417 C -0.08154 1.15774 0.05428
 C418 C -0.05891 1.17719 0.07513
 C419 C -0.02568 1.16422 0.08269
 C420 C -0.01518 1.13185 0.06947
 C421 C -0.10741 1.29628 0.12261
 C422 C -0.07115 1.12546 0.04108
 C423 C -0.07025 1.21026 0.08878
 C424 C -0.08094 1.23769 0.09978
 C425 C -0.09471 1.26946 0.11224
 C426 C -0.03786 1.11207 0.04854
 H427 H -0.10732 1.16750 0.04828
 H428 H -0.00795 1.17907 0.09884
 H429 H 0.01060 1.12229 0.07569
 H430 H -0.08928 1.11098 0.02506
 C431 C 0.43875 0.34702 0.90541
 C432 C 0.44327 0.31694 0.92541
 C433 C 0.46121 0.31884 0.95702
 C434 C 0.47414 0.35079 0.96885
 C435 C 0.38594 0.20003 0.88270
 C436 C 0.45164 0.37898 0.91717
 C437 C 0.42850 0.28443 0.91396
 C438 C 0.41555 0.25751 0.90429
 C439 C 0.39979 0.22634 0.89279
 C440 C 0.46922 0.38130 0.94920
 H441 H 0.42487 0.34585 0.88092
 H442 H 0.46481 0.29572 0.97273
 H443 H 0.48752 0.35166 0.99361
 H444 H 0.44739 0.40194 0.90141
 C445 C 0.59508 0.56102 0.84705
 C446 C 0.57501 0.55637 0.81705
 C447 C 0.54336 0.53841 0.81903
 C448 C 0.53153 0.52559 0.85098
 C449 C 0.61752 0.61321 0.70001
 C450 C 0.58333 0.54825 0.87902
 C451 C 0.58644 0.57101 0.78453
 C452 C 0.59606 0.58386 0.75758
 C453 C 0.60750 0.59947 0.72637
 C454 C 0.55125 0.53066 0.88142
 H455 H 0.61961 0.57493 0.84582
 H456 H 0.52759 0.53470 0.79597
 H457 H 0.50673 0.51220 0.85191
 H458 H 0.59914 0.55262 0.90192
 C459 C 0.44485 0.08130 0.65714
 C460 C 0.42392 0.05860 0.67643
 C461 C 0.41634 0.02540 0.66333
 C462 C 0.42964 0.01498 0.63098
 C463 C 0.37628 0.10676 0.79554
 C464 C 0.45814 0.07100 0.62489
 C465 C 0.41019 0.06985 0.70949
 C466 C 0.39914 0.08046 0.73692
 C467 C 0.38665 0.09413 0.76870
 C468 C 0.45068 0.03772 0.61137
 H469 H 0.45087 0.10706 0.66701
 H470 H 0.40012 0.00762 0.67805
 H471 H 0.42341 -0.01079 0.62132
 H472 H 0.47423 0.08917 0.61054
 C473 C 0.07725 0.97490 0.16676
 C474 C 0.06855 0.94198 0.17982
 C475 C 0.04679 0.92002 0.16061
 C476 C 0.03382 0.93074 0.12847
 C477 C 0.11611 0.89207 0.29785
 C478 C 0.06425 0.98575 0.13451
 C479 C 0.08210 0.93020 0.21265
 C480 C 0.09304 0.91913 0.23985
 C481 C 0.10555 0.90498 0.27132
 C482 C 0.04243 0.96371 0.11497
 H483 H 0.09413 0.99211 0.18141
 H484 H 0.03992 0.89448 0.17044
 H485 H 0.01709 0.91311 0.11417
 H486 H 0.07137 1.01126 0.12486
 C487 C 0.92336 0.47511 0.33782
 C488 C 0.93172 0.44175 0.32558
 C489 C 0.95272 0.41987 0.34562
 C490 C 0.96530 0.43113 0.37776
 C491 C 0.88580 0.38994 0.20753
 C492 C 0.93597 0.48650 0.37008
 C493 C 0.91864 0.42943 0.29270
 C494 C 0.90809 0.41791 0.26550
 C495 C 0.89603 0.40324 0.23405
 C496 C 0.95706 0.46457 0.39044
 H497 H 0.90707 0.49226 0.32251
 H498 H 0.95932 0.39399 0.33643
 H499 H 0.98147 0.41356 0.39270
 H500 H 0.92915 0.51237 0.37908
   
