data_POSCAR
  _audit_creation_date              2014-09-24
  _audit_creation_method            'ToBaCCo'
  _symmetry_space_group_name_H-M    'P1'
  _symmetry_Int_Tables_number       1
  _symmetry_cell_setting            triclinic
  loop_
  _symmetry_equiv_pos_as_xyz
 x,y,z
_cell_length_a 37.1934
_cell_length_b 38.8454
_cell_length_c 35.0074
_cell_angle_alpha 91.100000
_cell_angle_beta 90.140500
_cell_angle_gamma 91.504300
loop_
  _atom_site_label
  _atom_site_type_symbol
  _atom_site_fract_x
  _atom_site_fract_y
  _atom_site_fract_z
C1 C 0.18627 0.20300 0.23943
 C2 C 0.17539 0.23294 0.22135
 C3 C 0.19219 0.24341 0.18748
 C4 C 0.21989 0.22393 0.17172
 C5 C 0.23079 0.19398 0.18972
 C6 C 0.21402 0.18363 0.22359
 H7 H 0.15354 0.24772 0.23314
 H8 H 0.23249 0.23180 0.14525
 H9 H 0.22215 0.16019 0.23726
 C10 C -0.18196 0.79539 0.22658
 C11 C -0.17156 0.76490 0.20816
 C12 C -0.18898 0.75349 0.17446
 C13 C -0.21688 0.77261 0.15921
 C14 C -0.22734 0.80311 0.17762
 C15 C -0.20991 0.81441 0.21129
 H16 H -0.14963 0.75032 0.21961
 H17 H -0.23008 0.76404 0.13292
 H18 H -0.21780 0.83823 0.22522
 C19 C -0.21690 0.21652 -0.26060
 C20 C -0.24701 0.19834 -0.24673
 C21 C -0.26596 0.21121 -0.21527
 C22 C -0.25492 0.24250 -0.19772
 C23 C -0.22486 0.26081 -0.21165
 C24 C -0.20593 0.24782 -0.24313
 H25 H -0.25504 0.17367 -0.25959
 H26 H -0.26898 0.25203 -0.17273
 H27 H -0.18208 0.26152 -0.25317
 C28 C 0.18602 0.79356 -0.25260
 C29 C 0.17725 0.76124 -0.23752
 C30 C 0.19932 0.74718 -0.20960
 C31 C 0.23020 0.76545 -0.19681
 C32 C 0.23900 0.79775 -0.21187
 C33 C 0.21696 0.81172 -0.23979
 H34 H 0.15303 0.74733 -0.24690
 H35 H 0.24690 0.75489 -0.17470
 H36 H 0.22356 0.83697 -0.25097
 C37 C 0.21425 1.19325 0.75669
 C38 C 0.19422 1.22032 0.77190
 C39 C 0.20433 1.23605 0.80677
 C40 C 0.23460 1.22488 0.82640
 C41 C 0.25467 1.19786 0.81125
 C42 C 0.24454 1.18210 0.77637
 H43 H 0.17031 1.22856 0.75719
 H44 H 0.24199 1.23658 0.85378
 H45 H 0.25963 1.16061 0.76518
 C46 C 0.81350 0.81556 0.78953
 C47 C 0.78118 0.82606 0.80604
 C48 C 0.76572 0.80729 0.83591
 C49 C 0.78253 0.77797 0.84925
 C50 C 0.81484 0.76745 0.83272
 C51 C 0.83025 0.78622 0.80286
 H52 H 0.76832 0.84899 0.79608
 H53 H 0.77074 0.76373 0.87268
 H54 H 0.85545 0.77824 0.79032
 C55 C 0.21014 0.79237 1.24691
 C56 C 0.19485 0.76009 1.23701
 C57 C 0.21291 0.73789 1.21208
 C58 C 0.24646 0.74787 1.19717
 C59 C 0.26184 0.78011 1.20720
 C60 C 0.24372 0.80228 1.23214
 H61 H 0.16841 0.75269 1.24760
 H62 H 0.25992 0.73116 1.17690
 H63 H 0.25521 0.82763 1.23898
 C64 C 0.79006 1.20872 1.25571
 C65 C 0.75610 1.19898 1.24120
 C66 C 0.73906 1.21975 1.21476
 C67 C 0.75590 1.25043 1.20296
 C68 C 0.78983 1.26022 1.21762
 C69 C 0.80681 1.23944 1.24406
 H70 H 0.74349 1.17473 1.24940
 H71 H 0.74327 1.26593 1.18154
 H72 H 0.83352 1.24661 1.25450
 O73 O 0.51827 0.95389 0.95260
 O74 O 0.46580 0.96487 1.08092
 O75 O 0.57365 0.99325 1.04240
 O76 O 0.45290 0.95369 0.96046
 O77 O 0.53374 0.96687 1.07855
 O78 O 0.47135 0.98107 0.91083
 O79 O 0.45226 0.94131 1.02653
 O80 O 0.56697 0.98048 0.97390
 C81 C 0.55147 0.95409 0.95890
 C82 C 0.45397 0.93963 1.06172
 C83 C 0.56529 0.97060 1.06657
 C84 C 0.44819 0.95982 0.92549
 O85 O 0.47690 1.03735 0.94865
 O86 O 0.53319 1.03328 1.08375
 O87 O 0.54187 1.04716 0.96625
 O88 O 0.42528 1.00403 1.04399
 O89 O 0.46580 1.03214 1.07868
 O90 O 0.53344 1.01111 0.92237
 O91 O 0.42919 1.01849 0.97636
 O92 O 0.54695 1.05708 1.03097
 Co93 Co 0.49652 0.99541 0.95278
 Co94 Co 0.49952 0.99935 1.07379
 Co95 Co 0.55293 1.01783 1.00364
 Co96 Co 0.44497 0.98127 1.00244
 O97 O 0.49988 0.99973 1.01075
 C98 C 0.44486 1.04100 0.95699
 C99 C 0.54540 1.05843 1.06612
 C100 C 0.54752 1.03888 0.93262
 C101 C 0.43401 1.02778 1.06762
 O102 O 0.04438 0.47299 0.05311
 O103 O 0.03791 0.52654 -0.08166
 O104 O 0.00741 0.42368 -0.04259
 O105 O 0.05563 0.53511 0.03601
 O106 O 0.03646 0.46183 -0.07711
 O107 O 0.01869 0.52802 0.07978
 O108 O 0.06447 0.53915 -0.02894
 O109 O 0.02248 0.42750 0.02541
 C110 C 0.04676 0.44193 0.04507
 C111 C 0.06427 0.53922 -0.06411
 C112 C 0.03172 0.43156 -0.06632
 C113 C 0.04768 0.54097 0.06969
 O114 O -0.04197 0.51466 0.04939
 O115 O -0.03354 0.46217 -0.07981
 O116 O -0.04436 0.45188 0.04052
 O117 O -0.00213 0.56562 -0.03950
 O118 O -0.03105 0.52741 -0.07622
 O119 O -0.01414 0.46956 0.09043
 O120 O -0.01353 0.56050 0.02893
 O121 O -0.05777 0.45070 -0.02584
 Co122 Co 0.00090 0.49279 0.04898
 Co123 Co 0.00267 0.49443 -0.07196
 Co124 Co -0.01598 0.44328 -0.00121
 Co125 Co 0.02434 0.54589 -0.00118
 O126 O 0.00432 0.49537 -0.00884
 C127 C -0.04112 0.54643 0.04372
 C128 C -0.05966 0.45099 -0.06106
 C129 C -0.03776 0.44822 0.07568
 C130 C -0.02639 0.55769 -0.06380
 O131 O 1.06600 0.02912 0.46500
 O132 O 0.92729 0.03351 0.53777
 O133 O 0.95988 0.01293 0.42026
 O134 O 1.03771 0.05038 0.54528
 O135 O 0.93241 0.03639 0.46764
 O136 O 1.07529 0.01301 0.53281
 O137 O 0.97676 0.05710 0.55871
 O138 O 1.01637 0.04377 0.43927
 C139 C 1.04855 0.05027 0.44624
 C140 C 0.94366 0.05734 0.55530
 C141 C 0.93811 0.03426 0.43275
 C142 C 1.06915 0.04213 0.54530
 O143 O 1.04581 -0.04770 0.51948
 O144 O 0.93097 -0.03283 0.46380
 O145 O 1.02459 -0.01162 0.40113
 O146 O 0.96801 -0.00892 0.57986
 O147 O 0.93085 -0.03248 0.53666
 O148 O 1.04675 -0.03777 0.45040
 O149 O 1.03243 -0.01789 0.57087
 O150 O 0.98385 -0.04531 0.44340
 Co151 Co 1.05248 -0.00909 0.49248
 Co152 Co 0.93653 0.00121 0.50087
 Co153 Co 1.00071 -0.00040 0.44426
 Co154 Co 1.00375 0.01878 0.55867
 O155 O 0.99552 0.00394 0.50139
 C156 C 1.04242 -0.04558 0.55498
 C157 C 0.95128 -0.05273 0.44603
 C158 C 1.04923 -0.03140 0.41499
 C159 C 0.94284 -0.03010 0.57029
 C160 C 1.16887 0.19152 0.27120
 C161 C 1.15360 0.17997 0.29871
 C162 C 1.13549 0.16427 0.33058
 C163 C 1.15528 0.14647 0.35763
 C164 C 1.13750 0.12729 0.38563
 C165 C 1.09983 0.12585 0.38679
 C166 C 1.08007 0.14468 0.36061
 C167 C 1.09785 0.16385 0.33259
 C168 C 1.08159 0.10149 0.41105
 C169 C 1.06640 0.07915 0.42882
 H170 H 1.18437 0.14633 0.35616
 H171 H 1.15307 0.11244 0.40531
 H172 H 1.05093 0.14337 0.36083
 H173 H 1.08224 0.17723 0.31163
 C174 C 0.83593 -0.19251 0.25835
 C175 C 0.85169 -0.18072 0.28600
 C176 C 0.87035 -0.16504 0.31826
 C177 C 0.90767 -0.15930 0.31689
 C178 C 0.92525 -0.14042 0.34617
 C179 C 0.90558 -0.12723 0.37700
 C180 C 0.86844 -0.13395 0.37900
 C181 C 0.85087 -0.15283 0.34972
 C182 C 0.92258 -0.10332 0.40379
 C183 C 0.93615 -0.08132 0.42434
 H184 H 0.92298 -0.16836 0.29258
 H185 H 0.95389 -0.13500 0.34404
 H186 H 0.85286 -0.12349 0.40241
 H187 H 0.82196 -0.15686 0.35095
 C188 C 0.80330 0.20222 0.71116
 C189 C 0.82141 0.18843 0.68712
 C190 C 0.84317 0.17045 0.65973
 C191 C 0.82679 0.14942 0.63139
 C192 C 0.84781 0.12891 0.60750
 C193 C 0.88528 0.12935 0.61186
 C194 C 0.90173 0.15110 0.63950
 C195 C 0.88071 0.17162 0.66339
 C196 C 0.90643 0.10532 0.59039
 C197 C 0.92373 0.08402 0.57367
 H198 H 0.79777 0.14809 0.62854
 H199 H 0.83480 0.11195 0.58645
 H200 H 0.93065 0.15141 0.64335
 H201 H 0.89362 0.18758 0.68542
 C202 C 1.16389 -0.19184 0.72154
 C203 C 1.14474 -0.17789 0.69904
 C204 C 1.12266 -0.15983 0.67261
 C205 C 1.13239 -0.15817 0.63404
 C206 C 1.11311 -0.13773 0.60915
 C207 C 1.08399 -0.11889 0.62268
 C208 C 1.07364 -0.12130 0.66102
 C209 C 1.09293 -0.14173 0.68593
 C210 C 1.06718 -0.09458 0.59825
 C211 C 1.05481 -0.07291 0.57821
 H212 H 1.15547 -0.17184 0.62348
 H213 H 1.12160 -0.13578 0.57967
 H214 H 1.05141 -0.10658 0.67191
 H215 H 1.08533 -0.14262 0.71576
 C216 C 0.25676 1.17421 1.17378
 C217 C 0.27943 1.15617 1.15994
 C218 C 0.30621 1.13411 1.14380
 C219 C 0.32482 1.11182 1.16733
 C220 C 0.35049 1.08999 1.15170
 C221 C 0.35766 1.09031 1.11243
 C222 C 0.33907 1.11261 1.08887
 C223 C 0.31339 1.13445 1.10452
 C224 C 0.38428 1.06797 1.09645
 C225 C 0.40682 1.04945 1.08324
 H226 H 0.31944 1.11127 1.19772
 H227 H 0.36472 1.07290 1.17020
 H228 H 0.34443 1.11311 1.05847
 H229 H 0.29911 1.15152 1.08603
 C230 C 0.26949 0.81754 0.80271
 C231 C 0.29441 0.83477 0.81527
 C232 C 0.32344 0.85594 0.83088
 C233 C 0.32671 0.89074 0.82126
 C234 C 0.35354 0.91189 0.83822
 C235 C 0.37723 0.89831 0.86486
 C236 C 0.37432 0.86338 0.87399
 C237 C 0.34750 0.84224 0.85704
 C238 C 0.40310 0.92049 0.88456
 C239 C 0.42409 0.93874 0.90241
 H240 H 0.30815 0.90165 0.80119
 H241 H 0.35538 0.93890 0.83113
 H242 H 0.39234 0.85265 0.89474
 H243 H 0.34513 0.81542 0.86483
 C244 C 0.74478 0.82355 1.16166
 C245 C 0.72173 0.84142 1.14894
 C246 C 0.69447 0.86346 1.13451
 C247 C 0.67602 0.88513 1.15972
 C248 C 0.64996 0.90705 1.14585
 C249 C 0.64223 0.90744 1.10668
 C250 C 0.66063 0.88573 1.08143
 C251 C 0.68671 0.86379 1.09531
 C252 C 0.61532 0.92999 1.09252
 C253 C 0.59261 0.94872 1.08074
 H254 H 0.68185 0.88516 1.19006
 H255 H 0.63589 0.92369 1.16564
 H256 H 0.65485 0.88579 1.05108
 H257 H 0.70087 0.84722 1.07553
 C258 C 0.70523 1.19066 0.80069
 C259 C 0.68206 1.17234 0.81417
 C260 C 0.65553 1.14949 0.83069
 C261 C 0.65532 1.11426 0.82121
 C262 C 0.63142 1.09150 0.83932
 C263 C 0.60759 1.10388 0.86696
 C264 C 0.60729 1.13921 0.87587
 C265 C 0.63121 1.16197 0.85777
 C266 C 0.58533 1.08023 0.88821
 C267 C 0.56756 1.06091 0.90754
 H268 H 0.67415 1.10430 0.80045
 H269 H 0.63209 1.06421 0.83243
 H270 H 0.58916 1.14904 0.89741
 H271 H 0.63127 1.18912 0.86548
 C272 C 0.17977 0.27317 0.16787
 C273 C 0.16860 0.29762 0.15118
 C274 C 0.15404 0.32620 0.13113
 C275 C 0.14289 0.35541 0.15150
 C276 C 0.12542 0.38163 0.13254
 C277 C 0.11906 0.37880 0.09311
 C278 C 0.13118 0.35007 0.07255
 C279 C 0.14867 0.32385 0.09151
 C280 C 0.09631 0.40305 0.07481
 C281 C 0.07499 0.42185 0.06050
 H282 H 0.14669 0.35743 0.18216
 H283 H 0.11574 0.40349 0.14883
 H284 H 0.12600 0.34735 0.04215
 H285 H 0.15697 0.30130 0.07549
 C286 C -0.21131 0.29132 -0.19187
 C287 C -0.19828 0.31614 -0.17528
 C288 C -0.18070 0.34474 -0.15545
 C289 C -0.16046 0.36902 -0.17597
 C290 C -0.13940 0.39411 -0.15656
 C291 C -0.13851 0.39506 -0.11653
 C292 C -0.15973 0.37154 -0.09602
 C293 C -0.18080 0.34644 -0.11543
 C294 C -0.11265 0.41717 -0.09674
 C295 C -0.08933 0.43380 -0.08031
 H296 H -0.15989 0.36775 -0.20691
 H297 H -0.12275 0.41187 -0.17273
 H298 H -0.15890 0.37173 -0.06507
 H299 H -0.19605 0.32760 -0.09926
 C300 C 0.18898 0.71501 -0.19244
 C301 C 0.17931 0.68861 -0.17754
 C302 C 0.16624 0.65789 -0.15917
 C303 C 0.17149 0.65403 -0.11985
 C304 C 0.15504 0.62636 -0.10103
 C305 C 0.13332 0.60239 -0.12146
 C306 C 0.12911 0.60558 -0.16103
 C307 C 0.14556 0.63325 -0.17984
 C308 C 0.11158 0.57753 -0.10127
 C309 C 0.09120 0.55871 -0.08425
 H310 H 0.18719 0.67306 -0.10352
 H311 H 0.15808 0.62446 -0.07036
 H312 H 0.11196 0.58750 -0.17704
 H313 H 0.14107 0.63611 -0.21019
 C314 C -0.17700 0.72294 0.15486
 C315 C -0.16582 0.69767 0.13875
 C316 C -0.15088 0.66797 0.12001
 C317 C -0.14285 0.63892 0.14124
 C318 C -0.12464 0.61162 0.12412
 C319 C -0.11441 0.61321 0.08568
 C320 C -0.12346 0.64178 0.06412
 C321 C -0.14168 0.66909 0.08125
 C322 C -0.09103 0.58771 0.06978
 C323 C -0.06939 0.56784 0.05734
 H324 H -0.14959 0.63787 0.17129
 H325 H -0.11738 0.58988 0.14120
 H326 H -0.11530 0.64351 0.03451
 H327 H -0.14752 0.69152 0.06462
 C328 C 1.20263 0.17617 0.72444
 C329 C 1.19125 0.16055 0.69667
 C330 C 1.17607 0.14130 0.66473
 C331 C 1.18240 0.10602 0.66063
 C332 C 1.16410 0.08632 0.63253
 C333 C 1.13944 0.10184 0.60839
 C334 C 1.13404 0.13734 0.61165
 C335 C 1.15232 0.15703 0.63976
 C336 C 1.11665 0.08082 0.58361
 C337 C 1.09587 0.06313 0.56487
 H338 H 1.20046 0.09353 0.68000
 H339 H 1.16815 0.05882 0.63059
 H340 H 1.11470 0.14952 0.59347
 H341 H 1.14698 0.18422 0.64289
 C342 C 0.82924 -0.16566 0.76137
 C343 C 0.84361 -0.14904 0.73671
 C344 C 0.86105 -0.12911 0.70755
 C345 C 0.84313 -0.10194 0.69078
 C346 C 0.86025 -0.08227 0.66281
 C347 C 0.89537 -0.08966 0.65149
 C348 C 0.91329 -0.11688 0.66819
 C349 C 0.89616 -0.13657 0.69618
 C350 C 0.91289 -0.06917 0.62286
 C351 C 0.92697 -0.05158 0.59887
 H352 H 0.81601 -0.09592 0.69940
 H353 H 0.84616 -0.06126 0.65008
 H354 H 0.94046 -0.12280 0.65967
 H355 H 0.91028 -0.15750 0.70902
 C356 C 1.19115 -0.18497 0.26845
 C357 C 1.17377 -0.16481 0.28676
 C358 C 1.15239 -0.14082 0.30794
 C359 C 1.16756 -0.10934 0.32099
 C360 C 1.14655 -0.08600 0.34138
 C361 C 1.11031 -0.09407 0.34868
 C362 C 1.09514 -0.12549 0.33550
 C363 C 1.11612 -0.14881 0.31514
 C364 C 1.08895 -0.07084 0.37093
 C365 C 1.07086 -0.05224 0.39044
 H366 H 1.19557 -0.10290 0.31549
 H367 H 1.15858 -0.06184 0.35163
 H368 H 1.06718 -0.13204 0.34118
 H369 H 1.10413 -0.17305 0.30511
 C370 C 0.80799 0.18709 0.27869
 C371 C 0.82432 0.16765 0.29825
 C372 C 0.84423 0.14422 0.32086
 C373 C 0.83108 0.11050 0.32591
 C374 C 0.85072 0.08756 0.34747
 C375 C 0.88360 0.09826 0.36395
 C376 C 0.89678 0.13196 0.35883
 C377 C 0.87715 0.15490 0.33728
 C378 C 0.90325 0.07508 0.38713
 C379 C 0.91942 0.05610 0.40739
 H380 H 0.80570 0.10197 0.31322
 H381 H 0.84023 0.06159 0.35141
 H382 H 0.92211 0.14052 0.37161
 H383 H 0.88759 0.18090 0.33343
 C384 C 0.18238 0.26228 -0.17655
 C385 C 0.16351 0.28380 -0.16244
 C386 C 0.14058 0.30913 -0.14559
 C387 C 0.14272 0.31674 -0.10635
 C388 C 0.12012 0.34112 -0.08994
 C389 C 0.09530 0.35794 -0.11272
 C390 C 0.09314 0.35030 -0.15194
 C391 C 0.11572 0.32592 -0.16834
 C392 C 0.07246 0.38343 -0.09603
 C393 C 0.05361 0.40516 -0.08232
 H394 H 0.16179 0.30383 -0.08848
 H395 H 0.12205 0.34690 -0.05958
 H396 H 0.07408 0.36322 -0.16982
 H397 H 0.11380 0.32017 -0.19870
 C398 C -0.19098 0.28967 0.20293
 C399 C -0.17353 0.31326 0.19007
 C400 C -0.15142 0.34011 0.17391
 C401 C -0.11655 0.34653 0.18803
 C402 C -0.09366 0.37026 0.17004
 C403 C -0.10559 0.38761 0.13789
 C404 C -0.14073 0.38175 0.12429
 C405 C -0.16361 0.35802 0.14227
 C406 C -0.08123 0.40977 0.11736
 C407 C -0.06108 0.42764 0.09900
 H408 H -0.10678 0.33258 0.21230
 H409 H -0.06647 0.37446 0.18063
 H410 H -0.15012 0.39490 0.09929
 H411 H -0.19041 0.35302 0.13094
 C412 C -0.16801 0.73967 -0.15373
 C413 C -0.15199 0.71543 -0.14208
 C414 C -0.13192 0.68695 -0.12864
 C415 C -0.11340 0.66621 -0.15474
 C416 C -0.09251 0.63944 -0.14168
 C417 C -0.09005 0.63334 -0.10248
 C418 C -0.10883 0.65387 -0.07637
 C419 C -0.12973 0.68066 -0.08944
 C420 C -0.06773 0.60646 -0.08903
 C421 C -0.04884 0.58410 -0.07766
 H422 H -0.11481 0.67097 -0.18510
 H423 H -0.07804 0.62373 -0.16208
 H424 H -0.10705 0.64937 -0.04598
 H425 H -0.14383 0.69665 -0.06902
 C426 C 0.19514 0.70654 0.19895
 C427 C 0.17887 0.68130 0.18712
 C428 C 0.15808 0.65249 0.17185
 C429 C 0.12284 0.64646 0.18461
 C430 C 0.10097 0.62115 0.16666
 C431 C 0.11429 0.60178 0.13592
 C432 C 0.14989 0.60710 0.12391
 C433 C 0.17175 0.63243 0.14184
 C434 C 0.09063 0.57886 0.11438
 C435 C 0.07084 0.56089 0.09482
 H436 H 0.11191 0.66207 0.20756
 H437 H 0.07338 0.61747 0.17592
 H438 H 0.16034 0.59248 0.09992
 H439 H 0.19885 0.63711 0.13152
 C440 C 0.28398 1.18449 0.83281
 C441 C 0.30780 1.17208 0.85095
 C442 C 0.33531 1.15562 0.87239
 C443 C 0.32901 1.14675 0.91044
 C444 C 0.35377 1.12699 0.92991
 C445 C 0.38493 1.11609 0.91139
 C446 C 0.39182 1.12596 0.87377
 C447 C 0.36706 1.14570 0.85430
 C448 C 0.40757 1.09157 0.92921
 C449 C 0.42532 1.06935 0.94276
 H450 H 0.30440 1.15406 0.92459
 H451 H 0.34798 1.11917 0.95885
 H452 H 0.41563 1.11732 0.85904
 H453 H 0.37206 1.15218 0.82478
 C454 C 0.29434 0.79222 1.18913
 C455 C 0.32050 0.80423 1.17354
 C456 C 0.35022 0.82086 1.15449
 C457 C 0.35240 0.81922 1.11455
 C458 C 0.37762 0.83992 1.09551
 C459 C 0.40076 0.86231 1.11635
 C460 C 0.39961 0.86287 1.15636
 C461 C 0.37438 0.84218 1.17540
 C462 C 0.42206 0.88783 1.09678
 C463 C 0.43782 0.91075 1.08059
 H464 H 0.33356 0.80315 1.09810
 H465 H 0.37797 0.83962 1.06456
 H466 H 0.41705 0.88041 1.17273
 H467 H 0.37263 0.84396 1.20626
 C468 C 0.70619 1.20741 1.19696
 C469 C 0.67971 1.19510 1.18159
 C470 C 0.64965 1.17804 1.16272
 C471 C 0.64573 1.18029 1.12305
 C472 C 0.62034 1.15920 1.10374
 C473 C 0.59881 1.13580 1.12404
 C474 C 0.60167 1.13461 1.16390
 C475 C 0.62705 1.15570 1.18321
 C476 C 0.57746 1.11006 1.10370
 C477 C 0.56166 1.08711 1.08655
 H478 H 0.66337 1.19717 1.10688
 H479 H 0.61866 1.16002 1.07286
 H480 H 0.58547 1.11630 1.17983
 H481 H 0.63017 1.15344 1.21384
 C482 C 0.73342 0.81913 0.85383
 C483 C 0.70681 0.83014 0.86879
 C484 C 0.67572 0.84487 0.88639
 C485 C 0.64632 0.85370 0.86384
 C486 C 0.61801 0.87185 0.88006
 C487 C 0.61896 0.88120 0.91891
 C488 C 0.64776 0.87132 0.94176
 C489 C 0.67608 0.85316 0.92553
 C490 C 0.59300 0.90457 0.93406
 C491 C 0.57294 0.92613 0.94591
 H492 H 0.64590 0.84766 0.83349
 H493 H 0.59612 0.87977 0.86203
 H494 H 0.64901 0.87881 0.97172
 H495 H 0.69881 0.84669 0.94317
   
