data_POSCAR
  _audit_creation_date              2014-09-24
  _audit_creation_method            'ToBaCCo'
  _symmetry_space_group_name_H-M    'P1'
  _symmetry_Int_Tables_number       1
  _symmetry_cell_setting            triclinic
  loop_
  _symmetry_equiv_pos_as_xyz
 x,y,z
_cell_length_a 29.6071
_cell_length_b 29.9473
_cell_length_c 44.2674
_cell_angle_alpha 88.822100
_cell_angle_beta 92.365200
_cell_angle_gamma 82.790200
loop_
  _atom_site_label
  _atom_site_type_symbol
  _atom_site_fract_x
  _atom_site_fract_y
  _atom_site_fract_z
C1 C 0.05716 0.35170 0.99262
 C2 C 0.05526 0.35152 1.02352
 C3 C 0.03019 0.39185 1.03084
 N4 N 0.01758 0.41704 1.00551
 C5 C 0.03371 0.39235 0.98213
 C6 C 0.01724 0.40443 1.06021
 C7 C 0.00746 0.45042 1.06765
 C8 C -0.01479 0.46596 1.09314
 C9 C -0.01557 0.51185 1.09282
 C10 C 0.00600 0.52350 1.06708
 N11 N 0.01972 0.48584 1.05174
 C12 C 0.01330 0.56799 1.05883
 C13 C 0.02225 0.57983 1.02862
 C14 C 0.04008 0.61831 1.01932
 C15 C 0.03854 0.61891 0.98834
 C16 C 0.02187 0.57973 0.97963
 N17 N 0.01187 0.55594 1.00426
 C18 C 0.01251 0.56794 0.94951
 C19 C 0.00589 0.52380 0.94151
 C20 C -0.00956 0.51146 0.91324
 C21 C -0.00556 0.46513 0.91365
 C22 C 0.01214 0.45059 0.94216
 N23 N 0.01898 0.48650 0.95896
 C24 C 0.02501 0.40529 0.95140
 H25 H 0.07424 0.32515 0.97944
 H26 H 0.07090 0.32486 1.03884
 H27 H 0.03688 0.48531 0.97975
 H28 H -0.02970 0.44658 1.11011
 H29 H -0.03121 0.53411 1.10944
 H30 H 0.05299 0.64355 1.03325
 H31 H 0.04900 0.64516 0.97411
 H32 H -0.01395 0.44454 0.89493
 H33 H 0.04000 0.48403 1.03302
 H34 H -0.02120 0.53342 0.89402
 C35 C 0.61490 0.07041 0.50615
 C36 C 0.61164 0.06988 0.47521
 C37 C 0.57567 0.04607 0.46754
 N38 N 0.55586 0.03340 0.49282
 C39 C 0.58013 0.04819 0.51629
 C40 C 0.56293 0.03397 0.43785
 C41 C 0.51796 0.02483 0.43046
 C42 C 0.50444 0.00369 0.40456
 C43 C 0.45811 0.00336 0.40539
 C44 C 0.44450 0.02402 0.43181
 N45 N 0.48112 0.03701 0.44698
 C46 C 0.39890 0.03242 0.44050
 C47 C 0.38744 0.04504 0.47002
 C48 C 0.34475 0.06408 0.47823
 C49 C 0.34704 0.06722 0.50912
 C50 C 0.39098 0.04975 0.51870
 N51 N 0.41571 0.03644 0.49475
 C52 C 0.40695 0.04309 0.54914
 C53 C 0.45360 0.03236 0.55750
 C54 C 0.47044 0.01563 0.58576
 C55 C 0.51709 0.01318 0.58554
 C56 C 0.52728 0.02846 0.55727
 N57 N 0.48856 0.04005 0.54016
 C58 C 0.57430 0.03704 0.54931
 H59 H 0.63968 0.08578 0.51971
 H60 H 0.63335 0.08532 0.46012
 H61 H 0.48581 0.05744 0.51945
 H62 H 0.52558 -0.01049 0.38690
 H63 H 0.43695 -0.01068 0.38846
 H64 H 0.31503 0.07449 0.46352
 H65 H 0.31939 0.08056 0.52290
 H66 H 0.54083 0.00277 0.60436
 H67 H 0.48040 0.05689 0.46601
 H68 H 0.45110 0.00684 0.60475
 C69 C 0.07158 -0.01284 0.25530
 H70 H 0.07021 -0.01226 0.23084
 C71 C 0.11305 -0.01121 0.27122
 H72 H 0.14367 -0.00970 0.25887
 C73 C 0.03301 -0.01390 0.30110
 H74 H 0.00160 -0.01365 0.31268
 C75 C 0.07374 -0.01242 0.31791
 H76 H 0.07274 -0.01079 0.34225
 N77 N 0.03269 -0.01449 0.27038
 C78 C -0.06367 -0.07171 0.21002
 H79 H -0.09299 -0.04659 0.21186
 C80 C -0.06684 -0.10900 0.19207
 H81 H -0.09885 -0.11238 0.18011
 C82 C 0.01373 -0.09731 0.22322
 H83 H 0.04506 -0.09262 0.23541
 C84 C 0.01216 -0.13510 0.20536
 H85 H 0.04292 -0.15833 0.20385
 Zn86 Zn -0.02277 -0.01323 0.24724
 N87 N -0.02366 -0.06619 0.22477
 C88 C -0.03100 0.03209 0.19014
 N89 N -0.02729 0.03746 0.22052
 C90 C -0.02346 0.07846 0.23226
 C91 C -0.02310 0.11622 0.21321
 C92 C -0.03097 0.06883 0.17029
 C93 C -0.07573 -0.04588 0.29123
 C94 C -0.11216 -0.04625 0.31018
 C95 C -0.14267 0.02766 0.29036
 C96 C -0.10548 0.02656 0.27179
 N97 N -0.07279 -0.00969 0.27275
 H98 H -0.03306 -0.00084 0.18113
 H99 H -0.02003 0.08167 0.25652
 H100 H -0.02020 0.14808 0.22361
 H101 H -0.03359 0.06347 0.14617
 H102 H -0.04956 -0.07456 0.29121
 H103 H -0.11345 -0.07549 0.32481
 H104 H -0.16738 0.05743 0.28912
 H105 H -0.10292 0.05468 0.25655
 C106 C -0.02862 -0.14121 0.18936
 C107 C 0.11457 -0.01133 0.30292
 C108 C -0.14651 -0.00927 0.31002
 C109 C -0.02632 0.11164 0.18155
 C110 C -0.02902 0.07457 0.78008
 H111 H -0.05795 0.06738 0.76633
 C112 C -0.03376 0.11199 0.79850
 H113 H -0.06649 0.13265 0.79893
 C114 C 0.04867 0.05758 0.79596
 H115 H 0.08102 0.03679 0.79445
 C116 C 0.04551 0.09490 0.81457
 H117 H 0.07529 0.10126 0.82796
 N118 N 0.01152 0.04759 0.77954
 C119 C 0.10019 -0.04269 0.73053
 H120 H 0.09306 -0.07336 0.74163
 C121 C 0.13781 -0.04355 0.71247
 H122 H 0.15967 -0.07497 0.71001
 C123 C 0.07937 0.03505 0.71918
 H124 H 0.05575 0.06529 0.72149
 C125 C 0.11659 0.03570 0.70086
 H126 H 0.12075 0.06672 0.68900
 Zn127 Zn 0.01811 -0.00430 0.75501
 N128 N 0.07167 -0.00386 0.73329
 C129 C -0.02509 -0.00122 0.69688
 N130 N -0.03269 -0.00305 0.72690
 C131 C -0.07494 -0.00446 0.73747
 C132 C -0.11328 -0.00221 0.71794
 C133 C -0.06059 0.00081 0.67512
 C134 C 0.05598 -0.06316 0.80246
 C135 C 0.06294 -0.10193 0.82081
 C136 C 0.00018 -0.13037 0.78977
 C137 C -0.00341 -0.09017 0.77300
 N138 N 0.02358 -0.05789 0.77961
 H139 H 0.00917 -0.00123 0.68946
 H140 H -0.07894 -0.00710 0.76160
 H141 H -0.14634 -0.00287 0.72736
 H142 H -0.05298 0.00261 0.65144
 H143 H 0.07735 -0.03707 0.80639
 H144 H 0.08919 -0.10469 0.83876
 H145 H -0.02205 -0.15508 0.78363
 H146 H -0.02777 -0.08517 0.75404
 C147 C 0.14630 -0.00415 0.69721
 C148 C 0.00371 0.12259 0.81603
 C149 C 0.03504 -0.14025 0.81619
 C150 C -0.10934 0.00122 0.68369
 C151 C 0.01096 -0.39969 0.08184
 C152 C -0.00439 -0.35388 0.07693
 C153 C -0.00394 -0.31987 0.10074
 C154 C -0.03046 -0.27795 0.09581
 C155 C -0.02972 -0.24419 0.11707
 C156 C -0.00242 -0.25173 0.14393
 C157 C 0.02457 -0.29347 0.14868
 C158 C 0.02393 -0.32721 0.12735
 C159 C 0.00060 -0.21634 0.16661
 C160 C -0.03253 -0.17903 0.16867
 H161 H -0.01985 -0.34259 0.05505
 H162 H -0.05154 -0.27109 0.07525
 H163 H -0.04971 -0.21202 0.11187
 H164 H 0.04654 -0.29990 0.16889
 H165 H 0.04615 -0.35841 0.13156
 H166 H 0.02942 -0.22090 0.18264
 H167 H 0.01714 -0.41158 0.10506
 H168 H -0.06357 -0.17741 0.15471
 C169 C 0.01359 0.37127 0.08298
 C170 C 0.00143 0.32850 0.07702
 C171 C -0.00350 0.29438 0.10095
 C172 C -0.03092 0.26049 0.09461
 C173 C -0.03577 0.22707 0.11629
 C174 C -0.01257 0.22644 0.14471
 C175 C 0.01446 0.26062 0.15119
 C176 C 0.01930 0.29409 0.12949
 C177 C -0.01597 0.19093 0.16803
 C178 C -0.02459 0.14742 0.16065
 H179 H -0.00883 0.32088 0.05413
 H180 H -0.04896 0.26004 0.07284
 H181 H -0.05813 0.20223 0.11076
 H182 H 0.03265 0.26091 0.17291
 H183 H 0.04165 0.31896 0.13498
 H184 H -0.00785 0.19892 0.19114
 H185 H 0.01556 0.38071 0.10639
 H186 H -0.02822 0.14003 0.13690
 C187 C 0.37399 0.04693 0.57360
 C188 C 0.33624 0.02333 0.57306
 C189 C 0.30304 0.02536 0.59725
 C190 C 0.27513 -0.00898 0.59956
 C191 C 0.24271 -0.00794 0.62167
 C192 C 0.23747 0.02769 0.64198
 C193 C 0.26478 0.06249 0.63929
 C194 C 0.29733 0.06138 0.61723
 C195 C 0.20242 0.03075 0.66502
 C196 C 0.18435 -0.00680 0.67634
 H197 H 0.33183 0.00101 0.55449
 H198 H 0.27831 -0.03669 0.58412
 H199 H 0.22118 -0.03454 0.62224
 H200 H 0.26083 0.09073 0.65428
 H201 H 0.31708 0.08927 0.61554
 H202 H 0.19189 0.06355 0.67400
 H203 H 0.38246 0.06496 0.59356
 H204 H 0.19919 -0.04003 0.67010
 C205 C -0.38400 0.03455 0.57652
 C206 C -0.33820 0.02384 0.57083
 C207 C -0.30218 0.02028 0.59520
 C208 C -0.25642 0.01212 0.58757
 C209 C -0.22150 0.00816 0.61004
 C210 C -0.23174 0.01207 0.64071
 C211 C -0.27751 0.02006 0.64836
 C212 C -0.31245 0.02428 0.62586
 C213 C -0.19552 0.00797 0.66501
 C214 C -0.14973 0.00493 0.65856
 H215 H -0.32841 0.01675 0.54793
 H216 H -0.24764 0.00883 0.56413
 H217 H -0.18658 0.00185 0.60333
 H218 H -0.28628 0.02318 0.67181
 H219 H -0.34741 0.03040 0.63253
 H220 H -0.20528 0.00843 0.68835
 H221 H -0.40358 0.03615 0.56191
 H222 H -0.13090 0.00296 0.67265
 C223 C 0.00636 -0.39639 0.92554
 C224 C 0.04275 -0.37552 0.91558
 C225 C 0.03676 -0.33694 0.89375
 C226 C 0.06787 -0.30529 0.89514
 C227 C 0.06216 -0.26734 0.87577
 C228 C 0.02539 -0.26066 0.85430
 C229 C -0.00489 -0.29306 0.85229
 C230 C 0.00065 -0.33083 0.87180
 C231 C 0.01763 -0.22035 0.83397
 C232 C 0.04309 -0.18462 0.83715
 H233 H 0.07629 -0.38547 0.92614
 H234 H 0.09616 -0.30946 0.91170
 H235 H 0.08641 -0.24324 0.87774
 H236 H -0.03317 -0.28895 0.83572
 H237 H -0.02317 -0.35526 0.86942
 H238 H -0.00959 -0.21840 0.81667
 H239 H -0.02772 -0.38686 0.91587
 H240 H 0.03734 -0.16282 0.82568
 C241 C 0.03014 0.37068 0.92780
 C242 C 0.01127 0.33042 0.93053
 C243 C 0.01661 0.29424 0.90819
 C244 C -0.01404 0.26212 0.90790
 C245 C -0.00938 0.22655 0.88786
 C246 C 0.02633 0.22228 0.86770
 C247 C 0.05749 0.25392 0.86836
 C248 C 0.05268 0.28967 0.88830
 C249 C 0.03305 0.18430 0.84676
 C250 C -0.00259 0.16152 0.83618
 H251 H -0.00934 0.32568 0.94974
 H252 H -0.04162 0.26443 0.92336
 H253 H -0.03315 0.20197 0.88878
 H254 H 0.08572 0.25094 0.85340
 H255 H 0.07788 0.31287 0.88852
 H256 H 0.06671 0.17572 0.83826
 H257 H 0.04597 0.37878 0.90714
 H258 H -0.03713 0.17397 0.84166
 C259 C -0.40517 0.03109 0.41471
 C260 C -0.35815 0.01954 0.42014
 C261 C -0.32415 0.01922 0.39647
 C262 C -0.28040 -0.00383 0.40268
 C263 C -0.24655 -0.00351 0.38164
 C264 C -0.25579 0.01990 0.35375
 C265 C -0.29936 0.04352 0.34770
 C266 C -0.33327 0.04322 0.36878
 C267 C -0.22034 0.02214 0.33124
 C268 C -0.18250 -0.01082 0.32971
 H269 H -0.34557 0.00785 0.44261
 H270 H -0.27218 -0.02184 0.42407
 H271 H -0.21297 -0.02066 0.38776
 H272 H -0.30715 0.06248 0.32662
 H273 H -0.36604 0.06268 0.36353
 H274 H -0.22585 0.04977 0.31492
 H275 H -0.41779 0.03403 0.39140
 H276 H -0.18110 -0.04029 0.34447
 C277 C 0.36184 0.02666 0.41777
 C278 C 0.32682 0.00142 0.42468
 C279 C 0.28780 -0.00485 0.40381
 C280 C 0.27659 0.02175 0.37734
 C281 C 0.23799 0.01597 0.35922
 C282 C 0.20979 -0.01650 0.36720
 C283 C 0.22100 -0.04285 0.39364
 C284 C 0.25956 -0.03715 0.41169
 C285 C 0.16723 -0.02211 0.34968
 C286 C 0.15849 -0.00802 0.31949
 H287 H 0.32835 -0.01502 0.44681
 H288 H 0.29657 0.04794 0.37088
 H289 H 0.22969 0.03800 0.33959
 H290 H 0.19966 -0.06779 0.40049
 H291 H 0.26711 -0.05782 0.43208
 H292 H 0.14248 -0.03957 0.36088
 H293 H 0.36455 0.03942 0.39498
 H294 H 0.18529 0.00425 0.30701
   
