data_POSCAR
  _audit_creation_date              2014-09-24
  _audit_creation_method            'ToBaCCo'
  _symmetry_space_group_name_H-M    'P1'
  _symmetry_Int_Tables_number       1
  _symmetry_cell_setting            triclinic
  loop_
  _symmetry_equiv_pos_as_xyz
 x,y,z
_cell_length_a 48.0856
_cell_length_b 48.8742
_cell_length_c 46.8049
_cell_angle_alpha 91.661400
_cell_angle_beta 89.784400
_cell_angle_gamma 94.694000
loop_
  _atom_site_label
  _atom_site_type_symbol
  _atom_site_fract_x
  _atom_site_fract_y
  _atom_site_fract_z
C1 C 0.20713 0.52059 1.02963
 H2 H 0.20724 0.53677 1.01434
 C3 C 0.18837 0.52008 1.05250
 H4 H 0.17406 0.53601 1.05489
 C5 C 0.22502 0.47954 1.04465
 H6 H 0.23885 0.46344 1.04119
 C7 C 0.20661 0.47824 1.06781
 H8 H 0.20658 0.46127 1.08221
 N9 N 0.22505 0.50057 1.02621
 C10 C 0.29270 0.53601 0.97307
 H11 H 0.29257 0.52049 0.95609
 C12 C 0.31243 0.55861 0.97287
 H13 H 0.32757 0.56055 0.95569
 C14 C 0.27357 0.55217 1.01657
 H15 H 0.25871 0.54937 1.03380
 C16 C 0.29297 0.57510 1.01719
 H17 H 0.29290 0.58996 1.03482
 Zn18 Zn 0.24823 0.50157 0.99343
 N19 N 0.27365 0.53331 0.99458
 C20 C 0.22683 0.52271 0.94269
 N21 N 0.22442 0.50180 0.96136
 C22 C 0.20365 0.48123 0.95873
 C23 C 0.18437 0.48105 0.93648
 C24 C 0.20798 0.52331 0.92013
 C25 C 0.28852 0.46836 1.01264
 C26 C 0.30470 0.44591 1.01274
 C27 C 0.28174 0.42856 0.96927
 C28 C 0.26595 0.45134 0.96998
 N29 N 0.26935 0.47050 0.99167
 H30 H 0.24299 0.53924 0.94553
 H31 H 0.20190 0.46515 0.97419
 H32 H 0.16775 0.46474 0.93469
 H33 H 0.20983 0.54017 0.90553
 H34 H 0.29106 0.48408 1.02940
 H35 H 0.31978 0.44429 1.02962
 H36 H 0.27886 0.41333 0.95203
 H37 H 0.25109 0.45369 0.95317
 C38 C 0.31255 0.57834 0.99512
 C39 C 0.18806 0.49865 1.07172
 C40 C 0.30119 0.42577 0.99093
 C41 C 0.18652 0.50234 0.91707
 C42 C 0.79501 0.51987 -0.02322
 H43 H 0.79708 0.53494 -0.00581
 C44 C 0.81375 0.52151 -0.04605
 H45 H 0.83029 0.53794 -0.04631
 C46 C 0.77120 0.47974 -0.04395
 H47 H 0.75489 0.46325 -0.04283
 C48 C 0.78954 0.48062 -0.06721
 H49 H 0.78716 0.46496 -0.08408
 N50 N 0.77409 0.49939 -0.02270
 C51 C 0.71126 0.53287 0.03274
 H52 H 0.70887 0.51739 0.04883
 C53 C 0.69507 0.55536 0.03413
 H54 H 0.68017 0.55727 0.05135
 C55 C 0.73304 0.54904 -0.00980
 H56 H 0.74741 0.54627 -0.02721
 C57 C 0.71727 0.57180 -0.00921
 H58 H 0.71976 0.58658 -0.02603
 Zn59 Zn 0.75049 0.49872 0.00974
 N60 N 0.72995 0.53024 0.01113
 C61 C 0.77475 0.51797 0.06299
 N62 N 0.77395 0.49803 0.04200
 C63 C 0.79139 0.47748 0.04235
 C64 C 0.81040 0.47622 0.06461
 C65 C 0.79352 0.51747 0.08568
 C66 C 0.70559 0.46529 -0.01327
 C67 C 0.68568 0.44284 -0.01523
 C68 C 0.70494 0.42516 0.02745
 C69 C 0.72452 0.44794 0.02862
 N70 N 0.72464 0.46731 0.00826
 H71 H 0.76122 0.53449 0.06196
 H72 H 0.79064 0.46221 0.02512
 H73 H 0.82429 0.45985 0.06463
 H74 H 0.79422 0.53348 0.10223
 H75 H 0.70587 0.48119 -0.02890
 H76 H 0.67056 0.44142 -0.03242
 H77 H 0.70490 0.40989 0.04378
 H78 H 0.73936 0.45021 0.04595
 C79 C 0.69813 0.57500 0.01294
 C80 C 0.81096 0.50174 -0.06825
 C81 C 0.68539 0.42259 0.00530
 C82 C 0.81152 0.49642 0.08642
 C83 C -0.02524 0.28381 0.49004
 H84 H -0.04172 0.28466 0.50577
 C85 C -0.02486 0.30060 0.46640
 H86 H -0.04114 0.31442 0.46388
 C87 C 0.01637 0.26508 0.47439
 H88 H 0.03266 0.25159 0.47780
 C89 C 0.01757 0.28153 0.45043
 H90 H 0.03465 0.28042 0.43539
 N91 N -0.00501 0.26628 0.49343
 C92 C -0.04369 0.20193 0.54675
 H93 H -0.02917 0.20264 0.56440
 C94 C -0.06653 0.18229 0.54588
 H95 H -0.06965 0.16780 0.56290
 C96 C -0.05686 0.21917 0.50235
 H97 H -0.05271 0.23307 0.48506
 C98 C -0.07991 0.19989 0.50066
 H99 H -0.09350 0.19918 0.48219
 Zn100 Zn -0.00697 0.24475 0.52645
 N101 N -0.03935 0.21991 0.52520
 C102 C -0.02942 0.26825 0.57718
 N103 N -0.00784 0.26943 0.55822
 C104 C 0.01317 0.28980 0.56006
 C105 C 0.01307 0.31006 0.58166
 C106 C -0.03035 0.28818 0.59914
 C107 C 0.02712 0.20439 0.50733
 C108 C 0.05027 0.18891 0.50679
 C109 C 0.06712 0.21324 0.54981
 C110 C 0.04364 0.22830 0.54956
 N111 N 0.02447 0.22396 0.52822
 H112 H -0.04626 0.25231 0.57494
 H113 H 0.02977 0.29053 0.54436
 H114 H 0.02967 0.32644 0.58268
 H115 H -0.04781 0.28744 0.61386
 H116 H 0.01138 0.20113 0.49085
 H117 H 0.05240 0.17364 0.48985
 H118 H 0.08246 0.21700 0.56666
 H119 H 0.04087 0.24348 0.56632
 C120 C -0.08473 0.18124 0.52255
 C121 C -0.00329 0.29939 0.44638
 C122 C 0.07055 0.19355 0.52809
 C123 C -0.00897 0.30934 0.60125
 C124 C 0.98749 0.71266 0.50856
 H125 H 0.97243 0.70894 0.49148
 C126 C 0.98619 0.69581 0.53218
 H127 H 0.97007 0.67905 0.53337
 C128 C 1.02718 0.73881 0.52774
 H129 H 1.04338 0.75529 0.52575
 C130 C 1.02663 0.72243 0.55174
 H131 H 1.04227 0.72649 0.56826
 N132 N 1.00755 0.73388 0.50693
 C133 C 0.97193 0.79146 0.45069
 H134 H 0.98785 0.79363 0.43433
 C135 C 0.94848 0.80650 0.44943
 H136 H 0.94626 0.82029 0.43203
 C137 C 0.95565 0.77145 0.49385
 H138 H 0.95874 0.75826 0.51147
 C139 C 0.93193 0.78609 0.49340
 H140 H 0.91676 0.78392 0.51052
 Zn141 Zn 1.00781 0.75534 0.47390
 N142 N 0.97498 0.77421 0.47258
 C143 C 0.98954 0.72817 0.42178
 N144 N 1.00985 0.73087 0.44209
 C145 C 1.03136 0.71443 0.44163
 C146 C 1.03303 0.69424 0.42014
 C147 C 0.99040 0.70818 0.39990
 C148 C 1.03900 0.80169 0.49580
 C149 C 1.06131 0.82175 0.49815
 C150 C 1.08238 0.80125 0.45665
 C151 C 1.05964 0.78152 0.45506
 N152 N 1.03873 0.78189 0.47476
 H153 H 0.97224 0.74093 0.42293
 H154 H 1.04690 0.71666 0.45837
 H155 H 1.04994 0.68090 0.42025
 H156 H 0.97387 0.70572 0.38414
 H157 H 1.02193 0.80170 0.51092
 H158 H 1.06144 0.83731 0.51512
 H159 H 1.09903 0.80078 0.44103
 H160 H 1.05875 0.76598 0.43814
 C161 C 0.92832 0.80377 0.47101
 C162 C 1.00589 0.70081 0.55399
 C163 C 1.08326 0.82143 0.47850
 C164 C 1.01225 0.69095 0.39922
 C165 C 0.46029 -0.01310 0.28860
 H166 H 0.47502 -0.02868 0.28883
 C167 C 0.43856 -0.01353 0.30852
 H168 H 0.43646 -0.02954 0.32410
 C169 C 0.44555 0.02739 0.26870
 H170 H 0.44868 0.04364 0.25359
 C171 C 0.42355 0.02772 0.28825
 H172 H 0.40967 0.04409 0.28796
 N173 N 0.46332 0.00709 0.26914
 C174 C 0.51273 -0.02574 0.19969
 H175 H 0.52918 -0.00933 0.19845
 C176 C 0.51266 -0.04846 0.18092
 H177 H 0.52916 -0.04956 0.16519
 C178 C 0.47109 -0.04425 0.22166
 H179 H 0.45478 -0.04240 0.23736
 C180 C 0.47021 -0.06738 0.20327
 H181 H 0.45332 -0.08334 0.20506
 Zn182 Zn 0.49463 0.00738 0.24442
 N183 N 0.49237 -0.02421 0.21980
 C184 C 0.54405 -0.01271 0.26587
 N185 N 0.52671 0.00794 0.26791
 C186 C 0.53075 0.02845 0.28814
 C187 C 0.55307 0.02880 0.30723
 C188 C 0.56659 -0.01313 0.28452
 C189 C 0.47529 0.03977 0.20178
 C190 C 0.47536 0.06177 0.18340
 C191 C 0.51883 0.08059 0.20452
 C192 C 0.51795 0.05821 0.22255
 N193 N 0.49624 0.03849 0.22104
 H194 H 0.54013 -0.02923 0.25023
 H195 H 0.51635 0.04432 0.28966
 H196 H 0.55597 0.04505 0.32345
 H197 H 0.58009 -0.02981 0.28296
 H198 H 0.45852 0.02361 0.20074
 H199 H 0.45855 0.06262 0.16819
 H200 H 0.53615 0.09621 0.20583
 H201 H 0.53471 0.05654 0.23753
 C202 C 0.49129 -0.06956 0.18281
 C203 C 0.42009 0.00712 0.30840
 C204 C 0.49730 0.08238 0.18480
 C205 C 0.57107 0.00775 0.30546
 C206 C 0.53884 -0.02805 0.70852
 H207 H 0.52205 -0.04420 0.70781
 C208 C 0.56074 -0.02854 0.68892
 H209 H 0.56090 -0.04517 0.67312
 C210 C 0.55879 0.01375 0.72950
 H211 H 0.55767 0.03044 0.74499
 C212 C 0.58112 0.01406 0.71022
 H213 H 0.59727 0.03086 0.71107
 N214 N 0.53832 -0.00722 0.72838
 C215 C 0.48443 -0.04182 0.79586
 H216 H 0.46864 -0.02727 0.79687
 C217 C 0.48344 -0.06344 0.81485
 H218 H 0.46679 -0.06565 0.83047
 C219 C 0.52597 -0.05629 0.77493
 H220 H 0.54285 -0.05314 0.75981
 C221 C 0.52575 -0.07817 0.79350
 H222 H 0.54233 -0.09190 0.79241
 Zn223 Zn 0.50661 -0.00789 0.75255
 N224 N 0.50540 -0.03873 0.77632
 C225 C 0.45392 -0.02967 0.72955
 N226 N 0.47508 -0.00943 0.72828
 C227 C 0.47505 0.01052 0.70861
 C228 C 0.45284 0.01108 0.68963
 C229 C 0.43122 -0.02987 0.71090
 C230 C 0.52833 0.02839 0.79627
 C231 C 0.52892 0.05100 0.81534
 C232 C 0.48650 0.06405 0.79391
 C233 C 0.48668 0.04124 0.77528
 N234 N 0.50749 0.02403 0.77665
 H235 H 0.45461 -0.04566 0.74492
 H236 H 0.49233 0.02612 0.70783
 H237 H 0.45293 0.02719 0.67421
 H238 H 0.41435 -0.04590 0.71209
 H239 H 0.54433 0.01412 0.79726
 H240 H 0.54546 0.05425 0.83102
 H241 H 0.46973 0.07750 0.79280
 H242 H 0.46990 0.03711 0.76013
 C243 C 0.50435 -0.08174 0.81368
 C244 C 0.58203 -0.00728 0.68973
 C245 C 0.50776 0.06895 0.81415
 C246 C 0.43068 -0.00923 0.69084
 C247 C 0.23590 0.05233 0.51175
 C248 C 0.25598 0.04809 0.53632
 C249 C 0.26921 0.02449 0.53390
 C250 C 0.26154 0.00743 0.50632
 C251 C 0.25439 0.05105 0.48498
 C252 C 0.26759 0.02746 0.48169
 C253 C 0.21646 0.02601 0.51006
 C254 C 0.22961 0.00255 0.50727
 H255 H 0.26038 0.06321 0.55340
 H256 H 0.27180 -0.01201 0.50429
 H257 H 0.25820 0.06817 0.47099
 H258 H 0.19393 0.02616 0.51027
 C259 C 0.76571 -0.05160 0.48611
 C260 C 0.74734 -0.05029 0.51297
 C261 C 0.73401 -0.02676 0.51621
 C262 C 0.73977 -0.00689 0.49141
 C263 C 0.74548 -0.04765 0.46162
 C264 C 0.73207 -0.02416 0.46399
 C265 C 0.78500 -0.02517 0.48757
 C266 C 0.77169 -0.00179 0.49034
 H267 H 0.74375 -0.06731 0.52713
 H268 H 0.72935 0.01247 0.49333
 H269 H 0.74106 -0.06288 0.44466
 H270 H 0.80754 -0.02519 0.48750
 C271 C 0.45124 0.26847 0.99597
 C272 C 0.45456 0.24776 0.97117
 C273 C 0.47881 0.23513 0.97170
 C274 C 0.49752 0.24418 0.99761
 C275 C 0.45431 0.25145 1.02268
 C276 C 0.47865 0.23891 1.02406
 C277 C 0.47765 0.28802 0.99519
 C278 C 0.50184 0.27558 0.99592
 H279 H 0.43836 0.24233 0.95555
 H280 H 0.51756 0.23455 0.99775
 H281 H 0.43745 0.24775 1.03777
 H282 H 0.47707 0.31011 0.99459
 C283 C 0.54709 0.73145 0.00507
 C284 C 0.54643 0.75049 -0.02042
 C285 C 0.52226 0.76316 -0.02301
 C286 C 0.50116 0.75603 0.00124
 C287 C 0.54156 0.75030 0.03089
 C288 C 0.51751 0.76311 0.02918
 C289 C 0.52075 0.71195 0.00200
 C290 C 0.49674 0.72453 -0.00003
 H291 H 0.56440 0.75488 -0.03397
 H292 H 0.48123 0.76574 -0.00012
 H293 H 0.55658 0.75496 0.04786
 H294 H 0.52118 0.68982 0.00209
 C295 C 1.00333 0.44761 0.27563
 C296 C 0.97732 0.44971 0.25712
 C297 C 0.97813 0.47252 0.24092
 C298 C 1.00567 0.49091 0.24415
 C299 C 1.02735 0.44896 0.25390
 C300 C 1.02899 0.47173 0.23764
 C301 C 1.00695 0.47487 0.29259
 C302 C 1.00818 0.49753 0.27634
 H303 H 0.96047 0.43365 0.25571
 H304 H 1.00699 0.50963 0.23129
 H305 H 1.04103 0.43263 0.25068
 H306 H 1.00758 0.47599 0.31574
 C307 C -0.00371 0.55163 0.72606
 C308 C -0.02803 0.55024 0.74745
 C309 C -0.02987 0.52744 0.76367
 C310 C -0.00647 0.50827 0.75746
 C311 C 0.02204 0.54950 0.74491
 C312 C 0.02102 0.52666 0.76109
 C313 C -0.00712 0.52440 0.70902
 C314 C -0.00859 0.50171 0.72523
 H315 H -0.04163 0.56662 0.75069
 H316 H -0.00798 0.48951 0.77027
 H317 H 0.03888 0.56555 0.74644
 H318 H -0.00752 0.52333 0.68587
 C319 C 0.18942 0.10939 0.49359
 C320 C 0.17956 0.11682 0.52062
 C321 C 0.18958 0.10487 0.54490
 C322 C 0.20892 0.08511 0.54214
 C323 C 0.09480 0.17813 0.52749
 C324 C 0.20875 0.08962 0.49075
 C325 C 0.15735 0.13476 0.52314
 C326 C 0.13807 0.14901 0.52491
 C327 C 0.11491 0.16495 0.52653
 C328 C 0.21899 0.07726 0.51502
 H329 H 0.18135 0.11808 0.47459
 H330 H 0.18164 0.11005 0.56590
 H331 H 0.21497 0.07511 0.56121
 H332 H 0.21455 0.08319 0.46941
 C333 C 0.60174 0.68730 0.03524
 C334 C 0.61423 0.67774 0.01027
 C335 C 0.60627 0.68700 -0.01624
 C336 C 0.58555 0.70536 -0.01784
 C337 C 0.68105 0.59787 0.01330
 C338 C 0.58101 0.70567 0.03371
 C339 C 0.63351 0.65677 0.01162
 C340 C 0.64899 0.63861 0.01249
 C341 C 0.66649 0.61681 0.01314
 C342 C 0.57273 0.71523 0.00714
 H343 H 0.60732 0.67982 0.05584
 H344 H 0.61539 0.67930 -0.03577
 H345 H 0.57881 0.71087 -0.03878
 H346 H 0.57071 0.71139 0.05331
 C347 C 0.81177 -0.10442 0.45291
 C348 C 0.82161 -0.11655 0.47717
 C349 C 0.81194 -0.10895 0.50422
 C350 C 0.79289 -0.08893 0.50710
 C351 C 0.90456 -0.18016 0.47094
 C352 C 0.79269 -0.08440 0.45571
 C353 C 0.84337 -0.13502 0.47460
 C354 C 0.86222 -0.14978 0.47291
 C355 C 0.88487 -0.16640 0.47153
 C356 C 0.78272 -0.07648 0.48285
 H357 H 0.81957 -0.10973 0.43189
 H358 H 0.81990 -0.11777 0.52321
 H359 H 0.78719 -0.08244 0.52846
 H360 H 0.78669 -0.07435 0.43666
 C361 C 0.39458 0.31117 0.96751
 C362 C 0.38380 0.32198 0.99282
 C363 C 0.39350 0.31395 1.01916
 C364 C 0.41429 0.29563 1.02025
 C365 C 0.31777 0.40254 0.99069
 C366 C 0.41537 0.29282 0.96852
 C367 C 0.36459 0.34304 0.99181
 C368 C 0.34926 0.36133 0.99120
 C369 C 0.33202 0.38335 0.99078
 C370 C 0.42543 0.28455 0.99493
 H371 H 0.38764 0.31768 0.94698
 H372 H 0.38573 0.32264 1.03890
 H373 H 0.42242 0.29118 1.04096
 H374 H 0.42435 0.28608 0.94856
 C375 C 0.79453 0.07037 0.51743
 C376 C 0.81958 0.07556 0.50240
 C377 C 0.82792 0.05619 0.48224
 C378 C 0.81183 0.03141 0.47768
 C379 C 0.89280 0.15999 0.52003
 C380 C 0.77828 0.04552 0.51280
 C381 C 0.83770 0.09995 0.50835
 C382 C 0.85414 0.11957 0.51274
 C383 C 0.87457 0.14169 0.51708
 C384 C 0.78711 0.02560 0.49327
 H385 H 0.78793 0.08521 0.53315
 H386 H 0.84721 0.06002 0.47043
 H387 H 0.81891 0.01661 0.46219
 H388 H 0.75947 0.04146 0.52528
 C389 C 0.44151 0.66797 -0.02070
 C390 C 0.41852 0.67574 -0.00497
 C391 C 0.42056 0.70048 0.01109
 C392 C 0.44579 0.71702 0.01196
 C393 C 0.33344 0.60120 -0.00427
 C394 C 0.46667 0.68434 -0.01976
 C395 C 0.39364 0.65727 -0.00430
 C396 C 0.37379 0.64052 -0.00402
 C397 C 0.35161 0.61973 -0.00401
 C398 C 0.46923 0.70876 -0.00301
 H399 H 0.44018 0.64892 -0.03323
 H400 H 0.40290 0.70663 0.02344
 H401 H 0.44728 0.73562 0.02519
 H402 H 0.48425 0.67771 -0.03189
 C403 C 0.20598 -0.06977 0.48124
 C404 C 0.18115 -0.07463 0.49672
 C405 C 0.17324 -0.05500 0.51682
 C406 C 0.18953 -0.03027 0.52086
 C407 C 0.10631 -0.15792 0.48078
 C408 C 0.22244 -0.04497 0.48537
 C409 C 0.16270 -0.09888 0.49124
 C410 C 0.14591 -0.11829 0.48727
 C411 C 0.12499 -0.14005 0.48340
 C412 C 0.21402 -0.02478 0.50481
 H413 H 0.21224 -0.08481 0.46556
 H414 H 0.15412 -0.05857 0.52896
 H415 H 0.18278 -0.01527 0.53632
 H416 H 0.24110 -0.04114 0.47258
 C417 C 0.57663 0.30111 1.01341
 C418 C 0.57996 0.32469 0.99699
 C419 C 0.55841 0.33112 0.97903
 C420 C 0.53335 0.31462 0.97807
 C421 C 0.66445 0.39979 1.00409
 C422 C 0.55148 0.28442 1.01238
 C423 C 0.60460 0.34341 0.99949
 C424 C 0.62428 0.36031 1.00122
 C425 C 0.64633 0.38122 1.00290
 C426 C 0.52942 0.29139 0.99513
 H427 H 0.59316 0.29599 1.02748
 H428 H 0.56076 0.34927 0.96619
 H429 H 0.51688 0.32021 0.96420
 H430 H 0.54892 0.26676 1.02586
 C431 C 0.47529 0.20412 1.09604
 C432 C 0.49332 0.18339 1.09151
 C433 C 0.50807 0.18193 1.06580
 C434 C 0.50410 0.20051 1.04431
 C435 C 0.49776 0.10502 1.16572
 C436 C 0.47128 0.22271 1.07457
 C437 C 0.49559 0.16277 1.11258
 C438 C 0.49685 0.14499 1.12976
 C439 C 0.49763 0.12363 1.14937
 C440 C 0.48498 0.22069 1.04795
 H441 H 0.46395 0.20564 1.11599
 H442 H 0.52224 0.16606 1.06210
 H443 H 0.51564 0.19833 1.02476
 H444 H 0.45727 0.23853 1.07898
 C445 C -0.02465 0.60775 0.67662
 C446 C 0.00093 0.61607 0.66399
 C447 C 0.02508 0.60431 0.67221
 C448 C 0.02367 0.58418 0.69286
 C449 C 0.00503 0.68351 0.57835
 C450 C -0.02613 0.58761 0.69729
 C451 C 0.00213 0.63534 0.64128
 C452 C 0.00310 0.65096 0.62179
 C453 C 0.00419 0.66871 0.59853
 C454 C -0.00189 0.57581 0.70613
 H455 H -0.04359 0.61630 0.66993
 H456 H 0.04491 0.61018 0.66212
 H457 H 0.04252 0.57459 0.69777
 H458 H -0.04647 0.58072 0.70551
 C459 C 0.52960 0.80015 -0.09367
 C460 C 0.51045 0.82001 -0.09010
 C461 C 0.49423 0.82057 -0.06530
 C462 C 0.49756 0.80180 -0.04384
 C463 C 0.50451 0.89651 -0.16622
 C464 C 0.53299 0.78136 -0.07223
 C465 C 0.50807 0.84035 -0.11144
 C466 C 0.50649 0.85776 -0.12898
 C467 C 0.50517 0.87852 -0.14919
 C468 C 0.51747 0.78226 -0.04660
 H469 H 0.54210 0.79933 -0.11293
 H470 H 0.47920 0.83577 -0.06235
 H471 H 0.48472 0.80320 -0.02507
 H472 H 0.54777 0.76612 -0.07599
 C473 C 1.02597 0.39291 0.32577
 C474 C 1.00050 0.38330 0.33778
 C475 C 0.97584 0.39374 0.32893
 C476 C 0.97662 0.41383 0.30825
 C477 C 0.99763 0.31586 0.42338
 C478 C 1.02683 0.41300 0.30507
 C479 C 0.99982 0.36407 0.36050
 C480 C 0.99919 0.34846 0.37998
 C481 C 0.99839 0.33069 0.40323
 C482 C 1.00210 0.42346 0.29557
 H483 H 1.04527 0.38540 0.33294
 H484 H 0.95605 0.38688 0.33857
 H485 H 0.95732 0.42240 0.30295
 H486 H 1.04702 0.42092 0.29726
 C487 C 0.49069 0.82699 0.06404
 C488 C 0.49859 0.82445 0.09251
 C489 C 0.51122 0.80109 0.10062
 C490 C 0.51660 0.78071 0.08021
 C491 C 0.49123 0.90796 0.16487
 C492 C 0.49605 0.80664 0.04363
 C493 C 0.49529 0.84659 0.11291
 C494 C 0.49330 0.86559 0.12961
 C495 C 0.49181 0.88828 0.14878
 C496 C 0.50952 0.78348 0.05131
 H497 H 0.48103 0.84506 0.05746
 H498 H 0.51742 0.79887 0.12261
 H499 H 0.52656 0.76292 0.08701
 H500 H 0.49060 0.80969 0.02173
 C501 C 0.00224 0.42658 0.71098
 C502 C -0.01347 0.42106 0.68603
 C503 C -0.02858 0.44149 0.67477
 C504 C -0.02751 0.46754 0.68793
 C505 C -0.01038 0.33135 0.62214
 C506 C 0.00327 0.45268 0.72427
 C507 C -0.01287 0.39515 0.67075
 C508 C -0.01224 0.37422 0.65660
 C509 C -0.01134 0.35066 0.63861
 C510 C -0.01125 0.47353 0.71257
 H511 H 0.01417 0.41095 0.71976
 H512 H -0.04078 0.43745 0.65547
 H513 H -0.03925 0.48307 0.67870
 H514 H 0.01620 0.45681 0.74304
 C515 C 0.48216 0.19566 0.90077
 C516 C 0.49654 0.17324 0.90844
 C517 C 0.50598 0.17152 0.93651
 C518 C 0.50068 0.19189 0.95694
 C519 C 0.50710 0.09180 0.83421
 C520 C 0.47683 0.21604 0.92119
 C521 C 0.50057 0.15142 0.88787
 C522 C 0.50331 0.13284 0.87084
 C523 C 0.50575 0.11080 0.85104
 C524 C 0.48574 0.21423 0.94966
 H525 H 0.47478 0.19724 0.87908
 H526 H 0.51702 0.15418 0.94275
 H527 H 0.50756 0.18959 0.97853
 H528 H 0.46570 0.23320 0.91468
 C529 C 1.02853 0.55791 0.32647
 C530 C 1.01328 0.57829 0.31530
 C531 C 0.99730 0.57266 0.29055
 C532 C 0.99617 0.54652 0.27735
 C533 C 1.01240 0.66864 0.37852
 C534 C 1.02736 0.53182 0.31340
 C535 C 1.01297 0.60431 0.33041
 C536 C 1.01275 0.62537 0.34440
 C537 C 1.01255 0.64913 0.36220
 C538 C 1.01086 0.52574 0.28894
 H539 H 1.04096 0.56205 0.34561
 H540 H 0.98528 0.58825 0.28184
 H541 H 0.98305 0.54231 0.25873
 H542 H 1.03924 0.51635 0.32254
 C543 C 1.09896 0.47262 0.19954
 C544 C 1.09352 0.48642 0.17467
 C545 C 1.06724 0.49601 0.17065
 C546 C 1.04636 0.49154 0.19124
 C547 C 1.16915 0.49707 0.09346
 C548 C 1.07810 0.46811 0.22014
 C549 C 1.11460 0.49005 0.15291
 C550 C 1.13203 0.49267 0.13441
 C551 C 1.15218 0.49527 0.11246
 C552 C 1.05139 0.47726 0.21610
 H553 H 1.11928 0.46518 0.20293
 H554 H 1.06277 0.50668 0.15143
 H555 H 1.02621 0.49875 0.18724
 H556 H 1.08298 0.45759 0.23930
 C557 C 0.70163 -0.02983 0.59053
 C558 C 0.67948 -0.01328 0.58770
 C559 C 0.67579 -0.00021 0.56197
 C560 C 0.69379 -0.00411 0.53895
 C561 C 0.60424 -0.00721 0.66900
 C562 C 0.71965 -0.03377 0.56753
 C563 C 0.65981 -0.01067 0.61070
 C564 C 0.64281 -0.00902 0.62954
 C565 C 0.62229 -0.00774 0.65109
 C566 C 0.71567 -0.02138 0.54117
 H567 H 0.70480 -0.03995 0.61042
 H568 H 0.65870 0.01267 0.55952
 H569 H 0.68997 0.00596 0.51937
 H570 H 0.73671 -0.04652 0.57054
 C571 C -0.06857 0.50326 0.83044
 C572 C -0.09476 0.51299 0.82632
 C573 C -0.10003 0.52683 0.80142
 C574 C -0.07906 0.53124 0.78091
 C575 C -0.16966 0.50308 0.90825
 C576 C -0.04759 0.50764 0.80995
 C577 C -0.11585 0.50955 0.84808
 C578 C -0.13318 0.50708 0.86669
 C579 C -0.15305 0.50468 0.88891
 C580 C -0.05243 0.52196 0.78507
 H581 H -0.06423 0.49258 0.84969
 H582 H -0.12028 0.53439 0.79796
 H583 H -0.08380 0.54181 0.76173
 H584 H -0.02750 0.50034 0.81406
 C585 C 0.30100 0.03116 0.40786
 C586 C 0.32314 0.01461 0.41088
 C587 C 0.32647 0.00133 0.43656
 C588 C 0.30812 0.00501 0.45933
 C589 C 0.39838 0.00785 0.32962
 C590 C 0.28264 0.03488 0.43062
 C591 C 0.34303 0.01206 0.38808
 C592 C 0.36010 0.01035 0.36931
 C593 C 0.38056 0.00881 0.34773
 C594 C 0.28625 0.02226 0.45693
 H595 H 0.29809 0.04141 0.38801
 H596 H 0.34352 -0.01157 0.43914
 H597 H 0.31167 -0.00521 0.47889
 H598 H 0.26561 0.04763 0.42749
 C599 C 0.06066 0.50079 0.82371
 C600 C 0.08788 0.51162 0.81810
 C601 C 0.09353 0.52636 0.79330
 C602 C 0.07193 0.53077 0.77450
 C603 C 0.16604 0.50333 0.89488
 C604 C 0.03904 0.50516 0.80493
 C605 C 0.10974 0.50853 0.83838
 C606 C 0.12778 0.50645 0.85579
 C607 C 0.14857 0.50455 0.87666
 C608 C 0.04424 0.52066 0.78033
 H609 H 0.05605 0.48931 0.84286
 H610 H 0.11457 0.53471 0.78865
 H611 H 0.07703 0.54208 0.75539
 H612 H 0.01829 0.49690 0.81024
 C613 C 0.69558 -0.01848 0.39278
 C614 C 0.67231 -0.00471 0.40096
 C615 C 0.66912 0.00369 0.42953
 C616 C 0.68882 -0.00210 0.44993
 C617 C 0.59337 0.00677 0.32576
 C618 C 0.71527 -0.02431 0.41316
 C619 C 0.65114 -0.00033 0.38028
 C620 C 0.63316 0.00261 0.36301
 C621 C 0.61182 0.00524 0.34287
 C622 C 0.71192 -0.01655 0.44212
 H623 H 0.69833 -0.02503 0.37071
 H624 H 0.65114 0.01430 0.43613
 H625 H 0.68541 0.00407 0.47186
 H626 H 0.73311 -0.03492 0.40619
 C627 C 0.90511 0.47327 0.21011
 C628 C 0.91043 0.48783 0.18514
 C629 C 0.93762 0.49835 0.17893
 C630 C 0.95953 0.49385 0.19730
 C631 C 0.83173 0.49581 0.10893
 C632 C 0.92701 0.46874 0.22851
 C633 C 0.88826 0.49094 0.16523
 C634 C 0.87004 0.49300 0.14801
 C635 C 0.84915 0.49479 0.12722
 C636 C 0.95465 0.47856 0.22207
 H637 H 0.88410 0.46513 0.21522
 H638 H 0.94198 0.50965 0.15962
 H639 H 0.98026 0.50184 0.19153
 H640 H 0.92218 0.45757 0.24776
 C641 C 0.33113 -0.00486 0.56876
 C642 C 0.32799 0.00365 0.59730
 C643 C 0.30509 0.01801 0.60534
 C644 C 0.28570 0.02432 0.58485
 C645 C 0.40758 -0.00856 0.67146
 C646 C 0.31175 0.00141 0.54824
 C647 C 0.34901 -0.00110 0.61800
 C648 C 0.36705 -0.00429 0.63513
 C649 C 0.38867 -0.00707 0.65489
 C650 C 0.28903 0.01647 0.55590
 H651 H 0.34885 -0.01590 0.56225
 H652 H 0.30240 0.02466 0.62739
 H653 H 0.26813 0.03536 0.59173
 H654 H 0.31513 -0.00490 0.52636
   
