data_POSCAR
  _audit_creation_date              2014-09-24
  _audit_creation_method            'ToBaCCo'
  _symmetry_space_group_name_H-M    'P1'
  _symmetry_Int_Tables_number       1
  _symmetry_cell_setting            triclinic
  loop_
  _symmetry_equiv_pos_as_xyz
 x,y,z
_cell_length_a 19.9704
_cell_length_b 19.2506
_cell_length_c 25.0421
_cell_angle_alpha 89.605300
_cell_angle_beta 89.805800
_cell_angle_gamma 90.096500
loop_
  _atom_site_label
  _atom_site_type_symbol
  _atom_site_fract_x
  _atom_site_fract_y
  _atom_site_fract_z
O1 O 0.10144 0.01556 0.07177
 O2 O -0.12899 -0.07193 0.04195
 O3 O -0.05324 0.14001 0.04118
 O4 O 0.07911 -0.10868 0.04825
 O5 O -0.11626 0.05334 0.06771
 O6 O 0.16941 -0.06311 0.01405
 O7 O -0.03514 -0.11355 0.06742
 O8 O 0.06725 0.11924 0.05072
 C9 C 0.09398 0.07805 0.08399
 C10 C -0.09602 -0.10749 0.07416
 C11 C -0.09608 0.11446 0.07362
 C12 C 0.14187 -0.11336 0.04129
 O13 O 0.10433 -0.02444 -0.06945
 O14 O -0.12938 0.08924 -0.03084
 O15 O 0.07304 0.10222 -0.05948
 O16 O -0.06860 -0.12820 -0.03779
 O17 O -0.12690 -0.03536 -0.05789
 O18 O 0.15301 0.06961 -0.01316
 O19 O 0.05171 -0.11986 -0.05885
 O20 O -0.03779 0.11936 -0.06714
 Co21 Co 0.09856 -0.00647 0.00124
 Co22 Co -0.11346 0.00832 0.00456
 Co23 Co 0.01162 0.11155 -0.00774
 Co24 Co 0.00620 -0.10697 0.00375
 O25 O -0.00324 0.00482 -0.00075
 C26 C 0.08831 -0.08190 -0.08713
 C27 C -0.09924 0.11742 -0.06847
 C28 C 0.13373 0.10696 -0.05071
 C29 C -0.11340 -0.09794 -0.06542
 O30 O 0.41111 0.36714 0.46629
 O31 O 0.58179 0.63206 0.47494
 O32 O 0.37635 0.58071 0.45496
 O33 O 0.61804 0.42054 0.45748
 O34 O 0.47248 0.62382 0.43609
 O35 O 0.52389 0.38148 0.43027
 O36 O 0.61212 0.53942 0.43822
 O37 O 0.38357 0.46287 0.43252
 C38 C 0.38368 0.39927 0.42926
 C39 C 0.60853 0.60309 0.43627
 C40 C 0.41358 0.61395 0.42313
 C41 C 0.58443 0.39126 0.42189
 O42 O 0.57114 0.35992 0.52917
 O43 O 0.41783 0.63586 0.53253
 O44 O 0.36855 0.42543 0.54019
 O45 O 0.62066 0.56821 0.54643
 O46 O 0.52848 0.61366 0.57269
 O47 O 0.46006 0.37765 0.56513
 O48 O 0.60538 0.45123 0.56524
 O49 O 0.38084 0.54145 0.56270
 Co50 Co 0.49199 0.38458 0.49787
 Co51 Co 0.49962 0.61339 0.50393
 Co52 Co 0.38806 0.50232 0.49776
 Co53 Co 0.60331 0.49513 0.50165
 O54 O 0.49568 0.49891 0.50024
 C55 C 0.59834 0.38805 0.56785
 C56 C 0.38470 0.60465 0.56717
 C57 C 0.40087 0.39193 0.57489
 C58 C 0.58793 0.59884 0.58201
 C59 C 0.16267 0.06456 0.16723
 C60 C 0.19600 0.09423 0.21061
 C61 C 0.18929 0.16520 0.22129
 C62 C 0.14606 0.20563 0.18975
 C63 C 0.11254 0.17611 0.14673
 C64 C 0.12182 0.10573 0.13414
 N65 N 0.22883 0.19593 0.26256
 N66 N 0.23126 0.26153 0.26835
 C67 C 0.27086 0.29443 0.30843
 C68 C 0.27178 0.36701 0.31043
 C69 C 0.30941 0.40123 0.34912
 C70 C 0.34664 0.36312 0.38672
 C71 C 0.34631 0.29015 0.38429
 C72 C 0.30874 0.25599 0.34540
 H73 H 0.17078 0.01018 0.15848
 H74 H 0.22894 0.06244 0.23478
 H75 H 0.13934 0.26042 0.19753
 H76 H 0.08098 0.20908 0.12228
 H77 H 0.24297 0.39713 0.28199
 H78 H 0.30872 0.45747 0.34999
 H79 H 0.37466 0.25951 0.41270
 H80 H 0.30897 0.19978 0.34445
 C81 C 0.90276 0.79703 0.14157
 C82 C 0.87099 0.75949 0.18212
 C83 C 0.80761 0.77926 0.20007
 C84 C 0.77552 0.83677 0.17672
 C85 C 0.80677 0.87374 0.13545
 C86 C 0.87074 0.85422 0.11771
 N87 N 0.77693 0.73979 0.24187
 N88 N 0.72548 0.76118 0.26675
 C89 C 0.69533 0.72036 0.30809
 C90 C 0.65023 0.75185 0.34312
 C91 C 0.62224 0.71377 0.38523
 C92 C 0.63803 0.64317 0.39198
 C93 C 0.68204 0.61120 0.35597
 C94 C 0.71095 0.64965 0.31454
 H95 H 0.95198 0.78073 0.12839
 H96 H 0.89595 0.71515 0.19989
 H97 H 0.72626 0.85264 0.19000
 H98 H 0.78128 0.91779 0.11771
 H99 H 0.63775 0.80625 0.33831
 H100 H 0.58799 0.73938 0.41230
 H101 H 0.69478 0.55678 0.36025
 H102 H 0.74533 0.62416 0.28754
 C103 C 0.89669 0.20419 0.85785
 C104 C 0.86294 0.23752 0.81649
 C105 C 0.79744 0.21838 0.80392
 C106 C 0.76510 0.16595 0.83359
 C107 C 0.79844 0.13334 0.87581
 C108 C 0.86461 0.15211 0.88801
 N109 N 0.76493 0.25427 0.76142
 N110 N 0.71092 0.23316 0.74025
 C111 C 0.68060 0.27274 0.69842
 C112 C 0.63352 0.24144 0.66498
 C113 C 0.60651 0.27870 0.62203
 C114 C 0.62558 0.34808 0.61292
 C115 C 0.67123 0.37977 0.64755
 C116 C 0.69883 0.34239 0.68969
 H117 H 0.94763 0.21971 0.86663
 H118 H 0.88800 0.27811 0.79386
 H119 H 0.71418 0.15085 0.82451
 H120 H 0.77296 0.09302 0.89844
 H121 H 0.61893 0.18785 0.67154
 H122 H 0.57075 0.25349 0.59611
 H123 H 0.68651 0.43323 0.64158
 H124 H 0.73458 0.36795 0.71539
 C125 C 0.15958 0.93459 0.83114
 C126 C 0.19313 0.90674 0.78707
 C127 C 0.18321 0.83730 0.77285
 C128 C 0.13616 0.79702 0.80130
 C129 C 0.10228 0.82485 0.84502
 C130 C 0.11512 0.89324 0.86138
 N131 N 0.22402 0.80752 0.73179
 N132 N 0.22415 0.74232 0.72372
 C133 C 0.26534 0.70985 0.68428
 C134 C 0.26352 0.63750 0.68038
 C135 C 0.30316 0.60339 0.64287
 C136 C 0.34529 0.64132 0.60826
 C137 C 0.34752 0.71410 0.61242
 C138 C 0.30785 0.74822 0.65026
 H139 H 0.17043 0.98751 0.84279
 H140 H 0.22900 0.93843 0.76535
 H141 H 0.12702 0.74340 0.79076
 H142 H 0.06817 0.79180 0.86737
 H143 H 0.23118 0.60743 0.70657
 H144 H 0.30031 0.54729 0.64067
 H145 H 0.37956 0.74456 0.58626
 H146 H 0.31022 0.80428 0.65277
 C147 C 0.24460 0.14192 0.91965
 C148 C 0.28443 0.17601 0.88098
 C149 C 0.25471 0.21329 0.83885
 C150 C 0.18469 0.21737 0.83662
 C151 C 0.14518 0.18315 0.87435
 C152 C 0.17415 0.14370 0.91606
 N153 N 0.29533 0.24430 0.79746
 N154 N 0.26839 0.28021 0.76035
 C155 C 0.30416 0.31030 0.71611
 C156 C 0.26846 0.35082 0.67933
 C157 C 0.29993 0.37800 0.63380
 C158 C 0.36801 0.36482 0.62403
 C159 C 0.40420 0.32500 0.66153
 C160 C 0.37255 0.29789 0.70723
 H161 H 0.26898 0.11252 0.95107
 H162 H 0.33843 0.17244 0.88337
 H163 H 0.16007 0.24583 0.80487
 H164 H 0.09130 0.18705 0.87003
 H165 H 0.21566 0.36063 0.68569
 H166 H 0.27076 0.40873 0.60598
 H167 H 0.45685 0.31420 0.65529
 H168 H 0.40111 0.26655 0.73502
 C169 C 0.78789 0.89505 0.87412
 C170 C 0.74810 0.86052 0.83718
 C171 C 0.76578 0.79458 0.81926
 C172 C 0.82413 0.76281 0.83929
 C173 C 0.86395 0.79720 0.87701
 C174 C 0.84630 0.86396 0.89461
 N175 N 0.72409 0.76248 0.77997
 N176 N 0.73930 0.70584 0.75710
 C177 C 0.69756 0.67618 0.71666
 C178 C 0.72298 0.62194 0.68592
 C179 C 0.68639 0.59599 0.64302
 C180 C 0.62284 0.62300 0.63056
 C181 C 0.59592 0.67547 0.66287
 C182 C 0.63322 0.70230 0.70539
 H183 H 0.77239 0.94621 0.88693
 H184 H 0.70345 0.88557 0.82202
 H185 H 0.83881 0.71169 0.82588
 H186 H 0.90857 0.77197 0.89205
 H187 H 0.77232 0.60130 0.69413
 H188 H 0.70857 0.55563 0.61886
 H189 H 0.54718 0.69731 0.65418
 H190 H 0.61230 0.74408 0.72881
 C191 C 0.14793 0.78136 0.09909
 C192 C 0.17745 0.74323 0.14030
 C193 C 0.23991 0.76237 0.16038
 C194 C 0.27450 0.81848 0.13650
 C195 C 0.24500 0.85669 0.09472
 C196 C 0.18048 0.83954 0.07667
 N197 N 0.26437 0.72666 0.20691
 N198 N 0.31976 0.74163 0.22907
 C199 C 0.34206 0.70744 0.27699
 C200 C 0.40593 0.72260 0.29636
 C201 C 0.42883 0.69199 0.34361
 C202 C 0.38793 0.64582 0.37304
 C203 C 0.32365 0.63047 0.35360
 C204 C 0.30092 0.66086 0.30586
 H205 H 0.09812 0.76695 0.08632
 H206 H 0.15028 0.70018 0.15817
 H207 H 0.32301 0.83428 0.15132
 H208 H 0.27093 0.90170 0.07870
 H209 H 0.43809 0.75847 0.27476
 H210 H 0.47862 0.70499 0.35730
 H211 H 0.29114 0.59492 0.37517
 H212 H 0.25112 0.64846 0.29186
 C213 C 0.89695 0.22262 0.12205
 C214 C 0.86523 0.26283 0.16127
 C215 C 0.81242 0.23516 0.19173
 C216 C 0.79347 0.16581 0.18412
 C217 C 0.82556 0.12526 0.14595
 C218 C 0.87699 0.15320 0.11323
 N219 N 0.77865 0.27746 0.23036
 N220 N 0.72141 0.25991 0.24868
 C221 C 0.68655 0.29790 0.28917
 C222 C 0.62025 0.27962 0.30116
 C223 C 0.58600 0.31168 0.34308
 C224 C 0.61811 0.36194 0.37438
 C225 C 0.68425 0.38139 0.36150
 C226 C 0.71814 0.34990 0.31906
 H227 H 0.93656 0.24629 0.09845
 H228 H 0.88089 0.31610 0.16714
 H229 H 0.75364 0.14274 0.20776
 H230 H 0.80848 0.07214 0.14148
 H231 H 0.59543 0.23947 0.27846
 H232 H 0.53517 0.29556 0.35203
 H233 H 0.71016 0.42020 0.38480
 H234 H 0.76943 0.36471 0.31064
   
