data_POSCAR
  _audit_creation_date              2014-09-24
  _audit_creation_method            'ToBaCCo'
  _symmetry_space_group_name_H-M    'P1'
  _symmetry_Int_Tables_number       1
  _symmetry_cell_setting            triclinic
  loop_
  _symmetry_equiv_pos_as_xyz
 x,y,z
_cell_length_a 15.1080
_cell_length_b 15.0811
_cell_length_c 20.6833
_cell_angle_alpha 90.000000
_cell_angle_beta 89.730000
_cell_angle_gamma 90.000000
loop_
  _atom_site_label
  _atom_site_type_symbol
  _atom_site_fract_x
  _atom_site_fract_y
  _atom_site_fract_z
O1 O 0.15113 0.04787 0.07943
 O2 O -0.15106 -0.04387 0.08064
 O3 O -0.04593 0.15353 0.08036
 O4 O 0.04572 -0.14932 0.08006
 O5 O -0.16830 0.10500 0.04569
 O6 O 0.16829 -0.10071 0.04463
 O7 O -0.10280 -0.16624 0.04486
 O8 O 0.10272 0.17047 0.04446
 C9 C 0.13992 0.12774 0.08836
 C10 C -0.13984 -0.12382 0.08920
 C11 C -0.12602 0.14324 0.08952
 C12 C 0.12566 -0.13870 0.08858
 O13 O 0.15106 -0.04387 -0.08065
 O14 O -0.15113 0.04787 -0.07945
 O15 O 0.04594 0.15353 -0.08037
 O16 O -0.04572 -0.14932 -0.08008
 O17 O -0.16829 -0.10071 -0.04465
 O18 O 0.16830 0.10500 -0.04571
 O19 O 0.10280 -0.16624 -0.04488
 O20 O -0.10272 0.17047 -0.04448
 Co21 Co 0.14438 0.00207 -0.00056
 Co22 Co -0.14437 0.00207 0.00054
 Co23 Co 0.00000 0.14673 -0.00001
 Co24 Co 0.00000 -0.14252 -0.00001
 O25 O 0.00000 0.00209 -0.00001
 C26 C 0.13984 -0.12382 -0.08922
 C27 C -0.13991 0.12774 -0.08837
 C28 C 0.12602 0.14324 -0.08954
 C29 C -0.12566 -0.13869 -0.08860
 O30 O 0.45269 0.34623 0.42009
 O31 O 0.54740 0.64958 0.41985
 O32 O 0.34827 0.54357 0.41972
 O33 O 0.65185 0.45238 0.41881
 O34 O 0.39844 0.66627 0.45438
 O35 O 0.60166 0.32957 0.45368
 O36 O 0.66909 0.60132 0.45620
 O37 O 0.33109 0.39462 0.45727
 C38 C 0.37287 0.35821 0.41266
 C39 C 0.62733 0.63824 0.41208
 C40 C 0.36078 0.62342 0.41091
 C41 C 0.63949 0.37250 0.41004
 O42 O 0.54731 0.34623 0.57989
 O43 O 0.45260 0.64958 0.58013
 O44 O 0.34815 0.45238 0.58118
 O45 O 0.65173 0.54357 0.58026
 O46 O 0.60157 0.66627 0.54560
 O47 O 0.39834 0.32957 0.54630
 O48 O 0.66891 0.39462 0.54272
 O49 O 0.33091 0.60132 0.54379
 Co50 Co 0.50000 0.35317 0.49999
 Co51 Co 0.50000 0.64262 0.49999
 Co52 Co 0.35510 0.49797 0.50043
 Co53 Co 0.64491 0.49797 0.49955
 O54 O 0.50000 0.49793 0.49999
 C55 C 0.62713 0.35821 0.58732
 C56 C 0.37267 0.63824 0.58790
 C57 C 0.36052 0.37250 0.58995
 C58 C 0.63922 0.62342 0.58908
 C59 C 0.25132 0.25133 0.25577
 C60 C 0.20547 0.30285 0.21060
 C61 C 0.16824 0.26285 0.15604
 C62 C 0.17686 0.17099 0.14626
 C63 C 0.22210 0.11985 0.19242
 C64 C 0.25911 0.15984 0.24669
 C65 C 0.29231 0.29159 0.31097
 C66 C 0.32842 0.32287 0.35743
 H67 H 0.19909 0.37381 0.21731
 H68 H 0.13334 0.30365 0.12142
 H69 H 0.22952 0.04887 0.18639
 H70 H 0.29443 0.11943 0.28138
 C71 C 0.74906 0.74962 0.25620
 C72 C 0.79568 0.69918 0.21053
 C73 C 0.83283 0.74027 0.15617
 C74 C 0.82337 0.83217 0.14706
 C75 C 0.77742 0.88230 0.19373
 C76 C 0.74045 0.84118 0.24785
 C77 C 0.70802 0.70797 0.31108
 C78 C 0.67189 0.67524 0.35722
 H79 H 0.80269 0.62819 0.21668
 H80 H 0.86830 0.70023 0.12115
 H81 H 0.76937 0.95328 0.18817
 H82 H 0.70449 0.88074 0.28296
 C83 C 0.74869 0.25133 0.74421
 C84 C 0.74089 0.15984 0.75329
 C85 C 0.77790 0.11985 0.80757
 C86 C 0.82314 0.17099 0.85373
 C87 C 0.83176 0.26285 0.84395
 C88 C 0.79453 0.30285 0.78938
 C89 C 0.70769 0.29159 0.68902
 C90 C 0.67158 0.32287 0.64255
 H91 H 0.70557 0.11943 0.71860
 H92 H 0.77048 0.04887 0.81360
 H93 H 0.86666 0.30365 0.87856
 H94 H 0.80091 0.37381 0.78267
 C95 C 0.25094 0.74962 0.74379
 C96 C 0.25956 0.84118 0.75213
 C97 C 0.22258 0.88230 0.80626
 C98 C 0.17663 0.83217 0.85292
 C99 C 0.16717 0.74027 0.84381
 C100 C 0.20432 0.69918 0.78945
 C101 C 0.29198 0.70797 0.68891
 C102 C 0.32812 0.67524 0.64277
 H103 H 0.29551 0.88074 0.71703
 H104 H 0.23063 0.95328 0.81181
 H105 H 0.13170 0.70023 0.87884
 H106 H 0.19732 0.62819 0.78330
 C107 C 0.24912 0.25239 0.74753
 C108 C 0.29935 0.20612 0.79317
 C109 C 0.25839 0.16872 0.84765
 C110 C 0.16618 0.17731 0.85743
 C111 C 0.11645 0.22320 0.81033
 C112 C 0.15767 0.26034 0.75617
 C113 C 0.29076 0.29321 0.69217
 C114 C 0.32346 0.32883 0.64557
 H115 H 0.37027 0.19941 0.78688
 H116 H 0.29926 0.13365 0.88216
 H117 H 0.04544 0.23126 0.81529
 H118 H 0.11808 0.29587 0.72112
 C119 C 0.74912 0.74504 0.74573
 C120 C 0.84049 0.73689 0.75448
 C121 C 0.88105 0.77541 0.80811
 C122 C 0.83067 0.82262 0.85404
 C123 C 0.73893 0.83140 0.84463
 C124 C 0.69840 0.79271 0.79075
 C125 C 0.70811 0.70335 0.69079
 C126 C 0.67586 0.66726 0.64447
 H127 H 0.88044 0.70030 0.71997
 H128 H 0.95187 0.76769 0.81382
 H129 H 0.69859 0.86769 0.87902
 H130 H 0.62760 0.79957 0.78439
 C131 C 0.25088 0.74504 0.25426
 C132 C 0.30160 0.79271 0.20924
 C133 C 0.26107 0.83140 0.15535
 C134 C 0.16933 0.82262 0.14594
 C135 C 0.11896 0.77541 0.19187
 C136 C 0.15951 0.73689 0.24550
 C137 C 0.29189 0.70335 0.30919
 C138 C 0.32414 0.66726 0.35552
 H139 H 0.37241 0.79957 0.21560
 H140 H 0.30141 0.86769 0.12097
 H141 H 0.04813 0.76769 0.18616
 H142 H 0.11956 0.70030 0.28001
 C143 C 0.75088 0.25239 0.25245
 C144 C 0.70065 0.20612 0.20681
 C145 C 0.74161 0.16872 0.15233
 C146 C 0.83382 0.17731 0.14255
 C147 C 0.88355 0.22320 0.18966
 C148 C 0.84233 0.26034 0.24382
 C149 C 0.70925 0.29321 0.30782
 C150 C 0.67654 0.32883 0.35442
 H151 H 0.62974 0.19941 0.21310
 H152 H 0.70074 0.13365 0.11783
 H153 H 0.95456 0.23126 0.18470
 H154 H 0.88192 0.29587 0.27887
   
