data_POSCAR
  _audit_creation_date              2014-09-24
  _audit_creation_method            'ToBaCCo'
  _symmetry_space_group_name_H-M    'P1'
  _symmetry_Int_Tables_number       1
  _symmetry_cell_setting            triclinic
  loop_
  _symmetry_equiv_pos_as_xyz
 x,y,z
_cell_length_a 30.0307
_cell_length_b 28.6944
_cell_length_c 52.1850
_cell_angle_alpha 87.931500
_cell_angle_beta 95.201700
_cell_angle_gamma 85.450100
loop_
  _atom_site_label
  _atom_site_type_symbol
  _atom_site_fract_x
  _atom_site_fract_y
  _atom_site_fract_z
C1 C -0.03548 0.39068 1.01807
 C2 C -0.03947 0.37198 0.99353
 C3 C -0.03441 0.39865 0.97125
 C4 C -0.02817 0.44672 0.97293
 C5 C -0.02436 0.46697 0.99734
 C6 C -0.02777 0.43894 1.02004
 C7 C -0.02599 0.46077 1.04377
 C8 C -0.01845 0.50772 1.04545
 C9 C -0.01612 0.53650 1.02330
 C10 C -0.01793 0.51560 0.99896
 C11 C -0.02756 0.47538 0.95065
 C12 C -0.02131 0.52261 0.95221
 C13 C -0.01400 0.54318 0.97615
 C14 C -0.00613 0.59127 0.97787
 C15 C -0.00453 0.61086 1.00216
 C16 C -0.01022 0.58509 1.02484
 H17 H -0.03104 0.44227 1.06150
 H18 H -0.01433 0.52090 1.06456
 H19 H -0.03305 0.46174 0.93165
 H20 H -0.02352 0.54291 0.93424
 H21 H -0.04350 0.33493 0.99178
 H22 H 0.00083 0.64767 1.00341
 C23 C 0.59197 0.04948 0.47714
 C24 C 0.61685 0.05633 0.50043
 C25 C 0.59779 0.05518 0.52408
 C26 C 0.55084 0.05052 0.52386
 C27 C 0.52513 0.04366 0.50025
 C28 C 0.54583 0.04282 0.47687
 C29 C 0.51962 0.03655 0.45371
 C30 C 0.47413 0.03051 0.45348
 C31 C 0.45273 0.03175 0.47630
 C32 C 0.47835 0.03845 0.49992
 C33 C 0.52819 0.05602 0.54619
 C34 C 0.48247 0.05084 0.54588
 C35 C 0.45710 0.04083 0.52311
 C36 C 0.41064 0.03503 0.52263
 C37 C 0.38620 0.02762 0.49922
 C38 C 0.40631 0.02650 0.47614
 H39 H 0.53390 0.03659 0.43542
 H40 H 0.45583 0.02514 0.43514
 H41 H 0.54527 0.06570 0.56410
 H42 H 0.46709 0.05563 0.56366
 H43 H 0.65261 0.05916 0.50015
 H44 H 0.35055 0.02342 0.49889
 C45 C 0.06143 -0.03861 0.26759
 H46 H 0.06194 -0.04378 0.24718
 C47 C 0.10172 -0.03767 0.28317
 H48 H 0.13327 -0.04223 0.27466
 C49 C 0.01962 -0.02447 0.30333
 H50 H -0.01236 -0.01839 0.31107
 C51 C 0.05900 -0.02281 0.31950
 H52 H 0.05685 -0.01649 0.33971
 N53 N 0.02145 -0.03248 0.27789
 C54 C -0.07487 -0.08962 0.22221
 H55 H -0.10085 -0.06103 0.22075
 C56 C -0.07921 -0.12764 0.20654
 H57 H -0.10879 -0.12831 0.19309
 C58 C -0.00420 -0.12281 0.24113
 H59 H 0.02504 -0.12068 0.25457
 C60 C -0.00738 -0.16183 0.22598
 H61 H 0.01990 -0.18912 0.22755
 Zn62 Zn -0.03234 -0.03063 0.25580
 N63 N -0.03707 -0.08703 0.23836
 C64 C -0.03160 0.01186 0.20600
 N65 N -0.03137 0.02005 0.23152
 C66 C -0.02796 0.06389 0.24020
 C67 C -0.02607 0.10183 0.22286
 C68 C -0.02984 0.04867 0.18804
 C69 C -0.08764 -0.05840 0.29239
 C70 C -0.12247 -0.05497 0.30835
 C71 C -0.14707 0.02097 0.28820
 C72 C -0.11171 0.01603 0.27256
 N73 N -0.08238 -0.02285 0.27529
 H74 H -0.03243 -0.02332 0.19944
 H75 H -0.02680 0.06935 0.26065
 H76 H -0.02416 0.13659 0.23007
 H77 H -0.02961 0.04121 0.16785
 H78 H -0.06401 -0.08909 0.29399
 H79 H -0.12509 -0.08305 0.32241
 H80 H -0.16995 0.05226 0.28592
 H81 H -0.10764 0.04342 0.25843
 C82 C -0.04469 -0.16382 0.20789
 C83 C 0.10072 -0.02931 0.30945
 C84 C -0.15250 -0.01465 0.30658
 C85 C -0.02730 0.09445 0.19634
 C86 C 0.03825 0.09108 0.76120
 H87 H 0.03619 0.09781 0.74057
 C88 C 0.03465 0.12839 0.77760
 H89 H 0.03030 0.16393 0.76952
 C90 C 0.04596 0.03651 0.79682
 H91 H 0.04926 0.00075 0.80431
 C92 C 0.04303 0.07269 0.81389
 H93 H 0.04434 0.06427 0.83435
 N94 N 0.04409 0.04620 0.77101
 C95 C 0.10607 -0.03798 0.71381
 H96 H 0.08293 -0.06498 0.71208
 C97 C 0.14192 -0.03835 0.69859
 H98 H 0.14643 -0.06598 0.68523
 C99 C 0.12785 0.03120 0.73317
 H100 H 0.12207 0.05833 0.74658
 C101 C 0.16448 0.03192 0.71846
 H102 H 0.18634 0.06008 0.72042
 Zn103 Zn 0.04665 -0.00304 0.74778
 N104 N 0.09894 -0.00280 0.73010
 C105 C -0.00027 0.01308 0.69835
 N106 N -0.00509 0.00640 0.72385
 C107 C -0.04642 0.00907 0.73271
 C108 C -0.08504 0.01778 0.71556
 C109 C -0.03784 0.02193 0.68060
 C110 C 0.08624 -0.07387 0.78231
 C111 C 0.08884 -0.11431 0.79820
 C112 C 0.01560 -0.13049 0.77919
 C113 C 0.01434 -0.08957 0.76368
 N114 N 0.04880 -0.06150 0.76609
 H115 H 0.03270 0.01221 0.69163
 H116 H -0.04935 0.00475 0.75315
 H117 H -0.11764 0.02017 0.72296
 H118 H -0.03314 0.02648 0.66036
 H119 H 0.11351 -0.05133 0.78348
 H120 H 0.11843 -0.12290 0.81149
 H121 H -0.01297 -0.15133 0.77785
 H122 H -0.01468 -0.07974 0.75026
 C123 C 0.17119 -0.00261 0.70049
 C124 C 0.03730 0.11931 0.80433
 C125 C 0.05275 -0.14263 0.79719
 C126 C -0.08095 0.02452 0.68911
 C127 C 0.02050 -0.35707 0.05345
 C128 C 0.01726 -0.32851 0.07436
 C129 C -0.01706 -0.33243 0.09054
 C130 C -0.04815 -0.36586 0.08557
 C131 C -0.04534 -0.39412 0.06435
 C132 C -0.01086 -0.39024 0.04792
 C133 C -0.02161 -0.29823 0.11083
 C134 C -0.03910 -0.30706 0.13304
 C135 C -0.04298 -0.27082 0.15233
 C136 C -0.03343 -0.28301 0.17865
 C137 C -0.03434 -0.24841 0.19691
 C138 C -0.04599 -0.20128 0.18911
 C139 C -0.05724 -0.18950 0.16284
 C140 C -0.05565 -0.22385 0.14464
 H141 H 0.04777 -0.35310 0.04151
 H142 H 0.04147 -0.30282 0.07774
 H143 H -0.07592 -0.36858 0.09724
 H144 H -0.07161 -0.41720 0.06004
 H145 H -0.00832 -0.26466 0.10764
 H146 H -0.04824 -0.34188 0.13780
 H147 H -0.02398 -0.31909 0.18499
 H148 H -0.02587 -0.25837 0.21708
 H149 H -0.06608 -0.15343 0.15629
 H150 H -0.06422 -0.21362 0.12451
 C151 C -0.07284 0.32913 0.03913
 C152 C -0.07549 0.29737 0.05970
 C153 C -0.04334 0.29436 0.08106
 C154 C -0.00842 0.32442 0.08147
 C155 C -0.00582 0.35639 0.06086
 C156 C -0.03845 0.35980 0.03954
 C157 C -0.04796 0.25926 0.10208
 C158 C -0.01539 0.24469 0.12064
 C159 C -0.02046 0.20704 0.14017
 C160 C 0.00613 0.20530 0.16380
 C161 C 0.00343 0.16930 0.18227
 C162 C -0.02560 0.13391 0.17734
 C163 C -0.05218 0.13565 0.15369
 C164 C -0.04954 0.17159 0.13527
 H165 H -0.09849 0.33044 0.02306
 H166 H -0.10272 0.27470 0.05877
 H167 H 0.01700 0.32373 0.09754
 H168 H 0.02247 0.37763 0.06131
 H169 H -0.07982 0.24402 0.10172
 H170 H 0.01628 0.26026 0.12181
 H171 H 0.02920 0.23182 0.16794
 H172 H 0.02483 0.16854 0.20016
 H173 H -0.07504 0.10904 0.14936
 H174 H -0.06950 0.17058 0.11701
 C175 C 0.34830 0.06956 0.54623
 C176 C 0.32099 0.06823 0.56644
 C177 C 0.33061 0.03466 0.58681
 C178 C 0.36873 0.00273 0.58680
 C179 C 0.39590 0.00384 0.56638
 C180 C 0.38565 0.03706 0.54586
 C181 C 0.29785 0.03140 0.60620
 C182 C 0.30794 0.01266 0.63012
 C183 C 0.27303 0.00802 0.64812
 C184 C 0.28344 0.01332 0.67456
 C185 C 0.25045 0.00992 0.69172
 C186 C 0.20680 0.00003 0.68273
 C187 C 0.19682 -0.00649 0.65636
 C188 C 0.22952 -0.00251 0.63924
 H189 H 0.33961 0.09519 0.53045
 H190 H 0.29166 0.09293 0.56589
 H191 H 0.37646 -0.02443 0.60182
 H192 H 0.42402 -0.02218 0.56614
 H193 H 0.26384 0.04602 0.60053
 H194 H 0.34248 0.00219 0.63706
 H195 H 0.31690 0.02091 0.68187
 H196 H 0.25908 0.01466 0.71200
 H197 H 0.16341 -0.01391 0.64889
 H198 H 0.22077 -0.00811 0.61906
 C199 C -0.37516 0.02352 0.56772
 C200 C -0.34342 0.02136 0.58916
 C201 C -0.30826 0.05084 0.59031
 C202 C -0.30668 0.08412 0.57002
 C203 C -0.33819 0.08614 0.54855
 C204 C -0.37297 0.05586 0.54696
 C205 C -0.27369 0.04540 0.61268
 C206 C -0.23165 0.05752 0.61139
 C207 C -0.19532 0.05027 0.63276
 C208 C -0.15707 0.07492 0.63119
 C209 C -0.12051 0.06732 0.64977
 C210 C -0.12112 0.03452 0.67035
 C211 C -0.15968 0.01034 0.67227
 C212 C -0.19639 0.01796 0.65364
 H213 H -0.40011 -0.00179 0.56688
 H214 H -0.34546 -0.00459 0.60452
 H215 H -0.28133 0.10889 0.57057
 H216 H -0.33572 0.11212 0.53326
 H217 H -0.28304 0.02918 0.63021
 H218 H -0.22254 0.07306 0.59362
 H219 H -0.15527 0.09998 0.61536
 H220 H -0.09161 0.08708 0.64796
 H221 H -0.16087 -0.01562 0.68772
 H222 H -0.22461 -0.00272 0.65530
 C223 C -0.02041 -0.33306 0.95400
 C224 C -0.01202 -0.30224 0.93410
 C225 C 0.01709 -0.31632 0.91583
 C226 C 0.03809 -0.36204 0.91793
 C227 C 0.03007 -0.39293 0.93810
 C228 C 0.00034 -0.37905 0.95638
 C229 C 0.02648 -0.28130 0.89596
 C230 C 0.03859 -0.29194 0.87264
 C231 C 0.04542 -0.25495 0.85319
 C232 C 0.03269 -0.26100 0.82707
 C233 C 0.03576 -0.22493 0.80867
 C234 C 0.05244 -0.18251 0.81608
 C235 C 0.06701 -0.17739 0.84210
 C236 C 0.06362 -0.21320 0.86045
 H237 H -0.04384 -0.32093 0.96741
 H238 H -0.02845 -0.26712 0.93297
 H239 H 0.06195 -0.37346 0.90464
 H240 H 0.04859 -0.42703 0.93996
 H241 H 0.02047 -0.24482 0.90032
 H242 H 0.04017 -0.32792 0.86696
 H243 H 0.01906 -0.29310 0.82100
 H244 H 0.02482 -0.23004 0.78870
 H245 H 0.07979 -0.14507 0.84844
 H246 H 0.07496 -0.20798 0.88035
 C247 C -0.06793 0.34934 0.93703
 C248 C -0.06385 0.32242 0.91542
 C249 C -0.02352 0.31877 0.90368
 C250 C 0.01195 0.34451 0.91317
 C251 C 0.00775 0.37160 0.93466
 C252 C -0.03203 0.37384 0.94690
 C253 C -0.01919 0.28719 0.88203
 C254 C 0.02000 0.26437 0.87776
 C255 C 0.02427 0.22875 0.85809
 C256 C 0.05867 0.19255 0.86241
 C257 C 0.06309 0.15730 0.84484
 C258 C 0.03363 0.15796 0.82231
 C259 C 0.00008 0.19503 0.81750
 C260 C -0.00468 0.23009 0.83526
 H261 H -0.09881 0.35053 0.94631
 H262 H -0.09174 0.30319 0.90835
 H263 H 0.04303 0.34362 0.90414
 H264 H 0.03590 0.39008 0.94212
 H265 H -0.04973 0.27932 0.87095
 H266 H 0.04962 0.26872 0.89062
 H267 H 0.08169 0.19102 0.87970
 H268 H 0.08964 0.12948 0.84883
 H269 H -0.02306 0.19634 0.80027
 H270 H -0.03079 0.25821 0.83098
 C271 C -0.36345 0.08658 0.44497
 C272 C -0.33826 0.08390 0.42375
 C273 C -0.33229 0.04180 0.41107
 C274 C -0.35339 0.00270 0.41961
 C275 C -0.37851 0.00543 0.44086
 C276 C -0.38370 0.04736 0.45368
 C277 C -0.30376 0.04032 0.38927
 C278 C -0.28326 0.00070 0.38151
 C279 C -0.25205 -0.00090 0.36101
 C280 C -0.24291 -0.04360 0.34946
 C281 C -0.21152 -0.04778 0.33131
 C282 C -0.18822 -0.00935 0.32442
 C283 C -0.19775 0.03362 0.33569
 C284 C -0.22916 0.03783 0.35385
 H285 H -0.36690 0.11915 0.45475
 H286 H -0.32264 0.11459 0.41752
 H287 H -0.35095 -0.02998 0.40997
 H288 H -0.39374 -0.02526 0.44745
 H289 H -0.29836 0.07351 0.38009
 H290 H -0.28863 -0.03247 0.39073
 H291 H -0.25988 -0.07401 0.35466
 H292 H -0.20530 -0.08123 0.32277
 H293 H -0.17971 0.06361 0.33116
 H294 H -0.23397 0.07099 0.36282
 C295 C 0.36655 0.05970 0.43460
 C296 C 0.33470 0.05688 0.41358
 C297 C 0.31290 0.01582 0.40975
 C298 C 0.32402 -0.02272 0.42728
 C299 C 0.35569 -0.01975 0.44837
 C300 C 0.37691 0.02154 0.45224
 C301 C 0.27593 0.01603 0.38891
 C302 C 0.26176 -0.02288 0.37853
 C303 C 0.22144 -0.02233 0.35990
 C304 C 0.21820 -0.05796 0.34226
 C305 C 0.17939 -0.05976 0.32543
 C306 C 0.14276 -0.02642 0.32633
 C307 C 0.14602 0.00925 0.34397
 C308 C 0.18488 0.01132 0.36058
 H309 H 0.38211 0.09210 0.43758
 H310 H 0.32635 0.08721 0.40056
 H311 H 0.30698 -0.05443 0.42548
 H312 H 0.36279 -0.04922 0.46210
 H313 H 0.25989 0.04979 0.38190
 H314 H 0.28038 -0.05633 0.38352
 H315 H 0.24568 -0.08460 0.34159
 H316 H 0.17755 -0.08790 0.31219
 H317 H 0.11836 0.03554 0.34497
 H318 H 0.18559 0.03849 0.37442
   
