data_POSCAR
  _audit_creation_date              2014-09-24
  _audit_creation_method            'ToBaCCo'
  _symmetry_space_group_name_H-M    'P1'
  _symmetry_Int_Tables_number       1
  _symmetry_cell_setting            triclinic
  loop_
  _symmetry_equiv_pos_as_xyz
 x,y,z
_cell_length_a 36.3672
_cell_length_b 36.4243
_cell_length_c 36.4464
_cell_angle_alpha 92.474900
_cell_angle_beta 92.464500
_cell_angle_gamma 87.571900
loop_
  _atom_site_label
  _atom_site_type_symbol
  _atom_site_fract_x
  _atom_site_fract_y
  _atom_site_fract_z
C1 C 0.01987 0.45416 0.20035
 H2 H 0.04313 0.47173 0.20045
 C3 C 0.02177 0.41936 0.18247
 H4 H 0.04659 0.41077 0.16854
 C5 C -0.03987 0.44367 0.21996
 H6 H -0.06355 0.45263 0.23531
 C7 C -0.03930 0.40895 0.20237
 H8 H -0.06302 0.39225 0.20432
 N9 N -0.01048 0.46541 0.21898
 C10 C -0.02196 0.58390 0.23869
 H11 H -0.02782 0.58358 0.26752
 C12 C -0.02311 0.61714 0.22115
 H13 H -0.03002 0.64221 0.23684
 C14 C -0.00513 0.55130 0.18385
 H15 H 0.00199 0.52550 0.16960
 C16 C -0.00566 0.58416 0.16519
 H17 H 0.00102 0.58332 0.13650
 Zn18 Zn -0.01032 0.50957 0.24853
 N19 N -0.01279 0.55191 0.22008
 C20 C 0.05603 0.53860 0.27677
 N21 N 0.03399 0.50946 0.27794
 C22 C 0.04494 0.47923 0.29685
 C23 C 0.07964 0.47732 0.31504
 C24 C 0.09066 0.53795 0.29465
 C25 C -0.08469 0.52143 0.25899
 C26 C -0.11782 0.52257 0.27682
 C27 C -0.08436 0.50474 0.33240
 C28 C -0.05163 0.50423 0.31345
 N29 N -0.05254 0.51204 0.27726
 H30 H 0.04735 0.56214 0.26114
 H31 H 0.02718 0.45614 0.29683
 H32 H 0.08818 0.45273 0.32932
 H33 H 0.10780 0.56132 0.29270
 H34 H -0.08459 0.52745 0.23018
 H35 H -0.14305 0.52963 0.26139
 H36 H -0.08329 0.49792 0.36106
 H37 H -0.02572 0.49699 0.32746
 C38 C -0.01450 0.61770 0.18402
 C39 C -0.00791 0.39583 0.18384
 C40 C -0.11808 0.51375 0.31392
 C41 C 0.10320 0.50682 0.31364
 C42 C 0.03851 0.55554 0.77789
 H43 H 0.06213 0.54681 0.76235
 C44 C 0.03783 0.59016 0.79569
 H45 H 0.06127 0.60723 0.79378
 C46 C -0.02106 0.54459 0.79778
 H47 H -0.04422 0.52691 0.79771
 C48 C -0.02300 0.57929 0.81588
 H49 H -0.04768 0.58789 0.83004
 N50 N 0.00928 0.53359 0.77897
 C51 C 0.02129 0.41509 0.75976
 H52 H 0.02739 0.41528 0.73098
 C53 C 0.02240 0.38195 0.77748
 H54 H 0.02954 0.35682 0.76199
 C55 C 0.00387 0.44792 0.81427
 H56 H -0.00345 0.47376 0.82833
 C57 C 0.00436 0.41518 0.83310
 H58 H -0.00257 0.41615 0.86173
 Zn59 Zn 0.00937 0.48938 0.74948
 N60 N 0.01182 0.44714 0.77810
 C61 C 0.08382 0.47769 0.73954
 N62 N 0.05178 0.48698 0.72102
 C63 C 0.05116 0.49485 0.68484
 C64 C 0.08407 0.49443 0.66617
 C65 C 0.11711 0.47664 0.72199
 C66 C -0.05662 0.45995 0.72079
 C67 C -0.09138 0.46053 0.70319
 C68 C -0.08096 0.52159 0.68348
 C69 C -0.04612 0.51963 0.70137
 N70 N -0.03486 0.48930 0.71992
 H71 H 0.08351 0.47167 0.76833
 H72 H 0.02533 0.50207 0.67065
 H73 H 0.08322 0.50129 0.63753
 H74 H 0.14222 0.46963 0.73762
 H75 H -0.04762 0.43625 0.73605
 H76 H -0.10794 0.43671 0.70513
 H77 H -0.08937 0.54648 0.66963
 H78 H -0.02851 0.54286 0.70154
 C79 C 0.01346 0.38157 0.81454
 C80 C 0.00658 0.60279 0.81452
 C81 C -0.10467 0.49196 0.68472
 C82 C 0.11767 0.48547 0.68492
 C83 C 0.22126 0.03945 0.44453
 H84 H 0.23689 0.06301 0.45326
 C85 C 0.20347 0.03876 0.40991
 H86 H 0.20548 0.06213 0.39284
 C87 C 0.20116 -0.01997 0.45546
 H88 H 0.20116 -0.04308 0.47314
 C89 C 0.18308 -0.02193 0.42077
 H90 H 0.16885 -0.04655 0.41216
 N91 N 0.22008 0.01029 0.46647
 C92 C 0.23951 0.02207 0.58487
 H93 H 0.26840 0.02800 0.58463
 C94 C 0.22183 0.02320 0.61802
 H95 H 0.23745 0.03017 0.64313
 C96 C 0.18470 0.00507 0.55212
 H97 H 0.17051 -0.00210 0.52631
 C98 C 0.16589 0.00557 0.58489
 H99 H 0.13716 -0.00119 0.58397
 Zn100 Zn 0.24962 0.01033 0.51062
 N101 N 0.22100 0.01280 0.55285
 C102 C 0.25973 0.08465 0.52228
 N103 N 0.27824 0.05260 0.51309
 C104 C 0.31456 0.05186 0.50547
 C105 C 0.33339 0.08464 0.50599
 C106 C 0.27744 0.11782 0.52342
 C107 C 0.27801 -0.05575 0.53978
 C108 C 0.29588 -0.09033 0.53915
 C109 C 0.31630 -0.07945 0.47853
 C110 C 0.29814 -0.04479 0.48043
 N111 N 0.27918 -0.03381 0.51063
 H112 H 0.23083 0.08442 0.52814
 H113 H 0.32875 0.02602 0.49838
 H114 H 0.36215 0.08370 0.49932
 H115 H 0.26183 0.14296 0.53032
 H116 H 0.26235 -0.04703 0.56330
 H117 H 0.29389 -0.10740 0.56252
 H118 H 0.33059 -0.08804 0.45395
 H119 H 0.29812 -0.02711 0.45732
 C120 C 0.18463 0.01448 0.61847
 C121 C 0.18456 0.00757 0.39728
 C122 C 0.31486 -0.10294 0.50802
 C123 C 0.31467 0.11825 0.51480
 C124 C 0.79959 0.01985 0.54392
 H125 H 0.79921 0.04312 0.52641
 C126 C 0.81767 0.02183 0.57863
 H127 H 0.83154 0.04662 0.58739
 C128 C 0.78034 -0.03996 0.55449
 H129 H 0.76503 -0.06370 0.54563
 C130 C 0.79815 -0.03926 0.58910
 H131 H 0.79647 -0.06280 0.60602
 N132 N 0.78106 -0.01060 0.53275
 C133 C 0.76096 -0.02286 0.41448
 H134 H 0.73232 -0.02963 0.41501
 C135 C 0.77830 -0.02369 0.38114
 H136 H 0.76249 -0.03143 0.35636
 C137 C 0.81541 -0.00397 0.44660
 H138 H 0.82957 0.00384 0.47225
 C139 C 0.83388 -0.00407 0.41365
 H140 H 0.86234 0.00365 0.41452
 Zn141 Zn 0.75119 -0.01063 0.48878
 N142 N 0.77945 -0.01285 0.44627
 C143 C 0.72205 0.05524 0.45978
 N144 N 0.72149 0.03343 0.48909
 C145 C 0.70310 0.04451 0.51962
 C146 C 0.68495 0.07917 0.52171
 C147 C 0.70418 0.08983 0.46060
 C148 C 0.74100 -0.08500 0.47705
 C149 C 0.72328 -0.11818 0.47613
 C150 C 0.66761 -0.08500 0.49436
 C151 C 0.68643 -0.05222 0.49464
 N152 N 0.72262 -0.05296 0.48652
 H153 H 0.73722 0.04641 0.43596
 H154 H 0.70358 0.02691 0.54282
 H155 H 0.67115 0.08784 0.54655
 H156 H 0.70569 0.10681 0.43710
 H157 H 0.76980 -0.08478 0.47080
 H158 H 0.73880 -0.14331 0.46899
 H159 H 0.63896 -0.08406 0.50143
 H160 H 0.67235 -0.02639 0.50197
 C161 C 0.81520 -0.01373 0.38012
 C162 C 0.81659 -0.00785 0.60194
 C163 C 0.68620 -0.11860 0.48526
 C164 C 0.68582 0.10256 0.49208
 C165 C 0.55414 0.22126 0.96079
 H166 H 0.54531 0.23658 0.93709
 C167 C 0.58876 0.20339 0.96146
 H168 H 0.60574 0.20504 0.93795
 C169 C 0.54344 0.20199 1.02052
 H170 H 0.52587 0.20236 1.04375
 C171 C 0.57815 0.18384 1.02246
 H172 H 0.58687 0.16992 1.04721
 N173 N 0.53231 0.22053 0.99011
 C174 C 0.41378 0.24019 0.97788
 H175 H 0.41419 0.26881 0.97118
 C176 C 0.38046 0.22269 0.97700
 H177 H 0.35556 0.23836 0.96931
 C178 C 0.44623 0.18594 0.99658
 H179 H 0.47199 0.17191 1.00433
 C180 C 0.41331 0.16731 0.99643
 H181 H 0.41433 0.13887 1.00406
 Zn182 Zn 0.48822 0.25026 0.99005
 N183 N 0.44573 0.22187 0.98783
 C184 C 0.47649 0.26026 0.91571
 N185 N 0.48590 0.27870 0.94772
 C186 C 0.49396 0.31486 0.94843
 C187 C 0.49367 0.33359 0.91565
 C188 C 0.47557 0.27788 0.88253
 C189 C 0.45908 0.27931 1.05588
 C190 C 0.45990 0.29713 1.09048
 C191 C 0.52110 0.31647 1.07982
 C192 C 0.51901 0.29837 1.04515
 N193 N 0.48844 0.27994 1.03407
 H194 H 0.47031 0.23149 0.91596
 H195 H 0.50124 0.32899 0.97424
 H196 H 0.50069 0.36222 0.91656
 H197 H 0.46850 0.26232 0.85743
 H198 H 0.43523 0.26411 1.04704
 H199 H 0.43635 0.29555 1.10746
 H200 H 0.54598 0.33029 1.08850
 H201 H 0.54226 0.29795 1.02756
 C202 C 0.37963 0.18580 0.98684
 C203 C 0.60153 0.18487 0.99280
 C204 C 0.49142 0.31550 1.10321
 C205 C 0.48464 0.31493 0.88207
 C206 C 0.44284 0.77841 1.04021
 H207 H 0.45171 0.76310 1.06390
 C208 C 0.40810 0.79603 1.03945
 H209 H 0.39126 0.79413 1.06304
 C210 C 0.45365 0.79794 0.98064
 H211 H 0.47136 0.79780 0.95752
 C212 C 0.41883 0.81585 0.97856
 H213 H 0.41036 0.82977 0.95374
 N214 N 0.46477 0.77937 1.01101
 C215 C 0.58344 0.76039 1.02322
 H216 H 0.58323 0.73162 1.02940
 C217 C 0.61663 0.77812 1.02428
 H218 H 0.64180 0.76265 1.03147
 C219 C 0.55059 0.81485 1.00561
 H220 H 0.52472 0.82888 0.99820
 C221 C 0.58340 0.83370 1.00603
 H222 H 0.58245 0.86230 0.99898
 Zn223 Zn 0.50910 0.74999 1.01121
 N224 N 0.55135 0.77871 1.01368
 C225 C 0.53865 0.72144 0.94537
 N226 N 0.50930 0.72035 0.96714
 C227 C 0.47905 0.70143 0.95602
 C228 C 0.47729 0.68327 0.92136
 C229 C 0.53816 0.70357 0.91080
 C230 C 0.52072 0.74008 1.08554
 C231 C 0.52191 0.72245 1.11872
 C232 C 0.50453 0.66649 1.08562
 C233 C 0.50396 0.68525 1.05283
 N234 N 0.51155 0.72152 1.05353
 H235 H 0.56221 0.73706 0.95420
 H236 H 0.45579 0.70149 0.97357
 H237 H 0.45267 0.66904 0.91265
 H238 H 0.56168 0.70552 0.89386
 H239 H 0.52655 0.76894 1.08529
 H240 H 0.52882 0.73809 1.14382
 H241 H 0.49790 0.63776 1.08471
 H242 H 0.49687 0.67102 1.02702
 C243 C 0.61705 0.81516 1.01520
 C244 C 0.39514 0.81457 1.00806
 C245 C 0.51336 0.68526 1.11918
 C246 C 0.50698 0.68467 0.89804
 B247 B 1.00158 1.03723 0.02556
 B248 B 1.02507 0.99799 0.03722
 B249 B 0.97857 1.00069 0.03816
 B250 B 0.96227 1.02553 0.00212
 B251 B 0.99885 1.03815 -0.02083
 B252 B 1.03769 1.02097 0.00073
 B253 B 0.99744 0.96284 -0.02543
 B254 B 0.97397 1.00208 -0.03711
 B255 B 1.02046 0.99937 -0.03802
 B256 B 1.03675 0.97454 -0.00200
 B257 B 1.00017 0.96192 0.02096
 B258 B 0.96133 0.97911 -0.00061
 B259 B 0.53860 0.49918 0.47972
 B260 B 0.49977 0.52081 0.46262
 B261 B 0.50242 0.47439 0.46349
 B262 B 0.52596 0.46265 0.50265
 B263 B 0.53776 0.50185 0.52612
 B264 B 0.52148 0.53795 0.50137
 B265 B 0.46233 0.50055 0.52165
 B266 B 0.50116 0.47890 0.53875
 B267 B 0.49851 0.52533 0.53789
 B268 B 0.47498 0.53708 0.49872
 B269 B 0.46318 0.49787 0.47525
 B270 B 0.47946 0.46178 0.50000
 C271 C 0.99781 1.28903 0.14093
 N272 N 0.96704 1.30279 0.15717
 N273 N 0.96517 1.33734 0.17061
 C274 C 0.99393 1.35972 0.16835
 N275 N 1.02467 1.34588 0.15180
 N276 N 1.02657 1.31124 0.13835
 C277 C 0.99971 1.25071 0.12656
 N278 N 1.03052 1.23629 0.11075
 N279 N 1.03188 1.20159 0.09750
 C280 C 1.00252 1.18005 0.09964
 N281 N 0.97177 1.19446 0.11555
 N282 N 0.97043 1.22912 0.12882
 C283 C 1.00333 1.14238 0.08352
 N284 N 0.97307 1.12179 0.08344
 N285 N 0.97302 1.08855 0.06669
 C286 C 1.00323 1.07454 0.04955
 N287 N 1.03360 1.09500 0.05012
 N288 N 1.03371 1.12824 0.06681
 C289 C 0.98913 0.71916 0.13404
 N290 N 1.00099 0.68766 0.11614
 N291 N 0.99945 0.65532 0.13171
 C292 C 0.98604 0.65326 0.16578
 N293 N 0.97406 0.68484 0.18346
 N294 N 0.97552 0.71711 0.16791
 C295 C 0.99139 0.75501 0.11751
 N296 N 0.97841 0.78609 0.13533
 N297 N 0.98066 0.81876 0.12069
 C298 C 0.99611 0.82157 0.08775
 N299 N 1.00913 0.79049 0.06992
 N300 N 1.00681 0.75779 0.08453
 C301 C 0.99825 0.85755 0.07148
 N302 N 1.01457 0.86050 0.03903
 N303 N 1.01572 0.89299 0.02385
 C304 C 1.00063 0.92379 0.04044
 N305 N 0.98449 0.92081 0.07302
 N306 N 0.98337 0.88833 0.08830
 C307 C 1.00972 1.28043 -0.13491
 N308 N 1.02354 1.28229 -0.16871
 N309 N 1.02503 1.31446 -0.18444
 C310 C 1.01287 1.34612 -0.16702
 N311 N 0.99925 1.34424 -0.13303
 N312 N 0.99768 1.31200 -0.11727
 C313 C 1.00745 1.24468 -0.11818
 N314 N 0.99188 1.24205 -0.08525
 N315 N 0.98959 1.20943 -0.07045
 C316 C 1.00277 1.17829 -0.08806
 N317 N 1.01836 1.18095 -0.12095
 N318 N 1.02059 1.21353 -0.13576
 C319 C 1.00068 1.14239 -0.07162
 N320 N 1.01570 1.11160 -0.08827
 N321 N 1.01463 1.07917 -0.07289
 C322 C 0.99838 1.07625 -0.04037
 N323 N 0.98314 1.10706 -0.02392
 N324 N 0.98425 1.13951 -0.03921
 C325 C 1.00085 0.71126 -0.14136
 N326 N 1.03197 0.69721 -0.15675
 N327 N 1.03380 0.66269 -0.17028
 C328 C 1.00465 0.64072 -0.16892
 N329 N 0.97352 0.65479 -0.15331
 N330 N 0.97167 0.68939 -0.13976
 C331 C 0.99902 0.74954 -0.12687
 N332 N 0.96801 0.76417 -0.11158
 N333 N 0.96673 0.79882 -0.09820
 C334 C 0.99636 0.82011 -0.09970
 N335 N 1.02729 0.80551 -0.11510
 N336 N 1.02857 0.77089 -0.12849
 C337 C 0.99561 0.85774 -0.08347
 N338 N 1.02600 0.87817 -0.08310
 N339 N 1.02609 0.91138 -0.06631
 C340 C 0.99579 0.92554 -0.04942
 N341 N 0.96530 0.90522 -0.05024
 N342 N 0.96515 0.87200 -0.06699
 C343 C 1.14076 1.00168 0.28874
 N344 N 1.15613 1.03278 0.30283
 N345 N 1.16955 1.03466 0.33737
 C346 C 1.16809 1.00559 0.35933
 N347 N 1.15250 0.97449 0.34523
 N348 N 1.13905 0.97258 0.31060
 C349 C 1.12640 0.99979 0.25044
 N350 N 1.11114 0.96880 0.23578
 N351 N 1.09785 0.96746 0.20111
 C352 C 1.09944 0.99701 0.17982
 N353 N 1.11483 1.02793 0.19446
 N354 N 1.12812 1.02926 0.22909
 C355 C 1.08327 0.99621 0.14220
 N356 N 1.08291 1.02654 0.12179
 N357 N 1.06609 1.02661 0.08860
 C358 C 1.04915 0.99635 0.07445
 N359 N 1.04998 0.96591 0.09473
 N360 N 1.06675 0.96578 0.12793
 C361 C 1.13424 1.01067 -0.28034
 N362 N 1.16813 1.02445 -0.28226
 N363 N 1.18380 1.02596 -0.31446
 C364 C 1.16624 1.01389 -0.34607
 N365 N 1.13216 1.00032 -0.34413
 N366 N 1.11646 0.99872 -0.31187
 C367 C 1.11759 1.00834 -0.24457
 N368 N 1.08461 0.99275 -0.24188
 N369 N 1.06988 0.99038 -0.20925
 C370 C 1.08761 1.00349 -0.17815
 N371 N 1.12056 1.01910 -0.18086
 N372 N 1.13530 1.02141 -0.21346
 C373 C 1.07124 1.00132 -0.14224
 N374 N 1.08797 1.01630 -0.11147
 N375 N 1.07261 1.01517 -0.07904
 C376 C 1.04003 0.99891 -0.07610
 N377 N 1.02351 0.98370 -0.10689
 N378 N 1.03879 0.98486 -0.13934
 C379 C 0.86434 0.99037 0.28043
 N380 N 0.88303 1.00019 0.31215
 N381 N 0.86738 0.99856 0.34444
 C382 C 0.83239 0.98715 0.34629
 N383 N 0.81394 0.97723 0.31439
 N384 N 0.82957 0.97875 0.28217
 C385 C 0.88106 0.99255 0.24466
 N386 N 0.86274 0.98073 0.21341
 N387 N 0.87758 0.98284 0.18083
 C388 C 0.91125 0.99699 0.17828
 N389 N 0.92959 1.00887 0.20953
 N390 N 0.91477 1.00667 0.24215
 C391 C 0.92773 0.99898 0.14239
 N392 N 0.96054 1.01478 0.13959
 N393 N 0.97584 1.01586 0.10714
 C394 C 0.95902 1.00117 0.07626
 N395 N 0.92611 0.98552 0.07911
 N396 N 0.91069 0.98451 0.11153
 C397 C 0.85983 0.99813 -0.28930
 N398 N 0.84485 0.96690 -0.30356
 N399 N 0.83163 0.96498 -0.33818
 C400 C 0.83292 0.99415 -0.36005
 N401 N 0.84813 1.02539 -0.34577
 N402 N 0.86137 1.02733 -0.31107
 C403 C 0.87392 1.00007 -0.25091
 N404 N 0.88890 1.03115 -0.23610
 N405 N 0.90193 1.03252 -0.20134
 C406 C 0.90035 1.00292 -0.18011
 N407 N 0.88526 0.97192 -0.19489
 N408 N 0.87223 0.97055 -0.22962
 C409 C 0.91627 1.00377 -0.14237
 N410 N 0.91656 0.97344 -0.12196
 N411 N 0.93318 0.97341 -0.08867
 C412 C 0.94999 1.00371 -0.07442
 N413 N 0.94922 1.03415 -0.09471
 N414 N 0.93264 1.03424 -0.12799
 C415 C 1.28001 1.13611 -0.00926
 N416 N 1.31189 1.11761 0.00053
 N417 N 1.34416 1.13344 -0.00104
 C418 C 1.34583 1.16843 -0.01234
 N419 N 1.31377 1.18668 -0.02222
 N420 N 1.28158 1.17087 -0.02077
 C421 C 1.24427 1.11919 -0.00715
 N422 N 1.21288 1.13731 -0.01898
 N423 N 1.18032 1.12230 -0.01695
 C424 C 1.17791 1.08866 -0.00284
 N425 N 1.20929 1.07052 0.00905
 N426 N 1.24190 1.08550 0.00692
 C427 C 1.14202 1.07204 -0.00092
 N428 N 1.13928 1.03929 0.01491
 N429 N 1.10681 1.02389 0.01595
 C430 C 1.07584 1.04055 0.00121
 N431 N 1.07863 1.07339 -0.01447
 N432 N 1.11107 1.08890 -0.01544
 C433 C 0.71022 1.14098 -0.00142
 N434 N 0.68843 1.13961 0.02780
 N435 N 0.65375 1.15308 0.02593
 C436 C 0.63952 1.16836 -0.00526
 N437 N 0.66141 1.16947 -0.03444
 N438 N 0.69601 1.15603 -0.03260
 C439 C 0.74859 1.12662 0.00043
 N440 N 0.76988 1.12807 -0.02914
 N441 N 0.80458 1.11479 -0.02784
 C442 C 0.81933 1.09968 0.00312
 N443 N 0.79810 1.09834 0.03277
 N444 N 0.76336 1.11162 0.03147
 C445 C 0.85703 1.08354 0.00390
 N446 N 0.87142 1.06725 0.03437
 N447 N 0.90469 1.05053 0.03423
 C448 C 0.92493 1.04952 0.00375
 N449 N 0.91067 1.06623 -0.02656
 N450 N 0.87740 1.08299 -0.02649
 C451 C 1.28842 0.85801 0.00200
 N452 N 1.31077 0.86048 -0.02663
 N453 N 1.34538 0.84684 -0.02462
 C454 C 1.35904 0.83020 0.00609
 N455 N 1.33652 0.82804 0.03469
 N456 N 1.30199 0.84167 0.03272
 C457 C 1.25013 0.87263 0.00002
 N458 N 1.22842 0.87044 0.02917
 N459 N 1.19380 0.88395 0.02777
 C460 C 1.17955 0.90003 -0.00288
 N461 N 1.20120 0.90210 -0.03212
 N462 N 1.23587 0.88860 -0.03072
 C463 C 1.14192 0.91635 -0.00372
 N464 N 1.12786 0.93320 -0.03401
 N465 N 1.09463 0.95000 -0.03391
 C466 C 1.07410 0.95054 -0.00364
 N467 N 1.08804 0.93330 0.02648
 N468 N 1.12127 0.91644 0.02643
 C469 C 0.71844 0.86553 0.01106
 N470 N 0.71652 0.83181 0.02504
 N471 N 0.68427 0.81615 0.02667
 C472 C 0.65258 0.83356 0.01450
 N473 N 0.65451 0.86748 0.00071
 N474 N 0.68683 0.88317 -0.00100
 C475 C 0.75429 0.88216 0.00861
 N476 N 0.75698 0.91502 -0.00708
 N477 N 0.78969 0.92972 -0.00954
 C478 C 0.82086 0.91208 0.00361
 N479 N 0.81813 0.87926 0.01933
 N480 N 0.78546 0.86455 0.02172
 C481 C 0.85685 0.92842 0.00138
 N482 N 0.88768 0.91174 0.01635
 N483 N 0.92020 0.92707 0.01520
 C484 C 0.92316 0.95957 -0.00107
 N485 N 0.89232 0.97604 -0.01628
 N486 N 0.85978 0.96080 -0.01509
 C487 C 0.78082 0.51004 0.36483
 N488 N 0.81251 0.49810 0.38240
 N489 N 0.84474 0.49966 0.36652
 C490 C 0.84649 0.51318 0.33248
 N491 N 0.81471 0.52523 0.31513
 N492 N 0.78256 0.52375 0.33098
 C493 C 0.74509 0.50776 0.38169
 N494 N 0.71383 0.52080 0.36418
 N495 N 0.68126 0.51856 0.37910
 C496 C 0.67872 0.50307 0.41205
 N497 N 0.70997 0.49000 0.42959
 N498 N 0.74259 0.49230 0.41468
 C499 C 0.64283 0.50098 0.42861
 N500 N 0.64007 0.48467 0.46108
 N501 N 0.60761 0.48356 0.47648
 C502 C 0.57670 0.49869 0.46008
 N503 N 0.57950 0.51481 0.42748
 N504 N 0.61193 0.51588 0.41200
 C505 C 0.21161 0.50123 0.35834
 N506 N 0.18968 0.47211 0.35992
 N507 N 0.15510 0.47392 0.34617
 C508 C 0.14112 0.50494 0.33037
 N509 N 0.16314 0.53402 0.32903
 N510 N 0.19764 0.53224 0.34276
 C511 C 0.24986 0.49945 0.37306
 N512 N 0.27127 0.52895 0.37150
 N513 N 0.30587 0.52770 0.38509
 C514 C 0.32039 0.49686 0.40065
 N515 N 0.29904 0.46728 0.40209
 N516 N 0.26441 0.46853 0.38851
 C517 C 0.35800 0.49612 0.41705
 N518 N 0.37219 0.46572 0.43361
 N519 N 0.40542 0.46586 0.45045
 C520 C 0.42580 0.49628 0.45130
 N521 N 0.41171 0.52653 0.43434
 N522 N 0.37849 0.52644 0.41746
 C523 C 0.78984 0.49773 0.64188
 N524 N 0.80345 0.46704 0.65826
 N525 N 0.83799 0.46513 0.67187
 C526 C 0.86056 0.49377 0.66972
 N527 N 0.84680 0.52443 0.65297
 N528 N 0.81218 0.52637 0.63934
 C529 C 0.75152 0.49968 0.62734
 N530 N 0.73721 0.53043 0.61140
 N531 N 0.70250 0.53183 0.59802
 C532 C 0.68084 0.50258 0.60017
 N533 N 0.69513 0.47191 0.61621
 N534 N 0.72980 0.47052 0.62961
 C535 C 0.64314 0.50344 0.58397
 N536 N 0.62244 0.47329 0.58396
 N537 N 0.58914 0.47328 0.56722
 C538 C 0.57518 0.50344 0.55003
 N539 N 0.59576 0.53370 0.55050
 N540 N 0.62906 0.53377 0.56719
 C541 C 0.21926 0.48940 0.63493
 N542 N 0.18770 0.50134 0.61712
 N543 N 0.15532 0.49971 0.63269
 C544 C 0.15328 0.48612 0.66667
 N545 N 0.18492 0.47407 0.68427
 N546 N 0.21723 0.47562 0.66872
 C547 C 0.25516 0.49174 0.61839
 N548 N 0.28630 0.47868 0.63611
 N549 N 0.31900 0.48098 0.62147
 C550 C 0.32180 0.49655 0.58860
 N551 N 0.29067 0.50965 0.57086
 N552 N 0.25793 0.50730 0.58549
 C553 C 0.35783 0.49870 0.57229
 N554 N 0.36078 0.51511 0.53991
 N555 N 0.39332 0.51624 0.52469
 C556 C 0.42415 0.50104 0.54118
 N557 N 0.42117 0.48483 0.57370
 N558 N 0.38865 0.48373 0.58902
 C559 C 0.51002 0.63485 0.22038
 N560 N 0.49813 0.61703 0.18885
 N561 N 0.49957 0.63275 0.15660
 C562 C 0.51290 0.66688 0.15466
 N563 N 0.52491 0.68449 0.18627
 N564 N 0.52356 0.66880 0.21845
 C565 C 0.50789 0.61815 0.25614
 N566 N 0.52094 0.63587 0.28725
 N567 N 0.51881 0.62108 0.31983
 C568 C 0.50342 0.58806 0.32254
 N569 N 0.49033 0.57032 0.29144
 N570 N 0.49252 0.58509 0.25882
 C571 C 0.50142 0.57164 0.35843
 N572 N 0.48511 0.53914 0.36132
 N573 N 0.48406 0.52384 0.39376
 C574 C 0.49924 0.54037 0.42455
 N575 N 0.51537 0.57299 0.42162
 N576 N 0.51638 0.58838 0.38921
 C577 C 0.50168 0.64065 0.78958
 N578 N 0.53280 0.65593 0.80383
 N579 N 0.53450 0.66941 0.83835
 C580 C 0.50522 0.66811 0.86013
 N581 N 0.47410 0.65261 0.84586
 N582 N 0.47237 0.63910 0.81125
 C583 C 0.49997 0.62626 0.75129
 N584 N 0.46892 0.61117 0.73647
 N585 N 0.46771 0.59789 0.70179
 C586 C 0.49746 0.59931 0.68067
 N587 N 0.52843 0.61451 0.69547
 N588 N 0.52964 0.62779 0.73011
 C589 C 0.49674 0.58319 0.64303
 N590 N 0.52721 0.58268 0.62273
 N591 N 0.52730 0.56596 0.58949
 C592 C 0.49692 0.54927 0.57520
 N593 N 0.46636 0.55023 0.59538
 N594 N 0.46621 0.56691 0.62862
 C595 C 0.49773 0.35919 0.21177
 N596 N 0.46643 0.34410 0.19771
 N597 N 0.46441 0.33072 0.16315
 C598 C 0.49354 0.33194 0.14116
 N599 N 0.52484 0.34724 0.15524
 N600 N 0.52688 0.36065 0.18988
 C601 C 0.49977 0.37350 0.25008
 N602 N 0.53092 0.38859 0.26467
 N603 N 0.53240 0.40183 0.29935
 C604 C 0.50284 0.40036 0.32071
 N605 N 0.47177 0.38515 0.30615
 N606 N 0.47029 0.37191 0.27150
 C607 C 0.50379 0.41647 0.35836
 N608 N 0.47350 0.41682 0.37889
 N609 N 0.47356 0.43355 0.41211
 C610 C 0.50393 0.45042 0.42618
 N611 N 0.53433 0.44961 0.40578
 N612 N 0.53433 0.43292 0.37254
 C613 C 0.48915 0.36512 0.78089
 N614 N 0.47528 0.33132 0.78275
 N615 N 0.47354 0.31570 0.81494
 C616 C 0.48549 0.33324 0.84660
 N617 N 0.49918 0.36724 0.84472
 N618 N 0.50099 0.38288 0.81246
 C619 C 0.49169 0.38174 0.74513
 N620 N 0.50727 0.41469 0.74254
 N621 N 0.50979 0.42940 0.70993
 C622 C 0.49682 0.41169 0.67876
 N623 N 0.48122 0.37877 0.68139
 N624 N 0.47877 0.36404 0.71396
 C625 C 0.49910 0.42807 0.64288
 N626 N 0.48427 0.41132 0.61205
 N627 N 0.48546 0.42670 0.57964
 C628 C 0.50162 0.45931 0.57680
 N629 N 0.51668 0.47584 0.60765
 N630 N 0.51546 0.46055 0.64007
 C631 C 0.63573 0.78021 0.48966
 N632 N 0.66951 0.78207 0.47567
 N633 N 0.68522 0.81425 0.47398
 C634 C 0.66779 0.84593 0.48608
 N635 N 0.63381 0.84405 0.49987
 N636 N 0.61808 0.81180 0.50164
 C637 C 0.61902 0.74445 0.49214
 N638 N 0.58610 0.74184 0.50785
 N639 N 0.57132 0.70921 0.51032
 C640 C 0.58892 0.67805 0.49717
 N641 N 0.62180 0.68070 0.48145
 N642 N 0.63660 0.71328 0.47904
 C643 C 0.57246 0.64215 0.49940
 N644 N 0.58908 0.61135 0.48437
 N645 N 0.57365 0.57893 0.48551
 C646 C 0.54111 0.57603 0.50183
 N647 N 0.52471 0.60685 0.51710
 N648 N 0.54005 0.63929 0.51592
 C649 C 0.64181 0.21105 0.49828
 N650 N 0.65690 0.19699 0.46705
 N651 N 0.67039 0.16246 0.46507
 C652 C 0.66929 0.14049 0.49417
 N653 N 0.65398 0.15457 0.52540
 N654 N 0.64046 0.18918 0.52741
 C655 C 0.62737 0.24934 0.50027
 N656 N 0.61227 0.26394 0.53134
 N657 N 0.59892 0.29860 0.53277
 C658 C 0.60027 0.31993 0.50322
 N659 N 0.61548 0.30535 0.47223
 N660 N 0.62883 0.27072 0.47081
 C661 C 0.58405 0.35756 0.50413
 N662 N 0.58359 0.37802 0.47384
 N663 N 0.56679 0.41123 0.47387
 C664 C 0.54996 0.42534 0.50419
 N665 N 0.55088 0.40500 0.53457
 N666 N 0.56764 0.37178 0.53461
 C667 C 0.35905 0.78863 0.50233
 N668 N 0.36069 0.81048 0.47322
 N669 N 0.34712 0.84508 0.47507
 C670 C 0.33146 0.85916 0.50612
 N671 N 0.33006 0.83721 0.53520
 N672 N 0.34361 0.80269 0.53338
 C673 C 0.37354 0.75036 0.50049
 N674 N 0.37190 0.72902 0.52997
 N675 N 0.38528 0.69441 0.52868
 C676 C 0.40069 0.67979 0.49780
 N677 N 0.40222 0.70107 0.46824
 N678 N 0.38884 0.73573 0.46954
 C679 C 0.41692 0.64217 0.49702
 N680 N 0.43341 0.62791 0.46660
 N681 N 0.45017 0.59470 0.46672
 C682 C 0.45101 0.57439 0.49713
 N683 N 0.43411 0.58854 0.52739
 N684 N 0.41730 0.62175 0.52733
 C685 C 0.36521 0.21946 0.51105
 N686 N 0.38299 0.18789 0.49922
 N687 N 0.36724 0.15562 0.50080
 C688 C 0.33310 0.15372 0.51423
 N689 N 0.31553 0.18538 0.52618
 N690 N 0.33126 0.21757 0.52468
 C691 C 0.38193 0.25523 0.50875
 N692 N 0.36422 0.28638 0.52170
 N693 N 0.37903 0.31898 0.51942
 C694 C 0.41205 0.32164 0.50397
 N695 N 0.42978 0.29050 0.49098
 N696 N 0.41499 0.25786 0.49332
 C697 C 0.42850 0.35755 0.50184
 N698 N 0.46103 0.36040 0.48554
 N699 N 0.47636 0.39286 0.48441
 C700 C 0.45983 0.42369 0.49951
 N701 N 0.42718 0.42080 0.51561
 N702 N 0.41175 0.38837 0.51671
   
