data_POSCAR
  _audit_creation_date              2014-09-24
  _audit_creation_method            'ToBaCCo'
  _symmetry_space_group_name_H-M    'P1'
  _symmetry_Int_Tables_number       1
  _symmetry_cell_setting            triclinic
  loop_
  _symmetry_equiv_pos_as_xyz
 x,y,z
_cell_length_a 34.8891
_cell_length_b 41.8242
_cell_length_c 41.5223
_cell_angle_alpha 89.744500
_cell_angle_beta 89.751900
_cell_angle_gamma 89.290700
loop_
  _atom_site_label
  _atom_site_type_symbol
  _atom_site_fract_x
  _atom_site_fract_y
  _atom_site_fract_z
C1 C 0.26720 0.27968 0.22602
 C2 C 0.24709 0.26301 0.24994
 C3 C 0.22945 0.27985 0.27520
 C4 C 0.23227 0.31326 0.27709
 C5 C 0.25417 0.32952 0.25387
 C6 C 0.27142 0.31292 0.22818
 C7 C 0.24624 0.22780 0.24965
 C8 C 0.26428 0.21049 0.27442
 C9 C 0.26463 0.17694 0.27430
 C10 C 0.24531 0.16091 0.24966
 C11 C 0.22639 0.17795 0.22501
 C12 C 0.22771 0.21153 0.22482
 H13 H 0.28100 0.26659 0.20662
 H14 H 0.21362 0.26677 0.29339
 H15 H 0.27897 0.22330 0.29324
 H16 H 0.21346 0.22513 0.20599
 H17 H 0.25691 0.35526 0.25517
 H18 H 0.24498 0.13502 0.24970
 C19 C 0.76877 0.78564 0.22282
 C20 C 0.75015 0.76914 0.24765
 C21 C 0.73174 0.78612 0.27237
 C22 C 0.73117 0.81976 0.27243
 C23 C 0.75018 0.83604 0.24731
 C24 C 0.76945 0.81930 0.22249
 C25 C 0.74984 0.73392 0.24796
 C26 C 0.76838 0.71703 0.27274
 C27 C 0.76729 0.68348 0.27399
 C28 C 0.74618 0.66715 0.25058
 C29 C 0.72730 0.68384 0.22570
 C30 C 0.72991 0.71728 0.22421
 H31 H 0.78302 0.77197 0.20405
 H32 H 0.71750 0.77279 0.29130
 H33 H 0.78390 0.73019 0.29082
 H34 H 0.71523 0.73055 0.20537
 H35 H 0.75024 0.86194 0.24722
 H36 H 0.74467 0.64131 0.25148
 C37 C 0.76674 0.28779 0.72517
 C38 C 0.74770 0.27120 0.74970
 C39 C 0.72878 0.28816 0.77422
 C40 C 0.72801 0.32186 0.77417
 C41 C 0.74753 0.33814 0.74931
 C42 C 0.76724 0.32134 0.72494
 C43 C 0.74764 0.23597 0.74967
 C44 C 0.76636 0.21882 0.77419
 C45 C 0.76747 0.18514 0.77396
 C46 C 0.74844 0.16908 0.74900
 C47 C 0.72918 0.18601 0.72445
 C48 C 0.72932 0.21957 0.72485
 H49 H 0.78147 0.27438 0.70648
 H50 H 0.71419 0.27482 0.79295
 H51 H 0.78059 0.23199 0.79302
 H52 H 0.71492 0.23312 0.70607
 H53 H 0.74780 0.36403 0.74901
 H54 H 0.74857 0.14320 0.74856
 C55 C 0.27382 0.78485 0.72327
 C56 C 0.25428 0.76751 0.74705
 C57 C 0.23520 0.78369 0.77196
 C58 C 0.23582 0.81716 0.77362
 C59 C 0.25666 0.83428 0.75038
 C60 C 0.27575 0.81847 0.72486
 C61 C 0.25459 0.73228 0.74656
 C62 C 0.27325 0.71516 0.77115
 C63 C 0.27320 0.68158 0.77155
 C64 C 0.25316 0.66541 0.74738
 C65 C 0.23396 0.68227 0.72277
 C66 C 0.23544 0.71583 0.72221
 H67 H 0.28840 0.77186 0.70420
 H68 H 0.21988 0.77007 0.79006
 H69 H 0.28808 0.72817 0.78974
 H70 H 0.22065 0.72928 0.70357
 H71 H 0.25716 0.86012 0.75184
 H72 H 0.25252 0.63953 0.74768
 C73 C 0.04939 0.04967 0.01356
 H74 H 0.04926 0.05521 -0.01191
 C75 C 0.07159 0.06778 0.03451
 H76 H 0.08839 0.08727 0.02496
 C77 C 0.02827 0.01717 0.05684
 H78 H 0.01168 -0.00274 0.06553
 C79 C 0.05038 0.03432 0.07849
 H80 H 0.05010 0.02750 0.10368
 N81 N 0.02809 0.02499 0.02501
 C82 C 0.01638 -0.05085 -0.04626
 H83 H -0.01362 -0.05644 -0.04378
 C84 C 0.03966 -0.06965 -0.06623
 H85 H 0.02704 -0.08917 -0.07936
 C86 C 0.06935 -0.01927 -0.03167
 H87 H 0.08107 0.00017 -0.01804
 C88 C 0.09355 -0.03713 -0.05178
 H89 H 0.12359 -0.03110 -0.05334
 Zn90 Zn -0.00164 -0.00054 -0.00310
 N91 N 0.03137 -0.02607 -0.02952
 C92 C -0.05566 0.01049 -0.05186
 N93 N -0.03387 0.02544 -0.02958
 C94 C -0.03591 0.05776 -0.02595
 C95 C -0.05939 0.07636 -0.04603
 C96 C -0.07950 0.02809 -0.07238
 C97 C -0.02578 -0.05847 0.02713
 C98 C -0.04922 -0.07673 0.04725
 C99 C -0.08789 -0.02951 0.05751
 C100 C -0.06395 -0.01226 0.03701
 N101 N -0.03359 -0.02686 0.02236
 H102 H -0.05471 -0.01521 -0.05375
 H103 H -0.01966 0.06927 -0.00734
 H104 H -0.06027 0.10204 -0.04290
 H105 H -0.09621 0.01554 -0.09010
 H106 H -0.00090 -0.06944 0.01596
 H107 H -0.04230 -0.10177 0.05102
 H108 H -0.11173 -0.01730 0.06909
 H109 H -0.06923 0.01299 0.03307
 C110 C 0.07872 -0.06266 -0.06943
 C111 C 0.07242 0.06001 0.06744
 C112 C -0.08060 -0.06219 0.06295
 C113 C -0.08134 0.06154 -0.06985
 C114 C 0.05277 0.55166 0.51540
 H115 H 0.05264 0.55660 0.48980
 C116 C 0.07524 0.57009 0.53585
 H117 H 0.09226 0.58919 0.52579
 C118 C 0.03136 0.52040 0.55950
 H119 H 0.01451 0.50087 0.56870
 C120 C 0.05373 0.53788 0.58067
 H121 H 0.05343 0.53169 0.60602
 N122 N 0.03126 0.52741 0.52748
 C123 C 0.01865 0.45002 0.45815
 H124 H -0.01129 0.44447 0.46129
 C125 C 0.04148 0.43075 0.43830
 H126 H 0.02858 0.41088 0.42593
 C127 C 0.07188 0.48208 0.47095
 H128 H 0.08385 0.50190 0.48383
 C129 C 0.09563 0.46372 0.45092
 H130 H 0.12562 0.46976 0.44867
 Zn131 Zn 0.00131 0.50135 0.50006
 N132 N 0.03397 0.47526 0.47393
 C133 C -0.05345 0.51122 0.45172
 N134 N -0.03113 0.52673 0.47323
 C135 C -0.03283 0.55915 0.47588
 C136 C -0.05655 0.57725 0.45557
 C137 C -0.07758 0.52833 0.43102
 C138 C -0.02173 0.44424 0.53220
 C139 C -0.04519 0.42613 0.55244
 C140 C -0.08572 0.47276 0.56019
 C141 C -0.06166 0.48989 0.53968
 N142 N -0.03044 0.47548 0.52614
 H143 H -0.05271 0.48547 0.45061
 H144 H -0.01612 0.57112 0.49388
 H145 H -0.05718 0.60302 0.45792
 H146 H -0.09473 0.51534 0.41392
 H147 H 0.00378 0.43348 0.52187
 H148 H -0.03761 0.40138 0.55715
 H149 H -0.11032 0.48480 0.57079
 H150 H -0.06763 0.51486 0.53474
 C151 C 0.08044 0.43771 0.43422
 C152 C 0.07609 0.56310 0.56895
 C153 C -0.07760 0.44043 0.56686
 C154 C -0.07912 0.56184 0.43255
 C155 C 0.53450 0.06103 0.52265
 H156 H 0.51510 0.07257 0.50595
 C157 C 0.55775 0.07968 0.54230
 H158 H 0.55558 0.10548 0.54069
 C159 C 0.56138 0.01354 0.54477
 H160 H 0.56248 -0.01231 0.54560
 C161 C 0.58509 0.03117 0.56473
 H162 H 0.60437 0.01854 0.58086
 N163 N 0.53618 0.02857 0.52475
 C164 C 0.53904 -0.05757 0.47825
 H165 H 0.52109 -0.06956 0.49562
 C166 C 0.56301 -0.07564 0.45807
 H167 H 0.56280 -0.10146 0.45996
 C168 C 0.56156 -0.00949 0.45495
 H169 H 0.56065 0.01636 0.45385
 C170 C 0.58588 -0.02655 0.43437
 H171 H 0.60363 -0.01350 0.41751
 Zn172 Zn 0.50466 0.00117 0.50048
 N173 N 0.53809 -0.02512 0.47577
 C174 C 0.47060 0.01640 0.44083
 N175 N 0.47150 0.02433 0.47255
 C176 C 0.44776 0.04741 0.48466
 C177 C 0.42304 0.06452 0.46429
 C178 C 0.44596 0.03249 0.41977
 C179 C 0.45191 -0.04715 0.51678
 C180 C 0.42896 -0.06542 0.53732
 C181 C 0.44944 -0.03289 0.58183
 C182 C 0.47250 -0.01570 0.56060
 N183 N 0.47375 -0.02329 0.52878
 H184 H 0.48860 -0.00275 0.43179
 H185 H 0.44818 0.05264 0.51015
 H186 H 0.40464 0.08305 0.47426
 H187 H 0.44594 0.02584 0.39460
 H188 H 0.45255 -0.05213 0.49124
 H189 H 0.41208 -0.08456 0.52743
 H190 H 0.44904 -0.02651 0.60708
 H191 H 0.48902 0.00401 0.56957
 C192 C 0.58642 -0.06012 0.43539
 C193 C 0.58316 0.06473 0.56400
 C194 C 0.42756 -0.05831 0.57032
 C195 C 0.42199 0.05709 0.43135
 C196 C 0.55352 0.54616 0.01925
 H197 H 0.55966 0.54604 -0.00622
 C198 C 0.57503 0.56551 0.03958
 H199 H 0.59777 0.57986 0.02948
 C200 C 0.51656 0.52791 0.06344
 H201 H 0.49307 0.51404 0.07272
 C202 C 0.53771 0.54642 0.08464
 H203 H 0.53056 0.54605 0.11004
 N204 N 0.52538 0.52732 0.03148
 C205 C 0.53695 0.44356 -0.01864
 H206 H 0.52197 0.43122 0.00040
 C207 C 0.56060 0.42609 -0.03953
 H208 H 0.56375 0.40054 -0.03596
 C209 C 0.54993 0.49139 -0.04716
 H210 H 0.54456 0.51664 -0.05078
 C211 C 0.57389 0.47488 -0.06856
 H212 H 0.58734 0.48792 -0.08806
 Zn213 Zn 0.49780 0.49941 0.00394
 N214 N 0.53222 0.47568 -0.02262
 C215 C 0.44842 0.50842 -0.04832
 N216 N 0.46551 0.52369 -0.02350
 C217 C 0.46087 0.55571 -0.01915
 C218 C 0.43828 0.57372 -0.04041
 C219 C 0.42551 0.52545 -0.07007
 C220 C 0.48635 0.45413 0.05328
 C221 C 0.46556 0.43486 0.07439
 C222 C 0.40799 0.44857 0.04503
 C223 C 0.42973 0.46836 0.02502
 N224 N 0.46820 0.47092 0.02955
 H225 H 0.45289 0.48296 -0.05134
 H226 H 0.47482 0.56736 0.00072
 H227 H 0.43509 0.59921 -0.03661
 H228 H 0.41238 0.51277 -0.08975
 H229 H 0.51695 0.45651 0.05639
 H230 H 0.48032 0.42232 0.09364
 H231 H 0.37734 0.44710 0.04143
 H232 H 0.41570 0.48197 0.00622
 C233 C 0.57937 0.44173 -0.06499
 C234 C 0.56767 0.56526 0.07283
 C235 C 0.42587 0.43206 0.07043
 C236 C 0.42034 0.55861 -0.06639
 C237 C 0.17209 -0.13344 -0.15610
 N238 N 0.16369 -0.16412 -0.16357
 N239 N 0.18436 -0.17997 -0.18548
 C240 C 0.21405 -0.16571 -0.20093
 N241 N 0.22245 -0.13503 -0.19331
 N242 N 0.20197 -0.11923 -0.17125
 C243 C 0.14851 -0.11557 -0.13280
 N244 N 0.11469 -0.12746 -0.12218
 N245 N 0.09263 -0.11074 -0.10192
 C246 C 0.10364 -0.08158 -0.09133
 N247 N 0.13766 -0.06985 -0.10180
 N248 N 0.15960 -0.08646 -0.12223
 C249 C 0.17134 0.36468 0.34763
 N250 N 0.20117 0.37822 0.33178
 N251 N 0.22084 0.36179 0.30965
 C252 C 0.21160 0.33113 0.30267
 N253 N 0.18196 0.31756 0.31880
 N254 N 0.16214 0.33403 0.34078
 C255 C 0.14851 0.38319 0.37094
 N256 N 0.11487 0.37169 0.38237
 N257 N 0.09339 0.38892 0.40262
 C258 C 0.10482 0.41824 0.41239
 N259 N 0.13868 0.42960 0.40112
 N260 N 0.16005 0.41246 0.38070
 C261 C 0.67353 -0.13017 0.34363
 N262 N 0.69263 -0.11450 0.31995
 N263 N 0.71136 -0.13067 0.29711
 C264 C 0.71182 -0.16319 0.29694
 N265 N 0.69276 -0.17877 0.32086
 N266 N 0.67397 -0.16261 0.34371
 C267 C 0.65202 -0.11220 0.36821
 N268 N 0.63127 -0.12759 0.39112
 N269 N 0.61082 -0.11111 0.41272
 C270 C 0.61036 -0.07861 0.41229
 N271 N 0.63137 -0.06332 0.38945
 N272 N 0.65178 -0.07976 0.36784
 C273 C 0.66824 0.37218 -0.15604
 N274 N 0.68716 0.38776 -0.17988
 N275 N 0.70662 0.37151 -0.20223
 C276 C 0.70797 0.33899 -0.20177
 N277 N 0.68905 0.32350 -0.17772
 N278 N 0.66959 0.33974 -0.15532
 C279 C 0.64603 0.39017 -0.13189
 N280 N 0.62716 0.37477 -0.10787
 N281 N 0.60632 0.39114 -0.08646
 C282 C 0.60347 0.42355 -0.08823
 N283 N 0.62253 0.43888 -0.11223
 N284 N 0.64341 0.42253 -0.13362
 C285 C -0.17188 0.13387 -0.15748
 N286 N -0.19138 0.11866 -0.18094
 N287 N -0.21117 0.13524 -0.20282
 C288 C -0.21235 0.16775 -0.20224
 N289 N -0.19294 0.18289 -0.17851
 N290 N -0.17308 0.16630 -0.15659
 C291 C -0.14918 0.11534 -0.13407
 N292 N -0.12846 0.13012 -0.11102
 N293 N -0.10715 0.11309 -0.09044
 C294 C -0.10573 0.08063 -0.09211
 N295 N -0.12664 0.06597 -0.11514
 N296 N -0.14792 0.08296 -0.13570
 C297 C -0.17075 0.63231 0.34426
 N298 N -0.19205 0.61675 0.32216
 N299 N -0.21201 0.63302 0.30013
 C300 C -0.21150 0.66549 0.29928
 N301 N -0.19029 0.68101 0.32157
 N302 N -0.17030 0.66475 0.34363
 C303 C -0.14781 0.61421 0.36782
 N304 N -0.12584 0.62950 0.38967
 N305 N -0.10428 0.61291 0.41042
 C306 C -0.10382 0.58041 0.41011
 N307 N -0.12598 0.56522 0.38828
 N308 N -0.14754 0.58177 0.36756
 C309 C 0.32718 0.12526 0.34374
 N310 N 0.31763 0.15641 0.34876
 N311 N 0.29748 0.17279 0.32688
 C312 C 0.28591 0.15861 0.29924
 N313 N 0.29528 0.12736 0.29444
 N314 N 0.31559 0.11105 0.31620
 C315 C 0.35074 0.10738 0.36704
 N316 N 0.36541 0.07823 0.35924
 N317 N 0.38780 0.06226 0.37978
 C318 C 0.39624 0.07468 0.40903
 N319 N 0.38125 0.10377 0.41695
 N320 N 0.35903 0.11987 0.39629
 C321 C 0.33345 0.62968 -0.15761
 N322 N 0.31488 0.61437 -0.18156
 N323 N 0.29559 0.63086 -0.20384
 C324 C 0.29408 0.66333 -0.20313
 N325 N 0.31264 0.67861 -0.17905
 N326 N 0.33193 0.66212 -0.15671
 C327 C 0.35534 0.61136 -0.13350
 N328 N 0.37379 0.62638 -0.10926
 N329 N 0.39418 0.60964 -0.08781
 C330 C 0.39698 0.57726 -0.08978
 N331 N 0.37838 0.56233 -0.11403
 N332 N 0.35796 0.57903 -0.13544
 C333 C -0.17049 -0.13158 0.15247
 N334 N -0.19145 -0.11563 0.17495
 N335 N -0.21099 -0.13150 0.19736
 C336 C -0.21057 -0.16402 0.19821
 N337 N -0.18976 -0.17991 0.17542
 N338 N -0.17003 -0.16403 0.15307
 C339 C -0.14800 -0.11387 0.12849
 N340 N -0.15110 -0.08156 0.12653
 N341 N -0.13002 -0.06526 0.10546
 C342 C -0.10485 -0.08058 0.08561
 N343 N -0.10186 -0.11297 0.08757
 N344 N -0.12308 -0.12931 0.10856
 C345 C -0.16963 0.37118 0.65495
 N346 N -0.19460 0.38692 0.67459
 N347 N -0.21486 0.37106 0.69657
 C348 C -0.21109 0.33883 0.69975
 N349 N -0.18625 0.32311 0.67989
 N350 N -0.16587 0.33897 0.65795
 C351 C -0.14644 0.38887 0.63145
 N352 N -0.15167 0.42084 0.62749
 N353 N -0.13004 0.43711 0.60677
 C354 C -0.10223 0.42209 0.58928
 N355 N -0.09712 0.39005 0.59325
 N356 N -0.11883 0.37374 0.61390
 C357 C 0.33748 -0.12990 0.65780
 N358 N 0.33294 -0.16187 0.65422
 N359 N 0.31298 -0.17858 0.67581
 C360 C 0.29653 -0.16398 0.70173
 N361 N 0.30099 -0.13190 0.70500
 N362 N 0.32116 -0.11525 0.68359
 C363 C 0.36029 -0.11138 0.63469
 N364 N 0.37096 -0.08118 0.64191
 N365 N 0.39223 -0.06437 0.62140
 C366 C 0.40341 -0.07699 0.59273
 N367 N 0.39246 -0.10717 0.58540
 N368 N 0.37143 -0.12411 0.60606
 C369 C 0.33740 0.36231 0.16023
 N370 N 0.33810 0.37053 0.19180
 N371 N 0.31687 0.35495 0.21332
 C372 C 0.29452 0.33028 0.20415
 N373 N 0.29403 0.32189 0.17259
 N374 N 0.31488 0.33778 0.15097
 C375 C 0.36065 0.37977 0.13665
 N376 N 0.35106 0.38034 0.10500
 N377 N 0.37178 0.39694 0.08384
 C378 C 0.40317 0.41316 0.09352
 N379 N 0.41290 0.41231 0.12514
 N380 N 0.39189 0.39610 0.14634
 C381 C 0.16302 0.12837 0.15597
 N382 N 0.17257 0.15937 0.15084
 N383 N 0.19287 0.17517 0.17263
 C384 C 0.20457 0.16051 0.20025
 N385 N 0.19509 0.12946 0.20515
 N386 N 0.17467 0.11374 0.18351
 C387 C 0.13986 0.11086 0.13263
 N388 N 0.12602 0.08166 0.14043
 N389 N 0.10463 0.06564 0.11970
 C390 C 0.09636 0.07807 0.09023
 N391 N 0.11041 0.10727 0.08235
 N392 N 0.13166 0.12342 0.10321
 C393 C 0.16865 0.63225 0.65537
 N394 N 0.17864 0.66303 0.64957
 N395 N 0.19954 0.67897 0.67084
 C396 C 0.21143 0.66467 0.69859
 N397 N 0.20150 0.63384 0.70416
 N398 N 0.18048 0.61798 0.68304
 C399 C 0.14489 0.61456 0.63260
 N400 N 0.13063 0.58570 0.64113
 N401 N 0.10878 0.56950 0.62089
 C402 C 0.10044 0.58140 0.59122
 N403 N 0.11489 0.61026 0.58262
 N404 N 0.13661 0.62661 0.60298
 C405 C 0.67023 0.13583 0.65295
 N406 N 0.66799 0.16824 0.65418
 N407 N 0.68696 0.18425 0.67665
 C408 C 0.70882 0.16848 0.69879
 N409 N 0.71107 0.13607 0.69733
 N410 N 0.69219 0.12008 0.67489
 C411 C 0.64856 0.11780 0.62899
 N412 N 0.65108 0.08542 0.62843
 N413 N 0.63067 0.06873 0.60753
 C414 C 0.60686 0.08368 0.58632
 N415 N 0.60452 0.11615 0.58679
 N416 N 0.62499 0.13291 0.60772
 C417 C 0.66005 0.63421 0.15948
 N418 N 0.67464 0.66318 0.15164
 N419 N 0.69607 0.67901 0.17261
 C420 C 0.70401 0.66630 0.20207
 N421 N 0.68952 0.63724 0.20972
 N422 N 0.66786 0.62156 0.18890
 C423 C 0.63592 0.61675 0.13682
 N424 N 0.61540 0.59133 0.14717
 N425 N 0.59351 0.57524 0.12685
 C426 C 0.59147 0.58377 0.09530
 N427 N 0.61215 0.60918 0.08491
 N428 N 0.63383 0.62547 0.10532
   
