data_POSCAR
  _audit_creation_date              2014-09-24
  _audit_creation_method            'ToBaCCo'
  _symmetry_space_group_name_H-M    'P1'
  _symmetry_Int_Tables_number       1
  _symmetry_cell_setting            triclinic
  loop_
  _symmetry_equiv_pos_as_xyz
 x,y,z
_cell_length_a 42.8503
_cell_length_b 43.0615
_cell_length_c 43.3583
_cell_angle_alpha 90.170600
_cell_angle_beta 89.908800
_cell_angle_gamma 87.117500
loop_
  _atom_site_label
  _atom_site_type_symbol
  _atom_site_fract_x
  _atom_site_fract_y
  _atom_site_fract_z
N1 N 0.31154 0.24446 0.23158
 N2 N 0.29590 0.26751 0.21777
 C3 C 0.31177 0.27552 0.19237
 C4 C 0.33875 0.25651 0.19018
 C5 C 0.33781 0.23710 0.21553
 H6 H 0.30391 0.29320 0.17611
 H7 H 0.35426 0.21814 0.22124
 Cu8 Cu 0.25548 0.28332 0.23373
 Cu9 Cu 0.29580 0.22401 0.26813
 Cu10 Cu 0.22446 0.25232 0.29693
 N11 N 0.21525 0.29928 0.25013
 N12 N 0.20334 0.28642 0.27467
 C13 C 0.17489 0.29970 0.28040
 C14 C 0.16847 0.32231 0.25844
 C15 C 0.19473 0.32165 0.23967
 H16 H 0.15977 0.29307 0.29898
 H17 H 0.19804 0.33557 0.21933
 N18 N 0.24918 0.21792 0.31632
 N19 N 0.27598 0.20653 0.30495
 C20 C 0.28576 0.18168 0.32185
 C21 C 0.26427 0.17747 0.34511
 C22 C 0.24142 0.20088 0.34091
 H23 H 0.30661 0.16720 0.31725
 H24 H 0.22000 0.20433 0.35393
 H25 H 0.24905 0.23374 0.25946
 H26 H 0.26945 0.26201 0.28406
 N27 N 0.68201 -0.23094 0.21692
 N28 N 0.69179 -0.25902 0.20820
 C29 C 0.67645 -0.26678 0.18246
 C30 C 0.65567 -0.24233 0.17475
 C31 C 0.65980 -0.21998 0.19729
 H32 H 0.68033 -0.28849 0.17008
 H33 H 0.64825 -0.19714 0.19895
 Cu34 Cu 0.72392 -0.28241 0.23117
 Cu35 Cu 0.70037 -0.20994 0.25185
 Cu36 Cu 0.76439 -0.24775 0.28683
 N37 N 0.76269 -0.30133 0.24701
 N38 N 0.77838 -0.28787 0.26893
 C39 C 0.80478 -0.30519 0.27462
 C40 C 0.80583 -0.33080 0.25508
 C41 C 0.77855 -0.32757 0.23792
 H42 H 0.82243 -0.29911 0.29108
 H43 H 0.77113 -0.34250 0.21953
 N44 N 0.74638 -0.20693 0.30111
 N45 N 0.72221 -0.19261 0.28743
 C46 C 0.71642 -0.16476 0.30093
 C47 C 0.73791 -0.16121 0.32425
 C48 C 0.75645 -0.18848 0.32388
 H49 H 0.69812 -0.14808 0.29399
 H50 H 0.77645 -0.19390 0.33843
 H51 H 0.74379 -0.23282 0.24612
 H52 H 0.71754 -0.24848 0.27617
 N53 N 0.70380 0.24991 0.79544
 N54 N 0.71877 0.27384 0.80552
 C55 C 0.70571 0.28396 0.83221
 C56 C 0.68115 0.26548 0.83919
 C57 C 0.68050 0.24421 0.81524
 H58 H 0.71373 0.30308 0.84576
 H59 H 0.66496 0.22530 0.81303
 Cu60 Cu 0.75482 0.28867 0.78364
 Cu61 Cu 0.71729 0.22647 0.75876
 Cu62 Cu 0.78169 0.25216 0.71960
 N63 N 0.79082 0.30299 0.76127
 N64 N 0.80138 0.28824 0.73649
 C65 C 0.82738 0.30136 0.72660
 C66 C 0.83356 0.32581 0.74621
 C67 C 0.80968 0.32626 0.76783
 H68 H 0.84092 0.29322 0.70687
 H69 H 0.80693 0.34174 0.78745
 N70 N 0.75872 0.21605 0.70600
 N71 N 0.73455 0.20592 0.72120
 C72 C 0.72559 0.17960 0.70765
 C73 C 0.74500 0.17292 0.68267
 C74 C 0.76556 0.19663 0.68223
 H75 H 0.70678 0.16594 0.71577
 H76 H 0.78493 0.19871 0.66649
 H77 H 0.76375 0.23700 0.76103
 H78 H 0.73746 0.26295 0.73697
 N79 N 0.29224 -0.24810 0.78498
 N80 N 0.27715 -0.27146 0.79609
 C81 C 0.28834 -0.27866 0.82428
 C82 C 0.31184 -0.25885 0.83122
 C83 C 0.31376 -0.23983 0.80568
 H84 H 0.27997 -0.29702 0.83856
 H85 H 0.32936 -0.22110 0.80263
 Cu86 Cu 0.24418 -0.29059 0.77314
 Cu87 Cu 0.28205 -0.22964 0.74497
 Cu88 Cu 0.21745 -0.25690 0.70797
 N89 N 0.20503 -0.30202 0.75456
 N90 N 0.19473 -0.28837 0.72924
 C91 C 0.16706 -0.29949 0.72161
 C92 C 0.15942 -0.32153 0.74325
 C93 C 0.18423 -0.32261 0.76383
 H94 H 0.15366 -0.29191 0.70169
 H95 H 0.18669 -0.33688 0.78426
 N96 N 0.24334 -0.22516 0.68999
 N97 N 0.26769 -0.21426 0.70424
 C98 C 0.27888 -0.19116 0.68716
 C99 C 0.26077 -0.18751 0.66088
 C100 C 0.23852 -0.20951 0.66345
 H101 H 0.29814 -0.17728 0.69376
 H102 H 0.21930 -0.21287 0.64790
 H103 H 0.23591 -0.24013 0.74876
 H104 H 0.26201 -0.26728 0.72538
 N105 N 0.68022 -0.23802 0.76989
 N106 N 0.68825 -0.26729 0.77557
 C107 C 0.67043 -0.27747 0.79865
 C108 C 0.64989 -0.25336 0.80764
 C109 C 0.65670 -0.22866 0.78886
 H110 H 0.67290 -0.30038 0.80881
 H111 H 0.64656 -0.20518 0.79007
 Cu112 Cu 0.72239 -0.28867 0.75362
 Cu113 Cu 0.70313 -0.21336 0.74080
 Cu114 Cu 0.76990 -0.24864 0.70839
 N115 N 0.76262 -0.30634 0.74028
 N116 N 0.78089 -0.29082 0.72220
 C117 C 0.80796 -0.30749 0.71811
 C118 C 0.80676 -0.33479 0.73483
 C119 C 0.77745 -0.33335 0.74848
 H120 H 0.82770 -0.29963 0.70522
 H121 H 0.76800 -0.34986 0.76426
 N122 N 0.75461 -0.20602 0.69796
 N123 N 0.72950 -0.19248 0.71083
 C124 C 0.72589 -0.16314 0.70042
 C125 C 0.74984 -0.15791 0.67996
 C126 C 0.76754 -0.18563 0.67882
 H127 H 0.70713 -0.14683 0.70719
 H128 H 0.78858 -0.19031 0.66545
 H129 H 0.72191 -0.24911 0.71333
 H130 H 0.74491 -0.23847 0.74806
 N131 N 0.29688 0.24115 0.79391
 N132 N 0.28048 0.26651 0.80194
 C133 C 0.29158 0.27722 0.82876
 C134 C 0.31642 0.25757 0.83790
 C135 C 0.31921 0.23505 0.81514
 H136 H 0.28187 0.29737 0.84098
 H137 H 0.33577 0.21526 0.81452
 Cu138 Cu 0.24496 0.28127 0.77737
 Cu139 Cu 0.28672 0.21673 0.75767
 Cu140 Cu 0.22132 0.24226 0.71558
 N141 N 0.20822 0.29565 0.75443
 N142 N 0.19868 0.27975 0.73060
 C143 C 0.17162 0.29301 0.72019
 C144 C 0.16380 0.31856 0.73856
 C145 C 0.18758 0.31962 0.75997
 H146 H 0.15848 0.28438 0.70100
 H147 H 0.18895 0.33591 0.77889
 N148 N 0.24761 0.20503 0.70436
 N149 N 0.27243 0.19542 0.72038
 C150 C 0.28454 0.16887 0.70783
 C151 C 0.26652 0.16141 0.68271
 C152 C 0.24339 0.18485 0.68113
 H153 H 0.30464 0.15568 0.71672
 H154 H 0.22441 0.18651 0.66471
 H155 H 0.26444 0.25197 0.73270
 H156 H 0.23928 0.22876 0.75795
 N157 N 0.29471 -0.25404 0.20547
 N158 N 0.27675 -0.27526 0.19441
 C159 C 0.28841 -0.28551 0.16715
 C160 C 0.31514 -0.26987 0.16094
 C161 C 0.31851 -0.25024 0.18582
 H162 H 0.27782 -0.30247 0.15261
 H163 H 0.33616 -0.23337 0.18864
 Cu164 Cu 0.23901 -0.28594 0.21597
 Cu165 Cu 0.28405 -0.23028 0.24248
 Cu166 Cu 0.21605 -0.24784 0.28072
 N167 N 0.20142 -0.29618 0.23796
 N168 N 0.19247 -0.28114 0.26315
 C169 C 0.16539 -0.29214 0.27309
 C170 C 0.15696 -0.31535 0.25301
 C171 C 0.18038 -0.31732 0.23108
 H172 H 0.15277 -0.28366 0.29326
 H173 H 0.18165 -0.33272 0.21133
 N174 N 0.24333 -0.21502 0.29471
 N175 N 0.26930 -0.20868 0.28014
 C176 C 0.28190 -0.18427 0.29389
 C177 C 0.26297 -0.17462 0.31827
 C178 C 0.23881 -0.19475 0.31828
 H179 H 0.30287 -0.17378 0.28613
 H180 H 0.21887 -0.19388 0.33362
 H181 H 0.25866 -0.26397 0.26358
 H182 H 0.23614 -0.23453 0.23981
 N183 N 0.70847 0.24438 0.21022
 N184 N 0.72038 0.27067 0.20205
 C185 C 0.70606 0.28127 0.17627
 C186 C 0.68386 0.26052 0.16793
 C187 C 0.68594 0.23750 0.19008
 H188 H 0.71176 0.30226 0.16435
 H189 H 0.67278 0.21672 0.19082
 Cu190 Cu 0.75420 0.28813 0.22506
 Cu191 Cu 0.72478 0.21988 0.24482
 Cu192 Cu 0.79171 0.24508 0.27941
 N193 N 0.79458 0.29913 0.24083
 N194 N 0.80907 0.28212 0.26202
 C195 C 0.83682 0.29399 0.26807
 C196 C 0.83998 0.31988 0.24965
 C197 C 0.81263 0.32253 0.23272
 H198 H 0.85353 0.28420 0.28444
 H199 H 0.80666 0.33974 0.21529
 N200 N 0.77048 0.20815 0.29350
 N201 N 0.74507 0.19847 0.28012
 C202 C 0.73702 0.17199 0.29372
 C203 C 0.75841 0.16461 0.31677
 C204 C 0.77918 0.18812 0.31608
 H205 H 0.71729 0.15886 0.28700
 H206 H 0.79961 0.18994 0.33046
 H207 H 0.74511 0.25483 0.26933
 H208 H 0.76946 0.23484 0.23865
 C209 C 0.26464 -0.00785 0.41871
 C210 C 0.26937 0.01983 0.43455
 C211 C 0.26760 0.02028 0.46684
 C212 C 0.26052 -0.00666 0.48355
 C213 C 0.25454 -0.03393 0.46683
 C214 C 0.25730 -0.03482 0.43454
 C215 C 0.26088 -0.00665 0.51818
 C216 C 0.26827 -0.03427 0.53483
 C217 C 0.27074 -0.03385 0.56709
 C218 C 0.26639 -0.00560 0.58288
 C219 C 0.25887 0.02205 0.56710
 C220 C 0.25535 0.02128 0.53493
 H221 H 0.26596 -0.00822 0.39374
 H222 H 0.27293 0.04152 0.47862
 H223 H 0.24846 -0.05478 0.47876
 H224 H 0.27322 -0.05610 0.52300
 H225 H 0.26810 -0.00522 0.60782
 H226 H 0.24902 0.04269 0.52308
 C227 C 0.78289 0.00758 0.58434
 C228 C 0.77995 0.03504 0.56725
 C229 C 0.78195 0.03345 0.53493
 C230 C 0.78837 0.00477 0.51955
 C231 C 0.79296 -0.02227 0.53773
 C232 C 0.78899 -0.02120 0.56989
 C233 C 0.78810 0.00273 0.48484
 C234 C 0.78168 -0.02543 0.46967
 C235 C 0.77945 -0.02701 0.43742
 C236 C 0.78212 0.00008 0.42014
 C237 C 0.78810 0.02837 0.43435
 C238 C 0.79224 0.02933 0.46647
 H239 H 0.78043 0.00861 0.60922
 H240 H 0.77700 0.05458 0.52213
 H241 H 0.79839 -0.04451 0.52698
 H242 H 0.77683 -0.04601 0.48261
 H243 H 0.77957 -0.00084 0.39528
 H244 H 0.79754 0.05118 0.47697
 C245 C 0.41412 0.25130 0.00645
 C246 C 0.43042 0.25574 0.03391
 C247 C 0.46320 0.25244 0.03386
 C248 C 0.47991 0.24413 0.00658
 C249 C 0.46255 0.23820 -0.02033
 C250 C 0.42988 0.24266 -0.02074
 C251 C 0.51511 0.24314 0.00562
 C252 C 0.53121 0.24733 -0.02250
 C253 C 0.56396 0.24754 -0.02355
 C254 C 0.58080 0.24548 0.00402
 C255 C 0.56564 0.24153 0.03225
 C256 C 0.53302 0.23940 0.03284
 H257 H 0.38883 0.25393 0.00635
 H258 H 0.47526 0.25755 0.05499
 H259 H 0.47423 0.23090 -0.04139
 H260 H 0.51859 0.25164 -0.04371
 H261 H 0.60604 0.24634 0.00349
 H262 H 0.52183 0.23566 0.05475
 C263 C 0.58004 0.73372 -0.00714
 C264 C 0.56524 0.74121 0.02086
 C265 C 0.53323 0.74995 0.02107
 C266 C 0.51508 0.74869 -0.00619
 C267 C 0.53089 0.74126 -0.03412
 C268 C 0.56321 0.73447 -0.03471
 C269 C 0.47993 0.75319 -0.00523
 C270 C 0.46217 0.75920 -0.03233
 C271 C 0.42931 0.75914 -0.03188
 C272 C 0.41396 0.75539 -0.00371
 C273 C 0.43078 0.75115 0.02365
 C274 C 0.46351 0.74922 0.02265
 H275 H 0.60504 0.72842 -0.00758
 H276 H 0.52277 0.75697 0.04284
 H277 H 0.51848 0.73973 -0.05566
 H278 H 0.47355 0.76286 -0.05410
 H279 H 0.38865 0.75599 -0.00305
 H280 H 0.47572 0.74319 0.04371
 C281 C -0.00126 0.42427 0.22640
 C282 C 0.02602 0.44047 0.22945
 C283 C 0.02370 0.47304 0.23127
 C284 C -0.00549 0.48979 0.22861
 C285 C -0.03252 0.47265 0.22447
 C286 C -0.03063 0.43994 0.22445
 C287 C -0.00769 0.52468 0.23210
 C288 C -0.03567 0.54069 0.24198
 C289 C -0.03673 0.57288 0.24752
 C290 C -0.00955 0.58919 0.24393
 C291 C 0.01835 0.57418 0.23396
 C292 C 0.01886 0.54227 0.22712
 H293 H 0.00036 0.39907 0.22576
 H294 H 0.04473 0.48486 0.23632
 H295 H -0.05521 0.48446 0.22234
 H296 H -0.05654 0.52841 0.24660
 H297 H -0.01026 0.61401 0.24831
 H298 H 0.04038 0.53121 0.21871
 C299 C -0.00734 0.58852 0.75943
 C300 C 0.02012 0.57240 0.76882
 C301 C 0.01967 0.54029 0.77434
 C302 C -0.00745 0.52377 0.76821
 C303 C -0.03473 0.54081 0.75853
 C304 C -0.03480 0.57307 0.75433
 C305 C -0.00652 0.48883 0.76905
 C306 C -0.03412 0.47236 0.77235
 C307 C -0.03345 0.43985 0.76883
 C308 C -0.00480 0.42346 0.76409
 C309 C 0.02303 0.43898 0.76266
 C310 C 0.02193 0.47153 0.76422
 H311 H -0.00728 0.61344 0.75606
 H312 H 0.04089 0.52825 0.78219
 H313 H -0.05569 0.52917 0.75267
 H314 H -0.05634 0.48463 0.77656
 H315 H -0.00412 0.39834 0.76203
 H316 H 0.04336 0.48308 0.76025
 C317 C 0.37491 0.27068 0.11390
 C318 C 0.40157 0.25036 0.11454
 N319 N 0.40797 0.23338 0.14029
 C320 C 0.38869 0.23542 0.16527
 C321 C 0.36153 0.25522 0.16447
 N322 N 0.35556 0.27260 0.13875
 N323 N 0.36815 0.28729 0.08801
 C324 C 0.38646 0.28401 0.06247
 C325 C 0.41271 0.26297 0.06262
 N326 N 0.41982 0.24692 0.08895
 H327 H 0.39443 0.22141 0.18531
 H328 H 0.38027 0.29727 0.04202
 C329 C 0.61930 0.73617 0.10247
 C330 C 0.59834 0.76170 0.09721
 N331 N 0.59648 0.78539 0.11796
 C332 C 0.61473 0.78483 0.14365
 C333 C 0.63587 0.75923 0.14903
 N334 N 0.63734 0.73549 0.12815
 N335 N 0.62172 0.71271 0.08156
 C336 C 0.60433 0.71371 0.05540
 C337 C 0.58341 0.73932 0.04982
 N338 N 0.58073 0.76266 0.07112
 H339 H 0.61259 0.80421 0.15954
 H340 H 0.60673 0.69464 0.03911
 C341 C 0.61604 0.25119 -0.10666
 C342 C 0.62548 0.26671 -0.08003
 N343 N 0.65228 0.28217 -0.08045
 C344 C 0.67026 0.28269 -0.10627
 C345 C 0.66130 0.26665 -0.13290
 N346 N 0.63425 0.25127 -0.13237
 N347 N 0.58911 0.23586 -0.10617
 C348 C 0.57130 0.23514 -0.08016
 C349 C 0.58105 0.25010 -0.05316
 N350 N 0.60802 0.26558 -0.05396
 H351 H 0.69167 0.29493 -0.10566
 H352 H 0.55034 0.22214 -0.08033
 C353 C 0.37464 0.75996 -0.11356
 C354 C 0.36623 0.74316 -0.08746
 N355 N 0.34038 0.72627 -0.08820
 C356 C 0.32249 0.72527 -0.11397
 C357 C 0.33073 0.74202 -0.14034
 N358 N 0.35669 0.75913 -0.13937
 N359 N 0.40074 0.77663 -0.11267
 C360 C 0.41889 0.77711 -0.08689
 C361 C 0.41051 0.76018 -0.06064
 N362 N 0.38418 0.74374 -0.06181
 H363 H 0.30198 0.71165 -0.11366
 H364 H 0.43933 0.79086 -0.08683
 C365 C 0.11179 0.38723 0.23734
 C366 C 0.08402 0.37690 0.24999
 N367 N 0.08425 0.34925 0.26483
 C368 C 0.11107 0.33137 0.26776
 C369 C 0.13906 0.34141 0.25506
 N370 N 0.13869 0.36919 0.23994
 N371 N 0.11135 0.41517 0.22279
 C372 C 0.08438 0.43318 0.22028
 C373 C 0.05640 0.42265 0.23267
 N374 N 0.05716 0.39464 0.24719
 H375 H 0.11033 0.30935 0.27960
 H376 H 0.08466 0.45508 0.20815
 C377 C 0.10306 0.62234 0.76770
 C378 C 0.07904 0.62820 0.74631
 N379 N 0.08203 0.65016 0.72440
 C380 C 0.10805 0.66675 0.72276
 C381 C 0.13238 0.66139 0.74429
 N382 N 0.12912 0.63915 0.76636
 N383 N 0.09989 0.59987 0.78933
 C384 C 0.07373 0.58307 0.79046
 C385 C 0.04946 0.58925 0.76914
 N386 N 0.05301 0.61176 0.74764
 H387 H 0.10924 0.68405 0.70489
 H388 H 0.07172 0.56554 0.80807
 C389 C -0.11841 0.62873 0.26681
 C390 C -0.11882 0.60501 0.24459
 N391 N -0.14479 0.60208 0.22714
 C392 C -0.17020 0.62209 0.23053
 C393 C -0.16958 0.64656 0.25223
 N394 N -0.14363 0.64885 0.27006
 N395 N -0.09233 0.63212 0.28392
 C396 C -0.06631 0.61332 0.27931
 C397 C -0.06616 0.59016 0.25631
 N398 N -0.09272 0.58631 0.23976
 H399 H -0.19027 0.61908 0.21597
 H400 H -0.04566 0.61691 0.29295
 C401 C -0.11427 0.38701 0.76704
 C402 C -0.08972 0.38133 0.74608
 N403 N -0.09137 0.35814 0.72505
 C404 C -0.11639 0.34004 0.72409
 C405 C -0.14092 0.34498 0.74557
 N406 N -0.13915 0.36860 0.76650
 N407 N -0.11263 0.41062 0.78779
 C408 C -0.08738 0.42865 0.78860
 C409 C -0.06238 0.42247 0.76803
 N410 N -0.06441 0.39890 0.74724
 H411 H -0.11658 0.32173 0.70701
 H412 H -0.08646 0.44701 0.80562
 C413 C 0.28112 0.10004 0.38050
 C414 C 0.26081 0.10103 0.40596
 N415 N 0.24292 0.12729 0.41179
 C416 C 0.24407 0.15251 0.39307
 C417 C 0.26402 0.15147 0.36723
 N418 N 0.28232 0.12522 0.36182
 N419 N 0.29843 0.07353 0.37418
 C420 C 0.29596 0.04774 0.39185
 C421 C 0.27519 0.04840 0.41705
 N422 N 0.25834 0.07528 0.42367
 H423 H 0.22937 0.17301 0.39826
 H424 H 0.30978 0.02679 0.38608
 C425 C 0.76640 0.11894 0.61805
 C426 C 0.75155 0.09205 0.62679
 N427 N 0.73376 0.09240 0.65271
 C428 C 0.73039 0.11835 0.67058
 C429 C 0.74599 0.14515 0.66249
 N430 N 0.76355 0.14473 0.63620
 N431 N 0.78410 0.11853 0.59201
 C432 C 0.78792 0.09230 0.57449
 C433 C 0.77382 0.06499 0.58369
 N434 N 0.75584 0.06575 0.60967
 H435 H 0.71639 0.11766 0.69130
 H436 H 0.80274 0.09248 0.55426
 C437 C 0.28086 -0.11401 0.62289
 C438 C 0.26160 -0.11368 0.59671
 N439 N 0.24374 -0.13820 0.59105
 C440 C 0.24379 -0.16278 0.61067
 C441 C 0.26235 -0.16280 0.63745
 N442 N 0.28076 -0.13843 0.64261
 N443 N 0.29825 -0.08925 0.62895
 C444 C 0.29669 -0.06382 0.61043
 C445 C 0.27657 -0.06288 0.58477
 N446 N 0.25984 -0.08817 0.57830
 H447 H 0.22907 -0.18180 0.60557
 H448 H 0.31050 -0.04422 0.61606
 C449 C 0.76369 -0.10954 0.38736
 C450 C 0.74991 -0.08075 0.37841
 N451 N 0.73211 -0.07882 0.35262
 C452 C 0.72750 -0.10440 0.33517
 C453 C 0.74163 -0.13334 0.34364
 N454 N 0.75947 -0.13516 0.36969
 N455 N 0.78141 -0.11124 0.41334
 C456 C 0.78615 -0.08538 0.43059
 C457 C 0.77291 -0.05634 0.42120
 N458 N 0.75502 -0.05498 0.39528
 H459 H 0.71348 -0.10185 0.31455
 H460 H 0.80089 -0.08734 0.45080
 C461 C 0.61472 0.72559 -0.11766
 C462 C 0.59122 0.74921 -0.11393
 N463 N 0.58659 0.77093 -0.13628
 C464 C 0.60465 0.77035 -0.16210
 C465 C 0.62846 0.74694 -0.16577
 N466 N 0.63267 0.72493 -0.14347
 N467 N 0.61997 0.70440 -0.09490
 C468 C 0.60307 0.70603 -0.06833
 C469 C 0.57980 0.72992 -0.06433
 N470 N 0.57427 0.75078 -0.08747
 H471 H 0.60053 0.78809 -0.17943
 H472 H 0.60796 0.68908 -0.05038
 C473 C 0.37748 0.23889 -0.10338
 C474 C 0.36949 0.26051 -0.08010
 N475 N 0.34472 0.28095 -0.08400
 C476 C 0.32740 0.28076 -0.11020
 C477 C 0.33509 0.25898 -0.13361
 N478 N 0.36007 0.23852 -0.12952
 N479 N 0.40244 0.21857 -0.09939
 C480 C 0.41985 0.21899 -0.07314
 C481 C 0.41183 0.24068 -0.04971
 N482 N 0.38668 0.26081 -0.05394
 H483 H 0.30773 0.29731 -0.11244
 H484 H 0.43936 0.20229 -0.07047
 C485 C 0.37968 0.74464 0.10677
 C486 C 0.36946 0.73069 0.07958
 N487 N 0.34233 0.71574 0.07967
 C488 C 0.32473 0.71435 0.10570
 C489 C 0.33451 0.72896 0.13284
 N490 N 0.36191 0.74368 0.13262
 N491 N 0.40685 0.75953 0.10671
 C492 C 0.42423 0.76129 0.08056
 C493 C 0.41375 0.74787 0.05306
 N494 N 0.38652 0.73283 0.05338
 H495 H 0.30303 0.70261 0.10489
 H496 H 0.44548 0.77383 0.08106
 C497 C 0.62092 0.24148 0.11321
 C498 C 0.62659 0.26143 0.08856
 N499 N 0.65030 0.28105 0.09040
 C500 C 0.66878 0.28161 0.11580
 C501 C 0.66353 0.26138 0.14048
 N502 N 0.63960 0.24174 0.13849
 N503 N 0.59694 0.22207 0.11134
 C504 C 0.57839 0.22170 0.08587
 C505 C 0.58431 0.24143 0.06094
 N506 N 0.60839 0.26079 0.06308
 H507 H 0.68764 0.29736 0.11637
 H508 H 0.55971 0.20573 0.08485
 C509 C -0.11532 0.62822 0.73009
 C510 C -0.11753 0.60309 0.75036
 N511 N -0.14536 0.59798 0.76395
 C512 C -0.17098 0.61720 0.75862
 C513 C -0.16857 0.64310 0.73906
 N514 N -0.14071 0.64754 0.72503
 N515 N -0.08757 0.63364 0.71664
 C516 C -0.06162 0.61546 0.72308
 C517 C -0.06335 0.59089 0.74427
 N518 N -0.09153 0.58502 0.75706
 H519 H -0.19263 0.61252 0.77013
 H520 H -0.03976 0.62043 0.71205
 C521 C -0.11012 0.38509 0.22906
 C522 C -0.08200 0.37598 0.24366
 N523 N -0.07979 0.34913 0.25988
 C524 C -0.10452 0.33080 0.26227
 C525 C -0.13288 0.33962 0.24764
 N526 N -0.13493 0.36668 0.23125
 N527 N -0.11208 0.41217 0.21297
 C528 C -0.08716 0.43056 0.21090
 C529 C -0.05884 0.42134 0.22547
 N530 N -0.05725 0.39414 0.24145
 H531 H -0.10177 0.30947 0.27526
 H532 H -0.08935 0.45179 0.19764
 C533 C 0.10780 0.38466 0.75578
 C534 C 0.08122 0.37641 0.73943
 N535 N 0.08239 0.35009 0.72208
 C536 C 0.10890 0.33141 0.72060
 C537 C 0.13534 0.33916 0.73763
 N538 N 0.13407 0.36578 0.75471
 N539 N 0.10667 0.41100 0.77307
 C540 C 0.08001 0.42940 0.77499
 C541 C 0.05307 0.42089 0.75919
 N542 N 0.05446 0.39448 0.74173
 H543 H 0.10896 0.31039 0.70688
 H544 H 0.07962 0.44991 0.78951
 C545 C 0.09989 0.62600 0.23237
 C546 C 0.07616 0.63222 0.25412
 N547 N 0.07921 0.65515 0.27526
 C548 C 0.10498 0.67227 0.27565
 C549 C 0.12883 0.66629 0.25378
 N550 N 0.12559 0.64319 0.23262
 N551 N 0.09676 0.60297 0.21129
 C552 C 0.07094 0.58578 0.21105
 C553 C 0.04703 0.59199 0.23286
 N554 N 0.05042 0.61522 0.25380
 H555 H 0.10659 0.69042 0.29276
 H556 H 0.06896 0.56790 0.19369
 C557 C 0.78067 -0.10331 0.62246
 C558 C 0.76395 -0.07555 0.63014
 N559 N 0.74362 -0.07491 0.65412
 C560 C 0.73893 -0.10094 0.67072
 C561 C 0.75529 -0.12904 0.66297
 N562 N 0.77604 -0.12943 0.63905
 N563 N 0.80080 -0.10377 0.59819
 C564 C 0.80466 -0.07776 0.58104
 C565 C 0.78755 -0.04994 0.58849
 N566 N 0.76778 -0.04975 0.61311
 H567 H 0.72259 -0.09953 0.68973
 H568 H 0.82098 -0.07886 0.56197
 C569 C 0.24964 -0.11691 0.38153
 C570 C 0.27148 -0.09489 0.37417
 N571 N 0.29042 -0.09948 0.34937
 C572 C 0.28850 -0.12511 0.33135
 C573 C 0.26638 -0.14718 0.33825
 N574 N 0.24743 -0.14247 0.36333
 N575 N 0.23084 -0.11213 0.40655
 C576 C 0.23286 -0.08626 0.42447
 C577 C 0.25451 -0.06395 0.41683
 N578 N 0.27325 -0.06906 0.39177
 H579 H 0.30382 -0.12776 0.31161
 H580 H 0.21728 -0.08284 0.44397
 C581 C 0.78312 0.10951 0.37899
 C582 C 0.76408 0.08463 0.37324
 N583 N 0.74338 0.08632 0.34963
 C584 C 0.74082 0.11185 0.33133
 C585 C 0.76001 0.13687 0.33674
 N586 N 0.78079 0.13500 0.36056
 N587 N 0.80367 0.10770 0.40285
 C588 C 0.80597 0.08208 0.42125
 C589 C 0.78699 0.05697 0.41537
 N590 N 0.76654 0.05909 0.39137
 H591 H 0.72423 0.11226 0.31257
 H592 H 0.82276 0.08118 0.43987
 C593 C 0.25270 0.10514 0.61979
 C594 C 0.27425 0.08071 0.62709
 N595 N 0.29330 0.08325 0.65179
 C596 C 0.29169 0.10912 0.66978
 C597 C 0.26982 0.13357 0.66291
 N598 N 0.25085 0.13094 0.63791
 N599 N 0.23372 0.10242 0.59496
 C600 C 0.23527 0.07627 0.57715
 C601 C 0.25662 0.05155 0.58472
 N602 N 0.27557 0.05463 0.60958
 H603 H 0.30708 0.11021 0.68942
 H604 H 0.21951 0.07459 0.55782
   
