data_POSCAR
  _audit_creation_date              2014-09-24
  _audit_creation_method            'ToBaCCo'
  _symmetry_space_group_name_H-M    'P1'
  _symmetry_Int_Tables_number       1
  _symmetry_cell_setting            triclinic
  loop_
  _symmetry_equiv_pos_as_xyz
 x,y,z
_cell_length_a 27.7878
_cell_length_b 27.6965
_cell_length_c 27.7595
_cell_angle_alpha 100.586500
_cell_angle_beta 78.071200
_cell_angle_gamma 71.525600
loop_
  _atom_site_label
  _atom_site_type_symbol
  _atom_site_fract_x
  _atom_site_fract_y
  _atom_site_fract_z
C1 C 0.54906 0.49836 0.00681
 C2 C 0.50683 0.54269 0.00455
 C3 C 0.45818 0.53747 0.00356
 C4 C 0.44949 0.49024 0.00439
 C5 C 0.49141 0.44666 0.00768
 C6 C 0.54023 0.45120 0.00788
 H7 H 0.57143 0.41743 0.01082
 H8 H 0.42631 0.57104 0.00134
 C9 C -0.01354 0.46623 0.51923
 C10 C 0.00315 0.49750 0.55330
 C11 C 0.01412 0.54058 0.54086
 C12 C 0.00749 0.55502 0.49566
 C13 C -0.00959 0.52328 0.46174
 C14 C -0.01979 0.47987 0.47410
 H15 H -0.03053 0.45482 0.44679
 H16 H 0.02443 0.56515 0.56896
 C17 C 0.49409 0.00011 0.44411
 C18 C 0.45379 0.00060 0.48467
 C19 C 0.46178 0.00376 0.53316
 C20 C 0.50980 0.00385 0.54251
 C21 C 0.55150 0.00135 0.50099
 C22 C 0.54234 -0.00060 0.45260
 H23 H 0.57240 -0.00012 0.42102
 H24 H 0.43054 0.00333 0.56364
 O25 O 0.46955 -0.00664 -0.07140
 O26 O 0.45765 0.00566 0.06496
 O27 O 0.45801 0.06894 0.00526
 O28 O 0.46945 -0.06915 -0.01268
 O29 O 0.55623 -0.09488 -0.02904
 O30 O 0.54478 0.04367 -0.01094
 O31 O 0.54441 -0.01903 0.04830
 O32 O 0.55634 -0.03159 -0.08848
 Cu33 Cu 0.45492 0.00234 -0.00167
 Cu34 Cu 0.55922 -0.02805 -0.02172
 C35 C 0.51473 -0.02073 -0.10321
 C36 C 0.49910 -0.00510 0.07990
 C37 C 0.49954 0.07987 -0.00045
 C38 C 0.51456 -0.10559 -0.02351
 O39 O -0.08579 0.54568 1.02379
 O40 O 0.05126 0.54035 1.00514
 O41 O -0.01181 0.53947 0.94643
 O42 O -0.02462 0.54972 1.08276
 O43 O 0.00598 0.46270 1.06601
 O44 O 0.01821 0.45245 0.92912
 O45 O 0.08013 0.45341 0.98827
 O46 O -0.05633 0.45878 1.00752
 Cu47 Cu -0.02052 0.55250 1.01602
 Cu48 Cu 0.01472 0.44810 0.99592
 C49 C -0.09437 0.50286 1.01854
 C50 C 0.08898 0.49601 0.99470
 C51 C 0.00458 0.49446 0.91458
 C52 C -0.01069 0.50800 1.09759
 O53 O 0.01904 -0.06880 0.45218
 O54 O -0.00941 0.07406 0.46820
 O55 O 0.07540 -0.00793 0.45190
 O56 O -0.06444 0.01335 0.46468
 O57 O -0.08053 0.02582 0.54811
 O58 O 0.06040 0.00417 0.53524
 O59 O -0.02409 0.08629 0.55155
 O60 O 0.00405 -0.05569 0.53560
 Cu61 Cu 0.00676 0.00129 0.45093
 Cu62 Cu -0.01165 0.01640 0.55094
 C63 C 0.01556 -0.08647 0.49146
 C64 C -0.02064 0.10437 0.51265
 C65 C 0.09170 -0.00446 0.49140
 C66 C -0.09633 0.02251 0.50818
 C67 C -0.30288 0.50243 1.02166
 C68 C -0.30568 0.45843 0.98966
 C69 C -0.35434 0.45713 0.98519
 C70 C -0.40178 0.50023 1.01196
 C71 C -0.39888 0.54397 1.04475
 C72 C -0.35005 0.54511 1.04934
 C73 C -0.25068 0.50382 1.02511
 C74 C -0.24030 0.55048 1.02671
 C75 C -0.18992 0.55063 1.02614
 C76 C -0.14882 0.50405 1.02371
 C77 C -0.15963 0.45783 1.02368
 C78 C -0.21001 0.45776 1.02456
 H79 H -0.35450 0.42304 0.95895
 H80 H -0.43445 0.57686 1.06794
 H81 H -0.18277 0.58685 1.02605
 H82 H -0.12894 0.42141 1.02229
 H83 H -0.34928 0.57912 1.07516
 H84 H -0.27060 0.58647 1.02662
 H85 H -0.27004 0.42532 0.96701
 H86 H -0.21702 0.42145 1.02439
 C87 C 0.29848 0.48946 0.99663
 C88 C 0.32448 0.51396 0.96631
 C89 C 0.37420 0.51359 0.96870
 C90 C 0.39956 0.48867 1.00158
 C91 C 0.37293 0.46441 1.03225
 C92 C 0.32324 0.46443 1.02945
 C93 C 0.24530 0.49077 0.99444
 C94 C 0.23324 0.44504 0.99210
 C95 C 0.18288 0.44648 0.99065
 C96 C 0.14335 0.49383 0.99204
 C97 C 0.15561 0.53947 0.99388
 C98 C 0.20618 0.53788 0.99482
 H99 H 0.39348 0.53165 0.94341
 H100 H 0.38925 0.44729 1.06007
 H101 H 0.17463 0.41066 0.98947
 H102 H 0.12598 0.57656 0.99518
 H103 H 0.30345 0.44614 1.05403
 H104 H 0.26287 0.40811 0.99120
 H105 H 0.30662 0.53286 0.94012
 H106 H 0.21437 0.57381 0.99700
 C107 C 0.02535 -0.30051 0.48031
 C108 C 0.05910 -0.33490 0.50089
 C109 C 0.05424 -0.38295 0.50442
 C110 C 0.01533 -0.39830 0.48753
 C111 C -0.01768 -0.36386 0.46588
 C112 C -0.01247 -0.31596 0.46203
 C113 C 0.02714 -0.24724 0.48113
 C114 C 0.02250 -0.22607 0.43923
 C115 C 0.02078 -0.17451 0.44171
 C116 C 0.02295 -0.14283 0.48642
 C117 C 0.02871 -0.16448 0.52785
 C118 C 0.03104 -0.21610 0.52514
 H119 H 0.08172 -0.40840 0.51995
 H120 H -0.05026 -0.37164 0.45513
 H121 H 0.01614 -0.15893 0.40922
 H122 H 0.03049 -0.14115 0.56285
 H123 H -0.03988 -0.28972 0.44704
 H124 H 0.01979 -0.24929 0.40468
 H125 H 0.08921 -0.32445 0.51459
 H126 H 0.03404 -0.23103 0.55826
 C127 C -0.02983 0.31864 0.53051
 C128 C -0.06898 0.35726 0.51878
 C129 C -0.06493 0.40612 0.51760
 C130 C -0.02126 0.41713 0.52737
 C131 C 0.01739 0.37872 0.54001
 C132 C 0.01283 0.33023 0.54213
 C133 C -0.03172 0.26532 0.52782
 C134 C -0.02318 0.24131 0.56723
 C135 C -0.02165 0.18971 0.56309
 C136 C -0.02760 0.16069 0.51899
 C137 C -0.03698 0.18505 0.47990
 C138 C -0.03950 0.23703 0.48450
 H139 H -0.09539 0.43499 0.50789
 H140 H 0.05226 0.38529 0.54625
 H141 H -0.01408 0.17192 0.59373
 H142 H -0.04170 0.16370 0.44550
 H143 H 0.04389 0.30083 0.55062
 H144 H -0.01729 0.26240 0.60108
 H145 H -0.10242 0.34938 0.51002
 H146 H -0.04572 0.25454 0.45339
 C147 C 0.52035 -0.01000 -0.30995
 C148 C 0.47558 0.02685 -0.31617
 C149 C 0.47289 0.03205 -0.36456
 C150 C 0.51526 0.00109 -0.40835
 C151 C 0.56088 -0.03485 -0.40188
 C152 C 0.56340 -0.04022 -0.35318
 C153 C 0.52095 -0.01719 -0.25840
 C154 C 0.56644 -0.02359 -0.24167
 C155 C 0.56513 -0.02649 -0.19162
 C156 C 0.51826 -0.02290 -0.15746
 C157 C 0.47348 -0.01843 -0.17487
 C158 C 0.47489 -0.01584 -0.22477
 H159 H 0.43763 0.06110 -0.36760
 H160 H 0.59363 -0.06072 -0.43459
 H161 H 0.60025 -0.02987 -0.17922
 H162 H 0.43696 -0.01619 -0.14969
 H163 H 0.59823 -0.06933 -0.34957
 H164 H 0.60243 -0.02454 -0.26667
 H165 H 0.44236 0.05179 -0.28346
 H166 H 0.43960 -0.01228 -0.23692
 C167 C 0.48512 0.00242 0.29182
 C168 C 0.49720 0.04123 0.32155
 C169 C 0.49810 0.04122 0.37155
 C170 C 0.48751 0.00208 0.39273
 C171 C 0.47434 -0.03623 0.36343
 C172 C 0.47265 -0.03574 0.31343
 C173 C 0.48814 0.00064 0.23768
 C174 C 0.44658 -0.00329 0.21784
 C175 C 0.44966 -0.00418 0.16671
 C176 C 0.49480 -0.00220 0.13438
 C177 C 0.53649 0.00126 0.15427
 C178 C 0.53300 0.00309 0.20550
 H179 H 0.50804 0.07133 0.39355
 H180 H 0.46679 -0.06723 0.37871
 H181 H 0.41708 -0.00721 0.15227
 H182 H 0.57174 0.00283 0.13027
 H183 H 0.46357 -0.06626 0.29100
 H184 H 0.41154 -0.00501 0.24206
 H185 H 0.50639 0.07135 0.30586
 H186 H 0.56572 0.00570 0.21990
 C187 C 0.51790 -0.31282 -0.01597
 C188 C 0.55978 -0.36080 -0.04266
 C189 C 0.55682 -0.40861 -0.03556
 C190 C 0.51207 -0.40932 -0.00115
 C191 C 0.47065 -0.36084 0.02586
 C192 C 0.47368 -0.31337 0.01874
 C193 C 0.51950 -0.26190 -0.02387
 C194 C 0.47364 -0.22323 -0.02626
 C195 C 0.47278 -0.17306 -0.02804
 C196 C 0.51789 -0.16051 -0.02779
 C197 C 0.56469 -0.19997 -0.02811
 C198 C 0.56547 -0.25030 -0.02612
 H199 H 0.58868 -0.44506 -0.05847
 H200 H 0.43614 -0.35942 0.05360
 H201 H 0.43632 -0.14371 -0.02843
 H202 H 0.60006 -0.19138 -0.02790
 H203 H 0.44141 -0.27686 0.04084
 H204 H 0.43800 -0.23150 -0.02577
 H205 H 0.59411 -0.36145 -0.07005
 H206 H 0.60129 -0.27938 -0.02416
 C207 C 0.48748 0.29306 0.00818
 C208 C 0.47438 0.31575 -0.03092
 C209 C 0.47522 0.36591 -0.03120
 C210 C 0.48797 0.39447 0.00827
 C211 C 0.50018 0.37203 0.04772
 C212 C 0.50015 0.32170 0.04757
 C213 C 0.48976 0.23890 0.00716
 C214 C 0.53446 0.20194 0.01344
 C215 C 0.53745 0.15032 0.01141
 C216 C 0.49541 0.13500 0.00387
 C217 C 0.45027 0.17229 -0.00153
 C218 C 0.44767 0.22372 -0.00035
 H219 H 0.46647 0.38224 -0.06236
 H220 H 0.51009 0.39348 0.07851
 H221 H 0.57269 0.12239 0.01567
 H222 H 0.41743 0.16141 -0.00771
 H223 H 0.51001 0.30508 0.07826
 H224 H 0.56752 0.21276 0.01893
 H225 H 0.46499 0.29404 -0.06193
 H226 H 0.41272 0.25176 -0.00498
 C227 C -0.30326 0.01695 0.51193
 C228 C -0.30504 -0.01886 0.47006
 C229 C -0.35254 -0.02444 0.46716
 C230 C -0.40000 0.00535 0.50628
 C231 C -0.39790 0.04081 0.54872
 C232 C -0.35004 0.04626 0.55161
 C233 C -0.25255 0.02375 0.51311
 C234 C -0.23610 0.02667 0.55782
 C235 C -0.18600 0.02826 0.55698
 C236 C -0.15159 0.02709 0.51144
 C237 C -0.16919 0.02655 0.46746
 C238 C -0.21900 0.02496 0.46831
 H239 H -0.35175 -0.05320 0.43447
 H240 H -0.43355 0.06614 0.57873
 H241 H -0.17358 0.02863 0.59149
 H242 H -0.14395 0.02613 0.43185
 H243 H -0.34993 0.07463 0.58409
 H244 H -0.26110 0.02566 0.59287
 H245 H -0.26941 -0.04297 0.43945
 H246 H -0.23104 0.02393 0.43355
 C247 C 0.30395 -0.00895 0.47667
 C248 C 0.31942 0.03006 0.45944
 C249 C 0.36867 0.03279 0.46069
 C250 C 0.40347 -0.00397 0.47844
 C251 C 0.38859 -0.04391 0.49402
 C252 C 0.33934 -0.04628 0.49331
 C253 C 0.25028 -0.00959 0.47949
 C254 C 0.22000 -0.01534 0.52382
 C255 C 0.16882 -0.01452 0.52743
 C256 C 0.14704 -0.00859 0.48652
 C257 C 0.17773 -0.00382 0.44179
 C258 C 0.22870 -0.00393 0.43846
 H259 H 0.37900 0.06435 0.44915
 H260 H 0.41492 -0.07284 0.50761
 H261 H 0.14614 -0.01812 0.56242
 H262 H 0.16193 0.00114 0.40971
 H263 H 0.32870 -0.07713 0.50616
 H264 H 0.23553 -0.01927 0.55621
 H265 H 0.29265 0.05956 0.44679
 H266 H 0.25136 0.00020 0.40376
 C267 C -0.01172 0.52700 1.30844
 C268 C -0.05891 0.53823 1.34620
 C269 C -0.05838 0.53843 1.39644
 C270 C -0.01090 0.52886 1.40995
 C271 C 0.03602 0.51941 1.37263
 C272 C 0.03569 0.51804 1.32208
 C273 C -0.01169 0.52232 1.25454
 C274 C 0.02244 0.47625 1.21641
 C275 C 0.02171 0.47104 1.16555
 C276 C -0.01240 0.51230 1.15179
 C277 C -0.04638 0.55852 1.18998
 C278 C -0.04648 0.56322 1.24103
 H279 H -0.09483 0.54529 1.42474
 H280 H 0.07307 0.51130 1.38232
 H281 H 0.04861 0.43519 1.13682
 H282 H -0.07303 0.59092 1.18037
 H283 H 0.07248 0.50945 1.29348
 H284 H 0.04924 0.44406 1.22614
 H285 H -0.09580 0.54490 1.33638
 H286 H -0.07314 0.59906 1.26993
 C287 C 0.00681 0.48400 0.70424
 C288 C -0.04058 0.49382 0.69048
 C289 C -0.04129 0.49603 0.64071
 C290 C 0.00518 0.48941 0.60423
 C291 C 0.05272 0.47887 0.61772
 C292 C 0.05367 0.47550 0.66721
 C293 C 0.00663 0.48593 0.75788
 C294 C 0.04114 0.44376 0.77019
 C295 C 0.04045 0.44616 0.82121
 C296 C 0.00624 0.49139 0.86048
 C297 C -0.02766 0.53377 0.84787
 C298 C -0.02785 0.53083 0.79715
 H299 H -0.07839 0.50462 0.63106
 H300 H 0.08889 0.47389 0.59005
 H301 H 0.06699 0.41297 0.82991
 H302 H -0.05471 0.56895 0.87737
 H303 H 0.09054 0.46825 0.67717
 H304 H 0.06805 0.40877 0.74038
 H305 H -0.07713 0.50040 0.71848
 H306 H -0.05449 0.56395 0.78843
   
