data_POSCAR
  _audit_creation_date              2014-09-24
  _audit_creation_method            'ToBaCCo'
  _symmetry_space_group_name_H-M    'P1'
  _symmetry_Int_Tables_number       1
  _symmetry_cell_setting            triclinic
  loop_
  _symmetry_equiv_pos_as_xyz
 x,y,z
_cell_length_a 29.7887
_cell_length_b 31.7216
_cell_length_c 29.5559
_cell_angle_alpha 89.589900
_cell_angle_beta 91.730700
_cell_angle_gamma 87.928200
loop_
  _atom_site_label
  _atom_site_type_symbol
  _atom_site_fract_x
  _atom_site_fract_y
  _atom_site_fract_z
N1 N 0.15013 1.24378 0.16587
 N2 N 0.12126 1.23308 0.19634
 C3 C 0.08765 1.26266 0.19713
 C4 C 0.09575 1.29313 0.16488
 C5 C 0.13588 1.28029 0.14599
 H6 H 0.05834 1.26087 0.21766
 H7 H 0.15288 1.29557 0.11888
 Cu8 Cu 0.12829 1.17885 0.22733
 Cu9 Cu 0.20320 1.20866 0.15281
 Cu10 Cu 0.19579 1.10376 0.18511
 N11 N 0.13886 1.12526 0.25896
 N12 N 0.16557 1.09582 0.24209
 C13 C 0.16410 1.06058 0.26755
 C14 C 0.13453 1.06826 0.30203
 C15 C 0.11935 1.10975 0.29574
 H16 H 0.18151 1.03107 0.26002
 H17 H 0.09448 1.12670 0.31517
 N18 N 0.23809 1.12299 0.13993
 N19 N 0.24241 1.16313 0.12939
 C20 C 0.27507 1.16630 0.09918
 C21 C 0.29184 1.12619 0.09013
 C22 C 0.26771 1.09947 0.11646
 H23 H 0.28524 1.19553 0.08424
 H24 H 0.27191 1.06551 0.11888
 H25 H 0.16367 1.15815 0.15709
 H26 H 0.20515 1.16329 0.20509
 N27 N 0.86296 0.76281 0.11140
 N28 N 0.88237 0.76368 0.15192
 C29 C 0.90732 0.72787 0.15889
 C30 C 0.90410 0.70383 0.12024
 C31 C 0.87597 0.72697 0.09059
 H32 H 0.92763 0.72052 0.18906
 H33 H 0.86546 0.71828 0.05668
 Cu34 Cu 0.87696 0.81357 0.18938
 Cu35 Cu 0.82230 0.80848 0.08926
 Cu36 Cu 0.78345 0.87405 0.17475
 N37 N 0.86482 0.86161 0.22807
 N38 N 0.82688 0.88394 0.22375
 C39 C 0.82535 0.91322 0.25649
 C40 C 0.86512 0.90968 0.28190
 C41 C 0.88944 0.87667 0.26285
 H42 H 0.79795 0.93608 0.26049
 H43 H 0.92220 0.86408 0.27395
 N44 N 0.75447 0.87169 0.11405
 N45 N 0.76877 0.84650 0.08171
 C46 C 0.74182 0.85240 0.04459
 C47 C 0.70987 0.88351 0.05386
 C48 C 0.71892 0.89519 0.09799
 H49 H 0.74582 0.83609 0.01288
 H50 H 0.70098 0.91911 0.11694
 H51 H 0.83519 0.85832 0.13400
 H52 H 0.80222 0.81306 0.15350
 N53 N 0.87076 1.24885 -0.11761
 N54 N 0.89650 1.24524 -0.15286
 C55 C 0.92758 1.27503 -0.15079
 C56 C 0.92132 1.29789 -0.11171
 C57 C 0.88519 1.28034 -0.09132
 H58 H 0.95352 1.27898 -0.17513
 H59 H 0.87022 1.28997 -0.05996
 Cu60 Cu 0.88900 1.19968 -0.19582
 Cu61 Cu 0.82041 1.21238 -0.10886
 Cu62 Cu 0.78395 1.16689 -0.20921
 N63 N 0.87281 1.16096 -0.24380
 N64 N 0.83075 1.15101 -0.25096
 C65 C 0.82763 1.12732 -0.28840
 C66 C 0.87036 1.12087 -0.30468
 C67 C 0.89834 1.14253 -0.27546
 H68 H 0.79682 1.11432 -0.30147
 H69 H 0.93426 1.14553 -0.27772
 N70 N 0.74780 1.16942 -0.15443
 N71 N 0.76130 1.18720 -0.11636
 C72 C 0.73033 1.18161 -0.08478
 C73 C 0.69646 1.15824 -0.10370
 C74 C 0.70863 1.15086 -0.14769
 H75 H 0.73359 1.19140 -0.04989
 H76 H 0.69113 1.13198 -0.17241
 H77 H 0.83015 1.16401 -0.15660
 H78 H 0.81184 1.21827 -0.17602
 N79 N 0.16100 0.73712 -0.12657
 N80 N 0.11909 0.74340 -0.14097
 C81 C 0.09460 0.71108 -0.12746
 C82 C 0.12300 0.68263 -0.10411
 C83 C 0.16498 0.69984 -0.10446
 H84 H 0.05892 0.70845 -0.13412
 H85 H 0.19563 0.68720 -0.08816
 Cu86 Cu 0.10128 0.79274 -0.17688
 Cu87 Cu 0.20586 0.77960 -0.13540
 Cu88 Cu 0.16149 0.87905 -0.16680
 N89 N 0.09420 0.83862 -0.22041
 N90 N 0.11493 0.87417 -0.21463
 C91 C 0.10182 0.90129 -0.24827
 C92 C 0.07262 0.88075 -0.27736
 C93 C 0.06861 0.84108 -0.25858
 H94 H 0.11461 0.93250 -0.25260
 H95 H 0.04836 0.81590 -0.27133
 N96 N 0.22107 0.87001 -0.13661
 N97 N 0.23885 0.83203 -0.12741
 C98 C 0.28033 0.83592 -0.10900
 C99 C 0.28897 0.87831 -0.10628
 C100 C 0.25071 0.89913 -0.12400
 H101 H 0.30213 0.80984 -0.09731
 H102 H 0.24508 0.93284 -0.12798
 H103 H 0.15638 0.82440 -0.12599
 H104 H 0.17637 0.81950 -0.18493
 C105 C 0.44977 0.97994 -0.04711
 C106 C 0.47236 1.01492 -0.03020
 C107 C 0.44743 1.04781 -0.01005
 C108 C 0.40077 1.04556 -0.00598
 C109 C 0.37877 1.01034 -0.02297
 C110 C 0.40305 0.97742 -0.04369
 C111 C 0.52208 1.01639 -0.03217
 C112 C 0.54289 1.05446 -0.04185
 C113 C 0.58982 1.05568 -0.04331
 C114 C 0.61620 1.01914 -0.03351
 C115 C 0.59603 0.98129 -0.02307
 C116 C 0.54911 0.97975 -0.02323
 H117 H 0.46859 0.95496 -0.06369
 H118 H 0.46461 1.07434 0.00427
 H119 H 0.52269 1.08287 -0.04944
 H120 H 0.53383 0.95045 -0.01434
 H121 H 0.34279 1.00843 -0.01966
 H122 H 0.65254 1.02026 -0.03359
 C123 C 0.00050 0.44575 0.98724
 C124 C 0.01313 0.46822 1.02614
 C125 C 0.02292 0.44633 1.06696
 C126 C 0.02071 0.40234 1.06860
 C127 C 0.00676 0.38039 1.03007
 C128 C -0.00374 0.40191 0.98934
 C129 C 0.01545 0.51458 1.02401
 C130 C -0.00986 0.53990 1.05330
 C131 C -0.01002 0.58400 1.04943
 C132 C 0.01618 0.60270 1.01667
 C133 C 0.04351 0.57771 0.98882
 C134 C 0.04245 0.53363 0.99219
 H135 H -0.00767 0.46263 0.95588
 H136 H 0.03349 0.46333 1.09690
 H137 H -0.03041 0.52525 1.07819
 H138 H 0.06283 0.51406 0.97030
 H139 H 0.00479 0.34634 1.03170
 H140 H 0.01725 0.63676 1.01471
 C141 C 0.95383 -0.01495 0.44657
 C142 C 0.99142 -0.00333 0.47284
 C143 C 1.03237 0.00316 0.45199
 C144 C 1.03587 -0.00261 0.40531
 C145 C 0.99891 -0.01613 0.37971
 C146 C 0.95772 -0.02216 0.40007
 C147 C 0.98858 -0.00022 0.52238
 C148 C 1.01335 -0.02911 0.55019
 C149 C 1.00939 -0.02815 0.59729
 C150 C 0.98185 0.00313 0.61676
 C151 C 0.95569 0.03125 0.58907
 C152 C 0.95890 0.02922 0.54187
 H153 H 0.92224 -0.02011 0.46264
 H154 H 1.06124 0.01289 0.47197
 H155 H 1.03416 -0.05358 0.53499
 H156 H 0.93815 0.05031 0.52033
 H157 H 1.00191 -0.02066 0.34359
 H158 H 0.97748 0.00299 0.65304
 N159 N 0.00822 0.37121 1.14441
 N160 N 0.02885 0.33890 1.17081
 C161 C 0.06764 0.32733 1.15117
 C162 C 0.07279 0.35185 1.11277
 C163 C 0.03497 0.37846 1.10954
 H164 H 0.09865 0.34839 1.08798
 H165 H -0.02413 0.38400 1.14884
 H166 H 0.01486 0.32521 1.19909
 N167 N -0.03841 0.60274 1.12557
 N168 N -0.06021 0.63476 1.14443
 C169 C -0.07254 0.66321 1.11195
 C170 C -0.05766 0.64899 1.07068
 C171 C -0.03588 0.61059 1.08087
 H172 H -0.06086 0.66497 1.03820
 H173 H -0.02415 0.57679 1.14341
 H174 H -0.06613 0.63712 1.17899
 N175 N -0.00820 0.38584 0.90651
 N176 N -0.02734 0.35784 0.87994
 C177 C -0.05190 0.33262 0.90554
 C178 C -0.04792 0.34468 0.95027
 C179 C -0.01976 0.37842 0.94950
 H180 H -0.06317 0.33075 0.97931
 H181 H 0.01302 0.40900 0.89536
 H182 H -0.02382 0.35637 0.84493
 N183 N 0.11737 0.58248 0.95164
 N184 N 0.13879 0.61059 0.92807
 C185 C 0.11055 0.64385 0.91902
 C186 C 0.06946 0.63685 0.93776
 C187 C 0.07527 0.59765 0.95854
 H188 H 0.04027 0.65817 0.93809
 H189 H 0.13215 0.55435 0.96449
 H190 H 0.17238 0.60722 0.91911
 N191 N 1.10605 -0.02190 0.36611
 N192 N 1.13325 -0.00180 0.33564
 C193 C 1.11952 0.03916 0.33334
 C194 C 1.08462 0.04624 0.36275
 C195 C 1.07705 0.00740 0.38220
 H196 H 1.06419 0.07489 0.36622
 H197 H 1.10564 -0.05446 0.37143
 H198 H 1.15731 -0.01716 0.31604
 N199 N 1.01710 -0.10432 0.61516
 N200 N 1.03271 -0.12962 0.65138
 C201 C 1.05274 -0.10452 0.68191
 C202 C 1.04985 -0.06294 0.66641
 C203 C 1.02702 -0.06426 0.62476
 H204 H 1.06117 -0.03519 0.68384
 H205 H 0.99831 -0.11477 0.58729
 H206 H 1.02939 -0.16223 0.65333
 N207 N 0.87724 -0.01880 0.37370
 N208 N 0.85160 -0.03712 0.33927
 C209 C 0.87840 -0.06565 0.31850
 C210 C 0.92112 -0.06591 0.33849
 C211 C 0.91914 -0.03605 0.37242
 H212 H 0.95044 -0.08449 0.32882
 H213 H 0.86601 0.00550 0.39465
 H214 H 0.81780 -0.02951 0.33169
 N215 N 0.87716 0.05865 0.59580
 N216 N 0.85286 0.08227 0.62693
 C217 C 0.88242 0.09686 0.65794
 C218 C 0.92564 0.08277 0.64778
 C219 C 0.92078 0.05865 0.60907
 H220 H 0.95637 0.08746 0.66729
 H221 H 0.86304 0.04148 0.56927
 H222 H 0.81798 0.08702 0.62577
 N223 N 0.38544 1.12045 0.01672
 N224 N 0.35655 1.14170 0.04177
 C225 C 0.32786 1.11447 0.05917
 C226 C 0.33859 1.07421 0.04421
 C227 C 0.37535 1.07937 0.01733
 H228 H 0.32248 1.04521 0.05239
 H229 H 0.41135 1.13409 -0.00063
 H230 H 0.35705 1.17416 0.04724
 N231 N 0.60665 1.13148 -0.03211
 N232 N 0.63578 1.15834 -0.04723
 C233 C 0.65924 1.13954 -0.08021
 C234 C 0.64496 1.09892 -0.08606
 C235 C 0.61177 1.09499 -0.05474
 H236 H 0.65831 1.07496 -0.10837
 H237 H 0.58510 1.13749 -0.00550
 H238 H 0.63983 1.18872 -0.03471
 N239 N 0.39896 0.90085 -0.06255
 N240 N 0.36887 0.87481 -0.07861
 C241 C 0.33018 0.89687 -0.08792
 C242 C 0.33573 0.93880 -0.07706
 C243 C 0.37993 0.94001 -0.06098
 H244 H 0.31111 0.96465 -0.08035
 H245 H 0.43162 0.89152 -0.05205
 H246 H 0.37498 0.84250 -0.08306
 N247 N 0.62275 0.90610 -0.03000
 N248 N 0.65363 0.88052 -0.01032
 C249 C 0.67454 0.90162 0.02312
 C250 C 0.65680 0.94244 0.02447
 C251 C 0.62421 0.94399 -0.00985
 H252 H 0.66623 0.96748 0.04715
 H253 H 0.60156 0.89784 -0.05706
 H254 H 0.65969 0.84908 -0.01927
   
