data_POSCAR
  _audit_creation_date              2014-09-24
  _audit_creation_method            'ToBaCCo'
  _symmetry_space_group_name_H-M    'P1'
  _symmetry_Int_Tables_number       1
  _symmetry_cell_setting            triclinic
  loop_
  _symmetry_equiv_pos_as_xyz
 x,y,z
_cell_length_a 33.8107
_cell_length_b 33.7392
_cell_length_c 31.3603
_cell_angle_alpha 89.985300
_cell_angle_beta 89.969600
_cell_angle_gamma 89.559500
loop_
  _atom_site_label
  _atom_site_type_symbol
  _atom_site_fract_x
  _atom_site_fract_y
  _atom_site_fract_z
C1 C -0.10294 0.33141 -0.02305
 C2 C -0.10312 0.33222 0.02067
 C3 C -0.07121 0.30924 0.03395
 N4 N -0.05099 0.29532 -0.00013
 C5 C -0.07057 0.30858 -0.03493
 C6 C -0.06296 0.29820 0.07663
 C7 C -0.02420 0.28541 0.08824
 C8 C -0.01437 0.26426 0.12478
 C9 C 0.02602 0.25998 0.12504
 C10 C 0.03989 0.27701 0.08775
 N11 N 0.00916 0.29256 0.06553
 C12 C 0.08021 0.27962 0.07613
 C13 C 0.09295 0.28503 0.03358
 C14 C 0.13209 0.28826 0.02112
 C15 C 0.13240 0.28757 -0.02255
 C16 C 0.09333 0.28421 -0.03573
 N17 N 0.06938 0.28227 -0.00114
 C18 C 0.08082 0.27736 -0.07843
 C19 C 0.04015 0.27384 -0.08948
 C20 C 0.02553 0.25907 -0.12774
 C21 C -0.01484 0.26361 -0.12674
 C22 C -0.02401 0.28240 -0.08873
 N23 N 0.00956 0.28838 -0.06618
 C24 C -0.06207 0.29630 -0.07691
 H25 H -0.12444 0.34549 -0.04378
 H26 H -0.12473 0.34729 0.04046
 H27 H 0.01177 0.30570 -0.03885
 H28 H -0.03404 0.25262 0.14884
 H29 H 0.04289 0.24534 0.14979
 H30 H 0.15805 0.28913 0.04124
 H31 H 0.15885 0.28747 -0.04192
 H32 H -0.03487 0.25483 -0.15183
 H33 H 0.01132 0.31032 0.03846
 H34 H 0.04173 0.24693 -0.15444
 C35 C 0.37206 0.76161 0.52245
 C36 C 0.37206 0.76170 0.47870
 C37 C 0.40752 0.77844 0.46612
 N38 N 0.42906 0.78869 0.50060
 C39 C 0.40752 0.77830 0.53507
 C40 C 0.41881 0.78575 0.42350
 C41 C 0.45772 0.79632 0.41202
 C42 C 0.46869 0.81169 0.37278
 C43 C 0.50932 0.81375 0.37280
 C44 C 0.52196 0.79957 0.41204
 N45 N 0.49033 0.78925 0.43583
 C46 C 0.56184 0.79269 0.42342
 C47 C 0.57395 0.78675 0.46608
 C48 C 0.61095 0.77318 0.47867
 C49 C 0.61095 0.77310 0.52243
 C50 C 0.57395 0.78661 0.53510
 N51 N 0.55145 0.79510 0.50062
 C52 C 0.56182 0.79238 0.57779
 C53 C 0.52193 0.79921 0.58921
 C54 C 0.50925 0.81324 0.62851
 C55 C 0.46862 0.81118 0.62853
 C56 C 0.45769 0.79596 0.58924
 N57 N 0.49032 0.78898 0.56539
 C58 C 0.41879 0.78546 0.57770
 H59 H 0.34870 0.75037 0.54259
 H60 H 0.34870 0.75053 0.45854
 H61 H 0.49127 0.77302 0.53704
 H62 H 0.44947 0.81976 0.34654
 H63 H 0.52753 0.82370 0.34656
 H64 H 0.63532 0.76397 0.45850
 H65 H 0.63531 0.76379 0.54254
 H66 H 0.44938 0.81915 0.65480
 H67 H 0.49127 0.77318 0.46411
 H68 H 0.52744 0.82310 0.65478
 C69 C 0.87498 0.74408 0.02400
 C70 C 0.87420 0.74425 -0.01966
 C71 C 0.90806 0.72435 -0.03320
 N72 N 0.92979 0.71267 0.00080
 C73 C 0.90952 0.72467 0.03571
 C74 C 0.91821 0.71642 -0.07626
 C75 C 0.95736 0.70549 -0.08782
 C76 C 0.96829 0.68739 -0.12586
 C77 C 1.00891 0.68477 -0.12587
 C78 C 1.02159 0.70084 -0.08765
 N79 N 0.99007 0.71304 -0.06445
 C80 C 1.06141 0.70778 -0.07685
 C81 C 1.07351 0.71489 -0.03453
 C82 C 1.10943 0.73107 -0.02290
 C83 C 1.11022 0.73133 0.02077
 C84 C 1.07496 0.71472 0.03442
 N85 N 1.05239 0.70497 0.00045
 C86 C 1.06401 0.70837 0.07755
 C87 C 1.02399 0.70170 0.08894
 C88 C 1.01128 0.68502 0.12702
 C89 C 0.97065 0.68741 0.12716
 C90 C 0.95969 0.70490 0.08895
 N91 N 0.99226 0.71316 0.06564
 C92 C 0.92079 0.71620 0.07801
 H93 H 0.85285 0.75713 0.04475
 H94 H 0.85147 0.75790 -0.03913
 H95 H 0.99290 0.73019 0.03796
 H96 H 0.94906 0.67751 -0.15123
 H97 H 1.02708 0.67294 -0.15135
 H98 H 1.13240 0.74216 -0.04367
 H99 H 1.13384 0.74313 0.04013
 H100 H 0.95139 0.67786 0.15269
 H101 H 0.99124 0.73005 -0.03679
 H102 H 1.02942 0.67294 0.15237
 C103 C 0.63097 0.23408 0.47795
 C104 C 0.63082 0.23393 0.52169
 C105 C 0.59511 0.21765 0.53415
 N106 N 0.57354 0.20772 0.49953
 C107 C 0.59535 0.21788 0.46513
 C108 C 0.58349 0.21080 0.57681
 C109 C 0.54419 0.20136 0.58818
 C110 C 0.53262 0.18656 0.62748
 C111 C 0.49192 0.18576 0.62737
 C112 C 0.47978 0.20012 0.58802
 N113 N 0.51182 0.20932 0.56426
 C114 C 0.44006 0.20783 0.57635
 C115 C 0.42841 0.21434 0.53362
 C116 C 0.39181 0.22885 0.52090
 C117 C 0.39195 0.22895 0.47716
 C118 C 0.42864 0.21452 0.46460
 N119 N 0.45084 0.20549 0.49916
 C120 C 0.44057 0.20820 0.42191
 C121 C 0.48037 0.20062 0.41043
 C122 C 0.49276 0.18651 0.37106
 C123 C 0.53347 0.18735 0.37121
 C124 C 0.54478 0.20192 0.41067
 N125 N 0.51226 0.20971 0.43444
 C126 C 0.58400 0.21132 0.42235
 H127 H 0.65449 0.24522 0.45796
 H128 H 0.65421 0.24494 0.54192
 H129 H 0.51173 0.22540 0.46296
 H130 H 0.55153 0.17803 0.65382
 H131 H 0.47336 0.17647 0.65361
 H132 H 0.36758 0.23861 0.54097
 H133 H 0.36786 0.23882 0.45698
 H134 H 0.55255 0.17900 0.34493
 H135 H 0.51150 0.22519 0.53585
 H136 H 0.47438 0.17736 0.34465
 C137 C 0.66634 -0.10044 0.02260
 C138 C 0.66645 -0.10050 -0.02111
 C139 C 0.69216 -0.07087 -0.03370
 N140 N 0.70715 -0.05218 0.00072
 C141 C 0.69193 -0.07074 0.03516
 C142 C 0.70440 -0.06347 -0.07608
 C143 C 0.71861 -0.02535 -0.08746
 C144 C 0.74075 -0.01646 -0.12341
 C145 C 0.74487 0.02394 -0.12440
 C146 C 0.72698 0.03886 -0.08780
 N147 N 0.71099 0.00848 -0.06557
 C148 C 0.72219 0.07962 -0.07738
 C149 C 0.71441 0.09230 -0.03500
 C150 C 0.70966 0.13146 -0.02210
 C151 C 0.70945 0.13142 0.02158
 C152 C 0.71425 0.09235 0.03422
 N153 N 0.71746 0.06856 -0.00034
 C154 C 0.72099 0.07988 0.07662
 C155 C 0.72475 0.03954 0.08809
 C156 C 0.74295 0.02557 0.12479
 C157 C 0.73913 -0.01492 0.12459
 C158 C 0.71711 -0.02457 0.08875
 N159 N 0.70909 0.00885 0.06631
 C160 C 0.70380 -0.06304 0.07757
 H161 H 0.64977 -0.12026 0.04290
 H162 H 0.64998 -0.12040 -0.04139
 H163 H 0.69060 0.01102 0.03979
 H164 H 0.75261 -0.03673 -0.14695
 H165 H 0.75933 0.03990 -0.14976
 H166 H 0.70869 0.15781 -0.04169
 H167 H 0.70793 0.15751 0.04156
 H168 H 0.75148 -0.03475 0.14827
 H169 H 0.69209 0.01105 -0.03944
 H170 H 0.75796 0.04245 0.14910
 C171 C 0.23473 0.37219 0.47773
 C172 C 0.23465 0.37221 0.52148
 C173 C 0.21778 0.40792 0.53406
 N174 N 0.20744 0.42961 0.49951
 C175 C 0.21791 0.40788 0.46504
 C176 C 0.21063 0.41936 0.57675
 C177 C 0.20028 0.45861 0.58826
 C178 C 0.18523 0.46994 0.62759
 C179 C 0.18332 0.51072 0.62753
 C180 C 0.19726 0.52312 0.58818
 N181 N 0.20730 0.49118 0.56437
 C182 C 0.20412 0.56301 0.57664
 C183 C 0.21029 0.57487 0.53394
 C184 C 0.22439 0.61151 0.52131
 C185 C 0.22453 0.61148 0.47757
 C186 C 0.21051 0.57481 0.46493
 N187 N 0.20169 0.55253 0.49943
 C188 C 0.20458 0.56291 0.42222
 C189 C 0.19771 0.52304 0.41072
 C190 C 0.18391 0.51063 0.37132
 C191 C 0.18577 0.46985 0.37133
 C192 C 0.20064 0.45853 0.41073
 N193 N 0.20760 0.49110 0.43461
 C194 C 0.21094 0.41929 0.42231
 H195 H 0.24617 0.34868 0.45765
 H196 H 0.24601 0.34872 0.54164
 H197 H 0.22331 0.49171 0.46309
 H198 H 0.17727 0.45085 0.65392
 H199 H 0.17361 0.52917 0.65382
 H200 H 0.23398 0.63565 0.54142
 H201 H 0.23424 0.63559 0.45746
 H202 H 0.17789 0.45075 0.34499
 H203 H 0.22311 0.49177 0.53594
 H204 H 0.17435 0.52907 0.34497
 C205 C 0.25404 0.87730 0.02302
 C206 C 0.25296 0.87687 -0.02066
 C207 C 0.27382 0.90979 -0.03439
 N208 N 0.28691 0.93070 -0.00054
 C209 C 0.27495 0.91075 0.03450
 C210 C 0.28191 0.91961 -0.07744
 C211 C 0.29412 0.95834 -0.08872
 C212 C 0.31419 0.96816 -0.12581
 C213 C 0.31818 1.00866 -0.12583
 C214 C 0.30037 1.02254 -0.08881
 N215 N 0.28649 0.99162 -0.06591
 C216 C 0.29468 1.06303 -0.07827
 C217 C 0.28846 1.07477 -0.03538
 C218 C 0.27042 1.10987 -0.02262
 C219 C 0.27122 1.11022 0.02100
 C220 C 0.28974 1.07533 0.03365
 N221 N 0.29981 1.05337 -0.00091
 C222 C 0.29709 1.06403 0.07651
 C223 C 0.30360 1.02370 0.08724
 C224 C 0.32091 1.01003 0.12468
 C225 C 0.31708 0.96947 0.12482
 C226 C 0.29815 0.95951 0.08720
 N227 N 0.29052 0.99259 0.06421
 C228 C 0.28492 0.92125 0.07661
 H229 H 0.24072 0.85563 0.04392
 H230 H 0.23827 0.85490 -0.04003
 H231 H 0.27278 0.99429 0.03711
 H232 H 0.32482 0.94820 -0.15035
 H233 H 0.33229 1.02599 -0.15050
 H234 H 0.25709 1.13245 -0.04260
 H235 H 0.25852 1.13310 0.04107
 H236 H 0.32653 0.94962 0.15002
 H237 H 0.26885 0.99363 -0.03871
 H238 H 0.33410 1.02756 0.14974
 C239 C 0.77067 0.38955 0.52199
 C240 C 0.77078 0.38976 0.47822
 C241 C 0.78470 0.42654 0.46582
 N242 N 0.79324 0.44870 0.50046
 C243 C 0.78453 0.42622 0.53484
 C244 C 0.79096 0.43865 0.42322
 C245 C 0.79852 0.47843 0.41200
 C246 C 0.81293 0.49080 0.37281
 C247 C 0.81177 0.53157 0.37305
 C248 C 0.79671 0.54292 0.41236
 N249 N 0.78896 0.51037 0.43599
 C250 C 0.78677 0.58220 0.42397
 C251 C 0.77979 0.59359 0.46665
 C252 C 0.76329 0.62942 0.47941
 C253 C 0.76318 0.62921 0.52315
 C254 C 0.77960 0.59326 0.53561
 N255 N 0.78988 0.57161 0.50105
 C256 C 0.78637 0.58148 0.57821
 C257 C 0.79622 0.54210 0.58950
 C258 C 0.81108 0.53041 0.62878
 C259 C 0.81225 0.48963 0.62861
 C260 C 0.79805 0.47762 0.58924
 N261 N 0.78860 0.50977 0.56552
 C262 C 0.79057 0.43793 0.57759
 H263 H 0.76121 0.36526 0.54199
 H264 H 0.76142 0.36566 0.45793
 H265 H 0.77271 0.50956 0.53714
 H266 H 0.82244 0.47234 0.34645
 H267 H 0.82019 0.55068 0.34689
 H268 H 0.75218 0.65312 0.45937
 H269 H 0.75197 0.65272 0.54338
 H270 H 0.82165 0.47095 0.65483
 H271 H 0.77292 0.50991 0.46428
 H272 H 0.81937 0.54929 0.65516
 O273 O 0.23589 0.27388 0.19581
 O274 O 0.32052 0.25053 0.26562
 O275 O 0.29179 0.22052 0.19508
 O276 O 0.26399 0.30284 0.26658
 O277 O 0.22541 0.26252 0.30277
 O278 O 0.25564 0.17967 0.23346
 O279 O 0.28296 0.21061 0.30354
 O280 O 0.19923 0.23127 0.23148
 Cu281 Cu 0.28184 0.26597 0.22704
 Cu282 Cu 0.23706 0.21707 0.27170
 C283 C 0.20344 0.25583 0.20113
 C284 C 0.31608 0.22708 0.29694
 C285 C 0.27812 0.18606 0.20179
 C286 C 0.24002 0.29670 0.29705
 O287 O 0.74384 0.81931 0.23087
 O288 O 0.77349 0.73781 0.30255
 O289 O 0.80085 0.76673 0.23127
 O290 O 0.71723 0.79044 0.30226
 O291 O 0.67930 0.75021 0.26519
 O292 O 0.76364 0.72429 0.19628
 O293 O 0.73473 0.69709 0.26714
 O294 O 0.70825 0.77739 0.19304
 Cu295 Cu 0.76266 0.78276 0.27030
 Cu296 Cu 0.71756 0.73323 0.22676
 C297 C 0.72171 0.81193 0.19920
 C298 C 0.75860 0.70365 0.29754
 C299 C 0.79659 0.74140 0.20166
 C300 C 0.68406 0.77399 0.29616
 O301 O 0.75015 0.32101 0.26467
 O302 O 0.72632 0.23610 0.19565
 O303 O 0.69837 0.26497 0.26636
 O304 O 0.77793 0.29228 0.19230
 O305 O 0.82101 0.25807 0.23077
 O306 O 0.73976 0.22574 0.30105
 O307 O 0.77128 0.20006 0.22937
 O308 O 0.79066 0.28309 0.30212
 Cu309 Cu 0.73408 0.28249 0.22611
 Cu310 Cu 0.78482 0.23792 0.26951
 C311 C 0.77370 0.31628 0.29589
 C312 C 0.74556 0.20389 0.20013
 C313 C 0.70534 0.24059 0.29633
 C314 C 0.81290 0.27971 0.19877
 O315 O 0.18073 0.74999 0.23272
 O316 O 0.26309 0.77561 0.30361
 O317 O 0.23508 0.80385 0.23222
 O318 O 0.20978 0.72048 0.30313
 O319 O 0.24948 0.68131 0.26614
 O320 O 0.27501 0.76443 0.19585
 O321 O 0.30278 0.73595 0.26721
 O322 O 0.22034 0.71085 0.19559
 Cu323 Cu 0.21818 0.76640 0.27163
 Cu324 Cu 0.26583 0.71917 0.22749
 C325 C 0.18648 0.72650 0.20168
 C326 C 0.29692 0.75991 0.29788
 C327 C 0.25923 0.79827 0.20167
 C328 C 0.22573 0.68670 0.29701
 O329 O 0.77017 0.19809 0.76989
 O330 O 0.78985 0.28149 0.69762
 O331 O 0.82014 0.25583 0.76877
 O332 O 0.73885 0.22422 0.69839
 O333 O 0.69750 0.26318 0.73351
 O334 O 0.77728 0.29036 0.80729
 O335 O 0.74929 0.31927 0.73519
 O336 O 0.72572 0.23426 0.80421
 Cu337 Cu 0.78388 0.23611 0.72994
 Cu338 Cu 0.73332 0.28065 0.77368
 C339 C 0.74476 0.20195 0.79947
 C340 C 0.77289 0.31466 0.70397
 C341 C 0.81215 0.27751 0.80076
 C342 C 0.70444 0.23901 0.70334
 O343 O 0.30154 0.73564 0.73320
 O344 O 0.21798 0.71006 0.80327
 O345 O 0.24815 0.68106 0.73308
 O346 O 0.27277 0.76342 0.80459
 O347 O 0.23421 0.80362 0.76750
 O348 O 0.20869 0.72053 0.69618
 O349 O 0.17929 0.75037 0.76648
 O350 O 0.26234 0.77536 0.69628
 Cu351 Cu 0.26400 0.71855 0.77225
 Cu352 Cu 0.21718 0.76640 0.72787
 C353 C 0.29608 0.75964 0.70247
 C354 C 0.18443 0.72637 0.79720
 C355 C 0.22458 0.68668 0.70213
 C356 C 0.25760 0.79751 0.79860
 O357 O 0.26322 0.30217 0.73207
 O358 O 0.29093 0.21928 0.80285
 O359 O 0.31970 0.24977 0.73255
 O360 O 0.23529 0.27275 0.80281
 O361 O 0.19833 0.23082 0.76669
 O362 O 0.28208 0.21004 0.69453
 O363 O 0.25443 0.17881 0.76445
 O364 O 0.22468 0.26213 0.69554
 Cu365 Cu 0.28109 0.26499 0.77130
 Cu366 Cu 0.23613 0.21654 0.72639
 C367 C 0.23928 0.29627 0.70154
 C368 C 0.27700 0.18495 0.79607
 C369 C 0.31523 0.22645 0.70115
 C370 C 0.20269 0.25502 0.79735
 O371 O 0.73386 0.69611 0.73518
 O372 O 0.70686 0.77682 0.80861
 O373 O 0.67844 0.74936 0.73642
 O374 O 0.76189 0.72358 0.80645
 O375 O 0.79985 0.76523 0.77123
 O376 O 0.71679 0.78949 0.69966
 O377 O 0.74330 0.81833 0.77114
 O378 O 0.77287 0.73665 0.69979
 Cu379 Cu 0.71629 0.73246 0.77525
 Cu380 Cu 0.76204 0.78160 0.73190
 C381 C 0.75792 0.70254 0.70488
 C382 C 0.72077 0.81120 0.80257
 C383 C 0.68352 0.77313 0.70549
 C384 C 0.79505 0.74031 0.80116
 C385 C 0.31304 0.13071 0.10345
 C386 C 0.29584 0.09314 0.10928
 C387 C 0.27562 0.08581 0.14779
 C388 C 0.27118 0.11554 0.17841
 C389 C 0.28690 0.15343 0.17157
 C390 C 0.30860 0.16045 0.13416
 H391 H 0.32982 0.13721 0.07489
 H392 H 0.26122 0.05771 0.15333
 H393 H 0.25423 0.10916 0.20687
 H394 H 0.32134 0.18925 0.12806
 C395 C 0.75295 0.60566 0.64451
 C396 C 0.78151 0.61132 0.61267
 C397 C 0.80396 0.64613 0.61272
 C398 C 0.79694 0.67550 0.64328
 C399 C 0.76760 0.67035 0.67455
 C400 C 0.74615 0.63482 0.67527
 H401 H 0.73527 0.57902 0.64488
 H402 H 0.82628 0.65087 0.58850
 H403 H 0.81406 0.70247 0.64201
 H404 H 0.72332 0.62998 0.69889
 C405 C 0.71602 0.86666 0.09501
 C406 C 0.70476 0.90532 0.10777
 C407 C 0.69605 0.91157 0.15135
 C408 C 0.70119 0.88118 0.18125
 C409 C 0.71322 0.84333 0.16804
 C410 C 0.71961 0.83603 0.12467
 H411 H 0.72412 0.86030 0.06230
 H412 H 0.68531 0.94006 0.16249
 H413 H 0.69562 0.88714 0.21466
 H414 H 0.72938 0.80702 0.11399
 C415 C 0.24359 0.39450 0.64321
 C416 C 0.21534 0.38915 0.61100
 C417 C 0.19318 0.35414 0.61032
 C418 C 0.20026 0.32429 0.64036
 C419 C 0.22937 0.32909 0.67193
 C420 C 0.25045 0.36484 0.67348
 H421 H 0.26106 0.42127 0.64419
 H422 H 0.17109 0.34957 0.58584
 H423 H 0.18340 0.29719 0.63842
 H424 H 0.27310 0.36945 0.69732
 C425 C 0.86771 0.28333 0.09464
 C426 C 0.90548 0.29692 0.10686
 C427 C 0.91111 0.30753 0.15002
 C428 C 0.88096 0.30236 0.18010
 C429 C 0.84393 0.28831 0.16739
 C430 C 0.83725 0.27971 0.12438
 H431 H 0.86202 0.27353 0.06236
 H432 H 0.93895 0.31968 0.16068
 H433 H 0.88647 0.30945 0.21324
 H434 H 0.80896 0.26823 0.11413
 C435 C 0.35397 0.80420 0.61116
 C436 C 0.38866 0.78115 0.61182
 C437 C 0.39388 0.75267 0.64398
 C438 C 0.36429 0.74649 0.67432
 C439 C 0.32886 0.76854 0.67283
 C440 C 0.32425 0.79785 0.64128
 H441 H 0.34959 0.82648 0.58671
 H442 H 0.42047 0.73459 0.64490
 H443 H 0.36870 0.72368 0.69819
 H444 H 0.29740 0.81546 0.63942
 C445 C 0.08645 0.73137 0.14776
 C446 C 0.09330 0.70984 0.10993
 C447 C 0.13045 0.69126 0.10446
 C448 C 0.16030 0.69557 0.13487
 C449 C 0.15380 0.71851 0.17159
 C450 C 0.11631 0.73572 0.17808
 H451 H 0.05857 0.74665 0.15299
 H452 H 0.13649 0.67340 0.07646
 H453 H 0.18875 0.68163 0.12910
 H454 H 0.11033 0.75358 0.20607
 C455 C 0.64858 0.19306 0.61104
 C456 C 0.61336 0.21541 0.61128
 C457 C 0.60736 0.24379 0.64335
 C458 C 0.63648 0.25051 0.67401
 C459 C 0.67239 0.22920 0.67302
 C460 C 0.67794 0.20003 0.64150
 H461 H 0.65365 0.17087 0.58664
 H462 H 0.58047 0.26144 0.64399
 H463 H 0.63127 0.27323 0.69778
 H464 H 0.70520 0.18303 0.63998
 C465 C 0.69594 0.13418 0.87951
 C466 C 0.72737 0.10861 0.89063
 C467 C 0.76433 0.11383 0.87088
 C468 C 0.76949 0.14330 0.84013
 C469 C 0.73821 0.16905 0.82953
 C470 C 0.70142 0.16435 0.84957
 H471 H 0.66718 0.13093 0.89431
 H472 H 0.78955 0.09577 0.88007
 H473 H 0.79838 0.14691 0.82575
 H474 H 0.67690 0.18395 0.84199
 C475 C 0.23599 0.58917 0.35579
 C476 C 0.20734 0.59323 0.38790
 C477 C 0.18299 0.62713 0.38842
 C478 C 0.18827 0.65721 0.35829
 C479 C 0.21771 0.65368 0.32680
 C480 C 0.24100 0.61898 0.32541
 H481 H 0.25517 0.56332 0.35494
 H482 H 0.16057 0.63069 0.41284
 H483 H 0.16975 0.68349 0.36008
 H484 H 0.26399 0.61537 0.30164
 C485 C 0.29276 0.85138 0.89721
 C486 C 0.27828 0.89015 0.89048
 C487 C 0.25919 0.89863 0.85152
 C488 C 0.25307 0.86879 0.82129
 C489 C 0.26643 0.82990 0.82893
 C490 C 0.28697 0.82174 0.86687
 H491 H 0.30882 0.84394 0.92605
 H492 H 0.24728 0.92795 0.84522
 H493 H 0.23723 0.87605 0.79229
 H494 H 0.29796 0.79216 0.87361
 C495 C 0.76027 0.41262 0.35628
 C496 C 0.78862 0.40858 0.38870
 C497 C 0.81370 0.37526 0.38890
 C498 C 0.80953 0.34572 0.35806
 C499 C 0.78043 0.34915 0.32619
 C500 C 0.75630 0.38325 0.32520
 H501 H 0.74063 0.43813 0.35565
 H502 H 0.83594 0.37180 0.41350
 H503 H 0.82868 0.31988 0.35958
 H504 H 0.73355 0.38672 0.30116
 C505 C 0.11427 0.23593 0.86801
 C506 C 0.10995 0.27228 0.88958
 C507 C 0.13621 0.30318 0.87985
 C508 C 0.16618 0.29774 0.84961
 C509 C 0.16999 0.26160 0.82780
 C510 C 0.14354 0.23088 0.83696
 H511 H 0.09551 0.21107 0.87587
 H512 H 0.13360 0.33153 0.89588
 H513 H 0.18629 0.32184 0.84315
 H514 H 0.14639 0.20246 0.82117
 C515 C 0.58816 0.76160 0.35668
 C516 C 0.59190 0.79017 0.38891
 C517 C 0.62487 0.81517 0.38891
 C518 C 0.65439 0.81068 0.35803
 C519 C 0.65122 0.78136 0.32637
 C520 C 0.61744 0.75734 0.32558
 H521 H 0.56294 0.74199 0.35622
 H522 H 0.62809 0.83758 0.41337
 H523 H 0.68000 0.82971 0.35940
 H524 H 0.61419 0.73440 0.30172
 C525 C 0.89607 0.74042 0.85356
 C526 C 0.88870 0.71971 0.89175
 C527 C 0.85084 0.70360 0.89810
 C528 C 0.82089 0.70934 0.86809
 C529 C 0.82787 0.73149 0.83096
 C530 C 0.86592 0.74647 0.82369
 H531 H 0.92465 0.75367 0.84769
 H532 H 0.84436 0.68647 0.92645
 H533 H 0.79196 0.69713 0.87452
 H534 H 0.87224 0.76357 0.79530
 C535 C 0.41344 0.23901 0.35521
 C536 C 0.41015 0.21060 0.38769
 C537 C 0.37688 0.18596 0.38864
 C538 C 0.34667 0.19069 0.35859
 C539 C 0.34938 0.21988 0.32671
 C540 C 0.38344 0.24350 0.32490
 H541 H 0.43881 0.25838 0.35401
 H542 H 0.37392 0.16372 0.41332
 H543 H 0.32092 0.17190 0.36072
 H544 H 0.38641 0.26629 0.30081
 C545 C 0.71585 0.86608 0.90664
 C546 C 0.70486 0.90481 0.89383
 C547 C 0.69597 0.91106 0.85031
 C548 C 0.70069 0.88057 0.82046
 C549 C 0.71247 0.84266 0.83370
 C550 C 0.71901 0.83537 0.87704
 H551 H 0.72406 0.85973 0.93931
 H552 H 0.68550 0.93965 0.83917
 H553 H 0.69506 0.88654 0.78706
 H554 H 0.72862 0.80631 0.88772
 C555 C 0.24418 0.39462 0.35593
 C556 C 0.21587 0.38911 0.38807
 C557 C 0.19378 0.35404 0.38862
 C558 C 0.20094 0.32433 0.35844
 C559 C 0.23007 0.32932 0.32689
 C560 C 0.25112 0.36510 0.32553
 H561 H 0.26160 0.42142 0.35504
 H562 H 0.17165 0.34936 0.41305
 H563 H 0.18412 0.29720 0.36024
 H564 H 0.27379 0.36986 0.30170
 C565 C 0.27353 0.08477 0.85029
 C566 C 0.29377 0.09201 0.88879
 C567 C 0.31148 0.12938 0.89437
 C568 C 0.30739 0.15905 0.86356
 C569 C 0.28555 0.15221 0.82624
 C570 C 0.26942 0.11448 0.81955
 H571 H 0.25885 0.05681 0.84486
 H572 H 0.32843 0.13577 0.92282
 H573 H 0.32049 0.18771 0.86953
 H574 H 0.25238 0.10822 0.79114
 C575 C 0.75354 0.60665 0.35772
 C576 C 0.78190 0.61228 0.38973
 C577 C 0.80417 0.64721 0.38999
 C578 C 0.79722 0.67668 0.35950
 C579 C 0.76814 0.67150 0.32799
 C580 C 0.74683 0.63589 0.32704
 H581 H 0.73599 0.57993 0.35711
 H582 H 0.82633 0.65194 0.41436
 H583 H 0.81422 0.70372 0.36096
 H584 H 0.72418 0.63101 0.30325
 C585 C 0.12562 0.68578 0.89011
 C586 C 0.09138 0.70955 0.88852
 C587 C 0.08674 0.73680 0.85508
 C588 C 0.11640 0.74120 0.82451
 C589 C 0.15145 0.71861 0.82698
 C590 C 0.15549 0.69038 0.85971
 H591 H 0.12962 0.66443 0.91557
 H592 H 0.06061 0.75552 0.85341
 H593 H 0.11238 0.76323 0.79974
 H594 H 0.18207 0.67244 0.86237
 C595 C 0.64934 0.19402 0.38830
 C596 C 0.61406 0.21626 0.38808
 C597 C 0.60813 0.24485 0.35619
 C598 C 0.63733 0.25183 0.32568
 C599 C 0.67329 0.23059 0.32662
 C600 C 0.67881 0.20125 0.35797
 H601 H 0.65438 0.17169 0.41256
 H602 H 0.58119 0.26243 0.35557
 H603 H 0.63214 0.27468 0.30203
 H604 H 0.70610 0.18431 0.35946
 C605 C 0.86956 0.27495 0.90309
 C606 C 0.90467 0.29445 0.89183
 C607 C 0.90813 0.31053 0.85058
 C608 C 0.87787 0.30538 0.82064
 C609 C 0.84313 0.28564 0.83217
 C610 C 0.83886 0.27115 0.87373
 H611 H 0.86621 0.26198 0.93447
 H612 H 0.93466 0.32610 0.84129
 H613 H 0.88153 0.31671 0.78857
 H614 H 0.81233 0.25546 0.88293
 C615 C 0.35395 0.80422 0.38993
 C616 C 0.38878 0.78137 0.38932
 C617 C 0.39430 0.75306 0.35707
 C618 C 0.36492 0.74688 0.32653
 C619 C 0.32938 0.76876 0.32791
 C620 C 0.32443 0.79787 0.35961
 H621 H 0.34933 0.82637 0.41447
 H622 H 0.42099 0.73512 0.35617
 H623 H 0.36961 0.72423 0.30256
 H624 H 0.29747 0.81534 0.36140
 C625 C 0.30140 0.85482 0.10793
 C626 C 0.28096 0.89105 0.11083
 C627 C 0.25513 0.89762 0.14519
 C628 C 0.24883 0.86788 0.17546
 C629 C 0.26826 0.83102 0.17183
 C630 C 0.29509 0.82506 0.13809
 H631 H 0.32159 0.84931 0.08172
 H632 H 0.23903 0.92540 0.14787
 H633 H 0.22803 0.87342 0.20107
 H634 H 0.31065 0.79709 0.13445
 C635 C 0.75961 0.41136 0.64418
 C636 C 0.78806 0.40755 0.61180
 C637 C 0.81310 0.37420 0.61138
 C638 C 0.80883 0.34444 0.64199
 C639 C 0.77967 0.34768 0.67384
 C640 C 0.75554 0.38178 0.67503
 H641 H 0.73999 0.43688 0.64497
 H642 H 0.83542 0.37091 0.58682
 H643 H 0.82797 0.31861 0.64032
 H644 H 0.73273 0.38511 0.69905
 C645 C 0.69490 0.13313 0.12479
 C646 C 0.72709 0.11060 0.10981
 C647 C 0.76517 0.11849 0.12521
 C648 C 0.77091 0.14800 0.15578
 C649 C 0.73884 0.17104 0.17020
 C650 C 0.70081 0.16354 0.15433
 H651 H 0.66537 0.12760 0.11294
 H652 H 0.79042 0.10183 0.11343
 H653 H 0.80057 0.15370 0.16716
 H654 H 0.67571 0.18108 0.16497
 C655 C 0.23513 0.58926 0.64323
 C656 C 0.20671 0.59337 0.61093
 C657 C 0.18244 0.62735 0.61023
 C658 C 0.18757 0.65742 0.64040
 C659 C 0.21676 0.65379 0.67212
 C660 C 0.23998 0.61905 0.67364
 H661 H 0.25426 0.56337 0.64423
 H662 H 0.16021 0.63096 0.58565
 H663 H 0.16913 0.68374 0.63850
 H664 H 0.26277 0.61534 0.69759
 C665 C 0.89558 0.74732 0.14536
 C666 C 0.89058 0.71991 0.11220
 C667 C 0.85567 0.69780 0.11020
 C668 C 0.82554 0.70406 0.13996
 C669 C 0.82984 0.73248 0.17240
 C670 C 0.86548 0.75355 0.17525
 H671 H 0.92231 0.76471 0.14730
 H672 H 0.85141 0.67641 0.08490
 H673 H 0.79855 0.68722 0.13700
 H674 H 0.86973 0.77559 0.19988
 C675 C 0.41274 0.23842 0.64307
 C676 C 0.40946 0.21019 0.61044
 C677 C 0.37610 0.18569 0.60924
 C678 C 0.34582 0.19035 0.63926
 C679 C 0.34854 0.21934 0.67133
 C680 C 0.38266 0.24285 0.67334
 H681 H 0.43818 0.25769 0.64446
 H682 H 0.37315 0.16358 0.58444
 H683 H 0.32001 0.17166 0.63696
 H684 H 0.38565 0.26548 0.69757
 C685 C 0.11844 0.23589 0.12634
 C686 C 0.11078 0.27377 0.10967
 C687 C 0.13336 0.30597 0.12375
 C688 C 0.16354 0.30025 0.15367
 C689 C 0.17075 0.26245 0.17086
 C690 C 0.14768 0.23040 0.15732
 H691 H 0.10177 0.21060 0.11529
 H692 H 0.12804 0.33533 0.11091
 H693 H 0.18113 0.32531 0.16357
 H694 H 0.15317 0.20089 0.16970
 C695 C 0.58792 0.76101 0.64446
 C696 C 0.59184 0.78964 0.61231
 C697 C 0.62489 0.81454 0.61244
 C698 C 0.65430 0.80991 0.64341
 C699 C 0.65090 0.78057 0.67504
 C700 C 0.61706 0.75663 0.67566
 H701 H 0.56265 0.74147 0.64482
 H702 H 0.62826 0.83699 0.58804
 H703 H 0.67996 0.82887 0.64218
 H704 H 0.61364 0.73366 0.69948
   
