data_POSCAR
  _audit_creation_date              2014-09-24
  _audit_creation_method            'ToBaCCo'
  _symmetry_space_group_name_H-M    'P1'
  _symmetry_Int_Tables_number       1
  _symmetry_cell_setting            triclinic
  loop_
  _symmetry_equiv_pos_as_xyz
 x,y,z
_cell_length_a 18.2100
_cell_length_b 31.3543
_cell_length_c 18.4940
_cell_angle_alpha 90.140900
_cell_angle_beta 89.816400
_cell_angle_gamma 89.886000
loop_
  _atom_site_label
  _atom_site_type_symbol
  _atom_site_fract_x
  _atom_site_fract_y
  _atom_site_fract_z
N1 N 0.12788 0.04563 0.07697
 N2 N 0.17057 0.07938 0.08367
 N3 N 0.07737 -0.04397 0.12838
 N4 N 0.08391 -0.07749 0.17095
 N5 N 0.12878 -0.04423 0.07844
 N6 N 0.17164 -0.07795 0.08571
 N7 N 0.07655 0.04581 0.12694
 N8 N 0.08290 0.07965 0.16897
 C9 C 0.14198 0.10024 0.14152
 C10 C 0.14320 -0.09831 0.14390
 N11 N -0.13120 -0.04470 0.07736
 N12 N -0.17347 -0.07860 0.08430
 N13 N -0.08128 0.04571 0.12618
 N14 N -0.08744 0.08028 0.16670
 N15 N -0.13209 0.04503 0.07609
 N16 N -0.17610 0.08127 0.08224
 N17 N -0.08061 -0.04416 0.12776
 N18 N -0.08710 -0.07765 0.17032
 Mn19 Mn -0.00202 0.00084 0.12824
 C20 C -0.14551 -0.09876 0.14279
 C21 C -0.14591 0.10184 0.13951
 N22 N 0.13023 -0.04519 -0.07722
 N23 N 0.17438 -0.08137 -0.08312
 N24 N 0.07851 0.04385 -0.12922
 N25 N 0.08510 0.07734 -0.17188
 N26 N 0.12898 0.04450 -0.07869
 N27 N 0.17125 0.07840 -0.08567
 N28 N 0.07934 -0.04610 -0.12722
 N29 N 0.08560 -0.08076 -0.16748
 Mn30 Mn 0.12990 0.00018 -0.00010
 C31 C 0.14420 -0.10214 -0.14017
 C32 C 0.14346 0.09852 -0.14429
 N33 N -0.13069 0.04395 -0.07965
 N34 N -0.17323 0.07779 -0.08680
 N35 N -0.07877 -0.04650 -0.12786
 N36 N -0.08426 -0.08110 -0.16841
 N37 N -0.13037 -0.04573 -0.07823
 N38 N -0.17418 -0.08189 -0.08467
 N39 N -0.07950 0.04345 -0.12981
 N40 N -0.08583 0.07696 -0.17237
 Mn41 Mn -0.13198 -0.00035 -0.00112
 Mn42 Mn -0.00010 -0.00135 -0.12950
 Cl43 Cl -0.00104 -0.00017 -0.00064
 C44 C -0.14481 0.09800 -0.14514
 C45 C -0.14310 -0.10257 -0.14163
 N46 N 0.63097 0.54500 0.57800
 N47 N 0.67551 0.57785 0.58598
 N48 N 0.57979 0.45539 0.62832
 N49 N 0.58762 0.42230 0.67165
 N50 N 0.63077 0.45521 0.57791
 N51 N 0.67473 0.42199 0.58552
 N52 N 0.57996 0.54520 0.62839
 N53 N 0.58837 0.57820 0.67207
 C54 C 0.64828 0.59803 0.64495
 C55 C 0.64717 0.40205 0.64434
 N56 N 0.37061 0.45553 0.57873
 N57 N 0.32666 0.42240 0.58651
 N58 N 0.42167 0.54534 0.62896
 N59 N 0.41330 0.57826 0.67287
 N60 N 0.37063 0.54533 0.57893
 N61 N 0.32608 0.57825 0.58739
 N62 N 0.42161 0.45552 0.62883
 N63 N 0.41376 0.42238 0.67207
 Mn64 Mn 0.50076 0.50037 0.62952
 C65 C 0.35418 0.40228 0.64507
 C66 C 0.35338 0.59824 0.64626
 N67 N 0.63074 0.45499 0.42214
 N68 N 0.67505 0.42194 0.41377
 N69 N 0.57982 0.54481 0.37227
 N70 N 0.58773 0.57783 0.32883
 N71 N 0.63088 0.54479 0.42227
 N72 N 0.67499 0.57783 0.41427
 N73 N 0.57970 0.45505 0.37210
 N74 N 0.58786 0.42206 0.32828
 Mn75 Mn 0.63174 0.49999 0.50008
 C76 C 0.64763 0.40195 0.35492
 C77 C 0.64741 0.59784 0.35565
 N78 N 0.37067 0.54530 0.42318
 N79 N 0.32665 0.57850 0.41552
 N80 N 0.42160 0.45541 0.37260
 N81 N 0.41343 0.42245 0.32883
 N82 N 0.37058 0.45549 0.42296
 N83 N 0.32622 0.42257 0.41488
 N84 N 0.42171 0.54517 0.37281
 N85 N 0.41382 0.57825 0.32946
 Mn86 Mn 0.36972 0.50041 0.50096
 Mn87 Mn 0.50071 0.50011 0.37158
 Cl88 Cl 0.50073 0.50022 0.50055
 C89 C 0.35420 0.59848 0.35672
 C90 C 0.35364 0.40253 0.35586
 C91 C 0.25735 0.19963 0.16403
 C92 C 0.22282 0.21920 0.22319
 C93 C 0.16185 0.19987 0.25553
 C94 C 0.13551 0.16107 0.22895
 C95 C 0.17001 0.14114 0.16968
 C96 C 0.23110 0.16082 0.13734
 C97 C 0.25022 0.25893 0.25107
 C98 C 0.27332 0.29210 0.27475
 C99 C 0.30070 0.33077 0.30278
 C100 C 0.32454 0.36364 0.32692
 H101 H 0.30459 0.21435 0.13861
 H102 H 0.13471 0.21476 0.30133
 H103 H 0.08820 0.14669 0.25474
 H104 H 0.25856 0.14623 0.09148
 C105 C 0.74136 0.80097 0.16485
 C106 C 0.77529 0.78207 0.22458
 C107 C 0.83501 0.80218 0.25759
 C108 C 0.86073 0.84110 0.23105
 C109 C 0.82689 0.86033 0.17116
 C110 C 0.76700 0.83989 0.13821
 C111 C 0.74864 0.74216 0.25224
 C112 C 0.72613 0.70882 0.27566
 C113 C 0.69940 0.66995 0.30331
 C114 C 0.67604 0.63692 0.32712
 H115 H 0.69510 0.78564 0.13891
 H116 H 0.86166 0.78780 0.30383
 H117 H 0.90712 0.85607 0.25732
 H118 H 0.74008 0.85394 0.09186
 C119 C 0.83587 0.19733 0.74057
 C120 C 0.77558 0.21729 0.77349
 C121 C 0.74122 0.19817 0.83291
 C122 C 0.76699 0.15921 0.85936
 C123 C 0.82746 0.13893 0.82654
 C124 C 0.86174 0.15836 0.76692
 C125 C 0.74880 0.25729 0.74614
 C126 C 0.72612 0.29071 0.72311
 C127 C 0.69918 0.32970 0.69595
 C128 C 0.67573 0.36284 0.67254
 H129 H 0.86288 0.21187 0.69456
 H130 H 0.69452 0.21338 0.85880
 H131 H 0.73971 0.14502 0.90550
 H132 H 0.90857 0.14351 0.74076
 C133 C 0.15991 0.80119 0.74814
 C134 C 0.22069 0.78148 0.77991
 C135 C 0.25542 0.80075 0.83882
 C136 C 0.22979 0.83971 0.86581
 C137 C 0.16877 0.86015 0.83408
 C138 C 0.13402 0.84018 0.77489
 C139 C 0.24801 0.74170 0.75162
 C140 C 0.27144 0.70854 0.72780
 C141 C 0.29945 0.66990 0.69972
 C142 C 0.32383 0.63708 0.67549
 H143 H 0.13261 0.78649 0.70248
 H144 H 0.30254 0.78571 0.86382
 H145 H 0.25813 0.85372 0.91148
 H146 H 0.08684 0.85455 0.74891
 C147 C 0.25753 0.19858 0.83393
 C148 C 0.22401 0.21768 0.77415
 C149 C 0.16417 0.19774 0.74096
 C150 C 0.13795 0.15885 0.76738
 C151 C 0.17141 0.13944 0.82734
 C152 C 0.23141 0.15970 0.86043
 C153 C 0.25123 0.25763 0.74676
 C154 C 0.27432 0.29099 0.72378
 C155 C 0.30172 0.32995 0.69670
 C156 C 0.32545 0.36306 0.67334
 H157 H 0.30386 0.21372 0.86006
 H158 H 0.13777 0.21224 0.69469
 H159 H 0.09150 0.14403 0.74098
 H160 H 0.25811 0.14556 0.90682
 C161 C 0.74601 0.80053 0.83630
 C162 C 0.78135 0.78123 0.77747
 C163 C 0.84251 0.80088 0.74607
 C164 C 0.86812 0.83980 0.77313
 C165 C 0.83273 0.85978 0.83225
 C166 C 0.77135 0.83940 0.86358
 C167 C 0.75422 0.74148 0.74902
 C168 C 0.73073 0.70835 0.72535
 C169 C 0.70250 0.66972 0.69763
 C170 C 0.67795 0.63690 0.67379
 H171 H 0.69863 0.78557 0.86105
 H172 H 0.87032 0.78619 0.70048
 H173 H 0.91559 0.85413 0.74745
 H174 H 0.74247 0.85338 0.90918
 C175 C 0.25848 0.80197 0.16667
 C176 C 0.22422 0.78277 0.22610
 C177 C 0.16353 0.80253 0.25869
 C178 C 0.13720 0.84134 0.23204
 C179 C 0.17138 0.86085 0.17244
 C180 C 0.23224 0.84078 0.13993
 C181 C 0.25148 0.74290 0.25379
 C182 C 0.27449 0.70959 0.27713
 C183 C 0.30175 0.67071 0.30464
 C184 C 0.32541 0.63765 0.32830
 H185 H 0.30547 0.78695 0.14101
 H186 H 0.13656 0.78794 0.30468
 H187 H 0.09008 0.85601 0.25799
 H188 H 0.25948 0.85502 0.09381
 C189 C 0.83885 0.19823 0.25209
 C190 C 0.77826 0.21822 0.22045
 C191 C 0.74344 0.19919 0.16134
 C192 C 0.76882 0.16022 0.13401
 C193 C 0.82968 0.13953 0.16559
 C194 C 0.86447 0.15925 0.22501
 C195 C 0.75132 0.25807 0.24902
 C196 C 0.72831 0.29130 0.27308
 C197 C 0.70082 0.33004 0.30140
 C198 C 0.67684 0.36296 0.32573
 H199 H 0.86623 0.21272 0.29789
 H200 H 0.69648 0.21443 0.13641
 H201 H 0.74043 0.14643 0.08819
 H202 H 0.91153 0.14468 0.25092
   
