data_POSCAR
  _audit_creation_date              2014-09-24
  _audit_creation_method            'ToBaCCo'
  _symmetry_space_group_name_H-M    'P1'
  _symmetry_Int_Tables_number       1
  _symmetry_cell_setting            triclinic
  loop_
  _symmetry_equiv_pos_as_xyz
 x,y,z
_cell_length_a 39.8795
_cell_length_b 40.3763
_cell_length_c 43.4291
_cell_angle_alpha 90.223200
_cell_angle_beta 90.029500
_cell_angle_gamma 89.924200
loop_
  _atom_site_label
  _atom_site_type_symbol
  _atom_site_fract_x
  _atom_site_fract_y
  _atom_site_fract_z
C1 C 0.14242 0.16000 0.19637
 C2 C 0.13528 0.18018 0.17088
 C3 C 0.15785 0.18253 0.14663
 C4 C 0.18811 0.16442 0.14758
 C5 C 0.19562 0.14619 0.17357
 C6 C 0.17275 0.14384 0.19779
 C7 C 0.12585 0.15357 0.22371
 N8 N 0.14595 0.13434 0.24180
 C9 C 0.17473 0.12852 0.22581
 C10 C 0.22758 0.13440 0.17053
 N11 N 0.23988 0.14387 0.14279
 C12 C 0.21575 0.16201 0.12827
 C13 C 0.14607 0.20712 0.12735
 N14 N 0.11721 0.21983 0.13941
 C15 C 0.11049 0.20311 0.16586
 H16 H 0.10169 0.16350 0.23037
 H17 H 0.19561 0.11352 0.23346
 H18 H 0.24076 0.11941 0.18727
 H19 H 0.21875 0.17405 0.10621
 H20 H 0.15857 0.21608 0.10692
 H21 H 0.09047 0.20886 0.18181
 C22 C -0.11773 0.86191 0.19070
 C23 C -0.11565 0.83978 0.16567
 C24 C -0.13785 0.84257 0.14101
 C25 C -0.16253 0.86757 0.14119
 C26 C -0.16447 0.88882 0.16605
 C27 C -0.14244 0.88582 0.19080
 C28 C -0.10379 0.86177 0.21995
 N29 N -0.12063 0.88411 0.23777
 C30 C -0.14417 0.89887 0.21988
 C31 C -0.19359 0.90637 0.16362
 N32 N -0.21034 0.89650 0.13792
 C33 C -0.19110 0.87301 0.12365
 C34 C -0.13474 0.81403 0.12368
 N35 N -0.11167 0.79413 0.13726
 C36 C -0.09996 0.80955 0.16288
 H37 H -0.08526 0.84438 0.22836
 H38 H -0.16219 0.91717 0.22764
 H39 H -0.20210 0.92448 0.18027
 H40 H -0.19862 0.85865 0.10372
 H41 H -0.15073 0.80665 0.10470
 H42 H -0.08385 0.79813 0.17989
 C43 C -0.14120 0.16804 -0.19339
 C44 C -0.14760 0.18862 -0.16788
 C45 C -0.17391 0.18128 -0.14826
 C46 C -0.19383 0.15325 -0.15363
 C47 C -0.18713 0.13285 -0.17835
 C48 C -0.16046 0.14006 -0.19817
 C49 C -0.12007 0.17083 -0.21834
 N50 N -0.12569 0.14493 -0.23797
 C51 C -0.15026 0.12590 -0.22538
 C52 C -0.21212 0.10948 -0.17959
 N53 N -0.23422 0.11503 -0.15614
 C54 C -0.22272 0.14188 -0.14008
 C55 C -0.17626 0.20668 -0.12721
 N56 N -0.15182 0.22909 -0.13328
 C57 C -0.13410 0.21830 -0.15809
 H58 H -0.10216 0.19058 -0.22180
 H59 H -0.16188 0.10461 -0.23617
 H60 H -0.21380 0.09020 -0.19685
 H61 H -0.23515 0.15388 -0.12094
 H62 H -0.19482 0.20907 -0.10915
 H63 H -0.11385 0.23174 -0.16893
 C64 C 0.15549 0.81523 -0.21570
 C65 C 0.14872 0.78752 -0.19706
 C66 C 0.16942 0.78063 -0.17230
 C67 C 0.19618 0.80162 -0.16513
 C68 C 0.20313 0.82854 -0.18343
 C69 C 0.18280 0.83518 -0.20915
 C70 C 0.13956 0.82877 -0.24095
 N71 N 0.15685 0.85611 -0.25040
 C72 C 0.18322 0.86007 -0.23065
 C73 C 0.22906 0.84557 -0.16948
 N74 N 0.23736 0.83006 -0.14262
 C75 C 0.21732 0.80288 -0.14023
 C76 C 0.15637 0.75381 -0.15717
 N77 N 0.12796 0.74423 -0.17177
 C78 C 0.12284 0.76477 -0.19612
 H79 H 0.11759 0.81852 -0.25205
 H80 H 0.20117 0.88010 -0.23096
 H81 H 0.23922 0.86887 -0.17738
 H82 H 0.21758 0.78507 -0.12171
 H83 H 0.16570 0.74329 -0.13592
 H84 H 0.10125 0.76400 -0.21123
 C85 C 0.16507 1.15904 0.79550
 C86 C 0.19021 1.15169 0.81690
 C87 C 0.19678 1.17350 0.84073
 C88 C 0.17769 1.20239 0.84392
 C89 C 0.15278 1.20965 0.82297
 C90 C 0.14688 1.18807 0.79810
 C91 C 0.15404 1.14277 0.76965
 N92 N 0.13004 1.16151 0.75573
 C93 C 0.12545 1.18926 0.77328
 C94 C 0.13723 1.23819 0.83307
 N95 N 0.15202 1.24839 0.85988
 C96 C 0.17709 1.22643 0.86622
 C97 C 0.22223 1.16016 0.85805
 N98 N 0.23099 1.13067 0.84537
 C99 C 0.21150 1.12512 0.82027
 H100 H 0.16442 1.11985 0.76083
 H101 H 0.10771 1.20893 0.76870
 H102 H 0.11642 1.25009 0.82161
 H103 H 0.19277 1.22627 0.88652
 H104 H 0.23293 1.17058 0.87885
 H105 H 0.21261 1.10326 0.80579
 C106 C 0.85291 0.87332 0.81237
 C107 C 0.82815 0.87291 0.83556
 C108 C 0.83034 0.84990 0.85929
 C109 C 0.85699 0.82726 0.86031
 C110 C 0.88052 0.82730 0.83717
 C111 C 0.87845 0.85014 0.81330
 C112 C 0.85489 0.88845 0.78378
 N113 N 0.88009 0.87380 0.76743
 C114 C 0.89450 0.85054 0.78558
 C115 C 0.89895 0.79882 0.83964
 N116 N 0.88741 0.78108 0.86394
 C117 C 0.86199 0.79872 0.87710
 C118 C 0.80013 0.84989 0.87438
 N119 N 0.77963 0.87217 0.86072
 C120 C 0.79639 0.88659 0.83710
 H121 H 0.83721 0.90621 0.77453
 H122 H 0.91469 0.83411 0.77880
 H123 H 0.91850 0.79115 0.82387
 H124 H 0.84584 0.78986 0.89532
 H125 H 0.79256 0.83289 0.89231
 H126 H 0.78522 0.90323 0.82051
 C127 C 0.14728 0.86973 1.19513
 C128 C 0.17267 0.87458 1.17324
 C129 C 0.17421 0.85449 1.14737
 C130 C 0.15074 0.82905 1.14325
 C131 C 0.12587 0.82405 1.16496
 C132 C 0.12445 0.84431 1.19124
 C133 C 0.14199 0.88302 1.22396
 N134 N 0.11712 0.86571 1.23813
 C135 C 0.10639 0.84193 1.21809
 C136 C 0.10992 0.79484 1.15745
 N137 N 0.12486 0.78192 1.13204
 C138 C 0.14985 0.80259 1.12324
 C139 C 0.20373 0.86157 1.13241
 N140 N 0.22035 0.88505 1.14878
 C141 C 0.20162 0.89317 1.17381
 H142 H 0.15710 0.90216 1.23459
 H143 H 0.08702 0.82385 1.22256
 H144 H 0.09092 0.78245 1.17097
 H145 H 0.16753 0.79755 1.10489
 H146 H 0.21365 0.84875 1.11244
 H147 H 0.20940 0.90996 1.19194
 C148 C 0.83029 1.13197 1.19642
 C149 C 0.81155 1.13356 1.16899
 C150 C 0.81980 1.15683 1.14694
 C151 C 0.84609 1.17904 1.15203
 C152 C 0.86421 1.17774 1.17907
 C153 C 0.85666 1.15364 1.20111
 C154 C 0.82814 1.11246 1.22231
 N155 N 0.85298 1.12133 1.24235
 C156 C 0.87041 1.14664 1.22931
 C157 C 0.88540 1.20462 1.17934
 N158 N 0.88049 1.22202 1.15301
 C159 C 0.85680 1.20630 1.13600
 C160 C 0.79804 1.15306 1.12279
 N161 N 0.77668 1.12798 1.12936
 C162 C 0.78445 1.11596 1.15769
 H163 H 0.81029 1.09264 1.22566
 H164 H 0.89097 1.15999 1.23983
 H165 H 0.90166 1.21210 1.19809
 H166 H 0.84612 1.21560 1.11479
 H167 H 0.79790 1.16736 1.10175
 H168 H 0.77197 1.09542 1.16878
 O169 O 0.46025 1.05984 1.04450
 O170 O 0.41897 1.02566 1.02570
 C171 C 0.42916 1.05083 1.04195
 O172 O 0.53683 1.03200 0.92417
 O173 O 0.57767 1.00982 0.95521
 C174 C 0.56786 1.02534 0.93078
 O175 O 0.44373 1.03815 0.93742
 O176 O 0.41148 1.01354 0.97463
 C177 C 0.41503 1.03057 0.94971
 O178 O 0.55406 1.05444 1.03687
 O179 O 0.58552 1.01877 1.00749
 C180 C 0.58254 1.04344 1.02633
 Zr181 Zr 0.50430 1.03829 1.02650
 O182 O 0.50801 1.08930 1.01586
 O183 O 0.50793 1.04925 1.07409
 Zr184 Zr 0.49310 1.02403 0.95090
 O185 O 0.49732 1.07612 0.94664
 O186 O 0.48441 1.02085 0.90300
 O187 O 0.46866 1.03836 0.99116
 O188 O 0.52794 1.03620 0.98430
 O189 O 0.55188 0.94590 1.05633
 O190 O 0.58515 0.96591 1.01758
 C191 C 0.58089 0.95194 1.04416
 O192 O 0.44456 0.92169 0.95693
 O193 O 0.41185 0.95844 0.98422
 C194 C 0.41587 0.93243 0.96699
 O195 O 0.53793 0.92224 0.94329
 O196 O 0.57810 0.95662 0.96349
 C197 C 0.56877 0.93239 0.94593
 O198 O 0.45869 0.94214 1.06319
 O199 O 0.41861 0.96847 1.03438
 C200 C 0.42776 0.94995 1.05717
 Zr201 Zr 0.50327 0.95540 1.03964
 O202 O 0.50451 0.90317 1.04216
 O203 O 0.50731 0.95868 1.08808
 Zr204 Zr 0.49334 0.94101 0.96410
 O205 O 0.49687 0.88981 0.97396
 O206 O 0.48360 0.93028 0.91719
 Zr207 Zr 0.44889 0.99111 1.00100
 Zr208 Zr 0.54794 0.98830 0.98967
 O209 O 0.52779 0.94150 0.99969
 O210 O 0.46830 0.94284 1.00624
 O211 O 0.53380 0.99712 1.03575
 O212 O 0.46389 0.98205 0.95518
 O213 O 0.47587 0.99877 1.04202
 O214 O 0.52161 0.98068 0.94812
 H215 H 0.54354 1.05454 0.97947
 H216 H 0.44692 0.97854 0.93884
 H217 H 0.54355 0.92256 1.00111
 H218 H 0.46366 1.00242 1.06160
 H219 H 0.48350 0.99700 0.89791
 H220 H 0.49929 0.94370 0.90478
 H221 H 0.47928 0.88462 0.98927
 H222 H 0.50854 0.89787 1.06410
 H223 H 0.50985 0.98243 1.09304
 H224 H 0.52565 1.03486 1.08275
 H225 H 0.48637 1.09620 1.00673
 H226 H 0.47580 1.08600 0.95335
 O227 O 0.04694 0.45355 -0.04673
 O228 O 0.01524 0.41769 -0.01792
 C229 C 0.03887 0.42414 -0.03748
 O230 O 0.05009 0.54702 0.05979
 O231 O 0.01814 0.58374 0.03212
 C232 C 0.04149 0.57683 0.05193
 O233 O 0.04873 0.45351 0.06040
 O234 O 0.01546 0.41778 0.03269
 C235 C 0.03793 0.42396 0.05336
 O236 O 0.03996 0.54650 -0.05393
 O237 O 0.01255 0.58337 -0.02235
 C238 C 0.03079 0.57640 -0.04618
 Zr239 Zr 0.02706 0.50004 -0.03364
 O240 O 0.07974 0.50420 -0.03789
 O241 O 0.02125 0.49594 -0.08187
 Zr242 Zr 0.03225 0.50082 0.04381
 O243 O 0.08493 0.50228 0.03786
 O244 O 0.03838 0.49930 0.09215
 O245 O 0.03564 0.47074 0.00520
 O246 O 0.03604 0.52942 0.00439
 O247 O -0.07125 0.54626 -0.04886
 O248 O -0.04138 0.58337 -0.01946
 C249 C -0.06191 0.57603 -0.04164
 O250 O -0.06941 0.45701 0.06630
 O251 O -0.04105 0.41930 0.03637
 C252 C -0.06117 0.42694 0.05878
 O253 O -0.06599 0.54977 0.06652
 O254 O -0.03740 0.58504 0.03483
 C255 C -0.05731 0.57926 0.05774
 O256 O -0.07860 0.45454 -0.04145
 O257 O -0.04442 0.41795 -0.01607
 C258 C -0.06951 0.42478 -0.03399
 Zr259 Zr -0.05746 0.50065 -0.02908
 O260 O -0.11011 0.50638 -0.02554
 O261 O -0.06141 0.49557 -0.07744
 Zr262 Zr -0.05288 0.50274 0.04825
 O263 O -0.10584 0.50686 0.04805
 O264 O -0.05303 0.50092 0.09693
 Zr265 Zr -0.01353 0.45168 0.00807
 Zr266 Zr -0.01220 0.55037 0.00696
 O267 O -0.06096 0.53087 0.00939
 O268 O -0.06217 0.47203 0.01049
 O269 O -0.01528 0.52946 -0.03749
 O270 O -0.01048 0.47362 0.05213
 O271 O -0.01575 0.47115 -0.03668
 O272 O -0.00941 0.53118 0.05194
 H273 H 0.05555 0.54448 0.00264
 H274 H -0.00961 0.45995 0.07100
 H275 H -0.08004 0.54662 0.00993
 H276 H -0.01675 0.45544 -0.05424
 H277 H 0.02145 0.51446 0.10107
 H278 H -0.03506 0.51584 0.10425
 H279 H -0.11509 0.48527 0.04133
 H280 H -0.11852 0.48840 -0.01222
 H281 H -0.04194 0.50720 -0.08645
 H282 H 0.04421 0.49620 -0.09058
 H283 H 0.08971 0.48992 -0.02187
 H284 H 0.09230 0.47997 0.03116
 O285 O 0.94290 0.06400 0.54415
 O286 O 0.97532 0.03556 0.57899
 C287 C 0.95271 0.05736 0.57200
 O288 O 0.94729 -0.05944 0.46268
 O289 O 0.97672 -0.02916 0.42716
 C290 C 0.95531 -0.05185 0.43464
 O291 O 0.94739 -0.05434 0.54839
 O292 O 0.97713 -0.02056 0.58111
 C293 C 0.95597 -0.04426 0.57564
 O294 O 0.94052 0.05830 0.45800
 O295 O 0.97333 0.02797 0.42467
 C296 C 0.94901 0.04839 0.43060
 Zr297 Zr 0.96003 0.04450 0.50149
 O298 O 0.90704 0.04100 0.50052
 O299 O 0.95750 0.09687 0.50110
 Zr300 Zr 0.96432 -0.03884 0.50482
 O301 O 0.91135 -0.04175 0.50302
 O302 O 0.96808 -0.09093 0.50948
 O303 O 0.95585 0.00394 0.53090
 O304 O 0.95576 0.00115 0.47659
 O305 O 1.06070 0.06447 0.45661
 O306 O 1.03052 0.03110 0.42387
 C307 C 1.05263 0.05394 0.42933
 O308 O 1.07024 -0.04642 0.54708
 O309 O 1.03608 -0.01784 0.58046
 C310 C 1.06124 -0.03723 0.57454
 O311 O 1.06219 -0.05778 0.46143
 O312 O 1.03264 -0.02674 0.42649
 C313 C 1.05321 -0.05034 0.43355
 O314 O 1.06109 0.06921 0.54256
 O315 O 1.03268 0.03807 0.57826
 C316 C 1.05288 0.06180 0.57063
 Zr317 Zr 1.04461 0.04831 0.50036
 O318 O 1.09763 0.04914 0.49779
 O319 O 1.04273 0.10070 0.50014
 Zr320 Zr 1.04875 -0.03491 0.50375
 O321 O 1.10141 -0.03183 0.49821
 O322 O 1.05299 -0.08663 0.51040
 Zr323 Zr 1.00489 0.00708 0.54869
 Zr324 Zr 1.00384 0.00266 0.45652
 O325 O 1.05251 0.00547 0.47510
 O326 O 1.05356 0.00852 0.52962
 O327 O 1.00162 0.05172 0.47302
 O328 O 1.00727 -0.04162 0.53137
 O329 O 1.00238 0.05376 0.52720
 O330 O 1.00636 -0.04461 0.47706
 H331 H 0.93550 -0.00072 0.46348
 H332 H 1.00878 -0.06034 0.54599
 H333 H 1.07197 0.00502 0.46093
 H334 H 1.00159 0.07445 0.53950
 H335 H 0.97905 -0.09977 0.49074
 H336 H 1.03548 -0.09722 0.49762
 H337 H 1.10998 -0.01667 0.51431
 H338 H 1.10649 0.04024 0.51737
 H339 H 1.02746 0.10737 0.48331
 H340 H 0.96972 0.10459 0.48266
 H341 H 0.89978 0.03041 0.51991
 H342 H 0.90240 -0.02669 0.51905
 C343 C 1.10074 0.10679 0.31148
 C344 C 1.12760 0.09957 0.33009
 C345 C 1.16061 0.10347 0.32089
 C346 C 1.16642 0.11509 0.29109
 C347 C 1.13938 0.12338 0.27102
 C348 C 1.10588 0.11952 0.28186
 O349 O 1.07139 0.09990 0.32463
 C350 C 1.08011 0.08836 0.35220
 C351 C 1.11427 0.08809 0.35663
 C352 C 1.12927 0.07773 0.38377
 C353 C 1.10821 0.06721 0.40751
 C354 C 1.07292 0.06653 0.40361
 C355 C 1.05854 0.07700 0.37540
 H356 H 1.18127 0.09749 0.33607
 H357 H 1.19222 0.11858 0.28424
 H358 H 1.08449 0.12480 0.26735
 H359 H 1.15623 0.07787 0.38662
 H360 H 1.11946 0.05894 0.42887
 H361 H 1.03167 0.07670 0.37189
 C362 C 0.91682 -0.10468 0.31452
 C363 C 0.88841 -0.09789 0.33134
 C364 C 0.85660 -0.09717 0.31847
 C365 C 0.85389 -0.10333 0.28686
 C366 C 0.88263 -0.11126 0.26878
 C367 C 0.91453 -0.11283 0.28323
 O368 O 0.94488 -0.10005 0.33053
 C369 C 0.93378 -0.09040 0.35802
 C370 C 0.89936 -0.08935 0.35978
 C371 C 0.88219 -0.07896 0.38594
 C372 C 0.90129 -0.06868 0.41127
 C373 C 0.93675 -0.06800 0.40960
 C374 C 0.95333 -0.07931 0.38272
 H375 H 0.83473 -0.09094 0.33209
 H376 H 0.82914 -0.10262 0.27666
 H377 H 0.93706 -0.11768 0.27006
 H378 H 0.85508 -0.07812 0.38658
 H379 H 0.88848 -0.05956 0.43160
 H380 H 0.98041 -0.07851 0.38083
 C381 C 0.90130 0.10413 0.69017
 C382 C 0.91403 0.13075 0.67448
 C383 C 0.91576 0.16231 0.68725
 C384 C 0.90338 0.16674 0.71727
 C385 C 0.88865 0.13995 0.73370
 C386 C 0.88806 0.10807 0.71963
 O387 O 0.90319 0.07591 0.67446
 C388 C 0.91712 0.08499 0.64808
 C389 C 0.92384 0.11839 0.64676
 C390 C 0.93783 0.13332 0.62099
 C391 C 0.94562 0.11290 0.59576
 C392 C 0.93996 0.07828 0.59705
 C393 C 0.92547 0.06411 0.62355
 H394 H 0.92624 0.18285 0.67455
 H395 H 0.90398 0.19147 0.72687
 H396 H 0.87829 0.08659 0.73139
 H397 H 0.94276 0.15966 0.62040
 H398 H 0.95724 0.12377 0.57565
 H399 H 0.92114 0.03773 0.62504
 C400 C 1.11171 -0.10506 0.68435
 C401 C 1.13665 -0.08522 0.67287
 C402 C 1.16829 -0.08339 0.68603
 C403 C 1.17467 -0.10282 0.71209
 C404 C 1.14973 -0.12432 0.72452
 C405 C 1.11764 -0.12520 0.70999
 O406 O 1.08324 -0.10283 0.66847
 C407 C 1.09055 -0.08129 0.64636
 C408 C 1.12305 -0.07001 0.64792
 C409 C 1.13653 -0.04826 0.62647
 C410 C 1.11569 -0.03778 0.60233
 C411 C 1.08199 -0.04860 0.60044
 C412 C 1.06907 -0.07048 0.62288
 H413 H 1.18755 -0.06758 0.67649
 H414 H 1.19965 -0.10170 0.72166
 H415 H 1.09747 -0.14043 0.71857
 H416 H 1.16228 -0.04001 0.62802
 H417 H 1.12568 -0.02108 0.58516
 H418 H 1.04347 -0.07931 0.62162
 C419 C 0.30984 1.11656 1.09347
 C420 C 0.33503 1.11598 1.11508
 C421 C 0.33043 1.12558 1.14546
 C422 C 0.29827 1.13547 1.15430
 C423 C 0.27151 1.13686 1.13266
 C424 C 0.27780 1.12828 1.10139
 O425 O 0.31909 1.10311 1.06669
 C426 C 0.35081 1.09412 1.07165
 C427 C 0.36168 1.10202 1.10083
 C428 C 0.39356 1.09461 1.11155
 C429 C 0.41540 1.07837 1.09138
 C430 C 0.40495 1.06911 1.06131
 C431 C 0.37204 1.07699 1.05124
 H432 H 0.35061 1.12430 1.16209
 H433 H 0.29427 1.14244 1.17812
 H434 H 0.25779 1.12804 1.08453
 H435 H 0.40131 1.10099 1.13471
 H436 H 0.44033 1.07225 1.09951
 H437 H 0.36342 1.07009 1.02846
 C438 C 0.30780 0.87451 0.89415
 C439 C 0.30505 0.86307 0.92380
 C440 C 0.28082 0.84040 0.93260
 C441 C 0.25843 0.82906 0.91000
 C442 C 0.26003 0.84081 0.87904
 C443 C 0.28536 0.86415 0.87136
 O444 O 0.33334 0.89516 0.89036
 C445 C 0.34683 0.89690 0.91829
 C446 C 0.33027 0.87796 0.93969
 C447 C 0.33998 0.87647 0.97047
 C448 C 0.36805 0.89513 0.97949
 C449 C 0.38585 0.91417 0.95764
 C450 C 0.37512 0.91514 0.92665
 H451 H 0.27923 0.83164 0.95608
 H452 H 0.23925 0.81195 0.91728
 H453 H 0.28842 0.87334 0.84819
 H454 H 0.32646 0.86148 0.98692
 H455 H 0.37635 0.89432 1.00322
 H456 H 0.38840 0.92970 0.90969
 C457 C 0.71272 0.91414 1.09322
 C458 C 0.69299 0.92668 1.11639
 C459 C 0.70363 0.92976 1.14655
 C460 C 0.73624 0.91970 1.15338
 C461 C 0.75779 0.90623 1.13025
 C462 C 0.74534 0.90307 1.09960
 O463 O 0.69733 0.91421 1.06596
 C464 C 0.66724 0.92687 1.07239
 C465 C 0.66350 0.93453 1.10307
 C466 C 0.63420 0.94727 1.11552
 C467 C 0.60732 0.95234 1.09553
 C468 C 0.61025 0.94516 1.06365
 C469 C 0.64081 0.93250 1.05171
 H470 H 0.68734 0.93959 1.16432
 H471 H 0.74383 0.92137 1.17720
 H472 H 0.76077 0.89339 1.08116
 H473 H 0.63204 0.95294 1.13982
 H474 H 0.58425 0.96240 1.10487
 H475 H 0.64362 0.92680 1.02747
 C476 C 0.68844 1.08601 0.88173
 C477 C 0.67654 1.06425 0.85996
 C478 C 0.69344 1.05787 0.83265
 C479 C 0.72367 1.07476 0.82746
 C480 C 0.73662 1.09793 0.84942
 C481 C 0.71825 1.10318 0.87710
 O482 O 0.66911 1.08810 0.90648
 C483 C 0.64440 1.06724 0.90017
 C484 C 0.64759 1.05203 0.87191
 C485 C 0.62443 1.02899 0.86095
 C486 C 0.59718 1.02111 0.88012
 C487 C 0.59401 1.03612 0.90949
 C488 C 0.61770 1.05969 0.91949
 H489 H 0.68367 1.04051 0.81584
 H490 H 0.73617 1.07001 0.80586
 H491 H 0.72682 1.11958 0.89513
 H492 H 0.62747 1.01722 0.83869
 H493 H 0.57917 1.00272 0.87259
 H494 H 0.61549 1.07159 0.94176
 C495 C 0.09576 0.30157 0.10262
 C496 C 0.06367 0.30568 0.11348
 C497 C 0.04725 0.28200 0.13092
 C498 C 0.06489 0.25308 0.13826
 C499 C 0.09866 0.24839 0.12865
 C500 C 0.11405 0.27299 0.11000
 O501 O 0.10613 0.32697 0.08558
 C502 C 0.08001 0.34759 0.08593
 C503 C 0.05359 0.33563 0.10298
 C504 C 0.02365 0.35269 0.10668
 C505 C 0.02040 0.38305 0.09163
 C506 C 0.04659 0.39565 0.07302
 C507 C 0.07714 0.37792 0.07031
 H508 H 0.02169 0.28564 0.13862
 H509 H 0.05210 0.23444 0.15163
 H510 H 0.13968 0.27053 0.10219
 H511 H 0.00325 0.34273 0.12022
 H512 H -0.00307 0.39636 0.09359
 H513 H 0.09718 0.38668 0.05565
 C514 C -0.11210 0.30155 -0.09368
 C515 C -0.14012 0.32012 -0.08698
 C516 C -0.17239 0.31012 -0.09477
 C517 C -0.17596 0.27964 -0.11000
 C518 C -0.14748 0.26016 -0.11756
 C519 C -0.11504 0.27139 -0.10938
 O520 O -0.08380 0.31554 -0.08402
 C521 C -0.09422 0.34363 -0.07110
 C522 C -0.12846 0.34766 -0.07255
 C523 C -0.14470 0.37579 -0.06156
 C524 C -0.12484 0.40093 -0.04874
 C525 C -0.08953 0.39730 -0.04665
 C526 C -0.07400 0.36804 -0.05771
 H527 H -0.19405 0.32519 -0.08924
 H528 H -0.20082 0.27133 -0.11636
 H529 H -0.09297 0.25683 -0.11469
 H530 H -0.17164 0.37854 -0.06327
 H531 H -0.13694 0.42323 -0.04032
 H532 H -0.04704 0.36490 -0.05678
 C533 C 0.09478 0.66966 -0.13147
 C534 C 0.06239 0.67985 -0.12612
 C535 C 0.04934 0.70924 -0.13776
 C536 C 0.07085 0.72948 -0.15500
 C537 C 0.10482 0.72043 -0.15955
 C538 C 0.11676 0.68977 -0.14807
 O539 O 0.10241 0.64134 -0.11752
 C540 C 0.07434 0.63371 -0.10266
 C541 C 0.04933 0.65681 -0.10690
 C542 C 0.01900 0.65565 -0.09133
 C543 C 0.01411 0.62951 -0.07076
 C544 C 0.03870 0.60438 -0.06686
 C545 C 0.06935 0.60648 -0.08320
 H546 H 0.02378 0.71675 -0.13304
 H547 H 0.06169 0.75310 -0.16323
 H548 H 0.14274 0.68258 -0.15090
 H549 H 0.00009 0.67463 -0.09432
 H550 H -0.00911 0.62877 -0.05801
 H551 H 0.08888 0.58811 -0.08020
 C552 C -0.08859 0.71408 0.09956
 C553 C -0.10208 0.69210 0.12030
 C554 C -0.11874 0.70219 0.14685
 C555 C -0.12153 0.73635 0.15229
 C556 C -0.10810 0.75945 0.13116
 C557 C -0.09156 0.74823 0.10432
 O558 O -0.07306 0.69924 0.07623
 C559 C -0.07691 0.66725 0.08237
 C560 C -0.09462 0.66159 0.10897
 C561 C -0.10154 0.62995 0.11975
 C562 C -0.08953 0.60299 0.10249
 C563 C -0.07076 0.60803 0.07509
 C564 C -0.06454 0.64082 0.06493
 H565 H -0.12902 0.68444 0.16289
 H566 H -0.13433 0.74500 0.17279
 H567 H -0.08102 0.76555 0.08802
 H568 H -0.11563 0.62615 0.14074
 H569 H -0.09462 0.57822 0.11071
 H570 H -0.05038 0.64571 0.04417
 C571 C 1.10124 0.11558 0.68733
 C572 C 1.08941 0.14124 0.66973
 C573 C 1.08862 0.17380 0.68014
 C574 C 1.10114 0.18031 0.70975
 C575 C 1.11511 0.15452 0.72806
 C576 C 1.11457 0.12153 0.71645
 O577 O 1.09894 0.08630 0.67348
 C578 C 1.08570 0.09371 0.64634
 C579 C 1.07981 0.12709 0.64276
 C580 C 1.06703 0.14050 0.61577
 C581 C 1.05970 0.11856 0.59161
 C582 C 1.06452 0.08398 0.59516
 C583 C 1.07766 0.07132 0.62292
 H584 H 1.07895 0.19356 0.66588
 H585 H 1.10143 0.20579 0.71748
 H586 H 1.12379 0.10081 0.72970
 H587 H 1.06283 0.16686 0.61340
 H588 H 1.04921 0.12832 0.57048
 H589 H 1.08145 0.04498 0.62611
 C590 C 0.89907 -0.08622 0.69353
 C591 C 0.90874 -0.11359 0.67680
 C592 C 0.90839 -0.14543 0.68852
 C593 C 0.89831 -0.14931 0.71905
 C594 C 0.88770 -0.12170 0.73712
 C595 C 0.88710 -0.08971 0.72368
 O596 O 0.90439 -0.05796 0.67863
 C597 C 0.91746 -0.06794 0.65195
 C598 C 0.92007 -0.10182 0.64968
 C599 C 0.93323 -0.11795 0.62412
 C600 C 0.94422 -0.09833 0.59970
 C601 C 0.94272 -0.06331 0.60161
 C602 C 0.92926 -0.04777 0.62815
 H603 H 0.91660 -0.16645 0.67493
 H604 H 0.89822 -0.17410 0.72844
 H605 H 0.88006 -0.06806 0.73698
 H606 H 0.93505 -0.14468 0.62304
 H607 H 0.95468 -0.11037 0.57954
 H608 H 0.92801 -0.02110 0.63010
 C609 C 1.09953 -0.09559 0.31334
 C610 C 1.08673 -0.12225 0.32896
 C611 C 1.08249 -0.15314 0.31538
 C612 C 1.09205 -0.15681 0.28446
 C613 C 1.10660 -0.13002 0.26789
 C614 C 1.11037 -0.09893 0.28295
 O615 O 1.09942 -0.06784 0.32983
 C616 C 1.08658 -0.07731 0.35658
 C617 C 1.07889 -0.11051 0.35740
 C618 C 1.06523 -0.12571 0.38320
 C619 C 1.05876 -0.10574 0.40905
 C620 C 1.06524 -0.07127 0.40823
 C621 C 1.07947 -0.05684 0.38170
 H622 H 1.07189 -0.17366 0.32804
 H623 H 1.08927 -0.18101 0.27405
 H624 H 1.12023 -0.07752 0.27113
 H625 H 1.05935 -0.15187 0.38329
 H626 H 1.04732 -0.11675 0.42917
 H627 H 1.08419 -0.03046 0.38051
 C628 C 0.89701 0.09705 0.31340
 C629 C 0.87148 0.08152 0.32882
 C630 C 0.83964 0.07755 0.31636
 C631 C 0.83374 0.09036 0.28683
 C632 C 0.85931 0.10768 0.27061
 C633 C 0.89150 0.11083 0.28447
 O634 O 0.92581 0.09707 0.32877
 C635 C 0.91820 0.08148 0.35468
 C636 C 0.88512 0.07182 0.35599
 C637 C 0.87150 0.05576 0.38131
 C638 C 0.89288 0.04926 0.40621
 C639 C 0.92722 0.05818 0.40503
 C640 C 0.94017 0.07441 0.37887
 H641 H 0.82000 0.06494 0.32888
 H642 H 0.80881 0.08781 0.27735
 H643 H 0.91219 0.12272 0.27286
 H644 H 0.84538 0.04852 0.38187
 H645 H 0.88298 0.03648 0.42612
 H646 H 0.96634 0.08135 0.37752
 C647 C 0.10173 0.31616 -0.10603
 C648 C 0.12223 0.32512 -0.08202
 C649 C 0.15316 0.31055 -0.07679
 C650 C 0.16330 0.28523 -0.09684
 C651 C 0.14249 0.27456 -0.12177
 C652 C 0.11128 0.29107 -0.12642
 O653 O 0.07327 0.33332 -0.10684
 C654 C 0.07600 0.35355 -0.08277
 C655 C 0.10555 0.34940 -0.06683
 C656 C 0.11387 0.36794 -0.04091
 C657 C 0.09092 0.39207 -0.03121
 C658 C 0.06051 0.39699 -0.04738
 C659 C 0.05269 0.37745 -0.07343
 H660 H 0.16900 0.31838 -0.05787
 H661 H 0.18771 0.27454 -0.09277
 H662 H 0.09413 0.28416 -0.14458
 H663 H 0.13728 0.36419 -0.02879
 H664 H 0.09692 0.40728 -0.01135
 H665 H 0.02967 0.38119 -0.08619
 C666 C -0.09144 0.29705 0.11065
 C667 C -0.09338 0.32031 0.13380
 C668 C -0.10120 0.31234 0.16406
 C669 C -0.10808 0.27906 0.17061
 C670 C -0.10752 0.25480 0.14691
 C671 C -0.09862 0.26391 0.11659
 O672 O -0.08388 0.30992 0.08344
 C673 C -0.08132 0.34206 0.08951
 C674 C -0.08725 0.34969 0.11993
 C675 C -0.08727 0.38192 0.13115
 C676 C -0.08027 0.40734 0.11027
 C677 C -0.07297 0.40011 0.07893
 C678 C -0.07367 0.36690 0.06842
 H679 H -0.10266 0.33116 0.18183
 H680 H -0.11542 0.27242 0.19377
 H681 H -0.09825 0.24584 0.09811
 H682 H -0.09236 0.38730 0.15513
 H683 H -0.07936 0.43255 0.11883
 H684 H -0.06813 0.36061 0.04470
 C685 C -0.09900 0.70421 -0.09261
 C686 C -0.08706 0.68418 -0.11577
 C687 C -0.08178 0.69518 -0.14555
 C688 C -0.08952 0.72822 -0.15194
 C689 C -0.10334 0.74945 -0.12887
 C690 C -0.10813 0.73690 -0.09868
 O691 O -0.10020 0.68916 -0.06548
 C692 C -0.08918 0.65886 -0.07189
 C693 C -0.08140 0.65450 -0.10250
 C694 C -0.07001 0.62470 -0.11462
 C695 C -0.06591 0.59832 -0.09421
 C696 C -0.07223 0.60258 -0.06233
 C697 C -0.08417 0.63321 -0.05091
 H698 H -0.07191 0.67892 -0.16324
 H699 H -0.08616 0.73649 -0.17537
 H700 H -0.11768 0.75232 -0.08022
 H701 H -0.06418 0.62196 -0.13884
 H702 H -0.05617 0.57505 -0.10293
 H703 H -0.08876 0.63700 -0.02657
 C704 C 0.08406 0.70525 0.10155
 C705 C 0.11148 0.68461 0.09985
 C706 C 0.14367 0.69462 0.10780
 C707 C 0.14783 0.72731 0.11800
 C708 C 0.11995 0.74896 0.12056
 C709 C 0.08752 0.73773 0.11238
 O710 O 0.05593 0.69093 0.09190
 C711 C 0.06585 0.66058 0.08412
 C712 C 0.09956 0.65545 0.08889
 C713 C 0.11533 0.62541 0.08289
 C714 C 0.09557 0.59956 0.07131
 C715 C 0.06088 0.60431 0.06544
 C716 C 0.04578 0.63534 0.07193
 H717 H 0.16488 0.67795 0.10602
 H718 H 0.17267 0.73568 0.12442
 H719 H 0.06596 0.75397 0.11406
 H720 H 0.14190 0.62192 0.08699
 H721 H 0.10749 0.57602 0.06628
 H722 H 0.01932 0.63957 0.06786
 C723 C 0.30884 1.09747 0.88116
 C724 C 0.29919 1.06529 0.88640
 C725 C 0.26816 1.05282 0.87744
 C726 C 0.24597 1.07460 0.86274
 C727 C 0.25497 1.10812 0.85797
 C728 C 0.28691 1.11965 0.86714
 O729 O 0.33931 1.10435 0.89173
 C730 C 0.34901 1.07595 0.90418
 C731 C 0.32518 1.05141 0.90175
 C732 C 0.32914 1.02026 0.91462
 C733 C 0.35889 1.01412 0.93069
 C734 C 0.38413 1.03875 0.93307
 C735 C 0.37931 1.07006 0.91938
 H736 H 0.26114 1.02740 0.88190
 H737 H 0.22139 1.06582 0.85600
 H738 H 0.29420 1.14519 0.86370
 H739 H 0.30984 1.00154 0.91275
 H740 H 0.36246 0.99000 0.94104
 H741 H 0.39809 1.08933 0.92121
 C742 C 0.29756 0.91192 1.10749
 C743 C 0.32069 0.91053 1.13098
 C744 C 0.31203 0.90231 1.16103
 C745 C 0.27823 0.89492 1.16698
 C746 C 0.25416 0.89536 1.14293
 C747 C 0.26402 0.90406 1.11279
 O748 O 0.31075 0.92082 1.08075
 C749 C 0.34294 0.92496 1.08743
 C750 C 0.35046 0.91866 1.11776
 C751 C 0.38290 0.92085 1.12944
 C752 C 0.40853 0.93029 1.10908
 C753 C 0.40118 0.93780 1.07789
 C754 C 0.36785 0.93492 1.06700
 H755 H 0.33063 0.90144 1.17917
 H756 H 0.27092 0.88787 1.19005
 H757 H 0.24606 0.90455 1.09410
 H758 H 0.38827 0.91555 1.15335
 H759 H 0.43388 0.93252 1.11779
 H760 H 0.36141 0.94037 1.04332
 C761 C 0.69574 1.09705 1.09644
 C762 C 0.70484 1.09386 1.06602
 C763 C 0.73689 1.10062 1.05532
 C764 C 0.76059 1.11159 1.07680
 C765 C 0.75208 1.11520 1.10834
 C766 C 0.71922 1.10747 1.11840
 O767 O 0.66380 1.08927 1.10149
 C768 C 0.65263 1.08091 1.07365
 C769 C 0.67695 1.08322 1.05129
 C770 C 0.67154 1.07448 1.02079
 C771 C 0.63987 1.06228 1.01299
 C772 C 0.61410 1.05969 1.03537
 C773 C 0.62042 1.06955 1.06617
 H774 H 0.74336 1.09780 1.03125
 H775 H 0.78571 1.11721 1.06897
 H776 H 0.71210 1.11028 1.14231
 H777 H 0.69128 1.07613 1.00376
 H778 H 0.63559 1.05418 0.98956
 H779 H 0.60148 1.06699 1.08386
 C780 C 0.69693 0.90498 0.88633
 C781 C 0.67753 0.87688 0.88383
 C782 C 0.69007 0.84701 0.87268
 C783 C 0.72403 0.84601 0.86421
 C784 C 0.74441 0.87466 0.86667
 C785 C 0.73055 0.90469 0.87740
 O786 O 0.68096 0.93008 0.89955
 C787 C 0.65092 0.91759 0.90553
 C788 C 0.64733 0.88522 0.89621
 C789 C 0.61815 0.86712 0.90138
 C790 C 0.59174 0.88299 0.91709
 C791 C 0.59531 0.91610 0.92763
 C792 C 0.62525 0.93365 0.92129
 H793 H 0.67458 0.82506 0.87141
 H794 H 0.73476 0.82288 0.85623
 H795 H 0.74595 0.92656 0.88017
 H796 H 0.61598 0.84157 0.89402
 H797 H 0.56902 0.86926 0.92180
 H798 H 0.62880 0.95899 0.92888
   
