data_POSCAR
  _audit_creation_date              2014-09-24
  _audit_creation_method            'ToBaCCo'
  _symmetry_space_group_name_H-M    'P1'
  _symmetry_Int_Tables_number       1
  _symmetry_cell_setting            triclinic
  loop_
  _symmetry_equiv_pos_as_xyz
 x,y,z
_cell_length_a 25.6241
_cell_length_b 22.0888
_cell_length_c 27.2938
_cell_angle_alpha 91.975000
_cell_angle_beta 89.147400
_cell_angle_gamma 89.820600
loop_
  _atom_site_label
  _atom_site_type_symbol
  _atom_site_fract_x
  _atom_site_fract_y
  _atom_site_fract_z
N1 N 0.53404 0.67247 0.58103
 N2 N 0.51942 0.65518 0.62473
 C3 C 0.47855 0.68891 0.64080
 C4 C 0.46631 0.72895 0.60490
 C5 C 0.50199 0.71709 0.56718
 H6 H 0.45992 0.68559 0.67644
 H7 H 0.50646 0.74165 0.53377
 Cu8 Cu 0.55636 0.59177 0.65734
 Cu9 Cu 0.59809 0.64028 0.54997
 Cu10 Cu 0.68538 0.59779 0.63941
 N11 N 0.60331 0.54465 0.69559
 N12 N 0.65417 0.55107 0.69210
 C13 C 0.67682 0.51897 0.72727
 C14 C 0.63782 0.48876 0.75258
 C15 C 0.59174 0.50629 0.73112
 H16 H 0.71849 0.51582 0.73247
 H17 H 0.55242 0.49467 0.74214
 N18 N 0.70717 0.61950 0.57211
 N19 N 0.67332 0.63135 0.53760
 C20 C 0.69875 0.63573 0.49452
 C21 C 0.75124 0.62699 0.50223
 C22 C 0.75550 0.61706 0.55177
 H23 H 0.68035 0.64393 0.45995
 H24 H 0.79061 0.60528 0.57085
 H25 H 0.62464 0.57144 0.59630
 H26 H 0.62404 0.65220 0.61869
 N27 N 0.94672 0.30915 0.09124
 N28 N 0.93834 0.30132 0.13840
 C29 C 0.97259 0.26040 0.15416
 C30 C 1.00514 0.24212 0.11522
 C31 C 0.98736 0.27430 0.07582
 H32 H 0.97556 0.24818 0.19202
 H33 H 1.00206 0.27202 0.03847
 Cu34 Cu 0.88952 0.35174 0.17866
 Cu35 Cu 0.90189 0.36149 0.05261
 Cu36 Cu 0.81762 0.44933 0.11780
 N37 N 0.86078 0.42516 0.21066
 N38 N 0.83425 0.46491 0.18619
 C39 C 0.82379 0.51372 0.21565
 C40 C 0.84414 0.50323 0.26116
 C41 C 0.86742 0.44682 0.25683
 H42 H 0.80438 0.55443 0.20446
 H43 H 0.89001 0.42475 0.28428
 N44 N 0.80322 0.42310 0.05082
 N45 N 0.83714 0.39071 0.02432
 C46 C 0.81656 0.37750 -0.01992
 C47 C 0.76709 0.40251 -0.02060
 C48 C 0.75966 0.43067 0.02487
 H49 H 0.83478 0.34867 -0.04813
 H50 H 0.72450 0.45300 0.03863
 H51 H 0.90498 0.40582 0.12207
 H52 H 0.85415 0.34709 0.11018
 N53 N 0.46544 0.18291 -0.07973
 N54 N 0.47638 0.16703 -0.12561
 C55 C 0.51473 0.20225 -0.14253
 C56 C 0.52934 0.24187 -0.10506
 C57 C 0.49766 0.22819 -0.06540
 H58 H 0.53044 0.19974 -0.17956
 H59 H 0.49620 0.25148 -0.02988
 Cu60 Cu 0.43952 0.10215 -0.15947
 Cu61 Cu 0.40583 0.14691 -0.04572
 Cu62 Cu 0.31312 0.09651 -0.13000
 N63 N 0.39237 0.05133 -0.19678
 N64 N 0.34197 0.05088 -0.18705
 C65 C 0.31829 0.01433 -0.22053
 C66 C 0.35648 -0.01034 -0.25178
 C67 C 0.40287 0.01420 -0.23560
 H68 H 0.27689 0.00498 -0.22112
 H69 H 0.44134 0.00614 -0.25137
 N70 N 0.29625 0.11941 -0.06075
 N71 N 0.33211 0.13366 -0.02802
 C72 C 0.30926 0.13980 0.01661
 C73 C 0.25641 0.12996 0.01148
 C74 C 0.24938 0.11738 -0.03790
 H75 H 0.32942 0.15141 0.05016
 H76 H 0.21316 0.10517 -0.05545
 H77 H 0.37940 0.07613 -0.09356
 H78 H 0.37250 0.15653 -0.11116
 N79 N 0.04883 0.81678 0.40617
 N80 N 0.04719 0.81384 0.35808
 C81 C 0.01106 0.77346 0.34370
 C82 C -0.01264 0.75047 0.38510
 C83 C 0.01197 0.77987 0.42429
 H84 H 0.00138 0.76371 0.30584
 H85 H 0.00534 0.77310 0.46294
 Cu86 Cu 0.08915 0.86651 0.31860
 Cu87 Cu 0.10159 0.86611 0.43986
 Cu88 Cu 0.20058 0.91936 0.36368
 N89 N 0.12509 0.93318 0.28876
 N90 N 0.17070 0.95210 0.30443
 C91 C 0.18767 0.99678 0.27574
 C92 C 0.14976 1.00692 0.24128
 C93 C 0.11069 0.96590 0.25066
 H94 H 0.22364 1.02156 0.28083
 H95 H 0.07453 0.96019 0.23110
 N96 N 0.20969 0.90747 0.43412
 N97 N 0.17115 0.89157 0.46370
 C98 C 0.18990 0.88660 0.50926
 C99 C 0.24263 0.89932 0.50790
 C100 C 0.25400 0.91202 0.45975
 H101 H 0.16786 0.87031 0.54021
 H102 H 0.29199 0.92195 0.44427
 H103 H 0.12609 0.92555 0.38687
 H104 H 0.15141 0.84627 0.38240
 C105 C 0.09905 0.12812 0.16050
 C106 C 0.05493 0.16524 0.15711
 C107 C 0.04829 0.20246 0.11671
 C108 C 0.08623 0.20006 0.07866
 C109 C 0.13147 0.16450 0.08243
 C110 C 0.13840 0.12927 0.12400
 C111 C 0.10401 0.08911 0.19955
 C112 C 0.14864 0.05284 0.20354
 C113 C 0.18957 0.05713 0.16912
 C114 C 0.18438 0.09453 0.12881
 C115 C 0.22356 0.09650 0.09247
 C116 C 0.21623 0.13038 0.05053
 C117 C 0.17008 0.16381 0.04543
 H118 H 0.02542 0.16399 0.18586
 H119 H 0.08204 0.22773 0.04696
 H120 H 0.07282 0.08626 0.22667
 H121 H 0.22402 0.02900 0.17233
 H122 H 0.25901 0.07013 0.09590
 H123 H 0.16481 0.19013 0.01305
 C124 C 0.38855 0.86106 0.65868
 C125 C 0.42545 0.81442 0.65287
 C126 C 0.42803 0.77873 0.60942
 C127 C 0.39379 0.79031 0.57118
 C128 C 0.35532 0.83559 0.57722
 C129 C 0.35224 0.87068 0.62145
 C130 C 0.38810 0.89896 0.70077
 C131 C 0.35109 0.94563 0.70684
 C132 C 0.31253 0.95264 0.67140
 C133 C 0.31326 0.91580 0.62827
 C134 C 0.27673 0.92422 0.59124
 C135 C 0.28028 0.88999 0.54701
 C136 C 0.31979 0.84628 0.53996
 H137 H 0.45280 0.80635 0.68190
 H138 H 0.39613 0.76291 0.53748
 H139 H 0.41724 0.89290 0.72862
 H140 H 0.28387 0.98864 0.67621
 H141 H 0.24638 0.95829 0.59619
 H142 H 0.32205 0.81980 0.50578
 C143 C 0.89724 0.62758 0.34394
 C144 C 0.93791 0.66966 0.34441
 C145 C 0.94708 0.70732 0.38613
 C146 C 0.91468 0.70164 0.42797
 C147 C 0.87197 0.66177 0.42708
 C148 C 0.86338 0.62444 0.38490
 C149 C 0.88983 0.58862 0.30299
 C150 C 0.84888 0.54678 0.30257
 C151 C 0.81388 0.54521 0.34239
 C152 C 0.82057 0.58436 0.38341
 C153 C 0.78483 0.58469 0.42266
 C154 C 0.79225 0.62296 0.46402
 C155 C 0.83661 0.65999 0.46689
 H156 H 0.96326 0.67159 0.31240
 H157 H 0.92070 0.73051 0.46028
 H158 H 0.91637 0.58995 0.27172
 H159 H 0.78180 0.51330 0.34146
 H160 H 0.75086 0.55557 0.42097
 H161 H 0.84204 0.68950 0.49897
 C162 C 0.60476 0.37094 -0.15810
 C163 C 0.56622 0.32735 -0.15052
 C164 C 0.56742 0.29124 -0.10931
 C165 C 0.60655 0.30030 -0.07443
 C166 C 0.64636 0.34272 -0.08235
 C167 C 0.64613 0.37722 -0.12502
 C168 C 0.60247 0.40818 -0.19840
 C169 C 0.64251 0.44986 -0.20801
 C170 C 0.68587 0.45275 -0.17682
 C171 C 0.68709 0.41808 -0.13454
 C172 C 0.72778 0.42462 -0.10089
 C173 C 0.72703 0.39200 -0.05769
 C174 C 0.68657 0.35108 -0.04860
 H175 H 0.53525 0.32116 -0.17687
 H176 H 0.60717 0.27268 -0.04237
 H177 H 0.56986 0.40331 -0.22303
 H178 H 0.71705 0.48458 -0.18357
 H179 H 0.75912 0.45635 -0.10740
 H180 H 0.68657 0.32581 -0.01522
   
