data_POSCAR
  _audit_creation_date              2014-09-24
  _audit_creation_method            'ToBaCCo'
  _symmetry_space_group_name_H-M    'P1'
  _symmetry_Int_Tables_number       1
  _symmetry_cell_setting            triclinic
  loop_
  _symmetry_equiv_pos_as_xyz
 x,y,z
_cell_length_a 14.4123
_cell_length_b 14.4123
_cell_length_c 24.7547
_cell_angle_alpha 89.824500
_cell_angle_beta 90.175400
_cell_angle_gamma 90.000800
loop_
  _atom_site_label
  _atom_site_type_symbol
  _atom_site_fract_x
  _atom_site_fract_y
  _atom_site_fract_z
O1 O -0.07753 0.58932 0.94780
 O2 O -0.07734 0.40791 1.05294
 O3 O -0.07735 0.58913 1.05278
 O4 O -0.07753 0.40831 0.94794
 O5 O 0.07592 0.40832 0.94812
 O6 O 0.07609 0.58913 1.05296
 O7 O 0.07609 0.40791 1.05312
 O8 O 0.07592 0.58932 0.94799
 Cu9 Cu -0.09292 0.49866 1.00037
 Cu10 Cu 0.09148 0.49866 1.00060
 C11 C -0.00084 0.62030 0.93037
 C12 C -0.00060 0.37682 1.07052
 C13 C -0.00060 0.62013 1.07028
 C14 C -0.00083 0.37748 0.93053
 O15 O 0.59209 -0.07608 0.55312
 O16 O 0.41068 -0.07592 0.44799
 O17 O 0.59168 -0.07592 0.44812
 O18 O 0.41087 -0.07609 0.55296
 O19 O 0.41087 0.07736 0.55278
 O20 O 0.59169 0.07754 0.44794
 O21 O 0.41068 0.07754 0.44780
 O22 O 0.59210 0.07735 0.55294
 Cu23 Cu 0.50134 -0.09148 0.50060
 Cu24 Cu 0.50135 0.09292 0.50037
 C25 C 0.62318 0.00060 0.57052
 C26 C 0.37971 0.00084 0.43037
 C27 C 0.62253 0.00084 0.43053
 C28 C 0.37987 0.00060 0.57028
 Si29 Si 0.00007 0.00078 0.24933
 Si30 Si -0.00078 -0.00006 0.74933
 C31 C -0.00052 -0.30667 0.10941
 C32 C -0.00044 -0.24347 0.14119
 C33 C -0.00031 -0.16766 0.17714
 C34 C -0.00018 -0.10148 0.20676
 C35 C -0.00053 0.30749 0.10775
 C36 C -0.00044 0.24441 0.13984
 C37 C -0.00031 0.16879 0.17620
 C38 C -0.00018 0.10278 0.20619
 C39 C 0.30667 0.00053 0.60941
 C40 C 0.24347 0.00044 0.64119
 C41 C 0.16766 0.00031 0.67714
 C42 C 0.10148 0.00018 0.70676
 C43 C -0.30749 0.00053 0.60775
 C44 C -0.24441 0.00044 0.63984
 C45 C -0.16879 0.00031 0.67620
 C46 C -0.10278 0.00018 0.70619
 C47 C -0.00089 -0.30670 0.89086
 C48 C -0.00091 -0.24376 0.85870
 C49 C -0.00091 -0.16826 0.82227
 C50 C -0.00087 -0.10228 0.79228
 C51 C -0.00089 0.30484 0.89105
 C52 C -0.00091 0.24225 0.85888
 C53 C -0.00090 0.16719 0.82241
 C54 C -0.00087 0.10159 0.79236
 C55 C -0.30483 0.00089 0.39105
 C56 C -0.24225 0.00091 0.35888
 C57 C -0.16719 0.00091 0.32241
 C58 C -0.10159 0.00087 0.29236
 C59 C 0.30671 0.00089 0.39086
 C60 C 0.24376 0.00091 0.35870
 C61 C 0.16826 0.00091 0.32227
 C62 C 0.10228 0.00088 0.29228
   
