data_POSCAR
  _audit_creation_date              2014-09-24
  _audit_creation_method            'ToBaCCo'
  _symmetry_space_group_name_H-M    'P1'
  _symmetry_Int_Tables_number       1
  _symmetry_cell_setting            triclinic
  loop_
  _symmetry_equiv_pos_as_xyz
 x,y,z
_cell_length_a 26.4076
_cell_length_b 28.2186
_cell_length_c 28.2714
_cell_angle_alpha 92.412900
_cell_angle_beta 79.816000
_cell_angle_gamma 90.586200
loop_
  _atom_site_label
  _atom_site_type_symbol
  _atom_site_fract_x
  _atom_site_fract_y
  _atom_site_fract_z
C1 C 0.29239 0.36555 0.26501
 C2 C 0.33167 0.37311 0.22542
 C3 C 0.37338 0.34171 0.21444
 C4 C 0.37651 0.30355 0.24395
 C5 C 0.33846 0.29633 0.28415
 C6 C 0.29604 0.32717 0.29474
 C7 C 0.24894 0.39488 0.27460
 C8 C 0.20901 0.38644 0.31340
 C9 C 0.21376 0.34892 0.34367
 C10 C 0.25694 0.31912 0.33452
 C11 C 0.26123 0.28080 0.36390
 C12 C 0.30394 0.25011 0.35368
 C13 C 0.34203 0.25815 0.31335
 H14 H 0.32893 0.40228 0.20224
 H15 H 0.40895 0.27951 0.23572
 H16 H 0.24599 0.42400 0.25145
 H17 H 0.18312 0.34170 0.37337
 H18 H 0.23134 0.27510 0.39466
 H19 H 0.37442 0.23440 0.30377
 C20 C 0.68432 -0.33668 0.17495
 C21 C 0.64281 -0.34084 0.14976
 C22 C 0.59539 -0.31882 0.16861
 C23 C 0.59115 -0.28975 0.21067
 C24 C 0.63365 -0.28141 0.23312
 C25 C 0.67972 -0.30622 0.21641
 C26 C 0.72969 -0.36329 0.16036
 C27 C 0.76946 -0.36122 0.18797
 C28 C 0.76500 -0.32856 0.22766
 C29 C 0.72110 -0.30050 0.24134
 C30 C 0.71806 -0.26672 0.27965
 C31 C 0.67364 -0.23883 0.29396
 C32 C 0.63084 -0.24798 0.27156
 H33 H 0.64624 -0.36362 0.11751
 H34 H 0.55548 -0.27119 0.22444
 H35 H 0.73218 -0.38768 0.12945
 H36 H 0.79609 -0.32407 0.24783
 H37 H 0.75077 -0.26185 0.29762
 H38 H 0.59559 -0.22826 0.28256
 C39 C 0.83224 0.21311 0.75155
 C40 C 0.79179 0.21237 0.79127
 C41 C 0.75698 0.17378 0.79753
 C42 C 0.76319 0.13634 0.76224
 C43 C 0.80314 0.13677 0.72244
 C44 C 0.83823 0.17491 0.71740
 C45 C 0.86649 0.25175 0.74525
 C46 C 0.90692 0.25295 0.70510
 C47 C 0.91303 0.21351 0.67218
 C48 C 0.87902 0.17498 0.67785
 C49 C 0.88464 0.13688 0.64382
 C50 C 0.84886 0.09960 0.64794
 C51 C 0.80817 0.09970 0.68725
 H52 H 0.78825 0.24179 0.81742
 H53 H 0.73667 0.10680 0.76450
 H54 H 0.86077 0.28089 0.77168
 H55 H 0.94361 0.21226 0.64130
 H56 H 0.91576 0.13703 0.61315
 H57 H 0.78076 0.07063 0.69059
 C58 C 0.19387 -0.23642 0.79532
 C59 C 0.23849 -0.24030 0.81561
 C60 C 0.27465 -0.20298 0.81305
 C61 C 0.26699 -0.16278 0.78727
 C62 C 0.22282 -0.15853 0.76664
 C63 C 0.18519 -0.19462 0.77232
 C64 C 0.15746 -0.27336 0.79807
 C65 C 0.11056 -0.26744 0.78169
 C66 C 0.10125 -0.22445 0.76127
 C67 C 0.13889 -0.18890 0.75489
 C68 C 0.13131 -0.14808 0.73044
 C69 C 0.16996 -0.11345 0.72210
 C70 C 0.21543 -0.11855 0.74071
 H71 H 0.24454 -0.27211 0.83397
 H72 H 0.29434 -0.13382 0.78432
 H73 H 0.16470 -0.30582 0.81492
 H74 H 0.06606 -0.21961 0.74734
 H75 H 0.09616 -0.14420 0.71615
 H76 H 0.24482 -0.09123 0.73526
 C77 C 0.70331 -0.37205 0.72519
 C78 C 0.66490 -0.38134 0.76497
 C79 C 0.62254 -0.35090 0.77760
 C80 C 0.61795 -0.31177 0.74960
 C81 C 0.65524 -0.30268 0.70931
 C82 C 0.69799 -0.33299 0.69686
 C83 C 0.74784 -0.39999 0.71440
 C84 C 0.78693 -0.39011 0.67503
 C85 C 0.77948 -0.35260 0.64556
 C86 C 0.73602 -0.32348 0.65683
 C87 C 0.73120 -0.28377 0.62969
 C88 C 0.68923 -0.25264 0.64251
 C89 C 0.65116 -0.26282 0.68228
 H90 H 0.66896 -0.41096 0.78723
 H91 H 0.58527 -0.28819 0.75940
 H92 H 0.75180 -0.42934 0.73693
 H93 H 0.80883 -0.34350 0.61553
 H94 H 0.76078 -0.27691 0.59903
 H95 H 0.61876 -0.23933 0.69334
 C96 C 0.31047 0.34425 0.82418
 C97 C 0.35117 0.35119 0.84957
 C98 C 0.39299 0.31988 0.84188
 C99 C 0.39420 0.28142 0.80857
 C100 C 0.35463 0.27490 0.78175
 C101 C 0.31267 0.30645 0.78946
 C102 C 0.26762 0.37440 0.83290
 C103 C 0.22787 0.36807 0.80625
 C104 C 0.23100 0.33134 0.77075
 C105 C 0.27287 0.30019 0.76251
 C106 C 0.27548 0.26292 0.72775
 C107 C 0.31722 0.23120 0.71969
 C108 C 0.35647 0.23741 0.74729
 H109 H 0.34991 0.38036 0.87597
 H110 H 0.42655 0.25723 0.80287
 H111 H 0.26552 0.40321 0.85978
 H112 H 0.20019 0.32640 0.75023
 H113 H 0.24495 0.25903 0.70688
 H114 H 0.38860 0.21318 0.74243
 C115 C 0.17458 -0.21477 0.24446
 C116 C 0.21562 -0.21482 0.20531
 C117 C 0.25227 -0.17768 0.20012
 C118 C 0.24711 -0.14070 0.23600
 C119 C 0.20642 -0.14027 0.27534
 C120 C 0.16967 -0.17712 0.27923
 C121 C 0.13857 -0.25208 0.24944
 C122 C 0.09730 -0.25253 0.28883
 C123 C 0.09235 -0.21366 0.32249
 C124 C 0.12813 -0.17641 0.31810
 C125 C 0.12328 -0.13871 0.35257
 C126 C 0.16033 -0.10249 0.34956
 C127 C 0.20200 -0.10355 0.31102
 H128 H 0.21818 -0.24384 0.17877
 H129 H 0.27476 -0.11210 0.23437
 H130 H 0.14347 -0.28077 0.22247
 H131 H 0.06125 -0.21186 0.35292
 H132 H 0.09140 -0.13821 0.38259
 H133 H 0.23044 -0.07536 0.30847
 C134 C 0.80834 0.23389 0.20491
 C135 C 0.76405 0.23620 0.18399
 C136 C 0.72917 0.19794 0.18641
 C137 C 0.73773 0.15831 0.21254
 C138 C 0.78158 0.15568 0.23385
 C139 C 0.81799 0.19280 0.22854
 C140 C 0.84347 0.27174 0.20200
 C141 C 0.89014 0.26772 0.21914
 C142 C 0.90048 0.22550 0.24061
 C143 C 0.86402 0.18878 0.24687
 C144 C 0.87241 0.14842 0.27189
 C145 C 0.83477 0.11271 0.27972
 C146 C 0.78977 0.11628 0.26011
 H147 H 0.75726 0.26757 0.16525
 H148 H 0.71135 0.12859 0.21525
 H149 H 0.83545 0.30345 0.18429
 H150 H 0.93556 0.22206 0.25506
 H151 H 0.90727 0.14568 0.28688
 H152 H 0.76127 0.08816 0.26509
 O153 O 0.29604 0.08372 0.48017
 O154 O 0.24072 0.00379 0.57562
 O155 O 0.23985 0.00696 0.48287
 O156 O 0.30056 0.07730 0.57009
 O157 O 0.23159 0.12276 0.58755
 O158 O 0.17014 0.05136 0.50067
 O159 O 0.17136 0.04878 0.59236
 O160 O 0.22644 0.12842 0.49657
 Cu161 Cu 0.27605 0.03819 0.52529
 Cu162 Cu 0.19291 0.09234 0.54593
 C163 C 0.27089 0.11987 0.47245
 C164 C 0.19676 0.01305 0.60058
 C165 C 0.19476 0.01705 0.47690
 C166 C 0.27664 0.11203 0.59350
 O167 O 0.83354 -0.05437 0.49911
 O168 O 0.76802 -0.12511 0.41522
 O169 O 0.82969 -0.05130 0.40816
 O170 O 0.77206 -0.12794 0.50595
 O171 O 0.70445 -0.08072 0.52276
 O172 O 0.76177 -0.00451 0.42486
 O173 O 0.70044 -0.07795 0.43297
 O174 O 0.76557 -0.00771 0.51687
 Cu175 Cu 0.80770 -0.09438 0.45531
 Cu176 Cu 0.72653 -0.03761 0.47597
 C177 C 0.81047 -0.01911 0.52241
 C178 C 0.72268 -0.11405 0.41062
 C179 C 0.80544 -0.01481 0.39994
 C180 C 0.72815 -0.11771 0.53048
 O181 O 0.55081 0.32644 0.05181
 O182 O 0.63824 0.26061 -0.04496
 O183 O 0.55989 0.31800 -0.04024
 O184 O 0.62770 0.26835 0.04988
 O185 O 0.57341 0.20792 0.05712
 O186 O 0.50813 0.25566 -0.03457
 O187 O 0.58541 0.19917 -0.03647
 O188 O 0.49797 0.26486 0.05814
 Cu189 Cu 0.60007 0.29928 0.00328
 Cu190 Cu 0.53613 0.22564 0.01153
 C191 C 0.50929 0.30667 0.07112
 C192 C 0.62626 0.21876 -0.05737
 C193 C 0.52198 0.29535 -0.05215
 C194 C 0.61107 0.23026 0.06970
 O195 O 0.49775 0.73024 0.03103
 O196 O 0.43203 0.78166 -0.05921
 O197 O 0.42349 0.79107 0.03435
 O198 O 0.50623 0.72320 -0.06168
 O199 O 0.45224 0.66257 -0.05278
 O200 O 0.36609 0.73314 0.04158
 O201 O 0.37650 0.72222 -0.05256
 O202 O 0.43925 0.67324 0.04132
 Cu203 Cu 0.47036 0.76250 -0.01453
 Cu204 Cu 0.40284 0.69176 -0.00507
 C205 C 0.47887 0.69364 0.05230
 C206 C 0.39380 0.76026 -0.07198
 C207 C 0.38101 0.77383 0.05467
 C208 C 0.49359 0.68159 -0.07371
 O209 O 0.00994 0.48259 0.30866
 O210 O -0.08955 0.53356 0.25042
 O211 O -0.05775 0.44725 0.26056
 O212 O -0.02256 0.56738 0.29877
 O213 O 0.03240 0.57353 0.23065
 O214 O 0.00198 0.45057 0.19526
 O215 O -0.03506 0.53494 0.18154
 O216 O 0.06695 0.48936 0.24189
 Cu217 Cu -0.04585 0.50711 0.28614
 Cu218 Cu 0.02181 0.51295 0.20516
 C219 C 0.05535 0.47723 0.28527
 C220 C -0.07933 0.54319 0.20633
 C221 C -0.03220 0.42776 0.22261
 C222 C 0.01071 0.59097 0.27128
 O223 O -0.00699 0.55259 0.79628
 O224 O -0.03525 0.42978 0.75945
 O225 O 0.03106 0.46899 0.80810
 O226 O -0.07041 0.51332 0.74670
 O227 O -0.01241 0.52146 0.68087
 O228 O 0.08653 0.47197 0.73988
 O229 O 0.02021 0.43684 0.69176
 O230 O 0.05333 0.55715 0.73155
 Cu231 Cu -0.02599 0.49045 0.78459
 Cu232 Cu 0.04267 0.49763 0.70435
 C233 C 0.02782 0.57570 0.77004
 C234 C -0.01270 0.41266 0.71904
 C235 C 0.07581 0.46190 0.78378
 C236 C -0.05824 0.52560 0.70342
 N237 N 0.47148 0.37895 0.11821
 N238 N 0.43446 0.38831 0.15548
 C239 C 0.41314 0.34700 0.17130
 C240 C 0.43698 0.30997 0.14256
 C241 C 0.47365 0.33163 0.10951
 H242 H 0.42929 0.27237 0.14573
 H243 H 0.49464 0.40454 0.09924
 H244 H 0.42507 0.42224 0.17044
 N245 N 0.47073 0.67421 0.13707
 N246 N 0.50352 0.67378 0.17054
 C247 C 0.55231 0.67505 0.14632
 C248 C 0.55179 0.67687 0.09731
 C249 C 0.50004 0.67752 0.09331
 H250 H 0.58437 0.68294 0.06908
 H251 H 0.43083 0.67811 0.14568
 H252 H 0.49136 0.67385 0.20777
 N253 N 0.64941 0.14731 -0.11034
 N254 N 0.68533 0.13482 -0.15109
 C255 C 0.71650 0.17262 -0.16224
 C256 C 0.70104 0.20950 -0.12825
 C257 C 0.65900 0.19227 -0.09700
 H258 H 0.71650 0.24507 -0.12706
 H259 H 0.61976 0.12535 -0.09430
 H260 H 0.68680 0.10122 -0.16805
 N261 N 0.39088 0.81522 -0.13787
 N262 N 0.36041 0.82438 -0.16868
 C263 C 0.31931 0.79498 -0.16145
 C264 C 0.32451 0.76546 -0.12435
 C265 C 0.37021 0.77975 -0.11036
 H266 H 0.29822 0.73844 -0.10859
 H267 H 0.42536 0.83307 -0.13595
 H268 H 0.36836 0.85038 -0.19413
 N269 N 0.08696 0.44364 0.35480
 N270 N 0.12731 0.41961 0.36234
 C271 C 0.16132 0.41524 0.32073
 C272 C 0.14170 0.43806 0.28533
 C273 C 0.09441 0.45518 0.30835
 H274 H 0.15779 0.43930 0.24744
 H275 H 0.05439 0.45083 0.38086
 H276 H 0.13073 0.40604 0.39541
 N277 N -0.00073 0.65853 0.78632
 N278 N 0.02281 0.70291 0.78687
 C279 C 0.07371 0.69603 0.78470
 C280 C 0.08362 0.64752 0.78222
 C281 C 0.03632 0.62560 0.78256
 H282 H 0.12079 0.63036 0.77673
 H283 H -0.03942 0.65268 0.78428
 H284 H 0.00324 0.73512 0.78917
 N285 N -0.12785 0.55812 0.13985
 N286 N -0.17148 0.58410 0.13532
 C287 C -0.18759 0.60822 0.17758
 C288 C -0.15552 0.59713 0.20965
 C289 C -0.11931 0.56587 0.18505
 H290 H -0.15865 0.60884 0.24698
 H291 H -0.10726 0.53562 0.11315
 H292 H -0.18675 0.58519 0.10377
 N293 N 0.00037 0.34221 0.66291
 N294 N -0.02176 0.29751 0.65909
 C295 C -0.06015 0.29295 0.69736
 C296 C -0.06251 0.33467 0.72615
 C297 C -0.02446 0.36421 0.70327
 H298 H -0.08880 0.34350 0.75912
 H299 H 0.03059 0.35565 0.63811
 H300 H -0.00973 0.27354 0.63035
 N301 N 0.34353 0.14973 0.41310
 N302 N 0.35256 0.18409 0.38244
 C303 C 0.30895 0.20930 0.38424
 C304 C 0.27060 0.19000 0.41824
 C305 C 0.29422 0.15228 0.43539
 H306 H 0.23096 0.20108 0.42867
 H307 H 0.37105 0.12529 0.41884
 H308 H 0.38852 0.19001 0.36143
 N309 N 0.88739 0.00995 0.55503
 N310 N 0.89766 0.04177 0.58772
 C311 C 0.85310 0.06137 0.61032
 C312 C 0.81277 0.04155 0.59093
 C313 C 0.83623 0.00933 0.55584
 H314 H 0.77233 0.05035 0.60008
 H315 H 0.91514 -0.01004 0.53190
 H316 H 0.93456 0.04983 0.59424
 N317 N 0.12505 -0.01756 0.66105
 N318 N 0.11789 -0.05090 0.69303
 C319 C 0.16312 -0.07267 0.69284
 C320 C 0.20067 -0.05255 0.65898
 C321 C 0.17479 -0.01794 0.63948
 H322 H 0.24074 -0.06250 0.64906
 H323 H 0.09607 0.00445 0.65371
 H324 H 0.08256 -0.05844 0.71450
 N325 N 0.64491 -0.13819 0.37730
 N326 N 0.63147 -0.17147 0.34764
 C327 C 0.67266 -0.19925 0.33068
 C328 C 0.71407 -0.18251 0.35096
 C329 C 0.69478 -0.14387 0.38000
 H330 H 0.75307 -0.19571 0.34517
 H331 H 0.62004 -0.11222 0.39549
 H332 H 0.59449 -0.17437 0.33961
 N333 N 0.52879 0.60961 -0.12352
 N334 N 0.56390 0.60099 -0.16255
 C335 C 0.58448 0.64265 -0.17826
 C336 C 0.56227 0.67900 -0.14769
 C337 C 0.52728 0.65675 -0.11362
 H338 H 0.56997 0.71666 -0.15025
 H339 H 0.50648 0.58368 -0.10424
 H340 H 0.57254 0.56736 -0.17863
 N341 N 0.49132 0.36229 -0.09420
 N342 N 0.45618 0.36902 -0.12122
 C343 C 0.43506 0.32678 -0.13067
 C344 C 0.45736 0.29171 -0.10858
 C345 C 0.49258 0.31577 -0.08561
 H346 H 0.44764 0.25436 -0.10755
 H347 H 0.51254 0.38938 -0.08051
 H348 H 0.44665 0.40202 -0.13253
 N349 N 0.36272 0.84496 0.10946
 N350 N 0.32740 0.85830 0.15041
 C351 C 0.29332 0.82235 0.16025
 C352 C 0.30640 0.78585 0.12522
 C353 C 0.34989 0.80132 0.09467
 H354 H 0.28839 0.75147 0.12278
 H355 H 0.39423 0.86534 0.09433
 H356 H 0.32855 0.89107 0.16864
 N357 N 0.61444 0.17626 0.13615
 N358 N 0.64463 0.16826 0.16749
 C359 C 0.68503 0.19844 0.16031
 C360 C 0.67972 0.22723 0.12273
 C361 C 0.63467 0.21174 0.10841
 H362 H 0.70551 0.25459 0.10692
 H363 H 0.58042 0.15770 0.13407
 H364 H 0.63696 0.14254 0.19327
 N365 N -0.08684 0.56227 0.63446
 N366 N -0.13010 0.58652 0.62661
 C367 C -0.16615 0.58483 0.66697
 C368 C -0.14675 0.55884 0.70065
 C369 C -0.09706 0.54641 0.67933
 H370 H -0.16430 0.55328 0.73757
 H371 H -0.05197 0.55994 0.61041
 H372 H -0.13240 0.60274 0.59459
 N373 N -0.00110 0.34539 0.21148
 N374 N -0.02323 0.30031 0.21385
 C375 C -0.07424 0.30535 0.21519
 C376 C -0.08561 0.35341 0.21438
 C377 C -0.03907 0.37702 0.21265
 H378 H -0.12325 0.36948 0.21846
 H379 H 0.03730 0.35286 0.21353
 H380 H -0.00266 0.26888 0.21365
 N381 N 0.11699 0.43939 0.85282
 N382 N 0.15804 0.41525 0.85855
 C383 C 0.18302 0.39988 0.81490
 C384 C 0.15741 0.41547 0.77999
 C385 C 0.11588 0.44025 0.80543
 H386 H 0.16682 0.40859 0.74149
 H387 H 0.09021 0.45453 0.88087
 H388 H 0.16762 0.40817 0.89184
 N389 N -0.00123 0.66145 0.32736
 N390 N 0.02266 0.70515 0.33230
 C391 C 0.06238 0.70875 0.29505
 C392 C 0.06376 0.66740 0.26571
 C393 C 0.02380 0.63904 0.28731
 H394 H 0.09079 0.65792 0.23340
 H395 H -0.03261 0.64879 0.35139
 H396 H 0.01078 0.72916 0.36104
 N397 N 0.65536 -0.14445 0.59196
 N398 N 0.64464 -0.18019 0.62082
 C399 C 0.68607 -0.20895 0.61546
 C400 C 0.72476 -0.19027 0.58138
 C401 C 0.70368 -0.14956 0.56757
 H402 H 0.76301 -0.20391 0.56825
 H403 H 0.62958 -0.11745 0.58869
 H404 H 0.60906 -0.18453 0.64303
 N405 N 0.11969 -0.01216 0.44145
 N406 N 0.11054 -0.04397 0.40831
 C407 C 0.15545 -0.06394 0.38710
 C408 C 0.19494 -0.04417 0.40791
 C409 C 0.17050 -0.01170 0.44242
 H410 H 0.23538 -0.05316 0.40007
 H411 H 0.09136 0.00805 0.46364
 H412 H 0.07406 -0.05177 0.40053
 N413 N 0.87874 0.01671 0.34150
 N414 N 0.88673 0.05080 0.31030
 C415 C 0.84156 0.07229 0.30948
 C416 C 0.80326 0.05125 0.34188
 C417 C 0.82850 0.01633 0.36151
 H418 H 0.76298 0.06072 0.35072
 H419 H 0.90748 -0.00520 0.34948
 H420 H 0.92249 0.05890 0.28991
 N421 N 0.35075 0.13347 0.63360
 N422 N 0.36165 0.16467 0.66651
 C423 C 0.31980 0.19186 0.68254
 C424 C 0.28062 0.17701 0.65821
 C425 C 0.30191 0.14005 0.62769
 H426 H 0.24192 0.19062 0.66205
 H427 H 0.37668 0.10840 0.61528
 H428 H 0.39764 0.16721 0.67681
   
