data_POSCAR
  _audit_creation_date              2014-09-24
  _audit_creation_method            'ToBaCCo'
  _symmetry_space_group_name_H-M    'P1'
  _symmetry_Int_Tables_number       1
  _symmetry_cell_setting            triclinic
  loop_
  _symmetry_equiv_pos_as_xyz
 x,y,z
_cell_length_a 66.2285
_cell_length_b 66.2015
_cell_length_c 46.6198
_cell_angle_alpha 89.899300
_cell_angle_beta 89.940200
_cell_angle_gamma 90.935300
loop_
  _atom_site_label
  _atom_site_type_symbol
  _atom_site_fract_x
  _atom_site_fract_y
  _atom_site_fract_z
O1 O 0.02999 0.28963 -0.05175
 O2 O -0.01009 0.29707 0.00221
 O3 O 0.02951 0.29502 0.00360
 O4 O -0.00928 0.29179 -0.05316
 O5 O -0.01153 0.25882 -0.04662
 O6 O 0.02689 0.26206 0.00993
 O7 O -0.01234 0.26412 0.00849
 O8 O 0.02747 0.25669 -0.04515
 Cu9 Cu 0.01027 0.29671 -0.02533
 Cu10 Cu 0.00738 0.25716 -0.01761
 C11 C 0.03556 0.27183 -0.05768
 C12 C -0.01827 0.28180 0.01440
 C13 C 0.03497 0.27900 0.01627
 C14 C -0.01701 0.27469 -0.05961
 O15 O 0.50997 0.79895 0.47409
 O16 O 0.47078 0.80140 0.53025
 O17 O 0.51025 0.80019 0.53022
 O18 O 0.47035 0.79991 0.47485
 O19 O 0.46919 0.76661 0.47662
 O20 O 0.50867 0.76691 0.53175
 O21 O 0.46951 0.76810 0.53188
 O22 O 0.50845 0.76567 0.47595
 Cu23 Cu 0.49059 0.80347 0.50213
 Cu24 Cu 0.48891 0.76351 0.50419
 C25 C 0.51593 0.78185 0.46544
 C26 C 0.46322 0.78511 0.54034
 C27 C 0.51620 0.78353 0.54054
 C28 C 0.46268 0.78315 0.46671
 O29 O 0.96903 0.70454 -0.02672
 O30 O 1.00844 0.70228 0.02915
 O31 O 0.96888 0.70173 0.02864
 O32 O 1.00867 0.70497 -0.02676
 O33 O 1.00871 0.73816 -0.02343
 O34 O 0.96920 0.73498 0.03175
 O35 O 1.00843 0.73551 0.03221
 O36 O 0.96939 0.73774 -0.02347
 Cu37 Cu 0.98883 0.70003 0.00073
 Cu38 Cu 0.98902 0.73990 0.00456
 C39 C 0.96215 0.72157 -0.03427
 C40 C 1.01518 0.71857 0.04023
 C41 C 0.96203 0.71788 0.03935
 C42 C 1.01561 0.72216 -0.03452
 O43 O 0.52842 0.20289 0.50150
 O44 O 0.48906 0.20731 0.44599
 O45 O 0.52851 0.20911 0.44641
 O46 O 0.48873 0.20133 0.50115
 O47 O 0.48805 0.23423 0.50830
 O48 O 0.52745 0.24198 0.45374
 O49 O 0.48827 0.24019 0.45330
 O50 O 0.52741 0.23578 0.50863
 Cu51 Cu 0.50877 0.20184 0.47310
 Cu52 Cu 0.50770 0.24131 0.48177
 C53 C 0.53484 0.21866 0.51430
 C54 C 0.48187 0.22453 0.44025
 C55 C 0.53484 0.22693 0.44082
 C56 C 0.48143 0.21655 0.51385
 O57 O 0.71088 0.02918 -0.01374
 O58 O 0.71120 -0.01080 0.04143
 O59 O 0.71294 0.02879 0.04199
 O60 O 0.70987 -0.01028 -0.01450
 O61 O 0.74313 -0.01061 -0.01647
 O62 O 0.74619 0.02781 0.03997
 O63 O 0.74441 -0.01145 0.03920
 O64 O 0.74415 0.02858 -0.01555
 Cu65 Cu 0.70788 0.00926 0.01406
 Cu66 Cu 0.74777 0.00850 0.01162
 C67 C 0.72750 0.03579 -0.02399
 C68 C 0.72786 -0.01811 0.04966
 C69 C 0.73018 0.03508 0.05045
 C70 C 0.72607 -0.01709 -0.02518
 O71 O 0.20799 0.47290 0.54595
 O72 O 0.20465 0.51204 0.48947
 O73 O 0.20492 0.47255 0.49043
 O74 O 0.20669 0.51246 0.54538
 O75 O 0.23991 0.51377 0.54208
 O76 O 0.23817 0.47362 0.48759
 O77 O 0.23789 0.51285 0.48643
 O78 O 0.24121 0.47452 0.54296
 Cu79 Cu 0.20272 0.49242 0.51816
 Cu80 Cu 0.24260 0.49384 0.51447
 C81 C 0.22526 0.46690 0.55388
 C82 C 0.22081 0.51910 0.47827
 C83 C 0.22126 0.46611 0.47981
 C84 C 0.22359 0.52004 0.55302
 O85 O 0.29673 1.01511 0.04392
 O86 O 0.29970 0.97570 -0.01199
 O87 O 0.30001 1.01536 -0.01192
 O88 O 0.29707 0.97546 0.04338
 O89 O 0.26387 0.97494 0.03966
 O90 O 0.26682 1.01486 -0.01508
 O91 O 0.26649 0.97560 -0.01554
 O92 O 0.26356 1.01424 0.04044
 Cu93 Cu 0.30172 0.99555 0.01621
 Cu94 Cu 0.26189 0.99493 0.01204
 C95 C 0.27955 1.02148 0.05171
 C96 C 0.28348 0.96872 -0.02300
 C97 C 0.28387 1.02203 -0.02294
 C98 C 0.27995 0.96809 0.05053
 O99 O 0.79801 0.53033 0.54159
 O100 O 0.80289 0.49085 0.48631
 O101 O 0.80068 0.53041 0.48608
 O102 O 0.79973 0.49074 0.54202
 O103 O 0.76654 0.48888 0.53863
 O104 O 0.76752 0.52781 0.48262
 O105 O 0.76970 0.48864 0.48317
 O106 O 0.76484 0.52810 0.53792
 Cu107 Cu 0.80368 0.51077 0.51435
 Cu108 Cu 0.76386 0.50810 0.51025
 C109 C 0.78055 0.53617 0.54888
 C110 C 0.78707 0.48288 0.47544
 C111 C 0.78414 0.53603 0.47503
 C112 C 0.78290 0.48296 0.54975
 C113 C 0.22111 0.22077 0.19815
 C114 C 0.23732 0.21198 0.21253
 C115 C 0.24754 0.22310 0.23377
 C116 C 0.24235 0.24322 0.23993
 C117 C 0.22625 0.25187 0.22462
 C118 C 0.21525 0.24055 0.20433
 C119 C 0.25343 0.25490 0.26266
 C120 C 0.24371 0.27011 0.27848
 C121 C 0.25390 0.28066 0.30034
 C122 C 0.27379 0.27556 0.30703
 C123 C 0.28371 0.26034 0.29200
 C124 C 0.27369 0.25051 0.26935
 H125 H 0.21326 0.21235 0.18153
 H126 H 0.25926 0.21571 0.24582
 H127 H 0.22201 0.26732 0.22857
 H128 H 0.22804 0.27351 0.27454
 H129 H 0.28179 0.28378 0.32372
 H130 H 0.28171 0.23920 0.25737
 C131 C 0.76551 0.77513 0.19335
 C132 C 0.75029 0.78564 0.20760
 C133 C 0.74065 0.77666 0.23137
 C134 C 0.74527 0.75680 0.24001
 C135 C 0.76025 0.74640 0.22467
 C136 C 0.77075 0.75563 0.20190
 C137 C 0.73442 0.74682 0.26459
 C138 C 0.74373 0.73146 0.28064
 C139 C 0.73321 0.72102 0.30237
 C140 C 0.71359 0.72687 0.30938
 C141 C 0.70416 0.74249 0.29442
 C142 C 0.71449 0.75214 0.27179
 H143 H 0.77370 0.78245 0.17597
 H144 H 0.72944 0.78520 0.24282
 H145 H 0.76368 0.73091 0.22989
 H146 H 0.75909 0.72722 0.27607
 H147 H 0.70575 0.71944 0.32698
 H148 H 0.70663 0.76339 0.25944
 C149 C 0.78994 0.24053 0.18773
 C150 C 0.79569 0.26059 0.19362
 C151 C 0.78558 0.27116 0.21528
 C152 C 0.77004 0.26173 0.23142
 C153 C 0.76490 0.24141 0.22545
 C154 C 0.77452 0.23085 0.20340
 C155 C 0.75906 0.27293 0.25432
 C156 C 0.73873 0.26803 0.26064
 C157 C 0.72845 0.27772 0.28290
 C158 C 0.73841 0.29301 0.29838
 C159 C 0.75848 0.29852 0.29213
 C160 C 0.76877 0.28833 0.27028
 H161 H 0.79754 0.23241 0.17082
 H162 H 0.78960 0.28685 0.21896
 H163 H 0.75363 0.23352 0.23824
 H164 H 0.73063 0.25684 0.24803
 H165 H 0.73053 0.30065 0.31549
 H166 H 0.78449 0.29214 0.26637
 C167 C 0.21645 0.76466 0.19590
 C168 C 0.20652 0.74842 0.20950
 C169 C 0.21528 0.73962 0.23384
 C170 C 0.23451 0.74607 0.24365
 C171 C 0.24444 0.76197 0.22879
 C172 C 0.23527 0.77173 0.20560
 C173 C 0.24434 0.73625 0.26901
 C174 C 0.25914 0.74681 0.28512
 C175 C 0.26949 0.73743 0.30760
 C176 C 0.26410 0.71761 0.31534
 C177 C 0.24895 0.70696 0.30045
 C178 C 0.23942 0.71619 0.27705
 H179 H 0.20918 0.77219 0.17813
 H180 H 0.20704 0.72768 0.24479
 H181 H 0.25953 0.76680 0.23474
 H182 H 0.26272 0.76248 0.28055
 H183 H 0.27184 0.71036 0.33293
 H184 H 0.22861 0.70734 0.26484
 C185 C 0.73110 0.27169 0.67704
 C186 C 0.72558 0.25166 0.68345
 C187 C 0.73652 0.24109 0.70426
 C188 C 0.75251 0.25055 0.71939
 C189 C 0.75735 0.27092 0.71304
 C190 C 0.74712 0.28136 0.69139
 C191 C 0.76444 0.23912 0.74114
 C192 C 0.78489 0.24423 0.74637
 C193 C 0.79618 0.23373 0.76681
 C194 C 0.78722 0.21734 0.78128
 C195 C 0.76710 0.21163 0.77611
 C196 C 0.75564 0.22287 0.75663
 H197 H 0.72261 0.27998 0.66118
 H198 H 0.73278 0.22534 0.70794
 H199 H 0.76929 0.27873 0.72455
 H200 H 0.79234 0.25616 0.73429
 H201 H 0.79577 0.20932 0.79738
 H202 H 0.73992 0.21874 0.75354
 C203 C 0.26615 0.72744 0.69784
 C204 C 0.27236 0.74675 0.70676
 C205 C 0.26268 0.75564 0.73020
 C206 C 0.24756 0.74510 0.74575
 C207 C 0.24189 0.72547 0.73671
 C208 C 0.25078 0.71680 0.71238
 C209 C 0.23774 0.75470 0.77112
 C210 C 0.21761 0.74987 0.77869
 C211 C 0.20828 0.75925 0.80211
 C212 C 0.21903 0.77403 0.81763
 C213 C 0.23898 0.77927 0.81035
 C214 C 0.24835 0.76920 0.78762
 H215 H 0.27375 0.72034 0.68000
 H216 H 0.26689 0.77097 0.73590
 H217 H 0.23052 0.71688 0.74835
 H218 H 0.20885 0.73925 0.76598
 H219 H 0.21176 0.78161 0.83533
 H220 H 0.26405 0.77269 0.78308
 C221 C 0.28612 0.25837 0.67979
 C222 C 0.27044 0.26773 0.69462
 C223 C 0.26052 0.25716 0.71678
 C224 C 0.26523 0.23692 0.72314
 C225 C 0.28092 0.22778 0.70755
 C226 C 0.29161 0.23852 0.68623
 C227 C 0.25344 0.22533 0.74539
 C228 C 0.26206 0.20908 0.76046
 C229 C 0.25069 0.19786 0.78054
 C230 C 0.23092 0.20364 0.78684
 C231 C 0.22216 0.22001 0.77278
 C232 C 0.23326 0.23037 0.75160
 H233 H 0.29439 0.26678 0.66351
 H234 H 0.24889 0.26479 0.72865
 H235 H 0.28463 0.21214 0.71126
 H236 H 0.27755 0.20492 0.75660
 H237 H 0.22252 0.19568 0.80344
 H238 H 0.22585 0.24219 0.73977
 C239 C 0.70865 0.73106 0.70800
 C240 C 0.72823 0.72499 0.71478
 C241 C 0.73971 0.73646 0.73432
 C242 C 0.73142 0.75323 0.74855
 C243 C 0.71148 0.75874 0.74169
 C244 C 0.70024 0.74803 0.72103
 C245 C 0.74347 0.76473 0.77057
 C246 C 0.73931 0.78512 0.77681
 C247 C 0.75035 0.79576 0.79777
 C248 C 0.76631 0.78622 0.81178
 C249 C 0.77100 0.76613 0.80571
 C250 C 0.75926 0.75538 0.78568
 H251 H 0.70013 0.72283 0.69186
 H252 H 0.75506 0.73202 0.73845
 H253 H 0.70434 0.77112 0.75262
 H254 H 0.72774 0.79305 0.76520
 H255 H 0.77509 0.79448 0.82761
 H256 H 0.76238 0.73956 0.78254
 C257 C 0.25739 0.05989 0.10010
 C258 C 0.27475 0.06916 0.11136
 C259 C 0.29381 0.06207 0.10372
 C260 C 0.29550 0.04597 0.08445
 C261 C 0.27809 0.03683 0.07239
 C262 C 0.25900 0.04389 0.08084
 C263 C 0.27272 0.08662 0.12942
 C264 C 0.27008 0.10155 0.14362
 C265 C 0.26602 0.11932 0.15912
 C266 C 0.26180 0.13473 0.17131
 C267 C 0.25595 0.15338 0.18453
 C268 C 0.27045 0.16831 0.19096
 C269 C 0.26444 0.18717 0.20107
 C270 C 0.24383 0.19135 0.20469
 C271 C 0.22943 0.17602 0.19904
 C272 C 0.23546 0.15719 0.18901
 H273 H 0.24256 0.06529 0.10580
 H274 H 0.30735 0.06920 0.11226
 H275 H 0.31045 0.04100 0.07860
 H276 H 0.24520 0.03730 0.07225
 H277 H 0.28634 0.16558 0.18738
 H278 H 0.27585 0.19875 0.20497
 H279 H 0.21347 0.17871 0.20198
 H280 H 0.22411 0.14576 0.18406
 C281 C 0.75680 0.57579 0.59600
 C282 C 0.77377 0.58682 0.60523
 C283 C 0.79310 0.58069 0.59723
 C284 C 0.79542 0.56381 0.57954
 C285 C 0.77839 0.55294 0.56957
 C286 C 0.75907 0.55898 0.57832
 C287 C 0.77104 0.60492 0.62173
 C288 C 0.76788 0.62019 0.63494
 C289 C 0.76315 0.63806 0.64978
 C290 C 0.75822 0.65323 0.66202
 C291 C 0.75124 0.67111 0.67617
 C292 C 0.76371 0.68831 0.67854
 C293 C 0.75637 0.70587 0.69131
 C294 C 0.73643 0.70640 0.70170
 C295 C 0.72413 0.68895 0.69946
 C296 C 0.73149 0.67146 0.68677
 H297 H 0.74176 0.58042 0.60204
 H298 H 0.80634 0.58916 0.60420
 H299 H 0.81049 0.55958 0.57313
 H300 H 0.74565 0.55095 0.57107
 H301 H 0.77900 0.68823 0.67026
 H302 H 0.76612 0.71913 0.69252
 H303 H 0.70882 0.68880 0.70765
 H304 H 0.72170 0.65824 0.68505
 C305 C 0.74658 0.94139 0.09786
 C306 C 0.72843 0.93311 0.10824
 C307 C 0.71008 0.94156 0.10010
 C308 C 0.70984 0.95799 0.08119
 C309 C 0.72802 0.96616 0.06998
 C310 C 0.74642 0.95777 0.07895
 C311 C 0.72876 0.91514 0.12567
 C312 C 0.72956 0.89965 0.13921
 C313 C 0.73112 0.88101 0.15371
 C314 C 0.73301 0.86468 0.16477
 C315 C 0.73596 0.84473 0.17618
 C316 C 0.73813 0.82859 0.15718
 C317 C 0.74237 0.80935 0.16755
 C318 C 0.74455 0.80594 0.19716
 C319 C 0.74185 0.82211 0.21625
 C320 C 0.73765 0.84145 0.20578
 H321 H 0.76088 0.93490 0.10393
 H322 H 0.69593 0.93520 0.10791
 H323 H 0.69537 0.96400 0.07494
 H324 H 0.76075 0.96359 0.07099
 H325 H 0.73685 0.83094 0.13425
 H326 H 0.74408 0.79712 0.15238
 H327 H 0.74358 0.81992 0.23914
 H328 H 0.73608 0.85386 0.22068
 C329 C 0.21211 0.42225 0.60193
 C330 C 0.23131 0.41665 0.61132
 C331 C 0.24825 0.42829 0.60348
 C332 C 0.24614 0.44506 0.58561
 C333 C 0.22702 0.45045 0.57525
 C334 C 0.20995 0.43912 0.58408
 C335 C 0.23406 0.39808 0.62684
 C336 C 0.23717 0.38220 0.63858
 C337 C 0.24160 0.36327 0.65083
 C338 C 0.24595 0.34686 0.65994
 C339 C 0.25167 0.32699 0.66914
 C340 C 0.25319 0.32221 0.69833
 C341 C 0.25928 0.30293 0.70679
 C342 C 0.26399 0.28827 0.68610
 C343 C 0.26229 0.29324 0.65687
 C344 C 0.25620 0.31245 0.64849
 H345 H 0.19890 0.41327 0.60773
 H346 H 0.26319 0.42404 0.61049
 H347 H 0.25959 0.45348 0.57931
 H348 H 0.19503 0.44286 0.57642
 H349 H 0.24981 0.33339 0.71450
 H350 H 0.26060 0.29958 0.72945
 H351 H 0.26548 0.28219 0.64045
 H352 H 0.25505 0.31597 0.62585
 C353 C 0.94162 0.30573 0.05858
 C354 C 0.93248 0.28868 0.07114
 C355 C 0.94019 0.26953 0.06570
 C356 C 0.95669 0.26731 0.04739
 C357 C 0.96584 0.28428 0.03407
 C358 C 0.95822 0.30359 0.04024
 C359 C 0.91465 0.29040 0.08862
 C360 C 0.89943 0.29067 0.10282
 C361 C 0.88135 0.28960 0.11889
 C362 C 0.86578 0.28746 0.13207
 C363 C 0.84714 0.28336 0.14709
 C364 C 0.84555 0.28694 0.17661
 C365 C 0.82830 0.28043 0.19163
 C366 C 0.81258 0.27009 0.17729
 C367 C 0.81397 0.26737 0.14745
 C368 C 0.83113 0.27394 0.13249
 H369 H 0.93575 0.32064 0.06260
 H370 H 0.93322 0.25621 0.07527
 H371 H 0.96205 0.25220 0.04340
 H372 H 0.96481 0.31704 0.03051
 H373 H 0.85791 0.29409 0.18817
 H374 H 0.82768 0.28258 0.21464
 H375 H 0.80198 0.25967 0.13582
 H376 H 0.83221 0.27105 0.10967
 C377 C 0.42187 0.76807 0.59135
 C378 C 0.41224 0.78627 0.59707
 C379 C 0.42001 0.80435 0.58564
 C380 C 0.43709 0.80414 0.56793
 C381 C 0.44648 0.78579 0.56135
 C382 C 0.43886 0.76780 0.57363
 C383 C 0.39370 0.78593 0.61317
 C384 C 0.37793 0.78459 0.62599
 C385 C 0.35932 0.78175 0.64029
 C386 C 0.34343 0.77824 0.65201
 C387 C 0.32458 0.77271 0.66546
 C388 C 0.32235 0.77426 0.69523
 C389 C 0.30493 0.76656 0.70859
 C390 C 0.28961 0.75711 0.69230
 C391 C 0.29167 0.75632 0.66230
 C392 C 0.30906 0.76405 0.64900
 H393 H 0.41594 0.75398 0.60002
 H394 H 0.41262 0.81852 0.58986
 H395 H 0.44257 0.81823 0.55874
 H396 H 0.44574 0.75344 0.56904
 H397 H 0.33434 0.78078 0.70820
 H398 H 0.30385 0.76719 0.73175
 H399 H 0.28001 0.74934 0.64920
 H400 H 0.31066 0.76272 0.62595
 C401 C 0.05394 0.73578 0.09500
 C402 C 0.06345 0.71766 0.10165
 C403 C 0.05663 0.69960 0.08909
 C404 C 0.04059 0.69974 0.06956
 C405 C 0.03126 0.71800 0.06225
 C406 C 0.03798 0.73598 0.07548
 C407 C 0.08102 0.71803 0.11981
 C408 C 0.09613 0.71923 0.13412
 C409 C 0.11429 0.72162 0.14966
 C410 C 0.13018 0.72446 0.16171
 C411 C 0.14957 0.72882 0.17439
 C412 C 0.15173 0.73079 0.20416
 C413 C 0.17041 0.73666 0.21586
 C414 C 0.18702 0.74078 0.19781
 C415 C 0.18477 0.73825 0.16804
 C416 C 0.16619 0.73233 0.15645
 H417 H 0.05916 0.74987 0.10447
 H418 H 0.06397 0.68549 0.09395
 H419 H 0.03578 0.68566 0.05973
 H420 H 0.03111 0.75028 0.07041
 H421 H 0.13892 0.72821 0.21824
 H422 H 0.17170 0.73862 0.23884
 H423 H 0.19738 0.74104 0.15368
 H424 H 0.16470 0.73088 0.13340
 C425 C 0.57494 0.23392 0.56825
 C426 C 0.58550 0.21593 0.57147
 C427 C 0.57882 0.19847 0.55723
 C428 C 0.56190 0.19912 0.53929
 C429 C 0.55155 0.21732 0.53528
 C430 C 0.55809 0.23463 0.55032
 C431 C 0.60389 0.21598 0.58792
 C432 C 0.61953 0.21704 0.60108
 C433 C 0.63803 0.21950 0.61578
 C434 C 0.65390 0.22266 0.62773
 C435 C 0.67283 0.22776 0.64126
 C436 C 0.67577 0.22408 0.67054
 C437 C 0.69336 0.23112 0.68412
 C438 C 0.70811 0.24207 0.66856
 C439 C 0.70533 0.24504 0.63896
 C440 C 0.68781 0.23794 0.62544
 H441 H 0.58001 0.24755 0.57908
 H442 H 0.58695 0.18448 0.55947
 H443 H 0.55727 0.18555 0.52798
 H444 H 0.55046 0.24886 0.54776
 H445 H 0.66421 0.21632 0.68303
 H446 H 0.69504 0.22877 0.70698
 H447 H 0.71656 0.25319 0.62638
 H448 H 0.68569 0.24091 0.60278
 C449 C 0.74620 0.07506 0.92267
 C450 C 0.72814 0.08391 0.91406
 C451 C 0.70975 0.07681 0.92533
 C452 C 0.70946 0.06099 0.94532
 C453 C 0.72759 0.05213 0.95428
 C454 C 0.74595 0.05930 0.94261
 C455 C 0.72880 0.10050 0.89407
 C456 C 0.73039 0.11444 0.87752
 C457 C 0.73356 0.13075 0.85843
 C458 C 0.73748 0.14459 0.84242
 C459 C 0.74371 0.16088 0.82377
 C460 C 0.73207 0.17825 0.82092
 C461 C 0.73931 0.19465 0.80463
 C462 C 0.75834 0.19384 0.79129
 C463 C 0.76960 0.17609 0.79364
 C464 C 0.76234 0.15976 0.80976
 H465 H 0.76052 0.08046 0.91410
 H466 H 0.69569 0.08356 0.91884
 H467 H 0.69508 0.05582 0.95391
 H468 H 0.76017 0.05283 0.94901
 H469 H 0.71767 0.17931 0.83181
 H470 H 0.73041 0.20819 0.80331
 H471 H 0.78418 0.17496 0.78327
 H472 H 0.77148 0.14641 0.81183
 C473 C 0.20126 0.55962 0.42806
 C474 C 0.21923 0.56637 0.41508
 C475 C 0.23746 0.55722 0.42206
 C476 C 0.23785 0.54164 0.44224
 C477 C 0.21997 0.53493 0.45582
 C478 C 0.20161 0.54393 0.44828
 C479 C 0.21945 0.58336 0.39575
 C480 C 0.22078 0.59789 0.38020
 C481 C 0.22357 0.61523 0.36287
 C482 C 0.22697 0.63029 0.34899
 C483 C 0.23216 0.64858 0.33373
 C484 C 0.25253 0.65366 0.32941
 C485 C 0.25797 0.67234 0.31751
 C486 C 0.24309 0.68624 0.30979
 C487 C 0.22261 0.68071 0.31310
 C488 C 0.21719 0.66200 0.32514
 H489 H 0.18707 0.56667 0.42291
 H490 H 0.25147 0.56236 0.41224
 H491 H 0.25224 0.53502 0.44746
 H492 H 0.18760 0.53912 0.45837
 H493 H 0.26425 0.64341 0.33599
 H494 H 0.27384 0.67609 0.31486
 H495 H 0.21086 0.69120 0.30754
 H496 H 0.20138 0.65826 0.32852
 C497 C 0.30174 0.92376 0.93440
 C498 C 0.28377 0.91722 0.92132
 C499 C 0.26617 0.92833 0.92489
 C500 C 0.26630 0.94552 0.94217
 C501 C 0.28410 0.95188 0.95618
 C502 C 0.30194 0.94105 0.95168
 C503 C 0.28275 0.89849 0.90573
 C504 C 0.28069 0.88268 0.89321
 C505 C 0.27693 0.86417 0.87906
 C506 C 0.27265 0.84849 0.86730
 C507 C 0.26629 0.83003 0.85351
 C508 C 0.25594 0.81513 0.86930
 C509 C 0.24766 0.79821 0.85547
 C510 C 0.24960 0.79601 0.82559
 C511 C 0.26064 0.81071 0.81004
 C512 C 0.26888 0.82764 0.82392
 H513 H 0.31544 0.91522 0.93184
 H514 H 0.25217 0.92340 0.91491
 H515 H 0.25233 0.95353 0.94512
 H516 H 0.31585 0.94554 0.96225
 H517 H 0.25378 0.81685 0.89221
 H518 H 0.23946 0.78702 0.86805
 H519 H 0.26218 0.80956 0.78698
 H520 H 0.27672 0.83916 0.81145
 C521 C 0.80888 0.44186 0.42831
 C522 C 0.79133 0.43360 0.41605
 C523 C 0.77257 0.44195 0.42233
 C524 C 0.77127 0.45824 0.44118
 C525 C 0.78875 0.46645 0.45408
 C526 C 0.80763 0.45824 0.44718
 C527 C 0.79215 0.41595 0.39809
 C528 C 0.79175 0.40090 0.38357
 C529 C 0.78997 0.38304 0.36720
 C530 C 0.78728 0.36766 0.35383
 C531 C 0.78258 0.34925 0.33868
 C532 C 0.77294 0.33334 0.35330
 C533 C 0.76589 0.31641 0.33831
 C534 C 0.76836 0.31518 0.30841
 C535 C 0.77888 0.33079 0.29400
 C536 C 0.78587 0.34780 0.30907
 H537 H 0.82348 0.43546 0.42367
 H538 H 0.75888 0.43564 0.41303
 H539 H 0.75652 0.46420 0.44597
 H540 H 0.82135 0.46419 0.45679
 H541 H 0.77028 0.33430 0.37619
 H542 H 0.75807 0.30448 0.34998
 H543 H 0.78085 0.33028 0.27095
 H544 H 0.79320 0.36009 0.29750
 C545 C 0.07318 0.24565 0.89439
 C546 C 0.08329 0.26208 0.88167
 C547 C 0.07750 0.28179 0.88826
 C548 C 0.06178 0.28504 0.90773
 C549 C 0.05172 0.26858 0.92091
 C550 C 0.05752 0.24885 0.91384
 C551 C 0.10012 0.25854 0.86289
 C552 C 0.11446 0.25496 0.84790
 C553 C 0.13154 0.25010 0.83132
 C554 C 0.14641 0.24545 0.81812
 C555 C 0.16452 0.23935 0.80365
 C556 C 0.17951 0.25366 0.79658
 C557 C 0.19799 0.24743 0.78540
 C558 C 0.20174 0.22676 0.78131
 C559 C 0.18631 0.21256 0.78752
 C560 C 0.16784 0.21883 0.79865
 H561 H 0.07758 0.23034 0.88953
 H562 H 0.08529 0.29463 0.87862
 H563 H 0.05768 0.30041 0.91272
 H564 H 0.05008 0.23585 0.92355
 H565 H 0.17715 0.26957 0.80054
 H566 H 0.20966 0.25868 0.78112
 H567 H 0.18867 0.19658 0.78428
 H568 H 0.15636 0.20762 0.80409
 C569 C 0.55370 0.76031 0.41318
 C570 C 0.56361 0.77779 0.40328
 C571 C 0.55750 0.79675 0.41298
 C572 C 0.54171 0.79817 0.43284
 C573 C 0.53192 0.78062 0.44330
 C574 C 0.53798 0.76168 0.43302
 C575 C 0.58068 0.77598 0.38438
 C576 C 0.59526 0.77364 0.36933
 C577 C 0.61265 0.76997 0.35272
 C578 C 0.62774 0.76604 0.33953
 C579 C 0.64605 0.76044 0.32513
 C580 C 0.66045 0.77514 0.31722
 C581 C 0.67912 0.76935 0.30608
 C582 C 0.68361 0.74877 0.30297
 C583 C 0.66876 0.73416 0.31002
 C584 C 0.65013 0.73997 0.32104
 H585 H 0.55835 0.74556 0.40590
 H586 H 0.56514 0.81038 0.40555
 H587 H 0.53742 0.81296 0.44035
 H588 H 0.53075 0.74788 0.44057
 H589 H 0.65750 0.79102 0.32045
 H590 H 0.69034 0.78090 0.30104
 H591 H 0.67171 0.71822 0.30749
 H592 H 0.63910 0.72847 0.32712
 C593 C 0.91957 0.70610 0.91784
 C594 C 0.91156 0.72493 0.91096
 C595 C 0.92109 0.74258 0.92084
 C596 C 0.93818 0.74148 0.93821
 C597 C 0.94607 0.72261 0.94614
 C598 C 0.93675 0.70492 0.93521
 C599 C 0.89297 0.72638 0.89519
 C600 C 0.87718 0.72850 0.88280
 C601 C 0.85857 0.73205 0.86913
 C602 C 0.84267 0.73597 0.85805
 C603 C 0.82379 0.74176 0.84544
 C604 C 0.80989 0.75251 0.86183
 C605 C 0.79238 0.75987 0.84916
 C606 C 0.78854 0.75661 0.81985
 C607 C 0.80225 0.74522 0.80375
 C608 C 0.81981 0.73790 0.81647
 H609 H 0.91229 0.69233 0.91032
 H610 H 0.91501 0.75724 0.91564
 H611 H 0.94489 0.75547 0.94596
 H612 H 0.94235 0.69012 0.94069
 H613 H 0.81282 0.75559 0.88428
 H614 H 0.78196 0.76835 0.86218
 H615 H 0.79979 0.74265 0.78107
 H616 H 0.83052 0.72969 0.80354
 C617 C 0.44029 0.21093 0.38743
 C618 C 0.43259 0.23000 0.38116
 C619 C 0.44164 0.24728 0.39305
 C620 C 0.45801 0.24552 0.41169
 C621 C 0.46556 0.22640 0.41875
 C622 C 0.45672 0.20912 0.40606
 C623 C 0.41447 0.23189 0.36441
 C624 C 0.39883 0.23399 0.35166
 C625 C 0.38001 0.23703 0.33833
 C626 C 0.36353 0.24009 0.32846
 C627 C 0.34343 0.24430 0.31867
 C628 C 0.32823 0.24735 0.33897
 C629 C 0.30882 0.25234 0.33016
 C630 C 0.30430 0.25441 0.30085
 C631 C 0.31956 0.25099 0.28048
 C632 C 0.33906 0.24602 0.28938
 H633 H 0.43330 0.19744 0.37848
 H634 H 0.43573 0.26210 0.38848
 H635 H 0.46448 0.25912 0.42103
 H636 H 0.46217 0.19419 0.41107
 H637 H 0.33142 0.24603 0.36168
 H638 H 0.29731 0.25455 0.34631
 H639 H 0.31651 0.25260 0.25778
 H640 H 0.35075 0.24375 0.27349
 C641 C 0.74277 0.94510 0.91915
 C642 C 0.72439 0.93607 0.91117
 C643 C 0.70637 0.94274 0.92339
 C644 C 0.70678 0.95825 0.94381
 C645 C 0.72526 0.96716 0.95231
 C646 C 0.74323 0.96051 0.93953
 C647 C 0.72443 0.91929 0.89156
 C648 C 0.72547 0.90492 0.87581
 C649 C 0.72779 0.88774 0.85830
 C650 C 0.73066 0.87274 0.84433
 C651 C 0.73510 0.85447 0.82905
 C652 C 0.71980 0.84026 0.82306
 C653 C 0.72465 0.82145 0.81149
 C654 C 0.74490 0.81661 0.80603
 C655 C 0.76006 0.83131 0.81099
 C656 C 0.75518 0.85009 0.82244
 H657 H 0.75682 0.94000 0.90993
 H658 H 0.69206 0.93578 0.91746
 H659 H 0.69270 0.96302 0.95325
 H660 H 0.75771 0.96706 0.94551
 H661 H 0.70422 0.84343 0.82826
 H662 H 0.71270 0.81034 0.80813
 H663 H 0.77575 0.82808 0.80667
 H664 H 0.76715 0.86096 0.82703
 C665 C 0.23831 0.42581 0.42795
 C666 C 0.21997 0.41620 0.42108
 C667 C 0.20193 0.42338 0.43255
 C668 C 0.20226 0.43992 0.45120
 C669 C 0.22068 0.44943 0.45868
 C670 C 0.23868 0.44230 0.44659
 C671 C 0.21998 0.39840 0.40338
 C672 C 0.22080 0.38326 0.38914
 C673 C 0.22282 0.36532 0.37316
 C674 C 0.22556 0.34989 0.36015
 C675 C 0.23020 0.33144 0.34545
 C676 C 0.23952 0.31588 0.36054
 C677 C 0.24643 0.29891 0.34601
 C678 C 0.24413 0.29729 0.31612
 C679 C 0.23392 0.31255 0.30125
 C680 C 0.22708 0.32960 0.31585
 H681 H 0.25237 0.42033 0.41926
 H682 H 0.18766 0.41601 0.42745
 H683 H 0.18814 0.44502 0.46016
 H684 H 0.25311 0.44927 0.45188
 H685 H 0.24204 0.31715 0.38344
 H686 H 0.25402 0.28726 0.35803
 H687 H 0.23210 0.31174 0.27820
 H688 H 0.21998 0.34161 0.30393
 C689 C 0.30403 0.06203 0.92772
 C690 C 0.28611 0.06942 0.91617
 C691 C 0.26757 0.06081 0.92440
 C692 C 0.26686 0.04503 0.94429
 C693 C 0.28475 0.03753 0.95640
 C694 C 0.30340 0.04618 0.94767
 C695 C 0.28636 0.08611 0.89633
 C696 C 0.28537 0.10016 0.87992
 C697 C 0.28274 0.11659 0.86103
 C698 C 0.27917 0.13051 0.84522
 C699 C 0.27321 0.14687 0.82687
 C700 C 0.25427 0.14588 0.81368
 C701 C 0.24728 0.16228 0.79796
 C702 C 0.25914 0.17998 0.79519
 C703 C 0.27847 0.18068 0.80767
 C704 C 0.28543 0.16421 0.82358
 H705 H 0.31847 0.06861 0.92151
 H706 H 0.25360 0.06642 0.91560
 H707 H 0.25221 0.03885 0.95029
 H708 H 0.31750 0.04087 0.95640
 H709 H 0.24468 0.13256 0.81609
 H710 H 0.23245 0.16124 0.78825
 H711 H 0.28784 0.19419 0.80601
 H712 H 0.30008 0.16518 0.83384
 C713 C 0.76494 0.57434 0.42183
 C714 C 0.78204 0.58666 0.41760
 C715 C 0.80029 0.58173 0.43083
 C716 C 0.80127 0.56479 0.44881
 C717 C 0.78393 0.55271 0.45386
 C718 C 0.76585 0.55752 0.43980
 C719 C 0.78019 0.60488 0.40100
 C720 C 0.77728 0.62012 0.38755
 C721 C 0.77236 0.63778 0.37226
 C722 C 0.76691 0.65258 0.35954
 C723 C 0.75896 0.66978 0.34468
 C724 C 0.77088 0.68710 0.33972
 C725 C 0.76262 0.70385 0.32590
 C726 C 0.74230 0.70345 0.31705
 C727 C 0.73054 0.68590 0.32202
 C728 C 0.73881 0.66923 0.33573
 H729 H 0.75072 0.57803 0.41174
 H730 H 0.81361 0.59121 0.42777
 H731 H 0.81539 0.56152 0.45940
 H732 H 0.75224 0.54852 0.44314
 H733 H 0.78648 0.68770 0.34668
 H734 H 0.77198 0.71720 0.32254
 H735 H 0.71496 0.68500 0.31502
 H736 H 0.72945 0.65590 0.33944
 C737 C 0.05592 0.70766 0.91383
 C738 C 0.06378 0.72666 0.90616
 C739 C 0.05516 0.74410 0.91735
 C740 C 0.03901 0.74262 0.93655
 C741 C 0.03117 0.72357 0.94498
 C742 C 0.03970 0.70609 0.93304
 C743 C 0.08133 0.72848 0.88803
 C744 C 0.09635 0.73074 0.87368
 C745 C 0.11429 0.73423 0.85793
 C746 C 0.12988 0.73791 0.84546
 C747 C 0.14879 0.74311 0.83187
 C748 C 0.15453 0.76345 0.82914
 C749 C 0.17365 0.76872 0.81857
 C750 C 0.18732 0.75369 0.81063
 C751 C 0.18118 0.73328 0.81249
 C752 C 0.16203 0.72803 0.82316
 H753 H 0.06253 0.69405 0.90535
 H754 H 0.06116 0.75889 0.91162
 H755 H 0.03290 0.75645 0.94508
 H756 H 0.03412 0.69117 0.93887
 H757 H 0.14441 0.77525 0.83582
 H758 H 0.17785 0.78456 0.81698
 H759 H 0.19146 0.72139 0.80674
 H760 H 0.15778 0.71223 0.82533
 C761 C 0.57729 0.21720 0.38808
 C762 C 0.58390 0.23693 0.38191
 C763 C 0.57398 0.25331 0.39410
 C764 C 0.55775 0.25004 0.41278
 C765 C 0.55121 0.23027 0.41960
 C766 C 0.56100 0.21387 0.40677
 C767 C 0.60152 0.24052 0.36441
 C768 C 0.61657 0.24412 0.35064
 C769 C 0.63452 0.24895 0.33559
 C770 C 0.65011 0.25354 0.32372
 C771 C 0.66904 0.25951 0.31079
 C772 C 0.67404 0.28005 0.30801
 C773 C 0.69314 0.28600 0.29805
 C774 C 0.70753 0.27147 0.29079
 C775 C 0.70215 0.25086 0.29278
 C776 C 0.68303 0.24493 0.30281
 H777 H 0.58493 0.20440 0.37886
 H778 H 0.57901 0.26864 0.38956
 H779 H 0.55055 0.26300 0.42223
 H780 H 0.55635 0.19848 0.41160
 H781 H 0.66333 0.29146 0.31417
 H782 H 0.69675 0.30197 0.29639
 H783 H 0.71298 0.23933 0.28764
 H784 H 0.67937 0.22900 0.30504
 C785 C 0.94412 0.25247 0.88944
 C786 C 0.93655 0.26982 0.87644
 C787 C 0.94451 0.28884 0.88377
 C788 C 0.95986 0.29049 0.90431
 C789 C 0.96734 0.27311 0.91781
 C790 C 0.95940 0.25407 0.90995
 C791 C 0.91995 0.26792 0.85668
 C792 C 0.90566 0.26550 0.84100
 C793 C 0.88850 0.26176 0.82379
 C794 C 0.87347 0.25781 0.81023
 C795 C 0.85510 0.25225 0.79559
 C796 C 0.84053 0.26677 0.78973
 C797 C 0.82162 0.26085 0.77899
 C798 C 0.81705 0.24030 0.77423
 C799 C 0.83209 0.22593 0.77903
 C800 C 0.85097 0.23188 0.78968
 H801 H 0.93802 0.23768 0.88400
 H802 H 0.93868 0.30238 0.87393
 H803 H 0.96565 0.30536 0.90990
 H804 H 0.96483 0.24039 0.91986
 H805 H 0.84351 0.28256 0.79444
 H806 H 0.81026 0.27221 0.77575
 H807 H 0.82906 0.21004 0.77524
 H808 H 0.86211 0.22051 0.79421
 C809 C 0.42043 0.76338 0.41941
 C810 C 0.41028 0.78113 0.41269
 C811 C 0.41803 0.79979 0.42207
 C812 C 0.43558 0.80060 0.43879
 C813 C 0.44549 0.78273 0.44643
 C814 C 0.43789 0.76414 0.43613
 C815 C 0.39135 0.77981 0.39762
 C816 C 0.37534 0.77768 0.38566
 C817 C 0.35653 0.77403 0.37226
 C818 C 0.34055 0.76994 0.36119
 C819 C 0.32168 0.76389 0.34826
 C820 C 0.30690 0.75399 0.36482
 C821 C 0.28950 0.74604 0.35182
 C822 C 0.28670 0.74786 0.32203
 C823 C 0.30130 0.75848 0.30572
 C824 C 0.31870 0.76639 0.31876
 H825 H 0.41456 0.74886 0.41229
 H826 H 0.41025 0.81362 0.41705
 H827 H 0.44102 0.81513 0.44647
 H828 H 0.44515 0.75011 0.44157
 H829 H 0.30907 0.75193 0.38766
 H830 H 0.27842 0.73816 0.36497
 H831 H 0.29968 0.75991 0.28269
 H832 H 0.33011 0.77389 0.30571
 C833 C 0.29486 0.92364 0.09693
 C834 C 0.27590 0.91561 0.10449
 C835 C 0.25838 0.92547 0.09594
 C836 C 0.25973 0.94296 0.07922
 C837 C 0.27868 0.95084 0.07076
 C838 C 0.29626 0.94119 0.08021
 C839 C 0.27419 0.89666 0.11954
 C840 C 0.27202 0.88057 0.13139
 C841 C 0.26857 0.86161 0.14452
 C842 C 0.26483 0.84539 0.15526
 C843 C 0.25938 0.82614 0.16763
 C844 C 0.25139 0.81080 0.15017
 C845 C 0.24419 0.79278 0.16238
 C846 C 0.24485 0.78988 0.19226
 C847 C 0.25352 0.80511 0.20954
 C848 C 0.26070 0.82315 0.19729
 H849 H 0.30852 0.91609 0.10337
 H850 H 0.24363 0.91936 0.10163
 H851 H 0.24591 0.95001 0.07233
 H852 H 0.31106 0.94685 0.07400
 H853 H 0.25027 0.81297 0.12719
 H854 H 0.23782 0.78123 0.14850
 H855 H 0.25402 0.80341 0.23264
 H856 H 0.26673 0.83496 0.21102
 C857 C 0.76247 0.44223 0.59940
 C858 C 0.78015 0.43252 0.60762
 C859 C 0.79893 0.44009 0.59839
 C860 C 0.79997 0.45701 0.58034
 C861 C 0.78219 0.46642 0.57117
 C862 C 0.76346 0.45905 0.58133
 C863 C 0.77865 0.41384 0.62339
 C864 C 0.77655 0.39778 0.63533
 C865 C 0.77321 0.37856 0.64775
 C866 C 0.76969 0.36184 0.65693
 C867 C 0.76481 0.34157 0.66609
 C868 C 0.76388 0.33652 0.69526
 C869 C 0.75829 0.31688 0.70367
 C870 C 0.75345 0.30215 0.68294
 C871 C 0.75466 0.30736 0.65373
 C872 C 0.76027 0.32691 0.64541
 H873 H 0.74785 0.43644 0.60628
 H874 H 0.81271 0.43260 0.60448
 H875 H 0.81461 0.46231 0.57284
 H876 H 0.74950 0.46597 0.57477
 H877 H 0.76727 0.34779 0.71146
 H878 H 0.75735 0.31333 0.72632
 H879 H 0.75135 0.29627 0.63728
 H880 H 0.76094 0.33064 0.62278
 C881 C 0.71665 0.07833 0.09988
 C882 C 0.73578 0.08441 0.10971
 C883 C 0.75282 0.07369 0.10137
 C884 C 0.75089 0.05730 0.08273
 C885 C 0.73182 0.05137 0.07210
 C886 C 0.71466 0.06185 0.08124
 C887 C 0.73832 0.10240 0.12668
 C888 C 0.74131 0.11778 0.13994
 C889 C 0.74570 0.13607 0.15430
 C890 C 0.75011 0.15192 0.16554
 C891 C 0.75609 0.17108 0.17765
 C892 C 0.77663 0.17604 0.18026
 C893 C 0.78264 0.19529 0.18946
 C894 C 0.76817 0.20987 0.19612
 C895 C 0.74754 0.20456 0.19427
 C896 C 0.74155 0.18529 0.18500
 H897 H 0.70336 0.08659 0.10609
 H898 H 0.76770 0.07831 0.10875
 H899 H 0.76440 0.04954 0.07620
 H900 H 0.69978 0.05768 0.07339
 H901 H 0.78801 0.16517 0.17459
 H902 H 0.79862 0.19885 0.19105
 H903 H 0.73607 0.21554 0.19898
 H904 H 0.72562 0.18166 0.18288
 C905 C 0.20705 0.56105 0.60430
 C906 C 0.22566 0.56960 0.61233
 C907 C 0.24358 0.56143 0.60189
 C908 C 0.24292 0.54503 0.58306
 C909 C 0.22428 0.53658 0.57436
 C910 C 0.20635 0.54461 0.58548
 C911 C 0.22646 0.58754 0.62972
 C912 C 0.22757 0.60301 0.64327
 C913 C 0.22944 0.62162 0.65783
 C914 C 0.23156 0.63792 0.66899
 C915 C 0.23480 0.65785 0.68059
 C916 C 0.23683 0.67422 0.66176
 C917 C 0.24151 0.69344 0.67228
 C918 C 0.24427 0.69659 0.70185
 C919 C 0.24163 0.68019 0.72079
 C920 C 0.23700 0.66087 0.71017
 H921 H 0.19309 0.56732 0.61212
 H922 H 0.25806 0.56800 0.60784
 H923 H 0.25700 0.53921 0.57494
 H924 H 0.19176 0.53846 0.57920
 H925 H 0.23516 0.67207 0.63884
 H926 H 0.24318 0.70585 0.65725
 H927 H 0.24382 0.68217 0.74363
 H928 H 0.23554 0.64827 0.72492
 C929 C 0.92109 0.73436 0.09044
 C930 C 0.91043 0.71623 0.09503
 C931 C 0.91737 0.69831 0.08286
 C932 C 0.93465 0.69865 0.06551
 C933 C 0.94507 0.71696 0.06003
 C934 C 0.93827 0.73475 0.07308
 C935 C 0.89172 0.71652 0.11070
 C936 C 0.87585 0.71786 0.12317
 C937 C 0.85719 0.72071 0.13708
 C938 C 0.84129 0.72424 0.14845
 C939 C 0.82249 0.72978 0.16150
 C940 C 0.81972 0.72777 0.19114
 C941 C 0.80243 0.73543 0.20418
 C942 C 0.78779 0.74533 0.18770
 C943 C 0.79037 0.74660 0.15780
 C944 C 0.80762 0.73889 0.14482
 H945 H 0.91582 0.74832 0.09969
 H946 H 0.90918 0.68420 0.08619
 H947 H 0.93947 0.68471 0.05571
 H948 H 0.94596 0.74908 0.06936
 H949 H 0.83122 0.72088 0.20428
 H950 H 0.80095 0.73442 0.22727
 H951 H 0.77922 0.75392 0.14454
 H952 H 0.80964 0.74058 0.12186
 C953 C 0.43809 0.19300 0.55636
 C954 C 0.43074 0.20988 0.57085
 C955 C 0.44062 0.22860 0.56782
 C956 C 0.45744 0.23061 0.54990
 C957 C 0.46467 0.21387 0.53467
 C958 C 0.45500 0.19495 0.53842
 C959 C 0.41243 0.20856 0.58749
 C960 C 0.39686 0.20857 0.60093
 C961 C 0.37845 0.20990 0.61606
 C962 C 0.36265 0.21218 0.62842
 C963 C 0.34379 0.21634 0.64248
 C964 C 0.34133 0.21271 0.67190
 C965 C 0.32388 0.21909 0.68600
 C966 C 0.30880 0.22934 0.67083
 C967 C 0.31107 0.23218 0.64109
 C968 C 0.32845 0.22574 0.62705
 H969 H 0.43051 0.17844 0.55845
 H970 H 0.43505 0.24179 0.57885
 H971 H 0.46453 0.24537 0.54755
 H972 H 0.46016 0.18180 0.52695
 H973 H 0.35317 0.20557 0.68410
 H974 H 0.32259 0.21685 0.70895
 H975 H 0.29959 0.23981 0.62881
 H976 H 0.33020 0.22868 0.60430
 C977 C 0.07845 0.29798 0.06258
 C978 C 0.08368 0.28025 0.07703
 C979 C 0.07246 0.26247 0.07250
 C980 C 0.05635 0.26222 0.05322
 C981 C 0.05118 0.27981 0.03813
 C982 C 0.06225 0.29778 0.04327
 C983 C 0.10105 0.27975 0.09555
 C984 C 0.11564 0.27807 0.11076
 C985 C 0.13265 0.27463 0.12822
 C986 C 0.14700 0.27040 0.14280
 C987 C 0.16381 0.26379 0.15975
 C988 C 0.16318 0.24438 0.17162
 C989 C 0.17979 0.23705 0.18650
 C990 C 0.19737 0.24903 0.18974
 C991 C 0.19776 0.26873 0.17836
 C992 C 0.18107 0.27605 0.16332
 H993 H 0.08707 0.31182 0.06586
 H994 H 0.07640 0.24865 0.08352
 H995 H 0.04815 0.24814 0.04983
 H996 H 0.05867 0.31156 0.03194
 H997 H 0.14991 0.23476 0.16900
 H998 H 0.17893 0.22194 0.19542
 H999 H 0.21115 0.27823 0.18038
 H1000 H 0.18176 0.29107 0.15410
 C1001 C 0.55736 0.80070 0.59219
 C1002 C 0.56324 0.78221 0.60389
 C1003 C 0.55347 0.76433 0.59534
 C1004 C 0.53805 0.76484 0.57499
 C1005 C 0.53214 0.78328 0.56280
 C1006 C 0.54186 0.80126 0.57179
 C1007 C 0.57986 0.78119 0.62370
 C1008 C 0.59400 0.77935 0.63969
 C1009 C 0.61084 0.77609 0.65756
 C1010 C 0.62546 0.77239 0.67190
 C1011 C 0.64321 0.76691 0.68772
 C1012 C 0.64605 0.74668 0.69517
 C1013 C 0.66428 0.74066 0.70725
 C1014 C 0.67997 0.75484 0.71200
 C1015 C 0.67668 0.77531 0.70566
 C1016 C 0.65841 0.78129 0.69346
 H1017 H 0.56489 0.81463 0.59856
 H1018 H 0.55795 0.74993 0.60417
 H1019 H 0.53088 0.75073 0.56862
 H1020 H 0.53766 0.81569 0.56281
 H1021 H 0.63441 0.73541 0.69078
 H1022 H 0.66633 0.72484 0.71224
 H1023 H 0.68856 0.78650 0.70884
 H1024 H 0.65642 0.79698 0.68761
   
