data_POSCAR
  _audit_creation_date              2014-09-24
  _audit_creation_method            'ToBaCCo'
  _symmetry_space_group_name_H-M    'P1'
  _symmetry_Int_Tables_number       1
  _symmetry_cell_setting            triclinic
  loop_
  _symmetry_equiv_pos_as_xyz
 x,y,z
_cell_length_a 45.1726
_cell_length_b 44.3030
_cell_length_c 43.1038
_cell_angle_alpha 88.093800
_cell_angle_beta 91.601900
_cell_angle_gamma 89.992700
loop_
  _atom_site_label
  _atom_site_type_symbol
  _atom_site_fract_x
  _atom_site_fract_y
  _atom_site_fract_z
C1 C 0.21798 1.20778 0.18473
 C2 C 0.23852 1.18396 0.18564
 C3 C 0.23763 1.16188 0.20899
 C4 C 0.21623 1.16324 0.23178
 C5 C 0.19590 1.18659 0.23088
 C6 C 0.19678 1.20907 0.20717
 C7 C 0.21342 1.23143 0.16368
 N8 N 0.18813 1.24949 0.17191
 C9 C 0.17876 1.23355 0.20024
 C10 C 0.17679 1.18111 0.25481
 N11 N 0.18514 1.15495 0.27013
 C12 C 0.20928 1.14401 0.25615
 C13 C 0.25875 1.14067 0.20296
 N14 N 0.27247 1.14929 0.17652
 C15 C 0.26024 1.17581 0.16572
 H16 H 0.22640 1.23598 0.14332
 H17 H 0.15992 1.24006 0.21348
 H18 H 0.15791 1.19493 0.25988
 H19 H 0.22056 1.12309 0.26279
 H20 H 0.26323 1.11995 0.21629
 H21 H 0.26575 1.18782 0.14441
 C22 C 0.79806 0.76778 0.18275
 C23 C 0.77395 0.78739 0.17725
 C24 C 0.76994 0.81146 0.19630
 C25 C 0.78988 0.81623 0.22115
 C26 C 0.81355 0.79682 0.22671
 C27 C 0.81771 0.77246 0.20730
 C28 C 0.80858 0.74384 0.16673
 N29 N 0.83426 0.73391 0.18095
 C30 C 0.83988 0.75130 0.20581
 C31 C 0.83014 0.80792 0.25107
 N32 N 0.81710 0.83373 0.26032
 C33 C 0.79249 0.83889 0.24211
 C34 C 0.74593 0.82764 0.18453
 N35 N 0.73521 0.81392 0.15876
 C36 C 0.75225 0.78930 0.15420
 H37 H 0.79856 0.73528 0.14573
 H38 H 0.85919 0.74925 0.22121
 H39 H 0.85071 0.79836 0.26028
 H40 H 0.77793 0.85820 0.24348
 H41 H 0.73750 0.84816 0.19392
 H42 H 0.74943 0.77426 0.13505
 C43 C 0.79636 1.23439 -0.17617
 C44 C 0.77516 1.21163 -0.18001
 C45 C 0.77705 1.19220 -0.20433
 C46 C 0.80026 1.19530 -0.22518
 C47 C 0.82130 1.21764 -0.22123
 C48 C 0.81935 1.23732 -0.19654
 C49 C 0.80084 1.25533 -0.15368
 N50 N 0.82605 1.27087 -0.15973
 C51 C 0.83756 1.25997 -0.18603
 C52 C 0.84207 1.21419 -0.24358
 N53 N 0.83418 1.19041 -0.26108
 C54 C 0.80854 1.17868 -0.24994
 C55 C 0.75467 1.17131 -0.20110
 N56 N 0.73947 1.17746 -0.17532
 C57 C 0.75176 1.20226 -0.16240
 H58 H 0.78711 1.25850 -0.13383
 H59 H 0.85789 1.26720 -0.19661
 H60 H 0.86186 1.22768 -0.24653
 H61 H 0.79704 1.15902 -0.25830
 H62 H 0.75034 1.15238 -0.21582
 H63 H 0.74472 1.21262 -0.14147
 C64 C 0.19954 0.76998 -0.18542
 C65 C 0.22415 0.78927 -0.18426
 C66 C 0.22704 0.81222 -0.20652
 C67 C 0.20532 0.81629 -0.23018
 C68 C 0.18118 0.79716 -0.23145
 C69 C 0.17829 0.77384 -0.20894
 C70 C 0.19004 0.74693 -0.16589
 N71 N 0.16350 0.73671 -0.17709
 C72 C 0.15630 0.75305 -0.20344
 C73 C 0.16280 0.80751 -0.25549
 N74 N 0.17517 0.83265 -0.26877
 C75 C 0.20120 0.83806 -0.25343
 C76 C 0.25212 0.82824 -0.19881
 N77 N 0.26459 0.81551 -0.17242
 C78 C 0.24754 0.79177 -0.16333
 H79 H 0.20155 0.73895 -0.14488
 H80 H 0.13608 0.75051 -0.21723
 H81 H 0.14149 0.79799 -0.26166
 H82 H 0.21568 0.85704 -0.25822
 H83 H 0.26000 0.84817 -0.21116
 H84 H 0.25161 0.77766 -0.14265
 C85 C 0.54766 1.03876 -0.02274
 H86 H 0.54728 1.03766 0.00236
 C87 C 0.56867 1.05663 -0.03771
 H88 H 0.58378 1.06969 -0.02367
 C89 C 0.52741 1.02349 -0.07102
 H90 H 0.51151 1.01025 -0.08388
 C91 C 0.54811 1.04106 -0.08698
 H92 H 0.54781 1.04138 -0.11213
 N93 N 0.52746 1.02283 -0.03944
 C94 C 0.45446 1.00921 0.02347
 H95 H 0.45269 0.98485 0.02360
 C96 C 0.43495 1.02602 0.04060
 H97 H 0.41877 1.01405 0.05429
 C98 C 0.47847 1.05381 0.00574
 H99 H 0.49512 1.06462 -0.00824
 C100 C 0.45941 1.07150 0.02250
 H101 H 0.46182 1.09584 0.02147
 Zn102 Zn 0.50071 0.99866 -0.01654
 N103 N 0.47584 1.02321 0.00673
 C104 C 0.52137 0.97299 0.04146
 N105 N 0.52383 0.97265 0.01013
 C106 C 0.54449 0.95526 -0.00305
 C107 C 0.56381 0.93724 0.01543
 C108 C 0.54010 0.95525 0.06084
 C109 C 0.45657 0.99219 -0.06228
 C110 C 0.43604 0.97720 -0.08100
 C111 C 0.45540 0.92963 -0.06023
 C112 C 0.47559 0.94562 -0.04191
 N113 N 0.47578 0.97631 -0.04323
 H114 H 0.50533 0.98750 0.05161
 H115 H 0.54631 0.95585 -0.02804
 H116 H 0.58012 0.92428 0.00380
 H117 H 0.53784 0.95618 0.08576
 H118 H 0.45693 1.01662 -0.06254
 H119 H 0.42081 0.99047 -0.09577
 H120 H 0.45617 0.90530 -0.05839
 H121 H 0.49073 0.93342 -0.02622
 C122 C 0.43716 1.05771 0.04006
 C123 C 0.56928 1.05770 -0.07034
 C124 C 0.43485 0.94547 -0.07997
 C125 C 0.56194 0.93716 0.04806
 C126 C -0.00918 0.54457 1.05570
 H127 H 0.01462 0.54643 1.05842
 C128 C -0.02757 0.56361 1.07177
 H129 H -0.01746 0.57952 1.08728
 C130 C -0.05081 0.52095 1.03232
 H131 H -0.05983 0.50465 1.01657
 C132 C -0.07000 0.53948 1.04795
 H133 H -0.09368 0.53706 1.04421
 N134 N -0.02100 0.52372 1.03651
 C135 C 0.04483 0.45277 1.02803
 H136 H 0.04581 0.45225 1.00301
 C137 C 0.06062 0.43153 1.04653
 H138 H 0.07334 0.41465 1.03521
 C139 C 0.02514 0.47443 1.07255
 H140 H 0.01078 0.49074 1.08258
 C141 C 0.04064 0.45367 1.09194
 H142 H 0.03827 0.45441 1.11684
 Zn143 Zn 0.00521 0.49989 1.01405
 N144 N 0.02764 0.47374 1.04121
 C145 C 0.06026 0.52415 0.99452
 N146 N 0.03030 0.52653 0.99181
 C147 C 0.01725 0.54888 0.97394
 C148 C 0.03442 0.56982 0.95752
 C149 C 0.07832 0.54446 0.97838
 C150 C -0.03256 0.45244 0.99933
 C151 C -0.04825 0.43256 0.98057
 C152 C -0.03020 0.45983 0.93547
 C153 C -0.01474 0.47908 0.95517
 N154 N -0.01637 0.47521 0.98648
 H155 H 0.07027 0.50661 1.00932
 H156 H -0.00665 0.55049 0.97257
 H157 H 0.02285 0.58709 0.94377
 H158 H 0.10214 0.54199 0.98090
 H159 H -0.03310 0.44963 1.02435
 H160 H -0.06056 0.41483 0.99209
 H161 H -0.02853 0.46342 0.91059
 H162 H -0.00129 0.49694 0.94536
 C163 C 0.05875 0.43191 1.07904
 C164 C -0.05850 0.56139 1.06769
 C165 C -0.04729 0.43605 0.94793
 C166 C 0.06562 0.56781 0.95949
 C167 C 1.00843 -0.01414 0.55659
 H168 H 0.99514 0.00260 0.56738
 C169 C 1.02606 -0.03374 0.57519
 H170 H 1.02579 -0.03190 0.60014
 C171 C 1.02358 -0.03786 0.51119
 H172 H 1.02228 -0.03939 0.48619
 C173 C 1.04133 -0.05809 0.52893
 H174 H 1.05378 -0.07518 0.51748
 N175 N 1.00778 -0.01627 0.52517
 C176 C 0.99349 0.05978 0.45955
 H177 H 0.96972 0.06239 0.46045
 C178 C 1.00989 0.07923 0.44051
 H179 H 0.99861 0.09680 0.42668
 C180 C 1.03705 0.03350 0.47631
 H181 H 1.04763 0.01586 0.49051
 C182 C 1.05428 0.05239 0.45757
 H183 H 1.07803 0.04915 0.45799
 Zn184 Zn 0.98348 0.00991 0.49986
 N185 N 1.00714 0.03699 0.47635
 C186 C 0.97165 0.05481 0.54193
 N187 N 0.95880 0.03284 0.52492
 C188 C 0.92923 0.02745 0.52591
 C189 C 0.91155 0.04375 0.54548
 C190 C 0.95482 0.07180 0.56172
 C191 C 0.95997 -0.00850 0.44178
 C192 C 0.94386 -0.02690 0.42181
 C193 C 0.92973 -0.05772 0.46624
 C194 C 0.94590 -0.03849 0.48537
 N195 N 0.96047 -0.01434 0.47295
 H196 H 0.99520 0.05885 0.54039
 H197 H 0.91931 0.01023 0.51184
 H198 H 0.88811 0.03865 0.54619
 H199 H 0.96624 0.08873 0.57488
 H200 H 0.97238 0.01021 0.43217
 H201 H 0.94472 -0.02166 0.39721
 H202 H 0.91839 -0.07689 0.47670
 H203 H 0.94710 -0.04298 0.51020
 C204 C 1.04056 0.07513 0.43873
 C205 C 1.04301 -0.05591 0.56130
 C206 C 0.92824 -0.05200 0.43395
 C207 C 0.92420 0.06611 0.56411
 C208 C 0.17547 0.27722 1.15431
 C209 C 0.15039 0.29216 1.16377
 C210 C 0.13754 0.31818 1.14568
 C211 C 0.11035 0.33015 1.15432
 C212 C 0.09711 0.35406 1.13705
 C213 C 0.11107 0.36675 1.11088
 C214 C 0.13838 0.35485 1.10241
 C215 C 0.15154 0.33089 1.11960
 C216 C 0.09737 0.39119 1.09096
 C217 C 0.07391 0.40922 1.10000
 H218 H 0.13924 0.28398 1.18436
 H219 H 0.09903 0.32062 1.17419
 H220 H 0.07569 0.36186 1.14396
 H221 H 0.14954 0.36403 1.08227
 H222 H 0.17255 0.32224 1.11229
 H223 H 0.10685 0.39551 1.06849
 H224 H 0.18101 0.26358 1.16375
 H225 H 0.06664 0.40738 1.12367
 C226 C -0.14726 0.71173 1.17195
 C227 C -0.15324 0.69415 1.14611
 C228 C -0.13215 0.67177 1.13455
 C229 C -0.14294 0.64932 1.11501
 C230 C -0.12369 0.62852 1.10252
 C231 C -0.09307 0.62977 1.10932
 C232 C -0.08224 0.65245 1.12856
 C233 C -0.10150 0.67324 1.14107
 C234 C -0.07162 0.60902 1.09562
 C235 C -0.07947 0.58120 1.08337
 H236 H -0.17443 0.69617 1.13395
 H237 H -0.16638 0.64802 1.10916
 H238 H -0.13295 0.61217 1.08693
 H239 H -0.05871 0.65426 1.13375
 H240 H -0.09208 0.69081 1.15508
 H241 H -0.04880 0.61633 1.09518
 H242 H -0.12707 0.70758 1.18554
 H243 H -0.10224 0.57379 1.08421
 C244 C -0.16264 0.29253 0.85890
 C245 C -0.13602 0.30768 0.85318
 C246 C -0.12249 0.32974 0.87454
 C247 C -0.10012 0.34893 0.86350
 C248 C -0.08614 0.36947 0.88303
 C249 C -0.09437 0.37134 0.91418
 C250 C -0.11648 0.35187 0.92528
 C251 C -0.13033 0.33126 0.90582
 C252 C -0.07982 0.39209 0.93626
 C253 C -0.06218 0.41676 0.92730
 H254 H -0.12453 0.30374 0.83204
 H255 H -0.09326 0.34790 0.83968
 H256 H -0.06856 0.38320 0.87362
 H257 H -0.12294 0.35241 0.94928
 H258 H -0.14660 0.31622 0.91578
 H259 H -0.08408 0.38761 0.96047
 H260 H -0.17497 0.29810 0.87908
 H261 H -0.05987 0.42167 0.90275
 C262 C 0.14573 0.71492 0.83542
 C263 C 0.15265 0.69908 0.86336
 C264 C 0.13263 0.67663 0.87823
 C265 C 0.14413 0.65751 0.90225
 C266 C 0.12601 0.63651 0.91749
 C267 C 0.09583 0.63405 0.90888
 C268 C 0.08427 0.65346 0.88515
 C269 C 0.10233 0.67456 0.87005
 C270 C 0.07535 0.61260 0.92456
 C271 C 0.08464 0.58804 0.94381
 H272 H 0.17377 0.70279 0.87499
 H273 H 0.16725 0.65894 0.90942
 H274 H 0.13582 0.62287 0.93629
 H275 H 0.06102 0.65246 0.87834
 H276 H 0.09210 0.68944 0.85253
 H277 H 0.05206 0.61642 0.91978
 H278 H 0.12530 0.70986 0.82301
 H279 H 0.10815 0.58397 0.94681
 C280 C 1.17187 0.14045 0.29437
 C281 C 1.14647 0.15128 0.30822
 C282 C 1.13089 0.13411 0.33296
 C283 C 1.11220 0.14961 0.35250
 C284 C 1.09673 0.13404 0.37572
 C285 C 1.09945 0.10250 0.37960
 C286 C 1.11814 0.08704 0.36010
 C287 C 1.13348 0.10254 0.33687
 C288 C 1.08355 0.08488 0.40370
 C289 C 1.05745 0.09457 0.41694
 H290 H 1.13783 0.17334 0.30142
 H291 H 1.10973 0.17389 0.34993
 H292 H 1.08307 0.14686 0.39075
 H293 H 1.12052 0.06273 0.36251
 H294 H 1.14677 0.08951 0.32170
 H295 H 1.09145 0.06222 0.40922
 H296 H 1.18160 0.11946 0.30325
 H297 H 1.04746 0.11571 0.40888
 C298 C 1.16348 -0.14890 0.70812
 C299 C 1.13686 -0.15513 0.69221
 C300 C 1.12227 -0.13339 0.66987
 C301 C 1.10245 -0.14425 0.64721
 C302 C 1.08705 -0.12426 0.62682
 C303 C 1.09103 -0.09289 0.62890
 C304 C 1.11065 -0.08204 0.65172
 C305 C 1.12621 -0.10203 0.67196
 C306 C 1.07382 -0.07093 0.60905
 C307 C 1.06154 -0.07766 0.58000
 H308 H 1.12635 -0.17686 0.69559
 H309 H 1.09867 -0.16829 0.64548
 H310 H 1.07142 -0.13345 0.61017
 H311 H 1.11374 -0.05797 0.65412
 H312 H 1.14050 -0.09274 0.68978
 H313 H 1.07177 -0.04819 0.61722
 H314 H 1.17540 -0.12849 0.70182
 H315 H 1.06678 -0.09897 0.56985
 C316 C 0.82699 -0.14717 0.28243
 C317 C 0.85182 -0.15323 0.30176
 C318 C 0.86421 -0.13091 0.32336
 C319 C 0.88035 -0.14111 0.34996
 C320 C 0.89341 -0.12053 0.37010
 C321 C 0.89079 -0.08928 0.36376
 C322 C 0.87497 -0.07912 0.33695
 C323 C 0.86170 -0.09966 0.31700
 C324 C 0.90580 -0.06683 0.38339
 C325 C 0.91210 -0.07194 0.41513
 H326 H 0.86221 -0.17522 0.30194
 H327 H 0.88301 -0.16508 0.35507
 H328 H 0.90625 -0.12918 0.39002
 H329 H 0.87307 -0.05517 0.33129
 H330 H 0.85029 -0.09099 0.29617
 H331 H 0.91041 -0.04513 0.37242
 H332 H 0.81490 -0.12636 0.28527
 H333 H 0.90325 -0.09222 0.42614
 C334 C 0.85064 0.18020 0.71543
 C335 C 0.84176 0.15631 0.69688
 C336 C 0.86071 0.14392 0.67286
 C337 C 0.84735 0.12921 0.64779
 C338 C 0.86459 0.11639 0.62520
 C339 C 0.89573 0.11751 0.62761
 C340 C 0.90902 0.13244 0.65263
 C341 C 0.89178 0.14538 0.67509
 C342 C 0.91520 0.10359 0.60484
 C343 C 0.90581 0.08122 0.58449
 H344 H 0.81982 0.14687 0.69900
 H345 H 0.82344 0.12782 0.64555
 H346 H 0.85327 0.10600 0.60591
 H347 H 0.93292 0.13365 0.65513
 H348 H 0.90293 0.15578 0.69453
 H349 H 0.93811 0.11046 0.60577
 H350 H 0.87141 0.19142 0.71069
 H351 H 0.88291 0.07418 0.58500
 C352 C 0.29435 1.13135 0.16208
 C353 C 0.30920 1.14134 0.13567
 C354 C 0.33019 1.12217 0.11930
 C355 C 0.35126 1.13605 0.10025
 C356 C 0.37101 1.11869 0.08389
 C357 C 0.36998 1.08694 0.08621
 C358 C 0.34849 1.07309 0.10475
 C359 C 0.32881 1.09044 0.12115
 C360 C 0.38996 1.06749 0.06887
 C361 C 0.41724 1.07710 0.05760
 H362 H 0.30610 1.16435 0.12703
 H363 H 0.35241 1.16045 0.09796
 H364 H 0.38648 1.13031 0.06901
 H365 H 0.34686 1.04870 0.10652
 H366 H 0.31220 1.07884 0.13462
 H367 H 0.38278 1.04455 0.06540
 H368 H 0.29951 1.10934 0.17248
 H369 H 0.42441 1.10002 0.06128
 C370 C 0.71556 1.15935 -0.16366
 C371 C 0.70544 1.16203 -0.13352
 C372 C 0.68252 1.14229 -0.11966
 C373 C 0.66161 1.12653 -0.13771
 C374 C 0.64037 1.10817 -0.12344
 C375 C 0.63952 1.10538 -0.09084
 C376 C 0.66041 1.12118 -0.07298
 C377 C 0.68148 1.13959 -0.08720
 C378 C 0.61788 1.08595 -0.07443
 C379 C 0.59105 1.07624 -0.08767
 H380 H 0.71622 1.17790 -0.11841
 H381 H 0.66129 1.12851 -0.16278
 H382 H 0.62508 1.09595 -0.13810
 H383 H 0.66032 1.11940 -0.04785
 H384 H 0.69724 1.15156 -0.07274
 H385 H 0.62334 1.07964 -0.05051
 H386 H 0.70672 1.14181 -0.17811
 H387 H 0.58565 1.08206 -0.11172
 C388 C 0.29032 0.82557 -0.15532
 C389 C 0.30920 0.84796 -0.16703
 C390 C 0.33491 0.86031 -0.14943
 C391 C 0.34733 0.88766 -0.16006
 C392 C 0.37107 0.90069 -0.14391
 C393 C 0.38292 0.88661 -0.11658
 C394 C 0.37126 0.85871 -0.10658
 C395 C 0.34751 0.84565 -0.12274
 C396 C 0.40749 0.90008 -0.09819
 C397 C 0.41296 0.93124 -0.09827
 H398 H 0.30439 0.85793 -0.18984
 H399 H 0.33846 0.89918 -0.18086
 H400 H 0.38018 0.92157 -0.15317
 H401 H 0.38033 0.84710 -0.08593
 H402 H 0.33944 0.82405 -0.11426
 H403 H 0.41986 0.88488 -0.08262
 H404 H 0.29459 0.81555 -0.13244
 H405 H 0.39844 0.94575 -0.11251
 C406 C 0.71105 0.82357 0.13834
 C407 C 0.69505 0.85004 0.14275
 C408 C 0.67117 0.86201 0.12136
 C409 C 0.65457 0.88676 0.13065
 C410 C 0.63262 0.89976 0.11102
 C411 C 0.62655 0.88811 0.08155
 C412 C 0.64320 0.86345 0.07216
 C413 C 0.66526 0.85049 0.09176
 C414 C 0.60443 0.90209 0.05938
 C415 C 0.58143 0.92081 0.06847
 H416 H 0.70015 0.86301 0.16300
 H417 H 0.65887 0.89641 0.15310
 H418 H 0.62117 0.91942 0.11883
 H419 H 0.63931 0.85431 0.04941
 H420 H 0.67780 0.83195 0.08315
 H421 H 0.60654 0.89676 0.03529
 H422 H 0.70556 0.80965 0.11891
 H423 H 0.57837 0.92309 0.09310
   
