data_POSCAR
  _audit_creation_date              2014-09-24
  _audit_creation_method            'ToBaCCo'
  _symmetry_space_group_name_H-M    'P1'
  _symmetry_Int_Tables_number       1
  _symmetry_cell_setting            triclinic
  loop_
  _symmetry_equiv_pos_as_xyz
 x,y,z
_cell_length_a 34.1755
_cell_length_b 33.9096
_cell_length_c 34.4363
_cell_angle_alpha 90.278700
_cell_angle_beta 89.836900
_cell_angle_gamma 89.446200
loop_
  _atom_site_label
  _atom_site_type_symbol
  _atom_site_fract_x
  _atom_site_fract_y
  _atom_site_fract_z
N1 N 0.12945 0.13309 0.22798
 N2 N 0.16321 0.11574 0.23548
 C3 C 0.15869 0.09218 0.26680
 C4 C 0.11963 0.09422 0.27816
 C5 C 0.10213 0.12005 0.25260
 H6 H 0.18172 0.07458 0.27974
 H7 H 0.07202 0.13026 0.25311
 Cu8 Cu 0.20882 0.12510 0.20152
 Cu9 Cu 0.12402 0.17485 0.19017
 Cu10 Cu 0.17752 0.15930 0.11153
 N11 N 0.24307 0.12476 0.15457
 N12 N 0.23029 0.13791 0.12078
 C13 C 0.26014 0.13906 0.09549
 C14 C 0.29343 0.12540 0.11359
 C15 C 0.28166 0.11589 0.15105
 H16 H 0.25805 0.15050 0.06627
 H17 H 0.30014 0.10573 0.17449
 N18 N 0.13394 0.19642 0.11157
 N19 N 0.11434 0.20498 0.14342
 C20 C 0.08892 0.23469 0.13613
 C21 C 0.09244 0.24435 0.09728
 C22 C 0.12091 0.21927 0.08254
 H23 H 0.06965 0.24828 0.15739
 H24 H 0.13298 0.21929 0.05345
 H25 H 0.16796 0.12556 0.16113
 H26 H 0.19172 0.17433 0.16808
 N27 N -0.15911 0.85426 0.25369
 N28 N -0.19430 0.87055 0.25190
 C29 C -0.19754 0.89863 0.27946
 C30 C -0.16307 0.89967 0.30005
 C31 C -0.13927 0.87108 0.28318
 H32 H -0.22311 0.91707 0.28425
 H33 H -0.10957 0.86367 0.29133
 Cu34 Cu -0.23409 0.85517 0.21390
 Cu35 Cu -0.14126 0.81310 0.21662
 Cu36 Cu -0.20685 0.78578 0.14930
 N37 N -0.26431 0.84498 0.16741
 N38 N -0.25453 0.81719 0.14234
 C39 C -0.28243 0.81511 0.11483
 C40 C -0.31093 0.84323 0.12324
 C41 C -0.29844 0.86174 0.15671
 H42 H -0.28230 0.79453 0.09073
 H43 H -0.31344 0.88494 0.17268
 N44 N -0.15879 0.75538 0.15761
 N45 N -0.13368 0.76593 0.18454
 C46 C -0.10325 0.74043 0.18436
 C47 C -0.10948 0.71248 0.15573
 C48 C -0.14500 0.72280 0.13925
 H49 H -0.07827 0.74222 0.20348
 H50 H -0.15967 0.70759 0.11587
 H51 H -0.18346 0.84368 0.18437
 H52 H -0.19952 0.80367 0.21768
 N53 N -0.15386 0.21101 -0.25745
 N54 N -0.16262 0.17364 -0.25303
 C55 C -0.14342 0.15216 -0.28016
 C56 C -0.12094 0.17755 -0.30203
 C57 C -0.12827 0.21464 -0.28693
 H58 H -0.14370 0.12032 -0.28217
 H59 H -0.11458 0.24191 -0.29545
 Cu60 Cu -0.19340 0.15582 -0.20869
 Cu61 Cu -0.17190 0.25045 -0.22076
 Cu62 Cu -0.22301 0.22631 -0.14111
 N63 N -0.23125 0.14489 -0.16680
 N64 N -0.24316 0.17156 -0.14112
 C65 C -0.27137 0.15563 -0.11869
 C66 C -0.27739 0.11723 -0.13123
 C67 C -0.25136 0.11149 -0.16149
 H68 H -0.28724 0.17121 -0.09603
 H69 H -0.24857 0.08535 -0.17946
 N70 N -0.19047 0.27391 -0.14295
 N71 N -0.17310 0.28420 -0.17544
 C72 C -0.15008 0.31525 -0.16878
 C73 C -0.15267 0.32527 -0.13010
 C74 C -0.17852 0.29833 -0.11426
 H75 H -0.12911 0.32653 -0.18944
 H76 H -0.18497 0.29430 -0.08377
 H77 H -0.17872 0.20135 -0.17054
 H78 H -0.22464 0.20785 -0.19920
 N79 N 0.12843 0.81786 -0.23817
 N80 N 0.15044 0.84829 -0.24655
 C81 C 0.13743 0.86485 -0.27969
 C82 C 0.10545 0.84365 -0.29233
 C83 C 0.10049 0.81421 -0.26528
 H84 H 0.14955 0.89086 -0.29298
 H85 H 0.07799 0.79199 -0.26510
 Cu86 Cu 0.19178 0.86474 -0.21131
 Cu87 Cu 0.13654 0.78600 -0.19199
 Cu88 Cu 0.22854 0.79613 -0.15175
 N89 N 0.23250 0.87729 -0.17382
 N90 N 0.24640 0.85009 -0.15038
 C91 C 0.27463 0.86555 -0.12813
 C92 C 0.27868 0.90464 -0.13816
 C93 C 0.25154 0.91127 -0.16725
 H94 H 0.29142 0.84922 -0.10690
 H95 H 0.24653 0.93848 -0.18281
 N96 N 0.19540 0.75051 -0.14215
 N97 N 0.15971 0.74723 -0.15624
 C98 C 0.14371 0.71395 -0.14254
 C99 C 0.17068 0.69582 -0.11851
 C100 C 0.20308 0.71968 -0.11889
 H101 H 0.11455 0.70390 -0.14924
 H102 H 0.22984 0.71545 -0.10269
 H103 H 0.17469 0.82013 -0.15860
 H104 H 0.19401 0.79333 -0.20222
 N105 N 0.21115 1.13831 0.74271
 N106 N 0.17428 1.14861 0.74762
 C107 C 0.15230 1.13026 0.72078
 C108 C 0.17678 1.10689 0.69820
 C109 C 0.21391 1.11263 0.71287
 H110 H 0.12089 1.13333 0.71811
 H111 H 0.24094 1.09954 0.70234
 Cu112 Cu 0.15884 1.18498 0.78865
 Cu113 Cu 0.25263 1.16112 0.77414
 Cu114 Cu 0.22159 1.20325 0.86114
 N115 N 0.14999 1.22793 0.82513
 N116 N 0.17403 1.23508 0.85403
 C117 C 0.16074 1.26681 0.87409
 C118 C 0.12681 1.28015 0.85636
 C119 C 0.12087 1.25479 0.82555
 H120 H 0.17527 1.27981 0.89884
 H121 H 0.09753 1.25633 0.80444
 N122 N 0.27573 1.18443 0.85233
 N123 N 0.28794 1.17172 0.81801
 C124 C 0.32649 1.16377 0.81983
 C125 C 0.33902 1.17110 0.85717
 C126 C 0.30614 1.18395 0.87725
 H127 H 0.34385 1.15169 0.79622
 H128 H 0.30458 1.19270 0.90747
 H129 H 0.21642 1.15663 0.82063
 H130 H 0.22474 1.20778 0.80306
 N131 N 0.80571 0.87103 0.75898
 N132 N 0.83865 0.85104 0.75507
 C133 C 0.85997 0.86724 0.72634
 C134 C 0.83917 0.89918 0.71201
 C135 C 0.80506 0.90081 0.73343
 H136 H 0.88840 0.85676 0.71674
 H137 H 0.78109 0.92154 0.72996
 Cu138 Cu 0.85026 0.80594 0.78807
 Cu139 Cu 0.76447 0.85483 0.79393
 Cu140 Cu 0.78927 0.78504 0.86257
 N141 N 0.86533 0.77068 0.83002
 N142 N 0.84112 0.76174 0.85832
 C143 C 0.85876 0.73610 0.88252
 C144 C 0.89611 0.72900 0.86879
 C145 C 0.89943 0.75137 0.83553
 H146 H 0.84554 0.72376 0.90825
 H147 H 0.92461 0.75303 0.81654
 N148 N 0.73833 0.81233 0.86180
 N149 N 0.72941 0.84009 0.83650
 C150 C 0.69383 0.85513 0.84521
 C151 C 0.67972 0.83546 0.87718
 C152 C 0.70843 0.80850 0.88692
 H153 H 0.67935 0.87872 0.82966
 H154 H 0.70794 0.78846 0.91124
 H155 H 0.80506 0.83624 0.83420
 H156 H 0.78122 0.79667 0.80489
 N157 N 0.13582 0.84806 1.24374
 N158 N 0.10850 0.82412 1.23139
 C159 C 0.07681 0.82777 1.25433
 C160 C 0.08499 0.85518 1.28285
 C161 C 0.12265 0.86761 1.27534
 H162 H 0.05077 0.81004 1.25191
 H163 H 0.13967 0.88815 1.29230
 Cu164 Cu 0.11940 0.78593 1.19100
 Cu165 Cu 0.18725 0.84903 1.21960
 Cu166 Cu 0.20028 0.79178 1.13620
 N167 N 0.14033 0.74047 1.16375
 N168 N 0.17128 0.74210 1.14102
 C169 C 0.17875 0.70555 1.12669
 C170 C 0.15133 0.68014 1.14229
 C171 C 0.12767 0.70327 1.16556
 H172 H 0.20327 0.69778 1.10816
 H173 H 0.10334 0.69358 1.18317
 N174 N 0.23488 0.83635 1.14984
 N175 N 0.23001 0.85700 1.18218
 C176 C 0.25645 0.88595 1.18337
 C177 C 0.27926 0.88358 1.15044
 C178 C 0.26505 0.85169 1.12965
 H179 H 0.25830 0.90799 1.20609
 H180 H 0.27537 0.84095 1.10179
 H181 H 0.16513 0.83420 1.16573
 H182 H 0.19015 0.79384 1.19297
 N183 N 0.84976 1.15837 1.25281
 N184 N 0.87688 1.18259 1.23996
 C185 C 0.90669 1.18321 1.26528
 C186 C 0.89807 1.15818 1.29545
 C187 C 0.86177 1.14276 1.28676
 H188 H 0.93258 1.20105 1.26233
 H189 H 0.84545 1.12174 1.30370
 Cu190 Cu 0.87151 1.21441 1.19265
 Cu191 Cu 0.80122 1.14786 1.22372
 Cu192 Cu 0.78737 1.20427 1.14525
 N193 N 0.85329 1.25373 1.15580
 N194 N 0.81992 1.24998 1.13734
 C195 C 0.81504 1.28063 1.11313
 C196 C 0.84721 1.30473 1.11659
 C197 C 0.87101 1.28681 1.14381
 H198 H 0.79034 1.28476 1.09395
 H199 H 0.89918 1.29681 1.15394
 N200 N 0.76382 1.15274 1.14956
 N201 N 0.76727 1.13124 1.18109
 C202 C 0.74603 1.09814 1.17673
 C203 C 0.72933 1.09903 1.14020
 C204 C 0.74127 1.13385 1.12376
 H205 H 0.74394 1.07483 1.19794
 H206 H 0.73381 1.14477 1.09522
 H207 H 0.83617 1.16589 1.18058
 H208 H 0.81517 1.20688 1.21058
 N209 N 0.44822 0.97501 1.07754
 N210 N 0.42144 0.97622 1.10516
 N211 N 0.51529 0.92142 1.04875
 N212 N 0.53896 0.89050 1.04815
 N213 N 0.52625 0.94685 1.07549
 N214 N 0.55774 0.93368 1.09382
 N215 N 0.43802 0.95039 1.04986
 N216 N 0.40427 0.93361 1.05822
 C217 C 0.39421 0.95064 1.09248
 C218 C 0.56476 0.89823 1.07667
 N219 N 0.52653 0.94814 0.94015
 N220 N 0.55530 0.93341 0.91860
 N221 N 0.43834 0.95204 0.96527
 N222 N 0.40254 0.93946 0.95814
 N223 N 0.44910 0.97772 0.93894
 N224 N 0.42083 0.98419 0.91380
 N225 N 0.51504 0.92226 0.96590
 N226 N 0.53543 0.88927 0.96273
 Mn227 Mn 0.47622 0.93626 1.00746
 C228 C 0.56005 0.89656 0.93306
 C229 C 0.39217 0.96024 0.92615
 N230 N 0.55355 1.02771 1.07749
 N231 N 0.58454 1.02068 1.09945
 N232 N 0.48300 1.08075 1.05149
 N233 N 0.45541 1.10821 1.05030
 N234 N 0.47505 1.05480 1.07866
 N235 N 0.44194 1.06425 1.09656
 N236 N 0.56165 1.05399 1.05080
 N237 N 0.59842 1.06505 1.05326
 Mn238 Mn 0.50100 1.00107 1.07781
 C239 C 0.61195 1.04452 1.08397
 C240 C 0.43062 1.09811 1.07917
 N241 N 0.47722 1.05639 0.93973
 N242 N 0.45447 1.07179 0.91285
 N243 N 0.56241 1.05550 0.96749
 N244 N 0.59637 1.07238 0.96010
 N245 N 0.55479 1.02835 0.94129
 N246 N 0.58333 1.02572 0.91553
 N247 N 0.48413 1.08220 0.96737
 N248 N 0.46626 1.11614 0.95995
 Mn249 Mn 0.50214 1.00251 0.93967
 Mn250 Mn 0.52281 1.06861 1.00952
 Cl251 Cl 0.50054 1.00215 1.00860
 C252 C 0.44738 1.10862 0.92622
 C253 C 0.60905 1.05307 0.92785
 N254 N 0.03860 0.43753 0.06341
 N255 N 0.03102 0.40198 0.07723
 N256 N 0.08711 0.51496 0.05161
 N257 N 0.11649 0.53813 0.06129
 N258 N 0.05944 0.51635 0.07816
 N259 N 0.06939 0.53985 0.10701
 N260 N 0.06701 0.43559 0.03761
 N261 N 0.07907 0.39895 0.03270
 C262 C 0.05709 0.37860 0.05802
 C263 C 0.10490 0.55302 0.09603
 N264 N 0.06825 0.53794 -0.05805
 N265 N 0.08151 0.56876 -0.07702
 N266 N 0.07292 0.44797 -0.04430
 N267 N 0.08944 0.41380 -0.05388
 N268 N 0.04763 0.45895 -0.07081
 N269 N 0.04608 0.43280 -0.09918
 N270 N 0.09287 0.52714 -0.03083
 N271 N 0.12384 0.55010 -0.03056
 Mn272 Mn 0.08046 0.48144 0.00369
 C273 C 0.11613 0.57576 -0.05954
 C274 C 0.07221 0.40496 -0.08818
 N275 N -0.02181 0.54014 0.07621
 N276 N -0.02144 0.56500 0.10581
 N277 N -0.06789 0.47410 0.03559
 N278 N -0.09947 0.45203 0.03485
 N279 N -0.04317 0.46135 0.06198
 N280 N -0.05726 0.43024 0.08002
 N281 N -0.04609 0.55259 0.04917
 N282 N -0.06332 0.58603 0.05996
 Mn283 Mn 0.00820 0.48863 0.07043
 C284 C -0.04737 0.59332 0.09524
 C285 C -0.09233 0.42499 0.06268
 N286 N -0.03364 0.48129 -0.07211
 N287 N -0.03934 0.44989 -0.09401
 N288 N -0.04077 0.56506 -0.03466
 N289 N -0.05799 0.59993 -0.03933
 N290 N -0.01217 0.56042 -0.05986
 N291 N -0.00839 0.59186 -0.08168
 N292 N -0.06229 0.48558 -0.04678
 N293 N -0.08830 0.45722 -0.05124
 Mn294 Mn 0.01741 0.50968 -0.06553
 Mn295 Mn -0.05472 0.51973 0.00082
 Cl296 Cl 0.01281 0.49994 0.00243
 C297 C -0.07387 0.43587 -0.08138
 C298 C -0.03682 0.61622 -0.06849
 N299 N 1.06443 0.05011 0.54519
 N300 N 1.08087 0.07010 0.57373
 N301 N 1.07609 0.01764 0.45983
 N302 N 1.09053 0.01216 0.42441
 N303 N 1.06215 0.05374 0.46360
 N304 N 1.06709 0.07350 0.43119
 N305 N 1.08038 0.01483 0.54178
 N306 N 1.10830 0.00984 0.56777
 C307 C 1.10791 0.04438 0.58756
 C308 C 1.08581 0.04785 0.40739
 N309 N 1.00884 -0.07614 0.46117
 N310 N 1.00125 -0.09786 0.43035
 N311 N 1.04806 -0.06328 0.54111
 N312 N 1.06939 -0.07744 0.56995
 N313 N 1.01247 -0.07762 0.54234
 N314 N 1.00864 -0.10229 0.57153
 N315 N 1.04411 -0.06123 0.45904
 N316 N 1.06165 -0.07255 0.42650
 Mn317 Mn 1.06270 -0.02324 0.50029
 C318 C 1.03443 -0.09549 0.40926
 C319 C 1.04427 -0.10178 0.58837
 N320 N 0.98431 0.08621 0.46722
 N321 N 0.98923 0.11030 0.43771
 N322 N 0.95049 0.06856 0.54826
 N323 N 0.92884 0.08432 0.57613
 N324 N 0.98591 0.08331 0.54854
 N325 N 0.98911 0.11024 0.57618
 N326 N 0.94916 0.07083 0.46645
 N327 N 0.92919 0.08392 0.43624
 Mn328 Mn 1.02443 0.06868 0.50641
 C329 C 0.95467 0.10862 0.41891
 C330 C 0.95344 0.10991 0.59336
 N331 N 0.93426 -0.04465 0.54653
 N332 N 0.92154 -0.06509 0.57658
 N333 N 0.91699 -0.00764 0.46520
 N334 N 0.89237 -0.00229 0.43617
 N335 N 0.93164 -0.04358 0.46446
 N336 N 0.91790 -0.06361 0.43457
 N337 N 0.91885 -0.00902 0.54669
 N338 N 0.89520 -0.00407 0.57663
 Mn339 Mn 0.97167 -0.06092 0.50381
 Mn340 Mn 0.93349 0.03085 0.50650
 Cl341 Cl 0.99812 0.00385 0.50430
 C342 C 0.89727 -0.03914 0.59490
 C343 C 0.89347 -0.03743 0.41741
 N344 N 1.05302 0.06511 0.34851
 N345 N 1.06123 0.07923 0.31381
 C346 C 1.10038 0.07694 0.30943
 C347 C 1.11608 0.06023 0.34270
 N348 N 1.08531 0.05344 0.36634
 H349 H 1.14662 0.05748 0.35060
 N350 N 0.84108 -0.02418 0.37154
 N351 N 0.82507 -0.04030 0.34036
 C352 C 0.84578 -0.07343 0.33234
 C353 C 0.87497 -0.07730 0.35967
 N354 N 0.87091 -0.04602 0.38358
 H355 H 0.89661 -0.10066 0.36225
 N356 N 0.95893 0.17023 0.63152
 N357 N 0.93917 0.18966 0.65885
 C358 C 0.90832 0.16710 0.66837
 C359 C 0.90966 0.13329 0.64613
 N360 N 0.94159 0.13643 0.62357
 H361 H 0.88916 0.10913 0.64588
 N362 N 1.03085 -0.15235 0.63593
 N363 N 1.04630 -0.16774 0.66769
 C364 C 1.08011 -0.14867 0.67415
 C365 C 1.08510 -0.12109 0.64519
 N366 N 1.05368 -0.12445 0.62200
 H367 H 1.10872 -0.10035 0.64165
 N368 N 0.37567 1.13540 1.05452
 N369 N 0.33830 1.14211 1.06234
 C370 C 0.33061 1.12492 1.09673
 C371 C 0.36476 1.10732 1.10996
 N372 N 0.39207 1.11457 1.08257
 H373 H 0.36893 1.08965 1.13575
 N374 N 0.34242 0.98182 0.88060
 N375 N 0.31150 0.96758 0.86237
 C376 C 0.30605 0.93093 0.87625
 C377 C 0.33414 0.92331 0.90405
 N378 N 0.35623 0.95575 0.90570
 H379 H 0.33951 0.89623 0.91976
 N380 N 0.60917 0.84433 1.06050
 N381 N 0.64304 0.82905 1.07186
 C382 C 0.65460 0.85036 1.10285
 C383 C 0.62669 0.87931 1.11020
 N384 N 0.59890 0.87442 1.08309
 H385 H 0.62675 0.90191 1.13252
 N386 N 0.65946 1.03803 0.88042
 N387 N 0.69019 1.05452 0.86392
 C388 C 0.69465 1.09016 0.88084
 C389 C 0.66572 1.09488 0.90879
 N390 N 0.64440 1.06166 0.90736
 H391 H 0.65971 1.12036 0.92699
 N392 N 0.06401 0.31500 0.02750
 N393 N 0.07389 0.27851 0.03689
 C394 C 0.07418 0.27694 0.07596
 C395 C 0.06377 0.31373 0.09038
 N396 N 0.05773 0.33656 0.05906
 H397 H 0.06533 0.32402 0.12015
 N398 N -0.06351 0.36910 -0.10390
 N399 N -0.08372 0.33820 -0.11546
 C400 C -0.12189 0.34720 -0.11019
 C401 C -0.12453 0.38513 -0.09533
 N402 N -0.08738 0.39757 -0.09191
 H403 H -0.15057 0.40308 -0.09104
 N404 N 0.17625 0.61349 -0.05493
 N405 N 0.19189 0.64548 -0.07026
 C406 C 0.16558 0.65982 -0.09584
 C407 C 0.13342 0.63578 -0.09585
 N408 N 0.14125 0.60732 -0.07000
 H409 H 0.10680 0.63883 -0.11259
 N410 N -0.03666 0.63658 0.15050
 N411 N -0.05223 0.66826 0.16733
 C412 C -0.08358 0.67886 0.14596
 C413 C -0.08665 0.65265 0.11518
 N414 N -0.05677 0.62679 0.11918
 H415 H -0.10852 0.65216 0.09251
 N416 N 1.16834 0.03436 0.62353
 N417 N 1.18791 0.05061 0.65258
 C418 C 1.16585 0.08106 0.66574
 C419 C 1.13219 0.08316 0.64379
 N420 N 1.13497 0.05355 0.61781
 H421 H 1.10828 0.10422 0.64621
 N422 N 0.84719 -0.02405 0.64266
 N423 N 0.83093 -0.03954 0.67390
 C424 C 0.84960 -0.07406 0.68040
 C425 C 0.87782 -0.07948 0.65203
 N426 N 0.87519 -0.04758 0.62908
 H427 H 0.89775 -0.10421 0.64811
 N428 N 1.01147 -0.13534 0.35553
 N429 N 1.02375 -0.14881 0.32144
 C430 C 1.06022 -0.13493 0.31632
 C431 C 1.07009 -0.11255 0.34833
 N432 N 1.03887 -0.11371 0.37206
 H433 H 1.09729 -0.09755 0.35411
 N434 N 0.97258 0.15321 0.36720
 N435 N 0.95852 0.16692 0.33410
 C436 C 0.92304 0.15059 0.32923
 C437 C 0.91562 0.12640 0.36048
 N438 N 0.94729 0.12898 0.38344
 H439 H 0.89011 0.10851 0.36582
 N440 N 0.05859 0.35994 -0.14100
 N441 N 0.07211 0.32669 -0.15641
 C442 C 0.10280 0.31516 -0.13459
 C443 C 0.10771 0.34242 -0.10504
 N444 N 0.07949 0.36986 -0.11026
 H445 H 0.12982 0.34272 -0.08260
 N446 N -0.15263 0.38843 0.05454
 N447 N -0.16972 0.35644 0.06821
 C448 C -0.14525 0.34100 0.09489
 C449 C -0.11261 0.36446 0.09725
 N450 N -0.11843 0.39366 0.07164
 H451 H -0.08705 0.36052 0.11538
 N452 N -0.02028 0.66986 -0.11105
 N453 N -0.03720 0.69995 -0.12887
 C454 C -0.07414 0.70224 -0.11528
 C455 C -0.07936 0.67276 -0.08816
 N456 N -0.04498 0.65321 -0.08657
 H457 H -0.10607 0.66452 -0.07345
 N458 N 0.12610 0.58090 0.15682
 N459 N 0.13919 0.61484 0.17033
 C460 C 0.14833 0.63715 0.13936
 C461 C 0.14029 0.61566 0.10615
 N462 N 0.12654 0.58075 0.11844
 H463 H 0.13917 0.62630 0.07657
 N464 N 0.43960 1.14816 0.86893
 N465 N 0.41074 1.16439 0.84886
 C466 C 0.37871 1.16369 0.87172
 C467 C 0.38888 1.14653 0.90661
 N468 N 0.42725 1.13757 0.90377
 H469 H 0.36946 1.13709 0.92958
 N470 N 0.35081 0.95890 1.14751
 N471 N 0.32042 0.94167 1.16384
 C472 C 0.31084 0.91096 1.14086
 C473 C 0.33625 0.90995 1.10958
 N474 N 0.36070 0.94040 1.11501
 H475 H 0.33762 0.88869 1.08604
 N476 N 0.68122 1.03996 1.07135
 N477 N 0.71396 1.05428 1.08591
 C478 C 0.70499 1.06955 1.12106
 C479 C 0.66545 1.06448 1.12741
 N480 N 0.65184 1.04552 1.09590
 H481 H 0.64758 1.07811 1.14985
 N482 N 0.59697 0.83575 0.93966
 N483 N 0.62899 0.81853 0.92573
 C484 C 0.64301 0.84259 0.89807
 C485 C 0.61869 0.87516 0.89534
 N486 N 0.59041 0.86967 0.92186
 H487 H 0.62205 0.90088 0.87717
   
