data_POSCAR
  _audit_creation_date              2014-09-24
  _audit_creation_method            'ToBaCCo'
  _symmetry_space_group_name_H-M    'P1'
  _symmetry_Int_Tables_number       1
  _symmetry_cell_setting            triclinic
  loop_
  _symmetry_equiv_pos_as_xyz
 x,y,z
_cell_length_a 40.1272
_cell_length_b 40.6607
_cell_length_c 41.4606
_cell_angle_alpha 89.944700
_cell_angle_beta 90.058100
_cell_angle_gamma 90.042700
loop_
  _atom_site_label
  _atom_site_type_symbol
  _atom_site_fract_x
  _atom_site_fract_y
  _atom_site_fract_z
N1 N 0.34291 0.34707 0.34248
 N2 N 0.34596 0.84856 -0.15203
 N3 N 0.84356 0.34227 -0.15486
 N4 N 0.84435 0.84773 0.34851
 N5 N 0.65865 0.65454 0.34574
 N6 N 0.65530 0.15626 -0.15437
 N7 N 0.15729 0.65573 -0.15441
 N8 N 0.15785 0.15282 0.34622
 N9 N 0.66045 0.34098 0.65851
 N10 N 0.65812 0.84288 1.15454
 N11 N 0.15207 0.34543 1.15072
 N12 N 0.15848 0.84637 0.64645
 N13 N 0.34116 0.65472 0.65846
 N14 N 0.34790 0.14941 1.15125
 N15 N 0.84681 0.65117 1.14899
 N16 N 0.84517 0.15179 0.64847
 N17 N 0.34696 0.34981 0.64999
 N18 N 0.35058 0.84824 0.14975
 N19 N 0.84536 0.34284 0.15389
 N20 N 0.84148 0.84328 0.65665
 N21 N 0.65965 0.65890 0.65918
 N22 N 0.65232 0.15296 0.15148
 N23 N 0.15094 0.65747 0.15039
 N24 N 0.16040 0.15937 0.65452
 N25 N 0.34814 0.64837 0.34649
 N26 N 0.34451 0.15295 0.84590
 N27 N 0.84341 0.66094 0.83914
 N28 N 0.84707 0.15125 0.34978
 N29 N 0.65184 0.34864 0.34788
 N30 N 0.65538 0.84606 0.84770
 N31 N 0.15734 0.33833 0.84445
 N32 N 0.15524 0.84203 0.34649
 O33 O 0.29541 0.96632 0.24577
 O34 O 0.24990 1.02808 0.29299
 O35 O 0.25106 0.96402 0.29134
 O36 O 0.29253 1.03044 0.24588
 O37 O 0.25205 1.02938 0.20978
 O38 O 0.21040 0.96356 0.25541
 O39 O 0.20928 1.02782 0.25702
 O40 O 0.25469 0.96521 0.20991
 Cu41 Cu 0.27631 0.99731 0.27257
 Cu42 Cu 0.22751 0.99647 0.22943
 C43 C 0.28275 0.95495 0.22005
 C44 C 0.22200 1.03865 0.28304
 C45 C 0.22375 0.95230 0.28092
 C46 C 0.27925 1.04129 0.22012
 O47 O 0.24889 0.52891 0.70944
 O48 O 0.20382 0.46514 0.75469
 O49 O 0.20365 0.52926 0.75430
 O50 O 0.24954 0.46492 0.71045
 O51 O 0.28888 0.46587 0.74773
 O52 O 0.24254 0.52954 0.79203
 O53 O 0.24306 0.46549 0.79208
 O54 O 0.28790 0.52998 0.74704
 Cu55 Cu 0.22254 0.49702 0.72847
 Cu56 Cu 0.26954 0.49782 0.77349
 C57 C 0.27598 0.54040 0.72051
 C58 C 0.21581 0.45428 0.78094
 C59 C 0.21524 0.54033 0.78065
 C60 C 0.27701 0.45438 0.72169
 O61 O 0.74726 -0.03166 0.20881
 O62 O 0.79160 0.03362 0.25307
 O63 O 0.79297 -0.03027 0.25333
 O64 O 0.74586 0.03293 0.20892
 O65 O 0.70643 0.03151 0.24601
 O66 O 0.75447 -0.03041 0.29136
 O67 O 0.75222 0.03346 0.29027
 O68 O 0.70873 -0.03283 0.24677
 Cu69 Cu 0.77323 0.00118 0.22715
 Cu70 Cu 0.72647 0.00029 0.27229
 C71 C 0.72067 -0.04372 0.22053
 C72 C 0.77937 0.04482 0.27906
 C73 C 0.78190 -0.04089 0.28005
 C74 C 0.71835 0.04333 0.22013
 O75 O 0.75468 0.46931 0.79219
 O76 O 0.71098 0.53282 0.74510
 O77 O 0.70951 0.46874 0.74722
 O78 O 0.75637 0.53340 0.78990
 O79 O 0.79574 0.53114 0.75279
 O80 O 0.74868 0.46683 0.70990
 O81 O 0.75042 0.53090 0.70805
 O82 O 0.79390 0.46693 0.75494
 Cu83 Cu 0.72894 0.50128 0.77234
 Cu84 Cu 0.77615 0.49870 0.72771
 C85 C 0.78161 0.45714 0.78151
 C86 C 0.72334 0.54283 0.71865
 C87 C 0.72114 0.45673 0.72133
 C88 C 0.78397 0.54340 0.77851
 O89 O 0.24696 0.46805 0.28524
 O90 O 0.20536 0.53350 0.23896
 O91 O 0.20462 0.46958 0.23759
 O92 O 0.24876 0.53228 0.28563
 O93 O 0.28999 0.53192 0.25041
 O94 O 0.24599 0.46935 0.20249
 O95 O 0.24656 0.53344 0.20369
 O96 O 0.28803 0.46758 0.24983
 Cu97 Cu 0.22233 0.50089 0.26543
 Cu98 Cu 0.27184 0.50062 0.22313
 C99 C 0.27434 0.45634 0.27520
 C100 C 0.21882 0.54465 0.21347
 C101 C 0.21789 0.45874 0.21188
 C102 C 0.27682 0.54295 0.27606
 O103 O 0.75267 1.03300 0.70897
 O104 O 0.70704 0.96894 0.75349
 O105 O 0.70719 1.03305 0.75311
 O106 O 0.75324 0.96875 0.70927
 O107 O 0.79174 0.96859 0.74736
 O108 O 0.74664 1.03395 0.79028
 O109 O 0.74560 0.96963 0.79152
 O110 O 0.79220 1.03263 0.74609
 Cu111 Cu 0.72614 1.00078 0.72741
 Cu112 Cu 0.77292 1.00113 0.77264
 C113 C 0.78002 1.04397 0.72008
 C114 C 0.71845 0.95841 0.78012
 C115 C 0.71944 1.04489 0.77883
 C116 C 0.78029 0.95764 0.72094
 O117 O 0.74848 0.53301 0.28706
 O118 O 0.79119 0.46596 0.24394
 O119 O 0.79231 0.53014 0.24151
 O120 O 0.74822 0.46880 0.29083
 O121 O 0.70722 0.46761 0.25528
 O122 O 0.75148 0.52912 0.20579
 O123 O 0.75031 0.46477 0.20827
 O124 O 0.70744 0.53137 0.25155
 Cu125 Cu 0.77415 0.49952 0.26942
 Cu126 Cu 0.72508 0.49798 0.22657
 C127 C 0.72083 0.54381 0.27644
 C128 C 0.77788 0.45386 0.21877
 C129 C 0.77922 0.54048 0.21551
 C130 C 0.72022 0.45780 0.28156
 O131 O 0.25461 -0.03287 0.78539
 O132 O 0.21211 0.03301 0.74028
 O133 O 0.20936 -0.03102 0.74088
 O134 O 0.25601 0.03121 0.78690
 O135 O 0.29550 0.03123 0.74983
 O136 O 0.25009 -0.03299 0.70513
 O137 O 0.25169 0.03145 0.70335
 O138 O 0.29533 -0.03265 0.74958
 Cu139 Cu 0.22900 0.00032 0.76703
 Cu140 Cu 0.27709 -0.00070 0.72322
 C141 C 0.28218 -0.04407 0.77503
 C142 C 0.22464 0.04334 0.71400
 C143 C 0.22217 -0.04321 0.71563
 C144 C 0.28366 0.04185 0.77623
 O145 O 0.24851 0.29116 0.96997
 O146 O 0.29415 0.24498 1.03231
 O147 O 0.29436 0.24617 0.96919
 O148 O 0.24792 0.28986 1.03276
 O149 O 0.20946 0.25098 1.03215
 O150 O 0.25516 0.20805 0.96788
 O151 O 0.25558 0.20624 1.03127
 O152 O 0.20942 0.25290 0.96939
 Cu153 Cu 0.27518 0.27185 1.00119
 Cu154 Cu 0.22861 0.22557 1.00011
 C155 C 0.22128 0.27989 0.95898
 C156 C 0.28248 0.21797 1.04270
 C157 C 0.28224 0.22004 0.95721
 C158 C 0.22085 0.27776 1.04337
 O159 O 0.25584 0.69995 0.47022
 O160 O 0.21006 0.75217 0.52751
 O161 O 0.21146 0.74641 0.46513
 O162 O 0.25482 0.70683 0.53319
 O163 O 0.29514 0.74369 0.53000
 O164 O 0.25146 0.78364 0.46232
 O165 O 0.25014 0.78933 0.52488
 O166 O 0.29581 0.73719 0.46741
 Cu167 Cu 0.22913 0.72248 0.49922
 Cu168 Cu 0.27718 0.76716 0.49581
 C169 C 0.28347 0.70976 0.45885
 C170 C 0.22242 0.77956 0.53613
 C171 C 0.22403 0.77187 0.45222
 C172 C 0.28208 0.71882 0.54352
 O173 O 0.29476 0.75546 -0.03017
 O174 O 0.24641 0.70926 0.02995
 O175 O 0.24769 0.71190 -0.03324
 O176 O 0.29174 0.75484 0.03250
 O177 O 0.25361 0.79399 0.03160
 O178 O 0.20873 0.75022 -0.03274
 O179 O 0.20845 0.74855 0.03055
 O180 O 0.25615 0.79414 -0.03096
 Cu181 Cu 0.27391 0.72888 -0.00021
 Cu182 Cu 0.22776 0.77552 -0.00051
 C183 C 0.28373 0.78257 -0.04087
 C184 C 0.21966 0.72133 0.04108
 C185 C 0.22083 0.72399 -0.04440
 C186 C 0.28012 0.78180 0.04320
 O187 O 0.20591 0.25136 0.46615
 O188 O 0.25021 0.29669 0.53021
 O189 O 0.25040 0.29792 0.46723
 O190 O 0.20506 0.25088 0.52912
 O191 O 0.24446 0.21299 0.52871
 O192 O 0.29043 0.26069 0.46745
 O193 O 0.28959 0.25880 0.53043
 O194 O 0.24617 0.21437 0.46556
 Cu195 Cu 0.22391 0.27797 0.49819
 Cu196 Cu 0.27163 0.23292 0.49806
 C197 C 0.21883 0.22543 0.45458
 C198 C 0.27725 0.28524 0.54149
 C199 C 0.27801 0.28726 0.45663
 C200 C 0.21708 0.22407 0.53962
 O201 O 0.75135 0.79419 0.96909
 O202 O 0.79564 0.74246 1.02825
 O203 O 0.79415 0.74633 0.96560
 O204 O 0.75373 0.79120 1.03210
 O205 O 0.71280 0.75487 1.03224
 O206 O 0.75224 0.71113 0.96450
 O207 O 0.75433 0.70655 1.02711
 O208 O 0.70937 0.75905 0.96936
 Cu209 Cu 0.77785 0.77217 0.99881
 Cu210 Cu 0.72795 0.72941 0.99815
 C211 C 0.72280 0.78536 0.95911
 C212 C 0.78250 0.71569 1.03775
 C213 C 0.78004 0.72115 0.95365
 C214 C 0.72671 0.78032 1.04390
 O215 O 0.75104 0.20996 0.46728
 O216 O 0.70928 0.25597 0.53212
 O217 O 0.70645 0.25604 0.46911
 O218 O 0.75460 0.21005 0.52980
 O219 O 0.79403 0.24793 0.52808
 O220 O 0.74578 0.29402 0.46751
 O221 O 0.74883 0.29371 0.53046
 O222 O 0.79043 0.24788 0.46533
 Cu223 Cu 0.72631 0.22928 0.49985
 Cu224 Cu 0.77370 0.27472 0.49770
 C225 C 0.77776 0.22117 0.45514
 C226 C 0.72201 0.28257 0.54246
 C227 C 0.71809 0.28265 0.45769
 C228 C 0.78260 0.22112 0.53918
 O229 O 0.74970 0.29493 0.03152
 O230 O 0.70371 0.25095 -0.03190
 O231 O 0.70328 0.25011 0.03100
 O232 O 0.75157 0.29403 -0.03135
 O233 O 0.78912 0.25436 -0.03050
 O234 O 0.74116 0.21075 0.03163
 O235 O 0.74117 0.21119 -0.03094
 O236 O 0.78769 0.25567 0.03225
 Cu237 Cu 0.72328 0.27648 -0.00022
 Cu238 Cu 0.76860 0.22906 0.00073
 C239 C 0.77653 0.28294 0.04263
 C240 C 0.71451 0.22360 -0.04220
 C241 C 0.71399 0.22285 0.04182
 C242 C 0.77856 0.28148 -0.04163
 O243 O 0.70736 0.74417 0.46942
 O244 O 0.75165 0.79361 0.53032
 O245 O 0.75211 0.79005 0.46722
 O246 O 0.70676 0.74753 0.53213
 O247 O 0.74629 0.70982 0.53422
 O248 O 0.79220 0.75296 0.46992
 O249 O 0.79122 0.75598 0.53280
 O250 O 0.74731 0.70688 0.47149
 Cu251 Cu 0.72554 0.77267 0.49957
 Cu252 Cu 0.77327 0.72768 0.50237
 C253 C 0.71995 0.71720 0.45991
 C254 C 0.77881 0.78307 0.54216
 C255 C 0.77968 0.77857 0.45726
 C256 C 0.71876 0.72140 0.54420
 O257 O 1.03366 0.29071 0.24903
 O258 O 0.96886 0.24653 0.29445
 O259 O 1.03377 0.24510 0.29317
 O260 O 0.96860 0.29121 0.24962
 O261 O 0.96725 0.25240 0.21241
 O262 O 1.03244 0.20664 0.25562
 O263 O 0.96763 0.20797 0.25698
 O264 O 1.03252 0.25221 0.21151
 Cu265 Cu 1.00141 0.27229 0.27531
 Cu266 Cu 0.99993 0.22600 0.23030
 C267 C 1.04431 0.27890 0.22268
 C268 C 0.95699 0.21991 0.28335
 C269 C 1.04417 0.21798 0.28176
 C270 C 0.95642 0.27930 0.22387
 O271 O 0.53148 0.28967 0.74296
 O272 O 0.46591 0.24583 0.78807
 O273 O 0.53089 0.24517 0.78820
 O274 O 0.46634 0.29011 0.74287
 O275 O 0.46638 0.25132 0.70563
 O276 O 0.53035 0.20601 0.75133
 O277 O 0.46545 0.20704 0.75082
 O278 O 0.53136 0.25043 0.70617
 Cu279 Cu 0.49873 0.27165 0.76922
 Cu280 Cu 0.49838 0.22480 0.72477
 C281 C 0.54272 0.27740 0.71697
 C282 C 0.45435 0.21904 0.77694
 C283 C 0.54161 0.21789 0.77746
 C284 C 0.45519 0.27824 0.71664
 O285 O 0.03301 0.24475 0.70820
 O286 O -0.03258 0.28998 0.75135
 O287 O 0.03217 0.28779 0.75478
 O288 O -0.03197 0.24544 0.70647
 O289 O -0.03373 0.20556 0.74263
 O290 O 0.02942 0.24835 0.79133
 O291 O -0.03566 0.24992 0.78726
 O292 O 0.03118 0.20535 0.74485
 Cu293 Cu 0.00048 0.27096 0.72654
 Cu294 Cu -0.00235 0.22335 0.77021
 C295 C 0.04338 0.21744 0.71919
 C296 C -0.04569 0.27742 0.77632
 C297 C 0.04169 0.27524 0.78133
 C298 C -0.04394 0.21836 0.71648
 O299 O 0.53294 0.25276 0.29005
 O300 O 0.46695 0.20712 0.24740
 O301 O 0.53190 0.20776 0.24576
 O302 O 0.46799 0.25127 0.29286
 O303 O 0.46655 0.29060 0.25612
 O304 O 0.52979 0.24657 0.20852
 O305 O 0.46472 0.24635 0.21059
 O306 O 0.53113 0.29158 0.25279
 Cu307 Cu 0.50008 0.22581 0.27274
 Cu308 Cu 0.49775 0.27263 0.22822
 C309 C 0.54345 0.27984 0.27852
 C310 C 0.45450 0.21905 0.22177
 C311 C 0.54193 0.21988 0.21924
 C312 C 0.45654 0.27843 0.28264
 O313 O 1.03622 0.70994 0.75029
 O314 O 0.97016 0.75289 0.70549
 O315 O 1.03505 0.75322 0.70406
 O316 O 0.97124 0.71041 0.75232
 O317 O 0.97227 0.75075 0.78793
 O318 O 1.03630 0.79337 0.73987
 O319 O 0.97132 0.79328 0.74106
 O320 O 1.03740 0.74999 0.78622
 Cu321 Cu 1.00309 0.72757 0.72450
 Cu322 Cu 1.00447 0.77587 0.76738
 C323 C 1.04817 0.72261 0.77576
 C324 C 0.95940 0.78032 0.71564
 C325 C 1.04657 0.78058 0.71376
 C326 C 0.96069 0.72344 0.77822
 O327 O 0.53505 0.70723 0.25343
 O328 O 0.46963 0.75036 0.20745
 O329 O 0.53439 0.75254 0.20877
 O330 O 0.47001 0.70478 0.25151
 O331 O 0.46713 0.74351 0.28871
 O332 O 0.53267 0.79043 0.24686
 O333 O 0.46783 0.78888 0.24492
 O334 O 0.53218 0.74515 0.29141
 Cu335 Cu 0.50258 0.72485 0.22654
 Cu336 Cu 0.49982 0.77079 0.27180
 C337 C 0.54472 0.71886 0.28030
 C338 C 0.45753 0.77693 0.21842
 C339 C 0.54448 0.77963 0.22053
 C340 C 0.45719 0.71630 0.27709
 O341 O -0.03414 0.79116 0.25527
 O342 O 0.02773 0.74363 0.20948
 O343 O -0.03696 0.74546 0.21185
 O344 O 0.03090 0.78924 0.25354
 O345 O 0.03074 0.75148 0.29185
 O346 O -0.03614 0.70692 0.24942
 O347 O 0.02867 0.70604 0.24795
 O348 O -0.03453 0.75291 0.29311
 Cu349 Cu -0.00308 0.77124 0.22877
 Cu350 Cu -0.00281 0.72559 0.27449
 C351 C -0.04528 0.77993 0.28171
 C352 C 0.03880 0.71678 0.22092
 C353 C -0.04808 0.71871 0.22352
 C354 C 0.04253 0.77771 0.27969
 O355 O 0.53311 0.75298 0.79222
 O356 O 0.46711 0.70733 0.74956
 O357 O 0.53195 0.70696 0.74907
 O358 O 0.46793 0.75264 0.79383
 O359 O 0.46692 0.79055 0.75568
 O360 O 0.53153 0.74499 0.71100
 O361 O 0.46655 0.74524 0.71139
 O362 O 0.53205 0.79120 0.75436
 Cu363 Cu 0.50004 0.72623 0.77504
 Cu364 Cu 0.49917 0.77185 0.72931
 C365 C 0.54408 0.77971 0.78035
 C366 C 0.45563 0.71848 0.72318
 C367 C 0.54280 0.71823 0.72254
 C368 C 0.45628 0.77917 0.78232
 C369 C 0.36949 0.32889 0.32724
 C370 C 0.39545 0.34404 0.31332
 C371 C 0.42181 0.32650 0.29545
 C372 C 0.43103 0.29550 0.30181
 H373 H 0.39638 0.37065 0.31306
 H374 H 0.43464 0.34025 0.27682
 H375 H 0.36804 0.30231 0.32722
 H376 H 0.42014 0.28228 0.32189
 C377 C 0.37567 0.83389 0.83476
 C378 C 0.38623 0.83997 0.80457
 C379 C 0.41497 0.82355 0.78901
 C380 C 0.42968 0.79618 0.80017
 H381 H 0.37300 0.85757 0.78976
 H382 H 0.42306 0.83379 0.76619
 H383 H 0.38885 0.81635 0.84965
 H384 H 0.42135 0.78467 0.82223
 C385 C -0.12633 0.32811 0.83216
 C386 C -0.12360 0.29570 0.82673
 C387 C -0.09368 0.27998 0.81298
 C388 C -0.07323 0.29500 0.79213
 H389 H -0.14404 0.27950 0.83282
 H390 H -0.09015 0.25412 0.81828
 H391 H -0.10563 0.34414 0.82652
 H392 H -0.07810 0.32003 0.78456
 C393 C -0.12567 0.83422 0.33473
 C394 C -0.11490 0.80365 0.34141
 C395 C -0.08612 0.78756 0.32554
 C396 C -0.07153 0.79852 0.29848
 H397 H -0.12811 0.78885 0.35893
 H398 H -0.07804 0.76441 0.33586
 H399 H -0.11253 0.84911 0.31727
 H400 H -0.07986 0.82087 0.28693
 C401 C 0.63183 0.67151 0.32929
 C402 C 0.61269 0.65736 0.30654
 C403 C 0.58593 0.67468 0.28873
 C404 C 0.57093 0.70219 0.29907
 H405 H 0.61711 0.63223 0.29933
 H406 H 0.57775 0.66346 0.26639
 H407 H 0.62806 0.69721 0.33471
 H408 H 0.57758 0.71299 0.32202
 C409 C 0.62799 0.17064 0.82794
 C410 C 0.60841 0.19424 0.84034
 C411 C 0.58116 0.21079 0.82249
 C412 C 0.56769 0.19966 0.79495
 H413 H 0.61294 0.20298 0.86459
 H414 H 0.57171 0.23329 0.83303
 H415 H 0.62355 0.16179 0.80373
 H416 H 0.57568 0.17664 0.78452
 C417 C 1.12785 0.66954 0.83096
 C418 C 1.11805 0.70069 0.83612
 C419 C 1.08952 0.71663 0.81958
 C420 C 1.07510 0.70504 0.79267
 H421 H 1.13164 0.71587 0.85305
 H422 H 1.08127 0.73992 0.82938
 H423 H 1.11426 0.65424 0.81417
 H424 H 1.08370 0.68255 0.78163
 C425 C 1.13126 0.16959 0.32927
 C426 C 1.11081 0.19141 0.34343
 C427 C 1.08422 0.20945 0.32613
 C428 C 1.07031 0.19918 0.29850
 H429 H 1.11391 0.19762 0.36856
 H430 H 1.07515 0.23172 0.33744
 H431 H 1.12870 0.16519 0.30369
 H432 H 1.07780 0.17615 0.28768
 C433 C 0.63285 0.32396 0.67337
 C434 C 0.61033 0.33956 0.69176
 C435 C 0.58248 0.32283 0.70843
 C436 C 0.56958 0.29395 0.69904
 H437 H 0.61295 0.36569 0.69605
 H438 H 0.57180 0.33549 0.72893
 H439 H 0.63067 0.29774 0.66952
 H440 H 0.57869 0.28184 0.67758
 C441 C 0.63178 0.82649 0.17196
 C442 C 0.60764 0.80942 0.15704
 C443 C 0.58116 0.79121 0.17427
 C444 C 0.57040 0.79889 0.20392
 H445 H 0.60802 0.80718 0.13104
 H446 H 0.56950 0.77114 0.16130
 H447 H 0.63151 0.82883 0.19796
 H448 H 0.58018 0.82020 0.21635
 C449 C 1.12224 0.33170 0.16492
 C450 C 1.11488 0.29950 0.16318
 C451 C 1.08604 0.28399 0.17939
 C452 C 1.07105 0.29648 0.20553
 H453 H 1.13070 0.28311 0.14955
 H454 H 1.07852 0.26006 0.17053
 H455 H 1.10635 0.34761 0.17894
 H456 H 1.07953 0.31937 0.21597
 C457 C 1.13222 0.82909 0.66340
 C458 C 1.11147 0.84382 0.68430
 C459 C 1.08533 0.82632 0.70279
 C460 C 1.07229 0.79718 0.69431
 H461 H 1.11399 0.86974 0.68938
 H462 H 1.07586 0.83880 0.72395
 H463 H 1.13014 0.80286 0.65980
 H464 H 1.08015 0.78504 0.67241
 C465 C 0.36772 0.67146 0.67549
 C466 C 0.38907 0.69234 0.66117
 C467 C 0.41588 0.71004 0.67853
 C468 C 0.42916 0.69995 0.70655
 H469 H 0.38665 0.69796 0.63582
 H470 H 0.42571 0.73184 0.66689
 H471 H 0.36965 0.66769 0.70123
 H472 H 0.42091 0.67732 0.71773
 C473 C 0.37739 0.16396 0.16522
 C474 C 0.38342 0.19638 0.16347
 C475 C 0.41187 0.21287 0.17938
 C476 C 0.42770 0.20083 0.20533
 H477 H 0.36677 0.21199 0.14977
 H478 H 0.41849 0.23701 0.17034
 H479 H 0.39425 0.14818 0.17846
 H480 H 0.42017 0.17763 0.21583
 C481 C -0.12416 0.66594 0.16372
 C482 C -0.12162 0.69858 0.16764
 C483 C -0.09306 0.71483 0.18342
 C484 C -0.07524 0.70098 0.20715
 H485 H -0.14093 0.71447 0.15818
 H486 H -0.08815 0.74009 0.17655
 H487 H -0.10473 0.64996 0.17280
 H488 H -0.08156 0.67668 0.21592
 C489 C -0.12496 0.16594 0.66197
 C490 C -0.11428 0.15884 0.69189
 C491 C -0.08541 0.17460 0.70787
 C492 C -0.07048 0.20227 0.69767
 H493 H -0.12752 0.14084 0.70621
 H494 H -0.07744 0.16353 0.73037
 H495 H -0.11178 0.18394 0.64762
 H496 H -0.07863 0.21461 0.67597
 C497 C 0.32904 0.37653 0.32836
 C498 C 0.32938 0.38206 0.29642
 C499 C 0.31488 0.41138 0.28073
 C500 C 0.28980 0.42904 0.29313
 H501 H 0.34132 0.36459 0.28054
 H502 H 0.32394 0.41710 0.25677
 H503 H 0.31687 0.39388 0.34423
 H504 H 0.27881 0.42227 0.31602
 C505 C 0.33224 -0.12173 0.83425
 C506 C 0.29929 -0.11760 0.83065
 C507 C 0.28405 -0.08859 0.81516
 C508 C 0.29918 -0.07095 0.79212
 H509 H 0.28235 -0.13614 0.83973
 H510 H 0.25839 -0.08329 0.82133
 H511 H 0.34932 -0.10320 0.82543
 H512 H 0.32391 -0.07756 0.78398
 C513 C 0.82728 0.36937 0.82888
 C514 C 0.84296 0.38944 0.80804
 C515 C 0.82623 0.41644 0.79038
 C516 C 0.79811 0.43107 0.80030
 H517 H 0.86890 0.38564 0.80229
 H518 H 0.83834 0.42503 0.76860
 H519 H 0.80090 0.37273 0.83288
 H520 H 0.78656 0.42399 0.82282
 C521 C 0.82844 -0.12617 0.33064
 C522 C 0.81086 -0.10226 0.34503
 C523 C 0.79286 -0.07623 0.32721
 C524 C 0.80121 -0.06599 0.29754
 H525 H 0.80792 -0.10254 0.37097
 H526 H 0.77225 -0.06462 0.33962
 H527 H 0.83138 -0.12604 0.30470
 H528 H 0.82301 -0.07580 0.28563
 C529 C 0.32424 0.62711 0.67323
 C530 C 0.33861 0.60782 0.69563
 C531 C 0.32147 0.58040 0.71236
 C532 C 0.29308 0.56638 0.70216
 H533 H 0.36393 0.61262 0.70322
 H534 H 0.33322 0.57137 0.73417
 H535 H 0.29927 0.62151 0.66533
 H536 H 0.28154 0.57388 0.67978
 C537 C 0.33373 1.12010 0.16544
 C538 C 0.33657 1.11347 0.19708
 C539 C 0.32158 1.08459 0.21320
 C540 C 0.29497 1.06829 0.20194
 H541 H 0.35078 1.12981 0.21242
 H542 H 0.33180 1.07803 0.23652
 H543 H 0.31994 1.10350 0.15002
 H544 H 0.28316 1.07575 0.17964
 C545 C 0.83226 0.62153 0.16202
 C546 C 0.83928 0.61046 0.19181
 C547 C 0.82339 0.58164 0.20731
 C548 C 0.79567 0.56662 0.19670
 H549 H 0.85736 0.62330 0.20650
 H550 H 0.83435 0.57381 0.22995
 H551 H 0.81419 0.60866 0.14734
 H552 H 0.78339 0.57461 0.17485
 C553 C 0.83126 1.12182 0.66152
 C554 C 0.79831 1.11787 0.66525
 C555 C 0.78288 1.08869 0.68029
 C556 C 0.79772 1.07064 0.70324
 H557 H 0.78149 1.13673 0.65664
 H558 H 0.75716 1.08376 0.67399
 H559 H 0.84819 1.10294 0.66991
 H560 H 0.82249 1.07691 0.71160
 C561 C 0.67216 0.62440 0.33292
 C562 C 0.70492 0.62070 0.32766
 C563 C 0.71989 0.59081 0.31366
 C564 C 0.70404 0.57144 0.29251
 H565 H 0.72196 0.64030 0.33397
 H566 H 0.74593 0.58635 0.31901
 H567 H 0.65527 0.60453 0.32712
 H568 H 0.67887 0.57721 0.28495
 C569 C 0.66850 1.12582 0.83321
 C570 C 0.70128 1.11928 0.83312
 C571 C 0.71621 1.08956 0.81865
 C572 C 0.70199 1.07217 0.79487
 H573 H 0.71845 1.13644 0.84416
 H574 H 0.74123 1.08343 0.82644
 H575 H 0.65127 1.10883 0.82199
 H576 H 0.67799 1.07926 0.78523
 C577 C 0.17271 0.62878 0.82864
 C578 C 0.18867 0.60431 0.84391
 C579 C 0.20571 0.57718 0.82689
 C580 C 0.19678 0.56637 0.79759
 H581 H 0.19096 0.60485 0.86991
 H582 H 0.22599 0.56526 0.83959
 H583 H 0.17052 0.62833 0.80262
 H584 H 0.17518 0.57654 0.78553
 C585 C 0.17433 1.12486 0.33169
 C586 C 0.15945 1.10536 0.30976
 C587 C 0.17617 1.07788 0.29275
 C588 C 0.20504 1.06423 0.30203
 H589 H 0.13398 1.11013 0.30267
 H590 H 0.16379 1.06868 0.27135
 H591 H 0.19942 1.11931 0.33926
 H592 H 0.21731 1.07200 0.32395
 C593 C 0.67600 0.36804 0.67531
 C594 C 0.69481 0.39050 0.66007
 C595 C 0.71221 0.41772 0.67669
 C596 C 0.70240 0.43044 0.70495
 H597 H 0.69902 0.38828 0.63439
 H598 H 0.73360 0.42813 0.66444
 H599 H 0.67236 0.36987 0.70110
 H600 H 0.67995 0.42167 0.71657
 C601 C 0.67042 -0.12693 0.16838
 C602 C 0.70092 -0.11492 0.16198
 C603 C 0.71556 -0.08545 0.17758
 C604 C 0.70347 -0.07112 0.20428
 H605 H 0.71669 -0.12741 0.14476
 H606 H 0.73861 -0.07638 0.16730
 H607 H 0.65458 -0.11452 0.18556
 H608 H 0.68126 -0.08039 0.21585
 C609 C 0.16910 0.37148 0.16766
 C610 C 0.15290 0.39751 0.17981
 C611 C 0.16971 0.42376 0.19831
 C612 C 0.20119 0.43312 0.19272
 H613 H 0.12614 0.39935 0.17729
 H614 H 0.15503 0.43656 0.21624
 H615 H 0.19572 0.36940 0.17125
 H616 H 0.21520 0.42211 0.17321
 C617 C 0.17203 -0.12346 0.65930
 C618 C 0.20484 -0.11977 0.66438
 C619 C 0.22014 -0.08995 0.67825
 C620 C 0.20456 -0.07013 0.69914
 H621 H 0.22176 -0.13943 0.65808
 H622 H 0.24633 -0.08606 0.67319
 H623 H 0.15521 -0.10362 0.66523
 H624 H 0.17921 -0.07530 0.70648
 C625 C 0.32616 0.33385 0.37041
 C626 C 0.34037 0.31143 0.38991
 C627 C 0.32345 0.29530 0.41745
 C628 C 0.29504 0.30585 0.43094
 H629 H 0.36542 0.30306 0.38490
 H630 H 0.33533 0.27337 0.42685
 H631 H 0.30117 0.34241 0.37530
 H632 H 0.28325 0.32827 0.42283
 C633 C 0.33026 0.83140 -0.12566
 C634 C 0.31262 0.84699 -0.10281
 C635 C 0.29457 0.82975 -0.07673
 C636 C 0.30325 0.80005 -0.06552
 H637 H 0.30957 0.87340 -0.10411
 H638 H 0.27360 0.84252 -0.06613
 H639 H 0.33324 0.80497 -0.12453
 H640 H 0.32538 0.78791 -0.07443
 C641 C 0.82794 0.32654 -0.12744
 C642 C 0.80587 0.34193 -0.10830
 C643 C 0.78817 0.32589 -0.08115
 C644 C 0.79802 0.29782 -0.06707
 H645 H 0.79915 0.36722 -0.11309
 H646 H 0.76596 0.33813 -0.07247
 H647 H 0.83486 0.30154 -0.12192
 H648 H 0.82088 0.28588 -0.07425
 C649 C 0.83069 0.83463 0.37809
 C650 C 0.79774 0.83127 0.38237
 C651 C 0.78235 0.81690 0.41149
 C652 C 0.79729 0.79449 0.43029
 H653 H 0.78081 0.83989 0.36387
 H654 H 0.75659 0.82339 0.41601
 H655 H 0.84779 0.82618 0.39651
 H656 H 0.82213 0.78589 0.42468
 C657 C 0.67708 0.32631 0.63121
 C658 C 0.66070 0.30813 0.60930
 C659 C 0.67697 0.29135 0.58188
 C660 C 0.70610 0.30077 0.56900
 H661 H 0.63422 0.30396 0.61213
 H662 H 0.66367 0.27072 0.57151
 H663 H 0.70366 0.33001 0.62878
 H664 H 0.71881 0.32245 0.57783
 C665 C 0.67196 0.82990 1.12497
 C666 C 0.67498 0.79745 1.11996
 C667 C 0.68877 0.78276 1.09029
 C668 C 0.71186 0.79729 1.07179
 H669 H 0.66597 0.78040 1.13803
 H670 H 0.68111 0.75780 1.08493
 H671 H 0.68076 0.84706 1.10691
 H672 H 0.72174 0.82117 1.07828
 C673 C 0.16602 0.33104 1.12176
 C674 C 0.19608 0.33929 1.10986
 C675 C 0.21203 0.32316 1.08182
 C676 C 0.20238 0.29420 1.06943
 H677 H 0.21042 0.35878 1.12083
 H678 H 0.23405 0.33510 1.07226
 H679 H 0.15112 0.31327 1.10886
 H680 H 0.18114 0.28119 1.07912
 C681 C 0.17460 0.83144 0.61892
 C682 C 0.15967 0.80871 0.60035
 C683 C 0.17643 0.79083 0.57382
 C684 C 0.20518 0.80014 0.56004
 H685 H 0.13434 0.80129 0.60547
 H686 H 0.16432 0.76850 0.56570
 H687 H 0.19953 0.83926 0.61298
 H688 H 0.21715 0.82297 0.56664
 C689 C 0.32894 0.66711 0.62802
 C690 C 0.29634 0.67229 0.62293
 C691 C 0.28221 0.68462 0.59234
 C692 C 0.29860 0.70443 0.57195
 H693 H 0.27864 0.66680 0.64184
 H694 H 0.25618 0.67912 0.58792
 H695 H 0.34657 0.67221 0.60895
 H696 H 0.32375 0.71235 0.57736
 C697 C 0.33488 0.16232 1.12132
 C698 C 0.30264 0.15935 1.11309
 C699 C 0.28748 0.17470 1.08419
 C700 C 0.30031 0.20090 1.06890
 H701 H 0.28597 0.14539 1.12837
 H702 H 0.26330 0.16541 1.07692
 H703 H 0.35166 0.17593 1.10587
 H704 H 0.32343 0.21181 1.07700
 C705 C 0.83001 0.66614 1.12194
 C706 C 0.84633 0.68398 1.09970
 C707 C 0.82969 0.70235 1.07345
 C708 C 0.79934 0.69508 1.06198
 H709 H 0.87300 0.68723 1.10189
 H710 H 0.84341 0.72279 1.06322
 H711 H 0.80335 0.66272 1.11998
 H712 H 0.78603 0.67367 1.07060
 C713 C 0.82941 0.16986 0.62270
 C714 C 0.81146 0.15510 0.59954
 C715 C 0.79339 0.17322 0.57404
 C716 C 0.80214 0.20320 0.56355
 H717 H 0.80816 0.12869 0.60012
 H718 H 0.77234 0.16078 0.56313
 H719 H 0.83267 0.19628 0.62227
 H720 H 0.82437 0.21507 0.57266
 C721 C 0.67455 0.66927 0.37354
 C722 C 0.65870 0.69022 0.39333
 C723 C 0.67489 0.70741 0.42064
 C724 C 0.70339 0.69771 0.43464
 H725 H 0.63294 0.69653 0.38882
 H726 H 0.66239 0.72922 0.42946
 H727 H 0.70003 0.66270 0.37874
 H728 H 0.71553 0.67519 0.42736
 C729 C 0.67111 0.17402 -0.12836
 C730 C 0.68488 0.15855 -0.10306
 C731 C 0.70272 0.17582 -0.07688
 C732 C 0.69577 0.20667 -0.06780
 H733 H 0.68480 0.13194 -0.10225
 H734 H 0.72158 0.16198 -0.06402
 H735 H 0.67166 0.20060 -0.12963
 H736 H 0.67537 0.21992 -0.07891
 C737 C 0.17045 0.66888 -0.12463
 C738 C 0.20333 0.67066 -0.11901
 C739 C 0.21828 0.68490 -0.08958
 C740 C 0.20358 0.70812 -0.07162
 H741 H 0.22054 0.66081 -0.13660
 H742 H 0.24359 0.67756 -0.08406
 H743 H 0.15306 0.67859 -0.10714
 H744 H 0.17928 0.71751 -0.07820
 C745 C 0.17096 0.16609 0.37591
 C746 C 0.20357 0.17216 0.37969
 C747 C 0.21812 0.18688 0.40902
 C748 C 0.20204 0.20863 0.42763
 H749 H 0.22080 0.16596 0.36059
 H750 H 0.24416 0.18166 0.41366
 H751 H 0.15390 0.17179 0.39529
 H752 H 0.17690 0.21617 0.42166
 C753 C 0.33249 0.37878 0.66436
 C754 C 0.29973 0.38518 0.66245
 C755 C 0.28325 0.41316 0.67863
 C756 C 0.29545 0.42825 0.70485
 H757 H 0.28377 0.36920 0.64841
 H758 H 0.25888 0.42000 0.66959
 H759 H 0.34860 0.39499 0.67797
 H760 H 0.31885 0.42049 0.71536
 C761 C 0.33675 0.87800 0.16315
 C762 C 0.30415 0.88513 0.16096
 C763 C 0.28812 0.91357 0.17690
 C764 C 0.30095 0.92909 0.20259
 H765 H 0.28787 0.86917 0.14723
 H766 H 0.26350 0.92022 0.16839
 H767 H 0.35322 0.89410 0.17647
 H768 H 0.32465 0.92158 0.21259
 C769 C 0.83108 0.37255 0.16686
 C770 C 0.83819 0.38363 0.19662
 C771 C 0.82239 0.41268 0.21174
 C772 C 0.79393 0.42650 0.20149
 H773 H 0.85636 0.37083 0.21125
 H774 H 0.83411 0.42185 0.23350
 H775 H 0.81306 0.38545 0.15214
 H776 H 0.78093 0.41696 0.18067
 C777 C 0.82564 0.86990 0.67376
 C778 C 0.80652 0.89231 0.65880
 C779 C 0.78906 0.91927 0.67572
 C780 C 0.79877 0.93145 0.70426
 H781 H 0.80225 0.89034 0.63310
 H782 H 0.76779 0.92995 0.66350
 H783 H 0.82938 0.87144 0.69956
 H784 H 0.82108 0.92239 0.71592
 C785 C 0.67669 0.63148 0.67393
 C786 C 0.66067 0.60921 0.69214
 C787 C 0.67744 0.58184 0.70912
 C788 C 0.70674 0.56899 0.70006
 H789 H 0.63417 0.61182 0.69623
 H790 H 0.66447 0.57155 0.72969
 H791 H 0.70329 0.62930 0.67030
 H792 H 0.71913 0.57767 0.67851
 C793 C 0.66614 0.12273 0.16407
 C794 C 0.69914 0.11812 0.16661
 C795 C 0.71471 0.08862 0.18097
 C796 C 0.70022 0.07000 0.20367
 H797 H 0.71598 0.13676 0.15756
 H798 H 0.74038 0.08392 0.17437
 H799 H 0.64915 0.10413 0.17294
 H800 H 0.67549 0.07589 0.21232
 C801 C 0.16849 0.62972 0.16387
 C802 C 0.15541 0.61090 0.18733
 C803 C 0.17280 0.58338 0.20362
 C804 C 0.20253 0.57114 0.19500
 H805 H 0.13057 0.61613 0.19605
 H806 H 0.16001 0.57287 0.22420
 H807 H 0.19296 0.62427 0.15444
 H808 H 0.21566 0.58046 0.17418
 C809 C 0.17765 0.13183 0.66884
 C810 C 0.16190 0.10966 0.68742
 C811 C 0.17875 0.08232 0.70438
 C812 C 0.20823 0.06974 0.69557
 H813 H 0.13546 0.11232 0.69185
 H814 H 0.16564 0.07180 0.72475
 H815 H 0.20416 0.12959 0.66472
 H816 H 0.22084 0.07865 0.67424
 C817 C 0.33283 0.61979 0.33214
 C818 C 0.33921 0.61020 0.30176
 C819 C 0.32247 0.58241 0.28530
 C820 C 0.29366 0.56880 0.29490
 H821 H 0.35755 0.62329 0.28759
 H822 H 0.33380 0.57418 0.26302
 H823 H 0.31467 0.60650 0.34636
 H824 H 0.28103 0.57751 0.31626
 C825 C 0.32807 0.12735 0.82783
 C826 C 0.31124 0.10277 0.84201
 C827 C 0.29352 0.07685 0.82380
 C828 C 0.30236 0.06706 0.79414
 H829 H 0.30891 0.10226 0.86801
 H830 H 0.27295 0.06482 0.83592
 H831 H 0.33030 0.12796 0.80182
 H832 H 0.32425 0.07724 0.78262
 C833 C 0.82823 0.63334 0.82287
 C834 C 0.80942 0.61115 0.83850
 C835 C 0.79232 0.58341 0.82241
 C836 C 0.80256 0.56997 0.79462
 H837 H 0.80493 0.61403 0.86408
 H838 H 0.77075 0.57332 0.83461
 H839 H 0.83212 0.63086 0.79717
 H840 H 0.82516 0.57848 0.78309
 C841 C 0.83296 0.12160 0.33638
 C842 C 0.80020 0.11511 0.33775
 C843 C 0.78434 0.08656 0.32187
 C844 C 0.79702 0.07154 0.29584
 H845 H 0.78384 0.13142 0.35091
 H846 H 0.76007 0.07928 0.33079
 H847 H 0.84939 0.10495 0.32372
 H848 H 0.82025 0.07985 0.28540
 C849 C 0.66969 0.37357 0.33009
 C850 C 0.65412 0.39881 0.31567
 C851 C 0.67164 0.42381 0.29611
 C852 C 0.70319 0.43308 0.30160
 H853 H 0.62731 0.40090 0.31710
 H854 H 0.65734 0.43590 0.27737
 H855 H 0.69640 0.37118 0.32767
 H856 H 0.71690 0.42291 0.32178
 C857 C 0.66993 0.87315 0.83019
 C858 C 0.69361 0.89265 0.84288
 C859 C 0.71052 0.91965 0.82528
 C860 C 0.69982 0.93260 0.79735
 H861 H 0.70221 0.88824 0.86724
 H862 H 0.73294 0.92933 0.83632
 H863 H 0.66118 0.87747 0.80589
 H864 H 0.67690 0.92429 0.78635
 C865 C 0.17297 0.36531 0.82764
 C866 C 0.19132 0.38811 0.84292
 C867 C 0.20824 0.41552 0.82613
 C868 C 0.19776 0.42800 0.79796
 H869 H 0.19536 0.38610 0.86866
 H870 H 0.22969 0.42621 0.83805
 H871 H 0.16968 0.36688 0.80178
 H872 H 0.17522 0.41888 0.78674
 C873 C 0.16935 0.87182 0.33328
 C874 C 0.16602 0.87980 0.30203
 C875 C 0.18125 0.90907 0.28683
 C876 C 0.20794 0.92497 0.29854
 H877 H 0.15130 0.86425 0.28634
 H878 H 0.17104 0.91635 0.26370
 H879 H 0.18375 0.88748 0.34912
 H880 H 0.21975 0.91692 0.32064
 C881 C 0.37683 0.33561 0.66359
 C882 C 0.38378 0.33748 0.69523
 C883 C 0.41278 0.32159 0.71078
 C884 C 0.42854 0.29525 0.69877
 H885 H 0.36749 0.35124 0.71100
 H886 H 0.41969 0.33074 0.73439
 H887 H 0.39340 0.32228 0.64774
 H888 H 0.42067 0.28450 0.67615
 C889 C 0.38007 0.83392 0.16393
 C890 C 0.38640 0.83594 0.19566
 C891 C 0.41498 0.81997 0.21180
 C892 C 0.43093 0.79356 0.20016
 H893 H 0.36990 0.84997 0.21101
 H894 H 0.42152 0.82929 0.23544
 H895 H 0.39678 0.82029 0.14845
 H896 H 0.42349 0.78269 0.17747
 C897 C 0.87578 0.32939 0.16709
 C898 C 0.87998 0.29692 0.17094
 C899 C 0.90988 0.28186 0.18549
 C900 C 0.92891 0.29671 0.20773
 H901 H 0.86085 0.28020 0.16257
 H902 H 0.91466 0.25642 0.17932
 H903 H 0.89487 0.34627 0.17525
 H904 H 0.92288 0.32122 0.21604
 C905 C 0.86929 0.82645 0.67137
 C906 C 0.89176 0.84220 0.68976
 C907 C 0.91976 0.82572 0.70648
 C908 C 0.93241 0.79660 0.69761
 H909 H 0.88899 0.86831 0.69402
 H910 H 0.93070 0.83875 0.72666
 H911 H 0.87159 0.80026 0.66745
 H912 H 0.92300 0.78401 0.67652
 C913 C 0.62228 0.33440 0.33363
 C914 C 0.61548 0.30210 0.33583
 C915 C 0.58668 0.28586 0.32028
 C916 C 0.57050 0.29799 0.29460
 H917 H 0.63175 0.28620 0.34961
 H918 H 0.58001 0.26178 0.32943
 H919 H 0.60612 0.34995 0.31947
 H920 H 0.57797 0.32111 0.28391
 C921 C 0.62502 0.83233 0.83469
 C922 C 0.61861 0.79991 0.83533
 C923 C 0.58890 0.78441 0.82067
 C924 C 0.57150 0.79757 0.79624
 H925 H 0.63584 0.78345 0.84727
 H926 H 0.58277 0.75990 0.82903
 H927 H 0.60795 0.84882 0.82257
 H928 H 0.57859 0.82108 0.78612
 C929 C 0.12970 0.32146 0.82946
 C930 C 0.10766 0.33721 0.81057
 C931 C 0.08051 0.32070 0.79269
 C932 C 0.06763 0.29143 0.80081
 H933 H 0.11043 0.36336 0.80649
 H934 H 0.07046 0.33384 0.77213
 H935 H 0.12737 0.29523 0.83325
 H936 H 0.07601 0.27878 0.82229
 C937 C 0.12451 0.82909 0.33348
 C938 C 0.11654 0.79710 0.33566
 C939 C 0.08653 0.78222 0.32093
 C940 C 0.07041 0.79497 0.29548
 H941 H 0.13270 0.78053 0.34882
 H942 H 0.07903 0.75844 0.33023
 H943 H 0.10808 0.84576 0.32078
 H944 H 0.07879 0.81770 0.28459
 C945 C 0.63225 0.67419 0.67597
 C946 C 0.60950 0.69281 0.66074
 C947 C 0.58189 0.70983 0.67742
 C948 C 0.56920 0.69994 0.70570
 H949 H 0.61177 0.69707 0.63507
 H950 H 0.57128 0.73100 0.66532
 H951 H 0.63042 0.67051 0.70175
 H952 H 0.57824 0.67778 0.71720
 C953 C 0.62251 0.16696 0.16510
 C954 C 0.61228 0.16021 0.19523
 C955 C 0.58352 0.17608 0.21127
 C956 C 0.56841 0.20350 0.20070
 H957 H 0.62584 0.14251 0.20963
 H958 H 0.57581 0.16537 0.23400
 H959 H 0.60904 0.18466 0.15064
 H960 H 0.57634 0.21548 0.17874
 C961 C 0.12519 0.67372 0.16873
 C962 C 0.09840 0.68713 0.15458
 C963 C 0.07232 0.70491 0.17262
 C964 C 0.06406 0.69786 0.20318
 H965 H 0.09631 0.68676 0.12855
 H966 H 0.05882 0.72384 0.15969
 H967 H 0.12774 0.67458 0.19471
 H968 H 0.07567 0.67738 0.21555
 C969 C 0.13322 0.17446 0.67184
 C970 C 0.11008 0.19291 0.65704
 C971 C 0.08259 0.20963 0.67417
 C972 C 0.07015 0.19950 0.70251
 H973 H 0.11187 0.19725 0.63134
 H974 H 0.07165 0.23071 0.66219
 H975 H 0.13182 0.17071 0.69764
 H976 H 0.07939 0.17733 0.71385
 C977 C 0.37796 0.66269 0.33285
 C978 C 0.38180 0.69538 0.33040
 C979 C 0.41108 0.71159 0.31581
 C980 C 0.43009 0.69791 0.29290
 H981 H 0.36280 0.71144 0.34010
 H982 H 0.41548 0.73690 0.32276
 H983 H 0.39685 0.64639 0.32336
 H984 H 0.42453 0.67351 0.28398
 C985 C 0.37445 0.16623 0.83184
 C986 C 0.38501 0.19703 0.83762
 C987 C 0.41379 0.21264 0.82125
 C988 C 0.42741 0.20150 0.79380
 H989 H 0.37182 0.21217 0.85483
 H990 H 0.42280 0.23544 0.83156
 H991 H 0.38767 0.15096 0.81479
 H992 H 0.41799 0.17958 0.78223
 C993 C 0.87122 0.67766 0.82428
 C994 C 0.89380 0.66170 0.80626
 C995 C 0.92149 0.67804 0.78897
 C996 C 0.93426 0.70735 0.79720
 H997 H 0.89122 0.63548 0.80253
 H998 H 0.93206 0.66474 0.76881
 H999 H 0.87341 0.70395 0.82768
 H1000 H 0.92527 0.72019 0.81830
 C1001 C 0.87740 0.16457 0.33636
 C1002 C 0.88465 0.16191 0.30487
 C1003 C 0.91395 0.17720 0.28935
 C1004 C 0.93011 0.20339 0.30125
 H1005 H 0.86827 0.14806 0.28920
 H1006 H 0.92077 0.16775 0.26584
 H1007 H 0.89396 0.17800 0.35219
 H1008 H 0.92243 0.21442 0.32377
 C1009 C 0.33330 0.33694 0.62033
 C1010 C 0.33586 0.30505 0.61239
 C1011 C 0.32031 0.29011 0.58357
 C1012 C 0.29382 0.30273 0.56816
 H1013 H 0.34991 0.28858 0.62774
 H1014 H 0.32988 0.26634 0.57631
 H1015 H 0.31959 0.35354 0.60483
 H1016 H 0.28264 0.32548 0.57619
 C1017 C 0.33679 0.83458 0.12052
 C1018 C 0.33907 0.80241 0.11353
 C1019 C 0.32337 0.78680 0.08514
 C1020 C 0.29688 0.79928 0.06970
 H1021 H 0.35298 0.78626 0.12934
 H1022 H 0.33282 0.76288 0.07822
 H1023 H 0.32333 0.85085 0.10450
 H1024 H 0.28587 0.82221 0.07747
 C1025 C 0.82727 0.32713 0.12804
 C1026 C 0.84240 0.30932 0.10507
 C1027 C 0.82431 0.29194 0.07905
 C1028 C 0.79430 0.30112 0.06806
 H1029 H 0.86912 0.30592 0.10596
 H1030 H 0.83692 0.27128 0.06800
 H1031 H 0.80053 0.33048 0.12727
 H1032 H 0.78235 0.32297 0.07738
 C1033 C 0.82480 0.82856 0.62936
 C1034 C 0.84119 0.81059 0.60735
 C1035 C 0.82470 0.79330 0.58034
 C1036 C 0.79540 0.80237 0.56758
 H1037 H 0.86773 0.80673 0.61000
 H1038 H 0.83782 0.77237 0.57039
 H1039 H 0.79815 0.83189 0.62712
 H1040 H 0.78288 0.82432 0.57596
 C1041 C 0.33133 0.66269 0.37384
 C1042 C 0.34770 0.67918 0.39699
 C1043 C 0.33091 0.69704 0.42340
 C1044 C 0.30063 0.68929 0.43476
 H1045 H 0.37447 0.68195 0.39538
 H1046 H 0.34442 0.71749 0.43385
 H1047 H 0.30455 0.65993 0.37528
 H1048 H 0.28767 0.66772 0.42601
 C1049 C 0.33174 0.16554 0.87604
 C1050 C 0.29893 0.16804 0.88165
 C1051 C 0.28434 0.18186 0.91138
 C1052 C 0.29955 0.20425 0.93002
 H1053 H 0.28145 0.15920 0.86375
 H1054 H 0.25877 0.17508 0.91649
 H1055 H 0.34938 0.17431 0.89382
 H1056 H 0.32415 0.21319 0.92389
 C1057 C 0.82619 0.67627 0.86574
 C1058 C 0.84219 0.69460 0.88778
 C1059 C 0.82561 0.71152 0.91497
 C1060 C 0.79562 0.70321 0.92674
 H1061 H 0.86877 0.69846 0.88545
 H1062 H 0.83950 0.73126 0.92626
 H1063 H 0.79956 0.67267 0.86763
 H1064 H 0.78206 0.68251 0.91696
 C1065 C 0.83275 0.16573 0.37836
 C1066 C 0.83584 0.19792 0.38498
 C1067 C 0.82040 0.21438 0.41300
 C1068 C 0.79367 0.20281 0.42873
 H1069 H 0.85053 0.21343 0.36924
 H1070 H 0.83052 0.23817 0.41953
 H1071 H 0.81841 0.15007 0.39425
 H1072 H 0.78203 0.18000 0.42142
 C1073 C 0.66482 0.33533 0.37778
 C1074 C 0.69466 0.34363 0.39014
 C1075 C 0.71004 0.32779 0.41870
 C1076 C 0.69937 0.29960 0.43205
 H1077 H 0.70948 0.36260 0.37888
 H1078 H 0.73271 0.33902 0.42765
 H1079 H 0.64942 0.31808 0.39080
 H1080 H 0.67738 0.28724 0.42313
 C1081 C 0.67311 0.83088 0.87415
 C1082 C 0.65715 0.81787 0.89954
 C1083 C 0.67424 0.79978 0.92566
 C1084 C 0.70575 0.80564 0.93473
 H1085 H 0.63018 0.81832 0.90014
 H1086 H 0.65983 0.78115 0.93810
 H1087 H 0.70004 0.83002 0.87303
 H1088 H 0.71967 0.82567 0.92400
 C1089 C 0.17423 0.32348 0.87153
 C1090 C 0.15822 0.30496 0.89341
 C1091 C 0.17511 0.28818 0.92054
 C1092 C 0.20404 0.29830 0.93335
 H1093 H 0.13178 0.30045 0.89070
 H1094 H 0.16265 0.26686 0.93057
 H1095 H 0.20081 0.32738 0.87383
 H1096 H 0.21585 0.32060 0.92483
 C1097 C 0.16976 0.82741 0.37496
 C1098 C 0.20260 0.82895 0.38103
 C1099 C 0.21891 0.81332 0.40912
 C1100 C 0.20628 0.78752 0.42516
 H1101 H 0.21868 0.84261 0.36492
 H1102 H 0.24332 0.82262 0.41560
 H1103 H 0.15353 0.81419 0.39127
 H1104 H 0.18281 0.77672 0.41789
 C1105 C 0.67479 0.67566 0.63220
 C1106 C 0.69354 0.65985 0.61037
 C1107 C 0.71060 0.67644 0.58327
 C1108 C 0.70044 0.70497 0.57038
 H1109 H 0.69796 0.63373 0.61301
 H1110 H 0.73199 0.66394 0.57315
 H1111 H 0.67096 0.70190 0.62996
 H1112 H 0.67796 0.71678 0.57891
 C1113 C 0.66787 0.17131 0.12579
 C1114 C 0.68464 0.15666 0.10183
 C1115 C 0.70239 0.17483 0.07617
 C1116 C 0.69464 0.20544 0.06670
 H1117 H 0.68715 0.13016 0.10177
 H1118 H 0.72237 0.16179 0.06416
 H1119 H 0.66526 0.19779 0.12601
 H1120 H 0.67340 0.21808 0.07687
 C1121 C 0.16340 0.67051 0.12033
 C1122 C 0.16313 0.70284 0.11365
 C1123 C 0.17799 0.71771 0.08445
 C1124 C 0.20238 0.70370 0.06720
 H1125 H 0.15176 0.71979 0.13044
 H1126 H 0.17028 0.74257 0.07874
 H1127 H 0.17494 0.65353 0.10367
 H1128 H 0.21202 0.67980 0.07382
 C1129 C 0.17505 0.17643 0.62744
 C1130 C 0.19356 0.16099 0.60514
 C1131 C 0.21000 0.17808 0.57793
 C1132 C 0.19905 0.20647 0.56531
 H1133 H 0.19831 0.13491 0.60751
 H1134 H 0.23170 0.16625 0.56765
 H1135 H 0.17099 0.20266 0.62546
 H1136 H 0.17634 0.21761 0.57413
   
