data_POSCAR
  _audit_creation_date              2014-09-24
  _audit_creation_method            'ToBaCCo'
  _symmetry_space_group_name_H-M    'P1'
  _symmetry_Int_Tables_number       1
  _symmetry_cell_setting            triclinic
  loop_
  _symmetry_equiv_pos_as_xyz
 x,y,z
_cell_length_a 27.4751
_cell_length_b 27.6350
_cell_length_c 25.4495
_cell_angle_alpha 92.170400
_cell_angle_beta 88.953600
_cell_angle_gamma 89.022700
loop_
  _atom_site_label
  _atom_site_type_symbol
  _atom_site_fract_x
  _atom_site_fract_y
  _atom_site_fract_z
C1 C 0.16166 0.23598 0.25077
 C2 C 0.18019 0.27410 0.22213
 C3 C 0.20972 0.26451 0.17789
 C4 C 0.22261 0.21625 0.16322
 C5 C 0.20199 0.17911 0.19031
 C6 C 0.17168 0.18894 0.23388
 C7 C 0.13127 0.23407 0.29437
 N8 N 0.12301 0.18673 0.30379
 C9 C 0.14724 0.15904 0.26638
 C10 C 0.21710 0.13623 0.16671
 N11 N 0.24862 0.14570 0.12711
 C12 C 0.25253 0.19461 0.12435
 C13 C 0.21310 0.30732 0.15189
 N14 N 0.18692 0.34210 0.17968
 C15 C 0.16765 0.32230 0.22311
 H16 H 0.11631 0.26483 0.31720
 H17 H 0.14844 0.11987 0.26368
 H18 H 0.20771 0.10054 0.17939
 H19 H 0.27470 0.21290 0.09592
 H20 H 0.22884 0.31159 0.11306
 H21 H 0.14107 0.34009 0.24957
 C22 C -0.17161 0.81578 0.22570
 C23 C -0.16883 0.78477 0.18020
 C24 C -0.20527 0.78716 0.14333
 C25 C -0.24343 0.82091 0.14994
 C26 C -0.24529 0.85237 0.19325
 C27 C -0.21059 0.84819 0.23236
 C28 C -0.14564 0.81858 0.27188
 N29 N -0.16988 0.84953 0.30658
 C30 C -0.20951 0.86761 0.28262
 C31 C -0.28644 0.88106 0.18937
 N32 N -0.31031 0.86614 0.14562
 C33 C -0.28463 0.82892 0.12166
 C34 C -0.19750 0.75018 0.10666
 N35 N -0.15712 0.72504 0.11965
 C36 C -0.13897 0.74577 0.16442
 H37 H -0.11383 0.79700 0.28095
 H38 H -0.23597 0.89293 0.30057
 H39 H -0.29933 0.90889 0.21761
 H40 H -0.29467 0.80961 0.08575
 H41 H -0.22053 0.74118 0.07375
 H42 H -0.10822 0.73181 0.18551
 C43 C -0.19804 0.24868 -0.25926
 C44 C -0.20336 0.27390 -0.21053
 C45 C -0.23316 0.25613 -0.17138
 C46 C -0.25805 0.21270 -0.18058
 C47 C -0.25331 0.18864 -0.22902
 C48 C -0.22330 0.20658 -0.26836
 C49 C -0.16404 0.25150 -0.29956
 N50 N -0.16759 0.21148 -0.33208
 C51 C -0.20470 0.18458 -0.31372
 C52 C -0.27537 0.14484 -0.22541
 N53 N -0.29367 0.14112 -0.17587
 C54 C -0.28326 0.18260 -0.14798
 C55 C -0.22574 0.28404 -0.12633
 N56 N -0.19220 0.31801 -0.13716
 C57 C -0.17835 0.31197 -0.18851
 H58 H -0.13572 0.27812 -0.30150
 H59 H -0.21453 0.14906 -0.32890
 H60 H -0.27571 0.11696 -0.25637
 H61 H -0.29155 0.18969 -0.10664
 H62 H -0.24134 0.27798 -0.08784
 H63 H -0.15026 0.33213 -0.20789
 C64 C 0.16164 0.76675 -0.26081
 C65 C 0.17427 0.72415 -0.23551
 C66 C 0.21513 0.72285 -0.20452
 C67 C 0.24455 0.76362 -0.19968
 C68 C 0.23120 0.80611 -0.22306
 C69 C 0.18937 0.80772 -0.25377
 C70 C 0.12517 0.77795 -0.29492
 N71 N 0.12996 0.82478 -0.30866
 C72 C 0.16891 0.84337 -0.28311
 C73 C 0.26649 0.83950 -0.21172
 N74 N 0.30171 0.81767 -0.18364
 C75 C 0.28845 0.77127 -0.17600
 C76 C 0.21673 0.67834 -0.18192
 N77 N 0.17819 0.65262 -0.19906
 C78 C 0.15228 0.67994 -0.23223
 H79 H 0.09753 0.75343 -0.30888
 H80 H 0.18276 0.87950 -0.28713
 H81 H 0.26752 0.87621 -0.22507
 H82 H 0.30900 0.74490 -0.15467
 H83 H 0.24299 0.66608 -0.15391
 H84 H 0.11850 0.66932 -0.25027
 C85 C 0.26334 1.20413 0.72363
 C86 C 0.29916 1.20634 0.76193
 C87 C 0.28772 1.22465 0.81196
 C88 C 0.24100 1.24377 0.82324
 C89 C 0.20611 1.24406 0.78456
 C90 C 0.21670 1.22172 0.73491
 C91 C 0.26183 1.17653 0.67792
 N92 N 0.21506 1.17456 0.66182
 C93 C 0.18719 1.20300 0.69588
 C94 C 0.16432 1.26469 0.80731
 N95 N 0.17292 1.27546 0.85887
 C96 C 0.21932 1.26168 0.86914
 C97 C 0.32595 1.21282 0.84365
 N98 N 0.36021 1.18828 0.81365
 C99 C 0.34425 1.18429 0.76370
 H100 H 0.29187 1.15453 0.66186
 H101 H 0.14787 1.20607 0.69544
 H102 H 0.12985 1.27007 0.78820
 H103 H 0.23676 1.26601 0.90680
 H104 H 0.32716 1.21829 0.88596
 H105 H 0.36191 1.16267 0.73225
 C106 C 0.81624 0.85454 0.82309
 C107 C 0.78465 0.83953 0.86299
 C108 C 0.78746 0.79255 0.87990
 C109 C 0.82317 0.76036 0.85799
 C110 C 0.85292 0.77471 0.81707
 C111 C 0.84933 0.82208 0.79934
 C112 C 0.82238 0.89832 0.80005
 N113 N 0.85821 0.89325 0.76251
 C114 C 0.87454 0.84645 0.76142
 C115 C 0.88393 0.73653 0.80352
 N116 N 0.87525 0.69998 0.83653
 C117 C 0.83795 0.71415 0.86987
 C118 C 0.74892 0.78693 0.91470
 N119 N 0.72340 0.82947 0.91936
 C120 C 0.74541 0.86195 0.88850
 H121 H 0.80195 0.93132 0.81003
 H122 H 0.90382 0.83157 0.73640
 H123 H 0.91276 0.73676 0.77398
 H124 H 0.82305 0.69275 0.90089
 H125 H 0.73862 0.75375 0.93293
 H126 H 0.73153 0.89806 0.88181
 C127 C 0.22871 0.80495 1.26035
 C128 C 0.25668 0.80333 1.21311
 C129 C 0.25765 0.76137 1.18118
 C130 C 0.23125 0.72079 1.19542
 C131 C 0.20632 0.72179 1.24284
 C132 C 0.20536 0.76359 1.27534
 C133 C 0.21262 0.84198 1.29531
 N134 N 0.18079 0.82321 1.33070
 C135 C 0.17717 0.77519 1.31879
 C136 C 0.17798 0.68153 1.24361
 N137 N 0.18403 0.65629 1.19719
 C138 C 0.21710 0.67969 1.16745
 C139 C 0.28522 0.77006 1.13729
 N140 N 0.30216 0.81583 1.14153
 C141 C 0.28446 0.83682 1.18744
 H142 H 0.22136 0.87991 1.29324
 H143 H 0.15224 0.75073 1.33701
 H144 H 0.15082 0.67434 1.27350
 H145 H 0.22669 0.67006 1.12691
 H146 H 0.29292 0.74433 1.10501
 H147 H 0.29133 0.87356 1.20122
 C148 C 0.75460 1.16571 1.23849
 C149 C 0.71743 1.18099 1.20534
 C150 C 0.72446 1.22052 1.17461
 C151 C 0.76870 1.24511 1.17630
 C152 C 0.80596 1.22904 1.20757
 C153 C 0.79881 1.18902 1.23894
 C154 C 0.75680 1.13067 1.27538
 N155 N 0.80130 1.13188 1.29803
 C156 C 0.82746 1.16713 1.27538
 C157 C 0.84384 1.26078 1.20276
 N158 N 0.82993 1.29587 1.17009
 C159 C 0.78420 1.28670 1.15369
 C160 C 0.68335 1.22616 1.14512
 N161 N 0.65172 1.19054 1.15647
 C162 C 0.67209 1.16311 1.19386
 H163 H 0.72772 1.10648 1.28516
 H164 H 0.86379 1.17771 1.28624
 H165 H 0.87781 1.25999 1.22364
 H166 H 0.76324 1.30958 1.12854
 H167 H 0.67815 1.25291 1.11570
 H168 H 0.65615 1.13118 1.20990
 O169 O 0.54063 0.92280 0.93506
 O170 O 0.42159 0.96031 1.07553
 O171 O 0.57323 1.00644 1.07359
 O172 O 0.38488 0.96340 0.91485
 O173 O 0.50931 0.97026 1.10320
 O174 O 0.46086 0.93673 0.89977
 O175 O 0.41908 0.92854 0.99441
 O176 O 0.58475 0.95476 0.99575
 C177 C 0.57551 0.91977 0.96539
 C178 C 0.40977 0.92615 1.04311
 C179 C 0.55463 0.97312 1.09948
 C180 C 0.41570 0.93429 0.88893
 O181 O 0.48596 1.03248 0.88741
 O182 O 0.50481 1.06594 1.08972
 O183 O 0.61818 1.03527 0.98080
 O184 O 0.37698 1.01014 1.00816
 O185 O 0.41675 1.05710 1.06111
 O186 O 0.56882 1.01313 0.91574
 O187 O 0.41985 1.04518 0.93265
 O188 O 0.54689 1.08092 1.01776
 Co189 Co 0.51145 0.97879 0.91675
 Co190 Co 0.46515 1.01228 1.07558
 Co191 Co 0.56044 1.01667 1.00397
 Co192 Co 0.42444 0.98690 0.96341
 O193 O 0.48951 0.99896 0.99594
 C194 C 0.44861 1.05774 0.89768
 C195 C 0.53156 1.09388 1.06316
 C196 C 0.60796 1.03358 0.93039
 C197 C 0.37747 1.04499 1.04073
 O198 O 0.03859 0.47233 0.11138
 O199 O 0.05800 0.50821 -0.10867
 O200 O 0.01748 0.38210 -0.02357
 O201 O 0.07713 0.56271 0.04413
 O202 O 0.05705 0.42540 -0.07676
 O203 O 0.02157 0.55893 0.10105
 O204 O 0.08659 0.55652 -0.04873
 O205 O 0.06205 0.42354 0.04851
 C206 C 0.07005 0.44314 0.09204
 C207 C 0.08827 0.53867 -0.09422
 C208 C 0.05097 0.38565 -0.05661
 C209 C 0.06478 0.56609 0.09073
 O210 O -0.06439 0.54088 0.06367
 O211 O -0.04135 0.42931 -0.07973
 O212 O -0.02051 0.38630 0.07347
 O213 O -0.00599 0.58248 -0.06398
 O214 O -0.03440 0.51715 -0.10629
 O215 O -0.05660 0.45678 0.08912
 O216 O -0.01851 0.59694 0.03203
 O217 O -0.06252 0.42786 0.00195
 Co218 Co -0.01232 0.50558 0.08251
 Co219 Co 0.00957 0.47145 -0.08395
 Co220 Co 0.00024 0.42888 0.02563
 Co221 Co 0.03250 0.56815 -0.00747
 O222 O 0.01010 0.49532 -0.00095
 C223 C -0.05905 0.58351 0.05022
 C224 C -0.07228 0.42003 -0.04492
 C225 C -0.05225 0.41276 0.10147
 C226 C -0.03205 0.56261 -0.09926
 O227 O 1.06320 0.06969 0.47356
 O228 O 0.91205 0.06103 0.56110
 O229 O 0.94222 0.04280 0.40608
 O230 O 1.07002 0.07281 0.56654
 O231 O 0.89015 0.02947 0.47132
 O232 O 1.12369 0.02478 0.52603
 O233 O 0.98313 0.09611 0.56771
 O234 O 1.03440 0.04023 0.40116
 C235 C 1.05355 0.07458 0.42663
 C236 C 0.93744 0.09889 0.56815
 C237 C 0.90004 0.04643 0.42679
 C238 C 1.11446 0.05998 0.56042
 O239 O 1.06996 -0.04891 0.52983
 O240 O 0.90905 -0.06005 0.49631
 O241 O 1.02909 -0.05677 0.42112
 O242 O 0.96260 0.02369 0.62437
 O243 O 0.93580 -0.03615 0.58278
 O244 O 1.09140 -0.01702 0.44116
 O245 O 1.04443 -0.01537 0.60348
 O246 O 0.94102 -0.04933 0.41898
 Co247 Co 1.06447 0.01010 0.50205
 Co248 Co 0.91866 -0.00016 0.52714
 Co249 Co 0.98835 -0.00433 0.41982
 Co250 Co 1.01329 0.03979 0.58133
 O251 O 0.99204 0.00902 0.50391
 C252 C 1.06228 -0.05161 0.57799
 C253 C 0.91311 -0.07155 0.44855
 C254 C 1.07398 -0.05442 0.42137
 C255 C 0.94100 -0.01498 0.62536
 N256 N 1.06543 0.16337 0.42446
 N257 N 1.08392 0.19560 0.38853
 C258 C 1.09735 0.16923 0.34485
 C259 C 1.08643 0.12086 0.35087
 C260 C 1.06700 0.11884 0.40100
 H261 H 1.09369 0.09048 0.32365
 H262 H 1.05377 0.17258 0.46288
 H263 H 1.08964 0.23233 0.39673
 N264 N 0.83297 -0.10797 0.43807
 N265 N 0.80821 -0.12724 0.39506
 C266 C 0.84157 -0.14009 0.35745
 C267 C 0.88782 -0.12944 0.37496
 C268 C 0.88065 -0.10754 0.42487
 H269 H 0.92084 -0.12929 0.35108
 H270 H 0.81614 -0.08878 0.46977
 H271 H 0.77037 -0.12760 0.39195
 N272 N 0.93690 0.18754 0.58892
 N273 N 0.90653 0.21983 0.61816
 C274 C 0.86555 0.19604 0.63012
 C275 C 0.86795 0.14954 0.60720
 C276 C 0.91350 0.14525 0.58338
 H277 H 0.84315 0.12019 0.61315
 H278 H 0.97323 0.19388 0.57897
 H279 H 0.91695 0.25397 0.63225
 N280 N 1.05282 -0.13945 0.59003
 N281 N 1.07087 -0.17420 0.62329
 C282 C 1.10225 -0.15187 0.65595
 C283 C 1.10405 -0.10283 0.64541
 C284 C 1.07267 -0.09682 0.60405
 H285 H 1.12580 -0.07522 0.66439
 H286 H 1.02814 -0.14595 0.55994
 H287 H 1.06280 -0.21095 0.62045
 N288 N 0.29136 1.03776 1.06458
 N289 N 0.25504 1.06575 1.09002
 C290 C 0.27247 1.11066 1.09757
 C291 C 0.32011 1.11260 1.07823
 C292 C 0.33061 1.06570 1.05900
 H293 H 0.34486 1.14256 1.08168
 H294 H 0.28921 1.00063 1.05580
 H295 H 0.22104 1.05303 1.10149
 N296 N 0.41686 0.84678 0.86586
 N297 N 0.38272 0.81318 0.84889
 C298 C 0.34357 0.83831 0.83299
 C299 C 0.35133 0.88768 0.83945
 C300 C 0.39718 0.89134 0.86101
 H301 H 0.32533 0.91688 0.83422
 H302 H 0.44897 0.83814 0.88505
 H303 H 0.38741 0.77565 0.84971
 N304 N 0.57491 0.88669 1.09212
 N305 N 0.61496 0.85697 1.10110
 C306 C 0.64626 0.88352 1.12960
 C307 C 0.62822 0.93056 1.13829
 C308 C 0.58380 0.93100 1.11330
 H309 H 0.64641 0.96099 1.15678
 H310 H 0.54573 0.87701 1.06840
 H311 H 0.61868 0.82072 1.08833
 N312 N 0.64477 1.03208 0.84160
 N313 N 0.67202 1.06280 0.81116
 C314 C 0.68304 1.10169 0.84207
 C315 C 0.66438 1.09627 0.89275
 C316 C 0.64050 1.05239 0.89034
 H317 H 0.66510 1.12193 0.92589
 H318 H 0.62870 1.00025 0.82761
 H319 H 0.67942 1.05671 0.77109
 N320 N 0.12383 0.45170 0.16905
 N321 N 0.15714 0.42518 0.19191
 C322 C 0.16881 0.38661 0.16001
 C323 C 0.14209 0.38905 0.11445
 C324 C 0.11332 0.43048 0.12221
 H325 H 0.13817 0.36065 0.08459
 H326 H 0.10544 0.48108 0.18761
 H327 H 0.16780 0.43076 0.23082
 N328 N -0.15206 0.38312 -0.02386
 N329 N -0.18403 0.35564 -0.04848
 C330 C -0.17035 0.35064 -0.09956
 C331 C -0.12823 0.37628 -0.10800
 C332 C -0.11767 0.39598 -0.05888
 H333 H -0.10621 0.37737 -0.14360
 H334 H -0.15275 0.39107 0.01662
 H335 H -0.21341 0.33940 -0.02997
 N336 N 0.12511 0.53914 -0.18384
 N337 N 0.14876 0.57033 -0.21243
 C338 C 0.16347 0.60683 -0.18049
 C339 C 0.14846 0.59892 -0.12930
 C340 C 0.12357 0.55570 -0.13325
 H341 H 0.14914 0.62435 -0.09592
 H342 H 0.10672 0.50933 -0.19959
 H343 H 0.15164 0.56832 -0.25344
 N344 N -0.14556 0.61071 0.05267
 N345 N -0.17151 0.64843 0.07123
 C346 C -0.14105 0.68071 0.09327
 C347 C -0.09356 0.66355 0.08788
 C348 C -0.09825 0.61900 0.06158
 H349 H -0.06077 0.68016 0.10232
 H350 H -0.16014 0.57970 0.03476
 H351 H -0.20943 0.65115 0.07016
 N352 N 1.20104 0.08220 0.56443
 N353 N 1.22935 0.11528 0.59215
 C354 C 1.19918 0.14274 0.62385
 C355 C 1.15123 0.12857 0.61651
 C356 C 1.15435 0.09009 0.57965
 H357 H 1.11881 0.14208 0.63736
 H358 H 1.21463 0.05539 0.53781
 H359 H 1.26720 0.11658 0.58884
 N360 N 0.89213 0.00278 0.70651
 N361 N 0.86680 -0.02310 0.74383
 C362 C 0.87578 -0.07057 0.73291
 C363 C 0.90591 -0.07619 0.68830
 C364 C 0.91494 -0.02936 0.67302
 H365 H 0.91874 -0.10962 0.66884
 H366 H 0.89114 0.04043 0.70405
 H367 H 0.84624 -0.00736 0.77506
 N368 N 1.09262 -0.14096 0.42695
 N369 N 1.12305 -0.17560 0.40196
 C370 C 1.15208 -0.15271 0.36783
 C371 C 1.14206 -0.10295 0.37152
 C372 C 1.10388 -0.09767 0.40829
 H373 H 1.15686 -0.07519 0.34732
 H374 H 1.06450 -0.14833 0.45351
 H375 H 1.12128 -0.21260 0.40834
 N376 N 0.81316 0.05572 0.40518
 N377 N 0.78551 0.07775 0.36718
 C378 C 0.81594 0.10426 0.33830
 C379 C 0.86334 0.09938 0.35641
 C380 C 0.85988 0.06842 0.39807
 H381 H 0.89615 0.11480 0.34051
 H382 H 0.79975 0.03138 0.43209
 H383 H 0.74792 0.07442 0.36364
 N384 N 0.10762 0.32151 -0.02949
 N385 N 0.14417 0.29221 -0.05316
 C386 C 0.14124 0.29700 -0.10548
 C387 C 0.10421 0.32981 -0.11651
 C388 C 0.08484 0.34490 -0.06768
 H389 H 0.09500 0.34352 -0.15441
 H390 H 0.10170 0.32653 0.01096
 H391 H 0.16861 0.27064 -0.03306
 N392 N -0.13245 0.41480 0.14740
 N393 N -0.16447 0.38359 0.16420
 C394 C -0.14403 0.33906 0.16027
 C395 C -0.09706 0.34147 0.13988
 C396 C -0.09138 0.39050 0.13180
 H397 H -0.07242 0.31175 0.12865
 H398 H -0.13972 0.45178 0.14405
 H399 H -0.20001 0.39258 0.17668
 N400 N -0.04412 0.60033 -0.18426
 N401 N -0.06856 0.64111 -0.20178
 C402 C -0.09821 0.65798 -0.16221
 C403 C -0.09330 0.62914 -0.11889
 C404 C -0.05872 0.59391 -0.13429
 H405 H -0.10913 0.63547 -0.07992
 H406 H -0.01577 0.58181 -0.20472
 H407 H -0.06324 0.65568 -0.23865
 N408 N 0.08799 0.57437 0.18382
 N409 N 0.12092 0.59679 0.21229
 C410 C 0.15215 0.61858 0.17971
 C411 C 0.13922 0.60861 0.12792
 C412 C 0.09795 0.58075 0.13261
 H413 H 0.15406 0.62379 0.09261
 H414 H 0.05799 0.55677 0.19949
 H415 H 0.12005 0.59916 0.25332
 N416 N 0.46462 1.11452 0.82617
 N417 N 0.44105 1.15021 0.80398
 C418 C 0.40039 1.16097 0.83269
 C419 C 0.39758 1.13089 0.87476
 C420 C 0.43876 1.10153 0.86871
 H421 H 0.36727 1.12709 0.90198
 H422 H 0.49612 1.09744 0.81043
 H423 H 0.45119 1.16481 0.76823
 N424 N 0.37371 0.84514 1.03013
 N425 N 0.34457 0.81632 1.05569
 C426 C 0.33390 0.83698 1.10344
 C427 C 0.35762 0.88083 1.10885
 C428 C 0.38251 0.88446 1.06116
 H429 H 0.35592 0.90685 1.14172
 H430 H 0.38649 0.83827 0.99160
 H431 H 0.33170 0.78372 1.03981
 N432 N 0.55927 1.17873 1.06207
 N433 N 0.59255 1.20445 1.08684
 C434 C 0.60774 1.17990 1.12849
 C435 C 0.58195 1.13724 1.13098
 C436 C 0.55183 1.13774 1.08783
 H437 H 0.58924 1.10689 1.15549
 H438 H 0.54491 1.18730 1.02578
 H439 H 0.60697 1.23626 1.07276
 N440 N 0.59732 0.83276 0.94475
 N441 N 0.63821 0.80807 0.93368
 C442 C 0.67622 0.83699 0.94377
 C443 C 0.65879 0.88143 0.96337
 C444 C 0.60866 0.87750 0.96290
 H445 H 0.67930 0.91425 0.96913
 H446 H 0.56256 0.82043 0.93600
 H447 H 0.63980 0.77408 0.91430
   
