data_POSCAR
  _audit_creation_date              2014-09-24
  _audit_creation_method            'ToBaCCo'
  _symmetry_space_group_name_H-M    'P1'
  _symmetry_Int_Tables_number       1
  _symmetry_cell_setting            triclinic
  loop_
  _symmetry_equiv_pos_as_xyz
 x,y,z
_cell_length_a 40.4089
_cell_length_b 42.7784
_cell_length_c 25.3665
_cell_angle_alpha 90.501200
_cell_angle_beta 90.717000
_cell_angle_gamma 90.345400
loop_
  _atom_site_label
  _atom_site_type_symbol
  _atom_site_fract_x
  _atom_site_fract_y
  _atom_site_fract_z
C1 C 0.31770 0.22756 0.37161
 C2 C 0.32203 0.25919 0.37588
 C3 C 0.30723 0.27204 0.33167
 N4 N 0.29400 0.24926 0.30046
 C5 C 0.30126 0.22186 0.32406
 C6 C 0.30777 0.30421 0.31982
 C7 C 0.28766 0.31749 0.27977
 C8 C 0.29155 0.34737 0.25986
 C9 C 0.26568 0.35227 0.22546
 C10 C 0.24726 0.32485 0.22361
 N11 N 0.26078 0.30372 0.25681
 C12 C 0.21900 0.31998 0.19124
 C13 C 0.21004 0.29016 0.17093
 C14 C 0.19224 0.28557 0.12453
 C15 C 0.18974 0.25402 0.11680
 C16 C 0.20567 0.24004 0.15933
 N17 N 0.21868 0.26234 0.19186
 C18 C 0.20656 0.20739 0.16900
 C19 C 0.22444 0.19514 0.21273
 C20 C 0.21656 0.16765 0.23851
 C21 C 0.24064 0.16303 0.27608
 C22 C 0.26221 0.18830 0.27365
 N23 N 0.25182 0.20817 0.23556
 C24 C 0.29111 0.19188 0.30536
 H25 H 0.32464 0.21088 0.40152
 H26 H 0.33396 0.27137 0.40858
 H27 H 0.26462 0.22770 0.22210
 H28 H 0.31113 0.36405 0.26846
 H29 H 0.26198 0.37330 0.20287
 H30 H 0.18306 0.30316 0.09773
 H31 H 0.17781 0.24304 0.08300
 H32 H 0.24127 0.14379 0.30344
 H33 H 0.25036 0.28233 0.26691
 H34 H 0.19523 0.15266 0.23190
 C35 C 0.84356 0.22595 0.18089
 C36 C 0.83987 0.25708 0.17005
 C37 C 0.80670 0.26379 0.17700
 N38 N 0.78995 0.23784 0.19122
 C39 C 0.81242 0.21464 0.19333
 C40 C 0.79198 0.29293 0.16704
 C41 C 0.75980 0.30044 0.18405
 C42 C 0.74156 0.32590 0.16722
 C43 C 0.71312 0.32631 0.19654
 C44 C 0.71465 0.30087 0.23004
 N45 N 0.74317 0.28528 0.22217
 C46 C 0.69215 0.29451 0.27074
 C47 C 0.69069 0.26517 0.29587
 C48 C 0.67399 0.25891 0.34194
 C49 C 0.67713 0.22744 0.35063
 C50 C 0.69435 0.21513 0.30833
 N51 N 0.70308 0.23841 0.27539
 C52 C 0.70098 0.18295 0.29892
 C53 C 0.72733 0.17351 0.26578
 C54 C 0.73150 0.14354 0.24517
 C55 C 0.76087 0.14352 0.21857
 C56 C 0.77373 0.17350 0.22270
 N57 N 0.75323 0.19170 0.25145
 C58 C 0.80434 0.18296 0.20168
 H59 H 0.86650 0.21309 0.17920
 H60 H 0.85937 0.27296 0.15844
 H61 H 0.75833 0.21430 0.26492
 H62 H 0.74827 0.34280 0.13765
 H63 H 0.69391 0.34377 0.19412
 H64 H 0.66110 0.27514 0.36717
 H65 H 0.66805 0.21526 0.38477
 H66 H 0.77134 0.12373 0.19795
 H67 H 0.75253 0.26772 0.24612
 H68 H 0.71509 0.12359 0.24832
 C69 C 0.64823 0.76348 0.71810
 C70 C 0.65331 0.73182 0.71520
 C71 C 0.68580 0.72684 0.73097
 N72 N 0.70070 0.75437 0.74341
 C73 C 0.67774 0.77679 0.73578
 C74 C 0.70175 0.69753 0.73203
 C75 C 0.73256 0.69306 0.75759
 C76 C 0.75337 0.66800 0.74854
 C77 C 0.77951 0.67111 0.78349
 C78 C 0.77360 0.69766 0.81368
 N79 N 0.74506 0.71107 0.79723
 C80 C 0.79321 0.70810 0.85709
 C81 C 0.79149 0.73894 0.87691
 C82 C 0.80624 0.74936 0.92340
 C83 C 0.80214 0.78112 0.92511
 C84 C 0.78475 0.78921 0.87956
 N85 N 0.77842 0.76323 0.85032
 C86 C 0.77914 0.82008 0.86147
 C87 C 0.75474 0.82685 0.82202
 C88 C 0.74646 0.85657 0.80445
 C89 C 0.71962 0.85332 0.77118
 C90 C 0.71142 0.82185 0.76983
 N91 N 0.73265 0.80598 0.80117
 C92 C 0.68329 0.80919 0.74336
 H93 H 0.62529 0.77527 0.70886
 H94 H 0.63498 0.71451 0.70340
 H95 H 0.72960 0.78290 0.81225
 H96 H 0.75008 0.64945 0.71961
 H97 H 0.80038 0.65548 0.78624
 H98 H 0.81911 0.73563 0.95274
 H99 H 0.81141 0.79613 0.95648
 H100 H 0.70686 0.87227 0.75174
 H101 H 0.73283 0.72928 0.81607
 H102 H 0.75691 0.87885 0.81646
 C103 C 0.34872 0.75171 0.70456
 C104 C 0.34554 0.72025 0.69466
 C105 C 0.31201 0.71330 0.69708
 N106 N 0.29472 0.73933 0.70872
 C107 C 0.31713 0.76276 0.71343
 C108 C 0.29748 0.68381 0.68617
 C109 C 0.26403 0.67699 0.69713
 C110 C 0.24676 0.65138 0.67721
 C111 C 0.21665 0.65098 0.70174
 C112 C 0.21620 0.67645 0.73627
 N113 N 0.24519 0.69232 0.73260
 C114 C 0.19227 0.68180 0.77587
 C115 C 0.18811 0.71192 0.79957
 C116 C 0.16424 0.71975 0.83632
 C117 C 0.16748 0.75104 0.84648
 C118 C 0.19208 0.76214 0.81388
 N119 N 0.20458 0.73818 0.78520
 C120 C 0.20233 0.79394 0.81063
 C121 C 0.23087 0.80358 0.78291
 C122 C 0.23717 0.83417 0.76771
 C123 C 0.26702 0.83424 0.74272
 C124 C 0.27827 0.80372 0.74297
 N125 N 0.25614 0.78510 0.76758
 C126 C 0.30905 0.79428 0.72272
 H127 H 0.37166 0.76490 0.70555
 H128 H 0.36569 0.70444 0.68674
 H129 H 0.25963 0.76187 0.77783
 H130 H 0.25530 0.63427 0.64886
 H131 H 0.19784 0.63324 0.69535
 H132 H 0.14538 0.70516 0.85336
 H133 H 0.15300 0.76392 0.87477
 H134 H 0.27895 0.85450 0.72595
 H135 H 0.25368 0.70954 0.75869
 H136 H 0.22164 0.85443 0.77326
 O137 O 1.03792 -0.03519 -0.02579
 O138 O 0.98411 0.02565 0.03034
 O139 O 0.97460 -0.02506 -0.02441
 O140 O 1.04793 0.01539 0.03024
 O141 O 1.05176 0.04294 -0.04269
 O142 O 0.97847 0.00191 -0.09799
 O143 O 0.98816 0.05258 -0.04324
 O144 O 1.04136 -0.00823 -0.09945
 Cu145 Cu 1.01087 -0.00747 0.01006
 Cu146 Cu 1.01562 0.02511 -0.07812
 C147 C 1.04824 -0.03227 -0.07260
 C148 C 0.97663 0.04926 0.00266
 C149 C 0.96404 -0.01856 -0.07038
 C150 C 1.06214 0.03626 0.00334
 O151 O 0.48153 0.49386 0.41178
 O152 O 0.55004 0.54501 0.45636
 O153 O 0.54594 0.48811 0.41610
 O154 O 0.48604 0.54924 0.45250
 O155 O 0.48167 0.52823 0.53137
 O156 O 0.54416 0.46955 0.49699
 O157 O 0.54598 0.52613 0.53678
 O158 O 0.47977 0.47238 0.49060
 Cu159 Cu 0.51647 0.52093 0.42607
 Cu160 Cu 0.51273 0.49704 0.52192
 C161 C 0.46891 0.47454 0.44354
 C162 C 0.55909 0.54489 0.50444
 C163 C 0.55524 0.46845 0.45046
 C164 C 0.47326 0.54876 0.49796
 O165 O -0.03576 0.53968 0.02222
 O166 O 0.02821 0.48555 0.07274
 O167 O 0.03047 0.53895 0.02915
 O168 O -0.03440 0.48954 0.08368
 O169 O -0.03935 0.46347 0.00832
 O170 O 0.02598 0.51415 -0.04735
 O171 O 0.02255 0.45779 -0.00076
 O172 O -0.04066 0.51096 -0.05022
 Cu173 Cu -0.00319 0.51662 0.05811
 Cu174 Cu -0.00720 0.48480 -0.03053
 C175 C -0.04956 0.53398 -0.02229
 C176 C 0.03572 0.46199 0.04433
 C177 C 0.03948 0.53509 -0.01802
 C178 C -0.04786 0.46808 0.05598
 O179 O 0.52404 1.01538 0.44066
 O180 O 0.46141 0.95678 0.47750
 O181 O 0.45951 1.01349 0.43957
 O182 O 0.52552 0.95866 0.47835
 O183 O 0.52515 0.97834 0.55912
 O184 O 0.45951 1.03287 0.52059
 O185 O 0.46123 0.97613 0.55851
 O186 O 0.52316 1.03515 0.52137
 Cu187 Cu 0.49264 0.98417 0.45083
 Cu188 Cu 0.49222 1.00753 0.54803
 C189 C 0.53387 1.03552 0.47457
 C190 C 0.45114 0.95613 0.52456
 C191 C 0.44871 1.03284 0.47344
 C192 C 0.53615 0.95887 0.52566
 C193 C 1.18664 0.18752 0.13636
 C194 C 1.19230 0.15569 0.12722
 C195 C 1.16936 0.13656 0.09474
 N196 N 1.16905 0.10500 0.09958
 N197 N 1.14740 0.08757 0.07207
 C198 C 1.12551 0.10105 0.03826
 N199 N 1.12626 0.13254 0.03265
 N200 N 1.14768 0.14999 0.06054
 C201 C 1.10043 0.08236 0.00947
 C202 C 1.09064 0.05297 0.02682
 H203 H 1.21368 0.14423 0.14413
 H204 H 1.08717 0.09315 -0.02292
 H205 H 1.16609 0.19750 0.11486
 H206 H 1.10213 0.04325 0.06178
 C207 C 0.68538 0.66966 0.70778
 C208 C 0.67257 0.66950 0.65650
 C209 C 0.65402 0.64254 0.63459
 N210 N 0.64313 0.64285 0.58378
 N211 N 0.62504 0.61922 0.56419
 C212 C 0.61710 0.59441 0.59475
 N213 N 0.62808 0.59406 0.64550
 N214 N 0.64624 0.61764 0.66504
 C215 C 0.59557 0.56895 0.57473
 C216 C 0.58439 0.56757 0.52254
 H217 H 0.67549 0.69004 0.63228
 H218 H 0.58731 0.55150 0.60241
 H219 H 0.68491 0.64831 0.73042
 H220 H 0.59328 0.58453 0.49451
 C221 C -0.18899 0.31563 0.13548
 C222 C -0.18197 0.34572 0.15392
 C223 C -0.15862 0.36640 0.12676
 N224 N -0.14813 0.39329 0.15043
 N225 N -0.12595 0.41160 0.12725
 C226 C -0.11351 0.40374 0.07944
 N227 N -0.12428 0.37702 0.05550
 N228 N -0.14636 0.35865 0.07878
 C229 C -0.08840 0.42334 0.05398
 C230 C -0.07354 0.44864 0.08010
 H231 H -0.19216 0.35349 0.19107
 H232 H -0.08081 0.41720 0.01443
 H233 H -0.17679 0.30704 0.10048
 H234 H -0.08061 0.45427 0.12012
 C235 C 0.33325 0.81906 0.70925
 C236 C 0.34566 0.82156 0.65844
 C237 C 0.36501 0.84885 0.64159
 N238 N 0.37374 0.85158 0.59036
 N239 N 0.39068 0.87648 0.57425
 C240 C 0.39947 0.89959 0.60881
 N241 N 0.39081 0.89682 0.66007
 N242 N 0.37382 0.87195 0.67615
 C243 C 0.41882 0.92690 0.59201
 C244 C 0.42814 0.93114 0.53981
 H245 H 0.33940 0.80375 0.62929
 H246 H 0.42690 0.94356 0.62198
 H247 H 0.33761 0.83783 0.73748
 H248 H 0.42001 0.91458 0.50973
 C249 C -0.18104 0.68757 -0.11950
 C250 C -0.18619 0.65610 -0.10840
 C251 C -0.15992 0.63711 -0.08438
 N252 N -0.16065 0.60555 -0.08983
 N253 N -0.13641 0.58822 -0.06960
 C254 C -0.11075 0.60180 -0.04268
 N255 N -0.11033 0.63331 -0.03639
 N256 N -0.13438 0.65066 -0.05711
 C257 C -0.08354 0.58292 -0.02122
 C258 C -0.07668 0.55350 -0.04200
 H259 H -0.20950 0.64492 -0.11887
 H260 H -0.06760 0.59296 0.00920
 H261 H -0.15761 0.69823 -0.10809
 H262 H -0.09111 0.54471 -0.07529
 C263 C 0.30795 1.16437 0.32138
 C264 C 0.34100 1.16390 0.33851
 C265 C 0.35740 1.13548 0.35723
 N266 N 0.38367 1.13822 0.39072
 N267 N 0.39920 1.11294 0.40822
 C268 C 0.38929 1.08394 0.39238
 N269 N 0.36325 1.08114 0.35827
 N270 N 0.34738 1.10648 0.34131
 C271 C 0.40739 1.05622 0.41039
 C272 C 0.42479 1.05688 0.45810
 H273 H 0.35589 1.18498 0.33884
 H274 H 0.40752 1.03545 0.38567
 H275 H 0.29631 1.14178 0.31530
 H276 H 0.42192 1.07668 0.48456
 C277 C 1.18423 -0.18233 -0.16373
 C278 C 1.14979 -0.18040 -0.16536
 C279 C 1.13270 -0.15433 -0.13966
 N280 N 1.10477 -0.14243 -0.16160
 N281 N 1.08950 -0.11838 -0.13895
 C282 C 1.10137 -0.10569 -0.09316
 N283 N 1.12896 -0.11797 -0.07072
 N284 N 1.14452 -0.14170 -0.09380
 C285 C 1.08441 -0.07948 -0.06764
 C286 C 1.06748 -0.05733 -0.09719
 H287 H 1.13545 -0.19645 -0.18991
 H288 H 1.08636 -0.07685 -0.02519
 H289 H 1.19755 -0.16207 -0.14836
 H290 H 1.06861 -0.05821 -0.13984
 C291 C 0.66836 0.31929 0.28519
 C292 C 0.66989 0.33456 0.33390
 C293 C 0.64811 0.36094 0.34689
 N294 N 0.64695 0.37198 0.39714
 N295 N 0.62736 0.39583 0.40948
 C296 C 0.60835 0.40969 0.37193
 N297 N 0.60971 0.39882 0.32159
 N298 N 0.62916 0.37485 0.30931
 C299 C 0.58633 0.43589 0.38502
 C300 C 0.57897 0.44378 0.43699
 H301 H 0.68762 0.32693 0.36340
 H302 H 0.57440 0.44826 0.35299
 H303 H 0.65138 0.32745 0.25502
 H304 H 0.58949 0.43028 0.46893
 C305 C 0.79934 -0.15586 -0.11673
 C306 C 0.81534 -0.13346 -0.14731
 C307 C 0.84053 -0.11211 -0.12465
 N308 N 0.85749 -0.09250 -0.15642
 N309 N 0.88144 -0.07412 -0.13673
 C310 C 0.88931 -0.07475 -0.08452
 N311 N 0.87220 -0.09417 -0.05273
 N312 N 0.84824 -0.11248 -0.07240
 C313 C 0.91667 -0.05588 -0.06233
 C314 C 0.93501 -0.03512 -0.09247
 H315 H 0.81194 -0.13347 -0.18972
 H316 H 0.92303 -0.05904 -0.02111
 H317 H 0.80774 -0.15762 -0.07634
 H318 H 0.92827 -0.03120 -0.13333
 C319 C 0.33285 0.32377 0.34862
 C320 C 0.32665 0.35365 0.36831
 C321 C 0.35335 0.37279 0.39191
 N322 N 0.35285 0.40432 0.38693
 N323 N 0.37785 0.42180 0.40555
 C324 C 0.40405 0.40838 0.43043
 N325 N 0.40422 0.37691 0.43644
 N326 N 0.37944 0.35939 0.41713
 C327 C 0.43207 0.42741 0.44998
 C328 C 0.44095 0.45508 0.42522
 H329 H 0.30257 0.36413 0.36257
 H330 H 0.44724 0.41854 0.48196
 H331 H 0.35707 0.31373 0.35552
 H332 H 0.42771 0.46215 0.38992
 C333 C 0.17218 0.65623 -0.20897
 C334 C 0.16587 0.64937 -0.15630
 C335 C 0.14344 0.62411 -0.14008
 N336 N 0.13801 0.61971 -0.08805
 N337 N 0.11662 0.59807 -0.07223
 C338 C 0.09980 0.57993 -0.10780
 N339 N 0.10544 0.58410 -0.15994
 N340 N 0.12683 0.60584 -0.17582
 C341 C 0.07503 0.55691 -0.09030
 C342 C 0.06586 0.55551 -0.03759
 H343 H 0.17797 0.66294 -0.12528
 H344 H 0.06285 0.54198 -0.11938
 H345 H 0.16489 0.63866 -0.23774
 H346 H 0.07758 0.57119 -0.00914
 C347 C 0.68178 1.15896 0.32221
 C348 C 0.64887 1.16168 0.33806
 C349 C 0.63047 1.13478 0.35887
 N350 N 0.60405 1.13948 0.39038
 N351 N 0.58689 1.11530 0.40874
 C352 C 0.59527 1.08554 0.39569
 N353 N 0.62143 1.08084 0.36365
 N354 N 0.63886 1.10501 0.34587
 C355 C 0.57559 1.05879 0.41383
 C356 C 0.55688 1.06051 0.45946
 H357 H 0.63539 1.18322 0.33326
 H358 H 0.57609 1.03724 0.39111
 H359 H 0.69238 1.13586 0.32521
 H360 H 0.55882 1.08104 0.48466
 C361 C 0.19953 0.34770 0.17408
 C362 C 0.16501 0.34653 0.17262
 C363 C 0.14431 0.37251 0.15464
 N364 N 0.11311 0.36639 0.13711
 N365 N 0.09374 0.38937 0.12027
 C366 C 0.10469 0.41942 0.12095
 N367 N 0.13578 0.42568 0.13927
 N368 N 0.15536 0.40258 0.15554
 C369 C 0.08320 0.44464 0.10185
 C370 C 0.05891 0.43839 0.06376
 H371 H 0.15249 0.32495 0.18256
 H372 H 0.08734 0.46832 0.11598
 H373 H 0.21182 0.36951 0.16520
 H374 H 0.05746 0.41531 0.04589
 C375 C 0.65820 0.83164 0.72414
 C376 C 0.64926 0.83354 0.67104
 C377 C 0.62840 0.85907 0.65115
 N378 N 0.62139 0.86119 0.59883
 N379 N 0.60298 0.88455 0.58045
 C380 C 0.59100 0.90668 0.61378
 N381 N 0.59802 0.90453 0.66602
 N382 N 0.61640 0.88121 0.68436
 C383 C 0.57003 0.93230 0.59482
 C384 C 0.56069 0.93551 0.54206
 H385 H 0.65900 0.81672 0.64318
 H386 H 0.56055 0.94849 0.62397
 H387 H 0.64991 0.84947 0.75146
 H388 H 0.56991 0.91934 0.51270
 C389 C 0.82803 0.15830 0.18566
 C390 C 0.84253 0.15830 0.13607
 C391 C 0.86705 0.13507 0.11967
 N392 N 0.88145 0.13774 0.07192
 N393 N 0.90413 0.11730 0.05645
 C394 C 0.91331 0.09338 0.08819
 N395 N 0.89887 0.09064 0.13597
 N396 N 0.87619 0.11116 0.15151
 C397 C 0.93807 0.07045 0.07105
 C398 C 0.95393 0.07311 0.02279
 H399 H 0.83613 0.17652 0.10842
 H400 H 0.94341 0.05082 0.09640
 H401 H 0.83240 0.13897 0.21210
 H402 H 0.94863 0.09285 -0.00233
 C403 C 0.31803 0.65819 0.66452
 C404 C 0.33775 0.66190 0.62028
 C405 C 0.36080 0.63751 0.60291
 N406 N 0.37906 0.64175 0.55897
 N407 N 0.40103 0.62038 0.54411
 C408 C 0.40563 0.59407 0.57282
 N409 N 0.38734 0.58983 0.61669
 N410 N 0.36534 0.61114 0.63146
 C411 C 0.43034 0.57057 0.55801
 C412 C 0.44842 0.57237 0.51168
 H413 H 0.33712 0.68376 0.59903
 H414 H 0.43425 0.55114 0.58443
 H415 H 0.31658 0.63556 0.68322
 H416 H 0.44389 0.59119 0.48429
   
