data_POSCAR
  _audit_creation_date              2014-09-24
  _audit_creation_method            'ToBaCCo'
  _symmetry_space_group_name_H-M    'P1'
  _symmetry_Int_Tables_number       1
  _symmetry_cell_setting            triclinic
  loop_
  _symmetry_equiv_pos_as_xyz
 x,y,z
_cell_length_a 46.1572
_cell_length_b 46.1071
_cell_length_c 46.6183
_cell_angle_alpha 89.944900
_cell_angle_beta 89.934900
_cell_angle_gamma 89.950300
loop_
  _atom_site_label
  _atom_site_type_symbol
  _atom_site_fract_x
  _atom_site_fract_y
  _atom_site_fract_z
N1 N 0.29537 0.37576 1.35645
 N2 N 0.29712 0.35494 1.37573
 C3 C 0.27512 0.35779 1.39456
 C4 C 0.25900 0.38162 1.38653
 C5 C 0.27225 0.39256 1.36235
 H6 H 0.27103 0.34361 1.41261
 H7 H 0.26553 0.41123 1.34994
 Cu8 Cu 0.32777 0.32601 1.37400
 Cu9 Cu 0.32300 0.37934 1.32502
 Cu10 Cu 0.37788 0.32802 1.32163
 N11 N 0.35864 0.29730 1.37185
 N12 N 0.37821 0.29821 1.35130
 C13 C 0.39680 0.27590 1.35462
 C14 C 0.38832 0.26040 1.37848
 C15 C 0.36410 0.27435 1.38895
 H16 H 0.41498 0.27125 1.34069
 H17 H 0.35143 0.26813 1.40749
 N18 N 0.37390 0.35987 1.29358
 N19 N 0.35298 0.37940 1.29484
 C20 C 0.35596 0.39800 1.27268
 C21 C 0.37982 0.38968 1.25695
 C22 C 0.39073 0.36554 1.27060
 H23 H 0.34181 0.41615 1.26819
 H24 H 0.40945 0.35302 1.26413
 H25 H 0.33385 0.33578 1.32293
 H26 H 0.35725 0.35933 1.34578
 N27 N 1.20316 0.62552 0.85975
 N28 N 1.20134 0.64622 0.87910
 C29 C 1.22338 0.64328 0.89788
 C30 C 1.23963 0.61957 0.88969
 C31 C 1.22637 0.60880 0.86549
 H32 H 1.22745 0.65729 0.91603
 H33 H 1.23319 0.59029 0.85294
 Cu34 Cu 1.17055 0.67511 0.87748
 Cu35 Cu 1.17565 0.62190 0.82829
 Cu36 Cu 1.12073 0.67319 0.82505
 N37 N 1.13954 0.70376 0.87540
 N38 N 1.12012 0.70292 0.85476
 C39 C 1.10153 0.72524 0.85798
 C40 C 1.10980 0.74066 0.88193
 C41 C 1.13392 0.72664 0.89254
 H42 H 1.08352 0.72998 0.84392
 H43 H 1.14643 0.73274 0.91118
 N44 N 1.12479 0.64157 0.79694
 N45 N 1.14569 0.62201 0.79818
 C46 C 1.14277 0.60353 0.77598
 C47 C 1.11897 0.61197 0.76024
 C48 C 1.10804 0.63605 0.77393
 H49 H 1.15691 0.58538 0.77148
 H50 H 1.08936 0.64863 0.76750
 H51 H 1.16504 0.66514 0.82633
 H52 H 1.14165 0.64152 0.84916
 N53 N 0.70292 -0.12598 0.13966
 N54 N 0.70128 -0.14674 0.12037
 C55 C 0.72336 -0.14379 0.10162
 C56 C 0.73945 -0.12001 0.10977
 C57 C 0.72602 -0.10918 0.13388
 H58 H 0.72757 -0.15788 0.08355
 H59 H 0.73269 -0.09062 0.14641
 Cu60 Cu 0.67053 -0.17560 0.12187
 Cu61 Cu 0.67540 -0.12242 0.17111
 Cu62 Cu 0.62042 -0.17355 0.17420
 N63 N 0.63954 -0.20415 0.12392
 N64 N 0.61991 -0.20314 0.14441
 C65 C 0.60117 -0.22525 0.14102
 C66 C 0.60960 -0.24075 0.11717
 C67 C 0.63392 -0.22697 0.10675
 H68 H 0.58298 -0.22983 0.15495
 H69 H 0.64660 -0.23323 0.08823
 N70 N 0.62447 -0.14202 0.20245
 N71 N 0.64544 -0.12254 0.20130
 C72 C 0.64243 -0.10403 0.22348
 C73 C 0.61851 -0.11234 0.23913
 C74 C 0.60759 -0.13639 0.22540
 H75 H 0.65656 -0.08592 0.22801
 H76 H 0.58882 -0.14885 0.23175
 H77 H 0.66473 -0.16569 0.17293
 H78 H 0.64143 -0.14192 0.15014
 N79 N -0.20461 1.12497 -0.35597
 N80 N -0.20316 1.14613 -0.37487
 C81 C -0.22505 1.14322 -0.39377
 C82 C -0.24076 1.11899 -0.38619
 C83 C -0.22737 1.10787 -0.36219
 H84 H -0.22931 1.15758 -0.41163
 H85 H -0.23375 1.08885 -0.35015
 Cu86 Cu -0.17264 1.17518 -0.37293
 Cu87 Cu -0.17705 1.12122 -0.32464
 Cu88 Cu -0.12209 1.17251 -0.32126
 N89 N -0.14151 1.20359 -0.37108
 N90 N -0.12167 1.20233 -0.35087
 C91 C -0.10279 1.22431 -0.35443
 C92 C -0.11139 1.24002 -0.37810
 C93 C -0.13595 1.22649 -0.38822
 H94 H -0.08435 1.22859 -0.34078
 H95 H -0.14879 1.23294 -0.40654
 N96 N -0.12617 1.14066 -0.29322
 N97 N -0.14705 1.12111 -0.29450
 C98 C -0.14400 1.10243 -0.27242
 C99 C -0.12015 1.11072 -0.25673
 C100 C -0.10932 1.13492 -0.27031
 H101 H -0.15807 1.08424 -0.26796
 H102 H -0.09062 1.14740 -0.26384
 H103 H -0.16635 1.16466 -0.32188
 H104 H -0.14316 1.14140 -0.34519
 N105 N 0.70421 0.62631 0.64141
 N106 N 0.70296 0.64729 0.62230
 C107 C 0.72512 0.64421 0.60367
 C108 C 0.74079 0.62005 0.61165
 C109 C 0.72711 0.60918 0.63561
 H110 H 0.72968 0.65848 0.58581
 H111 H 0.73344 0.59036 0.64798
 Cu112 Cu 0.67256 0.67656 0.62404
 Cu113 Cu 0.67641 0.62292 0.67264
 Cu114 Cu 0.62157 0.67431 0.67552
 N115 N 0.64158 0.70519 0.62570
 N116 N 0.62159 0.70400 0.64582
 C117 C 0.60278 0.72602 0.64213
 C118 C 0.61154 0.74168 0.61851
 C119 C 0.63619 0.72811 0.60856
 H120 H 0.58424 0.73040 0.65566
 H121 H 0.64917 0.73456 0.59032
 N122 N 0.62531 0.64255 0.70366
 N123 N 0.64628 0.62304 0.70263
 C124 C 0.64308 0.60446 0.72475
 C125 C 0.61902 0.61274 0.74018
 C126 C 0.60821 0.63685 0.72642
 H127 H 0.65717 0.58632 0.72941
 H128 H 0.58937 0.64930 0.73267
 H129 H 0.64257 0.64326 0.65170
 H130 H 0.66563 0.66660 0.67504
 N131 N 0.79657 0.37609 0.14439
 N132 N 0.79865 0.35579 0.12468
 C133 C 0.77675 0.35893 0.10583
 C134 C 0.76034 0.38238 0.11429
 C135 C 0.77334 0.39283 0.13877
 H136 H 0.77289 0.34517 0.08745
 H137 H 0.76637 0.41112 0.15155
 Cu138 Cu 0.82952 0.32706 0.12570
 Cu139 Cu 0.82404 0.37917 0.17586
 Cu140 Cu 0.87867 0.32755 0.17894
 N141 N 0.85977 0.29777 0.12830
 N142 N 0.87897 0.29811 0.14913
 C143 C 0.89734 0.27566 0.14580
 C144 C 0.88910 0.26062 0.12165
 C145 C 0.86524 0.27501 0.11103
 H146 H 0.91527 0.27063 0.15988
 H147 H 0.85285 0.26924 0.09221
 N148 N 0.87479 0.35909 0.20718
 N149 N 0.85393 0.37871 0.20609
 C150 C 0.85695 0.39703 0.22841
 C151 C 0.88074 0.38843 0.24405
 C152 C 0.89161 0.36443 0.23018
 H153 H 0.84288 0.41518 0.23309
 H154 H 0.91028 0.35179 0.23652
 H155 H 0.85854 0.35965 0.15531
 H156 H 0.83462 0.33559 0.17713
 N157 N 0.29652 0.12387 0.85591
 N158 N 0.29858 0.14409 0.87569
 C159 C 0.27669 0.14089 0.89459
 C160 C 0.26028 0.11748 0.88607
 C161 C 0.27332 0.10711 0.86154
 H162 H 0.27285 0.15453 0.91306
 H163 H 0.26639 0.08884 0.84874
 Cu164 Cu 0.32956 0.17270 0.87482
 Cu165 Cu 0.32400 0.12076 0.82434
 Cu166 Cu 0.37864 0.17217 0.82140
 N167 N 0.35990 0.20191 0.87223
 N168 N 0.37908 0.20153 0.85133
 C169 C 0.39757 0.22384 0.85471
 C170 C 0.38944 0.23885 0.87895
 C171 C 0.36552 0.22456 0.88960
 H172 H 0.41552 0.22880 0.84061
 H173 H 0.35319 0.23031 0.90849
 N174 N 0.37472 0.14081 0.79302
 N175 N 0.35386 0.12123 0.79408
 C176 C 0.35689 0.10295 0.77173
 C177 C 0.38073 0.11151 0.75609
 C178 C 0.39157 0.13549 0.76998
 H179 H 0.34280 0.08484 0.76704
 H180 H 0.41025 0.14811 0.76366
 H181 H 0.35835 0.14006 0.84508
 H182 H 0.33441 0.16433 0.82341
 N183 N 0.20352 0.87433 0.35903
 N184 N 0.20184 0.85379 0.37857
 C185 C 0.22391 0.85691 0.39726
 C186 C 0.24004 0.88058 0.38880
 C187 C 0.22666 0.89116 0.36456
 H188 H 0.22811 0.84301 0.41548
 H189 H 0.23338 0.90959 0.35182
 Cu190 Cu 0.17126 0.82479 0.37714
 Cu191 Cu 0.17577 0.87761 0.32778
 Cu192 Cu 0.12105 0.82624 0.32479
 N193 N 0.14045 0.79603 0.37521
 N194 N 0.12098 0.79667 0.35461
 C195 C 0.10256 0.77429 0.35800
 C196 C 0.11100 0.75900 0.38196
 C197 C 0.13502 0.77318 0.39245
 H198 H 0.08454 0.76939 0.34402
 H199 H 0.14762 0.76716 0.41107
 N200 N 0.12490 0.85793 0.29666
 N201 N 0.14577 0.87751 0.29778
 C202 C 0.14272 0.89598 0.27556
 C203 C 0.11890 0.88752 0.25993
 C204 C 0.10806 0.86344 0.27371
 H205 H 0.15681 0.91412 0.27095
 H206 H 0.08940 0.85083 0.26733
 H207 H 0.14126 0.85763 0.34884
 H208 H 0.16472 0.83395 0.32609
 Zn209 Zn 0.00418 1.03648 -0.01449
 Zn210 Zn -0.02226 0.97752 -0.02130
 Zn211 Zn 0.03655 0.98410 0.00516
 Zn212 Zn -0.01583 1.00388 0.03715
 O213 O 0.00062 1.00046 0.00159
 O214 O -0.01533 1.03977 -0.04738
 O215 O -0.00368 0.94561 -0.03380
 O216 O 0.06493 1.00677 -0.00841
 O217 O -0.03490 0.99622 -0.05279
 O218 O 0.04087 1.04568 -0.02303
 O219 O 0.03967 0.95072 -0.01400
 O220 O 0.00674 0.99011 0.06530
 O221 O -0.05417 0.96482 -0.00307
 O222 O 0.04574 0.97560 0.04153
 O223 O -0.04913 0.98446 0.04003
 O224 O -0.02433 1.04060 0.04638
 O225 O -0.00934 1.06482 0.00806
 C226 C -0.03073 1.02200 -0.06137
 C227 C 0.02194 0.93669 -0.02937
 C228 C 0.06430 1.03172 -0.01984
 C229 C 0.03173 0.97872 0.06471
 C230 C -0.06309 0.96906 0.02232
 C231 C -0.02090 1.06412 0.03272
 Zn232 Zn 0.48414 0.00508 0.46193
 Zn233 Zn 0.47768 -0.02154 0.52031
 Zn234 Zn 0.53653 -0.01477 0.49377
 Zn235 Zn 0.50404 0.03748 0.51362
 O236 O 0.50057 0.00153 0.49744
 O237 O 0.45084 -0.01442 0.45909
 O238 O 0.49634 -0.05328 0.53289
 O239 O 0.54572 -0.02326 0.45736
 O240 O 0.44590 -0.03436 0.50211
 O241 O 0.50674 -0.00860 0.43371
 O242 O 0.53969 -0.04811 0.51301
 O243 O 0.54072 0.04662 0.52228
 O244 O 0.46485 -0.00304 0.55176
 O245 O 0.56487 0.00788 0.50738
 O246 O 0.48437 0.04056 0.54647
 O247 O 0.49049 0.06596 0.49114
 O248 O 0.47556 0.04186 0.45280
 C249 C 0.43694 -0.02999 0.47677
 C250 C 0.52199 -0.06211 0.52849
 C251 C 0.53171 -0.02006 0.43421
 C252 C 0.56418 0.03271 0.51901
 C253 C 0.46894 0.02271 0.56037
 C254 C 0.47892 0.06533 0.46651
 Zn255 Zn 0.98459 0.49491 0.53774
 Zn256 Zn 1.00463 0.46250 0.48602
 Zn257 Zn 0.97812 0.52153 0.47941
 Zn258 Zn 1.03699 0.51473 0.50581
 O259 O 1.00105 0.49845 0.50221
 O260 O 0.97597 0.45816 0.54683
 O261 O 0.98507 0.45947 0.45314
 O262 O 0.94631 0.53436 0.49767
 O263 O 0.99103 0.43402 0.50851
 O264 O 0.95134 0.51452 0.54072
 O265 O 0.96540 0.50305 0.44792
 O266 O 1.04004 0.54815 0.48670
 O267 O 1.04135 0.45334 0.47736
 O268 O 0.99667 0.55335 0.46693
 O269 O 1.06539 0.49215 0.49208
 O270 O 1.04619 0.52310 0.54220
 O271 O 1.00720 0.50847 0.56591
 C272 C 0.97938 0.43466 0.53313
 C273 C 0.96960 0.47732 0.43926
 C274 C 0.93742 0.53010 0.52307
 C275 C 1.02228 0.56221 0.47134
 C276 C 1.06478 0.46729 0.48053
 C277 C 1.03218 0.51987 0.56538
 Zn278 Zn 0.48462 0.49581 0.96278
 Zn279 Zn 0.53680 0.51572 0.99490
 Zn280 Zn 0.47782 0.52235 1.02113
 Zn281 Zn 0.50440 0.46335 1.01453
 O282 O 0.50088 0.49935 0.99838
 O283 O 0.50732 0.50958 0.93473
 O284 O 0.53976 0.54910 1.01407
 O285 O 0.44592 0.53491 1.00281
 O286 O 0.54614 0.52424 0.95857
 O287 O 0.45125 0.51518 0.95976
 O288 O 0.49626 0.55430 1.03361
 O289 O 0.48482 0.46021 1.04742
 O290 O 0.56515 0.49306 1.00857
 O291 O 0.46515 0.50378 1.05267
 O292 O 0.54109 0.45415 1.02312
 O293 O 0.49088 0.43494 0.99206
 O294 O 0.47619 0.45905 0.95358
 C295 C 0.53225 0.52104 0.93536
 C296 C 0.52191 0.56317 1.02933
 C297 C 0.43711 0.53055 0.97741
 C298 C 0.46937 0.47803 1.06134
 C299 C 0.56452 0.46812 1.02000
 C300 C 0.47945 0.43557 0.96736
 C301 C 1.18664 0.41275 0.42407
 C302 C 1.18501 0.44600 0.42372
 C303 C 1.16042 0.45679 0.43589
 C304 C 1.13984 0.43328 0.44723
 C305 C 1.15825 0.41504 0.46790
 C306 C 1.18287 0.40424 0.45572
 C307 C 1.15874 0.40261 0.40929
 C308 C 1.13415 0.41340 0.42146
 C309 C 1.21307 0.40124 0.41075
 C310 C 1.23470 0.39196 0.39948
 C311 C 1.11326 0.44502 0.46005
 C312 C 1.09122 0.45499 0.46986
 H313 H 1.20172 0.45985 0.41473
 H314 H 1.15608 0.47989 0.43732
 H315 H 1.15244 0.41096 0.49012
 H316 H 1.19816 0.39089 0.46751
 H317 H 1.15832 0.38818 0.39092
 H318 H 1.11268 0.40821 0.41350
 C319 C 0.31406 0.58728 0.92608
 C320 C 0.32115 0.55669 0.91516
 C321 C 0.34594 0.54542 0.92641
 C322 C 0.36126 0.56582 0.94750
 C323 C 0.33827 0.57324 0.97018
 C324 C 0.31345 0.58454 0.95891
 C325 C 0.34117 0.60535 0.91942
 C326 C 0.36597 0.59406 0.93068
 C327 C 0.28737 0.59923 0.91368
 C328 C 0.26553 0.60868 0.90300
 C329 C 0.38809 0.55361 0.95928
 C330 C 0.41038 0.54329 0.96809
 H331 H 0.30791 0.54496 0.89984
 H332 H 0.35390 0.52400 0.92076
 H333 H 0.34121 0.56986 0.99304
 H334 H 0.29516 0.59095 0.97213
 H335 H 0.34093 0.62523 0.90692
 H336 H 0.38698 0.60422 0.92777
 C337 C -0.18604 0.91226 0.07366
 C338 C -0.17847 0.94247 0.08520
 C339 C -0.15364 0.95365 0.07390
 C340 C -0.13879 0.93352 0.05219
 C341 C -0.16205 0.92696 0.02961
 C342 C -0.18691 0.91577 0.04091
 C343 C -0.15911 0.89365 0.07961
 C344 C -0.13427 0.90483 0.06831
 C345 C -0.21276 0.90035 0.08598
 C346 C -0.23463 0.89088 0.09657
 C347 C -0.11197 0.94571 0.04039
 C348 C -0.08974 0.95614 0.03159
 H349 H -0.19141 0.95406 0.10092
 H350 H -0.14535 0.97482 0.07992
 H351 H -0.15924 0.93076 0.00680
 H352 H -0.20542 0.91001 0.02776
 H353 H -0.15948 0.87353 0.09172
 H354 H -0.11338 0.89426 0.07067
 C355 C 0.68604 0.08685 0.57531
 C356 C 0.68137 0.09688 0.54424
 C357 C 0.65673 0.08617 0.53211
 C358 C 0.63922 0.06649 0.55225
 C359 C 0.63366 0.08486 0.57914
 C360 C 0.65826 0.09555 0.59126
 C361 C 0.68521 0.05360 0.57402
 C362 C 0.66059 0.04289 0.56190
 C363 C 0.71240 0.09838 0.58859
 C364 C 0.73386 0.10783 0.59992
 C365 C 0.61263 0.05487 0.53946
 C366 C 0.59060 0.04498 0.52967
 H367 H 0.69620 0.11097 0.53272
 H368 H 0.65044 0.09111 0.51021
 H369 H 0.61228 0.08895 0.58802
 H370 H 0.65796 0.10879 0.61050
 H371 H 0.70243 0.03968 0.58192
 H372 H 0.65672 0.01981 0.55945
 C373 C 0.42444 0.18773 0.41089
 C374 C 0.44271 0.17048 0.38928
 C375 C 0.45439 0.14575 0.40040
 C376 C 0.44667 0.14069 0.43204
 C377 C 0.41344 0.14142 0.43311
 C378 C 0.40176 0.16613 0.42201
 C379 C 0.44465 0.19310 0.43648
 C380 C 0.45634 0.16836 0.44760
 C381 C 0.41168 0.21430 0.39895
 C382 C 0.40085 0.23601 0.38926
 C383 C 0.45901 0.11399 0.44406
 C384 C 0.46851 0.09186 0.45415
 H385 H 0.44603 0.17702 0.36714
 H386 H 0.46771 0.13110 0.38779
 H387 H 0.40024 0.12407 0.44191
 H388 H 0.37856 0.16994 0.42129
 H389 H 0.44919 0.21442 0.44526
 H390 H 0.47087 0.16849 0.46590
 C391 C 0.92496 0.31247 0.58928
 C392 C 0.91142 0.34040 0.60118
 C393 C 0.92308 0.36507 0.58996
 C394 C 0.94716 0.35942 0.56791
 C395 C 0.93334 0.33953 0.54537
 C396 C 0.92168 0.31486 0.55660
 C397 C 0.95760 0.31557 0.59485
 C398 C 0.96927 0.34026 0.58361
 C399 C 0.91219 0.28595 0.60131
 C400 C 0.90128 0.26430 0.61105
 C401 C 0.95947 0.38607 0.55574
 C402 C 0.96897 0.40815 0.54554
 H403 H 0.89416 0.34077 0.61702
 H404 H 0.91582 0.38656 0.59620
 H405 H 0.93275 0.34440 0.52259
 H406 H 0.91111 0.29861 0.54343
 H407 H 0.97042 0.29976 0.60655
 H408 H 0.99207 0.34562 0.58571
 C409 C 0.07421 0.81377 -0.08595
 C410 C 0.07016 0.81265 -0.05328
 C411 C 0.05871 0.83741 -0.04202
 C412 C 0.05244 0.86091 -0.06453
 C413 C 0.03273 0.84622 -0.08667
 C414 C 0.04418 0.82143 -0.09793
 C415 C 0.09281 0.84081 -0.09138
 C416 C 0.08137 0.86557 -0.08014
 C417 C 0.08671 0.78708 -0.09794
 C418 C 0.09737 0.76521 -0.10750
 C419 C 0.04045 0.88772 -0.05234
 C420 C 0.03146 0.90997 -0.04205
 H421 H 0.07594 0.79410 -0.04011
 H422 H 0.05460 0.84001 -0.01922
 H423 H 0.01167 0.85456 -0.09296
 H424 H 0.03295 0.80859 -0.11393
 H425 H 0.11321 0.84054 -0.10299
 H426 H 0.09196 0.88650 -0.08213
 C427 C 0.57385 0.68623 1.08539
 C428 C 0.58612 0.67820 1.05583
 C429 C 0.57473 0.65337 1.04478
 C430 C 0.55217 0.63896 1.06435
 C431 C 0.52947 0.66261 1.07011
 C432 C 0.54088 0.68748 1.08119
 C433 C 0.57912 0.65938 1.10417
 C434 C 0.56773 0.63454 1.09311
 C435 C 0.58637 0.71295 1.09716
 C436 C 0.59711 0.73478 1.10662
 C437 C 0.54025 0.61212 1.05231
 C438 C 0.53133 0.58986 1.04204
 H439 H 0.60235 0.69089 1.04457
 H440 H 0.58119 0.64482 1.02404
 H441 H 0.50651 0.66011 1.06578
 H442 H 0.52768 0.70625 1.08637
 H443 H 0.59086 0.65982 1.12433
 H444 H 0.56972 0.61370 1.10380
 C445 C 0.41229 0.42614 1.18310
 C446 C 0.44325 0.41588 1.17662
 C447 C 0.45446 0.42720 1.15201
 C448 C 0.43364 0.44768 1.13623
 C449 C 0.42526 0.47074 1.15849
 C450 C 0.41403 0.45941 1.18314
 C451 C 0.39477 0.41850 1.15617
 C452 C 0.40600 0.42982 1.13154
 C453 C 0.40035 0.41368 1.20959
 C454 C 0.39084 0.40296 1.23125
 C455 C 0.44589 0.45956 1.10965
 C456 C 0.45637 0.46851 1.08767
 H457 H 0.45534 0.40109 1.19023
 H458 H 0.47617 0.42210 1.14456
 H459 H 0.42795 0.49389 1.15518
 H460 H 0.40707 0.47287 1.20096
 H461 H 0.37523 0.40543 1.15643
 H462 H 0.39606 0.42644 1.11071
 C463 C 0.58640 -0.07514 0.31272
 C464 C 0.59954 -0.04549 0.32009
 C465 C 0.58873 -0.03366 0.34468
 C466 C 0.56584 -0.05264 0.35947
 C467 C 0.58069 -0.08209 0.36402
 C468 C 0.59150 -0.09391 0.33945
 C469 C 0.55355 -0.07002 0.31189
 C470 C 0.54274 -0.05820 0.33645
 C471 C 0.59799 -0.08806 0.28631
 C472 C 0.60741 -0.09900 0.26474
 C473 C 0.55407 -0.04015 0.38599
 C474 C 0.54407 -0.03055 0.40793
 H475 H 0.61596 -0.03478 0.30720
 H476 H 0.59590 -0.01284 0.35287
 H477 H 0.58261 -0.09271 0.38472
 H478 H 0.60264 -0.11465 0.33912
 H479 H 0.53994 -0.07528 0.29364
 H480 H 0.51989 -0.05335 0.33924
 C481 C -0.08761 1.07415 -0.18305
 C482 C -0.09931 1.04385 -0.17578
 C483 C -0.08814 1.03252 -0.15111
 C484 C -0.06637 1.05260 -0.13618
 C485 C -0.08273 1.08125 -0.13172
 C486 C -0.09388 1.09257 -0.15635
 C487 C -0.05454 1.07069 -0.18367
 C488 C -0.04338 1.05937 -0.15903
 C489 C -0.09952 1.08661 -0.20952
 C490 C -0.10907 1.09737 -0.23113
 C491 C -0.05416 1.04067 -0.10961
 C492 C -0.04371 1.03164 -0.08765
 H493 H -0.11509 1.03238 -0.18876
 H494 H -0.09438 1.01137 -0.14294
 H495 H -0.08539 1.09169 -0.11102
 H496 H -0.10610 1.11270 -0.15674
 H497 H -0.04105 1.07668 -0.20182
 H498 H -0.02033 1.05571 -0.15609
 C499 C 1.08692 0.57486 0.68670
 C500 C 1.09826 0.58930 0.65922
 C501 C 1.08744 0.57745 0.63471
 C502 C 1.06632 0.55232 0.64005
 C503 C 1.04297 0.56487 0.65997
 C504 C 1.05379 0.57671 0.68448
 C505 C 1.09403 0.54251 0.68320
 C506 C 1.08320 0.53066 0.65866
 C507 C 1.09852 0.58776 0.71306
 C508 C 1.10793 0.59867 0.73463
 C509 C 1.05454 0.53983 0.61357
 C510 C 1.04453 0.53028 0.59165
 H511 H 1.11345 0.60726 0.65902
 H512 H 1.09337 0.58525 0.61352
 H513 H 1.01994 0.56448 0.65524
 H514 H 1.04003 0.58648 0.70073
 H515 H 1.10648 0.53002 0.69863
 H516 H 1.08636 0.50803 0.65307
 C517 C 0.81475 0.58717 0.57488
 C518 C 0.83231 0.56874 0.59607
 C519 C 0.85709 0.55761 0.58465
 C520 C 0.86192 0.56596 0.55313
 C521 C 0.86079 0.59923 0.55266
 C522 C 0.83597 0.61039 0.56410
 C523 C 0.80953 0.56730 0.54898
 C524 C 0.83434 0.55615 0.53754
 C525 C 0.78815 0.59912 0.58746
 C526 C 0.76647 0.60878 0.59828
 C527 C 0.88868 0.55373 0.54123
 C528 C 0.91086 0.54319 0.53239
 H529 H 0.82592 0.56488 0.61817
 H530 H 0.87194 0.54425 0.59698
 H531 H 0.87801 0.61283 0.54424
 H532 H 0.83192 0.63354 0.56545
 H533 H 0.78823 0.56242 0.54038
 H534 H 0.83432 0.54173 0.51914
 C535 C 0.68655 0.41398 1.07622
 C536 C 0.66762 0.39058 1.06221
 C537 C 0.64294 0.40121 1.05008
 C538 C 0.63962 0.43420 1.05314
 C539 C 0.66746 0.44697 1.04029
 C540 C 0.69214 0.43634 1.05243
 C541 C 0.66649 0.42940 1.09760
 C542 C 0.64184 0.44002 1.08548
 C543 C 0.71304 0.40262 1.08948
 C544 C 0.73467 0.39337 1.10069
 C545 C 0.61299 0.44581 1.04037
 C546 C 0.59095 0.45576 1.03060
 H547 H 0.67307 0.36767 1.06196
 H548 H 0.62723 0.38741 1.03944
 H549 H 0.66776 0.46304 1.02326
 H550 H 0.71359 0.44332 1.04579
 H551 H 0.67125 0.43178 1.12028
 H552 H 0.62547 0.45147 1.09780
 C553 C 0.18633 1.08595 -0.07596
 C554 C 0.18118 1.05368 -0.08215
 C555 C 0.15653 1.04305 -0.06999
 C556 C 0.13941 1.06572 -0.05284
 C557 C 0.13400 1.09066 -0.07401
 C558 C 0.15867 1.10130 -0.08616
 C559 C 0.18573 1.08850 -0.04312
 C560 C 0.16105 1.07785 -0.03095
 C561 C 0.21286 1.09730 -0.08922
 C562 C 0.23455 1.10652 -0.10038
 C563 C 0.11279 1.05408 -0.04007
 C564 C 0.09075 1.04409 -0.03036
 H565 H 0.19556 1.04037 -0.09507
 H566 H 0.14981 1.02063 -0.07248
 H567 H 0.11267 1.09919 -0.07903
 H568 H 0.15847 1.11894 -0.10160
 H569 H 0.20311 1.09793 -0.03054
 H570 H 0.15729 1.07812 -0.00796
 C571 C 0.31422 -0.08687 0.42527
 C572 C 0.30915 -0.06915 0.45271
 C573 C 0.33391 -0.05793 0.46413
 C574 C 0.36129 -0.06556 0.44699
 C575 C 0.35510 -0.05510 0.41634
 C576 C 0.33039 -0.06629 0.40493
 C577 C 0.33662 -0.11000 0.43367
 C578 C 0.36137 -0.09879 0.44509
 C579 C 0.28762 -0.09881 0.41275
 C580 C 0.26586 -0.10835 0.40204
 C581 C 0.38806 -0.05335 0.45882
 C582 C 0.41029 -0.04292 0.46757
 H583 H 0.28798 -0.06570 0.46229
 H584 H 0.33395 -0.04487 0.48349
 H585 H 0.36891 -0.04015 0.40463
 H586 H 0.32307 -0.06097 0.38344
 H587 H 0.33334 -0.13314 0.43087
 H588 H 0.37928 -0.11232 0.45210
 C589 C 0.57430 -0.18481 0.58508
 C590 C 0.59683 -0.16107 0.57932
 C591 C 0.58535 -0.13631 0.56820
 C592 C 0.55242 -0.13767 0.56389
 C593 C 0.54007 -0.14569 0.59343
 C594 C 0.55157 -0.17051 0.60458
 C595 C 0.55887 -0.18934 0.55627
 C596 C 0.54736 -0.16454 0.54513
 C597 C 0.58703 -0.21132 0.59707
 C598 C 0.59804 -0.23285 0.60688
 C599 C 0.54046 -0.11090 0.55173
 C600 C 0.53151 -0.08870 0.54133
 H601 H 0.61981 -0.16349 0.58364
 H602 H 0.59849 -0.11748 0.56308
 H603 H 0.52378 -0.13300 0.60461
 H604 H 0.54510 -0.17911 0.62530
 H605 H 0.55710 -0.21017 0.54559
 H606 H 0.53571 -0.16413 0.52492
 C607 C 1.07457 0.68488 0.41484
 C608 C 1.09066 0.67373 0.44144
 C609 C 1.07913 0.64903 0.45265
 C610 C 1.05263 0.63786 0.43616
 C611 C 1.06300 0.63455 0.40504
 C612 C 1.07454 0.65928 0.39383
 C613 C 1.04289 0.68820 0.42440
 C614 C 1.03134 0.66345 0.43563
 C615 C 1.08718 0.71144 0.40290
 C616 C 1.09791 0.73319 0.39329
 C617 C 1.04064 0.61111 0.44833
 C618 C 1.03171 0.58888 0.45864
 H619 H 1.10954 0.68425 0.45060
 H620 H 1.08810 0.63841 0.47145
 H621 H 1.06141 0.61453 0.39290
 H622 H 1.08289 0.66044 0.37208
 H623 H 1.03060 0.70818 0.42245
 H624 H 1.00916 0.66222 0.44331
 C625 C -0.07426 1.18680 0.08836
 C626 C -0.07596 1.16079 0.10886
 C627 C -0.06450 1.13596 0.09778
 C628 C -0.05247 1.13959 0.06729
 C629 C -0.03060 1.16456 0.06936
 C630 C -0.04206 1.18942 0.08045
 C631 C -0.08924 1.17664 0.06077
 C632 C -0.07778 1.15182 0.04970
 C633 C -0.08686 1.21337 0.10029
 C634 C -0.09766 1.23501 0.11008
 C635 C -0.04041 1.11280 0.05529
 C636 C -0.03112 1.09063 0.04517
 H637 H -0.08532 1.16179 0.13021
 H638 H -0.06406 1.11569 0.10964
 H639 H -0.00811 1.16288 0.06272
 H640 H -0.02940 1.20904 0.08329
 H641 H -0.10724 1.18796 0.05079
 H642 H -0.08600 1.14186 0.03025
 C643 C 0.42601 0.31276 0.91208
 C644 C 0.45188 0.32450 0.89491
 C645 C 0.46329 0.34936 0.90596
 C646 C 0.44771 0.36002 0.93308
 C647 C 0.44867 0.33424 0.95393
 C648 C 0.43726 0.30938 0.94289
 C649 C 0.40436 0.33800 0.91339
 C650 C 0.41575 0.36283 0.92443
 C651 C 0.41347 0.28614 0.90020
 C652 C 0.40270 0.26447 0.89047
 C653 C 0.45977 0.38685 0.94500
 C654 C 0.46913 0.40904 0.95503
 H655 H 0.46051 0.31418 0.87581
 H656 H 0.48169 0.36034 0.89633
 H657 H 0.45763 0.33537 0.97542
 H658 H 0.43646 0.28923 0.95492
 H659 H 0.38204 0.33652 0.90621
 H660 H 0.40318 0.38261 0.92671
 C661 C 0.58693 0.57569 0.81378
 C662 C 0.58852 0.54243 0.81464
 C663 C 0.57778 0.53070 0.83932
 C664 C 0.56651 0.55339 0.86067
 C665 C 0.54421 0.57127 0.84380
 C666 C 0.55494 0.58299 0.81916
 C667 C 0.60281 0.58579 0.84090
 C668 C 0.59208 0.57407 0.86555
 C669 C 0.59844 0.58851 0.78733
 C670 C 0.60785 0.59941 0.76574
 C671 C 0.55478 0.54103 0.88723
 C672 C 0.54473 0.53150 0.90916
 H673 H 0.59734 0.52926 0.79742
 H674 H 0.57741 0.50749 0.84325
 H675 H 0.52196 0.57452 0.85068
 H676 H 0.54188 0.59628 0.80492
 H677 H 0.62087 0.60086 0.84075
 H678 H 0.60096 0.57909 0.88652
 C679 C 0.41289 0.07518 0.68218
 C680 C 0.43688 0.05264 0.68716
 C681 C 0.44770 0.04110 0.66247
 C682 C 0.43349 0.05324 0.63522
 C683 C 0.43719 0.08624 0.63735
 C684 C 0.42638 0.09777 0.66202
 C685 C 0.39007 0.05951 0.66394
 C686 C 0.40091 0.04797 0.63923
 C687 C 0.40127 0.08778 0.70869
 C688 C 0.39183 0.09846 0.73037
 C689 C 0.44544 0.04119 0.60862
 C690 C 0.45586 0.03220 0.58665
 H691 H 0.44476 0.04640 0.70821
 H692 H 0.46482 0.02493 0.66236
 H693 H 0.44734 0.09943 0.62085
 H694 H 0.42732 0.12081 0.66669
 H695 H 0.36738 0.05781 0.66983
 H696 H 0.38750 0.03638 0.62395
 C697 C 0.08700 0.92419 0.18608
 C698 C 0.09097 0.95719 0.18396
 C699 C 0.08005 0.96888 0.15936
 C700 C 0.06624 0.94641 0.13932
 C701 C 0.04345 0.93086 0.15775
 C702 C 0.05437 0.91919 0.18232
 C703 C 0.10092 0.91202 0.15870
 C704 C 0.09001 0.92370 0.13412
 C705 C 0.09862 0.91145 0.21253
 C706 C 0.10795 0.90067 0.23420
 C707 C 0.05432 0.95875 0.11283
 C708 C 0.04418 0.96828 0.09094
 H709 H 0.10143 0.97022 0.20033
 H710 H 0.08116 0.99191 0.15464
 H711 H 0.02073 0.92918 0.15201
 H712 H 0.04099 0.90753 0.19764
 H713 H 0.11789 0.89569 0.15862
 H714 H 0.09762 0.91737 0.11298
 C715 C 0.91294 0.42471 0.31791
 C716 C 0.94311 0.41311 0.32562
 C717 C 0.95414 0.42467 0.35015
 C718 C 0.93393 0.44672 0.36461
 C719 C 0.90527 0.43046 0.36910
 C720 C 0.89424 0.41888 0.34455
 C721 C 0.91639 0.45782 0.31679
 C722 C 0.92743 0.46940 0.34136
 C723 C 0.90119 0.41209 0.29148
 C724 C 0.89176 0.40144 0.26981
 C725 C 0.94606 0.45880 0.39109
 C726 C 0.95655 0.46782 0.41300
 H727 H 0.95482 0.39722 0.31291
 H728 H 0.97530 0.41871 0.35844
 H729 H 0.89455 0.42829 0.38973
 H730 H 0.87408 0.40676 0.34415
 H731 H 0.91066 0.47099 0.29833
 H732 H 0.93114 0.49249 0.34397
   
