data_POSCAR
  _audit_creation_date              2014-09-24
  _audit_creation_method            'ToBaCCo'
  _symmetry_space_group_name_H-M    'P1'
  _symmetry_Int_Tables_number       1
  _symmetry_cell_setting            triclinic
  loop_
  _symmetry_equiv_pos_as_xyz
 x,y,z
_cell_length_a 36.4970
_cell_length_b 45.1509
_cell_length_c 37.2975
_cell_angle_alpha 90.025200
_cell_angle_beta 90.115500
_cell_angle_gamma 86.007400
loop_
  _atom_site_label
  _atom_site_type_symbol
  _atom_site_fract_x
  _atom_site_fract_y
  _atom_site_fract_z
C1 C 1.22707 0.22764 0.20672
 C2 C 1.25069 0.24795 0.18514
 C3 C 1.27126 0.26526 0.20610
 C4 C 1.26646 0.26062 0.24674
 C5 C 1.25394 0.20982 0.23133
 C6 C 1.27447 0.22700 0.25232
 C7 C 1.20414 0.24843 0.23177
 C8 C 1.22477 0.26566 0.25267
 H9 H 1.25006 0.24943 0.15607
 H10 H 1.28333 0.27463 0.26378
 H11 H 1.25547 0.18573 0.23314
 H12 H 1.17432 0.24960 0.23268
 C13 C 0.72786 -0.27307 0.20576
 C14 C 0.75130 -0.25271 0.18411
 C15 C 0.77172 -0.23529 0.20502
 C16 C 0.76700 -0.23985 0.24564
 C17 C 0.75484 -0.29075 0.23041
 C18 C 0.77522 -0.27339 0.25134
 C19 C 0.70480 -0.25235 0.23077
 C20 C 0.72534 -0.23502 0.25160
 H21 H 0.75059 -0.25123 0.15504
 H22 H 0.78378 -0.22571 0.26260
 H23 H 0.75630 -0.31482 0.23255
 H24 H 0.67499 -0.25147 0.23192
 C25 C 0.72834 0.22773 -0.29417
 C26 C 0.75043 0.24725 -0.31488
 C27 C 0.77205 0.26539 -0.29271
 C28 C 0.76747 0.26050 -0.25416
 C29 C 0.75412 0.21051 -0.27118
 C30 C 0.77567 0.22856 -0.24907
 C31 C 0.70621 0.24712 -0.27015
 C32 C 0.72787 0.26520 -0.24807
 H33 H 0.74931 0.24920 -0.34393
 H34 H 0.78436 0.27448 -0.23700
 H35 H 0.75548 0.18641 -0.26914
 H36 H 0.67634 0.24841 -0.26940
 C37 C 1.22802 -0.27229 -0.29372
 C38 C 1.25178 -0.25205 -0.31521
 C39 C 1.27221 -0.23477 -0.29411
 C40 C 1.26717 -0.23930 -0.25355
 C41 C 1.25474 -0.29012 -0.26894
 C42 C 1.27513 -0.27287 -0.24790
 C43 C 1.20496 -0.25149 -0.26885
 C44 C 1.22549 -0.23428 -0.24787
 H45 H 1.25141 -0.25065 -0.34429
 H46 H 1.28392 -0.22526 -0.23644
 H47 H 1.25631 -0.31420 -0.26712
 H48 H 1.17513 -0.25038 -0.26800
 C49 C 0.22903 0.22751 0.79515
 C50 C 0.25206 0.24620 0.81576
 C51 C 0.27366 0.26427 0.79384
 C52 C 0.26836 0.26038 0.75537
 C53 C 0.20593 0.24868 0.77052
 C54 C 0.22660 0.26588 0.74966
 C55 C 0.25509 0.20955 0.76984
 C56 C 0.27564 0.22676 0.74893
 H57 H 0.25143 0.24774 0.84484
 H58 H 0.28522 0.27435 0.73831
 H59 H 0.17610 0.24996 0.76965
 H60 H 0.25620 0.18549 0.76768
 C61 C 0.72762 0.72734 0.79395
 C62 C 0.74966 0.74685 0.81486
 C63 C 0.77142 0.76496 0.79288
 C64 C 0.76699 0.76004 0.75428
 C65 C 0.70563 0.74675 0.76976
 C66 C 0.72743 0.76479 0.74787
 C67 C 0.75348 0.71008 0.77117
 C68 C 0.77517 0.72809 0.74924
 H69 H 0.74842 0.74881 0.84391
 H70 H 0.78399 0.77399 0.73726
 H71 H 0.67577 0.74812 0.76884
 H72 H 0.75483 0.68598 0.76914
 C73 C 0.72796 0.22705 0.29391
 C74 C 0.75144 0.24742 0.31563
 C75 C 0.77182 0.26483 0.29477
 C76 C 0.76702 0.26027 0.25414
 C77 C 0.70485 0.24776 0.26888
 C78 C 0.72535 0.26509 0.24809
 C79 C 0.75490 0.20937 0.26931
 C80 C 0.77523 0.22673 0.24844
 H81 H 0.75080 0.24889 0.34470
 H82 H 0.78376 0.27442 0.23722
 H83 H 0.67504 0.24862 0.26764
 H84 H 0.75636 0.18530 0.26716
 C85 C 0.22747 0.72705 0.29336
 C86 C 0.25127 0.74738 0.31484
 C87 C 0.27166 0.76469 0.29381
 C88 C 0.26655 0.76003 0.25318
 C89 C 0.20434 0.74784 0.26839
 C90 C 0.22481 0.76507 0.24740
 C91 C 0.25415 0.70923 0.26864
 C92 C 0.27451 0.72639 0.24756
 H93 H 0.25079 0.74892 0.34391
 H94 H 0.28328 0.77403 0.23608
 H95 H 0.17451 0.74903 0.26761
 H96 H 0.25563 0.68514 0.26680
 N97 N 1.06266 0.02405 0.03723
 N98 N 1.08637 0.04452 0.04148
 N99 N 1.03464 -0.03569 0.06247
 N100 N 1.04159 -0.05581 0.08770
 N101 N 1.06004 -0.03798 0.03756
 N102 N 1.08493 -0.05968 0.04519
 N103 N 1.03721 0.02647 0.06203
 N104 N 1.04293 0.04868 0.08393
 C105 C 1.07375 0.05974 0.07072
 C106 C 1.07285 -0.07086 0.07635
 N107 N 0.92991 -0.02694 0.03711
 N108 N 0.90548 -0.04667 0.04276
 N109 N 0.95831 0.03306 0.06168
 N110 N 0.95429 0.05536 0.08447
 N111 N 0.93262 0.03526 0.03695
 N112 N 0.91031 0.05916 0.04237
 N113 N 0.95551 -0.02896 0.06197
 N114 N 0.94921 -0.05007 0.08513
 Mn115 Mn 0.99637 -0.00129 0.06243
 C116 C 0.91797 -0.06101 0.07279
 C117 C 0.92434 0.07156 0.07208
 N118 N 1.06002 -0.03802 -0.03968
 N119 N 1.08470 -0.05996 -0.04679
 N120 N 1.03737 0.02632 -0.06457
 N121 N 1.04307 0.04868 -0.08622
 N122 N 1.06269 0.02392 -0.03952
 N123 N 1.08624 0.04451 -0.04333
 N124 N 1.03475 -0.03580 -0.06482
 N125 N 1.04159 -0.05621 -0.08971
 Mn126 Mn 1.06168 -0.00710 -0.00112
 C127 C 1.07264 -0.07133 -0.07788
 C128 C 1.07372 0.05981 -0.07257
 N129 N 0.93261 0.03519 -0.04048
 N130 N 0.91006 0.05890 -0.04628
 N131 N 0.95554 -0.02918 -0.06522
 N132 N 0.94904 -0.05020 -0.08853
 N133 N 0.92991 -0.02707 -0.04049
 N134 N 0.90527 -0.04663 -0.04639
 N135 N 0.95835 0.03296 -0.06507
 N136 N 0.95407 0.05505 -0.08817
 Mn137 Mn 0.93076 0.00413 -0.00172
 Mn138 Mn 0.99648 -0.00143 -0.06533
 Cl139 Cl 0.99628 -0.00150 -0.00144
 C140 C 0.92393 0.07117 -0.07608
 C141 C 0.91763 -0.06100 -0.07642
 N142 N 1.06322 0.52372 0.54028
 N143 N 1.08659 0.54447 0.54403
 N144 N 1.03529 0.46402 0.56540
 N145 N 1.04232 0.44377 0.59046
 N146 N 1.06055 0.46179 0.54034
 N147 N 1.08541 0.44001 0.54769
 N148 N 1.03790 0.52612 0.56523
 N149 N 1.04341 0.54861 0.58675
 C150 C 1.07395 0.55982 0.57314
 C151 C 1.07346 0.42872 0.57883
 N152 N 0.93040 0.47288 0.54072
 N153 N 0.90571 0.45338 0.54656
 N154 N 0.95891 0.53285 0.56553
 N155 N 0.95455 0.55484 0.58878
 N156 N 0.93317 0.53513 0.54085
 N157 N 0.91054 0.55877 0.54673
 N158 N 0.95607 0.47073 0.56550
 N159 N 0.94955 0.44975 0.58880
 Mn160 Mn 0.99703 0.49842 0.56582
 C161 C 0.91810 0.43901 0.57661
 C162 C 0.92436 0.57095 0.57668
 N163 N 1.06047 0.46193 0.46308
 N164 N 1.08534 0.44022 0.45546
 N165 N 1.03770 0.52641 0.43866
 N166 N 1.04352 0.54855 0.41672
 N167 N 1.06318 0.52396 0.46353
 N168 N 1.08701 0.54432 0.45928
 N169 N 1.03505 0.46427 0.43809
 N170 N 1.04197 0.44419 0.41282
 Mn171 Mn 1.06219 0.49276 0.50182
 C172 C 1.07322 0.42910 0.42423
 C173 C 1.07442 0.55953 0.42997
 N174 N 0.93312 0.53528 0.46341
 N175 N 0.91074 0.55913 0.45787
 N176 N 0.95593 0.47107 0.43834
 N177 N 0.94961 0.44995 0.41515
 N178 N 0.93036 0.47308 0.46312
 N179 N 0.90592 0.45335 0.45739
 N180 N 0.95880 0.53308 0.43876
 N181 N 0.95470 0.55534 0.41592
 Mn182 Mn 0.93126 0.50412 0.50202
 Mn183 Mn 0.99682 0.49870 0.43808
 Cl184 Cl 0.99678 0.49842 0.50194
 C185 C 0.92471 0.57150 0.42819
 C186 C 0.91838 0.43902 0.42738
 N187 N 0.56622 0.02346 0.53937
 N188 N 0.58981 0.04407 0.54327
 N189 N 0.53836 -0.03621 0.56508
 N190 N 0.54549 -0.05621 0.59042
 N191 N 0.56365 -0.03858 0.54006
 N192 N 0.58862 -0.06022 0.54772
 N193 N 0.54087 0.02596 0.56427
 N194 N 0.54654 0.04838 0.58588
 C195 C 0.57722 0.05947 0.57240
 C196 C 0.57672 -0.07128 0.57902
 N197 N 0.43350 -0.02752 0.54003
 N198 N 0.40911 -0.04726 0.54570
 N199 N 0.46190 0.03255 0.56427
 N200 N 0.45766 0.05478 0.58716
 N201 N 0.43616 0.03465 0.53958
 N202 N 0.41364 0.05839 0.54510
 N203 N 0.45914 -0.02950 0.56485
 N204 N 0.45290 -0.05062 0.58803
 Mn205 Mn 0.50003 -0.00181 0.56502
 C206 C 0.42164 -0.06158 0.57571
 C207 C 0.42754 0.07083 0.57483
 N208 N 0.56330 -0.03894 0.46274
 N209 N 0.58794 -0.06090 0.45550
 N210 N 0.54041 0.02529 0.43769
 N211 N 0.54579 0.04763 0.41594
 N212 N 0.56590 0.02303 0.46258
 N213 N 0.58929 0.04373 0.45853
 N214 N 0.53782 -0.03679 0.43780
 N215 N 0.54443 -0.05727 0.41296
 Mn216 Mn 0.56512 -0.00785 0.50117
 C217 C 0.57558 -0.07236 0.42456
 C218 C 0.57644 0.05891 0.42932
 N219 N 0.43586 0.03430 0.46217
 N220 N 0.41319 0.05791 0.45624
 N221 N 0.45871 -0.03015 0.43772
 N222 N 0.45211 -0.05117 0.41446
 N223 N 0.43315 -0.02796 0.46249
 N224 N 0.40843 -0.04747 0.45669
 N225 N 0.46148 0.03197 0.43748
 N226 N 0.45701 0.05389 0.41417
 Mn227 Mn 0.43418 0.00339 0.50108
 Mn228 Mn 0.49959 -0.00243 0.43728
 Cl229 Cl 0.49969 -0.00225 0.50115
 C230 C 0.42688 0.07001 0.42625
 C231 C 0.42071 -0.06190 0.42667
 N232 N 0.56523 0.52292 0.03660
 N233 N 0.58863 0.54363 0.04069
 N234 N 0.53744 0.46307 0.06152
 N235 N 0.54413 0.44261 0.08636
 N236 N 0.56286 0.46093 0.03661
 N237 N 0.58753 0.43899 0.04388
 N238 N 0.53982 0.52517 0.06147
 N239 N 0.54526 0.54751 0.08324
 C240 C 0.57586 0.55881 0.06990
 C241 C 0.57527 0.42754 0.07481
 N242 N 0.43270 0.47158 0.03671
 N243 N 0.40805 0.45205 0.04256
 N244 N 0.46088 0.53165 0.06159
 N245 N 0.45632 0.55354 0.08493
 N246 N 0.43517 0.53385 0.03689
 N247 N 0.41233 0.55735 0.04286
 N248 N 0.45833 0.46952 0.06152
 N249 N 0.45184 0.44857 0.08486
 Mn250 Mn 0.49911 0.49734 0.06191
 C251 C 0.42045 0.43775 0.07266
 C252 C 0.42603 0.56953 0.07287
 N253 N 0.56299 0.46108 -0.04068
 N254 N 0.58804 0.43950 -0.04825
 N255 N 0.53992 0.52550 -0.06515
 N256 N 0.54553 0.54784 -0.08687
 N257 N 0.56533 0.52314 -0.04019
 N258 N 0.58887 0.54376 -0.04416
 N259 N 0.53763 0.46330 -0.06574
 N260 N 0.54479 0.44325 -0.09102
 Mn261 Mn 0.56445 0.49193 -0.00190
 C262 C 0.57612 0.42832 -0.07953
 C263 C 0.57622 0.55903 -0.07339
 N264 N 0.43530 0.53397 -0.04051
 N265 N 0.41305 0.55793 -0.04575
 N266 N 0.45836 0.46977 -0.06564
 N267 N 0.45202 0.44864 -0.08884
 N268 N 0.43279 0.47178 -0.04085
 N269 N 0.40837 0.45203 -0.04655
 N270 N 0.46094 0.53186 -0.06520
 N271 N 0.45691 0.55430 -0.08780
 Mn272 Mn 0.43350 0.50282 -0.00196
 Mn273 Mn 0.49917 0.49759 -0.06584
 Cl274 Cl 0.49902 0.49734 -0.00196
 C275 C 0.42700 0.57045 -0.07531
 C276 C 0.42078 0.43768 -0.07656
 C277 C 1.09625 0.12204 0.13326
 C278 C 1.12832 0.13138 0.11761
 C279 C 1.14187 0.11787 0.08610
 C280 C 1.12375 0.09481 0.07056
 C281 C 1.20487 0.20861 0.18491
 C282 C 1.07805 0.09896 0.11773
 C283 C 1.14839 0.15375 0.13480
 C284 C 1.16582 0.17180 0.14978
 C285 C 1.18673 0.19208 0.16819
 C286 C 1.09187 0.08494 0.08643
 H287 H 1.08562 0.13229 0.15774
 H288 H 1.16674 0.12486 0.07385
 H289 H 1.13495 0.08448 0.04638
 H290 H 1.05351 0.09184 0.13046
 C291 C 1.09646 0.62270 0.63457
 C292 C 1.12806 0.63223 0.61818
 C293 C 1.14113 0.61877 0.58651
 C294 C 1.12308 0.59548 0.57154
 C295 C 1.20584 0.70882 0.68446
 C296 C 1.07831 0.59939 0.61960
 C297 C 1.14838 0.65454 0.63496
 C298 C 1.16614 0.67245 0.64965
 C299 C 1.18746 0.69248 0.66783
 C300 C 1.09176 0.58536 0.58818
 H301 H 1.08626 0.63293 0.65921
 H302 H 1.16566 0.62592 0.57374
 H303 H 1.13395 0.58513 0.54723
 H304 H 1.05419 0.59205 0.63288
 C305 C 0.59935 0.12253 0.63396
 C306 C 0.63129 0.13192 0.61808
 C307 C 0.64487 0.11816 0.58673
 C308 C 0.62692 0.09483 0.57158
 C309 C 0.70738 0.20971 0.68498
 C310 C 0.58133 0.09919 0.61883
 C311 C 0.65123 0.15453 0.63495
 C312 C 0.66853 0.17276 0.64977
 C313 C 0.68932 0.19316 0.66814
 C314 C 0.59519 0.08493 0.58770
 H315 H 0.58870 0.13296 0.65833
 H316 H 0.66964 0.12517 0.57430
 H317 H 0.63814 0.08432 0.54752
 H318 H 0.55690 0.09205 0.63175
 C319 C 0.59762 0.62135 0.13218
 C320 C 0.62949 0.63092 0.11639
 C321 C 0.64308 0.61756 0.08483
 C322 C 0.62522 0.59435 0.06938
 C323 C 0.70579 0.70788 0.18398
 C324 C 0.57968 0.59813 0.11674
 C325 C 0.64945 0.65326 0.13362
 C326 C 0.66682 0.67126 0.14867
 C327 C 0.68770 0.69142 0.16719
 C328 C 0.59359 0.58421 0.08542
 H329 H 0.58701 0.63150 0.15672
 H330 H 0.66781 0.62475 0.07250
 H331 H 0.63645 0.58409 0.04516
 H332 H 0.55532 0.59078 0.12958
 C333 C 0.89628 -0.12043 0.13956
 C334 C 0.86342 -0.12988 0.12569
 C335 C 0.84860 -0.11707 0.09419
 C336 C 0.86646 -0.09477 0.07673
 C337 C 0.79286 -0.21264 0.18979
 C338 C 0.91417 -0.09814 0.12215
 C339 C 0.84476 -0.15258 0.14388
 C340 C 0.82888 -0.17153 0.15892
 C341 C 0.80978 -0.19370 0.17599
 C342 C 0.89936 -0.08501 0.09064
 H343 H 0.90801 -0.13019 0.16389
 H344 H 0.82318 -0.12425 0.08320
 H345 H 0.85446 -0.08507 0.05250
 H346 H 0.93950 -0.09109 0.13347
 C347 C 0.89552 0.37988 0.64368
 C348 C 0.86253 0.37060 0.62983
 C349 C 0.84792 0.38351 0.59828
 C350 C 0.86608 0.40566 0.58078
 C351 C 0.79170 0.28728 0.69315
 C352 C 0.91371 0.40202 0.62623
 C353 C 0.84365 0.34789 0.64794
 C354 C 0.82764 0.32886 0.66281
 C355 C 0.80850 0.30649 0.67963
 C356 C 0.89912 0.41520 0.59465
 H357 H 0.90715 0.37006 0.66803
 H358 H 0.82243 0.37650 0.58725
 H359 H 0.85420 0.41539 0.55651
 H360 H 0.93913 0.40889 0.63754
 C361 C 0.39941 -0.12096 0.64231
 C362 C 0.36665 -0.13037 0.62814
 C363 C 0.35214 -0.11757 0.59653
 C364 C 0.37019 -0.09530 0.57925
 C365 C 0.29400 -0.21245 0.69092
 C366 C 0.41751 -0.09869 0.62507
 C367 C 0.34766 -0.15296 0.64611
 C368 C 0.33130 -0.17178 0.66083
 C369 C 0.31153 -0.19374 0.67746
 C370 C 0.40297 -0.08557 0.59345
 H371 H 0.41089 -0.13073 0.66675
 H372 H 0.32680 -0.12471 0.58532
 H373 H 0.35839 -0.08560 0.55492
 H374 H 0.44273 -0.09164 0.63660
 C375 C 0.39780 0.37896 0.14008
 C376 C 0.36477 0.36970 0.12633
 C377 C 0.35019 0.38245 0.09468
 C378 C 0.36841 0.40446 0.07700
 C379 C 0.29276 0.28776 0.19087
 C380 C 0.41606 0.40096 0.12245
 C381 C 0.34572 0.34725 0.14472
 C382 C 0.32950 0.32851 0.15986
 C383 C 0.30999 0.30654 0.17703
 C384 C 0.40148 0.41402 0.09079
 H385 H 0.40939 0.36925 0.16451
 H386 H 0.32466 0.37545 0.08375
 H387 H 0.35654 0.41410 0.05267
 H388 H 0.44149 0.40784 0.13370
 C389 C 0.90684 0.13245 -0.14458
 C390 C 0.87302 0.14568 -0.13323
 C391 C 0.85672 0.13550 -0.10200
 C392 C 0.87376 0.11174 -0.08269
 C393 C 0.79775 0.21605 -0.22274
 C394 C 0.92385 0.10870 -0.12537
 C395 C 0.85361 0.16767 -0.15552
 C396 C 0.83681 0.18470 -0.17551
 C397 C 0.81625 0.20272 -0.20038
 C398 C 0.90719 0.09778 -0.09457
 H399 H 0.91959 0.13996 -0.16883
 H400 H 0.83040 0.14539 -0.09311
 H401 H 0.86032 0.10381 -0.05904
 H402 H 0.94965 0.09847 -0.13512
 C403 C 0.90832 0.63289 0.35998
 C404 C 0.87405 0.64565 0.37064
 C405 C 0.85731 0.63534 0.40156
 C406 C 0.87433 0.61177 0.42116
 C407 C 0.79868 0.71373 0.27914
 C408 C 0.92531 0.60933 0.37945
 C409 C 0.85458 0.66707 0.34776
 C410 C 0.83775 0.68352 0.32720
 C411 C 0.81719 0.70084 0.30177
 C412 C 0.90815 0.59817 0.40983
 H413 H 0.92140 0.64053 0.33596
 H414 H 0.83062 0.64489 0.40988
 H415 H 0.86053 0.60362 0.44447
 H416 H 0.95144 0.59937 0.37017
 C417 C 0.40897 0.13060 0.35702
 C418 C 0.37519 0.14382 0.36848
 C419 C 0.35921 0.13390 0.40000
 C420 C 0.37651 0.11038 0.41951
 C421 C 0.29849 0.21375 0.27954
 C422 C 0.42625 0.10709 0.37642
 C423 C 0.35550 0.16558 0.34611
 C424 C 0.33840 0.18245 0.32616
 C425 C 0.31742 0.20037 0.30153
 C426 C 0.40990 0.09641 0.40753
 H427 H 0.42148 0.13792 0.33255
 H428 H 0.33293 0.14380 0.40899
 H429 H 0.36331 0.10263 0.44338
 H430 H 0.45201 0.09683 0.36661
 C431 C 0.41017 0.63235 -0.14278
 C432 C 0.37629 0.64536 -0.13133
 C433 C 0.36005 0.63502 -0.10017
 C434 C 0.37712 0.61118 -0.08111
 C435 C 0.29914 0.71413 -0.22064
 C436 C 0.42723 0.60852 -0.12383
 C437 C 0.35655 0.66701 -0.15365
 C438 C 0.33931 0.68364 -0.17370
 C439 C 0.31817 0.70112 -0.19851
 C440 C 0.41051 0.59734 -0.09323
 H441 H 0.42284 0.64001 -0.16701
 H442 H 0.33366 0.64477 -0.09125
 H443 H 0.36368 0.60304 -0.05759
 H444 H 0.45302 0.59836 -0.13370
 C445 C 1.10047 -0.12533 -0.15201
 C446 C 1.13428 -0.13757 -0.13921
 C447 C 1.14721 -0.12905 -0.10569
 C448 C 1.12668 -0.10793 -0.08527
 C449 C 1.20873 -0.21320 -0.22294
 C450 C 1.07992 -0.10420 -0.13166
 C451 C 1.15593 -0.15838 -0.16094
 C452 C 1.17355 -0.17564 -0.17982
 C453 C 1.19318 -0.19581 -0.20271
 C454 C 1.09304 -0.09509 -0.09827
 H455 H 1.09023 -0.13183 -0.17793
 H456 H 1.17332 -0.13845 -0.09554
 H457 H 1.13742 -0.10131 -0.05962
 H458 H 1.05410 -0.09468 -0.14229
 C459 C 1.10066 0.37561 0.34925
 C460 C 1.13458 0.36324 0.36166
 C461 C 1.14782 0.37166 0.39513
 C462 C 1.12747 0.39270 0.41589
 C463 C 1.20810 0.28695 0.27754
 C464 C 1.08029 0.39664 0.36995
 C465 C 1.15593 0.34231 0.33969
 C466 C 1.17330 0.32490 0.32069
 C467 C 1.19269 0.30451 0.29775
 C468 C 1.09365 0.40558 0.40333
 H469 H 1.09014 0.36921 0.32341
 H470 H 1.17401 0.36220 0.40501
 H471 H 1.13843 0.39917 0.44150
 H472 H 1.05434 0.40618 0.35962
 C473 C 0.60190 -0.12676 0.35040
 C474 C 0.63607 -0.13882 0.36247
 C475 C 0.64980 -0.13004 0.39558
 C476 C 0.62969 -0.10885 0.41629
 C477 C 0.70873 -0.21416 0.27691
 C478 C 0.58177 -0.10558 0.37104
 C479 C 0.65725 -0.15964 0.34032
 C480 C 0.67440 -0.17686 0.32100
 C481 C 0.69351 -0.19692 0.29756
 C482 C 0.59567 -0.09620 0.40400
 H483 H 0.59102 -0.13344 0.32482
 H484 H 0.67622 -0.13928 0.40515
 H485 H 0.64103 -0.10202 0.44159
 H486 H 0.55564 -0.09622 0.36094
 C487 C 0.60433 0.37486 -0.15436
 C488 C 0.63819 0.36255 -0.14171
 C489 C 0.65115 0.37105 -0.10817
 C490 C 0.63059 0.39207 -0.08757
 C491 C 0.71207 0.28562 -0.22481
 C492 C 0.58374 0.39588 -0.13382
 C493 C 0.65970 0.34153 -0.16345
 C494 C 0.67718 0.32399 -0.18221
 C495 C 0.69666 0.30340 -0.20485
 C496 C 0.59682 0.40487 -0.10034
 H497 H 0.59400 0.36840 -0.18027
 H498 H 0.67728 0.36164 -0.09808
 H499 H 0.64134 0.39858 -0.06188
 H500 H 0.55783 0.40536 -0.14433
 C501 C 1.09692 0.12231 -0.13427
 C502 C 1.12857 0.13177 -0.11776
 C503 C 1.14149 0.11834 -0.08597
 C504 C 1.12322 0.09519 -0.07099
 C505 C 1.20671 0.20858 -0.18320
 C506 C 1.07855 0.09914 -0.11929
 C507 C 1.14901 0.15409 -0.13441
 C508 C 1.16684 0.17205 -0.14890
 C509 C 1.18825 0.19217 -0.16679
 C510 C 1.09182 0.08517 -0.08772
 H511 H 1.08681 0.13251 -0.15899
 H512 H 1.16604 0.12543 -0.07307
 H513 H 1.13397 0.08490 -0.04657
 H514 H 1.05439 0.09188 -0.13266
 C515 C 1.09705 0.62160 0.36727
 C516 C 1.12927 0.63085 0.38286
 C517 C 1.14291 0.61733 0.41437
 C518 C 1.12471 0.59437 0.42998
 C519 C 1.20546 0.70801 0.31526
 C520 C 1.07879 0.59863 0.38286
 C521 C 1.14934 0.65316 0.36561
 C522 C 1.16669 0.67119 0.35057
 C523 C 1.18746 0.69147 0.33206
 C524 C 1.09268 0.58461 0.41418
 H525 H 1.08634 0.63185 0.34279
 H526 H 1.16789 0.62424 0.42658
 H527 H 1.13598 0.58404 0.45417
 H528 H 1.05413 0.59159 0.37018
 C529 C 0.59794 0.12151 0.36720
 C530 C 0.62984 0.13109 0.38305
 C531 C 0.64354 0.11771 0.41459
 C532 C 0.62575 0.09448 0.42998
 C533 C 0.70595 0.20802 0.31564
 C534 C 0.58008 0.09826 0.38256
 C535 C 0.64973 0.15343 0.36588
 C536 C 0.66706 0.17142 0.35087
 C537 C 0.68789 0.19157 0.33239
 C538 C 0.59410 0.08433 0.41387
 H539 H 0.58724 0.13167 0.34266
 H540 H 0.66830 0.12491 0.42696
 H541 H 0.63707 0.08420 0.45418
 H542 H 0.55569 0.09090 0.36968
 C543 C 0.59835 0.62191 -0.13518
 C544 C 0.63024 0.63141 -0.11915
 C545 C 0.64377 0.61778 -0.08768
 C546 C 0.62584 0.59447 -0.07253
 C547 C 0.70652 0.70932 -0.18540
 C548 C 0.58034 0.59858 -0.12004
 C549 C 0.65016 0.65405 -0.13595
 C550 C 0.66749 0.67230 -0.15062
 C551 C 0.68836 0.69275 -0.16877
 C552 C 0.59416 0.58446 -0.08876
 H553 H 0.58773 0.63223 -0.15964
 H554 H 0.66850 0.62487 -0.07512
 H555 H 0.63705 0.58407 -0.04835
 H556 H 0.55596 0.59136 -0.13305
 C557 C 0.89500 -0.12033 -0.14342
 C558 C 0.86210 -0.12967 -0.12955
 C559 C 0.84758 -0.11673 -0.09803
 C560 C 0.86573 -0.09449 -0.08057
 C561 C 0.79110 -0.21317 -0.19284
 C562 C 0.91319 -0.09810 -0.12601
 C563 C 0.84320 -0.15246 -0.14762
 C564 C 0.82714 -0.17154 -0.16246
 C565 C 0.80794 -0.19395 -0.17927
 C566 C 0.89868 -0.08489 -0.09445
 H567 H 0.90656 -0.13017 -0.16775
 H568 H 0.82217 -0.12378 -0.08698
 H569 H 0.85391 -0.08476 -0.05632
 H570 H 0.93852 -0.09119 -0.13733
 C571 C 0.89662 0.37960 0.36052
 C572 C 0.86377 0.37016 0.37431
 C573 C 0.84900 0.38297 0.40577
 C574 C 0.86688 0.40528 0.42329
 C575 C 0.79302 0.28745 0.31005
 C576 C 0.91453 0.40189 0.37799
 C577 C 0.84508 0.34747 0.35606
 C578 C 0.82915 0.32853 0.34099
 C579 C 0.80999 0.30638 0.32388
 C580 C 0.89976 0.41502 0.40947
 H581 H 0.90831 0.36983 0.33621
 H582 H 0.82359 0.37580 0.41669
 H583 H 0.85491 0.41498 0.44750
 H584 H 0.93984 0.40894 0.36674
 C585 C 0.39793 -0.12101 0.35952
 C586 C 0.36492 -0.13023 0.37327
 C587 C 0.35038 -0.11732 0.40480
 C588 C 0.36863 -0.09521 0.42239
 C589 C 0.29309 -0.21266 0.30898
 C590 C 0.41620 -0.09892 0.37706
 C591 C 0.34588 -0.15280 0.35497
 C592 C 0.32969 -0.17166 0.33988
 C593 C 0.31026 -0.19376 0.32277
 C594 C 0.40168 -0.08571 0.40862
 H595 H 0.40948 -0.13083 0.33518
 H596 H 0.32488 -0.12428 0.41574
 H597 H 0.35680 -0.08547 0.44664
 H598 H 0.44161 -0.09209 0.36582
 C599 C 0.35120 0.38159 -0.09744
 C600 C 0.36561 0.36871 -0.12901
 C601 C 0.39833 0.37815 -0.14316
 C602 C 0.41645 0.40048 -0.12594
 C603 C 0.29374 0.28578 -0.19179
 C604 C 0.36928 0.40392 -0.08018
 C605 C 0.34666 0.34596 -0.14692
 C606 C 0.33043 0.32697 -0.16162
 C607 C 0.31092 0.30475 -0.17827
 C608 C 0.40203 0.41366 -0.09434
 H609 H 0.32591 0.37445 -0.08622
 H610 H 0.40976 0.36833 -0.16755
 H611 H 0.44164 0.40751 -0.13744
 H612 H 0.35755 0.41365 -0.05588
 C613 C 1.10033 -0.12457 0.15119
 C614 C 1.13422 -0.13695 0.13882
 C615 C 1.14742 -0.12845 0.10543
 C616 C 1.12708 -0.10733 0.08472
 C617 C 1.20794 -0.21358 0.22265
 C618 C 1.07996 -0.10345 0.13053
 C619 C 1.15556 -0.15798 0.16075
 C620 C 1.17295 -0.17547 0.17969
 C621 C 1.19242 -0.19595 0.20254
 C622 C 1.09330 -0.09444 0.09723
 H623 H 1.08982 -0.13102 0.17697
 H624 H 1.17358 -0.13791 0.09558
 H625 H 1.13802 -0.10080 0.05917
 H626 H 1.05404 -0.09391 0.14083
 C627 C 1.10171 0.37517 0.65343
 C628 C 1.13557 0.36296 0.64082
 C629 C 1.14845 0.37142 0.60731
 C630 C 1.12780 0.39240 0.58670
 C631 C 1.20997 0.28714 0.72477
 C632 C 1.08104 0.39614 0.63288
 C633 C 1.15726 0.34218 0.66268
 C634 C 1.17488 0.32489 0.68162
 C635 C 1.19448 0.30464 0.70454
 C636 C 1.09408 0.40516 0.59948
 H637 H 1.09148 0.36872 0.67933
 H638 H 1.17460 0.36207 0.59729
 H639 H 1.13850 0.39895 0.56105
 H640 H 1.05516 0.40560 0.64337
 C641 C 0.65143 -0.12886 0.60790
 C642 C 0.63843 -0.13727 0.64141
 C643 C 0.60467 -0.12479 0.65397
 C644 C 0.58421 -0.10368 0.63337
 C645 C 0.71176 -0.21468 0.72462
 C646 C 0.63099 -0.10775 0.58725
 C647 C 0.65980 -0.15843 0.66320
 C648 C 0.67714 -0.17607 0.68198
 C649 C 0.69647 -0.19679 0.70465
 C650 C 0.59732 -0.09478 0.59992
 H651 H 0.67748 -0.13841 0.59789
 H652 H 0.59431 -0.13117 0.67984
 H653 H 0.55838 -0.09407 0.64380
 H654 H 0.64177 -0.10132 0.56159
 C655 C 0.64958 0.36990 0.10390
 C656 C 0.63591 0.36112 0.13696
 C657 C 0.60175 0.37316 0.14896
 C658 C 0.58157 0.39433 0.12830
 C659 C 0.70870 0.28590 0.22272
 C660 C 0.62942 0.39108 0.08316
 C661 C 0.65714 0.34033 0.15915
 C662 C 0.67432 0.32313 0.17852
 C663 C 0.69346 0.30311 0.20202
 C664 C 0.59541 0.40372 0.09539
 H665 H 0.67599 0.36068 0.09438
 H666 H 0.59092 0.36647 0.17451
 H667 H 0.55545 0.40367 0.13835
 H668 H 0.64071 0.39793 0.05789
 C669 C 0.90820 0.13311 0.14009
 C670 C 0.87393 0.14588 0.12932
 C671 C 0.85712 0.13553 0.09838
 C672 C 0.87407 0.11191 0.07887
 C673 C 0.79866 0.21388 0.22069
 C674 C 0.92512 0.10949 0.12071
 C675 C 0.85450 0.16730 0.15215
 C676 C 0.83769 0.18374 0.17268
 C677 C 0.81715 0.20102 0.19809
 C678 C 0.90788 0.09828 0.09033
 H679 H 0.92132 0.14077 0.16413
 H680 H 0.83043 0.14509 0.08999
 H681 H 0.86022 0.10373 0.05554
 H682 H 0.95124 0.09952 0.13007
 C683 C 0.90688 0.63187 0.64560
 C684 C 0.87309 0.64514 0.63409
 C685 C 0.85695 0.63508 0.60264
 C686 C 0.87409 0.61143 0.58327
 C687 C 0.79739 0.71552 0.72312
 C688 C 0.92401 0.60822 0.62634
 C689 C 0.85360 0.66709 0.65633
 C690 C 0.83670 0.68411 0.67623
 C691 C 0.81602 0.70215 0.70093
 C692 C 0.90750 0.59744 0.59530
 H693 H 0.91953 0.63928 0.67002
 H694 H 0.83066 0.64500 0.59360
 H695 H 0.86076 0.60361 0.55944
 H696 H 0.94978 0.59797 0.63621
 C697 C 0.41012 0.13205 0.64318
 C698 C 0.37608 0.14493 0.63186
 C699 C 0.35985 0.13469 0.60056
 C700 C 0.37712 0.11111 0.58121
 C701 C 0.29938 0.21372 0.72150
 C702 C 0.42738 0.10848 0.62394
 C703 C 0.35633 0.16648 0.65431
 C704 C 0.33917 0.18309 0.67442
 C705 C 0.31821 0.20064 0.69930
 C706 C 0.41072 0.09742 0.59315
 H707 H 0.42281 0.13963 0.66750
 H708 H 0.33335 0.14433 0.59172
 H709 H 0.36371 0.10306 0.55757
 H710 H 0.45332 0.09844 0.63370
 C711 C 0.40814 0.63006 0.14218
 C712 C 0.37417 0.64310 0.13088
 C713 C 0.35800 0.63305 0.09944
 C714 C 0.37533 0.60960 0.07985
 C715 C 0.29822 0.71311 0.22018
 C716 C 0.42545 0.60663 0.12270
 C717 C 0.35457 0.66484 0.15332
 C718 C 0.33762 0.68173 0.17333
 C719 C 0.31690 0.69968 0.19808
 C720 C 0.40894 0.59584 0.09167
 H721 H 0.42082 0.63748 0.16658
 H722 H 0.33157 0.64281 0.09057
 H723 H 0.36200 0.60177 0.05604
 H724 H 0.45138 0.59654 0.13240
   
