data_POSCAR
  _audit_creation_date              2014-09-24
  _audit_creation_method            'ToBaCCo'
  _symmetry_space_group_name_H-M    'P1'
  _symmetry_Int_Tables_number       1
  _symmetry_cell_setting            triclinic
  loop_
  _symmetry_equiv_pos_as_xyz
 x,y,z
_cell_length_a 33.6818
_cell_length_b 33.7115
_cell_length_c 33.5920
_cell_angle_alpha 90.006700
_cell_angle_beta 89.986500
_cell_angle_gamma 89.929600
loop_
  _atom_site_label
  _atom_site_type_symbol
  _atom_site_fract_x
  _atom_site_fract_y
  _atom_site_fract_z
C1 C 0.15289 0.18129 0.21153
 C2 C 0.15311 0.21107 0.18237
 C3 C 0.18289 0.21196 0.15415
 C4 C 0.21273 0.18289 0.15446
 C5 C 0.21241 0.15359 0.18303
 C6 C 0.18228 0.15284 0.21190
 C7 C 0.12856 0.17407 0.24356
 N8 N 0.14231 0.14175 0.26394
 C9 C 0.17533 0.12872 0.24415
 C10 C 0.24506 0.12997 0.17646
 N11 N 0.26562 0.14397 0.14429
 C12 C 0.24554 0.17663 0.13093
 C13 C 0.17633 0.24467 0.13057
 N14 N 0.14310 0.26374 0.14360
 C15 C 0.12877 0.24309 0.17535
 H16 H 0.10308 0.19200 0.25116
 H17 H 0.19398 0.10398 0.25240
 H18 H 0.25265 0.10449 0.19439
 H19 H 0.25366 0.19520 0.10605
 H20 H 0.19518 0.25419 0.10633
 H21 H 0.10246 0.25046 0.19226
 C22 C -0.15330 0.81869 0.21190
 C23 C -0.15364 0.78895 0.18270
 C24 C -0.18353 0.78809 0.15461
 C25 C -0.21336 0.81718 0.15509
 C26 C -0.21293 0.84645 0.18371
 C27 C -0.18267 0.84716 0.21244
 C28 C -0.12883 0.82586 0.24382
 N29 N -0.14246 0.85817 0.26430
 C30 C -0.17557 0.87124 0.24469
 C31 C -0.24558 0.87011 0.17727
 N32 N -0.26623 0.85617 0.14514
 C33 C -0.24621 0.82350 0.13168
 C34 C -0.17705 0.75541 0.13095
 N35 N -0.14377 0.73633 0.14383
 C36 C -0.12933 0.75695 0.17554
 H37 H -0.10330 0.80793 0.25125
 H38 H -0.19419 0.89595 0.25308
 H39 H -0.25306 0.89565 0.19518
 H40 H -0.25444 0.80492 0.10685
 H41 H -0.19597 0.74592 0.10677
 H42 H -0.10295 0.74958 0.19233
 C43 C -0.15402 0.18208 -0.21188
 C44 C -0.15449 0.21196 -0.18282
 C45 C -0.18437 0.21291 -0.15470
 C46 C -0.21408 0.18376 -0.15502
 C47 C -0.21352 0.15436 -0.18351
 C48 C -0.18328 0.15357 -0.21226
 C49 C -0.12952 0.17479 -0.24376
 N50 N -0.14302 0.14235 -0.26407
 C51 C -0.17607 0.12933 -0.24438
 C52 C -0.24603 0.13063 -0.17694
 N53 N -0.26674 0.14464 -0.14486
 C54 C -0.24690 0.17742 -0.13154
 C55 C -0.17796 0.24569 -0.13117
 N56 N -0.14473 0.26473 -0.14415
 C57 C -0.13026 0.24399 -0.17580
 H58 H -0.10407 0.19272 -0.25131
 H59 H -0.19458 0.10452 -0.25261
 H60 H -0.25334 0.10499 -0.19473
 H61 H -0.25524 0.19607 -0.10677
 H62 H -0.19687 0.25524 -0.10697
 H63 H -0.10388 0.25127 -0.19262
 C64 C 0.15458 0.81748 -0.21212
 C65 C 0.15498 0.78759 -0.18309
 C66 C 0.18487 0.78654 -0.15500
 C67 C 0.21467 0.81562 -0.15533
 C68 C 0.21416 0.84504 -0.18379
 C69 C 0.18390 0.84592 -0.21251
 C70 C 0.13004 0.82488 -0.24394
 N71 N 0.14359 0.85732 -0.26422
 C72 C 0.17671 0.87023 -0.24458
 C73 C 0.24669 0.86872 -0.17721
 N74 N 0.26737 0.85468 -0.14513
 C75 C 0.24749 0.82190 -0.13184
 C76 C 0.17834 0.75379 -0.13146
 N77 N 0.14504 0.73487 -0.14441
 C78 C 0.13063 0.75565 -0.17605
 H79 H 0.10453 0.80703 -0.25144
 H80 H 0.19525 0.89501 -0.25280
 H81 H 0.25406 0.89434 -0.19500
 H82 H 0.25575 0.80328 -0.10704
 H83 H 0.19721 0.74418 -0.10726
 H84 H 0.10422 0.74847 -0.19284
 C85 C 0.18093 1.15292 0.78895
 C86 C 0.21076 1.15327 0.81805
 C87 C 0.21172 1.18314 0.84614
 C88 C 0.18262 1.21295 0.84574
 C89 C 0.15325 1.21251 0.81721
 C90 C 0.15245 1.18227 0.78849
 C91 C 0.17374 1.12852 0.75701
 N92 N 0.14140 1.14219 0.73658
 C93 C 0.12833 1.17524 0.75626
 C94 C 0.12963 1.24516 0.82364
 N95 N 0.14368 1.26584 0.85569
 C96 C 0.17639 1.24584 0.86911
 C97 C 0.24454 1.17669 0.86963
 N98 N 0.26360 1.14345 0.85665
 C99 C 0.24284 1.12900 0.82504
 H100 H 0.19171 1.10305 0.74950
 H101 H 0.10361 1.19388 0.74791
 H102 H 0.10405 1.25261 0.80577
 H103 H 0.19507 1.25413 0.89386
 H104 H 0.25416 1.19561 0.89377
 H105 H 0.25016 1.10265 0.80820
 C106 C 0.81941 0.84739 0.78918
 C107 C 0.78958 0.84705 0.81830
 C108 C 0.78860 0.81715 0.84636
 C109 C 0.81767 0.78731 0.84590
 C110 C 0.84703 0.78775 0.81735
 C111 C 0.84785 0.81800 0.78867
 C112 C 0.82660 0.87179 0.75724
 N113 N 0.85892 0.85808 0.73677
 C114 C 0.87196 0.82502 0.75642
 C115 C 0.87058 0.75504 0.82372
 N116 N 0.85649 0.73434 0.85573
 C117 C 0.82383 0.75439 0.86921
 C118 C 0.75579 0.82357 0.86988
 N119 N 0.73674 0.85682 0.85694
 C120 C 0.75750 0.87131 0.82535
 H121 H 0.80867 0.89729 0.74976
 H122 H 0.89664 0.80634 0.74802
 H123 H 0.89614 0.74754 0.80581
 H124 H 0.80512 0.74610 0.89395
 H125 H 0.74616 0.80461 0.89398
 H126 H 0.75016 0.89767 0.80854
 C127 C 0.18314 0.84551 1.21298
 C128 C 0.21144 0.84666 1.18237
 C129 C 0.21015 0.81904 1.15206
 C130 C 0.18078 0.78959 1.15212
 C131 C 0.15318 0.78824 1.18248
 C132 C 0.15429 0.81659 1.21305
 C133 C 0.17720 0.86862 1.24615
 N134 N 0.14509 0.85475 1.26677
 C135 C 0.13122 0.82257 1.24628
 C136 C 0.12950 0.75571 1.17580
 N137 N 0.14195 0.73712 1.14201
 C138 C 0.17332 0.75798 1.12736
 C139 C 0.24175 0.82656 1.12727
 N140 N 0.26252 0.85799 1.14188
 C141 C 0.24391 0.87042 1.17565
 H142 H 0.19542 0.89378 1.25394
 H143 H 0.10612 0.80433 1.25423
 H144 H 0.10578 0.74579 1.19507
 H145 H 0.18985 0.75089 1.10068
 H146 H 0.24892 0.81003 1.10063
 H147 H 0.25378 0.89416 1.19489
 C148 C 0.81813 1.15316 1.21203
 C149 C 0.78904 1.15275 1.18215
 C150 C 0.78839 1.18221 1.15362
 C151 C 0.81697 1.21242 1.15438
 C152 C 0.84550 1.21286 1.18388
 C153 C 0.84604 1.18297 1.21294
 C154 C 0.82518 1.12899 1.24419
 N155 N 0.85697 1.14316 1.26508
 C156 C 0.86972 1.17641 1.24560
 C157 C 0.86867 1.24586 1.17774
 N158 N 0.85517 1.26549 1.14497
 C159 C 0.82342 1.24498 1.13061
 C160 C 0.75608 1.17526 1.12959
 N161 N 0.73699 1.14214 1.14271
 C162 C 0.75731 1.12819 1.17485
 H163 H 0.80775 1.10308 1.25131
 H164 H 0.89402 1.19540 1.25428
 H165 H 0.89314 1.25501 1.19641
 H166 H 0.80631 1.25264 1.10448
 H167 H 0.74666 1.19393 1.10517
 H168 H 0.74976 1.10215 1.19203
 N169 N 0.54172 1.07017 0.95713
 N170 N 0.57232 1.09417 0.95262
 N171 N 0.45827 1.04270 0.92945
 N172 N 0.42747 1.04705 0.90554
 N173 N 0.45807 1.07008 0.95725
 N174 N 0.42700 1.09361 0.95320
 N175 N 0.54180 1.04262 0.92952
 N176 N 0.57245 1.04714 0.90546
 C177 C 0.59121 1.07950 0.92019
 C178 C 0.40826 1.07899 0.92071
 N179 N 0.45848 0.92968 0.95733
 N180 N 0.42799 0.90554 0.95276
 N181 N 0.54187 0.95718 0.92966
 N182 N 0.57266 0.95279 0.90575
 N183 N 0.54215 0.92997 0.95761
 N184 N 0.57328 0.90649 0.95364
 N185 N 0.45836 0.95719 0.92967
 N186 N 0.42782 0.95249 0.90553
 Mn187 Mn 0.50006 0.99992 0.92907
 C188 C 0.40914 0.92009 0.92025
 C189 C 0.59196 0.92099 0.92105
 N190 N 0.45802 1.07039 1.04283
 N191 N 0.42725 1.09429 1.04717
 N192 N 0.54146 1.04299 1.07072
 N193 N 0.57239 1.04714 1.09446
 N194 N 0.54173 1.07021 1.04278
 N195 N 0.57301 1.09345 1.04658
 N196 N 0.45795 1.04288 1.07047
 N197 N 0.42717 1.04733 1.09438
 Mn198 Mn 0.49989 1.07072 1.00000
 C199 C 0.40829 1.07959 1.07953
 C200 C 0.59176 1.07881 1.07908
 N201 N 0.54188 0.93004 1.04324
 N202 N 0.57263 0.90616 1.04780
 N203 N 0.45799 0.95759 1.07045
 N204 N 0.42661 0.95378 1.09367
 N205 N 0.45838 0.92981 1.04307
 N206 N 0.42743 0.90617 1.04708
 N207 N 0.54168 0.95756 1.07087
 N208 N 0.57231 0.95316 1.09499
 Mn209 Mn 0.50024 0.92937 1.00030
 Mn210 Mn 0.49976 1.00025 1.07113
 Cl211 Cl 0.49999 1.00007 1.00012
 C212 C 0.59133 0.92089 1.08028
 C213 C 0.40792 0.92144 1.07885
 N214 N 0.04255 0.45835 0.07043
 N215 N 0.04685 0.42761 0.09439
 N216 N 0.07019 0.54153 0.04274
 N217 N 0.09386 0.57244 0.04681
 N218 N 0.04239 0.54190 0.07014
 N219 N 0.04623 0.57319 0.09343
 N220 N 0.06986 0.45798 0.04255
 N221 N 0.09331 0.42686 0.04661
 C222 C 0.07870 0.40826 0.07919
 C223 C 0.07860 0.59188 0.07863
 N224 N 0.04282 0.54150 -0.07082
 N225 N 0.04745 0.57212 -0.09487
 N226 N 0.06998 0.45803 -0.04305
 N227 N 0.09387 0.42728 -0.04746
 N228 N 0.04243 0.45805 -0.07069
 N229 N 0.04686 0.42734 -0.09467
 N230 N 0.07011 0.54160 -0.04293
 N231 N 0.09388 0.57242 -0.04707
 Mn232 Mn 0.07054 0.49978 -0.00017
 C233 C 0.07948 0.59113 -0.07970
 C234 C 0.07915 0.40843 -0.07985
 N235 N -0.04303 0.54196 0.07030
 N236 N -0.04742 0.57268 0.09426
 N237 N -0.07067 0.45875 0.04287
 N238 N -0.09483 0.42830 0.04751
 N239 N -0.04289 0.45846 0.07026
 N240 N -0.04721 0.42767 0.09412
 N241 N -0.07031 0.54227 0.04240
 N242 N -0.09384 0.57335 0.04647
 Mn243 Mn -0.00024 0.50016 0.07079
 C244 C -0.07928 0.59198 0.07906
 C245 C -0.07984 0.40919 0.07965
 N246 N -0.04312 0.45844 -0.07074
 N247 N -0.04769 0.42777 -0.09472
 N248 N -0.07032 0.54195 -0.04320
 N249 N -0.09416 0.57274 -0.04763
 N250 N -0.04274 0.54188 -0.07082
 N251 N -0.04709 0.57259 -0.09480
 N252 N -0.07044 0.45837 -0.04285
 N253 N -0.09416 0.42751 -0.04694
 Mn254 Mn -0.00015 0.49997 -0.07128
 Mn255 Mn -0.07094 0.50034 -0.00021
 Cl256 Cl -0.00020 0.50006 -0.00022
 C257 C -0.07970 0.40876 -0.07954
 C258 C -0.07937 0.59155 -0.08002
 N259 N 0.92986 0.04263 0.54217
 N260 N 0.90629 0.04667 0.57330
 N261 N 0.95740 0.07012 0.45832
 N262 N 0.95316 0.09382 0.42734
 N263 N 0.92987 0.04260 0.45834
 N264 N 0.90614 0.04683 0.42736
 N265 N 0.95736 0.07019 0.54215
 N266 N 0.95323 0.09372 0.57329
 C267 C 0.92115 0.07876 0.59241
 C268 C 0.92097 0.07899 0.40833
 N269 N 1.07044 0.04257 0.45830
 N270 N 1.09393 0.04652 0.42711
 N271 N 1.04277 0.07023 0.54211
 N272 N 1.04663 0.09370 0.57331
 N273 N 1.07038 0.04272 0.54216
 N274 N 1.09378 0.04674 0.57342
 N275 N 1.04284 0.07011 0.45827
 N276 N 1.04683 0.09353 0.42704
 Mn277 Mn 1.00010 0.07067 0.50021
 C278 C 1.07893 0.07854 0.40792
 C279 C 1.07868 0.07877 0.59252
 N280 N 0.93003 -0.04275 0.45839
 N281 N 0.90651 -0.04674 0.42724
 N282 N 0.95761 -0.07023 0.54221
 N283 N 0.95373 -0.09364 0.57345
 N284 N 0.93001 -0.04272 0.54222
 N285 N 0.90660 -0.04667 0.57348
 N286 N 0.95762 -0.07029 0.45836
 N287 N 0.95360 -0.09375 0.42716
 Mn288 Mn 0.92943 -0.00007 0.50028
 C289 C 0.92148 -0.07877 0.40806
 C290 C 0.92168 -0.07867 0.59264
 N291 N 1.07053 -0.04264 0.54229
 N292 N 1.09413 -0.04668 0.57339
 N293 N 1.04310 -0.07034 0.45851
 N294 N 1.04778 -0.09453 0.42797
 N295 N 1.07063 -0.04282 0.45848
 N296 N 1.09480 -0.04754 0.42791
 N297 N 1.04303 -0.07019 0.54230
 N298 N 1.04718 -0.09373 0.57343
 Mn299 Mn 1.07101 -0.00003 0.50030
 Mn300 Mn 1.00033 -0.07077 0.50034
 Cl301 Cl 1.00022 -0.00005 0.50027
 C302 C 1.07927 -0.07877 0.59251
 C303 C 1.08022 -0.07998 0.40916
 C304 C 1.14370 0.09239 0.31689
 C305 C 1.12654 0.12600 0.29835
 C306 C 1.09276 0.14303 0.31677
 C307 C 1.07738 0.12756 0.35214
 C308 C 1.09504 0.09459 0.37032
 C309 C 1.12818 0.07704 0.35226
 H310 H 1.16925 0.07744 0.30463
 H311 H 1.07778 0.16853 0.30451
 H312 H 1.05159 0.14159 0.36533
 H313 H 1.14229 0.05136 0.36554
 C314 C 0.90714 -0.14339 0.31706
 C315 C 0.87347 -0.12614 0.29866
 C316 C 0.85657 -0.09236 0.31715
 C317 C 0.87224 -0.07706 0.35246
 C318 C 0.90526 -0.09482 0.37051
 C319 C 0.92267 -0.12795 0.35238
 H320 H 0.92188 -0.16905 0.30485
 H321 H 0.83116 -0.07722 0.30488
 H322 H 0.85833 -0.05124 0.36570
 H323 H 0.94836 -0.14215 0.36558
 C324 C 0.90669 0.14360 0.68325
 C325 C 0.87297 0.12650 0.70165
 C326 C 0.85610 0.09272 0.68322
 C327 C 0.87181 0.07729 0.64796
 C328 C 0.90487 0.09491 0.62991
 C329 C 0.92227 0.12803 0.64799
 H330 H 0.92145 0.16923 0.69543
 H331 H 0.83063 0.07771 0.69549
 H332 H 0.85791 0.05148 0.63477
 H333 H 0.94799 0.14211 0.63480
 C334 C 1.14447 -0.09297 0.68316
 C335 C 1.12757 -0.12674 0.70156
 C336 C 1.09378 -0.14374 0.68322
 C337 C 1.07816 -0.12809 0.64803
 C338 C 1.09559 -0.09498 0.62996
 C339 C 1.12872 -0.07745 0.64796
 H340 H 1.17000 -0.07803 0.69539
 H341 H 1.07899 -0.16936 0.69539
 H342 H 1.05239 -0.14211 0.63487
 H343 H 1.14264 -0.05165 0.63478
 C344 C 0.31845 1.09458 1.14555
 C345 C 0.30002 1.12830 1.12850
 C346 C 0.31832 1.14529 1.09461
 C347 C 0.35331 1.12947 1.07880
 C348 C 0.37123 1.09622 1.09620
 C349 C 0.35343 1.07889 1.12961
 H350 H 0.30645 1.07982 1.17134
 H351 H 0.30610 1.17087 1.07970
 H352 H 0.36634 1.14337 1.05284
 H353 H 0.36658 1.05307 1.14360
 C354 C 0.31996 0.90421 0.85361
 C355 C 0.30164 0.87049 0.87070
 C356 C 0.31989 0.85369 0.90473
 C357 C 0.35465 0.86978 0.92069
 C358 C 0.37240 0.90310 0.90332
 C359 C 0.35471 0.92017 0.86970
 H360 H 0.30804 0.91877 0.82764
 H361 H 0.30776 0.82812 0.91966
 H362 H 0.36762 0.85604 0.94678
 H363 H 0.36776 0.94599 0.85568
 C364 C 0.68138 0.85532 1.09518
 C365 C 0.69938 0.87191 1.12942
 C366 C 0.68068 0.90530 1.14686
 C367 C 0.64575 0.92110 1.13090
 C368 C 0.62828 0.90420 1.09710
 C369 C 0.64646 0.87124 1.07938
 H370 H 0.69384 0.83007 1.07993
 H371 H 0.69241 0.91966 1.17301
 H372 H 0.63236 0.94665 1.14518
 H373 H 0.63370 0.85766 1.05311
 C374 C 0.68044 1.09535 0.85356
 C375 C 0.69897 1.12882 0.87094
 C376 C 0.68090 1.14539 0.90518
 C377 C 0.64607 1.12936 0.92105
 C378 C 0.62807 1.09633 0.90337
 C379 C 0.64562 1.07945 0.86957
 H380 H 0.69221 1.08101 0.82740
 H381 H 0.69324 1.17070 0.92038
 H382 H 0.63324 1.14292 0.94732
 H383 H 0.63238 1.05386 0.85532
 C384 C 0.13728 0.31294 0.08886
 C385 C 0.12655 0.29987 0.12722
 C386 C 0.09952 0.32298 0.14934
 C387 C 0.08372 0.35796 0.13357
 C388 C 0.09498 0.37103 0.09559
 C389 C 0.12190 0.34823 0.07338
 H390 H 0.15731 0.29585 0.07045
 H391 H 0.09083 0.31454 0.17912
 H392 H 0.06309 0.37509 0.15139
 H393 H 0.13078 0.35746 0.04381
 C394 C -0.13899 0.31400 -0.08945
 C395 C -0.12820 0.30083 -0.12777
 C396 C -0.10104 0.32377 -0.14983
 C397 C -0.08508 0.35862 -0.13401
 C398 C -0.09631 0.37174 -0.09603
 C399 C -0.12345 0.34918 -0.07391
 H400 H -0.15916 0.29707 -0.07111
 H401 H -0.09233 0.31529 -0.17960
 H402 H -0.06432 0.37558 -0.15177
 H403 H -0.13234 0.35847 -0.04435
 C404 C 0.10116 0.67596 -0.15008
 C405 C 0.12836 0.69884 -0.12801
 C406 C 0.13904 0.68571 -0.08966
 C407 C 0.12335 0.65061 -0.07410
 C408 C 0.09618 0.62809 -0.09622
 C409 C 0.08506 0.64119 -0.13424
 H410 H 0.09253 0.68443 -0.17987
 H411 H 0.15923 0.70261 -0.07132
 H412 H 0.13216 0.64133 -0.04452
 H413 H 0.06428 0.62425 -0.15200
 C414 C -0.13808 0.68717 0.08901
 C415 C -0.12726 0.70022 0.12735
 C416 C -0.10016 0.67711 0.14937
 C417 C -0.08434 0.64218 0.13351
 C418 C -0.09566 0.62914 0.09554
 C419 C -0.12267 0.65191 0.07344
 H420 H -0.15818 0.70424 0.07069
 H421 H -0.09141 0.68552 0.17914
 H422 H -0.06364 0.62507 0.15125
 H423 H -0.13161 0.64269 0.04388
 C424 C 1.09203 0.14337 0.68364
 C425 C 1.12574 0.12637 0.70217
 C426 C 1.14299 0.09274 0.68374
 C427 C 1.12764 0.07735 0.64834
 C428 C 1.09459 0.09487 0.63015
 C429 C 1.07681 0.12784 0.64823
 H430 H 1.07689 0.16877 0.69594
 H431 H 1.16859 0.07789 0.69600
 H432 H 1.14184 0.05168 0.63512
 H433 H 1.05104 0.14182 0.63495
 C434 C 0.85731 -0.09254 0.68387
 C435 C 0.87459 -0.12613 0.70235
 C436 C 0.90833 -0.14311 0.68385
 C437 C 0.92356 -0.12763 0.64842
 C438 C 0.90575 -0.09471 0.63029
 C439 C 0.87267 -0.07718 0.64845
 H440 H 0.83168 -0.07771 0.69610
 H441 H 0.92350 -0.16847 0.69619
 H442 H 0.94935 -0.14160 0.63517
 H443 H 0.85845 -0.05156 0.63519
 C444 C 1.09578 -0.14652 0.31979
 C445 C 1.12954 -0.12960 0.30134
 C446 C 1.14658 -0.09585 0.31967
 C447 C 1.13059 -0.07989 0.35456
 C448 C 1.09716 -0.09701 0.37238
 C449 C 1.07992 -0.13043 0.35468
 H450 H 1.08100 -0.17222 0.30776
 H451 H 1.17231 -0.08117 0.30757
 H452 H 1.14448 -0.05400 0.36758
 H453 H 1.05400 -0.14423 0.36779
 C454 C 0.85558 0.09375 0.31795
 C455 C 0.87273 0.12736 0.29948
 C456 C 0.90656 0.14423 0.31782
 C457 C 0.92214 0.12848 0.35298
 C458 C 0.90457 0.09542 0.37103
 C459 C 0.87128 0.07812 0.35312
 H460 H 0.82977 0.07913 0.30594
 H461 H 0.92164 0.16960 0.30546
 H462 H 0.94805 0.14231 0.36607
 H463 H 0.85719 0.05245 0.36636
 C464 C 0.09465 0.31898 -0.14616
 C465 C 0.12801 0.30027 -0.12866
 C466 C 0.14462 0.31829 -0.09444
 C467 C 0.12875 0.35326 -0.07873
 C468 C 0.09583 0.37144 -0.09652
 C469 C 0.07890 0.35395 -0.13030
 H470 H 0.08028 0.30725 -0.17230
 H471 H 0.16985 0.30580 -0.07915
 H472 H 0.14233 0.36605 -0.05247
 H473 H 0.05339 0.36733 -0.14463
 C474 C -0.09010 0.31446 0.13905
 C475 C -0.12847 0.30162 0.12847
 C476 C -0.15050 0.32481 0.10143
 C477 C -0.13457 0.35956 0.08536
 C478 C -0.09652 0.37233 0.09637
 C479 C -0.07447 0.34954 0.12342
 H480 H -0.07174 0.29735 0.15908
 H481 H -0.18028 0.31657 0.09287
 H482 H -0.15228 0.37672 0.06466
 H483 H -0.04486 0.35856 0.13213
 C484 C -0.09461 0.68109 -0.14622
 C485 C -0.12792 0.69986 -0.12868
 C486 C -0.14460 0.68183 -0.09449
 C487 C -0.12883 0.64681 -0.07883
 C488 C -0.09595 0.62857 -0.09666
 C489 C -0.07896 0.64606 -0.13041
 H490 H -0.08021 0.69282 -0.17234
 H491 H -0.16980 0.69436 -0.07917
 H492 H -0.14245 0.63402 -0.05260
 H493 H -0.05347 0.63263 -0.14476
 C494 C 0.08772 0.68757 0.13674
 C495 C 0.12573 0.70094 0.12555
 C496 C 0.14776 0.67796 0.09832
 C497 C 0.13228 0.64276 0.08283
 C498 C 0.09467 0.62936 0.09458
 C499 C 0.07251 0.65206 0.12165
 H500 H 0.06941 0.70456 0.15694
 H501 H 0.17729 0.68664 0.08929
 H502 H 0.15003 0.62573 0.06206
 H503 H 0.04322 0.64257 0.13090
 C504 C 0.31294 1.13764 0.91126
 C505 C 0.29981 1.12697 0.87292
 C506 C 0.32292 1.10003 0.85069
 C507 C 0.35793 1.08420 0.86638
 C508 C 0.37104 1.09535 0.90437
 C509 C 0.34827 1.12223 0.92666
 H510 H 0.29585 1.15762 0.92971
 H511 H 0.31444 1.09142 0.82090
 H512 H 0.37506 1.06362 0.84850
 H513 H 0.35755 1.13104 0.95624
 C514 C 0.31189 0.91236 1.13650
 C515 C 0.29872 0.87427 1.12545
 C516 C 0.32192 0.85218 1.09848
 C517 C 0.35717 0.86768 1.08309
 C518 C 0.37040 0.90537 1.09471
 C519 C 0.34746 0.92759 1.12152
 H520 H 0.29470 0.93070 1.15650
 H521 H 0.31338 0.82259 1.08959
 H522 H 0.37441 0.84988 1.06252
 H523 H 0.35680 0.95695 1.13064
 C524 C 0.67748 1.09912 1.14877
 C525 C 0.70079 1.12570 1.12640
 C526 C 0.68774 1.13628 1.08799
 C527 C 0.65223 1.12122 1.07272
 C528 C 0.62921 1.09478 1.09520
 C529 C 0.64230 1.08364 1.13321
 H530 H 0.68587 1.09058 1.17860
 H531 H 0.70498 1.15596 1.06942
 H532 H 0.64298 1.12998 1.04311
 H533 H 0.62500 1.06337 1.15123
 C534 C 0.68745 0.86259 0.91162
 C535 C 0.70051 0.87324 0.87324
 C536 C 0.67731 0.90006 0.85100
 C537 C 0.64226 0.91580 0.86669
 C538 C 0.62921 0.90468 0.90472
 C539 C 0.65207 0.87792 0.92704
 H540 H 0.70461 0.84270 0.93008
 H541 H 0.68575 0.90863 0.82118
 H542 H 0.62506 0.93629 0.84880
 H543 H 0.64283 0.86914 0.95664
   
