data_POSCAR
  _audit_creation_date              2014-09-24
  _audit_creation_method            'ToBaCCo'
  _symmetry_space_group_name_H-M    'P1'
  _symmetry_Int_Tables_number       1
  _symmetry_cell_setting            triclinic
  loop_
  _symmetry_equiv_pos_as_xyz
 x,y,z
_cell_length_a 63.3859
_cell_length_b 64.4111
_cell_length_c 64.1718
_cell_angle_alpha 90.068700
_cell_angle_beta 90.236300
_cell_angle_gamma 90.473600
loop_
  _atom_site_label
  _atom_site_type_symbol
  _atom_site_fract_x
  _atom_site_fract_y
  _atom_site_fract_z
N1 N 0.28517 0.23300 0.22413
 N2 N 0.27615 0.24784 0.21337
 C3 C 0.28800 0.25218 0.19656
 C4 C 0.30542 0.23927 0.19669
 C5 C 0.30301 0.22727 0.21448
 H6 H 0.28397 0.26364 0.18496
 H7 H 0.31339 0.21525 0.22007
 Cu8 Cu 0.24939 0.25958 0.22188
 Cu9 Cu 0.27252 0.22176 0.24932
 Cu10 Cu 0.23359 0.25224 0.27134
 N11 N 0.22791 0.27681 0.23441
 N12 N 0.22204 0.27416 0.25383
 C13 C 0.20703 0.28808 0.25844
 C14 C 0.20327 0.30019 0.24096
 C15 C 0.21691 0.29252 0.22600
 H16 H 0.19938 0.28914 0.27341
 H17 H 0.21866 0.29779 0.21012
 N18 N 0.24717 0.22909 0.28625
 N19 N 0.26178 0.21737 0.27773
 C20 C 0.26729 0.20245 0.29130
 C21 C 0.25547 0.20470 0.30926
 C22 C 0.24289 0.22180 0.30546
 H23 H 0.27867 0.19048 0.28808
 H24 H 0.23125 0.22829 0.31579
 H25 H 0.24156 0.23252 0.24778
 H26 H 0.26257 0.25108 0.25641
 N27 N 0.70419 -0.26203 0.23176
 N28 N 0.71297 -0.27777 0.22222
 C29 C 0.70180 -0.28226 0.20486
 C30 C 0.68502 -0.26855 0.20335
 C31 C 0.68714 -0.25598 0.22087
 H32 H 0.70589 -0.29440 0.19403
 H33 H 0.67733 -0.24310 0.22531
 Cu34 Cu 0.73864 -0.29046 0.23284
 Cu35 Cu 0.71601 -0.24992 0.25705
 Cu36 Cu 0.76271 -0.27058 0.27552
 N37 N 0.76532 -0.30129 0.24315
 N38 N 0.77460 -0.29350 0.25977
 C39 C 0.79282 -0.30353 0.26316
 C40 C 0.79529 -0.31852 0.24777
 C41 C 0.77738 -0.31655 0.23536
 H42 H 0.80351 -0.29988 0.27580
 H43 H 0.77342 -0.32534 0.22153
 N44 N 0.74822 -0.24739 0.28933
 N45 N 0.73032 -0.23967 0.28237
 C46 C 0.72467 -0.22375 0.29471
 C47 C 0.73976 -0.22121 0.31019
 C48 C 0.75445 -0.23653 0.30627
 H49 H 0.71093 -0.21426 0.29219
 H50 H 0.76875 -0.23943 0.31498
 H51 H 0.74695 -0.25779 0.25042
 H52 H 0.73170 -0.27608 0.26734
 N53 N 0.70839 0.23862 0.76047
 N54 N 0.71649 0.25565 0.76858
 C55 C 0.70663 0.25977 0.78665
 C56 C 0.69146 0.24454 0.79002
 C57 C 0.69303 0.23140 0.77301
 H58 H 0.71023 0.27288 0.79661
 H59 H 0.68403 0.21734 0.77020
 Cu60 Cu 0.73941 0.27070 0.75507
 Cu61 Cu 0.71889 0.22668 0.73471
 Cu62 Cu 0.76103 0.25171 0.71114
 N63 N 0.76347 0.28416 0.74180
 N64 N 0.77193 0.27664 0.72478
 C65 C 0.78846 0.28864 0.71927
 C66 C 0.79063 0.30470 0.73365
 C67 C 0.77435 0.30123 0.74772
 H68 H 0.79818 0.28568 0.70583
 H69 H 0.77076 0.31023 0.76144
 N70 N 0.74779 0.22633 0.69967
 N71 N 0.73166 0.21690 0.70861
 C72 C 0.72627 0.20007 0.69726
 C73 C 0.73964 0.19875 0.68030
 C74 C 0.75309 0.21571 0.68238
 H75 H 0.71375 0.18935 0.70128
 H76 H 0.76580 0.22004 0.67205
 H77 H 0.74928 0.23836 0.73806
 H78 H 0.73054 0.25395 0.72200
 N79 N 0.29245 -0.25617 0.75804
 N80 N 0.28089 -0.26985 0.76809
 C81 C 0.29097 -0.27538 0.78570
 C82 C 0.30993 -0.26452 0.78686
 C83 C 0.31028 -0.25249 0.76893
 H84 H 0.28466 -0.28617 0.79699
 H85 H 0.32236 -0.24155 0.76427
 Cu86 Cu 0.25331 -0.27851 0.75790
 Cu87 Cu 0.28281 -0.24322 0.73234
 Cu88 Cu 0.23687 -0.26300 0.71045
 N89 N 0.22996 -0.29213 0.74359
 N90 N 0.22355 -0.28611 0.72510
 C91 C 0.20696 -0.29793 0.71918
 C92 C 0.20263 -0.31224 0.73486
 C93 C 0.21773 -0.30800 0.75009
 H94 H 0.19863 -0.29598 0.70461
 H95 H 0.21975 -0.31567 0.76491
 N96 N 0.25279 -0.23960 0.69819
 N97 N 0.27037 -0.23218 0.70649
 C98 C 0.27687 -0.21566 0.69533
 C99 C 0.26267 -0.21238 0.67921
 C100 C 0.24764 -0.22797 0.68152
 H101 H 0.29063 -0.20637 0.69908
 H102 H 0.23353 -0.23023 0.67227
 H103 H 0.25062 -0.24797 0.73564
 H104 H 0.26596 -0.26948 0.72341
 N105 N 0.71590 -0.23322 0.77356
 N106 N 0.72385 -0.24847 0.78458
 C107 C 0.71137 -0.25210 0.80111
 C108 C 0.69469 -0.23832 0.80052
 C109 C 0.69814 -0.22657 0.78275
 H110 H 0.71444 -0.26368 0.81289
 H111 H 0.68849 -0.21409 0.77691
 Cu112 Cu 0.75007 -0.26188 0.77688
 Cu113 Cu 0.72950 -0.22280 0.74851
 Cu114 Cu 0.77315 -0.24953 0.73125
 N115 N 0.77276 -0.27835 0.76530
 N116 N 0.78166 -0.27352 0.74750
 C117 C 0.79709 -0.28713 0.74347
 C118 C 0.79805 -0.30142 0.75967
 C119 C 0.78221 -0.29526 0.77322
 H120 H 0.80696 -0.28639 0.72982
 H121 H 0.77789 -0.30234 0.78785
 N122 N 0.76216 -0.22484 0.71696
 N123 N 0.74548 -0.21467 0.72352
 C124 C 0.74214 -0.19837 0.71084
 C125 C 0.75750 -0.19821 0.69553
 C126 C 0.76990 -0.21528 0.69995
 H127 H 0.72970 -0.18721 0.71289
 H128 H 0.78360 -0.22035 0.69146
 H129 H 0.74219 -0.25141 0.74132
 H130 H 0.75988 -0.23235 0.75503
 N131 N 0.29146 0.25414 0.76951
 N132 N 0.28415 0.27129 0.77781
 C133 C 0.29756 0.27785 0.79279
 C134 C 0.31420 0.26407 0.79402
 C135 C 0.30974 0.24921 0.77894
 H136 H 0.29505 0.29129 0.80253
 H137 H 0.31891 0.23564 0.77524
 Cu138 Cu 0.25721 0.28265 0.76906
 Cu139 Cu 0.27623 0.23897 0.74777
 Cu140 Cu 0.22814 0.25913 0.73200
 N141 N 0.23024 0.29382 0.76014
 N142 N 0.21900 0.28452 0.74558
 C143 C 0.20099 0.29502 0.74261
 C144 C 0.20083 0.31184 0.75609
 C145 C 0.21970 0.31055 0.76698
 H146 H 0.18874 0.29042 0.73176
 H147 H 0.22532 0.32099 0.77902
 N148 N 0.24007 0.23361 0.72012
 N149 N 0.25840 0.22597 0.72601
 C150 C 0.26204 0.20846 0.71515
 C151 C 0.24516 0.20484 0.70181
 C152 C 0.23156 0.22115 0.70542
 H153 H 0.27583 0.19889 0.71705
 H154 H 0.21660 0.22384 0.69781
 H155 H 0.26017 0.26411 0.73604
 H156 H 0.24649 0.24841 0.75639
 N157 N 0.29081 -0.23615 0.23764
 N158 N 0.28445 -0.25406 0.22996
 C159 C 0.29505 -0.25788 0.21224
 C160 C 0.30884 -0.24146 0.20859
 C161 C 0.30568 -0.22798 0.22511
 H162 H 0.29286 -0.27156 0.20270
 H163 H 0.31329 -0.21312 0.22769
 Cu164 Cu 0.26251 -0.27034 0.24360
 Cu165 Cu 0.27886 -0.22438 0.26292
 Cu166 Cu 0.23979 -0.25321 0.28747
 N167 N 0.24054 -0.28636 0.25751
 N168 N 0.23189 -0.27960 0.27477
 C169 C 0.21669 -0.29298 0.28072
 C170 C 0.21560 -0.30905 0.26637
 C171 C 0.23104 -0.30430 0.25185
 H172 H 0.20662 -0.29070 0.29406
 H173 H 0.23482 -0.31304 0.23799
 N174 N 0.24990 -0.22615 0.29793
 N175 N 0.26479 -0.21517 0.28864
 C176 C 0.26769 -0.19726 0.29916
 C177 C 0.25391 -0.19689 0.31585
 C178 C 0.24291 -0.21550 0.31455
 H179 H 0.27863 -0.18514 0.29467
 H180 H 0.23060 -0.22086 0.32488
 H181 H 0.27030 -0.25231 0.27618
 H182 H 0.24978 -0.23887 0.26034
 N183 N 0.70993 0.25368 0.24143
 N184 N 0.71896 0.27000 0.23292
 C185 C 0.70729 0.27623 0.21656
 C186 C 0.69002 0.26303 0.21458
 C187 C 0.69224 0.24891 0.23071
 H188 H 0.71148 0.28901 0.20645
 H189 H 0.68197 0.23592 0.23424
 Cu190 Cu 0.74578 0.28096 0.24297
 Cu191 Cu 0.72249 0.23910 0.26489
 Cu192 Cu 0.76714 0.26138 0.28687
 N193 N 0.76886 0.29487 0.25749
 N194 N 0.77711 0.28724 0.27462
 C195 C 0.79329 0.29945 0.28078
 C196 C 0.79538 0.31567 0.26672
 C197 C 0.77949 0.31223 0.25217
 H198 H 0.80319 0.29634 0.29414
 H199 H 0.77605 0.32144 0.23853
 N200 N 0.75466 0.23521 0.29700
 N201 N 0.73759 0.22674 0.28866
 C202 C 0.73346 0.20866 0.29839
 C203 C 0.74871 0.20552 0.31357
 C204 C 0.76187 0.22273 0.31222
 H205 H 0.72066 0.19824 0.29427
 H206 H 0.77582 0.22585 0.32146
 H207 H 0.73650 0.26587 0.27642
 H208 H 0.75345 0.24827 0.26054
 C209 C 0.23580 0.00957 0.45075
 C210 C 0.23793 0.02765 0.46273
 C211 C 0.23864 0.02607 0.48455
 C212 C 0.23589 0.00671 0.49458
 C213 C 0.23306 -0.01114 0.48203
 C214 C 0.23382 -0.00992 0.46021
 C215 C 0.23631 0.00505 0.51794
 C216 C 0.24191 -0.01371 0.52781
 C217 C 0.24196 -0.01554 0.54961
 C218 C 0.23753 0.00195 0.56180
 C219 C 0.23257 0.02098 0.55246
 C220 C 0.23135 0.02221 0.53063
 H221 H 0.23592 0.01065 0.43390
 H222 H 0.24128 0.04008 0.49350
 H223 H 0.23066 -0.02620 0.48904
 H224 H 0.24676 -0.02697 0.51875
 H225 H 0.23812 0.00079 0.57862
 H226 H 0.22629 0.03666 0.52376
 C227 C 0.76008 -0.00540 0.54699
 C228 C 0.75468 0.01227 0.53549
 C229 C 0.75409 0.01109 0.51364
 C230 C 0.75975 -0.00728 0.50309
 C231 C 0.76562 -0.02466 0.51510
 C232 C 0.76530 -0.02400 0.53696
 C233 C 0.75941 -0.00836 0.47972
 C234 C 0.75620 -0.02745 0.46929
 C235 C 0.75637 -0.02861 0.44743
 C236 C 0.75859 -0.01030 0.43584
 C237 C 0.76115 0.00896 0.44575
 C238 C 0.76218 0.00972 0.46760
 H239 H 0.76012 -0.00470 0.56385
 H240 H 0.74873 0.02450 0.50507
 H241 H 0.77077 -0.03878 0.50763
 H242 H 0.75367 -0.04157 0.47803
 H243 H 0.75821 -0.01103 0.41897
 H244 H 0.76488 0.02458 0.47504
 C245 C 0.45059 0.24702 -0.00297
 C246 C 0.46029 0.24240 0.01611
 C247 C 0.48236 0.24072 0.01701
 C248 C 0.49492 0.24488 -0.00065
 C249 C 0.48471 0.25009 -0.01949
 C250 C 0.46262 0.25075 -0.02087
 C251 C 0.51853 0.24431 0.00070
 C252 C 0.53083 0.24008 -0.01707
 C253 C 0.55298 0.24066 -0.01613
 C254 C 0.56293 0.24429 0.00310
 C255 C 0.55112 0.24816 0.02108
 C256 C 0.52903 0.24855 0.01967
 H257 H 0.43353 0.24736 -0.00394
 H258 H 0.48962 0.23649 0.03165
 H259 H 0.49379 0.25420 -0.03313
 H260 H 0.52330 0.23668 -0.03184
 H261 H 0.57999 0.24384 0.00411
 H262 H 0.52019 0.25276 0.03339
 C263 C 0.55081 0.76605 -0.00156
 C264 C 0.54001 0.76162 0.01694
 C265 C 0.51786 0.76077 0.01666
 C266 C 0.50638 0.76527 -0.00166
 C267 C 0.51769 0.77018 -0.01991
 C268 C 0.53983 0.77013 -0.02009
 C269 C 0.48275 0.76477 -0.00175
 C270 C 0.47138 0.75978 -0.02006
 C271 C 0.44922 0.75966 -0.02030
 C272 C 0.43832 0.76360 -0.00176
 C273 C 0.44922 0.76818 0.01676
 C274 C 0.47135 0.76923 0.01650
 H275 H 0.56789 0.76566 -0.00166
 H276 H 0.50968 0.75665 0.03083
 H277 H 0.50940 0.77435 -0.03405
 H278 H 0.47966 0.75608 -0.03426
 H279 H 0.42126 0.76249 -0.00163
 H280 H 0.47956 0.77384 0.03060
 C281 C 0.00584 0.44543 0.23892
 C282 C 0.02472 0.45584 0.23405
 C283 C 0.02509 0.47765 0.23388
 C284 C 0.00713 0.48915 0.23944
 C285 C -0.01145 0.47827 0.24475
 C286 C -0.01235 0.45650 0.24414
 C287 C 0.00787 0.51238 0.24018
 C288 C -0.01048 0.52416 0.23669
 C289 C -0.01012 0.54589 0.23858
 C290 C 0.00908 0.55601 0.24288
 C291 C 0.02764 0.54472 0.24601
 C292 C 0.02684 0.52296 0.24499
 H293 H 0.00536 0.42862 0.23887
 H294 H 0.03944 0.48554 0.22922
 H295 H -0.02521 0.48660 0.24998
 H296 H -0.02523 0.51649 0.23286
 H297 H 0.00962 0.57281 0.24348
 H298 H 0.04098 0.51435 0.24855
 C299 C -0.00594 0.55515 0.76128
 C300 C 0.01254 0.54445 0.75625
 C301 C 0.01210 0.52265 0.75578
 C302 C -0.00638 0.51145 0.76083
 C303 C -0.02464 0.52259 0.76610
 C304 C -0.02463 0.54438 0.76602
 C305 C -0.00663 0.48824 0.76044
 C306 C -0.02516 0.47711 0.75516
 C307 C -0.02538 0.45531 0.75466
 C308 C -0.00671 0.44456 0.75899
 C309 C 0.01197 0.45528 0.76404
 C310 C 0.01177 0.47704 0.76512
 H311 H -0.00580 0.57197 0.76137
 H312 H 0.02614 0.51452 0.75095
 H313 H -0.03888 0.51439 0.77059
 H314 H -0.03936 0.48532 0.75088
 H315 H -0.00669 0.42776 0.75831
 H316 H 0.02601 0.48515 0.76990
 C317 C 0.34025 0.25245 0.15051
 C318 C 0.35420 0.23574 0.15041
 C319 C 0.35244 0.22028 0.16561
 C320 C 0.33670 0.22147 0.18079
 C321 C 0.32246 0.23815 0.18092
 C322 C 0.32451 0.25368 0.16563
 C323 C 0.36997 0.23442 0.13440
 C324 C 0.38276 0.23385 0.12057
 C325 C 0.39716 0.23388 0.10386
 C326 C 0.40891 0.23460 0.08914
 C327 C 0.42217 0.23638 0.07107
 C328 C 0.43868 0.22248 0.06765
 C329 C 0.45121 0.22435 0.04979
 C330 C 0.44727 0.24013 0.03516
 C331 C 0.43072 0.25406 0.03887
 C332 C 0.41829 0.25218 0.05667
 H333 H 0.34148 0.26453 0.13882
 H334 H 0.36312 0.20723 0.16565
 H335 H 0.33556 0.20917 0.19219
 H336 H 0.31404 0.26684 0.16528
 H337 H 0.44181 0.21017 0.07869
 H338 H 0.46373 0.21331 0.04727
 H339 H 0.42752 0.26658 0.02809
 H340 H 0.40561 0.26307 0.05919
 C341 C 0.65519 0.72078 0.15406
 C342 C 0.63977 0.73614 0.15478
 C343 C 0.63905 0.74967 0.17179
 C344 C 0.65381 0.74801 0.18795
 C345 C 0.66970 0.73276 0.18735
 C346 C 0.66999 0.71905 0.17017
 C347 C 0.62514 0.73848 0.13773
 C348 C 0.61320 0.74074 0.12325
 C349 C 0.59963 0.74374 0.10604
 C350 C 0.58849 0.74666 0.09107
 C351 C 0.57580 0.75059 0.07286
 C352 C 0.55824 0.73806 0.06818
 C353 C 0.54639 0.74171 0.05011
 C354 C 0.55204 0.75791 0.03648
 C355 C 0.56956 0.77054 0.04148
 C356 C 0.58134 0.76688 0.05952
 H357 H 0.65593 0.71024 0.14091
 H358 H 0.62719 0.76166 0.17249
 H359 H 0.65268 0.75889 0.20071
 H360 H 0.68169 0.70702 0.16886
 H361 H 0.55385 0.72536 0.07838
 H362 H 0.53310 0.73162 0.04657
 H363 H 0.57411 0.78331 0.03146
 H364 H 0.59485 0.77672 0.06301
 C365 C 0.66810 0.25104 -0.15607
 C366 C 0.65007 0.23844 -0.15739
 C367 C 0.64549 0.22784 -0.17593
 C368 C 0.65894 0.22980 -0.19307
 C369 C 0.67711 0.24247 -0.19189
 C370 C 0.68151 0.25308 -0.17318
 C371 C 0.63630 0.23658 -0.13969
 C372 C 0.62508 0.23548 -0.12461
 C373 C 0.61232 0.23479 -0.10664
 C374 C 0.60179 0.23481 -0.09105
 C375 C 0.58968 0.23567 -0.07214
 C376 C 0.57222 0.22256 -0.06920
 C377 C 0.56034 0.22393 -0.05090
 C378 C 0.56582 0.23846 -0.03534
 C379 C 0.58347 0.25146 -0.03847
 C380 C 0.59530 0.25004 -0.05670
 H381 H 0.67183 0.25929 -0.14179
 H382 H 0.63153 0.21811 -0.17717
 H383 H 0.65493 0.22158 -0.20727
 H384 H 0.69544 0.26278 -0.17160
 H385 H 0.56774 0.21136 -0.08105
 H386 H 0.54698 0.21356 -0.04887
 H387 H 0.58791 0.26304 -0.02698
 H388 H 0.60873 0.26033 -0.05884
 C389 C 0.33749 0.72215 -0.16222
 C390 C 0.35428 0.73636 -0.16214
 C391 C 0.35704 0.74979 -0.17903
 C392 C 0.34288 0.74927 -0.19579
 C393 C 0.32565 0.73531 -0.19587
 C394 C 0.32329 0.72159 -0.17895
 C395 C 0.36808 0.73784 -0.14432
 C396 C 0.37929 0.73952 -0.12918
 C397 C 0.39199 0.74201 -0.11122
 C398 C 0.40244 0.74459 -0.09567
 C399 C 0.41438 0.74824 -0.07687
 C400 C 0.40811 0.76387 -0.06313
 C401 C 0.41947 0.76755 -0.04480
 C402 C 0.43731 0.75562 -0.03990
 C403 C 0.44357 0.73997 -0.05383
 C404 C 0.43214 0.73629 -0.07221
 H405 H 0.33517 0.71168 -0.14921
 H406 H 0.36996 0.76091 -0.17911
 H407 H 0.34532 0.76009 -0.20842
 H408 H 0.31040 0.71051 -0.17842
 H409 H 0.39443 0.77325 -0.06662
 H410 H 0.41444 0.77990 -0.03454
 H411 H 0.45710 0.73038 -0.05039
 H412 H 0.43711 0.72412 -0.08272
 C413 C 0.17218 0.34503 0.21798
 C414 C 0.15774 0.34900 0.23389
 C415 C 0.15835 0.33725 0.25219
 C416 C 0.17321 0.32151 0.25456
 C417 C 0.18773 0.31723 0.23861
 C418 C 0.18708 0.32928 0.22031
 C419 C 0.14196 0.36478 0.23136
 C420 C 0.12840 0.37769 0.22960
 C421 C 0.11208 0.39241 0.22804
 C422 C 0.09775 0.40459 0.22722
 C423 C 0.08015 0.41860 0.22696
 C424 C 0.08124 0.43733 0.23801
 C425 C 0.06341 0.44989 0.23959
 C426 C 0.04422 0.44380 0.23022
 C427 C 0.04351 0.42531 0.21853
 C428 C 0.06135 0.41280 0.21694
 H429 H 0.17186 0.35402 0.20373
 H430 H 0.14721 0.34016 0.26461
 H431 H 0.17308 0.31262 0.26884
 H432 H 0.19801 0.32662 0.20771
 H433 H 0.09567 0.44192 0.24594
 H434 H 0.06440 0.46391 0.24889
 H435 H 0.02904 0.42035 0.21092
 H436 H 0.06032 0.39833 0.20836
 C437 C 0.16725 0.64508 0.75371
 C438 C 0.15305 0.64324 0.73709
 C439 C 0.15549 0.65586 0.71955
 C440 C 0.17196 0.67043 0.71868
 C441 C 0.18632 0.67268 0.73544
 C442 C 0.18374 0.65960 0.75292
 C443 C 0.13560 0.62883 0.73831
 C444 C 0.12078 0.61705 0.73954
 C445 C 0.10315 0.60362 0.74123
 C446 C 0.08785 0.59250 0.74290
 C447 C 0.06928 0.57970 0.74519
 C448 C 0.05017 0.58596 0.73630
 C449 C 0.03180 0.57426 0.73951
 C450 C 0.03229 0.55612 0.75169
 C451 C 0.05166 0.54969 0.76019
 C452 C 0.07003 0.56145 0.75699
 H453 H 0.16548 0.63541 0.76740
 H454 H 0.14455 0.65459 0.70659
 H455 H 0.17316 0.67991 0.70486
 H456 H 0.19424 0.66054 0.76621
 H457 H 0.04941 0.60005 0.72712
 H458 H 0.01718 0.57945 0.73253
 H459 H 0.05248 0.53593 0.76982
 H460 H 0.08472 0.55651 0.76403
 C461 C -0.17025 0.64005 0.22573
 C462 C -0.15339 0.64043 0.23983
 C463 C -0.15360 0.65429 0.25659
 C464 C -0.17053 0.66777 0.25928
 C465 C -0.18769 0.66769 0.24516
 C466 C -0.18727 0.65351 0.22835
 C467 C -0.13572 0.62677 0.23721
 C468 C -0.12057 0.61569 0.23560
 C469 C -0.10243 0.60315 0.23445
 C470 C -0.08665 0.59283 0.23421
 C471 C -0.06746 0.58102 0.23487
 C472 C -0.05226 0.58567 0.25006
 C473 C -0.03364 0.57430 0.25113
 C474 C -0.02989 0.55805 0.23699
 C475 C -0.04527 0.55343 0.22173
 C476 C -0.06394 0.56489 0.22068
 H477 H -0.17026 0.62936 0.21268
 H478 H -0.14062 0.65471 0.26763
 H479 H -0.16995 0.67817 0.27249
 H480 H -0.19996 0.65268 0.21708
 H481 H -0.05484 0.59807 0.26117
 H482 H -0.02229 0.57802 0.26326
 H483 H -0.04275 0.54114 0.21051
 H484 H -0.07559 0.56118 0.20882
 C485 C -0.16228 0.33706 0.71970
 C486 C -0.16242 0.35197 0.73554
 C487 C -0.17834 0.35144 0.75054
 C488 C -0.19394 0.33598 0.74985
 C489 C -0.19391 0.32064 0.73410
 C490 C -0.17785 0.32158 0.71892
 C491 C -0.14586 0.36738 0.73675
 C492 C -0.13170 0.37996 0.73793
 C493 C -0.11474 0.39425 0.73952
 C494 C -0.09990 0.40599 0.74107
 C495 C -0.08170 0.41938 0.74321
 C496 C -0.08252 0.43719 0.75571
 C497 C -0.06434 0.44927 0.75895
 C498 C -0.04509 0.44360 0.74980
 C499 C -0.04458 0.42599 0.73681
 C500 C -0.06276 0.41398 0.73356
 H501 H -0.14998 0.33727 0.70802
 H502 H -0.17860 0.36290 0.76291
 H503 H -0.20587 0.33617 0.76182
 H504 H -0.17700 0.31032 0.70646
 H505 H -0.09708 0.44147 0.76332
 H506 H -0.06516 0.46264 0.76916
 H507 H -0.03007 0.42141 0.72932
 H508 H -0.06194 0.40026 0.72383
 C509 C 0.27093 0.16271 0.34774
 C510 C 0.25409 0.16323 0.36174
 C511 C 0.23809 0.17784 0.35907
 C512 C 0.23874 0.19165 0.34227
 C513 C 0.25538 0.19095 0.32782
 C514 C 0.27161 0.17647 0.33093
 C515 C 0.25259 0.14793 0.37802
 C516 C 0.25108 0.13456 0.39107
 C517 C 0.24898 0.11820 0.40556
 C518 C 0.24684 0.10361 0.41713
 C519 C 0.24381 0.08543 0.42983
 C520 C 0.25708 0.08140 0.44684
 C521 C 0.25488 0.06283 0.45802
 C522 C 0.23947 0.04808 0.45215
 C523 C 0.22590 0.05256 0.43539
 C524 C 0.22807 0.07108 0.42433
 H525 H 0.28337 0.15142 0.34961
 H526 H 0.22489 0.17829 0.36973
 H527 H 0.22591 0.20246 0.34037
 H528 H 0.28479 0.17561 0.32032
 H529 H 0.26937 0.09238 0.45119
 H530 H 0.26564 0.05970 0.47076
 H531 H 0.21370 0.04162 0.43073
 H532 H 0.21770 0.07404 0.41122
 C533 C 0.72319 0.15260 0.64694
 C534 C 0.74048 0.15073 0.63362
 C535 C 0.75735 0.16479 0.63526
 C536 C 0.75702 0.18056 0.65027
 C537 C 0.73979 0.18244 0.66392
 C538 C 0.72282 0.16832 0.66196
 C539 C 0.74115 0.13395 0.61880
 C540 C 0.74173 0.11957 0.60677
 C541 C 0.74251 0.10235 0.59316
 C542 C 0.74335 0.08730 0.58201
 C543 C 0.74470 0.06891 0.56932
 C544 C 0.75629 0.06917 0.55079
 C545 C 0.75895 0.05086 0.53938
 C546 C 0.75012 0.03204 0.54644
 C547 C 0.73799 0.03208 0.56475
 C548 C 0.73533 0.05039 0.57610
 H549 H 0.71004 0.14179 0.64583
 H550 H 0.77087 0.16344 0.62508
 H551 H 0.77043 0.19100 0.65135
 H552 H 0.70919 0.16934 0.67198
 H553 H 0.76369 0.08340 0.54544
 H554 H 0.76854 0.05126 0.52546
 H555 H 0.73077 0.01788 0.57041
 H556 H 0.72630 0.05001 0.59040
 C557 C 0.24714 -0.17760 0.63391
 C558 C 0.26112 -0.16088 0.63653
 C559 C 0.27608 -0.16131 0.65260
 C560 C 0.27685 -0.17820 0.66621
 C561 C 0.26260 -0.19496 0.66402
 C562 C 0.24787 -0.19454 0.64752
 C563 C 0.25963 -0.14287 0.62335
 C564 C 0.25828 -0.12747 0.61278
 C565 C 0.25654 -0.10912 0.60092
 C566 C 0.25488 -0.09321 0.59120
 C567 C 0.25263 -0.07395 0.58006
 C568 C 0.26215 -0.05582 0.58779
 C569 C 0.25907 -0.03687 0.57768
 C570 C 0.24637 -0.03581 0.55968
 C571 C 0.23718 -0.05419 0.55181
 C572 C 0.24027 -0.07313 0.56196
 H573 H 0.23549 -0.17744 0.62151
 H574 H 0.28695 -0.14842 0.65481
 H575 H 0.28838 -0.17781 0.67866
 H576 H 0.23677 -0.20717 0.64515
 H577 H 0.27176 -0.05628 0.60178
 H578 H 0.26657 -0.02303 0.58395
 H579 H 0.22712 -0.05382 0.53813
 H580 H 0.23275 -0.08705 0.55590
 C581 C 0.72373 -0.17662 0.34533
 C582 C 0.74264 -0.17225 0.35580
 C583 C 0.76044 -0.18436 0.35194
 C584 C 0.75942 -0.20056 0.33743
 C585 C 0.74059 -0.20481 0.32647
 C586 C 0.72268 -0.19278 0.33079
 C587 C 0.74403 -0.15475 0.36974
 C588 C 0.74529 -0.13974 0.38095
 C589 C 0.74692 -0.12177 0.39350
 C590 C 0.74852 -0.10609 0.40369
 C591 C 0.75074 -0.08698 0.41519
 C592 C 0.76559 -0.07215 0.40880
 C593 C 0.76748 -0.05327 0.41940
 C594 C 0.75449 -0.04892 0.43656
 C595 C 0.73974 -0.06400 0.44304
 C596 C 0.73786 -0.08292 0.43238
 H597 H 0.70985 -0.16735 0.34818
 H598 H 0.77520 -0.18106 0.35989
 H599 H 0.77356 -0.20937 0.33447
 H600 H 0.70784 -0.19572 0.32291
 H601 H 0.77566 -0.07512 0.39555
 H602 H 0.77920 -0.04210 0.41425
 H603 H 0.72940 -0.06102 0.45608
 H604 H 0.72626 -0.09427 0.43742
 C605 C 0.65788 0.75045 -0.15432
 C606 C 0.64546 0.76829 -0.15411
 C607 C 0.64881 0.78383 -0.16898
 C608 C 0.66467 0.78161 -0.18390
 C609 C 0.67743 0.76381 -0.18409
 C610 C 0.67374 0.74820 -0.16919
 C611 C 0.62968 0.77079 -0.13826
 C612 C 0.61682 0.77258 -0.12461
 C613 C 0.60221 0.77425 -0.10817
 C614 C 0.59016 0.77524 -0.09373
 C615 C 0.57636 0.77580 -0.07600
 C616 C 0.55737 0.76456 -0.07621
 C617 C 0.54503 0.76338 -0.05823
 C618 C 0.55162 0.77336 -0.03978
 C619 C 0.57036 0.78521 -0.03994
 C620 C 0.58266 0.78638 -0.05793
 H621 H 0.65540 0.73831 -0.14289
 H622 H 0.63933 0.79774 -0.16891
 H623 H 0.66711 0.79401 -0.19499
 H624 H 0.68305 0.73421 -0.16896
 H625 H 0.55241 0.75621 -0.09008
 H626 H 0.53080 0.75396 -0.05851
 H627 H 0.57569 0.79326 -0.02603
 H628 H 0.59734 0.79511 -0.05758
 C629 C 0.35215 0.28232 -0.16371
 C630 C 0.36425 0.26454 -0.16052
 C631 C 0.36055 0.24685 -0.17271
 C632 C 0.34457 0.24681 -0.18781
 C633 C 0.33199 0.26447 -0.19084
 C634 C 0.33616 0.28232 -0.17878
 C635 C 0.37964 0.26411 -0.14398
 C636 C 0.39200 0.26361 -0.12967
 C637 C 0.40581 0.26282 -0.11239
 C638 C 0.41700 0.26192 -0.09720
 C639 C 0.42958 0.26051 -0.07855
 C640 C 0.44764 0.24814 -0.07813
 C641 C 0.45881 0.24547 -0.05949
 C642 C 0.45195 0.25505 -0.04103
 C643 C 0.43411 0.26789 -0.04177
 C644 C 0.42301 0.27057 -0.06040
 H645 H 0.35487 0.29608 -0.15433
 H646 H 0.36976 0.23296 -0.17029
 H647 H 0.34181 0.23276 -0.19668
 H648 H 0.32704 0.29629 -0.18081
 H649 H 0.45278 0.24018 -0.09207
 H650 H 0.47235 0.23533 -0.05935
 H651 H 0.42861 0.27568 -0.02787
 H652 H 0.40904 0.28016 -0.06055
 C653 C 0.35252 0.77965 0.17399
 C654 C 0.35080 0.76658 0.15664
 C655 C 0.33544 0.75086 0.15627
 C656 C 0.32183 0.74821 0.17315
 C657 C 0.32338 0.76128 0.19070
 C658 C 0.33891 0.77705 0.19091
 C659 C 0.36475 0.76914 0.13919
 C660 C 0.37625 0.77087 0.12437
 C661 C 0.38948 0.77237 0.10681
 C662 C 0.40058 0.77314 0.09162
 C663 C 0.41357 0.77338 0.07328
 C664 C 0.43286 0.76297 0.07329
 C665 C 0.44475 0.76180 0.05504
 C666 C 0.43747 0.77100 0.03651
 C667 C 0.41831 0.78189 0.03680
 C668 C 0.40644 0.78303 0.05508
 H669 H 0.36439 0.79185 0.17446
 H670 H 0.33395 0.74066 0.14289
 H671 H 0.31003 0.73603 0.17227
 H672 H 0.34072 0.78731 0.20416
 H673 H 0.43846 0.75533 0.08727
 H674 H 0.45929 0.75308 0.05525
 H675 H 0.41242 0.78934 0.02285
 H676 H 0.39151 0.79111 0.05490
 C677 C 0.65701 0.28001 0.16826
 C678 C 0.64445 0.26238 0.16478
 C679 C 0.64625 0.24523 0.17800
 C680 C 0.66076 0.24557 0.19447
 C681 C 0.67376 0.26308 0.19787
 C682 C 0.67155 0.28039 0.18470
 C683 C 0.63040 0.26155 0.14712
 C684 C 0.61905 0.26069 0.13203
 C685 C 0.60625 0.25949 0.11402
 C686 C 0.59576 0.25830 0.09835
 C687 C 0.58382 0.25669 0.07929
 C688 C 0.56527 0.24476 0.07850
 C689 C 0.55437 0.24232 0.05964
 C690 C 0.56195 0.25174 0.04134
 C691 C 0.58039 0.26401 0.04240
 C692 C 0.59125 0.26644 0.06125
 H693 H 0.65576 0.29338 0.15811
 H694 H 0.63667 0.23146 0.17538
 H695 H 0.66207 0.23191 0.20415
 H696 H 0.68108 0.29421 0.18696
 H697 H 0.55944 0.23706 0.09235
 H698 H 0.54034 0.23261 0.05925
 H699 H 0.58645 0.27167 0.02863
 H700 H 0.60558 0.27572 0.06169
 C701 C -0.15770 0.66207 0.74947
 C702 C -0.15840 0.64957 0.76723
 C703 C -0.17382 0.65299 0.78232
 C704 C -0.18837 0.66902 0.77978
 C705 C -0.18771 0.68199 0.76204
 C706 C -0.17218 0.67809 0.74685
 C707 C -0.14287 0.63365 0.77003
 C708 C -0.12935 0.62072 0.77186
 C709 C -0.11297 0.60610 0.77335
 C710 C -0.09850 0.59409 0.77401
 C711 C -0.08069 0.58040 0.77399
 C712 C -0.06197 0.58638 0.78403
 C713 C -0.04389 0.57427 0.78209
 C714 C -0.04431 0.55602 0.77003
 C715 C -0.06341 0.54973 0.76062
 C716 C -0.08147 0.56189 0.76254
 H717 H -0.14581 0.65955 0.73767
 H718 H -0.17450 0.64339 0.79616
 H719 H -0.19994 0.67119 0.79189
 H720 H -0.17091 0.68738 0.73290
 H721 H -0.06118 0.60070 0.79289
 H722 H -0.02948 0.57936 0.78973
 H723 H -0.06415 0.53588 0.75104
 H724 H -0.09584 0.55719 0.75458
 C725 C -0.16922 0.35980 0.24836
 C726 C -0.15517 0.36177 0.26512
 C727 C -0.15775 0.34926 0.28273
 C728 C -0.17408 0.33456 0.28345
 C729 C -0.18805 0.33211 0.26649
 C730 C -0.18557 0.34512 0.24903
 C731 C -0.13754 0.37592 0.26384
 C732 C -0.12246 0.38734 0.26253
 C733 C -0.10447 0.40024 0.26069
 C734 C -0.08884 0.41083 0.25881
 C735 C -0.06990 0.42299 0.25618
 C736 C -0.05082 0.41599 0.26455
 C737 C -0.03214 0.42707 0.26097
 C738 C -0.03230 0.44530 0.24892
 C739 C -0.05163 0.45243 0.24090
 C740 C -0.07029 0.44131 0.24449
 H741 H -0.16734 0.36937 0.23461
 H742 H -0.14695 0.35065 0.29580
 H743 H -0.17554 0.32505 0.29724
 H744 H -0.19589 0.34373 0.23565
 H745 H -0.05034 0.40183 0.27363
 H746 H -0.01756 0.42136 0.26759
 H747 H -0.05221 0.46629 0.23140
 H748 H -0.08496 0.44682 0.23786
 C749 C 0.16711 0.35468 0.77889
 C750 C 0.15112 0.35615 0.76390
 C751 C 0.15151 0.34338 0.74627
 C752 C 0.16774 0.32908 0.74367
 C753 C 0.18386 0.32735 0.75870
 C754 C 0.18340 0.34039 0.77632
 C755 C 0.13412 0.37056 0.76656
 C756 C 0.11960 0.38237 0.76834
 C757 C 0.10227 0.39587 0.76983
 C758 C 0.08718 0.40710 0.77053
 C759 C 0.06885 0.42010 0.77060
 C760 C 0.06917 0.43907 0.76001
 C761 C 0.05081 0.45084 0.75843
 C762 C 0.03186 0.44371 0.76737
 C763 C 0.03185 0.42489 0.77848
 C764 C 0.05024 0.41316 0.78005
 H765 H 0.16691 0.36448 0.79263
 H766 H 0.13922 0.34443 0.73454
 H767 H 0.16765 0.31949 0.72982
 H768 H 0.19541 0.33941 0.78830
 H769 H 0.08347 0.44451 0.75252
 H770 H 0.05125 0.46513 0.74957
 H771 H 0.01757 0.41913 0.78574
 H772 H 0.04982 0.39847 0.78826
 C773 C 0.18149 0.64624 0.24679
 C774 C 0.16893 0.64220 0.26421
 C775 C 0.17218 0.65350 0.28259
 C776 C 0.18767 0.66904 0.28344
 C777 C 0.20011 0.67356 0.26586
 C778 C 0.19701 0.66178 0.24760
 C779 C 0.15198 0.62726 0.26292
 C780 C 0.13737 0.61523 0.26169
 C781 C 0.11981 0.60172 0.26006
 C782 C 0.10441 0.59073 0.25850
 C783 C 0.08557 0.57829 0.25641
 C784 C 0.06712 0.58435 0.26656
 C785 C 0.04839 0.57316 0.26355
 C786 C 0.04784 0.55576 0.25028
 C787 C 0.06658 0.54950 0.24050
 C788 C 0.08532 0.56074 0.24353
 H789 H 0.17901 0.63766 0.23244
 H790 H 0.16252 0.65052 0.29617
 H791 H 0.18974 0.67759 0.29783
 H792 H 0.20614 0.66486 0.23372
 H793 H 0.06715 0.59790 0.27658
 H794 H 0.03429 0.57818 0.27152
 H795 H 0.06659 0.53631 0.23003
 H796 H 0.09950 0.55596 0.23553
 C797 C 0.74721 -0.15377 0.65815
 C798 C 0.76592 -0.15327 0.64667
 C799 C 0.78183 -0.16757 0.65098
 C800 C 0.77909 -0.18227 0.66679
 C801 C 0.76036 -0.18284 0.67852
 C802 C 0.74443 -0.16843 0.67395
 C803 C 0.76876 -0.13785 0.63070
 C804 C 0.77069 -0.12462 0.61756
 C805 C 0.77233 -0.10875 0.60252
 C806 C 0.77311 -0.09483 0.59000
 C807 C 0.77322 -0.07777 0.57554
 C808 C 0.78312 -0.05903 0.58099
 C809 C 0.78129 -0.04171 0.56803
 C810 C 0.76946 -0.04292 0.54946
 C811 C 0.76023 -0.06204 0.54373
 C812 C 0.76207 -0.07934 0.55673
 H813 H 0.73477 -0.14278 0.65492
 H814 H 0.79640 -0.16728 0.64222
 H815 H 0.79177 -0.19296 0.66991
 H816 H 0.72974 -0.16846 0.68246
 H817 H 0.79178 -0.05764 0.59553
 H818 H 0.78879 -0.02727 0.57272
 H819 H 0.75084 -0.06338 0.52965
 H820 H 0.75423 -0.09374 0.55243
 C821 C 0.26319 -0.14787 0.34755
 C822 C 0.24503 -0.14740 0.35987
 C823 C 0.22989 -0.16321 0.35800
 C824 C 0.23283 -0.17940 0.34380
 C825 C 0.25097 -0.17995 0.33122
 C826 C 0.26615 -0.16402 0.33332
 C827 C 0.24186 -0.13049 0.37415
 C828 C 0.23947 -0.11607 0.38585
 C829 C 0.23713 -0.09882 0.39918
 C830 C 0.23567 -0.08374 0.41019
 C831 C 0.23475 -0.06528 0.42278
 C832 C 0.22052 -0.06378 0.43935
 C833 C 0.22002 -0.04574 0.45154
 C834 C 0.23372 -0.02900 0.44721
 C835 C 0.24792 -0.03072 0.43051
 C836 C 0.24840 -0.04871 0.41841
 H837 H 0.27503 -0.13571 0.34890
 H838 H 0.21574 -0.16295 0.36740
 H839 H 0.22072 -0.19126 0.34252
 H840 H 0.28040 -0.16402 0.32409
 H841 H 0.20986 -0.07653 0.44284
 H842 H 0.20882 -0.04480 0.46420
 H843 H 0.25893 -0.01828 0.42703
 H844 H 0.25953 -0.04974 0.40569
 C845 C 0.77230 0.16633 0.35102
 C846 C 0.75565 0.15209 0.35305
 C847 C 0.73666 0.15546 0.34245
 C848 C 0.73434 0.17290 0.32975
 C849 C 0.75101 0.18727 0.32746
 C850 C 0.77001 0.18382 0.33834
 C851 C 0.75806 0.13388 0.36578
 C852 C 0.75973 0.11845 0.37623
 C853 C 0.76123 0.10017 0.38823
 C854 C 0.76203 0.08439 0.39826
 C855 C 0.76235 0.06535 0.40997
 C856 C 0.74824 0.04934 0.40481
 C857 C 0.74803 0.03097 0.41634
 C858 C 0.76198 0.02833 0.43322
 C859 C 0.77623 0.04446 0.43823
 C860 C 0.77641 0.06287 0.42665
 H861 H 0.78709 0.16385 0.35911
 H862 H 0.72366 0.14454 0.34395
 H863 H 0.71943 0.17511 0.32183
 H864 H 0.78325 0.19440 0.33686
 H865 H 0.73723 0.05113 0.39198
 H866 H 0.73665 0.01898 0.41229
 H867 H 0.78731 0.04280 0.45100
 H868 H 0.78743 0.07517 0.43075
 C869 C 0.25640 0.15809 0.66763
 C870 C 0.23651 0.15409 0.65892
 C871 C 0.21943 0.16661 0.66423
 C872 C 0.22222 0.18311 0.67818
 C873 C 0.24218 0.18731 0.68703
 C874 C 0.25923 0.17457 0.68160
 C875 C 0.23370 0.13716 0.64449
 C876 C 0.23163 0.12293 0.63241
 C877 C 0.22967 0.10620 0.61830
 C878 C 0.22850 0.09183 0.60629
 C879 C 0.22786 0.07456 0.59204
 C880 C 0.23825 0.07598 0.57290
 C881 C 0.23914 0.05873 0.55971
 C882 C 0.22970 0.03978 0.56555
 C883 C 0.21878 0.03867 0.58458
 C884 C 0.21790 0.05596 0.59774
 H885 H 0.26975 0.14851 0.66359
 H886 H 0.20395 0.16361 0.65763
 H887 H 0.20868 0.19241 0.68212
 H888 H 0.27483 0.17739 0.68793
 H889 H 0.24611 0.09027 0.56839
 H890 H 0.24791 0.06000 0.54531
 H891 H 0.21116 0.02436 0.58938
 H892 H 0.20981 0.05469 0.61253
   
