data_POSCAR
  _audit_creation_date              2014-09-24
  _audit_creation_method            'ToBaCCo'
  _symmetry_space_group_name_H-M    'P1'
  _symmetry_Int_Tables_number       1
  _symmetry_cell_setting            triclinic
  loop_
  _symmetry_equiv_pos_as_xyz
 x,y,z
_cell_length_a 12.6638
_cell_length_b 12.6751
_cell_length_c 16.6324
_cell_angle_alpha 90.913500
_cell_angle_beta 93.738700
_cell_angle_gamma 91.329700
loop_
  _atom_site_label
  _atom_site_type_symbol
  _atom_site_fract_x
  _atom_site_fract_y
  _atom_site_fract_z
C1 C -0.00805 0.60218 1.04364
 C2 C 0.00755 0.60082 0.95885
 C3 C 0.01427 0.50119 0.91995
 C4 C 0.00841 0.40460 0.95994
 C5 C -0.00429 0.40536 1.04415
 C6 C -0.01337 0.50405 1.08306
 H7 H -0.02532 0.50443 1.14667
 H8 H 0.02814 0.49749 0.85655
 C9 C 0.40681 -0.00821 0.54199
 C10 C 0.39964 0.00353 0.45714
 C11 C 0.49315 0.00650 0.41591
 C12 C 0.59527 -0.00087 0.45492
 C13 C 0.60194 -0.00943 0.54058
 C14 C 0.50808 -0.01499 0.58141
 H15 H 0.51451 -0.02377 0.64614
 H16 H 0.48437 0.01030 0.35098
 C17 C 0.18838 -0.05025 0.28984
 H18 H 0.18024 -0.09549 0.23419
 C19 C 0.28210 -0.05522 0.33775
 H20 H 0.34235 -0.10862 0.32013
 C21 C 0.12159 0.07604 0.37847
 H22 H 0.05814 0.12678 0.39385
 C23 C 0.21731 0.07813 0.42597
 H24 H 0.22769 0.13154 0.47748
 N25 N 0.10809 0.01044 0.31276
 C26 C -0.08110 -0.12144 0.10220
 H27 H -0.12021 -0.05284 0.07781
 C28 C -0.08229 -0.21195 0.05883
 H29 H -0.12453 -0.21590 0.00011
 C30 C 0.00294 -0.20178 0.21683
 H31 H 0.03213 -0.19934 0.27937
 C32 C 0.01421 -0.29842 0.16899
 H33 H 0.06111 -0.35963 0.19716
 Zn34 Zn -0.02148 0.00772 0.24783
 N35 N -0.03224 -0.11689 0.18280
 C36 C 0.04801 0.13396 0.12303
 N37 N -0.01806 0.13061 0.18419
 C38 C -0.07280 0.21691 0.20437
 C39 C -0.07185 0.30649 0.15724
 C40 C 0.05666 0.22497 0.07710
 C41 C -0.13531 -0.05273 0.38147
 C42 C -0.22336 -0.05937 0.42804
 C43 C -0.31700 0.05178 0.33283
 C44 C -0.23064 0.04914 0.28534
 N45 N -0.13951 0.00359 0.31255
 H46 H 0.09571 0.06649 0.11094
 H47 H -0.11702 0.21747 0.25761
 H48 H -0.12393 0.36938 0.17206
 H49 H 0.11444 0.22697 0.03202
 H50 H -0.06429 -0.09453 0.39939
 H51 H -0.21935 -0.11098 0.47917
 H52 H -0.38311 0.09861 0.31166
 H53 H -0.23639 0.08513 0.22686
 C54 C -0.02348 -0.30485 0.09101
 C55 C 0.29762 0.00869 0.40736
 C56 C -0.31515 -0.00192 0.40673
 C57 C -0.00720 0.31237 0.09136
 C58 C 0.08723 0.20586 0.80358
 H59 H 0.13986 0.20404 0.75533
 C60 C 0.08609 0.29670 0.85166
 H61 H 0.14337 0.35961 0.84307
 C62 C -0.05488 0.13016 0.87002
 H63 H -0.10987 0.06472 0.87650
 C64 C -0.06348 0.22281 0.91584
 H65 H -0.12585 0.22843 0.95712
 N66 N 0.02107 0.12243 0.81611
 C67 C 0.13071 -0.06170 0.61519
 H68 H 0.05666 -0.10077 0.59489
 C69 C 0.21829 -0.06765 0.56810
 H70 H 0.21121 -0.11401 0.51277
 C71 C 0.23345 0.03334 0.71690
 H72 H 0.24203 0.06534 0.77762
 C73 C 0.31934 0.03798 0.66891
 H74 H 0.39028 0.08049 0.69200
 Zn75 Zn 0.02163 -0.00424 0.75274
 N76 N 0.13903 -0.00893 0.68730
 C77 C -0.12128 0.06674 0.62919
 N78 N -0.10815 -0.00633 0.68787
 C79 C -0.18837 -0.07478 0.70338
 C80 C -0.28173 -0.07859 0.65438
 C81 C -0.21641 0.06976 0.58143
 C82 C 0.07383 -0.12267 0.89534
 C83 C 0.07457 -0.21430 0.94165
 C84 C -0.01583 -0.30790 0.82923
 C85 C -0.00550 -0.21804 0.78333
 N86 N 0.03039 -0.12555 0.81835
 H87 H -0.05804 0.12322 0.61995
 H88 H -0.18141 -0.12611 0.75436
 H89 H -0.34222 -0.13725 0.66581
 H90 H -0.22636 0.12937 0.53583
 H91 H 0.10847 -0.04967 0.92063
 H92 H 0.11416 -0.21111 1.00132
 H93 H -0.05753 -0.37531 0.80055
 H94 H -0.03247 -0.22058 0.72027
 C95 C 0.31289 -0.01203 0.59256
 C96 C 0.01061 0.30614 0.90935
 C97 C 0.02137 -0.30735 0.91123
 C98 C -0.29670 -0.00640 0.59183
   
