data_POSCAR
  _audit_creation_date              2014-09-24
  _audit_creation_method            'ToBaCCo'
  _symmetry_space_group_name_H-M    'P1'
  _symmetry_Int_Tables_number       1
  _symmetry_cell_setting            triclinic
  loop_
  _symmetry_equiv_pos_as_xyz
 x,y,z
_cell_length_a 28.6965
_cell_length_b 28.5776
_cell_length_c 26.1379
_cell_angle_alpha 92.868800
_cell_angle_beta 91.434700
_cell_angle_gamma 90.288900
loop_
  _atom_site_label
  _atom_site_type_symbol
  _atom_site_fract_x
  _atom_site_fract_y
  _atom_site_fract_z
N1 N 0.13517 0.16295 0.25207
 N2 N 0.15654 0.12359 0.23908
 C3 C 0.15020 0.09234 0.27516
 C4 C 0.12291 0.11316 0.31218
 C5 C 0.11435 0.15806 0.29722
 H6 H 0.16746 0.05883 0.27652
 H7 H 0.09708 0.18583 0.31892
 Cu8 Cu 0.19811 0.11947 0.18212
 Cu9 Cu 0.13923 0.21861 0.21107
 Cu10 Cu 0.20753 0.20701 0.10361
 N11 N 0.25255 0.12610 0.14056
 N12 N 0.25557 0.16025 0.10885
 C13 C 0.29819 0.16033 0.08868
 C14 C 0.32270 0.12439 0.10921
 C15 C 0.29347 0.10333 0.14225
 H16 H 0.31143 0.18700 0.06481
 H17 H 0.30225 0.07634 0.16838
 N18 N 0.17249 0.26344 0.12078
 N19 N 0.14774 0.26933 0.16256
 C20 C 0.12755 0.31191 0.16225
 C21 C 0.14117 0.33315 0.11848
 C22 C 0.16911 0.30156 0.09297
 H23 H 0.10242 0.32497 0.18952
 H24 H 0.18395 0.30504 0.05571
 H25 H 0.15091 0.18155 0.14516
 H26 H 0.20361 0.20383 0.18196
 N27 N -0.16005 0.83314 0.23997
 N28 N -0.17517 0.87409 0.22575
 C29 C -0.15790 0.90822 0.25841
 C30 C -0.13128 0.88701 0.29531
 C31 C -0.13365 0.83954 0.28315
 H32 H -0.16566 0.94511 0.25665
 H33 H -0.11724 0.81186 0.30371
 Cu34 Cu -0.21991 0.87809 0.16917
 Cu35 Cu -0.17584 0.77480 0.20078
 Cu36 Cu -0.22933 0.78853 0.08237
 N37 N -0.27391 0.87121 0.12277
 N38 N -0.27702 0.83634 0.08792
 C39 C -0.31885 0.83736 0.06357
 C40 C -0.34261 0.87491 0.08458
 C41 C -0.31386 0.89570 0.12219
 H42 H -0.33187 0.81110 0.03546
 H43 H -0.32218 0.92441 0.14891
 N44 N -0.19660 0.73151 0.09899
 N45 N -0.17810 0.72506 0.14489
 C46 C -0.15582 0.68364 0.14337
 C47 C -0.16101 0.66364 0.09422
 C48 C -0.18669 0.69482 0.06700
 H49 H -0.13375 0.67132 0.17398
 H50 H -0.19476 0.69260 0.02632
 H51 H -0.17592 0.81080 0.13637
 H52 H -0.23433 0.79378 0.15940
 N53 N -0.15478 0.13587 -0.23986
 N54 N -0.18051 0.10151 -0.22391
 C55 C -0.17494 0.06300 -0.25515
 C56 C -0.14519 0.07482 -0.29318
 C57 C -0.13282 0.12103 -0.28253
 H58 H -0.19148 0.02940 -0.25074
 H59 H -0.10808 0.14145 -0.30276
 Cu60 Cu -0.22046 0.11154 -0.16528
 Cu61 Cu -0.14696 0.19484 -0.19995
 Cu62 Cu -0.22874 0.22105 -0.10892
 N63 N -0.27366 0.13089 -0.12476
 N64 N -0.27773 0.17372 -0.10421
 C65 C -0.32043 0.17851 -0.08414
 C66 C -0.34340 0.13619 -0.09219
 C67 C -0.31341 0.10688 -0.11839
 H68 H -0.33443 0.21084 -0.06781
 H69 H -0.32103 0.07208 -0.13479
 N70 N -0.17564 0.26327 -0.12097
 N71 N -0.14412 0.25233 -0.15553
 C72 C -0.10954 0.28430 -0.15183
 C73 C -0.12037 0.31739 -0.11420
 C74 C -0.16236 0.30341 -0.09487
 H75 H -0.07787 0.28270 -0.17339
 H76 H -0.18010 0.31929 -0.06243
 H77 H -0.17509 0.17754 -0.12913
 H78 H -0.21790 0.19388 -0.18092
 N79 N 0.12961 0.80968 -0.25394
 N80 N 0.16113 0.84318 -0.25561
 C81 C 0.14634 0.87540 -0.28801
 C82 C 0.10307 0.86140 -0.30710
 C83 C 0.09294 0.81992 -0.28465
 H84 H 0.16447 0.90767 -0.29488
 H85 H 0.06136 0.79918 -0.28966
 Cu86 Cu 0.21651 0.84476 -0.21165
 Cu87 Cu 0.14021 0.75570 -0.21180
 Cu88 Cu 0.20950 0.78474 -0.10461
 N89 N 0.25989 0.85587 -0.15454
 N90 N 0.25699 0.83272 -0.11247
 C91 C 0.29366 0.84435 -0.08115
 C92 C 0.32013 0.87690 -0.10491
 C93 C 0.29838 0.88300 -0.15160
 H94 H 0.30256 0.82725 -0.04624
 H95 H 0.31161 0.90238 -0.18270
 N96 N 0.17040 0.72763 -0.11092
 N97 N 0.14555 0.71537 -0.15275
 C98 C 0.12283 0.67495 -0.14538
 C99 C 0.13423 0.66141 -0.09657
 C100 C 0.16386 0.69566 -0.07553
 H101 H 0.09733 0.65867 -0.17185
 H102 H 0.17793 0.69815 -0.03672
 H103 H 0.16064 0.80570 -0.15931
 H104 H 0.20840 0.76587 -0.18129
 N105 N 0.18498 1.16351 0.71759
 N106 N 0.14705 1.18833 0.72556
 C107 C 0.11188 1.17053 0.69517
 C108 C 0.12963 1.13335 0.66634
 C109 C 0.17580 1.12984 0.68095
 H110 H 0.07645 1.18323 0.69446
 H111 H 0.20026 1.10346 0.66781
 Cu112 Cu 0.14836 1.24159 0.77461
 Cu113 Cu 0.24235 1.17376 0.75840
 Cu114 Cu 0.23109 1.24740 0.86677
 N115 N 0.15447 1.29665 0.82095
 N116 N 0.18700 1.29884 0.85748
 C117 C 0.17988 1.33716 0.88838
 C118 C 0.14124 1.36009 0.86975
 C119 C 0.12571 1.33355 0.82710
 H120 H 0.19895 1.34557 0.92390
 H121 H 0.09385 1.33852 0.80513
 N122 N 0.28223 1.20136 0.85900
 N123 N 0.28742 1.17440 0.81693
 C124 C 0.32246 1.14395 0.82479
 C125 C 0.33995 1.15247 0.87413
 C126 C 0.31374 1.18876 0.89481
 H127 H 0.33159 1.11528 0.79841
 H128 H 0.31542 1.20268 0.93406
 H129 H 0.20270 1.19223 0.82019
 H130 H 0.23270 1.24178 0.79051
 N131 N 0.83253 0.83713 0.69681
 N132 N 0.85744 0.79888 0.70045
 C133 C 0.88945 0.79707 0.66339
 C134 C 0.88254 0.83535 0.63404
 C135 C 0.84628 0.85993 0.65617
 H136 H 0.91745 0.77195 0.66049
 H137 H 0.83510 0.89478 0.64739
 Cu138 Cu 0.84869 0.75875 0.75702
 Cu139 Cu 0.79468 0.86205 0.75253
 Cu140 Cu 0.77092 0.78590 0.84743
 N141 N 0.85061 0.72964 0.82228
 N142 N 0.82175 0.74187 0.85893
 C143 C 0.83323 0.71880 0.90119
 C144 C 0.87055 0.69036 0.88935
 C145 C 0.88089 0.69785 0.83927
 H146 H 0.81580 0.72245 0.93734
 H147 H 0.90927 0.68284 0.81762
 N148 N 0.73641 0.84487 0.83911
 N149 N 0.74775 0.87533 0.80498
 C150 C 0.72217 0.91442 0.81238
 C151 C 0.69252 0.90730 0.85182
 C152 C 0.70229 0.86318 0.86836
 H153 H 0.72500 0.94568 0.79098
 H154 H 0.68775 0.84691 0.90091
 H155 H 0.81942 0.82265 0.81218
 H156 H 0.77270 0.79684 0.76858
 N157 N 0.20429 0.85022 1.30032
 N158 N 0.16957 0.81985 1.29691
 C159 C 0.13592 0.83376 1.32922
 C160 C 0.15116 0.87448 1.35481
 C161 C 0.19456 0.88406 1.33613
 H162 H 0.10251 0.81657 1.33228
 H163 H 0.21580 0.91491 1.34507
 Cu164 Cu 0.16978 0.76682 1.24808
 Cu165 Cu 0.25616 0.84645 1.25288
 Cu166 Cu 0.22932 0.77930 1.14139
 N167 N 0.15620 0.72820 1.18695
 N168 N 0.17707 0.73570 1.14383
 C169 C 0.15728 0.70826 1.10579
 C170 C 0.12303 0.68206 1.12702
 C171 C 0.12305 0.69513 1.17845
 H172 H 0.16722 0.70723 1.06612
 H173 H 0.09957 0.68319 1.20687
 N174 N 0.28131 0.82479 1.14705
 N175 N 0.29274 0.84943 1.18976
 C176 C 0.32838 0.87864 1.18034
 C177 C 0.33943 0.87143 1.12936
 C178 C 0.30902 0.83762 1.10937
 H179 H 0.34275 0.90514 1.20732
 H180 H 0.30591 0.82510 1.06970
 H181 H 0.20704 0.82568 1.19894
 H182 H 0.24901 0.77967 1.21741
 N183 N 0.81512 1.17545 1.30100
 N184 N 0.85436 1.19896 1.29759
 C185 C 0.88304 1.18982 1.33731
 C186 C 0.86008 1.15946 1.36763
 C187 C 0.81698 1.15153 1.34404
 H188 H 0.91953 1.19952 1.34017
 H189 H 0.79209 1.12482 1.35313
 Cu190 Cu 0.86864 1.23015 1.23611
 Cu191 Cu 0.77168 1.16646 1.24199
 Cu192 Cu 0.82687 1.17955 1.12679
 N193 N 0.87547 1.25953 1.17187
 N194 N 0.86270 1.23784 1.12809
 C195 C 0.87637 1.26341 1.08911
 C196 C 0.89726 1.30352 1.11044
 C197 C 0.89641 1.30021 1.16277
 H198 H 0.87091 1.25382 1.04882
 H199 H 0.91158 1.32440 1.19177
 N200 N 0.77056 1.14088 1.13299
 N201 N 0.74696 1.13968 1.17575
 C202 C 0.70713 1.11529 1.16619
 C203 C 0.70662 1.10016 1.11520
 C204 C 0.74705 1.11651 1.09516
 H205 H 0.68116 1.10853 1.19423
 H206 H 0.75751 1.11292 1.05569
 H207 H 0.83104 1.15774 1.20240
 H208 H 0.79698 1.21109 1.18796
 O209 O 0.54944 0.95632 0.91755
 O210 O 0.45686 0.98297 1.10186
 O211 O 0.56218 0.94321 1.00843
 O212 O 0.40436 0.96817 0.94394
 O213 O 0.54039 0.96540 1.08544
 O214 O 0.46976 0.93940 0.92037
 O215 O 0.40838 0.95953 1.03917
 O216 O 0.61122 0.99063 0.95089
 C217 C 0.59292 0.96332 0.91497
 C218 C 0.42278 0.95785 1.08476
 C219 C 0.55673 0.93452 1.05450
 C220 C 0.42758 0.93421 0.92656
 O221 O 0.44597 1.02828 0.89668
 O222 O 0.55248 1.06115 1.07305
 O223 O 0.56734 1.06484 0.97575
 O224 O 0.40783 1.04964 1.05501
 O225 O 0.47449 1.07380 1.08606
 O226 O 0.52881 1.04992 0.90518
 O227 O 0.41128 1.06064 0.96183
 O228 O 0.60292 1.01559 1.04423
 Co229 Co 0.49814 0.99532 0.91785
 Co230 Co 0.50556 1.01947 1.07951
 Co231 Co 0.56199 1.00406 0.99055
 Co232 Co 0.41587 1.00946 0.99950
 O233 O 0.49231 1.00880 0.99970
 C234 C 0.41935 1.05935 0.91539
 C235 C 0.59366 1.04897 1.07383
 C236 C 0.55448 1.07698 0.93271
 C237 C 0.43190 1.07856 1.08177
 O238 O 0.03546 0.45534 0.11520
 O239 O 0.02601 0.54058 -0.08709
 O240 O 0.06199 0.44810 -0.04055
 O241 O 0.01417 0.59844 0.06470
 O242 O 0.01097 0.45516 -0.09793
 O243 O 0.04167 0.54275 0.11051
 O244 O 0.04956 0.57515 -0.01688
 O245 O 0.07116 0.43670 0.04682
 C246 C 0.06766 0.43416 0.09351
 C247 C 0.05452 0.56742 -0.06341
 C248 C 0.05071 0.44200 -0.08580
 C249 C 0.04195 0.58454 0.09856
 O250 O -0.04995 0.54711 0.10688
 O251 O -0.07263 0.46700 -0.05748
 O252 O -0.01784 0.40393 0.05224
 O253 O -0.02725 0.61776 -0.02733
 O254 O -0.06284 0.55348 -0.05917
 O255 O -0.05250 0.45678 0.10306
 O256 O -0.06828 0.56902 0.03137
 O257 O -0.02749 0.40895 -0.03950
 Co258 Co -0.00613 0.50092 0.09977
 Co259 Co -0.02224 0.50373 -0.06694
 Co260 Co 0.02022 0.43002 0.00476
 Co261 Co -0.00890 0.56762 0.00654
 O262 O -0.00216 0.49847 0.01504
 C263 C -0.07592 0.56946 0.07798
 C264 C -0.06682 0.42401 -0.05365
 C265 C -0.04811 0.41526 0.08541
 C266 C -0.05567 0.59748 -0.06213
 O267 O 1.07568 0.04824 0.46540
 O268 O 0.90524 0.04215 0.54104
 O269 O 0.98714 0.07833 0.43458
 O270 O 1.00458 0.04364 0.59735
 O271 O 0.91539 0.05489 0.44755
 O272 O 1.06836 0.04538 0.55769
 O273 O 0.93345 -0.00129 0.59989
 O274 O 1.04877 0.03830 0.38425
 C275 C 1.08090 0.05420 0.41746
 C276 C 0.90782 0.03187 0.58707
 C277 C 0.94376 0.08589 0.43354
 C278 C 1.04334 0.06155 0.59210
 O279 O 1.06400 -0.04954 0.55433
 O280 O 0.91582 -0.03843 0.42813
 O281 O 1.02182 -0.04229 0.40455
 O282 O 0.96914 -0.07595 0.55763
 O283 O 0.90429 -0.05088 0.52184
 O284 O 1.07601 -0.04703 0.46124
 O285 O 1.02070 -0.03768 0.62436
 O286 O 0.95674 0.00545 0.38083
 Co287 Co 1.06369 -0.00072 0.50852
 Co288 Co 0.91637 0.00173 0.48553
 Co289 Co 1.00624 0.01714 0.42570
 Co290 Co 0.98983 -0.01552 0.57164
 O291 O 0.98913 0.00064 0.49713
 C292 C 1.05826 -0.05446 0.60255
 C293 C 0.92698 -0.02650 0.38457
 C294 C 1.05766 -0.06140 0.41993
 C295 C 0.92636 -0.08163 0.54598
 N296 N 1.11879 0.09868 0.35849
 N297 N 1.11636 0.08560 0.40253
 N298 N 0.89154 -0.09097 0.33946
 N299 N 0.90612 -0.04884 0.33948
 N300 N 0.87345 0.04416 0.66772
 N301 N 0.88444 0.05999 0.62498
 N302 N 1.07236 -0.11194 0.66210
 N303 N 1.08844 -0.08439 0.62998
 N304 N 0.36781 1.12027 1.10897
 N305 N 0.41045 1.11664 1.10900
 N306 N 0.36434 0.88481 0.90459
 N307 N 0.40661 0.89020 0.91142
 N308 N 0.61302 0.88288 1.07815
 N309 N 0.57118 0.89089 1.07289
 N310 N 0.61191 1.12871 0.91194
 N311 N 0.56989 1.12027 0.91401
 N312 N 0.12026 0.37237 0.09566
 N313 N 0.09375 0.40037 0.12026
 N314 N -0.08899 0.35301 -0.09411
 N315 N -0.10194 0.39149 -0.07254
 N316 N 0.10978 0.62787 -0.06840
 N317 N 0.08594 0.59501 -0.09108
 N318 N -0.13312 0.62732 0.07188
 N319 N -0.10953 0.60051 0.09976
 N320 N 1.10566 0.10118 0.63145
 N321 N 1.06150 0.09727 0.62731
 N322 N 0.91517 -0.14406 0.60142
 N323 N 0.89906 -0.11545 0.56996
 N324 N 1.12492 -0.09448 0.38720
 N325 N 1.08059 -0.09573 0.38828
 N326 N 0.88162 0.12676 0.39996
 N327 N 0.92545 0.12527 0.40849
 N328 N 0.11545 0.39483 -0.10194
 N329 N 0.07756 0.41201 -0.11895
 N330 N -0.08027 0.33941 0.08428
 N331 N -0.07525 0.37971 0.10654
 N332 N -0.10402 0.66166 -0.07685
 N333 N -0.08444 0.62459 -0.09429
 N334 N 0.09245 0.64923 0.10050
 N335 N 0.07380 0.61653 0.12422
 N336 N 0.36962 1.12283 0.90308
 N337 N 0.39411 1.08998 0.88295
 N338 N 0.36806 0.89975 1.09925
 N339 N 0.39887 0.92823 1.11817
 N340 N 0.67076 1.07446 1.08733
 N341 N 0.62885 1.07542 1.10189
 N342 N 0.66316 0.94152 0.87599
 N343 N 0.62132 0.93137 0.88606
   
