data_POSCAR
  _audit_creation_date              2014-09-24
  _audit_creation_method            'ToBaCCo'
  _symmetry_space_group_name_H-M    'P1'
  _symmetry_Int_Tables_number       1
  _symmetry_cell_setting            triclinic
  loop_
  _symmetry_equiv_pos_as_xyz
 x,y,z
_cell_length_a 26.1758
_cell_length_b 26.5094
_cell_length_c 25.5235
_cell_angle_alpha 90.165100
_cell_angle_beta 89.748100
_cell_angle_gamma 89.817300
loop_
  _atom_site_label
  _atom_site_type_symbol
  _atom_site_fract_x
  _atom_site_fract_y
  _atom_site_fract_z
C1 C 0.19260 0.13312 0.18949
 C2 C 0.17044 0.11129 0.23418
 C3 C 0.12567 0.13162 0.25691
 C4 C 0.10283 0.17430 0.23351
 C5 C 0.12375 0.19552 0.18791
 C6 C 0.16859 0.17473 0.16570
 C7 C 0.23814 0.11377 0.16788
 C8 C 0.25841 0.13399 0.12102
 C9 C 0.23257 0.17368 0.09634
 C10 C 0.18905 0.19521 0.11919
 C11 C 0.16578 0.23708 0.09613
 C12 C 0.12191 0.25851 0.11866
 C13 C 0.10033 0.23706 0.16378
 H14 H 0.18856 0.07860 0.25172
 H15 H 0.06767 0.19004 0.24898
 H16 H 0.25620 0.08163 0.18635
 H17 H 0.24751 0.18923 0.06009
 H18 H 0.18145 0.25269 0.06028
 H19 H 0.06578 0.25326 0.18046
 C20 C -0.18827 0.86884 0.18734
 C21 C -0.16868 0.89093 0.23292
 C22 C -0.12553 0.87059 0.25801
 C23 C -0.10251 0.82661 0.23700
 C24 C -0.12078 0.80507 0.19038
 C25 C -0.16316 0.82697 0.16490
 C26 C -0.23229 0.88840 0.16355
 C27 C -0.25024 0.86812 0.11587
 C28 C -0.22231 0.82911 0.09160
 C29 C -0.17994 0.80751 0.11648
 C30 C -0.15421 0.76655 0.09375
 C31 C -0.11335 0.74348 0.11973
 C32 C -0.09667 0.76267 0.16805
 H33 H -0.18733 0.92419 0.24905
 H34 H -0.06884 0.81036 0.25477
 H35 H -0.25122 0.92056 0.18142
 H36 H -0.23498 0.81388 0.05435
 H37 H -0.16657 0.75184 0.05619
 H38 H -0.06407 0.74558 0.18725
 C39 C -0.20183 0.13006 -0.18537
 C40 C -0.18016 0.10506 -0.22888
 C41 C -0.13176 0.11920 -0.24780
 C42 C -0.10551 0.15896 -0.22379
 C43 C -0.12731 0.18527 -0.18164
 C44 C -0.17535 0.17047 -0.16184
 C45 C -0.24869 0.11437 -0.16404
 C46 C -0.26858 0.13742 -0.11819
 C47 C -0.24195 0.17800 -0.09563
 C48 C -0.19634 0.19550 -0.11784
 C49 C -0.17087 0.23715 -0.09624
 C50 C -0.12382 0.25278 -0.11711
 C51 C -0.10158 0.22590 -0.15871
 H52 H -0.19996 0.07361 -0.24679
 H53 H -0.06813 0.16973 -0.23843
 H54 H -0.26753 0.08222 -0.18151
 H55 H -0.25695 0.19631 -0.06070
 H56 H -0.18705 0.25686 -0.06275
 H57 H -0.06467 0.23743 -0.17392
 C58 C 0.18795 0.87923 -0.18980
 C59 C 0.16659 0.90074 -0.23490
 C60 C 0.12371 0.87864 -0.25912
 C61 C 0.10270 0.83454 -0.23730
 C62 C 0.12479 0.81163 -0.19338
 C63 C 0.16746 0.83418 -0.16930
 C64 C 0.22903 0.90256 -0.16435
 C65 C 0.25106 0.88057 -0.11994
 C66 C 0.23126 0.83523 -0.10009
 C67 C 0.18905 0.81222 -0.12410
 C68 C 0.16743 0.76819 -0.10320
 C69 C 0.12541 0.74514 -0.12750
 C70 C 0.10434 0.76694 -0.17267
 H71 H 0.18232 0.93577 -0.24941
 H72 H 0.06946 0.81736 -0.25519
 H73 H 0.24431 0.93771 -0.17932
 H74 H 0.24786 0.81875 -0.06522
 H75 H 0.18324 0.75173 -0.06793
 H76 H 0.07110 0.74998 -0.19069
 C77 C 0.13187 1.19250 0.80936
 C78 C 0.11030 1.17199 0.76374
 C79 C 0.12247 1.12239 0.74749
 C80 C 0.15700 1.09389 0.77756
 C81 C 0.18053 1.11468 0.82183
 C82 C 0.16747 1.16396 0.83824
 C83 C 0.11734 1.24069 0.82715
 C84 C 0.13676 1.26029 0.87455
 C85 C 0.17320 1.23175 0.90233
 C86 C 0.18964 1.18444 0.88385
 C87 C 0.22772 1.15707 0.91025
 C88 C 0.24227 1.10881 0.89261
 C89 C 0.21734 1.08712 0.84964
 H90 H 0.08235 1.19412 0.74267
 H91 H 0.16676 1.05570 0.76564
 H92 H 0.08857 1.26110 0.80540
 H93 H 0.18901 1.24650 0.93848
 H94 H 0.24613 1.17314 0.94440
 H95 H 0.22815 1.04955 0.83669
 C96 C 0.87656 0.81080 0.80903
 C97 C 0.89623 0.83563 0.76504
 C98 C 0.87397 0.88091 0.74718
 C99 C 0.83230 0.90152 0.77497
 C100 C 0.81108 0.87602 0.81791
 C101 C 0.83326 0.83038 0.83503
 C102 C 0.89983 0.76670 0.82742
 C103 C 0.87883 0.73989 0.86968
 C104 C 0.83479 0.75915 0.89505
 C105 C 0.81258 0.80472 0.87860
 C106 C 0.77042 0.82545 0.90530
 C107 C 0.74787 0.87037 0.88779
 C108 C 0.76809 0.89543 0.84409
 H109 H 0.93001 0.82029 0.74614
 H110 H 0.81524 0.93673 0.76212
 H111 H 0.93376 0.75238 0.80772
 H112 H 0.81900 0.74032 0.92904
 H113 H 0.75480 0.80656 0.93941
 H114 H 0.75088 0.93054 0.83126
 C115 C 0.11638 0.81116 1.18440
 C116 C 0.09251 0.83838 1.22489
 C117 C 0.11728 0.87937 1.24853
 C118 C 0.16558 0.89445 1.23023
 C119 C 0.18916 0.86867 1.18858
 C120 C 0.16483 0.82639 1.16612
 C121 C 0.09272 0.76890 1.16198
 C122 C 0.11799 0.74010 1.12330
 C123 C 0.16565 0.75664 1.10416
 C124 C 0.18851 0.80000 1.12454
 C125 C 0.23420 0.81802 1.10315
 C126 C 0.25763 0.86070 1.12437
 C127 C 0.23593 0.88522 1.16794
 H128 H 0.05507 0.82707 1.23888
 H129 H 0.18409 0.92702 1.24744
 H130 H 0.05544 0.75725 1.17615
 H131 H 0.18432 0.73721 1.07193
 H132 H 0.25139 0.79927 1.06956
 H133 H 0.25413 0.91856 1.18389
 C134 C 0.88016 1.19295 1.18214
 C135 C 0.89985 1.17287 1.22860
 C136 C 0.87505 1.13302 1.25458
 C137 C 0.82940 1.11358 1.23320
 C138 C 0.81034 1.13209 1.18558
 C139 C 0.83620 1.17145 1.15959
 C140 C 0.90403 1.23392 1.15752
 C141 C 0.88544 1.25233 1.10971
 C142 C 0.84382 1.22871 1.08564
 C143 C 0.81855 1.18887 1.11063
 C144 C 0.77592 1.16616 1.08751
 C145 C 0.74942 1.12784 1.11368
 C146 C 0.76650 1.11107 1.16281
 H147 H 0.93461 1.18864 1.24482
 H148 H 0.80993 1.08226 1.25154
 H149 H 0.93739 1.25111 1.17508
 H150 H 0.83029 1.24238 1.04813
 H151 H 0.76275 1.17879 1.04948
 H152 H 0.74659 1.08061 1.18237
 O153 O 0.42870 1.08358 1.10561
 O154 O 0.37240 1.03586 1.05786
 C155 C 0.38291 1.06930 1.09319
 O156 O 0.56410 1.07964 0.90453
 O157 O 0.62352 1.03990 0.95598
 C158 C 0.61074 1.06894 0.91744
 O159 O 0.42132 1.08584 0.92195
 O160 O 0.36846 1.03559 0.97109
 C161 C 0.37638 1.07159 0.93772
 O162 O 0.57208 1.08304 1.10358
 O163 O 0.62720 1.04197 1.04780
 C164 C 0.61760 1.07252 1.08635
 Zr165 Zr 0.50027 1.06089 1.07341
 O166 O 0.50251 1.14017 1.06363
 O167 O 0.50115 1.07230 1.15536
 Zr168 Zr 0.49498 1.05808 0.94159
 O169 O 0.50061 1.13774 0.94146
 O170 O 0.48383 1.05859 0.85955
 O171 O 0.45163 1.06815 1.00964
 O172 O 0.54226 1.06970 1.00526
 O173 O 0.57780 0.91547 1.10537
 O174 O 0.63067 0.95802 1.04875
 C175 C 0.62264 0.92851 1.08826
 O176 O 0.42717 0.89814 0.92430
 O177 O 0.37153 0.94830 0.97089
 C178 C 0.38145 0.91178 0.93846
 O179 O 0.57024 0.90839 0.91076
 O180 O 0.62685 0.95542 0.95878
 C181 C 0.61619 0.92237 0.92300
 O182 O 0.43414 0.90514 1.10656
 O183 O 0.37520 0.94932 1.05837
 C184 C 0.38760 0.91639 1.09356
 Zr185 Zr 0.50410 0.93300 1.07592
 O186 O 0.51267 0.85355 1.07337
 O187 O 0.50216 0.93052 1.15876
 Zr188 Zr 0.49881 0.93035 0.94373
 O189 O 0.50756 0.85097 0.94404
 O190 O 0.48875 0.92921 0.86145
 Zr191 Zr 0.42379 0.99357 1.01212
 Zr192 Zr 0.57556 0.99730 1.00525
 O193 O 0.54623 0.92350 1.00804
 O194 O 0.45619 0.92065 1.01218
 O195 O 0.54760 0.99827 1.08294
 O196 O 0.45220 0.99297 0.93494
 O197 O 0.45863 0.99588 1.08633
 O198 O 0.54181 0.99502 0.93034
 H199 H 0.56527 1.09927 1.00356
 H200 H 0.42754 0.99205 0.90561
 H201 H 0.57059 0.89481 1.00784
 H202 H 0.43747 0.99529 1.11859
 H203 H 0.50703 1.03286 0.84442
 H204 H 0.51747 0.94800 0.84557
 H205 H 0.48338 0.83753 0.97035
 H206 H 0.48005 0.83921 1.06089
 H207 H 0.52458 0.95784 1.17158
 H208 H 0.49730 1.03873 1.17156
 H209 H 0.46709 1.15195 1.05771
 H210 H 0.47309 1.15100 0.96439
 O211 O 0.07199 0.57213 -0.12030
 O212 O 0.03685 0.62599 -0.05950
 C213 C 0.06264 0.61700 -0.10194
 O214 O -0.10612 0.42884 -0.07529
 O215 O -0.04611 0.37411 -0.04291
 C216 C -0.08860 0.38373 -0.06669
 O217 O -0.10457 0.57091 -0.07827
 O218 O -0.04691 0.62583 -0.04197
 C219 C -0.08794 0.61597 -0.06816
 O220 O 0.07849 0.42987 -0.11798
 O221 O 0.04242 0.37429 -0.05976
 C222 C 0.07005 0.38458 -0.10058
 Zr223 Zr 0.05455 0.50072 -0.08683
 O224 O 0.03956 0.49669 -0.16814
 O225 O 0.13437 0.50357 -0.09913
 Zr226 Zr -0.07193 0.49981 -0.05930
 O227 O -0.08307 0.49535 -0.14133
 O228 O -0.15187 0.50346 -0.04784
 O229 O -0.01120 0.54553 -0.08233
 O230 O -0.01018 0.45632 -0.08296
 O231 O 0.11455 0.42895 0.06051
 O232 O 0.05587 0.37421 0.02573
 C233 C 0.09702 0.38396 0.05170
 O234 O -0.06362 0.56951 0.10585
 O235 O -0.03013 0.62501 0.04610
 C236 C -0.05494 0.61485 0.08875
 O237 O -0.06766 0.42678 0.10004
 O238 O -0.03012 0.37288 0.04069
 C239 C -0.05794 0.38196 0.08171
 O240 O 0.11019 0.57096 0.06649
 O241 O 0.05221 0.62586 0.03037
 C242 C 0.09236 0.61593 0.05791
 Zr243 Zr 0.08096 0.49985 0.04287
 O244 O 0.09730 0.49422 0.12382
 O245 O 0.15986 0.50461 0.02521
 Zr246 Zr -0.04568 0.49863 0.07073
 O247 O -0.02957 0.49239 0.15165
 O248 O -0.12480 0.50355 0.08769
 Zr249 Zr 0.00368 0.57454 -0.00693
 Zr250 Zr 0.00516 0.42512 -0.00904
 O251 O 0.01988 0.45560 0.06561
 O252 O 0.01923 0.54400 0.06751
 O253 O 0.07784 0.45545 -0.02461
 O254 O -0.06841 0.54263 0.00841
 O255 O 0.07638 0.54422 -0.02334
 O256 O -0.06820 0.45450 0.00726
 H257 H -0.01590 0.43314 -0.11288
 H258 H -0.09818 0.56483 0.01553
 H259 H 0.02580 0.43273 0.09562
 H260 H 0.10553 0.56731 -0.02920
 H261 H -0.15918 0.48590 -0.01457
 H262 H -0.14149 0.47396 0.07150
 H263 H -0.00537 0.51962 0.16062
 H264 H 0.08015 0.52282 0.14168
 H265 H 0.16664 0.48119 -0.00429
 H266 H 0.13950 0.50350 -0.13762
 H267 H 0.01261 0.52183 -0.17568
 H268 H -0.07455 0.52866 -0.15636
 O269 O 1.10608 -0.06202 0.42506
 O270 O 1.04729 -0.02886 0.36804
 C271 C 1.08828 -0.05450 0.37831
 O272 O 0.93135 -0.10384 0.57392
 O273 O 0.96356 -0.04482 0.63082
 C274 C 0.93929 -0.08615 0.62061
 O275 O 0.93784 -0.10878 0.42703
 O276 O 0.96555 -0.04844 0.36920
 C277 C 0.94491 -0.09159 0.38005
 O278 O 1.11001 -0.05513 0.57285
 O279 O 1.04938 -0.02476 0.63025
 C280 C 1.09228 -0.04715 0.61977
 Zr281 Zr 1.07576 -0.04017 0.49910
 O282 O 1.09672 -0.11714 0.50531
 O283 O 1.15364 -0.01971 0.49259
 Zr284 Zr 0.95068 -0.07280 0.49996
 O285 O 0.96726 -0.15070 0.50573
 O286 O 0.87177 -0.08932 0.49413
 O287 O 1.01577 -0.06629 0.45309
 O288 O 1.01569 -0.06529 0.54481
 O289 O 1.06342 0.11383 0.57289
 O290 O 1.02988 0.05598 0.63030
 C291 C 1.05545 0.09652 0.61980
 O292 O 0.88591 0.07051 0.42581
 O293 O 0.94536 0.03783 0.36840
 C294 C 0.90373 0.06255 0.37894
 O295 O 0.88255 0.06640 0.57316
 O296 O 0.94286 0.03601 0.63000
 C297 C 0.90001 0.05861 0.61999
 O298 O 1.05774 0.11665 0.42517
 O299 O 1.02829 0.05626 0.36818
 C300 C 1.05042 0.09883 0.37837
 Zr301 Zr 1.04215 0.08321 0.49907
 O302 O 1.02130 0.16024 0.50483
 O303 O 1.12019 0.10313 0.49276
 Zr304 Zr 0.91725 0.05055 0.49955
 O305 O 0.89792 0.12801 0.50508
 O306 O 0.83914 0.03090 0.49447
 Zr307 Zr 0.99646 0.00472 0.42165
 Zr308 Zr 0.99650 0.00544 0.57711
 O309 O 0.97736 0.07594 0.54485
 O310 O 0.97718 0.07617 0.45257
 O311 O 1.06859 0.02421 0.54567
 O312 O 0.92498 -0.01379 0.45417
 O313 O 1.06795 0.02354 0.45357
 O314 O 0.92433 -0.01342 0.54654
 H315 H 1.02349 -0.09388 0.56840
 H316 H 0.89632 -0.02149 0.43024
 H317 H 0.96987 0.10458 0.56874
 H318 H 1.09695 0.03060 0.42964
 H319 H 0.85533 -0.07923 0.52755
 H320 H 0.83256 0.00497 0.52142
 H321 H 0.91221 0.14504 0.47388
 H322 H 0.99679 0.16728 0.47638
 H323 H 1.13827 0.08754 0.52259
 H324 H 1.16104 0.00415 0.52141
 H325 H 1.08159 -0.13521 0.47521
 H326 H 0.99853 -0.15690 0.48482
 C327 C 1.10458 0.10742 0.30108
 C328 C 1.06999 0.12800 0.33387
 H329 H 1.11883 0.07004 0.31062
 H330 H 1.05883 0.16720 0.33109
 C331 C 0.89385 -0.10360 0.30187
 C332 C 0.92733 -0.12266 0.33618
 H333 H 0.87932 -0.06586 0.30961
 H334 H 0.93880 -0.16186 0.33519
 C335 C 0.89392 0.09185 0.70909
 C336 C 0.87040 0.07881 0.66461
 H337 H 0.93499 0.08721 0.71198
 H338 H 0.83034 0.08768 0.65921
 C339 C 1.09985 -0.10013 0.69677
 C340 C 1.12153 -0.06669 0.66418
 H341 H 1.06187 -0.11349 0.68693
 H342 H 1.16140 -0.05658 0.66713
 C343 C 0.30266 1.11493 1.09684
 C344 C 0.33986 1.09076 1.12230
 H345 H 0.30855 1.12273 1.05548
 H346 H 0.34001 1.08797 1.16459
 C347 C 0.29343 0.90676 0.90647
 C348 C 0.33821 0.88407 0.91567
 H349 H 0.28912 0.94677 0.91427
 H350 H 0.34424 0.84545 0.90298
 C351 C 0.70547 0.88618 1.09117
 C352 C 0.66729 0.90970 1.11653
 H353 H 0.70016 0.87756 1.04998
 H354 H 0.66676 0.91258 1.15883
 C355 C 0.68759 1.11952 0.90778
 C356 C 0.65206 1.09019 0.88572
 H357 H 0.68146 1.13108 0.94819
 H358 H 0.65184 1.08260 0.84407
 C359 C 0.09713 0.30224 0.09422
 C360 C 0.12379 0.34107 0.07491
 H361 H 0.05570 0.30366 0.09455
 H362 H 0.16491 0.34269 0.07928
 C363 C -0.09605 0.29589 -0.09485
 C364 C -0.11848 0.34053 -0.08560
 H365 H -0.05507 0.29193 -0.09025
 H366 H -0.15852 0.34602 -0.09467
 C367 C 0.10186 0.70053 -0.10263
 C368 C 0.08441 0.66069 -0.12966
 H369 H 0.10140 0.69938 -0.06015
 H370 H 0.08927 0.65882 -0.17178
 C371 C -0.08719 0.70100 0.09387
 C372 C -0.07623 0.65774 0.11839
 H373 H -0.08130 0.70386 0.05189
 H374 H -0.08651 0.65273 0.15921
 C375 C 1.10037 0.09950 0.70324
 C376 C 1.07737 0.12439 0.66408
 H377 H 1.10440 0.05888 0.69921
 H378 H 1.07794 0.16511 0.66189
 C379 C 0.89283 -0.09330 0.70319
 C380 C 0.92018 -0.11542 0.66493
 H381 H 0.88211 -0.05399 0.69824
 H382 H 0.92554 -0.15588 0.66353
 C383 C 1.09130 -0.09331 0.29144
 C384 C 1.11603 -0.07761 0.33424
 H385 H 1.05005 -0.08976 0.28965
 H386 H 1.15638 -0.08564 0.33880
 C387 C 0.89829 0.11274 0.29953
 C388 C 0.87493 0.08314 0.33471
 H389 H 0.93769 0.12306 0.30724
 H390 H 0.83421 0.07656 0.33366
 C391 C 0.11864 0.30571 -0.10310
 C392 C 0.09285 0.34173 -0.12901
 H393 H 0.12660 0.31241 -0.06194
 H394 H 0.08940 0.34108 -0.17120
 C395 C -0.09019 0.29551 0.08363
 C396 C -0.08005 0.33851 0.10916
 H397 H -0.08419 0.29318 0.04162
 H398 H -0.09066 0.34266 0.15004
 C399 C -0.09605 0.69586 -0.11382
 C400 C -0.11822 0.65897 -0.08626
 H401 H -0.05674 0.69011 -0.12636
 H402 H -0.15895 0.65875 -0.07881
 C403 C 0.09431 0.69664 0.10365
 C404 C 0.11978 0.65871 0.08027
 H405 H 0.05353 0.69225 0.11011
 H406 H 0.16110 0.65728 0.07979
 C407 C 0.28448 1.08112 0.91780
 C408 C 0.33213 1.09924 0.91653
 H409 H 0.27715 1.04368 0.93291
 H410 H 0.33928 1.13499 0.89735
 C411 C 0.30172 0.88238 1.09718
 C412 C 0.34589 0.89111 1.12132
 H413 H 0.29786 0.89021 1.05569
 H414 H 0.35145 0.87927 1.16151
 C415 C 0.70540 1.10406 1.08783
 C416 C 0.66110 1.09632 1.11281
 H417 H 0.70872 1.09538 1.04641
 H418 H 0.65616 1.10926 1.15284
 C419 C 0.70455 0.89239 0.91676
 C420 C 0.65898 0.89906 0.89431
 H421 H 0.70998 0.90177 0.95768
 H422 H 0.65265 0.88575 0.85468
   
