data_POSCAR
  _audit_creation_date              2014-09-24
  _audit_creation_method            'ToBaCCo'
  _symmetry_space_group_name_H-M    'P1'
  _symmetry_Int_Tables_number       1
  _symmetry_cell_setting            triclinic
  loop_
  _symmetry_equiv_pos_as_xyz
 x,y,z
_cell_length_a 40.7751
_cell_length_b 41.6319
_cell_length_c 23.0512
_cell_angle_alpha 89.923600
_cell_angle_beta 90.166200
_cell_angle_gamma 122.946600
loop_
  _atom_site_label
  _atom_site_type_symbol
  _atom_site_fract_x
  _atom_site_fract_y
  _atom_site_fract_z
C1 C 0.43695 0.88319 0.52690
 C2 C 0.43845 0.88397 0.46742
 C3 C 0.46534 0.92164 0.45182
 N4 N 0.48038 0.94382 0.49956
 C5 C 0.46301 0.92041 0.54545
 C6 C 0.47759 0.93454 0.39462
 C7 C 0.50210 0.97363 0.37973
 C8 C 0.52056 0.98697 0.32672
 C9 C 0.53890 1.02609 0.32765
 C10 C 0.53140 1.03579 0.38151
 N11 N 0.50873 1.00347 0.41276
 C12 C 0.54113 1.07289 0.39783
 C13 C 0.53706 1.08219 0.45540
 C14 C 0.54063 1.11593 0.47235
 C15 C 0.53804 1.11497 0.53164
 C16 C 0.53416 1.08123 0.54950
 N17 N 0.53336 1.06118 0.50276
 C18 C 0.53291 1.06999 0.60806
 C19 C 0.52230 1.03237 0.62284
 C20 C 0.53167 1.02230 0.67487
 C21 C 0.51462 0.98340 0.67369
 C22 C 0.49566 0.97068 0.62074
 N23 N 0.50059 1.00069 0.58977
 C24 C 0.47283 0.93185 0.60375
 H25 H 0.41904 0.85807 0.55342
 H26 H 0.42198 0.85955 0.43896
 H27 H 0.48644 0.99910 0.55118
 H28 H 0.52010 0.97019 0.29052
 H29 H 0.55469 1.04487 0.29164
 H30 H 0.54496 1.13912 0.44519
 H31 H 0.53911 1.13685 0.55840
 H32 H 0.51616 0.96641 0.70787
 H33 H 0.49445 1.00143 0.45115
 H34 H 0.54916 1.04107 0.71011
 C35 C 0.11706 0.54313 0.47404
 C36 C 0.11665 0.54331 0.53350
 C37 C 0.08275 0.54115 0.54988
 N38 N 0.06214 0.53895 0.50226
 C39 C 0.08306 0.54006 0.45602
 C40 C 0.07140 0.54181 0.60779
 C41 C 0.03304 0.53206 0.62117
 C42 C 0.02255 0.54227 0.67184
 C43 C -0.01723 0.52535 0.66989
 C44 C -0.02995 0.50568 0.61780
 N45 N 0.00083 0.51010 0.58807
 C46 C -0.06952 0.48184 0.60114
 C47 C -0.08119 0.47039 0.54325
 C48 C -0.11852 0.44187 0.52603
 C49 C -0.11822 0.44123 0.46662
 C50 C -0.08077 0.46975 0.44945
 N51 N -0.05810 0.48742 0.49651
 C52 C -0.06813 0.47963 0.39119
 C53 C -0.02787 0.50279 0.37684
 C54 C -0.01317 0.52183 0.32447
 C55 C 0.02663 0.53895 0.32640
 C56 C 0.03530 0.53050 0.38021
 N57 N 0.00203 0.50860 0.41086
 C58 C 0.07284 0.54037 0.39771
 H59 H 0.13958 0.54467 0.44712
 H60 H 0.13870 0.54449 0.56132
 H61 H -0.00043 0.49482 0.44983
 H62 H 0.04156 0.55996 0.70684
 H63 H -0.03484 0.52713 0.70319
 H64 H -0.14332 0.42325 0.55341
 H65 H -0.14272 0.42168 0.43930
 H66 H 0.04689 0.55558 0.29198
 H67 H -0.00080 0.49524 0.55075
 H68 H -0.02942 0.52316 0.28837
 C69 C 0.55414 0.44065 0.53425
 C70 C 0.55556 0.44203 0.47488
 C71 C 0.52797 0.44956 0.45700
 N72 N 0.50929 0.45228 0.50333
 C73 C 0.52518 0.44670 0.55080
 C74 C 0.51975 0.45278 0.39856
 C75 C 0.49724 0.46763 0.38180
 C76 C 0.48233 0.46473 0.32655
 C77 C 0.46604 0.48624 0.32638
 C78 C 0.47150 0.50170 0.38153
 N79 N 0.49049 0.49015 0.41504
 C80 C 0.46164 0.52806 0.39808
 C81 C 0.46092 0.53823 0.45620
 C82 C 0.45460 0.56629 0.47333
 C83 C 0.45364 0.56557 0.53279
 C84 C 0.45970 0.53720 0.55020
 N85 N 0.46363 0.52029 0.50311
 C86 C 0.45713 0.52436 0.60803
 C87 C 0.46440 0.49562 0.62309
 C88 C 0.45446 0.47604 0.67553
 C89 C 0.47011 0.45405 0.67536
 C90 C 0.49034 0.46143 0.62367
 N91 N 0.48633 0.48645 0.59177
 C92 C 0.51365 0.44678 0.60885
 H93 H 0.57288 0.43633 0.56197
 H94 H 0.57518 0.43860 0.44800
 H95 H 0.50202 0.50029 0.55448
 H96 H 0.48375 0.44934 0.28984
 H97 H 0.45240 0.49060 0.28950
 H98 H 0.45034 0.58484 0.44585
 H99 H 0.44785 0.58318 0.55973
 H100 H 0.46748 0.43529 0.71011
 H101 H 0.50272 0.50098 0.45557
 H102 H 0.43831 0.47767 0.71120
 O103 O 0.40001 0.65833 -0.04742
 O104 O 0.40078 0.72050 -0.06637
 C105 C 0.38346 0.73749 -0.07744
 O106 O 0.35439 0.73198 -0.04824
 O107 O 0.28866 0.66674 -0.06484
 C108 C 0.26938 0.63113 -0.07516
 O109 O 0.27396 0.60779 -0.04626
 O110 O 0.33864 0.61068 -0.06520
 C111 C 0.37489 0.62898 -0.07615
 O112 O 0.39959 0.66968 0.06761
 O113 O 0.40393 0.73360 0.04882
 C114 C 0.38063 0.73872 0.07775
 O115 O 0.34428 0.72059 0.06739
 O116 O 0.27700 0.65679 0.05112
 C117 C 0.27066 0.62784 0.07993
 O118 O 0.28730 0.61025 0.06867
 O119 O 0.35009 0.60982 0.05030
 C120 C 0.38030 0.63420 0.07893
 Cr121 Cr 0.39893 0.69445 0.00067
 Cr122 Cr 0.31707 0.69298 0.00135
 Cr123 Cr 0.31366 0.61175 0.00184
 O124 O 0.34320 0.66640 0.00137
 O125 O 0.59772 0.32512 -0.05935
 O126 O 0.60123 0.26515 -0.04148
 C127 C 0.62509 0.26313 -0.07433
 O128 O 0.66182 0.28448 -0.06788
 O129 O 0.72680 0.35103 -0.05407
 C130 C 0.72960 0.37851 -0.08273
 O131 O 0.71002 0.39293 -0.07038
 O132 O 0.64436 0.38680 -0.04676
 C133 C 0.61400 0.36016 -0.07260
 O134 O 0.60060 0.33771 0.05605
 O135 O 0.60791 0.27994 0.07358
 C136 C 0.62796 0.26535 0.08095
 O137 O 0.65623 0.27284 0.04793
 O138 O 0.71914 0.34119 0.06151
 C139 C 0.73523 0.37657 0.07210
 O140 O 0.72718 0.39789 0.04422
 O141 O 0.66061 0.38936 0.06744
 C142 C 0.62503 0.36874 0.08197
 Cr143 Cr 0.60398 0.30322 0.00698
 Cr144 Cr 0.68981 0.31320 -0.00298
 Cr145 Cr 0.68459 0.38967 -0.00132
 O146 O 0.65949 0.33545 0.00098
 C147 C 0.43801 0.84687 -0.26430
 C148 C 0.46195 0.84906 -0.31000
 C149 C 0.47328 0.87675 -0.35304
 C150 C 0.46057 0.90194 -0.35107
 C151 C 0.43642 0.89865 -0.30529
 N152 N 0.42583 0.87155 -0.26373
 C153 C 0.42491 0.81822 -0.21713
 N154 N 0.39317 0.80992 -0.18524
 C155 C 0.37941 0.78434 -0.14084
 C156 C 0.39804 0.76534 -0.12590
 C157 C 0.43102 0.77365 -0.15790
 C158 C 0.44461 0.80008 -0.20324
 H159 H 0.49193 0.87854 -0.38797
 H160 H 0.42600 0.91761 -0.30266
 H161 H 0.35396 0.77897 -0.11732
 H162 H 0.44655 0.75996 -0.14765
 H163 H 0.47144 0.82943 -0.31338
 H164 H 0.47066 0.80656 -0.22602
 C165 C 0.15348 0.57507 -0.25633
 C166 C 0.11574 0.54227 -0.25003
 C167 C 0.08864 0.53140 -0.29484
 C168 C 0.09890 0.55284 -0.34645
 C169 C 0.13701 0.58568 -0.35062
 N170 N 0.16276 0.59592 -0.30603
 C171 C 0.18303 0.58827 -0.20963
 N172 N 0.21049 0.62638 -0.20433
 C173 C 0.23827 0.64065 -0.16205
 C174 C 0.23973 0.61595 -0.12207
 C175 C 0.21217 0.57647 -0.12751
 C176 C 0.18379 0.56255 -0.17103
 H177 H 0.05978 0.50572 -0.28958
 H178 H 0.14600 0.60382 -0.38865
 H179 H 0.25919 0.67126 -0.15987
 H180 H 0.21232 0.55635 -0.09788
 H181 H 0.10691 0.52548 -0.21060
 H182 H 0.16311 0.53198 -0.17479
 C183 C 0.42661 0.57334 -0.26035
 C184 C 0.46232 0.59589 -0.28969
 C185 C 0.47233 0.57954 -0.33324
 C186 C 0.44694 0.54082 -0.34790
 C187 C 0.41108 0.51952 -0.31869
 N188 N 0.40199 0.53606 -0.27629
 C189 C 0.41455 0.58895 -0.21320
 N190 N 0.37591 0.57071 -0.19979
 C191 C 0.36256 0.58295 -0.15669
 C192 C 0.38880 0.61538 -0.12367
 C193 C 0.42879 0.63444 -0.13647
 C194 C 0.44177 0.62132 -0.18085
 H195 H 0.50005 0.59704 -0.35534
 H196 H 0.39019 0.48986 -0.32994
 H197 H 0.33147 0.56723 -0.14826
 H198 H 0.45018 0.65937 -0.11188
 H199 H 0.48222 0.62594 -0.28006
 H200 H 0.47284 0.63604 -0.18854
 C201 C 0.56633 0.15032 -0.25643
 C202 C 0.53190 0.11388 -0.25135
 C203 C 0.52078 0.08749 -0.29628
 C204 C 0.54366 0.09711 -0.34671
 C205 C 0.57801 0.13395 -0.34978
 N206 N 0.58841 0.15904 -0.30514
 C207 C 0.58013 0.17903 -0.20938
 N208 N 0.61910 0.20578 -0.20433
 C209 C 0.63407 0.23280 -0.16188
 C210 C 0.60922 0.23412 -0.12123
 C211 C 0.56885 0.20723 -0.12630
 C212 C 0.55422 0.17973 -0.17017
 H213 H 0.49396 0.05958 -0.29189
 H214 H 0.59730 0.14237 -0.38678
 H215 H 0.66535 0.25317 -0.16002
 H216 H 0.54852 0.20736 -0.09632
 H217 H 0.51407 0.10537 -0.21271
 H218 H 0.52295 0.15972 -0.17366
 C219 C 0.84229 0.44162 -0.26807
 C220 C 0.84243 0.46389 -0.31417
 C221 C 0.87137 0.47731 -0.35660
 C222 C 0.89992 0.46844 -0.35347
 C223 C 0.89876 0.44611 -0.30706
 N224 N 0.87033 0.43335 -0.26626
 C225 C 0.81221 0.42595 -0.22190
 N226 N 0.80686 0.39598 -0.18983
 C227 C 0.78049 0.38019 -0.14598
 C228 C 0.75758 0.39479 -0.13165
 C229 C 0.76261 0.42576 -0.16403
 C230 C 0.78987 0.44145 -0.20897
 H231 H 0.87141 0.49439 -0.39212
 H232 H 0.92026 0.43857 -0.30357
 H233 H 0.77776 0.35643 -0.12217
 H234 H 0.74580 0.43816 -0.15427
 H235 H 0.82021 0.47036 -0.31844
 H236 H 0.79380 0.46592 -0.23207
 C237 C 0.55105 0.40400 -0.25790
 C238 C 0.53459 0.38243 -0.30871
 C239 C 0.52203 0.39641 -0.35269
 C240 C 0.52572 0.43186 -0.34649
 C241 C 0.54226 0.45237 -0.29467
 N242 N 0.55459 0.43830 -0.25273
 C243 C 0.56607 0.39131 -0.21057
 N244 N 0.59496 0.41824 -0.17564
 C245 C 0.61054 0.40902 -0.13149
 C246 C 0.59681 0.37056 -0.11997
 C247 C 0.56657 0.34226 -0.15487
 C248 C 0.55116 0.35247 -0.20011
 H249 H 0.50893 0.37921 -0.39132
 H250 H 0.54648 0.48014 -0.28823
 H251 H 0.63361 0.43180 -0.10550
 H252 H 0.55490 0.31221 -0.14742
 H253 H 0.53208 0.35546 -0.31522
 H254 H 0.52748 0.33011 -0.22580
 C255 C 0.84838 0.44021 0.25655
 C256 C 0.84400 0.45742 0.30561
 C257 C 0.87146 0.47032 0.35033
 C258 C 0.90366 0.46659 0.34617
 C259 C 0.90696 0.44938 0.29591
 N260 N 0.87944 0.43643 0.25342
 C261 C 0.81942 0.42495 0.20901
 N262 N 0.81153 0.39283 0.18066
 C263 C 0.78488 0.37694 0.13694
 C264 C 0.76481 0.39392 0.11881
 C265 C 0.77308 0.42749 0.14669
 C266 C 0.80016 0.44296 0.19201
 H267 H 0.86793 0.48390 0.38772
 H268 H 0.93083 0.44523 0.29116
 H269 H 0.77959 0.35121 0.11620
 H270 H 0.75822 0.44148 0.13401
 H271 H 0.81925 0.46025 0.30997
 H272 H 0.80632 0.46896 0.21289
 C273 C 0.58435 0.15684 0.26724
 C274 C 0.60779 0.14412 0.28838
 C275 C 0.59353 0.11648 0.33198
 C276 C 0.55623 0.10177 0.35524
 C277 C 0.53415 0.11596 0.33426
 N278 N 0.54851 0.14263 0.29132
 C279 C 0.59721 0.18521 0.21958
 N280 N 0.57838 0.20370 0.21178
 C281 C 0.58774 0.22944 0.16837
 C282 C 0.61766 0.23781 0.12908
 C283 C 0.63734 0.21896 0.13612
 C284 C 0.62716 0.19263 0.18092
 H285 H 0.61164 0.10662 0.34780
 H286 H 0.50521 0.10526 0.35116
 H287 H 0.57168 0.24318 0.16458
 H288 H 0.66036 0.22419 0.10659
 H289 H 0.63695 0.15541 0.27224
 H290 H 0.64216 0.17784 0.18390
 C291 C 0.56865 0.42016 0.26524
 C292 C 0.58166 0.45888 0.27215
 C293 C 0.56565 0.46941 0.31570
 C294 C 0.53683 0.44156 0.35229
 C295 C 0.52435 0.40319 0.34397
 N296 N 0.54021 0.39352 0.30096
 C297 C 0.58435 0.40754 0.21910
 N298 N 0.56112 0.37183 0.19615
 C299 C 0.57344 0.35870 0.15285
 C300 C 0.61136 0.38199 0.13029
 C301 C 0.63605 0.41857 0.15434
 C302 C 0.62272 0.43141 0.19857
 H303 H 0.57564 0.49925 0.32089
 H304 H 0.50191 0.38102 0.37138
 H305 H 0.55354 0.33015 0.13605
 H306 H 0.66564 0.43744 0.13873
 H307 H 0.60333 0.48076 0.24360
 H308 H 0.64247 0.45954 0.21682
 C309 C 0.15812 0.57364 0.26470
 C310 C 0.12825 0.53484 0.27122
 C311 C 0.10058 0.52398 0.31497
 C312 C 0.10283 0.55159 0.35230
 C313 C 0.13302 0.58997 0.34468
 N314 N 0.15942 0.59999 0.30130
 C315 C 0.18732 0.58674 0.21777
 N316 N 0.20254 0.62225 0.19476
 C317 C 0.22905 0.63594 0.15092
 C318 C 0.24210 0.61355 0.12803
 C319 C 0.22732 0.57714 0.15195
 C320 C 0.19993 0.56362 0.19660
 H321 H 0.07726 0.49415 0.31957
 H322 H 0.13521 0.61194 0.37264
 H323 H 0.24000 0.66435 0.13423
 H324 H 0.23670 0.55895 0.13588
 H325 H 0.12561 0.51321 0.24202
 H326 H 0.18924 0.53563 0.21478
 C327 C 0.44091 0.85091 0.26066
 C328 C 0.46964 0.85625 0.30053
 C329 C 0.48168 0.88363 0.34426
 C330 C 0.46526 0.90558 0.34815
 C331 C 0.43664 0.89942 0.30784
 N332 N 0.42515 0.87242 0.26584
 C333 C 0.42649 0.82189 0.21404
 N334 N 0.38949 0.80638 0.19358
 C335 C 0.37420 0.77973 0.15062
 C336 C 0.39677 0.76747 0.12496
 C337 C 0.43518 0.78343 0.14493
 C338 C 0.45011 0.81053 0.18941
 H339 H 0.50366 0.88764 0.37520
 H340 H 0.42330 0.91585 0.31008
 H341 H 0.34455 0.76844 0.13631
 H342 H 0.45371 0.77495 0.12624
 H343 H 0.48211 0.83904 0.29889
 H344 H 0.48001 0.82290 0.20335
 C345 C 0.43142 0.57806 0.26355
 C346 C 0.47094 0.59184 0.27403
 C347 C 0.48077 0.57557 0.31816
 C348 C 0.45141 0.54582 0.35175
 C349 C 0.41234 0.53269 0.34002
 N350 N 0.40340 0.54877 0.29652
 C351 C 0.41931 0.59367 0.21649
 N352 N 0.38368 0.57055 0.19117
 C353 C 0.37067 0.58277 0.14738
 C354 C 0.39394 0.62053 0.12686
 C355 C 0.43051 0.64505 0.15308
 C356 C 0.44330 0.63177 0.19774
 H357 H 0.51118 0.58597 0.32601
 H358 H 0.38906 0.50951 0.36509
 H359 H 0.34211 0.56298 0.12886
 H360 H 0.44934 0.67447 0.13898
 H361 H 0.49399 0.61428 0.24773
 H362 H 0.47134 0.65136 0.21781
   
