data_POSCAR
  _audit_creation_date              2014-09-24
  _audit_creation_method            'ToBaCCo'
  _symmetry_space_group_name_H-M    'P1'
  _symmetry_Int_Tables_number       1
  _symmetry_cell_setting            triclinic
  loop_
  _symmetry_equiv_pos_as_xyz
 x,y,z
_cell_length_a 26.5634
_cell_length_b 21.8574
_cell_length_c 26.5643
_cell_angle_alpha 90.000100
_cell_angle_beta 90.001100
_cell_angle_gamma 90.000000
loop_
  _atom_site_label
  _atom_site_type_symbol
  _atom_site_fract_x
  _atom_site_fract_y
  _atom_site_fract_z
C1 C 0.60063 0.62933 0.65507
 C2 C 0.56178 0.67181 0.64815
 C3 C 0.55976 0.70768 0.60448
 C4 C 0.59603 0.69972 0.56670
 C5 C 0.63617 0.65874 0.57399
 C6 C 0.63916 0.62441 0.61895
 C7 C 0.60130 0.59162 0.69752
 C8 C 0.64124 0.55052 0.70606
 C9 C 0.68200 0.54966 0.67202
 C10 C 0.68049 0.58507 0.62774
 C11 C 0.71873 0.58065 0.59135
 C12 C 0.71478 0.61298 0.54583
 C13 C 0.67356 0.65178 0.53733
 H14 H 0.53300 0.67719 0.67677
 H15 H 0.59411 0.72720 0.53277
 H16 H 0.57077 0.59529 0.72441
 H17 H 0.71323 0.51861 0.67804
 H18 H 0.75055 0.55049 0.59749
 H19 H 0.67108 0.67718 0.50234
 C20 C 0.90501 0.37918 0.14944
 C21 C 0.94745 0.34146 0.14875
 C22 C 0.95598 0.30039 0.10879
 C23 C 0.92193 0.29956 0.06803
 C24 C 0.87766 0.33498 0.06956
 C25 C 0.86888 0.37429 0.11091
 C26 C 0.89809 0.42164 0.18830
 C27 C 0.85444 0.45752 0.19033
 C28 C 0.81665 0.44959 0.15406
 C29 C 0.82392 0.40863 0.11391
 C30 C 0.78726 0.40171 0.07652
 C31 C 0.79575 0.36293 0.03528
 C32 C 0.84127 0.33059 0.03132
 H33 H 0.97435 0.34511 0.17927
 H34 H 0.92795 0.26853 0.03679
 H35 H 0.92673 0.42700 0.21708
 H36 H 0.78272 0.47708 0.15600
 H37 H 0.75227 0.42711 0.07901
 H38 H 0.84739 0.30045 -0.00051
 C39 C 0.39937 0.12933 -0.15507
 C40 C 0.43822 0.17181 -0.14815
 C41 C 0.44024 0.20768 -0.10448
 C42 C 0.40397 0.19972 -0.06670
 C43 C 0.36383 0.15874 -0.07399
 C44 C 0.36084 0.12441 -0.11895
 C45 C 0.39870 0.09162 -0.19752
 C46 C 0.35876 0.05052 -0.20606
 C47 C 0.31800 0.04966 -0.17202
 C48 C 0.31951 0.08507 -0.12774
 C49 C 0.28127 0.08065 -0.09135
 C50 C 0.28522 0.11298 -0.04583
 C51 C 0.32644 0.15178 -0.03733
 H52 H 0.46700 0.17719 -0.17677
 H53 H 0.40589 0.22720 -0.03277
 H54 H 0.42923 0.09529 -0.22441
 H55 H 0.28677 0.01861 -0.17804
 H56 H 0.24945 0.05049 -0.09749
 H57 H 0.32892 0.17718 -0.00234
 C58 C 0.09499 0.87918 0.35056
 C59 C 0.05255 0.84146 0.35125
 C60 C 0.04402 0.80039 0.39121
 C61 C 0.07807 0.79956 0.43197
 C62 C 0.12234 0.83498 0.43044
 C63 C 0.13112 0.87429 0.38909
 C64 C 0.10191 0.92164 0.31170
 C65 C 0.14556 0.95752 0.30967
 C66 C 0.18335 0.94959 0.34594
 C67 C 0.17608 0.90863 0.38609
 C68 C 0.21274 0.90171 0.42348
 C69 C 0.20425 0.86293 0.46472
 C70 C 0.15873 0.83059 0.46868
 H71 H 0.02566 0.84511 0.32073
 H72 H 0.07205 0.76853 0.46321
 H73 H 0.07327 0.92700 0.28292
 H74 H 0.21728 0.97709 0.34400
 H75 H 0.24773 0.92711 0.42099
 H76 H 0.15261 0.80045 0.50051
 N77 N 0.05758 0.19327 0.09300
 N78 N 0.05629 0.19939 0.14218
 C79 C 0.02075 0.24007 0.15484
 C80 C -0.00314 0.25959 0.11132
 C81 C 0.02086 0.22807 0.07261
 H82 H 0.01107 0.25160 0.19322
 H83 H 0.01351 0.23170 0.03267
 Cu84 Cu 0.09637 0.14835 0.18585
 Cu85 Cu 0.10936 0.14239 0.06107
 Cu86 Cu 0.20304 0.08961 0.14223
 N87 N 0.12912 0.08094 0.21999
 N88 N 0.17271 0.05946 0.20462
 C89 C 0.18706 0.01361 0.23546
 C90 C 0.14965 0.00553 0.27114
 C91 C 0.11349 0.04884 0.26014
 H92 H 0.22061 -0.01381 0.23063
 H93 H 0.07813 0.05588 0.27949
 N94 N 0.21323 0.09921 0.06952
 N95 N 0.17699 0.11534 0.03807
 C96 C 0.19645 0.11913 -0.00874
 C97 C 0.24721 0.10546 -0.00610
 C98 C 0.25658 0.09328 0.04397
 H99 H 0.17623 0.13529 -0.04148
 H100 H 0.29266 0.08288 0.06079
 H101 H 0.13131 0.08461 0.11895
 H102 H 0.15703 0.16404 0.11877
 N103 N 0.45471 0.80959 0.57727
 N104 N 0.47007 0.83110 0.62086
 C105 C 0.51022 0.79901 0.63651
 C106 C 0.52123 0.75569 0.60037
 C107 C 0.48556 0.76375 0.56295
 H108 H 0.52956 0.80607 0.67188
 H109 H 0.48074 0.73630 0.52940
 Cu110 Cu 0.43590 0.89851 0.65358
 Cu111 Cu 0.39232 0.83971 0.54693
 Cu112 Cu 0.31113 0.89247 0.64058
 N113 N 0.39221 0.94953 0.69365
 N114 N 0.34303 0.94338 0.69235
 C115 C 0.32262 0.97818 0.72906
 C116 C 0.36131 1.00973 0.75306
 C117 C 0.40485 0.99023 0.72918
 H118 H 0.28268 0.98178 0.73641
 H119 H 0.44322 1.00179 0.73887
 N120 N 0.28814 0.86539 0.57295
 N121 N 0.31960 0.84926 0.53672
 C122 C 0.29406 0.84330 0.49337
 C123 C 0.24398 0.85545 0.50273
 C124 C 0.24133 0.86915 0.55349
 H125 H 0.31089 0.83290 0.45729
 H126 H 0.20858 0.88529 0.57370
 H127 H 0.36882 0.91414 0.59291
 H128 H 0.36903 0.83472 0.61865
 N129 N 0.94242 0.69327 0.40700
 N130 N 0.94371 0.69939 0.35782
 C131 C 0.97925 0.74007 0.34516
 C132 C 1.00314 0.75959 0.38868
 C133 C 0.97915 0.72807 0.42739
 H134 H 0.98893 0.75160 0.30678
 H135 H 0.98649 0.73170 0.46732
 Cu136 Cu 0.90363 0.64835 0.31415
 Cu137 Cu 0.89064 0.64239 0.43893
 Cu138 Cu 0.79696 0.58961 0.35777
 N139 N 0.87088 0.58094 0.28001
 N140 N 0.82729 0.55946 0.29538
 C141 C 0.81294 0.51361 0.26454
 C142 C 0.85035 0.50553 0.22886
 C143 C 0.88650 0.54884 0.23986
 H144 H 0.77939 0.48619 0.26937
 H145 H 0.92187 0.55589 0.22051
 N146 N 0.78677 0.59921 0.43048
 N147 N 0.82301 0.61534 0.46193
 C148 C 0.80355 0.61914 0.50874
 C149 C 0.75280 0.60546 0.50610
 C150 C 0.74342 0.59327 0.45603
 H151 H 0.82377 0.63529 0.54148
 H152 H 0.70734 0.58287 0.43921
 H153 H 0.86869 0.58461 0.38105
 H154 H 0.84297 0.66404 0.38123
 N155 N 0.54529 0.30960 -0.07727
 N156 N 0.52993 0.33110 -0.12086
 C157 C 0.48978 0.29901 -0.13651
 C158 C 0.47877 0.25569 -0.10037
 C159 C 0.51444 0.26375 -0.06295
 H160 H 0.47044 0.30607 -0.17188
 H161 H 0.51926 0.23631 -0.02940
 Cu162 Cu 0.56410 0.39851 -0.15358
 Cu163 Cu 0.60768 0.33971 -0.04693
 Cu164 Cu 0.68887 0.39247 -0.14058
 N165 N 0.60779 0.44953 -0.19365
 N166 N 0.65697 0.44338 -0.19235
 C167 C 0.67738 0.47818 -0.22906
 C168 C 0.63869 0.50973 -0.25306
 C169 C 0.59515 0.49023 -0.22918
 H170 H 0.71732 0.48178 -0.23641
 H171 H 0.55678 0.50179 -0.23887
 N172 N 0.71186 0.36539 -0.07295
 N173 N 0.68040 0.34926 -0.03672
 C174 C 0.70594 0.34330 0.00663
 C175 C 0.75602 0.35545 -0.00273
 C176 C 0.75867 0.36914 -0.05349
 H177 H 0.68911 0.33290 0.04271
 H178 H 0.79142 0.38529 -0.07370
 H179 H 0.63118 0.41414 -0.09291
 H180 H 0.63097 0.33472 -0.11865
   
