data_POSCAR
  _audit_creation_date              2014-09-24
  _audit_creation_method            'ToBaCCo'
  _symmetry_space_group_name_H-M    'P1'
  _symmetry_Int_Tables_number       1
  _symmetry_cell_setting            triclinic
  loop_
  _symmetry_equiv_pos_as_xyz
 x,y,z
_cell_length_a 17.3080
_cell_length_b 17.3361
_cell_length_c 21.7851
_cell_angle_alpha 90.023900
_cell_angle_beta 90.003900
_cell_angle_gamma 90.028000
loop_
  _atom_site_label
  _atom_site_type_symbol
  _atom_site_fract_x
  _atom_site_fract_y
  _atom_site_fract_z
C1 C 1.25040 0.25085 0.25084
 C2 C 0.74963 -0.25047 0.25108
 C3 C 0.74956 0.25002 -0.24907
 C4 C 1.25118 -0.25045 -0.24883
 C5 C 0.24933 0.24972 0.75134
 C6 C 0.74996 0.75104 0.75041
 C7 C 0.75035 0.24962 0.25106
 C8 C 0.24959 0.74973 0.25069
 O9 O 1.11735 0.07233 0.07567
 O10 O 0.88218 -0.07390 0.07471
 O11 O 0.92959 0.11753 0.07590
 O12 O 1.07075 -0.12039 0.07618
 O13 O 0.83658 0.04843 0.04347
 O14 O 1.16367 -0.05024 0.04480
 O15 O 0.94928 -0.16673 0.04034
 O16 O 1.05076 0.16493 0.04055
 C17 C 1.09219 0.13825 0.08213
 C18 C 0.90758 -0.13965 0.08164
 C19 C 0.86464 0.09037 0.08441
 C20 C 1.13565 -0.09318 0.08517
 O21 O 1.13957 -0.00874 -0.07539
 O22 O 0.86218 0.00711 -0.07662
 O23 O 1.00573 0.13678 -0.07706
 O24 O 0.99502 -0.13908 -0.07733
 O25 O 0.88068 -0.12213 -0.04452
 O26 O 1.12009 0.12026 -0.04397
 O27 O 1.12428 -0.12182 -0.04088
 O28 O 0.87649 0.11997 -0.04146
 Co29 Co 1.12232 0.03007 0.00022
 Co30 Co 0.87820 -0.03178 -0.00077
 Co31 Co 0.96906 0.12143 -0.00052
 Co32 Co 1.03139 -0.12370 -0.00049
 O33 O 1.00026 -0.00102 -0.00033
 C34 C 1.14700 -0.07867 -0.08281
 C35 C 0.85431 0.07707 -0.08376
 C36 C 1.07588 0.14250 -0.08564
 C37 C 0.92483 -0.14412 -0.08625
 O38 O 1.12117 0.62359 0.54537
 O39 O 0.88070 0.37791 0.54617
 O40 O 0.87846 0.62062 0.54575
 O41 O 1.12346 0.38091 0.54644
 O42 O 0.86292 0.50698 0.57977
 O43 O 1.13941 0.49469 0.57998
 O44 O 0.99436 0.36301 0.58033
 O45 O 1.00735 0.63937 0.57901
 C46 C 1.07732 0.64598 0.58719
 C47 C 0.92435 0.35585 0.58821
 C48 C 0.85600 0.57691 0.58766
 C49 C 1.14569 0.42474 0.58830
 O50 O 1.16560 0.44997 0.46117
 O51 O 0.83634 0.55052 0.46090
 O52 O 1.05145 0.66462 0.45961
 O53 O 0.95054 0.33601 0.46114
 O54 O 0.88263 0.42888 0.42760
 O55 O 1.12015 0.57161 0.42713
 O56 O 1.07244 0.38184 0.42801
 O57 O 0.92935 0.61807 0.42696
 Co58 Co 1.12359 0.53161 0.50348
 Co59 Co 0.87871 0.46944 0.50362
 Co60 Co 0.97001 0.62269 0.50290
 Co61 Co 1.03184 0.37839 0.50399
 O62 O 1.00106 0.50055 0.50343
 C63 C 1.13782 0.40799 0.42016
 C64 C 0.86379 0.59218 0.41961
 C65 C 1.09422 0.63694 0.41894
 C66 C 0.90845 0.36343 0.42004
 O67 O 0.61739 0.07099 0.57385
 O68 O 0.38029 -0.07187 0.57360
 O69 O 0.42754 0.11773 0.57412
 O70 O 0.57023 -0.11931 0.57297
 O71 O 0.33414 0.05000 0.54093
 O72 O 0.66317 -0.05076 0.54000
 O73 O 0.44787 -0.16473 0.53966
 O74 O 0.54930 0.16407 0.54088
 C75 C 0.59146 0.13638 0.58174
 C76 C 0.40659 -0.13716 0.58109
 C77 C 0.36200 0.09190 0.58190
 C78 C 0.63557 -0.09288 0.58087
 O79 O 0.63712 -0.00656 0.42148
 O80 O 0.36009 0.00683 0.42190
 O81 O 0.50542 0.13839 0.42194
 O82 O 0.49101 -0.13812 0.42081
 O83 O 0.37735 -0.12212 0.45492
 O84 O 0.61919 0.12216 0.45568
 O85 O 0.62049 -0.12039 0.45473
 O86 O 0.37637 0.12026 0.45599
 Co87 Co 0.62111 0.03062 0.49772
 Co88 Co 0.37610 -0.03093 0.49781
 Co89 Co 0.46796 0.12204 0.49813
 Co90 Co 0.52908 -0.12259 0.49705
 O91 O 0.49858 -0.00022 0.49770
 C92 C 0.64353 -0.07649 0.41333
 C93 C 0.35376 0.07678 0.41413
 C94 C 0.57552 0.14491 0.41398
 C95 C 0.42082 -0.14476 0.41299
 O96 O 0.61912 0.57147 0.07526
 O97 O 0.38183 0.42973 0.07621
 O98 O 0.42711 0.61869 0.07545
 O99 O 0.57292 0.38316 0.07506
 O100 O 0.33413 0.55091 0.04184
 O101 O 0.66591 0.45019 0.04069
 O102 O 0.45059 0.33701 0.04322
 O103 O 0.54967 0.66412 0.04294
 C104 C 0.59152 0.63611 0.08388
 C105 C 0.40913 0.36493 0.08444
 C106 C 0.36118 0.59344 0.08275
 C107 C 0.63888 0.40835 0.08195
 O108 O 0.63778 0.49461 -0.07762
 O109 O 0.36111 0.50596 -0.07652
 O110 O 0.50713 0.63906 -0.07645
 O111 O 0.49229 0.36238 -0.07631
 O112 O 0.37893 0.37725 -0.04154
 O113 O 0.62072 0.62367 -0.04227
 O114 O 0.62180 0.38087 -0.04400
 O115 O 0.37770 0.61993 -0.04343
 Co116 Co 0.62260 0.53156 -0.00101
 Co117 Co 0.37730 0.46938 -0.00007
 Co118 Co 0.46875 0.62262 -0.00043
 Co119 Co 0.53105 0.37874 -0.00054
 O120 O 0.49992 0.50060 -0.00047
 C121 C 0.64359 0.42456 -0.08602
 C122 C 0.35572 0.57593 -0.08522
 C123 C 0.57726 0.64628 -0.08411
 C124 C 0.42219 0.35472 -0.08358
 N125 N 1.08256 0.24879 0.15145
 N126 N 1.12208 0.27989 0.19744
 C127 C 1.18374 0.23376 0.20764
 C128 C 1.18085 0.17394 0.16590
 N129 N 1.11708 0.18508 0.13227
 H130 H 1.22285 0.12847 0.15898
 N131 N 1.06363 0.72237 0.68053
 N132 N 1.10753 0.75138 0.72476
 C133 C 1.18106 0.73054 0.71213
 C134 C 1.18046 0.68740 0.65873
 N135 N 1.10655 0.68417 0.64048
 H136 H 1.22901 0.66077 0.63562
 N137 N 0.57969 0.24360 0.65377
 N138 N 0.61912 0.27468 0.69976
 C139 C 0.68290 0.23084 0.70809
 C140 C 0.68106 0.17197 0.66536
 N141 N 0.61606 0.18189 0.63278
 H142 H 0.72452 0.12829 0.65700
 N143 N 0.58135 0.74605 0.15331
 N144 N 0.62085 0.77743 0.19912
 C145 C 0.68099 0.72996 0.21094
 C146 C 0.67690 0.66858 0.17077
 N147 N 0.61440 0.68088 0.13577
 H148 H 0.71845 0.62249 0.16479
 N149 N 0.91708 -0.24964 0.15139
 N150 N 0.87768 -0.28017 0.19764
 C151 C 0.81641 -0.23356 0.20799
 C152 C 0.81939 -0.17403 0.16604
 N153 N 0.88281 -0.18588 0.13213
 H154 H 0.77756 -0.12842 0.15907
 N155 N 0.93776 0.28017 0.68197
 N156 N 0.89359 0.25043 0.72571
 C157 C 0.81983 0.26936 0.71206
 C158 C 0.82061 0.31230 0.65854
 N159 N 0.89485 0.31723 0.64126
 H160 H 0.77198 0.33792 0.63484
 N161 N 0.41966 -0.24454 0.65277
 N162 N 0.38098 -0.27550 0.69919
 C163 C 0.31771 -0.23120 0.70840
 C164 C 0.31902 -0.17229 0.66584
 N165 N 0.38318 -0.18260 0.63240
 H166 H 0.27553 -0.12849 0.65799
 N167 N 0.41895 0.25444 0.15335
 N168 N 0.37922 0.22280 0.19890
 C169 C 0.31914 0.27032 0.21081
 C170 C 0.32349 0.33196 0.17096
 N171 N 0.38611 0.31984 0.13608
 H172 H 0.28206 0.37818 0.16513
 N173 N 0.77149 0.06482 -0.17338
 N174 N 0.74193 0.10849 -0.21734
 C175 C 0.76746 0.18124 -0.20785
 C176 C 0.81393 0.18038 -0.15609
 N177 N 0.81457 0.10699 -0.13611
 H178 H 0.84460 0.22823 -0.13540
 N179 N 0.75180 0.58416 0.35210
 N180 N 0.72031 0.62347 0.30633
 C181 C 0.76844 0.68280 0.29355
 C182 C 0.83033 0.67857 0.33333
 N183 N 0.81776 0.61649 0.36880
 H184 H 0.87758 0.71910 0.33817
 N185 N 0.26802 0.06545 0.32627
 N186 N 0.23859 0.10960 0.28258
 C187 C 0.26815 0.18111 0.29050
 C188 C 0.31665 0.17918 0.34081
 N189 N 0.31459 0.10642 0.36168
 H190 H 0.34977 0.22612 0.36043
 N191 N 0.28027 0.56244 -0.17889
 N192 N 0.25109 0.60642 -0.22284
 C193 C 0.27196 0.67986 -0.21012
 C194 C 0.31563 0.67916 -0.15704
 N195 N 0.31874 0.60521 -0.13893
 H196 H 0.34200 0.72764 -0.13371
 N197 N 1.23065 -0.06604 -0.17180
 N198 N 1.25999 -0.10939 -0.21607
 C199 C 1.23344 -0.18191 -0.20739
 C200 C 1.18669 -0.18133 -0.15584
 N201 N 1.18685 -0.10828 -0.13515
 H202 H 1.15537 -0.22912 -0.13573
 N203 N 1.24905 0.41617 0.35195
 N204 N 1.28003 0.37698 0.30589
 C205 C 1.23171 0.31774 0.29322
 C206 C 1.17021 0.32191 0.33338
 N207 N 1.18326 0.38382 0.36899
 H208 H 1.12304 0.28135 0.33847
 N209 N 0.73050 -0.06483 0.32614
 N210 N 0.76088 -0.10905 0.28284
 C211 C 0.73155 -0.18067 0.29064
 C212 C 0.68218 -0.17872 0.34038
 N213 N 0.68347 -0.10585 0.36110
 H214 H 0.64892 -0.22573 0.35971
 N215 N 0.71846 0.43760 -0.18006
 N216 N 0.74810 0.39338 -0.22371
 C217 C 0.72865 0.31977 -0.21024
 C218 C 0.68523 0.32066 -0.15698
 N219 N 0.68089 0.39489 -0.13956
 H220 H 0.65959 0.27214 -0.13321
 N221 N 1.06218 0.21947 -0.17842
 N222 N 1.10611 0.24958 -0.22207
 C223 C 1.17975 0.22885 -0.20965
 C224 C 1.17920 0.18425 -0.15709
 N225 N 1.10514 0.18044 -0.13898
 H226 H 1.22785 0.15753 -0.13420
 N227 N 1.08665 0.74791 0.35042
 N228 N 1.12584 0.77896 0.30434
 C229 C 1.18561 0.73118 0.29140
 C230 C 1.18141 0.66970 0.33210
 N231 N 1.11915 0.68241 0.36771
 H232 H 1.22211 0.62273 0.33737
 N233 N 0.56416 0.23057 0.32600
 N234 N 0.60850 0.26039 0.28250
 C235 C 0.68032 0.23152 0.29065
 C236 C 0.67831 0.18296 0.34092
 N237 N 0.60523 0.18432 0.36154
 H238 H 0.72542 0.15023 0.36066
 N239 N 0.56475 0.72949 -0.17336
 N240 N 0.60841 0.75911 -0.21734
 C241 C 0.68118 0.73318 -0.20826
 C242 C 0.68036 0.68643 -0.15676
 N243 N 0.60697 0.68598 -0.13652
 H244 H 0.72825 0.65549 -0.13639
 N245 N 0.93796 -0.21838 -0.18059
 N246 N 0.89362 -0.24766 -0.22436
 C247 C 0.81994 -0.22794 -0.21095
 C248 C 0.82092 -0.18477 -0.15762
 N249 N 0.89525 -0.18083 -0.14007
 H250 H 0.77238 -0.15922 -0.13377
 N251 N 0.91616 0.25185 0.35217
 N252 N 0.87675 0.22055 0.30632
 C253 C 0.81723 0.26849 0.29367
 C254 C 0.82150 0.33014 0.33370
 N255 N 0.88377 0.31756 0.36915
 H256 H 0.78091 0.37724 0.33868
 N257 N 0.43169 -0.23281 0.32646
 N258 N 0.38769 -0.26302 0.28288
 C259 C 0.31611 -0.23246 0.28908
 C260 C 0.31836 -0.18222 0.33878
 N261 N 0.39100 -0.18457 0.36058
 H262 H 0.27161 -0.14795 0.35741
 N263 N 0.43469 0.27142 -0.17283
 N264 N 0.39100 0.24172 -0.21679
 C265 C 0.31821 0.26740 -0.20747
 C266 C 0.31901 0.31404 -0.15590
 N267 N 0.39242 0.31470 -0.13581
 H268 H 0.27110 0.34488 -0.13543
 N269 N 1.24580 -0.08426 0.15492
 N270 N 1.27738 -0.12405 0.20047
 C271 C 1.23039 -0.18483 0.21206
 C272 C 1.16880 -0.18042 0.17139
 N273 N 1.18074 -0.11733 0.13685
 H274 H 1.12267 -0.22191 0.16503
 N275 N 1.22101 0.43785 0.68238
 N276 N 1.25010 0.39354 0.72625
 C277 C 1.23020 0.32008 0.71269
 C278 C 1.18739 0.32117 0.65912
 N279 N 1.18350 0.39527 0.64168
 H280 H 1.16141 0.27281 0.63534
 N281 N 0.74285 -0.07998 0.65282
 N282 N 0.77418 -0.11886 0.69895
 C283 C 0.73048 -0.18266 0.70753
 C284 C 0.67148 -0.18142 0.66487
 N285 N 0.68118 -0.11675 0.63203
 H286 H 0.62793 -0.22510 0.65669
 N287 N 0.74922 0.41735 0.15174
 N288 N 0.77990 0.37776 0.19782
 C289 C 0.73337 0.31635 0.20791
 C290 C 0.67369 0.31952 0.16592
 N291 N 0.68537 0.38316 0.13228
 H292 H 0.62800 0.27775 0.15882
 N293 N 0.75432 0.08086 0.15377
 N294 N 0.72273 0.12065 0.19932
 C295 C 0.77005 0.18102 0.21086
 C296 C 0.83162 0.17672 0.17072
 N297 N 0.81957 0.11386 0.13607
 H298 H 0.87777 0.21822 0.16462
 N299 N 0.77921 0.56341 0.68087
 N300 N 0.74940 0.60741 0.72467
 C301 C 0.76926 0.68096 0.71151
 C302 C 0.81275 0.68026 0.65824
 N303 N 0.81713 0.60627 0.64061
 H304 H 0.83904 0.72878 0.63492
 N305 N 0.25451 0.08044 0.65382
 N306 N 0.22370 0.11983 0.69991
 C307 C 0.26811 0.18317 0.70842
 C308 C 0.32701 0.18115 0.66572
 N309 N 0.31656 0.11646 0.63296
 H310 H 0.37107 0.22430 0.65748
 N311 N 0.25118 0.58454 0.15299
 N312 N 0.22044 0.62405 0.19914
 C313 C 0.26651 0.68594 0.20939
 C314 C 0.32611 0.68287 0.16680
 N315 N 0.31473 0.61897 0.13322
 H316 H 0.37153 0.72485 0.15936
   
