data_POSCAR
  _audit_creation_date              2014-09-24
  _audit_creation_method            'ToBaCCo'
  _symmetry_space_group_name_H-M    'P1'
  _symmetry_Int_Tables_number       1
  _symmetry_cell_setting            triclinic
  loop_
  _symmetry_equiv_pos_as_xyz
 x,y,z
_cell_length_a 35.4864
_cell_length_b 35.5973
_cell_length_c 13.1001
_cell_angle_alpha 90.262600
_cell_angle_beta 89.741700
_cell_angle_gamma 120.136100
loop_
  _atom_site_label
  _atom_site_type_symbol
  _atom_site_fract_x
  _atom_site_fract_y
  _atom_site_fract_z
C1 C 0.12907 0.46735 0.51558
 C2 C 0.15459 0.47672 0.42614
 C3 C 0.18647 0.46460 0.42069
 C4 C 0.19425 0.44404 0.50114
 C5 C 0.16901 0.43527 0.59082
 C6 C 0.13772 0.44875 0.60172
 C7 C 0.23461 0.44068 0.49680
 C8 C 0.26125 0.45288 0.58282
 C9 C 0.30422 0.46162 0.57657
 C10 C 0.32088 0.45677 0.48283
 C11 C 0.29500 0.44459 0.39418
 C12 C 0.25126 0.43489 0.40329
 H13 H 0.10543 0.47806 0.52111
 H14 H 0.20653 0.47237 0.35295
 H15 H 0.17569 0.41993 0.65348
 H16 H 0.24957 0.45861 0.65430
 H17 H 0.35478 0.46541 0.47770
 H18 H 0.23067 0.42497 0.33652
 C19 C 0.53819 -0.33771 0.51606
 C20 C 0.53361 -0.32076 0.42427
 C21 C 0.54237 -0.27769 0.42111
 C22 C 0.56034 -0.24980 0.50499
 C23 C 0.56908 -0.26659 0.59429
 C24 C 0.55629 -0.31109 0.60180
 C25 C 0.56660 -0.20473 0.50089
 C26 C 0.56511 -0.18454 0.59165
 C27 C 0.56710 -0.14430 0.59101
 C28 C 0.56716 -0.12504 0.49836
 C29 C 0.56897 -0.14393 0.40606
 C30 C 0.57036 -0.18288 0.40751
 H31 H 0.52982 -0.37147 0.51902
 H32 H 0.53379 -0.26640 0.35370
 H33 H 0.58476 -0.24541 0.65847
 H34 H 0.56020 -0.20090 0.66381
 H35 H 0.56704 -0.09464 0.49809
 H36 H 0.57303 -0.19636 0.33556
 C37 C 1.33839 0.87998 0.48331
 C38 C 1.31673 0.85981 0.39197
 C39 C 1.27409 0.82422 0.39716
 C40 C 1.25139 0.81043 0.48950
 C41 C 1.27248 0.83378 0.57915
 C42 C 1.31649 0.86728 0.57747
 C43 C 1.20830 0.76870 0.49249
 C44 C 1.19710 0.74269 0.57945
 C45 C 1.15973 0.70127 0.58336
 C46 C 1.13379 0.68473 0.49501
 C47 C 1.14488 0.70931 0.40450
 C48 C 1.18098 0.75205 0.40599
 H49 H 1.37194 0.90627 0.48125
 H50 H 1.25945 0.80511 0.32965
 H51 H 1.25543 0.82483 0.65136
 H52 H 1.21858 0.75473 0.64393
 H53 H 1.10592 0.65208 0.49526
 H54 H 1.18886 0.77173 0.33830
 C55 C 0.86368 0.54129 0.50749
 C56 C 0.84286 0.53339 0.41415
 C57 C 0.80104 0.52799 0.40773
 C58 C 0.78046 0.53256 0.49509
 C59 C 0.80372 0.54390 0.58854
 C60 C 0.84496 0.54738 0.59473
 C61 C 0.73453 0.52380 0.48949
 C62 C 0.70719 0.50681 0.57457
 C63 C 0.66410 0.49864 0.57401
 C64 C 0.64720 0.50515 0.48224
 C65 C 0.67279 0.51841 0.39230
 C66 C 0.71700 0.52988 0.39891
 H67 H 0.89612 0.54550 0.51085
 H68 H 0.78481 0.51979 0.33452
 H69 H 0.78981 0.54946 0.65648
 H70 H 0.72019 0.50081 0.64277
 H71 H 0.61349 0.49724 0.47908
 H72 H 0.73775 0.54339 0.33281
 C73 C 0.44349 0.31225 0.50799
 C74 C 0.45206 0.29757 0.41731
 C75 C 0.45247 0.25843 0.41498
 C76 C 0.44091 0.23191 0.50190
 C77 C 0.42751 0.24518 0.59035
 C78 C 0.43062 0.28626 0.59518
 C79 C 0.44564 0.19232 0.50276
 C80 C 0.45550 0.17918 0.59456
 C81 C 0.46198 0.14341 0.59964
 C82 C 0.46244 0.12274 0.50819
 C83 C 0.45314 0.13542 0.41445
 C84 C 0.44351 0.16933 0.41293
 H85 H 0.44414 0.34304 0.50843
 H86 H 0.46233 0.24936 0.34526
 H87 H 0.41630 0.22432 0.65641
 H88 H 0.46041 0.19856 0.66190
 H89 H 0.46890 0.09604 0.50988
 H90 H 0.43556 0.17848 0.34117
 C91 C 0.69193 0.12965 0.49505
 C92 C 0.70969 0.15181 0.40391
 C93 C 0.74591 0.19382 0.40665
 C94 C 0.76727 0.21299 0.49867
 C95 C 0.75072 0.18858 0.58954
 C96 C 0.71220 0.14775 0.58819
 C97 C 0.80431 0.25923 0.49890
 C98 C 0.81260 0.28555 0.58531
 C99 C 0.84594 0.32947 0.58647
 C100 C 0.86932 0.34817 0.49492
 C101 C 0.85913 0.32321 0.40438
 C102 C 0.82918 0.27836 0.41020
 H103 H 0.66280 0.09785 0.49340
 H104 H 0.75602 0.21210 0.33648
 H105 H 0.76653 0.20152 0.66196
 H106 H 0.79318 0.27140 0.65272
 H107 H 0.89326 0.38250 0.49246
 H108 H 0.82472 0.25851 0.34376
 O109 O 0.96127 0.52764 -0.20463
 O110 O 1.04332 0.56380 0.19404
 O111 O 0.96142 0.54457 0.10095
 O112 O 1.09476 0.56967 -0.10671
 O113 O 0.96376 0.50860 0.21838
 O114 O 1.04351 0.57021 -0.19461
 O115 O 1.07563 0.59334 0.05374
 O116 O 0.94460 0.54536 -0.06279
 C117 C 0.94307 0.54453 -0.15617
 C118 C 1.06736 0.59741 0.14422
 C119 C 0.95163 0.53364 0.18805
 C120 C 1.08285 0.58702 -0.17202
 O121 O 1.04400 0.49580 -0.19103
 O122 O 0.97894 0.44837 0.14495
 O123 O 0.91314 0.45865 -0.08820
 O124 O 1.11572 0.55302 0.07656
 O125 O 1.05822 0.49826 0.14605
 O126 O 0.96121 0.45561 -0.19014
 O127 O 1.06741 0.49184 -0.04025
 O128 O 0.92290 0.45260 0.09451
 Co129 Co 1.00303 0.51259 -0.17734
 Co130 Co 1.01071 0.50620 0.15839
 Co131 Co 0.94027 0.50108 0.01151
 Co132 Co 1.06748 0.54088 0.00878
 O133 O 1.00296 0.51449 -0.00877
 C134 C 1.06424 0.48350 -0.13457
 C135 C 0.93872 0.43142 0.13584
 C136 C 0.92276 0.44047 -0.15943
 C137 C 1.09883 0.52579 0.15286
 O138 O 0.46720 0.42692 -0.21206
 O139 O 0.42935 0.46066 0.15873
 O140 O 0.45390 0.41009 0.09729
 O141 O 0.43858 0.52652 -0.10831
 O142 O 0.48845 0.44659 0.22103
 O143 O 0.43025 0.47116 -0.19855
 O144 O 0.42315 0.50822 0.07262
 O145 O 0.44603 0.39492 -0.06941
 C146 C 0.44599 0.39269 -0.16261
 C147 C 0.40710 0.47702 0.13388
 C148 C 0.46594 0.40977 0.18434
 C149 C 0.41792 0.49709 -0.17350
 O150 O 0.50640 0.54305 -0.20767
 O151 O 0.54741 0.51785 0.14426
 O152 O 0.53411 0.44326 -0.10395
 O153 O 0.51090 0.55805 0.10779
 O154 O 0.49146 0.52530 0.25110
 O155 O 0.54229 0.49727 -0.19954
 O156 O 0.52462 0.57470 -0.06244
 O157 O 0.54434 0.45989 0.07997
 Co158 Co 0.48632 0.48458 -0.18611
 Co159 Co 0.48809 0.49027 0.14347
 Co160 Co 0.49418 0.43117 0.00030
 Co161 Co 0.47487 0.53721 0.00129
 O162 O 0.48547 0.48375 -0.01674
 C163 C 0.52707 0.57714 -0.15610
 C164 C 0.56500 0.49547 0.12856
 C165 C 0.55446 0.47145 -0.17243
 C166 C 0.50184 0.56023 0.19920
 O167 O 0.57500 0.02388 -0.17816
 O168 O 0.55094 -0.02393 0.17008
 O169 O 0.59881 0.07358 0.05255
 O170 O 0.52560 -0.07293 -0.06007
 O171 O 0.56638 0.04929 0.19403
 O172 O 0.51703 -0.04915 -0.20091
 O173 O 0.50020 -0.08340 0.11016
 O174 O 0.58388 0.08319 -0.11763
 C175 C 0.59923 0.06308 -0.16355
 C176 C 0.53564 -0.06325 0.15651
 C177 C 0.60113 0.07016 0.14513
 C178 C 0.53250 -0.06829 -0.15220
 O179 O 0.45845 -0.02094 -0.18014
 O180 O 0.47937 0.02079 0.17440
 O181 O 0.50628 0.07382 -0.05380
 O182 O 0.43212 -0.07411 0.04594
 O183 O 0.46362 -0.05221 0.18926
 O184 O 0.51624 0.05210 -0.19722
 O185 O 0.44816 -0.08154 -0.12603
 O186 O 0.52974 0.08128 0.11831
 Co187 Co 0.51661 0.00131 -0.17093
 Co188 Co 0.51520 -0.00138 0.16371
 Co189 Co 0.55087 0.07041 -0.00045
 Co190 Co 0.48034 -0.07042 -0.00728
 O191 O 0.51570 -0.00000 -0.00371
 C192 C 0.43378 -0.06033 -0.17061
 C193 C 0.49408 0.06005 0.16342
 C194 C 0.50140 0.07168 -0.14690
 C195 C 0.42921 -0.07137 0.13883
 C196 C 1.15194 0.50090 0.34466
 C197 C 1.18778 0.52916 0.28654
 C198 C 1.17212 0.54286 0.21057
 C199 C 1.12781 0.52179 0.22580
 O200 O 1.11516 0.49680 0.30843
 H201 H 1.22169 0.53900 0.29828
 H202 H 1.19073 0.56476 0.14931
 C203 C 0.52345 0.65408 0.33579
 C204 C 0.53175 0.67128 0.23853
 C205 C 0.52506 0.63814 0.17688
 C206 C 0.51128 0.60248 0.23945
 O207 O 0.51093 0.61206 0.33649
 H208 H 0.54517 0.70469 0.21501
 H209 H 0.53203 0.64067 0.09603
 C210 C 0.33759 -0.12613 0.29692
 C211 C 0.31705 -0.13969 0.20298
 C212 C 0.34886 -0.11981 0.13233
 C213 C 0.38644 -0.09527 0.18710
 O214 O 0.37994 -0.09862 0.28689
 H215 H 0.28300 -0.16125 0.18601
 H216 H 0.34526 -0.12371 0.05046
 C217 C 0.86820 0.53715 0.32320
 C218 C 0.86955 0.56122 0.24008
 C219 C 0.90297 0.56487 0.18283
 C220 C 0.91912 0.54215 0.23452
 O221 O 0.89830 0.52548 0.32066
 H222 H 0.85002 0.57618 0.22581
 H223 H 0.91387 0.58147 0.11041
 C224 C 0.45471 0.32070 0.32335
 C225 C 0.43539 0.29930 0.23409
 C226 C 0.43620 0.33013 0.17299
 C227 C 0.45676 0.36832 0.22847
 O228 O 0.46772 0.36276 0.32069
 H229 H 0.41999 0.26487 0.21798
 H230 H 0.42304 0.32533 0.09669
 C231 C 0.68988 0.13177 0.30545
 C232 C 0.71220 0.14253 0.21385
 C233 C 0.68179 0.11929 0.14226
 C234 C 0.64330 0.09566 0.19524
 O235 O 0.64799 0.10297 0.29456
 H236 H 0.74636 0.16531 0.20035
 H237 H 0.68674 0.12089 0.06073
 C238 C 0.46837 0.12915 -0.30530
 C239 C 0.46189 0.14317 -0.21120
 C240 C 0.47233 0.12232 -0.14062
 C241 C 0.48419 0.09685 -0.19542
 O242 O 0.48165 0.10053 -0.29533
 H243 H 0.45051 0.16553 -0.19401
 H244 H 0.47235 0.12611 -0.05868
 C245 C 0.63889 0.48407 -0.33575
 C246 C 0.64778 0.46534 -0.25321
 C247 C 0.61682 0.45761 -0.18196
 C248 C 0.59166 0.47269 -0.22444
 O249 O 0.60435 0.48822 -0.31800
 H250 H 0.67296 0.45691 -0.24549
 H251 H 0.61321 0.44309 -0.10752
 C252 C 0.85488 0.35394 -0.32234
 C253 C 0.82695 0.34274 -0.23886
 C254 C 0.84853 0.37414 -0.16745
 C255 C 0.88827 0.40184 -0.21069
 O256 O 0.89220 0.39022 -0.30485
 H257 H 0.79412 0.31573 -0.23054
 H258 H 0.83684 0.37644 -0.09255
 C259 C 0.56734 -0.12343 -0.31203
 C260 C 0.58272 -0.13015 -0.22137
 C261 C 0.57297 -0.10873 -0.14996
 C262 C 0.55297 -0.09010 -0.20235
 O263 O 0.54962 -0.09871 -0.30097
 H264 H 0.59808 -0.14937 -0.20825
 H265 H 0.57811 -0.10832 -0.06887
 C266 C 0.33245 0.48032 -0.33348
 C267 C 0.32897 0.50791 -0.26424
 C268 C 0.36055 0.51758 -0.19390
 C269 C 0.38072 0.49507 -0.22523
 O270 O 0.36408 0.47264 -0.31014
 H271 H 0.30658 0.52018 -0.26575
 H272 H 0.36819 0.53866 -0.12810
 C273 C 1.14957 0.67644 -0.32669
 C274 C 1.17690 0.68666 -0.24266
 C275 C 1.15499 0.65431 -0.17479
 C276 C 1.11585 0.62685 -0.22056
 O277 O 1.11220 0.63977 -0.31264
 H278 H 1.20951 0.71351 -0.23090
 H279 H 1.16622 0.65103 -0.10045
 C280 C 0.86983 0.55665 -0.30988
 C281 C 0.86433 0.57548 -0.22316
 C282 C 0.89377 0.57634 -0.15521
 C283 C 0.91497 0.55809 -0.20589
 O284 O 0.90053 0.54623 -0.29938
 H285 H 0.84140 0.58662 -0.21030
 H286 H 0.89792 0.58714 -0.07661
 C287 C 0.42289 0.30305 -0.31524
 C288 C 0.40496 0.28065 -0.22556
 C289 C 0.40769 0.31117 -0.15808
 C290 C 0.42731 0.34987 -0.21101
 O291 O 0.43606 0.34494 -0.30612
 H292 H 0.39232 0.24661 -0.20955
 H293 H 0.39881 0.30623 -0.07818
 C294 C 0.69128 0.12431 -0.31671
 C295 C 0.71287 0.12189 -0.23191
 C296 C 0.68080 0.09679 -0.16375
 C297 C 0.64232 0.08645 -0.21160
 O298 O 0.64845 0.10279 -0.30447
 H299 H 0.74765 0.13610 -0.22174
 H300 H 0.68491 0.08700 -0.08864
 C301 C 1.11884 0.44791 -0.30134
 C302 C 1.12721 0.43358 -0.21016
 C303 C 1.10687 0.44376 -0.13513
 C304 C 1.08704 0.46313 -0.18469
 O305 O 1.09404 0.46554 -0.28499
 H306 H 1.14699 0.41884 -0.19746
 H307 H 1.10744 0.43875 -0.05385
 C308 C 0.55995 0.66967 -0.30783
 C309 C 0.57885 0.69090 -0.21735
 C310 C 0.57154 0.65882 -0.14987
 C311 C 0.54882 0.62040 -0.20356
 O312 O 0.54201 0.62690 -0.29901
 H313 H 0.59498 0.72527 -0.20058
 H314 H 0.57994 0.66283 -0.06969
 C315 C 0.34002 -0.11205 -0.32593
 C316 C 0.32041 -0.10881 -0.23748
 C317 C 0.35317 -0.08884 -0.16787
 C318 C 0.39030 -0.08175 -0.21795
 O319 O 0.38270 -0.09530 -0.31418
 H320 H 0.28641 -0.11911 -0.22535
 H321 H 0.35047 -0.07989 -0.09035
 C322 C 0.56887 -0.12252 0.30946
 C323 C 0.59550 -0.11653 0.22681
 C324 C 0.58728 -0.09245 0.15899
 C325 C 0.55562 -0.08640 0.20419
 O326 O 0.54473 -0.10409 0.29602
 H327 H 0.61923 -0.12696 0.21882
 H328 H 0.60324 -0.07988 0.08660
 C329 C 0.31531 0.44774 0.29149
 C330 C 0.29787 0.45095 0.19972
 C331 C 0.32932 0.46046 0.12776
 C332 C 0.36359 0.46173 0.17941
 O333 O 0.35542 0.45435 0.27873
 H334 H 0.26705 0.44941 0.18683
 H335 H 0.32811 0.46735 0.04782
 C336 C 1.12163 0.68878 0.30672
 C337 C 1.12681 0.71065 0.21582
 C338 C 1.10552 0.67931 0.14344
 C339 C 1.08822 0.64045 0.19465
 O340 O 1.09783 0.64601 0.29354
 H341 H 1.14518 0.74523 0.20204
 H342 H 1.10404 0.68414 0.06237
 C343 C 0.45459 0.11385 0.31826
 C344 C 0.43199 0.11117 0.23021
 C345 C 0.44352 0.09004 0.16073
 C346 C 0.47243 0.08165 0.21089
 O347 O 0.47908 0.09567 0.30655
 H348 H 0.40943 0.12277 0.21809
 H349 H 0.43205 0.08149 0.08309
 C350 C 0.65313 0.51689 0.28998
 C351 C 0.67087 0.51384 0.19792
 C352 C 0.64092 0.50733 0.12493
 C353 C 0.60720 0.50753 0.17627
 O354 O 0.61410 0.51280 0.27653
 H355 H 0.70094 0.51371 0.18530
 H356 H 0.64271 0.50157 0.04434
 C357 C 0.87551 0.34354 0.30146
 C358 C 0.85361 0.32528 0.21099
 C359 C 0.87540 0.35522 0.13677
 C360 C 0.90950 0.38953 0.18575
 O361 O 0.90953 0.38299 0.28590
 H362 H 0.82376 0.29465 0.20049
 H363 H 0.86680 0.35288 0.05693
   
