data_POSCAR
  _audit_creation_date              2014-09-24
  _audit_creation_method            'ToBaCCo'
  _symmetry_space_group_name_H-M    'P1'
  _symmetry_Int_Tables_number       1
  _symmetry_cell_setting            triclinic
  loop_
  _symmetry_equiv_pos_as_xyz
 x,y,z
_cell_length_a 21.8752
_cell_length_b 21.7666
_cell_length_c 21.4664
_cell_angle_alpha 77.789700
_cell_angle_beta 100.015200
_cell_angle_gamma 95.183900
loop_
  _atom_site_label
  _atom_site_type_symbol
  _atom_site_fract_x
  _atom_site_fract_y
  _atom_site_fract_z
C1 C 0.63021 0.61088 0.02490
 C2 C 0.64665 0.55094 0.02057
 C3 C 0.59820 0.50544 0.00909
 C4 C 0.53556 0.52147 -0.00566
 C5 C 0.52221 0.58431 -0.00933
 C6 C 0.56820 0.62904 0.01028
 C7 C 0.48343 0.47295 -0.01561
 C8 C 0.42418 0.48069 -0.00180
 C9 C 0.37445 0.43618 -0.01055
 C10 C 0.38573 0.38058 -0.02868
 C11 C 0.44479 0.37025 -0.04021
 C12 C 0.49252 0.41765 -0.03613
 H13 H 0.66662 0.64232 0.04275
 H14 H 0.60904 0.45796 0.01002
 H15 H 0.47539 0.59771 -0.02810
 H16 H 0.41662 0.52066 0.01789
 H17 H 0.34918 0.34458 -0.03287
 H18 H 0.53676 0.41053 -0.04864
 C19 C 0.02637 0.63647 0.38220
 C20 C 0.00631 0.64629 0.43810
 C21 C -0.00264 0.59331 0.48706
 C22 C 0.01094 0.53250 0.48261
 C23 C 0.03238 0.52515 0.42652
 C24 C 0.03716 0.57589 0.37404
 C25 C 0.00032 0.47641 0.53517
 C26 C -0.01096 0.41527 0.52169
 C27 C -0.01952 0.36247 0.57043
 C28 C -0.02164 0.37148 0.63284
 C29 C -0.01281 0.43183 0.64764
 C30 C 0.00071 0.48343 0.59915
 H31 H 0.03695 0.67665 0.34593
 H32 H -0.02300 0.59930 0.52760
 H33 H 0.04362 0.47907 0.42341
 H34 H -0.01271 0.40797 0.47330
 H35 H -0.03166 0.33127 0.66966
 H36 H 0.01236 0.52896 0.61190
 C37 C 0.62555 0.00898 0.61154
 C38 C 0.56577 0.01107 0.62582
 C39 C 0.51438 0.00694 0.57743
 C40 C 0.52172 0.00853 0.51318
 C41 C 0.58284 0.00876 0.49993
 C42 C 0.63494 0.00459 0.54947
 C43 C 0.46562 0.00818 0.46120
 C44 C 0.46894 -0.01061 0.40293
 C45 C 0.41661 -0.01157 0.35453
 C46 C 0.35903 0.00298 0.36656
 C47 C 0.35411 0.02194 0.42390
 C48 C 0.40776 0.02643 0.46959
 H49 H 0.66506 0.01326 0.64867
 H50 H 0.46861 0.00148 0.59079
 H51 H 0.59021 0.00978 0.45150
 H52 H 0.51229 -0.02420 0.39445
 H53 H 0.31768 -0.00142 0.33154
 H54 H 0.40359 0.04503 0.51138
 O55 O 0.46342 -0.00319 -0.10879
 O56 O 0.42201 -0.02222 0.05269
 O57 O 0.43556 0.07253 -0.04218
 O58 O 0.45812 -0.09818 -0.01242
 O59 O 0.55672 -0.08007 0.02687
 O60 O 0.53405 0.08819 -0.00101
 O61 O 0.52095 -0.00831 0.09363
 O62 O 0.56251 0.01241 -0.06911
 Cu63 Cu 0.43471 -0.01471 -0.03126
 Cu64 Cu 0.55333 0.00506 0.01684
 C65 C 0.51974 0.00826 -0.11665
 C66 C 0.46421 -0.01896 0.10066
 C67 C 0.48167 0.10953 -0.02740
 C68 C 0.51196 -0.11789 0.01141
 O69 O -0.06332 0.55446 0.99713
 O70 O 0.10200 0.53513 0.99586
 O71 O 0.00042 0.53139 0.91261
 O72 O 0.03857 0.56766 1.07461
 O73 O 0.02624 0.46687 1.11846
 O74 O -0.00928 0.43004 0.95497
 O75 O 0.08948 0.43464 1.04026
 O76 O -0.07618 0.45319 1.03806
 Cu77 Cu 0.02049 0.55713 0.99044
 Cu78 Cu 0.00592 0.43606 1.04201
 C79 C -0.09774 0.50736 1.01891
 C80 C 0.12401 0.48131 1.01828
 C81 C -0.00966 0.47470 0.90588
 C82 C 0.03841 0.52392 1.12411
 O83 O -0.02115 -0.05524 0.42540
 O84 O -0.02272 0.10578 0.45553
 O85 O 0.06011 0.04123 0.42475
 O86 O -0.10298 0.01286 0.44876
 O87 O -0.07279 -0.02089 0.55315
 O88 O 0.09090 0.00471 0.52839
 O89 O 0.00993 0.07023 0.55909
 O90 O 0.00782 -0.09018 0.52968
 Cu91 Cu -0.02402 0.02969 0.42806
 Cu92 Cu 0.01256 -0.01269 0.55286
 C93 C -0.00769 -0.10049 0.47289
 C94 C -0.00842 0.11492 0.51304
 C95 C 0.10344 0.02752 0.47214
 C96 C -0.11583 -0.00749 0.50516
 C97 C -0.24411 0.58783 1.01680
 C98 C -0.28946 0.53823 1.02765
 C99 C -0.26747 0.47648 1.04416
 C100 C -0.20485 0.46602 1.04303
 C101 C -0.16257 0.51667 1.02438
 C102 C -0.18296 0.57731 1.01495
 C103 C -0.17721 0.63201 0.96087
 C104 C -0.24413 0.64381 0.96243
 H105 H -0.29788 0.43571 1.05782
 H106 H -0.19032 0.41814 1.05438
 H107 H -0.17068 0.61769 0.91580
 H108 H -0.14353 0.66952 0.97602
 H109 H -0.27655 0.63656 0.91824
 H110 H -0.24841 0.68853 0.97789
 C111 C 0.27387 0.40156 1.03408
 C112 C 0.31176 0.44833 1.00098
 C113 C 0.28988 0.50986 0.98306
 C114 C 0.22986 0.52172 0.99146
 C115 C 0.19017 0.47244 1.01850
 C116 C 0.21532 0.41372 1.04344
 C117 C 0.18888 0.34925 1.03800
 C118 C 0.25231 0.33586 1.02613
 H119 H 0.31773 0.54839 0.95916
 H120 H 0.21353 0.56868 0.97356
 H121 H 0.15183 0.34903 0.99538
 H122 H 0.17672 0.32187 1.08453
 H123 H 0.25019 0.32825 0.97620
 H124 H 0.27608 0.29959 1.06504
 C125 C -0.00423 -0.27831 0.50628
 C126 C -0.00510 -0.29233 0.44508
 C127 C -0.01778 -0.24173 0.39148
 C128 C -0.02104 -0.17967 0.40016
 C129 C -0.01117 -0.16593 0.46251
 C130 C -0.00656 -0.21708 0.51465
 C131 C 0.03855 -0.22748 0.57604
 C132 C 0.04132 -0.29452 0.56716
 H133 H -0.02477 -0.24916 0.34245
 H134 H -0.02844 -0.14220 0.35795
 H135 H 0.01674 -0.22461 0.61832
 H136 H 0.08308 -0.19903 0.57203
 H137 H 0.02132 -0.33010 0.60463
 H138 H 0.08744 -0.30503 0.55811
 C139 C -0.00149 0.24693 0.60415
 C140 C -0.02503 0.29764 0.55681
 C141 C -0.05162 0.28451 0.49572
 C142 C -0.04693 0.22495 0.48122
 C143 C -0.01588 0.17704 0.52751
 C144 C 0.00277 0.18835 0.58999
 C145 C 0.06333 0.17803 0.63406
 C146 C 0.05861 0.24224 0.64964
 H147 H -0.07419 0.32058 0.45832
 H148 H -0.06591 0.21719 0.43327
 H149 H 0.10247 0.17617 0.60776
 H150 H 0.05948 0.13857 0.67581
 H151 H 0.09499 0.27772 0.63245
 H152 H 0.05200 0.23961 0.70032
 C153 C 0.60176 -0.00167 -0.25428
 C154 C 0.55726 0.01815 -0.30877
 C155 C 0.50481 0.04619 -0.29891
 C156 C 0.49356 0.04510 -0.23614
 C157 C 0.53529 0.01757 -0.18192
 C158 C 0.59121 -0.00165 -0.19237
 C159 C 0.62144 -0.06247 -0.16541
 C160 C 0.63342 -0.06226 -0.23302
 H161 H 0.47104 0.06679 -0.33928
 H162 H 0.45113 0.06360 -0.23002
 H163 H 0.58790 -0.10116 -0.14809
 H164 H 0.66469 -0.05681 -0.13081
 H165 H 0.60733 -0.10103 -0.25452
 H166 H 0.68361 -0.05610 -0.23738
 C167 C 0.38122 -0.00120 0.23468
 C168 C 0.42222 -0.02568 0.29065
 C169 C 0.47106 -0.06029 0.28240
 C170 C 0.48390 -0.06013 0.22026
 C171 C 0.44678 -0.02756 0.16510
 C172 C 0.39277 -0.00283 0.17353
 C173 C 0.36809 0.06053 0.14541
 C174 C 0.35554 0.06251 0.21237
 H175 H 0.50161 -0.08482 0.32344
 H176 H 0.52422 -0.08318 0.21549
 H177 H 0.32497 0.05798 0.10978
 H178 H 0.40453 0.09617 0.12858
 H179 H 0.30516 0.06140 0.21506
 H180 H 0.38477 0.09923 0.23454
 C181 C 0.59918 -0.26400 0.03221
 C182 C 0.55284 -0.31036 0.01699
 C183 C 0.49036 -0.29371 0.01265
 C184 C 0.47636 -0.23185 0.01341
 C185 C 0.52411 -0.18500 0.02059
 C186 C 0.58508 -0.20389 0.03473
 C187 C 0.64140 -0.17362 0.00827
 C188 C 0.65692 -0.23891 0.00426
 H189 H 0.45112 -0.32696 0.00736
 H190 H 0.42815 -0.22031 0.00596
 H191 H 0.67468 -0.15266 0.04448
 H192 H 0.63014 -0.14219 -0.03954
 H193 H 0.70016 -0.25401 0.03756
 H194 H 0.65434 -0.24555 -0.04613
 C195 C 0.51545 0.28212 -0.02531
 C196 C 0.45803 0.30809 -0.05147
 C197 C 0.41188 0.26980 -0.08226
 C198 C 0.42025 0.20535 -0.07720
 C199 C 0.47506 0.17814 -0.04168
 C200 C 0.52376 0.21889 -0.02060
 C201 C 0.56469 0.21421 0.04343
 C202 C 0.55561 0.28362 0.03825
 H203 H 0.36785 0.28839 -0.10668
 H204 H 0.38248 0.17636 -0.09776
 H205 H 0.61319 0.20454 0.04112
 H206 H 0.54359 0.18300 0.08317
 H207 H 0.59889 0.31387 0.03294
 H208 H 0.52928 0.29271 0.07497
 C209 C -0.28962 0.00887 0.47504
 C210 C -0.30512 -0.00521 0.53762
 C211 C -0.25847 -0.03273 0.58791
 C212 C -0.19767 -0.03717 0.57675
 C213 C -0.18136 -0.01430 0.51512
 C214 C -0.22939 0.00496 0.46431
 C215 C -0.23282 0.06281 0.41251
 C216 C -0.29861 0.06743 0.42404
 H217 H -0.26802 -0.05057 0.63643
 H218 H -0.16284 -0.05553 0.61721
 H219 H -0.23085 0.05228 0.36446
 H220 H -0.20036 0.10197 0.42595
 H221 H -0.33428 0.05999 0.38223
 H222 H -0.30441 0.10927 0.44410
 C223 C 0.27822 0.01924 0.50003
 C224 C 0.29276 0.03547 0.43735
 C225 C 0.24571 0.06208 0.38773
 C226 C 0.18446 0.06319 0.39970
 C227 C 0.16892 0.03764 0.46151
 C228 C 0.21796 0.02009 0.51179
 C229 C 0.22489 -0.03787 0.56349
 C230 C 0.29101 -0.03868 0.55069
 H231 H 0.25524 0.07888 0.33900
 H232 H 0.14873 0.08028 0.35963
 H233 H 0.19432 -0.07842 0.55045
 H234 H 0.22274 -0.02815 0.61183
 H235 H 0.29883 -0.07969 0.53029
 H236 H 0.32686 -0.02929 0.59161
 C237 C 0.03778 0.61259 1.25677
 C238 C 0.05031 0.56658 1.31384
 C239 C 0.07309 0.50975 1.30623
 C240 C 0.07235 0.49657 1.24451
 C241 C 0.05085 0.54035 1.18851
 C242 C 0.03848 0.59986 1.19617
 C243 C -0.01562 0.63854 1.16527
 C244 C -0.01709 0.65245 1.23128
 H245 H 0.08982 0.47377 1.34699
 H246 H 0.08591 0.45101 1.24077
 H247 H -0.05713 0.60993 1.14738
 H248 H -0.00239 0.68062 1.12983
 H249 H -0.05946 0.63187 1.25179
 H250 H -0.00549 0.70288 1.23315
 C251 C -0.00797 0.39246 0.76788
 C252 C -0.01939 0.44082 0.71320
 C253 C -0.03987 0.49742 0.72284
 C254 C -0.03993 0.50747 0.78559
 C255 C -0.02069 0.46080 0.84029
 C256 C -0.00870 0.40213 0.82970
 C257 C 0.04519 0.36219 0.85803
 C258 C 0.04595 0.35147 0.79045
 H259 H -0.05374 0.53500 0.68228
 H260 H -0.05233 0.55280 0.79127
 H261 H 0.03192 0.31887 0.89188
 H262 H 0.08711 0.38960 0.87706
 H263 H 0.03305 0.30195 0.78557
 H264 H 0.08832 0.37252 0.77022
   
