data_POSCAR
  _audit_creation_date              2014-09-24
  _audit_creation_method            'ToBaCCo'
  _symmetry_space_group_name_H-M    'P1'
  _symmetry_Int_Tables_number       1
  _symmetry_cell_setting            triclinic
  loop_
  _symmetry_equiv_pos_as_xyz
 x,y,z
_cell_length_a 38.1044
_cell_length_b 40.5002
_cell_length_c 38.6716
_cell_angle_alpha 86.058700
_cell_angle_beta 94.917600
_cell_angle_gamma 94.141000
loop_
  _atom_site_label
  _atom_site_type_symbol
  _atom_site_fract_x
  _atom_site_fract_y
  _atom_site_fract_z
C1 C 0.21880 0.28125 0.28113
 C2 C 0.24272 0.30242 0.25712
 C3 C 0.26180 0.28410 0.23820
 C4 C 0.25536 0.24640 0.24487
 C5 C 0.19595 0.25815 0.25722
 C6 C 0.21519 0.23996 0.23829
 C7 C 0.24349 0.25859 0.30350
 C8 C 0.26257 0.24039 0.28442
 H9 H 0.24435 0.32937 0.25519
 H10 H 0.27097 0.23155 0.22940
 H11 H 0.16727 0.25620 0.25556
 H12 H 0.24547 0.25686 0.33175
 C13 C 0.71919 0.78128 0.28142
 C14 C 0.74312 0.80239 0.25739
 C15 C 0.76217 0.78403 0.23847
 C16 C 0.75568 0.74634 0.24518
 C17 C 0.69630 0.75818 0.25753
 C18 C 0.71550 0.73994 0.23862
 C19 C 0.74385 0.75859 0.30380
 C20 C 0.76289 0.74035 0.28473
 H21 H 0.74476 0.82935 0.25540
 H22 H 0.77127 0.73145 0.22971
 H23 H 0.66762 0.75625 0.25589
 H24 H 0.74580 0.75685 0.33205
 C25 C 0.71995 0.28268 0.78022
 C26 C 0.74261 0.30281 0.75753
 C27 C 0.76262 0.28363 0.73769
 C28 C 0.75648 0.24791 0.74400
 C29 C 0.69697 0.25944 0.75641
 C30 C 0.71625 0.24123 0.73746
 C31 C 0.74447 0.25983 0.80271
 C32 C 0.76357 0.24161 0.78361
 H33 H 0.74422 0.32978 0.75559
 H34 H 0.77208 0.23299 0.72854
 H35 H 0.66830 0.25738 0.75491
 H36 H 0.74627 0.25796 0.83097
 C37 C 0.21877 0.78124 0.78088
 C38 C 0.24267 0.80236 0.75682
 C39 C 0.26173 0.78400 0.73791
 C40 C 0.25529 0.74631 0.74466
 C41 C 0.19589 0.75809 0.75702
 C42 C 0.21511 0.73986 0.73813
 C43 C 0.24347 0.75860 0.80327
 C44 C 0.26252 0.74037 0.78422
 H45 H 0.24434 0.82931 0.75487
 H46 H 0.27088 0.73142 0.72920
 H47 H 0.16722 0.75611 0.75543
 H48 H 0.24546 0.75692 0.83153
 C49 C 0.05529 0.04631 0.00971
 H50 H 0.05543 0.04894 -0.01831
 C51 C 0.07659 0.06808 0.03029
 H52 H 0.09333 0.08749 0.01815
 C53 C 0.03254 0.01845 0.05983
 H54 H 0.01480 -0.00039 0.07126
 C55 C 0.05340 0.03969 0.08134
 H56 H 0.05192 0.03687 0.10925
 N57 N 0.03401 0.02195 0.02470
 C58 C 0.01335 -0.05263 -0.05223
 H59 H -0.01520 -0.05472 -0.05418
 C60 C 0.03178 -0.07239 -0.07163
 H61 H 0.01743 -0.08972 -0.08870
 C62 C 0.06707 -0.02782 -0.02728
 H63 H 0.08074 -0.01081 -0.00959
 C64 C 0.08651 -0.04713 -0.04620
 H65 H 0.11509 -0.04469 -0.04328
 Zn66 Zn 0.00422 -0.00517 -0.00507
 N67 N 0.03114 -0.03061 -0.03090
 C68 C -0.02373 0.02361 -0.07024
 N69 N -0.02345 0.02353 -0.03500
 C70 C -0.04218 0.04502 -0.01967
 C71 C -0.06297 0.06719 -0.03995
 C72 C -0.04421 0.04541 -0.09151
 C73 C -0.00952 -0.05830 0.04337
 C74 C -0.02987 -0.08034 0.06416
 C75 C -0.08220 -0.05516 0.03809
 C76 C -0.06090 -0.03358 0.01782
 N77 N -0.02518 -0.03509 0.02127
 H78 H -0.00803 0.00693 -0.08195
 H79 H -0.04102 0.04479 0.00839
 H80 H -0.07801 0.08403 -0.02751
 H81 H -0.04449 0.04524 -0.11953
 H82 H 0.01888 -0.05928 0.04522
 H83 H -0.01716 -0.09831 0.08219
 H84 H -0.11056 -0.05343 0.03561
 H85 H -0.07296 -0.01558 -0.00047
 C86 C 0.06869 -0.06953 -0.06864
 C87 C 0.07557 0.06474 0.06643
 C88 C -0.06652 -0.07853 0.06168
 C89 C -0.06409 0.06729 -0.07618
 C90 C 0.05490 0.54532 0.51066
 H91 H 0.05499 0.54794 0.48263
 C92 C 0.07621 0.56713 0.53118
 H93 H 0.09290 0.58655 0.51899
 C94 C 0.03229 0.51746 0.56084
 H95 H 0.01460 0.49860 0.57231
 C96 C 0.05317 0.53874 0.58230
 H97 H 0.05174 0.53595 0.61022
 N98 N 0.03369 0.52095 0.52571
 C99 C 0.01304 0.44639 0.44874
 H100 H -0.01551 0.44426 0.44680
 C101 C 0.03149 0.42670 0.42927
 H102 H 0.01715 0.40940 0.41216
 C103 C 0.06674 0.47122 0.47371
 H104 H 0.08040 0.48821 0.49142
 C105 C 0.08620 0.45198 0.45472
 H106 H 0.11478 0.45446 0.45762
 Zn107 Zn 0.00388 0.49380 0.49597
 N108 N 0.03081 0.46838 0.47010
 C109 C -0.02411 0.52260 0.43081
 N110 N -0.02380 0.52251 0.46606
 C111 C -0.04253 0.54398 0.48142
 C112 C -0.06333 0.56615 0.46117
 C113 C -0.04460 0.54442 0.40957
 C114 C -0.00985 0.44068 0.54446
 C115 C -0.03023 0.41865 0.56523
 C116 C -0.08255 0.44378 0.53907
 C117 C -0.06122 0.46536 0.51882
 N118 N -0.02550 0.46387 0.52232
 H119 H -0.00842 0.50593 0.41909
 H120 H -0.04135 0.54373 0.50948
 H121 H -0.07835 0.58299 0.47363
 H122 H -0.04490 0.54426 0.38155
 H123 H 0.01855 0.43972 0.54635
 H124 H -0.01753 0.40069 0.58329
 H125 H -0.11091 0.44549 0.53654
 H126 H -0.07328 0.48334 0.50050
 C127 C 0.06840 0.42961 0.43224
 C128 C 0.07527 0.56381 0.56733
 C129 C -0.06688 0.42043 0.56270
 C130 C -0.06447 0.56629 0.42493
 C131 C 0.55601 0.04649 0.51021
 H132 H 0.55608 0.04908 0.48219
 C133 C 0.57736 0.06829 0.53071
 H134 H 0.59406 0.08768 0.51850
 C135 C 0.53339 0.01870 0.56043
 H136 H 0.51568 -0.00013 0.57193
 C137 C 0.55430 0.03998 0.58187
 H138 H 0.55289 0.03721 0.60979
 N139 N 0.53477 0.02215 0.52530
 C140 C 0.51397 -0.05250 0.44846
 H141 H 0.48541 -0.05459 0.44655
 C142 C 0.53236 -0.07230 0.42905
 H143 H 0.51798 -0.08963 0.41201
 C144 C 0.56772 -0.02770 0.47334
 H145 H 0.58142 -0.01068 0.49099
 C146 C 0.58712 -0.04703 0.45441
 H147 H 0.61571 -0.04460 0.45729
 Zn148 Zn 0.50492 -0.00500 0.49560
 N149 N 0.53179 -0.03048 0.46975
 C150 C 0.47684 0.02370 0.43043
 N151 N 0.47723 0.02369 0.46568
 C152 C 0.45853 0.04520 0.48102
 C153 C 0.43766 0.06730 0.46076
 C154 C 0.45627 0.04545 0.40918
 C155 C 0.49115 -0.05807 0.54414
 C156 C 0.47076 -0.08011 0.56488
 C157 C 0.41846 -0.05497 0.53867
 C158 C 0.43981 -0.03338 0.51846
 N159 N 0.47552 -0.03488 0.52199
 H160 H 0.49250 0.00700 0.41871
 H161 H 0.45977 0.04501 0.50909
 H162 H 0.42264 0.08415 0.47322
 H163 H 0.45589 0.04521 0.38116
 H164 H 0.51956 -0.05904 0.54604
 H165 H 0.48344 -0.09808 0.58294
 H166 H 0.39010 -0.05326 0.53611
 H167 H 0.42776 -0.01541 0.50012
 C168 C 0.56927 -0.06945 0.43200
 C169 C 0.57643 0.06501 0.56686
 C170 C 0.43410 -0.07833 0.56230
 C171 C 0.43641 0.06734 0.42453
 C172 C 0.55564 0.54621 0.01014
 H173 H 0.55578 0.54889 -0.01788
 C174 C 0.57691 0.56798 0.03074
 H175 H 0.59362 0.58743 0.01863
 C176 C 0.53293 0.51826 0.06023
 H177 H 0.51522 0.49938 0.07163
 C178 C 0.55376 0.53950 0.08176
 H179 H 0.55228 0.53664 0.10967
 N180 N 0.53440 0.52181 0.02510
 C181 C 0.51391 0.44737 -0.05201
 H182 H 0.48535 0.44521 -0.05397
 C183 C 0.53240 0.42772 -0.07149
 H184 H 0.51809 0.41044 -0.08864
 C185 C 0.56757 0.47221 -0.02696
 H186 H 0.58120 0.48918 -0.00922
 C187 C 0.58706 0.45302 -0.04596
 H188 H 0.61565 0.45552 -0.04304
 Zn189 Zn 0.50466 0.49470 -0.00472
 N190 N 0.53164 0.46934 -0.03060
 C191 C 0.47665 0.52353 -0.06986
 N192 N 0.47697 0.52342 -0.03461
 C193 C 0.45822 0.54486 -0.01924
 C194 C 0.43736 0.56699 -0.03947
 C195 C 0.45610 0.54531 -0.09108
 C196 C 0.49088 0.44151 0.04369
 C197 C 0.47049 0.41948 0.06445
 C198 C 0.41819 0.44464 0.03826
 C199 C 0.43953 0.46621 0.01802
 N200 N 0.47525 0.46472 0.02155
 H201 H 0.49236 0.50688 -0.08160
 H202 H 0.45941 0.54460 0.00883
 H203 H 0.42230 0.58379 -0.02699
 H204 H 0.45577 0.54515 -0.11911
 H205 H 0.51928 0.44054 0.04559
 H206 H 0.48317 0.40153 0.08251
 H207 H 0.38983 0.44636 0.03572
 H208 H 0.42749 0.48420 -0.00030
 C209 C 0.56931 0.43067 -0.06850
 C210 C 0.57589 0.56460 0.06688
 C211 C 0.43384 0.42129 0.06190
 C212 C 0.43619 0.56713 -0.07570
 C213 C 0.16169 -0.16321 -0.16208
 N214 N 0.17805 -0.14616 -0.13560
 N215 N 0.15969 -0.12789 -0.11720
 C216 C 0.12443 -0.12612 -0.12471
 N217 N 0.10807 -0.14318 -0.15119
 N218 N 0.12643 -0.16145 -0.16960
 C219 C 0.18151 -0.18273 -0.18200
 C220 C 0.19826 -0.19904 -0.19874
 C221 C 0.10472 -0.10631 -0.10499
 C222 C 0.08825 -0.08959 -0.08842
 C223 C 0.16161 0.33655 0.33833
 N224 N 0.17790 0.35342 0.36497
 N225 N 0.15950 0.37156 0.38347
 C226 C 0.12425 0.37339 0.37588
 N227 N 0.10795 0.35651 0.34924
 N228 N 0.12636 0.33837 0.33074
 C229 C 0.18148 0.31714 0.31834
 C230 C 0.19826 0.30091 0.30155
 C231 C 0.10449 0.39306 0.39570
 C232 C 0.08798 0.40967 0.41235
 C233 C 0.66216 -0.16317 0.33850
 N234 N 0.62701 -0.16089 0.33058
 N235 N 0.60867 -0.14261 0.34900
 C236 C 0.62493 -0.12607 0.37589
 N237 N 0.66007 -0.12836 0.38382
 N238 N 0.67841 -0.14664 0.36540
 C239 C 0.68196 -0.18269 0.31857
 C240 C 0.69870 -0.19900 0.30182
 C241 C 0.60524 -0.10625 0.39563
 C242 C 0.58879 -0.08952 0.41221
 C243 C 0.66268 0.33787 -0.16251
 N244 N 0.67896 0.35477 -0.13589
 N245 N 0.66052 0.37286 -0.11737
 C246 C 0.62526 0.37460 -0.12492
 N247 N 0.60898 0.35769 -0.15154
 N248 N 0.62742 0.33959 -0.17006
 C249 C 0.68258 0.31851 -0.18253
 C250 C 0.69939 0.30232 -0.19934
 C251 C 0.60546 0.39421 -0.10507
 C252 C 0.58893 0.41078 -0.08840
 C253 C -0.16915 0.17518 -0.16933
 N254 N -0.17966 0.14250 -0.16570
 N255 N -0.15849 0.12108 -0.14848
 C256 C -0.12617 0.13170 -0.13437
 N257 N -0.11564 0.16437 -0.13805
 N258 N -0.13681 0.18579 -0.15527
 C259 C -0.19251 0.19844 -0.18661
 C260 C -0.21238 0.21807 -0.20050
 C261 C -0.10399 0.10888 -0.11459
 C262 C -0.08564 0.08984 -0.09739
 C263 C -0.16965 0.67414 0.33189
 N264 N -0.13762 0.68489 0.34656
 N265 N -0.11641 0.66350 0.36378
 C266 C -0.12660 0.63071 0.36683
 N267 N -0.15861 0.61996 0.35211
 N268 N -0.17981 0.64135 0.33490
 C269 C -0.19306 0.69735 0.31460
 C270 C -0.21299 0.71691 0.30068
 C271 C -0.10439 0.60789 0.38658
 C272 C -0.08603 0.58885 0.40375
 C273 C 0.33047 0.17455 0.33153
 N274 N 0.32046 0.14173 0.33467
 N275 N 0.34183 0.12047 0.35187
 C276 C 0.37384 0.13139 0.36644
 N277 N 0.38387 0.16420 0.36325
 N278 N 0.36250 0.18546 0.34605
 C279 C 0.30689 0.19762 0.31426
 C280 C 0.28682 0.21707 0.30035
 C281 C 0.39622 0.10871 0.38617
 C282 C 0.41472 0.08978 0.40335
 C283 C 0.33036 0.67449 -0.16863
 N284 N 0.36232 0.68540 -0.15392
 N285 N 0.38366 0.66411 -0.13673
 C286 C 0.37369 0.63128 -0.13374
 N287 N 0.34176 0.62037 -0.14849
 N288 N 0.32041 0.64165 -0.16568
 C289 C 0.30681 0.69757 -0.18591
 C290 C 0.28676 0.71704 -0.19983
 C291 C 0.39604 0.60857 -0.11402
 C292 C 0.41452 0.58960 -0.09686
 C293 C -0.17107 -0.17091 0.16997
 N294 N -0.13727 -0.16151 0.18088
 N295 N -0.11622 -0.14461 0.15913
 C296 C -0.12833 -0.13661 0.12582
 N297 N -0.16211 -0.14607 0.11490
 N298 N -0.18316 -0.16296 0.13664
 C299 C -0.19425 -0.18761 0.19385
 C300 C -0.21398 -0.20092 0.21409
 C301 C -0.10624 -0.11698 0.10293
 C302 C -0.08797 -0.09981 0.08397
 C303 C -0.17173 0.32801 0.67068
 N304 N -0.13795 0.33739 0.68168
 N305 N -0.11683 0.35429 0.66000
 C306 C -0.12885 0.36232 0.62667
 N307 N -0.16260 0.35288 0.61565
 N308 N -0.18372 0.33598 0.63733
 C309 C -0.19499 0.31129 0.69448
 C310 C -0.21477 0.29797 0.71466
 C311 C -0.10668 0.38196 0.60385
 C312 C -0.08836 0.39913 0.58494
 C313 C 0.32895 -0.17090 0.66988
 N314 N 0.36263 -0.16135 0.68105
 N315 N 0.38383 -0.14442 0.65947
 C316 C 0.37199 -0.13653 0.62606
 N317 N 0.33834 -0.14614 0.61486
 N318 N 0.31713 -0.16306 0.63644
 C319 C 0.30559 -0.18762 0.69357
 C320 C 0.28573 -0.20094 0.71367
 C321 C 0.39423 -0.11687 0.60333
 C322 C 0.41259 -0.09966 0.58449
 C323 C 0.32884 0.32916 0.16996
 N324 N 0.36255 0.33872 0.18104
 N325 N 0.38371 0.35556 0.15935
 C326 C 0.37180 0.36334 0.12593
 N327 N 0.33812 0.35372 0.11484
 N328 N 0.31696 0.33689 0.13652
 C329 C 0.30554 0.31249 0.19375
 C330 C 0.28573 0.29919 0.21391
 C331 C 0.39400 0.38290 0.10309
 C332 C 0.41234 0.40003 0.08416
 C333 C 0.16746 0.17338 0.17175
 N334 N 0.16314 0.14079 0.18223
 N335 N 0.14602 0.11928 0.16111
 C336 C 0.13270 0.12970 0.12888
 N337 N 0.13707 0.16227 0.11838
 N338 N 0.15419 0.18379 0.13949
 C339 C 0.18484 0.19671 0.19491
 C340 C 0.19892 0.21638 0.21457
 C341 C 0.11321 0.10673 0.10661
 C342 C 0.09633 0.08754 0.08815
 C343 C 0.16729 0.67289 0.67206
 N344 N 0.16224 0.64049 0.68303
 N345 N 0.14507 0.61887 0.66207
 C346 C 0.13245 0.62898 0.62950
 N347 N 0.13754 0.66137 0.61851
 N348 N 0.15470 0.68300 0.63947
 C349 C 0.18470 0.69637 0.69504
 C350 C 0.19882 0.71615 0.71456
 C351 C 0.11293 0.60593 0.60736
 C352 C 0.09603 0.58666 0.58899
 C353 C 0.66856 0.17412 0.67148
 N354 N 0.66325 0.14179 0.68258
 N355 N 0.64608 0.12014 0.66163
 C356 C 0.63370 0.13018 0.62896
 N357 N 0.63905 0.16251 0.61784
 N358 N 0.65622 0.18415 0.63878
 C359 C 0.68594 0.19763 0.69444
 C360 C 0.70002 0.21746 0.71393
 C361 C 0.61416 0.10712 0.60684
 C362 C 0.59723 0.08786 0.58849
 C363 C 0.66770 0.67329 0.17218
 N364 N 0.66310 0.64077 0.18281
 N365 N 0.64598 0.61923 0.16172
 C366 C 0.63295 0.62957 0.12936
 N367 N 0.63759 0.66209 0.11871
 N368 N 0.65471 0.68363 0.13981
 C369 C 0.68509 0.69665 0.19531
 C370 C 0.69920 0.71634 0.21494
 C371 C 0.61347 0.60660 0.10709
 C372 C 0.59661 0.58739 0.08863
   
