data_POSCAR
  _audit_creation_date              2014-09-24
  _audit_creation_method            'ToBaCCo'
  _symmetry_space_group_name_H-M    'P1'
  _symmetry_Int_Tables_number       1
  _symmetry_cell_setting            triclinic
  loop_
  _symmetry_equiv_pos_as_xyz
 x,y,z
_cell_length_a 22.4478
_cell_length_b 22.4543
_cell_length_c 22.4440
_cell_angle_alpha 90.097800
_cell_angle_beta 90.100500
_cell_angle_gamma 89.896700
loop_
  _atom_site_label
  _atom_site_type_symbol
  _atom_site_fract_x
  _atom_site_fract_y
  _atom_site_fract_z
C1 C -0.00038 0.50053 0.24980
 C2 C 0.00046 0.49968 0.75021
 C3 C 0.25026 0.00054 0.50030
 C4 C 0.74978 -0.00046 0.49942
 C5 C 0.49950 0.24993 0.99963
 C6 C 0.50036 0.75015 1.00056
 B7 B 0.99981 1.06091 0.03747
 B8 B 1.03752 1.00030 0.06075
 B9 B 0.96251 1.00019 0.06067
 B10 B 0.93912 1.03754 -0.00010
 B11 B 0.99975 1.06075 -0.03757
 B12 B 1.06057 1.03769 0.00002
 B13 B 1.00013 0.93932 -0.03752
 B14 B 0.96241 0.99994 -0.06081
 B15 B 1.03743 1.00004 -0.06073
 B16 B 1.06082 0.96270 0.00005
 B17 B 1.00019 0.93948 0.03751
 B18 B 0.93937 0.96254 -0.00007
 B19 B 0.56067 0.49994 0.46249
 B20 B 0.56088 0.49999 0.53753
 B21 B 0.53748 0.56069 0.50010
 B22 B 0.49983 0.53746 0.43937
 B23 B 0.49991 0.46247 0.43930
 B24 B 0.53761 0.43927 0.49997
 B25 B 0.43941 0.50009 0.53765
 B26 B 0.43920 0.50003 0.46261
 B27 B 0.46259 0.43933 0.50005
 B28 B 0.50025 0.46256 0.56077
 B29 B 0.50017 0.53756 0.56085
 B30 B 0.46247 0.56075 0.50017
 C31 C 0.99964 1.34151 0.16003
 N32 N 0.94753 1.31284 0.14947
 N33 N 0.94754 1.25741 0.12814
 C34 C 0.99965 1.22876 0.11731
 N35 N 1.05175 1.25744 0.12778
 N36 N 1.05175 1.31287 0.14910
 C37 C 0.99965 1.39942 0.18711
 C38 C 0.99965 1.44646 0.21313
 C39 C 0.99966 1.16960 0.09320
 C40 C 0.99969 1.12079 0.07089
 C41 C 0.99978 0.65942 0.16032
 N42 N 0.94778 0.68872 0.15058
 N43 N 0.94796 0.74408 0.12924
 C44 C 1.00015 0.77202 0.11758
 N45 N 1.05215 0.74270 0.12722
 N46 N 1.05197 0.68735 0.14856
 C47 C 0.99968 0.60157 0.18735
 C48 C 0.99962 0.55457 0.21328
 C49 C 1.00030 0.83106 0.09339
 C50 C 1.00033 0.87976 0.07101
 C51 C 1.00014 1.34082 -0.16030
 N52 N 0.94795 1.31237 -0.14985
 N53 N 0.94779 1.25701 -0.12852
 C54 C 0.99982 1.22822 -0.11757
 N55 N 1.05201 1.25669 -0.12793
 N56 N 1.05217 1.31204 -0.14926
 C57 C 1.00032 1.39867 -0.18731
 C58 C 1.00043 1.44567 -0.21325
 C59 C 0.99967 1.16917 -0.09341
 C60 C 0.99962 1.12047 -0.07105
 C61 C 1.00023 0.65878 -0.16017
 N62 N 0.94817 0.68806 -0.15085
 N63 N 0.94819 0.74349 -0.12953
 C64 C 1.00030 0.77153 -0.11746
 N65 N 1.05237 0.74223 -0.12668
 N66 N 1.05234 0.68680 -0.14801
 C67 C 1.00031 0.60085 -0.18720
 C68 C 1.00038 0.55378 -0.21318
 C69 C 1.00030 0.83067 -0.09331
 C70 C 1.00026 0.87946 -0.07097
 C71 C 1.16026 1.00069 0.34137
 N72 N 1.14710 1.05273 0.31368
 N73 N 1.12574 1.05272 0.25824
 C74 C 1.11749 1.00069 0.22859
 N75 N 1.13054 0.94865 0.25630
 N76 N 1.15189 0.94866 0.31174
 C77 C 1.18738 1.00083 0.39928
 C78 C 1.21347 1.00080 0.44631
 C79 C 1.09335 1.00061 0.16942
 C80 C 1.07101 1.00049 0.12062
 C81 C 1.16087 1.00069 -0.34067
 N82 N 1.15346 1.05251 -0.31041
 N83 N 1.13194 1.05230 -0.25510
 C84 C 1.11774 1.00022 -0.22818
 N85 N 1.12505 0.94840 -0.25845
 N86 N 1.14658 0.94861 -0.31376
 C87 C 1.18796 1.00065 -0.39851
 C88 C 1.21388 1.00061 -0.44555
 C89 C 1.09338 1.00008 -0.16917
 C90 C 1.07091 1.00001 -0.12049
 C91 C 0.83988 0.99900 0.34089
 N92 N 0.85853 1.05061 0.31582
 N93 N 0.87990 1.05098 0.26045
 C94 C 0.88269 0.99986 0.22829
 N95 N 0.86415 0.94824 0.25338
 N96 N 0.84278 0.94788 0.30874
 C97 C 0.81278 0.99922 0.39871
 C98 C 0.78667 0.99938 0.44563
 C99 C 0.90681 1.00008 0.16920
 C100 C 0.92911 1.00020 0.12046
 C101 C 0.83878 0.99931 -0.34104
 N102 N 0.85309 1.05135 -0.31383
 N103 N 0.87460 1.05148 -0.25845
 C104 C 0.88189 0.99963 -0.22839
 N105 N 0.86766 0.94758 -0.25560
 N106 N 0.84615 0.94746 -0.31099
 C107 C 0.81182 0.99943 -0.39903
 C108 C 0.78603 0.99950 -0.44622
 C109 C 0.90630 0.99969 -0.16933
 C110 C 0.92883 0.99978 -0.12061
 C111 C 1.34034 1.16104 -0.00191
 N112 N 1.30337 1.16986 -0.04895
 N113 N 1.24810 1.14833 -0.04833
 C114 C 1.22796 1.11780 -0.00038
 N115 N 1.26495 1.10887 0.04664
 N116 N 1.32023 1.13042 0.04602
 C117 C 1.39832 1.18775 -0.00122
 C118 C 1.44541 1.21352 -0.00076
 C119 C 1.16894 1.09359 -0.00012
 C120 C 1.12025 1.07120 0.00000
 C121 C 0.65845 1.16005 -0.00014
 N122 N 0.68652 1.14797 -0.05226
 N123 N 0.74196 1.12663 -0.05227
 C124 C 0.77122 1.11730 -0.00019
 N125 N 0.74313 1.12928 0.05193
 N126 N 0.68769 1.15062 0.05195
 C127 C 0.60055 1.18717 -0.00022
 C128 C 0.55353 1.21323 -0.00029
 C129 C 0.83038 1.09319 -0.00018
 C130 C 0.87920 1.07090 -0.00016
 C131 C 1.34155 0.84030 0.00091
 N132 N 1.31080 0.84604 0.05259
 N133 N 1.25538 0.86740 0.05237
 C134 C 1.22881 0.88310 0.00039
 N135 N 1.25958 0.87748 -0.05127
 N136 N 1.31500 0.85611 -0.05105
 C137 C 1.39943 0.81314 0.00075
 C138 C 1.44641 0.78700 0.00065
 C139 C 1.16961 0.90715 0.00025
 C140 C 1.12076 0.92937 0.00015
 C141 C 0.65970 0.83879 0.00193
 N142 N 0.69685 0.82968 0.04878
 N143 N 0.75210 0.85127 0.04813
 C144 C 0.77204 0.88219 0.00034
 N145 N 0.73488 0.89140 -0.04649
 N146 N 0.67962 0.86978 -0.04584
 C147 C 0.60170 0.81211 0.00129
 C148 C 0.55456 0.78642 0.00088
 C149 C 0.83103 0.90652 0.00008
 C150 C 0.87968 0.92898 -0.00005
 C151 C 0.84062 0.50038 0.33919
 N152 N 0.81206 0.44823 0.34952
 N153 N 0.75673 0.44812 0.37096
 C154 C 0.72807 0.50016 0.38216
 N155 N 0.75664 0.55231 0.37191
 N156 N 0.81197 0.55241 0.35047
 C157 C 0.89849 0.50051 0.31217
 C158 C 0.94552 0.50056 0.28627
 C159 C 0.66906 0.50003 0.40647
 C160 C 0.62038 0.49994 0.42894
 C161 C 0.15863 0.50032 0.33971
 N162 N 0.18741 0.44820 0.35016
 N163 N 0.24283 0.44814 0.37157
 C164 C 0.27136 0.50021 0.38259
 N165 N 0.24256 0.55233 0.37224
 N166 N 0.18714 0.55238 0.35083
 C167 C 0.10072 0.50040 0.31257
 C168 C 0.05368 0.50046 0.28651
 C169 C 0.33050 0.50014 0.40680
 C170 C 0.37930 0.50008 0.42918
 C171 C 0.84146 0.49968 0.66033
 N172 N 0.81229 0.44766 0.65084
 N173 N 0.75687 0.44775 0.62943
 C174 C 0.72874 0.49987 0.61743
 N175 N 0.75792 0.55189 0.62683
 N176 N 0.81334 0.55181 0.64824
 C177 C 0.89937 0.49970 0.68745
 C178 C 0.94641 0.49970 0.71349
 C179 C 0.66959 0.49993 0.59326
 C180 C 0.62078 0.49997 0.57093
 C181 C 0.15947 0.49967 0.66087
 N182 N 0.18855 0.44765 0.65068
 N183 N 0.24389 0.44777 0.62927
 C184 C 0.27203 0.49993 0.61797
 N185 N 0.24294 0.55195 0.62808
 N186 N 0.18760 0.55183 0.64949
 C187 C 0.10160 0.49960 0.68787
 C188 C 0.05456 0.49960 0.71376
 C189 C 0.33104 0.50005 0.59367
 C190 C 0.37971 0.50011 0.57121
 C191 C 0.50006 0.66024 0.15922
 N192 N 0.44789 0.64866 0.18728
 N193 N 0.44777 0.62728 0.24263
 C194 C 0.49980 0.61741 0.27181
 N195 N 0.55196 0.62888 0.24374
 N196 N 0.55208 0.65027 0.18839
 C197 C 0.50013 0.68737 0.10141
 C198 C 0.50021 0.71343 0.05446
 C199 C 0.49970 0.59323 0.33088
 C200 C 0.49970 0.57088 0.37960
 C201 C 0.49986 0.66082 0.84123
 N202 N 0.44818 0.65535 0.81032
 N203 N 0.44833 0.63391 0.75491
 C204 C 0.50025 0.61785 0.72854
 N205 N 0.55193 0.62322 0.75947
 N206 N 0.55177 0.64467 0.81488
 C207 C 0.50007 0.68784 0.89919
 C208 C 0.50022 0.71373 0.94632
 C209 C 0.50029 0.59355 0.66944
 C210 C 0.50027 0.57109 0.62068
 C211 C 0.49923 0.33934 0.15889
 N212 N 0.55132 0.35316 0.18627
 N213 N 0.55147 0.37457 0.24169
 C214 C 0.49958 0.38225 0.27160
 N215 N 0.44748 0.36852 0.24421
 N216 N 0.44733 0.34711 0.18879
 C217 C 0.49931 0.31232 0.10094
 C218 C 0.49939 0.28641 0.05383
 C219 C 0.49968 0.40651 0.33071
 C220 C 0.49978 0.42895 0.37947
 C221 C 0.49936 0.33960 0.84084
 N222 N 0.55101 0.35803 0.81568
 N223 N 0.55135 0.37945 0.76033
 C224 C 0.50015 0.38253 0.72829
 N225 N 0.44850 0.36419 0.75347
 N226 N 0.44816 0.34277 0.80881
 C227 C 0.49955 0.31257 0.89870
 C228 C 0.49960 0.28658 0.94568
 C229 C 0.50033 0.40675 0.66924
 C230 C 0.50037 0.42912 0.62054
 C231 C 0.66072 0.84051 0.49771
 N232 N 0.62699 0.82170 0.54407
 N233 N 0.60539 0.76646 0.54481
 C234 C 0.61733 0.72820 0.49950
 N235 N 0.65096 0.74702 0.45312
 N236 N 0.67254 0.80226 0.45238
 C237 C 0.68739 0.89850 0.49848
 C238 C 0.71320 0.94556 0.49900
 C239 C 0.59317 0.66916 0.49986
 C240 C 0.57086 0.62045 0.50005
 C241 C 0.66083 0.15897 0.49782
 N242 N 0.62909 0.17892 0.54521
 N243 N 0.60755 0.23428 0.54584
 C244 C 0.61758 0.27150 0.49939
 N245 N 0.64923 0.25152 0.45199
 N246 N 0.67075 0.19618 0.45135
 C247 C 0.68750 0.10088 0.49857
 C248 C 0.71328 0.05371 0.49905
 C249 C 0.59342 0.33064 0.49967
 C250 C 0.57108 0.37943 0.49985
 C251 C 0.33879 0.84087 0.49841
 N252 N 0.32470 0.80191 0.45434
 N253 N 0.34634 0.74662 0.45496
 C254 C 0.38234 0.72845 0.49998
 N255 N 0.39654 0.76742 0.54402
 N256 N 0.37487 0.82272 0.54341
 C257 C 0.31228 0.89903 0.49934
 C258 C 0.28662 0.94627 0.49992
 C259 C 0.40658 0.66935 0.50016
 C260 C 0.42897 0.62058 0.50022
 C261 C 0.34017 0.15914 0.50034
 N262 N 0.35115 0.18747 0.44818
 N263 N 0.37245 0.24283 0.44810
 C264 C 0.38284 0.27175 0.50018
 N265 N 0.37197 0.24340 0.55234
 N266 N 0.35067 0.18804 0.55241
 C267 C 0.31308 0.10133 0.50038
 C268 C 0.28701 0.05441 0.50038
 C269 C 0.40692 0.33083 0.50010
 C270 C 0.42920 0.37956 0.50006
   
