data_POSCAR
  _audit_creation_date              2014-09-24
  _audit_creation_method            'ToBaCCo'
  _symmetry_space_group_name_H-M    'P1'
  _symmetry_Int_Tables_number       1
  _symmetry_cell_setting            triclinic
  loop_
  _symmetry_equiv_pos_as_xyz
 x,y,z
_cell_length_a 29.2346
_cell_length_b 29.2163
_cell_length_c 29.1040
_cell_angle_alpha 89.962200
_cell_angle_beta 89.953200
_cell_angle_gamma 89.911000
loop_
  _atom_site_label
  _atom_site_type_symbol
  _atom_site_fract_x
  _atom_site_fract_y
  _atom_site_fract_z
O1 O -0.05525 0.32969 0.04068
 O2 O 0.03622 0.33242 -0.04610
 O3 O -0.05189 0.32522 -0.04896
 O4 O 0.03407 0.33377 0.04313
 O5 O 0.03838 0.25827 0.04519
 O6 O -0.04815 0.24971 -0.04570
 O7 O 0.04088 0.25697 -0.04352
 O8 O -0.05125 0.25420 0.04307
 Cu9 Cu -0.00983 0.33787 -0.00290
 Cu10 Cu -0.00461 0.24720 0.00015
 C11 C -0.06913 0.29160 0.05629
 C12 C 0.05432 0.29522 -0.05942
 C13 C -0.06456 0.28606 -0.06293
 C14 C 0.05145 0.29724 0.05915
 O15 O 0.46539 0.82615 0.54373
 O16 O 0.55443 0.82596 0.45427
 O17 O 0.46560 0.82526 0.45321
 O18 O 0.55408 0.82684 0.54316
 O19 O 0.55450 0.75119 0.54371
 O20 O 0.46513 0.74965 0.45439
 O21 O 0.55487 0.75031 0.45505
 O22 O 0.46495 0.75053 0.54404
 Cu23 Cu 0.50947 0.83365 0.49848
 Cu24 Cu 0.50969 0.74280 0.49935
 C25 C 0.45030 0.78850 0.55935
 C26 C 0.57032 0.78809 0.44003
 C27 C 0.45049 0.78734 0.43835
 C28 C 0.56979 0.78920 0.55822
 O29 O 1.05635 0.67089 0.04321
 O30 O 0.96755 0.67260 -0.04648
 O31 O 1.05641 0.67191 -0.04577
 O32 O 0.96773 0.67190 0.04407
 O33 O 0.96739 0.74752 0.04420
 O34 O 1.05674 0.74752 -0.04492
 O35 O 0.96704 0.74820 -0.04546
 O36 O 1.05686 0.74651 0.04343
 Cu37 Cu 1.01161 0.66422 -0.00136
 Cu38 Cu 1.01177 0.75505 -0.00066
 C39 C 1.07227 0.70848 0.05804
 C40 C 0.95237 0.71054 -0.06139
 C41 C 1.07232 0.70978 -0.05997
 C42 C 0.95281 0.70964 0.05969
 O43 O 0.44579 0.17898 0.45435
 O44 O 0.53594 0.17136 0.54187
 O45 O 0.44735 0.17843 0.54435
 O46 O 0.53384 0.17537 0.45230
 O47 O 0.53843 0.25085 0.45464
 O48 O 0.45061 0.25398 0.54524
 O49 O 0.54005 0.24685 0.54374
 O50 O 0.44937 0.25452 0.45594
 Cu51 Cu 0.49021 0.16845 0.49819
 Cu52 Cu 0.49502 0.25916 0.50021
 C53 C 0.43257 0.21777 0.43992
 C54 C 0.55356 0.20779 0.55747
 C55 C 0.43413 0.21672 0.56024
 C56 C 0.55077 0.21270 0.43783
 O57 O 0.66958 0.03499 -0.04073
 O58 O 0.67280 -0.05631 0.04627
 O59 O 0.67356 0.03227 0.04921
 O60 O 0.67229 -0.05440 -0.04270
 O61 O 0.74787 -0.05348 -0.04421
 O62 O 0.74909 0.03379 0.04663
 O63 O 0.74835 -0.05588 0.04424
 O64 O 0.74511 0.03627 -0.04255
 Cu65 Cu 0.66446 -0.01070 0.00307
 Cu66 Cu 0.75520 -0.00956 0.00078
 C67 C 0.70668 0.05132 -0.05630
 C68 C 0.71100 -0.07210 0.05963
 C69 C 0.71157 0.04766 0.06356
 C70 C 0.71003 -0.06936 -0.05831
 O71 O 0.16502 0.46552 0.54660
 O72 O 0.16745 0.55493 0.45732
 O73 O 0.16421 0.46581 0.45713
 O74 O 0.16787 0.55490 0.54652
 O75 O 0.24343 0.55262 0.54576
 O76 O 0.23975 0.46302 0.45694
 O77 O 0.24302 0.55259 0.45713
 O78 O 0.24055 0.46273 0.54584
 Cu79 Cu 0.15854 0.51051 0.50201
 Cu80 Cu 0.24929 0.50741 0.50142
 C81 C 0.20237 0.44853 0.56095
 C82 C 0.20567 0.56934 0.44251
 C83 C 0.20140 0.44901 0.44214
 C84 C 0.20623 0.56945 0.56072
 O85 O 0.32319 0.96522 -0.04496
 O86 O 0.31935 1.05363 0.04494
 O87 O 0.32280 0.96529 0.04526
 O88 O 0.32006 1.05330 -0.04501
 O89 O 0.24452 1.05161 -0.04477
 O90 O 0.24728 0.96233 0.04477
 O91 O 0.24379 1.05162 0.04442
 O92 O 0.24772 0.96183 -0.04475
 Cu93 Cu 0.32891 1.00958 0.00011
 Cu94 Cu 0.23822 1.00651 -0.00020
 C95 C 0.28616 0.94854 -0.06031
 C96 C 0.28104 1.06761 0.06001
 C97 C 0.28554 0.94903 0.06054
 C98 C 0.28192 1.06751 -0.06024
 O99 O 0.82852 0.53510 0.54552
 O100 O 0.82901 0.44435 0.45826
 O101 O 0.82861 0.53325 0.45531
 O102 O 0.82485 0.44694 0.54762
 O103 O 0.74927 0.44798 0.54524
 O104 O 0.75306 0.53546 0.45454
 O105 O 0.75345 0.44579 0.45649
 O106 O 0.75295 0.53698 0.54405
 Cu107 Cu 0.83536 0.48991 0.50172
 Cu108 Cu 0.74458 0.49184 0.49975
 C109 C 0.79083 0.55104 0.56007
 C110 C 0.79137 0.42931 0.44286
 C111 C 0.79137 0.54907 0.43933
 C112 C 0.78634 0.43277 0.56198
 C113 C 0.20118 0.21865 0.14140
 C114 C 0.23628 0.19522 0.16411
 C115 C 0.25088 0.21077 0.20724
 C116 C 0.23347 0.25156 0.22684
 C117 C 0.19959 0.27557 0.20185
 C118 C 0.18224 0.25853 0.16030
 C119 C 0.25067 0.26892 0.27262
 C120 C 0.22647 0.30259 0.29777
 C121 C 0.24320 0.31963 0.33964
 C122 C 0.28299 0.30060 0.35856
 C123 C 0.30652 0.26569 0.33562
 C124 C 0.29136 0.25154 0.29223
 H125 H 0.19000 0.20708 0.10799
 H126 H 0.27585 0.19007 0.22485
 H127 H 0.18603 0.30768 0.21402
 H128 H 0.19437 0.31610 0.28559
 H129 H 0.29431 0.31140 0.39220
 H130 H 0.31218 0.22673 0.27451
 C131 C 0.80015 0.78464 0.14121
 C132 C 0.75918 0.80166 0.15945
 C133 C 0.74265 0.78394 0.20107
 C134 C 0.76804 0.75165 0.22672
 C135 C 0.80952 0.73558 0.20763
 C136 C 0.82479 0.75056 0.16442
 C137 C 0.75101 0.73458 0.27258
 C138 C 0.76764 0.69343 0.29198
 C139 C 0.75244 0.67800 0.33504
 C140 C 0.71786 0.70225 0.35790
 C141 C 0.70016 0.74282 0.33931
 C142 C 0.71799 0.75948 0.29778
 H143 H 0.81141 0.79618 0.10777
 H144 H 0.70967 0.79576 0.21277
 H145 H 0.83073 0.71135 0.22578
 H146 H 0.79231 0.67250 0.27409
 H147 H 0.70624 0.69082 0.39124
 H148 H 0.70563 0.79214 0.28571
 C149 C 0.78688 0.20213 0.14153
 C150 C 0.80382 0.24339 0.15922
 C151 C 0.78658 0.26002 0.20105
 C152 C 0.75483 0.23457 0.22718
 C153 C 0.73920 0.19272 0.20888
 C154 C 0.75358 0.17726 0.16560
 C155 C 0.73767 0.25180 0.27279
 C156 C 0.69594 0.23602 0.29143
 C157 C 0.68040 0.25093 0.33451
 C158 C 0.70517 0.28450 0.35808
 C159 C 0.74619 0.30158 0.34010
 C160 C 0.76293 0.28404 0.29846
 H161 H 0.79797 0.19069 0.10800
 H162 H 0.79823 0.29309 0.21266
 H163 H 0.71568 0.17139 0.22781
 H164 H 0.67469 0.21219 0.27287
 H165 H 0.69373 0.29585 0.39151
 H166 H 0.79585 0.29590 0.28661
 C167 C 0.21437 0.79493 0.14152
 C168 C 0.19759 0.75381 0.15954
 C169 C 0.21546 0.73705 0.20099
 C170 C 0.24769 0.76245 0.22661
 C171 C 0.26353 0.80410 0.20772
 C172 C 0.24820 0.81965 0.16475
 C173 C 0.26460 0.74553 0.27250
 C174 C 0.30612 0.76137 0.29149
 C175 C 0.32117 0.74665 0.33489
 C176 C 0.29606 0.71316 0.35845
 C177 C 0.25502 0.69631 0.34021
 C178 C 0.23891 0.71371 0.29829
 H179 H 0.20269 0.80638 0.10821
 H180 H 0.20374 0.70403 0.21273
 H181 H 0.28765 0.82525 0.22600
 H182 H 0.32748 0.78521 0.27301
 H183 H 0.30715 0.70188 0.39203
 H184 H 0.20598 0.70209 0.28637
 C185 C 0.70357 0.28340 0.64204
 C186 C 0.68391 0.24373 0.66054
 C187 C 0.70090 0.22590 0.70209
 C188 C 0.73521 0.24906 0.72720
 C189 C 0.75264 0.29009 0.70830
 C190 C 0.73867 0.30614 0.66524
 C191 C 0.75320 0.23089 0.77235
 C192 C 0.79442 0.24782 0.79097
 C193 C 0.81000 0.23445 0.83437
 C194 C 0.78683 0.19985 0.85811
 C195 C 0.74691 0.18050 0.83981
 C196 C 0.72949 0.19724 0.79794
 H197 H 0.69287 0.29539 0.60859
 H198 H 0.68687 0.19396 0.71417
 H199 H 0.77727 0.31068 0.72639
 H200 H 0.81538 0.27190 0.77248
 H201 H 0.79853 0.18948 0.89178
 H202 H 0.69735 0.18363 0.78605
 C203 C 0.29669 0.71518 0.64155
 C204 C 0.32162 0.74931 0.66432
 C205 C 0.30668 0.76470 0.70756
 C206 C 0.26547 0.74874 0.72718
 C207 C 0.23979 0.71651 0.70193
 C208 C 0.25583 0.69843 0.66030
 C209 C 0.24881 0.76569 0.77321
 C210 C 0.21643 0.74029 0.79869
 C211 C 0.19823 0.75692 0.83999
 C212 C 0.21477 0.79803 0.85815
 C213 C 0.24915 0.82250 0.83540
 C214 C 0.26500 0.80701 0.79255
 H215 H 0.30774 0.70336 0.60815
 H216 H 0.32789 0.78909 0.72540
 H217 H 0.20688 0.70499 0.71403
 H218 H 0.20486 0.70723 0.78704
 H219 H 0.20281 0.80952 0.89137
 H220 H 0.28979 0.82791 0.77483
 C221 C 0.28404 0.29814 0.64211
 C222 C 0.24430 0.31715 0.66126
 C223 C 0.22734 0.29957 0.70285
 C224 C 0.25109 0.26525 0.72754
 C225 C 0.29161 0.24770 0.70761
 C226 C 0.30716 0.26254 0.66452
 C227 C 0.23355 0.24748 0.77314
 C228 C 0.25136 0.20696 0.79295
 C229 C 0.23629 0.19104 0.83577
 C230 C 0.20054 0.21371 0.85816
 C231 C 0.18166 0.25365 0.83947
 C232 C 0.19916 0.27101 0.79802
 H233 H 0.29562 0.30950 0.60873
 H234 H 0.19535 0.31321 0.71517
 H235 H 0.31210 0.22229 0.72481
 H236 H 0.27717 0.18678 0.77596
 H237 H 0.18928 0.20184 0.89150
 H238 H 0.18548 0.30313 0.78605
 C239 C 0.71627 0.70401 0.64149
 C240 C 0.75062 0.67958 0.66440
 C241 C 0.76569 0.69480 0.70753
 C242 C 0.74918 0.73596 0.72693
 C243 C 0.71632 0.76107 0.70168
 C244 C 0.69861 0.74455 0.66008
 C245 C 0.76614 0.75274 0.77285
 C246 C 0.74063 0.78481 0.79858
 C247 C 0.75697 0.80234 0.84028
 C248 C 0.79794 0.78523 0.85857
 C249 C 0.82285 0.75145 0.83519
 C250 C 0.80766 0.73668 0.79189
 H251 H 0.70483 0.69273 0.60807
 H252 H 0.79021 0.67376 0.72547
 H253 H 0.70400 0.79375 0.71375
 H254 H 0.70771 0.79667 0.78679
 H255 H 0.80918 0.79662 0.89203
 H256 H 0.82898 0.71268 0.77355
 N257 N 0.30302 0.14713 0.14989
 N258 N 0.31655 0.11378 0.12219
 C259 C 0.28019 0.10257 0.09615
 C260 C 0.24385 0.13001 0.10872
 N261 N 0.25953 0.15752 0.14236
 H262 H 0.20978 0.13036 0.09422
 N263 N 0.81578 0.62939 0.65013
 N264 N 0.82816 0.59577 0.62223
 C265 C 0.79138 0.58592 0.59620
 C266 C 0.75600 0.61436 0.60902
 N267 N 0.77263 0.64117 0.64274
 H268 H 0.72190 0.61582 0.59464
 N269 N 0.68819 0.84009 0.13748
 N270 N 0.67402 0.87400 0.11078
 C271 C 0.71165 0.89200 0.09100
 C272 C 0.74936 0.86798 0.10622
 N273 N 0.73324 0.83572 0.13504
 H274 H 0.78488 0.87340 0.09718
 N275 N 0.17596 0.36217 0.64325
 N276 N 0.16344 0.39719 0.61711
 C277 C 0.20128 0.41130 0.59477
 C278 C 0.23732 0.38376 0.60777
 N279 N 0.22013 0.35336 0.63798
 H280 H 0.27249 0.38577 0.59631
 N281 N 0.84266 0.31429 0.13768
 N282 N 0.87633 0.32847 0.11071
 C283 C 0.89330 0.29100 0.08972
 C284 C 0.86887 0.25341 0.10440
 N285 N 0.83745 0.26938 0.13425
 H286 H 0.87374 0.21802 0.09453
 N287 N 0.37220 0.81400 0.64976
 N288 N 0.40586 0.82610 0.62178
 C289 C 0.41555 0.78922 0.59575
 C290 C 0.38685 0.75404 0.60864
 N291 N 0.36015 0.77092 0.64242
 H292 H 0.38511 0.71996 0.59421
 N293 N 0.15878 0.68325 0.13665
 N294 N 0.12511 0.66980 0.10934
 C295 C 0.10749 0.70795 0.09011
 C296 C 0.13139 0.74518 0.10634
 N297 N 0.16330 0.72835 0.13510
 H298 H 0.12626 0.78089 0.09778
 N299 N 0.63819 0.17664 0.63993
 N300 N 0.60353 0.16569 0.61272
 C301 C 0.59036 0.20460 0.59154
 C302 C 0.61795 0.23966 0.60643
 N303 N 0.64756 0.22087 0.63647
 H304 H 0.61651 0.27529 0.59631
 N305 N 0.67866 0.13672 0.86075
 N306 N 0.66660 0.10248 0.88809
 C307 C 0.70492 0.08839 0.90965
 C308 C 0.74082 0.11511 0.89485
 N309 N 0.72305 0.14503 0.86444
 H310 H 0.77632 0.11282 0.90516
 N311 N 0.18402 0.65678 0.36005
 N312 N 0.16951 0.62300 0.38672
 C313 C 0.20661 0.60647 0.40864
 C314 C 0.24426 0.63128 0.39489
 N315 N 0.22875 0.66250 0.36461
 H316 H 0.27940 0.62683 0.40574
 N317 N 0.31522 0.86930 0.85490
 N318 N 0.32671 0.90241 0.88375
 C319 C 0.28805 0.91533 0.90549
 C320 C 0.25238 0.88925 0.88892
 N321 N 0.27080 0.86075 0.85753
 H322 H 0.21694 0.88987 0.89975
 N323 N 0.81629 0.34213 0.36108
 N324 N 0.82969 0.37605 0.38812
 C325 C 0.79183 0.39207 0.40919
 C326 C 0.75489 0.36693 0.39447
 N327 N 0.77154 0.33594 0.36458
 H328 H 0.71944 0.37100 0.40446
 N329 N 0.13916 0.32258 0.86089
 N330 N 0.10499 0.33503 0.88813
 C331 C 0.08960 0.29657 0.90857
 C332 C 0.11537 0.26017 0.89311
 N333 N 0.14610 0.27783 0.86354
 H334 H 0.11216 0.22448 0.90259
 N335 N 0.65746 0.81242 0.35804
 N336 N 0.62287 0.82579 0.38428
 C337 C 0.60762 0.78821 0.40632
 C338 C 0.63401 0.75142 0.39305
 N339 N 0.66490 0.76793 0.36297
 H340 H 0.63088 0.71621 0.40418
 N341 N 0.87394 0.68667 0.84819
 N342 N 0.90783 0.67413 0.87568
 C343 C 0.91747 0.71052 0.90236
 C344 C 0.88846 0.74586 0.89037
 N345 N 0.86164 0.72956 0.85645
 H346 H 0.88657 0.77964 0.90550
 N347 N 0.35338 0.19814 0.34948
 N348 N 0.38624 0.18377 0.37727
 C349 C 0.39773 0.21967 0.40386
 C350 C 0.37099 0.25660 0.39154
 N351 N 0.34360 0.24171 0.35748
 H352 H 0.37103 0.29054 0.40642
 N353 N 0.68649 0.84320 0.85995
 N354 N 0.67259 0.87749 0.88633
 C355 C 0.71007 0.89364 0.90776
 C356 C 0.74728 0.86810 0.89407
 N357 N 0.73118 0.83681 0.86432
 H358 H 0.78251 0.87202 0.90474
 N359 N 0.17459 0.36386 0.35884
 N360 N 0.16207 0.39833 0.38569
 C361 C 0.20003 0.41229 0.40786
 C362 C 0.23611 0.38529 0.39400
 N363 N 0.21888 0.35531 0.36350
 H364 H 0.27138 0.38739 0.40510
 N365 N 0.30536 0.14887 0.85548
 N366 N 0.31914 0.11643 0.88412
 C367 C 0.28145 0.10094 0.90581
 C368 C 0.24404 0.12477 0.88951
 N369 N 0.26048 0.15452 0.85825
 H370 H 0.20872 0.12180 0.90034
 N371 N 0.81762 0.62772 0.34960
 N372 N 0.82971 0.59386 0.37742
 C373 C 0.79259 0.58374 0.40292
 C374 C 0.75736 0.61229 0.38990
 N375 N 0.77435 0.63942 0.35660
 H376 H 0.72312 0.61369 0.40400
 N377 N 0.15964 0.68598 0.86195
 N378 N 0.12573 0.67202 0.88874
 C379 C 0.10779 0.70985 0.90827
 C380 C 0.13175 0.74741 0.89279
 N381 N 0.16399 0.73107 0.86413
 H382 H 0.12640 0.78299 0.90173
 N383 N 0.62835 0.18692 0.34714
 N384 N 0.59425 0.17501 0.37467
 C385 C 0.58520 0.21165 0.40126
 C386 C 0.61461 0.24642 0.38921
 N387 N 0.64121 0.22962 0.35537
 H388 H 0.61694 0.28016 0.40434
 N389 N 0.85665 0.30247 0.84568
 N390 N 0.88950 0.31790 0.87283
 C391 C 0.90116 0.28295 0.90064
 C392 C 0.87451 0.24557 0.88983
 N393 N 0.84702 0.25920 0.85533
 H394 H 0.87459 0.21225 0.90609
 N395 N 0.37232 0.81124 0.34765
 N396 N 0.40617 0.82372 0.37514
 C397 C 0.41570 0.78739 0.40202
 C398 C 0.38666 0.75214 0.39016
 N399 N 0.35995 0.76843 0.35611
 H400 H 0.38468 0.71843 0.40547
 N401 N 0.31232 0.87119 0.15079
 N402 N 0.32398 0.90510 0.12291
 C403 C 0.28692 0.91446 0.09703
 C404 C 0.25213 0.88544 0.10993
 N405 N 0.26936 0.85876 0.14351
 H406 H 0.21808 0.88341 0.09553
 N407 N 0.80615 0.35343 0.65251
 N408 N 0.82054 0.38663 0.62508
 C409 C 0.78477 0.39820 0.59835
 C410 C 0.74797 0.37122 0.61015
 N411 N 0.76272 0.34355 0.64407
 H412 H 0.71422 0.37124 0.59491
 N413 N 0.68897 0.12582 0.15445
 N414 N 0.67608 0.09175 0.12742
 C415 C 0.71196 0.08222 0.09999
 C416 C 0.74729 0.11143 0.11095
 N417 N 0.73154 0.13829 0.14509
 H418 H 0.78064 0.11349 0.09492
 N419 N 0.18500 0.65798 0.64202
 N420 N 0.17047 0.62360 0.61621
 C421 C 0.20744 0.60695 0.59414
 C422 C 0.24506 0.63233 0.60690
 N423 N 0.22962 0.66399 0.63676
 H424 H 0.28009 0.62802 0.59561
 N425 N 0.87483 0.68521 0.15038
 N426 N 0.90831 0.67258 0.12239
 C427 C 0.91828 0.70928 0.09621
 C428 C 0.89002 0.74486 0.10901
 N429 N 0.86323 0.72844 0.14288
 H430 H 0.88856 0.77891 0.09440
 N431 N 0.35410 0.19509 0.64978
 N432 N 0.38734 0.18126 0.62210
 C433 C 0.39924 0.21770 0.59641
 C434 C 0.37229 0.25438 0.60912
 N435 N 0.34441 0.23883 0.64252
 H436 H 0.37248 0.28860 0.59485
 N437 N 0.13700 0.32658 0.14108
 N438 N 0.10196 0.33834 0.11462
 C439 C 0.08807 0.29983 0.09336
 C440 C 0.11564 0.26426 0.10728
 N441 N 0.14593 0.28228 0.13691
 H442 H 0.11381 0.22882 0.09666
 N443 N 0.65617 0.81422 0.64070
 N444 N 0.62186 0.82748 0.61404
 C445 C 0.60670 0.78973 0.59227
 C446 C 0.63280 0.75300 0.60616
 N447 N 0.66348 0.76966 0.63628
 H448 H 0.62965 0.71771 0.59534
   
