data_POSCAR
  _audit_creation_date              2014-09-24
  _audit_creation_method            'ToBaCCo'
  _symmetry_space_group_name_H-M    'P1'
  _symmetry_Int_Tables_number       1
  _symmetry_cell_setting            triclinic
  loop_
  _symmetry_equiv_pos_as_xyz
 x,y,z
_cell_length_a 33.5743
_cell_length_b 36.8503
_cell_length_c 33.5723
_cell_angle_alpha 89.911600
_cell_angle_beta 90.018800
_cell_angle_gamma 89.980000
loop_
  _atom_site_label
  _atom_site_type_symbol
  _atom_site_fract_x
  _atom_site_fract_y
  _atom_site_fract_z
C1 C 0.32272 0.27817 0.22001
 H2 H 0.33680 0.25877 0.23960
 C3 C 0.34633 0.30137 0.19707
 H4 H 0.37842 0.29916 0.19908
 C5 C 0.26399 0.30525 0.19450
 H6 H 0.23181 0.30672 0.19399
 C7 C 0.28643 0.32896 0.17105
 H8 H 0.27114 0.34853 0.15243
 N9 N 0.28232 0.28024 0.21800
 C10 C 0.17666 0.27833 0.27927
 H11 H 0.16247 0.25898 0.25976
 C12 C 0.15319 0.30150 0.30231
 H13 H 0.12109 0.29935 0.30046
 C14 C 0.23554 0.30523 0.30452
 H15 H 0.26773 0.30661 0.30491
 C16 C 0.21324 0.32892 0.32807
 H17 H 0.22864 0.34839 0.34662
 Zn18 Zn 0.24963 0.24978 0.24956
 N19 N 0.21707 0.28030 0.28112
 C20 C 0.27930 0.22127 0.32263
 N21 N 0.28116 0.21923 0.28223
 C22 C 0.30459 0.19425 0.26386
 C23 C 0.32818 0.17060 0.28625
 C24 C 0.30239 0.19813 0.34620
 C25 C 0.21984 0.22144 0.17655
 C26 C 0.19674 0.19834 0.15304
 C27 C 0.17091 0.17081 0.21306
 C28 C 0.19451 0.19443 0.23539
 N29 N 0.21799 0.21937 0.21696
 H30 H 0.25977 0.24065 0.33675
 H31 H 0.30499 0.19281 0.23167
 H32 H 0.34677 0.15109 0.27093
 H33 H 0.30053 0.20033 0.37830
 H34 H 0.23940 0.24079 0.16239
 H35 H 0.19861 0.20055 0.12094
 H36 H 0.15231 0.15132 0.22843
 H37 H 0.19412 0.19297 0.26758
 C38 C 0.17145 0.32718 0.32725
 C39 C 0.32822 0.32716 0.17207
 C40 C 0.17174 0.17264 0.17126
 C41 C 0.32737 0.17241 0.32804
 C42 C 0.82355 0.77931 0.21949
 H43 H 0.83777 0.75995 0.23903
 C44 C 0.84700 0.80252 0.19641
 H45 H 0.87910 0.80021 0.19844
 C46 C 0.76466 0.80620 0.19423
 H47 H 0.73246 0.80756 0.19387
 C48 C 0.78688 0.82995 0.17063
 H49 H 0.77120 0.84936 0.15213
 N50 N 0.78316 0.78126 0.21767
 C51 C 0.67762 0.77910 0.27912
 H52 H 0.66348 0.75973 0.25961
 C53 C 0.65410 0.80219 0.30221
 H54 H 0.62200 0.79996 0.30039
 C55 C 0.73644 0.80615 0.30434
 H56 H 0.76862 0.80762 0.30470
 C57 C 0.71409 0.82975 0.32793
 H58 H 0.72944 0.84926 0.34649
 Zn59 Zn 0.75065 0.75074 0.24935
 N60 N 0.71803 0.78118 0.28093
 C61 C 0.78033 0.72223 0.32241
 N62 N 0.78230 0.72027 0.28201
 C63 C 0.80578 0.69533 0.26364
 C64 C 0.82923 0.67157 0.28605
 C65 C 0.80327 0.69898 0.34599
 C66 C 0.72088 0.72220 0.17642
 C67 C 0.69788 0.69896 0.15299
 C68 C 0.67222 0.67145 0.21310
 C69 C 0.69572 0.69521 0.23535
 N70 N 0.71907 0.72020 0.21684
 H71 H 0.76075 0.74157 0.33652
 H72 H 0.80626 0.69395 0.23146
 H73 H 0.84782 0.65205 0.27073
 H74 H 0.80128 0.70109 0.37809
 H75 H 0.74034 0.74160 0.16220
 H76 H 0.69971 0.70111 0.12088
 H77 H 0.65373 0.65191 0.22853
 H78 H 0.69537 0.69380 0.26755
 C79 C 0.67229 0.82790 0.32715
 C80 C 0.82880 0.82835 0.17134
 C81 C 0.67302 0.67318 0.17129
 C82 C 0.82823 0.67324 0.32785
 C83 C 0.82368 0.27774 0.72121
 H84 H 0.83790 0.25831 0.74068
 C85 C 0.84711 0.30096 0.69812
 H86 H 0.87922 0.29878 0.69990
 C87 C 0.76476 0.30477 0.69608
 H88 H 0.73258 0.30619 0.69576
 C89 C 0.78702 0.32851 0.67250
 H90 H 0.77158 0.34805 0.65398
 N91 N 0.78327 0.27976 0.71945
 C92 C 0.67768 0.27770 0.78066
 H93 H 0.66353 0.25835 0.76113
 C94 C 0.65416 0.30093 0.80359
 H95 H 0.62206 0.29882 0.80163
 C96 C 0.73651 0.30461 0.80604
 H97 H 0.76869 0.30599 0.80650
 C98 C 0.71416 0.32835 0.82947
 H99 H 0.72952 0.34785 0.84802
 Zn100 Zn 0.75071 0.24921 0.75104
 N101 N 0.71809 0.27966 0.78261
 C102 C 0.78038 0.22058 0.82404
 N103 N 0.78231 0.21866 0.78366
 C104 C 0.80575 0.19374 0.76528
 C105 C 0.82925 0.16996 0.78760
 C106 C 0.80333 0.19735 0.84762
 C107 C 0.72107 0.22088 0.67799
 C108 C 0.69804 0.19779 0.65441
 C109 C 0.67210 0.17020 0.71435
 C110 C 0.69564 0.19381 0.73675
 N111 N 0.71913 0.21879 0.71839
 H112 H 0.76082 0.23994 0.83815
 H113 H 0.80619 0.19241 0.73309
 H114 H 0.84768 0.15061 0.77181
 H115 H 0.80105 0.19979 0.87969
 H116 H 0.74065 0.24025 0.66388
 H117 H 0.69998 0.20003 0.62231
 H118 H 0.65347 0.15068 0.72966
 H119 H 0.69518 0.19232 0.76894
 C120 C 0.67236 0.32666 0.82851
 C121 C 0.82882 0.32674 0.67323
 C122 C 0.67302 0.17206 0.67255
 C123 C 0.82849 0.17142 0.82961
 C124 C 0.32250 0.77858 0.72061
 H125 H 0.33659 0.75920 0.74023
 C126 C 0.34609 0.80172 0.69760
 H127 H 0.37818 0.79951 0.69959
 C128 C 0.26375 0.80562 0.69508
 H129 H 0.23157 0.80707 0.69457
 C130 C 0.28618 0.82928 0.67156
 H131 H 0.27089 0.84880 0.65289
 N132 N 0.28210 0.78063 0.71862
 C133 C 0.17638 0.77860 0.77973
 H134 H 0.16227 0.75925 0.76018
 C135 C 0.15282 0.80178 0.80267
 H136 H 0.12072 0.79962 0.80070
 C137 C 0.23516 0.80555 0.80517
 H138 H 0.26734 0.80696 0.80566
 C139 C 0.21276 0.82924 0.82862
 H140 H 0.22808 0.84874 0.84721
 Zn141 Zn 0.24944 0.75014 0.75017
 N142 N 0.21679 0.78060 0.78171
 C143 C 0.27926 0.72162 0.82321
 N144 N 0.28102 0.71961 0.78280
 C145 C 0.30441 0.69464 0.76435
 C146 C 0.32802 0.67095 0.78667
 C147 C 0.30237 0.69844 0.84670
 C148 C 0.21983 0.72171 0.67713
 C149 C 0.19688 0.69852 0.65361
 C150 C 0.17101 0.67098 0.71360
 C151 C 0.19447 0.69469 0.73596
 N152 N 0.21790 0.71968 0.71754
 H153 H 0.25977 0.74100 0.83738
 H154 H 0.30473 0.69323 0.73217
 H155 H 0.34656 0.65144 0.77128
 H156 H 0.30059 0.70061 0.87881
 H157 H 0.23936 0.74111 0.66299
 H158 H 0.19881 0.70069 0.62150
 H159 H 0.15245 0.65144 0.72896
 H160 H 0.19402 0.69326 0.76815
 C161 C 0.17097 0.82750 0.82764
 C162 C 0.32797 0.82746 0.67254
 C163 C 0.17195 0.67275 0.67180
 C164 C 0.32730 0.67272 0.82846
 C165 C 0.05380 0.05576 0.01373
 H166 H 0.05418 0.05722 -0.01846
 C167 C 0.07737 0.07941 0.03605
 H168 H 0.09593 0.09893 0.02068
 C169 C 0.02855 0.02871 0.07258
 H170 H 0.00903 0.00932 0.08675
 C171 C 0.05161 0.05184 0.09608
 H172 H 0.04976 0.04962 0.12818
 N173 N 0.03038 0.03077 0.03217
 C174 C 0.01309 -0.05511 -0.05542
 H175 H -0.01910 -0.05654 -0.05589
 C176 C 0.03548 -0.07880 -0.07888
 H177 H 0.02016 -0.09831 -0.09746
 C178 C 0.07187 -0.02814 -0.03003
 H179 H 0.08598 -0.00878 -0.01048
 C180 C 0.09543 -0.05131 -0.05298
 H181 H 0.12753 -0.04914 -0.05103
 Zn182 Zn -0.00119 0.00029 -0.00041
 N183 N 0.03146 -0.03015 -0.03197
 C184 C -0.03092 0.02883 -0.07346
 N185 N -0.03283 0.03078 -0.03305
 C186 C -0.05631 0.05571 -0.01465
 C187 C -0.07982 0.07945 -0.03702
 C188 C -0.05392 0.05206 -0.09700
 C189 C -0.01522 -0.05524 0.05465
 C190 C -0.03748 -0.07898 0.07822
 C191 C -0.09757 -0.05153 0.05247
 C192 C -0.07414 -0.02830 0.02940
 N193 N -0.03372 -0.03027 0.03122
 H194 H -0.01135 0.00949 -0.08759
 H195 H -0.05675 0.05708 0.01754
 H196 H -0.09842 0.09894 -0.02168
 H197 H -0.05199 0.04995 -0.12910
 H198 H 0.01697 -0.05662 0.05501
 H199 H -0.02205 -0.09850 0.09678
 H200 H -0.12968 -0.04939 0.05063
 H201 H -0.08835 -0.00891 0.00988
 C202 C 0.07728 -0.07704 -0.07793
 C203 C 0.07656 0.07758 0.07785
 C204 C -0.07928 -0.07727 0.07742
 C205 C -0.07890 0.07777 -0.07882
 C206 C 0.05493 0.55520 0.51419
 H207 H 0.05536 0.55663 0.48200
 C208 C 0.07840 0.57892 0.53653
 H209 H 0.09695 0.59845 0.52116
 C210 C 0.02960 0.52819 0.57304
 H211 H 0.01008 0.50881 0.58720
 C212 C 0.05257 0.55139 0.59654
 H213 H 0.05065 0.54922 0.62865
 N214 N 0.03151 0.53021 0.53263
 C215 C 0.01406 0.44433 0.44509
 H216 H -0.01813 0.44290 0.44473
 C217 C 0.03637 0.42066 0.42152
 H218 H 0.02098 0.40117 0.40298
 C219 C 0.07292 0.47130 0.47028
 H220 H 0.08710 0.49067 0.48977
 C221 C 0.09640 0.44815 0.44722
 H222 H 0.12851 0.45034 0.44904
 Zn223 Zn -0.00008 0.49973 0.50006
 N224 N 0.03251 0.46928 0.46847
 C225 C -0.02971 0.52830 0.42701
 N226 N -0.03170 0.53024 0.46742
 C227 C -0.05517 0.55518 0.48579
 C228 C -0.07860 0.57896 0.46339
 C229 C -0.05264 0.55156 0.40344
 C230 C -0.01409 0.44423 0.55512
 C231 C -0.03633 0.42050 0.57873
 C232 C -0.09644 0.44800 0.55307
 C233 C -0.07302 0.47121 0.52995
 N234 N -0.03261 0.46921 0.53172
 H235 H -0.01015 0.50894 0.41291
 H236 H -0.05566 0.55655 0.51798
 H237 H -0.09719 0.59848 0.47870
 H238 H -0.05065 0.54946 0.37134
 H239 H 0.01810 0.44282 0.55544
 H240 H -0.02089 0.40098 0.59728
 H241 H -0.12855 0.45016 0.55127
 H242 H -0.08725 0.49060 0.51045
 C243 C 0.07816 0.42244 0.42230
 C244 C 0.07749 0.57716 0.57833
 C245 C -0.07813 0.42225 0.57799
 C246 C -0.07760 0.57730 0.42159
 C247 C 0.55549 0.05538 0.51455
 H248 H 0.55595 0.05688 0.48236
 C249 C 0.57902 0.07898 0.53697
 H250 H 0.59765 0.09850 0.52168
 C251 C 0.53004 0.02829 0.57330
 H252 H 0.51045 0.00891 0.58739
 C253 C 0.55306 0.05137 0.59689
 H254 H 0.55112 0.04911 0.62899
 N255 N 0.53199 0.03040 0.53289
 C256 C 0.51465 -0.05537 0.44517
 H257 H 0.48247 -0.05680 0.44476
 C258 C 0.53700 -0.07899 0.42159
 H259 H 0.52165 -0.09845 0.40298
 C260 C 0.57347 -0.02843 0.47052
 H261 H 0.58761 -0.00910 0.49007
 C262 C 0.59699 -0.05153 0.44744
 H263 H 0.62909 -0.04934 0.44931
 Zn264 Zn 0.50043 0.00000 0.50019
 N265 N 0.53306 -0.03045 0.46864
 C266 C 0.47080 0.02856 0.42712
 N267 N 0.46891 0.03057 0.46753
 C268 C 0.44545 0.05552 0.48590
 C269 C 0.42187 0.07918 0.46351
 C270 C 0.44773 0.05170 0.40356
 C271 C 0.48606 -0.05552 0.55519
 C272 C 0.46362 -0.07920 0.57868
 C273 C 0.40372 -0.05157 0.55268
 C274 C 0.42733 -0.02842 0.52970
 N275 N 0.46773 -0.03050 0.53169
 H276 H 0.49036 0.00920 0.41301
 H277 H 0.44503 0.05694 0.51809
 H278 H 0.40326 0.09867 0.47883
 H279 H 0.44961 0.04952 0.37146
 H280 H 0.51824 -0.05700 0.55568
 H281 H 0.47890 -0.09875 0.59731
 H282 H 0.37163 -0.04933 0.55071
 H283 H 0.41325 -0.00901 0.51012
 C284 C 0.57880 -0.07719 0.42243
 C285 C 0.57809 0.07710 0.57877
 C286 C 0.42182 -0.07735 0.57771
 C287 C 0.42271 0.07740 0.42171
 C288 C 0.55563 0.55550 0.01411
 H289 H 0.55600 0.55689 -0.01808
 C290 C 0.57915 0.57922 0.03637
 H291 H 0.59769 0.59873 0.02094
 C292 C 0.53038 0.52856 0.07303
 H293 H 0.51087 0.50919 0.08724
 C294 C 0.55341 0.55177 0.09647
 H295 H 0.55155 0.54963 0.12858
 N296 N 0.53222 0.53054 0.03261
 C297 C 0.51474 0.44459 -0.05486
 H298 H 0.48256 0.44322 -0.05532
 C299 C 0.53708 0.42082 -0.07827
 H300 H 0.52172 0.40131 -0.09681
 C301 C 0.57358 0.47149 -0.02951
 H302 H 0.58774 0.49085 -0.01000
 C303 C 0.59709 0.44824 -0.05241
 H304 H 0.62919 0.45035 -0.05046
 Zn305 Zn 0.50060 0.50007 0.00007
 N306 N 0.53317 0.46954 -0.03146
 C307 C 0.47073 0.52855 -0.07297
 N308 N 0.46900 0.53059 -0.03256
 C309 C 0.44564 0.55558 -0.01411
 C310 C 0.42203 0.57927 -0.03643
 C311 C 0.44761 0.55172 -0.09646
 C312 C 0.48629 0.44464 0.05524
 C313 C 0.46387 0.42094 0.07871
 C314 C 0.40396 0.44848 0.05264
 C315 C 0.42755 0.47166 0.02968
 N316 N 0.46795 0.46962 0.03169
 H317 H 0.49020 0.50915 -0.08714
 H318 H 0.44535 0.55701 0.01807
 H319 H 0.40351 0.59879 -0.02104
 H320 H 0.44936 0.54953 -0.12856
 H321 H 0.51848 0.44320 0.05575
 H322 H 0.47916 0.40141 0.09736
 H323 H 0.37186 0.45066 0.05062
 H324 H 0.41346 0.49103 0.01005
 C325 C 0.57888 0.42250 -0.07731
 C326 C 0.57831 0.57750 0.07818
 C327 C 0.42207 0.42272 0.07768
 C328 C 0.42272 0.57747 -0.07822
 N329 N 0.10613 -0.14923 -0.14872
 C330 C 0.14654 -0.14761 -0.14774
 N331 N 0.16405 -0.12266 -0.12369
 N332 N 0.14211 -0.10031 -0.10158
 C333 C 0.10170 -0.10193 -0.10255
 N334 N 0.08419 -0.12687 -0.12661
 N335 N 0.16475 0.37694 0.37605
 C336 C 0.14713 0.35203 0.35202
 N337 N 0.10672 0.35040 0.35122
 N338 N 0.08487 0.37270 0.37349
 C339 C 0.10249 0.39761 0.39753
 N340 N 0.14290 0.39924 0.39832
 N341 N 0.66548 -0.12246 0.37608
 C342 C 0.64792 -0.14734 0.35198
 N343 N 0.60751 -0.14905 0.35119
 N344 N 0.58561 -0.12683 0.37351
 C345 C 0.60318 -0.10194 0.39760
 N346 N 0.64358 -0.10024 0.39840
 N347 N 0.60757 0.35010 -0.14791
 C348 C 0.64799 0.35164 -0.14693
 N349 N 0.66556 0.37660 -0.12294
 N350 N 0.64366 0.39905 -0.10089
 C351 C 0.60325 0.39751 -0.10187
 N352 N 0.58568 0.37254 -0.12586
 N353 N -0.12479 0.12360 -0.16552
 C354 C -0.14896 0.14862 -0.14809
 N355 N -0.14980 0.15004 -0.10760
 N356 N -0.12764 0.12763 -0.08569
 C357 C -0.10357 0.10272 -0.10322
 N358 N -0.10263 0.10119 -0.14361
 N359 N -0.14824 0.64976 0.39270
 C360 C -0.14721 0.64823 0.35229
 N361 N -0.12317 0.62326 0.33478
 N362 N -0.10112 0.60079 0.35674
 C363 C -0.10215 0.60231 0.39715
 N364 N -0.12619 0.62729 0.41465
 N365 N 0.35141 0.14932 0.39287
 C366 C 0.35221 0.14763 0.35247
 N367 N 0.37634 0.12273 0.33495
 N368 N 0.39868 0.10049 0.35688
 C369 C 0.39787 0.10218 0.39729
 N370 N 0.37375 0.12708 0.41481
 N371 N 0.37618 0.62295 -0.16482
 C372 C 0.35216 0.64787 -0.14720
 N373 N 0.35147 0.64954 -0.10679
 N374 N 0.37383 0.62724 -0.08494
 C375 C 0.39785 0.60231 -0.10255
 N376 N 0.39854 0.60065 -0.14297
 N377 N -0.10769 -0.14950 0.14854
 C378 C -0.14815 -0.14798 0.14778
 N379 N -0.16576 -0.12301 0.12366
 N380 N -0.14396 -0.10063 0.10139
 C381 C -0.10355 -0.10220 0.10220
 N382 N -0.08589 -0.12712 0.12626
 N383 N -0.10650 0.35002 0.64914
 C384 C -0.14692 0.35165 0.64841
 N385 N -0.16460 0.37662 0.62440
 N386 N -0.14281 0.39898 0.60209
 C387 C -0.10239 0.39735 0.60282
 N388 N -0.08471 0.37238 0.62683
 N389 N 0.39284 -0.14943 0.64879
 C390 C 0.35244 -0.14772 0.64782
 N391 N 0.33497 -0.12275 0.62366
 N392 N 0.35695 -0.10046 0.60145
 C393 C 0.39735 -0.10218 0.60242
 N394 N 0.41482 -0.12714 0.62658
 N395 N 0.39310 0.35042 0.14851
 C396 C 0.35269 0.35208 0.14746
 N397 N 0.33522 0.37708 0.12336
 N398 N 0.35720 0.39946 0.10125
 C399 C 0.39761 0.39781 0.10230
 N400 N 0.41508 0.37280 0.12641
 N401 N 0.12284 0.12293 0.16449
 C402 C 0.14693 0.14785 0.14690
 N403 N 0.14774 0.14956 0.10649
 N404 N 0.12544 0.12730 0.08461
 C405 C 0.10136 0.10238 0.10220
 N406 N 0.10055 0.10067 0.14262
 N407 N 0.12330 0.62284 0.66500
 C408 C 0.14732 0.64782 0.64743
 N409 N 0.14826 0.64945 0.60701
 N410 N 0.12614 0.62707 0.58512
 C411 C 0.10212 0.60208 0.60269
 N412 N 0.10118 0.60045 0.64311
 N413 N 0.62415 0.12235 0.66560
 C414 C 0.64827 0.14729 0.64810
 N415 N 0.64920 0.14904 0.60769
 N416 N 0.62696 0.12681 0.58573
 C417 C 0.60283 0.10187 0.60322
 N418 N 0.60191 0.10012 0.64363
 N419 N 0.62436 0.62326 0.16468
 C420 C 0.64834 0.64823 0.14702
 N421 N 0.64917 0.64982 0.10660
 N422 N 0.62699 0.62741 0.08479
 C423 C 0.60301 0.60245 0.10246
 N424 N 0.60218 0.60085 0.14288
   
