data_POSCAR
  _audit_creation_date              2014-09-24
  _audit_creation_method            'ToBaCCo'
  _symmetry_space_group_name_H-M    'P1'
  _symmetry_Int_Tables_number       1
  _symmetry_cell_setting            triclinic
  loop_
  _symmetry_equiv_pos_as_xyz
 x,y,z
_cell_length_a 31.7360
_cell_length_b 31.7360
_cell_length_c 31.7360
_cell_angle_alpha 90.000200
_cell_angle_beta 90.009500
_cell_angle_gamma 90.000200
loop_
  _atom_site_label
  _atom_site_type_symbol
  _atom_site_fract_x
  _atom_site_fract_y
  _atom_site_fract_z
O1 O 0.55738 0.49998 0.03470
 O2 O 0.44119 0.49997 0.03471
 O3 O 0.49930 0.44200 0.03472
 O4 O 0.49929 0.55793 0.03472
 O5 O 0.49927 0.55793 -0.03497
 O6 O 0.49928 0.44200 -0.03497
 O7 O 0.44118 0.49997 -0.03496
 O8 O 0.55736 0.49998 -0.03498
 Cu9 Cu 0.49929 0.49997 0.04175
 Cu10 Cu 0.49927 0.49997 -0.04200
 C11 C 0.57699 0.49999 -0.00014
 C12 C 0.42156 0.49997 -0.00012
 C13 C 0.49930 0.42244 -0.00013
 C14 C 0.49929 0.57749 -0.00012
 O15 O -0.03479 0.55882 0.50000
 O16 O -0.03475 0.44263 0.49999
 O17 O -0.03477 0.50071 0.55796
 O18 O -0.03474 0.50072 0.44202
 O19 O 0.03495 0.50074 0.44205
 O20 O 0.03493 0.50074 0.55798
 O21 O 0.03493 0.44265 0.50002
 O22 O 0.03489 0.55884 0.50002
 Cu23 Cu -0.04179 0.50072 0.49999
 Cu24 Cu 0.04195 0.50075 0.50002
 C25 C 0.00004 0.57846 0.50002
 C26 C 0.00009 0.42303 0.50001
 C27 C 0.00008 0.50071 0.57753
 C28 C 0.00011 0.50072 0.42248
 O29 O 0.50003 0.03470 0.55882
 O30 O 0.50002 0.03473 0.44263
 O31 O 0.44206 0.03473 0.50071
 O32 O 0.55800 0.03469 0.50073
 O33 O 0.55798 -0.03500 0.50071
 O34 O 0.44205 -0.03496 0.50069
 O35 O 0.50000 -0.03495 0.44262
 O36 O 0.50001 -0.03498 0.55880
 Cu37 Cu 0.50003 0.04175 0.50073
 Cu38 Cu 0.50001 -0.04200 0.50071
 C39 C 0.50001 -0.00014 0.57844
 C40 C 0.50001 -0.00010 0.42301
 C41 C 0.42249 -0.00011 0.50069
 C42 C 0.57755 -0.00016 0.50071
 O43 O 0.46490 -0.00004 -0.05860
 O44 O 0.46488 -0.00002 0.05759
 O45 O 0.46487 0.05793 -0.00050
 O46 O 0.46486 -0.05799 -0.00049
 O47 O 0.53455 -0.05801 -0.00047
 O48 O 0.53457 0.05793 -0.00048
 O49 O 0.53456 -0.00003 0.05761
 O50 O 0.53458 -0.00005 -0.05857
 Cu51 Cu 0.45785 -0.00003 -0.00051
 Cu52 Cu 0.54160 -0.00004 -0.00048
 C53 C 0.49975 -0.00005 -0.07820
 C54 C 0.49972 -0.00003 0.07722
 C55 C 0.49972 0.07749 -0.00048
 C56 C 0.49970 -0.07756 -0.00047
 O57 O -0.05760 0.53510 1.00000
 O58 O 0.05859 0.53508 1.00000
 O59 O 0.00047 0.53512 0.94204
 O60 O 0.00050 0.53511 1.05797
 O61 O 0.00049 0.46542 1.05797
 O62 O 0.00046 0.46542 0.94203
 O63 O 0.05857 0.46540 1.00000
 O64 O -0.05761 0.46542 1.00000
 Cu65 Cu 0.00050 0.54213 1.00000
 Cu66 Cu 0.00048 0.45838 1.00000
 C67 C -0.07722 0.50026 1.00000
 C68 C 0.07820 0.50023 0.99999
 C69 C 0.00045 0.50027 0.92247
 C70 C 0.00049 0.50027 1.07753
 O71 O 0.00001 -0.05856 0.46540
 O72 O 0.00002 0.05762 0.46542
 O73 O 0.05799 -0.00047 0.46542
 O74 O -0.05796 -0.00046 0.46543
 O75 O -0.05794 -0.00047 0.53512
 O76 O 0.05799 -0.00048 0.53511
 O77 O 0.00004 0.05762 0.53510
 O78 O 0.00002 -0.05857 0.53508
 Cu79 Cu 0.00001 -0.00047 0.45838
 Cu80 Cu 0.00003 -0.00048 0.54214
 C81 C 0.00001 -0.07818 0.50024
 C82 C 0.00003 0.07724 0.50026
 C83 C 0.07755 -0.00046 0.50027
 C84 C -0.07751 -0.00045 0.50028
 C85 C -0.37776 0.50002 0.99985
 C86 C -0.33974 0.50007 0.99985
 C87 C -0.29433 0.50012 0.99988
 C88 C -0.27215 0.50110 0.96171
 C89 C -0.22805 0.50115 0.96174
 C90 C -0.20590 0.50023 0.99994
 C91 C -0.22808 0.49926 1.03811
 C92 C -0.27218 0.49921 1.03808
 C93 C -0.16050 0.50025 0.99997
 C94 C -0.12247 0.50026 0.99999
 H95 H -0.28892 0.50181 0.93198
 H96 H -0.21125 0.50190 0.93203
 H97 H -0.21131 0.49854 1.06784
 H98 H -0.28898 0.49845 1.06779
 C99 C 0.37875 0.49999 0.99987
 C100 C 0.34072 0.50003 0.99988
 C101 C 0.29531 0.50009 0.99991
 C102 C 0.27312 0.50118 0.96173
 C103 C 0.22903 0.50123 0.96175
 C104 C 0.20688 0.50018 0.99995
 C105 C 0.22907 0.49909 1.03812
 C106 C 0.27317 0.49904 1.03810
 C107 C 0.16148 0.50021 0.99996
 C108 C 0.12345 0.50022 0.99999
 H109 H 0.28989 0.50199 0.93201
 H110 H 0.21222 0.50208 0.93205
 H111 H 0.21230 0.49828 1.06784
 H112 H 0.28997 0.49819 1.06781
 C113 C 0.00002 -0.37873 0.50004
 C114 C 0.00000 -0.34070 0.50008
 C115 C 0.00000 -0.29530 0.50013
 C116 C -0.03782 -0.27314 0.50547
 C117 C -0.03782 -0.22904 0.50551
 C118 C -0.00000 -0.20687 0.50021
 C119 C 0.03782 -0.22903 0.49487
 C120 C 0.03783 -0.27313 0.49483
 C121 C -0.00001 -0.16146 0.50023
 C122 C -0.00000 -0.12344 0.50022
 H123 H -0.06726 -0.28993 0.50960
 H124 H -0.06726 -0.21226 0.50967
 H125 H 0.06726 -0.21224 0.49074
 H126 H 0.06726 -0.28991 0.49068
 C127 C 0.00010 0.37777 0.50003
 C128 C 0.00009 0.33975 0.50006
 C129 C 0.00011 0.29435 0.50011
 C130 C 0.00013 0.27222 0.53833
 C131 C 0.00012 0.22812 0.53837
 C132 C 0.00008 0.20592 0.50020
 C133 C 0.00006 0.22804 0.46198
 C134 C 0.00007 0.27214 0.46193
 C135 C 0.00005 0.16051 0.50024
 C136 C 0.00004 0.12249 0.50026
 H137 H 0.00015 0.28904 0.56804
 H138 H 0.00013 0.21137 0.56812
 H139 H 0.00003 0.21123 0.43227
 H140 H 0.00005 0.28890 0.43219
 C141 C 0.50000 -0.00016 -0.37875
 C142 C 0.49999 -0.00015 -0.34072
 C143 C 0.49995 -0.00013 -0.29531
 C144 C 0.50131 -0.03830 -0.27314
 C145 C 0.50126 -0.03828 -0.22904
 C146 C 0.49985 -0.00010 -0.20689
 C147 C 0.49848 0.03806 -0.22907
 C148 C 0.49853 0.03805 -0.27316
 C149 C 0.49979 -0.00009 -0.16148
 C150 C 0.49976 -0.00007 -0.12346
 H151 H 0.50241 -0.06801 -0.28991
 H152 H 0.50233 -0.06798 -0.21224
 H153 H 0.49738 0.06777 -0.21229
 H154 H 0.49746 0.06775 -0.28996
 C155 C 0.50000 -0.00009 0.37776
 C156 C 0.49996 -0.00009 0.33973
 C157 C 0.49990 -0.00007 0.29433
 C158 C 0.50131 -0.03823 0.27215
 C159 C 0.50125 -0.03822 0.22805
 C160 C 0.49978 -0.00004 0.20590
 C161 C 0.49837 0.03812 0.22807
 C162 C 0.49842 0.03811 0.27217
 C163 C 0.49973 -0.00004 0.16049
 C164 C 0.49971 -0.00003 0.12247
 H165 H 0.50245 -0.06794 0.28893
 H166 H 0.50235 -0.06792 0.21126
 H167 H 0.49722 0.06783 0.21130
 H168 H 0.49732 0.06781 0.28897
 C169 C 0.49932 -0.37738 -0.00013
 C170 C 0.49936 -0.33943 -0.00015
 C171 C 0.49943 -0.29415 -0.00020
 C172 C 0.46163 -0.27199 0.00510
 C173 C 0.46170 -0.22794 0.00503
 C174 C 0.49957 -0.20592 -0.00032
 C175 C 0.53738 -0.22808 -0.00561
 C176 C 0.53731 -0.27213 -0.00555
 C177 C 0.49964 -0.16064 -0.00039
 C178 C 0.49968 -0.12269 -0.00043
 H179 H 0.43217 -0.28875 0.00926
 H180 H 0.43229 -0.21109 0.00915
 H181 H 0.56683 -0.21132 -0.00978
 H182 H 0.56671 -0.28898 -0.00967
 C183 C 0.49934 0.37731 -0.00014
 C184 C 0.49939 0.33937 -0.00017
 C185 C 0.49946 0.29408 -0.00022
 C186 C 0.49953 0.27194 0.03796
 C187 C 0.49961 0.22789 0.03790
 C188 C 0.49963 0.20585 -0.00035
 C189 C 0.49956 0.22799 -0.03853
 C190 C 0.49948 0.27204 -0.03847
 C191 C 0.49968 0.16057 -0.00041
 C192 C 0.49971 0.12262 -0.00045
 H193 H 0.49952 0.28870 0.06770
 H194 H 0.49966 0.21104 0.06760
 H195 H 0.49956 0.21123 -0.06827
 H196 H 0.49943 0.28889 -0.06816
 C197 C -0.37733 -0.00018 0.50068
 C198 C -0.33938 -0.00021 0.50064
 C199 C -0.29409 -0.00024 0.50056
 C200 C -0.27208 0.00068 0.46231
 C201 C -0.22803 0.00063 0.46224
 C202 C -0.20586 -0.00034 0.50040
 C203 C -0.22788 -0.00126 0.53865
 C204 C -0.27193 -0.00121 0.53872
 C205 C -0.16058 -0.00039 0.50033
 C206 C -0.12263 -0.00042 0.50029
 H207 H -0.28894 0.00143 0.43263
 H208 H -0.21128 0.00135 0.43250
 H209 H -0.21102 -0.00201 0.56833
 H210 H -0.28868 -0.00193 0.56846
 C211 C 0.37737 -0.00011 0.50065
 C212 C 0.33942 -0.00014 0.50061
 C213 C 0.29414 -0.00018 0.50053
 C214 C 0.27210 0.00086 0.46229
 C215 C 0.22805 0.00079 0.46222
 C216 C 0.20591 -0.00031 0.50038
 C217 C 0.22794 -0.00135 0.53862
 C218 C 0.27199 -0.00128 0.53869
 C219 C 0.16062 -0.00038 0.50032
 C220 C 0.12267 -0.00043 0.50028
 H221 H 0.28895 0.00171 0.43261
 H222 H 0.21129 0.00160 0.43249
 H223 H 0.21110 -0.00220 0.56830
 H224 H 0.28875 -0.00209 0.56843
 C225 C 0.00013 0.50067 1.37735
 C226 C 0.00016 0.50061 1.33940
 C227 C 0.00022 0.50054 1.29412
 C228 C 0.00169 0.46231 1.27210
 C229 C 0.00176 0.46223 1.22805
 C230 C 0.00036 0.50039 1.20589
 C231 C -0.00112 0.53861 1.22791
 C232 C -0.00119 0.53869 1.27196
 C233 C 0.00042 0.50031 1.16060
 C234 C 0.00046 0.50028 1.12266
 H235 H 0.00279 0.43264 1.28895
 H236 H 0.00291 0.43251 1.21129
 H237 H -0.00222 0.56828 1.21105
 H238 H -0.00234 0.56841 1.28871
 C239 C 0.00008 0.50067 0.62266
 C240 C 0.00010 0.50061 0.66060
 C241 C 0.00014 0.50054 0.70589
 C242 C 0.00156 0.46231 0.72791
 C243 C 0.00163 0.46224 0.77196
 C244 C 0.00028 0.50039 0.79412
 C245 C -0.00115 0.53862 0.77209
 C246 C -0.00122 0.53869 0.72804
 C247 C 0.00035 0.50032 0.83940
 C248 C 0.00040 0.50029 0.87735
 H249 H 0.00262 0.43264 0.71106
 H250 H 0.00274 0.43251 0.78872
 H251 H -0.00221 0.56829 0.78895
 H252 H -0.00232 0.56842 0.71129
   
