data_POSCAR
  _audit_creation_date              2014-09-24
  _audit_creation_method            'ToBaCCo'
  _symmetry_space_group_name_H-M    'P1'
  _symmetry_Int_Tables_number       1
  _symmetry_cell_setting            triclinic
  loop_
  _symmetry_equiv_pos_as_xyz
 x,y,z
_cell_length_a 52.5546
_cell_length_b 50.4520
_cell_length_c 51.8164
_cell_angle_alpha 91.111100
_cell_angle_beta 90.810700
_cell_angle_gamma 87.862100
loop_
  _atom_site_label
  _atom_site_type_symbol
  _atom_site_fract_x
  _atom_site_fract_y
  _atom_site_fract_z
C1 C 0.60983 0.63546 0.62828
 N2 N 0.60764 0.61491 0.64460
 C3 C 0.62587 0.59507 0.64552
 N4 N 0.64597 0.59575 0.62935
 C5 C 0.64822 0.61594 0.61270
 N6 N 0.63023 0.63597 0.61249
 C7 C 0.89147 0.36730 0.12409
 N8 N 0.87607 0.36969 0.10286
 C9 C 0.85997 0.39115 0.09999
 N10 N 0.85968 0.41070 0.11838
 C11 C 0.87478 0.40858 0.13977
 N12 N 0.89040 0.38675 0.14265
 C13 C 0.39791 0.13936 -0.11585
 N14 N 0.37851 0.13872 -0.09882
 C15 C 0.36244 0.11823 -0.09935
 N16 N 0.36554 0.09864 -0.11751
 C17 C 0.38467 0.09918 -0.13482
 N18 N 0.40097 0.11946 -0.13372
 C19 C 0.11122 0.85230 0.35964
 N20 N 0.12925 0.85010 0.37864
 C21 C 0.14952 0.86602 0.37931
 N22 N 0.15169 0.88448 0.36080
 C23 C 0.13382 0.88713 0.34167
 N24 N 0.11373 0.87088 0.34127
 N25 N 0.08926 0.16691 0.10457
 N26 N 0.07922 0.15602 0.12472
 C27 C 0.05723 0.16924 0.13053
 C28 C 0.05314 0.18912 0.11280
 C29 C 0.07377 0.18703 0.09656
 H30 H 0.04486 0.16457 0.14618
 H31 H 0.07749 0.19963 0.08049
 Cu32 Cu 0.09547 0.12498 0.14052
 Cu33 Cu 0.12224 0.15513 0.09109
 Cu34 Cu 0.15235 0.10080 0.12007
 N35 N 0.11207 0.09398 0.15602
 N36 N 0.13470 0.08514 0.14857
 C37 C 0.14183 0.06383 0.16257
 C38 C 0.12244 0.05884 0.17939
 C39 C 0.10385 0.07831 0.17467
 H40 H 0.15942 0.05228 0.16015
 H41 H 0.08573 0.08084 0.18421
 N42 N 0.16700 0.11941 0.09093
 N43 N 0.15572 0.14039 0.08026
 C44 C 0.17050 0.14888 0.06132
 C45 C 0.19196 0.13229 0.05975
 C46 C 0.18909 0.11377 0.07874
 H47 H 0.16582 0.16558 0.04917
 H48 H 0.20228 0.09757 0.08344
 H49 H 0.12009 0.11589 0.10160
 H50 H 0.13642 0.13856 0.12484
 N51 N 0.39811 0.82402 0.61388
 N52 N 0.41070 0.83677 0.63207
 C53 C 0.43163 0.82212 0.63874
 C54 C 0.43195 0.79886 0.62419
 C55 C 0.41037 0.80066 0.60867
 H56 H 0.44537 0.82760 0.65344
 H57 H 0.40442 0.78634 0.59423
 Cu58 Cu 0.39739 0.87023 0.64661
 Cu59 Cu 0.36798 0.83957 0.59681
 Cu60 Cu 0.34526 0.90039 0.62084
 N61 N 0.38360 0.90370 0.66074
 N62 N 0.36268 0.91485 0.65103
 C63 C 0.35566 0.93603 0.66578
 C64 C 0.37317 0.93841 0.68578
 C65 C 0.39075 0.91764 0.68192
 H66 H 0.33877 0.94847 0.66250
 H67 H 0.40670 0.91232 0.69442
 N68 N 0.33016 0.88260 0.59049
 N69 N 0.33809 0.85892 0.58198
 C70 C 0.32401 0.85223 0.56107
 C71 C 0.30663 0.87281 0.55604
 C72 C 0.31108 0.89170 0.57508
 H73 H 0.32687 0.83424 0.54964
 H74 H 0.30119 0.91075 0.57741
 H75 H 0.37590 0.87850 0.60545
 H76 H 0.35539 0.86131 0.62854
 N77 N 0.90343 0.67999 0.39274
 N78 N 0.91074 0.67034 0.37017
 C79 C 0.93024 0.68437 0.36185
 C80 C 0.93560 0.70354 0.38037
 C81 C 0.91822 0.70019 0.39971
 H82 H 0.94082 0.68002 0.34443
 H83 H 0.91685 0.71124 0.41776
 Cu84 Cu 0.89668 0.63794 0.35593
 Cu85 Cu 0.87613 0.66496 0.41205
 Cu86 Cu 0.85195 0.60635 0.38801
 N87 N 0.88223 0.60551 0.34224
 N88 N 0.86605 0.59239 0.35576
 C89 C 0.86082 0.56962 0.34317
 C90 C 0.87423 0.56853 0.32040
 C91 C 0.88756 0.59165 0.32036
 H92 H 0.84797 0.55507 0.34988
 H93 H 0.90075 0.59743 0.30585
 N94 N 0.83990 0.62392 0.42009
 N95 N 0.84845 0.64674 0.42874
 C96 C 0.83504 0.65471 0.44964
 C97 C 0.81731 0.63591 0.45448
 C98 C 0.82100 0.61663 0.43542
 H99 H 0.83782 0.67292 0.46047
 H100 H 0.80997 0.59916 0.43236
 H101 H 0.88386 0.62653 0.39926
 H102 H 0.85844 0.64577 0.38134
 N103 N 0.59450 0.33079 -0.11030
 N104 N 0.57704 0.34626 -0.12136
 C105 C 0.55597 0.33242 -0.12590
 C106 C 0.56062 0.30682 -0.11747
 C107 C 0.58526 0.30648 -0.10772
 H108 H 0.53880 0.34020 -0.13523
 H109 H 0.59546 0.28995 -0.09884
 Cu110 Cu 0.58399 0.38236 -0.13059
 Cu111 Cu 0.62701 0.34386 -0.09798
 Cu112 Cu 0.63994 0.40805 -0.11415
 N113 N 0.59723 0.41208 -0.14897
 N114 N 0.61969 0.42126 -0.14307
 C115 C 0.62516 0.44030 -0.15966
 C116 C 0.60500 0.44331 -0.17690
 C117 C 0.58747 0.42521 -0.16948
 H118 H 0.64259 0.45106 -0.15927
 H119 H 0.56949 0.42115 -0.17890
 N120 N 0.66276 0.38626 -0.09231
 N121 N 0.65841 0.36142 -0.08687
 C122 C 0.67726 0.35208 -0.07125
 C123 C 0.69420 0.37208 -0.06659
 C124 C 0.68439 0.39343 -0.08036
 H125 H 0.67799 0.33260 -0.06290
 H126 H 0.69224 0.41288 -0.08145
 H127 H 0.61556 0.38285 -0.09518
 H128 H 0.62926 0.37138 -0.12672
 C129 C -0.05970 0.31993 0.15157
 C130 C -0.05485 0.30230 0.13050
 C131 C -0.06840 0.30703 0.10711
 C132 C -0.08689 0.32777 0.10549
 C133 C -0.09128 0.34540 0.12645
 C134 C -0.07734 0.34119 0.14944
 C135 C -0.06308 0.29138 0.08522
 C136 C -0.04376 0.27186 0.08566
 C137 C -0.02961 0.26651 0.10844
 C138 C -0.03642 0.28076 0.13160
 C139 C -0.02487 0.27273 0.15509
 C140 C -0.00649 0.25223 0.15577
 C141 C 0.00186 0.23968 0.13304
 C142 C -0.00916 0.24704 0.10896
 C143 C 0.00133 0.23521 0.08630
 C144 C 0.02158 0.21657 0.08768
 C145 C 0.03161 0.20866 0.11157
 C146 C 0.02154 0.22009 0.13421
 H147 H -0.04942 0.31845 0.16967
 H148 H -0.09707 0.33075 0.08737
 H149 H -0.08000 0.35436 0.16603
 H150 H -0.07355 0.29470 0.06732
 H151 H -0.04083 0.26065 0.06796
 H152 H -0.03027 0.28143 0.17346
 H153 H 0.00171 0.24657 0.17426
 H154 H -0.00506 0.24067 0.06721
 H155 H 0.02932 0.20813 0.06995
 H156 H 0.02969 0.21443 0.15274
 C157 C 0.57928 0.70424 0.62427
 C158 C 0.55319 0.69959 0.62797
 C159 C 0.54607 0.67295 0.63061
 C160 C 0.56466 0.65222 0.63131
 C161 C 0.59039 0.65730 0.62797
 C162 C 0.59747 0.68335 0.62404
 C163 C 0.52043 0.66710 0.63233
 C164 C 0.50155 0.68705 0.63081
 C165 C 0.50767 0.71391 0.62855
 C166 C 0.53394 0.72037 0.62858
 C167 C 0.54010 0.74737 0.62993
 C168 C 0.52126 0.76740 0.63049
 C169 C 0.49560 0.76143 0.62870
 C170 C 0.48841 0.73463 0.62699
 C171 C 0.46224 0.72973 0.62322
 C172 C 0.44407 0.75060 0.62198
 C173 C 0.45127 0.77690 0.62498
 C174 C 0.47705 0.78220 0.62840
 H175 H 0.58615 0.72369 0.62075
 H176 H 0.55903 0.63196 0.63378
 H177 H 0.61726 0.68766 0.62111
 H178 H 0.51485 0.64679 0.63446
 H179 H 0.48223 0.68089 0.63241
 H180 H 0.55945 0.75365 0.63154
 H181 H 0.52688 0.78784 0.63192
 H182 H 0.45530 0.71003 0.62042
 H183 H 0.42423 0.74613 0.61904
 H184 H 0.48275 0.80260 0.63011
 C185 C 1.05265 0.81878 0.33716
 C186 C 1.04795 0.80184 0.35787
 C187 C 1.06440 0.80300 0.37973
 C188 C 1.08557 0.81918 0.37993
 C189 C 1.09023 0.83572 0.35911
 C190 C 1.07322 0.83554 0.33793
 C191 C 1.05957 0.78816 0.40143
 C192 C 1.03835 0.77263 0.40222
 C193 C 1.02156 0.77053 0.38084
 C194 C 1.02723 0.78423 0.35783
 C195 C 1.01247 0.77929 0.33538
 C196 C 0.99250 0.76199 0.33555
 C197 C 0.98578 0.74979 0.35826
 C198 C 0.99972 0.75451 0.38143
 C199 C 0.99091 0.74331 0.40435
 C200 C 0.96983 0.72730 0.40395
 C201 C 0.95708 0.72156 0.38075
 C202 C 0.96510 0.73290 0.35795
 H203 H 1.04034 0.82012 0.32038
 H204 H 1.09805 0.81930 0.39678
 H205 H 1.07588 0.84818 0.32160
 H206 H 1.07214 0.78885 0.41818
 H207 H 1.03612 0.76165 0.41963
 H208 H 1.01652 0.78776 0.31703
 H209 H 0.98199 0.75843 0.31775
 H210 H 0.99953 0.74707 0.42300
 H211 H 0.96379 0.71892 0.42185
 H212 H 0.95491 0.72896 0.34003
 C213 C 0.42325 0.20810 -0.10610
 C214 C 0.44859 0.20486 -0.11493
 C215 C 0.45716 0.17907 -0.12300
 C216 C 0.44046 0.15796 -0.12360
 C217 C 0.41536 0.16167 -0.11519
 C218 C 0.40705 0.18678 -0.10610
 C219 C 0.48238 0.17440 -0.13031
 C220 C 0.49956 0.19465 -0.12927
 C221 C 0.49195 0.22073 -0.12165
 C222 C 0.46577 0.22618 -0.11560
 C223 C 0.45751 0.25279 -0.11109
 C224 C 0.47435 0.27333 -0.11176
 C225 C 0.50020 0.26815 -0.11606
 C226 C 0.50953 0.24172 -0.12046
 C227 C 0.53617 0.23739 -0.12300
 C228 C 0.55260 0.25851 -0.12184
 C229 C 0.54310 0.28460 -0.11853
 C230 C 0.51686 0.28930 -0.11574
 H231 H 0.41555 0.22669 -0.09849
 H232 H 0.44720 0.13843 -0.13017
 H233 H 0.38778 0.19007 -0.09926
 H234 H 0.48901 0.15476 -0.13662
 H235 H 0.51861 0.18938 -0.13543
 H236 H 0.43786 0.25854 -0.10780
 H237 H 0.46708 0.29349 -0.10849
 H238 H 0.54499 0.21787 -0.12519
 H239 H 0.57286 0.25440 -0.12384
 H240 H 0.50945 0.30944 -0.11258
 C241 C 0.15961 -0.05870 0.30286
 C242 C 0.13958 -0.05335 0.28496
 C243 C 0.11727 -0.06806 0.28689
 C244 C 0.11580 -0.08816 0.30512
 C245 C 0.13583 -0.09333 0.32280
 C246 C 0.15763 -0.07813 0.32151
 C247 C 0.09633 -0.06249 0.27081
 C248 C 0.09668 -0.04201 0.25333
 C249 C 0.11843 -0.02677 0.25063
 C250 C 0.14069 -0.03351 0.26567
 C251 C 0.16341 -0.02058 0.26055
 C252 C 0.16417 -0.00116 0.24196
 C253 C 0.14220 0.00687 0.22839
 C254 C 0.11885 -0.00537 0.23295
 C255 C 0.09676 0.00478 0.22004
 C256 C 0.09803 0.02569 0.20292
 C257 C 0.12132 0.03689 0.19774
 C258 C 0.14338 0.02732 0.21046
 H259 H 0.17678 -0.04766 0.30350
 H260 H 0.09855 -0.09926 0.30591
 H261 H 0.17345 -0.08125 0.33488
 H262 H 0.07926 -0.07380 0.27204
 H263 H 0.07977 -0.03912 0.24156
 H264 H 0.18123 -0.02567 0.27009
 H265 H 0.18211 0.00800 0.23848
 H266 H 0.07807 -0.00247 0.22331
 H267 H 0.08070 0.03291 0.19345
 H268 H 0.16138 0.03634 0.20692
 C269 C 0.64516 0.53733 -0.31413
 C270 C 0.62453 0.53596 -0.29706
 C271 C 0.60304 0.55319 -0.30131
 C272 C 0.60340 0.57260 -0.32042
 C273 C 0.62465 0.57468 -0.33637
 C274 C 0.64512 0.55621 -0.33341
 C275 C 0.58140 0.55114 -0.28629
 C276 C 0.58057 0.53233 -0.26709
 C277 C 0.60187 0.51544 -0.26143
 C278 C 0.62452 0.51802 -0.27604
 C279 C 0.64676 0.50345 -0.26850
 C280 C 0.64686 0.48670 -0.24761
 C281 C 0.62470 0.48310 -0.23388
 C282 C 0.60165 0.49673 -0.24101
 C283 C 0.57938 0.49090 -0.22740
 C284 C 0.58036 0.47314 -0.20698
 C285 C 0.60352 0.46103 -0.19923
 C286 C 0.62555 0.46594 -0.21290
 H287 H 0.66150 0.52381 -0.31337
 H288 H 0.58701 0.58609 -0.32276
 H289 H 0.66165 0.55657 -0.34564
 H290 H 0.56483 0.56418 -0.28947
 H291 H 0.56325 0.53226 -0.25623
 H292 H 0.66481 0.50541 -0.27772
 H293 H 0.66453 0.47634 -0.24219
 H294 H 0.56087 0.49937 -0.23236
 H295 H 0.56303 0.46930 -0.19684
 H296 H 0.64343 0.45604 -0.20740
 C297 C 0.41224 1.05378 0.81274
 C298 C 0.39062 1.04024 0.80368
 C299 C 0.36694 1.04680 0.81544
 C300 C 0.36540 1.06530 0.83598
 C301 C 0.38695 1.07855 0.84461
 C302 C 0.41031 1.07275 0.83271
 C303 C 0.34479 1.03519 0.80643
 C304 C 0.34536 1.01776 0.78539
 C305 C 0.36838 1.01064 0.77289
 C306 C 0.39154 1.02097 0.78303
 C307 C 0.41481 1.01134 0.77249
 C308 C 0.41543 0.99282 0.75228
 C309 C 0.39294 0.98382 0.74117
 C310 C 0.36906 0.99306 0.75091
 C311 C 0.34682 0.98471 0.73786
 C312 C 0.34833 0.96732 0.71664
 C313 C 0.37192 0.95741 0.70783
 C314 C 0.39419 0.96573 0.72020
 H315 H 0.43076 1.05079 0.80428
 H316 H 0.34712 1.07003 0.84473
 H317 H 0.42720 1.08291 0.83888
 H318 H 0.32667 1.03995 0.81549
 H319 H 0.32742 1.00956 0.77981
 H320 H 0.43303 1.01718 0.77999
 H321 H 0.43375 0.98576 0.74502
 H322 H 0.32796 0.99174 0.74315
 H323 H 0.33084 0.96130 0.70733
 H324 H 0.41256 0.95854 0.71314
 C325 C 0.87010 0.47693 0.17088
 C326 C 0.87487 0.47163 0.19728
 C327 C 0.87842 0.44474 0.20444
 C328 C 0.87885 0.42435 0.18559
 C329 C 0.87449 0.43005 0.15953
 C330 C 0.86973 0.45641 0.15243
 C331 C 0.88136 0.43831 0.23039
 C332 C 0.88026 0.45794 0.24955
 C333 C 0.87712 0.48502 0.24341
 C334 C 0.87576 0.49203 0.21680
 C335 C 0.87603 0.51913 0.21056
 C336 C 0.87689 0.53878 0.22966
 C337 C 0.87655 0.53233 0.25569
 C338 C 0.87598 0.50540 0.26298
 C339 C 0.87376 0.50005 0.28957
 C340 C 0.87291 0.52058 0.30803
 C341 C 0.87469 0.54698 0.30072
 C342 C 0.87657 0.55274 0.27452
 H343 H 0.86591 0.49664 0.16395
 H344 H 0.88200 0.40390 0.19128
 H345 H 0.86603 0.46125 0.13241
 H346 H 0.88418 0.41781 0.23600
 H347 H 0.88286 0.45131 0.26909
 H348 H 0.87651 0.52579 0.19094
 H349 H 0.87745 0.55931 0.22396
 H350 H 0.87193 0.48029 0.29666
 H351 H 0.87120 0.51573 0.32819
 H352 H 0.87736 0.57323 0.26874
 C353 C 0.31300 0.09102 -0.05564
 C354 C 0.30346 0.11402 -0.04239
 C355 C 0.31310 0.13877 -0.04924
 C356 C 0.33248 0.14002 -0.06755
 C357 C 0.34198 0.11697 -0.08013
 C358 C 0.33182 0.09258 -0.07423
 C359 C 0.30329 0.16219 -0.03789
 C360 C 0.28366 0.16173 -0.02026
 C361 C 0.27351 0.13761 -0.01264
 C362 C 0.28441 0.11332 -0.02297
 C363 C 0.27633 0.08917 -0.01313
 C364 C 0.25768 0.08868 0.00555
 C365 C 0.24580 0.11211 0.01466
 C366 C 0.25316 0.13693 0.00538
 C367 C 0.23943 0.15997 0.01417
 C368 C 0.21965 0.15834 0.03171
 C369 C 0.21308 0.13384 0.04136
 C370 C 0.22633 0.11080 0.03285
 H371 H 0.30595 0.07158 -0.05254
 H372 H 0.33989 0.15906 -0.07232
 H373 H 0.33865 0.07448 -0.08383
 H374 H 0.31066 0.18117 -0.04294
 H375 H 0.27733 0.18069 -0.01232
 H376 H 0.28462 0.07018 -0.01896
 H377 H 0.25226 0.06966 0.01268
 H378 H 0.24302 0.17951 0.00735
 H379 H 0.20958 0.17642 0.03790
 H380 H 0.22099 0.09170 0.03982
 C381 C 0.70292 0.59099 0.57105
 C382 C 0.71010 0.61418 0.55849
 C383 C 0.69720 0.63844 0.56533
 C384 C 0.67701 0.63894 0.58287
 C385 C 0.66977 0.61564 0.59459
 C386 C 0.68318 0.59181 0.58878
 C387 C 0.70448 0.66209 0.55463
 C388 C 0.72450 0.66234 0.53744
 C389 C 0.73768 0.63869 0.52964
 C390 C 0.72972 0.61412 0.53962
 C391 C 0.74112 0.59026 0.52987
 C392 C 0.75993 0.59034 0.51136
 C393 C 0.76864 0.61412 0.50225
 C394 C 0.75811 0.63868 0.51164
 C395 C 0.76866 0.66220 0.50269
 C396 C 0.78811 0.66120 0.48455
 C397 C 0.79757 0.63687 0.47458
 C398 C 0.78785 0.61340 0.48367
 H399 H 0.71243 0.57193 0.56798
 H400 H 0.66708 0.65760 0.58759
 H401 H 0.67818 0.57352 0.59773
 H402 H 0.69467 0.68071 0.55973
 H403 H 0.72868 0.68144 0.52995
 H404 H 0.73534 0.57099 0.53555
 H405 H 0.76785 0.57150 0.50419
 H406 H 0.76261 0.68167 0.50957
 H407 H 0.79540 0.67965 0.47796
 H408 H 0.79546 0.59444 0.47648
 C409 C 0.81108 0.41781 0.05177
 C410 C 0.80517 0.39490 0.03695
 C411 C 0.81841 0.37077 0.04301
 C412 C 0.83691 0.36992 0.06283
 C413 C 0.84212 0.39269 0.07763
 C414 C 0.82913 0.41660 0.07178
 C415 C 0.81278 0.34743 0.02964
 C416 C 0.79355 0.34717 0.01101
 C417 C 0.77937 0.37050 0.00462
 C418 C 0.78609 0.39497 0.01694
 C419 C 0.77354 0.41866 0.00883
 C420 C 0.75426 0.41841 -0.00973
 C421 C 0.74639 0.39459 -0.02071
 C422 C 0.75872 0.37025 -0.01372
 C423 C 0.74933 0.34663 -0.02490
 C424 C 0.72865 0.34732 -0.04214
 C425 C 0.71672 0.37147 -0.04904
 C426 C 0.72591 0.39505 -0.03840
 H427 H 0.80158 0.43684 0.04901
 H428 H 0.84663 0.35120 0.06731
 H429 H 0.83271 0.43451 0.08290
 H430 H 0.82304 0.32897 0.03398
 H431 H 0.79048 0.32827 0.00168
 H432 H 0.77839 0.43793 0.01622
 H433 H 0.74510 0.43710 -0.01524
 H434 H 0.75707 0.32721 -0.02028
 H435 H 0.72200 0.32878 -0.05010
 H436 H 0.71661 0.41387 -0.04321
 C437 C 0.19041 0.83703 0.43325
 C438 C 0.20544 0.85859 0.44100
 C439 C 0.20116 0.88296 0.42816
 C440 C 0.18342 0.88506 0.40769
 C441 C 0.16883 0.86346 0.40024
 C442 C 0.17236 0.83957 0.41334
 C443 C 0.21439 0.90524 0.43596
 C444 C 0.23136 0.90415 0.45672
 C445 C 0.23635 0.88038 0.47014
 C446 C 0.22411 0.85694 0.46134
 C447 C 0.23131 0.83259 0.47283
 C448 C 0.24929 0.83125 0.49270
 C449 C 0.26028 0.85414 0.50249
 C450 C 0.25361 0.87913 0.49174
 C451 C 0.26417 0.90191 0.50342
 C452 C 0.28109 0.89974 0.52433
 C453 C 0.28830 0.87491 0.53419
 C454 C 0.27784 0.85216 0.52314
 H455 H 0.19163 0.81814 0.44262
 H456 H 0.18049 0.90380 0.39798
 H457 H 0.16117 0.82263 0.40810
 H458 H 0.21133 0.92388 0.42612
 H459 H 0.24087 0.92222 0.46134
 H460 H 0.22390 0.81395 0.46635
 H461 H 0.25441 0.81206 0.50074
 H462 H 0.25931 0.92175 0.49726
 H463 H 0.28883 0.91765 0.53260
 H464 H 0.28293 0.83289 0.53100
   
