data_POSCAR
  _audit_creation_date              2014-09-24
  _audit_creation_method            'ToBaCCo'
  _symmetry_space_group_name_H-M    'P1'
  _symmetry_Int_Tables_number       1
  _symmetry_cell_setting            triclinic
  loop_
  _symmetry_equiv_pos_as_xyz
 x,y,z
_cell_length_a 25.2630
_cell_length_b 24.7034
_cell_length_c 24.6372
_cell_angle_alpha 90.371500
_cell_angle_beta 89.994900
_cell_angle_gamma 119.606700
loop_
  _atom_site_label
  _atom_site_type_symbol
  _atom_site_fract_x
  _atom_site_fract_y
  _atom_site_fract_z
C1 C 0.50965 0.10936 0.02679
 H2 H 0.54658 0.12702 -0.00187
 C3 C 0.49796 0.15137 0.05500
 H4 H 0.52700 0.20088 0.04874
 C5 C 0.42693 0.02428 0.07007
 H6 H 0.39909 -0.02545 0.07545
 C7 C 0.41350 0.06484 0.09913
 H8 H 0.37576 0.04628 0.12728
 N9 N 0.47528 0.04705 0.03557
 C10 C 0.54002 -0.08832 0.02848
 H11 H 0.55476 -0.08271 -0.01327
 C12 C 0.54529 -0.13149 0.06104
 H13 H 0.56282 -0.16000 0.04398
 C14 C 0.49898 -0.05862 0.10181
 H15 H 0.48100 -0.03038 0.11789
 C16 C 0.50345 -0.10121 0.13578
 H17 H 0.48811 -0.10602 0.17743
 Zn18 Zn 0.49597 -0.00818 -0.00156
 N19 N 0.51456 -0.05496 0.04848
 C20 C 0.61854 0.08039 -0.02188
 N21 N 0.56486 0.03924 -0.04590
 C22 C 0.55864 0.03547 -0.10086
 C23 C 0.60627 0.07683 -0.13375
 C24 C 0.66674 0.12394 -0.05324
 C25 C 0.37847 -0.05910 -0.05053
 C26 C 0.32993 -0.10032 -0.08345
 C27 C 0.38700 -0.15157 -0.10699
 C28 C 0.43413 -0.10962 -0.07352
 N29 N 0.42935 -0.06439 -0.04604
 H30 H 0.62241 0.08202 0.02190
 H31 H 0.51583 0.00244 -0.11931
 H32 H 0.60012 0.07461 -0.17738
 H33 H 0.70785 0.15909 -0.03349
 H34 H 0.37510 -0.02303 -0.02846
 H35 H 0.28882 -0.09691 -0.08308
 H36 H 0.39420 -0.18504 -0.12970
 H37 H 0.47522 -0.11250 -0.07062
 C38 C 0.52471 -0.13969 0.11469
 C39 C 0.44949 0.12924 0.09172
 C40 C 0.33363 -0.14723 -0.11357
 C41 C 0.65973 0.12394 -0.10972
 C42 C -0.09624 0.45968 0.59017
 H43 H -0.09566 0.41619 0.59050
 C44 C -0.13760 0.46603 0.55715
 H45 H -0.16896 0.42736 0.53185
 C46 C -0.05736 0.56254 0.62411
 H47 H -0.02682 0.59950 0.65110
 C48 C -0.09844 0.57073 0.59189
 H49 H -0.09904 0.61424 0.59369
 N50 N -0.05680 0.50773 0.62233
 C51 C 0.08664 0.46215 0.65195
 H52 H 0.08497 0.45896 0.69576
 C53 C 0.13242 0.45814 0.62349
 H54 H 0.16592 0.45146 0.64536
 C55 C 0.04744 0.47883 0.57015
 H56 H 0.01574 0.48918 0.54966
 C57 C 0.09225 0.47484 0.54013
 H58 H 0.09422 0.48113 0.49656
 Zn59 Zn -0.00575 0.49155 0.66742
 N60 N 0.04595 0.47329 0.62512
 C61 C -0.06369 0.36621 0.70495
 N62 N -0.05810 0.42360 0.71116
 C63 C -0.09500 0.43324 0.74523
 C64 C -0.13988 0.38408 0.77469
 C65 C -0.10916 0.31522 0.73282
 C66 C 0.08613 0.61413 0.68340
 C67 C 0.12998 0.66589 0.71199
 C68 C 0.09019 0.60956 0.79556
 C69 C 0.04717 0.55875 0.76537
 N70 N 0.04590 0.56195 0.71029
 H71 H -0.03462 0.35946 0.67676
 H72 H -0.09025 0.47912 0.74860
 H73 H -0.16900 0.39249 0.80162
 H74 H -0.11467 0.26930 0.72637
 H75 H 0.08518 0.61476 0.63951
 H76 H 0.16295 0.70647 0.69004
 H77 H 0.09175 0.60611 0.83928
 H78 H 0.01646 0.51618 0.78592
 C79 C 0.13637 0.46627 0.56713
 C80 C -0.13869 0.52216 0.55769
 C81 C 0.13226 0.66378 0.76875
 C82 C -0.14883 0.32382 0.76707
 C83 C 0.55826 0.45840 0.41262
 H84 H 0.51531 0.41536 0.41447
 C85 C 0.60846 0.46464 0.44157
 H86 H 0.60420 0.42642 0.46602
 C87 C 0.61695 0.56006 0.37693
 H88 H 0.62040 0.59655 0.35073
 C89 C 0.66841 0.56819 0.40513
 H90 H 0.71120 0.61116 0.40107
 N91 N 0.56327 0.50576 0.38118
 C92 C 0.37672 0.46720 0.35878
 H93 H 0.37491 0.46656 0.31489
 C94 C 0.32791 0.46278 0.38874
 H95 H 0.28824 0.45858 0.36799
 C96 C 0.43217 0.47729 0.43952
 H97 H 0.47360 0.48495 0.45905
 C98 C 0.38421 0.47284 0.47109
 H99 H 0.38866 0.47666 0.51487
 Zn100 Zn 0.49431 0.49040 0.33951
 N101 N 0.42770 0.47485 0.38439
 C102 C 0.42111 0.36707 0.29776
 N103 N 0.47533 0.42093 0.29437
 C104 C 0.51951 0.42642 0.25961
 C105 C 0.50937 0.37718 0.22518
 C106 C 0.40931 0.31629 0.26437
 C107 C 0.52323 0.61408 0.32375
 C108 C 0.52871 0.66521 0.29511
 C109 C 0.50747 0.60515 0.21213
 C110 C 0.50256 0.55525 0.24226
 N111 N 0.51018 0.56043 0.29711
 H112 H 0.38720 0.36320 0.32659
 H113 H 0.56257 0.46939 0.25851
 H114 H 0.54464 0.38214 0.19732
 H115 H 0.36614 0.27352 0.26717
 H116 H 0.52767 0.61643 0.36750
 H117 H 0.53760 0.70720 0.31674
 H118 H 0.49969 0.60012 0.16869
 H119 H 0.49035 0.51176 0.22196
 C120 C 0.33199 0.46655 0.44543
 C121 C 0.66434 0.51974 0.43734
 C122 C 0.51978 0.66039 0.23884
 C123 C 0.45366 0.32161 0.22733
 C124 C 0.23224 0.52487 0.51106
 C125 C 0.18848 0.46949 0.53690
 C126 C 0.19432 0.41603 0.53400
 C127 C 0.24148 0.41601 0.50465
 C128 C 0.28397 0.46942 0.47735
 C129 C 0.28007 0.52462 0.48068
 C130 C 0.23033 0.58093 0.51570
 C131 C 0.27358 0.63487 0.48993
 C132 C 0.31977 0.63433 0.45960
 C133 C 0.32337 0.57996 0.45509
 H134 H 0.19604 0.58396 0.53970
 H135 H 0.27143 0.67742 0.49378
 H136 H 0.35332 0.67641 0.43984
 H137 H 0.36059 0.58190 0.43183
 H138 H 0.16154 0.37369 0.55403
 H139 H 0.24444 0.37376 0.50260
 C140 C 0.46434 0.75495 0.15883
 C141 C 0.52098 0.80847 0.14720
 C142 C 0.57503 0.81238 0.16610
 C143 C 0.57380 0.76437 0.19649
 C144 C 0.51852 0.71105 0.20842
 C145 C 0.46311 0.70612 0.19015
 C146 C 0.40887 0.74842 0.13931
 C147 C 0.35354 0.69586 0.15164
 C148 C 0.35227 0.64884 0.18336
 C149 C 0.40637 0.65366 0.20250
 H150 H 0.40765 0.78354 0.11420
 H151 H 0.31140 0.69162 0.13655
 H152 H 0.30914 0.60830 0.19303
 H153 H 0.40326 0.61607 0.22709
 H154 H 0.61850 0.85296 0.15722
 H155 H 0.61636 0.76848 0.21031
 C156 C 0.24714 0.82597 0.82394
 C157 C 0.28645 0.81086 0.85458
 C158 C 0.27382 0.74837 0.85331
 C159 C 0.22323 0.70205 0.82652
 C160 C 0.18263 0.71536 0.79937
 C161 C 0.19374 0.77741 0.79839
 C162 C 0.26230 0.88829 0.81326
 C163 C 0.22242 0.90189 0.78521
 C164 C 0.16743 0.85406 0.76559
 C165 C 0.15330 0.79235 0.77152
 H166 H 0.30581 0.92724 0.82483
 H167 H 0.23447 0.94987 0.77835
 H168 H 0.13635 0.86487 0.74432
 H169 H 0.11074 0.75657 0.75446
 H170 H 0.30089 0.73344 0.87614
 H171 H 0.21563 0.65486 0.82708
 C172 C 0.81570 0.52524 0.46683
 C173 C 0.81588 0.52828 0.52433
 C174 C 0.76893 0.53205 0.55115
 C175 C 0.72086 0.53041 0.52214
 C176 C 0.71858 0.52545 0.46546
 C177 C 0.76638 0.52329 0.43714
 C178 C 0.86354 0.52407 0.43819
 C179 C 0.86207 0.51956 0.38170
 C180 C 0.81316 0.51609 0.35277
 C181 C 0.76563 0.51783 0.38001
 H182 H 0.90256 0.52703 0.45910
 H183 H 0.89900 0.51858 0.36028
 H184 H 0.81210 0.51215 0.30895
 H185 H 0.72842 0.51470 0.35591
 H186 H 0.76846 0.53414 0.59508
 H187 H 0.68449 0.53195 0.54416
 C188 C 0.43247 0.22211 0.10111
 C189 C 0.43982 0.17399 0.12478
 C190 C 0.44422 0.17191 0.18136
 C191 C 0.44565 0.21869 0.21422
 C192 C 0.44302 0.26903 0.19143
 C193 C 0.43472 0.27037 0.13470
 C194 C 0.42249 0.22311 0.04483
 C195 C 0.41632 0.27127 0.02210
 C196 C 0.41949 0.31893 0.05485
 C197 C 0.42839 0.31859 0.11067
 H198 H 0.41851 0.18636 0.01810
 H199 H 0.40875 0.27146 -0.02113
 H200 H 0.41450 0.35608 0.03696
 H201 H 0.42956 0.35591 0.13484
 H202 H 0.44967 0.13539 0.20009
 H203 H 0.45173 0.21714 0.25761
 C204 C -0.30743 0.21243 0.82291
 C205 C -0.29337 0.17487 0.85685
 C206 C -0.23345 0.18575 0.85890
 C207 C -0.18760 0.23298 0.82845
 C208 C -0.20036 0.27023 0.79428
 C209 C -0.26120 0.25841 0.78959
 C210 C -0.36608 0.20642 0.82211
 C211 C -0.38006 0.24101 0.78627
 C212 C -0.33611 0.28237 0.75077
 C213 C -0.27724 0.29117 0.75226
 H214 H -0.40158 0.17565 0.84940
 H215 H -0.42537 0.23536 0.78579
 H216 H -0.34751 0.30826 0.72230
 H217 H -0.24473 0.32346 0.72361
 H218 H -0.22198 0.15765 0.88467
 H219 H -0.14144 0.24133 0.83238
   
