data_POSCAR
  _audit_creation_date              2014-09-24
  _audit_creation_method            'ToBaCCo'
  _symmetry_space_group_name_H-M    'P1'
  _symmetry_Int_Tables_number       1
  _symmetry_cell_setting            triclinic
  loop_
  _symmetry_equiv_pos_as_xyz
 x,y,z
_cell_length_a 36.3417
_cell_length_b 34.9813
_cell_length_c 34.2976
_cell_angle_alpha 90.179300
_cell_angle_beta 90.473200
_cell_angle_gamma 90.429600
loop_
  _atom_site_label
  _atom_site_type_symbol
  _atom_site_fract_x
  _atom_site_fract_y
  _atom_site_fract_z
C1 C 0.30551 0.30811 0.23521
 H2 H 0.30700 0.30871 0.26673
 C3 C 0.32908 0.33123 0.21343
 H4 H 0.34795 0.35009 0.22877
 C5 C 0.27807 0.28315 0.17753
 H6 H 0.25847 0.26403 0.16365
 C7 C 0.30117 0.30571 0.15461
 H8 H 0.29892 0.30392 0.12314
 N9 N 0.28061 0.28480 0.21708
 C10 C 0.19803 0.26457 0.30651
 H11 H 0.19831 0.23370 0.30817
 C12 C 0.17497 0.28546 0.33086
 H13 H 0.15742 0.27044 0.35115
 C14 C 0.21968 0.32153 0.27696
 H15 H 0.23674 0.33545 0.25554
 C16 C 0.19648 0.34345 0.30017
 H17 H 0.19618 0.37423 0.29679
 Zn18 Zn 0.25115 0.25295 0.24870
 N19 N 0.22044 0.28285 0.28090
 C20 C 0.28290 0.22377 0.31876
 N21 N 0.28366 0.22280 0.27913
 C22 C 0.30903 0.20163 0.25994
 C23 C 0.33404 0.17913 0.28062
 C24 C 0.30731 0.20166 0.34059
 C25 C 0.19235 0.23981 0.19773
 C26 C 0.16817 0.21901 0.17384
 C27 C 0.20143 0.16161 0.19014
 C28 C 0.22466 0.18344 0.21421
 N29 N 0.22010 0.22191 0.21707
 H30 H 0.26361 0.24187 0.33367
 H31 H 0.30987 0.20234 0.22842
 H32 H 0.35416 0.16309 0.26445
 H33 H 0.30605 0.20255 0.37213
 H34 H 0.18908 0.27038 0.20091
 H35 H 0.14624 0.23368 0.15858
 H36 H 0.20533 0.13101 0.18845
 H37 H 0.24622 0.16954 0.23056
 C38 C 0.17434 0.32549 0.32799
 C39 C 0.32740 0.32980 0.17244
 C40 C 0.17295 0.17955 0.16932
 C41 C 0.33296 0.17849 0.32162
 C42 C 0.81187 0.80382 0.23790
 H43 H 0.81592 0.80242 0.26915
 C44 C 0.83510 0.82654 0.21535
 H45 H 0.85618 0.84296 0.23033
 C46 C 0.77819 0.78440 0.18177
 H47 H 0.75622 0.76761 0.16877
 C48 C 0.80043 0.80718 0.15810
 H49 H 0.79510 0.80766 0.12697
 N50 N 0.78425 0.78320 0.22090
 C51 C 0.70189 0.76454 0.31069
 H52 H 0.70166 0.73367 0.31266
 C53 C 0.67862 0.78604 0.33424
 H54 H 0.66038 0.77151 0.35422
 C55 C 0.72501 0.82084 0.28108
 H56 H 0.74286 0.83427 0.26005
 C57 C 0.70165 0.84338 0.30349
 H58 H 0.70189 0.87412 0.29978
 Zn59 Zn 0.75581 0.75171 0.25390
 N60 N 0.72502 0.78219 0.28535
 C61 C 0.78692 0.72340 0.32465
 N62 N 0.78904 0.72317 0.28507
 C63 C 0.81552 0.70296 0.26647
 C64 C 0.84034 0.68072 0.28766
 C65 C 0.81107 0.70146 0.34697
 C66 C 0.69579 0.73414 0.20529
 C67 C 0.67176 0.71107 0.18342
 C68 C 0.70880 0.65638 0.20022
 C69 C 0.73178 0.68038 0.22225
 N70 N 0.72517 0.71857 0.22405
 H71 H 0.76647 0.74041 0.33910
 H72 H 0.81693 0.70366 0.23498
 H73 H 0.86014 0.66384 0.27192
 H74 H 0.80860 0.70148 0.37842
 H75 H 0.69107 0.76458 0.20735
 H76 H 0.64889 0.72412 0.16821
 H77 H 0.71458 0.62607 0.19878
 H78 H 0.75483 0.66834 0.23781
 C79 C 0.67859 0.82605 0.33089
 C80 C 0.82986 0.82819 0.17458
 C81 C 0.67819 0.67159 0.18084
 C82 C 0.83819 0.67973 0.32858
 C83 C 0.79872 0.30751 0.73207
 H84 H 0.79979 0.31077 0.76344
 C85 C 0.82021 0.33110 0.70852
 H86 H 0.83804 0.35235 0.72202
 C87 C 0.77505 0.27480 0.67655
 H88 H 0.75771 0.25253 0.66428
 C89 C 0.79666 0.29727 0.65196
 H90 H 0.79562 0.29237 0.62077
 N91 N 0.77624 0.28050 0.71580
 C92 C 0.69687 0.26244 0.80909
 H93 H 0.69852 0.23182 0.81294
 C94 C 0.67393 0.28400 0.83300
 H95 H 0.65790 0.26972 0.85514
 C96 C 0.71466 0.31797 0.77442
 H97 H 0.72995 0.33106 0.75107
 C98 C 0.69158 0.34047 0.79714
 H99 H 0.68977 0.37085 0.79150
 Zn100 Zn 0.74827 0.24925 0.74956
 N101 N 0.71743 0.27978 0.78117
 C102 C 0.78281 0.22357 0.81981
 N103 N 0.78220 0.22104 0.78027
 C104 C 0.80691 0.19915 0.76104
 C105 C 0.83259 0.17734 0.78157
 C106 C 0.80798 0.20232 0.84160
 C107 C 0.68914 0.23296 0.70008
 C108 C 0.66509 0.21088 0.67725
 C109 C 0.69942 0.15471 0.69542
 C110 C 0.72241 0.17778 0.71853
 N111 N 0.71730 0.21626 0.71989
 H112 H 0.76396 0.24219 0.83469
 H113 H 0.80645 0.19839 0.72950
 H114 H 0.85102 0.16017 0.76452
 H115 H 0.80744 0.20473 0.87312
 H116 H 0.68547 0.26357 0.70201
 H117 H 0.64286 0.22460 0.66155
 H118 H 0.70385 0.12415 0.69466
 H119 H 0.74429 0.16484 0.73523
 C120 C 0.67147 0.32366 0.82733
 C121 C 0.81912 0.32618 0.66787
 C122 C 0.67053 0.17140 0.67416
 C123 C 0.83335 0.17833 0.82281
 C124 C 0.30132 0.80827 0.73562
 H125 H 0.30450 0.81017 0.76696
 C126 C 0.32309 0.83100 0.71151
 H127 H 0.34301 0.85050 0.72450
 C128 C 0.27178 0.78005 0.68068
 H129 H 0.25190 0.75997 0.66882
 C130 C 0.29305 0.80221 0.65546
 H131 H 0.28846 0.79938 0.62439
 N132 N 0.27625 0.78349 0.71995
 C133 C 0.19714 0.76556 0.81336
 H134 H 0.19830 0.73486 0.81682
 C135 C 0.17391 0.78712 0.83694
 H136 H 0.15714 0.77276 0.85842
 C137 C 0.21651 0.82130 0.77998
 H138 H 0.23272 0.83448 0.75738
 C139 C 0.19318 0.84383 0.80240
 H140 H 0.19194 0.87432 0.79718
 Zn141 Zn 0.24945 0.75242 0.75484
 N142 N 0.21847 0.78296 0.78616
 C143 C 0.28363 0.72705 0.82536
 N144 N 0.28433 0.72582 0.78573
 C145 C 0.31047 0.70563 0.76660
 C146 C 0.33633 0.68427 0.78733
 C147 C 0.30888 0.70602 0.84725
 C148 C 0.18943 0.73174 0.70752
 C149 C 0.16577 0.70741 0.68665
 C150 C 0.20367 0.65408 0.70574
 C151 C 0.22624 0.67932 0.72678
 N152 N 0.21907 0.71745 0.72690
 H153 H 0.26340 0.74407 0.84018
 H154 H 0.31070 0.70550 0.73505
 H155 H 0.35575 0.66727 0.77119
 H156 H 0.30750 0.70674 0.87878
 H157 H 0.18429 0.76216 0.70821
 H158 H 0.14271 0.71943 0.67086
 H159 H 0.20995 0.62386 0.70552
 H160 H 0.24947 0.66831 0.74285
 C161 C 0.17206 0.82688 0.83173
 C162 C 0.31949 0.82781 0.67089
 C163 C 0.17286 0.66799 0.68567
 C164 C 0.33560 0.68419 0.82832
 C165 C 0.05447 0.05322 0.01424
 H166 H 0.05893 0.05071 -0.01681
 C167 C 0.07802 0.07596 0.03701
 H168 H 0.10037 0.09122 0.02317
 C169 C 0.01922 0.03710 0.06971
 H170 H -0.00405 0.02239 0.08227
 C171 C 0.04170 0.06005 0.09344
 H172 H 0.03586 0.06241 0.12427
 N173 N 0.02641 0.03346 0.03100
 C174 C 0.00957 -0.05508 -0.05757
 H175 H -0.01965 -0.05226 -0.06299
 C176 C 0.03009 -0.08070 -0.07970
 H177 H 0.01662 -0.09740 -0.10239
 C178 C 0.06269 -0.03685 -0.02133
 H179 H 0.07524 -0.02013 0.00178
 C180 C 0.08411 -0.06264 -0.04226
 H181 H 0.11322 -0.06458 -0.03572
 Zn182 Zn -0.00331 0.00155 -0.00129
 N183 N 0.02623 -0.03306 -0.02973
 C184 C -0.02487 0.03346 -0.07439
 N185 N -0.03032 0.03381 -0.03523
 C186 C -0.05455 0.05831 -0.01877
 C187 C -0.07557 0.08264 -0.04203
 C188 C -0.04525 0.05735 -0.09883
 C189 C -0.01918 -0.05056 0.05729
 C190 C -0.04060 -0.07292 0.08206
 C191 C -0.09486 -0.05125 0.04776
 C192 C -0.07234 -0.02883 0.02401
 N193 N -0.03526 -0.02838 0.02965
 H194 H -0.00446 0.01490 -0.08687
 H195 H -0.05780 0.05863 0.01256
 H196 H -0.09505 0.10148 -0.02809
 H197 H -0.03989 0.05570 -0.12966
 H198 H 0.01048 -0.05052 0.06033
 H199 H -0.02649 -0.09035 0.10329
 H200 H -0.12437 -0.05095 0.04292
 H201 H -0.08452 -0.01199 0.00099
 C202 C 0.06777 -0.08481 -0.07202
 C203 C 0.07202 0.07904 0.07732
 C204 C -0.07925 -0.07307 0.07796
 C205 C -0.07150 0.08233 -0.08280
 C206 C 0.05999 0.54828 0.51818
 H207 H 0.06311 0.54725 0.48685
 C208 C 0.08277 0.57209 0.54062
 H209 H 0.10364 0.58929 0.52648
 C210 C 0.02865 0.52738 0.57469
 H211 H 0.00733 0.51009 0.58776
 C212 C 0.05040 0.55136 0.59818
 H213 H 0.04609 0.55168 0.62937
 N214 N 0.03385 0.52626 0.53547
 C215 C 0.01344 0.43925 0.44608
 H216 H -0.01603 0.44165 0.44222
 C217 C 0.03324 0.41393 0.42287
 H218 H 0.01898 0.39703 0.40088
 C219 C 0.06795 0.45830 0.47945
 H220 H 0.08137 0.47536 0.50175
 C221 C 0.08868 0.43278 0.45746
 H222 H 0.11808 0.43125 0.46243
 Zn223 Zn 0.00292 0.49626 0.50283
 N224 N 0.03111 0.46156 0.47298
 C225 C -0.02124 0.52875 0.43072
 N226 N -0.02302 0.53074 0.47027
 C227 C -0.04272 0.55851 0.48821
 C228 C -0.06277 0.58477 0.46626
 C229 C -0.04096 0.55438 0.40760
 C230 C -0.01518 0.43810 0.55466
 C231 C -0.03761 0.41486 0.57760
 C232 C -0.09017 0.45154 0.55652
 C233 C -0.06682 0.47364 0.53338
 N234 N -0.02998 0.46695 0.53333
 H235 H -0.00462 0.50729 0.41685
 H236 H -0.04309 0.55998 0.51972
 H237 H -0.07873 0.60632 0.48112
 H238 H -0.03994 0.55107 0.37630
 H239 H 0.01415 0.43313 0.55371
 H240 H -0.02544 0.39196 0.59441
 H241 H -0.11943 0.45713 0.55606
 H242 H -0.07827 0.49598 0.51548
 C243 C 0.07128 0.41040 0.42856
 C244 C 0.07774 0.57423 0.58101
 C245 C -0.07546 0.42187 0.57918
 C246 C -0.06216 0.58296 0.42541
 C247 C 0.55404 0.04889 0.51645
 H248 H 0.55685 0.05073 0.48513
 C249 C 0.57729 0.07031 0.54082
 H250 H 0.59776 0.08898 0.52802
 C251 C 0.52339 0.02270 0.57108
 H252 H 0.50256 0.00386 0.58275
 C253 C 0.54556 0.04424 0.59650
 H254 H 0.54157 0.04197 0.62767
 N255 N 0.52809 0.02529 0.53186
 C256 C 0.51252 -0.06012 0.43990
 H257 H 0.48325 -0.05823 0.43431
 C258 C 0.53386 -0.08500 0.41780
 H259 H 0.52099 -0.10188 0.39485
 C260 C 0.56485 -0.04083 0.47684
 H261 H 0.57688 -0.02380 0.50003
 C262 C 0.58707 -0.06590 0.45596
 H263 H 0.61617 -0.06716 0.46276
 Zn264 Zn 0.49834 -0.00357 0.49687
 N265 N 0.52836 -0.03795 0.46820
 C266 C 0.47600 0.02759 0.42324
 N267 N 0.47436 0.03145 0.46271
 C268 C 0.45611 0.06119 0.47911
 C269 C 0.43662 0.08688 0.45586
 C270 C 0.45678 0.05254 0.39889
 C271 C 0.46597 -0.07131 0.52608
 C272 C 0.44090 -0.09354 0.54692
 C273 C 0.40995 -0.03579 0.56621
 C274 C 0.43557 -0.01466 0.54492
 N275 N 0.46285 -0.03257 0.52515
 H276 H 0.49224 0.00535 0.41030
 H277 H 0.45688 0.06523 0.51033
 H278 H 0.42175 0.10998 0.46953
 H279 H 0.45877 0.04881 0.36767
 H280 H 0.48839 -0.08515 0.51133
 H281 H 0.44478 -0.12414 0.54790
 H282 H 0.38856 -0.02100 0.58192
 H283 H 0.43384 0.01608 0.54478
 C284 C 0.57154 -0.08821 0.42586
 C285 C 0.57329 0.06786 0.58143
 C286 C 0.41217 -0.07576 0.56711
 C287 C 0.43595 0.08213 0.41527
 C288 C 0.56261 0.55343 0.01384
 H289 H 0.56594 0.55145 -0.01742
 C290 C 0.58581 0.57724 0.03581
 H291 H 0.60722 0.59345 0.02139
 C292 C 0.53033 0.53498 0.07063
 H293 H 0.50841 0.51880 0.08401
 C294 C 0.55252 0.55895 0.09363
 H295 H 0.54800 0.56018 0.12476
 N296 N 0.53584 0.53254 0.03151
 C297 C 0.51404 0.44471 -0.05678
 H298 H 0.48465 0.44782 -0.06077
 C299 C 0.53326 0.41845 -0.07946
 H300 H 0.51862 0.40157 -0.10119
 C301 C 0.56887 0.46277 -0.02346
 H302 H 0.58262 0.47975 -0.00132
 C303 C 0.58903 0.43635 -0.04497
 H304 H 0.61837 0.43413 -0.03984
 Zn305 Zn 0.50452 0.50227 -0.00051
 N306 N 0.53215 0.46688 -0.03008
 C307 C 0.47994 0.53471 -0.07265
 N308 N 0.47841 0.53649 -0.03308
 C309 C 0.45846 0.56384 -0.01482
 C310 C 0.43794 0.58996 -0.03643
 C311 C 0.45972 0.56022 -0.09546
 C312 C 0.48632 0.44760 0.05525
 C313 C 0.46367 0.42539 0.07898
 C314 C 0.41078 0.45645 0.05052
 C315 C 0.43446 0.47803 0.02728
 N316 N 0.47151 0.47366 0.03047
 H317 H 0.49668 0.51347 -0.08673
 H318 H 0.45818 0.56502 0.01671
 H319 H 0.42179 0.61115 -0.02128
 H320 H 0.46057 0.55712 -0.12679
 H321 H 0.51586 0.44411 0.05652
 H322 H 0.47630 0.40447 0.09785
 H323 H 0.38134 0.46044 0.04779
 H324 H 0.42312 0.49805 0.00662
 C325 C 0.57116 0.41391 -0.07351
 C326 C 0.58059 0.58057 0.07610
 C327 C 0.42527 0.43011 0.07719
 C328 C 0.43826 0.58839 -0.07729
 C329 C 0.14773 -0.14885 -0.14451
 C330 C 0.14083 -0.15597 -0.10689
 C331 C 0.11857 -0.13031 -0.08249
 C332 C 0.08956 -0.11106 -0.09638
 H333 H 0.15432 -0.17957 -0.09243
 H334 H 0.12539 -0.12886 -0.05173
 H335 H 0.13744 -0.12285 -0.15764
 H336 H 0.08046 -0.11581 -0.12619
 C337 C 0.15031 0.34901 0.35281
 C338 C 0.14352 0.34033 0.39010
 C339 C 0.12176 0.36527 0.41571
 C340 C 0.09237 0.38464 0.40302
 H341 H 0.15685 0.31600 0.40341
 H342 H 0.12930 0.36613 0.44631
 H343 H 0.14027 0.37568 0.34092
 H344 H 0.08255 0.38046 0.37338
 C345 C 0.65410 -0.14983 0.35457
 C346 C 0.64587 -0.15805 0.39163
 C347 C 0.62303 -0.13288 0.41591
 C348 C 0.59418 -0.11370 0.40159
 H349 H 0.65851 -0.18233 0.40577
 H350 H 0.62910 -0.13191 0.44686
 H351 H 0.64468 -0.12323 0.34196
 H352 H 0.58582 -0.11805 0.37148
 C353 C 0.64765 0.34801 -0.14841
 C354 C 0.64205 0.34136 -0.11045
 C355 C 0.62084 0.36747 -0.08547
 C356 C 0.59158 0.38694 -0.09842
 H357 H 0.65606 0.31798 -0.09620
 H358 H 0.62879 0.36923 -0.05503
 H359 H 0.63687 0.37382 -0.16148
 H360 H 0.58132 0.38196 -0.12776
 C361 C -0.14323 0.15745 -0.15492
 C362 C -0.11639 0.13228 -0.16921
 C363 C -0.09338 0.10919 -0.14629
 C364 C -0.09388 0.10676 -0.10536
 H365 H -0.11223 0.12941 -0.20016
 H366 H -0.07451 0.09187 -0.16264
 H367 H -0.14576 0.16053 -0.12373
 H368 H -0.11295 0.12426 -0.08942
 C369 C -0.13775 0.65523 0.35288
 C370 C -0.10450 0.64314 0.34160
 C371 C -0.08083 0.61724 0.36472
 C372 C -0.08510 0.61020 0.40290
 H373 H -0.09394 0.65149 0.31348
 H374 H -0.05832 0.60446 0.34910
 H375 H -0.14834 0.64715 0.38105
 H376 H -0.10567 0.62555 0.41912
 C377 C 0.35828 0.15501 0.34568
 C378 C 0.37644 0.12457 0.33193
 C379 C 0.40015 0.09951 0.35594
 C380 C 0.41385 0.10880 0.39125
 H381 H 0.37229 0.11552 0.30205
 H382 H 0.40613 0.07189 0.34338
 H383 H 0.36009 0.16208 0.37634
 H384 H 0.40774 0.13626 0.40409
 C385 C 0.36064 0.66034 -0.14780
 C386 C 0.39344 0.64793 -0.16020
 C387 C 0.41791 0.62234 -0.13764
 C388 C 0.41467 0.61542 -0.09932
 H389 H 0.40297 0.65575 -0.18889
 H390 H 0.44002 0.60958 -0.15389
 H391 H 0.35108 0.65288 -0.11905
 H392 H 0.39439 0.63065 -0.08259
 C393 C -0.14748 -0.14995 0.14990
 C394 C -0.11357 -0.13384 0.16136
 C395 C -0.09127 -0.11114 0.13757
 C396 C -0.10261 -0.09450 0.10231
 H397 H -0.10192 -0.14087 0.18948
 H398 H -0.06423 -0.10463 0.14925
 H399 H -0.15595 -0.14755 0.11968
 H400 H -0.13144 -0.09608 0.09426
 C401 C -0.15791 0.34974 0.64174
 C402 C -0.15079 0.38677 0.64878
 C403 C -0.12831 0.41069 0.62267
 C404 C -0.09898 0.39727 0.60373
 H405 H -0.16363 0.40090 0.67324
 H406 H -0.13458 0.44088 0.62152
 H407 H -0.14834 0.33675 0.61499
 H408 H -0.09041 0.36802 0.60840
 C409 C 0.34348 -0.14823 0.64596
 C410 C 0.35165 -0.15711 0.60895
 C411 C 0.37752 -0.13470 0.58483
 C412 C 0.38539 -0.09759 0.59086
 H413 H 0.34136 -0.18343 0.59619
 H414 H 0.38922 -0.14951 0.56020
 H415 H 0.35671 -0.12379 0.65969
 H416 H 0.37086 -0.08196 0.61316
 C417 C 0.35190 0.35311 0.14737
 C418 C 0.38418 0.36791 0.15965
 C419 C 0.40952 0.39017 0.13476
 C420 C 0.39950 0.40751 0.10150
 H421 H 0.39410 0.36196 0.18879
 H422 H 0.43726 0.39362 0.14591
 H423 H 0.34366 0.35628 0.11718
 H424 H 0.37096 0.40683 0.09231
 C425 C 0.14729 0.15784 0.14374
 C426 C 0.15763 0.12700 0.12342
 C427 C 0.13262 0.10570 0.09692
 C428 C 0.09635 0.10225 0.10298
 H429 H 0.18612 0.11817 0.12413
 H430 H 0.14519 0.09013 0.07323
 H431 H 0.11981 0.16904 0.13974
 H432 H 0.08447 0.11442 0.12904
 C433 C 0.14956 0.64104 0.66296
 C434 C 0.11321 0.64564 0.65837
 C435 C 0.08985 0.61852 0.63608
 C436 C 0.10173 0.59995 0.60439
 H437 H 0.09948 0.66875 0.67329
 H438 H 0.06129 0.61608 0.64451
 H439 H 0.16249 0.61561 0.65148
 H440 H 0.12913 0.60574 0.59358
 C441 C 0.64540 0.14837 0.64924
 C442 C 0.65697 0.11833 0.62847
 C443 C 0.63272 0.09668 0.60152
 C444 C 0.59697 0.09026 0.60845
 H445 H 0.68587 0.11104 0.62867
 H446 H 0.64546 0.08371 0.57635
 H447 H 0.61737 0.15819 0.64565
 H448 H 0.58518 0.09968 0.63572
 C449 C 0.65424 0.64584 0.15742
 C450 C 0.61801 0.65147 0.15302
 C451 C 0.59387 0.62517 0.13063
 C452 C 0.60519 0.60604 0.09905
 H453 H 0.60488 0.67468 0.16839
 H454 H 0.56527 0.62363 0.13913
 H455 H 0.66651 0.62027 0.14546
 H456 H 0.63273 0.61091 0.08817
   
