data_POSCAR
  _audit_creation_date              2014-09-24
  _audit_creation_method            'ToBaCCo'
  _symmetry_space_group_name_H-M    'P1'
  _symmetry_Int_Tables_number       1
  _symmetry_cell_setting            triclinic
  loop_
  _symmetry_equiv_pos_as_xyz
 x,y,z
_cell_length_a 37.2792
_cell_length_b 36.9957
_cell_length_c 37.0977
_cell_angle_alpha 90.987100
_cell_angle_beta 89.546100
_cell_angle_gamma 90.746700
loop_
  _atom_site_label
  _atom_site_type_symbol
  _atom_site_fract_x
  _atom_site_fract_y
  _atom_site_fract_z
N1 N 0.30792 0.23271 0.20147
 N2 N 0.29370 0.26068 0.18583
 C3 C 0.31424 0.26979 0.15723
 C4 C 0.34276 0.24616 0.15507
 C5 C 0.33782 0.22304 0.18346
 H6 H 0.30883 0.29187 0.13944
 H7 H 0.35493 0.20092 0.19058
 Cu8 Cu 0.24985 0.28232 0.20471
 Cu9 Cu 0.28723 0.21096 0.24424
 Cu10 Cu 0.20931 0.24859 0.27848
 N11 N 0.20597 0.30324 0.22436
 N12 N 0.19044 0.28976 0.25318
 C13 C 0.16144 0.30940 0.26181
 C14 C 0.15860 0.33684 0.23713
 C15 C 0.18720 0.33201 0.21363
 H16 H 0.14405 0.30420 0.28463
 H17 H 0.19412 0.34872 0.19091
 N18 N 0.23259 0.20688 0.30028
 N19 N 0.26241 0.19271 0.28729
 C20 C 0.27193 0.16510 0.30819
 C21 C 0.24692 0.16165 0.33550
 C22 C 0.22231 0.18859 0.32978
 H23 H 0.29537 0.14860 0.30400
 H24 H 0.19885 0.19460 0.34596
 H25 H 0.23495 0.22574 0.23436
 H26 H 0.26219 0.25707 0.26357
 N27 N 0.68975 -0.23878 0.20158
 N28 N 0.70563 -0.26524 0.18392
 C29 C 0.68567 -0.27496 0.15519
 C30 C 0.65564 -0.25327 0.15478
 C31 C 0.65925 -0.23048 0.18450
 H32 H 0.69247 -0.29643 0.13634
 H33 H 0.64065 -0.20992 0.19341
 Cu34 Cu 0.75046 -0.28555 0.19993
 Cu35 Cu 0.70918 -0.21842 0.24607
 Cu36 Cu 0.78562 -0.25782 0.27949
 N37 N 0.79201 -0.30844 0.22048
 N38 N 0.80530 -0.29832 0.25183
 C39 C 0.83334 -0.31948 0.25948
 C40 C 0.83777 -0.34408 0.23115
 C41 C 0.81118 -0.33617 0.20698
 H42 H 0.84936 -0.31681 0.28357
 H43 H 0.80598 -0.35000 0.18159
 N44 N 0.76183 -0.21648 0.30348
 N45 N 0.73271 -0.20153 0.29069
 C46 C 0.72313 -0.17387 0.31265
 C47 C 0.74743 -0.17129 0.34060
 C48 C 0.77161 -0.19860 0.33388
 H49 H 0.70048 -0.15660 0.30829
 H50 H 0.79474 -0.20474 0.34995
 H51 H 0.76240 -0.23160 0.23701
 H52 H 0.73392 -0.26585 0.26077
 N53 N 0.70281 0.22989 0.79550
 N54 N 0.71750 0.25903 0.81015
 C55 C 0.70081 0.26647 0.84169
 C56 C 0.67452 0.24051 0.84717
 C57 C 0.67649 0.21763 0.81732
 H58 H 0.70688 0.28931 0.85927
 H59 H 0.65965 0.19430 0.81149
 Cu60 Cu 0.75638 0.28490 0.78626
 Cu61 Cu 0.71823 0.21072 0.74881
 Cu62 Cu 0.78716 0.25691 0.70518
 N63 N 0.79436 0.31102 0.76122
 N64 N 0.80633 0.30006 0.72950
 C65 C 0.83274 0.32264 0.71860
 C66 C 0.83749 0.34923 0.74505
 C67 C 0.81267 0.34099 0.77157
 H68 H 0.84747 0.31958 0.69355
 H69 H 0.80854 0.35573 0.79665
 N70 N 0.76415 0.21271 0.68507
 N71 N 0.73759 0.19551 0.70149
 C72 C 0.72780 0.16649 0.68131
 C73 C 0.74931 0.16530 0.65080
 C74 C 0.77208 0.19487 0.65411
 H75 H 0.70711 0.14723 0.68867
 H76 H 0.79307 0.20253 0.63537
 H77 H 0.77030 0.23056 0.75101
 H78 H 0.73672 0.25945 0.72857
 N79 N 0.30265 -0.22067 0.79025
 N80 N 0.29045 -0.25098 0.80403
 C81 C 0.30943 -0.25819 0.83381
 C82 C 0.33463 -0.23073 0.83882
 C83 C 0.32942 -0.20740 0.81085
 H84 H 0.30511 -0.28144 0.85064
 H85 H 0.34452 -0.18288 0.80559
 Cu86 Cu 0.25059 -0.27756 0.78191
 Cu87 Cu 0.28435 -0.20133 0.74581
 Cu88 Cu 0.21269 -0.24658 0.70629
 N89 N 0.20882 -0.30133 0.76031
 N90 N 0.19443 -0.28919 0.73071
 C91 C 0.16614 -0.31027 0.72164
 C92 C 0.16248 -0.33712 0.74706
 C93 C 0.18998 -0.33056 0.77121
 H94 H 0.14939 -0.30593 0.69851
 H95 H 0.19570 -0.34598 0.79495
 N96 N 0.23493 -0.20293 0.68570
 N97 N 0.26241 -0.18583 0.70074
 C98 C 0.27176 -0.15738 0.68041
 C99 C 0.24899 -0.15652 0.65120
 C100 C 0.22592 -0.18564 0.65547
 H101 H 0.29328 -0.13851 0.68662
 H102 H 0.20422 -0.19356 0.63774
 H103 H 0.23290 -0.22231 0.75239
 H104 H 0.26477 -0.24970 0.72430
 N105 N 0.68903 -0.23508 0.79570
 N106 N 0.70302 -0.26469 0.80838
 C107 C 0.68323 -0.27586 0.83670
 C108 C 0.65541 -0.25207 0.84209
 C109 C 0.65985 -0.22644 0.81555
 H110 H 0.68849 -0.29958 0.85235
 H111 H 0.64315 -0.20334 0.81087
 Cu112 Cu 0.74565 -0.28586 0.78657
 Cu113 Cu 0.70966 -0.21025 0.75424
 Cu114 Cu 0.78602 -0.24760 0.71537
 N115 N 0.78873 -0.30629 0.76493
 N116 N 0.80416 -0.29144 0.73674
 C117 C 0.83275 -0.31114 0.72663
 C118 C 0.83545 -0.33989 0.74993
 C119 C 0.80718 -0.33584 0.77392
 H120 H 0.85024 -0.30475 0.70418
 H121 H 0.80048 -0.35339 0.79608
 N122 N 0.76378 -0.20335 0.69757
 N123 N 0.73460 -0.18922 0.71214
 C124 C 0.72575 -0.15973 0.69346
 C125 C 0.75058 -0.15501 0.66605
 C126 C 0.77430 -0.18317 0.66941
 H127 H 0.70282 -0.14291 0.69915
 H128 H 0.79718 -0.18891 0.65230
 H129 H 0.73283 -0.25508 0.73055
 H130 H 0.76147 -0.22722 0.76160
 N131 N 0.30559 0.25157 0.79976
 N132 N 0.28974 0.28029 0.81342
 C133 C 0.30949 0.29391 0.84078
 C134 C 0.33907 0.27239 0.84478
 C135 C 0.33584 0.24570 0.81828
 H136 H 0.30269 0.31751 0.85689
 H137 H 0.35420 0.22390 0.81262
 Cu138 Cu 0.24433 0.29673 0.79515
 Cu139 Cu 0.28604 0.22466 0.75853
 Cu140 Cu 0.21099 0.26061 0.71855
 N141 N 0.20587 0.31958 0.76954
 N142 N 0.19290 0.30549 0.73953
 C143 C 0.16620 0.32640 0.72790
 C144 C 0.16236 0.35511 0.75202
 C145 C 0.18791 0.34989 0.77807
 H146 H 0.15051 0.32075 0.70404
 H147 H 0.19280 0.36680 0.80164
 N148 N 0.23338 0.21544 0.70151
 N149 N 0.26205 0.20178 0.71658
 C150 C 0.27111 0.17128 0.69853
 C151 C 0.24692 0.16541 0.67100
 C152 C 0.22336 0.19394 0.67362
 H153 H 0.29371 0.15453 0.70478
 H154 H 0.20091 0.19899 0.65626
 H155 H 0.26239 0.27000 0.73764
 H156 H 0.23288 0.23899 0.76434
 N157 N 0.31081 -0.24160 0.21782
 N158 N 0.29981 -0.27476 0.21030
 C159 C 0.31846 -0.28758 0.18169
 C160 C 0.34230 -0.26099 0.17065
 C161 C 0.33679 -0.23217 0.19429
 H162 H 0.31449 -0.31403 0.16935
 H163 H 0.35026 -0.20613 0.19427
 Cu164 Cu 0.26103 -0.29767 0.23729
 Cu165 Cu 0.29003 -0.21266 0.25677
 Cu166 Cu 0.21038 -0.24523 0.29202
 N167 N 0.21359 -0.31300 0.25357
 N168 N 0.19295 -0.29121 0.27261
 C169 C 0.16105 -0.30757 0.27842
 C170 C 0.16202 -0.34162 0.26283
 C171 C 0.19574 -0.34435 0.24723
 H172 H 0.13913 -0.29605 0.29382
 H173 H 0.20618 -0.36706 0.23190
 N174 N 0.23289 -0.19972 0.30871
 N175 N 0.26390 -0.18769 0.29604
 C176 C 0.27375 -0.15780 0.31494
 C177 C 0.24758 -0.15090 0.34078
 C178 C 0.22212 -0.17786 0.33593
 H179 H 0.29842 -0.14276 0.31068
 H180 H 0.19816 -0.18192 0.35206
 H181 H 0.26532 -0.25324 0.28624
 H182 H 0.24092 -0.23618 0.24591
 N183 N 0.69512 0.23212 0.20900
 N184 N 0.70766 0.26342 0.19790
 C185 C 0.68843 0.27379 0.16935
 C186 C 0.66267 0.24757 0.16209
 C187 C 0.66764 0.22146 0.18786
 H188 H 0.69299 0.29837 0.15456
 H189 H 0.65261 0.19653 0.19098
 Cu190 Cu 0.74836 0.28691 0.22147
 Cu191 Cu 0.71570 0.20733 0.24977
 Cu192 Cu 0.78821 0.24909 0.29226
 N193 N 0.78865 0.31043 0.24568
 N194 N 0.80424 0.29548 0.27330
 C195 C 0.83182 0.31671 0.28424
 C196 C 0.83352 0.34661 0.26228
 C197 C 0.80578 0.34171 0.23820
 H198 H 0.84967 0.31044 0.30602
 H199 H 0.79911 0.35941 0.21643
 N200 N 0.76788 0.20216 0.30741
 N201 N 0.74007 0.18650 0.29142
 C202 C 0.73208 0.15543 0.30829
 C203 C 0.75601 0.15119 0.33601
 C204 C 0.77838 0.18132 0.33476
 H205 H 0.71032 0.13715 0.30115
 H206 H 0.80032 0.18783 0.35269
 H207 H 0.73561 0.25314 0.27601
 H208 H 0.76697 0.22893 0.24475
 O209 O 0.21914 0.04816 0.46852
 O210 O 0.21691 -0.02446 0.53510
 O211 O 0.21938 0.04603 0.53855
 O212 O 0.21717 -0.02194 0.46499
 O213 O 0.27640 -0.02293 0.46435
 O214 O 0.27859 0.04502 0.53805
 O215 O 0.27613 -0.02536 0.53458
 O216 O 0.27837 0.04711 0.46792
 Cu217 Cu 0.21219 0.01204 0.50193
 Cu218 Cu 0.28334 0.01081 0.50125
 C219 C 0.24913 0.05985 0.45673
 C220 C 0.24615 -0.03725 0.54623
 C221 C 0.24936 0.05724 0.55074
 C222 C 0.24639 -0.03381 0.45195
 O223 O 0.72276 0.03107 0.53317
 O224 O 0.72251 -0.04081 0.46302
 O225 O 0.72072 -0.03925 0.53339
 O226 O 0.72218 0.02962 0.46300
 O227 O 0.78142 0.03003 0.46305
 O228 O 0.77995 -0.03933 0.53357
 O229 O 0.78174 -0.04066 0.46316
 O230 O 0.78200 0.03111 0.53304
 Cu231 Cu 0.71611 -0.00491 0.49811
 Cu232 Cu 0.78721 -0.00479 0.49816
 C233 C 0.75251 0.04335 0.54500
 C234 C 0.75217 -0.05293 0.45110
 C235 C 0.74997 -0.05097 0.54558
 C236 C 0.75192 0.04178 0.45121
 O237 O 0.47062 0.21042 0.03268
 O238 O 0.54506 0.21108 -0.03324
 O239 O 0.54033 0.21370 0.03697
 O240 O 0.47581 0.20600 -0.03728
 O241 O 0.47263 0.26552 -0.03916
 O242 O 0.53796 0.27323 0.03500
 O243 O 0.54231 0.27061 -0.03527
 O244 O 0.46813 0.26996 0.03059
 Cu245 Cu 0.50827 0.20434 0.00008
 Cu246 Cu 0.50509 0.27582 -0.00239
 C247 C 0.45655 0.24006 0.04268
 C248 C 0.55614 0.24104 -0.04570
 C249 C 0.55019 0.24470 0.04867
 C250 C 0.46312 0.23433 -0.05080
 O251 O 0.53329 0.71156 0.03381
 O252 O 0.45874 0.70143 -0.03002
 O253 O 0.52841 0.70782 -0.03595
 O254 O 0.46386 0.70586 0.03981
 O255 O 0.45929 0.76522 0.03758
 O256 O 0.52443 0.76727 -0.03758
 O257 O 0.45476 0.76083 -0.03252
 O258 O 0.52870 0.77098 0.03250
 Cu259 Cu 0.49650 0.70072 0.00206
 Cu260 Cu 0.49129 0.77205 -0.00028
 C261 C 0.54367 0.74288 0.04412
 C262 C 0.44407 0.72939 -0.04220
 C263 C 0.53764 0.73787 -0.04949
 C264 C 0.45065 0.73524 0.05166
 O265 O 0.03168 0.46475 0.21690
 O266 O -0.03468 0.53703 0.23163
 O267 O 0.03417 0.53534 0.22095
 O268 O -0.03792 0.46684 0.22508
 O269 O -0.03181 0.46404 0.28413
 O270 O 0.04332 0.52981 0.27937
 O271 O -0.02588 0.53453 0.29032
 O272 O 0.03720 0.46016 0.27584
 Cu273 Cu -0.00243 0.50133 0.21773
 Cu274 Cu 0.00631 0.49685 0.28834
 C275 C 0.04553 0.44994 0.24406
 C276 C -0.04125 0.54832 0.26355
 C277 C 0.05134 0.54385 0.24927
 C278 C -0.04730 0.45386 0.25519
 O279 O 0.03344 0.54329 0.72424
 O280 O -0.03623 0.47204 0.72268
 O281 O -0.03629 0.54264 0.72424
 O282 O 0.03354 0.47296 0.72415
 O283 O 0.03254 0.47357 0.78369
 O284 O -0.03737 0.54279 0.78376
 O285 O -0.03727 0.47231 0.78220
 O286 O 0.03261 0.54385 0.78377
 Cu287 Cu -0.00132 0.50769 0.71784
 Cu288 Cu -0.00252 0.50818 0.78933
 C289 C 0.04494 0.55572 0.75417
 C290 C -0.04852 0.45988 0.75217
 C291 C -0.04863 0.55467 0.75409
 C292 C 0.04493 0.46144 0.75399
 C293 C 0.37273 0.24483 0.12902
 C294 C 0.37760 0.26947 0.10337
 C295 C 0.40807 0.26907 0.07763
 C296 C 0.42651 0.23930 0.06863
 H297 H 0.35957 0.29207 0.10187
 H298 H 0.41454 0.29437 0.06467
 H299 H 0.39175 0.22329 0.13210
 H300 H 0.41905 0.21336 0.07963
 C301 C 0.62698 0.74596 0.13065
 C302 C 0.62405 0.72122 0.10389
 C303 C 0.59347 0.71879 0.07891
 C304 C 0.57338 0.74695 0.06986
 H305 H 0.64367 0.70008 0.10094
 H306 H 0.58860 0.69263 0.06617
 H307 H 0.60605 0.76566 0.13479
 H308 H 0.57936 0.77375 0.08053
 C309 C 0.64892 0.23980 -0.12240
 C310 C 0.62569 0.21239 -0.11732
 C311 C 0.59849 0.21198 -0.08812
 C312 C 0.58508 0.24205 -0.07285
 H313 H 0.62682 0.18862 -0.13467
 H314 H 0.58750 0.18584 -0.08081
 H315 H 0.64969 0.26254 -0.10367
 H316 H 0.59417 0.26842 -0.08153
 C317 C 0.36198 0.77376 -0.13301
 C318 C 0.37154 0.74697 -0.11159
 C319 C 0.40042 0.75258 -0.08515
 C320 C 0.41438 0.72476 -0.06786
 H321 H 0.35897 0.72051 -0.11432
 H322 H 0.41099 0.77969 -0.08052
 H323 H 0.37579 0.79967 -0.13094
 H324 H 0.40433 0.69759 -0.07329
 C325 C 0.13215 0.36620 0.23653
 C326 C 0.10919 0.37182 0.26399
 C327 C 0.08361 0.40188 0.26659
 C328 C 0.07155 0.42059 0.23861
 H329 H 0.11022 0.35483 0.28737
 H330 H 0.07329 0.40780 0.29340
 H331 H 0.13292 0.38423 0.21388
 H332 H 0.08004 0.41398 0.21136
 C333 C 0.13680 0.63505 0.74903
 C334 C 0.11176 0.62939 0.72366
 C335 C 0.08456 0.60004 0.72465
 C336 C 0.07289 0.58424 0.75489
 H337 H 0.11173 0.64573 0.69976
 H338 H 0.07244 0.59249 0.69911
 H339 H 0.13810 0.61720 0.77178
 H340 H 0.08314 0.59287 0.78090
 C341 C -0.13699 0.62863 0.22640
 C342 C -0.11303 0.61988 0.25133
 C343 C -0.08739 0.59058 0.24403
 C344 C -0.06678 0.57782 0.27010
 H345 H -0.11256 0.63367 0.27732
 H346 H -0.08583 0.57889 0.21706
 H347 H -0.13741 0.61351 0.20110
 H348 H -0.06908 0.58891 0.29725
 C349 C -0.13795 0.37809 0.74644
 C350 C -0.11432 0.38514 0.71991
 C351 C -0.08767 0.41511 0.72137
 C352 C -0.07603 0.43093 0.75201
 H353 H -0.11474 0.36912 0.69524
 H354 H -0.07604 0.42320 0.69586
 H355 H -0.13871 0.39537 0.77026
 H356 H -0.08587 0.42197 0.77791
 C357 C 0.24760 0.13465 0.36416
 C358 C 0.22119 0.13116 0.38860
 C359 C 0.22087 0.10354 0.41688
 C360 C 0.25053 0.08815 0.42940
 H361 H 0.19768 0.14788 0.38702
 H362 H 0.19497 0.09644 0.42836
 H363 H 0.27019 0.11660 0.36415
 H364 H 0.27677 0.09635 0.41964
 C365 C 0.74965 0.13795 0.62142
 C366 C 0.72391 0.11252 0.61790
 C367 C 0.72365 0.08448 0.58904
 C368 C 0.75343 0.07217 0.57284
 H369 H 0.70100 0.11275 0.63598
 H370 H 0.69790 0.07227 0.58246
 H371 H 0.77134 0.13952 0.60192
 H372 H 0.77951 0.08261 0.58076
 C373 C 0.24817 -0.13012 0.62193
 C374 C 0.27453 -0.10567 0.61705
 C375 C 0.27462 -0.07834 0.58851
 C376 C 0.24486 -0.06603 0.57312
 H377 H 0.29808 -0.10612 0.63387
 H378 H 0.30042 -0.06645 0.58158
 H379 H 0.22566 -0.13161 0.60371
 H380 H 0.21870 -0.07613 0.58121
 C381 C 0.74877 -0.14483 0.37081
 C382 C 0.72243 -0.12118 0.37731
 C383 C 0.72286 -0.09391 0.40694
 C384 C 0.75282 -0.08141 0.42286
 H385 H 0.69851 -0.12223 0.36099
 H386 H 0.69726 -0.08240 0.41451
 H387 H 0.77182 -0.14559 0.38828
 H388 H 0.77881 -0.09121 0.41435
 C389 C 0.62761 0.74525 -0.12951
 C390 C 0.60219 0.77018 -0.12441
 C391 C 0.57474 0.76861 -0.09538
 C392 C 0.56434 0.73811 -0.07901
 H393 H 0.60226 0.79397 -0.14095
 H394 H 0.56201 0.79385 -0.08801
 H395 H 0.62905 0.72236 -0.11186
 H396 H 0.57539 0.71237 -0.08734
 C397 C 0.36726 0.27764 -0.12794
 C398 C 0.39089 0.25207 -0.12044
 C399 C 0.41766 0.25780 -0.09185
 C400 C 0.43709 0.23030 -0.08025
 H401 H 0.38982 0.22623 -0.13461
 H402 H 0.42074 0.28444 -0.07952
 H403 H 0.36764 0.30288 -0.11265
 H404 H 0.43297 0.20353 -0.09196
 C405 C 0.36723 0.73655 0.13962
 C406 C 0.38704 0.76490 0.12871
 C407 C 0.41191 0.76424 0.09745
 C408 C 0.42514 0.73407 0.08217
 H409 H 0.38429 0.79077 0.14241
 H410 H 0.42066 0.79032 0.08758
 H411 H 0.36825 0.71097 0.12515
 H412 H 0.41812 0.70777 0.09259
 C413 C 0.63638 0.24814 0.13257
 C414 C 0.61439 0.22007 0.12517
 C415 C 0.58852 0.21880 0.09513
 C416 C 0.57618 0.24793 0.07836
 H417 H 0.61623 0.19572 0.14074
 H418 H 0.57839 0.19222 0.08741
 H419 H 0.63624 0.27195 0.11606
 H420 H 0.58458 0.27486 0.08673
 C421 C -0.13931 0.63250 0.75031
 C422 C -0.11350 0.62870 0.72510
 C423 C -0.08676 0.59951 0.72508
 C424 C -0.07626 0.58276 0.75490
 H425 H -0.11244 0.64656 0.70232
 H426 H -0.07395 0.59306 0.69950
 H427 H -0.14168 0.61308 0.77173
 H428 H -0.08715 0.59049 0.78100
 C429 C -0.14013 0.37666 0.26208
 C430 C -0.11400 0.38026 0.28654
 C431 C -0.08619 0.40918 0.28578
 C432 C -0.07640 0.42661 0.25580
 H433 H -0.11297 0.36175 0.30875
 H434 H -0.07192 0.41467 0.31064
 H435 H -0.14272 0.39625 0.24098
 H436 H -0.08892 0.41991 0.23030
 C437 C 0.13609 0.38449 0.75203
 C438 C 0.11311 0.38915 0.72495
 C439 C 0.08589 0.41786 0.72481
 C440 C 0.07281 0.43370 0.75482
 H441 H 0.11470 0.37200 0.70110
 H442 H 0.07507 0.42480 0.69886
 H443 H 0.13627 0.40287 0.77502
 H444 H 0.08187 0.42564 0.78108
 C445 C 0.13280 0.63140 0.26329
 C446 C 0.13906 0.59598 0.26489
 C447 C 0.10957 0.56928 0.26769
 C448 C 0.08054 0.57069 0.24686
 H449 H 0.16631 0.58650 0.26716
 H450 H 0.11288 0.54687 0.28574
 H451 H 0.10551 0.64109 0.26499
 H452 H 0.07898 0.59098 0.22622
 C453 C 0.75031 -0.12639 0.63879
 C454 C 0.77732 -0.12152 0.61517
 C455 C 0.77798 -0.09332 0.58733
 C456 C 0.74847 -0.07830 0.57402
 H457 H 0.80102 -0.13796 0.61682
 H458 H 0.80401 -0.08605 0.57628
 H459 H 0.72750 -0.10862 0.63895
 H460 H 0.72216 -0.08670 0.58343
 C461 C 0.24672 -0.12282 0.36937
 C462 C 0.27410 -0.09977 0.37557
 C463 C 0.27448 -0.07266 0.40535
 C464 C 0.24489 -0.06054 0.42217
 H465 H 0.29831 -0.10176 0.35942
 H466 H 0.30047 -0.06167 0.41296
 H467 H 0.22318 -0.12251 0.38656
 H468 H 0.21855 -0.06963 0.41368
 C469 C 0.75573 0.12116 0.36166
 C470 C 0.78144 0.11691 0.38625
 C471 C 0.78135 0.08734 0.41265
 C472 C 0.75152 0.06997 0.42365
 H473 H 0.80443 0.13507 0.38661
 H474 H 0.80680 0.08117 0.42485
 H475 H 0.73382 0.10182 0.35952
 H476 H 0.72560 0.07740 0.41341
 C477 C 0.24767 0.13554 0.64418
 C478 C 0.22108 0.12971 0.62058
 C479 C 0.22100 0.10064 0.59276
 C480 C 0.25069 0.08484 0.57979
 H481 H 0.19735 0.14620 0.62207
 H482 H 0.19521 0.09349 0.58123
 H483 H 0.27049 0.11780 0.64456
 H484 H 0.27687 0.09299 0.58961
   
