data_POSCAR
  _audit_creation_date              2014-09-24
  _audit_creation_method            'ToBaCCo'
  _symmetry_space_group_name_H-M    'P1'
  _symmetry_Int_Tables_number       1
  _symmetry_cell_setting            triclinic
  loop_
  _symmetry_equiv_pos_as_xyz
 x,y,z
_cell_length_a 53.7598
_cell_length_b 54.0442
_cell_length_c 18.7711
_cell_angle_alpha 90.421800
_cell_angle_beta 89.973900
_cell_angle_gamma 119.194400
loop_
  _atom_site_label
  _atom_site_type_symbol
  _atom_site_fract_x
  _atom_site_fract_y
  _atom_site_fract_z
C1 C 0.17738 0.44947 0.43599
 C2 C 0.16625 0.44963 0.50369
 C3 C 0.18008 0.44974 0.56722
 C4 C 0.20627 0.44928 0.56256
 C5 C 0.21794 0.44882 0.49470
 C6 C 0.20318 0.44826 0.43128
 C7 C 0.21549 0.44794 0.36513
 C8 C 0.24125 0.44790 0.36102
 C9 C 0.25648 0.44898 0.42261
 C10 C 0.24469 0.44921 0.49025
 C11 C 0.22041 0.44766 0.62385
 C12 C 0.24625 0.44785 0.61943
 C13 C 0.25958 0.44991 0.55346
 C14 C 0.28681 0.45157 0.54887
 C15 C 0.29776 0.45118 0.48097
 C16 C 0.28309 0.44965 0.41818
 H17 H 0.20583 0.44800 0.31490
 H18 H 0.24906 0.44708 0.30845
 H19 H 0.21147 0.44545 0.67645
 H20 H 0.25504 0.44557 0.66904
 H21 H 0.14647 0.45019 0.50677
 H22 H 0.31917 0.45447 0.47561
 C23 C 0.53934 -0.28660 0.43857
 C24 C 0.54009 -0.29862 0.50374
 C25 C 0.54123 -0.28549 0.56950
 C26 C 0.54112 -0.25914 0.56899
 C27 C 0.53965 -0.24695 0.50306
 C28 C 0.53891 -0.26070 0.43782
 C29 C 0.53845 -0.24788 0.37331
 C30 C 0.53817 -0.22231 0.37252
 C31 C 0.53836 -0.20841 0.43620
 C32 C 0.53940 -0.22066 0.50220
 C33 C 0.54395 -0.24379 0.63209
 C34 C 0.54373 -0.21823 0.63123
 C35 C 0.54056 -0.20655 0.56726
 C36 C 0.54008 -0.18046 0.56632
 C37 C 0.53921 -0.16880 0.50020
 C38 C 0.53828 -0.18224 0.43541
 H39 H 0.53873 -0.25723 0.32239
 H40 H 0.53830 -0.21337 0.32108
 H41 H 0.54730 -0.25067 0.68327
 H42 H 0.54707 -0.20745 0.68187
 H43 H 0.53775 -0.31967 0.50250
 H44 H 0.53688 -0.15001 0.49872
 C45 C 1.27219 0.83091 0.42727
 C46 C 1.28358 0.84213 0.49484
 C47 C 1.27034 0.82861 0.55871
 C48 C 1.24411 0.80262 0.55419
 C49 C 1.23214 0.79078 0.48638
 C50 C 1.24593 0.80516 0.42301
 C51 C 1.23235 0.79394 0.35705
 C52 C 1.20704 0.76849 0.35277
 C53 C 1.19376 0.75314 0.41415
 C54 C 1.20601 0.76457 0.48182
 C55 C 1.22866 0.78871 0.61551
 C56 C 1.20344 0.76311 0.61099
 C57 C 1.19208 0.75001 0.54487
 C58 C 1.16651 0.72348 0.54002
 C59 C 1.15518 0.71271 0.47208
 C60 C 1.16811 0.72706 0.40949
 H61 H 1.24049 0.80491 0.30744
 H62 H 1.19773 0.76128 0.30047
 H63 H 1.23521 0.79762 0.66826
 H64 H 1.19261 0.75434 0.66057
 H65 H 1.30478 0.86011 0.49739
 H66 H 1.13722 0.69159 0.46658
 C67 C 0.73215 0.55551 0.43183
 C68 C 0.71843 0.55619 0.49458
 C69 C 0.73003 0.55726 0.56253
 C70 C 0.75692 0.55816 0.56709
 C71 C 0.77099 0.55709 0.50391
 C72 C 0.75865 0.55601 0.43625
 C73 C 0.77344 0.55602 0.37449
 C74 C 0.79916 0.55592 0.37876
 C75 C 0.81138 0.55601 0.44498
 C76 C 0.79757 0.55724 0.50828
 C77 C 0.77089 0.56143 0.63278
 C78 C 0.79683 0.56171 0.63700
 C79 C 0.81027 0.55869 0.57579
 C80 C 0.83663 0.55845 0.57977
 C81 C 0.84951 0.55684 0.51594
 C82 C 0.83733 0.55542 0.44917
 H83 H 0.76555 0.55650 0.32184
 H84 H 0.80959 0.55629 0.32917
 H85 H 0.76258 0.56472 0.68215
 H86 H 0.80639 0.56512 0.68925
 H87 H 0.69716 0.55341 0.48977
 H88 H 0.86813 0.55410 0.51795
 C89 C 0.43052 0.26831 0.58347
 C90 C 0.43625 0.28413 0.52122
 C91 C 0.44144 0.27471 0.45614
 C92 C 0.44129 0.24845 0.45320
 C93 C 0.43576 0.23211 0.51613
 C94 C 0.43027 0.24208 0.58127
 C95 C 0.42436 0.22546 0.64246
 C96 C 0.42495 0.20007 0.64084
 C97 C 0.43173 0.19025 0.57796
 C98 C 0.43619 0.20600 0.51427
 C99 C 0.44641 0.23802 0.38928
 C100 C 0.44661 0.21233 0.38726
 C101 C 0.44159 0.19601 0.44904
 C102 C 0.44254 0.17033 0.44786
 C103 C 0.43761 0.15486 0.51074
 C104 C 0.43316 0.16467 0.57650
 H105 H 0.41890 0.23177 0.69234
 H106 H 0.41932 0.18806 0.68956
 H107 H 0.45021 0.24956 0.34001
 H108 H 0.45091 0.20548 0.33667
 H109 H 0.43853 0.30516 0.52452
 H110 H 0.43930 0.13573 0.50825
 C111 C 0.81683 0.28250 0.43303
 C112 C 0.83041 0.29492 0.49746
 C113 C 0.81946 0.28202 0.56309
 C114 C 0.79391 0.25573 0.56457
 C115 C 0.77952 0.24296 0.49998
 C116 C 0.79109 0.25638 0.43397
 C117 C 0.77696 0.24299 0.37052
 C118 C 0.75168 0.21738 0.37171
 C119 C 0.73943 0.20401 0.43639
 C120 C 0.75358 0.21665 0.50132
 C121 C 0.78278 0.24149 0.62884
 C122 C 0.75764 0.21569 0.63022
 C123 C 0.74207 0.20302 0.56738
 C124 C 0.71606 0.17668 0.56816
 C125 C 0.70252 0.16491 0.50259
 C126 C 0.71369 0.17804 0.43741
 H127 H 0.78544 0.25192 0.31896
 H128 H 0.74211 0.20800 0.32091
 H129 H 0.79371 0.24984 0.67898
 H130 H 0.75122 0.20577 0.68159
 H131 H 0.84920 0.31569 0.49655
 H132 H 0.68170 0.14623 0.50166
 O133 O 0.99532 0.52831 -0.10443
 O134 O 1.03568 0.53143 0.12735
 O135 O 0.95401 0.49866 0.06874
 O136 O 1.04529 0.54800 -0.09880
 O137 O 0.98481 0.49934 0.14814
 O138 O 1.02545 0.51821 -0.18743
 O139 O 1.04585 0.55673 0.03031
 O140 O 0.95354 0.49840 -0.06606
 C141 C 0.96975 0.52126 -0.09683
 C142 C 1.04363 0.55496 0.09687
 C143 C 0.96434 0.50358 0.13089
 C144 C 1.04534 0.54300 -0.16517
 O145 O 1.01934 0.47609 -0.11560
 O146 O 0.99129 0.45476 0.11106
 O147 O 0.95520 0.44896 -0.06145
 O148 O 1.06870 0.52501 0.05391
 O149 O 1.03947 0.48359 0.08172
 O150 O 0.97491 0.47670 -0.14899
 O151 O 1.05959 0.50704 -0.07161
 O152 O 0.95180 0.45003 0.06936
 Co153 Co 1.00782 0.50222 -0.10531
 Co154 Co 1.01274 0.49313 0.10749
 Co155 Co 0.95841 0.47639 0.00119
 Co156 Co 1.04997 0.53041 -0.02015
 O157 O 1.00498 0.49854 0.00066
 C158 C 1.04493 0.48404 -0.10460
 C159 C 0.96505 0.44068 0.10471
 C160 C 0.95849 0.45247 -0.12682
 C161 C 1.06438 0.50218 0.07831
 O162 O 0.50718 0.45666 -0.12179
 O163 O 0.46930 0.46597 0.10914
 O164 O 0.50503 0.45103 0.10063
 O165 O 0.46107 0.50219 -0.06990
 O166 O 0.51157 0.47889 0.18996
 O167 O 0.47149 0.47350 -0.13211
 O168 O 0.45738 0.49566 0.06296
 O169 O 0.49665 0.43816 -0.01906
 C170 C 0.49344 0.43536 -0.08418
 C171 C 0.45065 0.47301 0.09691
 C172 C 0.51072 0.45591 0.16612
 C173 C 0.45480 0.48278 -0.11650
 O174 O 0.51213 0.52486 -0.14229
 O175 O 0.54310 0.52223 0.11464
 O176 O 0.55107 0.47858 -0.05348
 O177 O 0.51082 0.54397 0.07223
 O178 O 0.49608 0.51591 0.15741
 O179 O 0.54809 0.51032 -0.11634
 O180 O 0.51234 0.54899 -0.05074
 O181 O 0.55775 0.49510 0.06977
 Co182 Co 0.50968 0.49156 -0.11610
 Co183 Co 0.50682 0.49354 0.10765
 Co184 Co 0.52614 0.46840 0.02232
 Co185 Co 0.48702 0.52023 0.00414
 O186 O 0.50745 0.49506 -0.00057
 C187 C 0.51699 0.54776 -0.11486
 C188 C 0.56300 0.51731 0.10303
 C189 C 0.56240 0.49960 -0.09416
 C190 C 0.50483 0.54028 0.13622
 O191 O 0.52447 0.02967 -0.14760
 O192 O 0.49006 -0.03385 0.14085
 O193 O 0.54291 0.05057 0.06517
 O194 O 0.49225 -0.05543 -0.07094
 O195 O 0.53297 0.01159 0.11810
 O196 O 0.52170 -0.01632 -0.12319
 O197 O 0.50067 -0.04995 0.05140
 O198 O 0.54854 0.04446 -0.05453
 C199 C 0.54822 0.04226 -0.11963
 C200 C 0.50124 -0.04733 0.11651
 C201 C 0.55059 0.03638 0.10340
 C202 C 0.51452 -0.04120 -0.10738
 O203 O 0.46652 -0.04025 -0.14101
 O204 O 0.50120 0.03633 0.13008
 O205 O 0.49838 0.04725 -0.08699
 O206 O 0.44788 -0.05167 0.07397
 O207 O 0.45826 -0.01030 0.11616
 O208 O 0.46908 0.00627 -0.13131
 O209 O 0.44172 -0.05198 -0.04923
 O210 O 0.48927 0.04618 0.03337
 Co211 Co 0.49547 -0.00479 -0.12223
 Co212 Co 0.49563 0.00065 0.11212
 Co213 Co 0.51766 0.04284 -0.01030
 Co214 Co 0.47279 -0.04791 0.00071
 O215 O 0.49542 -0.00230 -0.00500
 C216 C 0.44254 -0.05133 -0.11461
 C217 C 0.49033 0.04868 0.09834
 C218 C 0.47581 0.03144 -0.12101
 C219 C 0.44055 -0.03572 0.10671
 C220 C 1.16265 0.45089 0.37505
 C221 C 1.14733 0.46564 0.37512
 C222 C 1.13249 0.46795 0.31174
 C223 C 1.13106 0.49289 0.30213
 C224 C 1.11576 0.49531 0.24526
 C225 C 1.10120 0.47256 0.19743
 C226 C 1.10254 0.44752 0.20708
 C227 C 1.11834 0.44529 0.26345
 C228 C 1.08226 0.47367 0.14229
 C229 C 1.08730 0.49910 0.11177
 H230 H 1.14880 0.47873 0.42066
 H231 H 1.14155 0.51046 0.33929
 H232 H 1.11438 0.51456 0.24074
 H233 H 1.09103 0.42957 0.17157
 H234 H 1.11859 0.42556 0.27073
 H235 H 1.06284 0.45432 0.12929
 H236 H 1.16462 0.44235 0.32459
 H237 H 1.10778 0.51798 0.11882
 C238 C 0.53695 0.69716 0.37246
 C239 C 0.55220 0.68256 0.36442
 C240 C 0.54533 0.66037 0.30985
 C241 C 0.55075 0.63813 0.32570
 C242 C 0.54289 0.61564 0.27799
 C243 C 0.52970 0.61513 0.21299
 C244 C 0.52554 0.63802 0.19543
 C245 C 0.53308 0.66043 0.24371
 C246 C 0.52074 0.59120 0.16259
 C247 C 0.51116 0.56361 0.18592
 H248 H 0.56760 0.68512 0.40512
 H249 H 0.56051 0.63784 0.37595
 H250 H 0.54733 0.59877 0.29191
 H251 H 0.51592 0.63828 0.14493
 H252 H 0.52941 0.67770 0.22900
 H253 H 0.52081 0.59521 0.10608
 H254 H 0.52138 0.69494 0.33285
 H255 H 0.50852 0.55893 0.24229
 C256 C 0.28836 -0.15596 0.36572
 C257 C 0.30892 -0.12730 0.36249
 C258 C 0.32827 -0.11511 0.30121
 C259 C 0.33735 -0.13120 0.26076
 C260 C 0.35773 -0.11843 0.20742
 C261 C 0.36959 -0.08936 0.19374
 C262 C 0.35952 -0.07357 0.23224
 C263 C 0.33932 -0.08630 0.28599
 C264 C 0.39353 -0.07620 0.14269
 C265 C 0.41278 -0.04721 0.14182
 H266 H 0.31008 -0.11287 0.40435
 H267 H 0.32971 -0.15335 0.27211
 H268 H 0.36505 -0.13110 0.17863
 H269 H 0.36728 -0.05135 0.22212
 H270 H 0.33251 -0.07354 0.31627
 H271 H 0.39826 -0.09018 0.11079
 H272 H 0.28490 -0.16832 0.31768
 H273 H 0.40923 -0.03257 0.17397
 C274 C 0.85038 0.54998 0.38536
 C275 C 0.87984 0.56183 0.37745
 C276 C 0.89318 0.55262 0.32182
 C277 C 0.92067 0.55667 0.33399
 C278 C 0.93349 0.54692 0.28477
 C279 C 0.91899 0.53292 0.22203
 C280 C 0.89200 0.52996 0.20844
 C281 C 0.87916 0.53965 0.25775
 C282 C 0.93138 0.52159 0.16913
 C283 C 0.95301 0.51523 0.18495
 H284 H 0.89372 0.57691 0.41713
 H285 H 0.93211 0.56701 0.38240
 H286 H 0.95476 0.55062 0.29603
 H287 H 0.88064 0.51978 0.15983
 H288 H 0.85841 0.53707 0.24506
 H289 H 0.92213 0.51687 0.11613
 H290 H 0.83621 0.53467 0.34674
 H291 H 0.96174 0.51839 0.23823
 C292 C 0.44994 0.29459 0.39525
 C293 C 0.43756 0.31192 0.38634
 C294 C 0.45173 0.34036 0.35339
 C295 C 0.47931 0.35265 0.32432
 C296 C 0.49246 0.38048 0.29913
 C297 C 0.47831 0.39655 0.30244
 C298 C 0.45103 0.38443 0.33227
 C299 C 0.43784 0.35662 0.35703
 C300 C 0.49078 0.42540 0.27252
 C301 C 0.50786 0.43297 0.21220
 H302 H 0.41766 0.30584 0.41377
 H303 H 0.49108 0.34121 0.32163
 H304 H 0.51381 0.38944 0.27792
 H305 H 0.43969 0.39636 0.33539
 H306 H 0.41675 0.34789 0.38001
 H307 H 0.48235 0.43900 0.29005
 H308 H 0.46811 0.29780 0.36393
 H309 H 0.51366 0.41810 0.18908
 C310 C 0.69670 0.16529 0.37167
 C311 C 0.68301 0.13610 0.35891
 C312 C 0.66229 0.12170 0.30034
 C313 C 0.64354 0.09253 0.30611
 C314 C 0.62233 0.07816 0.25505
 C315 C 0.61962 0.09264 0.19605
 C316 C 0.63891 0.12168 0.18917
 C317 C 0.66014 0.13609 0.24047
 C318 C 0.59574 0.07875 0.14436
 C319 C 0.57850 0.04943 0.13884
 H320 H 0.68617 0.12288 0.39690
 H321 H 0.64469 0.08092 0.35165
 H322 H 0.60758 0.05602 0.26399
 H323 H 0.63731 0.13336 0.14437
 H324 H 0.67461 0.15840 0.23282
 H325 H 0.59044 0.09222 0.11259
 H326 H 0.69412 0.17920 0.33505
 H327 H 0.58405 0.03540 0.16692
 C328 C 0.43329 0.15061 -0.36030
 C329 C 0.42687 0.12225 -0.35832
 C330 C 0.43460 0.11000 -0.29784
 C331 C 0.45876 0.12653 -0.25547
 C332 C 0.46801 0.11368 -0.20557
 C333 C 0.45343 0.08414 -0.19725
 C334 C 0.42826 0.06786 -0.23677
 C335 C 0.41922 0.08068 -0.28717
 C336 C 0.46610 0.07114 -0.15060
 C337 C 0.45911 0.04272 -0.15599
 H338 H 0.41560 0.10823 -0.40251
 H339 H 0.47143 0.14917 -0.26327
 H340 H 0.48734 0.12675 -0.17562
 H341 H 0.41563 0.04521 -0.23031
 H342 H 0.40046 0.06756 -0.31899
 H343 H 0.48365 0.08503 -0.11614
 H344 H 0.43940 0.16226 -0.31053
 H345 H 0.44222 0.02835 -0.19106
 C346 C 0.71369 0.55503 -0.37614
 C347 C 0.69217 0.56252 -0.37494
 C348 C 0.67216 0.55622 -0.31497
 C349 C 0.66466 0.53310 -0.26936
 C350 C 0.64326 0.52597 -0.21830
 C351 C 0.62898 0.54186 -0.21206
 C352 C 0.63726 0.56546 -0.25615
 C353 C 0.65844 0.57244 -0.30725
 C354 C 0.60399 0.53367 -0.16526
 C355 C 0.59116 0.50940 -0.12301
 H356 H 0.69049 0.57468 -0.41842
 H357 H 0.67435 0.51973 -0.27492
 H358 H 0.63756 0.50758 -0.18579
 H359 H 0.62664 0.57808 -0.25273
 H360 H 0.66372 0.59026 -0.34193
 H361 H 0.59358 0.54649 -0.16874
 H362 H 0.71779 0.54736 -0.32706
 H363 H 0.60116 0.49654 -0.11412
 C364 C 0.83394 0.29768 -0.37078
 C365 C 0.86361 0.31332 -0.36581
 C366 C 0.87911 0.33445 -0.30896
 C367 C 0.90706 0.35577 -0.32277
 C368 C 0.92197 0.37743 -0.27322
 C369 C 0.90921 0.37817 -0.20844
 C370 C 0.88183 0.35607 -0.19287
 C371 C 0.86680 0.33443 -0.24273
 C372 C 0.92401 0.40164 -0.15654
 C373 C 0.94376 0.42898 -0.17766
 H374 H 0.87607 0.31192 -0.40948
 H375 H 0.91722 0.35604 -0.37285
 H376 H 0.94348 0.39348 -0.28584
 H377 H 0.87181 0.35589 -0.14266
 H378 H 0.84569 0.31787 -0.22900
 H379 H 0.91799 0.39773 -0.10095
 H380 H 0.82082 0.29834 -0.32798
 H381 H 0.94830 0.43370 -0.23363
 C382 C 0.53825 -0.16719 -0.37026
 C383 C 0.54725 -0.13824 -0.36461
 C384 C 0.54187 -0.12552 -0.30074
 C385 C 0.56100 -0.09724 -0.28326
 C386 C 0.55508 -0.08372 -0.22742
 C387 C 0.52939 -0.09810 -0.18928
 C388 C 0.51092 -0.12682 -0.20473
 C389 C 0.51702 -0.14043 -0.26006
 C390 C 0.52000 -0.08346 -0.13775
 C391 C 0.53011 -0.05432 -0.13969
 H392 H 0.56005 -0.12404 -0.40646
 H393 H 0.58041 -0.08545 -0.31355
 H394 H 0.57051 -0.06194 -0.21555
 H395 H 0.49105 -0.13841 -0.17611
 H396 H 0.50161 -0.16216 -0.27300
 H397 H 0.50165 -0.09637 -0.10489
 H398 H 0.52989 -0.17958 -0.32260
 H399 H 0.54773 -0.04093 -0.17373
 C400 C 0.30398 0.45594 -0.39002
 C401 C 0.32678 0.45034 -0.38818
 C402 C 0.34726 0.45833 -0.32838
 C403 C 0.36530 0.44646 -0.32694
 C404 C 0.38626 0.45446 -0.27473
 C405 C 0.38954 0.47442 -0.22170
 C406 C 0.37155 0.48641 -0.22310
 C407 C 0.35062 0.47854 -0.27596
 C408 C 0.41271 0.48453 -0.16795
 C409 C 0.42742 0.46990 -0.15372
 H410 H 0.32927 0.43829 -0.43119
 H411 H 0.36357 0.43128 -0.36738
 H412 H 0.40032 0.44551 -0.27827
 H413 H 0.37398 0.50224 -0.18383
 H414 H 0.33785 0.48897 -0.27636
 H415 H 0.41940 0.50478 -0.14188
 H416 H 0.29953 0.46394 -0.34181
 H417 H 0.42041 0.44913 -0.17667
 C418 C 1.15373 0.70659 -0.39934
 C419 C 1.12520 0.68515 -0.39755
 C420 C 1.11310 0.66281 -0.34283
 C421 C 1.08782 0.63791 -0.35956
 C422 C 1.07609 0.61544 -0.31194
 C423 C 1.08945 0.61739 -0.24620
 C424 C 1.11409 0.64267 -0.22800
 C425 C 1.12595 0.66520 -0.27593
 C426 C 1.07746 0.59383 -0.19497
 C427 C 1.06065 0.56570 -0.21645
 H428 H 1.11099 0.68354 -0.44035
 H429 H 1.07725 0.63565 -0.41026
 H430 H 1.05639 0.59676 -0.32657
 H431 H 1.12436 0.64486 -0.17691
 H432 H 1.14493 0.68431 -0.25979
 H433 H 1.08208 0.59875 -0.13883
 H434 H 1.16676 0.70957 -0.35307
 H435 H 1.05752 0.56011 -0.27245
 C436 C 0.84892 0.55718 -0.35452
 C437 C 0.87791 0.56569 -0.34650
 C438 C 0.88998 0.55859 -0.28415
 C439 C 0.87362 0.53438 -0.24293
 C440 C 0.88664 0.52605 -0.19106
 C441 C 0.91621 0.54155 -0.17954
 C442 C 0.93226 0.56665 -0.21820
 C443 C 0.91927 0.57485 -0.27037
 C444 C 0.92946 0.52974 -0.13078
 C445 C 0.95855 0.53835 -0.13017
 H446 H 0.89273 0.57841 -0.38752
 H447 H 0.85107 0.52103 -0.25296
 H448 H 0.87371 0.50669 -0.16199
 H449 H 0.95489 0.57984 -0.20983
 H450 H 0.93230 0.59365 -0.30128
 H451 H 0.91532 0.51129 -0.09998
 H452 H 0.83572 0.54928 -0.30779
 H453 H 0.97343 0.55637 -0.16076
 C454 C 0.42881 0.28175 -0.34890
 C455 C 0.41604 0.29889 -0.34669
 C456 C 0.42617 0.32384 -0.29902
 C457 C 0.43962 0.32568 -0.23349
 C458 C 0.45263 0.35123 -0.19531
 C459 C 0.45222 0.37533 -0.22178
 C460 C 0.43771 0.37307 -0.28558
 C461 C 0.42459 0.34751 -0.32349
 C462 C 0.46823 0.40345 -0.18711
 C463 C 0.47595 0.40711 -0.11546
 H464 H 0.40251 0.29756 -0.39104
 H465 H 0.44073 0.30769 -0.21225
 H466 H 0.46394 0.35223 -0.14683
 H467 H 0.43707 0.39132 -0.30701
 H468 H 0.41434 0.34664 -0.37384
 H469 H 0.47386 0.42205 -0.21913
 H470 H 0.44172 0.28172 -0.30481
 H471 H 0.46834 0.38903 -0.08057
 C472 C 0.70247 0.16313 -0.36750
 C473 C 0.68234 0.13422 -0.36340
 C474 C 0.66415 0.12033 -0.30061
 C475 C 0.64831 0.09061 -0.30035
 C476 C 0.62831 0.07642 -0.24714
 C477 C 0.62357 0.09168 -0.19291
 C478 C 0.64042 0.12128 -0.19061
 C479 C 0.66036 0.13558 -0.24433
 C480 C 0.59995 0.07719 -0.14163
 C481 C 0.57389 0.05477 -0.16392
 H482 H 0.67996 0.12053 -0.40826
 H483 H 0.65085 0.07828 -0.34264
 H484 H 0.61616 0.05350 -0.24927
 H485 H 0.63715 0.13346 -0.14918
 H486 H 0.67174 0.15848 -0.24277
 H487 H 0.60172 0.08638 -0.08911
 H488 H 0.70770 0.17522 -0.31869
 H489 H 0.57124 0.04779 -0.21899
 C490 C 1.16856 0.45237 -0.36681
 C491 C 1.13946 0.44299 -0.35658
 C492 C 1.12763 0.45038 -0.29374
 C493 C 1.14341 0.47580 -0.25532
 C494 C 1.13022 0.48401 -0.20305
 C495 C 1.10104 0.46713 -0.18816
 C496 C 1.08575 0.44092 -0.22398
 C497 C 1.09886 0.43287 -0.27662
 C498 C 1.08718 0.47854 -0.13922
 C499 C 1.05768 0.46766 -0.13514
 H500 H 1.12425 0.42881 -0.39558
 H501 H 1.16552 0.49005 -0.26792
 H502 H 1.14261 0.50424 -0.17627
 H503 H 1.06354 0.42667 -0.21313
 H504 H 1.08627 0.41312 -0.30525
 H505 H 1.10080 0.49835 -0.11179
 H506 H 1.18245 0.46182 -0.32145
 H507 H 1.04330 0.44833 -0.16291
 C508 C 0.54069 0.70032 -0.36652
 C509 C 0.54990 0.68010 -0.36264
 C510 C 0.54571 0.66155 -0.30069
 C511 C 0.56107 0.64672 -0.29880
 C512 C 0.55583 0.62664 -0.24619
 C513 C 0.53482 0.62068 -0.19435
 C514 C 0.52034 0.63639 -0.19396
 C515 C 0.52552 0.65650 -0.24696
 C516 C 0.52694 0.59746 -0.14246
 C517 C 0.52794 0.57286 -0.16065
 H518 H 0.56174 0.67810 -0.40689
 H519 H 0.57686 0.65027 -0.33915
 H520 H 0.56807 0.61561 -0.24675
 H521 H 0.50414 0.63226 -0.15435
 H522 H 0.51290 0.66711 -0.24699
 H523 H 0.51741 0.59837 -0.09233
 H524 H 0.53333 0.70528 -0.31790
 H525 H 0.53472 0.57074 -0.21359
 C526 C 0.28464 -0.16011 -0.37528
 C527 C 0.30555 -0.13162 -0.36531
 C528 C 0.32473 -0.11992 -0.30225
 C529 C 0.34366 -0.09060 -0.30006
 C530 C 0.36419 -0.07855 -0.24634
 C531 C 0.36637 -0.09554 -0.19313
 C532 C 0.34661 -0.12462 -0.19276
 C533 C 0.32613 -0.13682 -0.24716
 C534 C 0.38998 -0.08336 -0.14036
 C535 C 0.41729 -0.06308 -0.16111
 H536 H 0.30812 -0.11650 -0.40609
 H537 H 0.34306 -0.07695 -0.34122
 H538 H 0.37864 -0.05592 -0.24706
 H539 H 0.34780 -0.13811 -0.15205
 H540 H 0.31220 -0.15948 -0.24650
 H541 H 0.38665 -0.09235 -0.08753
 H542 H 0.27951 -0.17389 -0.33015
 H543 H 0.42099 -0.05672 -0.21641
 C544 C 0.53467 -0.16962 0.36835
 C545 C 0.54843 -0.14026 0.35800
 C546 C 0.54177 -0.12585 0.29982
 C547 C 0.55092 -0.09680 0.30770
 C548 C 0.54393 -0.08240 0.25692
 C549 C 0.52761 -0.09671 0.19658
 C550 C 0.51957 -0.12543 0.18674
 C551 C 0.52641 -0.13997 0.23796
 C552 C 0.51849 -0.08220 0.14422
 C553 C 0.51276 -0.06061 0.16487
 H554 H 0.56370 -0.12683 0.39796
 H555 H 0.56313 -0.08525 0.35416
 H556 H 0.55138 -0.06002 0.26511
 H557 H 0.50737 -0.13683 0.14014
 H558 H 0.51961 -0.16212 0.22865
 H559 H 0.51376 -0.09028 0.09006
 H560 H 0.51963 -0.18370 0.32915
 H561 H 0.51471 -0.05444 0.22045
 C562 C 0.29769 0.45172 0.34908
 C563 C 0.31382 0.43806 0.33797
 C564 C 0.33407 0.44398 0.27818
 C565 C 0.34622 0.42632 0.26873
 C566 C 0.36774 0.43274 0.21843
 C567 C 0.37780 0.45725 0.17658
 C568 C 0.36482 0.47427 0.18402
 C569 C 0.34334 0.46785 0.23432
 C570 C 0.40266 0.46694 0.12798
 C571 C 0.42210 0.45671 0.12873
 H572 H 0.31235 0.42282 0.37731
 H573 H 0.33949 0.40774 0.30160
 H574 H 0.37655 0.41862 0.21370
 H575 H 0.37206 0.49327 0.15254
 H576 H 0.33500 0.48234 0.24019
 H577 H 0.40778 0.48537 0.09576
 H578 H 0.29661 0.46511 0.30815
 H579 H 0.41817 0.43860 0.16057
 C580 C 1.15572 0.71267 0.34014
 C581 C 1.12622 0.69697 0.32952
 C582 C 1.11217 0.67602 0.27103
 C583 C 1.08350 0.65535 0.27956
 C584 C 1.06986 0.63353 0.22947
 C585 C 1.08460 0.63196 0.16931
 C586 C 1.11274 0.65354 0.15842
 C587 C 1.12650 0.67531 0.20890
 C588 C 1.07154 0.60761 0.11892
 C589 C 1.05230 0.58030 0.14170
 H590 H 1.11256 0.69802 0.37054
 H591 H 1.07178 0.65558 0.32629
 H592 H 1.04784 0.61781 0.23835
 H593 H 1.12441 0.65303 0.11188
 H594 H 1.14831 0.69126 0.19909
 H595 H 1.07991 0.61046 0.06527
 H596 H 1.17012 0.71272 0.29993
 H597 H 1.04613 0.57681 0.19718
 C598 C 0.45017 0.15943 0.38329
 C599 C 0.47108 0.15124 0.38823
 C600 C 0.47647 0.13387 0.33545
 C601 C 0.45986 0.12212 0.27360
 C602 C 0.46445 0.10356 0.22976
 C603 C 0.48560 0.09640 0.24732
 C604 C 0.50236 0.10858 0.30822
 C605 C 0.49796 0.12715 0.35142
 C606 C 0.49023 0.07548 0.20642
 C607 C 0.48230 0.06784 0.13545
 H608 H 0.48329 0.15646 0.43735
 H609 H 0.44288 0.12648 0.25977
 H610 H 0.45081 0.09420 0.18383
 H611 H 0.51878 0.10344 0.32302
 H612 H 0.51102 0.13575 0.39875
 H613 H 0.50211 0.06673 0.23283
 H614 H 0.43879 0.15712 0.33408
 H615 H 0.47203 0.07737 0.10542
 C616 C 0.71676 0.55109 0.36296
 C617 C 0.70011 0.56385 0.34835
 C618 C 0.68015 0.55609 0.28703
 C619 C 0.66769 0.57309 0.27225
 C620 C 0.64658 0.56506 0.21981
 C621 C 0.63729 0.53961 0.18132
 C622 C 0.65062 0.52327 0.19394
 C623 C 0.67164 0.53124 0.24640
 C624 C 0.61272 0.52823 0.13136
 C625 C 0.59149 0.53606 0.13289
 H626 H 0.70120 0.57993 0.38504
 H627 H 0.67390 0.59240 0.30246
 H628 H 0.63745 0.57869 0.21058
 H629 H 0.64392 0.50357 0.16509
 H630 H 0.68016 0.51715 0.25639
 H631 H 0.60899 0.50997 0.09924
 H632 H 0.71805 0.53687 0.32434
 H633 H 0.59402 0.55379 0.16515
 C634 C 0.82919 0.29837 0.36629
 C635 C 0.85852 0.31199 0.35401
 C636 C 0.87277 0.33182 0.29461
 C637 C 0.90072 0.33859 0.27685
 C638 C 0.91602 0.35925 0.22599
 C639 C 0.90377 0.37397 0.19253
 C640 C 0.87544 0.36645 0.20840
 C641 C 0.86009 0.34571 0.25910
 C642 C 0.91999 0.39797 0.14351
 C643 C 0.94973 0.41345 0.14190
 H644 H 0.87183 0.30815 0.39060
 H645 H 0.91093 0.32812 0.30322
 H646 H 0.93744 0.36365 0.21383
 H647 H 0.86544 0.37738 0.18333
 H648 H 0.83881 0.34154 0.27216
 H649 H 0.90807 0.40560 0.11280
 H650 H 0.81503 0.29949 0.32717
 H651 H 0.96236 0.40714 0.17392
   
