data_POSCAR
  _audit_creation_date              2014-09-24
  _audit_creation_method            'ToBaCCo'
  _symmetry_space_group_name_H-M    'P1'
  _symmetry_Int_Tables_number       1
  _symmetry_cell_setting            triclinic
  loop_
  _symmetry_equiv_pos_as_xyz
 x,y,z
_cell_length_a 41.1598
_cell_length_b 41.1320
_cell_length_c 41.2172
_cell_angle_alpha 89.930300
_cell_angle_beta 89.943800
_cell_angle_gamma 90.004200
loop_
  _atom_site_label
  _atom_site_type_symbol
  _atom_site_fract_x
  _atom_site_fract_y
  _atom_site_fract_z
C1 C 0.25017 0.27460 0.22530
 C2 C 0.27439 0.27441 0.20132
 C3 C 0.29843 0.25030 0.20140
 C4 C 0.29846 0.22619 0.22544
 C5 C 0.27443 0.22600 0.24961
 C6 C 0.25015 0.25030 0.24958
 C7 C 0.22598 0.29862 0.22546
 C8 C 0.20191 0.29857 0.24952
 C9 C 0.20183 0.27451 0.27361
 C10 C 0.22584 0.25030 0.27382
 C11 C 0.22600 0.22608 0.29783
 C12 C 0.25009 0.20202 0.29780
 C13 C 0.27422 0.20197 0.27379
 H14 H 0.27458 0.29297 0.18260
 H15 H 0.31718 0.20763 0.22529
 H16 H 0.22582 0.31735 0.20691
 H17 H 0.18309 0.27468 0.29213
 H18 H 0.20743 0.22590 0.31652
 H19 H 0.29276 0.18324 0.27399
 C20 C 0.74960 -0.27442 0.22523
 C21 C 0.72533 -0.27430 0.20134
 C22 C 0.70117 -0.25027 0.20148
 C23 C 0.70113 -0.22618 0.22552
 C24 C 0.72522 -0.22594 0.24957
 C25 C 0.74959 -0.25015 0.24947
 C26 C 0.77388 -0.29837 0.22531
 C27 C 0.79802 -0.29827 0.24928
 C28 C 0.79805 -0.27421 0.27335
 C29 C 0.77394 -0.25009 0.27362
 C30 C 0.77374 -0.22591 0.29760
 C31 C 0.74956 -0.20194 0.29765
 C32 C 0.72540 -0.20195 0.27374
 H33 H 0.72523 -0.29289 0.18268
 H34 H 0.68236 -0.20764 0.22550
 H35 H 0.77399 -0.31705 0.20674
 H36 H 0.81679 -0.27426 0.29185
 H37 H 0.79235 -0.22569 0.31622
 H38 H 0.70678 -0.18328 0.27399
 C39 C 0.75028 0.27489 0.77439
 C40 C 0.72607 0.27467 0.79838
 C41 C 0.70201 0.25054 0.79836
 C42 C 0.70199 0.22646 0.77431
 C43 C 0.72602 0.22633 0.75014
 C44 C 0.75030 0.25063 0.75014
 C45 C 0.77446 0.29893 0.77420
 C46 C 0.79855 0.29895 0.75012
 C47 C 0.79860 0.27489 0.72604
 C48 C 0.77459 0.25068 0.72588
 C49 C 0.77442 0.22650 0.70190
 C50 C 0.75033 0.20243 0.70195
 C51 C 0.72623 0.20234 0.72597
 H52 H 0.72596 0.29325 0.81706
 H53 H 0.68330 0.20784 0.77441
 H54 H 0.77455 0.31761 0.79278
 H55 H 0.81730 0.27502 0.70746
 H56 H 0.79297 0.22635 0.68319
 H57 H 0.70768 0.18360 0.72580
 C58 C 0.24942 -0.27529 0.77519
 C59 C 0.27357 -0.27512 0.79919
 C60 C 0.29770 -0.25109 0.79908
 C61 C 0.29788 -0.22704 0.77499
 C62 C 0.27392 -0.22683 0.75080
 C63 C 0.24955 -0.25105 0.75086
 C64 C 0.22515 -0.29924 0.77508
 C65 C 0.20113 -0.29919 0.75098
 C66 C 0.20123 -0.27516 0.72682
 C67 C 0.22533 -0.25103 0.72659
 C68 C 0.22565 -0.22687 0.70252
 C69 C 0.24982 -0.20289 0.70251
 C70 C 0.27386 -0.20286 0.72655
 H71 H 0.27365 -0.29364 0.81796
 H72 H 0.31666 -0.20854 0.77511
 H73 H 0.22495 -0.31791 0.79372
 H74 H 0.18258 -0.27524 0.70823
 H75 H 0.20714 -0.22668 0.68381
 H76 H 0.29247 -0.18419 0.72633
 C77 C 0.75021 -0.27471 0.77486
 C78 C 0.72605 -0.27454 0.79889
 C79 C 0.70197 -0.25047 0.79882
 C80 C 0.70184 -0.22640 0.77475
 C81 C 0.72581 -0.22620 0.75054
 C82 C 0.75014 -0.25045 0.75055
 C83 C 0.77444 -0.29869 0.77469
 C84 C 0.79848 -0.29864 0.75057
 C85 C 0.79844 -0.27459 0.72643
 C86 C 0.77438 -0.25044 0.72625
 C87 C 0.77412 -0.22626 0.70222
 C88 C 0.74998 -0.20225 0.70227
 C89 C 0.72592 -0.20221 0.72632
 H90 H 0.72593 -0.29307 0.81763
 H91 H 0.68308 -0.20787 0.77492
 H92 H 0.77460 -0.31738 0.79331
 H93 H 0.81711 -0.27468 0.70782
 H94 H 0.79264 -0.22607 0.68348
 H95 H 0.70733 -0.18351 0.72614
 C96 C 0.25017 0.27416 0.77402
 C97 C 0.27445 0.27402 0.79788
 C98 C 0.29854 0.24996 0.79773
 C99 C 0.29857 0.22587 0.77374
 C100 C 0.27449 0.22565 0.74969
 C101 C 0.25015 0.24988 0.74978
 C102 C 0.22593 0.29812 0.77393
 C103 C 0.20181 0.29802 0.74997
 C104 C 0.20172 0.27399 0.72592
 C105 C 0.22579 0.24984 0.72565
 C106 C 0.22594 0.22565 0.70169
 C107 C 0.25009 0.20165 0.70165
 C108 C 0.27427 0.20164 0.72555
 H109 H 0.27464 0.29256 0.81657
 H110 H 0.31734 0.20735 0.77384
 H111 H 0.22577 0.31684 0.79244
 H112 H 0.18294 0.27413 0.70749
 H113 H 0.20733 0.22544 0.68308
 H114 H 0.29286 0.18295 0.72530
 C115 C 0.24980 -0.27499 0.22516
 C116 C 0.27410 -0.27489 0.20126
 C117 C 0.29831 -0.25091 0.20143
 C118 C 0.29839 -0.22686 0.22551
 C119 C 0.27427 -0.22662 0.24958
 C120 C 0.24985 -0.25077 0.24945
 C121 C 0.22546 -0.29887 0.22521
 C122 C 0.20129 -0.29875 0.24920
 C123 C 0.20130 -0.27474 0.27331
 C124 C 0.22546 -0.25069 0.27361
 C125 C 0.22569 -0.22656 0.29763
 C126 C 0.24993 -0.20266 0.29770
 C127 C 0.27413 -0.20267 0.27378
 H128 H 0.27417 -0.29343 0.18255
 H129 H 0.31720 -0.20837 0.22551
 H130 H 0.22533 -0.31753 0.20661
 H131 H 0.18252 -0.27478 0.29182
 H132 H 0.20706 -0.22633 0.31626
 H133 H 0.29278 -0.18405 0.27405
 C134 C 0.75091 0.27532 0.22552
 C135 C 0.72681 0.27506 0.20148
 C136 C 0.70282 0.25090 0.20151
 C137 C 0.70272 0.22681 0.22556
 C138 C 0.72664 0.22669 0.24978
 C139 C 0.75087 0.25104 0.24980
 C140 C 0.77504 0.29940 0.22571
 C141 C 0.79902 0.29943 0.24985
 C142 C 0.79902 0.27536 0.27397
 C143 C 0.77506 0.25110 0.27412
 C144 C 0.77483 0.22690 0.29813
 C145 C 0.75078 0.20280 0.29804
 C146 C 0.72678 0.20268 0.27398
 H147 H 0.72667 0.29361 0.18274
 H148 H 0.68404 0.20821 0.22536
 H149 H 0.77517 0.31809 0.20711
 H150 H 0.81764 0.27551 0.29259
 H151 H 0.79330 0.22677 0.31688
 H152 H 0.70827 0.18391 0.27413
 O153 O 0.27694 0.03099 0.46823
 O154 O 0.27698 -0.03237 0.53149
 O155 O 0.27697 -0.03233 0.46828
 O156 O 0.27695 0.03095 0.53142
 O157 O 0.22322 0.03092 0.53147
 O158 O 0.22324 -0.03236 0.46834
 O159 O 0.22325 -0.03240 0.53155
 O160 O 0.22321 0.03096 0.46829
 Cu161 Cu 0.28238 -0.00069 0.49985
 Cu162 Cu 0.21781 -0.00073 0.49992
 C163 C 0.25007 0.04167 0.45758
 C164 C 0.25012 -0.04307 0.54220
 C165 C 0.25011 -0.04302 0.45765
 C166 C 0.25008 0.04162 0.54210
 O167 O 0.77699 0.03163 0.53154
 O168 O 0.77677 -0.03162 0.46831
 O169 O 0.77700 0.03171 0.46835
 O170 O 0.77681 -0.03170 0.53152
 O171 O 0.72308 -0.03153 0.53159
 O172 O 0.72327 0.03188 0.46842
 O173 O 0.72304 -0.03145 0.46838
 O174 O 0.72326 0.03179 0.53161
 Cu175 Cu 0.78231 -0.00002 0.49992
 Cu176 Cu 0.71774 0.00019 0.50001
 C177 C 0.75016 0.04239 0.54224
 C178 C 0.74987 -0.04220 0.45767
 C179 C 0.75017 0.04250 0.45773
 C180 C 0.74992 -0.04231 0.54222
 O181 O 0.46927 0.27731 0.03087
 O182 O 0.53260 0.27734 -0.03236
 O183 O 0.46932 0.27724 -0.03232
 O184 O 0.53256 0.27742 0.03083
 O185 O 0.53264 0.22365 0.03096
 O186 O 0.46941 0.22347 -0.03219
 O187 O 0.53268 0.22357 -0.03223
 O188 O 0.46936 0.22355 0.03100
 Cu189 Cu 0.50093 0.28275 -0.00076
 Cu190 Cu 0.50103 0.21813 -0.00060
 C191 C 0.45863 0.25043 0.04161
 C192 C 0.54333 0.25046 -0.04297
 C193 C 0.45869 0.25032 -0.04291
 C194 C 0.54326 0.25056 0.04156
 O195 O 0.53143 0.77619 0.03271
 O196 O 0.46817 0.77599 -0.03048
 O197 O 0.46813 0.77603 0.03271
 O198 O 0.53145 0.77615 -0.03049
 O199 O 0.53158 0.72239 -0.03039
 O200 O 0.46827 0.72226 0.03280
 O201 O 0.46830 0.72223 -0.03038
 O202 O 0.53156 0.72243 0.03280
 Cu203 Cu 0.49978 0.78152 0.00110
 Cu204 Cu 0.49994 0.71690 0.00122
 C205 C 0.54217 0.74934 0.04342
 C206 C 0.45756 0.74908 -0.04110
 C207 C 0.45751 0.74912 0.04341
 C208 C 0.54220 0.74929 -0.04111
 O209 O 0.03116 0.46937 0.27620
 O210 O -0.03216 0.53269 0.27609
 O211 O -0.03212 0.46936 0.27627
 O212 O 0.03114 0.53268 0.27604
 O213 O 0.03114 0.53261 0.22238
 O214 O -0.03212 0.46928 0.22262
 O215 O -0.03216 0.53261 0.22243
 O216 O 0.03115 0.46929 0.22254
 Cu217 Cu -0.00050 0.50104 0.28156
 Cu218 Cu -0.00050 0.50094 0.21708
 C219 C 0.04184 0.45864 0.24939
 C220 C -0.04285 0.54333 0.24924
 C221 C -0.04278 0.45862 0.24949
 C222 C 0.04183 0.54332 0.24917
 O223 O 0.03105 0.53182 0.77756
 O224 O -0.03230 0.46853 0.77731
 O225 O 0.03098 0.46851 0.77738
 O226 O -0.03224 0.53187 0.77746
 O227 O -0.03211 0.53207 0.72381
 O228 O 0.03110 0.46872 0.72373
 O229 O -0.03217 0.46874 0.72365
 O230 O 0.03118 0.53203 0.72391
 Cu231 Cu -0.00064 0.50016 0.78284
 Cu232 Cu -0.00049 0.50041 0.71836
 C233 C 0.04182 0.54259 0.75078
 C234 C -0.04292 0.45794 0.75044
 C235 C 0.04171 0.45792 0.75054
 C236 C -0.04285 0.54266 0.75065
 C237 C 0.32319 0.25029 0.17669
 C238 C 0.34392 0.25029 0.15601
 C239 C 0.36821 0.25030 0.13180
 C240 C 0.38895 0.25033 0.11114
 C241 C 0.41323 0.25038 0.08692
 C242 C 0.43396 0.25041 0.06623
 C243 C 0.67767 0.74966 0.17820
 C244 C 0.65689 0.74962 0.15759
 C245 C 0.63258 0.74956 0.13345
 C246 C 0.61184 0.74952 0.11283
 C247 C 0.58755 0.74947 0.08866
 C248 C 0.56683 0.74941 0.06801
 C249 C 0.67859 0.25049 -0.17825
 C250 C 0.65787 0.25047 -0.15754
 C251 C 0.63362 0.25045 -0.13329
 C252 C 0.61293 0.25046 -0.11258
 C253 C 0.58869 0.25045 -0.08831
 C254 C 0.56799 0.25046 -0.06761
 C255 C 0.32239 0.74888 -0.17620
 C256 C 0.34308 0.74887 -0.15550
 C257 C 0.36730 0.74888 -0.13128
 C258 C 0.38799 0.74890 -0.11060
 C259 C 0.41223 0.74894 -0.08638
 C260 C 0.43293 0.74899 -0.06571
 C261 C 0.17716 0.32331 0.24948
 C262 C 0.15644 0.34403 0.24946
 C263 C 0.13218 0.36828 0.24947
 C264 C 0.11146 0.38900 0.24946
 C265 C 0.08721 0.41327 0.24945
 C266 C 0.06649 0.43398 0.24942
 C267 C 0.17763 0.67747 0.75102
 C268 C 0.15683 0.65682 0.75104
 C269 C 0.13247 0.63265 0.75103
 C270 C 0.11168 0.61202 0.75100
 C271 C 0.08732 0.58784 0.75094
 C272 C 0.06653 0.56719 0.75087
 C273 C -0.17849 0.67837 0.24921
 C274 C -0.15771 0.65770 0.24917
 C275 C -0.13338 0.63351 0.24915
 C276 C -0.11261 0.61285 0.24916
 C277 C -0.08829 0.58864 0.24918
 C278 C -0.06754 0.56796 0.24920
 C279 C -0.17805 0.32239 0.75012
 C280 C -0.15736 0.34315 0.75013
 C281 C -0.13314 0.36745 0.75016
 C282 C -0.11246 0.38820 0.75020
 C283 C -0.08824 0.41251 0.75027
 C284 C -0.06755 0.43326 0.75034
 C285 C 0.25005 0.17725 0.32252
 C286 C 0.25003 0.15650 0.34320
 C287 C 0.25001 0.13219 0.36741
 C288 C 0.25000 0.11143 0.38807
 C289 C 0.25002 0.08711 0.41228
 C290 C 0.25005 0.06636 0.43296
 C291 C 0.75034 0.17771 0.67724
 C292 C 0.75034 0.15700 0.65657
 C293 C 0.75034 0.13274 0.63237
 C294 C 0.75032 0.11202 0.61171
 C295 C 0.75029 0.08775 0.58751
 C296 C 0.75024 0.06704 0.56685
 C297 C 0.24994 -0.17819 0.67773
 C298 C 0.25001 -0.15752 0.65697
 C299 C 0.25008 -0.13331 0.63266
 C300 C 0.25011 -0.11263 0.61191
 C301 C 0.25013 -0.08841 0.58761
 C302 C 0.25014 -0.06772 0.56687
 C303 C 0.74956 -0.17723 0.32237
 C304 C 0.74957 -0.15655 0.34307
 C305 C 0.74960 -0.13234 0.36733
 C306 C 0.74963 -0.11168 0.38804
 C307 C 0.74970 -0.08748 0.41231
 C308 C 0.74977 -0.06681 0.43303
 C309 C 0.67728 0.74951 -0.17643
 C310 C 0.65660 0.74947 -0.15571
 C311 C 0.63241 0.74942 -0.13143
 C312 C 0.61174 0.74939 -0.11070
 C313 C 0.58753 0.74936 -0.08644
 C314 C 0.56683 0.74933 -0.06574
 C315 C 0.32333 0.24999 -0.17767
 C316 C 0.34408 0.25003 -0.15707
 C317 C 0.36837 0.25007 -0.13293
 C318 C 0.38910 0.25012 -0.11231
 C319 C 0.41336 0.25018 -0.08814
 C320 C 0.43406 0.25024 -0.06749
 C321 C 0.32181 0.74904 0.17813
 C322 C 0.34261 0.74901 0.15752
 C323 C 0.36695 0.74901 0.13338
 C324 C 0.38773 0.74902 0.11277
 C325 C 0.41205 0.74904 0.08862
 C326 C 0.43282 0.74908 0.06799
 C327 C 0.67820 0.25083 0.17675
 C328 C 0.65756 0.25078 0.15603
 C329 C 0.63340 0.25074 0.13177
 C330 C 0.61275 0.25071 0.11107
 C331 C 0.58855 0.25067 0.08684
 C332 C 0.56788 0.25063 0.06616
 C333 C -0.17808 0.67798 0.75057
 C334 C -0.15735 0.65728 0.75058
 C335 C -0.13309 0.63304 0.75061
 C336 C -0.11239 0.61233 0.75064
 C337 C -0.08816 0.58806 0.75066
 C338 C -0.06747 0.56733 0.75067
 C339 C -0.17763 0.32290 0.24986
 C340 C -0.15699 0.34369 0.24984
 C341 C -0.13283 0.36803 0.24979
 C342 C -0.11220 0.38882 0.24973
 C343 C -0.08803 0.41315 0.24965
 C344 C -0.06737 0.43392 0.24958
 C345 C 0.17703 0.32271 0.75007
 C346 C 0.15629 0.34339 0.75016
 C347 C 0.13202 0.36761 0.75027
 C348 C 0.11130 0.38831 0.75036
 C349 C 0.08705 0.41255 0.75044
 C350 C 0.06634 0.43326 0.75050
 C351 C 0.17774 0.67797 0.24909
 C352 C 0.15690 0.65738 0.24904
 C353 C 0.13251 0.63327 0.24900
 C354 C 0.11169 0.61268 0.24900
 C355 C 0.08732 0.58854 0.24903
 C356 C 0.06653 0.56791 0.24908
 C357 C 0.74991 -0.17755 0.67751
 C358 C 0.74986 -0.15685 0.65679
 C359 C 0.74983 -0.13262 0.63252
 C360 C 0.74982 -0.11193 0.61180
 C361 C 0.74983 -0.08769 0.58754
 C362 C 0.74986 -0.06697 0.56684
 C363 C 0.24996 -0.17799 0.32243
 C364 C 0.24999 -0.15734 0.34315
 C365 C 0.25004 -0.13317 0.36741
 C366 C 0.25007 -0.11251 0.38811
 C367 C 0.25010 -0.08831 0.41235
 C368 C 0.25011 -0.06764 0.43304
 C369 C 0.75073 0.17806 0.32277
 C370 C 0.75065 0.15732 0.34345
 C371 C 0.75055 0.13303 0.36766
 C372 C 0.75044 0.11228 0.38832
 C373 C 0.75033 0.08797 0.41250
 C374 C 0.75024 0.06720 0.43315
 C375 C 0.25005 0.17692 0.67698
 C376 C 0.25004 0.15621 0.65633
 C377 C 0.25004 0.13195 0.63215
 C378 C 0.25005 0.11124 0.61151
 C379 C 0.25006 0.08697 0.58733
 C380 C 0.25006 0.06626 0.56668
   
