data_POSCAR
  _audit_creation_date              2014-09-24
  _audit_creation_method            'ToBaCCo'
  _symmetry_space_group_name_H-M    'P1'
  _symmetry_Int_Tables_number       1
  _symmetry_cell_setting            triclinic
  loop_
  _symmetry_equiv_pos_as_xyz
 x,y,z
_cell_length_a 70.0176
_cell_length_b 69.2714
_cell_length_c 26.1996
_cell_angle_alpha 90.179100
_cell_angle_beta 90.077600
_cell_angle_gamma 120.471000
loop_
  _atom_site_label
  _atom_site_type_symbol
  _atom_site_fract_x
  _atom_site_fract_y
  _atom_site_fract_z
C1 C 0.29212 0.51321 0.54731
 C2 C 0.30119 0.51277 0.49989
 C3 C 0.29095 0.51230 0.45390
 C4 C 0.27094 0.51256 0.45432
 C5 C 0.26133 0.51319 0.50157
 C6 C 0.27197 0.51360 0.54829
 C7 C 0.26342 0.51678 0.59404
 C8 C 0.24448 0.51845 0.59443
 C9 C 0.23303 0.51704 0.54912
 C10 C 0.24183 0.51486 0.50192
 C11 C 0.26109 0.51364 0.40862
 C12 C 0.24229 0.51552 0.40893
 C13 C 0.23204 0.51576 0.45493
 C14 C 0.21361 0.51909 0.45536
 C15 C 0.20573 0.52183 0.50238
 C16 C 0.21446 0.52016 0.54928
 H17 H 0.27185 0.51916 0.63009
 H18 H 0.23963 0.52204 0.63075
 H19 H 0.26833 0.51390 0.37198
 H20 H 0.23656 0.51778 0.37239
 H21 H 0.31641 0.51223 0.49847
 H22 H 0.19110 0.52344 0.50251
 C23 C 0.55116 -0.26569 0.54639
 C24 C 0.55412 -0.27366 0.49979
 C25 C 0.55196 -0.26533 0.45258
 C26 C 0.54754 -0.24737 0.45256
 C27 C 0.54470 -0.23890 0.49975
 C28 C 0.54663 -0.24799 0.54671
 C29 C 0.54437 -0.23888 0.59276
 C30 C 0.53926 -0.22195 0.59298
 C31 C 0.53698 -0.21286 0.54714
 C32 C 0.54001 -0.22117 0.50006
 C33 C 0.54717 -0.23673 0.40712
 C34 C 0.54199 -0.21982 0.40738
 C35 C 0.53816 -0.21190 0.45333
 C36 C 0.53243 -0.19501 0.45399
 C37 C 0.52902 -0.18744 0.50069
 C38 C 0.53148 -0.19584 0.54706
 H39 H 0.54660 -0.24470 0.62931
 H40 H 0.53710 -0.21609 0.62963
 H41 H 0.55117 -0.24112 0.37068
 H42 H 0.54116 -0.21291 0.37102
 H43 H 0.55644 -0.28800 0.50055
 H44 H 0.52476 -0.17440 0.50098
 C45 C 1.27910 0.79826 0.55327
 C46 C 1.29088 0.80743 0.50801
 C47 C 1.28066 0.80248 0.45990
 C48 C 1.25762 0.78653 0.45645
 C49 C 1.24540 0.77617 0.50162
 C50 C 1.25613 0.78209 0.55007
 C51 C 1.24419 0.76998 0.59320
 C52 C 1.22215 0.75304 0.58956
 C53 C 1.21076 0.74738 0.54261
 C54 C 1.22271 0.75881 0.49797
 C55 C 1.24692 0.77909 0.40888
 C56 C 1.22479 0.76254 0.40544
 C57 C 1.21254 0.75185 0.44922
 C58 C 1.19058 0.73376 0.44514
 C59 C 1.17896 0.72297 0.48913
 C60 C 1.18856 0.72912 0.53793
 H61 H 1.25207 0.77261 0.63012
 H62 H 1.21459 0.74384 0.62401
 H63 H 1.25566 0.78524 0.37329
 H64 H 1.21753 0.75773 0.36770
 H65 H 1.30825 0.82031 0.51064
 H66 H 1.16215 0.70897 0.48497
 C67 C 0.69949 0.48907 0.45304
 C68 C 0.68842 0.48680 0.49882
 C69 C 0.69773 0.48686 0.54638
 C70 C 0.71884 0.48846 0.54752
 C71 C 0.73029 0.49072 0.50102
 C72 C 0.72060 0.49117 0.45370
 C73 C 0.73175 0.49262 0.40808
 C74 C 0.75188 0.49324 0.40856
 C75 C 0.76166 0.49240 0.45469
 C76 C 0.75093 0.49131 0.50152
 C77 C 0.72780 0.48560 0.59302
 C78 C 0.74792 0.48613 0.59350
 C79 C 0.76017 0.48957 0.54851
 C80 C 0.78025 0.48905 0.54833
 C81 C 0.79013 0.48966 0.50129
 C82 C 0.78135 0.49150 0.45501
 H83 H 0.72475 0.49271 0.37130
 H84 H 0.75940 0.49377 0.37215
 H85 H 0.71889 0.48182 0.62866
 H86 H 0.75316 0.48275 0.62949
 H87 H 0.67246 0.48580 0.49715
 H88 H 0.80555 0.48949 0.50048
 C89 C 0.47470 0.19805 0.54111
 C90 C 0.47797 0.19124 0.49294
 C91 C 0.47392 0.19910 0.44761
 C92 C 0.46703 0.21501 0.44944
 C93 C 0.46433 0.22288 0.49745
 C94 C 0.46805 0.21438 0.54351
 C95 C 0.46666 0.22374 0.59019
 C96 C 0.46081 0.24016 0.59190
 C97 C 0.45695 0.24865 0.54694
 C98 C 0.45868 0.23992 0.49926
 C99 C 0.46348 0.22378 0.40448
 C100 C 0.45768 0.24020 0.40638
 C101 C 0.45561 0.24883 0.45328
 C102 C 0.45081 0.26635 0.45532
 C103 C 0.44839 0.27420 0.50269
 C104 C 0.45183 0.26596 0.54835
 H105 H 0.47071 0.21902 0.62608
 H106 H 0.45967 0.24639 0.62903
 H107 H 0.46549 0.21828 0.36722
 H108 H 0.45498 0.24620 0.37055
 H109 H 0.48265 0.17854 0.49030
 H110 H 0.44536 0.28808 0.50401
 C111 C 0.73494 0.18456 0.53987
 C112 C 0.72504 0.17793 0.49135
 C113 C 0.73518 0.19011 0.44743
 C114 C 0.75627 0.20953 0.45073
 C115 C 0.76679 0.21679 0.49902
 C116 C 0.75633 0.20420 0.54373
 C117 C 0.76828 0.21079 0.59000
 C118 C 0.78885 0.23035 0.59350
 C119 C 0.79872 0.24382 0.55054
 C120 C 0.78796 0.23660 0.50245
 C121 C 0.76710 0.22178 0.40690
 C122 C 0.78794 0.24090 0.41018
 C123 C 0.79847 0.24895 0.45761
 C124 C 0.81949 0.26869 0.46143
 C125 C 0.82944 0.27586 0.50937
 C126 C 0.81950 0.26387 0.55387
 H127 H 0.76215 0.20067 0.62396
 H128 H 0.79718 0.23455 0.63013
 H129 H 0.75965 0.21653 0.36944
 H130 H 0.79570 0.24919 0.37490
 H131 H 0.70844 0.16355 0.48757
 H132 H 0.84521 0.29141 0.51218
 N133 N 0.97062 0.52321 0.05542
 N134 N 0.95250 0.52413 0.06411
 N135 N 1.01954 0.54005 0.08569
 N136 N 1.03649 0.55299 0.11543
 N137 N 1.01685 0.55191 0.05049
 N138 N 1.03183 0.57340 0.05580
 N139 N 0.97330 0.51141 0.09086
 N140 N 0.95705 0.50384 0.12426
 C141 C 0.94419 0.51188 0.10721
 C142 C 1.04402 0.57374 0.09645
 N143 N 1.02648 0.48850 0.05485
 N144 N 1.04462 0.48744 0.06222
 N145 N 0.97932 0.47334 0.09401
 N146 N 0.96534 0.46167 0.13060
 N147 N 0.98013 0.45998 0.05953
 N148 N 0.96645 0.43879 0.07145
 N149 N 1.02534 0.50199 0.08838
 N150 N 1.04265 0.51061 0.11910
 Mn151 Mn 0.99938 0.50673 0.09020
 C152 C 1.05458 0.50147 0.10236
 C153 C 0.95726 0.44017 0.11581
 N154 N 1.01471 0.54937 -0.05972
 N155 N 1.02998 0.57043 -0.06922
 N156 N 0.96964 0.50723 -0.08843
 N157 N 0.95224 0.49840 -0.11888
 N158 N 0.96841 0.52068 -0.05489
 N159 N 0.95012 0.52148 -0.06201
 N160 N 1.01580 0.53587 -0.09333
 N161 N 1.03179 0.54723 -0.12626
 Mn162 Mn 0.99260 0.53656 -0.00221
 C163 C 1.04051 0.56874 -0.11098
 C164 C 0.94017 0.50737 -0.10203
 N165 N 0.97798 0.45738 -0.05032
 N166 N 0.96480 0.43570 -0.05880
 N167 N 1.02172 0.49786 -0.09075
 N168 N 1.03821 0.50580 -0.12351
 N169 N 1.02435 0.48605 -0.05530
 N170 N 1.04274 0.48554 -0.06328
 N171 N 0.97565 0.46912 -0.08648
 N172 N 0.96109 0.45579 -0.12078
 Mn173 Mn 1.00226 0.47273 0.00222
 Mn174 Mn 0.99567 0.50253 -0.09019
 Cl175 Cl 0.99745 0.50461 0.00001
 C176 C 0.95420 0.43501 -0.10271
 C177 C 1.05121 0.49799 -0.10607
 N178 N 0.46509 0.45101 0.05545
 N179 N 0.45801 0.42962 0.06410
 N180 N 0.46267 0.49257 0.09004
 N181 N 0.45415 0.50074 0.12242
 N182 N 0.44795 0.47999 0.05546
 N183 N 0.42889 0.47909 0.06376
 N184 N 0.47996 0.46369 0.08964
 N185 N 0.48359 0.45140 0.12204
 C186 C 0.46986 0.43020 0.10571
 C187 C 0.43309 0.49224 0.10563
 N188 N 0.52093 0.54302 0.05453
 N189 N 0.52893 0.56450 0.06453
 N190 N 0.52411 0.50172 0.08918
 N191 N 0.53300 0.49383 0.12119
 N192 N 0.53854 0.51437 0.05453
 N193 N 0.55776 0.51555 0.06228
 N194 N 0.50693 0.53055 0.09010
 N195 N 0.50520 0.54314 0.12545
 Mn196 Mn 0.49340 0.49711 0.09021
 C197 C 0.51879 0.56425 0.10877
 C198 C 0.55398 0.50254 0.10395
 N199 N 0.44765 0.47967 -0.05506
 N200 N 0.42871 0.47915 -0.06256
 N201 N 0.47945 0.46315 -0.08946
 N202 N 0.48333 0.45070 -0.12099
 N203 N 0.46482 0.45069 -0.05492
 N204 N 0.45819 0.42930 -0.06241
 N205 N 0.46220 0.49205 -0.08984
 N206 N 0.45370 0.50042 -0.12154
 Mn207 Mn 0.45607 0.46509 0.00021
 C208 C 0.43282 0.49227 -0.10420
 C209 C 0.46999 0.42964 -0.10376
 N210 N 0.53826 0.51400 -0.05562
 N211 N 0.55739 0.51501 -0.06367
 N212 N 0.50649 0.53004 -0.09099
 N213 N 0.50485 0.54247 -0.12676
 N214 N 0.52064 0.54269 -0.05554
 N215 N 0.52880 0.56412 -0.06595
 N216 N 0.52358 0.50116 -0.08998
 N217 N 0.53220 0.49300 -0.12206
 Mn218 Mn 0.52985 0.52877 -0.00052
 Mn219 Mn 0.49290 0.49656 -0.09053
 Cl220 Cl 0.49305 0.49690 -0.00016
 C221 C 0.55327 0.50171 -0.10524
 C222 C 0.51862 0.56367 -0.11034
 N223 N 0.45677 -0.02124 0.05646
 N224 N 0.43647 -0.03763 0.06674
 N225 N 0.49431 0.02671 0.08550
 N226 N 0.50035 0.04394 0.11634
 N227 N 0.48025 0.02576 0.05097
 N228 N 0.47619 0.04226 0.05772
 N229 N 0.47080 -0.02032 0.09105
 N230 N 0.46053 -0.03609 0.12546
 C231 C 0.43914 -0.04680 0.10986
 C232 C 0.48900 0.05354 0.09851
 N233 N 0.54836 0.02588 0.05058
 N234 N 0.56911 0.04194 0.05797
 N235 N 0.51184 -0.02032 0.09089
 N236 N 0.50674 -0.03598 0.12547
 N237 N 0.52482 -0.02112 0.05590
 N238 N 0.52905 -0.03726 0.06595
 N239 N 0.53541 0.02679 0.08546
 N240 N 0.54694 0.04357 0.11730
 Mn241 Mn 0.50309 0.00324 0.08875
 C242 C 0.56792 0.05297 0.09955
 C243 C 0.51754 -0.04647 0.10939
 N244 N 0.47875 0.02313 -0.05920
 N245 N 0.47468 0.03939 -0.06932
 N246 N 0.46832 -0.02471 -0.08846
 N247 N 0.45724 -0.04219 -0.11867
 N248 N 0.45521 -0.02395 -0.05375
 N249 N 0.43472 -0.04088 -0.05979
 N250 N 0.49186 0.02236 -0.09392
 N251 N 0.49716 0.03810 -0.12835
 Mn252 Mn 0.46747 0.00092 -0.00137
 C253 C 0.48639 0.04865 -0.11255
 C254 C 0.43632 -0.05217 -0.10042
 N255 N 0.52332 -0.02374 -0.05416
 N256 N 0.52740 -0.04022 -0.06107
 N257 N 0.53297 0.02232 -0.09442
 N258 N 0.54371 0.03685 -0.13103
 N259 N 0.54683 0.02334 -0.05923
 N260 N 0.56736 0.03874 -0.07078
 N261 N 0.50930 -0.02464 -0.08871
 N262 N 0.50331 -0.04179 -0.11974
 Mn263 Mn 0.53606 0.00109 -0.00174
 Mn264 Mn 0.50060 -0.00116 -0.09187
 Cl265 Cl 0.50181 0.00103 -0.00155
 C266 C 0.51464 -0.05143 -0.10199
 C267 C 0.56512 0.04715 -0.11554
 C268 C 1.17625 0.51889 0.32736
 C269 C 1.18418 0.53615 0.36391
 C270 C 1.19685 0.53638 0.40520
 C271 C 1.20242 0.51962 0.41078
 C272 C 1.19482 0.50252 0.37359
 C273 C 1.18190 0.50218 0.33233
 C274 C 1.16111 0.51784 0.28638
 N275 N 1.15073 0.49983 0.25463
 N276 N 1.13580 0.49830 0.22068
 C277 C 1.13067 0.51473 0.21711
 N278 N 1.14137 0.53288 0.24821
 N279 N 1.15625 0.53440 0.28203
 C280 C 1.11259 0.51231 0.18324
 C281 C 1.10492 0.52747 0.18769
 C282 C 1.08644 0.52415 0.16019
 C283 C 1.07532 0.50577 0.12707
 C284 C 1.08350 0.49114 0.12050
 C285 C 1.10193 0.49430 0.14864
 H286 H 1.18018 0.54930 0.36146
 H287 H 1.20245 0.54986 0.43286
 H288 H 1.19800 0.48884 0.37763
 H289 H 1.17589 0.48853 0.30508
 H290 H 1.11272 0.54157 0.21374
 H291 H 1.08061 0.53581 0.16561
 H292 H 1.07520 0.47685 0.09508
 H293 H 1.10749 0.48239 0.14414
 C294 C 0.55039 0.69457 0.32817
 C295 C 0.56711 0.70202 0.36530
 C296 C 0.56835 0.71630 0.40441
 C297 C 0.55278 0.72345 0.40790
 C298 C 0.53649 0.71655 0.36929
 C299 C 0.53551 0.70249 0.32953
 C300 C 0.54727 0.67684 0.29186
 N301 N 0.53755 0.67454 0.24552
 N302 N 0.53369 0.65758 0.21457
 C303 C 0.53912 0.64216 0.22920
 N304 N 0.54887 0.64454 0.27537
 N305 N 0.55297 0.66158 0.30593
 C306 C 0.53351 0.62241 0.19730
 C307 C 0.52630 0.60168 0.22083
 C308 C 0.52110 0.58278 0.19166
 C309 C 0.52360 0.58433 0.13846
 C310 C 0.53092 0.60507 0.11469
 C311 C 0.53551 0.62395 0.14392
 H312 H 0.57895 0.69634 0.36486
 H313 H 0.58138 0.72147 0.43268
 H314 H 0.52351 0.72064 0.37161
 H315 H 0.52223 0.69669 0.30174
 H316 H 0.52449 0.60006 0.26191
 H317 H 0.51556 0.56699 0.21090
 H318 H 0.53290 0.60660 0.07365
 H319 H 0.54110 0.63981 0.12505
 C320 C 0.32329 -0.16002 0.33815
 C321 C 0.30230 -0.16214 0.34269
 C322 C 0.28792 -0.17492 0.38200
 C323 C 0.29411 -0.18607 0.41738
 C324 C 0.31512 -0.18394 0.41231
 C325 C 0.32938 -0.17129 0.37313
 C326 C 0.33935 -0.14530 0.29905
 N327 N 0.36017 -0.14205 0.29835
 N328 N 0.37516 -0.12793 0.26544
 C329 C 0.37001 -0.11645 0.23162
 N330 N 0.34909 -0.11990 0.23173
 N331 N 0.33406 -0.13403 0.26482
 C332 C 0.38733 -0.09965 0.19762
 C333 C 0.38203 -0.08933 0.15835
 C334 C 0.39879 -0.07253 0.12857
 C335 C 0.42111 -0.06561 0.13804
 C336 C 0.42634 -0.07624 0.17646
 C337 C 0.40966 -0.09313 0.20570
 H338 H 0.29719 -0.15346 0.31674
 H339 H 0.27234 -0.17529 0.38596
 H340 H 0.32049 -0.19231 0.43861
 H341 H 0.34539 -0.17009 0.37087
 H342 H 0.36498 -0.09404 0.15101
 H343 H 0.39435 -0.06457 0.09909
 H344 H 0.44340 -0.07134 0.18436
 H345 H 0.41439 -0.10069 0.23553
 C346 C 0.82023 0.49343 0.32637
 C347 C 0.80822 0.47377 0.35521
 C348 C 0.79489 0.47296 0.39564
 C349 C 0.79315 0.49170 0.40794
 C350 C 0.80445 0.51113 0.37833
 C351 C 0.81782 0.51197 0.33768
 C352 C 0.83628 0.49493 0.28741
 N353 N 0.84747 0.51336 0.25757
 N354 N 0.86305 0.51521 0.22537
 C355 C 0.86813 0.49875 0.22188
 N356 N 0.85673 0.48023 0.25120
 N357 N 0.84114 0.47835 0.28317
 C358 C 0.88667 0.50141 0.18955
 C359 C 0.89567 0.48757 0.19757
 C360 C 0.91414 0.49088 0.17016
 C361 C 0.92388 0.50788 0.13353
 C362 C 0.91453 0.52130 0.12406
 C363 C 0.89617 0.51821 0.15217
 H364 H 0.80957 0.45914 0.34751
 H365 H 0.78636 0.45787 0.41832
 H366 H 0.80347 0.52584 0.38774
 H367 H 0.82686 0.52738 0.31634
 H368 H 0.88884 0.47450 0.22608
 H369 H 0.92093 0.48019 0.17802
 H370 H 0.92176 0.53453 0.09598
 H371 H 0.88955 0.52909 0.14497
 C372 C 0.45397 0.30707 0.32847
 C373 C 0.43382 0.29387 0.35427
 C374 C 0.43254 0.28009 0.39473
 C375 C 0.45124 0.27901 0.40939
 C376 C 0.47118 0.29169 0.38286
 C377 C 0.47254 0.30557 0.34282
 C378 C 0.45616 0.32342 0.28917
 N379 N 0.47654 0.34018 0.27509
 N380 N 0.47875 0.35584 0.24242
 C381 C 0.46067 0.35538 0.22211
 N382 N 0.44025 0.33843 0.23547
 N383 N 0.43804 0.32280 0.26847
 C384 C 0.46332 0.37385 0.18896
 C385 C 0.44608 0.37126 0.15669
 C386 C 0.44842 0.38935 0.12785
 C387 C 0.46782 0.41039 0.13178
 C388 C 0.48514 0.41285 0.16328
 C389 C 0.48301 0.39474 0.19116
 H390 H 0.41927 0.29474 0.34437
 H391 H 0.41708 0.27058 0.41520
 H392 H 0.48586 0.29130 0.39415
 H393 H 0.48829 0.31546 0.32375
 H394 H 0.43076 0.35533 0.15407
 H395 H 0.43482 0.38708 0.10385
 H396 H 0.50033 0.42888 0.16677
 H397 H 0.49657 0.39734 0.21572
 C398 C 0.69282 0.16194 0.31691
 C399 C 0.68948 0.17533 0.35207
 C400 C 0.70400 0.18542 0.39305
 C401 C 0.72222 0.18247 0.39952
 C402 C 0.72627 0.17000 0.36346
 C403 C 0.71172 0.15986 0.32229
 C404 C 0.67571 0.14882 0.27776
 N405 N 0.67864 0.13590 0.24313
 N406 N 0.66241 0.12264 0.21101
 C407 C 0.64254 0.12167 0.21232
 N408 N 0.63975 0.13485 0.24639
 N409 N 0.65598 0.14813 0.27834
 C410 C 0.62375 0.10546 0.18007
 C411 C 0.60211 0.10073 0.19056
 C412 C 0.58405 0.08400 0.16355
 C413 C 0.58724 0.07180 0.12504
 C414 C 0.60889 0.07707 0.11301
 C415 C 0.62698 0.09366 0.14049
 H416 H 0.67520 0.17740 0.34905
 H417 H 0.70060 0.19489 0.42086
 H418 H 0.74017 0.16741 0.36833
 H419 H 0.71480 0.14968 0.29594
 H420 H 0.59898 0.10947 0.22076
 H421 H 0.56754 0.08037 0.17339
 H422 H 0.61180 0.06792 0.08340
 H423 H 0.64345 0.09697 0.13128
 C424 C 0.48247 0.16271 -0.33603
 C425 C 0.46415 0.16586 -0.33743
 C426 C 0.46188 0.17825 -0.37674
 C427 C 0.47795 0.18786 -0.41550
 C428 C 0.49647 0.18500 -0.41311
 C429 C 0.49878 0.17281 -0.37386
 C430 C 0.48416 0.14795 -0.29755
 N431 N 0.50129 0.14404 -0.29931
 N432 N 0.50232 0.12973 -0.26730
 C433 C 0.48627 0.11866 -0.23195
 N434 N 0.46924 0.12276 -0.22956
 N435 N 0.46820 0.13710 -0.26175
 C436 C 0.48689 0.10164 -0.19886
 C437 C 0.47182 0.09154 -0.15849
 C438 C 0.47193 0.07464 -0.12938
 C439 C 0.48693 0.06740 -0.14054
 C440 C 0.50220 0.07777 -0.18019
 C441 C 0.50227 0.09474 -0.20882
 H442 H 0.45119 0.15816 -0.30911
 H443 H 0.44694 0.17923 -0.37829
 H444 H 0.50931 0.19228 -0.44187
 H445 H 0.51318 0.17087 -0.37401
 H446 H 0.45982 0.09651 -0.14971
 H447 H 0.45998 0.06692 -0.09895
 H448 H 0.51405 0.07263 -0.18948
 H449 H 0.51412 0.10210 -0.23955
 C450 C 0.65879 0.48484 -0.32738
 C451 C 0.68174 0.50015 -0.32770
 C452 C 0.69489 0.50032 -0.36823
 C453 C 0.68535 0.48525 -0.40947
 C454 C 0.66243 0.46972 -0.40826
 C455 C 0.64943 0.46937 -0.36770
 C456 C 0.64421 0.48564 -0.28739
 N457 N 0.62228 0.47005 -0.28708
 N458 N 0.60861 0.47152 -0.25423
 C459 C 0.61621 0.48864 -0.22011
 N460 N 0.63824 0.50408 -0.21967
 N461 N 0.65197 0.50261 -0.25265
 C462 C 0.60039 0.49108 -0.18694
 C463 C 0.60774 0.50808 -0.14965
 C464 C 0.59246 0.51120 -0.12160
 C465 C 0.56963 0.49755 -0.13083
 C466 C 0.56232 0.48020 -0.16693
 C467 C 0.57747 0.47694 -0.19443
 H468 H 0.68946 0.51237 -0.29735
 H469 H 0.71231 0.51305 -0.36857
 H470 H 0.65448 0.45767 -0.43892
 H471 H 0.63184 0.45729 -0.36884
 H472 H 0.62528 0.51921 -0.14280
 H473 H 0.59851 0.52468 -0.09387
 H474 H 0.54480 0.46929 -0.17452
 H475 H 0.57114 0.46363 -0.22263
 C476 C 0.85726 0.30138 -0.31585
 C477 C 0.83445 0.29370 -0.31825
 C478 C 0.82164 0.28017 -0.35904
 C479 C 0.83136 0.27373 -0.39731
 C480 C 0.85377 0.28007 -0.39268
 C481 C 0.86662 0.29385 -0.35256
 C482 C 0.87182 0.31927 -0.27959
 N483 N 0.89289 0.33444 -0.29338
 N484 N 0.90565 0.35189 -0.26352
 C485 C 0.89797 0.35479 -0.21835
 N486 N 0.87703 0.33942 -0.20392
 N487 N 0.86413 0.32206 -0.23419
 C488 C 0.91179 0.37512 -0.18768
 C489 C 0.91237 0.37437 -0.13415
 C490 C 0.92630 0.39384 -0.10608
 C491 C 0.93920 0.41436 -0.13118
 C492 C 0.93812 0.41510 -0.18455
 C493 C 0.92481 0.39563 -0.21254
 H494 H 0.82686 0.29939 -0.29065
 H495 H 0.80448 0.27581 -0.36230
 H496 H 0.86162 0.27534 -0.42181
 H497 H 0.88413 0.29938 -0.35142
 H498 H 0.90247 0.35869 -0.11426
 H499 H 0.92687 0.39292 -0.06489
 H500 H 0.94797 0.43070 -0.20481
 H501 H 0.92451 0.39664 -0.25377
 C502 C 0.52222 -0.16381 -0.32255
 C503 C 0.50431 -0.17767 -0.35480
 C504 C 0.50720 -0.18873 -0.39603
 C505 C 0.52799 -0.18629 -0.40568
 C506 C 0.54578 -0.17304 -0.37284
 C507 C 0.54290 -0.16197 -0.33143
 C508 C 0.51965 -0.15015 -0.28245
 N509 N 0.53666 -0.13689 -0.25047
 N510 N 0.53485 -0.12326 -0.21736
 C511 C 0.51596 -0.12229 -0.21496
 N512 N 0.49886 -0.13582 -0.24635
 N513 N 0.50065 -0.14947 -0.27930
 C514 C 0.51460 -0.10563 -0.18196
 C515 C 0.49749 -0.10093 -0.18946
 C516 C 0.49729 -0.08366 -0.16239
 C517 C 0.51401 -0.07089 -0.12674
 C518 C 0.53059 -0.07617 -0.11735
 C519 C 0.53097 -0.09330 -0.14500
 H520 H 0.48815 -0.17952 -0.34909
 H521 H 0.49334 -0.19879 -0.42126
 H522 H 0.56201 -0.17076 -0.38019
 H523 H 0.55706 -0.15140 -0.30748
 H524 H 0.48459 -0.11007 -0.21753
 H525 H 0.48421 -0.08005 -0.17007
 H526 H 0.54366 -0.06656 -0.08996
 H527 H 0.54431 -0.09660 -0.13813
 C528 C 0.32967 0.51295 -0.32567
 C529 C 0.33966 0.52839 -0.36550
 C530 C 0.32714 0.52867 -0.40645
 C531 C 0.30408 0.51388 -0.40848
 C532 C 0.29391 0.49876 -0.36790
 C533 C 0.30659 0.49826 -0.32699
 C534 C 0.34373 0.51160 -0.28510
 N535 N 0.33557 0.49417 -0.25188
 N536 N 0.34894 0.49221 -0.21861
 C537 C 0.37097 0.50760 -0.21724
 N538 N 0.37894 0.52520 -0.24974
 N539 N 0.36564 0.52715 -0.28287
 C540 C 0.38648 0.50459 -0.18423
 C541 C 0.40945 0.51850 -0.19097
 C542 C 0.42434 0.51467 -0.16399
 C543 C 0.41672 0.49700 -0.12907
 C544 C 0.39384 0.48358 -0.12043
 C545 C 0.37881 0.48725 -0.14808
 H546 H 0.35738 0.53995 -0.36593
 H547 H 0.33555 0.54068 -0.43669
 H548 H 0.27633 0.48661 -0.36897
 H549 H 0.29841 0.48608 -0.29703
 H550 H 0.41603 0.53205 -0.21831
 H551 H 0.44191 0.52540 -0.17107
 H552 H 0.38757 0.46985 -0.09361
 H553 H 0.36123 0.47629 -0.14185
 C554 C 1.15019 0.68607 -0.34157
 C555 C 1.15379 0.67756 -0.38692
 C556 C 1.16636 0.69185 -0.42610
 C557 C 1.17623 0.71521 -0.42090
 C558 C 1.17253 0.72383 -0.37556
 C559 C 1.15956 0.70937 -0.33631
 C560 C 1.13638 0.67027 -0.30107
 N561 N 1.12712 0.67635 -0.26334
 N562 N 1.11361 0.66136 -0.22921
 C563 C 1.10892 0.63975 -0.23139
 N564 N 1.11852 0.63391 -0.26860
 N565 N 1.13190 0.64880 -0.30262
 C566 C 1.09273 0.62234 -0.19642
 C567 C 1.08801 0.60014 -0.20171
 C568 C 1.07143 0.58304 -0.17289
 C569 C 1.05918 0.58762 -0.13760
 C570 C 1.06440 0.60987 -0.13035
 C571 C 1.08101 0.62713 -0.15973
 H572 H 1.14668 0.65972 -0.39259
 H573 H 1.16885 0.68456 -0.46030
 H574 H 1.17919 0.74167 -0.37102
 H575 H 1.15690 0.71640 -0.30194
 H576 H 1.09675 0.59575 -0.22914
 H577 H 1.06797 0.56608 -0.17890
 H578 H 1.05520 0.61382 -0.10322
 H579 H 1.08430 0.64406 -0.15458
 C580 C 0.81669 0.48785 -0.32338
 C581 C 0.80859 0.50273 -0.32441
 C582 C 0.79578 0.50263 -0.36569
 C583 C 0.79093 0.48774 -0.40699
 C584 C 0.79883 0.47269 -0.40520
 C585 C 0.81127 0.47257 -0.36384
 C586 C 0.83187 0.48892 -0.28250
 N587 N 0.83779 0.47308 -0.28015
 N588 N 0.85292 0.47484 -0.24681
 C589 C 0.86287 0.49253 -0.21424
 N590 N 0.85665 0.50821 -0.21573
 N591 N 0.84145 0.50643 -0.24919
 C592 C 0.88132 0.49537 -0.18108
 C593 C 0.89169 0.51320 -0.14594
 C594 C 0.91043 0.51677 -0.11851
 C595 C 0.91921 0.50272 -0.12630
 C596 C 0.90841 0.48452 -0.16002
 C597 C 0.88965 0.48081 -0.18684
 H598 H 0.81258 0.51480 -0.29394
 H599 H 0.79064 0.51498 -0.36649
 H600 H 0.79530 0.46084 -0.43598
 H601 H 0.81720 0.46086 -0.36448
 H602 H 0.88564 0.52467 -0.14046
 H603 H 0.91847 0.53091 -0.09262
 H604 H 0.91471 0.47330 -0.16642
 H605 H 0.88211 0.46685 -0.21333
 C606 C 0.45572 0.30542 -0.32112
 C607 C 0.43517 0.29133 -0.34491
 C608 C 0.43369 0.27782 -0.38633
 C609 C 0.45262 0.27790 -0.40401
 C610 C 0.47297 0.29134 -0.37931
 C611 C 0.47452 0.30496 -0.33824
 C612 C 0.45798 0.32177 -0.28147
 N613 N 0.47830 0.33919 -0.26896
 N614 N 0.48043 0.35501 -0.23659
 C615 C 0.46235 0.35405 -0.21507
 N616 N 0.44201 0.33641 -0.22676
 N617 N 0.43987 0.32062 -0.25943
 C618 C 0.46476 0.37276 -0.18285
 C619 C 0.44761 0.37011 -0.15036
 C620 C 0.44956 0.38842 -0.12289
 C621 C 0.46846 0.40972 -0.12838
 C622 C 0.48574 0.41224 -0.15996
 C623 C 0.48401 0.39394 -0.18651
 H624 H 0.42041 0.29138 -0.33287
 H625 H 0.41790 0.26772 -0.40542
 H626 H 0.48781 0.29184 -0.39298
 H627 H 0.49058 0.31556 -0.32077
 H628 H 0.43262 0.35396 -0.14663
 H629 H 0.43601 0.38610 -0.09877
 H630 H 0.50056 0.42848 -0.16460
 H631 H 0.49749 0.39659 -0.21127
 C632 C 0.69139 0.14556 -0.34153
 C633 C 0.69457 0.13533 -0.38430
 C634 C 0.70982 0.14817 -0.42172
 C635 C 0.72233 0.17172 -0.41779
 C636 C 0.71964 0.18188 -0.37374
 C637 C 0.70450 0.16889 -0.33575
 C638 C 0.67320 0.13189 -0.30577
 N639 N 0.67386 0.13811 -0.25624
 N640 N 0.65702 0.12568 -0.22493
 C641 C 0.63879 0.10678 -0.24224
 N642 N 0.63817 0.10068 -0.29173
 N643 N 0.65504 0.11292 -0.32276
 C644 C 0.61988 0.09289 -0.20846
 C645 C 0.59852 0.08011 -0.22936
 C646 C 0.58065 0.06585 -0.19863
 C647 C 0.58383 0.06371 -0.14654
 C648 C 0.60510 0.07675 -0.12527
 C649 C 0.62297 0.09144 -0.15592
 H650 H 0.68490 0.11733 -0.38941
 H651 H 0.71162 0.13959 -0.45438
 H652 H 0.72809 0.19994 -0.37010
 H653 H 0.70215 0.17721 -0.30335
 H654 H 0.59565 0.08104 -0.26967
 H655 H 0.56444 0.05599 -0.21603
 H656 H 0.60794 0.07544 -0.08511
 H657 H 0.63929 0.10109 -0.13894
 C658 C 1.17694 0.52015 -0.32352
 C659 C 1.18385 0.50433 -0.32669
 C660 C 1.19712 0.50486 -0.36731
 C661 C 1.20375 0.52120 -0.40578
 C662 C 1.19728 0.53735 -0.40142
 C663 C 1.18429 0.53696 -0.36076
 C664 C 1.16095 0.51847 -0.28412
 N665 N 1.15434 0.53381 -0.28270
 N666 N 1.13863 0.53154 -0.25065
 C667 C 1.12878 0.51384 -0.21845
 N668 N 1.13565 0.49865 -0.21905
 N669 N 1.15140 0.50092 -0.25127
 C670 C 1.10994 0.51055 -0.18629
 C671 C 1.10069 0.49368 -0.14897
 C672 C 1.08192 0.48989 -0.12150
 C673 C 1.07194 0.50270 -0.13147
 C674 C 1.08149 0.51984 -0.16784
 C675 C 1.10030 0.52380 -0.19466
 H676 H 1.17841 0.49109 -0.29876
 H677 H 1.20109 0.49168 -0.37015
 H678 H 1.20223 0.55036 -0.42983
 H679 H 1.17944 0.54952 -0.35956
 H680 H 1.10777 0.48323 -0.14148
 H681 H 1.07487 0.47659 -0.09356
 H682 H 1.07426 0.53010 -0.17603
 H683 H 1.10692 0.53695 -0.22300
 C684 C 0.54867 0.69321 -0.32832
 C685 C 0.53149 0.69781 -0.33542
 C686 C 0.53262 0.71189 -0.37494
 C687 C 0.55129 0.72223 -0.40682
 C688 C 0.56891 0.71844 -0.39797
 C689 C 0.56753 0.70391 -0.35942
 C690 C 0.54604 0.67571 -0.29224
 N691 N 0.55398 0.66203 -0.30445
 N692 N 0.55025 0.64506 -0.27425
 C693 C 0.53867 0.64127 -0.23028
 N694 N 0.53101 0.65515 -0.21752
 N695 N 0.53448 0.67196 -0.24816
 C696 C 0.53347 0.62161 -0.19883
 C697 C 0.53422 0.62293 -0.14529
 C698 C 0.52968 0.60414 -0.11614
 C699 C 0.52357 0.58366 -0.14021
 C700 C 0.52238 0.58229 -0.19366
 C701 C 0.52764 0.60118 -0.22272
 H702 H 0.51665 0.68951 -0.31238
 H703 H 0.51854 0.71402 -0.38190
 H704 H 0.58338 0.72605 -0.42232
 H705 H 0.58099 0.70063 -0.35463
 H706 H 0.53873 0.63856 -0.12616
 H707 H 0.53063 0.60550 -0.07491
 H708 H 0.51780 0.56669 -0.21305
 H709 H 0.52681 0.59975 -0.26395
 C710 C 0.31834 -0.17109 -0.31497
 C711 C 0.29683 -0.17439 -0.31848
 C712 C 0.28324 -0.18568 -0.36052
 C713 C 0.29095 -0.19375 -0.40018
 C714 C 0.31217 -0.19111 -0.39531
 C715 C 0.32554 -0.18019 -0.35318
 C716 C 0.33406 -0.15674 -0.27450
 N717 N 0.35456 -0.15423 -0.27169
 N718 N 0.36968 -0.13966 -0.23930
 C719 C 0.36503 -0.12689 -0.20818
 N720 N 0.34435 -0.12971 -0.21006
 N721 N 0.32918 -0.14432 -0.24259
 C722 C 0.38281 -0.10906 -0.17633
 C723 C 0.37826 -0.09656 -0.14102
 C724 C 0.39557 -0.07847 -0.11467
 C725 C 0.41768 -0.07242 -0.12378
 C726 C 0.42213 -0.08531 -0.15780
 C727 C 0.40493 -0.10348 -0.18349
 H728 H 0.29079 -0.16756 -0.28973
 H729 H 0.26729 -0.18676 -0.36355
 H730 H 0.31860 -0.19732 -0.42467
 H731 H 0.34193 -0.17813 -0.35178
 H732 H 0.36141 -0.10047 -0.13447
 H733 H 0.39172 -0.06878 -0.08854
 H734 H 0.43901 -0.08115 -0.16522
 H735 H 0.40911 -0.11270 -0.21024
 C736 C 0.52465 -0.16012 0.32793
 C737 C 0.50634 -0.17496 0.35765
 C738 C 0.50874 -0.18714 0.39692
 C739 C 0.52945 -0.18483 0.40724
 C740 C 0.54765 -0.17064 0.37665
 C741 C 0.54524 -0.15849 0.33706
 C742 C 0.52251 -0.14534 0.29032
 N743 N 0.53928 -0.13244 0.25778
 N744 N 0.53778 -0.11813 0.22646
 C745 C 0.51951 -0.11603 0.22659
 N746 N 0.50268 -0.12909 0.25876
 N747 N 0.50414 -0.14344 0.28986
 C748 C 0.51834 -0.09909 0.19439
 C749 C 0.50247 -0.09287 0.20464
 C750 C 0.50211 -0.07595 0.17659
 C751 C 0.51741 -0.06506 0.13721
 C752 C 0.53289 -0.07164 0.12587
 C753 C 0.53346 -0.08839 0.15443
 H754 H 0.49023 -0.17672 0.35155
 H755 H 0.49457 -0.19787 0.42045
 H756 H 0.56384 -0.16838 0.38464
 H757 H 0.55969 -0.14718 0.31502
 H758 H 0.49061 -0.10071 0.23519
 H759 H 0.48991 -0.07129 0.18598
 H760 H 0.54487 -0.06350 0.09566
 H761 H 0.54582 -0.09285 0.14543
 C762 C 0.32773 0.51117 0.32406
 C763 C 0.30641 0.49289 0.33374
 C764 C 0.29391 0.49353 0.37473
 C765 C 0.30250 0.51250 0.40640
 C766 C 0.32336 0.53105 0.39571
 C767 C 0.33581 0.53045 0.35488
 C768 C 0.34222 0.50974 0.28480
 N769 N 0.36373 0.52628 0.28092
 N770 N 0.37741 0.52440 0.24885
 C771 C 0.37020 0.50589 0.21907
 N772 N 0.34858 0.48947 0.22218
 N773 N 0.33487 0.49134 0.25446
 C774 C 0.38606 0.50317 0.18677
 C775 C 0.37869 0.48595 0.15008
 C776 C 0.39396 0.48272 0.12232
 C777 C 0.41679 0.49643 0.13138
 C778 C 0.42413 0.51389 0.16719
 C779 C 0.40897 0.51732 0.19429
 H780 H 0.29968 0.47779 0.31081
 H781 H 0.27791 0.47899 0.38283
 H782 H 0.33025 0.54578 0.41998
 H783 H 0.35209 0.54488 0.34851
 H784 H 0.36116 0.47483 0.14325
 H785 H 0.38789 0.46914 0.09486
 H786 H 0.44165 0.52481 0.17472
 H787 H 0.41526 0.53073 0.22223
 C788 C 1.15581 0.69807 0.30992
 C789 C 1.14864 0.71069 0.33752
 C790 C 1.16051 0.72320 0.38030
 C791 C 1.17990 0.72360 0.39562
 C792 C 1.18761 0.71183 0.36691
 C793 C 1.17571 0.69922 0.32443
 C794 C 1.14170 0.68223 0.26939
 N795 N 1.14533 0.66569 0.25351
 N796 N 1.13149 0.65002 0.22094
 C797 C 1.11348 0.65026 0.20256
 N798 N 1.11007 0.66708 0.21749
 N799 N 1.12387 0.68271 0.25037
 C800 C 1.09692 0.63144 0.17084
 C801 C 1.08141 0.63359 0.14087
 C802 C 1.06466 0.61504 0.11456
 C803 C 1.06290 0.59400 0.11887
 C804 C 1.07870 0.59201 0.14773
 C805 C 1.09565 0.61056 0.17298
 H806 H 1.13334 0.71010 0.32752
 H807 H 1.15420 0.73198 0.40247
 H808 H 1.20239 0.71171 0.37866
 H809 H 1.18174 0.68977 0.30397
 H810 H 1.08204 0.64950 0.13838
 H811 H 1.05261 0.61693 0.09255
 H812 H 1.07776 0.57597 0.15139
 H813 H 1.10727 0.60830 0.19583
 C814 C 0.48230 0.16742 0.31541
 C815 C 0.50064 0.18218 0.34559
 C816 C 0.49801 0.19324 0.38720
 C817 C 0.47705 0.18990 0.39930
 C818 C 0.45883 0.17585 0.36829
 C819 C 0.46145 0.16479 0.32648
 C820 C 0.48469 0.15357 0.27552
 N821 N 0.46738 0.13975 0.24483
 N822 N 0.46904 0.12586 0.21222
 C823 C 0.48805 0.12517 0.20909
 N824 N 0.50545 0.13925 0.23915
 N825 N 0.50381 0.15316 0.27158
 C826 C 0.48928 0.10823 0.17684
 C827 C 0.50635 0.10349 0.18473
 C828 C 0.50645 0.08603 0.15831
 C829 C 0.48967 0.07311 0.12289
 C830 C 0.47311 0.07838 0.11320
 C831 C 0.47282 0.09569 0.14023
 H832 H 0.51694 0.18468 0.33810
 H833 H 0.51221 0.20391 0.41098
 H834 H 0.44248 0.17287 0.37755
 H835 H 0.44698 0.15352 0.30414
 H836 H 0.51929 0.11278 0.21262
 H837 H 0.51951 0.08242 0.16623
 H838 H 0.46000 0.06865 0.08599
 H839 H 0.45951 0.09900 0.13310
 C840 C 0.66218 0.48858 0.32243
 C841 C 0.68261 0.50783 0.33430
 C842 C 0.69528 0.50781 0.37565
 C843 C 0.68782 0.48851 0.40539
 C844 C 0.66790 0.46909 0.39255
 C845 C 0.65523 0.46908 0.35141
 C846 C 0.64734 0.48919 0.28285
 N847 N 0.62621 0.47186 0.27801
 N848 N 0.61214 0.47298 0.24567
 C849 C 0.61859 0.49145 0.21660
 N850 N 0.63985 0.50865 0.22066
 N851 N 0.65393 0.50756 0.25320
 C852 C 0.60227 0.49335 0.18420
 C853 C 0.60909 0.51049 0.14785
 C854 C 0.59340 0.51310 0.12027
 C855 C 0.57068 0.49884 0.12922
 C856 C 0.56387 0.48140 0.16456
 C857 C 0.57948 0.47858 0.19148
 H858 H 0.68843 0.52314 0.31286
 H859 H 0.71053 0.52302 0.38548
 H860 H 0.66186 0.45409 0.41534
 H861 H 0.63965 0.45394 0.34329
 H862 H 0.62653 0.52207 0.14122
 H863 H 0.59904 0.52667 0.09315
 H864 H 0.54644 0.47006 0.17192
 H865 H 0.57362 0.46521 0.21918
 C866 C 0.85791 0.31326 0.34054
 C867 C 0.83572 0.30746 0.34715
 C868 C 0.82292 0.29255 0.38569
 C869 C 0.83189 0.28263 0.41690
 C870 C 0.85384 0.28789 0.40892
 C871 C 0.86678 0.30319 0.37143
 C872 C 0.87236 0.33099 0.30451
 N873 N 0.89388 0.34534 0.31687
 N874 N 0.90689 0.36208 0.28590
 C875 C 0.89899 0.36494 0.24101
 N876 N 0.87753 0.35043 0.22820
 N877 N 0.86439 0.33384 0.25959
 C878 C 0.91336 0.38407 0.20815
 C879 C 0.91290 0.38178 0.15481
 C880 C 0.92737 0.39998 0.12440
 C881 C 0.94189 0.42082 0.14695
 C882 C 0.94192 0.42317 0.20015
 C883 C 0.92803 0.40488 0.23052
 H884 H 0.82864 0.31526 0.32420
 H885 H 0.80623 0.28919 0.39205
 H886 H 0.86114 0.28058 0.43281
 H887 H 0.88384 0.30740 0.36699
 H888 H 0.90173 0.36582 0.13687
 H889 H 0.92706 0.39786 0.08337
 H890 H 0.95303 0.43907 0.21839
 H891 H 0.92857 0.40704 0.27156
   
