data_POSCAR
  _audit_creation_date              2014-09-24
  _audit_creation_method            'ToBaCCo'
  _symmetry_space_group_name_H-M    'P1'
  _symmetry_Int_Tables_number       1
  _symmetry_cell_setting            triclinic
  loop_
  _symmetry_equiv_pos_as_xyz
 x,y,z
_cell_length_a 25.2625
_cell_length_b 24.3792
_cell_length_c 18.8745
_cell_angle_alpha 90.253800
_cell_angle_beta 89.841100
_cell_angle_gamma 89.873100
loop_
  _atom_site_label
  _atom_site_type_symbol
  _atom_site_fract_x
  _atom_site_fract_y
  _atom_site_fract_z
C1 C 1.24174 0.25242 0.24871
 C2 C 0.75775 -0.25322 0.25274
 C3 C 0.75867 0.24538 -0.25168
 C4 C 1.24435 -0.24877 -0.25441
 C5 C 0.24199 0.25074 0.75355
 C6 C 0.75836 0.75176 0.74807
 C7 C 0.75756 0.25078 0.24596
 C8 C 0.24371 0.75149 0.25313
 O9 O 1.07830 -0.07791 0.14693
 O10 O 1.04378 -0.14212 0.07112
 C11 C 1.07319 -0.12773 0.12462
 O12 O 0.88562 0.07097 0.08913
 O13 O 0.94610 0.13343 0.04747
 C14 C 0.90179 0.12033 0.07817
 O15 O 0.89242 -0.07736 0.10629
 O16 O 0.94811 -0.14130 0.05523
 C17 C 0.90700 -0.12698 0.09250
 O18 O 1.08652 0.06996 0.13606
 O19 O 1.04554 0.13355 0.06601
 C20 C 1.07879 0.11966 0.11557
 Zr21 Zr 1.05348 -0.00359 0.10456
 O22 O 1.03055 0.00406 0.21224
 O23 O 1.13293 -0.00701 0.13915
 Zr24 Zr 0.92573 -0.00326 0.07551
 O25 O 0.92221 0.00237 0.18715
 O26 O 0.84214 -0.00720 0.07224
 O27 O 0.98795 -0.05411 0.10441
 O28 O 0.98808 0.04669 0.10238
 O29 O 1.11238 0.06954 -0.09585
 O30 O 1.05473 0.13307 -0.04833
 C31 C 1.09676 0.11923 -0.08389
 O32 O 0.92215 -0.08158 -0.14049
 O33 O 0.95735 -0.14340 -0.06207
 C34 C 0.92534 -0.12998 -0.11313
 O35 O 0.91795 0.06721 -0.13619
 O36 O 0.95673 0.13218 -0.06544
 C37 C 0.92422 0.11719 -0.11523
 O38 O 1.11126 -0.08045 -0.09907
 O39 O 1.05524 -0.14315 -0.04788
 C40 C 1.09765 -0.12996 -0.08329
 Zr41 Zr 1.07688 -0.00543 -0.07216
 O42 O 1.08504 -0.00175 -0.18381
 O43 O 1.16019 -0.00865 -0.06172
 Zr44 Zr 0.94906 -0.00647 -0.10127
 O45 O 0.97480 -0.00661 -0.20783
 O46 O 0.86968 -0.00710 -0.13616
 Zr47 Zr 1.00138 -0.08834 0.00282
 Zr48 Zr 1.00116 0.07863 0.00061
 O49 O 1.01401 0.04365 -0.10019
 O50 O 1.01474 -0.05709 -0.09982
 O51 O 1.07623 0.04347 0.01795
 O52 O 0.92685 -0.05143 -0.01393
 O53 O 1.07573 -0.05131 0.01915
 O54 O 0.92642 0.04279 -0.01628
 H55 H 0.98333 0.07345 0.14163
 H56 H 0.89355 -0.07236 -0.01920
 H57 H 1.01825 0.06873 -0.14103
 H58 H 1.10837 -0.07313 0.02635
 H59 H 0.83185 -0.00217 0.02222
 H60 H 0.84746 0.00016 -0.09396
 H61 H 0.94233 -0.00381 -0.23689
 H62 H 1.07411 -0.03766 -0.20356
 H63 H 1.16936 0.01255 -0.01869
 H64 H 1.15527 -0.00753 0.09611
 H65 H 1.01790 -0.03226 0.22825
 H66 H 0.88416 0.00523 0.19939
 O67 O 1.10124 0.42342 0.61462
 O68 O 1.04680 0.36156 0.55851
 C69 C 1.08589 0.37417 0.60001
 O70 O 0.91027 0.57868 0.63025
 O71 O 0.95629 0.64066 0.56292
 C72 C 0.91833 0.62749 0.60631
 O73 O 0.91371 0.43015 0.64161
 O74 O 0.95053 0.36566 0.56719
 C75 C 0.91748 0.38090 0.61659
 O76 O 1.11465 0.57230 0.59570
 O77 O 1.05855 0.63769 0.55123
 C78 C 1.10231 0.62263 0.58194
 Zr79 Zr 1.07232 0.49960 0.58245
 O80 O 1.07323 0.50896 0.69407
 O81 O 1.15557 0.49201 0.58792
 Zr82 Zr 0.94376 0.50358 0.60232
 O83 O 0.96488 0.50672 0.71042
 O84 O 0.86318 0.50467 0.63249
 O85 O 1.00758 0.45067 0.60625
 O86 O 1.01031 0.55203 0.60507
 O87 O 1.09174 0.57125 0.37126
 O88 O 1.05007 0.63700 0.43847
 C89 C 1.08429 0.62144 0.39067
 O90 O 0.89469 0.42964 0.39094
 O91 O 0.94519 0.36487 0.44787
 C92 C 0.90667 0.37971 0.40644
 O93 O 0.89186 0.57755 0.40523
 O94 O 0.95075 0.63998 0.45131
 C95 C 0.90798 0.62677 0.41708
 O96 O 1.08009 0.42380 0.36312
 O97 O 1.04128 0.36142 0.43727
 C98 C 1.07215 0.37439 0.38437
 Zr99 Zr 1.05733 0.49873 0.40440
 O100 O 1.04214 0.50523 0.29437
 O101 O 1.13918 0.49087 0.38254
 Zr102 Zr 0.92852 0.50289 0.42394
 O103 O 0.92955 0.50656 0.31212
 O104 O 0.84480 0.50110 0.42355
 Zr105 Zr 0.99801 0.41752 0.50323
 Zr106 Zr 1.00276 0.58455 0.50253
 O107 O 0.99321 0.55058 0.40084
 O108 O 0.99041 0.45013 0.40043
 O109 O 1.07723 0.54637 0.49116
 O110 O 0.92415 0.45684 0.51445
 O111 O 1.07412 0.45159 0.49214
 O112 O 0.92654 0.55085 0.51425
 H113 H 1.01399 0.57904 0.64418
 H114 H 0.89043 0.43635 0.51757
 H115 H 0.99068 0.57636 0.36049
 H116 H 1.10578 0.42777 0.48768
 H117 H 0.84242 0.50132 0.58841
 H118 H 0.83305 0.51244 0.47144
 H119 H 0.89212 0.51018 0.29738
 H120 H 1.02407 0.47124 0.27892
 H121 H 1.15822 0.50758 0.42291
 H122 H 1.16855 0.48932 0.53859
 H123 H 1.06433 0.47295 0.71496
 H124 H 0.93127 0.51126 0.73695
 O125 O 0.57470 0.09928 0.62243
 O126 O 0.63436 0.04992 0.55510
 C127 C 0.62239 0.08689 0.60289
 O128 O 0.42695 -0.09794 0.61913
 O129 O 0.36555 -0.04678 0.55854
 C130 C 0.37874 -0.08668 0.60127
 O131 O 0.57030 -0.09354 0.62879
 O132 O 0.63208 -0.04970 0.55977
 C133 C 0.61863 -0.08432 0.60988
 O134 O 0.43060 0.11153 0.61216
 O135 O 0.36802 0.05776 0.55714
 C136 C 0.38216 0.09922 0.59716
 Zr137 Zr 0.50150 0.07227 0.58298
 O138 O 0.49835 0.06792 0.69484
 O139 O 0.50645 0.15893 0.57751
 Zr140 Zr 0.49921 -0.06328 0.58788
 O141 O 0.49359 -0.05372 0.69931
 O142 O 0.50344 -0.14964 0.59743
 O143 O 0.54919 0.00380 0.59803
 O144 O 0.45255 0.00568 0.59921
 O145 O 0.42869 0.10491 0.37394
 O146 O 0.36712 0.05696 0.43895
 C147 C 0.38059 0.09512 0.39363
 O148 O 0.56953 -0.09999 0.37124
 O149 O 0.63222 -0.05103 0.43229
 C150 C 0.61815 -0.08864 0.38646
 O151 O 0.42634 -0.10583 0.38416
 O152 O 0.36581 -0.04984 0.44039
 C153 C 0.37841 -0.09181 0.39995
 O154 O 0.57183 0.09609 0.36450
 O155 O 0.63350 0.04902 0.42968
 C156 C 0.62027 0.08506 0.38131
 Zr157 Zr 0.49983 0.06788 0.40505
 O158 O 0.49271 0.05967 0.29365
 O159 O 0.50493 0.15427 0.39795
 Zr160 Zr 0.49796 -0.06739 0.40899
 O161 O 0.49023 -0.05941 0.29769
 O162 O 0.49977 -0.15361 0.39662
 Zr163 Zr 0.58114 0.00043 0.49467
 Zr164 Zr 0.41847 0.00352 0.49781
 O165 O 0.45071 0.00078 0.39507
 O166 O 0.54767 -0.00099 0.39208
 O167 O 0.45371 0.08160 0.49455
 O168 O 0.54454 -0.07700 0.49808
 O169 O 0.54725 0.07934 0.49296
 O170 O 0.45180 -0.07586 0.49966
 H171 H 0.42807 0.00704 0.64032
 H172 H 0.56669 -0.11054 0.49921
 H173 H 0.42526 0.00042 0.35519
 H174 H 0.57026 0.11218 0.49203
 H175 H 0.48296 -0.16548 0.55775
 H176 H 0.50646 -0.16930 0.44390
 H177 H 0.52588 -0.05310 0.27748
 H178 H 0.52635 0.04439 0.27510
 H179 H 0.49181 0.16929 0.44352
 H180 H 0.50795 0.17329 0.62668
 H181 H 0.49788 0.10614 0.71280
 H182 H 0.52575 -0.03431 0.71560
 O183 O 0.57361 0.59797 0.12743
 O184 O 0.63425 0.54943 0.06101
 C185 C 0.62168 0.58562 0.10981
 O186 O 0.42671 0.40190 0.12461
 O187 O 0.36599 0.45141 0.06028
 C188 C 0.37873 0.41288 0.10538
 O189 O 0.57098 0.40586 0.13073
 O190 O 0.63269 0.45032 0.06201
 C191 C 0.61932 0.41521 0.11123
 O192 O 0.42971 0.60909 0.11824
 O193 O 0.36736 0.55807 0.05867
 C194 C 0.38131 0.59808 0.10136
 Zr195 Zr 0.50108 0.57130 0.08694
 O196 O 0.50333 0.57025 0.19930
 O197 O 0.50481 0.65789 0.08110
 Zr198 Zr 0.49894 0.43593 0.09109
 O199 O 0.49393 0.44532 0.20258
 O200 O 0.50238 0.34943 0.09915
 O201 O 0.54878 0.50289 0.10167
 O202 O 0.45197 0.50470 0.10223
 O203 O 0.42926 0.60527 -0.12000
 O204 O 0.36672 0.55581 -0.05903
 C205 C 0.38082 0.59539 -0.10191
 O206 O 0.56994 0.39911 -0.12332
 O207 O 0.63302 0.44624 -0.06096
 C208 C 0.61860 0.40785 -0.10580
 O209 O 0.42741 0.39240 -0.10978
 O210 O 0.36628 0.45032 -0.05852
 C211 C 0.37931 0.40701 -0.09617
 O212 O 0.57145 0.59689 -0.13260
 O213 O 0.63294 0.54951 -0.06732
 C214 C 0.61973 0.58584 -0.11555
 Zr215 Zr 0.50031 0.56767 -0.09108
 O216 O 0.49298 0.55969 -0.20248
 O217 O 0.50578 0.65402 -0.09832
 Zr218 Zr 0.49839 0.43268 -0.08780
 O219 O 0.49089 0.44128 -0.19900
 O220 O 0.50052 0.34668 -0.10245
 Zr221 Zr 0.58140 0.50017 -0.00152
 Zr222 Zr 0.41837 0.50306 0.00054
 O223 O 0.45114 0.50072 -0.10198
 O224 O 0.54841 0.49888 -0.10429
 O225 O 0.45379 0.58118 -0.00177
 O226 O 0.54436 0.42278 0.00157
 O227 O 0.54742 0.57900 -0.00267
 O228 O 0.45186 0.42382 0.00253
 H229 H 0.42701 0.50561 0.14278
 H230 H 0.56574 0.38872 0.00316
 H231 H 0.42582 0.50043 -0.14202
 H232 H 0.57056 0.61175 -0.00317
 H233 H 0.48113 0.33423 0.05977
 H234 H 0.50532 0.33028 -0.05511
 H235 H 0.52691 0.44486 -0.21919
 H236 H 0.52624 0.54350 -0.22101
 H237 H 0.49328 0.66913 -0.05250
 H238 H 0.50641 0.67182 0.13051
 H239 H 0.46743 0.56260 0.21777
 H240 H 0.52612 0.46481 0.21859
 C241 C 1.18459 0.16843 0.23646
 C242 C 1.20404 0.21630 0.20390
 C243 C 1.17522 0.23659 0.14488
 C244 C 1.13159 0.20778 0.11738
 C245 C 1.11487 0.15918 0.14962
 C246 C 1.14071 0.14156 0.21110
 H247 H 1.20131 0.15275 0.28503
 H248 H 1.18480 0.27564 0.12136
 H249 H 1.11129 0.22317 0.07112
 H250 H 1.12793 0.10530 0.23939
 C251 C 1.22964 0.67487 0.65403
 C252 C 1.21268 0.72407 0.68555
 C253 C 1.16548 0.74829 0.65979
 C254 C 1.12953 0.71700 0.62058
 C255 C 1.14259 0.66300 0.60247
 C256 C 1.19472 0.64442 0.61329
 H257 H 1.26831 0.65779 0.66500
 H258 H 1.15374 0.78899 0.67689
 H259 H 1.09051 0.73332 0.60966
 H260 H 1.20727 0.60423 0.59505
 C261 C 0.71947 0.20202 0.63195
 C262 C 0.72322 0.20366 0.70683
 C263 C 0.69669 0.16210 0.74510
 C264 C 0.66716 0.12166 0.71062
 C265 C 0.66398 0.12030 0.63657
 C266 C 0.69057 0.16060 0.59746
 H267 H 0.73826 0.23278 0.59944
 H268 H 0.69850 0.16156 0.80242
 H269 H 0.64538 0.09218 0.74200
 H270 H 0.68670 0.16172 0.54033
 C271 C 0.68085 0.67913 0.24819
 C272 C 0.72466 0.70224 0.21306
 C273 C 0.74027 0.67713 0.14811
 C274 C 0.70905 0.63639 0.11557
 C275 C 0.66248 0.61812 0.14824
 C276 C 0.65007 0.63861 0.21614
 H277 H 0.66960 0.69343 0.30052
 H278 H 0.77650 0.68857 0.12165
 H279 H 0.72031 0.62075 0.06393
 H280 H 0.61516 0.62440 0.24396
 C281 C 0.84200 -0.19757 0.23791
 C282 C 0.79544 -0.21886 0.20647
 C283 C 0.78631 -0.20739 0.13450
 C284 C 0.82581 -0.18241 0.09384
 C285 C 0.87408 -0.16771 0.12520
 C286 C 0.88152 -0.17469 0.19738
 H287 H 0.84933 -0.20097 0.29414
 H288 H 0.74901 -0.21762 0.10978
 H289 H 0.81794 -0.17226 0.03903
 H290 H 0.91673 -0.15912 0.22330
 C291 C 0.78550 0.33479 0.68479
 C292 C 0.79392 0.27856 0.69608
 C293 C 0.83860 0.25476 0.66135
 C294 C 0.87945 0.28727 0.63497
 C295 C 0.87498 0.34405 0.63908
 C296 C 0.82607 0.36724 0.65900
 H297 H 0.74879 0.35482 0.69922
 H298 H 0.84373 0.21125 0.65579
 H299 H 0.91473 0.26814 0.61332
 H300 H 0.81902 0.41089 0.65555
 C301 C 0.26063 -0.14855 0.69962
 C302 C 0.27716 -0.20410 0.70614
 C303 C 0.32216 -0.22017 0.66698
 C304 C 0.35278 -0.18187 0.63064
 C305 C 0.33898 -0.12596 0.62968
 C306 C 0.29160 -0.10979 0.66268
 H307 H 0.22394 -0.13468 0.72334
 H308 H 0.33456 -0.26270 0.66585
 H309 H 0.38839 -0.19602 0.60409
 H310 H 0.27948 -0.06716 0.66199
 C311 C 0.28818 0.29062 0.13401
 C312 C 0.27762 0.29364 0.20755
 C313 C 0.30071 0.33763 0.24544
 C314 C 0.33009 0.37843 0.21111
 C315 C 0.33782 0.37692 0.13754
 C316 C 0.31713 0.33215 0.09943
 H317 H 0.27490 0.25591 0.10302
 H318 H 0.29543 0.34066 0.30229
 H319 H 0.34806 0.41068 0.24248
 H320 H 0.32550 0.32798 0.04338
 C321 C 0.82171 0.22892 -0.14195
 C322 C 0.79808 0.21101 -0.20622
 C323 C 0.81859 0.16237 -0.23669
 C324 C 0.86365 0.13787 -0.21156
 C325 C 0.88723 0.15570 -0.14870
 C326 C 0.86555 0.20111 -0.11317
 H327 H 0.80661 0.26302 -0.11197
 H328 H 0.80265 0.14472 -0.28475
 H329 H 0.87863 0.10257 -0.24053
 H330 H 0.88121 0.21391 -0.06237
 C331 C 0.78912 0.71079 0.37613
 C332 C 0.79332 0.71234 0.30166
 C333 C 0.83648 0.68491 0.26938
 C334 C 0.87813 0.66568 0.30911
 C335 C 0.87564 0.66739 0.38272
 C336 C 0.83026 0.68830 0.41647
 H337 H 0.75443 0.72644 0.40317
 H338 H 0.84028 0.68248 0.21236
 H339 H 0.91092 0.64561 0.28220
 H340 H 0.82571 0.68491 0.47336
 C341 C 0.28841 0.21638 0.36439
 C342 C 0.28046 0.21438 0.29026
 C343 C 0.30738 0.17277 0.25213
 C344 C 0.33647 0.13204 0.28672
 C345 C 0.34056 0.13155 0.36076
 C346 C 0.31721 0.17485 0.39926
 H347 H 0.27268 0.24989 0.39572
 H348 H 0.30437 0.17081 0.19495
 H349 H 0.35676 0.10114 0.25531
 H350 H 0.32311 0.17777 0.45595
 C351 C 0.25917 0.65776 -0.19109
 C352 C 0.27903 0.70976 -0.21220
 C353 C 0.32861 0.72533 -0.18513
 C354 C 0.35954 0.68854 -0.14677
 C355 C 0.34196 0.63493 -0.13216
 C356 C 0.29057 0.62042 -0.15265
 H357 H 0.21958 0.64542 -0.20586
 H358 H 0.34403 0.76613 -0.19365
 H359 H 0.39819 0.70209 -0.12927
 H360 H 0.27539 0.57993 -0.14109
 C361 C 1.22509 -0.18418 -0.15118
 C362 C 1.20709 -0.22553 -0.19700
 C363 C 1.15587 -0.24737 -0.18428
 C364 C 1.11973 -0.21930 -0.14117
 C365 C 1.13577 -0.17152 -0.10663
 C366 C 1.18963 -0.15711 -0.10689
 H367 H 1.26565 -0.17004 -0.15351
 H368 H 1.14236 -0.28397 -0.21123
 H369 H 1.07880 -0.23238 -0.13934
 H370 H 1.20338 -0.12171 -0.07733
 C371 C 1.17327 0.26250 0.35237
 C372 C 1.20014 0.28472 0.29269
 C373 C 1.17585 0.32957 0.25881
 C374 C 1.12919 0.35187 0.28354
 C375 C 1.10664 0.33446 0.34760
 C376 C 1.12816 0.28843 0.38111
 H377 H 1.18595 0.22452 0.37621
 H378 H 1.19124 0.34615 0.20987
 H379 H 1.11265 0.38603 0.25434
 H380 H 1.11082 0.27319 0.42963
 C381 C 0.74023 -0.17625 0.34725
 C382 C 0.72232 -0.20913 0.28974
 C383 C 0.67409 -0.19361 0.25830
 C384 C 0.64232 -0.15266 0.28804
 C385 C 0.65781 -0.12415 0.34963
 C386 C 0.70797 -0.13524 0.37774
 H387 H 0.77905 -0.18228 0.36971
 H388 H 0.66044 -0.21324 0.21021
 H389 H 0.60470 -0.14398 0.26302
 H390 H 0.72169 -0.11332 0.42417
 C391 C 0.74453 0.33109 -0.16715
 C392 C 0.72312 0.28558 -0.20549
 C393 C 0.66737 0.28297 -0.20811
 C394 C 0.63550 0.32204 -0.17507
 C395 C 0.65672 0.36722 -0.13792
 C396 C 0.71200 0.37082 -0.13344
 H397 H 0.78676 0.33832 -0.16719
 H398 H 0.64660 0.25208 -0.23800
 H399 H 0.59317 0.31659 -0.18027
 H400 H 0.73011 0.40502 -0.10599
 C401 C 1.16881 0.18176 -0.23152
 C402 C 1.20498 0.21742 -0.19762
 C403 C 1.19991 0.22529 -0.12361
 C404 C 1.16202 0.19580 -0.08521
 C405 C 1.12746 0.16034 -0.12060
 C406 C 1.13051 0.15437 -0.19381
 H407 H 1.17038 0.17521 -0.28830
 H408 H 1.22442 0.25387 -0.09488
 H409 H 1.16109 0.19912 -0.02817
 H410 H 1.10466 0.12613 -0.22162
 C411 C 1.18334 0.73531 0.36035
 C412 C 1.20824 0.71685 0.29656
 C413 C 1.18561 0.67021 0.26336
 C414 C 1.14248 0.64368 0.29150
 C415 C 1.12053 0.66013 0.35629
 C416 C 1.14093 0.70641 0.39067
 H417 H 1.19502 0.77301 0.38612
 H418 H 1.19943 0.65535 0.21243
 H419 H 1.12705 0.60865 0.26269
 H420 H 1.12466 0.71977 0.44103
 C421 C 0.74360 0.17057 0.33651
 C422 C 0.72356 0.20554 0.28268
 C423 C 0.67383 0.19154 0.25445
 C424 C 0.64300 0.15015 0.28407
 C425 C 0.66012 0.12004 0.34344
 C426 C 0.71172 0.12966 0.36812
 H427 H 0.78378 0.17529 0.35516
 H428 H 0.65816 0.21247 0.20863
 H429 H 0.60448 0.14282 0.26086
 H430 H 0.72699 0.10658 0.41250
 C431 C 0.67670 0.68745 -0.24772
 C432 C 0.72319 0.70669 -0.21472
 C433 C 0.73691 0.68116 -0.14936
 C434 C 0.70592 0.63916 -0.11927
 C435 C 0.65963 0.62119 -0.15253
 C436 C 0.64599 0.64567 -0.21768
 H437 H 0.66430 0.70437 -0.29797
 H438 H 0.77107 0.69349 -0.11940
 H439 H 0.71701 0.62251 -0.06834
 H440 H 0.61032 0.63333 -0.24513
 C441 C 0.84371 -0.25042 -0.17584
 C442 C 0.79625 -0.22260 -0.19604
 C443 C 0.78951 -0.16868 -0.17159
 C444 C 0.83117 -0.14117 -0.14005
 C445 C 0.88116 -0.16597 -0.13276
 C446 C 0.88633 -0.22196 -0.14591
 H447 H 0.84979 -0.29303 -0.19028
 H448 H 0.75356 -0.14580 -0.17991
 H449 H 0.82476 -0.09898 -0.12440
 H450 H 0.92375 -0.24264 -0.13749
 C451 C 0.79324 0.28447 0.36960
 C452 C 0.79220 0.28679 0.29484
 C453 C 0.82957 0.32075 0.26064
 C454 C 0.87032 0.34492 0.29760
 C455 C 0.87339 0.33971 0.37090
 C456 C 0.83400 0.31061 0.40740
 H457 H 0.76292 0.26326 0.39908
 H458 H 0.82973 0.32524 0.20366
 H459 H 0.89858 0.36995 0.26896
 H460 H 0.83354 0.31015 0.46479
 C461 C 0.29761 -0.16188 0.25902
 C462 C 0.27855 -0.20995 0.29289
 C463 C 0.29516 -0.21807 0.36383
 C464 C 0.32342 -0.17724 0.40091
 C465 C 0.33755 -0.12773 0.36798
 C466 C 0.32552 -0.12135 0.29613
 H467 H 0.28963 -0.15492 0.20342
 H468 H 0.28638 -0.25591 0.39112
 H469 H 0.33612 -0.18525 0.45466
 H470 H 0.33952 -0.08562 0.26781
 C471 C 0.27513 0.35059 -0.21889
 C472 C 0.27723 0.29312 -0.20587
 C473 C 0.31367 0.27516 -0.15453
 C474 C 0.34388 0.31279 -0.11535
 C475 C 0.33893 0.36971 -0.12615
 C476 C 0.30437 0.38813 -0.17847
 H477 H 0.25169 0.36755 -0.26126
 H478 H 0.31838 0.23174 -0.14436
 H479 H 0.37234 0.29732 -0.07750
 H480 H 0.30235 0.43140 -0.19108
 C481 C 1.17798 -0.17286 0.24831
 C482 C 1.20369 -0.21692 0.21264
 C483 C 1.17792 -0.23709 0.15061
 C484 C 1.13279 -0.21092 0.12294
 C485 C 1.10977 -0.16649 0.15909
 C486 C 1.13172 -0.14988 0.22363
 H487 H 1.19221 -0.15723 0.29850
 H488 H 1.19130 -0.27384 0.12388
 H489 H 1.11668 -0.22466 0.07280
 H490 H 1.11453 -0.11644 0.25403
 C491 C 1.19364 0.27252 0.63390
 C492 C 1.20107 0.28142 0.70730
 C493 C 1.16330 0.31412 0.74362
 C494 C 1.12147 0.33813 0.70865
 C495 C 1.11643 0.33208 0.63561
 C496 C 1.15215 0.29873 0.59815
 H497 H 1.21921 0.24573 0.60360
 H498 H 1.16639 0.32102 0.80020
 H499 H 1.09492 0.36485 0.73810
 H500 H 1.14959 0.29524 0.54114
 C501 C 0.73624 -0.17886 0.64467
 C502 C 0.72333 -0.20280 0.71139
 C503 C 0.67751 -0.18235 0.74536
 C504 C 0.64598 -0.14164 0.71411
 C505 C 0.65859 -0.11922 0.64729
 C506 C 0.70466 -0.13785 0.61361
 H507 H 0.77024 -0.19177 0.61436
 H508 H 0.66598 -0.19794 0.79674
 H509 H 0.61061 -0.12848 0.74199
 H510 H 0.71510 -0.12254 0.56166
 C511 C 0.73403 0.31586 0.13913
 C512 C 0.72245 0.29431 0.20727
 C513 C 0.68110 0.31978 0.24560
 C514 C 0.64994 0.36098 0.21546
 C515 C 0.65967 0.37989 0.14633
 C516 C 0.70284 0.35766 0.10901
 H517 H 0.76765 0.30142 0.10887
 H518 H 0.67244 0.30709 0.29931
 H519 H 0.61721 0.37748 0.24610
 H520 H 0.71140 0.37123 0.05563
 C521 C 0.84742 0.20516 0.22089
 C522 C 0.79574 0.21837 0.19709
 C523 C 0.78002 0.19772 0.13057
 C524 C 0.81642 0.16994 0.08719
 C525 C 0.86881 0.16236 0.10985
 C526 C 0.88392 0.18014 0.17674
 H527 H 0.86033 0.21416 0.27428
 H528 H 0.73969 0.20277 0.11250
 H529 H 0.80331 0.15246 0.03738
 H530 H 0.92289 0.17044 0.19723
 C531 C 0.84307 0.75123 0.67045
 C532 C 0.79468 0.72543 0.69076
 C533 C 0.78452 0.67318 0.66270
 C534 C 0.82438 0.64420 0.62894
 C535 C 0.87567 0.66597 0.62331
 C536 C 0.88400 0.72110 0.63886
 H537 H 0.85123 0.79316 0.68613
 H538 H 0.74735 0.65245 0.66988
 H539 H 0.81586 0.60278 0.61149
 H540 H 0.92259 0.73951 0.63156
 C541 C 0.28141 0.15320 0.72694
 C542 C 0.27865 0.21024 0.71125
 C543 C 0.31188 0.22927 0.65650
 C544 C 0.34319 0.19263 0.61651
 C545 C 0.34208 0.13582 0.62971
 C546 C 0.31120 0.11668 0.68560
 H547 H 0.26128 0.13575 0.77202
 H548 H 0.31325 0.27263 0.64442
 H549 H 0.36912 0.20876 0.57586
 H550 H 0.31243 0.07370 0.69993
 C551 C 0.30578 0.67097 0.24652
 C552 C 0.28045 0.71545 0.21174
 C553 C 0.29205 0.72143 0.13855
 C554 C 0.32112 0.68097 0.10101
 C555 C 0.34137 0.63447 0.13575
 C556 C 0.33472 0.63115 0.20924
 H557 H 0.30151 0.66579 0.30321
 H558 H 0.27868 0.75715 0.10986
 H559 H 0.32945 0.68699 0.04525
 H560 H 0.35309 0.59800 0.23837
   
