data_POSCAR
  _audit_creation_date              2014-09-24
  _audit_creation_method            'ToBaCCo'
  _symmetry_space_group_name_H-M    'P1'
  _symmetry_Int_Tables_number       1
  _symmetry_cell_setting            triclinic
  loop_
  _symmetry_equiv_pos_as_xyz
 x,y,z
_cell_length_a 33.3775
_cell_length_b 33.3460
_cell_length_c 34.7737
_cell_angle_alpha 88.203800
_cell_angle_beta 88.638200
_cell_angle_gamma 94.945100
loop_
  _atom_site_label
  _atom_site_type_symbol
  _atom_site_fract_x
  _atom_site_fract_y
  _atom_site_fract_z
C1 C 0.70556 0.65351 0.92489
 H2 H 0.72093 0.63608 0.90454
 C3 C 0.67398 0.67509 0.91241
 H4 H 0.66532 0.67360 0.88263
 C5 C 0.69770 0.67672 0.98801
 H6 H 0.70657 0.67650 1.01774
 C7 C 0.66578 0.69890 0.97666
 H8 H 0.65077 0.71632 0.99748
 N9 N 0.71601 0.65346 0.96246
 C10 C 0.80285 0.63833 1.04387
 H11 H 0.78101 0.61917 1.06084
 C12 C 0.83731 0.65513 1.06143
 H13 H 0.84175 0.64860 1.09167
 C14 C 0.82374 0.67099 0.98439
 H15 H 0.81846 0.67667 0.95421
 C16 C 0.85887 0.68824 1.00083
 H17 H 0.88035 0.70760 0.98342
 Zn18 Zn 0.75309 0.61647 0.98095
 N19 N 0.79718 0.64540 1.00566
 C20 C 0.81360 0.58516 0.93519
 N21 N 0.77315 0.58578 0.94049
 C22 C 0.74708 0.56453 0.91754
 C23 C 0.76143 0.54544 0.88532
 C24 C 0.82919 0.56605 0.90381
 C25 C 0.68645 0.58310 1.02593
 C26 C 0.66809 0.56179 1.05746
 C27 C 0.72857 0.52797 1.06600
 C28 C 0.74605 0.55068 1.03446
 N29 N 0.72562 0.57927 1.01671
 H30 H 0.83402 0.60017 0.95475
 H31 H 0.71502 0.56412 0.92316
 H32 H 0.74039 0.53127 0.86561
 H33 H 0.86147 0.56765 0.89887
 H34 H 0.66969 0.60393 1.00999
 H35 H 0.63732 0.56689 1.06512
 H36 H 0.74724 0.50876 1.08204
 H37 H 0.77703 0.54770 1.02601
 C38 C 0.86620 0.67958 1.03963
 C39 C 0.65339 0.69792 0.93842
 C40 C 0.68963 0.53501 1.07944
 C41 C 0.80300 0.54710 0.87772
 C42 C 0.70408 0.32979 0.53493
 H43 H 0.72977 0.33060 0.55336
 C44 C 0.66603 0.31560 0.54962
 H45 H 0.66245 0.30514 0.57941
 C46 C 0.67680 0.34470 0.47427
 H47 H 0.68088 0.35702 0.44524
 C48 C 0.63837 0.33017 0.48762
 H49 H 0.61313 0.33090 0.46868
 N50 N 0.70855 0.34490 0.49816
 C51 C 0.83204 0.35398 0.45466
 H52 H 0.83758 0.38645 0.45339
 C53 C 0.86084 0.33032 0.44015
 H54 H 0.88898 0.34444 0.42805
 C55 C 0.78789 0.29589 0.47082
 H56 H 0.75903 0.28293 0.48214
 C57 C 0.81591 0.27099 0.45630
 H58 H 0.80899 0.23864 0.45683
 Zn59 Zn 0.75843 0.37249 0.48299
 N60 N 0.79648 0.33656 0.46957
 C61 C 0.81221 0.39616 0.54145
 N62 N 0.77683 0.40360 0.52508
 C63 C 0.75258 0.42992 0.54078
 C64 C 0.76399 0.45040 0.57384
 C65 C 0.82461 0.41577 0.57455
 C66 C 0.75022 0.38312 0.40469
 C67 C 0.73977 0.40138 0.37025
 C68 C 0.73230 0.46262 0.40410
 C69 C 0.74324 0.44322 0.43802
 N70 N 0.75100 0.40384 0.43783
 H71 H 0.83056 0.37428 0.52949
 H72 H 0.72396 0.43437 0.52810
 H73 H 0.74471 0.47161 0.58584
 H74 H 0.85282 0.40951 0.58728
 H75 H 0.75588 0.35167 0.40537
 H76 H 0.73740 0.38397 0.34449
 H77 H 0.72431 0.49339 0.40471
 H78 H 0.74392 0.45914 0.46458
 C79 C 0.85262 0.28850 0.44066
 C80 C 0.63257 0.31696 0.52614
 C81 C 0.72999 0.44130 0.36994
 C82 C 0.80017 0.44287 0.59134
 C83 C 0.21859 -0.15654 0.06258
 H84 H 0.23807 -0.14502 0.08475
 C85 C 0.18238 -0.17846 0.07313
 H86 H 0.17403 -0.18270 0.10338
 C87 C 0.20549 -0.16482 -0.00344
 H88 H 0.21429 -0.15845 -0.03330
 C89 C 0.16952 -0.18839 0.00597
 H90 H 0.15121 -0.20099 -0.01673
 N91 N 0.22853 -0.14834 0.02483
 C92 C 0.34980 -0.11022 -0.02215
 H93 H 0.34841 -0.07793 -0.02425
 C94 C 0.38383 -0.12715 -0.03625
 H95 H 0.40800 -0.10802 -0.05041
 C96 C 0.31897 -0.17476 -0.00323
 H97 H 0.29351 -0.19315 0.00949
 C98 C 0.35246 -0.19296 -0.01709
 H99 H 0.35211 -0.22548 -0.01625
 Zn100 Zn 0.27213 -0.10905 0.01184
 N101 N 0.31794 -0.13409 -0.00654
 C102 C 0.32575 -0.07912 0.06744
 N103 N 0.28669 -0.08045 0.05687
 C104 C 0.25794 -0.06705 0.08066
 C105 C 0.26732 -0.05606 0.11814
 C106 C 0.33653 -0.06740 0.10399
 C107 C 0.26885 -0.07564 -0.06371
 C108 C 0.25581 -0.05060 -0.09289
 C109 C 0.21260 -0.02223 -0.04637
 C110 C 0.22663 -0.04781 -0.01807
 N111 N 0.25467 -0.07349 -0.02696
 H112 H 0.34843 -0.08971 0.04876
 H113 H 0.22694 -0.06884 0.07218
 H114 H 0.24370 -0.04900 0.13805
 H115 H 0.36734 -0.06886 0.11272
 H116 H 0.28941 -0.09774 -0.07085
 H117 H 0.26620 -0.05510 -0.12206
 H118 H 0.19141 -0.00130 -0.03750
 H119 H 0.21494 -0.04707 0.01105
 C120 C 0.38504 -0.16900 -0.03432
 C121 C 0.15653 -0.19345 0.04469
 C122 C 0.22761 -0.02251 -0.08475
 C123 C 0.30671 -0.05817 0.13042
 C124 C 0.19966 0.17527 0.44595
 H125 H 0.23014 0.18841 0.44116
 C126 C 0.16855 0.19149 0.42620
 H127 H 0.17503 0.21767 0.40713
 C128 C 0.15455 0.12233 0.47233
 H129 H 0.14968 0.09397 0.48838
 C130 C 0.12247 0.13799 0.45397
 H131 H 0.09268 0.12238 0.45714
 N132 N 0.19177 0.14248 0.47019
 C133 C 0.31052 0.14036 0.51899
 H134 H 0.31216 0.10828 0.51767
 C135 C 0.34255 0.16403 0.53352
 H136 H 0.36790 0.14949 0.54458
 C137 C 0.27499 0.19778 0.50735
 H138 H 0.24775 0.21082 0.49945
 C139 C 0.30795 0.22300 0.51873
 H140 H 0.30659 0.25532 0.51697
 Zn141 Zn 0.23361 0.11911 0.49653
 N142 N 0.27692 0.15714 0.50759
 C143 C 0.27067 0.09966 0.42968
 N144 N 0.25318 0.08239 0.46254
 C145 C 0.24957 0.04174 0.46887
 C146 C 0.26445 0.01674 0.44132
 C147 C 0.28564 0.07593 0.40148
 C148 C 0.17982 0.10256 0.56139
 C149 C 0.16847 0.08768 0.59832
 C150 C 0.23226 0.05932 0.60288
 C151 C 0.24121 0.07232 0.56484
 N152 N 0.21542 0.09417 0.54492
 H153 H 0.27305 0.13205 0.42551
 H154 H 0.23501 0.02874 0.49501
 H155 H 0.26190 -0.01560 0.44637
 H156 H 0.29977 0.08996 0.37548
 H157 H 0.16073 0.12230 0.54687
 H158 H 0.13973 0.09441 0.61046
 H159 H 0.25461 0.04468 0.61894
 H160 H 0.26952 0.06605 0.55182
 C161 C 0.34140 0.20597 0.53416
 C162 C 0.12919 0.17358 0.43141
 C163 C 0.19513 0.06635 0.62001
 C164 C 0.28253 0.03413 0.40729
 C165 C 0.18479 0.45685 0.23563
 H166 H 0.18509 0.44185 0.26357
 C167 C 0.20122 0.43888 0.20364
 H168 H 0.21416 0.41036 0.20736
 C169 C 0.16209 0.50835 0.19543
 H170 H 0.14446 0.53360 0.19128
 C171 C 0.17829 0.49158 0.16286
 H172 H 0.17320 0.50448 0.13460
 N173 N 0.16453 0.49038 0.23100
 C174 C 0.15074 0.55654 0.33339
 H175 H 0.13054 0.57564 0.31949
 C176 C 0.16911 0.56918 0.36716
 H177 H 0.16383 0.59836 0.37815
 C178 C 0.18221 0.49562 0.33654
 H179 H 0.18683 0.46668 0.32493
 C180 C 0.20106 0.50708 0.37070
 H181 H 0.22096 0.48741 0.38451
 Zn182 Zn 0.12969 0.50494 0.27235
 N183 N 0.15789 0.52055 0.31822
 C184 C 0.08909 0.44307 0.32043
 N185 N 0.09425 0.45828 0.28372
 C186 C 0.07792 0.43813 0.25358
 C187 C 0.05678 0.40029 0.25964
 C188 C 0.06810 0.40542 0.32776
 C189 C 0.12257 0.58248 0.24161
 C190 C 0.10398 0.61488 0.22608
 C191 C 0.03938 0.57879 0.24080
 C192 C 0.05938 0.54616 0.25477
 N193 N 0.10034 0.54854 0.25479
 H194 H 0.10222 0.45955 0.34397
 H195 H 0.08274 0.45075 0.22464
 H196 H 0.04490 0.38393 0.23539
 H197 H 0.06506 0.39306 0.35697
 H198 H 0.15506 0.58378 0.24204
 H199 H 0.12258 0.64059 0.21391
 H200 H 0.00682 0.57658 0.24133
 H201 H 0.04219 0.51902 0.26562
 C202 C 0.19491 0.54457 0.38602
 C203 C 0.19664 0.45559 0.16664
 C204 C 0.06179 0.61391 0.22627
 C205 C 0.05261 0.38327 0.29703
 C206 C -0.22554 0.00272 0.18040
 H207 H -0.23845 0.00141 0.20927
 C208 C -0.24774 0.01587 0.14960
 H209 H -0.27789 0.02448 0.15489
 C210 C -0.16931 -0.00330 0.13866
 H211 H -0.13798 -0.00870 0.13501
 C212 C -0.19106 0.00743 0.10686
 H213 H -0.17613 0.01036 0.07877
 N214 N -0.18695 -0.00616 0.17439
 C215 C -0.19327 0.00828 0.28325
 H216 H -0.18983 0.03803 0.26995
 C217 C -0.20385 0.00394 0.32238
 H218 H -0.20788 0.03032 0.33896
 C219 C -0.18856 -0.06201 0.27936
 H220 H -0.18124 -0.08748 0.26291
 C221 C -0.19925 -0.06772 0.31825
 H222 H -0.19978 -0.09754 0.33167
 Zn223 Zn -0.15381 -0.01666 0.21593
 N224 N -0.18384 -0.02422 0.26312
 C225 C -0.13475 0.06593 0.21818
 N226 N -0.11770 0.03030 0.22064
 C227 C -0.07945 0.02873 0.23297
 C228 C -0.05911 0.06275 0.24825
 C229 C -0.11572 0.10050 0.23355
 C230 C -0.13402 -0.08610 0.17593
 C231 C -0.11202 -0.11877 0.16812
 C232 C -0.07695 -0.10795 0.22733
 C233 C -0.09967 -0.07540 0.23403
 N234 N -0.12626 -0.06389 0.20756
 H235 H -0.16497 0.06666 0.20781
 H236 H -0.06570 0.00067 0.23378
 H237 H -0.03020 0.06034 0.26123
 H238 H -0.13142 0.12753 0.23510
 H239 H -0.15688 -0.07837 0.15630
 H240 H -0.11699 -0.13490 0.14185
 H241 H -0.05434 -0.11553 0.24751
 H242 H -0.09554 -0.05886 0.26010
 C243 C -0.20506 -0.03422 0.34039
 C244 C -0.23067 0.01777 0.11214
 C245 C -0.08247 -0.12921 0.19351
 C246 C -0.07861 0.09824 0.25091
 C247 C 0.29722 0.52823 0.72516
 H248 H 0.28550 0.53602 0.75281
 C249 C 0.28013 0.54311 0.69181
 H250 H 0.25470 0.56105 0.69438
 C251 C 0.34789 0.50123 0.68769
 H252 H 0.37552 0.48667 0.68602
 C253 C 0.33248 0.51659 0.65379
 H254 H 0.34828 0.51352 0.62662
 N255 N 0.33047 0.50736 0.72269
 C256 C 0.35177 0.45832 0.84050
 H257 H 0.38290 0.45380 0.83466
 C258 C 0.33450 0.44582 0.87629
 H259 H 0.35275 0.43248 0.89776
 C260 C 0.28944 0.47765 0.81881
 H261 H 0.27134 0.48861 0.79627
 C262 C 0.27083 0.46532 0.85441
 H263 H 0.23880 0.46713 0.85868
 Zn264 Zn 0.36076 0.49262 0.76675
 N265 N 0.32965 0.47492 0.81272
 C266 C 0.42272 0.53599 0.80774
 N267 N 0.39679 0.53828 0.77825
 C268 C 0.39452 0.57362 0.75789
 C269 C 0.41709 0.60873 0.76840
 C270 C 0.44628 0.57005 0.81866
 C271 C 0.36895 0.41960 0.73302
 C272 C 0.38879 0.38961 0.71563
 C273 C 0.45069 0.41687 0.74302
 C274 C 0.43012 0.44790 0.75790
 N275 N 0.39005 0.44911 0.75206
 H276 H 0.42443 0.50815 0.82388
 H277 H 0.37387 0.57520 0.73456
 H278 H 0.41297 0.63717 0.75377
 H279 H 0.46510 0.56815 0.84350
 H280 H 0.33699 0.42088 0.72931
 H281 H 0.37188 0.36793 0.69839
 H282 H 0.48239 0.41585 0.74849
 H283 H 0.44651 0.47115 0.77344
 C284 C 0.29367 0.44969 0.88382
 C285 C 0.29898 0.53893 0.65575
 C286 C 0.43048 0.38875 0.71950
 C287 C 0.44246 0.60713 0.79976
 C288 C 0.68454 0.98892 0.68906
 H289 H 0.68985 0.98216 0.71896
 C290 C 0.71197 0.97800 0.66120
 H291 H 0.73886 0.96461 0.67006
 C292 C 0.64162 1.01025 0.64070
 H293 H 0.61413 1.02231 0.63245
 C294 C 0.66714 0.99768 0.61201
 H295 H 0.65859 0.99980 0.58221
 N296 N 0.64985 1.00453 0.67855
 C297 C 0.60141 1.01853 0.79538
 H298 H 0.57030 1.00916 0.79009
 C299 C 0.61251 1.02934 0.83231
 H300 H 0.58917 1.02927 0.85447
 C301 C 0.66755 1.03620 0.77113
 H302 H 0.68842 1.04162 0.74699
 C303 C 0.68040 1.04548 0.80791
 H304 H 0.71188 1.05518 0.81130
 Zn305 Zn 0.60830 1.01058 0.71622
 N306 N 0.62884 1.02190 0.76564
 C307 C 0.59593 0.92725 0.72223
 N308 N 0.57605 0.96118 0.72192
 C309 C 0.53685 0.96020 0.73395
 C310 C 0.51747 0.92477 0.75067
 C311 C 0.57770 0.89133 0.73843
 C312 C 0.58055 1.08670 0.72383
 C313 C 0.56023 1.12011 0.71413
 C314 C 0.53464 1.08554 0.65864
 C315 C 0.55383 1.05185 0.67056
 N316 N 0.57735 1.05347 0.70198
 H317 H 0.62720 0.92883 0.71320
 H318 H 0.52199 0.98777 0.73419
 H319 H 0.48782 0.92525 0.76391
 H320 H 0.59521 0.86562 0.74192
 H321 H 0.59941 1.08782 0.74859
 H322 H 0.56302 1.14610 0.73210
 H323 H 0.51786 1.08465 0.63236
 H324 H 0.55050 1.02471 0.65432
 C325 C 0.65284 1.04216 0.83958
 C326 C 0.70187 0.97968 0.62231
 C327 C 0.53734 1.12010 0.68087
 C328 C 0.53898 0.89063 0.75484
 C329 C 0.00547 0.21613 -0.18790
 H330 H 0.00128 0.24084 -0.20773
 C331 C 0.02809 0.18501 -0.19969
 H332 H 0.04157 0.18621 -0.22839
 C333 C -0.00538 0.18448 -0.12614
 H334 H -0.01832 0.18446 -0.09739
 C335 C 0.01673 0.15277 -0.13677
 H336 H 0.02124 0.12880 -0.11599
 N337 N -0.00939 0.21612 -0.15109
 C338 C -0.08133 0.31628 -0.16146
 H339 H -0.10281 0.30287 -0.14007
 C340 C -0.09088 0.34999 -0.18303
 H341 H -0.11970 0.36198 -0.17842
 C342 C -0.01694 0.31897 -0.19212
 H343 H 0.01253 0.30798 -0.19441
 C344 C -0.02539 0.35271 -0.21447
 H345 H -0.00272 0.36701 -0.23441
 Zn346 Zn -0.03196 0.26103 -0.12896
 N347 N -0.04459 0.30179 -0.16571
 C348 C 0.02977 0.31727 -0.10521
 N349 N 0.00683 0.28285 -0.09449
 C350 C 0.01540 0.26081 -0.06256
 C351 C 0.04950 0.27188 -0.04147
 C352 C 0.06446 0.32892 -0.08549
 C353 C -0.10349 0.21414 -0.12213
 C354 C -0.13933 0.19655 -0.10568
 C355 C -0.12741 0.23641 -0.04958
 C356 C -0.09113 0.25283 -0.06705
 N357 N -0.07996 0.24121 -0.10259
 H358 H 0.02245 0.33493 -0.13009
 H359 H -0.00351 0.23394 -0.05404
 H360 H 0.05646 0.25377 -0.01650
 H361 H 0.08334 0.35544 -0.09545
 H362 H -0.09409 0.20593 -0.15060
 H363 H -0.15736 0.17519 -0.12237
 H364 H -0.13427 0.24435 -0.02034
 H365 H -0.07174 0.27449 -0.05209
 C366 C -0.06255 0.36876 -0.20951
 C367 C 0.03486 0.15362 -0.17345
 C368 C -0.15237 0.20751 -0.06881
 C369 C 0.07537 0.30532 -0.05404
 C370 C 0.42191 0.17759 0.18189
 H371 H 0.39830 0.19252 0.16826
 C372 C 0.41224 0.14155 0.20284
 H373 H 0.38124 0.12887 0.20502
 C374 C 0.49097 0.17496 0.19515
 H375 H 0.52169 0.18786 0.19166
 C376 C 0.48255 0.13897 0.21669
 H377 H 0.50678 0.12434 0.22985
 N378 N 0.46092 0.19288 0.17734
 C379 C 0.52284 0.30833 0.14250
 H380 H 0.52464 0.30352 0.11191
 C381 C 0.54126 0.34340 0.15718
 H382 H 0.55789 0.36532 0.13790
 C383 C 0.49864 0.28566 0.20482
 H384 H 0.48152 0.26314 0.22301
 C385 C 0.51627 0.32080 0.22073
 H386 H 0.51296 0.32523 0.25132
 Zn387 Zn 0.47481 0.23653 0.14173
 N388 N 0.50186 0.28046 0.16624
 C389 C 0.41947 0.29344 0.12637
 N390 N 0.42768 0.25501 0.11926
 C391 C 0.40220 0.23061 0.09840
 C392 C 0.36727 0.24488 0.08353
 C393 C 0.38496 0.30874 0.11227
 C394 C 0.54998 0.21849 0.11610
 C395 C 0.57911 0.20324 0.09280
 C396 C 0.52873 0.18853 0.04534
 C397 C 0.50043 0.20465 0.06950
 N398 N 0.51136 0.21862 0.10449
 H399 H 0.43938 0.31240 0.14344
 H400 H 0.40853 0.19984 0.09388
 H401 H 0.34738 0.22539 0.06672
 H402 H 0.37895 0.33938 0.11826
 H403 H 0.55813 0.22979 0.14389
 H404 H 0.60955 0.20272 0.10285
 H405 H 0.51958 0.17617 0.01816
 H406 H 0.46975 0.20499 0.06057
 C407 C 0.53711 0.35047 0.19653
 C408 C 0.44294 0.12125 0.21944
 C409 C 0.56853 0.18764 0.05720
 C410 C 0.35831 0.28435 0.09076
 C411 C 1.00580 0.70678 0.62694
 H412 H 1.01007 0.71359 0.59646
 C413 C 0.98724 0.66957 0.63934
 H414 H 0.97719 0.64774 0.61843
 C415 C 1.01104 0.72800 0.69127
 H416 H 1.01998 0.75107 0.71125
 C417 C 0.99214 0.69101 0.70498
 H418 H 0.98600 0.68579 0.73553
 N419 N 1.01621 0.73551 0.65269
 C420 C 1.08354 0.85010 0.65940
 H421 H 1.10397 0.84509 0.63586
 C422 C 1.09287 0.88195 0.68355
 H423 H 1.12113 0.90033 0.67938
 C424 C 1.02089 0.83436 0.69237
 H425 H 0.99242 0.81623 0.69490
 C426 C 1.02897 0.86617 0.71715
 H427 H 1.00721 0.87204 0.73940
 Zn428 Zn 1.03419 0.78586 0.62919
 N429 N 1.04842 0.82644 0.66467
 C430 C 0.95347 0.78845 0.61150
 N431 N 0.99147 0.80398 0.60163
 C432 C 0.99859 0.83509 0.57550
 C433 C 0.96648 0.85180 0.55795
 C434 C 0.92057 0.80450 0.59499
 C435 C 1.11283 0.76959 0.61294
 C436 C 1.14299 0.75242 0.59263
 C437 C 1.09963 0.74650 0.53806
 C438 C 1.07077 0.76552 0.55896
 N439 N 1.07750 0.77568 0.59605
 H440 H 0.94851 0.76456 0.63324
 H441 H 1.02915 0.84725 0.56885
 H442 H 0.97221 0.87660 0.53713
 H443 H 0.89038 0.79245 0.60354
 H444 H 1.11663 0.77570 0.64305
 H445 H 1.17037 0.74642 0.60707
 H446 H 1.09257 0.73529 0.50991
 H447 H 1.04170 0.76885 0.54676
 C448 C 1.06550 0.89003 0.71283
 C449 C 0.97924 0.66196 0.67860
 C450 C 1.13598 0.73918 0.55528
 C451 C 0.92701 0.83692 0.56843
 C452 C 0.54539 0.69572 0.31827
 H453 H 0.53630 0.72271 0.30421
 C454 C 0.55593 0.66361 0.29635
 H455 H 0.55526 0.66586 0.26524
 C456 C 0.56044 0.66040 0.37580
 H457 H 0.56265 0.65985 0.40680
 C458 C 0.57091 0.62772 0.35516
 H459 H 0.58182 0.60200 0.37010
 N460 N 0.54817 0.69347 0.35723
 C461 C 0.52842 0.81693 0.37542
 H462 H 0.55413 0.82245 0.39340
 C463 C 0.50611 0.84889 0.36498
 H464 H 0.51558 0.87862 0.37483
 C465 C 0.48255 0.77070 0.34503
 H466 H 0.47279 0.73993 0.33857
 C467 C 0.45949 0.80170 0.33385
 H468 H 0.43321 0.79452 0.31685
 Zn469 Zn 0.53813 0.73491 0.39024
 N470 N 0.51601 0.77869 0.36582
 C471 C 0.61453 0.77225 0.38546
 N472 N 0.58782 0.75208 0.41082
 C473 C 0.59720 0.74503 0.44809
 C474 C 0.63402 0.76102 0.46170
 C475 C 0.65119 0.78941 0.39796
 C476 C 0.47255 0.68457 0.41548
 C477 C 0.43692 0.67416 0.43618
 C478 C 0.45678 0.72474 0.48199
 C479 C 0.49184 0.73496 0.45974
 N480 N 0.49894 0.71481 0.42717
 H481 H 0.60634 0.77669 0.35581
 H482 H 0.57596 0.72773 0.46737
 H483 H 0.64067 0.75683 0.49182
 H484 H 0.67078 0.80807 0.37811
 H485 H 0.47777 0.67025 0.38860
 H486 H 0.41539 0.65121 0.42554
 H487 H 0.45092 0.74118 0.50760
 H488 H 0.51235 0.76015 0.46743
 C489 C 0.46992 0.84132 0.34543
 C490 C 0.56918 0.62951 0.31508
 C491 C 0.42822 0.69510 0.46918
 C492 C 0.66103 0.78431 0.43663
 C493 C 0.37307 -0.03544 0.28396
 C494 C 0.14558 1.03086 0.78316
 C495 C 0.63824 0.49516 0.23771
 C496 C 0.87731 0.51427 0.72637
 C497 C 0.22198 0.36465 0.02526
 C498 C 0.70438 0.11034 0.98663
 C499 C 0.26397 0.63625 0.51570
 C500 C 0.78601 0.90112 0.49681
 C501 C -0.01593 0.22420 0.35621
 C502 C 1.00702 0.74531 0.12768
 C503 C 0.48271 0.27011 0.61508
 C504 C 0.50701 0.75722 0.87043
 C505 C 0.43907 -0.06031 0.30987
 C506 C 0.46224 -0.08936 0.32504
 C507 C 0.44480 -0.12750 0.33716
 C508 C 0.40217 -0.13383 0.33879
 C509 C 0.37858 -0.10562 0.32053
 C510 C 0.39746 -0.06848 0.30353
 C511 C 0.33700 -0.11660 0.31874
 N512 N 0.31992 -0.15004 0.33782
 N513 N 0.34168 -0.17396 0.35840
 C514 C 0.38212 -0.16687 0.35976
 H515 H 0.45499 -0.03160 0.30202
 H516 H 0.49452 -0.08229 0.32504
 H517 H 0.31790 -0.09966 0.30182
 H518 H 0.39818 -0.18684 0.37764
 C519 C 0.92090 0.47805 0.77453
 C520 C 0.93085 0.44188 0.79134
 C521 C 0.92909 0.40678 0.77035
 C522 C 0.92262 0.40958 0.73046
 C523 C 0.91516 0.44727 0.71301
 C524 C 0.90628 0.48005 0.73657
 C525 C 0.92253 0.45154 0.67323
 N526 N 0.92715 0.41879 0.65190
 N527 N 0.92718 0.38212 0.66813
 C528 C 0.92545 0.37639 0.70690
 H529 H 0.92072 0.50374 0.79280
 H530 H 0.93861 0.44099 0.82141
 H531 H 0.92907 0.48070 0.65963
 H532 H 0.92787 0.34640 0.71889
 C533 C 0.07558 1.05507 0.80325
 C534 C 0.04955 1.08393 0.81265
 C535 C 0.06386 1.12390 0.81712
 C536 C 0.10569 1.13458 0.81468
 C537 C 0.13256 1.10553 0.80415
 C538 C 0.11738 1.06489 0.79570
 C539 C 0.17378 1.11885 0.80151
 N540 N 0.18695 1.15710 0.80980
 N541 N 0.16174 1.18363 0.82055
 C542 C 0.12161 1.17372 0.82320
 H543 H 0.06197 1.02458 0.80277
 H544 H 0.01774 1.07483 0.81676
 H545 H 0.19572 1.09992 0.79189
 H546 H 0.10262 1.19652 0.83233
 C547 C 0.58026 0.53014 0.27060
 C548 C 0.56379 0.56198 0.28818
 C549 C 0.58679 0.59811 0.29312
 C550 C 0.62753 0.60235 0.28102
 C551 C 0.64467 0.57019 0.26260
 C552 C 0.62040 0.53324 0.25564
 C553 C 0.68565 0.57661 0.25154
 N554 N 0.70744 0.61164 0.25865
 N555 N 0.69122 0.64135 0.27625
 C556 C 0.65203 0.63795 0.28762
 H557 H 0.56096 0.50253 0.26990
 H558 H 0.53295 0.55795 0.29905
 H559 H 0.70052 0.55491 0.23630
 H560 H 0.64050 0.66312 0.30182
 C561 C 0.60759 0.42089 0.25012
 C562 C 0.58405 0.38669 0.23993
 C563 C 0.55535 0.38872 0.21181
 C564 C 0.54728 0.42677 0.19633
 C565 C 0.57143 0.46217 0.20618
 C566 C 0.60422 0.45943 0.23238
 C567 C 0.56136 0.49894 0.18928
 N568 N 0.53028 0.49999 0.16501
 N569 N 0.50788 0.46683 0.15628
 C570 C 0.51514 0.43037 0.17128
 H571 H 0.63109 0.41511 0.26971
 H572 H 0.59027 0.35776 0.25241
 H573 H 0.57641 0.52735 0.19589
 H574 H 0.49519 0.40461 0.16396
 C575 C 0.09198 0.99439 0.74395
 C576 C 0.07233 0.96202 0.72621
 C577 C 0.07663 0.92296 0.73907
 C578 C 0.09874 0.91624 0.77227
 C579 C 0.12199 0.94887 0.78938
 C580 C 0.11900 0.99004 0.77461
 C581 C 0.14849 0.93710 0.81815
 N582 N 0.14802 0.89831 0.83113
 N583 N 0.12397 0.86910 0.81674
 C584 C 0.09975 0.87669 0.78740
 H585 H 0.08810 1.02391 0.73142
 H586 H 0.05527 0.96752 0.70073
 H587 H 0.17182 0.95633 0.82935
 H588 H 0.08151 0.85162 0.77606
 C589 C 0.94595 0.55704 0.71546
 C590 C 0.96978 0.59207 0.70475
 C591 C 0.95263 0.62608 0.69102
 C592 C 0.91051 0.62521 0.68788
 C593 C 0.88565 0.58990 0.69934
 C594 C 0.90339 0.55447 0.71358
 C595 C 0.84361 0.59206 0.69761
 N596 N 0.82827 0.62592 0.68409
 N597 N 0.85184 0.65840 0.67249
 C598 C 0.89235 0.65929 0.67409
 H599 H 0.96200 0.53212 0.72530
 H600 H 1.00217 0.59247 0.70680
 H601 H 0.82245 0.56791 0.70788
 H602 H 0.90990 0.68684 0.66489
 C603 C 0.39135 0.04239 0.28677
 C604 C 0.40735 0.07912 0.27086
 C605 C 0.43301 0.08119 0.23872
 C606 C 0.44497 0.04513 0.22351
 C607 C 0.42969 0.00706 0.24033
 C608 C 0.40065 0.00482 0.27203
 C609 C 0.44289 -0.02752 0.22346
 N610 N 0.46820 -0.02440 0.19227
 N611 N 0.48141 0.01111 0.17622
 C612 C 0.47054 0.04590 0.19063
 H613 H 0.36888 0.04508 0.30899
 H614 H 0.39763 0.10654 0.28257
 H615 H 0.43400 -0.05710 0.23479
 H616 H 0.48189 0.07374 0.17596
 C617 C 0.25910 0.37257 -0.03933
 C618 C 0.27590 0.39138 -0.07256
 C619 C 0.27450 0.43239 -0.07947
 C620 C 0.25485 0.45493 -0.05201
 C621 C 0.23609 0.43557 -0.01778
 C622 C 0.24010 0.39316 -0.00980
 C623 C 0.21337 0.45983 0.00545
 N624 N 0.21260 0.49975 -0.00282
 N625 N 0.23229 0.51768 -0.03320
 C626 C 0.25330 0.49663 -0.05806
 H627 H 0.26212 0.34080 -0.03650
 H628 H 0.29023 0.37336 -0.09340
 H629 H 0.19499 0.44834 0.02956
 H630 H 0.26843 0.51273 -0.08248
 C631 C 0.75933 0.94278 0.44204
 C632 C 0.76010 0.95687 0.40397
 C633 C 0.79602 0.96121 0.38268
 C634 C 0.83253 0.95576 0.40099
 C635 C 0.83203 0.93990 0.43957
 C636 C 0.79414 0.93047 0.46020
 C637 C 0.86867 0.93186 0.45598
 N638 N 0.90391 0.94113 0.43417
 N639 N 0.90418 0.95727 0.39745
 C640 C 0.86944 0.96453 0.38075
 H641 H 0.73014 0.93784 0.45644
 H642 H 0.73204 0.96192 0.39034
 H643 H 0.90052 0.93323 0.45206
 H644 H 0.87100 0.97731 0.35172
 C645 C 0.72774 0.09675 1.05409
 C646 C 0.73982 0.07458 1.08526
 C647 C 0.74979 0.03528 1.08128
 C648 C 0.74614 0.01761 1.04483
 C649 C 0.73357 0.04027 1.01228
 C650 C 0.72071 0.08030 1.01760
 C651 C 0.73664 0.02183 0.97627
 N652 N 0.74597 -0.01679 0.97405
 N653 N 0.75367 -0.03869 1.00510
 C654 C 0.75410 -0.02282 1.04034
 H655 H 0.72249 0.12751 1.05936
 H656 H 0.74401 0.08953 1.11231
 H657 H 0.73339 0.03711 0.94925
 H658 H 0.76070 -0.04200 1.06463
 C659 C 0.26791 0.56795 0.55501
 C660 C 0.27665 0.54529 0.58784
 C661 C 0.28857 0.56386 0.62171
 C662 C 0.29216 0.60631 0.62239
 C663 C 0.28013 0.62950 0.59033
 C664 C 0.26879 0.61057 0.55477
 C665 C 0.28072 0.67133 0.59505
 N666 N 0.29539 0.68870 0.62707
 N667 N 0.30963 0.66709 0.65551
 C668 C 0.30871 0.62658 0.65421
 H669 H 0.26207 0.55126 0.52940
 H670 H 0.27512 0.51279 0.58646
 H671 H 0.26882 0.69052 0.57437
 H672 H 0.32148 0.61087 0.67794
 C673 C 0.21531 0.58497 0.48416
 C674 C 0.19799 0.56280 0.45459
 C675 C 0.21795 0.56062 0.41927
 C676 C 0.25687 0.58037 0.41398
 C677 C 0.27359 0.60672 0.44249
 C678 C 0.25278 0.60857 0.47993
 C679 C 0.30848 0.63152 0.42992
 N680 N 0.32743 0.62609 0.39585
 N681 N 0.31344 0.59871 0.37161
 C682 C 0.27851 0.57616 0.37924
 H683 H 0.19798 0.58472 0.51086
 H684 H 0.16801 0.54790 0.45908
 H685 H 0.31999 0.65745 0.44417
 H686 H 0.26786 0.55542 0.35774
 C687 C 0.70445 0.10501 0.91237
 C688 C 0.69257 0.08890 0.87799
 C689 C 0.66486 0.05517 0.87653
 C690 C 0.64944 0.03700 0.91216
 C691 C 0.65965 0.05516 0.94792
 C692 C 0.68893 0.08966 0.94867
 C693 C 0.64262 0.03571 0.98177
 N694 N 0.61923 0.00058 0.98043
 N695 N 0.61196 -0.01737 0.94748
 C696 C 0.62690 -0.00087 0.91356
 H697 H 0.72612 0.13078 0.90903
 H698 H 0.70450 0.10472 0.85196
 H699 H 0.64918 0.04626 1.00961
 H700 H 0.62210 -0.01844 0.88829
 C701 C 0.75705 0.96216 0.52950
 C702 C 0.73810 0.98053 0.55938
 C703 C 0.72467 0.95890 0.59286
 C704 C 0.73045 0.91736 0.59637
 C705 C 0.75149 0.89858 0.56670
 C706 C 0.76486 0.92110 0.53176
 C707 C 0.75537 0.85686 0.57196
 N708 N 0.73981 0.83613 0.60372
 N709 N 0.71956 0.85371 0.63079
 C710 C 0.71377 0.89326 0.62791
 H711 H 0.76650 0.98140 0.50486
 H712 H 0.73348 1.01221 0.55610
 H713 H 0.76829 0.83941 0.55056
 H714 H 0.69517 0.90484 0.64998
 C715 C 0.24069 0.41464 0.07665
 C716 C 0.23630 0.43613 0.10993
 C717 C 0.20108 0.43091 0.13221
 C718 C 0.16945 0.40313 0.12107
 C719 C 0.17337 0.38015 0.08719
 C720 C 0.20994 0.38693 0.06299
 C721 C 0.14023 0.35167 0.08047
 N722 N 0.10700 0.34806 0.10385
 N723 N 0.10361 0.37045 0.13435
 C724 C 0.13359 0.39776 0.14374
 H725 H 0.26869 0.42092 0.06048
 H726 H 0.26068 0.45745 0.11818
 H727 H 0.13872 0.33135 0.05761
 H728 H 0.12897 0.41484 0.16913
 C729 C -0.08887 0.23805 0.36652
 C730 C -0.12028 0.25430 0.38561
 C731 C -0.11727 0.26377 0.42407
 C732 C -0.08450 0.25200 0.44517
 C733 C -0.05298 0.23302 0.42648
 C734 C -0.05235 0.23115 0.38475
 C735 C -0.02519 0.21613 0.45113
 N736 N -0.02614 0.22233 0.48947
 N737 N -0.05368 0.24320 0.50581
 C738 C -0.08301 0.25809 0.48500
 H739 H -0.09166 0.23509 0.33578
 H740 H -0.14599 0.26222 0.36943
 H741 H -0.00347 0.19658 0.44162
 H742 H -0.10553 0.27362 0.49998
 C743 C 0.48053 0.78610 0.93463
 C744 C 0.45193 0.80405 0.95678
 C745 C 0.41505 0.81220 0.94169
 C746 C 0.40625 0.80185 0.90369
 C747 C 0.43427 0.78213 0.88118
 C748 C 0.47342 0.77485 0.89621
 C749 C 0.42110 0.76964 0.84465
 N750 N 0.38501 0.77850 0.83131
 N751 N 0.36007 0.79869 0.85193
 C752 C 0.36935 0.81052 0.88763
 H753 H 0.50817 0.78089 0.94853
 H754 H 0.45877 0.81180 0.98607
 H755 H 0.43773 0.75168 0.82650
 H756 H 0.34753 0.82645 0.90311
 C757 C 1.08114 0.74135 0.10491
 C758 C 1.11608 0.75521 0.08462
 C759 C 1.11643 0.78620 0.05685
 C760 C 1.07927 0.80053 0.04626
 C761 C 1.04272 0.78576 0.06647
 C762 C 1.04382 0.75768 0.09895
 C763 C 1.00741 0.80334 0.05597
 N764 N 1.00827 0.83205 0.02748
 N765 N 1.04223 0.84551 0.00893
 C766 C 1.07772 0.83126 0.01772
 H767 H 1.08456 0.71753 0.12586
 H768 H 1.14392 0.74282 0.09225
 H769 H 0.97941 0.79678 0.07113
 H770 H 1.10419 0.84469 0.00242
 C771 C 0.54664 0.25468 0.57573
 C772 C 0.58267 0.26612 0.55607
 C773 C 0.59170 0.30563 0.54257
 C774 C 0.56195 0.33322 0.54552
 C775 C 0.52433 0.32104 0.56452
 C776 C 0.51856 0.28276 0.58505
 C777 C 0.49489 0.34864 0.56370
 N778 N 0.50319 0.38620 0.54793
 N779 N 0.53921 0.39828 0.53254
 C780 C 0.56893 0.37318 0.53098
 H781 H 0.54157 0.22317 0.58413
 H782 H 0.60413 0.24391 0.55194
 H783 H 0.46536 0.34087 0.57487
 H784 H 0.59761 0.38486 0.51838
 C785 C 0.44750 0.23620 0.56017
 C786 C 0.41437 0.22100 0.54052
 C787 C 0.37577 0.23071 0.55063
 C788 C 0.37152 0.26147 0.57744
 C789 C 0.40645 0.28175 0.59349
 C790 C 0.44476 0.26469 0.58911
 C791 C 0.40036 0.31686 0.61380
 N792 N 0.36275 0.32664 0.62255
 N793 N 0.33033 0.30415 0.61205
 C794 C 0.33343 0.27167 0.59021
 H795 H 0.47534 0.22309 0.55409
 H796 H 0.41878 0.19877 0.51909
 H797 H 0.42455 0.33740 0.62273
 H798 H 0.30597 0.25416 0.58360
 C799 C 0.93299 0.74348 0.10304
 C800 C 0.90033 0.72817 0.08243
 C801 C 0.90343 0.69639 0.05808
 C802 C 0.94081 0.67991 0.05388
 C803 C 0.97448 0.69450 0.07585
 C804 C 0.97106 0.72708 0.10198
 C805 C 1.00974 0.67434 0.07188
 N806 N 1.01167 0.64391 0.04714
 N807 N 0.98058 0.63143 0.02610
 C808 C 0.94518 0.64817 0.02883
 H809 H 0.92753 0.77002 0.11837
 H810 H 0.87207 0.74172 0.08534
 H811 H 1.03535 0.68080 0.08921
 H812 H 0.92070 0.63636 0.01147
 C813 C 0.54651 0.72319 0.92341
 C814 C 0.58056 0.70971 0.94058
 C815 C 0.61898 0.72003 0.92478
 C816 C 0.62309 0.74565 0.89169
 C817 C 0.58850 0.75542 0.87111
 C818 C 0.54839 0.74687 0.88878
 C819 C 0.59677 0.77128 0.83311
 N820 N 0.63485 0.78324 0.82068
 N821 N 0.66628 0.77894 0.84262
 C822 C 0.66169 0.76029 0.87763
 H823 H 0.51814 0.71328 0.93716
 H824 H 0.57663 0.68961 0.96573
 H825 H 0.57464 0.77292 0.81178
 H826 H 0.68833 0.75643 0.89402
 C827 C 0.03871 0.17565 0.37049
 C828 C 0.07318 0.16437 0.38749
 C829 C 0.09508 0.18991 0.41159
 C830 C 0.08260 0.22869 0.41787
 C831 C 0.04701 0.24077 0.40054
 C832 C 0.02327 0.21321 0.37698
 C833 C 0.03516 0.27903 0.40987
 N834 N 0.05749 0.30324 0.43325
 N835 N 0.09078 0.29184 0.44891
 C836 C 0.10378 0.25530 0.44244
 H837 H 0.02517 0.15412 0.35124
 H838 H 0.08292 0.13490 0.38172
 H839 H 0.00729 0.28939 0.40101
 H840 H 0.13028 0.24740 0.45708
 C841 C 0.52758 0.22907 0.65559
 C842 C 0.54204 0.19378 0.66915
 C843 C 0.51860 0.15710 0.66849
 C844 C 0.47796 0.15705 0.65768
 C845 C 0.46294 0.19335 0.64331
 C846 C 0.49018 0.22937 0.63745
 C847 C 0.42091 0.19217 0.63880
 N848 N 0.39708 0.15740 0.64430
 N849 N 0.41175 0.12339 0.65573
 C850 C 0.45115 0.12218 0.66324
 H851 H 0.54777 0.25612 0.65611
 H852 H 0.57265 0.19513 0.67905
 H853 H 0.40563 0.21846 0.63392
 H854 H 0.46055 0.09427 0.67499
 C855 C 0.99750 0.67341 0.16139
 C856 C 1.01074 0.64203 0.18389
 C857 C 1.04211 0.64891 0.20932
 C858 C 1.05679 0.68921 0.21522
 C859 C 1.04661 0.72079 0.18959
 C860 C 1.01782 0.71270 0.15970
 C861 C 1.06659 0.75908 0.19476
 N862 N 1.09127 0.76596 0.22466
 N863 N 1.09808 0.73693 0.25008
 C864 C 1.08156 0.69884 0.24644
 H865 H 0.97186 0.66531 0.14419
 H866 H 0.99702 0.61180 0.18028
 H867 H 1.06347 0.78367 0.17553
 H868 H 1.08763 0.67645 0.26821
 C869 C 0.96213 0.77242 0.17938
 C870 C 0.93875 0.80140 0.19390
 C871 C 0.94601 0.84160 0.18180
 C872 C 0.98053 0.85380 0.15878
 C873 C 1.00619 0.82472 0.14570
 C874 C 0.99315 0.78218 0.15111
 C875 C 1.04420 0.84042 0.13022
 N876 N 1.05257 0.88048 0.12307
 N877 N 1.02638 0.90684 0.13167
 C878 C 0.99076 0.89491 0.14949
 H879 H 0.95260 0.74128 0.18704
 H880 H 0.91329 0.79198 0.21295
 H881 H 1.06856 0.82223 0.12500
 H882 H 0.97133 0.91788 0.15721
 C883 C 0.44827 0.28980 0.67702
 C884 C 0.43514 0.31832 0.70151
 C885 C 0.45181 0.35826 0.69871
 C886 C 0.48729 0.36748 0.67560
 C887 C 0.50371 0.33647 0.65469
 C888 C 0.47914 0.29981 0.64893
 C889 C 0.54424 0.34348 0.64230
 N890 N 0.56323 0.38105 0.64289
 N891 N 0.54489 0.41179 0.65634
 C892 C 0.50738 0.40638 0.67244
 H893 H 0.43136 0.26080 0.67794
 H894 H 0.40958 0.30975 0.72071
 H895 H 0.56135 0.31974 0.63240
 H896 H 0.49415 0.43248 0.68282
 C897 C 0.50928 0.69966 0.82316
 C898 C 0.49334 0.66551 0.80478
 C899 C 0.45771 0.64446 0.81838
 C900 C 0.43904 0.65630 0.85248
 C901 C 0.45691 0.68900 0.87323
 C902 C 0.49003 0.71490 0.85556
 C903 C 0.44092 0.69297 0.91094
 N904 N 0.40713 0.67064 0.92371
 N905 N 0.38828 0.64322 0.90215
 C906 C 0.40311 0.63521 0.86704
 H907 H 0.53646 0.71504 0.81078
 H908 H 0.50890 0.65555 0.77959
 H909 H 0.45473 0.71236 0.93148
 H910 H 0.38689 0.61198 0.85111
 C911 C -0.03679 0.19739 0.28912
 C912 C -0.05092 0.16774 0.26424
 C913 C -0.06446 0.12927 0.27819
 C914 C -0.06614 0.12101 0.31830
 C915 C -0.05014 0.15045 0.34384
 C916 C -0.03336 0.18955 0.32925
 C917 C -0.05125 0.13918 0.38326
 N918 N -0.06838 0.10276 0.39607
 N919 N -0.08470 0.07611 0.37215
 C920 C -0.08422 0.08397 0.33377
 H921 H -0.02835 0.22668 0.27592
 H922 H -0.05139 0.17499 0.23367
 H923 H -0.03809 0.15830 0.40412
 H924 H -0.09847 0.06125 0.31589
 C925 C -0.02119 0.30024 0.33661
 C926 C -0.00397 0.33779 0.32367
 C927 C 0.03317 0.34198 0.30443
 C928 C 0.05205 0.30710 0.29513
 C929 C 0.03422 0.26822 0.30745
 C930 C -0.00181 0.26431 0.33165
 C931 C 0.05381 0.23473 0.29543
 N932 N 0.08895 0.23986 0.27482
 N933 N 0.10619 0.27626 0.26496
 C934 C 0.08902 0.31001 0.27446
 H935 H -0.04802 0.30141 0.35401
 H936 H -0.01898 0.36432 0.33061
 H937 H 0.04137 0.20435 0.30117
 H938 H 0.10442 0.33876 0.26555
 C939 C 0.50343 0.79005 0.80123
 C940 C 0.50978 0.82200 0.77438
 C941 C 0.52696 0.85938 0.78496
 C942 C 0.53813 0.86509 0.82343
 C943 C 0.53324 0.83240 0.85091
 C944 C 0.51492 0.79348 0.84016
 C945 C 0.54872 0.83983 0.88780
 N946 N 0.56526 0.87678 0.89668
 N947 N 0.56836 0.90739 0.87117
 C948 C 0.55567 0.90277 0.83487
 H949 H 0.49039 0.76233 0.79009
 H950 H 0.50193 0.81722 0.74472
 H951 H 0.54954 0.81690 0.90970
 H952 H 0.55976 0.92869 0.81532
 C953 C 0.64959 0.54138 0.17686
 C954 C 0.65856 0.54958 0.13842
 C955 C 0.67569 0.52176 0.11515
 C956 C 0.68052 0.48285 0.13158
 C957 C 0.67083 0.47400 0.17144
 C958 C 0.65537 0.50406 0.19538
 C959 C 0.67820 0.43550 0.18608
 N960 N 0.69047 0.40720 0.16242
 N961 N 0.69617 0.41455 0.12483
 C962 C 0.69138 0.45118 0.10861
 H963 H 0.63636 0.56535 0.19115
 H964 H 0.65440 0.57981 0.12776
 H965 H 0.67578 0.42774 0.21622
 H966 H 0.69521 0.45487 0.07773
 C967 C 0.15856 1.07757 0.72194
 C968 C 0.16961 1.08504 0.68362
 C969 C 0.18573 1.05586 0.66153
 C970 C 0.19303 1.01871 0.67981
 C971 C 0.18652 1.01287 0.72040
 C972 C 0.16660 1.04181 0.74237
 C973 C 0.19932 0.97746 0.73736
 N974 N 0.21299 0.94846 0.71536
 N975 N 0.21519 0.95244 0.67720
 C976 C 0.20544 0.98641 0.65869
 H977 H 0.14188 1.10039 0.73409
 H978 H 0.16391 1.11393 0.67073
 H979 H 0.19922 0.97268 0.76791
 H980 H 0.20698 0.98747 0.62762
 C981 C 0.15354 1.02065 0.85458
 C982 C 0.17244 1.00862 0.88757
 C983 C 0.21309 1.00077 0.88638
 C984 C 0.23652 1.01534 0.85311
 C985 C 0.21753 1.02875 0.81900
 C986 C 0.17401 1.02693 0.81837
 C987 C 0.24353 1.04442 0.78826
 N988 N 0.28399 1.04657 0.79143
 N989 N 0.30115 1.03513 0.82349
 C990 C 0.27890 1.02046 0.85451
 H991 H 0.12116 1.02053 0.85686
 H992 H 0.15297 0.99988 0.91228
 H993 H 0.23342 1.05765 0.76236
 H994 H 0.29464 1.01424 0.88055
 C995 C 0.65074 0.47629 0.30670
 C996 C 0.67131 0.46452 0.33845
 C997 C 0.71172 0.45837 0.33544
 C998 C 0.73261 0.46626 0.29983
 C999 C 0.71221 0.48028 0.26678
 C1000 C 0.66903 0.48341 0.26949
 C1001 C 0.73688 0.49106 0.23372
 N1002 N 0.77669 0.48578 0.23317
 N1003 N 0.79465 0.47117 0.26356
 C1004 C 0.77404 0.46153 0.29691
 H1005 H 0.61880 0.47808 0.31126
 H1006 H 0.65485 0.45845 0.36556
 H1007 H 0.72656 0.50535 0.20850
 H1008 H 0.79048 0.45091 0.32107
 C1009 C 0.86496 0.51003 0.65341
 C1010 C 0.84873 0.49071 0.62185
 C1011 C 0.81399 0.46458 0.62586
 C1012 C 0.79235 0.46252 0.66141
 C1013 C 0.80765 0.48514 0.69289
 C1014 C 0.84891 0.50236 0.69132
 C1015 C 0.77919 0.49267 0.72179
 N1016 N 0.74243 0.47180 0.72359
 N1017 N 0.73111 0.44536 0.69726
 C1018 C 0.75483 0.44009 0.66604
 H1019 H 0.89237 0.52920 0.64772
 H1020 H 0.86416 0.49547 0.59409
 H1021 H 0.78445 0.51622 0.74187
 H1022 H 0.74356 0.41950 0.64462
 C1023 C 0.33430 -0.01622 0.22561
 C1024 C 0.31740 -0.02037 0.18974
 C1025 C 0.31664 -0.05679 0.17157
 C1026 C 0.33184 -0.09017 0.19034
 C1027 C 0.35416 -0.08515 0.22455
 C1028 C 0.35341 -0.04760 0.24467
 C1029 C 0.37724 -0.11756 0.23454
 N1030 N 0.37203 -0.15323 0.21689
 N1031 N 0.34669 -0.15894 0.18836
 C1032 C 0.32668 -0.12848 0.17425
 H1033 H 0.33259 0.01261 0.23873
 H1034 H 0.30561 0.00542 0.17570
 H1035 H 0.40146 -0.11540 0.25389
 H1036 H 0.30730 -0.13425 0.15017
 C1037 C 0.36010 -0.01571 0.35249
 C1038 C 0.33966 0.00121 0.38203
 C1039 C 0.29997 0.00936 0.37801
 C1040 C 0.27892 -0.00351 0.34529
 C1041 C 0.29886 -0.02331 0.31540
 C1042 C 0.34201 -0.02573 0.31700
 C1043 C 0.27378 -0.04060 0.28692
 N1044 N 0.23419 -0.03442 0.28617
 N1045 N 0.21692 -0.01308 0.31250
 C1046 C 0.23788 0.00240 0.34215
 H1047 H 0.39196 -0.01752 0.35637
 H1048 H 0.35589 0.01053 0.40734
 H1049 H 0.28370 -0.06081 0.26612
 H1050 H 0.22204 0.01840 0.36350
 C1051 C 0.85732 0.55923 0.78245
 C1052 C 0.83997 0.56644 0.81769
 C1053 C 0.81920 0.53576 0.83986
 C1054 C 0.81575 0.49631 0.82589
 C1055 C 0.83268 0.48851 0.78896
 C1056 C 0.85344 0.52094 0.76547
 C1057 C 0.82818 0.44827 0.77704
 N1058 N 0.80922 0.41877 0.80023
 N1059 N 0.79422 0.42632 0.83476
 C1060 C 0.79684 0.46402 0.84836
 H1061 H 0.87507 0.58495 0.76998
 H1062 H 0.84369 0.59676 0.82828
 H1063 H 0.83872 0.43979 0.74921
 H1064 H 0.78442 0.46833 0.87678
 C1065 C 0.19952 0.65290 0.55200
 C1066 C 0.16955 0.67719 0.56128
 C1067 C 0.16342 0.71116 0.53871
 C1068 C 0.18430 0.71733 0.50287
 C1069 C 0.21463 0.69149 0.49258
 C1070 C 0.22660 0.66200 0.52024
 C1071 C 0.23384 0.69868 0.45633
 N1072 N 0.22429 0.72941 0.43280
 N1073 N 0.19685 0.75397 0.44303
 C1074 C 0.17687 0.74926 0.47743
 H1075 H 0.20152 0.62724 0.57134
 H1076 H 0.15168 0.67003 0.58744
 H1077 H 0.25737 0.68147 0.44692
 H1078 H 0.15540 0.77053 0.48441
 C1079 C 0.64551 0.11600 1.03614
 C1080 C 0.61336 0.13370 1.05213
 C1081 C 0.59881 0.16736 1.03483
 C1082 C 0.61596 0.18255 0.99927
 C1083 C 0.64954 0.16481 0.98249
 C1084 C 0.66628 0.13120 1.00187
 C1085 C 0.66630 0.18338 0.94814
 N1086 N 0.65040 0.21554 0.93163
 N1087 N 0.61886 0.23132 0.94720
 C1088 C 0.60136 0.21617 0.98061
 H1089 H 0.65385 0.09021 1.05243
 H1090 H 0.60009 0.12131 1.07919
 H1091 H 0.69298 0.17449 0.93494
 H1092 H 0.57633 0.23078 0.99231
 C1093 C 0.77566 0.12313 0.96010
 C1094 C 0.80869 0.14592 0.94436
 C1095 C 0.81396 0.18770 0.94821
 C1096 C 0.78484 0.20592 0.97120
 C1097 C 0.75123 0.18172 0.98881
 C1098 C 0.74352 0.14018 0.97865
 C1099 C 0.72769 0.20057 1.01599
 N1100 N 0.73280 0.24092 1.02012
 N1101 N 0.76031 0.26402 0.99947
 C1102 C 0.78609 0.24802 0.97487
 H1103 H 0.77422 0.09153 0.95478
 H1104 H 0.83117 0.12986 0.92975
 H1105 H 0.70551 0.18433 1.03460
 H1106 H 0.80683 0.26859 0.95810
 C1107 C 0.33877 0.63336 0.51069
 C1108 C 0.37808 0.64649 0.50075
 C1109 C 0.38837 0.68613 0.48856
 C1110 C 0.35924 0.71448 0.49098
 C1111 C 0.31928 0.70217 0.50523
 C1112 C 0.30718 0.65942 0.51097
 C1113 C 0.29458 0.73364 0.51246
 N1114 N 0.30648 0.77224 0.50143
 N1115 N 0.34199 0.78244 0.48426
 C1116 C 0.36870 0.75489 0.47855
 H1117 H 0.33260 0.60116 0.51516
 H1118 H 0.40013 0.62449 0.49937
 H1119 H 0.26631 0.72942 0.52743
 H1120 H 0.39708 0.76513 0.46451
 C1121 C 0.71471 0.86387 0.49346
 C1122 C 0.68603 0.83571 0.48037
 C1123 C 0.69536 0.80926 0.45219
 C1124 C 0.73501 0.81146 0.43658
 C1125 C 0.76501 0.84060 0.44985
 C1126 C 0.75575 0.86629 0.48101
 C1127 C 0.80311 0.84274 0.43106
 N1128 N 0.81082 0.81708 0.40289
 N1129 N 0.78309 0.78912 0.39177
 C1130 C 0.74560 0.78524 0.40785
 H1131 H 0.70281 0.88499 0.51256
 H1132 H 0.65530 0.83613 0.49112
 H1133 H 0.82756 0.86325 0.43927
 H1134 H 0.72446 0.76159 0.39805
 C1135 C 0.15427 0.36863 -0.00366
 C1136 C 0.11925 0.35541 -0.02138
 C1137 C 0.11351 0.31649 -0.03441
 C1138 C 0.14506 0.29080 -0.03121
 C1139 C 0.18157 0.30407 -0.01268
 C1140 C 0.18527 0.34329 0.00428
 C1141 C 0.21264 0.27779 -0.01373
 N1142 N 0.20708 0.24149 -0.03013
 N1143 N 0.17287 0.22928 -0.04657
 C1144 C 0.14190 0.25278 -0.04797
 H1145 H 0.15579 0.39894 0.00621
 H1146 H 0.09604 0.37599 -0.02468
 H1147 H 0.24196 0.28517 -0.00313
 H1148 H 0.11553 0.24171 -0.06308
 C1149 C 0.29679 0.35347 0.03484
 C1150 C 0.32870 0.33498 0.05010
 C1151 C 0.32232 0.30125 0.07460
 C1152 C 0.28245 0.28599 0.08432
 C1153 C 0.24924 0.30379 0.06741
 C1154 C 0.25592 0.33828 0.04113
 C1155 C 0.21073 0.28551 0.07711
 N1156 N 0.20550 0.25404 0.10288
 N1157 N 0.23642 0.23898 0.11983
 C1158 C 0.27470 0.25383 0.11140
 H1159 H 0.30525 0.38123 0.01874
 H1160 H 0.35905 0.34797 0.04333
 H1161 H 0.18487 0.29430 0.06334
 H1162 H 0.29864 0.24050 0.12621
 C1163 C 0.83264 0.84488 0.51396
 C1164 C 0.86557 0.83003 0.53107
 C1165 C 0.89231 0.85488 0.55152
 C1166 C 0.88551 0.89575 0.55536
 C1167 C 0.85329 0.91197 0.53581
 C1168 C 0.82534 0.88609 0.51459
 C1169 C 0.85143 0.95405 0.53703
 N1170 N 0.87681 0.97683 0.55903
 N1171 N 0.90473 0.96074 0.57968
 C1172 C 0.91002 0.92104 0.57853
 H1173 H 0.81207 0.82244 0.50186
 H1174 H 0.86984 0.79831 0.52884
 H1175 H 0.83183 0.96963 0.51905
 H1176 H 0.93329 0.90966 0.59583
   
