data_POSCAR
  _audit_creation_date              2014-09-24
  _audit_creation_method            'ToBaCCo'
  _symmetry_space_group_name_H-M    'P1'
  _symmetry_Int_Tables_number       1
  _symmetry_cell_setting            triclinic
  loop_
  _symmetry_equiv_pos_as_xyz
 x,y,z
_cell_length_a 36.3015
_cell_length_b 33.3062
_cell_length_c 32.8223
_cell_angle_alpha 89.763600
_cell_angle_beta 89.996700
_cell_angle_gamma 90.174200
loop_
  _atom_site_label
  _atom_site_type_symbol
  _atom_site_fract_x
  _atom_site_fract_y
  _atom_site_fract_z
C1 C 0.30673 0.30513 0.23408
 H2 H 0.30380 0.31043 0.26642
 C3 C 0.33243 0.32726 0.21152
 H4 H 0.34852 0.35021 0.22663
 C5 C 0.28909 0.26887 0.17532
 H6 H 0.27315 0.24518 0.16148
 C7 C 0.31460 0.29003 0.15169
 H8 H 0.31751 0.28259 0.11977
 N9 N 0.28482 0.27750 0.21552
 C10 C 0.19335 0.26612 0.30206
 H11 H 0.19137 0.23372 0.30324
 C12 C 0.16994 0.28941 0.32594
 H13 H 0.14972 0.27463 0.34511
 C14 C 0.22156 0.32450 0.27469
 H15 H 0.24127 0.33814 0.25424
 C16 C 0.19869 0.34898 0.29813
 H17 H 0.20177 0.38127 0.29608
 Zn18 Zn 0.25004 0.24879 0.24782
 N19 N 0.21902 0.28382 0.27767
 C20 C 0.27555 0.21985 0.32470
 N21 N 0.27745 0.21591 0.28353
 C22 C 0.30044 0.18890 0.26596
 C23 C 0.32261 0.16424 0.29002
 C24 C 0.29715 0.19564 0.34995
 C25 C 0.20282 0.23311 0.18180
 C26 C 0.18028 0.21004 0.15658
 C27 C 0.18889 0.15379 0.20217
 C28 C 0.21245 0.17755 0.22564
 N29 N 0.21921 0.21635 0.21492
 H30 H 0.25764 0.24203 0.33807
 H31 H 0.30172 0.18684 0.23311
 H32 H 0.34125 0.14351 0.27535
 H33 H 0.29501 0.19892 0.38267
 H34 H 0.20793 0.26433 0.17446
 H35 H 0.16938 0.22389 0.12931
 H36 H 0.18311 0.12351 0.21237
 H37 H 0.22470 0.16520 0.25294
 C38 C 0.17266 0.33147 0.32452
 C39 C 0.33627 0.32021 0.16956
 C40 C 0.17265 0.16969 0.16664
 C41 C 0.32119 0.16745 0.33264
 C42 C 0.80553 0.80792 0.23880
 H43 H 0.80548 0.81049 0.27165
 C44 C 0.82871 0.83240 0.21553
 H45 H 0.84475 0.85420 0.23205
 C46 C 0.78160 0.77768 0.17947
 H47 H 0.76318 0.75622 0.16553
 C48 C 0.80527 0.80047 0.15499
 H49 H 0.80477 0.79405 0.12283
 N50 N 0.78200 0.78192 0.22055
 C51 C 0.69638 0.76816 0.31291
 H52 H 0.69488 0.73579 0.31532
 C53 C 0.67318 0.79187 0.33658
 H54 H 0.65388 0.77748 0.35716
 C55 C 0.72204 0.82602 0.28156
 H56 H 0.74042 0.83931 0.25944
 C57 C 0.69931 0.85088 0.30463
 H58 H 0.70125 0.88311 0.30072
 Zn59 Zn 0.75037 0.75099 0.25417
 N60 N 0.72057 0.78543 0.28641
 C61 C 0.77756 0.71888 0.32944
 N62 N 0.78073 0.71833 0.28810
 C63 C 0.80717 0.69592 0.26969
 C64 C 0.83055 0.67158 0.29276
 C65 C 0.80051 0.69512 0.35370
 C66 C 0.68233 0.72975 0.21869
 C67 C 0.65774 0.70765 0.19494
 C68 C 0.70770 0.66384 0.17615
 C69 C 0.73134 0.68663 0.20052
 N70 N 0.71840 0.71888 0.22141
 H71 H 0.75754 0.73791 0.34393
 H72 H 0.81074 0.69758 0.23706
 H73 H 0.85153 0.65417 0.27748
 H74 H 0.79716 0.69552 0.38648
 H75 H 0.67254 0.75604 0.23441
 H76 H 0.62928 0.71710 0.19291
 H77 H 0.71847 0.63812 0.16002
 H78 H 0.76001 0.67858 0.20238
 C79 C 0.67454 0.83384 0.33267
 C80 C 0.82931 0.82930 0.17246
 C81 C 0.67035 0.67424 0.17325
 C82 C 0.82725 0.67082 0.33535
 C83 C 0.77559 0.32622 0.71918
 H84 H 0.75438 0.34024 0.73714
 C85 C 0.79883 0.35021 0.69534
 H86 H 0.79431 0.38230 0.69453
 C87 C 0.80708 0.26767 0.69829
 H88 H 0.81017 0.23540 0.69973
 C89 C 0.83124 0.29053 0.67453
 H90 H 0.85316 0.27547 0.65834
 N91 N 0.77955 0.28561 0.71954
 C92 C 0.71058 0.27140 0.82296
 H93 H 0.72674 0.24781 0.83662
 C94 C 0.68550 0.29231 0.84701
 H95 H 0.68321 0.28472 0.87901
 C96 C 0.69157 0.30731 0.76430
 H97 H 0.69356 0.31236 0.73179
 C98 C 0.66640 0.32935 0.78733
 H99 H 0.64997 0.35212 0.77238
 Zn100 Zn 0.74808 0.25104 0.74996
 N101 N 0.71401 0.28000 0.78258
 C102 C 0.79596 0.23357 0.81550
 N103 N 0.77856 0.21789 0.78256
 C104 C 0.78427 0.17927 0.77115
 C105 C 0.80792 0.15460 0.79345
 C106 C 0.81840 0.20948 0.83994
 C107 C 0.72563 0.21696 0.67398
 C108 C 0.70388 0.19210 0.64957
 C109 C 0.66994 0.17184 0.70959
 C110 C 0.69280 0.19638 0.73289
 N111 N 0.71989 0.21838 0.71489
 H112 H 0.79216 0.26489 0.82300
 H113 H 0.77074 0.16759 0.74434
 H114 H 0.81055 0.12376 0.78371
 H115 H 0.83202 0.22363 0.86546
 H116 H 0.74714 0.23488 0.66019
 H117 H 0.70958 0.19068 0.61725
 H118 H 0.64787 0.15568 0.72463
 H119 H 0.68870 0.19834 0.76546
 C120 C 0.66346 0.32235 0.82946
 C121 C 0.82707 0.33243 0.67235
 C122 C 0.67538 0.16920 0.66727
 C123 C 0.82527 0.16908 0.82914
 C124 C 0.30132 0.80973 0.73415
 H125 H 0.30188 0.81200 0.76702
 C126 C 0.32391 0.83451 0.71053
 H127 H 0.34215 0.85553 0.72557
 C128 C 0.27784 0.77816 0.67497
 H129 H 0.26030 0.75573 0.66126
 C130 C 0.29984 0.80252 0.65015
 H131 H 0.29833 0.79908 0.61741
 N132 N 0.27884 0.78236 0.71615
 C133 C 0.20101 0.76522 0.81517
 H134 H 0.20619 0.73428 0.82348
 C135 C 0.17714 0.78834 0.83870
 H136 H 0.16533 0.77490 0.86576
 C137 C 0.21151 0.81992 0.77040
 H138 H 0.22457 0.83189 0.74334
 C139 C 0.18673 0.84365 0.79210
 H140 H 0.18092 0.87352 0.78082
 Zn141 Zn 0.25072 0.74935 0.75126
 N142 N 0.21846 0.78160 0.78245
 C143 C 0.28762 0.73006 0.82543
 N144 N 0.28485 0.72165 0.78501
 C145 C 0.30799 0.69498 0.76707
 C146 C 0.33364 0.67373 0.79037
 C147 C 0.31302 0.70973 0.84981
 C148 C 0.19562 0.73050 0.69565
 C149 C 0.17301 0.70662 0.67131
 C150 C 0.20215 0.64779 0.69984
 C151 C 0.22421 0.67286 0.72374
 N152 N 0.22105 0.71346 0.72068
 H153 H 0.27061 0.75298 0.83885
 H154 H 0.30616 0.68983 0.73461
 H155 H 0.35080 0.65157 0.77566
 H156 H 0.31479 0.71699 0.88187
 H157 H 0.19317 0.76285 0.69438
 H158 H 0.15288 0.72089 0.65173
 H159 H 0.20564 0.61559 0.70204
 H160 H 0.24377 0.65974 0.74464
 C161 C 0.16942 0.82827 0.82729
 C162 C 0.32340 0.83108 0.66790
 C163 C 0.17631 0.66465 0.67290
 C164 C 0.33612 0.68066 0.83248
 C165 C -0.00261 0.00040 -0.00327
 C166 C 0.00266 0.49865 0.50000
 C167 C 0.49881 0.00110 0.50005
 C168 C 0.50172 0.50165 0.00149
 C169 C 0.09526 -0.09919 -0.10175
 C170 C 0.12280 -0.08048 -0.12508
 C171 C 0.14723 -0.10422 -0.14763
 C172 C 0.14351 -0.14649 -0.14830
 C173 C 0.11497 -0.16447 -0.12523
 C174 C 0.09138 -0.14109 -0.10130
 C175 C 0.07012 -0.07443 -0.07710
 C176 C 0.04372 -0.09323 -0.05233
 C177 C 0.02062 -0.06971 -0.02798
 C178 C 0.02217 -0.02717 -0.02970
 C179 C 0.04905 -0.00916 -0.05532
 C180 C 0.07330 -0.03251 -0.07843
 C181 C 0.06410 -0.15883 -0.07670
 C182 C 0.04098 -0.13534 -0.05226
 C183 C 0.12543 -0.03836 -0.12526
 C184 C 0.10087 -0.01477 -0.10264
 H185 H 0.06088 -0.19118 -0.07595
 H186 H 0.02060 -0.15027 -0.03337
 H187 H 0.14651 -0.02349 -0.14322
 H188 H 0.10371 0.01761 -0.10382
 H189 H 0.16933 -0.08956 -0.16414
 H190 H 0.11073 -0.19664 -0.12590
 H191 H 0.00194 -0.08521 -0.00773
 H192 H 0.05119 0.02328 -0.05683
 C193 C 0.10220 0.40371 0.39933
 C194 C 0.11022 0.41628 0.35941
 C195 C 0.13335 0.39267 0.33509
 C196 C 0.14853 0.35676 0.35049
 C197 C 0.14047 0.34494 0.39084
 C198 C 0.11731 0.36827 0.41536
 C199 C 0.07743 0.42809 0.42482
 C200 C 0.06951 0.41562 0.46473
 C201 C 0.04564 0.43867 0.48865
 C202 C 0.02828 0.47331 0.47260
 C203 C 0.03873 0.48650 0.43314
 C204 C 0.06248 0.46361 0.40892
 C205 C 0.10893 0.35689 0.45559
 C206 C 0.08550 0.38021 0.47989
 C207 C 0.09485 0.45215 0.34461
 C208 C 0.07150 0.47550 0.36900
 H209 H 0.12051 0.32967 0.46838
 H210 H 0.07965 0.37029 0.51070
 H211 H 0.10088 0.46227 0.31390
 H212 H 0.06019 0.50292 0.35637
 H213 H 0.13903 0.40189 0.30401
 H214 H 0.15251 0.31780 0.40330
 H215 H 0.04016 0.42940 0.51975
 H216 H 0.02857 0.51466 0.42111
 C217 C 0.60205 -0.09312 0.40371
 C218 C 0.60846 -0.08312 0.36273
 C219 C 0.63243 -0.10690 0.33966
 C220 C 0.64991 -0.14044 0.35737
 C221 C 0.64347 -0.14967 0.39869
 C222 C 0.61956 -0.12612 0.42199
 C223 C 0.57635 -0.06868 0.42791
 C224 C 0.57007 -0.07863 0.46885
 C225 C 0.54531 -0.05567 0.49155
 C226 C 0.52545 -0.02371 0.47345
 C227 C 0.53407 -0.01286 0.43277
 C228 C 0.55881 -0.03570 0.40973
 C229 C 0.61274 -0.13496 0.46319
 C230 C 0.58846 -0.11154 0.48627
 C231 C 0.59060 -0.04969 0.34562
 C232 C 0.56629 -0.02629 0.36876
 H233 H 0.62619 -0.16026 0.47768
 H234 H 0.58383 -0.11945 0.51791
 H235 H 0.59538 -0.04159 0.31405
 H236 H 0.55300 -0.00084 0.35437
 H237 H 0.63692 -0.09979 0.30779
 H238 H 0.65726 -0.17500 0.41275
 H239 H 0.54088 -0.06310 0.52335
 H240 H 0.52191 0.01348 0.41892
 C241 C 0.59208 0.39411 -0.09632
 C242 C 0.62606 0.38123 -0.08073
 C243 C 0.64910 0.35777 -0.10513
 C244 C 0.63826 0.34663 -0.14478
 C245 C 0.60370 0.35930 -0.15966
 C246 C 0.58058 0.38322 -0.13558
 C247 C 0.56829 0.41990 -0.07117
 C248 C 0.53454 0.43334 -0.08683
 C249 C 0.51264 0.45897 -0.06322
 C250 C 0.52498 0.47274 -0.02478
 C251 C 0.55756 0.45577 -0.00851
 C252 C 0.57978 0.43056 -0.03191
 C253 C 0.54627 0.39666 -0.14999
 C254 C 0.52364 0.42128 -0.12602
 C255 C 0.63649 0.39231 -0.04112
 C256 C 0.61362 0.41636 -0.01701
 H257 H 0.53697 0.38836 -0.18018
 H258 H 0.49758 0.43130 -0.13846
 H259 H 0.66259 0.38241 -0.02869
 H260 H 0.62275 0.42441 0.01332
 H261 H 0.67579 0.34887 -0.09347
 H262 H 0.59472 0.35044 -0.18979
 H263 H 0.48623 0.46850 -0.07505
 H264 H 0.56619 0.46308 0.02218
 C265 C -0.10455 0.09654 -0.10099
 C266 C -0.12456 0.12710 -0.08199
 C267 C -0.14743 0.15185 -0.10558
 C268 C -0.15207 0.14522 -0.14800
 C269 C -0.13231 0.11305 -0.16592
 C270 C -0.10803 0.08948 -0.14285
 C271 C -0.07930 0.07152 -0.07656
 C272 C -0.05780 0.04239 -0.09590
 C273 C -0.03276 0.01978 -0.07285
 C274 C -0.02914 0.02568 -0.03024
 C275 C -0.05355 0.05300 -0.01128
 C276 C -0.07732 0.07711 -0.03434
 C277 C -0.08669 0.05931 -0.16104
 C278 C -0.06176 0.03641 -0.13803
 C279 C -0.12158 0.13209 -0.03959
 C280 C -0.09874 0.10714 -0.01609
 H281 H -0.08896 0.05363 -0.19342
 H282 H -0.04551 0.01380 -0.15336
 H283 H -0.13717 0.15533 -0.02441
 H284 H -0.09735 0.11188 0.01651
 H285 H -0.16324 0.17463 -0.08999
 H286 H -0.13351 0.10776 -0.19841
 H287 H -0.01696 -0.00289 -0.08847
 H288 H -0.05270 0.05660 0.02153
 C289 C -0.10024 0.59740 0.40681
 C290 C -0.11618 0.58165 0.37130
 C291 C -0.13997 0.60576 0.34815
 C292 C -0.14802 0.64527 0.36041
 C293 C -0.13215 0.66037 0.39646
 C294 C -0.10816 0.63656 0.41972
 C295 C -0.07465 0.57242 0.43084
 C296 C -0.05859 0.58814 0.46623
 C297 C -0.03389 0.56445 0.48866
 C298 C -0.02386 0.52563 0.47518
 C299 C -0.04248 0.50970 0.44092
 C300 C -0.06704 0.53317 0.41818
 C301 C -0.09178 0.65117 0.45554
 C302 C -0.06748 0.62734 0.47844
 C303 C -0.10800 0.54211 0.35968
 C304 C -0.08396 0.51822 0.38282
 H305 H -0.09771 0.68131 0.46590
 H306 H -0.05534 0.63981 0.50578
 H307 H -0.12024 0.52955 0.33244
 H308 H -0.07832 0.48792 0.37275
 H309 H -0.15248 0.59371 0.32080
 H310 H -0.13792 0.69084 0.40594
 H311 H -0.02273 0.57636 0.51671
 H312 H -0.03735 0.47907 0.43157
 C313 C 0.39377 0.09602 0.40597
 C314 C 0.37654 0.07869 0.37201
 C315 C 0.35231 0.10195 0.34854
 C316 C 0.34546 0.14234 0.35870
 C317 C 0.36265 0.15899 0.39326
 C318 C 0.38676 0.13594 0.41704
 C319 C 0.41990 0.07199 0.43023
 C320 C 0.43702 0.08925 0.46422
 C321 C 0.46211 0.06646 0.48693
 C322 C 0.47180 0.02708 0.47485
 C323 C 0.45231 0.00970 0.44196
 C324 C 0.42701 0.03215 0.41915
 C325 C 0.40426 0.15210 0.45147
 C326 C 0.42883 0.12908 0.47479
 C327 C 0.38407 0.03855 0.36208
 C328 C 0.40884 0.01564 0.38531
 H329 H 0.39899 0.18283 0.46041
 H330 H 0.44183 0.14271 0.50105
 H331 H 0.37085 0.02478 0.33602
 H332 H 0.41404 -0.01514 0.37650
 H333 H 0.33877 0.08862 0.32244
 H334 H 0.35797 0.19014 0.40110
 H335 H 0.47373 0.07956 0.51417
 H336 H 0.45730 -0.02131 0.43382
 C337 C 0.40924 0.61018 -0.09360
 C338 C 0.37453 0.62090 -0.07835
 C339 C 0.35100 0.64426 -0.10251
 C340 C 0.36196 0.65714 -0.14166
 C341 C 0.39725 0.64670 -0.15614
 C342 C 0.42096 0.62311 -0.13225
 C343 C 0.43356 0.58440 -0.06884
 C344 C 0.46808 0.57321 -0.08416
 C345 C 0.49049 0.54748 -0.06103
 C346 C 0.47785 0.53115 -0.02364
 C347 C 0.44436 0.54588 -0.00749
 C348 C 0.42173 0.57137 -0.03034
 C349 C 0.45602 0.61190 -0.14630
 C350 C 0.47921 0.58743 -0.12263
 C351 C 0.36385 0.60766 -0.03940
 C352 C 0.38714 0.58347 -0.01571
 H353 H 0.46549 0.62181 -0.17600
 H354 H 0.50585 0.57913 -0.13480
 H355 H 0.33719 0.61587 -0.02723
 H356 H 0.37775 0.57362 0.01404
 H357 H 0.32380 0.65157 -0.09119
 H358 H 0.40627 0.65696 -0.18589
 H359 H 0.51742 0.53952 -0.07259
 H360 H 0.43538 0.53672 0.02262
 C361 C -0.10057 -0.09679 0.09927
 C362 C -0.09482 -0.09884 0.14138
 C363 C -0.11742 -0.12380 0.16524
 C364 C -0.14708 -0.14589 0.14786
 C365 C -0.15248 -0.14219 0.10508
 C366 C -0.12907 -0.11851 0.08084
 C367 C -0.07617 -0.07143 0.07393
 C368 C -0.08121 -0.07039 0.03165
 C369 C -0.05727 -0.04728 0.00763
 C370 C -0.02833 -0.02447 0.02527
 C371 C -0.02538 -0.02443 0.06837
 C372 C -0.04836 -0.04870 0.09251
 C373 C -0.13372 -0.11608 0.03837
 C374 C -0.11000 -0.09271 0.01415
 C375 C -0.06641 -0.07591 0.15893
 C376 C -0.04387 -0.05092 0.13499
 H377 H -0.15566 -0.13271 0.02365
 H378 H -0.11429 -0.09203 -0.01851
 H379 H -0.06171 -0.07707 0.19151
 H380 H -0.02244 -0.03360 0.14980
 H381 H -0.11058 -0.12626 0.19712
 H382 H -0.17532 -0.15654 0.08991
 H383 H -0.06073 -0.04744 -0.02516
 H384 H -0.00551 -0.00586 0.08387
 C385 C -0.10023 0.40363 0.59778
 C386 C -0.11072 0.36520 0.58473
 C387 C -0.13478 0.34229 0.60895
 C388 C -0.14796 0.35728 0.64638
 C389 C -0.13710 0.39606 0.65883
 C390 C -0.11353 0.41945 0.63450
 C391 C -0.07474 0.42774 0.57254
 C392 C -0.06483 0.46643 0.58518
 C393 C -0.04052 0.48914 0.56119
 C394 C -0.02402 0.47272 0.52591
 C395 C -0.03627 0.43451 0.51265
 C396 C -0.06109 0.41178 0.53609
 C397 C -0.10291 0.45834 0.64618
 C398 C -0.07918 0.48155 0.62178
 C399 C -0.09690 0.35044 0.54771
 C400 C -0.07247 0.37332 0.52383
 H401 H -0.11307 0.47098 0.67438
 H402 H -0.07170 0.51141 0.63189
 H403 H -0.10486 0.32085 0.53723
 H404 H -0.06226 0.36069 0.49565
 H405 H -0.14345 0.31296 0.59843
 H406 H -0.14650 0.40788 0.68771
 H407 H -0.03377 0.51947 0.57045
 H408 H -0.02673 0.42239 0.48400
 C409 C 0.39616 -0.09643 0.59529
 C410 C 0.38955 -0.13647 0.58420
 C411 C 0.36554 -0.15993 0.60786
 C412 C 0.34796 -0.14354 0.64227
 C413 C 0.35452 -0.10306 0.65252
 C414 C 0.37869 -0.07942 0.62921
 C415 C 0.42199 -0.07188 0.57099
 C416 C 0.42865 -0.03190 0.58205
 C417 C 0.45348 -0.00885 0.55905
 C418 C 0.47272 -0.02567 0.52575
 C419 C 0.46375 -0.06539 0.51395
 C420 C 0.43919 -0.08877 0.53691
 C421 C 0.38585 -0.03916 0.63919
 C422 C 0.41039 -0.01578 0.61597
 C423 C 0.40724 -0.15231 0.54979
 C424 C 0.43150 -0.12879 0.52641
 H425 H 0.37247 -0.02564 0.66524
 H426 H 0.41525 0.01510 0.62478
 H427 H 0.40229 -0.18313 0.54085
 H428 H 0.44458 -0.14215 0.50010
 H429 H 0.36114 -0.19113 0.59995
 H430 H 0.34070 -0.08992 0.67849
 H431 H 0.45816 0.02224 0.56720
 H432 H 0.47546 -0.07825 0.48666
 C433 C 0.40910 0.39288 0.09697
 C434 C 0.42017 0.38101 0.13617
 C435 C 0.39654 0.35682 0.15971
 C436 C 0.36198 0.34470 0.14430
 C437 C 0.35162 0.35667 0.10468
 C438 C 0.37508 0.38059 0.08087
 C439 C 0.43338 0.41907 0.07243
 C440 C 0.42226 0.43086 0.03330
 C441 C 0.44495 0.45647 0.01051
 C442 C 0.47779 0.47252 0.02720
 C443 C 0.48972 0.45761 0.06545
 C444 C 0.46725 0.43173 0.08852
 C445 C 0.36505 0.39276 0.04139
 C446 C 0.38834 0.41731 0.01791
 C447 C 0.45456 0.39378 0.15105
 C448 C 0.47773 0.41864 0.12760
 H449 H 0.33892 0.38335 0.02857
 H450 H 0.37948 0.42622 -0.01232
 H451 H 0.46354 0.38471 0.18118
 H452 H 0.50387 0.42807 0.14037
 H453 H 0.40510 0.34732 0.18986
 H454 H 0.32494 0.34810 0.09265
 H455 H 0.43654 0.46475 -0.02005
 H456 H 0.51627 0.46640 0.07756
 C457 C 0.10016 0.09818 0.09211
 C458 C 0.09649 0.14008 0.09231
 C459 C 0.11965 0.16305 0.11722
 C460 C 0.14763 0.14474 0.14068
 C461 C 0.15138 0.10250 0.13913
 C462 C 0.12731 0.07910 0.11553
 C463 C 0.07494 0.07383 0.06700
 C464 C 0.07768 0.03188 0.06777
 C465 C 0.05269 0.00893 0.04494
 C466 C 0.02475 0.02738 0.02114
 C467 C 0.02497 0.06993 0.01851
 C468 C 0.04876 0.09304 0.04249
 C469 C 0.12976 0.03698 0.11489
 C470 C 0.10517 0.01376 0.09167
 C471 C 0.06970 0.15826 0.06755
 C472 C 0.04658 0.13517 0.04262
 H473 H 0.15059 0.02180 0.13282
 H474 H 0.10772 -0.01864 0.09243
 H475 H 0.06673 0.19062 0.06722
 H476 H 0.02640 0.15040 0.02383
 H477 H 0.11535 0.19515 0.11850
 H478 H 0.17310 0.08763 0.15594
 H479 H 0.05440 -0.02354 0.04615
 H480 H 0.00714 0.08591 -0.00214
 C481 C 0.10631 0.59147 0.59815
 C482 C 0.12154 0.62687 0.58195
 C483 C 0.14479 0.65036 0.60634
 C484 C 0.15273 0.63879 0.64678
 C485 C 0.13760 0.60280 0.66228
 C486 C 0.11441 0.57902 0.63807
 C487 C 0.08110 0.56718 0.57297
 C488 C 0.06582 0.53186 0.58915
 C489 C 0.04125 0.50937 0.56543
 C490 C 0.03014 0.52293 0.52635
 C491 C 0.04815 0.55703 0.50976
 C492 C 0.07286 0.57970 0.53316
 C493 C 0.09886 0.54321 0.65308
 C494 C 0.07511 0.51994 0.62896
 C495 C 0.11303 0.63817 0.54174
 C496 C 0.08916 0.61493 0.51773
 H497 H 0.10497 0.53317 0.68377
 H498 H 0.06355 0.49265 0.64179
 H499 H 0.12472 0.66534 0.52881
 H500 H 0.08309 0.62488 0.48699
 H501 H 0.15680 0.67756 0.59382
 H502 H 0.14320 0.59376 0.69342
 H503 H 0.03071 0.48140 0.57770
 H504 H 0.04225 0.56642 0.47880
 C505 C 0.60282 0.09589 0.59544
 C506 C 0.61780 0.13103 0.57838
 C507 C 0.64156 0.15481 0.60186
 C508 C 0.65106 0.14324 0.64191
 C509 C 0.63651 0.10714 0.65796
 C510 C 0.61205 0.08367 0.63509
 C511 C 0.57680 0.07153 0.57141
 C512 C 0.56120 0.03689 0.58875
 C513 C 0.53584 0.01435 0.56611
 C514 C 0.52533 0.02650 0.52638
 C515 C 0.54363 0.05991 0.50873
 C516 C 0.56829 0.08319 0.53144
 C517 C 0.59642 0.04836 0.65117
 C518 C 0.57132 0.02543 0.62844
 C519 C 0.60849 0.14183 0.53826
 C520 C 0.58441 0.11810 0.51504
 H521 H 0.60337 0.03856 0.68173
 H522 H 0.55964 -0.00140 0.64211
 H523 H 0.61997 0.16879 0.52466
 H524 H 0.57800 0.12743 0.48419
 H525 H 0.65197 0.18267 0.58915
 H526 H 0.64417 0.09719 0.68825
 H527 H 0.52482 -0.01294 0.57940
 H528 H 0.53800 0.06821 0.47739
 C529 C 0.59675 0.60550 0.09868
 C530 C 0.58518 0.61785 0.13746
 C531 C 0.60927 0.64057 0.16166
 C532 C 0.64475 0.65069 0.14738
 C533 C 0.65570 0.63834 0.10823
 C534 C 0.63177 0.61586 0.08370
 C535 C 0.57186 0.58092 0.07342
 C536 C 0.58341 0.56871 0.03468
 C537 C 0.56014 0.54442 0.01129
 C538 C 0.52628 0.52998 0.02715
 C539 C 0.51401 0.54558 0.06483
 C540 C 0.53702 0.57014 0.08847
 C541 C 0.64216 0.60344 0.04451
 C542 C 0.61831 0.58041 0.02033
 C543 C 0.54987 0.60699 0.15128
 C544 C 0.52617 0.58360 0.12717
 H545 H 0.66901 0.61143 0.03251
 H546 H 0.62749 0.57119 -0.00961
 H547 H 0.54055 0.61643 0.18110
 H548 H 0.49931 0.57558 0.13914
 H549 H 0.60071 0.64975 0.19185
 H550 H 0.68270 0.64659 0.09675
 H551 H 0.56891 0.53593 -0.01900
 H552 H 0.48687 0.53795 0.07619
   
