data_POSCAR
  _audit_creation_date              2014-09-24
  _audit_creation_method            'ToBaCCo'
  _symmetry_space_group_name_H-M    'P1'
  _symmetry_Int_Tables_number       1
  _symmetry_cell_setting            triclinic
  loop_
  _symmetry_equiv_pos_as_xyz
 x,y,z
_cell_length_a 26.5883
_cell_length_b 24.5831
_cell_length_c 7.7036
_cell_angle_alpha 89.591600
_cell_angle_beta 89.509500
_cell_angle_gamma 89.999500
loop_
  _atom_site_label
  _atom_site_type_symbol
  _atom_site_fract_x
  _atom_site_fract_y
  _atom_site_fract_z
C1 C 0.34082 0.29793 0.48763
 C2 C 0.36566 0.24854 0.51309
 C3 C 0.34135 0.19893 0.48669
 C4 C 0.29036 0.19826 0.43557
 C5 C 0.26463 0.24828 0.41013
 C6 C 0.28993 0.29835 0.43663
 C7 C 0.26401 0.34743 0.40848
 C8 C 0.21433 0.34743 0.35286
 C9 C 0.18877 0.29835 0.32318
 C10 C 0.21397 0.24827 0.35314
 C11 C 0.26468 0.14916 0.40632
 C12 C 0.21499 0.14915 0.35067
 C13 C 0.18903 0.19823 0.32192
 C14 C 0.13904 0.19888 0.26039
 C15 C 0.11468 0.24850 0.23215
 C16 C 0.13889 0.29792 0.26181
 H17 H 0.28208 0.38633 0.42846
 H18 H 0.19616 0.38633 0.33223
 H19 H 0.28299 0.11025 0.42542
 H20 H 0.19710 0.11023 0.32920
 H21 H 0.40513 0.24885 0.54857
 H22 H 0.07657 0.24879 0.18230
 C23 C 0.63979 0.20142 0.22405
 C24 C 0.61545 0.25080 0.25413
 C25 C 0.63982 0.30036 0.22508
 C26 C 0.68985 0.30112 0.16210
 C27 C 0.71500 0.25119 0.13035
 C28 C 0.68985 0.20105 0.16130
 C29 C 0.71566 0.15205 0.13150
 C30 C 0.76556 0.15221 0.07509
 C31 C 0.79143 0.20139 0.04620
 C32 C 0.76583 0.25137 0.07246
 C33 C 0.71561 0.35030 0.13281
 C34 C 0.76549 0.35050 0.07614
 C35 C 0.79147 0.30149 0.04661
 C36 C 0.84269 0.30102 -0.00473
 C37 C 0.86732 0.25151 -0.03098
 C38 C 0.84256 0.20203 -0.00489
 H39 H 0.69752 0.11311 0.15282
 H40 H 0.78385 0.11338 0.05519
 H41 H 0.69746 0.38911 0.15468
 H42 H 0.78371 0.38949 0.05665
 H43 H 0.57727 0.25065 0.30542
 H44 H 0.90699 0.25136 -0.06604
 C45 C 0.65947 0.70069 0.51295
 C46 C 0.63493 0.75022 0.48689
 C47 C 0.65954 0.79962 0.51259
 C48 C 0.71043 0.80005 0.56361
 C49 C 0.73593 0.74994 0.58965
 C50 C 0.71037 0.69998 0.56388
 C51 C 0.73607 0.65081 0.59270
 C52 C 0.78578 0.65063 0.64825
 C53 C 0.81163 0.69965 0.67733
 C54 C 0.78656 0.74979 0.64660
 C55 C 0.73618 0.84907 0.59226
 C56 C 0.78588 0.84894 0.64791
 C57 C 0.81160 0.79979 0.67706
 C58 C 0.86149 0.79916 0.73840
 C59 C 0.88585 0.74967 0.76743
 C60 C 0.86163 0.70013 0.73874
 H61 H 0.71780 0.61199 0.57329
 H62 H 0.80377 0.61165 0.66940
 H63 H 0.71796 0.88799 0.57269
 H64 H 0.80394 0.88779 0.66898
 H65 H 0.59547 0.75032 0.45162
 H66 H 0.92397 0.74981 0.81722
 C67 C 0.35980 0.79908 0.77512
 C68 C 0.38403 0.74960 0.74534
 C69 C 0.35953 0.70013 0.77488
 C70 C 0.30948 0.69958 0.83780
 C71 C 0.28446 0.74961 0.86934
 C72 C 0.30978 0.79964 0.83817
 C73 C 0.28418 0.84874 0.86807
 C74 C 0.23432 0.84881 0.92473
 C75 C 0.20817 0.79974 0.95367
 C76 C 0.23362 0.74964 0.92729
 C77 C 0.28358 0.65051 0.86722
 C78 C 0.23369 0.65050 0.92376
 C79 C 0.20784 0.69960 0.95315
 C80 C 0.15662 0.70020 1.00445
 C81 C 0.13210 0.74975 1.03094
 C82 C 0.15696 0.79926 1.00499
 H83 H 0.30245 0.88761 0.84671
 H84 H 0.21625 0.88777 0.94470
 H85 H 0.30161 0.61163 0.84551
 H86 H 0.21537 0.61157 0.94332
 H87 H 0.42219 0.74961 0.69397
 H88 H 0.09241 0.74982 1.06624
 O89 O 0.96942 -0.04176 -0.21760
 O90 O 1.05660 0.06143 -0.05045
 O91 O 1.06242 -0.04245 -0.12093
 O92 O 0.96348 0.06204 -0.14661
 O93 O 0.94002 0.04228 0.12265
 O94 O 1.03897 -0.06217 0.14834
 O95 O 1.03314 0.04188 0.21885
 O96 O 0.94596 -0.06135 0.05170
 Cu97 Cu 1.01547 0.01188 -0.16074
 Cu98 Cu 0.98711 -0.01187 0.16232
 C99 C 0.94344 -0.06954 -0.11034
 C100 C 1.05906 0.06972 0.11154
 C101 C 1.06682 -0.07058 0.01675
 C102 C 0.93549 0.07028 -0.01524
 O103 O 0.43883 0.45919 0.37369
 O104 O 0.53885 0.56281 0.36081
 O105 O 0.53256 0.45989 0.27946
 O106 O 0.44499 0.56224 0.45402
 O107 O 0.46639 0.54008 0.72203
 O108 O 0.55394 0.43765 0.54745
 O109 O 0.56026 0.54044 0.62876
 O110 O 0.46023 0.43688 0.64170
 Cu111 Cu 0.48655 0.51337 0.34029
 Cu112 Cu 0.51240 0.48645 0.66177
 C113 C 0.43321 0.42994 0.50879
 C114 C 0.56600 0.56959 0.49354
 C115 C 0.55758 0.43092 0.38477
 C116 C 0.44141 0.56907 0.61664
 O117 O -0.05551 0.56185 0.04981
 O118 O 0.03132 0.45775 0.21835
 O119 O 0.03753 0.56200 0.14695
 O120 O -0.06170 0.45794 0.12166
 O121 O -0.03823 0.43912 -0.14740
 O122 O 0.06099 0.54322 -0.12212
 O123 O 0.05480 0.43915 -0.05078
 O124 O -0.03204 0.54323 -0.21930
 Cu125 Cu -0.01453 0.51185 0.16104
 Cu126 Cu 0.01385 0.48923 -0.16172
 C127 C -0.05799 0.57067 -0.11227
 C128 C 0.05721 0.43024 0.11127
 C129 C 0.06549 0.57076 0.01548
 C130 C -0.06623 0.43042 -0.01595
 O131 O 0.46015 1.06280 0.63939
 O132 O 0.56045 0.95956 0.62690
 O133 O 0.55391 1.06267 0.54506
 O134 O 0.46671 0.95939 0.72121
 O135 O 0.44529 0.93813 0.45345
 O136 O 0.53249 1.04141 0.27729
 O137 O 0.53902 0.93814 0.35918
 O138 O 0.43872 1.04139 0.37168
 Cu139 Cu 0.51252 1.01336 0.65983
 Cu140 Cu 0.48662 0.98753 0.33874
 C141 C 0.43301 1.07009 0.50659
 C142 C 0.56619 0.93090 0.49192
 C143 C 0.55750 1.07002 0.38235
 C144 C 0.44179 0.93070 0.61615
 C145 C 1.11372 0.15254 0.21704
 C146 C 1.08975 0.11349 0.17244
 C147 C 0.62948 0.65191 0.50046
 C148 C 0.60179 0.61317 0.49472
 C149 C -0.12890 0.34730 -0.01494
 C150 C -0.10154 0.38640 -0.01865
 C151 C 0.38678 0.84808 0.72768
 C152 C 0.41097 0.88703 0.68057
 C153 C -0.11291 0.65368 -0.21818
 C154 C -0.08879 0.61455 -0.17355
 C155 C 0.36981 1.15274 0.49857
 C156 C 0.39734 1.11382 0.50483
 C157 C 1.12880 -0.15431 0.01551
 C158 C 1.10177 -0.11497 0.01935
 C159 C 0.61291 0.34912 0.27306
 C160 C 0.58862 0.38773 0.32048
 C161 C 0.88835 -0.15192 -0.21626
 C162 C 0.91254 -0.11309 -0.17142
 C163 C 0.37046 0.34695 0.50088
 C164 C 0.39778 0.38600 0.50712
 C165 C 0.12813 0.65395 0.01456
 C166 C 0.10077 0.61484 0.01818
 C167 C 0.61284 1.15237 0.27101
 C168 C 0.58852 1.11351 0.31794
 C169 C 0.11196 0.34706 0.21695
 C170 C 0.08787 0.38622 0.17242
 C171 C 0.62962 0.84850 0.49963
 C172 C 0.60198 0.88731 0.49349
 C173 C 0.87258 0.15317 -0.01552
 C174 C 0.90008 0.11423 -0.01855
 C175 C 0.38633 0.65121 0.72756
 C176 C 0.41050 0.61244 0.68065
   
