data_POSCAR
  _audit_creation_date              2014-09-24
  _audit_creation_method            'ToBaCCo'
  _symmetry_space_group_name_H-M    'P1'
  _symmetry_Int_Tables_number       1
  _symmetry_cell_setting            triclinic
  loop_
  _symmetry_equiv_pos_as_xyz
 x,y,z
_cell_length_a 36.4172
_cell_length_b 36.6450
_cell_length_c 34.2316
_cell_angle_alpha 89.981400
_cell_angle_beta 91.033700
_cell_angle_gamma 121.423800
loop_
  _atom_site_label
  _atom_site_type_symbol
  _atom_site_fract_x
  _atom_site_fract_y
  _atom_site_fract_z
C1 C 0.53730 0.07241 0.05561
 H2 H 0.56776 0.07407 0.05369
 C3 C 0.53406 0.10167 0.07898
 H4 H 0.56250 0.12614 0.09454
 C5 C 0.46386 0.03919 0.03629
 H6 H 0.43673 0.01505 0.01929
 C7 C 0.45907 0.06772 0.05966
 H8 H 0.42789 0.06462 0.06093
 N9 N 0.50244 0.04168 0.03520
 C10 C 0.52550 -0.06277 0.02146
 H11 H 0.52558 -0.06514 -0.01004
 C12 C 0.52782 -0.09287 0.04471
 H13 H 0.52951 -0.11847 0.03080
 C14 C 0.52031 -0.02804 0.07760
 H15 H 0.51638 -0.00337 0.09035
 C16 C 0.52273 -0.05731 0.10193
 H17 H 0.52157 -0.05415 0.13326
 Zn18 Zn 0.51222 0.00446 0.00495
 N19 N 0.52147 -0.03139 0.03814
 C20 C 0.59711 0.03699 -0.02368
 N21 N 0.56112 0.03948 -0.02530
 C22 C 0.55906 0.06888 -0.04789
 C23 C 0.59380 0.09691 -0.07061
 C24 C 0.63279 0.06458 -0.04598
 C25 C 0.42612 -0.05968 -0.01237
 C26 C 0.39178 -0.08982 -0.03587
 C27 C 0.43761 -0.06199 -0.09174
 C28 C 0.47068 -0.03214 -0.06721
 N29 N 0.46462 -0.03167 -0.02827
 H30 H 0.59830 0.01383 -0.00503
 H31 H 0.53027 0.07057 -0.04807
 H32 H 0.59161 0.12043 -0.08798
 H33 H 0.66107 0.06199 -0.04471
 H34 H 0.42250 -0.05957 0.01893
 H35 H 0.36278 -0.11264 -0.02113
 H36 H 0.44417 -0.05963 -0.12259
 H37 H 0.50164 -0.01004 -0.07939
 C38 C 0.52581 -0.09073 0.08554
 C39 C 0.49446 0.09936 0.08164
 C40 C 0.39706 -0.09253 -0.07652
 C41 C 0.63129 0.09494 -0.06995
 C42 C -0.03474 0.52124 0.59381
 H43 H -0.01073 0.51807 0.57874
 C44 C -0.06395 0.52750 0.57231
 H45 H -0.06202 0.52900 0.54077
 C46 C -0.06827 0.52014 0.65285
 H47 H -0.07014 0.51645 0.68424
 C48 C -0.09796 0.52660 0.63254
 H49 H -0.12208 0.52872 0.64870
 N50 N -0.03744 0.51767 0.63335
 C51 C 0.03597 0.46202 0.62512
 H52 H 0.01186 0.43350 0.63956
 C53 C 0.06723 0.46068 0.60312
 H54 H 0.06680 0.43100 0.60071
 C55 C 0.06756 0.53595 0.61242
 H56 H 0.06772 0.56528 0.61670
 C57 C 0.09956 0.53613 0.59050
 H58 H 0.12403 0.56567 0.57749
 Zn59 Zn -0.00144 0.50433 0.66253
 N60 N 0.03678 0.49935 0.62939
 C61 C -0.06636 0.41820 0.66589
 N62 N -0.03785 0.45235 0.68825
 C63 C -0.03806 0.45034 0.72792
 C64 C -0.06829 0.41295 0.74662
 C65 C -0.09698 0.38015 0.68335
 C66 C 0.02916 0.58263 0.70500
 C67 C 0.05783 0.61580 0.73018
 C68 C 0.09443 0.57760 0.74256
 C69 C 0.06472 0.54491 0.71772
 N70 N 0.03315 0.54811 0.69926
 H71 H -0.06585 0.42091 0.63440
 H72 H -0.01574 0.47816 0.74517
 H73 H -0.06894 0.41253 0.77823
 H74 H -0.11946 0.35338 0.66498
 H75 H 0.00445 0.58504 0.68947
 H76 H 0.05487 0.64350 0.73398
 H77 H 0.11984 0.57493 0.75652
 H78 H 0.06740 0.51731 0.71230
 C79 C 0.09991 0.49824 0.58598
 C80 C -0.09637 0.52989 0.59163
 C81 C 0.09134 0.61372 0.74875
 C82 C -0.09869 0.37736 0.72429
 C83 C 0.52499 0.46631 0.38640
 H84 H 0.49503 0.43608 0.38248
 C85 C 0.55671 0.46942 0.41205
 H86 H 0.55097 0.44122 0.42757
 C87 C 0.56934 0.53918 0.36935
 H88 H 0.57435 0.56610 0.35220
 C89 C 0.60198 0.54375 0.39477
 H90 H 0.63160 0.57453 0.39747
 N91 N 0.53168 0.50091 0.36581
 C92 C 0.40275 0.47389 0.33608
 H93 H 0.40356 0.47450 0.30450
 C94 C 0.36666 0.46861 0.35509
 H95 H 0.33969 0.46508 0.33794
 C96 C 0.43802 0.48033 0.39683
 H97 H 0.46623 0.48592 0.41304
 C98 C 0.40282 0.47553 0.41697
 H99 H 0.40399 0.47664 0.44861
 Zn100 Zn 0.48753 0.49209 0.32999
 N101 N 0.43746 0.47959 0.35708
 C102 C 0.43761 0.41080 0.29108
 N103 N 0.47734 0.44633 0.29683
 C104 C 0.51283 0.44964 0.28083
 C105 C 0.50935 0.41619 0.25842
 C106 C 0.43257 0.37674 0.26828
 C107 C 0.50981 0.57671 0.32012
 C108 C 0.51886 0.61342 0.29980
 C109 C 0.51689 0.57792 0.23963
 C110 C 0.50783 0.54184 0.26113
 N111 N 0.50437 0.54187 0.30062
 H112 H 0.40992 0.40841 0.30468
 H113 H 0.54406 0.47809 0.28620
 H114 H 0.53802 0.41914 0.24624
 H115 H 0.40093 0.34835 0.26433
 H116 H 0.50636 0.57565 0.35150
 H117 H 0.52301 0.64082 0.31587
 H118 H 0.51839 0.57693 0.20811
 H119 H 0.50252 0.51351 0.24610
 C120 C 0.36673 0.47003 0.39607
 C121 C 0.59592 0.50851 0.41647
 C122 C 0.52203 0.61417 0.25894
 C123 C 0.46888 0.37908 0.25215
 C124 C 0.21182 0.53173 0.55336
 C125 C 0.20412 0.49901 0.52643
 C126 C 0.16072 0.46638 0.51866
 C127 C 0.12694 0.46606 0.53824
 C128 C 0.13536 0.49850 0.56509
 C129 C 0.17801 0.53134 0.57222
 C130 C 0.15119 0.43429 0.49132
 C131 C 0.18369 0.43400 0.47096
 C132 C 0.22745 0.46556 0.47768
 C133 C 0.23787 0.49786 0.50673
 C134 C 0.28169 0.52755 0.51556
 C135 C 0.31423 0.52654 0.49616
 C136 C 0.30466 0.49639 0.46680
 C137 C 0.26123 0.46566 0.45672
 C138 C 0.25363 0.43672 0.42572
 C139 C 0.28773 0.43814 0.40617
 C140 C 0.33043 0.46808 0.41694
 C141 C 0.33857 0.49709 0.44730
 H142 H 0.24350 0.55849 0.56024
 H143 H 0.09391 0.44086 0.53213
 H144 H 0.18537 0.55671 0.59296
 H145 H 0.11810 0.40918 0.48534
 H146 H 0.17337 0.40792 0.45055
 H147 H 0.29216 0.55172 0.53802
 H148 H 0.34739 0.54993 0.50411
 H149 H 0.22180 0.41303 0.41536
 H150 H 0.28065 0.41545 0.38269
 H151 H 0.37158 0.52101 0.45524
 C152 C 0.49420 0.82751 0.16576
 C153 C 0.51938 0.80923 0.15815
 C154 C 0.54731 0.82514 0.12593
 C155 C 0.54984 0.85807 0.10280
 C156 C 0.52454 0.87563 0.11078
 C157 C 0.49680 0.85996 0.14247
 C158 C 0.57239 0.80794 0.11670
 C159 C 0.56991 0.77462 0.13822
 C160 C 0.54230 0.75720 0.17031
 C161 C 0.51730 0.77543 0.18095
 C162 C 0.49108 0.75928 0.21404
 C163 C 0.48831 0.72581 0.23538
 C164 C 0.51135 0.70686 0.22474
 C165 C 0.53877 0.72214 0.19215
 C166 C 0.56098 0.70114 0.18262
 C167 C 0.55583 0.66657 0.20442
 C168 C 0.52863 0.65175 0.23649
 C169 C 0.50666 0.67228 0.24652
 H170 H 0.47149 0.81707 0.18902
 H171 H 0.57169 0.87013 0.07853
 H172 H 0.47613 0.87218 0.14886
 H173 H 0.59398 0.82012 0.09225
 H174 H 0.59041 0.76337 0.12891
 H175 H 0.47223 0.77193 0.22458
 H176 H 0.46755 0.71443 0.26044
 H177 H 0.58223 0.71019 0.15828
 H178 H 0.57344 0.65147 0.19620
 H179 H 0.48489 0.66059 0.27086
 C180 C 0.34271 0.82974 0.84200
 C181 C 0.29931 0.80713 0.85328
 C182 C 0.28887 0.82104 0.88756
 C183 C 0.32130 0.85433 0.91082
 C184 C 0.36508 0.87600 0.90023
 C185 C 0.37458 0.86325 0.86472
 C186 C 0.24599 0.80176 0.89850
 C187 C 0.21314 0.76904 0.87603
 C188 C 0.22201 0.75326 0.84214
 C189 C 0.26598 0.77159 0.83144
 C190 C 0.27534 0.75304 0.79997
 C191 C 0.24293 0.71845 0.77907
 C192 C 0.19987 0.70150 0.78796
 C193 C 0.18854 0.71906 0.81908
 C194 C 0.14410 0.70182 0.82541
 C195 C 0.11265 0.66797 0.80243
 C196 C 0.12436 0.64993 0.77283
 C197 C 0.16802 0.66696 0.76569
 H198 H 0.35329 0.82263 0.81545
 H199 H 0.31142 0.86438 0.93622
 H200 H 0.40715 0.87698 0.85484
 H201 H 0.23762 0.81224 0.92468
 H202 H 0.18105 0.75577 0.88678
 H203 H 0.30769 0.76364 0.79145
 H204 H 0.25174 0.70498 0.75544
 H205 H 0.13255 0.71425 0.84737
 H206 H 0.07899 0.65548 0.80811
 H207 H 0.17718 0.65366 0.74216
 C208 C 0.85050 0.56194 0.51370
 C209 C 0.80654 0.53831 0.52394
 C210 C 0.79574 0.51327 0.55819
 C211 C 0.82746 0.51111 0.58018
 C212 C 0.87062 0.53391 0.56910
 C213 C 0.88178 0.55962 0.53590
 C214 C 0.75323 0.49000 0.57023
 C215 C 0.72079 0.49059 0.54894
 C216 C 0.72946 0.51430 0.51421
 C217 C 0.77302 0.53835 0.50134
 C218 C 0.78144 0.56086 0.46590
 C219 C 0.74862 0.55964 0.44357
 C220 C 0.70612 0.53645 0.45568
 C221 C 0.69587 0.51398 0.49145
 C222 C 0.65224 0.49185 0.50268
 C223 C 0.62032 0.49085 0.47871
 C224 C 0.63049 0.51191 0.44282
 C225 C 0.67367 0.53519 0.43179
 H226 H 0.86199 0.58267 0.48883
 H227 H 0.81822 0.49068 0.60554
 H228 H 0.91500 0.57831 0.52707
 H229 H 0.74483 0.47086 0.59643
 H230 H 0.68894 0.47128 0.56031
 H231 H 0.81314 0.57927 0.45402
 H232 H 0.75665 0.57698 0.41631
 H233 H 0.64148 0.47497 0.52980
 H234 H 0.58738 0.47350 0.48845
 H235 H 0.68199 0.55145 0.40398
 C236 C 0.51238 0.17404 0.16615
 C237 C 0.48871 0.19299 0.15427
 C238 C 0.46384 0.17772 0.11916
 C239 C 0.46529 0.14691 0.09583
 C240 C 0.49064 0.13003 0.10718
 C241 C 0.51324 0.14324 0.14300
 C242 C 0.43807 0.19363 0.10724
 C243 C 0.43637 0.22451 0.12933
 C244 C 0.46148 0.24173 0.16391
 C245 C 0.48893 0.22647 0.17600
 C246 C 0.51681 0.24617 0.20861
 C247 C 0.51775 0.27936 0.22893
 C248 C 0.49043 0.29378 0.21823
 C249 C 0.46112 0.27465 0.18619
 C250 C 0.43275 0.28941 0.17794
 C251 C 0.43476 0.32271 0.19973
 C252 C 0.46518 0.34255 0.23010
 C253 C 0.49259 0.32761 0.23942
 H254 H 0.53018 0.18180 0.19344
 H255 H 0.44745 0.13691 0.06830
 H256 H 0.53172 0.12956 0.15337
 H257 H 0.41889 0.18205 0.08047
 H258 H 0.41598 0.23529 0.11773
 H259 H 0.53957 0.23766 0.21854
 H260 H 0.54024 0.29394 0.25338
 H261 H 0.40834 0.27566 0.15516
 H262 H 0.41297 0.33356 0.19233
 H263 H 0.51554 0.34227 0.26355
 C264 C -0.25453 0.17589 0.90055
 C265 C -0.26058 0.18781 0.86266
 C266 C -0.30313 0.16660 0.84687
 C267 C -0.33776 0.13553 0.86845
 C268 C -0.33133 0.12513 0.90632
 C269 C -0.28936 0.14514 0.92188
 C270 C -0.31122 0.17689 0.80983
 C271 C -0.27830 0.20905 0.78842
 C272 C -0.23557 0.23236 0.80322
 C273 C -0.22626 0.22058 0.84035
 C274 C -0.18306 0.24220 0.85400
 C275 C -0.15035 0.27525 0.83300
 C276 C -0.15921 0.28851 0.79779
 C277 C -0.20186 0.26724 0.78222
 C278 C -0.20908 0.28260 0.74671
 C279 C -0.17555 0.31761 0.72792
 C280 C -0.13354 0.33860 0.74353
 C281 C -0.12559 0.32349 0.77836
 H282 H -0.22353 0.19038 0.91507
 H283 H -0.37005 0.11966 0.85584
 H284 H -0.28351 0.13798 0.95121
 H285 H -0.34361 0.16030 0.79741
 H286 H -0.28761 0.21472 0.76012
 H287 H -0.17326 0.23432 0.88096
 H288 H -0.11775 0.29111 0.84487
 H289 H -0.24041 0.26917 0.73304
 H290 H -0.18293 0.32904 0.70152
 H291 H -0.09315 0.33920 0.79057
   
