data_POSCAR
  _audit_creation_date              2014-09-24
  _audit_creation_method            'ToBaCCo'
  _symmetry_space_group_name_H-M    'P1'
  _symmetry_Int_Tables_number       1
  _symmetry_cell_setting            triclinic
  loop_
  _symmetry_equiv_pos_as_xyz
 x,y,z
_cell_length_a 39.0618
_cell_length_b 39.2011
_cell_length_c 35.1440
_cell_angle_alpha 89.869400
_cell_angle_beta 89.986900
_cell_angle_gamma 93.744100
loop_
  _atom_site_label
  _atom_site_type_symbol
  _atom_site_fract_x
  _atom_site_fract_y
  _atom_site_fract_z
O1 O 0.04507 0.30743 -0.02765
 O2 O -0.02716 0.32543 0.03570
 O3 O 0.03787 0.31839 0.04487
 O4 O -0.01902 0.31880 -0.03800
 O5 O -0.03171 0.26338 -0.03120
 O6 O 0.02591 0.26295 0.05256
 O7 O -0.03969 0.26995 0.04147
 O8 O 0.03257 0.25206 -0.02015
 Cu9 Cu 0.01036 0.32305 0.00301
 Cu10 Cu -0.00445 0.25655 0.01147
 C11 C 0.05101 0.27652 -0.03463
 C12 C -0.04588 0.30055 0.04924
 C13 C 0.04179 0.29084 0.06278
 C14 C -0.03500 0.29137 -0.04885
 O15 O 0.47802 0.80830 0.53091
 O16 O 0.54134 0.79016 0.45736
 O17 O 0.47743 0.80617 0.45649
 O18 O 0.54130 0.79170 0.53107
 O19 O 0.52238 0.73742 0.53441
 O20 O 0.46127 0.75114 0.45733
 O21 O 0.52508 0.73521 0.46025
 O22 O 0.45913 0.75394 0.53104
 Cu23 Cu 0.51119 0.80461 0.49366
 Cu24 Cu 0.49023 0.73892 0.49584
 C25 C 0.45770 0.78427 0.54339
 C26 C 0.54444 0.75956 0.44672
 C27 C 0.45856 0.78101 0.44409
 C28 C 0.54241 0.76211 0.54569
 O29 O 0.95354 0.69560 -0.04517
 O30 O 1.01682 0.67340 0.02744
 O31 O 0.95175 0.68397 0.02729
 O32 O 1.01800 0.68145 -0.04643
 O33 O 1.03138 0.73661 -0.03888
 O34 O 0.96664 0.73846 0.03787
 O35 O 1.03192 0.72833 0.03429
 O36 O 0.96712 0.75041 -0.03525
 Cu37 Cu 0.98372 0.67810 -0.01019
 Cu38 Cu 1.00064 0.74395 0.00043
 C39 C 0.94930 0.72692 -0.05220
 C40 C 1.03541 0.69731 0.04291
 C41 C 0.94793 0.71143 0.04527
 C42 C 1.03589 0.70842 -0.05549
 O43 O 0.52091 0.19545 0.54584
 O44 O 0.45615 0.21022 0.47258
 O45 O 0.51965 0.19335 0.47139
 O46 O 0.45811 0.21350 0.54653
 O47 O 0.47776 0.26760 0.54467
 O48 O 0.53694 0.24803 0.46785
 O49 O 0.47403 0.26479 0.47006
 O50 O 0.54073 0.24940 0.54127
 Cu51 Cu 0.48685 0.19765 0.50936
 Cu52 Cu 0.50906 0.26297 0.50575
 C53 C 0.54200 0.21978 0.55579
 C54 C 0.45406 0.23999 0.45879
 C55 C 0.53859 0.21743 0.45661
 C56 C 0.45785 0.24399 0.55871
 O57 O 0.68917 0.02548 -0.03878
 O58 O 0.69289 -0.03306 0.04216
 O59 O 0.70019 0.03290 0.03413
 O60 O 0.68598 -0.04083 -0.03076
 O61 O 0.74200 -0.04152 -0.03871
 O62 O 0.75613 0.03112 0.02611
 O63 O 0.74887 -0.03502 0.03480
 O64 O 0.74519 0.02473 -0.04687
 Cu65 Cu 0.68648 -0.00365 0.00241
 Cu66 Cu 0.75365 -0.00530 -0.00697
 C67 C 0.71627 0.03516 -0.05666
 C68 C 0.72122 -0.04419 0.05234
 C69 C 0.73075 0.04435 0.04130
 C70 C 0.71178 -0.05370 -0.04577
 O71 O 0.20796 0.53434 0.46159
 O72 O 0.19643 0.47418 0.54202
 O73 O 0.21108 0.53959 0.53554
 O74 O 0.19204 0.46886 0.46843
 O75 O 0.24704 0.45900 0.46661
 O76 O 0.26627 0.53077 0.53248
 O77 O 0.25167 0.46537 0.53990
 O78 O 0.26279 0.52393 0.45853
 Cu79 Cu 0.19635 0.50528 0.50208
 Cu80 Cu 0.26250 0.49392 0.49916
 C81 C 0.23734 0.53909 0.44617
 C82 C 0.22217 0.45955 0.55464
 C83 C 0.24188 0.54716 0.54557
 C84 C 0.21624 0.45171 0.45630
 O85 O 0.30245 1.02233 0.04161
 O86 O 0.28747 0.96345 -0.03930
 O87 O 0.30558 1.02825 -0.03277
 O88 O 0.28425 0.95784 0.03437
 O89 O 0.22966 0.96923 0.03221
 O90 O 0.25148 1.04135 -0.03247
 O91 O 0.23343 0.97673 -0.04180
 O92 O 0.24795 1.03401 0.04023
 Cu93 Cu 0.30042 0.99180 0.00110
 Cu94 Cu 0.23512 1.00638 -0.00062
 C95 C 0.27771 1.03819 0.05478
 C96 C 0.25791 0.96025 -0.05448
 C97 C 0.28222 1.04705 -0.04382
 C98 C 0.25331 0.95150 0.04470
 O99 O 0.80077 0.52291 0.53359
 O100 O 0.78403 0.45914 0.45760
 O101 O 0.80242 0.52405 0.45940
 O102 O 0.78459 0.45736 0.53175
 O103 O 0.72968 0.46757 0.53108
 O104 O 0.74812 0.53665 0.46072
 O105 O 0.72971 0.47159 0.45641
 O106 O 0.74579 0.53293 0.53408
 Cu107 Cu 0.79842 0.48970 0.49563
 Cu108 Cu 0.73278 0.50311 0.49552
 C109 C 0.77602 0.53877 0.54675
 C110 C 0.75401 0.45493 0.44372
 C111 C 0.77852 0.54199 0.44807
 C112 C 0.75418 0.45101 0.54377
 C113 C 0.22881 0.24698 0.26629
 C114 C 0.25258 0.22308 0.26344
 C115 C 0.25362 0.19948 0.23030
 C116 C 0.27811 0.21926 0.29420
 C117 C 0.23330 0.27556 0.29403
 C118 C 0.19826 0.24640 0.24093
 C119 C 0.25783 0.16450 0.23598
 C120 C 0.25717 0.14202 0.20508
 C121 C 0.25203 0.15417 0.16801
 C122 C 0.24874 0.18917 0.16221
 C123 C 0.25037 0.21174 0.19292
 C124 C 0.26709 0.21048 0.33115
 C125 C 0.29096 0.20690 0.36024
 C126 C 0.32618 0.21285 0.35309
 C127 C 0.33724 0.22145 0.31598
 C128 C 0.31334 0.22424 0.28665
 C129 C 0.26425 0.29587 0.29531
 C130 C 0.26868 0.32261 0.32134
 C131 C 0.24203 0.33022 0.34604
 C132 C 0.21080 0.31014 0.34446
 C133 C 0.20647 0.28315 0.31852
 C134 C 0.19116 0.27567 0.22014
 C135 C 0.16396 0.27474 0.19425
 C136 C 0.14281 0.24454 0.18910
 C137 C 0.14955 0.21553 0.21068
 C138 C 0.17682 0.21648 0.23652
 H139 H 0.26068 0.15440 0.26444
 H140 H 0.25934 0.11502 0.21034
 H141 H 0.24494 0.19906 0.13382
 H142 H 0.24842 0.23874 0.18752
 H143 H 0.23998 0.20619 0.33734
 H144 H 0.28193 0.19989 0.38851
 H145 H 0.32225 0.23078 0.25821
 H146 H 0.28499 0.29108 0.27601
 H147 H 0.29294 0.33765 0.32191
 H148 H 0.18992 0.31468 0.36363
 H149 H 0.18236 0.26786 0.31790
 H150 H 0.20747 0.29895 0.22296
 H151 H 0.16054 0.29747 0.17762
 H152 H 0.13384 0.19193 0.20728
 H153 H 0.18160 0.19369 0.25262
 H154 H 0.36430 0.22535 0.30948
 C155 C 0.78187 0.75598 0.26949
 C156 C 0.75921 0.78084 0.26589
 C157 C 0.76271 0.80681 0.23500
 C158 C 0.72910 0.78295 0.29137
 C159 C 0.77892 0.72957 0.30005
 C160 C 0.80989 0.75331 0.24138
 C161 C 0.79242 0.82878 0.23130
 C162 C 0.79535 0.85260 0.20157
 C163 C 0.76840 0.85536 0.17554
 C164 C 0.73871 0.83322 0.17935
 C165 C 0.73586 0.80940 0.20893
 C166 C 0.72447 0.81349 0.31077
 C167 C 0.69611 0.81636 0.33441
 C168 C 0.67163 0.78882 0.33913
 C169 C 0.67595 0.75829 0.31905
 C170 C 0.70441 0.75548 0.29530
 C171 C 0.77969 0.69487 0.29042
 C172 C 0.77508 0.66951 0.31828
 C173 C 0.76961 0.67835 0.35646
 C174 C 0.76945 0.71303 0.36623
 C175 C 0.77470 0.73845 0.33843
 C176 C 0.80234 0.74563 0.20321
 C177 C 0.82864 0.74537 0.17630
 C178 C 0.86301 0.75272 0.18719
 C179 C 0.87045 0.76018 0.22546
 C180 C 0.84413 0.76003 0.25247
 H181 H 0.81327 0.82745 0.25143
 H182 H 0.81854 0.86919 0.19914
 H183 H 0.71787 0.83369 0.15914
 H184 H 0.71287 0.79250 0.21114
 H185 H 0.74303 0.83511 0.30779
 H186 H 0.69337 0.84024 0.34922
 H187 H 0.70709 0.73197 0.27976
 H188 H 0.78289 0.68733 0.26108
 H189 H 0.77463 0.64300 0.30965
 H190 H 0.76534 0.72045 0.39546
 H191 H 0.77489 0.76502 0.34680
 H192 H 0.77599 0.74047 0.19422
 H193 H 0.82189 0.74037 0.14689
 H194 H 0.89669 0.76609 0.23446
 H195 H 0.85033 0.76613 0.28182
 H196 H 0.65734 0.73673 0.32093
 C197 C 0.72221 0.24254 0.23888
 C198 C 0.75005 0.26542 0.23743
 C199 C 0.77506 0.26712 0.20528
 C200 C 0.75740 0.28934 0.26950
 C201 C 0.69595 0.24467 0.26921
 C202 C 0.71665 0.21410 0.21124
 C203 C 0.81038 0.27192 0.21296
 C204 C 0.83429 0.27337 0.18339
 C205 C 0.82340 0.26958 0.14551
 C206 C 0.78823 0.26519 0.13760
 C207 C 0.76420 0.26488 0.16713
 C208 C 0.76625 0.27678 0.30535
 C209 C 0.77342 0.29929 0.33550
 C210 C 0.77111 0.33456 0.33046
 C211 C 0.76258 0.34713 0.29438
 C212 C 0.75611 0.32465 0.26403
 C213 C 0.67877 0.27467 0.27414
 C214 C 0.65481 0.27693 0.30332
 C215 C 0.64704 0.24906 0.32768
 C216 C 0.66389 0.21875 0.32230
 C217 C 0.68801 0.21659 0.29315
 C218 C 0.68482 0.20881 0.19296
 C219 C 0.67897 0.18183 0.16741
 C220 C 0.70481 0.15964 0.15952
 C221 C 0.73649 0.16448 0.17859
 C222 C 0.74228 0.19142 0.20427
 H223 H 0.81961 0.27393 0.24197
 H224 H 0.86136 0.27620 0.19022
 H225 H 0.77937 0.26225 0.10851
 H226 H 0.73717 0.26257 0.16012
 H227 H 0.76777 0.24957 0.30984
 H228 H 0.78028 0.28914 0.36296
 H229 H 0.74967 0.33469 0.23639
 H230 H 0.68408 0.29640 0.25549
 H231 H 0.64225 0.30055 0.30685
 H232 H 0.65927 0.19699 0.34098
 H233 H 0.70105 0.19323 0.28973
 H234 H 0.66454 0.22576 0.19830
 H235 H 0.65423 0.17844 0.15351
 H236 H 0.75662 0.14718 0.17447
 H237 H 0.76666 0.19442 0.21896
 H238 H 0.76147 0.37431 0.28948
 C239 C 0.26329 0.75012 0.24044
 C240 C 0.23596 0.72670 0.23876
 C241 C 0.21200 0.72431 0.20576
 C242 C 0.22837 0.70276 0.27083
 C243 C 0.29007 0.74803 0.27027
 C244 C 0.26794 0.77873 0.21274
 C245 C 0.17643 0.72041 0.21202
 C246 C 0.15363 0.71875 0.18139
 C247 C 0.16600 0.72119 0.14389
 C248 C 0.20149 0.72453 0.13753
 C249 C 0.22432 0.72529 0.16814
 C250 C 0.22039 0.71531 0.30690
 C251 C 0.21327 0.69274 0.33712
 C252 C 0.21472 0.65742 0.33187
 C253 C 0.22216 0.64486 0.29553
 C254 C 0.22861 0.66741 0.26515
 C255 C 0.30684 0.71779 0.27556
 C256 C 0.33201 0.71590 0.30352
 C257 C 0.34150 0.74439 0.32617
 C258 C 0.32488 0.77483 0.32064
 C259 C 0.29951 0.77662 0.29278
 C260 C 0.29932 0.78454 0.19365
 C261 C 0.30399 0.81128 0.16749
 C262 C 0.27745 0.83281 0.15987
 C263 C 0.24622 0.82744 0.17975
 C264 C 0.24159 0.80066 0.20597
 H265 H 0.16622 0.71939 0.24068
 H266 H 0.12633 0.71684 0.18710
 H267 H 0.21152 0.72644 0.10881
 H268 H 0.25161 0.72705 0.16242
 H269 H 0.21963 0.74255 0.31155
 H270 H 0.20727 0.70289 0.36480
 H271 H 0.23433 0.65737 0.23734
 H272 H 0.30052 0.69566 0.25792
 H273 H 0.34437 0.69216 0.30723
 H274 H 0.33082 0.79707 0.33817
 H275 H 0.28688 0.80020 0.28910
 H276 H 0.32009 0.76810 0.19872
 H277 H 0.32840 0.81503 0.15294
 H278 H 0.22550 0.84407 0.17582
 H279 H 0.21749 0.79713 0.22116
 H280 H 0.22260 0.61766 0.29052
 C281 C 0.77765 0.25213 0.74038
 C282 C 0.75416 0.22528 0.73555
 C283 C 0.72814 0.22594 0.70496
 C284 C 0.75420 0.19429 0.76004
 C285 C 0.80085 0.25452 0.77407
 C286 C 0.78074 0.28009 0.71190
 C287 C 0.69523 0.23624 0.71308
 C288 C 0.67110 0.23860 0.68403
 C289 C 0.67984 0.23154 0.64620
 C290 C 0.71302 0.22192 0.63799
 C291 C 0.73687 0.21864 0.66726
 C292 C 0.72554 0.18413 0.78234
 C293 C 0.72700 0.15728 0.80840
 C294 C 0.75712 0.13959 0.81231
 C295 C 0.78538 0.14919 0.78905
 C296 C 0.78390 0.17611 0.76306
 C297 C 0.83646 0.26047 0.76949
 C298 C 0.85831 0.26045 0.80103
 C299 C 0.84490 0.25448 0.83778
 C300 C 0.80930 0.24922 0.84242
 C301 C 0.78746 0.24989 0.81101
 C302 C 0.80352 0.27810 0.68133
 C303 C 0.80596 0.30380 0.65372
 C304 C 0.78516 0.33162 0.65569
 C305 C 0.76213 0.33352 0.68637
 C306 C 0.76002 0.30790 0.71430
 H307 H 0.68843 0.24320 0.74177
 H308 H 0.64600 0.24704 0.69095
 H309 H 0.72037 0.21677 0.60895
 H310 H 0.76236 0.21114 0.66047
 H311 H 0.70249 0.19790 0.78101
 H312 H 0.70484 0.15159 0.82624
 H313 H 0.80629 0.18342 0.74598
 H314 H 0.84758 0.26410 0.74148
 H315 H 0.88571 0.26396 0.79644
 H316 H 0.79838 0.24470 0.87045
 H317 H 0.76004 0.24614 0.81546
 H318 H 0.81929 0.25649 0.67876
 H319 H 0.82394 0.30177 0.63048
 H320 H 0.74626 0.35496 0.68929
 H321 H 0.74215 0.30963 0.73768
 H322 H 0.80891 0.13618 0.79143
 C323 C 0.22882 0.74621 0.74283
 C324 C 0.25619 0.76958 0.74025
 C325 C 0.28042 0.77046 0.70744
 C326 C 0.26397 0.79420 0.77156
 C327 C 0.20253 0.74850 0.77321
 C328 C 0.22401 0.71708 0.71588
 C329 C 0.31598 0.77236 0.71393
 C330 C 0.33893 0.77100 0.68354
 C331 C 0.32671 0.76759 0.64602
 C332 C 0.29126 0.76655 0.63942
 C333 C 0.26835 0.76872 0.66975
 C334 C 0.27278 0.78236 0.80774
 C335 C 0.27960 0.80543 0.83745
 C336 C 0.27699 0.84058 0.83169
 C337 C 0.26864 0.85246 0.79525
 C338 C 0.26254 0.82941 0.76531
 C339 C 0.18559 0.77866 0.77852
 C340 C 0.16098 0.78062 0.80715
 C341 C 0.15220 0.75227 0.83046
 C342 C 0.16913 0.72200 0.82502
 C343 C 0.19390 0.72014 0.79652
 C344 C 0.19276 0.71128 0.69658
 C345 C 0.18823 0.68450 0.67053
 C346 C 0.21479 0.66294 0.66322
 C347 C 0.24578 0.66812 0.68354
 C348 C 0.25025 0.69488 0.70968
 H349 H 0.32600 0.77382 0.74266
 H350 H 0.36613 0.77125 0.68956
 H351 H 0.28130 0.76402 0.61073
 H352 H 0.24113 0.76826 0.66383
 H353 H 0.27436 0.75526 0.81288
 H354 H 0.28634 0.79577 0.86518
 H355 H 0.25608 0.83892 0.73743
 H356 H 0.19133 0.80064 0.76036
 H357 H 0.14840 0.80422 0.81080
 H358 H 0.16385 0.69993 0.84310
 H359 H 0.20673 0.69668 0.79296
 H360 H 0.17205 0.72787 0.70124
 H361 H 0.16396 0.68084 0.65570
 H362 H 0.26645 0.65139 0.67989
 H363 H 0.27424 0.69834 0.72509
 H364 H 0.26729 0.87953 0.78978
 C365 C 0.27152 0.25105 0.76933
 C366 C 0.25184 0.27849 0.76830
 C367 C 0.25505 0.30376 0.73679
 C368 C 0.22516 0.28428 0.79722
 C369 C 0.27038 0.22602 0.80138
 C370 C 0.29394 0.24379 0.73669
 C371 C 0.28641 0.32203 0.72922
 C372 C 0.28897 0.34594 0.69966
 C373 C 0.26012 0.35245 0.67763
 C374 C 0.22873 0.33398 0.68525
 C375 C 0.22624 0.31004 0.71473
 C376 C 0.22501 0.31606 0.81546
 C377 C 0.19929 0.32249 0.84156
 C378 C 0.17318 0.29732 0.84997
 C379 C 0.17305 0.26558 0.83116
 C380 C 0.19879 0.25919 0.80497
 C381 C 0.26929 0.19083 0.79347
 C382 C 0.26730 0.16685 0.82291
 C383 C 0.26596 0.17757 0.86092
 C384 C 0.26751 0.21262 0.86906
 C385 C 0.27059 0.23668 0.83960
 C386 C 0.27952 0.23373 0.70158
 C387 C 0.30066 0.22643 0.67098
 C388 C 0.33646 0.22982 0.67480
 C389 C 0.35084 0.23967 0.71012
 C390 C 0.32968 0.24627 0.74095
 H391 H 0.30882 0.31788 0.74633
 H392 H 0.31346 0.35968 0.69424
 H393 H 0.20617 0.33739 0.66819
 H394 H 0.20187 0.29604 0.72008
 H395 H 0.24490 0.33591 0.80946
 H396 H 0.19979 0.34725 0.85526
 H397 H 0.19788 0.23488 0.79032
 H398 H 0.26923 0.18178 0.76438
 H399 H 0.26558 0.13990 0.81590
 H400 H 0.26660 0.22135 0.89824
 H401 H 0.27268 0.26359 0.84669
 H402 H 0.25192 0.23131 0.69807
 H403 H 0.28907 0.21855 0.64414
 H404 H 0.37838 0.24163 0.71412
 H405 H 0.34111 0.25365 0.76803
 H406 H 0.15272 0.24592 0.83569
 C407 C 0.73879 0.76346 0.74368
 C408 C 0.75589 0.73444 0.74552
 C409 C 0.75152 0.70751 0.71602
 C410 C 0.78057 0.72825 0.77642
 C411 C 0.74241 0.79011 0.77331
 C412 C 0.71561 0.77015 0.71168
 C413 C 0.71928 0.69094 0.70875
 C414 C 0.71581 0.66513 0.68140
 C415 C 0.74454 0.65505 0.66131
 C416 C 0.77683 0.67187 0.66859
 C417 C 0.78024 0.69768 0.69589
 C418 C 0.77676 0.69790 0.79764
 C419 C 0.80129 0.69025 0.82468
 C420 C 0.83009 0.71279 0.83108
 C421 C 0.83396 0.74322 0.80964
 C422 C 0.80940 0.75081 0.78252
 C423 C 0.75887 0.82195 0.76443
 C424 C 0.76195 0.84767 0.79183
 C425 C 0.74762 0.84235 0.82812
 C426 C 0.73098 0.81040 0.83700
 C427 C 0.72859 0.78435 0.80978
 C428 C 0.72857 0.77601 0.67485
 C429 C 0.70630 0.78211 0.64481
 C430 C 0.67080 0.78170 0.65109
 C431 C 0.65798 0.77632 0.68817
 C432 C 0.68029 0.77086 0.71826
 H433 H 0.69690 0.69778 0.72447
 H434 H 0.69065 0.65272 0.67621
 H435 H 0.79944 0.66570 0.65297
 H436 H 0.80530 0.71028 0.70109
 H437 H 0.75492 0.67994 0.79291
 H438 H 0.79787 0.66652 0.84049
 H439 H 0.81344 0.77376 0.76547
 H440 H 0.76961 0.82673 0.73635
 H441 H 0.77507 0.87200 0.78450
 H442 H 0.72033 0.80539 0.86506
 H443 H 0.71571 0.75987 0.81693
 H444 H 0.75587 0.77589 0.66949
 H445 H 0.71670 0.78656 0.61652
 H446 H 0.63080 0.77678 0.69400
 H447 H 0.66999 0.76669 0.74664
 H448 H 0.85637 0.76069 0.81266
 C449 C 0.28358 0.06029 0.08555
 C450 C 0.25977 0.08065 0.09808
 C451 C 0.26627 0.10361 0.13071
 C452 C 0.24763 0.13070 0.13536
 H453 H 0.23527 0.08116 0.08361
 H454 H 0.28664 0.09872 0.15054
 H455 H 0.30859 0.06148 0.09905
 H456 H 0.22919 0.13669 0.11367
 C457 C 0.78268 0.56443 0.57681
 C458 C 0.75776 0.58278 0.59049
 C459 C 0.76478 0.60919 0.61962
 C460 C 0.73958 0.62772 0.63240
 H461 H 0.73182 0.57866 0.57969
 H462 H 0.79059 0.61305 0.63067
 H463 H 0.80865 0.56872 0.58743
 H464 H 0.71375 0.62205 0.62182
 C465 C 0.72093 0.93318 0.08301
 C466 C 0.74885 0.91949 0.09689
 C467 C 0.74516 0.89482 0.12859
 C468 C 0.77214 0.88089 0.14434
 H469 H 0.77398 0.92594 0.08479
 H470 H 0.71961 0.88825 0.13943
 H471 H 0.69624 0.92623 0.09604
 H472 H 0.79778 0.88916 0.13487
 C473 C 0.21741 0.43544 0.58660
 C474 C 0.24340 0.41895 0.60093
 C475 C 0.23785 0.39426 0.63222
 C476 C 0.26400 0.37787 0.64645
 H477 H 0.26900 0.42339 0.58922
 H478 H 0.21226 0.38993 0.64379
 H479 H 0.19185 0.43088 0.59835
 H480 H 0.28962 0.38404 0.63549
 C481 C 0.92685 0.30703 0.07330
 C482 C 0.90361 0.28226 0.08416
 C483 C 0.87686 0.28842 0.11226
 C484 C 0.84855 0.26744 0.11449
 H485 H 0.90433 0.25670 0.07254
 H486 H 0.88075 0.30960 0.13191
 H487 H 0.92438 0.33296 0.08311
 H488 H 0.84367 0.24789 0.09303
 C489 C 0.43281 0.79188 0.57311
 C490 C 0.40497 0.77125 0.58029
 C491 C 0.38159 0.77848 0.61170
 C492 C 0.35020 0.76283 0.61376
 H493 H 0.39937 0.74873 0.56294
 H494 H 0.39016 0.79683 0.63327
 H495 H 0.43736 0.81526 0.58928
 H496 H 0.34106 0.74642 0.59060
 C497 C 0.06108 0.68911 0.07152
 C498 C 0.08806 0.71086 0.07871
 C499 C 0.11227 0.70486 0.10962
 C500 C 0.14239 0.72302 0.11132
 H501 H 0.09211 0.73401 0.06188
 H502 H 0.10511 0.68616 0.13146
 H503 H 0.05784 0.66504 0.08675
 H504 H 0.15017 0.73989 0.08793
 C505 C 0.56765 0.21342 0.58513
 C506 C 0.59761 0.23179 0.58731
 C507 C 0.62201 0.22580 0.61813
 C508 C 0.65525 0.23584 0.61490
 H509 H 0.60430 0.25124 0.56611
 H510 H 0.61270 0.21268 0.64367
 H511 H 0.56205 0.19254 0.60492
 H512 H 0.66494 0.24650 0.58820
 C513 C 0.71319 0.05885 0.91117
 C514 C 0.73994 0.07209 0.89110
 C515 C 0.73452 0.09689 0.86040
 C516 C 0.76089 0.11258 0.84155
 H517 H 0.76572 0.06537 0.89792
 H518 H 0.70844 0.10236 0.85370
 H519 H 0.68763 0.06618 0.90419
 H520 H 0.78662 0.10551 0.84810
 C521 C 0.24237 0.56200 0.41323
 C522 C 0.21959 0.58436 0.40329
 C523 C 0.22575 0.60654 0.36988
 C524 C 0.20808 0.63419 0.36455
 H525 H 0.19665 0.58675 0.42021
 H526 H 0.24587 0.60082 0.35008
 H527 H 0.26594 0.56088 0.39709
 H528 H 0.18985 0.64121 0.38597
 C529 C 0.25161 0.93752 0.91262
 C530 C 0.27353 0.91441 0.90234
 C531 C 0.26647 0.89207 0.86924
 C532 C 0.28394 0.86425 0.86387
 H533 H 0.29659 0.91146 0.91887
 H534 H 0.24608 0.89783 0.84982
 H535 H 0.22792 0.93938 0.89690
 H536 H 0.30252 0.85743 0.88503
 C537 C 0.74691 0.43105 0.41206
 C538 C 0.76878 0.40800 0.40159
 C539 C 0.76105 0.38544 0.36888
 C540 C 0.77852 0.35776 0.36292
 H541 H 0.79238 0.40558 0.41733
 H542 H 0.74025 0.39113 0.34997
 H543 H 0.72276 0.43234 0.39709
 H544 H 0.79756 0.35087 0.38352
 C545 C 0.07925 0.26824 0.94006
 C546 C 0.09919 0.29208 0.92207
 C547 C 0.12625 0.28213 0.89593
 C548 C 0.14598 0.30571 0.87717
 H549 H 0.09521 0.31895 0.92612
 H550 H 0.13004 0.25521 0.89243
 H551 H 0.08333 0.24144 0.93558
 H552 H 0.14259 0.33251 0.88262
 C553 C 0.57102 0.75193 0.41877
 C554 C 0.59261 0.77645 0.40421
 C555 C 0.62027 0.76855 0.37773
 C556 C 0.64200 0.79371 0.36458
 H557 H 0.59028 0.80284 0.41244
 H558 H 0.62316 0.74218 0.37015
 H559 H 0.57334 0.72552 0.41063
 H560 H 0.63851 0.81959 0.37401
 C561 C 0.92491 0.73625 0.92145
 C562 C 0.90399 0.71355 0.90301
 C563 C 0.87855 0.72515 0.87578
 C564 C 0.85617 0.70281 0.85888
 H565 H 0.90537 0.68637 0.90806
 H566 H 0.87788 0.75227 0.87028
 H567 H 0.92275 0.76332 0.91619
 H568 H 0.85635 0.67599 0.86648
 C569 C 0.42879 0.24598 0.42878
 C570 C 0.40355 0.22268 0.41988
 C571 C 0.37964 0.22841 0.38844
 C572 C 0.35078 0.20847 0.38440
 H573 H 0.40042 0.19902 0.43593
 H574 H 0.38547 0.24936 0.36880
 H575 H 0.43108 0.27012 0.41359
 H576 H 0.34411 0.18917 0.40578
 C577 C 0.70648 0.91688 0.92840
 C578 C 0.73227 0.90566 0.90785
 C579 C 0.72716 0.87654 0.88166
 C580 C 0.75142 0.87026 0.85624
 H581 H 0.75761 0.91861 0.90972
 H582 H 0.70319 0.86098 0.88234
 H583 H 0.68089 0.90467 0.92570
 H584 H 0.77418 0.88758 0.85434
 C585 C 0.20808 0.42308 0.43006
 C586 C 0.23230 0.40428 0.41565
 C587 C 0.22358 0.37581 0.38934
 C588 C 0.24837 0.35858 0.37350
 H589 H 0.25898 0.41003 0.42316
 H590 H 0.19691 0.36968 0.38232
 H591 H 0.18145 0.41738 0.42233
 H592 H 0.27488 0.36654 0.37979
 C593 C 0.29064 0.07382 0.93096
 C594 C 0.26857 0.09730 0.92196
 C595 C 0.27714 0.12361 0.89304
 C596 C 0.26071 0.15244 0.89199
 H597 H 0.24376 0.09721 0.93584
 H598 H 0.29674 0.11916 0.87210
 H599 H 0.31616 0.07575 0.91864
 H600 H 0.24307 0.15794 0.91465
 C601 C 0.78658 0.56890 0.41960
 C602 C 0.76727 0.59549 0.41484
 C603 C 0.77613 0.62163 0.38564
 C604 C 0.76227 0.65195 0.38607
 H605 H 0.74508 0.59824 0.43285
 H606 H 0.79466 0.61612 0.36392
 H607 H 0.80976 0.56732 0.40288
 H608 H 0.74571 0.65806 0.40952
 C609 C 0.06062 0.70631 0.91610
 C610 C 0.08079 0.73312 0.90410
 C611 C 0.10674 0.72874 0.87435
 C612 C 0.12597 0.75544 0.86055
 H613 H 0.07833 0.75828 0.91618
 H614 H 0.10951 0.70334 0.86319
 H615 H 0.06351 0.68149 0.90332
 H616 H 0.12143 0.78087 0.87065
 C617 C 0.56262 0.20975 0.42597
 C618 C 0.58147 0.23466 0.40821
 C619 C 0.60541 0.22747 0.37736
 C620 C 0.62237 0.25334 0.35903
 H621 H 0.57913 0.26107 0.41640
 H622 H 0.60852 0.20119 0.36946
 H623 H 0.56461 0.18335 0.41765
 H624 H 0.61728 0.27931 0.36678
 C625 C 0.94294 0.29261 0.91733
 C626 C 0.91842 0.26835 0.90937
 C627 C 0.89692 0.27110 0.87520
 C628 C 0.86737 0.25222 0.87146
 H629 H 0.91366 0.24681 0.92849
 H630 H 0.90488 0.28961 0.85347
 H631 H 0.94631 0.31487 0.89901
 H632 H 0.85851 0.23564 0.89469
 C633 C 0.43317 0.78679 0.41419
 C634 C 0.41283 0.76118 0.39998
 C635 C 0.38705 0.76715 0.37059
 C636 C 0.36792 0.74084 0.35588
 H637 H 0.41506 0.73531 0.41026
 H638 H 0.38428 0.79300 0.36070
 H639 H 0.43102 0.81264 0.40385
 H640 H 0.37259 0.71516 0.36520
 C641 C 0.24450 0.92348 0.07163
 C642 C 0.26852 0.90542 0.08776
 C643 C 0.25943 0.87795 0.11529
 C644 C 0.28400 0.86092 0.13196
 H645 H 0.29535 0.91119 0.08091
 H646 H 0.23261 0.87161 0.12130
 H647 H 0.21772 0.91794 0.07882
 H648 H 0.31048 0.86737 0.12403
 C649 C 0.74710 0.42440 0.57303
 C650 C 0.77169 0.40524 0.58614
 C651 C 0.76490 0.37918 0.61602
 C652 C 0.78942 0.35860 0.62613
 H653 H 0.79745 0.40881 0.57468
 H654 H 0.73977 0.37656 0.62913
 H655 H 0.72123 0.42061 0.58411
 H656 H 0.81367 0.36078 0.61097
 C657 C 0.73762 0.07312 0.06758
 C658 C 0.71290 0.08801 0.08637
 C659 C 0.72170 0.11609 0.11314
 C660 C 0.69735 0.13129 0.13228
 H661 H 0.68625 0.07925 0.08236
 H662 H 0.74844 0.12458 0.11663
 H663 H 0.76419 0.08203 0.07204
 H664 H 0.67067 0.12340 0.12684
 C665 C 0.24975 0.57505 0.57289
 C666 C 0.22516 0.59173 0.58986
 C667 C 0.23359 0.61899 0.61780
 C668 C 0.20865 0.63502 0.63509
 H669 H 0.19843 0.58500 0.58341
 H670 H 0.26030 0.62611 0.62358
 H671 H 0.27644 0.58159 0.57971
 H672 H 0.18223 0.62804 0.62736
 C673 C 0.92089 0.71128 0.07437
 C674 C 0.91899 0.73576 0.10049
 C675 C 0.89072 0.73393 0.12833
 C676 C 0.89129 0.75401 0.15904
 H677 H 0.93834 0.75686 0.10157
 H678 H 0.86947 0.71517 0.12397
 H679 H 0.90209 0.68965 0.07468
 H680 H 0.91377 0.77099 0.16454
 C681 C 0.43491 0.25237 0.59003
 C682 C 0.40915 0.23087 0.60189
 C683 C 0.38785 0.23959 0.63455
 C684 C 0.35820 0.22191 0.64200
 H685 H 0.40369 0.20671 0.58746
 H686 H 0.39629 0.26109 0.65232
 H687 H 0.43935 0.27704 0.60369
 H688 H 0.34877 0.20206 0.62250
 C689 C 0.06538 0.29225 0.09546
 C690 C 0.07541 0.26463 0.11363
 C691 C 0.10115 0.26865 0.14430
 C692 C 0.11486 0.24168 0.16029
 H693 H 0.06574 0.23928 0.10498
 H694 H 0.10916 0.29431 0.15326
 H695 H 0.07601 0.31733 0.10397
 H696 H 0.10534 0.21625 0.15172
 C697 C 0.56668 0.75604 0.57652
 C698 C 0.59382 0.77752 0.58384
 C699 C 0.61679 0.77100 0.61580
 C700 C 0.64763 0.78763 0.61888
 H701 H 0.59924 0.79990 0.56610
 H702 H 0.60855 0.75185 0.63676
 H703 H 0.56236 0.73292 0.59331
 H704 H 0.65678 0.80485 0.59637
   
