data_POSCAR
  _audit_creation_date              2014-09-24
  _audit_creation_method            'ToBaCCo'
  _symmetry_space_group_name_H-M    'P1'
  _symmetry_Int_Tables_number       1
  _symmetry_cell_setting            triclinic
  loop_
  _symmetry_equiv_pos_as_xyz
 x,y,z
_cell_length_a 32.1013
_cell_length_b 35.0346
_cell_length_c 14.0928
_cell_angle_alpha 89.346800
_cell_angle_beta 89.904600
_cell_angle_gamma 89.938100
loop_
  _atom_site_label
  _atom_site_type_symbol
  _atom_site_fract_x
  _atom_site_fract_y
  _atom_site_fract_z
C1 C 1.28656 0.21186 0.25791
 C2 C 1.25046 0.23153 0.22904
 C3 C 1.21631 0.21107 0.19357
 C4 C 1.21620 0.17144 0.19435
 C5 C 1.25270 0.15192 0.22119
 C6 C 1.28867 0.17187 0.25143
 C7 C 1.24681 0.27339 0.23781
 C8 C 1.28028 0.29790 0.21613
 C9 C 1.27416 0.33777 0.21191
 C10 C 1.23386 0.35220 0.22680
 C11 C 1.20112 0.32794 0.25248
 C12 C 1.20804 0.28903 0.26185
 H13 H 1.31284 0.22770 0.28504
 H14 H 1.18864 0.22599 0.16950
 H15 H 1.31038 0.28588 0.19857
 H16 H 1.18245 0.27078 0.28366
 H17 H 1.25250 0.12100 0.22029
 H18 H 1.22791 0.38262 0.22213
 C19 C 0.79153 -0.29191 0.28362
 C20 C 0.75299 -0.27448 0.26335
 C21 C 0.71902 -0.29750 0.23648
 C22 C 0.72487 -0.33676 0.22208
 C23 C 0.76497 -0.35202 0.22920
 C24 C 0.79845 -0.33000 0.26084
 C25 C 0.75045 -0.23218 0.26155
 C26 C 0.78566 -0.21109 0.23263
 C27 C 0.78582 -0.17136 0.23411
 C28 C 0.74862 -0.15213 0.25702
 C29 C 0.71203 -0.17269 0.28045
 C30 C 0.71367 -0.21269 0.28555
 H31 H 0.81708 -0.27512 0.31086
 H32 H 0.68876 -0.28494 0.22292
 H33 H 0.81371 -0.22563 0.21021
 H34 H 0.68616 -0.22852 0.30660
 H35 H 0.76958 -0.38212 0.21575
 H36 H 0.74807 -0.12120 0.25604
 C37 C 0.78507 0.21157 -0.22657
 C38 C 0.75084 0.23363 -0.25738
 C39 C 0.71382 0.21510 -0.28422
 C40 C 0.71112 0.17508 -0.27996
 C41 C 0.74677 0.15367 -0.25404
 C42 C 0.78412 0.17184 -0.22830
 C43 C 0.75472 0.27591 -0.25760
 C44 C 0.79401 0.29240 -0.27516
 C45 C 0.80187 0.33021 -0.25090
 C46 C 0.76874 0.35294 -0.21957
 C47 C 0.72808 0.33879 -0.21565
 C48 C 0.72120 0.29976 -0.23187
 H49 H 0.81316 0.22534 -0.20202
 H50 H 0.68699 0.23161 -0.30663
 H51 H 0.81930 0.27505 -0.30189
 H52 H 0.69039 0.28799 -0.22093
 H53 H 0.74534 0.12278 -0.25334
 H54 H 0.77406 0.38282 -0.20479
 C55 C 1.28037 -0.29774 -0.22822
 C56 C 1.24706 -0.27287 -0.24903
 C57 C 1.20823 -0.28819 -0.27360
 C58 C 1.20119 -0.32712 -0.26524
 C59 C 1.23380 -0.35167 -0.24068
 C60 C 1.27407 -0.33756 -0.22545
 C61 C 1.25105 -0.23109 -0.23843
 C62 C 1.28794 -0.21176 -0.26268
 C63 C 1.29054 -0.17201 -0.25362
 C64 C 1.25469 -0.15143 -0.22567
 C65 C 1.21744 -0.17065 -0.20212
 C66 C 1.21682 -0.21032 -0.20420
 H67 H 1.31048 -0.28608 -0.20989
 H68 H 1.18268 -0.26976 -0.29477
 H69 H 1.31463 -0.22753 -0.28829
 H70 H 1.18863 -0.22499 -0.18255
 H71 H 1.22772 -0.38209 -0.23686
 H72 H 1.25565 -0.12055 -0.22288
 C73 C 0.20331 0.28417 0.75937
 C74 C 0.22589 0.25030 0.77949
 C75 C 0.20379 0.21594 0.79320
 C76 C 0.16004 0.21537 0.78785
 C77 C 0.13869 0.24970 0.77115
 C78 C 0.15977 0.28397 0.75622
 C79 C 0.27235 0.25117 0.78382
 C80 C 0.29232 0.28465 0.81263
 C81 C 0.33517 0.28983 0.79956
 C82 C 0.35928 0.25834 0.76734
 C83 C 0.34052 0.22252 0.74904
 C84 C 0.29681 0.21991 0.75471
 H85 H 0.21941 0.31057 0.74318
 H86 H 0.22047 0.18989 0.80999
 H87 H 0.27382 0.30782 0.84046
 H88 H 0.28186 0.19379 0.73287
 H89 H 0.10498 0.24994 0.76855
 H90 H 0.39267 0.26128 0.75906
 C91 C 0.70075 0.78178 0.74865
 C92 C 0.72565 0.74976 0.77094
 C93 C 0.70635 0.71566 0.79901
 C94 C 0.66330 0.71069 0.79080
 C95 C 0.63854 0.74277 0.76332
 C96 C 0.65680 0.77929 0.74670
 C97 C 0.77186 0.75049 0.75981
 C98 C 0.79494 0.78370 0.77860
 C99 C 0.83844 0.78346 0.76947
 C100 C 0.85885 0.75039 0.74094
 C101 C 0.83676 0.71723 0.72142
 C102 C 0.79331 0.71735 0.73004
 H103 H 0.71578 0.80829 0.72843
 H104 H 0.72557 0.69187 0.82187
 H105 H 0.77950 0.80918 0.80361
 H106 H 0.77636 0.69181 0.71156
 H107 H 0.60506 0.73959 0.75822
 H108 H 0.89251 0.75043 0.73466
 C109 C 0.70737 0.28801 0.20578
 C110 C 0.72639 0.25358 0.23288
 C111 C 0.70106 0.22187 0.25545
 C112 C 0.65725 0.22464 0.25525
 C113 C 0.63904 0.26093 0.23626
 C114 C 0.66430 0.29268 0.21054
 C115 C 0.77268 0.25166 0.24024
 C116 C 0.79588 0.28436 0.26549
 C117 C 0.83945 0.28306 0.26989
 C118 C 0.85985 0.24888 0.25128
 C119 C 0.83770 0.21625 0.22653
 C120 C 0.79417 0.21753 0.22107
 H121 H 0.72632 0.31214 0.18415
 H122 H 0.71543 0.19515 0.27655
 H123 H 0.78028 0.31068 0.28372
 H124 H 0.77744 0.19243 0.19841
 H125 H 0.60554 0.26432 0.23931
 H126 H 0.89356 0.24778 0.25475
 C127 C 0.20427 0.78553 0.22902
 C128 C 0.22700 0.75121 0.23880
 C129 C 0.20520 0.71717 0.26161
 C130 C 0.16169 0.71691 0.27141
 C131 C 0.14019 0.75147 0.26156
 C132 C 0.16064 0.78583 0.24013
 C133 C 0.27329 0.75023 0.22512
 C134 C 0.29900 0.78137 0.24915
 C135 C 0.34288 0.77844 0.24642
 C136 C 0.36071 0.74262 0.22337
 C137 C 0.33519 0.71171 0.19521
 C138 C 0.29212 0.71669 0.19222
 H139 H 0.22025 0.81163 0.20928
 H140 H 0.22211 0.69084 0.27371
 H141 H 0.28503 0.80756 0.27394
 H142 H 0.27309 0.69314 0.16864
 H143 H 0.10668 0.75160 0.27007
 H144 H 0.39420 0.73897 0.22534
 O145 O 0.92684 -0.05714 -0.16462
 O146 O 0.96633 -0.09811 -0.07330
 C147 C 0.93758 -0.09093 -0.13539
 O148 O 1.07882 0.05149 -0.15684
 O149 O 1.03422 0.09401 -0.08646
 C150 C 1.06634 0.08578 -0.13790
 O151 O 1.07523 -0.05315 -0.16441
 O152 O 1.04189 -0.09646 -0.06678
 C153 C 1.07010 -0.08718 -0.13036
 O154 O 0.92008 0.04769 -0.16352
 O155 O 0.95639 0.09278 -0.08060
 C156 C 0.92629 0.08238 -0.13728
 Zr157 Zr 0.94834 -0.00336 -0.12002
 O158 O 0.95457 -0.00660 -0.26954
 O159 O 0.88242 -0.00541 -0.12228
 Zr160 Zr 1.05137 -0.00131 -0.11792
 O161 O 1.04416 -0.00033 -0.26691
 O162 O 1.11706 -0.00288 -0.12845
 O163 O 1.00074 -0.03758 -0.13363
 O164 O 0.99923 0.03198 -0.13926
 O165 O 0.92055 0.05354 0.15501
 O166 O 0.96290 0.09503 0.07251
 C167 C 0.93189 0.08751 0.12832
 O168 O 1.07394 -0.05303 0.17483
 O169 O 1.03449 -0.09631 0.09300
 C170 C 1.06359 -0.08751 0.15237
 O171 O 1.07660 0.05188 0.16020
 O172 O 1.04071 0.09464 0.06643
 C173 C 1.07046 0.08574 0.12615
 O174 O 0.92498 -0.05132 0.17730
 O175 O 0.95940 -0.09579 0.08753
 C176 C 0.93101 -0.08587 0.14952
 Zr177 Zr 0.94693 0.00014 0.12014
 O178 O 0.94667 0.00610 0.26948
 O179 O 0.88117 -0.00178 0.11093
 Zr180 Zr 1.05050 -0.00020 0.12294
 O181 O 1.04620 0.00463 0.27235
 O182 O 1.11646 -0.00119 0.12430
 Zr183 Zr 1.00007 -0.05884 0.00699
 Zr184 Zr 0.99883 0.05633 -0.00378
 O185 O 0.99869 0.03425 0.13550
 O186 O 0.99871 -0.03476 0.14344
 O187 O 0.93914 0.03179 -0.00326
 O188 O 1.05930 -0.03328 0.00538
 O189 O 0.94020 -0.03452 0.00309
 O190 O 1.05895 0.03262 0.00009
 H191 H 0.99888 0.04964 -0.19470
 H192 H 1.08527 -0.04853 0.00819
 H193 H 0.99879 0.05253 0.18867
 H194 H 0.91478 -0.05051 0.00281
 H195 H 1.12784 0.00296 -0.06446
 H196 H 1.12519 -0.00126 0.19181
 H197 H 1.03632 -0.02018 0.29798
 H198 H 0.96361 -0.01497 0.29642
 H199 H 0.87042 -0.00057 0.17684
 H200 H 0.87396 -0.00723 -0.18977
 H201 H 0.95314 0.01955 -0.29663
 H202 H 1.07265 0.00195 -0.29342
 O203 O 0.92801 0.44405 0.33148
 O204 O 0.96682 0.40323 0.42447
 C205 C 0.93833 0.41022 0.36163
 O206 O 1.08159 0.55258 0.34274
 O207 O 1.03728 0.59468 0.41535
 C208 C 1.06933 0.58686 0.36319
 O209 O 1.07307 0.44652 0.32907
 O210 O 1.03822 0.40381 0.42542
 C211 C 1.06456 0.41229 0.35840
 O212 O 0.92705 0.54975 0.32538
 O213 O 0.96345 0.59389 0.41137
 C214 C 0.93539 0.58436 0.34981
 Zr215 Zr 0.94977 0.49782 0.37735
 O216 O 0.95050 0.49816 0.22717
 O217 O 0.88397 0.49742 0.38475
 Zr218 Zr 1.05407 0.49940 0.38078
 O219 O 1.05025 0.50220 0.23114
 O220 O 1.11977 0.49535 0.37558
 O221 O 1.00244 0.46406 0.36358
 O222 O 1.00184 0.53212 0.35891
 O223 O 0.92126 0.55467 0.64983
 O224 O 0.96362 0.59580 0.56632
 C225 C 0.93238 0.58860 0.62187
 O226 O 1.07540 0.44718 0.67322
 O227 O 1.03628 0.40488 0.58808
 C228 C 1.06485 0.41288 0.64931
 O229 O 1.07441 0.55321 0.66419
 O230 O 1.03729 0.59548 0.57145
 C231 C 1.06520 0.58729 0.63495
 O232 O 0.93057 0.44891 0.67875
 O233 O 0.96503 0.40477 0.58824
 C234 C 0.93870 0.41424 0.65401
 Zr235 Zr 0.94766 0.50097 0.61609
 O236 O 0.94310 0.50759 0.76474
 O237 O 0.88218 0.49739 0.60290
 Zr238 Zr 1.05235 0.50017 0.62066
 O239 O 1.05036 0.50355 0.77057
 O240 O 1.11821 0.50010 0.61750
 Zr241 Zr 1.00131 0.44246 0.50359
 Zr242 Zr 1.00076 0.55648 0.49434
 O243 O 0.99977 0.53414 0.63331
 O244 O 0.99990 0.46649 0.64000
 O245 O 0.94041 0.53321 0.49300
 O246 O 1.06117 0.46676 0.50274
 O247 O 0.94115 0.46609 0.50005
 O248 O 1.06132 0.53353 0.49922
 H249 H 1.00267 0.54934 0.30263
 H250 H 1.08625 0.45025 0.50333
 H251 H 0.99863 0.55198 0.68733
 H252 H 0.91653 0.44906 0.50194
 H253 H 1.13022 0.50594 0.43580
 H254 H 1.12753 0.50075 0.68450
 H255 H 1.03687 0.48002 0.79500
 H256 H 0.96681 0.49355 0.79307
 H257 H 0.87093 0.49745 0.66842
 H258 H 0.87389 0.49650 0.31837
 H259 H 0.97201 0.47963 0.20719
 H260 H 1.07938 0.50291 0.20782
 O261 O 0.42617 -0.05639 0.33188
 O262 O 0.46639 -0.09725 0.42084
 C263 C 0.43744 -0.09066 0.35878
 O264 O 0.57673 0.05661 0.33994
 O265 O 0.53266 0.09785 0.41585
 C266 C 0.56418 0.09105 0.36125
 O267 O 0.57502 -0.05033 0.33098
 O268 O 0.54076 -0.09440 0.42516
 C269 C 0.56886 -0.08484 0.36174
 O270 O 0.42107 0.04945 0.33262
 O271 O 0.45611 0.09446 0.41904
 C272 C 0.42691 0.08410 0.35981
 Zr273 Zr 0.44760 -0.00164 0.37891
 O274 O 0.44970 0.00046 0.22877
 O275 O 0.38174 -0.00376 0.38382
 Zr276 Zr 0.55135 0.00164 0.37957
 O277 O 0.54516 0.00337 0.23038
 O278 O 0.61709 0.00080 0.37092
 O279 O 0.50050 -0.03499 0.36285
 O280 O 0.49863 0.03410 0.36058
 O281 O 0.42151 0.05630 0.65723
 O282 O 0.46364 0.09777 0.57458
 C283 C 0.43302 0.09077 0.63209
 O284 O 0.57395 -0.05500 0.66841
 O285 O 0.53386 -0.09686 0.58440
 C286 C 0.56310 -0.08959 0.64452
 O287 O 0.57686 0.05207 0.66006
 O288 O 0.54020 0.09569 0.57001
 C289 C 0.56980 0.08645 0.62982
 O290 O 0.42563 -0.05033 0.67564
 O291 O 0.45992 -0.09450 0.58428
 C292 C 0.43224 -0.08491 0.64815
 Zr293 Zr 0.44666 0.00159 0.61862
 O294 O 0.44517 0.00641 0.76813
 O295 O 0.38100 -0.00002 0.60771
 Zr296 Zr 0.55089 -0.00004 0.62025
 O297 O 0.54728 0.00326 0.77000
 O298 O 0.61680 -0.00131 0.62134
 Zr299 Zr 0.49978 -0.05743 0.50246
 Zr300 Zr 0.49857 0.05809 0.49673
 O301 O 0.49898 0.03476 0.63494
 O302 O 0.49860 -0.03394 0.63981
 O303 O 0.43866 0.03374 0.49630
 O304 O 0.55923 -0.03195 0.50090
 O305 O 0.43979 -0.03323 0.50106
 O306 O 0.55893 0.03451 0.49922
 H307 H 0.49820 0.05176 0.30513
 H308 H 0.58501 -0.04747 0.50281
 H309 H 0.49914 0.05259 0.68901
 H310 H 0.41474 -0.04971 0.50050
 H311 H 0.62744 0.00770 0.43456
 H312 H 0.62537 -0.00246 0.68890
 H313 H 0.53787 -0.02193 0.79419
 H314 H 0.46532 -0.01236 0.79401
 H315 H 0.37012 0.00122 0.67348
 H316 H 0.37206 -0.00543 0.31721
 H317 H 0.46727 -0.02110 0.20777
 H318 H 0.57383 0.00588 0.20500
 O319 O 0.55740 0.56915 0.16408
 O320 O 0.60471 0.53414 0.07853
 C321 C 0.59506 0.56083 0.13770
 O322 O 0.44190 0.42741 0.14853
 O323 O 0.39483 0.46703 0.07401
 C324 C 0.40428 0.43748 0.12595
 O325 O 0.55492 0.43341 0.17196
 O326 O 0.60345 0.46289 0.07585
 C327 C 0.59231 0.43726 0.14001
 O328 O 0.44384 0.57131 0.15969
 O329 O 0.39640 0.54082 0.06485
 C330 C 0.40696 0.56742 0.12557
 Zr331 Zr 0.49960 0.54776 0.11511
 O332 O 0.49622 0.54489 0.26514
 O333 O 0.49983 0.60821 0.10952
 Zr334 Zr 0.49936 0.45388 0.11596
 O335 O 0.49487 0.46034 0.26451
 O336 O 0.50262 0.39373 0.12828
 O337 O 0.53799 0.50079 0.13473
 O338 O 0.46150 0.50061 0.13137
 O339 O 0.44120 0.57273 -0.16277
 O340 O 0.39451 0.53285 -0.08775
 C341 C 0.40371 0.56229 -0.14036
 O342 O 0.56110 0.43413 -0.17052
 O343 O 0.60651 0.47035 -0.08380
 C344 C 0.59821 0.44316 -0.14251
 O345 O 0.44793 0.42962 -0.17128
 O346 O 0.39834 0.45854 -0.07899
 C347 C 0.41076 0.43190 -0.13784
 O348 O 0.55486 0.56624 -0.18553
 O349 O 0.60280 0.54201 -0.08033
 C350 C 0.59114 0.56638 -0.14695
 Zr351 Zr 0.49908 0.54861 -0.12465
 O352 O 0.49309 0.55004 -0.27419
 O353 O 0.50138 0.60885 -0.11638
 Zr354 Zr 0.50250 0.45453 -0.12489
 O355 O 0.50693 0.45805 -0.27487
 O356 O 0.50395 0.39407 -0.12216
 Zr357 Zr 0.56358 0.50176 -0.00322
 Zr358 Zr 0.43666 0.50022 -0.00654
 O359 O 0.46311 0.50074 -0.14294
 O360 O 0.53924 0.50244 -0.14219
 O361 O 0.46262 0.55527 -0.00529
 O362 O 0.53658 0.44711 -0.00314
 O363 O 0.53508 0.55594 -0.00449
 O364 O 0.46474 0.44599 -0.00580
 H365 H 0.44164 0.50060 0.18533
 H366 H 0.55343 0.42342 -0.00346
 H367 H 0.44369 0.50055 -0.19750
 H368 H 0.55150 0.57984 -0.00345
 H369 H 0.49708 0.38363 0.06421
 H370 H 0.50688 0.38556 -0.18877
 H371 H 0.47915 0.46438 -0.30102
 H372 H 0.51167 0.53002 -0.29945
 H373 H 0.50100 0.61870 -0.18261
 H374 H 0.50157 0.61719 0.17592
 H375 H 0.52128 0.53113 0.28804
 H376 H 0.49227 0.43418 0.29130
 N377 N 1.16818 0.11888 0.22827
 C378 C 1.17674 0.15076 0.17698
 N379 N 1.14743 0.16409 0.11477
 N380 N 1.11178 0.14512 0.10137
 C381 C 1.10365 0.11279 0.15223
 N382 N 1.13257 0.10036 0.21587
 N383 N 1.13708 0.66709 0.64167
 C384 C 1.15981 0.65714 0.71934
 N385 N 1.14630 0.62851 0.77660
 N386 N 1.11262 0.60882 0.75406
 C387 C 1.09118 0.61707 0.67367
 N388 N 1.10331 0.64713 0.61874
 N389 N 0.66268 0.12229 0.74892
 C390 C 0.67118 0.15514 0.70134
 N391 N 0.64315 0.16805 0.63569
 N392 N 0.60890 0.14783 0.61575
 C393 C 0.60108 0.11438 0.66245
 N394 N 0.62853 0.10245 0.72982
 N395 N 0.69854 0.60309 0.15875
 C396 C 0.69025 0.63717 0.19975
 N397 N 0.65041 0.64512 0.22539
 N398 N 0.62011 0.61999 0.20940
 C399 C 0.62866 0.58592 0.16836
 N400 N 0.66836 0.57812 0.14257
 N401 N 0.83344 -0.11747 0.25956
 C402 C 0.82541 -0.15064 0.21493
 N403 N 0.85510 -0.16504 0.15575
 N404 N 0.89056 -0.14612 0.13869
 C405 C 0.89823 -0.11256 0.18264
 N406 N 0.86893 -0.09891 0.24346
 N407 N 0.87008 0.33191 0.67758
 C408 C 0.84149 0.34620 0.73928
 N409 N 0.85049 0.37890 0.78516
 N410 N 0.88492 0.39812 0.76521
 C411 C 0.91175 0.38571 0.69803
 N412 N 0.90440 0.35169 0.65605
 N413 N 0.35844 -0.16547 0.66209
 C414 C 0.33042 -0.15203 0.72655
 N415 N 0.33937 -0.11928 0.77221
 N416 N 0.37396 -0.10001 0.75192
 C417 C 0.40138 -0.11251 0.68546
 N418 N 0.39303 -0.14585 0.64096
 N419 N 0.34721 0.35044 0.19060
 C420 C 0.30714 0.36294 0.19239
 N421 N 0.29967 0.40067 0.17583
 N422 N 0.33065 0.42472 0.15666
 C423 C 0.37053 0.41213 0.15540
 N424 N 0.37830 0.37460 0.17270
 N425 N 0.85347 0.16436 -0.15078
 C426 C 0.82258 0.14977 -0.20615
 N427 N 0.82821 0.11481 -0.24391
 N428 N 0.86263 0.09496 -0.22549
 C429 C 0.89320 0.10900 -0.16899
 N430 N 0.88793 0.14421 -0.13148
 N431 N 0.86680 0.66718 0.33108
 C432 C 0.83761 0.65317 0.27074
 N433 N 0.84573 0.62021 0.22507
 N434 N 0.87999 0.60057 0.24363
 C435 C 0.90755 0.61283 0.30907
 N436 N 0.90101 0.64698 0.35119
 N437 N 0.35799 0.16833 0.32174
 C438 C 0.32534 0.15172 0.27557
 N439 N 0.32855 0.11440 0.25314
 N440 N 0.36210 0.09441 0.27676
 C441 C 0.39421 0.11037 0.32463
 N442 N 0.39164 0.14794 0.34706
 N443 N 0.34694 0.64930 -0.20514
 C444 C 0.30686 0.63701 -0.20665
 N445 N 0.29921 0.59929 -0.19031
 N446 N 0.33009 0.57505 -0.17141
 C447 C 0.36999 0.58748 -0.17038
 N448 N 0.37789 0.62496 -0.18759
 N449 N 1.16889 -0.11799 -0.23370
 C450 C 1.17797 -0.15003 -0.18348
 N451 N 1.14871 -0.16420 -0.12214
 N452 N 1.11259 -0.14596 -0.10837
 C453 C 1.10382 -0.11354 -0.15819
 N454 N 1.13277 -0.10018 -0.22096
 N455 N 1.14613 0.37293 0.21383
 C456 C 1.15979 0.34380 0.26930
 N457 N 1.13688 0.33286 0.34606
 N458 N 1.10286 0.35234 0.37017
 C459 C 1.09053 0.38288 0.31720
 N460 N 1.11214 0.39211 0.23746
 N461 N 0.64265 -0.16591 0.35819
 C462 C 0.67211 -0.15231 0.29671
 N463 N 0.66451 -0.11906 0.25001
 N464 N 0.62974 -0.09955 0.26624
 C465 C 0.60078 -0.11228 0.32957
 N466 N 0.60785 -0.14604 0.37532
 N467 N 0.70181 0.39975 -0.15500
 C468 C 0.69370 0.36569 -0.19634
 N469 N 0.65424 0.35836 -0.22526
 N470 N 0.62409 0.38394 -0.21200
 C471 C 0.63234 0.41793 -0.17043
 N472 N 0.67170 0.42521 -0.14140
 N473 N 1.15588 0.14704 -0.19028
 C474 C 1.13709 0.18166 -0.20016
 N475 N 1.09484 0.18330 -0.19706
 N476 N 1.07228 0.15220 -0.18177
 C477 C 1.09101 0.11790 -0.17091
 N478 N 1.13318 0.11566 -0.17579
 N479 N 1.09745 0.68533 0.30750
 C480 C 1.13908 0.68325 0.29070
 N481 N 1.15751 0.64822 0.29282
 N482 N 1.13516 0.61692 0.31206
 C483 C 1.09363 0.61958 0.32979
 N484 N 1.07531 0.65433 0.32737
 N485 N 0.64852 0.15398 0.26835
 C486 C 0.63174 0.18958 0.27745
 N487 N 0.59196 0.19220 0.30998
 N488 N 0.57047 0.16084 0.33392
 C489 C 0.58737 0.12531 0.32537
 N490 N 0.62691 0.12260 0.29156
 N491 N 0.66878 0.64511 -0.15081
 C492 C 0.64640 0.67371 -0.19426
 N493 N 0.60794 0.66522 -0.22663
 N494 N 0.59265 0.63019 -0.21577
 C495 C 0.61450 0.60176 -0.17144
 N496 N 0.65296 0.61006 -0.13780
 N497 N 0.90260 -0.18864 -0.17084
 C498 C 0.86387 -0.18331 -0.20714
 N499 N 0.85022 -0.14724 -0.22426
 N500 N 0.87456 -0.11758 -0.20495
 C501 C 0.91324 -0.12308 -0.16826
 N502 N 0.92672 -0.15908 -0.15089
 N503 N 0.85148 0.35272 0.27198
 C504 C 0.86471 0.31678 0.29306
 N505 N 0.90301 0.31197 0.33209
 N506 N 0.92699 0.34180 0.35082
 C507 C 0.91394 0.37766 0.32962
 N508 N 0.87568 0.38267 0.29024
 N509 N 0.40793 -0.19116 0.30791
 C510 C 0.36904 -0.18733 0.27062
 N511 N 0.35373 -0.15129 0.25838
 N512 N 0.37590 -0.12065 0.28290
 C513 C 0.41449 -0.12451 0.32145
 N514 N 0.42994 -0.16051 0.33343
 N515 N 0.39078 0.33483 -0.22038
 C516 C 0.35262 0.32642 -0.18555
 N517 N 0.33122 0.35470 -0.13975
 N518 N 0.34785 0.38933 -0.12663
 C519 C 0.38615 0.39747 -0.16229
 N520 N 0.40686 0.36940 -0.20924
 N521 N 1.15435 -0.14613 0.21340
 C522 C 1.13661 -0.18101 0.22635
 N523 N 1.09438 -0.18367 0.22233
 N524 N 1.07088 -0.15340 0.20320
 C525 C 1.08861 -0.11883 0.18961
 N526 N 1.13071 -0.11556 0.19552
 N527 N 1.09604 0.31455 0.69837
 C528 C 1.13519 0.31850 0.73299
 N529 N 1.15049 0.35426 0.74539
 N530 N 1.12744 0.38478 0.72283
 C531 C 1.08836 0.38049 0.68748
 N532 N 1.07322 0.34485 0.67549
 N533 N 0.65030 -0.15208 0.72267
 C534 C 0.63243 -0.18743 0.72605
 N535 N 0.59083 -0.18969 0.70818
 N536 N 0.56873 -0.15849 0.68552
 C537 C 0.58675 -0.12330 0.68201
 N538 N 0.62808 -0.12081 0.70146
 N539 N 0.61878 0.34642 0.25390
 C540 C 0.64740 0.33176 0.19391
 N541 N 0.66310 0.35495 0.12397
 N542 N 0.64876 0.39051 0.11082
 C543 C 0.61929 0.40490 0.16978
 N544 N 0.60500 0.38200 0.24164
 N545 N 0.90047 0.18590 0.16683
 C546 C 0.86135 0.18198 0.20193
 N547 N 0.84562 0.14637 0.21567
 N548 N 0.86848 0.11580 0.19477
 C549 C 0.90766 0.12002 0.15966
 N550 N 0.92310 0.15553 0.14554
 N551 N 0.84617 0.64726 0.71297
 C552 C 0.86022 0.68304 0.69305
 N553 N 0.89810 0.68722 0.65146
 N554 N 0.92111 0.65700 0.63025
 C555 C 0.90742 0.62133 0.65094
 N556 N 0.86938 0.61687 0.69206
 N557 N 0.34957 0.15210 0.73285
 C558 C 0.36558 0.18794 0.72177
 N559 N 0.40446 0.19131 0.68411
 N560 N 0.42587 0.16043 0.65749
 C561 C 0.40978 0.12466 0.66837
 N562 N 0.37113 0.12119 0.70702
 N563 N 0.37878 0.65668 0.23992
 C564 C 0.35190 0.67278 0.17746
 N565 N 0.33762 0.65104 0.10448
 N566 N 0.35185 0.61553 0.09108
 C567 C 0.37962 0.59972 0.15278
 N568 N 0.39236 0.62118 0.22745
   
