data_POSCAR
  _audit_creation_date              2014-09-24
  _audit_creation_method            'ToBaCCo'
  _symmetry_space_group_name_H-M    'P1'
  _symmetry_Int_Tables_number       1
  _symmetry_cell_setting            triclinic
  loop_
  _symmetry_equiv_pos_as_xyz
 x,y,z
_cell_length_a 51.6159
_cell_length_b 51.6115
_cell_length_c 30.3982
_cell_angle_alpha 89.985500
_cell_angle_beta 89.979200
_cell_angle_gamma 89.280000
loop_
  _atom_site_label
  _atom_site_type_symbol
  _atom_site_fract_x
  _atom_site_fract_y
  _atom_site_fract_z
C1 C 0.00449 0.26361 -0.02146
 C2 C 0.00388 0.26315 0.02354
 C3 C -0.02062 0.25930 0.04865
 C4 C 0.02820 0.26586 0.04930
 C5 C 0.02952 0.26208 -0.04563
 C6 C -0.01958 0.26567 -0.04814
 C7 C -0.02588 0.27400 0.08645
 C8 C -0.04907 0.27092 0.10961
 C9 C -0.06818 0.25341 0.09498
 C10 C -0.06204 0.23806 0.05767
 C11 C -0.03849 0.24057 0.03569
 C12 C 0.04436 0.28719 0.04254
 C13 C 0.06878 0.28800 0.06221
 C14 C 0.07740 0.26763 0.08942
 C15 C 0.06061 0.24695 0.09796
 C16 C 0.03618 0.24613 0.07819
 C17 C 0.04762 0.24232 -0.03601
 C18 C 0.07241 0.24279 -0.05425
 C19 C 0.07925 0.26253 -0.08359
 C20 C 0.06065 0.28135 -0.09550
 C21 C 0.03595 0.28118 -0.07650
 C22 C -0.02476 0.24714 -0.08063
 C23 C -0.04841 0.24761 -0.10309
 C24 C -0.06720 0.26686 -0.09389
 C25 C -0.06133 0.28614 -0.06282
 C26 C -0.03778 0.28554 -0.04020
 H27 H -0.01227 0.28840 0.09754
 H28 H -0.05246 0.28385 0.13705
 H29 H -0.07471 0.22294 0.04628
 H30 H -0.03428 0.22779 0.00832
 H31 H 0.03835 0.30279 0.02085
 H32 H 0.08105 0.30443 0.05573
 H33 H 0.02398 0.22953 0.08379
 H34 H 0.04281 0.22700 -0.01320
 H35 H 0.08631 0.22780 -0.04530
 H36 H 0.06554 0.29668 -0.11826
 H37 H 0.02221 0.29647 -0.08461
 H38 H -0.01092 0.23170 -0.08732
 H39 H -0.05234 0.23234 -0.12646
 H40 H -0.07507 0.30159 -0.05568
 H41 H -0.03392 0.30032 -0.01585
 H42 H 0.06675 0.23088 0.11852
 C43 C 0.50117 0.76512 0.47242
 C44 C 0.50174 0.76623 0.51718
 C45 C 0.47784 0.76781 0.54434
 C46 C 0.52653 0.76415 0.54143
 C47 C 0.52549 0.76456 0.44630
 C48 C 0.47655 0.76363 0.44724
 C49 C 0.45900 0.78722 0.53720
 C50 C 0.43609 0.78759 0.56182
 C51 C 0.43176 0.76872 0.59434
 C52 C 0.45101 0.74980 0.60221
 C53 C 0.47383 0.74941 0.57757
 C54 C 0.53510 0.78501 0.56686
 C55 C 0.55821 0.78290 0.59059
 C56 C 0.57267 0.75968 0.59000
 C57 C 0.56395 0.73877 0.56470
 C58 C 0.54111 0.74104 0.54036
 C59 C 0.53050 0.74384 0.41763
 C60 C 0.55322 0.74307 0.39270
 C61 C 0.57128 0.76318 0.39563
 C62 C 0.56610 0.78405 0.42421
 C63 C 0.54337 0.78476 0.44923
 C64 C 0.45774 0.74515 0.45764
 C65 C 0.43460 0.74423 0.43393
 C66 C 0.43021 0.76123 0.39855
 C67 C 0.44937 0.77907 0.38715
 C68 C 0.47230 0.78031 0.41138
 H69 H 0.46193 0.80190 0.51228
 H70 H 0.42178 0.80265 0.55549
 H71 H 0.44814 0.73482 0.62661
 H72 H 0.48809 0.73426 0.58366
 H73 H 0.52393 0.80290 0.56813
 H74 H 0.56452 0.79918 0.61017
 H75 H 0.53457 0.72471 0.52115
 H76 H 0.51692 0.72809 0.41495
 H77 H 0.55679 0.72654 0.37153
 H78 H 0.57941 0.80003 0.42669
 H79 H 0.53959 0.80115 0.47062
 H80 H 0.46095 0.73145 0.48412
 H81 H 0.42023 0.73004 0.44284
 H82 H 0.44635 0.79239 0.36005
 H83 H 0.48666 0.79451 0.40245
 H84 H 0.57489 0.72073 0.56370
 C85 C 1.00281 0.72671 -0.02968
 C86 C 1.00233 0.72715 0.01496
 C87 C 1.02662 0.72650 0.04085
 C88 C 0.97790 0.73144 0.03945
 C89 C 0.97874 0.72839 -0.05615
 C90 C 1.02769 0.72695 -0.05378
 C91 C 1.04322 0.70477 0.03960
 C92 C 1.06710 0.70521 0.06122
 C93 C 1.07462 0.72730 0.08483
 C94 C 1.05757 0.74873 0.08697
 C95 C 1.03377 0.74830 0.06524
 C96 C 0.96764 0.71158 0.06533
 C97 C 0.94449 0.71560 0.08836
 C98 C 0.93167 0.73975 0.08662
 C99 C 0.94219 0.75972 0.06109
 C100 C 0.96506 0.75553 0.03741
 C101 C 0.97513 0.74887 -0.08592
 C102 C 0.95223 0.75113 -0.11002
 C103 C 0.93251 0.73280 -0.10511
 C104 C 0.93632 0.71206 -0.07568
 C105 C 0.95927 0.70986 -0.05148
 C106 C 1.04071 0.75027 -0.05984
 C107 C 1.06427 0.75064 -0.08233
 C108 C 1.07580 0.72749 -0.09820
 C109 C 1.06263 0.70402 -0.09104
 C110 C 1.03861 0.70387 -0.06980
 H111 H 1.03779 0.68763 0.02147
 H112 H 1.07967 0.68828 0.05959
 H113 H 1.06295 0.76612 0.10448
 H114 H 1.02124 0.76528 0.06637
 H115 H 0.97744 0.69293 0.06729
 H116 H 0.93677 0.70002 0.10810
 H117 H 0.97287 0.77107 0.01770
 H118 H 0.98980 0.76350 -0.08984
 H119 H 0.94973 0.76755 -0.13185
 H120 H 0.92166 0.69743 -0.07166
 H121 H 0.96186 0.69371 -0.02909
 H122 H 1.03262 0.76820 -0.04701
 H123 H 1.07391 0.76906 -0.08539
 H124 H 1.07021 0.68580 -0.10349
 H125 H 1.02865 0.68571 -0.06534
 H126 H 0.93255 0.77844 0.05917
 C127 C 0.50548 0.21754 0.47750
 C128 C 0.50488 0.21804 0.52220
 C129 C 0.52921 0.21943 0.54773
 C130 C 0.48013 0.21847 0.54689
 C131 C 0.48142 0.21935 0.45123
 C132 C 0.53047 0.21718 0.45357
 C133 C 0.53980 0.19698 0.56689
 C134 C 0.56444 0.19749 0.58595
 C135 C 0.57851 0.22060 0.58691
 C136 C 0.56741 0.24327 0.56911
 C137 C 0.54301 0.24263 0.54933
 C138 C 0.46234 0.19833 0.54220
 C139 C 0.43829 0.19970 0.56323
 C140 C 0.43163 0.22120 0.58954
 C141 C 0.44986 0.24096 0.59520
 C142 C 0.47392 0.23954 0.57418
 C143 C 0.46699 0.24255 0.45000
 C144 C 0.44343 0.24376 0.42738
 C145 C 0.43379 0.22166 0.40635
 C146 C 0.44846 0.19855 0.40717
 C147 C 0.47228 0.19750 0.42901
 C148 C 0.53842 0.23931 0.43081
 C149 C 0.56344 0.24053 0.41344
 C150 C 0.58090 0.21956 0.41836
 C151 C 0.57246 0.19703 0.43977
 C152 C 0.54743 0.19584 0.45710
 H153 H 0.52940 0.17890 0.56552
 H154 H 0.57260 0.17984 0.59973
 H155 H 0.57799 0.26126 0.56926
 H156 H 0.53512 0.26004 0.53428
 H157 H 0.46700 0.18168 0.52188
 H158 H 0.42489 0.18394 0.55888
 H159 H 0.48740 0.25528 0.57814
 H160 H 0.47384 0.25956 0.46707
 H161 H 0.43234 0.26172 0.42738
 H162 H 0.44140 0.18132 0.39100
 H163 H 0.48323 0.17946 0.42979
 H164 H 0.52563 0.25604 0.42818
 H165 H 0.56942 0.25826 0.39759
 H166 H 0.58529 0.18041 0.44342
 H167 H 0.54149 0.17855 0.47439
 H168 H 0.44524 0.25790 0.61481
 C169 C 0.73035 0.00559 -0.01698
 C170 C 0.73041 0.00624 0.02772
 C171 C 0.73217 -0.01775 0.05444
 C172 C 0.73132 0.03114 0.05166
 C173 C 0.72931 0.02974 -0.04346
 C174 C 0.73429 -0.01906 -0.04097
 C175 C 0.71367 -0.03722 0.05033
 C176 C 0.71610 -0.06018 0.07440
 C177 C 0.73699 -0.06419 0.10385
 C178 C 0.75509 -0.04401 0.10841
 C179 C 0.75266 -0.02119 0.08407
 C180 C 0.70961 0.04008 0.07515
 C181 C 0.71016 0.06409 0.09637
 C182 C 0.73268 0.07905 0.09529
 C183 C 0.75456 0.06980 0.07248
 C184 C 0.75381 0.04609 0.05048
 C185 C 0.74944 0.03532 -0.07266
 C186 C 0.74990 0.05895 -0.09493
 C187 C 0.73013 0.07783 -0.08862
 C188 C 0.70949 0.07156 -0.06009
 C189 C 0.70903 0.04777 -0.03816
 C190 C 0.75894 -0.03058 -0.04296
 C191 C 0.76282 -0.05374 -0.06590
 C192 C 0.74192 -0.06634 -0.08648
 C193 C 0.71707 -0.05460 -0.08363
 C194 C 0.71345 -0.03101 -0.06179
 H195 H 0.69724 -0.03458 0.02858
 H196 H 0.70090 -0.07425 0.07083
 H197 H 0.77203 -0.04608 0.12907
 H198 H 0.76725 -0.00643 0.08756
 H199 H 0.69215 0.02867 0.07629
 H200 H 0.69317 0.07088 0.11405
 H201 H 0.77072 0.03934 0.03251
 H202 H 0.76543 0.02178 -0.07700
 H203 H 0.76673 0.06274 -0.11499
 H204 H 0.69317 0.08459 -0.05533
 H205 H 0.69293 0.04353 -0.01658
 H206 H 0.77519 -0.02156 -0.02674
 H207 H 0.78210 -0.06221 -0.06570
 H208 H 0.70050 -0.06292 -0.09991
 H209 H 0.69432 -0.02216 -0.06070
 H210 H 0.77207 0.08113 0.07123
 C211 C 0.21805 0.49904 0.47775
 C212 C 0.21800 0.49983 0.52246
 C213 C 0.22095 0.47584 0.54868
 C214 C 0.21734 0.52489 0.54619
 C215 C 0.21901 0.52327 0.45184
 C216 C 0.21920 0.47411 0.45360
 C217 C 0.19947 0.46526 0.57003
 C218 C 0.20155 0.44108 0.59059
 C219 C 0.22531 0.42749 0.59092
 C220 C 0.24702 0.43860 0.57086
 C221 C 0.24480 0.46252 0.54957
 C222 C 0.19576 0.54156 0.54262
 C223 C 0.19661 0.56664 0.55984
 C224 C 0.21901 0.57544 0.58118
 C225 C 0.24022 0.55827 0.58611
 C226 C 0.23935 0.53320 0.56886
 C227 C 0.24205 0.53732 0.44970
 C228 C 0.24232 0.56165 0.42963
 C229 C 0.21945 0.57245 0.41206
 C230 C 0.19650 0.55812 0.41354
 C231 C 0.19636 0.53354 0.43291
 C232 C 0.24073 0.46807 0.42726
 C233 C 0.24315 0.44363 0.40778
 C234 C 0.22398 0.42485 0.41411
 C235 C 0.20203 0.43130 0.43944
 C236 C 0.19962 0.45575 0.45885
 H237 H 0.18092 0.47530 0.56937
 H238 H 0.18462 0.43291 0.60611
 H239 H 0.26548 0.42839 0.57053
 H240 H 0.26151 0.47044 0.53297
 H241 H 0.17854 0.53535 0.52544
 H242 H 0.17980 0.57922 0.55619
 H243 H 0.25626 0.52067 0.57153
 H244 H 0.25961 0.52968 0.46459
 H245 H 0.26018 0.57244 0.42911
 H246 H 0.17870 0.56605 0.39997
 H247 H 0.17840 0.52296 0.43470
 H248 H 0.25610 0.48194 0.42303
 H249 H 0.26041 0.43919 0.38886
 H250 H 0.18672 0.41742 0.44426
 H251 H 0.18267 0.46023 0.47857
 H252 H 0.25787 0.56452 0.60191
 C253 C 0.24837 0.99964 -0.02252
 C254 C 0.25121 0.99976 0.02211
 C255 C 0.25018 1.02424 0.04741
 C256 C 0.25456 0.97553 0.04795
 C257 C 0.24575 0.97508 -0.04788
 C258 C 0.24820 1.02421 -0.04812
 C259 C 0.27265 1.03390 0.06680
 C260 C 0.27179 1.05709 0.09050
 C261 C 0.24814 1.07072 0.09677
 C262 C 0.22553 1.06036 0.07776
 C263 C 0.22665 1.03760 0.05290
 C264 C 0.27485 0.95803 0.03857
 C265 C 0.27669 0.93439 0.06088
 C266 C 0.25827 0.92776 0.09303
 C267 C 0.23853 0.94580 0.10338
 C268 C 0.23682 0.96950 0.08128
 C269 C 0.22840 0.95589 -0.03456
 C270 C 0.22747 0.93221 -0.05661
 C271 C 0.24311 0.92735 -0.09393
 C272 C 0.25920 0.94747 -0.10887
 C273 C 0.26065 0.97088 -0.08587
 C274 C 0.22765 1.03006 -0.07664
 C275 C 0.22766 1.05284 -0.10158
 C276 C 0.24835 1.07051 -0.09874
 C277 C 0.26913 1.06405 -0.07024
 C278 C 0.26908 1.04121 -0.04563
 H279 H 0.29092 1.02357 0.06320
 H280 H 0.28957 1.06360 0.10548
 H281 H 0.20702 1.07032 0.08028
 H282 H 0.20911 1.03028 0.03808
 H283 H 0.28898 0.96253 0.01344
 H284 H 0.29245 0.92122 0.05273
 H285 H 0.22103 0.98275 0.08901
 H286 H 0.21570 0.95912 -0.00670
 H287 H 0.21376 0.91806 -0.04500
 H288 H 0.27196 0.94476 -0.13677
 H289 H 0.27400 0.98549 -0.09714
 H290 H 0.21139 1.01709 -0.07919
 H291 H 0.21079 1.05687 -0.12161
 H292 H 0.28619 1.07591 -0.06807
 H293 H 0.28565 1.03654 -0.02514
 H294 H 0.22384 0.94126 0.12750
 C295 C 0.76346 0.50510 0.48195
 C296 C 0.76232 0.50450 0.52671
 C297 C 0.76125 0.52879 0.55278
 C298 C 0.76168 0.47984 0.55197
 C299 C 0.76582 0.48126 0.45486
 C300 C 0.76103 0.52985 0.45762
 C301 C 0.78124 0.54690 0.55017
 C302 C 0.78018 0.56954 0.57536
 C303 C 0.75913 0.57442 0.60372
 C304 C 0.73922 0.55612 0.60633
 C305 C 0.74036 0.53347 0.58127
 C306 C 0.77850 0.47621 0.58780
 C307 C 0.77814 0.45324 0.61204
 C308 C 0.76105 0.43341 0.60065
 C309 C 0.74391 0.43715 0.56529
 C310 C 0.74394 0.46034 0.54158
 C311 C 0.74757 0.47666 0.42166
 C312 C 0.74875 0.45389 0.39696
 C313 C 0.76834 0.43530 0.40475
 C314 C 0.78705 0.44026 0.43724
 C315 C 0.78588 0.46311 0.46192
 C316 C 0.73776 0.54416 0.45867
 C317 C 0.73522 0.56697 0.43424
 C318 C 0.75603 0.57591 0.40888
 C319 C 0.77938 0.56167 0.40824
 C320 C 0.78176 0.53862 0.43207
 H321 H 0.79777 0.54336 0.52895
 H322 H 0.79603 0.58302 0.57316
 H323 H 0.72257 0.55945 0.62734
 H324 H 0.72479 0.51966 0.58372
 H325 H 0.79215 0.49109 0.59671
 H326 H 0.79155 0.45071 0.63914
 H327 H 0.73015 0.46303 0.51509
 H328 H 0.73195 0.49041 0.41563
 H329 H 0.73388 0.45051 0.37259
 H330 H 0.80260 0.42648 0.44350
 H331 H 0.80045 0.46654 0.48681
 H332 H 0.72152 0.53745 0.47796
 H333 H 0.71708 0.57773 0.43531
 H334 H 0.79559 0.56813 0.38861
 H335 H 0.79977 0.52765 0.43079
 H336 H 0.73030 0.42224 0.55639
 O337 O 0.29743 0.25771 0.24069
 O338 O 0.23124 0.26130 0.19457
 O339 O 0.26010 0.29194 0.24085
 O340 O 0.26942 0.22758 0.19146
 O341 O 0.25190 0.20948 0.25003
 O342 O 0.24581 0.27400 0.30191
 O343 O 0.21588 0.24451 0.25585
 O344 O 0.28205 0.23790 0.29930
 Cu345 Cu 0.26612 0.26139 0.21086
 Cu346 Cu 0.24753 0.23965 0.28293
 C347 C 0.30101 0.24696 0.27786
 C348 C 0.21218 0.25376 0.21764
 C349 C 0.25148 0.29408 0.27980
 C350 C 0.26176 0.20762 0.21183
 O351 O 0.75777 0.79402 0.24079
 O352 O 0.76972 0.73296 0.30010
 O353 O 0.79373 0.75834 0.23857
 O354 O 0.73353 0.76845 0.30188
 O355 O 0.71160 0.74843 0.25001
 O356 O 0.77209 0.73596 0.18918
 O357 O 0.74653 0.71213 0.25075
 O358 O 0.73688 0.77285 0.18904
 Cu359 Cu 0.76590 0.76559 0.27538
 Cu360 Cu 0.73964 0.74026 0.21452
 C361 C 0.74544 0.79391 0.20464
 C362 C 0.75977 0.71218 0.28597
 C363 C 0.79323 0.74518 0.20328
 C364 C 0.71223 0.76017 0.28670
 O365 O 0.80278 0.24293 0.27965
 O366 O 0.73627 0.23536 0.32309
 O367 O 0.76772 0.20744 0.27458
 O368 O 0.77242 0.27001 0.33100
 O369 O 0.75800 0.28998 0.27155
 O370 O 0.75000 0.22671 0.21690
 O371 O 0.72090 0.25628 0.26528
 O372 O 0.78632 0.26064 0.21952
 Cu373 Cu 0.77134 0.23702 0.30807
 Cu374 Cu 0.75224 0.26053 0.23754
 C375 C 0.80567 0.25248 0.24143
 C376 C 0.71719 0.24463 0.30144
 C377 C 0.75798 0.20629 0.23630
 C378 C 0.76631 0.29075 0.31093
 O379 O 0.26544 0.76398 0.32367
 O380 O 0.20284 0.75806 0.26815
 O381 O 0.23163 0.72747 0.31580
 O382 O 0.23768 0.79407 0.27218
 O383 O 0.25654 0.77831 0.21267
 O384 O 0.25258 0.71251 0.25762
 O385 O 0.22226 0.74171 0.20959
 O386 O 0.28559 0.74971 0.26424
 Cu387 Cu 0.23245 0.76252 0.30081
 Cu388 Cu 0.25622 0.74409 0.23008
 C389 C 0.28621 0.75773 0.30379
 C390 C 0.20168 0.74864 0.22968
 C391 C 0.24143 0.70864 0.29421
 C392 C 0.24790 0.79748 0.23454
 O393 O 0.71791 0.25517 0.74172
 O394 O 0.78354 0.25993 0.78694
 O395 O 0.75459 0.28865 0.73538
 O396 O 0.74724 0.22523 0.78997
 O397 O 0.76415 0.20602 0.73167
 O398 O 0.76921 0.26872 0.67600
 O399 O 0.79970 0.24137 0.72747
 O400 O 0.73325 0.23436 0.68369
 Cu401 Cu 0.74935 0.25919 0.76949
 Cu402 Cu 0.76825 0.23567 0.69887
 C403 C 0.71426 0.24397 0.70512
 C404 C 0.80289 0.25162 0.76511
 C405 C 0.76259 0.28939 0.69583
 C406 C 0.75454 0.20474 0.77000
 O407 O 0.28677 0.75388 0.72773
 O408 O 0.22370 0.74463 0.78272
 O409 O 0.25368 0.71610 0.73395
 O410 O 0.25687 0.78159 0.77990
 O411 O 0.23880 0.79779 0.71989
 O412 O 0.23230 0.73116 0.67639
 O413 O 0.20411 0.76231 0.72527
 O414 O 0.26645 0.76793 0.66838
 Cu415 Cu 0.25744 0.74749 0.76179
 Cu416 Cu 0.23350 0.76627 0.69143
 C417 C 0.28733 0.76224 0.68836
 C418 C 0.20321 0.75259 0.76358
 C419 C 0.24197 0.71222 0.69792
 C420 C 0.24821 0.80082 0.75818
 O421 O 0.26377 0.29430 0.75967
 O422 O 0.26808 0.23109 0.81459
 O423 O 0.29840 0.25731 0.76332
 O424 O 0.23248 0.26678 0.80824
 O425 O 0.21615 0.24873 0.74870
 O426 O 0.28172 0.23867 0.70473
 O427 O 0.25104 0.21226 0.75644
 O428 O 0.24695 0.27597 0.70082
 Cu429 Cu 0.26733 0.26428 0.79228
 Cu430 Cu 0.24745 0.24200 0.72171
 C431 C 0.25460 0.29604 0.72104
 C432 C 0.26012 0.21089 0.79531
 C433 C 0.30129 0.24632 0.72619
 C434 C 0.21306 0.25931 0.78602
 O435 O 0.73228 0.77578 0.80974
 O436 O 0.74427 0.71481 0.74978
 O437 O 0.76854 0.73990 0.81133
 O438 O 0.70837 0.75010 0.74865
 O439 O 0.72965 0.77309 0.69955
 O440 O 0.79042 0.75971 0.75913
 O441 O 0.76454 0.73639 0.69771
 O442 O 0.75579 0.79668 0.76084
 Cu443 Cu 0.73623 0.74306 0.78512
 Cu444 Cu 0.76229 0.76866 0.72427
 C445 C 0.74226 0.79659 0.79573
 C446 C 0.75600 0.71524 0.71303
 C447 C 0.78986 0.74770 0.79560
 C448 C 0.70870 0.76334 0.71344
 C449 C 0.22478 0.10117 0.14554
 C450 C 0.24715 0.09409 0.12133
 C451 C 0.26842 0.11108 0.12194
 C452 C 0.26716 0.13458 0.14514
 C453 C 0.24479 0.14099 0.16981
 C454 C 0.22379 0.12410 0.16992
 C455 C 0.24357 0.16447 0.19309
 C456 C 0.26398 0.18213 0.19035
 C457 C 0.28594 0.17584 0.16511
 C458 C 0.28771 0.15209 0.14322
 H459 H 0.28553 0.10687 0.10243
 H460 H 0.20646 0.12872 0.18862
 H461 H 0.22637 0.16948 0.21192
 H462 H 0.30494 0.14761 0.12418
 H463 H 0.20825 0.08852 0.14731
 H464 H 0.30181 0.18930 0.16257
 C465 C 0.74848 0.59783 0.67393
 C466 C 0.75786 0.59848 0.63050
 C467 C 0.76574 0.62228 0.61266
 C468 C 0.76401 0.64510 0.63763
 C469 C 0.75421 0.64422 0.68101
 C470 C 0.74663 0.62047 0.69892
 C471 C 0.75194 0.66711 0.70566
 C472 C 0.75938 0.69098 0.68757
 C473 C 0.76944 0.69157 0.64459
 C474 C 0.77169 0.66885 0.61982
 H475 H 0.77271 0.62316 0.57906
 H476 H 0.73922 0.61941 0.73222
 H477 H 0.74422 0.66633 0.73879
 H478 H 0.77928 0.66989 0.58663
 H479 H 0.74272 0.57972 0.68878
 H480 H 0.77529 0.70967 0.62982
 C481 C 0.75334 0.91151 0.16827
 C482 C 0.73990 0.91226 0.12774
 C483 C 0.72977 0.88877 0.11149
 C484 C 0.73330 0.86542 0.13451
 C485 C 0.74696 0.86522 0.17470
 C486 C 0.75676 0.88835 0.19135
 C487 C 0.75072 0.84187 0.19752
 C488 C 0.74112 0.81853 0.18060
 C489 C 0.72752 0.81892 0.14053
 C490 C 0.72364 0.84215 0.11770
 H491 H 0.72017 0.88812 0.07987
 H492 H 0.76707 0.88859 0.22241
 H493 H 0.76127 0.84190 0.22836
 H494 H 0.71314 0.84190 0.08684
 H495 H 0.76058 0.92892 0.18345
 H496 H 0.71990 0.80124 0.12672
 C497 C 0.20996 0.38199 0.59940
 C498 C 0.22737 0.40150 0.61122
 C499 C 0.24695 0.39600 0.64201
 C500 C 0.24901 0.37131 0.66116
 C501 C 0.23167 0.35164 0.64857
 C502 C 0.21222 0.35720 0.61765
 C503 C 0.23392 0.32686 0.66747
 C504 C 0.25281 0.32173 0.69972
 C505 C 0.26970 0.34153 0.71237
 C506 C 0.26800 0.36602 0.69297
 H507 H 0.26028 0.41107 0.65149
 H508 H 0.19870 0.34241 0.60771
 H509 H 0.22062 0.31179 0.65787
 H510 H 0.28138 0.38088 0.70312
 H511 H 0.19487 0.38587 0.57545
 H512 H 0.28443 0.33798 0.73710
 C513 C 0.88614 0.24311 0.09223
 C514 C 0.90828 0.25159 0.11550
 C515 C 0.90492 0.25837 0.16044
 C516 C 0.88062 0.25657 0.18106
 C517 C 0.85888 0.24890 0.15643
 C518 C 0.86186 0.24216 0.11223
 C519 C 0.83446 0.24795 0.17644
 C520 C 0.83158 0.25359 0.22133
 C521 C 0.85339 0.26024 0.24621
 C522 C 0.87771 0.26206 0.22609
 H523 H 0.92131 0.26366 0.18058
 H524 H 0.84532 0.23625 0.09289
 H525 H 0.81771 0.24235 0.15728
 H526 H 0.89421 0.26771 0.24573
 H527 H 0.88681 0.23872 0.05747
 H528 H 0.85149 0.26458 0.28093
 C529 C 0.40667 0.76218 0.66422
 C530 C 0.40694 0.76812 0.61905
 C531 C 0.38329 0.77246 0.59717
 C532 C 0.35971 0.77046 0.61983
 C533 C 0.35966 0.76411 0.66507
 C534 C 0.38326 0.76021 0.68702
 C535 C 0.33601 0.76154 0.68748
 C536 C 0.31237 0.76530 0.66522
 C537 C 0.31274 0.77188 0.62030
 C538 C 0.33616 0.77439 0.59782
 H539 H 0.38318 0.77669 0.56224
 H540 H 0.38362 0.75545 0.72174
 H541 H 0.33605 0.75655 0.72212
 H542 H 0.33583 0.77928 0.56315
 H543 H 0.42462 0.75907 0.68197
 H544 H 0.29486 0.77490 0.60229
 C545 C 0.12262 0.71881 0.08516
 C546 C 0.10029 0.72826 0.10664
 C547 C 0.10267 0.73931 0.14865
 C548 C 0.12700 0.74129 0.16872
 C549 C 0.14939 0.73202 0.14669
 C550 C 0.14696 0.72068 0.10500
 C551 C 0.17379 0.73438 0.16663
 C552 C 0.17607 0.74587 0.20840
 C553 C 0.15357 0.75481 0.23003
 C554 C 0.12929 0.75255 0.21039
 H555 H 0.08554 0.74633 0.16579
 H556 H 0.16389 0.71347 0.08758
 H557 H 0.19094 0.72733 0.14962
 H558 H 0.11232 0.75972 0.22775
 H559 H 0.12132 0.71046 0.05257
 H560 H 0.15470 0.76371 0.26222
 C561 C 0.62382 0.20302 0.59139
 C562 C 0.60497 0.22104 0.60549
 C563 C 0.61161 0.23986 0.63670
 C564 C 0.63682 0.24069 0.65378
 C565 C 0.65585 0.22278 0.63885
 C566 C 0.64911 0.20398 0.60771
 C567 C 0.68123 0.22399 0.65539
 C568 C 0.68765 0.24252 0.68736
 C569 C 0.66843 0.25990 0.70242
 C570 C 0.64331 0.25912 0.68558
 H571 H 0.59705 0.25367 0.64792
 H572 H 0.66339 0.19005 0.59596
 H573 H 0.69585 0.21035 0.64381
 H574 H 0.62895 0.27292 0.69747
 H575 H 0.61906 0.18850 0.56707
 H576 H 0.67292 0.27441 0.72691
 C577 C 0.71944 0.12463 0.90926
 C578 C 0.73134 0.10242 0.89041
 C579 C 0.74499 0.10556 0.85047
 C580 C 0.74715 0.12995 0.83062
 C581 C 0.73554 0.15191 0.85048
 C582 C 0.72161 0.14900 0.88962
 C583 C 0.73807 0.17639 0.83082
 C584 C 0.75189 0.17911 0.79123
 C585 C 0.76312 0.15700 0.77158
 C586 C 0.76080 0.13268 0.79110
 H587 H 0.75334 0.08899 0.83358
 H588 H 0.71262 0.16565 0.90542
 H589 H 0.72916 0.19324 0.84619
 H590 H 0.76978 0.11602 0.77532
 H591 H 0.70941 0.12371 0.94044
 H592 H 0.77386 0.15848 0.74110
 C593 C 0.20131 0.61755 0.40749
 C594 C 0.21952 0.59890 0.39332
 C595 C 0.23824 0.60576 0.36206
 C596 C 0.23882 0.63101 0.34507
 C597 C 0.22075 0.64985 0.36010
 C598 C 0.20201 0.64288 0.39123
 C599 C 0.22173 0.67528 0.34370
 C600 C 0.24021 0.68196 0.31178
 C601 C 0.25776 0.66292 0.29659
 C602 C 0.25720 0.63774 0.31328
 H603 H 0.25220 0.59136 0.35078
 H604 H 0.18796 0.65701 0.40306
 H605 H 0.20797 0.68976 0.35538
 H606 H 0.27113 0.62353 0.30130
 H607 H 0.18687 0.61263 0.43186
 H608 H 0.27223 0.66760 0.27213
 C609 C 0.23841 0.88005 0.90940
 C610 C 0.24306 0.90282 0.88499
 C611 C 0.24802 0.90034 0.83938
 C612 C 0.24808 0.87593 0.81889
 C613 C 0.24405 0.85345 0.84433
 C614 C 0.23921 0.85573 0.88943
 C615 C 0.24469 0.82903 0.82423
 C616 C 0.24839 0.82672 0.77863
 C617 C 0.25163 0.84916 0.75321
 C618 C 0.25182 0.87357 0.77327
 H619 H 0.25072 0.91740 0.81920
 H620 H 0.23606 0.83865 0.90939
 H621 H 0.24169 0.81180 0.84393
 H622 H 0.25471 0.89061 0.75310
 H623 H 0.23536 0.88069 0.94461
 H624 H 0.25441 0.84775 0.71797
 C625 C 0.76267 0.41005 0.33487
 C626 C 0.76860 0.41050 0.38003
 C627 C 0.77375 0.38699 0.40191
 C628 C 0.77252 0.36336 0.37927
 C629 C 0.76614 0.36311 0.33405
 C630 C 0.76147 0.38659 0.31209
 C631 C 0.76429 0.33940 0.31169
 C632 C 0.76877 0.31588 0.33397
 C633 C 0.77540 0.31644 0.37886
 C634 C 0.77722 0.33994 0.40129
 H635 H 0.77798 0.38702 0.43684
 H636 H 0.75669 0.38680 0.27738
 H637 H 0.75925 0.33927 0.27707
 H638 H 0.78214 0.33977 0.43595
 H639 H 0.75895 0.42791 0.31713
 H640 H 0.77896 0.29865 0.39688
 C641 C 0.12716 0.26231 0.92780
 C642 C 0.10593 0.26360 0.89895
 C643 C 0.11029 0.26531 0.85348
 C644 C 0.13564 0.26499 0.83683
 C645 C 0.15694 0.26370 0.86610
 C646 C 0.15247 0.26259 0.91156
 C647 C 0.18229 0.26288 0.84938
 C648 C 0.18660 0.26247 0.80376
 C649 C 0.16531 0.26379 0.77499
 C650 C 0.14007 0.26531 0.79137
 H651 H 0.09393 0.26608 0.83111
 H652 H 0.16852 0.26155 0.93448
 H653 H 0.19860 0.26157 0.87179
 H654 H 0.12400 0.26625 0.76847
 H655 H 0.12410 0.26116 0.96301
 H656 H 0.16822 0.26358 0.73970
 C657 C 0.59478 0.75318 0.32530
 C658 C 0.59538 0.76229 0.36888
 C659 C 0.61914 0.77014 0.38688
 C660 C 0.64202 0.76851 0.36195
 C661 C 0.64117 0.75891 0.31845
 C662 C 0.61744 0.75147 0.30035
 C663 C 0.66408 0.75663 0.29389
 C664 C 0.68798 0.76381 0.31213
 C665 C 0.68855 0.77373 0.35520
 C666 C 0.66579 0.77603 0.37991
 H667 H 0.61996 0.77695 0.42057
 H668 H 0.61642 0.74422 0.26695
 H669 H 0.66329 0.74903 0.26067
 H670 H 0.66681 0.78348 0.41318
 H671 H 0.57670 0.74746 0.31033
 H672 H 0.70668 0.77939 0.37008
 C673 C 0.90839 0.74407 0.82575
 C674 C 0.90799 0.73565 0.86975
 C675 C 0.88402 0.73064 0.88988
 C676 C 0.86079 0.73435 0.86661
 C677 C 0.86148 0.74324 0.82265
 C678 C 0.88537 0.74787 0.80245
 C679 C 0.83827 0.74750 0.79966
 C680 C 0.81427 0.74286 0.81989
 C681 C 0.81381 0.73371 0.86345
 C682 C 0.83686 0.72957 0.88666
 H683 H 0.88339 0.72443 0.92393
 H684 H 0.88625 0.75451 0.76867
 H685 H 0.83893 0.75440 0.76600
 H686 H 0.83596 0.72272 0.92032
 H687 H 0.92659 0.74765 0.80923
 H688 H 0.79558 0.72999 0.87980
 C689 C 0.38921 0.20432 0.39665
 C690 C 0.40804 0.22249 0.38502
 C691 C 0.40200 0.24168 0.35374
 C692 C 0.37734 0.24272 0.33422
 C693 C 0.35831 0.22470 0.34693
 C694 C 0.36448 0.20553 0.37802
 C695 C 0.33343 0.22620 0.32840
 C696 C 0.32741 0.24512 0.29659
 C697 C 0.34666 0.26250 0.28336
 C698 C 0.37134 0.26145 0.30227
 H699 H 0.41657 0.25561 0.34442
 H700 H 0.35018 0.19150 0.38801
 H701 H 0.31881 0.21252 0.33851
 H702 H 0.38571 0.27532 0.29197
 H703 H 0.39351 0.18950 0.42089
 H704 H 0.34245 0.27727 0.25898
 C705 C 0.76951 0.90458 0.86898
 C706 C 0.74580 0.91003 0.89050
 C707 C 0.72610 0.89128 0.88847
 C708 C 0.73006 0.86780 0.86599
 C709 C 0.75367 0.86312 0.84372
 C710 C 0.77324 0.88160 0.84546
 C711 C 0.75740 0.83994 0.82034
 C712 C 0.73816 0.82095 0.82021
 C713 C 0.71504 0.82540 0.84350
 C714 C 0.71089 0.84877 0.86580
 H715 H 0.70804 0.89426 0.90601
 H716 H 0.79149 0.87830 0.82860
 H717 H 0.77545 0.83646 0.80293
 H718 H 0.69273 0.85191 0.88301
 H719 H 0.78496 0.91855 0.86838
 H720 H 0.69997 0.81098 0.84374
 C721 C 0.22045 0.37645 0.41956
 C722 C 0.22715 0.39849 0.39502
 C723 C 0.23730 0.39521 0.35243
 C724 C 0.24085 0.37033 0.33467
 C725 C 0.23411 0.34831 0.35964
 C726 C 0.22388 0.35160 0.40204
 C727 C 0.23771 0.32341 0.34179
 C728 C 0.24794 0.32023 0.29919
 C729 C 0.25456 0.34234 0.27475
 C730 C 0.25105 0.36713 0.29230
 H731 H 0.24224 0.41203 0.33293
 H732 H 0.21867 0.33496 0.42174
 H733 H 0.23248 0.30658 0.36101
 H734 H 0.25632 0.38379 0.27270
 H735 H 0.21294 0.37841 0.45268
 H736 H 0.26245 0.34053 0.24187
 C737 C 0.23443 0.09621 0.83645
 C738 C 0.24834 0.09392 0.87641
 C739 C 0.26220 0.11577 0.89101
 C740 C 0.26214 0.13893 0.86682
 C741 C 0.24820 0.14070 0.82699
 C742 C 0.23446 0.11921 0.81210
 C743 C 0.24799 0.16404 0.80305
 C744 C 0.26126 0.18578 0.81892
 C745 C 0.27508 0.18369 0.85866
 C746 C 0.27559 0.16051 0.88228
 H747 H 0.27221 0.11547 0.92228
 H748 H 0.22376 0.12013 0.78147
 H749 H 0.23710 0.16540 0.77264
 H750 H 0.28637 0.15953 0.91283
 H751 H 0.22419 0.07998 0.82261
 H752 H 0.28552 0.20006 0.87167
 C753 C 0.73198 0.60318 0.35427
 C754 C 0.75325 0.59984 0.38257
 C755 C 0.77187 0.61936 0.38555
 C756 C 0.76917 0.64216 0.36074
 C757 C 0.74788 0.64519 0.33184
 C758 C 0.72941 0.62559 0.32883
 C759 C 0.74526 0.66789 0.30681
 C760 C 0.76326 0.68792 0.31108
 C761 C 0.78418 0.68487 0.34027
 C762 C 0.78725 0.66207 0.36461
 H763 H 0.78818 0.61696 0.40773
 H764 H 0.71293 0.62765 0.30698
 H765 H 0.72888 0.67021 0.28477
 H766 H 0.80362 0.66012 0.38672
 H767 H 0.71753 0.58823 0.35141
 H768 H 0.79828 0.70007 0.34403
 C769 C 0.11758 0.70693 0.88219
 C770 C 0.09983 0.72791 0.87929
 C771 C 0.10663 0.74943 0.85323
 C772 C 0.13033 0.74999 0.83075
 C773 C 0.14820 0.72921 0.83529
 C774 C 0.14161 0.70777 0.86100
 C775 C 0.17225 0.73019 0.81373
 C776 C 0.17810 0.75125 0.78635
 C777 C 0.15987 0.77140 0.78098
 C778 C 0.13631 0.77095 0.80341
 H779 H 0.09306 0.76538 0.84859
 H780 H 0.15503 0.69160 0.86473
 H781 H 0.18617 0.71444 0.81752
 H782 H 0.12273 0.78695 0.79927
 H783 H 0.11357 0.69024 0.90253
 H784 H 0.16413 0.78782 0.76010
 C785 C 0.62876 0.21176 0.42748
 C786 C 0.60798 0.22152 0.40222
 C787 C 0.61325 0.23373 0.36193
 C788 C 0.63883 0.23638 0.34721
 C789 C 0.65959 0.22657 0.37286
 C790 C 0.65432 0.21423 0.41291
 C791 C 0.68522 0.22933 0.35803
 C792 C 0.69033 0.24182 0.31785
 C793 C 0.66943 0.25149 0.29276
 C794 C 0.64397 0.24878 0.30725
 H795 H 0.59743 0.24104 0.34185
 H796 H 0.66995 0.20665 0.43313
 H797 H 0.70110 0.22175 0.37771
 H798 H 0.62829 0.25641 0.28719
 H799 H 0.62529 0.20263 0.45898
 H800 H 0.67272 0.26115 0.26167
 C801 C 0.88450 0.27252 0.90960
 C802 C 0.90679 0.26619 0.88499
 C803 C 0.90390 0.25856 0.84076
 C804 C 0.87916 0.25711 0.82163
 C805 C 0.85702 0.26359 0.84684
 C806 C 0.85991 0.27134 0.89070
 C807 C 0.83230 0.26200 0.82799
 C808 C 0.82922 0.25375 0.78420
 C809 C 0.85137 0.24734 0.75934
 C810 C 0.87612 0.24910 0.77783
 H811 H 0.92087 0.25385 0.82118
 H812 H 0.84312 0.27622 0.91058
 H813 H 0.81543 0.26691 0.84769
 H814 H 0.89286 0.24403 0.75797
 H815 H 0.88600 0.27790 0.94392
 H816 H 0.84957 0.24098 0.72556
 C817 C 0.40545 0.75953 0.32784
 C818 C 0.40552 0.76056 0.37401
 C819 C 0.38188 0.76115 0.39684
 C820 C 0.35836 0.76074 0.37385
 C821 C 0.35841 0.75924 0.32739
 C822 C 0.38207 0.75869 0.30470
 C823 C 0.33481 0.75833 0.30449
 C824 C 0.31116 0.75933 0.32744
 C825 C 0.31141 0.76130 0.37358
 C826 C 0.33478 0.76186 0.39658
 H827 H 0.38185 0.76230 0.43246
 H828 H 0.38251 0.75763 0.26910
 H829 H 0.33487 0.75697 0.26890
 H830 H 0.33439 0.76311 0.43217
 H831 H 0.42352 0.75900 0.30974
 H832 H 0.29347 0.76199 0.39206
 C833 C 0.26568 0.87963 0.08950
 C834 C 0.25895 0.90174 0.11427
 C835 C 0.25203 0.89866 0.15880
 C836 C 0.25146 0.87389 0.17801
 C837 C 0.25823 0.85192 0.15261
 C838 C 0.26545 0.85501 0.10851
 C839 C 0.25737 0.82715 0.17151
 C840 C 0.24952 0.82387 0.21549
 C841 C 0.24289 0.84587 0.24054
 C842 C 0.24396 0.87067 0.22203
 H843 H 0.24708 0.91549 0.17854
 H844 H 0.27056 0.83834 0.08850
 H845 H 0.26245 0.81039 0.15167
 H846 H 0.23869 0.88729 0.24203
 H847 H 0.27059 0.88127 0.05499
 H848 H 0.23683 0.84392 0.27448
 C849 C 0.76014 0.40863 0.67139
 C850 C 0.76133 0.40871 0.62524
 C851 C 0.76299 0.38509 0.60249
 C852 C 0.76348 0.36157 0.62555
 C853 C 0.76180 0.36160 0.67199
 C854 C 0.76019 0.38525 0.69461
 C855 C 0.76170 0.33800 0.69496
 C856 C 0.76365 0.31437 0.67211
 C857 C 0.76584 0.31465 0.62600
 C858 C 0.76563 0.33802 0.60292
 H859 H 0.76427 0.38509 0.56687
 H860 H 0.75898 0.38567 0.73018
 H861 H 0.76015 0.33803 0.73053
 H862 H 0.76704 0.33766 0.56735
 H863 H 0.75880 0.42670 0.68943
 H864 H 0.76726 0.29673 0.60759
 C865 C 0.71526 0.12375 0.10850
 C866 C 0.73353 0.10421 0.11820
 C867 C 0.75285 0.10878 0.14960
 C868 C 0.75394 0.13270 0.17130
 C869 C 0.73585 0.15255 0.16067
 C870 C 0.71655 0.14785 0.12929
 C871 C 0.73736 0.17670 0.18171
 C872 C 0.75627 0.18098 0.21407
 C873 C 0.77375 0.16092 0.22503
 C874 C 0.77276 0.13707 0.20355
 H875 H 0.76680 0.09358 0.15742
 H876 H 0.70245 0.16278 0.12090
 H877 H 0.72363 0.19200 0.17340
 H878 H 0.78667 0.12202 0.21222
 H879 H 0.70029 0.12046 0.08424
 H880 H 0.78853 0.16386 0.24976
 C881 C 0.21042 0.62320 0.57206
 C882 C 0.22056 0.60257 0.59727
 C883 C 0.23274 0.60806 0.63750
 C884 C 0.23498 0.63369 0.65219
 C885 C 0.22478 0.65429 0.62659
 C886 C 0.21247 0.64881 0.58660
 C887 C 0.22711 0.67997 0.64140
 C888 C 0.23957 0.68530 0.68151
 C889 C 0.24963 0.66455 0.70655
 C890 C 0.24733 0.63904 0.69208
 H891 H 0.24035 0.59236 0.65756
 H892 H 0.20460 0.66431 0.56641
 H893 H 0.21924 0.69573 0.62175
 H894 H 0.25526 0.62349 0.71211
 H895 H 0.20130 0.61958 0.54061
 H896 H 0.25928 0.66800 0.73759
 C897 C 0.90512 0.76567 0.13987
 C898 C 0.90749 0.74422 0.11170
 C899 C 0.88668 0.72713 0.10745
 C900 C 0.86361 0.73152 0.13090
 C901 C 0.86155 0.75294 0.15977
 C902 C 0.88242 0.76989 0.16400
 C903 C 0.83862 0.75713 0.18368
 C904 C 0.81744 0.74056 0.17838
 C905 C 0.81953 0.71959 0.14905
 C906 C 0.84248 0.71498 0.12578
 H907 H 0.88834 0.71071 0.08533
 H908 H 0.88115 0.78646 0.18583
 H909 H 0.83712 0.77352 0.20589
 H910 H 0.84367 0.69855 0.10366
 H911 H 0.92103 0.77898 0.14363
 H912 H 0.80349 0.70654 0.14450
 C913 C 0.38343 0.21591 0.58621
 C914 C 0.40551 0.22338 0.60991
 C915 C 0.40240 0.23348 0.65262
 C916 C 0.37761 0.23631 0.67119
 C917 C 0.35560 0.22881 0.64692
 C918 C 0.35874 0.21854 0.60455
 C919 C 0.33080 0.23190 0.66522
 C920 C 0.32759 0.24255 0.70751
 C921 C 0.34964 0.24982 0.73145
 C922 C 0.37442 0.24668 0.71350
 H923 H 0.41926 0.23904 0.67149
 H924 H 0.34206 0.21279 0.58541
 H925 H 0.31401 0.22622 0.64630
 H926 H 0.39108 0.25253 0.73261
 H927 H 0.38520 0.20847 0.55302
 H928 H 0.34775 0.25803 0.76410
 C929 C 0.12511 0.27518 0.08121
 C930 C 0.10414 0.26748 0.10753
 C931 C 0.10895 0.25902 0.15076
 C932 C 0.13431 0.25805 0.16736
 C933 C 0.15525 0.26573 0.14056
 C934 C 0.15041 0.27435 0.09757
 C935 C 0.18065 0.26449 0.15710
 C936 C 0.18543 0.25556 0.20012
 C937 C 0.16437 0.24810 0.22646
 C938 C 0.13908 0.24937 0.21028
 H939 H 0.09294 0.25329 0.17156
 H940 H 0.16620 0.28023 0.07647
 H941 H 0.19666 0.27030 0.13638
 H942 H 0.12327 0.24342 0.23129
 H943 H 0.12201 0.28139 0.04757
 H944 H 0.16742 0.24120 0.25972
 C945 C 0.59973 0.73592 0.64514
 C946 C 0.59653 0.75705 0.61650
 C947 C 0.61612 0.77560 0.61331
 C948 C 0.63888 0.77291 0.63822
 C949 C 0.64176 0.75174 0.66742
 C950 C 0.62207 0.73337 0.67067
 C951 C 0.66440 0.74909 0.69253
 C952 C 0.68455 0.76695 0.68809
 C953 C 0.68169 0.78775 0.65859
 C954 C 0.65892 0.79085 0.63414
 H955 H 0.61380 0.79181 0.59088
 H956 H 0.62402 0.71699 0.69277
 H957 H 0.66657 0.73279 0.71479
 H958 H 0.65709 0.80712 0.61179
 H959 H 0.58472 0.72154 0.64814
 H960 H 0.69699 0.80173 0.65468
   
