data_POSCAR
  _audit_creation_date              2014-09-24
  _audit_creation_method            'ToBaCCo'
  _symmetry_space_group_name_H-M    'P1'
  _symmetry_Int_Tables_number       1
  _symmetry_cell_setting            triclinic
  loop_
  _symmetry_equiv_pos_as_xyz
 x,y,z
_cell_length_a 23.0941
_cell_length_b 36.7121
_cell_length_c 28.0388
_cell_angle_alpha 90.000000
_cell_angle_beta 90.000000
_cell_angle_gamma 90.000000
loop_
  _atom_site_label
  _atom_site_type_symbol
  _atom_site_fract_x
  _atom_site_fract_y
  _atom_site_fract_z
B1 B -0.03982 -0.03173 0.01909
 B2 B 0.03011 -0.02840 0.03445
 B3 B 0.01156 -0.03901 -0.02178
 B4 B -0.04879 -0.01574 -0.03672
 B5 B -0.06696 0.01015 0.01165
 B6 B -0.01785 0.00179 0.05593
 B7 B 0.03983 0.03173 -0.01909
 B8 B -0.03010 0.02840 -0.03445
 B9 B -0.01155 0.03901 0.02178
 B10 B 0.04880 0.01573 0.03672
 B11 B 0.06697 -0.01015 -0.01165
 B12 B 0.01786 -0.00179 -0.05594
 B13 B 0.52176 0.48425 0.54955
 B14 B 0.45151 0.48339 0.53364
 B15 B 0.48402 0.52326 0.54600
 B16 B 0.55281 0.52152 0.52593
 B17 B 0.56275 0.47988 0.50019
 B18 B 0.49957 0.45626 0.50576
 B19 B 0.47825 0.51575 0.45044
 B20 B 0.54850 0.51661 0.46636
 B21 B 0.51598 0.47674 0.45400
 B22 B 0.44720 0.47847 0.47407
 B23 B 0.43726 0.52011 0.49980
 B24 B 0.50043 0.54374 0.49423
 B25 B 0.53983 0.03173 0.51909
 B26 B 0.46990 0.02840 0.53445
 B27 B 0.48845 0.03901 0.47822
 B28 B 0.54880 0.01573 0.46328
 B29 B 0.56697 -0.01015 0.51165
 B30 B 0.51786 -0.00179 0.55593
 B31 B 0.46018 -0.03173 0.48091
 B32 B 0.53011 -0.02840 0.46555
 B33 B 0.51156 -0.03901 0.52178
 B34 B 0.45121 -0.01574 0.53672
 B35 B 0.43304 0.01015 0.48835
 B36 B 0.48215 0.00179 0.44406
 B37 B -0.02175 0.51575 0.04955
 B38 B 0.04850 0.51661 0.03364
 B39 B 0.01598 0.47674 0.04600
 B40 B -0.05280 0.47847 0.02593
 B41 B -0.06274 0.52011 0.00019
 B42 B 0.00043 0.54374 0.00576
 B43 B 0.02176 0.48425 -0.04956
 B44 B -0.04849 0.48339 -0.03364
 B45 B -0.01598 0.52326 -0.04600
 B46 B 0.05281 0.52152 -0.02593
 B47 B 0.06275 0.47988 -0.00020
 B48 B -0.00043 0.45626 -0.00577
 B49 B 0.03983 0.46827 0.48091
 B50 B -0.03010 0.47160 0.46555
 B51 B -0.01155 0.46099 0.52178
 B52 B 0.04880 0.48426 0.53672
 B53 B 0.06697 0.51015 0.48835
 B54 B 0.01786 0.50179 0.44406
 B55 B -0.03982 0.53173 0.51909
 B56 B 0.03011 0.52840 0.53445
 B57 B 0.01156 0.53901 0.47822
 B58 B -0.04879 0.51573 0.46328
 B59 B -0.06696 0.48985 0.51165
 B60 B -0.01785 0.49821 0.55593
 B61 B 0.47825 -0.01575 -0.04956
 B62 B 0.54850 -0.01661 -0.03364
 B63 B 0.51598 0.02326 -0.04600
 B64 B 0.44720 0.02152 -0.02593
 B65 B 0.43726 -0.02012 -0.00020
 B66 B 0.50043 -0.04374 -0.00577
 B67 B 0.52176 0.01575 0.04955
 B68 B 0.45151 0.01661 0.03364
 B69 B 0.48402 -0.02326 0.04600
 B70 B 0.55281 -0.02153 0.02593
 B71 B 0.56275 0.02011 0.00019
 B72 B 0.49957 0.04374 0.00576
 B73 B 0.46018 0.53173 -0.01909
 B74 B 0.53011 0.52840 -0.03445
 B75 B 0.51156 0.53901 0.02178
 B76 B 0.45121 0.51573 0.03672
 B77 B 0.43304 0.48985 -0.01165
 B78 B 0.48215 0.49821 -0.05594
 B79 B 0.53983 0.46827 0.01909
 B80 B 0.46990 0.47160 0.03445
 B81 B 0.48845 0.46099 -0.02178
 B82 B 0.54880 0.48426 -0.03672
 B83 B 0.56697 0.51015 0.01165
 B84 B 0.51786 0.50179 0.05593
 B85 B 0.02176 0.01575 0.45044
 B86 B -0.04849 0.01661 0.46636
 B87 B -0.01598 -0.02326 0.45400
 B88 B 0.05281 -0.02153 0.47407
 B89 B 0.06275 0.02011 0.49980
 B90 B -0.00043 0.04374 0.49423
 B91 B -0.02175 -0.01575 0.54955
 B92 B 0.04850 -0.01661 0.53364
 B93 B 0.01598 0.02326 0.54600
 B94 B -0.05280 0.02152 0.52593
 B95 B -0.06274 -0.02012 0.50019
 B96 B 0.00043 -0.04374 0.50576
 B97 B 0.77058 0.28171 0.26720
 B98 B 0.70001 0.27300 0.27652
 B99 B 0.72409 0.27941 0.22098
 B100 B 0.79076 0.26165 0.21568
 B101 B 0.80809 0.24247 0.26954
 B102 B 0.75132 0.24998 0.30781
 B103 B 0.71231 0.20762 0.23482
 B104 B 0.78247 0.21686 0.22427
 B105 B 0.75880 0.20944 0.28008
 B106 B 0.69187 0.22788 0.28625
 B107 B 0.67475 0.24656 0.23245
 B108 B 0.73094 0.23923 0.19424
 B109 B 0.74121 0.79056 0.78008
 B110 B 0.71753 0.78314 0.72427
 B111 B 0.78770 0.79237 0.73482
 B112 B 0.80813 0.77212 0.78625
 B113 B 0.74869 0.75002 0.80781
 B114 B 0.69191 0.75752 0.76954
 B115 B 0.77591 0.72058 0.72098
 B116 B 0.79999 0.72700 0.77652
 B117 B 0.72942 0.71828 0.76720
 B118 B 0.70925 0.73835 0.71568
 B119 B 0.76906 0.76077 0.69424
 B120 B 0.82526 0.75344 0.73245
 B121 B 0.27058 0.21828 0.73279
 B122 B 0.20001 0.22700 0.72347
 B123 B 0.22409 0.22058 0.77902
 B124 B 0.29076 0.23835 0.78432
 B125 B 0.30809 0.25752 0.73045
 B126 B 0.25132 0.25002 0.69218
 B127 B 0.21231 0.29237 0.76518
 B128 B 0.28247 0.28314 0.77572
 B129 B 0.25880 0.29056 0.71991
 B130 B 0.19187 0.27212 0.71375
 B131 B 0.17475 0.25344 0.76755
 B132 B 0.23094 0.26077 0.80575
 B133 B 0.22942 0.78171 0.23279
 B134 B 0.29999 0.77300 0.22347
 B135 B 0.27591 0.77941 0.27902
 B136 B 0.20925 0.76165 0.28432
 B137 B 0.19191 0.74247 0.23045
 B138 B 0.24869 0.74998 0.19218
 B139 B 0.28770 0.70762 0.26518
 B140 B 0.21753 0.71686 0.27572
 B141 B 0.24121 0.70944 0.21991
 B142 B 0.30813 0.72788 0.21375
 B143 B 0.32526 0.74656 0.26755
 B144 B 0.26906 0.73923 0.30575
 B145 B 0.27591 0.72058 0.77902
 B146 B 0.29999 0.72700 0.72347
 B147 B 0.22942 0.71828 0.73279
 B148 B 0.20925 0.73835 0.78432
 B149 B 0.26906 0.76077 0.80575
 B150 B 0.32526 0.75344 0.76755
 B151 B 0.24121 0.79056 0.71991
 B152 B 0.21753 0.78314 0.77572
 B153 B 0.28770 0.79237 0.76518
 B154 B 0.30813 0.77212 0.71375
 B155 B 0.24869 0.75002 0.69218
 B156 B 0.19191 0.75752 0.73045
 B157 B 0.21231 0.20762 0.26518
 B158 B 0.28247 0.21686 0.27572
 B159 B 0.25880 0.20944 0.21991
 B160 B 0.19187 0.22788 0.21375
 B161 B 0.17475 0.24656 0.26755
 B162 B 0.23094 0.23923 0.30575
 B163 B 0.27058 0.28171 0.23279
 B164 B 0.20001 0.27300 0.22347
 B165 B 0.22409 0.27941 0.27902
 B166 B 0.29076 0.26165 0.28432
 B167 B 0.30809 0.24247 0.23045
 B168 B 0.25132 0.24998 0.19218
 B169 B 0.78770 0.70762 0.23482
 B170 B 0.71753 0.71686 0.22427
 B171 B 0.74121 0.70944 0.28008
 B172 B 0.80813 0.72788 0.28625
 B173 B 0.82526 0.74656 0.23245
 B174 B 0.76906 0.73923 0.19424
 B175 B 0.72942 0.78171 0.26720
 B176 B 0.79999 0.77300 0.27652
 B177 B 0.77591 0.77941 0.22098
 B178 B 0.70925 0.76165 0.21568
 B179 B 0.69191 0.74247 0.26954
 B180 B 0.74869 0.74998 0.30781
 B181 B 0.72409 0.22058 0.72098
 B182 B 0.70001 0.22700 0.77652
 B183 B 0.77058 0.21828 0.76720
 B184 B 0.79076 0.23835 0.71568
 B185 B 0.73094 0.26077 0.69424
 B186 B 0.67475 0.25344 0.73245
 B187 B 0.75880 0.29056 0.78008
 B188 B 0.78247 0.28314 0.72427
 B189 B 0.71231 0.29237 0.73482
 B190 B 0.69187 0.27212 0.78625
 B191 B 0.75132 0.25002 0.80781
 B192 B 0.80809 0.25752 0.76954
 C193 C 0.09810 0.41827 0.84241
 N194 N 0.12867 0.44600 0.86229
 N195 N 0.10331 0.46901 0.89261
 C196 C 0.04644 0.46524 0.90412
 N197 N 0.01583 0.43806 0.88317
 N198 N 0.04094 0.41523 0.85268
 C199 C 0.12753 0.38876 0.81658
 N200 N 0.09650 0.36004 0.79997
 N201 N 0.12308 0.33072 0.78262
 C202 C 0.18175 0.32883 0.78146
 N203 N 0.21283 0.35784 0.79724
 N204 N 0.18624 0.38723 0.81458
 C205 C 0.40191 0.58172 0.34241
 N206 N 0.45907 0.58477 0.35268
 N207 N 0.48418 0.56193 0.38317
 C208 C 0.45356 0.53476 0.40412
 N209 N 0.39669 0.53098 0.39261
 N210 N 0.37134 0.55399 0.36229
 C211 C 0.37248 0.61124 0.31658
 N212 N 0.31377 0.61276 0.31458
 N213 N 0.28718 0.64216 0.29724
 C214 C 0.31825 0.67117 0.28146
 N215 N 0.37692 0.66927 0.28262
 N216 N 0.40350 0.63995 0.29997
 C217 C 0.90191 0.91827 0.65758
 N218 N 0.95907 0.91523 0.64731
 N219 N 0.98418 0.93806 0.61682
 C220 C 0.95356 0.96524 0.59588
 N221 N 0.89669 0.96901 0.60739
 N222 N 0.87134 0.94600 0.63771
 C223 C 0.87248 0.88876 0.68342
 N224 N 0.81377 0.88723 0.68541
 N225 N 0.78718 0.85784 0.70275
 C226 C 0.81825 0.82883 0.71854
 N227 N 0.87692 0.83072 0.71737
 N228 N 0.90350 0.86004 0.70003
 C229 C 0.59810 0.08172 0.15758
 N230 N 0.54094 0.08477 0.14731
 N231 N 0.51583 0.06193 0.11682
 C232 C 0.54644 0.03476 0.09588
 N233 N 0.60331 0.03098 0.10739
 N234 N 0.62867 0.05399 0.13771
 C235 C 0.62753 0.11124 0.18342
 N236 N 0.68624 0.11276 0.18541
 N237 N 0.71283 0.14216 0.20275
 C238 C 0.68175 0.17117 0.21854
 N239 N 0.62308 0.16927 0.21737
 N240 N 0.59650 0.13995 0.20003
 C241 C 0.83846 0.08428 0.38454
 N242 N 0.86989 0.05791 0.36240
 N243 N 0.90179 0.03455 0.38770
 C244 C 0.90346 0.03679 0.43602
 N245 N 0.87002 0.06219 0.45798
 N246 N 0.83813 0.08542 0.43282
 C247 C 0.81201 0.11416 0.35728
 N248 N 0.78780 0.14290 0.38041
 N249 N 0.77011 0.17219 0.35640
 C250 C 0.77624 0.17389 0.30833
 N251 N 0.79955 0.14489 0.28519
 N252 N 0.81733 0.11563 0.30916
 C253 C 0.33846 0.41571 0.61546
 N254 N 0.36989 0.44209 0.63759
 N255 N 0.40179 0.46545 0.61229
 C256 C 0.40346 0.46321 0.56397
 N257 N 0.37002 0.43780 0.54201
 N258 N 0.33813 0.41457 0.56717
 C259 C 0.31201 0.38584 0.64271
 N260 N 0.28780 0.35709 0.61958
 N261 N 0.27011 0.32781 0.64359
 C262 C 0.27624 0.32611 0.69166
 N263 N 0.29955 0.35511 0.71481
 N264 N 0.31733 0.38437 0.69084
 C265 C 0.66155 0.91571 0.88454
 N266 N 0.66188 0.91457 0.93282
 N267 N 0.62998 0.93780 0.95798
 C268 C 0.59655 0.96321 0.93602
 N269 N 0.59822 0.96545 0.88770
 N270 N 0.63012 0.94209 0.86240
 C271 C 0.68800 0.88584 0.85728
 N272 N 0.68268 0.88437 0.80916
 N273 N 0.70046 0.85511 0.78519
 C274 C 0.72377 0.82611 0.80833
 N275 N 0.72990 0.82781 0.85640
 N276 N 0.71221 0.85709 0.88041
 C277 C 0.16155 0.58428 0.11546
 N278 N 0.13012 0.55791 0.13759
 N279 N 0.09822 0.53455 0.11229
 C280 C 0.09655 0.53679 0.06397
 N281 N 0.12998 0.56219 0.04201
 N282 N 0.16188 0.58542 0.06717
 C283 C 0.18800 0.61416 0.14271
 N284 N 0.21221 0.64290 0.11958
 N285 N 0.22990 0.67219 0.14359
 C286 C 0.22377 0.67389 0.19166
 N287 N 0.20046 0.64489 0.21481
 N288 N 0.18268 0.61563 0.19084
 C289 C 0.42606 0.89239 0.13915
 N290 N 0.47467 0.88823 0.11273
 N291 N 0.49546 0.91599 0.08744
 C292 C 0.46848 0.94896 0.08720
 N293 N 0.42038 0.95327 0.11440
 N294 N 0.40004 0.92563 0.14038
 C295 C 0.39912 0.86093 0.16280
 N296 N 0.36371 0.86632 0.20053
 N297 N 0.33518 0.83852 0.21970
 C298 C 0.33975 0.80427 0.20166
 N299 N 0.37586 0.79867 0.16415
 N300 N 0.40523 0.82654 0.14521
 C301 C 0.57394 0.39239 0.36085
 N302 N 0.59997 0.42563 0.35961
 N303 N 0.57963 0.45327 0.38560
 C304 C 0.53152 0.44896 0.41280
 N305 N 0.50455 0.41599 0.41255
 N306 N 0.52534 0.38823 0.38727
 C307 C 0.60089 0.36093 0.33719
 N308 N 0.59478 0.32654 0.35479
 N309 N 0.62415 0.29867 0.33585
 C310 C 0.66026 0.30427 0.29833
 N311 N 0.66483 0.33852 0.28030
 N312 N 0.63629 0.36632 0.29947
 C313 C 0.92606 0.60760 0.86085
 N314 N 0.97467 0.61177 0.88727
 N315 N 0.99546 0.58401 0.91255
 C316 C 0.96848 0.55104 0.91280
 N317 N 0.92038 0.54672 0.88560
 N318 N 0.90004 0.57436 0.85961
 C319 C 0.89912 0.63906 0.83719
 N320 N 0.86371 0.63368 0.79947
 N321 N 0.83518 0.66147 0.78030
 C322 C 0.83975 0.69573 0.79833
 N323 N 0.87586 0.70132 0.83585
 N324 N 0.90523 0.67345 0.85479
 C325 C 0.07394 0.10760 0.63915
 N326 N 0.02534 0.11177 0.61273
 N327 N 0.00455 0.08401 0.58744
 C328 C 0.03152 0.05104 0.58720
 N329 N 0.07962 0.04672 0.61440
 N330 N 0.09997 0.07436 0.64038
 C331 C 0.10089 0.13906 0.66280
 N332 N 0.13629 0.13368 0.70053
 N333 N 0.16483 0.16147 0.71970
 C334 C 0.16026 0.19573 0.70166
 N335 N 0.12415 0.20132 0.66415
 N336 N 0.09478 0.17345 0.64521
 C337 C 0.13788 0.38723 0.40856
 N338 N 0.15451 0.42258 0.40698
 N339 N 0.12568 0.44755 0.43189
 C340 C 0.07952 0.43802 0.45927
 N341 N 0.06396 0.40253 0.46182
 N342 N 0.09270 0.37759 0.43689
 C343 C 0.16329 0.36025 0.37658
 N344 N 0.13769 0.32729 0.37304
 N345 N 0.15704 0.30293 0.34209
 C346 C 0.20270 0.31041 0.31329
 N347 N 0.22901 0.34338 0.31690
 N348 N 0.20920 0.36808 0.34787
 C349 C 0.36213 0.61276 0.90856
 N350 N 0.40731 0.62240 0.93689
 N351 N 0.43605 0.59747 0.96182
 C352 C 0.42049 0.56197 0.95927
 N353 N 0.37433 0.55245 0.93189
 N354 N 0.34550 0.57741 0.90698
 C355 C 0.33671 0.63974 0.87658
 N356 N 0.29081 0.63191 0.84787
 N357 N 0.27100 0.65661 0.81690
 C358 C 0.29731 0.68958 0.81329
 N359 N 0.34296 0.69707 0.84209
 N360 N 0.36232 0.67270 0.87304
 C361 C 0.63788 0.11276 0.59144
 N362 N 0.59270 0.12240 0.56310
 N363 N 0.56396 0.09747 0.53817
 C364 C 0.57952 0.06197 0.54073
 N365 N 0.62568 0.05245 0.56810
 N366 N 0.65451 0.07741 0.59301
 C367 C 0.66329 0.13974 0.62342
 N368 N 0.70920 0.13191 0.65213
 N369 N 0.72901 0.15661 0.68309
 C370 C 0.70270 0.18958 0.68671
 N371 N 0.65704 0.19707 0.65790
 N372 N 0.63769 0.17270 0.62695
 C373 C 0.86213 0.88723 0.09144
 N374 N 0.90731 0.87759 0.06310
 N375 N 0.93605 0.90253 0.03817
 C376 C 0.92049 0.93802 0.04073
 N377 N 0.87433 0.94755 0.06810
 N378 N 0.84550 0.92258 0.09301
 C379 C 0.83671 0.86025 0.12342
 N380 N 0.79081 0.86808 0.15213
 N381 N 0.77100 0.84338 0.18309
 C382 C 0.79731 0.81041 0.18671
 N383 N 0.84296 0.80293 0.15790
 N384 N 0.86232 0.82729 0.12695
 C385 C 0.88476 0.10294 0.87007
 N386 N 0.94119 0.09397 0.86311
 N387 N 0.96779 0.07088 0.89268
 C388 C 0.93917 0.05619 0.93049
 N389 N 0.88266 0.06490 0.93699
 N390 N 0.85612 0.08791 0.90752
 C391 C 0.85495 0.12979 0.83962
 N392 N 0.80042 0.14009 0.85103
 N393 N 0.77382 0.16615 0.82657
 C394 C 0.79984 0.18276 0.78902
 N395 N 0.85456 0.17236 0.77725
 N396 N 0.88156 0.14623 0.80200
 C397 C 0.11525 0.60294 0.62992
 N398 N 0.05882 0.59397 0.63688
 N399 N 0.03222 0.57088 0.60731
 C400 C 0.06084 0.55619 0.56951
 N401 N 0.11735 0.56490 0.56301
 N402 N 0.14389 0.58791 0.59247
 C403 C 0.14506 0.62979 0.66038
 N404 N 0.19959 0.64009 0.64897
 N405 N 0.22618 0.66615 0.67343
 C406 C 0.20017 0.68276 0.71098
 N407 N 0.14545 0.67236 0.72274
 N408 N 0.11845 0.64623 0.69800
 C409 C 0.61525 0.89705 0.37007
 N410 N 0.64389 0.91209 0.40752
 N411 N 0.61735 0.93509 0.43699
 C412 C 0.56084 0.94381 0.43049
 N413 N 0.53222 0.92911 0.39268
 N414 N 0.55882 0.90603 0.36311
 C415 C 0.64506 0.87021 0.33962
 N416 N 0.61845 0.85377 0.30200
 N417 N 0.64545 0.82763 0.27725
 C418 C 0.70017 0.81724 0.28902
 N419 N 0.72618 0.83384 0.32657
 N420 N 0.69959 0.85991 0.35103
 C421 C 0.38476 0.39705 0.12992
 N422 N 0.44119 0.40603 0.13688
 N423 N 0.46779 0.42911 0.10731
 C424 C 0.43917 0.44381 0.06951
 N425 N 0.38266 0.43509 0.06301
 N426 N 0.35612 0.41209 0.09247
 C427 C 0.35495 0.37021 0.16038
 N428 N 0.30042 0.35991 0.14897
 N429 N 0.27382 0.33384 0.17343
 C430 C 0.29984 0.31724 0.21098
 N431 N 0.35456 0.32763 0.22274
 N432 N 0.38156 0.35377 0.19800
 C433 C 0.57561 0.62837 0.10197
 N434 N 0.53013 0.60872 0.11852
 N435 N 0.50618 0.58297 0.09143
 C436 C 0.52652 0.57614 0.04680
 N437 N 0.57051 0.59681 0.02977
 N438 N 0.59441 0.62252 0.05675
 C439 C 0.60923 0.65202 0.13370
 N440 N 0.66017 0.66575 0.11803
 N441 N 0.69375 0.68503 0.14697
 C442 C 0.67818 0.69117 0.19293
 N443 N 0.62677 0.67779 0.20870
 N444 N 0.59313 0.65817 0.17968
 C445 C 0.07561 0.87162 0.89803
 N446 N 0.09441 0.87747 0.94324
 N447 N 0.07051 0.90319 0.97022
 C448 C 0.02652 0.92385 0.95319
 N449 N 0.00618 0.91702 0.90856
 N450 N 0.03013 0.89127 0.88148
 C451 C 0.10923 0.84797 0.86630
 N452 N 0.09313 0.84182 0.82032
 N453 N 0.12677 0.82220 0.79129
 C454 C 0.17818 0.80882 0.80706
 N455 N 0.19375 0.81497 0.85303
 N456 N 0.16017 0.83425 0.88196
 C457 C 0.42440 0.12837 0.39803
 N458 N 0.46988 0.10872 0.38148
 N459 N 0.49383 0.08297 0.40856
 C460 C 0.47348 0.07614 0.45319
 N461 N 0.42950 0.09681 0.47022
 N462 N 0.40559 0.12252 0.44324
 C463 C 0.39078 0.15202 0.36630
 N464 N 0.33984 0.16575 0.38196
 N465 N 0.30626 0.18503 0.35303
 C466 C 0.32183 0.19117 0.30706
 N467 N 0.37324 0.17779 0.29129
 N468 N 0.40688 0.15817 0.32032
 C469 C 0.92440 0.37162 0.60197
 N470 N 0.96988 0.39127 0.61852
 N471 N 0.99383 0.41702 0.59143
 C472 C 0.97348 0.42385 0.54680
 N473 N 0.92950 0.40319 0.52977
 N474 N 0.90559 0.37747 0.55675
 C475 C 0.89078 0.34797 0.63370
 N476 N 0.83984 0.33425 0.61803
 N477 N 0.80626 0.31497 0.64697
 C478 C 0.82183 0.30882 0.69293
 N479 N 0.87324 0.32220 0.70870
 N480 N 0.90688 0.34182 0.67968
 C481 C 0.90191 0.58172 0.15758
 N482 N 0.87134 0.55399 0.13771
 N483 N 0.89669 0.53098 0.10739
 C484 C 0.95356 0.53476 0.09588
 N485 N 0.98418 0.56193 0.11682
 N486 N 0.95907 0.58477 0.14731
 C487 C 0.87248 0.61124 0.18342
 N488 N 0.90350 0.63995 0.20003
 N489 N 0.87692 0.66927 0.21737
 C490 C 0.81825 0.67117 0.21854
 N491 N 0.78718 0.64216 0.20275
 N492 N 0.81377 0.61276 0.18541
 C493 C 0.59810 0.41827 0.65758
 N494 N 0.54094 0.41523 0.64731
 N495 N 0.51583 0.43806 0.61682
 C496 C 0.54644 0.46524 0.59588
 N497 N 0.60331 0.46901 0.60739
 N498 N 0.62867 0.44600 0.63771
 C499 C 0.62753 0.38876 0.68342
 N500 N 0.68624 0.38723 0.68541
 N501 N 0.71283 0.35784 0.70275
 C502 C 0.68175 0.32883 0.71854
 N503 N 0.62308 0.33072 0.71737
 N504 N 0.59650 0.36004 0.70003
 C505 C 0.09810 0.08172 0.34241
 N506 N 0.04094 0.08477 0.35268
 N507 N 0.01583 0.06193 0.38317
 C508 C 0.04644 0.03476 0.40412
 N509 N 0.10331 0.03098 0.39261
 N510 N 0.12867 0.05399 0.36229
 C511 C 0.12753 0.11124 0.31658
 N512 N 0.18624 0.11276 0.31458
 N513 N 0.21283 0.14216 0.29724
 C514 C 0.18175 0.17117 0.28146
 N515 N 0.12308 0.16927 0.28262
 N516 N 0.09650 0.13995 0.29997
 C517 C 0.40191 0.91827 0.84241
 N518 N 0.37134 0.94600 0.86229
 N519 N 0.39669 0.96901 0.89261
 C520 C 0.45356 0.96524 0.90412
 N521 N 0.48418 0.93806 0.88317
 N522 N 0.45907 0.91523 0.85268
 C523 C 0.37248 0.88876 0.81658
 N524 N 0.40350 0.86004 0.79997
 N525 N 0.37692 0.83072 0.78262
 C526 C 0.31825 0.82883 0.78146
 N527 N 0.28718 0.85784 0.79724
 N528 N 0.31377 0.88723 0.81458
 C529 C 0.16155 0.91571 0.61546
 N530 N 0.13012 0.94209 0.63759
 N531 N 0.09822 0.96545 0.61229
 C532 C 0.09655 0.96321 0.56397
 N533 N 0.12998 0.93780 0.54201
 N534 N 0.16188 0.91457 0.56717
 C535 C 0.18800 0.88584 0.64271
 N536 N 0.21221 0.85709 0.61958
 N537 N 0.22990 0.82781 0.64359
 C538 C 0.22377 0.82611 0.69166
 N539 N 0.20046 0.85511 0.71481
 N540 N 0.18268 0.88437 0.69084
 C541 C 0.66155 0.58428 0.38454
 N542 N 0.63012 0.55791 0.36240
 N543 N 0.59822 0.53455 0.38770
 C544 C 0.59655 0.53679 0.43602
 N545 N 0.62998 0.56219 0.45798
 N546 N 0.66188 0.58542 0.43282
 C547 C 0.68800 0.61416 0.35728
 N548 N 0.71221 0.64290 0.38041
 N549 N 0.72990 0.67219 0.35640
 C550 C 0.72377 0.67389 0.30833
 N551 N 0.70046 0.64489 0.28519
 N552 N 0.68268 0.61563 0.30916
 C553 C 0.33846 0.08428 0.11546
 N554 N 0.33813 0.08542 0.06717
 N555 N 0.37002 0.06219 0.04201
 C556 C 0.40346 0.03679 0.06397
 N557 N 0.40179 0.03455 0.11229
 N558 N 0.36989 0.05791 0.13759
 C559 C 0.31201 0.11416 0.14271
 N560 N 0.31733 0.11563 0.19084
 N561 N 0.29955 0.14489 0.21481
 C562 C 0.27624 0.17389 0.19166
 N563 N 0.27011 0.17219 0.14359
 N564 N 0.28780 0.14290 0.11958
 C565 C 0.83846 0.41571 0.88454
 N566 N 0.83813 0.41457 0.93282
 N567 N 0.87002 0.43780 0.95798
 C568 C 0.90346 0.46321 0.93602
 N569 N 0.90179 0.46545 0.88770
 N570 N 0.86989 0.44209 0.86240
 C571 C 0.81201 0.38584 0.85728
 N572 N 0.81733 0.38437 0.80916
 N573 N 0.79955 0.35511 0.78519
 C574 C 0.77624 0.32611 0.80833
 N575 N 0.77011 0.32781 0.85640
 N576 N 0.78780 0.35709 0.88041
 C577 C 0.57394 0.10760 0.86085
 N578 N 0.52534 0.11177 0.88727
 N579 N 0.50455 0.08401 0.91255
 C580 C 0.53152 0.05104 0.91280
 N581 N 0.57963 0.04672 0.88560
 N582 N 0.59997 0.07436 0.85961
 C583 C 0.60089 0.13906 0.83719
 N584 N 0.63629 0.13368 0.79947
 N585 N 0.66483 0.16147 0.78030
 C586 C 0.66026 0.19573 0.79833
 N587 N 0.62415 0.20132 0.83585
 N588 N 0.59478 0.17345 0.85479
 C589 C 0.42606 0.60760 0.63915
 N590 N 0.40004 0.57436 0.64038
 N591 N 0.42038 0.54672 0.61440
 C592 C 0.46848 0.55104 0.58720
 N593 N 0.49546 0.58401 0.58744
 N594 N 0.47467 0.61177 0.61273
 C595 C 0.39912 0.63906 0.66280
 N596 N 0.40523 0.67345 0.64521
 N597 N 0.37586 0.70132 0.66415
 C598 C 0.33975 0.69573 0.70166
 N599 N 0.33518 0.66147 0.71970
 N600 N 0.36371 0.63368 0.70053
 C601 C 0.07394 0.39239 0.13915
 N602 N 0.02534 0.38823 0.11273
 N603 N 0.00455 0.41599 0.08744
 C604 C 0.03152 0.44896 0.08720
 N605 N 0.07963 0.45327 0.11440
 N606 N 0.09997 0.42563 0.14038
 C607 C 0.10089 0.36093 0.16280
 N608 N 0.13629 0.36632 0.20053
 N609 N 0.16483 0.33852 0.21970
 C610 C 0.16026 0.30427 0.20166
 N611 N 0.12415 0.29867 0.16415
 N612 N 0.09478 0.32654 0.14521
 C613 C 0.92606 0.89239 0.36085
 N614 N 0.90004 0.92563 0.35961
 N615 N 0.92038 0.95327 0.38560
 C616 C 0.96848 0.94896 0.41280
 N617 N 0.99546 0.91599 0.41255
 N618 N 0.97467 0.88823 0.38727
 C619 C 0.89912 0.86093 0.33719
 N620 N 0.90523 0.82654 0.35479
 N621 N 0.87586 0.79867 0.33585
 C622 C 0.83975 0.80427 0.29833
 N623 N 0.83518 0.83852 0.28030
 N624 N 0.86371 0.86632 0.29947
 C625 C 0.86213 0.61276 0.59144
 N626 N 0.84550 0.57741 0.59301
 N627 N 0.87433 0.55245 0.56810
 C628 C 0.92049 0.56197 0.54073
 N629 N 0.93605 0.59747 0.53817
 N630 N 0.90731 0.62240 0.56310
 C631 C 0.83671 0.63974 0.62342
 N632 N 0.86232 0.67270 0.62695
 N633 N 0.84296 0.69707 0.65790
 C634 C 0.79731 0.68958 0.68671
 N635 N 0.77100 0.65661 0.68309
 N636 N 0.79081 0.63191 0.65213
 C637 C 0.63788 0.38723 0.09144
 N638 N 0.59270 0.37759 0.06310
 N639 N 0.56396 0.40253 0.03817
 C640 C 0.57952 0.43802 0.04073
 N641 N 0.62568 0.44755 0.06810
 N642 N 0.65451 0.42258 0.09301
 C643 C 0.66329 0.36025 0.12342
 N644 N 0.70920 0.36808 0.15213
 N645 N 0.72901 0.34338 0.18309
 C646 C 0.70270 0.31041 0.18671
 N647 N 0.65704 0.30293 0.15790
 N648 N 0.63769 0.32729 0.12695
 C649 C 0.36213 0.88723 0.40856
 N650 N 0.34550 0.92258 0.40698
 N651 N 0.37433 0.94755 0.43189
 C652 C 0.42049 0.93802 0.45927
 N653 N 0.43605 0.90253 0.46182
 N654 N 0.40731 0.87759 0.43689
 C655 C 0.33671 0.86025 0.37658
 N656 N 0.36232 0.82729 0.37304
 N657 N 0.34296 0.80293 0.34209
 C658 C 0.29731 0.81041 0.31329
 N659 N 0.27100 0.84338 0.31690
 N660 N 0.29081 0.86808 0.34787
 C661 C 0.13788 0.11276 0.90856
 N662 N 0.09270 0.12240 0.93689
 N663 N 0.06396 0.09747 0.96182
 C664 C 0.07952 0.06197 0.95927
 N665 N 0.12568 0.05245 0.93189
 N666 N 0.15451 0.07741 0.90698
 C667 C 0.16329 0.13974 0.87658
 N668 N 0.20920 0.13191 0.84787
 N669 N 0.22901 0.15661 0.81690
 C670 C 0.20270 0.18958 0.81329
 N671 N 0.15704 0.19707 0.84209
 N672 N 0.13769 0.17270 0.87304
 C673 C 0.11525 0.89705 0.12992
 N674 N 0.05882 0.90603 0.13688
 N675 N 0.03222 0.92911 0.10731
 C676 C 0.06084 0.94381 0.06951
 N677 N 0.11735 0.93509 0.06301
 N678 N 0.14389 0.91209 0.09247
 C679 C 0.14506 0.87021 0.16038
 N680 N 0.19959 0.85991 0.14897
 N681 N 0.22618 0.83384 0.17343
 C682 C 0.20017 0.81724 0.21098
 N683 N 0.14545 0.82763 0.22274
 N684 N 0.11845 0.85377 0.19800
 C685 C 0.88476 0.39705 0.37007
 N686 N 0.85612 0.41209 0.40752
 N687 N 0.88266 0.43509 0.43699
 C688 C 0.93917 0.44381 0.43049
 N689 N 0.96779 0.42911 0.39268
 N690 N 0.94119 0.40603 0.36311
 C691 C 0.85495 0.37021 0.33962
 N692 N 0.88156 0.35377 0.30200
 N693 N 0.85456 0.32763 0.27725
 C694 C 0.79984 0.31724 0.28902
 N695 N 0.77382 0.33384 0.32657
 N696 N 0.80042 0.35991 0.35103
 C697 C 0.38476 0.10294 0.62992
 N698 N 0.35612 0.08791 0.59247
 N699 N 0.38266 0.06490 0.56301
 C700 C 0.43917 0.05619 0.56951
 N701 N 0.46779 0.07088 0.60731
 N702 N 0.44119 0.09397 0.63688
 C703 C 0.35495 0.12979 0.66038
 N704 N 0.38156 0.14623 0.69800
 N705 N 0.35456 0.17236 0.72274
 C706 C 0.29984 0.18276 0.71098
 N707 N 0.27382 0.16615 0.67343
 N708 N 0.30042 0.14009 0.64897
 C709 C 0.61525 0.60294 0.87007
 N710 N 0.55882 0.59397 0.86311
 N711 N 0.53222 0.57088 0.89268
 C712 C 0.56084 0.55619 0.93049
 N713 N 0.61735 0.56490 0.93699
 N714 N 0.64389 0.58791 0.90752
 C715 C 0.64506 0.62979 0.83962
 N716 N 0.69959 0.64009 0.85103
 N717 N 0.72618 0.66615 0.82657
 C718 C 0.70017 0.68276 0.78902
 N719 N 0.64545 0.67236 0.77725
 N720 N 0.61845 0.64623 0.80200
 C721 C 0.42440 0.37162 0.89803
 N722 N 0.40559 0.37747 0.94324
 N723 N 0.42950 0.40319 0.97022
 C724 C 0.47348 0.42385 0.95319
 N725 N 0.49383 0.41702 0.90856
 N726 N 0.46988 0.39127 0.88148
 C727 C 0.39078 0.34797 0.86630
 N728 N 0.40688 0.34182 0.82032
 N729 N 0.37324 0.32220 0.79129
 C730 C 0.32183 0.30882 0.80706
 N731 N 0.30626 0.31497 0.85303
 N732 N 0.33984 0.33425 0.88196
 C733 C 0.92440 0.12837 0.10197
 N734 N 0.90559 0.12252 0.05675
 N735 N 0.92950 0.09681 0.02977
 C736 C 0.97348 0.07614 0.04680
 N737 N 0.99383 0.08297 0.09143
 N738 N 0.96988 0.10872 0.11852
 C739 C 0.89078 0.15202 0.13370
 N740 N 0.90688 0.15817 0.17968
 N741 N 0.87324 0.17779 0.20870
 C742 C 0.82183 0.19117 0.19293
 N743 N 0.80626 0.18503 0.14697
 N744 N 0.83984 0.16575 0.11803
 C745 C 0.57561 0.87162 0.60197
 N746 N 0.53013 0.89127 0.61852
 N747 N 0.50618 0.91702 0.59143
 C748 C 0.52652 0.92385 0.54680
 N749 N 0.57051 0.90319 0.52977
 N750 N 0.59441 0.87747 0.55675
 C751 C 0.60923 0.84797 0.63370
 N752 N 0.66017 0.83425 0.61803
 N753 N 0.69375 0.81497 0.64697
 C754 C 0.67818 0.80882 0.69293
 N755 N 0.62677 0.82220 0.70870
 N756 N 0.59313 0.84182 0.67968
 C757 C 0.07561 0.62837 0.39803
 N758 N 0.03013 0.60872 0.38148
 N759 N 0.00618 0.58297 0.40856
 C760 C 0.02652 0.57614 0.45319
 N761 N 0.07051 0.59681 0.47022
 N762 N 0.09441 0.62252 0.44324
 C763 C 0.10923 0.65202 0.36630
 N764 N 0.16017 0.66575 0.38196
 N765 N 0.19375 0.68503 0.35303
 C766 C 0.17818 0.69117 0.30706
 N767 N 0.12677 0.67779 0.29129
 N768 N 0.09313 0.65817 0.32032
   
