data_POSCAR
  _audit_creation_date              2014-09-24
  _audit_creation_method            'ToBaCCo'
  _symmetry_space_group_name_H-M    'P1'
  _symmetry_Int_Tables_number       1
  _symmetry_cell_setting            triclinic
  loop_
  _symmetry_equiv_pos_as_xyz
 x,y,z
_cell_length_a 52.3152
_cell_length_b 55.3515
_cell_length_c 54.2521
_cell_angle_alpha 89.930200
_cell_angle_beta 90.278800
_cell_angle_gamma 90.039800
loop_
  _atom_site_label
  _atom_site_type_symbol
  _atom_site_fract_x
  _atom_site_fract_y
  _atom_site_fract_z
O1 O 0.35284 0.31757 -0.02155
 O2 O 0.31750 0.35244 0.02437
 O3 O 0.35077 0.31794 0.02577
 O4 O 0.31956 0.35278 -0.02346
 O5 O 0.28761 0.32671 -0.02436
 O6 O 0.32025 0.29040 0.02369
 O7 O 0.28637 0.32545 0.02362
 O8 O 0.32098 0.29147 -0.02437
 Cu9 Cu 0.33823 0.33792 0.00133
 Cu10 Cu 0.30061 0.30581 -0.00050
 C11 C 0.34314 0.29852 -0.03061
 C12 C 0.29602 0.34488 0.03194
 C13 C 0.34117 0.29806 0.03282
 C14 C 0.29809 0.34601 -0.03205
 O15 O 0.68208 0.65131 0.02457
 O16 O 0.65063 0.68397 -0.02601
 O17 O 0.68402 0.64948 -0.02322
 O18 O 0.64864 0.68607 0.02142
 O19 O 0.68044 0.71230 0.02321
 O20 O 0.71487 0.67672 -0.02395
 O21 O 0.68094 0.71177 -0.02502
 O22 O 0.71422 0.67722 0.02376
 Cu23 Cu 0.66326 0.66501 -0.00078
 Cu24 Cu 0.70074 0.69728 -0.00049
 C25 C 0.70375 0.65833 0.03237
 C26 C 0.66009 0.70363 -0.03381
 C27 C 0.70545 0.65676 -0.03123
 C28 C 0.65837 0.70537 0.02990
 O29 O 0.68281 0.35102 0.97372
 O30 O 0.64826 0.31569 1.02013
 O31 O 0.68119 0.35066 1.02152
 O32 O 0.64968 0.31615 0.97211
 O33 O 0.68023 0.28865 0.97396
 O34 O 0.71348 0.32499 1.02135
 O35 O 0.68003 0.28946 1.02187
 O36 O 0.71384 0.32397 0.97365
 Cu37 Cu 0.66231 0.33600 0.99677
 Cu38 Cu 0.70005 0.30404 0.99780
 C39 C 0.70422 0.34363 0.96585
 C40 C 0.65821 0.29664 1.02897
 C41 C 0.70297 0.34407 1.02948
 C42 C 0.65934 0.29637 0.96489
 O43 O 0.31881 0.64765 0.97717
 O44 O 0.35342 0.68153 1.02460
 O45 O 0.31945 0.64693 1.02499
 O46 O 0.35219 0.68210 0.97710
 O47 O 0.32178 0.70974 0.97847
 O48 O 0.28794 0.67344 1.02536
 O49 O 0.32203 0.70813 1.02663
 O50 O 0.28783 0.67475 0.97738
 Cu51 Cu 0.33903 0.66182 1.00097
 Cu52 Cu 0.30175 0.69426 1.00205
 C53 C 0.29753 0.65536 0.96910
 C54 C 0.34387 0.70063 1.03356
 C55 C 0.29793 0.65390 1.03307
 C56 C 0.34279 0.70202 0.96984
 O57 O -0.02595 0.35467 0.32120
 O58 O 0.02205 0.31998 0.35523
 O59 O 0.02332 0.35362 0.32163
 O60 O -0.02724 0.32088 0.35459
 O61 O -0.02646 0.29208 0.32646
 O62 O 0.02176 0.32674 0.29160
 O63 O 0.02336 0.29288 0.32539
 O64 O -0.02814 0.32614 0.29281
 Cu65 Cu -0.00191 0.34006 0.34106
 Cu66 Cu -0.00242 0.30664 0.30609
 C67 C -0.03528 0.34642 0.30131
 C68 C 0.03093 0.30061 0.34624
 C69 C 0.03075 0.34609 0.30077
 C70 C -0.03505 0.30062 0.34652
 O71 O 0.02224 0.68084 0.64343
 O72 O -0.02485 0.64790 0.68026
 O73 O -0.02724 0.68105 0.64683
 O74 O 0.02453 0.64736 0.67744
 O75 O 0.02608 0.67474 0.70701
 O76 O -0.02323 0.71028 0.67423
 O77 O -0.02348 0.67645 0.70866
 O78 O 0.02650 0.70805 0.67294
 Cu79 Cu -0.00149 0.66150 0.65909
 Cu80 Cu 0.00163 0.69526 0.69360
 C81 C 0.03246 0.69994 0.65184
 C82 C -0.03222 0.65649 0.70069
 C83 C -0.03373 0.70163 0.65498
 C84 C 0.03369 0.65498 0.69772
 O85 O 1.02519 0.64492 0.32149
 O86 O 0.97570 0.67732 0.35580
 O87 O 0.97577 0.64302 0.32250
 O88 O 1.02454 0.67838 0.35494
 O89 O 1.02400 0.70578 0.32531
 O90 O 0.97298 0.67102 0.29355
 O91 O 0.97396 0.70525 0.32670
 O92 O 1.02286 0.67196 0.29157
 Cu93 Cu 1.00038 0.65808 0.34154
 Cu94 Cu 0.99827 0.69130 0.30630
 C95 C 1.03232 0.65275 0.30063
 C96 C 0.96684 0.69704 0.34743
 C97 C 0.96610 0.65083 0.30254
 C98 C 1.03255 0.69811 0.34589
 O99 O 0.97461 0.32102 0.64749
 O100 O 1.02702 0.35375 0.67789
 O101 O 1.02377 0.32012 0.64434
 O102 O 0.97754 0.35479 0.68055
 O103 O 0.97827 0.32682 0.70962
 O104 O 1.02672 0.29296 0.67406
 O105 O 1.02784 0.32656 0.70773
 O106 O 0.97675 0.29253 0.67597
 Cu107 Cu 1.00062 0.34021 0.65968
 Cu108 Cu 1.00246 0.30686 0.69477
 C109 C 0.96708 0.30099 0.65625
 C110 C 1.03606 0.34599 0.69817
 C111 C 1.03317 0.30068 0.65289
 C112 C 0.97006 0.34685 0.70124
 O113 O 0.35108 0.02360 0.31513
 O114 O 0.31590 -0.02310 0.34907
 O115 O 0.35035 -0.02342 0.31510
 O116 O 0.31666 0.02392 0.34955
 O117 O 0.28580 0.02413 0.32159
 O118 O 0.32052 -0.02236 0.28615
 O119 O 0.28541 -0.02259 0.32073
 O120 O 0.32062 0.02465 0.28680
 Cu121 Cu 0.33653 0.00024 0.33504
 Cu122 Cu 0.30005 0.00103 0.30091
 C123 C 0.34197 0.03198 0.29515
 C124 C 0.29464 -0.03070 0.34080
 C125 C 0.34133 -0.03083 0.29471
 C126 C 0.29533 0.03180 0.34170
 O127 O 0.64570 0.02089 0.68417
 O128 O 0.68260 -0.02129 0.64658
 O129 O 0.64844 -0.02548 0.68121
 O130 O 0.67990 0.02508 0.64954
 O131 O 0.71168 0.02375 0.67647
 O132 O 0.67785 -0.02434 0.71056
 O133 O 0.71224 -0.02342 0.67567
 O134 O 0.67725 0.02277 0.71134
 Cu135 Cu 0.66110 -0.00018 0.66256
 Cu136 Cu 0.69788 -0.00032 0.69636
 C137 C 0.65512 0.02908 0.70406
 C138 C 0.70358 -0.02965 0.65469
 C139 C 0.65736 -0.03309 0.70159
 C140 C 0.70144 0.03260 0.65719
 O141 O 0.31228 1.02363 0.65209
 O142 O 0.34727 0.97707 0.68650
 O143 O 0.31333 0.97668 0.65147
 O144 O 0.34616 1.02414 0.68679
 O145 O 0.31602 1.02270 0.71515
 O146 O 0.28213 0.97608 0.67877
 O147 O 0.31653 0.97564 0.71424
 O148 O 0.28142 1.02280 0.67975
 Cu149 Cu 0.33285 1.00043 0.66647
 Cu150 Cu 0.29595 0.99920 0.69984
 C151 C 0.29087 1.03106 0.65992
 C152 C 0.33798 0.96845 0.70620
 C153 C 0.29199 0.96857 0.65885
 C154 C 0.33681 1.03142 0.70700
 O155 O 0.68675 1.02284 0.35057
 O156 O 0.65136 0.97977 0.31222
 O157 O 0.68481 0.97575 0.34793
 O158 O 0.65333 1.02593 0.31543
 O159 O 0.68356 1.02551 0.28713
 O160 O 0.71704 0.97736 0.32183
 O161 O 0.68331 0.97842 0.28577
 O162 O 0.71753 1.02437 0.32291
 Cu163 Cu 0.66606 1.00091 0.33437
 Cu164 Cu 0.70355 1.00143 0.30167
 C165 C 0.70799 1.03124 0.34323
 C166 C 0.66108 0.97193 0.29241
 C167 C 0.70648 0.96831 0.34075
 C168 C 0.66268 1.03388 0.29546
 C169 C 0.86538 0.76279 0.51547
 C170 C 0.86580 0.76228 0.49025
 C171 C 0.85737 0.78469 0.48221
 N172 N 0.85132 0.79868 0.50174
 C173 C 0.85612 0.78532 0.52216
 C174 C 0.85767 0.79271 0.45742
 C175 C 0.84416 0.81350 0.44949
 C176 C 0.84732 0.82503 0.42699
 C177 C 0.82925 0.84304 0.42574
 C178 C 0.81587 0.84241 0.44774
 N179 N 0.82498 0.82425 0.46201
 C180 C 0.79455 0.85701 0.45355
 C181 C 0.78569 0.85971 0.47799
 C182 C 0.76331 0.87129 0.48476
 C183 C 0.76326 0.87218 0.50998
 C184 C 0.78588 0.86161 0.51791
 N185 N 0.79949 0.85389 0.49832
 C186 C 0.79472 0.86114 0.54262
 C187 C 0.81517 0.84618 0.55040
 C188 C 0.82807 0.84815 0.57270
 C189 C 0.84484 0.82908 0.57401
 C190 C 0.84222 0.81622 0.55221
 N191 N 0.82397 0.82671 0.53801
 C192 C 0.85488 0.79435 0.54653
 H193 H 0.87165 0.74817 0.52723
 H194 H 0.87192 0.74712 0.47919
 H195 H 0.81593 0.81942 0.52209
 H196 H 0.86107 0.82095 0.41278
 H197 H 0.82638 0.85502 0.41023
 H198 H 0.74857 0.87873 0.47298
 H199 H 0.74829 0.87996 0.52112
 H200 H 0.85730 0.82524 0.58946
 H201 H 0.81669 0.81785 0.47815
 H202 H 0.82565 0.86176 0.58678
 C203 C 0.14118 0.23882 0.51162
 C204 C 0.14163 0.23873 0.48636
 C205 C 0.14567 0.21499 0.47927
 N206 N 0.14786 0.20061 0.49930
 C207 C 0.14486 0.21512 0.51910
 C208 C 0.14430 0.20635 0.45484
 C209 C 0.15613 0.18442 0.44789
 C210 C 0.15262 0.17247 0.42567
 C211 C 0.16926 0.15322 0.42565
 C212 C 0.18201 0.15349 0.44813
 N213 N 0.17401 0.17265 0.46146
 C214 C 0.20169 0.13740 0.45531
 C215 C 0.20893 0.13384 0.48027
 C216 C 0.22829 0.11855 0.48819
 C217 C 0.22762 0.11847 0.51342
 C218 C 0.20787 0.13370 0.52027
 N219 N 0.19626 0.14284 0.49994
 C220 C 0.19935 0.13706 0.54479
 C221 C 0.17935 0.15303 0.55109
 C222 C 0.16563 0.15248 0.57291
 C223 C 0.14929 0.17194 0.57243
 C224 C 0.15393 0.18428 0.55064
 N225 N 0.17217 0.17250 0.53771
 C226 C 0.14281 0.20657 0.54355
 H227 H 0.13834 0.25454 0.52312
 H228 H 0.13909 0.25431 0.47454
 H229 H 0.18134 0.17891 0.52202
 H230 H 0.13960 0.17699 0.41085
 H231 H 0.17143 0.14054 0.41068
 H232 H 0.24105 0.10776 0.47711
 H233 H 0.23978 0.10761 0.52518
 H234 H 0.13567 0.17629 0.58666
 H235 H 0.18229 0.17888 0.47774
 H236 H 0.16702 0.13948 0.58773
 C237 C 0.14251 0.76079 0.48447
 C238 C 0.14272 0.76055 0.50973
 C239 C 0.14657 0.78421 0.51720
 N240 N 0.14889 0.79886 0.49741
 C241 C 0.14616 0.78460 0.47737
 C242 C 0.14505 0.79253 0.54172
 C243 C 0.15648 0.81461 0.54898
 C244 C 0.15249 0.82646 0.57114
 C245 C 0.16885 0.84592 0.57158
 C246 C 0.18193 0.84588 0.54940
 N247 N 0.17437 0.82665 0.53584
 C248 C 0.20158 0.86217 0.54277
 C249 C 0.20933 0.86582 0.51804
 C250 C 0.22878 0.88123 0.51073
 C251 C 0.22867 0.88135 0.48549
 C252 C 0.20913 0.86604 0.47802
 N253 N 0.19713 0.85681 0.49799
 C254 C 0.20113 0.86272 0.45326
 C255 C 0.18119 0.84681 0.44640
 C256 C 0.16777 0.84749 0.42429
 C257 C 0.15127 0.82812 0.42436
 C258 C 0.15553 0.81569 0.44620
 N259 N 0.17370 0.82732 0.45955
 C260 C 0.14415 0.79345 0.45301
 H261 H 0.13981 0.74521 0.47270
 H262 H 0.14015 0.74479 0.52129
 H263 H 0.18259 0.82083 0.47543
 H264 H 0.13931 0.82174 0.58565
 H265 H 0.17065 0.85858 0.58664
 H266 H 0.24126 0.89205 0.52220
 H267 H 0.24103 0.89231 0.47411
 H268 H 0.13781 0.82389 0.40982
 H269 H 0.18299 0.82057 0.51975
 H270 H 0.16943 0.86053 0.40954
 C271 C 0.78942 0.10656 0.48890
 C272 C 0.78882 0.10689 0.51414
 C273 C 0.79766 0.12942 0.52134
 N274 N 0.80366 0.14287 0.50135
 C275 C 0.79854 0.12893 0.48147
 C276 C 0.79835 0.13784 0.54590
 C277 C 0.81213 0.15867 0.55303
 C278 C 0.80946 0.17061 0.57533
 C279 C 0.82709 0.18908 0.57547
 C280 C 0.83999 0.18792 0.55324
 N281 N 0.83083 0.16930 0.53972
 C282 C 0.86048 0.20307 0.54636
 C283 C 0.86918 0.20498 0.52182
 C284 C 0.89190 0.21584 0.51480
 C285 C 0.89219 0.21575 0.48955
 C286 C 0.86963 0.20485 0.48194
 N287 N 0.85561 0.19819 0.50170
 C288 C 0.86147 0.20277 0.45716
 C289 C 0.84129 0.18730 0.44990
 C290 C 0.82880 0.18809 0.42731
 C291 C 0.81145 0.16939 0.42718
 C292 C 0.81380 0.15771 0.44971
 N293 N 0.83207 0.16870 0.46341
 C294 C 0.80010 0.13682 0.45674
 H295 H 0.78375 0.09153 0.47736
 H296 H 0.78259 0.09219 0.52584
 H297 H 0.83961 0.16235 0.47998
 H298 H 0.79618 0.16650 0.58999
 H299 H 0.82998 0.20193 0.59025
 H300 H 0.90676 0.22307 0.52661
 H301 H 0.90733 0.22288 0.47813
 H302 H 0.79850 0.16501 0.41222
 H303 H 0.83868 0.16272 0.52347
 H304 H 0.83176 0.20086 0.41247
 C305 C 0.51140 0.89378 0.78952
 C306 C 0.48523 0.89388 0.79019
 C307 C 0.47783 0.87191 0.80020
 N308 N 0.49862 0.85843 0.80577
 C309 C 0.51917 0.87176 0.79915
 C310 C 0.45228 0.86388 0.80218
 C311 C 0.44512 0.84387 0.81679
 C312 C 0.42172 0.83212 0.81554
 C313 C 0.42210 0.81439 0.83336
 C314 C 0.44572 0.81580 0.84498
 N315 N 0.45956 0.83389 0.83486
 C316 C 0.45367 0.80122 0.86499
 C317 C 0.47948 0.79955 0.87260
 C318 C 0.48772 0.78937 0.89459
 C319 C 0.51389 0.78927 0.89394
 C320 C 0.52082 0.79940 0.87156
 N321 N 0.49975 0.80577 0.85856
 C322 C 0.54612 0.80088 0.86270
 C323 C 0.55302 0.81530 0.84230
 C324 C 0.57593 0.81366 0.82966
 C325 C 0.57554 0.83143 0.81189
 C326 C 0.55241 0.84342 0.81420
 N327 N 0.53886 0.83354 0.83284
 C328 C 0.54473 0.86358 0.80002
 H329 H 0.52332 0.90828 0.78268
 H330 H 0.47305 0.90848 0.78396
 H331 H 0.52207 0.84039 0.84028
 H332 H 0.40603 0.83582 0.80302
 H333 H 0.40677 0.80181 0.83717
 H334 H 0.47611 0.78265 0.90957
 H335 H 0.52638 0.78244 0.90830
 H336 H 0.59056 0.83501 0.79873
 H337 H 0.47688 0.84057 0.84147
 H338 H 0.59131 0.80094 0.83281
 C339 C 0.48933 0.10554 0.20887
 C340 C 0.51552 0.10582 0.20876
 C341 C 0.52275 0.12782 0.19875
 N342 N 0.50186 0.14098 0.19268
 C343 C 0.48139 0.12740 0.19897
 C344 C 0.54822 0.13617 0.19712
 C345 C 0.55525 0.15621 0.18248
 C346 C 0.57840 0.16834 0.18402
 C347 C 0.57798 0.18596 0.16609
 C348 C 0.55459 0.18409 0.15411
 N349 N 0.54091 0.16584 0.16413
 C350 C 0.54674 0.19835 0.13383
 C351 C 0.52103 0.19963 0.12580
 C352 C 0.51301 0.20957 0.10361
 C353 C 0.48683 0.20947 0.10392
 C354 C 0.47968 0.19943 0.12626
 N355 N 0.50062 0.19333 0.13960
 C356 C 0.45427 0.19784 0.13481
 C357 C 0.44726 0.18330 0.15510
 C358 C 0.42419 0.18471 0.16748
 C359 C 0.42460 0.16699 0.18531
 C360 C 0.44792 0.15526 0.18330
 N361 N 0.46154 0.16524 0.16477
 C362 C 0.45571 0.13524 0.19765
 H363 H 0.47752 0.09089 0.21554
 H364 H 0.52781 0.09145 0.21533
 H365 H 0.47854 0.15856 0.15759
 H366 H 0.59395 0.16498 0.19679
 H367 H 0.59315 0.19876 0.16243
 H368 H 0.52477 0.21628 0.08874
 H369 H 0.47447 0.21612 0.08936
 H370 H 0.40949 0.16330 0.19834
 H371 H 0.52384 0.15886 0.15728
 H372 H 0.40869 0.19726 0.16415
 C373 C 0.48204 0.12708 0.76778
 C374 C 0.50819 0.12618 0.76753
 C375 C 0.51658 0.13629 0.78950
 N376 N 0.49636 0.14371 0.80295
 C377 C 0.47518 0.13819 0.78967
 C378 C 0.54229 0.13662 0.79779
 C379 C 0.55059 0.15135 0.81758
 C380 C 0.57396 0.14939 0.82961
 C381 C 0.57537 0.16820 0.84610
 C382 C 0.55259 0.18087 0.84413
 N383 N 0.53769 0.17056 0.82659
 C384 C 0.54665 0.20242 0.85685
 C385 C 0.52133 0.21117 0.85872
 C386 C 0.51439 0.23337 0.86843
 C387 C 0.48824 0.23363 0.86935
 C388 C 0.47995 0.21141 0.86068
 N389 N 0.50021 0.19776 0.85407
 C390 C 0.45432 0.20319 0.86112
 C391 C 0.44599 0.18281 0.84752
 C392 C 0.42268 0.17120 0.85038
 C393 C 0.42126 0.15370 0.83243
 C394 C 0.44398 0.15472 0.81941
 N395 N 0.45884 0.17261 0.82863
 C396 C 0.44989 0.14074 0.79840
 H397 H 0.46974 0.11992 0.75350
 H398 H 0.51963 0.11871 0.75284
 H399 H 0.47549 0.17925 0.82068
 H400 H 0.58866 0.13597 0.82678
 H401 H 0.59151 0.17202 0.85799
 H402 H 0.52662 0.24787 0.87469
 H403 H 0.47673 0.24849 0.87594
 H404 H 0.40519 0.14178 0.82940
 H405 H 0.52098 0.17785 0.81924
 H406 H 0.40803 0.17493 0.86384
 C407 C 0.48952 0.76406 0.13893
 C408 C 0.51568 0.76506 0.13810
 C409 C 0.52244 0.78879 0.14304
 N410 N 0.50134 0.80225 0.14711
 C411 C 0.48118 0.78721 0.14435
 C412 C 0.54729 0.79850 0.14087
 C413 C 0.55399 0.82035 0.15274
 C414 C 0.57529 0.83440 0.14768
 C415 C 0.57506 0.85333 0.16417
 C416 C 0.55357 0.85035 0.17875
 N417 N 0.54089 0.83024 0.17167
 C418 C 0.54661 0.86527 0.19876
 C419 C 0.52154 0.86532 0.20855
 C420 C 0.51453 0.87577 0.23072
 C421 C 0.48840 0.87474 0.23184
 C422 C 0.48019 0.86316 0.21057
 N423 N 0.50051 0.85747 0.19634
 C424 C 0.45437 0.86035 0.20317
 C425 C 0.44723 0.84550 0.18311
 C426 C 0.42388 0.84599 0.17089
 C427 C 0.42430 0.82761 0.15380
 C428 C 0.44765 0.81601 0.15645
 N429 N 0.46146 0.82709 0.17430
 C430 C 0.45546 0.79493 0.14383
 H431 H 0.47795 0.74816 0.13565
 H432 H 0.52827 0.75009 0.13407
 H433 H 0.47853 0.82081 0.18192
 H434 H 0.58941 0.83160 0.13348
 H435 H 0.58899 0.86776 0.16507
 H436 H 0.52685 0.88361 0.24464
 H437 H 0.47700 0.88210 0.24657
 H438 H 0.40899 0.82340 0.14106
 H439 H 0.52545 0.82245 0.18079
 H440 H 0.40805 0.85817 0.17386
 C441 C 0.79175 0.48800 0.89676
 C442 C 0.79172 0.51275 0.89726
 C443 C 0.80150 0.52040 0.87488
 N444 N 0.80764 0.50115 0.86076
 C445 C 0.80160 0.48131 0.87410
 C446 C 0.80289 0.54473 0.86705
 C447 C 0.81718 0.55194 0.84625
 C448 C 0.81472 0.57393 0.83420
 C449 C 0.83269 0.57421 0.81577
 C450 C 0.84563 0.55238 0.81708
 N451 N 0.83609 0.53894 0.83573
 C452 C 0.86642 0.54577 0.80201
 C453 C 0.87530 0.52175 0.80007
 C454 C 0.89823 0.51500 0.78940
 C455 C 0.89861 0.49024 0.78920
 C456 C 0.87588 0.48266 0.79971
 N457 N 0.86167 0.50196 0.80643
 C458 C 0.86769 0.45837 0.80128
 C459 C 0.84675 0.45120 0.81593
 C460 C 0.83407 0.42927 0.81399
 C461 C 0.81573 0.42901 0.83208
 C462 C 0.81774 0.45077 0.84458
 N463 N 0.83671 0.46417 0.83465
 C464 C 0.80311 0.45733 0.86535
 H465 H 0.78525 0.47628 0.91143
 H466 H 0.78521 0.52381 0.91242
 H467 H 0.84409 0.48015 0.84185
 H468 H 0.80130 0.58827 0.83814
 H469 H 0.83577 0.58881 0.80284
 H470 H 0.91315 0.52668 0.78244
 H471 H 0.91389 0.47913 0.78208
 H472 H 0.80240 0.41445 0.83553
 H473 H 0.84378 0.52288 0.84246
 H474 H 0.83753 0.41497 0.80084
 C475 C 0.10662 0.51300 0.21528
 C476 C 0.10614 0.48825 0.21536
 C477 C 0.12880 0.48069 0.20473
 N478 N 0.14308 0.50000 0.19809
 C479 C 0.12956 0.51977 0.20460
 C480 C 0.13677 0.45639 0.20285
 C481 C 0.15736 0.44921 0.18779
 C482 C 0.16968 0.42707 0.18913
 C483 C 0.18765 0.42688 0.17069
 C484 C 0.18580 0.44891 0.15861
 N485 N 0.16726 0.46238 0.16910
 C486 C 0.20016 0.45568 0.13774
 C487 C 0.20194 0.47980 0.12938
 C488 C 0.21162 0.48676 0.10671
 C489 C 0.21209 0.51151 0.10661
 C490 C 0.20270 0.51888 0.12923
 N491 N 0.19642 0.49946 0.14311
 C492 C 0.20173 0.54309 0.13742
 C493 C 0.18760 0.55017 0.15834
 C494 C 0.19013 0.57211 0.17043
 C495 C 0.17221 0.57231 0.18892
 C496 C 0.15926 0.55047 0.18761
 N497 N 0.16871 0.53713 0.16889
 C498 C 0.13848 0.54380 0.20269
 H499 H 0.09174 0.52465 0.22230
 H500 H 0.09080 0.47713 0.22242
 H501 H 0.16092 0.52114 0.16214
 H502 H 0.16619 0.41257 0.20208
 H503 H 0.20062 0.41219 0.16671
 H504 H 0.21772 0.47522 0.09176
 H505 H 0.21858 0.52275 0.09156
 H506 H 0.16914 0.58686 0.20187
 H507 H 0.16002 0.47858 0.16228
 H508 H 0.20353 0.58648 0.16645
 C509 C 0.76540 0.48804 0.11993
 C510 C 0.76570 0.51277 0.12032
 C511 C 0.78535 0.51956 0.13610
 N512 N 0.79722 0.49968 0.14514
 C513 C 0.78484 0.48032 0.13553
 C514 C 0.79359 0.54366 0.13990
 C515 C 0.81366 0.54991 0.15624
 C516 C 0.82713 0.57152 0.15595
 C517 C 0.84379 0.57095 0.17562
 C518 C 0.83960 0.54931 0.18786
 N519 N 0.82128 0.53658 0.17582
 C520 C 0.85130 0.54215 0.21029
 C521 C 0.84969 0.51808 0.21877
 C522 C 0.85432 0.51056 0.24275
 C523 C 0.85396 0.48580 0.24241
 C524 C 0.84911 0.47905 0.21824
 N525 N 0.84628 0.49880 0.20385
 C526 C 0.85030 0.45520 0.20913
 C527 C 0.83833 0.44860 0.18667
 C528 C 0.84202 0.42708 0.17413
 C529 C 0.82531 0.42711 0.15450
 C530 C 0.81230 0.44895 0.15509
 N531 N 0.82025 0.46183 0.17487
 C532 C 0.79246 0.45593 0.13872
 H533 H 0.75283 0.47720 0.10858
 H534 H 0.75340 0.52428 0.10937
 H535 H 0.81184 0.47756 0.18147
 H536 H 0.82540 0.58626 0.14299
 H537 H 0.85733 0.58503 0.18018
 H538 H 0.85777 0.52172 0.25879
 H539 H 0.85714 0.47410 0.25813
 H540 H 0.82330 0.41257 0.14138
 H541 H 0.81243 0.52092 0.18215
 H542 H 0.85525 0.41269 0.17849
 C543 C 0.11244 0.48725 0.77998
 C544 C 0.11181 0.51199 0.78003
 C545 C 0.13449 0.51965 0.79079
 N546 N 0.14892 0.50041 0.79740
 C547 C 0.13548 0.48058 0.79073
 C548 C 0.14229 0.54400 0.79294
 C549 C 0.16272 0.55119 0.80840
 C550 C 0.17496 0.57341 0.80745
 C551 C 0.19260 0.57364 0.82635
 C552 C 0.19065 0.55155 0.83830
 N553 N 0.17239 0.53800 0.82727
 C554 C 0.20461 0.54483 0.85957
 C555 C 0.20637 0.52069 0.86791
 C556 C 0.21559 0.51372 0.89084
 C557 C 0.21611 0.48897 0.89091
 C558 C 0.20722 0.48161 0.86800
 N559 N 0.20120 0.50104 0.85398
 C560 C 0.20638 0.45741 0.85977
 C561 C 0.19284 0.45038 0.83834
 C562 C 0.19571 0.42849 0.82626
 C563 C 0.17822 0.42829 0.80723
 C564 C 0.16516 0.45006 0.80822
 N565 N 0.17418 0.46340 0.82723
 C566 C 0.14450 0.45660 0.79274
 H567 H 0.09754 0.47554 0.77293
 H568 H 0.09632 0.52303 0.77304
 H569 H 0.16615 0.47930 0.83385
 H570 H 0.17160 0.58794 0.79449
 H571 H 0.20540 0.58840 0.83074
 H572 H 0.22134 0.52525 0.90598
 H573 H 0.22229 0.47772 0.90613
 H574 H 0.17545 0.41374 0.79417
 H575 H 0.16509 0.52176 0.83387
 H576 H 0.20902 0.41415 0.83064
 C577 C 0.25623 0.38789 0.08196
 N578 N 0.24521 0.36764 0.07258
 N579 N 0.25800 0.35356 0.05698
 C580 C 0.28220 0.35932 0.05018
 N581 N 0.29323 0.37945 0.05971
 N582 N 0.28050 0.39346 0.07532
 C583 C 0.24192 0.40442 0.09787
 N584 N 0.25325 0.42485 0.10635
 N585 N 0.24007 0.44082 0.11945
 C586 C 0.21502 0.43700 0.12454
 N587 N 0.20372 0.41639 0.11636
 N588 N 0.21694 0.40038 0.10323
 C589 C 0.74241 0.61417 0.08256
 N590 N 0.71666 0.61255 0.07989
 N591 N 0.70427 0.62701 0.06426
 C592 C 0.71715 0.64381 0.05097
 N593 N 0.74286 0.64570 0.05391
 N594 N 0.75529 0.63105 0.06935
 C595 C 0.75609 0.59701 0.09844
 N596 N 0.78158 0.59333 0.09570
 N597 N 0.79364 0.57659 0.10905
 C598 C 0.78069 0.56312 0.12580
 N599 N 0.75527 0.56700 0.12869
 N600 N 0.74316 0.58355 0.11517
 C601 C 0.74498 0.38830 0.91795
 N602 N 0.72071 0.39384 0.92458
 N603 N 0.70759 0.37927 0.93940
 C604 C 0.71821 0.35857 0.94809
 N605 N 0.74240 0.35285 0.94126
 N606 N 0.75557 0.36747 0.92645
 C607 C 0.75982 0.40536 0.90300
 N608 N 0.78477 0.40110 0.89773
 N609 N 0.79848 0.41741 0.88540
 C610 C 0.78773 0.43855 0.87797
 N611 N 0.76272 0.44263 0.88302
 N612 N 0.74904 0.42636 0.89533
 C613 C 0.25891 0.61271 0.91749
 N614 N 0.28309 0.60727 0.92469
 N615 N 0.29542 0.62118 0.94080
 C616 C 0.28408 0.64111 0.95031
 N617 N 0.25996 0.64677 0.94294
 N618 N 0.24756 0.63277 0.92682
 C619 C 0.24505 0.59622 0.90100
 N620 N 0.22016 0.60007 0.89495
 N621 N 0.20737 0.58403 0.88130
 C622 C 0.21904 0.56359 0.87329
 N623 N 0.24400 0.55997 0.87907
 N624 N 0.25675 0.57596 0.89267
 C625 C 0.08164 0.26054 0.38961
 N626 N 0.06665 0.27788 0.39963
 N627 N 0.05095 0.29085 0.38556
 C628 C 0.04937 0.28680 0.36097
 N629 N 0.06434 0.26942 0.35083
 N630 N 0.08036 0.25660 0.36491
 C631 C 0.09795 0.24592 0.40580
 N632 N 0.11927 0.23469 0.39738
 N633 N 0.13415 0.22211 0.41278
 C634 C 0.12804 0.22004 0.43705
 N635 N 0.10652 0.23108 0.44519
 N636 N 0.09190 0.24389 0.42995
 C637 C 0.08304 0.73817 0.60698
 N638 N 0.08274 0.74221 0.63168
 N639 N 0.06675 0.72994 0.64615
 C640 C 0.05079 0.71303 0.63643
 N641 N 0.05137 0.70885 0.61182
 N642 N 0.06707 0.72129 0.59736
 C643 C 0.09943 0.75233 0.59054
 N644 N 0.09333 0.75408 0.56631
 N645 N 0.10778 0.76696 0.55108
 C646 C 0.12915 0.77837 0.55933
 N647 N 0.13535 0.77650 0.58363
 N648 N 0.12066 0.76384 0.59901
 C649 C 0.91867 0.73808 0.39190
 N650 N 0.91799 0.74087 0.36703
 N651 N 0.93314 0.72765 0.35265
 C652 C 0.94911 0.71091 0.36267
 N653 N 0.94948 0.70796 0.38748
 N654 N 0.93467 0.72140 0.40184
 C655 C 0.90308 0.75312 0.40814
 N656 N 0.91124 0.75767 0.43143
 N657 N 0.89704 0.77067 0.44673
 C658 C 0.87389 0.77931 0.43955
 N659 N 0.86578 0.77486 0.41613
 N660 N 0.88020 0.76214 0.40064
 C661 C 0.91475 0.26083 0.61478
 N662 N 0.92546 0.25123 0.63545
 N663 N 0.94159 0.26423 0.64918
 C664 C 0.94760 0.28725 0.64268
 N665 N 0.93664 0.29688 0.62220
 N666 N 0.92050 0.28394 0.60854
 C667 C 0.89878 0.24611 0.59830
 N668 N 0.88922 0.25590 0.57725
 N669 N 0.87650 0.24232 0.56111
 C670 C 0.87290 0.21839 0.56536
 N671 N 0.88208 0.20863 0.58662
 N672 N 0.89483 0.22226 0.60279
 C673 C 0.38619 0.08102 0.25512
 N674 N 0.39331 0.07402 0.27812
 N675 N 0.37893 0.05875 0.29100
 C676 C 0.35682 0.04995 0.28139
 N677 N 0.34950 0.05713 0.25847
 N678 N 0.36396 0.07237 0.24553
 C679 C 0.40313 0.09654 0.24051
 N680 N 0.39780 0.10167 0.21654
 N681 N 0.41421 0.11441 0.20299
 C682 C 0.43653 0.12245 0.21294
 N683 N 0.44160 0.11762 0.23700
 N684 N 0.42525 0.10488 0.25051
 C685 C 0.60982 0.07468 0.74669
 N686 N 0.59913 0.05832 0.73118
 N687 N 0.61372 0.04406 0.71746
 C688 C 0.63956 0.04537 0.71899
 N689 N 0.65036 0.06161 0.73466
 N690 N 0.63571 0.07620 0.74813
 C691 C 0.59330 0.09035 0.76138
 N692 N 0.60095 0.11279 0.76832
 N693 N 0.58493 0.12745 0.78014
 C694 C 0.56083 0.12009 0.78571
 N695 N 0.55353 0.09742 0.77922
 N696 N 0.56935 0.08293 0.76710
 C697 C 0.38180 0.91849 0.74577
 N698 N 0.35992 0.92747 0.75556
 N699 N 0.34557 0.94304 0.74280
 C700 C 0.35269 0.95026 0.71989
 N701 N 0.37445 0.94114 0.71010
 N702 N 0.38870 0.92553 0.72278
 C703 C 0.39874 0.90263 0.76013
 N704 N 0.42035 0.89387 0.74973
 N705 N 0.43691 0.88100 0.76298
 C706 C 0.43258 0.87645 0.78719
 N707 N 0.41073 0.88487 0.79755
 N708 N 0.39410 0.89774 0.78424
 C709 C 0.61579 0.92759 0.24783
 N710 N 0.64169 0.92611 0.24658
 N711 N 0.65637 0.94028 0.26067
 C712 C 0.64559 0.95601 0.27678
 N713 N 0.61976 0.95728 0.27808
 N714 N 0.60515 0.94345 0.26378
 C715 C 0.59910 0.91216 0.23280
 N716 N 0.57481 0.91932 0.22803
 N717 N 0.55857 0.90475 0.21638
 C718 C 0.56579 0.88224 0.20941
 N719 N 0.59032 0.87522 0.21373
 N720 N 0.60674 0.88997 0.22514
 C721 C 0.38778 0.25650 0.92250
 N722 N 0.36188 0.25492 0.92144
 N723 N 0.34745 0.26836 0.93629
 C724 C 0.35845 0.28412 0.95233
 N725 N 0.38430 0.28584 0.95313
 N726 N 0.39869 0.27218 0.93861
 C727 C 0.40410 0.24148 0.90692
 N728 N 0.42823 0.23628 0.91442
 N729 N 0.44379 0.22361 0.90010
 C730 C 0.43603 0.21596 0.87750
 N731 N 0.41175 0.22100 0.87006
 N732 N 0.39600 0.23342 0.88458
 C733 C 0.61711 0.74352 0.91546
 N734 N 0.63876 0.75304 0.92542
 N735 N 0.65300 0.74012 0.94107
 C736 C 0.64602 0.71729 0.94734
 N737 N 0.62455 0.70775 0.93715
 N738 N 0.61039 0.72060 0.92149
 C739 C 0.60002 0.75813 0.89994
 N740 N 0.57803 0.74836 0.89111
 N741 N 0.56129 0.76185 0.87874
 C742 C 0.56585 0.78567 0.87477
 N743 N 0.58806 0.79542 0.88324
 N744 N 0.60484 0.78188 0.89564
 C745 C 0.38852 0.74080 0.08263
 N746 N 0.36278 0.74406 0.08192
 N747 N 0.34830 0.73120 0.06641
 C748 C 0.35907 0.71444 0.05141
 N749 N 0.38471 0.71105 0.05242
 N750 N 0.39917 0.72408 0.06761
 C751 C 0.40511 0.75547 0.09851
 N752 N 0.42997 0.75844 0.09234
 N753 N 0.44560 0.77125 0.10662
 C754 C 0.43719 0.78132 0.12788
 N755 N 0.41221 0.77835 0.13408
 N756 N 0.39639 0.76578 0.11957
 C757 C 0.61529 0.25614 0.07897
 N758 N 0.63765 0.24731 0.07009
 N759 N 0.65171 0.26037 0.05453
 C760 C 0.64382 0.28266 0.04724
 N761 N 0.62158 0.29149 0.05627
 N762 N 0.60761 0.27850 0.07187
 C763 C 0.59874 0.24142 0.09481
 N764 N 0.57669 0.25088 0.10361
 N765 N 0.56057 0.23731 0.11652
 C766 C 0.56581 0.21371 0.12106
 N767 N 0.58809 0.20429 0.11260
 N768 N 0.60427 0.21792 0.09970
 C769 C 0.25089 0.08024 0.61596
 N770 N 0.23837 0.06683 0.63306
 N771 N 0.25116 0.05159 0.64764
 C772 C 0.27687 0.04907 0.64539
 N773 N 0.28934 0.06252 0.62834
 N774 N 0.27662 0.07793 0.61400
 C775 C 0.23695 0.09605 0.59888
 N776 N 0.24976 0.11284 0.58552
 N777 N 0.23759 0.12625 0.56882
 C778 C 0.21219 0.12320 0.56466
 N779 N 0.19932 0.10646 0.57808
 N780 N 0.21147 0.09320 0.59499
 C781 C 0.74594 0.07951 0.38768
 N782 N 0.75655 0.07210 0.36617
 N783 N 0.74418 0.05663 0.35151
 C784 C 0.72082 0.04794 0.35793
 N785 N 0.71024 0.05549 0.37937
 N786 N 0.72254 0.07098 0.39394
 C787 C 0.75973 0.09566 0.40459
 N788 N 0.74831 0.10321 0.42561
 N789 N 0.76100 0.11671 0.44184
 C790 C 0.78566 0.12313 0.43773
 N791 N 0.79702 0.11588 0.41651
 N792 N 0.78427 0.10238 0.40022
 C793 C 0.74483 0.92398 0.60919
 N794 N 0.74743 0.92244 0.63408
 N795 N 0.73444 0.93730 0.64876
 C796 C 0.71811 0.95387 0.63902
 N797 N 0.71541 0.95522 0.61419
 N798 N 0.72867 0.94067 0.59954
 C799 C 0.75899 0.90798 0.59269
 N800 N 0.76424 0.91526 0.56940
 N801 N 0.77605 0.90056 0.55379
 C802 C 0.78266 0.87781 0.56068
 N803 N 0.77750 0.87056 0.58410
 N804 N 0.76601 0.88543 0.59988
 C805 C 0.25407 0.91997 0.38381
 N806 N 0.27972 0.92253 0.38658
 N807 N 0.29266 0.93800 0.37257
 C808 C 0.28048 0.95127 0.35507
 N809 N 0.25486 0.94849 0.35203
 N810 N 0.24185 0.93320 0.36625
 C811 C 0.23983 0.90405 0.40045
 N812 N 0.21423 0.90672 0.40350
 N813 N 0.20175 0.89335 0.41998
 C814 C 0.21437 0.87666 0.43379
 N815 N 0.23989 0.87380 0.43045
 N816 N 0.25240 0.88733 0.41419
 C817 C 0.08910 0.38849 0.73618
 N818 N 0.07983 0.36794 0.74650
 N819 N 0.06343 0.35399 0.73413
 C820 C 0.05567 0.36016 0.71104
 N821 N 0.06516 0.38057 0.70065
 N822 N 0.08159 0.39446 0.71298
 C823 C 0.10542 0.40499 0.75040
 N824 N 0.11411 0.42569 0.73997
 N825 N 0.12714 0.44173 0.75329
 C826 C 0.13190 0.43774 0.77757
 N827 N 0.12357 0.41683 0.78794
 N828 N 0.11056 0.40074 0.77459
 C829 C 0.08377 0.61108 0.26026
 N830 N 0.07793 0.60523 0.28387
 N831 N 0.06195 0.61886 0.29683
 C832 C 0.05124 0.63888 0.28670
 N833 N 0.05729 0.64493 0.26317
 N834 N 0.07326 0.63124 0.25016
 C835 C 0.09977 0.59482 0.24560
 N836 N 0.10398 0.59907 0.22129
 N837 N 0.11687 0.58318 0.20771
 C838 C 0.12595 0.56248 0.21797
 N839 N 0.12209 0.55847 0.24236
 N840 N 0.10923 0.57433 0.25590
 C841 C 0.91359 0.39016 0.26233
 N842 N 0.91440 0.36603 0.25777
 N843 N 0.93058 0.35185 0.27021
 C844 C 0.94619 0.36131 0.28782
 N845 N 0.94509 0.38534 0.29250
 N846 N 0.92922 0.39951 0.27989
 C847 C 0.89702 0.40640 0.24812
 N848 N 0.90326 0.43010 0.24637
 N849 N 0.88848 0.44531 0.23381
 C850 C 0.86662 0.43758 0.22277
 N851 N 0.86031 0.41379 0.22460
 N852 N 0.87533 0.39843 0.23692
 C853 C 0.91869 0.61393 0.74297
 N854 N 0.92414 0.60798 0.71933
 N855 N 0.93927 0.62195 0.70578
 C856 C 0.94949 0.64246 0.71530
 N857 N 0.94382 0.64865 0.73888
 N858 N 0.92869 0.63460 0.75250
 C859 C 0.90360 0.59729 0.75817
 N860 N 0.89969 0.60160 0.78251
 N861 N 0.88744 0.58548 0.79643
 C862 C 0.87875 0.56447 0.78650
 N863 N 0.88239 0.56037 0.76211
 N864 N 0.89461 0.57645 0.74824
 C865 C 0.74550 0.61256 0.92203
 N866 N 0.72174 0.60643 0.92976
 N867 N 0.70869 0.62097 0.94461
 C868 C 0.71883 0.64228 0.95228
 N869 N 0.74252 0.64858 0.94431
 N870 N 0.75564 0.63396 0.92950
 C871 C 0.76020 0.59570 0.90672
 N872 N 0.78487 0.60037 0.90063
 N873 N 0.79839 0.58436 0.88776
 C874 C 0.78772 0.56310 0.88053
 N875 N 0.76296 0.55863 0.88639
 N876 N 0.74950 0.57458 0.89927
 C877 C 0.26103 0.38965 0.91799
 N878 N 0.28469 0.39544 0.92647
 N879 N 0.29683 0.38106 0.94235
 C880 C 0.28579 0.36029 0.95037
 N881 N 0.26221 0.35433 0.94166
 N882 N 0.25004 0.36877 0.92579
 C883 C 0.24720 0.40639 0.90163
 N884 N 0.25840 0.42733 0.89437
 N885 N 0.24557 0.44326 0.88070
 C886 C 0.22101 0.43892 0.87381
 N887 N 0.20989 0.41782 0.88081
 N888 N 0.22275 0.40185 0.89449
 C889 C 0.25896 0.61041 0.08147
 N890 N 0.28270 0.60431 0.07365
 N891 N 0.29546 0.61862 0.05827
 C892 C 0.28501 0.63964 0.05013
 N893 N 0.26136 0.64589 0.05819
 N894 N 0.24855 0.63152 0.07354
 C895 C 0.24444 0.59377 0.09724
 N896 N 0.21984 0.59855 0.10348
 N897 N 0.20636 0.58268 0.11662
 C898 C 0.21700 0.56146 0.12398
 N899 N 0.24169 0.55688 0.11800
 N900 N 0.25514 0.57270 0.10486
 C901 C 0.74064 0.38763 0.07895
 N902 N 0.71581 0.39181 0.07303
 N903 N 0.70356 0.37752 0.05717
 C904 C 0.71555 0.35828 0.04688
 N905 N 0.74031 0.35387 0.05312
 N906 N 0.75269 0.36840 0.06873
 C907 C 0.75437 0.40429 0.09536
 N908 N 0.78014 0.40676 0.09394
 N909 N 0.79234 0.42297 0.10784
 C910 C 0.77926 0.43708 0.12391
 N911 N 0.75352 0.43435 0.12551
 N912 N 0.74129 0.41840 0.11137
 C913 C 0.91395 0.74124 0.61533
 N914 N 0.92705 0.75152 0.63429
 N915 N 0.94351 0.73852 0.64766
 C916 C 0.94786 0.71491 0.64223
 N917 N 0.93469 0.70470 0.62328
 N918 N 0.91792 0.71756 0.61021
 C919 C 0.89706 0.75568 0.59946
 N920 N 0.87742 0.74503 0.58716
 N921 N 0.86339 0.75758 0.57109
 C922 C 0.86876 0.78114 0.56635
 N923 N 0.88829 0.79182 0.57883
 N924 N 0.90207 0.77938 0.59522
 C925 C 0.91559 0.26086 0.38903
 N926 N 0.92448 0.25183 0.36744
 N927 N 0.94002 0.26491 0.35330
 C928 C 0.94737 0.28746 0.36030
 N929 N 0.93823 0.29653 0.38176
 N930 N 0.92262 0.28351 0.39582
 C931 C 0.89992 0.24605 0.40563
 N932 N 0.89096 0.25562 0.42692
 N933 N 0.87825 0.24197 0.44293
 C934 C 0.87409 0.21817 0.43837
 N935 N 0.88274 0.20864 0.41689
 N936 N 0.89543 0.22234 0.40081
 C937 C 0.08190 0.26159 0.60923
 N938 N 0.07827 0.25513 0.63312
 N939 N 0.06257 0.26783 0.64746
 C940 C 0.05026 0.28764 0.63849
 N941 N 0.05429 0.29423 0.61471
 N942 N 0.06962 0.28134 0.60031
 C943 C 0.09781 0.24706 0.59271
 N944 N 0.09241 0.24658 0.56826
 N945 N 0.10657 0.23355 0.55293
 C946 C 0.12703 0.22078 0.56127
 N947 N 0.13250 0.22139 0.58581
 N948 N 0.11804 0.23412 0.60128
 C949 C 0.08257 0.73836 0.38748
 N950 N 0.07711 0.74509 0.36393
 N951 N 0.06107 0.73198 0.35015
 C952 C 0.05029 0.71151 0.35934
 N953 N 0.05623 0.70466 0.38271
 N954 N 0.07186 0.71793 0.39655
 C955 C 0.09842 0.75335 0.40374
 N956 N 0.09320 0.75395 0.42815
 N957 N 0.10753 0.76697 0.44346
 C958 C 0.12802 0.77958 0.43515
 N959 N 0.13328 0.77893 0.41061
 N960 N 0.11863 0.76620 0.39514
 C961 C 0.61414 0.91715 0.74172
 N962 N 0.60722 0.92351 0.71846
 N963 N 0.62141 0.93888 0.70549
 C964 C 0.64310 0.94842 0.71525
 N965 N 0.65023 0.94184 0.73842
 N966 N 0.63599 0.92648 0.75143
 C967 C 0.59723 0.90173 0.75652
 N968 N 0.60269 0.89673 0.78050
 N969 N 0.58631 0.88415 0.79425
 C970 C 0.56387 0.87618 0.78451
 N971 N 0.55864 0.88090 0.76045
 N972 N 0.57498 0.89345 0.74673
 C973 C 0.38405 0.91870 0.25513
 N974 N 0.36625 0.93253 0.24350
 N975 N 0.35213 0.94822 0.25617
 C976 C 0.35555 0.95085 0.28085
 N977 N 0.37333 0.93700 0.29244
 N978 N 0.38720 0.92112 0.27985
 C979 C 0.40069 0.90233 0.24119
 N980 N 0.41423 0.88489 0.25305
 N981 N 0.43065 0.87106 0.24080
 C982 C 0.43442 0.87433 0.21628
 N983 N 0.42072 0.89166 0.20437
 N984 N 0.40406 0.90533 0.21657
 C985 C 0.61923 0.08352 0.25504
 N986 N 0.61262 0.07732 0.27836
 N987 N 0.62691 0.06200 0.29137
 C988 C 0.64844 0.05235 0.28163
 N989 N 0.65530 0.05877 0.25840
 N990 N 0.64093 0.07408 0.24532
 C991 C 0.60207 0.09884 0.24026
 N992 N 0.60683 0.10344 0.21610
 N993 N 0.59006 0.11582 0.20245
 C994 C 0.56793 0.12398 0.21247
 N995 N 0.56343 0.11968 0.23670
 N996 N 0.58015 0.10733 0.25031
 C997 C 0.37845 0.08266 0.74705
 N998 N 0.38115 0.08076 0.72226
 N999 N 0.36760 0.06462 0.70954
 C1000 C 0.35061 0.04998 0.72106
 N1001 N 0.34759 0.05209 0.74582
 N1002 N 0.36142 0.06804 0.75862
 C1003 C 0.39497 0.09919 0.76107
 N1004 N 0.39972 0.09536 0.78539
 N1005 N 0.41665 0.10900 0.79746
 C1006 C 0.42922 0.12713 0.78573
 N1007 N 0.42399 0.13128 0.76156
 N1008 N 0.40731 0.11747 0.74943
 C1009 C 0.61394 0.74705 0.07758
 N1010 N 0.60320 0.72997 0.06292
 N1011 N 0.61754 0.71660 0.04806
 C1012 C 0.64318 0.71996 0.04705
 N1013 N 0.65405 0.73712 0.06164
 N1014 N 0.63968 0.75034 0.07679
 C1015 C 0.59748 0.76161 0.09362
 N1016 N 0.60675 0.77302 0.11396
 N1017 N 0.59104 0.78501 0.12894
 C1018 C 0.56554 0.78620 0.12398
 N1019 N 0.55655 0.77517 0.10335
 N1020 N 0.57213 0.76300 0.08859
 C1021 C 0.38395 0.25638 0.08231
 N1022 N 0.36226 0.24725 0.07202
 N1023 N 0.34810 0.26068 0.05675
 C1024 C 0.35518 0.28368 0.05120
 N1025 N 0.37669 0.29281 0.06171
 N1026 N 0.39077 0.27944 0.07698
 C1027 C 0.40091 0.24134 0.09761
 N1028 N 0.39589 0.21756 0.10158
 N1029 N 0.41249 0.20377 0.11394
 C1030 C 0.43471 0.21326 0.12270
 N1031 N 0.43947 0.23710 0.11902
 N1032 N 0.42291 0.25085 0.10671
 C1033 C 0.61798 0.25549 0.91373
 N1034 N 0.63532 0.24473 0.92887
 N1035 N 0.64909 0.25784 0.94470
 C1036 C 0.64573 0.28212 0.94620
 N1037 N 0.62844 0.29286 0.93102
 N1038 N 0.61494 0.27981 0.91497
 C1039 C 0.60145 0.24105 0.89750
 N1040 N 0.58902 0.25158 0.87829
 N1041 N 0.57237 0.23902 0.86476
 C1042 C 0.56725 0.21555 0.87015
 N1043 N 0.57989 0.20496 0.88923
 N1044 N 0.59680 0.21743 0.90257
 C1045 C 0.38527 0.74332 0.92008
 N1046 N 0.36357 0.75243 0.93011
 N1047 N 0.34963 0.73915 0.94559
 C1048 C 0.35695 0.71634 0.95162
 N1049 N 0.37852 0.70724 0.94143
 N1050 N 0.39238 0.72045 0.92594
 C1051 C 0.40178 0.75817 0.90426
 N1052 N 0.42346 0.74856 0.89479
 N1053 N 0.43953 0.76215 0.88183
 C1054 C 0.43460 0.78592 0.87787
 N1055 N 0.41269 0.79550 0.88702
 N1056 N 0.39657 0.78186 0.90000
 C1057 C 0.74441 0.91651 0.38350
 N1058 N 0.71866 0.91914 0.38497
 N1059 N 0.70654 0.93540 0.37107
 C1060 C 0.71968 0.94943 0.35496
 N1061 N 0.74539 0.94658 0.35322
 N1062 N 0.75756 0.93051 0.36735
 C1063 C 0.75788 0.89984 0.40018
 N1064 N 0.78320 0.90270 0.40495
 N1065 N 0.79497 0.88876 0.42151
 C1066 C 0.78195 0.87124 0.43372
 N1067 N 0.75673 0.86811 0.42860
 N1068 N 0.74488 0.88223 0.41225
 C1069 C 0.25304 0.91968 0.61359
 N1070 N 0.27865 0.92286 0.61139
 N1071 N 0.29109 0.93819 0.62607
 C1072 C 0.27842 0.95069 0.64371
 N1073 N 0.25284 0.94730 0.64615
 N1074 N 0.24034 0.93215 0.63126
 C1075 C 0.23930 0.90382 0.59635
 N1076 N 0.21364 0.90589 0.59309
 N1077 N 0.20151 0.89247 0.57632
 C1078 C 0.21457 0.87630 0.56240
 N1079 N 0.24017 0.87405 0.56591
 N1080 N 0.25232 0.88764 0.58247
 C1081 C 0.25513 0.08030 0.38599
 N1082 N 0.24289 0.06777 0.36794
 N1083 N 0.25580 0.05276 0.35337
 C1084 C 0.28135 0.04957 0.35650
 N1085 N 0.29356 0.06213 0.37452
 N1086 N 0.28072 0.07733 0.38889
 C1087 C 0.24091 0.09603 0.40286
 N1088 N 0.25351 0.11226 0.41719
 N1089 N 0.24089 0.12575 0.43338
 C1090 C 0.21522 0.12337 0.43607
 N1091 N 0.20260 0.10715 0.42171
 N1092 N 0.21519 0.09382 0.40530
 C1093 C 0.74101 0.08270 0.61407
 N1094 N 0.71683 0.07595 0.60810
 N1095 N 0.70405 0.06046 0.62222
 C1096 C 0.71494 0.05115 0.64290
 N1097 N 0.73905 0.05810 0.64907
 N1098 N 0.75186 0.07360 0.63490
 C1099 C 0.75557 0.09838 0.59736
 N1100 N 0.78029 0.10426 0.60223
 N1101 N 0.79381 0.11722 0.58615
 C1102 C 0.78309 0.12470 0.56460
 N1103 N 0.75828 0.11905 0.55991
 N1104 N 0.74479 0.10614 0.57597
 C1105 C 0.91457 0.60658 0.26452
 N1106 N 0.93032 0.59739 0.28211
 N1107 N 0.94630 0.61168 0.29446
 C1108 C 0.94741 0.63568 0.28949
 N1109 N 0.93168 0.64496 0.27187
 N1110 N 0.91540 0.63067 0.25970
 C1111 C 0.89784 0.59030 0.25046
 N1112 N 0.87649 0.59850 0.23882
 N1113 N 0.86150 0.58331 0.22626
 C1114 C 0.86749 0.55946 0.22456
 N1115 N 0.88897 0.55147 0.23612
 N1116 N 0.90372 0.56651 0.24894
 C1117 C 0.92189 0.39082 0.74304
 N1118 N 0.92801 0.39679 0.71953
 N1119 N 0.94293 0.38247 0.70615
 C1120 C 0.95225 0.36158 0.71572
 N1121 N 0.94596 0.35544 0.73918
 N1122 N 0.93105 0.36982 0.75261
 C1123 C 0.90666 0.40755 0.75802
 N1124 N 0.90185 0.40292 0.78216
 N1125 N 0.88916 0.41886 0.79586
 C1126 C 0.88086 0.44003 0.78594
 N1127 N 0.88543 0.44447 0.76175
 N1128 N 0.89811 0.42857 0.74808
 C1129 C 0.08536 0.61142 0.73644
 N1130 N 0.07775 0.60544 0.71327
 N1131 N 0.06170 0.61960 0.70076
 C1132 C 0.05274 0.64031 0.71090
 N1133 N 0.06057 0.64645 0.73397
 N1134 N 0.07657 0.63224 0.74653
 C1135 C 0.10163 0.59486 0.75075
 N1136 N 0.10699 0.59924 0.77486
 N1137 N 0.12034 0.58334 0.78817
 C1138 C 0.12883 0.56250 0.77786
 N1139 N 0.12378 0.55835 0.75365
 N1140 N 0.11039 0.57419 0.74037
 C1141 C 0.08116 0.38917 0.26037
 N1142 N 0.07501 0.39493 0.28391
 N1143 N 0.05940 0.38088 0.29691
 C1144 C 0.04938 0.36050 0.28688
 N1145 N 0.05572 0.35456 0.26341
 N1146 N 0.07132 0.36866 0.25037
 C1147 C 0.09700 0.40568 0.24568
 N1148 N 0.10161 0.40129 0.22147
 N1149 N 0.11466 0.41715 0.20792
 C1150 C 0.12353 0.43797 0.21809
 N1151 N 0.11919 0.44215 0.24237
 N1152 N 0.10615 0.42634 0.25588
   
