data_POSCAR
  _audit_creation_date              2014-09-24
  _audit_creation_method            'ToBaCCo'
  _symmetry_space_group_name_H-M    'P1'
  _symmetry_Int_Tables_number       1
  _symmetry_cell_setting            triclinic
  loop_
  _symmetry_equiv_pos_as_xyz
 x,y,z
_cell_length_a 37.5284
_cell_length_b 32.6201
_cell_length_c 30.0206
_cell_angle_alpha 90.422400
_cell_angle_beta 90.114900
_cell_angle_gamma 90.640200
loop_
  _atom_site_label
  _atom_site_type_symbol
  _atom_site_fract_x
  _atom_site_fract_y
  _atom_site_fract_z
C1 C 1.18765 0.24977 0.31513
 H2 H 1.18958 0.21671 0.31450
 C3 C 1.16161 0.26857 0.34129
 H4 H 1.14348 0.24986 0.36070
 C5 C 1.20789 0.31432 0.28907
 H6 H 1.22567 0.33204 0.26828
 C7 C 1.18279 0.33440 0.31552
 H8 H 1.18161 0.36755 0.31515
 N9 N 1.20956 0.27268 0.28885
 C10 C 1.23273 0.19497 0.17313
 H11 H 1.26120 0.19935 0.16951
 C12 C 1.21464 0.16676 0.14574
 H13 H 1.22909 0.14931 0.12097
 C14 C 1.17921 0.21105 0.21087
 H15 H 1.16525 0.22834 0.23592
 C16 C 1.16016 0.18347 0.18425
 H17 H 1.13178 0.17936 0.18940
 Zn18 Zn 1.24155 0.24521 0.24972
 N19 N 1.21517 0.21468 0.20656
 C20 C 1.27613 0.16999 0.26811
 N21 N 1.27040 0.20867 0.28351
 C22 C 1.28533 0.22181 0.32248
 C23 C 1.30841 0.19642 0.34621
 C24 C 1.29981 0.14424 0.28980
 C25 C 1.25579 0.30555 0.18532
 C26 C 1.27671 0.33218 0.15972
 C27 C 1.32791 0.31333 0.20357
 C28 C 1.30614 0.28675 0.22800
 N29 N 1.27072 0.28347 0.21868
 H30 H 1.26278 0.15881 0.23863
 H31 H 1.27987 0.25237 0.33471
 H32 H 1.32084 0.20842 0.37624
 H33 H 1.30340 0.11354 0.27666
 H34 H 1.22768 0.30188 0.17809
 H35 H 1.26465 0.34898 0.13271
 H36 H 1.35607 0.31561 0.21130
 H37 H 1.31764 0.26851 0.25414
 C38 C 1.17822 0.15977 0.15269
 C39 C 1.15918 0.31147 0.34197
 C40 C 1.31321 0.33653 0.16905
 C41 C 1.31779 0.15771 0.32855
 C42 C 0.69975 -0.23416 0.32605
 H43 H 0.69798 -0.26685 0.33154
 C44 C 0.67918 -0.20748 0.35167
 H45 H 0.66105 -0.21962 0.37643
 C46 C 0.72619 -0.17800 0.28834
 H47 H 0.74552 -0.16617 0.26516
 C48 C 0.70603 -0.15036 0.31292
 H49 H 0.70921 -0.11773 0.30749
 N50 N 0.72196 -0.21917 0.29413
 C51 C 0.73693 -0.31653 0.19413
 H52 H 0.76476 -0.31115 0.18680
 C53 C 0.71754 -0.34514 0.16873
 H54 H 0.73071 -0.36232 0.14264
 C55 C 0.68534 -0.29922 0.23517
 H56 H 0.67251 -0.28070 0.26018
 C57 C 0.66497 -0.32748 0.21056
 H58 H 0.63672 -0.33068 0.21716
 Zn59 Zn 0.74962 -0.25599 0.25922
 N60 N 0.72087 -0.29479 0.22725
 C61 C 0.80179 -0.31436 0.28199
 N62 N 0.78257 -0.28208 0.29730
 C63 C 0.78934 -0.26492 0.33802
 C64 C 0.81671 -0.27985 0.36475
 C65 C 0.82963 -0.32985 0.30737
 C66 C 0.75725 -0.20055 0.18919
 C67 C 0.77569 -0.17292 0.16231
 C68 C 0.83096 -0.20196 0.18800
 C69 C 0.81158 -0.22725 0.21632
 N70 N 0.77542 -0.22562 0.21695
 H71 H 0.79642 -0.32729 0.24949
 H72 H 0.77427 -0.23882 0.34932
 H73 H 0.82209 -0.26599 0.39700
 H74 H 0.84509 -0.35525 0.29474
 H75 H 0.72845 -0.20005 0.19035
 H76 H 0.76097 -0.15065 0.14330
 H77 H 0.85978 -0.20339 0.18810
 H78 H 0.82561 -0.24741 0.23843
 C79 C 0.68124 -0.35126 0.17737
 C80 C 0.68212 -0.16514 0.34467
 C81 C 0.81306 -0.17372 0.16125
 C82 C 0.83745 -0.31212 0.34887
 C83 C 0.72822 0.28917 -0.17229
 H84 H 0.74138 0.26372 -0.15681
 C85 C 0.70629 0.31390 -0.14652
 H86 H 0.70288 0.30737 -0.11144
 C87 C 0.71507 0.32772 -0.23681
 H88 H 0.71847 0.33256 -0.27215
 C89 C 0.69209 0.35276 -0.21230
 H90 H 0.67747 0.37671 -0.22886
 N91 N 0.73153 0.29569 -0.21682
 C92 C 0.74188 0.19574 -0.31371
 H93 H 0.76972 0.18856 -0.30921
 C94 C 0.72022 0.16983 -0.33945
 H95 H 0.73153 0.14250 -0.35415
 C96 C 0.69275 0.23787 -0.29639
 H97 H 0.68177 0.26353 -0.27836
 C98 C 0.67049 0.21388 -0.32367
 H99 H 0.64270 0.22190 -0.32703
 Zn100 Zn 0.75788 0.25730 -0.25079
 N101 N 0.72776 0.22836 -0.29172
 C102 C 0.76700 0.17858 -0.21193
 N103 N 0.77828 0.21848 -0.21131
 C104 C 0.80455 0.23125 -0.18292
 C105 C 0.82212 0.20333 -0.15620
 C106 C 0.78418 0.14945 -0.18603
 C107 C 0.80025 0.27836 -0.32614
 C108 C 0.83032 0.29455 -0.34741
 C109 C 0.84960 0.32326 -0.27716
 C110 C 0.81836 0.30831 -0.25794
 N111 N 0.79536 0.28442 -0.28178
 H112 H 0.74480 0.16905 -0.23252
 H113 H 0.81200 0.26307 -0.18058
 H114 H 0.84350 0.21369 -0.13443
 H115 H 0.77585 0.11758 -0.18766
 H116 H 0.78081 0.26108 -0.34531
 H117 H 0.83157 0.29137 -0.38325
 H118 H 0.86820 0.33868 -0.25503
 H119 H 0.81284 0.31543 -0.22353
 C120 C 0.68408 0.17908 -0.34535
 C121 C 0.68666 0.34481 -0.16696
 C122 C 0.85696 0.31607 -0.32284
 C123 C 0.81235 0.16199 -0.15853
 C124 C 1.19568 -0.23176 -0.18375
 H125 H 1.19052 -0.26393 -0.19041
 C126 C 1.17128 -0.20894 -0.15935
 H127 H 1.14724 -0.22348 -0.14685
 C128 C 1.23227 -0.17278 -0.19431
 H129 H 1.25585 -0.15881 -0.20846
 C130 C 1.20847 -0.14877 -0.17031
 H131 H 1.21341 -0.11616 -0.16648
 N132 N 1.22471 -0.21308 -0.20200
 C133 C 1.21254 -0.30928 -0.28932
 H134 H 1.23162 -0.32957 -0.27445
 C135 C 1.18525 -0.32560 -0.31602
 H136 H 1.18379 -0.35836 -0.32200
 C137 C 1.18993 -0.24238 -0.29884
 H138 H 1.19086 -0.21017 -0.29066
 C139 C 1.16244 -0.25734 -0.32593
 H140 H 1.14317 -0.23640 -0.33967
 Zn141 Zn 1.25008 -0.24402 -0.24404
 N142 N 1.21467 -0.26817 -0.28165
 C143 C 1.29583 -0.31344 -0.23589
 N144 N 1.27738 -0.28423 -0.21330
 C145 C 1.27821 -0.28244 -0.16795
 C146 C 1.29785 -0.31073 -0.14362
 C147 C 1.31557 -0.34264 -0.21277
 C148 C 1.26430 -0.17484 -0.29735
 C149 C 1.28416 -0.14834 -0.32404
 C150 C 1.33530 -0.19130 -0.31297
 C151 C 1.31453 -0.21679 -0.28588
 N152 N 1.27949 -0.20851 -0.27898
 H153 H 1.29535 -0.31398 -0.27192
 H154 H 1.26405 -0.25865 -0.15042
 H155 H 1.29888 -0.30820 -0.10764
 H156 H 1.33023 -0.36560 -0.23118
 H157 H 1.23687 -0.16775 -0.29054
 H158 H 1.27178 -0.12133 -0.33767
 H159 H 1.36308 -0.19835 -0.31848
 H160 H 1.32642 -0.24324 -0.27067
 C161 C 1.15977 -0.29944 -0.33440
 C162 C 1.17718 -0.16678 -0.15398
 C163 C 1.31990 -0.15693 -0.33288
 C164 C 1.31647 -0.34166 -0.16599
 C165 C 0.26546 0.17133 0.70503
 H166 H 0.24470 0.15634 0.72397
 C167 C 0.28520 0.14852 0.67455
 H168 H 0.27959 0.11606 0.67061
 C169 C 0.29690 0.23193 0.68554
 H170 H 0.30062 0.26472 0.68908
 C171 C 0.31840 0.20993 0.65627
 H172 H 0.33972 0.22576 0.63900
 N173 N 0.27191 0.21220 0.71046
 C174 C 0.18065 0.20185 0.77587
 H175 H 0.16869 0.22063 0.75059
 C176 C 0.15940 0.17433 0.79915
 H177 H 0.13115 0.17270 0.79171
 C178 C 0.23201 0.18009 0.81485
 H179 H 0.26037 0.18294 0.82080
 C180 C 0.21173 0.15141 0.83851
 H181 H 0.22449 0.13291 0.86361
 Zn182 Zn 0.24359 0.24215 0.75136
 N183 N 0.21615 0.20462 0.78439
 C184 C 0.18874 0.30053 0.73997
 N185 N 0.21184 0.27543 0.71828
 C186 C 0.20990 0.27005 0.67328
 C187 C 0.18396 0.29007 0.64847
 C188 C 0.16226 0.32091 0.71645
 C189 C 0.30836 0.27606 0.78676
 C190 C 0.32909 0.30183 0.81383
 C191 C 0.27607 0.32070 0.85397
 C192 C 0.25620 0.29488 0.82567
 N193 N 0.27230 0.27430 0.79167
 H194 H 0.18990 0.30368 0.77569
 H195 H 0.22777 0.24931 0.65658
 H196 H 0.18259 0.28557 0.61271
 H197 H 0.14397 0.34075 0.73398
 H198 H 0.32136 0.25767 0.76187
 H199 H 0.35760 0.30374 0.80853
 H200 H 0.26291 0.33731 0.88049
 H201 H 0.22794 0.29116 0.83113
 C202 C 0.17483 0.14829 0.83071
 C203 C 0.31235 0.16771 0.64997
 C204 C 0.31282 0.32541 0.84706
 C205 C 0.15959 0.31531 0.67031
 C206 C 0.77543 0.70024 0.67621
 H207 H 0.74816 0.69276 0.66742
 C208 C 0.80342 0.68455 0.65061
 H209 H 0.79759 0.66494 0.62219
 C210 C 0.81662 0.73356 0.72457
 H211 H 0.82198 0.75216 0.75373
 C212 C 0.84527 0.71824 0.70022
 H213 H 0.87227 0.72528 0.71079
 N214 N 0.78239 0.72499 0.71201
 C215 C 0.68830 0.72203 0.80055
 H216 H 0.68249 0.75430 0.80245
 C217 C 0.66753 0.69435 0.82482
 H218 H 0.64542 0.70601 0.84408
 C219 C 0.72416 0.66825 0.77338
 H220 H 0.74686 0.65831 0.75417
 C221 C 0.70389 0.63934 0.79709
 H222 H 0.71183 0.60752 0.79635
 Zn223 Zn 0.74460 0.74934 0.74576
 N224 N 0.71605 0.70881 0.77539
 C225 C 0.69721 0.81313 0.73179
 N226 N 0.71590 0.78383 0.70960
 C227 C 0.71659 0.78279 0.66422
 C228 C 0.69736 0.81138 0.63960
 C229 C 0.67807 0.84250 0.70853
 C230 C 0.76471 0.77726 0.83295
 C231 C 0.78154 0.80439 0.86271
 C232 C 0.79855 0.84679 0.80033
 C233 C 0.78139 0.81909 0.77193
 N234 N 0.76539 0.78487 0.78846
 H235 H 0.69799 0.81453 0.76773
 H236 H 0.73224 0.76023 0.64690
 H237 H 0.69764 0.81002 0.60354
 H238 H 0.66321 0.86548 0.72667
 H239 H 0.75185 0.74979 0.84526
 H240 H 0.78179 0.79769 0.89799
 H241 H 0.81244 0.87303 0.78649
 H242 H 0.78147 0.82427 0.73638
 C243 C 0.67463 0.65205 0.82297
 C244 C 0.83881 0.69393 0.66242
 C245 C 0.79884 0.83950 0.84626
 C246 C 0.67816 0.84184 0.66196
 C247 C 0.76480 0.20047 0.18657
 H248 H 0.73614 0.19767 0.18930
 C249 C 0.78331 0.17497 0.15727
 H250 H 0.76893 0.15258 0.13715
 C251 C 0.81883 0.23217 0.21040
 H252 H 0.83260 0.25451 0.23105
 C253 C 0.83828 0.20766 0.18128
 H254 H 0.86701 0.21093 0.17997
 N255 N 0.78285 0.22745 0.21335
 C256 C 0.70304 0.23325 0.31738
 H257 H 0.69841 0.26584 0.32014
 C258 C 0.68032 0.20562 0.33890
 H259 H 0.65800 0.21715 0.35786
 C260 C 0.73745 0.17859 0.28898
 H261 H 0.76009 0.16815 0.27005
 C262 C 0.71615 0.15001 0.31125
 H263 H 0.72254 0.11775 0.30924
 Zn264 Zn 0.75720 0.25712 0.25683
 N265 N 0.72979 0.21928 0.29102
 C266 C 0.69126 0.28728 0.22432
 N267 N 0.72707 0.29450 0.22547
 C268 C 0.74190 0.32498 0.20053
 C269 C 0.72052 0.34944 0.17323
 C270 C 0.66902 0.31110 0.19796
 C271 C 0.81186 0.25683 0.31908
 C272 C 0.83967 0.27193 0.34574
 C273 C 0.82216 0.34069 0.32679
 C274 C 0.79466 0.32426 0.30030
 N275 N 0.79053 0.28290 0.29621
 H276 H 0.67978 0.26183 0.24215
 H277 H 0.77049 0.32952 0.20075
 H278 H 0.73273 0.37291 0.15281
 H279 H 0.64069 0.30444 0.19711
 H280 H 0.80794 0.22408 0.31540
 H281 H 0.85701 0.25088 0.36285
 H282 H 0.82581 0.37361 0.32921
 H283 H 0.77719 0.34450 0.28240
 C284 C 0.68614 0.16329 0.33482
 C285 C 0.82048 0.17837 0.15482
 C286 C 0.84531 0.31426 0.34912
 C287 C 0.68366 0.34192 0.17111
 C288 C 0.25995 0.68633 0.18651
 H289 H 0.23151 0.68660 0.18149
 C290 C 0.28071 0.65921 0.16153
 H291 H 0.26815 0.63910 0.13713
 C292 C 0.31122 0.71138 0.22441
 H293 H 0.32320 0.73137 0.24914
 C294 C 0.33290 0.68486 0.20013
 H295 H 0.36139 0.68506 0.20599
 N296 N 0.27550 0.71261 0.21646
 C297 C 0.18481 0.75349 0.29589
 H298 H 0.18508 0.78557 0.28699
 C299 C 0.15690 0.73766 0.32146
 H300 H 0.13552 0.75750 0.33203
 C301 C 0.21192 0.68824 0.29188
 H302 H 0.23337 0.66919 0.28006
 C303 C 0.18472 0.67125 0.31786
 H304 H 0.18527 0.63897 0.32598
 Zn305 Zn 0.24759 0.75319 0.24647
 N306 N 0.21154 0.72875 0.28168
 C307 C 0.19692 0.76919 0.18020
 N308 N 0.22377 0.78666 0.20459
 C309 C 0.23007 0.82786 0.20344
 C310 C 0.20850 0.85315 0.17796
 C311 C 0.17464 0.79342 0.15434
 C312 C 0.27196 0.78727 0.32855
 C313 C 0.29390 0.81118 0.35629
 C314 C 0.32599 0.83405 0.29131
 C315 C 0.30390 0.80910 0.26501
 N316 N 0.27742 0.78639 0.28379
 H317 H 0.19117 0.73684 0.18310
 H318 H 0.25041 0.84176 0.22408
 H319 H 0.21267 0.88605 0.17894
 H320 H 0.15224 0.77952 0.13690
 H321 H 0.25051 0.76944 0.34294
 H322 H 0.28788 0.81244 0.39155
 H323 H 0.34728 0.85087 0.27506
 H324 H 0.30793 0.80774 0.22935
 C325 C 0.15697 0.69618 0.33322
 C326 C 0.31775 0.65917 0.16749
 C327 C 0.32220 0.83446 0.33813
 C328 C 0.17998 0.83590 0.15410
 O329 O 1.04680 0.06592 0.07914
 O330 O 1.08347 0.02748 0.03463
 C331 C 1.07796 0.05448 0.06559
 O332 O 0.93975 -0.07587 0.07934
 O333 O 0.90110 -0.03471 0.04144
 C334 C 0.90784 -0.06396 0.06905
 O335 O 1.03945 -0.07602 0.08278
 O336 O 1.07980 -0.04181 0.03867
 C337 C 1.07173 -0.06687 0.07074
 O338 O 0.94832 0.07749 0.07610
 O339 O 0.90566 0.03694 0.04219
 C340 C 0.91554 0.06783 0.06696
 Zr341 Zr 0.99546 0.04796 0.05696
 O342 O 0.99285 0.04499 0.12736
 O343 O 1.00212 0.11225 0.06206
 Zr344 Zr 0.99046 -0.05471 0.05815
 O345 O 0.98945 -0.04935 0.12836
 O346 O 0.99100 -0.11953 0.06074
 O347 O 1.02518 -0.00480 0.06491
 O348 O 0.96178 -0.00161 0.06687
 O349 O 0.94266 0.07116 -0.07485
 O350 O 0.90269 0.03487 -0.03270
 C351 C 0.91042 0.06237 -0.06205
 O352 O 1.03575 -0.07692 -0.08302
 O353 O 1.07790 -0.04337 -0.04078
 C354 C 1.06853 -0.06838 -0.07257
 O355 O 0.93700 -0.07773 -0.07418
 O356 O 0.90031 -0.03578 -0.03373
 C357 C 0.90582 -0.06518 -0.06219
 O358 O 1.04207 0.06345 -0.08228
 O359 O 1.08134 0.02549 -0.04146
 C360 C 1.07406 0.05222 -0.07184
 Zr361 Zr 0.99223 0.04638 -0.05556
 O362 O 0.98689 0.04505 -0.12579
 O363 O 0.99877 0.11092 -0.05715
 Zr364 Zr 0.98777 -0.05712 -0.05359
 O365 O 0.98378 -0.06479 -0.12333
 O366 O 0.98350 -0.12146 -0.04524
 Zr367 Zr 1.04478 -0.00676 -0.00079
 Zr368 Zr 0.93832 -0.00153 0.00323
 O369 O 0.95892 -0.00400 -0.06187
 O370 O 1.02138 -0.00696 -0.06477
 O371 O 0.96271 0.05701 0.00167
 O372 O 1.02023 -0.06495 0.00117
 O373 O 1.02499 0.05342 -0.00065
 O374 O 0.95690 -0.06220 0.00346
 H375 H 0.94593 -0.00022 0.09318
 H376 H 1.03557 -0.08950 0.00092
 H377 H 0.94238 -0.00353 -0.08762
 H378 H 1.04176 0.07707 -0.00160
 H379 H 0.97373 -0.12973 0.03818
 H380 H 1.00723 -0.13365 -0.04995
 H381 H 0.98388 -0.03696 -0.13621
 H382 H 1.00627 0.02786 -0.13775
 H383 H 0.97913 0.12313 -0.03976
 H384 H 0.99682 0.12340 0.03231
 H385 H 1.01263 0.02755 0.13757
 H386 H 0.98804 -0.07770 0.13985
 O387 O 1.06967 0.45721 0.58697
 O388 O 1.03851 0.40769 0.54791
 C389 C 1.06223 0.41939 0.57714
 O390 O 0.93755 0.56307 0.58134
 O391 O 0.96929 0.60982 0.54022
 C392 C 0.94481 0.60029 0.56920
 O393 O 0.94428 0.45052 0.58955
 O394 O 0.97705 0.40428 0.54959
 C395 C 0.95367 0.41338 0.57985
 O396 O 1.06990 0.56970 0.57744
 O397 O 1.03366 0.61288 0.53813
 C398 C 1.05983 0.60574 0.56536
 Zr399 Zr 1.04986 0.51154 0.55980
 O400 O 1.05183 0.51826 0.62997
 O401 O 1.10603 0.51228 0.55410
 Zr402 Zr 0.96096 0.50710 0.56334
 O403 O 0.96908 0.51143 0.63288
 O404 O 0.90513 0.50412 0.57272
 O405 O 1.00661 0.47263 0.57178
 O406 O 1.00445 0.54593 0.56853
 O407 O 1.06621 0.56383 0.42493
 O408 O 1.03207 0.61013 0.46334
 C409 C 1.05673 0.60100 0.43455
 O410 O 0.94085 0.44424 0.42928
 O411 O 0.97488 0.40119 0.47177
 C412 C 0.95030 0.40821 0.44225
 O413 O 0.93436 0.55688 0.42991
 O414 O 0.96864 0.60637 0.46473
 C415 C 0.94243 0.59464 0.43920
 O416 O 1.06655 0.45005 0.42489
 O417 O 1.03683 0.40401 0.46936
 C418 C 1.05968 0.41302 0.43820
 Zr419 Zr 1.04708 0.50684 0.44793
 O420 O 1.04074 0.50549 0.37798
 O421 O 1.10332 0.50691 0.44329
 Zr422 Zr 0.95835 0.50250 0.45093
 O423 O 0.95954 0.50393 0.38041
 O424 O 0.90218 0.49583 0.45038
 Zr425 Zr 1.00570 0.44511 0.50801
 Zr426 Zr 1.00205 0.56884 0.50340
 O427 O 1.00148 0.54073 0.44004
 O428 O 1.00361 0.46713 0.44223
 O429 O 1.05438 0.54613 0.50224
 O430 O 0.95386 0.46896 0.50874
 O431 O 1.05614 0.47372 0.50510
 O432 O 0.95126 0.54072 0.50604
 H433 H 1.00444 0.56568 0.59378
 H434 H 0.93310 0.44999 0.51001
 H435 H 1.00033 0.55834 0.41332
 H436 H 1.07793 0.45684 0.50511
 H437 H 0.89453 0.49355 0.54473
 H438 H 0.89268 0.51492 0.47309
 H439 H 0.97407 0.48057 0.37010
 H440 H 1.06510 0.50677 0.36538
 H441 H 1.11250 0.52257 0.46931
 H442 H 1.11560 0.51403 0.58487
 H443 H 1.03547 0.49743 0.64269
 H444 H 0.94503 0.51182 0.64641
 O445 O 0.54965 0.08379 0.57251
 O446 O 0.58905 0.04286 0.53563
 C447 C 0.58191 0.07247 0.56303
 O448 O 0.44816 -0.06307 0.57835
 O449 O 0.40931 -0.02702 0.53519
 C450 C 0.41616 -0.05370 0.56590
 O451 O 0.54673 -0.06027 0.58520
 O452 O 0.58782 -0.02675 0.54165
 C453 C 0.57915 -0.05184 0.57342
 O454 O 0.45052 0.08734 0.56619
 O455 O 0.41079 0.04475 0.52948
 C456 C 0.41854 0.07561 0.55541
 Zr457 Zr 0.49987 0.06186 0.54813
 O458 O 0.49565 0.06697 0.61826
 O459 O 0.50439 0.12633 0.54215
 Zr460 Zr 0.49835 -0.04063 0.55767
 O461 O 0.49594 -0.02885 0.62692
 O462 O 0.50041 -0.10472 0.56768
 O463 O 0.53105 0.01115 0.56256
 O464 O 0.46765 0.01128 0.56011
 O465 O 0.45220 0.07238 0.41009
 O466 O 0.41135 0.03830 0.45341
 C467 C 0.41974 0.06303 0.42132
 O468 O 0.54985 -0.07244 0.42408
 O469 O 0.58945 -0.03240 0.46387
 C470 C 0.58195 -0.06165 0.43569
 O471 O 0.45078 -0.07611 0.42626
 O472 O 0.41069 -0.03345 0.46047
 C473 C 0.41868 -0.06466 0.43543
 O474 O 0.55161 0.06911 0.41033
 O475 O 0.59040 0.03644 0.45741
 C476 C 0.58338 0.06033 0.42414
 Zr477 Zr 0.50137 0.05222 0.43627
 O478 O 0.50014 0.04698 0.36599
 O479 O 0.50560 0.11689 0.43206
 Zr480 Zr 0.50018 -0.05028 0.44585
 O481 O 0.49963 -0.05145 0.37546
 O482 O 0.50299 -0.11497 0.44913
 Zr483 Zr 0.55340 0.00552 0.49858
 Zr484 Zr 0.44636 0.00585 0.49540
 O485 O 0.46967 0.00019 0.43202
 O486 O 0.53292 0.00010 0.43338
 O487 O 0.46873 0.06524 0.49051
 O488 O 0.53008 -0.05319 0.50330
 O489 O 0.53182 0.06449 0.49233
 O490 O 0.46738 -0.05353 0.50161
 H491 H 0.45119 0.01331 0.58578
 H492 H 0.54527 -0.07773 0.50568
 H493 H 0.45413 -0.00238 0.40542
 H494 H 0.54817 0.08849 0.49053
 H495 H 0.48470 -0.11778 0.54511
 H496 H 0.48487 -0.12426 0.47080
 H497 H 0.49942 -0.08077 0.36658
 H498 H 0.51550 0.02369 0.35767
 H499 H 0.48387 0.12863 0.44546
 H500 H 0.48554 0.13528 0.52143
 H501 H 0.51367 0.04866 0.63137
 H502 H 0.49442 -0.05602 0.64137
 O503 O 0.55057 0.56411 0.08441
 O504 O 0.58925 0.52880 0.03938
 C505 C 0.58232 0.55371 0.07212
 O506 O 0.44773 0.42244 0.07978
 O507 O 0.40843 0.46152 0.04018
 C508 C 0.41566 0.43331 0.06911
 O509 O 0.54730 0.42225 0.08119
 O510 O 0.58762 0.45830 0.03874
 C511 C 0.57959 0.43141 0.06896
 O512 O 0.45202 0.57176 0.08077
 O513 O 0.41085 0.53500 0.03962
 C514 C 0.41960 0.56287 0.06895
 Zr515 Zr 0.50056 0.54740 0.05745
 O516 O 0.49779 0.54972 0.12779
 O517 O 0.50665 0.61199 0.05476
 Zr518 Zr 0.49788 0.44455 0.05772
 O519 O 0.49776 0.44967 0.12792
 O520 O 0.49888 0.37969 0.06005
 O521 O 0.53136 0.49518 0.06578
 O522 O 0.46795 0.49668 0.06614
 O523 O 0.45006 0.57090 -0.07536
 O524 O 0.40985 0.53264 -0.03616
 C525 C 0.41755 0.56094 -0.06487
 O526 O 0.54566 0.42111 -0.07869
 O527 O 0.58697 0.45806 -0.03812
 C528 C 0.57823 0.43035 -0.06753
 O529 O 0.44644 0.41892 -0.07259
 O530 O 0.40787 0.45995 -0.03383
 C531 C 0.41461 0.43014 -0.06136
 O532 O 0.54883 0.56469 -0.08184
 O533 O 0.58843 0.52864 -0.03918
 C534 C 0.58084 0.55422 -0.07078
 Zr535 Zr 0.49930 0.54666 -0.05469
 O536 O 0.49442 0.54646 -0.12496
 O537 O 0.50514 0.61132 -0.05383
 Zr538 Zr 0.49662 0.44411 -0.05509
 O539 O 0.49217 0.44939 -0.12521
 O540 O 0.49625 0.37969 -0.06255
 Zr541 Zr 0.55228 0.49427 0.00063
 Zr542 Zr 0.44496 0.49667 0.00215
 O543 O 0.46645 0.49585 -0.06254
 O544 O 0.53010 0.49450 -0.06407
 O545 O 0.46815 0.55587 0.00183
 O546 O 0.52776 0.43595 0.00086
 O547 O 0.53141 0.55391 0.00100
 O548 O 0.46548 0.43671 0.00186
 H549 H 0.45219 0.49727 0.09258
 H550 H 0.54250 0.41109 0.00067
 H551 H 0.44985 0.49561 -0.08827
 H552 H 0.54824 0.57753 0.00092
 H553 H 0.47962 0.36920 0.04034
 H554 H 0.49463 0.36831 -0.03223
 H555 H 0.51604 0.45630 -0.13714
 H556 H 0.51255 0.52759 -0.13696
 H557 H 0.48529 0.62258 -0.03610
 H558 H 0.48513 0.62309 0.04030
 H559 H 0.51047 0.52545 0.13897
 H560 H 0.49691 0.42124 0.13931
 C561 C 1.14316 0.09355 0.15302
 C562 C 1.15871 0.12656 0.12922
 C563 C 1.15172 0.13073 0.08367
 C564 C 1.12709 0.10490 0.06247
 C565 C 1.10889 0.07460 0.08650
 C566 C 1.11755 0.06778 0.13164
 C567 C 1.15216 0.08601 0.19790
 C568 C 1.13561 0.05434 0.22131
 C569 C 1.10993 0.02966 0.20056
 C570 C 1.10100 0.03607 0.15606
 H571 H 1.17227 0.10420 0.21507
 H572 H 1.14274 0.04892 0.25571
 H573 H 1.09702 0.00537 0.21904
 H574 H 1.08130 0.01596 0.14084
 H575 H 1.16371 0.15567 0.06515
 H576 H 1.12051 0.11029 0.02784
 C577 C 1.09450 0.68414 0.64866
 C578 C 1.13113 0.68355 0.63672
 C579 C 1.14148 0.66344 0.59759
 C580 C 1.11682 0.64161 0.57206
 C581 C 1.08091 0.63976 0.58436
 C582 C 1.06913 0.66228 0.62185
 C583 C 1.08267 0.70400 0.68779
 C584 C 1.04670 0.70327 0.69946
 C585 C 1.02194 0.68235 0.67291
 C586 C 1.03297 0.66172 0.63460
 H587 H 1.10097 0.71990 0.70993
 H588 H 1.03802 0.71878 0.72948
 H589 H 0.99409 0.68177 0.68227
 H590 H 1.01301 0.64548 0.61504
 H591 H 1.16928 0.66296 0.58792
 H592 H 1.12621 0.62393 0.54379
 C593 C 0.66847 0.13487 0.58618
 C594 C 0.65992 0.15097 0.62892
 C595 C 0.62798 0.13872 0.64907
 C596 C 0.60421 0.11236 0.62751
 C597 C 0.61171 0.09561 0.58540
 C598 C 0.64540 0.10505 0.56541
 C599 C 0.69898 0.14872 0.56294
 C600 C 0.70886 0.13079 0.52271
 C601 C 0.68837 0.09924 0.50448
 C602 C 0.65684 0.08678 0.52507
 H603 H 0.71533 0.17385 0.57517
 H604 H 0.73260 0.14135 0.50569
 H605 H 0.69645 0.08498 0.47348
 H606 H 0.64231 0.06274 0.50837
 H607 H 0.62110 0.14994 0.68197
 H608 H 0.57938 0.10506 0.64418
 C609 C 0.64006 0.58663 0.17063
 C610 C 0.65980 0.61894 0.15066
 C611 C 0.65734 0.62472 0.10449
 C612 C 0.63378 0.60120 0.07863
 C613 C 0.61198 0.57141 0.09830
 C614 C 0.61572 0.56297 0.14429
 C615 C 0.64413 0.57711 0.21616
 C616 C 0.62421 0.54555 0.23540
 C617 C 0.60007 0.52280 0.20977
 C618 C 0.59579 0.53128 0.16464
 H619 H 0.66306 0.59349 0.23711
 H620 H 0.62765 0.53858 0.27033
 H621 H 0.58482 0.49820 0.22482
 H622 H 0.57733 0.51229 0.14569
 H623 H 0.67249 0.64903 0.08868
 H624 H 0.63107 0.60791 0.04349
 C625 C 0.82732 -0.13404 0.09024
 C626 C 0.83389 -0.14305 0.13570
 C627 C 0.86114 -0.12192 0.15844
 C628 C 0.88329 -0.09456 0.13651
 C629 C 0.87811 -0.08567 0.09146
 C630 C 0.84823 -0.10321 0.06871
 C631 C 0.80123 -0.15574 0.06518
 C632 C 0.79311 -0.14433 0.02178
 C633 C 0.81119 -0.11180 0.00225
 C634 C 0.83889 -0.09194 0.02498
 H635 H 0.78698 -0.18181 0.07853
 H636 H 0.77246 -0.16057 0.00336
 H637 H 0.80396 -0.10222 -0.03092
 H638 H 0.85177 -0.06702 0.00823
 H639 H 0.86607 -0.12751 0.19344
 H640 H 0.90542 -0.08091 0.15477
 C641 C 0.90178 0.31636 0.61640
 C642 C 0.88683 0.33227 0.65692
 C643 C 0.90257 0.36848 0.67437
 C644 C 0.92654 0.39155 0.64985
 C645 C 0.93559 0.38075 0.60615
 C646 C 0.92440 0.34175 0.58951
 C647 C 0.89679 0.27490 0.60340
 C648 C 0.90881 0.26064 0.56233
 C649 C 0.92684 0.28694 0.53379
 C650 C 0.93487 0.32696 0.54720
 H651 H 0.88399 0.25299 0.62521
 H652 H 0.90402 0.22904 0.55255
 H653 H 0.93554 0.27595 0.50152
 H654 H 0.94970 0.34527 0.52402
 H655 H 0.89397 0.38259 0.70510
 H656 H 0.93602 0.42022 0.66432
 C657 C 0.33311 -0.11944 0.59441
 C658 C 0.34168 -0.12879 0.63929
 C659 C 0.37159 -0.11043 0.65903
 C660 C 0.39367 -0.08442 0.63498
 C661 C 0.38676 -0.07517 0.59014
 C662 C 0.35507 -0.09131 0.57000
 C663 C 0.30382 -0.13855 0.57274
 C664 C 0.29508 -0.12881 0.52901
 C665 C 0.31522 -0.09999 0.50602
 C666 C 0.34490 -0.08152 0.52607
 H667 H 0.28762 -0.16154 0.58907
 H668 H 0.27251 -0.14366 0.51291
 H669 H 0.30815 -0.09233 0.47211
 H670 H 0.35939 -0.05979 0.50632
 H671 H 0.37822 -0.11673 0.69344
 H672 H 0.41714 -0.07204 0.65160
 C673 C 0.33228 0.40651 0.13862
 C674 C 0.33662 0.36340 0.14158
 C675 C 0.36500 0.34501 0.11916
 C676 C 0.38923 0.36829 0.09481
 C677 C 0.38610 0.41097 0.09169
 C678 C 0.35712 0.43052 0.11338
 C679 C 0.30464 0.42656 0.16170
 C680 C 0.30085 0.46891 0.15917
 C681 C 0.32483 0.49223 0.13453
 C682 C 0.35297 0.47347 0.11237
 H683 H 0.28593 0.40993 0.18229
 H684 H 0.27939 0.48378 0.17683
 H685 H 0.32181 0.52514 0.13300
 H686 H 0.37139 0.49314 0.09503
 H687 H 0.36869 0.31216 0.12096
 H688 H 0.41109 0.35272 0.07863
 C689 C 0.82646 0.12485 -0.08757
 C690 C 0.83287 0.13214 -0.13316
 C691 C 0.86174 0.11405 -0.15443
 C692 C 0.88558 0.09058 -0.13062
 C693 C 0.88113 0.08401 -0.08483
 C694 C 0.85038 0.09991 -0.06309
 C695 C 0.79699 0.14250 -0.06577
 C696 C 0.79089 0.13548 -0.02073
 C697 C 0.81375 0.11062 0.00316
 C698 C 0.84310 0.09304 -0.01767
 H699 H 0.77844 0.16176 -0.08337
 H700 H 0.76827 0.14923 -0.00432
 H701 H 0.80881 0.10503 0.03812
 H702 H 0.85962 0.07423 0.00248
 H703 H 0.86667 0.11957 -0.18945
 H704 H 0.90826 0.07804 -0.14813
 C705 C 0.90279 0.67763 0.36617
 C706 C 0.86628 0.67094 0.37618
 C707 C 0.85659 0.64375 0.40983
 C708 C 0.88227 0.62102 0.43150
 C709 C 0.91838 0.62525 0.42058
 C710 C 0.92921 0.65453 0.38870
 C711 C 0.91352 0.70622 0.33370
 C712 C 0.94952 0.71175 0.32354
 C713 C 0.97532 0.68878 0.34518
 C714 C 0.96538 0.66023 0.37735
 H715 H 0.89422 0.72455 0.31617
 H716 H 0.95743 0.73385 0.29862
 H717 H 1.00318 0.69303 0.33693
 H718 H 0.98619 0.64281 0.39310
 H719 H 0.82876 0.63852 0.41776
 H720 H 0.87376 0.59875 0.45603
 C721 C 0.36857 0.11048 0.32472
 C722 C 0.34259 0.13377 0.34884
 C723 C 0.34203 0.13043 0.39570
 C724 C 0.36497 0.10434 0.41812
 C725 C 0.39087 0.08228 0.39527
 C726 C 0.39168 0.08358 0.34814
 C727 C 0.37486 0.11616 0.27859
 C728 C 0.39940 0.09228 0.25557
 C729 C 0.41900 0.06298 0.27792
 C730 C 0.41547 0.05879 0.32379
 H731 H 0.36183 0.13982 0.25984
 H732 H 0.40333 0.09666 0.22018
 H733 H 0.43765 0.04406 0.25981
 H734 H 0.43138 0.03581 0.33994
 H735 H 0.32234 0.14649 0.41536
 H736 H 0.36297 0.10206 0.45390
 C737 C 0.32672 0.60531 -0.10488
 C738 C 0.33940 0.62965 -0.14065
 C739 C 0.37551 0.62899 -0.15119
 C740 C 0.39926 0.60616 -0.12647
 C741 C 0.38844 0.58317 -0.08915
 C742 C 0.35125 0.58267 -0.07800
 C743 C 0.28988 0.60266 -0.09575
 C744 C 0.27722 0.58019 -0.05980
 C745 C 0.30087 0.56004 -0.03220
 C746 C 0.33731 0.56115 -0.04094
 H747 H 0.27045 0.61753 -0.11661
 H748 H 0.24891 0.57864 -0.05316
 H749 H 0.29090 0.54325 -0.00376
 H750 H 0.35354 0.54544 -0.01730
 H751 H 0.38573 0.64723 -0.17846
 H752 H 0.42685 0.60717 -0.13692
 C753 C 1.11942 -0.12893 -0.16141
 C754 C 1.14912 -0.14072 -0.13553
 C755 C 1.15333 -0.12562 -0.09226
 C756 C 1.12765 -0.10063 -0.07342
 C757 C 1.09701 -0.08987 -0.09721
 C758 C 1.09366 -0.10219 -0.14261
 C759 C 1.11521 -0.14250 -0.20595
 C760 C 1.08671 -0.12922 -0.23175
 C761 C 1.06259 -0.10140 -0.21421
 C762 C 1.06621 -0.08750 -0.17037
 H763 H 1.13402 -0.16307 -0.22142
 H764 H 1.08375 -0.13985 -0.26582
 H765 H 1.04112 -0.09016 -0.23477
 H766 H 1.04800 -0.06419 -0.15931
 H767 H 1.17647 -0.13375 -0.07268
 H768 H 1.13151 -0.09022 -0.03958
 C769 C 1.12860 0.32894 0.41578
 C770 C 1.13141 0.33264 0.36878
 C771 C 1.10801 0.35856 0.34637
 C772 C 1.08327 0.38195 0.36951
 C773 C 1.08054 0.38010 0.41603
 C774 C 1.10256 0.35225 0.43950
 C775 C 1.15218 0.30402 0.44008
 C776 C 1.14914 0.30036 0.48610
 C777 C 1.12321 0.32200 0.50898
 C778 C 1.10054 0.34815 0.48617
 H779 H 1.17341 0.28742 0.42409
 H780 H 1.16715 0.28077 0.50416
 H781 H 1.12088 0.31877 0.54468
 H782 H 1.08146 0.36468 0.50558
 H783 H 1.10957 0.36161 0.31050
 H784 H 1.06686 0.40297 0.35092
 C785 C 0.66397 -0.12890 0.41580
 C786 C 0.65957 -0.13628 0.36961
 C787 C 0.63248 -0.11663 0.34633
 C788 C 0.60866 -0.09138 0.36843
 C789 C 0.61123 -0.08471 0.41451
 C790 C 0.63945 -0.10314 0.43866
 C791 C 0.69222 -0.14671 0.43973
 C792 C 0.69594 -0.13994 0.48538
 C793 C 0.67161 -0.11567 0.50795
 C794 C 0.64348 -0.09774 0.48505
 H795 H 0.71173 -0.16577 0.42338
 H796 H 0.71771 -0.15375 0.50337
 H797 H 0.67457 -0.11071 0.54341
 H798 H 0.62513 -0.07987 0.50415
 H799 H 0.62915 -0.12181 0.31086
 H800 H 0.58750 -0.07743 0.34937
 C801 C 0.62917 0.34327 -0.12323
 C802 C 0.65819 0.36565 -0.14161
 C803 C 0.66112 0.40792 -0.13365
 C804 C 0.63577 0.42825 -0.10803
 C805 C 0.60684 0.40686 -0.08953
 C806 C 0.60427 0.36368 -0.09543
 C807 C 0.62416 0.30095 -0.13219
 C808 C 0.59695 0.27877 -0.11161
 C809 C 0.57428 0.29812 -0.08179
 C810 C 0.57788 0.34006 -0.07359
 H811 H 0.64100 0.28460 -0.15531
 H812 H 0.59371 0.24633 -0.11844
 H813 H 0.55372 0.28061 -0.06502
 H814 H 0.56030 0.35348 -0.04930
 H815 H 0.68325 0.42527 -0.14732
 H816 H 0.63837 0.46107 -0.10327
 C817 C 1.15850 0.07931 -0.13910
 C818 C 1.15274 0.12221 -0.14401
 C819 C 1.12269 0.13976 -0.12421
 C820 C 1.09885 0.11644 -0.09988
 C821 C 1.10336 0.07423 -0.09479
 C822 C 1.13350 0.05516 -0.11426
 C823 C 1.18652 0.05911 -0.16149
 C824 C 1.19080 0.01687 -0.15794
 C825 C 1.16688 -0.00635 -0.13315
 C826 C 1.13835 0.01242 -0.11191
 H827 H 1.20481 0.07530 -0.18300
 H828 H 1.21246 0.00196 -0.17518
 H829 H 1.17008 -0.03923 -0.13105
 H830 H 1.11992 -0.00708 -0.09454
 H831 H 1.11775 0.17235 -0.12698
 H832 H 1.07616 0.13173 -0.08520
 C833 C 1.11989 0.68989 0.40430
 C834 C 1.12745 0.67801 0.35970
 C835 C 1.10743 0.64647 0.33984
 C836 C 1.08214 0.62471 0.36401
 C837 C 1.07574 0.63355 0.40911
 C838 C 1.09321 0.66807 0.42894
 C839 C 1.13922 0.72187 0.42560
 C840 C 1.13145 0.73347 0.46924
 C841 C 1.10467 0.71330 0.49264
 C842 C 1.08594 0.68073 0.47297
 H843 H 1.16059 0.73811 0.40902
 H844 H 1.14628 0.75829 0.48499
 H845 H 1.09859 0.72267 0.52643
 H846 H 1.06549 0.66633 0.49252
 H847 H 1.11242 0.63749 0.30560
 H848 H 1.06871 0.59904 0.34783
 C849 C 0.64489 0.10010 0.33306
 C850 C 0.66139 0.13351 0.35636
 C851 C 0.65321 0.13987 0.40142
 C852 C 0.62885 0.11470 0.42320
 C853 C 0.61301 0.08121 0.40140
 C854 C 0.62126 0.07319 0.35628
 C855 C 0.64995 0.09366 0.28691
 C856 C 0.63406 0.06024 0.26506
 C857 C 0.61241 0.03297 0.28838
 C858 C 0.60576 0.03944 0.33351
 H859 H 0.66561 0.11453 0.26697
 H860 H 0.63845 0.05558 0.22977
 H861 H 0.60031 0.00700 0.27129
 H862 H 0.58844 0.01784 0.35044
 H863 H 0.66515 0.16529 0.41973
 H864 H 0.62122 0.12245 0.45695
 C865 C 0.63978 0.58603 -0.16844
 C866 C 0.65379 0.62409 -0.15146
 C867 C 0.64557 0.63517 -0.10717
 C868 C 0.62424 0.61043 -0.08033
 C869 C 0.60994 0.57359 -0.09648
 C870 C 0.61816 0.56063 -0.14036
 C871 C 0.64370 0.57413 -0.21361
 C872 C 0.62956 0.53705 -0.22944
 C873 C 0.61017 0.51157 -0.20132
 C874 C 0.60397 0.52344 -0.15741
 H875 H 0.65664 0.59357 -0.23771
 H876 H 0.63325 0.52831 -0.26397
 H877 H 0.59921 0.48289 -0.21386
 H878 H 0.58790 0.50329 -0.13693
 H879 H 0.65596 0.66344 -0.09278
 H880 H 0.61762 0.62104 -0.04710
 C881 C 0.81881 -0.09086 -0.12383
 C882 C 0.82125 -0.13424 -0.12440
 C883 C 0.84906 -0.15310 -0.10154
 C884 C 0.87547 -0.12985 -0.08072
 C885 C 0.87504 -0.08696 -0.08207
 C886 C 0.84641 -0.06690 -0.10342
 C887 C 0.78957 -0.07081 -0.14325
 C888 C 0.78832 -0.02812 -0.14438
 C889 C 0.81619 -0.00471 -0.12657
 C890 C 0.84505 -0.02380 -0.10643
 H891 H 0.76737 -0.08797 -0.15736
 H892 H 0.76581 -0.01315 -0.15957
 H893 H 0.81544 0.02841 -0.12835
 H894 H 0.86629 -0.00446 -0.09387
 H895 H 0.85134 -0.18619 -0.10165
 H896 H 0.89703 -0.14559 -0.06419
 C897 C 0.91030 0.33568 0.35650
 C898 C 0.87578 0.33107 0.37512
 C899 C 0.86939 0.34535 0.41841
 C900 C 0.89581 0.36652 0.44212
 C901 C 0.92931 0.37405 0.42318
 C902 C 0.93725 0.35747 0.38078
 C903 C 0.91829 0.32039 0.31363
 C904 C 0.95212 0.32623 0.29532
 C905 C 0.97840 0.34759 0.31909
 C906 C 0.97111 0.36331 0.36139
 H907 H 0.89855 0.30385 0.29401
 H908 H 0.95793 0.31422 0.26246
 H909 H 1.00456 0.35207 0.30465
 H910 H 0.99216 0.37970 0.37897
 H911 H 0.84319 0.34186 0.43308
 H912 H 0.88921 0.37977 0.47425
 C913 C 0.35875 -0.15591 0.40609
 C914 C 0.34454 -0.14232 0.36429
 C915 C 0.35448 -0.10282 0.34939
 C916 C 0.37632 -0.07695 0.37463
 C917 C 0.38992 -0.08954 0.41540
 C918 C 0.38121 -0.12894 0.43168
 C919 C 0.35498 -0.19695 0.42083
 C920 C 0.36927 -0.20943 0.46138
 C921 C 0.38909 -0.18215 0.48738
 C922 C 0.39574 -0.14258 0.47236
 H923 H 0.34229 -0.22049 0.40077
 H924 H 0.36549 -0.24074 0.47225
 H925 H 0.40021 -0.19203 0.51877
 H926 H 0.41224 -0.12268 0.49297
 H927 H 0.34417 -0.09078 0.31844
 H928 H 0.38363 -0.04716 0.36145
 C929 C 0.33047 0.39740 -0.12648
 C930 C 0.33483 0.35418 -0.12557
 C931 C 0.36312 0.33778 -0.10135
 C932 C 0.38757 0.36313 -0.07946
 C933 C 0.38471 0.40589 -0.08081
 C934 C 0.35562 0.42351 -0.10390
 C935 C 0.30266 0.41540 -0.15107
 C936 C 0.29915 0.45784 -0.15264
 C937 C 0.32366 0.48322 -0.13085
 C938 C 0.35185 0.46641 -0.10713
 H939 H 0.28356 0.39711 -0.16969
 H940 H 0.27755 0.47112 -0.17139
 H941 H 0.32105 0.51613 -0.13290
 H942 H 0.37070 0.48745 -0.09202
 H943 H 0.36689 0.30490 -0.10042
 H944 H 0.40960 0.34912 -0.06205
 C945 C 1.12659 -0.11856 0.16153
 C946 C 1.15281 -0.13736 0.13464
 C947 C 1.15318 -0.13064 0.08875
 C948 C 1.12758 -0.10608 0.06902
 C949 C 1.10087 -0.08765 0.09452
 C950 C 1.10076 -0.09290 0.14148
 C951 C 1.12533 -0.12507 0.20801
 C952 C 1.09985 -0.10580 0.23428
 C953 C 1.07533 -0.07966 0.21495
 C954 C 1.07583 -0.07297 0.16914
 H955 H 1.14388 -0.14514 0.22446
 H956 H 1.09931 -0.11092 0.26987
 H957 H 1.05594 -0.06425 0.23562
 H958 H 1.05692 -0.05150 0.15601
 H959 H 1.17310 -0.14504 0.06797
 H960 H 1.12780 -0.10279 0.03331
 C961 C 1.09593 0.32903 0.64592
 C962 C 1.13296 0.33818 0.64460
 C963 C 1.14535 0.37134 0.61972
 C964 C 1.12171 0.39628 0.59739
 C965 C 1.08487 0.38878 0.59889
 C966 C 1.07156 0.35470 0.62294
 C967 C 1.08260 0.29506 0.66973
 C968 C 1.04604 0.28692 0.67142
 C969 C 1.02220 0.31251 0.64982
 C970 C 1.03472 0.34623 0.62597
 H971 H 1.10028 0.27456 0.68706
 H972 H 1.03614 0.26075 0.68979
 H973 H 0.99383 0.30628 0.65162
 H974 H 1.01529 0.36555 0.61034
 H975 H 1.17359 0.37855 0.61844
 H976 H 1.13234 0.42213 0.57900
 C977 C 0.66278 -0.08608 0.63653
 C978 C 0.65590 -0.12898 0.63705
 C979 C 0.62558 -0.14476 0.61571
 C980 C 0.60156 -0.11889 0.59526
 C981 C 0.60710 -0.07631 0.59500
 C982 C 0.63811 -0.05943 0.61533
 C983 C 0.69373 -0.06911 0.65639
 C984 C 0.69995 -0.02685 0.65608
 C985 C 0.67550 -0.00081 0.63625
 C986 C 0.64476 -0.01680 0.61618
 H987 H 0.71341 -0.08833 0.67200
 H988 H 0.72379 -0.01423 0.67148
 H989 H 0.68035 0.03198 0.63647
 H990 H 0.62629 0.00450 0.60172
 H991 H 0.62000 -0.17743 0.61583
 H992 H 0.57819 -0.13237 0.57940
 C993 C 0.63934 0.34375 0.10700
 C994 C 0.66027 0.36453 0.13973
 C995 C 0.65691 0.40711 0.14469
 C996 C 0.63177 0.42869 0.11994
 C997 C 0.60881 0.40826 0.09012
 C998 C 0.61297 0.36555 0.08276
 C999 C 0.64433 0.30171 0.09744
 C1000 C 0.62318 0.28136 0.06591
 C1001 C 0.59683 0.30236 0.04318
 C1002 C 0.59176 0.34400 0.05132
 H1003 H 0.66495 0.28432 0.11367
 H1004 H 0.62731 0.24915 0.05901
 H1005 H 0.58041 0.28638 0.01882
 H1006 H 0.57135 0.35907 0.03247
 H1007 H 0.67296 0.42356 0.16911
 H1008 H 0.62926 0.46135 0.12546
 C1009 C 0.86329 0.16455 0.09163
 C1010 C 0.84126 0.15016 0.12655
 C1011 C 0.84127 0.10844 0.13749
 C1012 C 0.86444 0.08145 0.11645
 C1013 C 0.88824 0.09565 0.08417
 C1014 C 0.88706 0.13707 0.07032
 C1015 C 0.86186 0.20556 0.07704
 C1016 C 0.88340 0.21908 0.04219
 C1017 C 0.90663 0.19217 0.02126
 C1018 C 0.90857 0.15156 0.03507
 H1019 H 0.84370 0.22725 0.09189
 H1020 H 0.88190 0.25054 0.03118
 H1021 H 0.92308 0.20272 -0.00602
 H1022 H 0.92645 0.13150 0.01728
 H1023 H 0.82433 0.09708 0.16396
 H1024 H 0.86494 0.04971 0.12683
 C1025 C 0.87671 0.68520 0.59245
 C1026 C 0.86908 0.67585 0.63754
 C1027 C 0.89035 0.64771 0.65984
 C1028 C 0.91677 0.62635 0.63745
 C1029 C 0.92329 0.63242 0.59189
 C1030 C 0.90433 0.66374 0.56949
 C1031 C 0.85750 0.71561 0.56976
 C1032 C 0.86515 0.72480 0.52551
 C1033 C 0.89209 0.70417 0.50321
 C1034 C 0.91145 0.67392 0.52482
 H1035 H 0.83673 0.73280 0.58613
 H1036 H 0.85027 0.74826 0.50852
 H1037 H 0.89811 0.71174 0.46897
 H1038 H 0.93235 0.65949 0.50632
 H1039 H 0.88533 0.64074 0.69452
 H1040 H 0.93121 0.60319 0.65558
 C1041 C 0.34791 0.15616 0.57836
 C1042 C 0.33627 0.14301 0.62107
 C1043 C 0.35007 0.10671 0.63871
 C1044 C 0.37563 0.08443 0.61587
 C1045 C 0.38919 0.09847 0.57546
 C1046 C 0.37597 0.13487 0.55662
 C1047 C 0.33215 0.18956 0.55641
 C1048 C 0.34564 0.20360 0.51596
 C1049 C 0.37491 0.18470 0.49659
 C1050 C 0.39001 0.15057 0.51660
 H1051 H 0.30901 0.20469 0.56988
 H1052 H 0.33338 0.22936 0.49962
 H1053 H 0.38545 0.19593 0.46538
 H1054 H 0.41218 0.13606 0.49997
 H1055 H 0.34190 0.09607 0.67126
 H1056 H 0.38601 0.05682 0.63074
 C1057 C 0.34651 0.64085 0.09337
 C1058 C 0.34104 0.63318 0.13938
 C1059 C 0.36046 0.60225 0.16019
 C1060 C 0.38504 0.57906 0.13641
 C1061 C 0.39105 0.58612 0.09111
 C1062 C 0.37206 0.61744 0.06926
 C1063 C 0.32832 0.67242 0.07115
 C1064 C 0.33500 0.68059 0.02638
 C1065 C 0.36042 0.65827 0.00320
 C1066 C 0.37905 0.62725 0.02445
 H1067 H 0.30909 0.69137 0.08810
 H1068 H 0.32075 0.70476 0.00975
 H1069 H 0.36589 0.66518 -0.03135
 H1070 H 0.39912 0.61124 0.00563
 H1071 H 0.35684 0.59635 0.19537
 H1072 H 0.39984 0.55566 0.15367
   
