data_POSCAR
  _audit_creation_date              2014-09-24
  _audit_creation_method            'ToBaCCo'
  _symmetry_space_group_name_H-M    'P1'
  _symmetry_Int_Tables_number       1
  _symmetry_cell_setting            triclinic
  loop_
  _symmetry_equiv_pos_as_xyz
 x,y,z
_cell_length_a 19.8687
_cell_length_b 19.8721
_cell_length_c 24.0322
_cell_angle_alpha 89.828400
_cell_angle_beta 89.908200
_cell_angle_gamma 89.899000
loop_
  _atom_site_label
  _atom_site_type_symbol
  _atom_site_fract_x
  _atom_site_fract_y
  _atom_site_fract_z
O1 O 0.06413 0.56433 1.05302
 O2 O 0.06455 0.43684 0.94538
 O3 O 0.04567 0.56801 0.94544
 O4 O 0.04555 0.43330 1.05309
 O5 O -0.06564 0.43710 1.05354
 O6 O -0.06558 0.56518 0.94595
 O7 O -0.04668 0.43340 0.94544
 O8 O -0.04717 0.56758 1.05292
 Cu9 Cu 0.06501 0.50059 0.99922
 Cu10 Cu -0.06622 0.50045 0.99917
 C11 C 0.00946 0.58875 1.07071
 C12 C 0.01009 0.41228 0.92773
 C13 C -0.01108 0.58957 0.92797
 C14 C -0.01114 0.41244 1.07118
 O15 O 0.43672 0.06449 0.55286
 O16 O 0.56423 0.06496 0.44496
 O17 O 0.43327 0.04606 0.44530
 O18 O 0.56792 0.04590 0.55252
 O19 O 0.56503 -0.06524 0.55276
 O20 O 0.43695 -0.06505 0.44532
 O21 O 0.56822 -0.04626 0.44519
 O22 O 0.43360 -0.04680 0.55287
 Cu23 Cu 0.50050 0.06473 0.49890
 Cu24 Cu 0.50099 -0.06636 0.49901
 C25 C 0.41236 0.00987 0.57069
 C26 C 0.58918 0.01055 0.42730
 C27 C 0.41222 -0.01056 0.42764
 C28 C 0.58926 -0.01071 0.57042
 C29 C -0.08995 0.01310 0.27439
 C30 C -0.02692 0.02616 0.25044
 C31 C -0.01402 0.08925 0.22661
 C32 C -0.06392 0.13892 0.22616
 C33 C -0.12701 0.12596 0.25039
 C34 C -0.13978 0.06293 0.27479
 C35 C 0.02543 -0.02621 0.25016
 C36 C 0.01245 -0.08899 0.22615
 C37 C 0.06227 -0.13881 0.22567
 C38 C 0.12535 -0.12618 0.24977
 C39 C 0.13828 -0.06333 0.27413
 C40 C 0.08853 -0.01346 0.27389
 H41 H -0.09977 -0.03542 0.29359
 H42 H 0.03447 0.09916 0.20745
 H43 H -0.03604 -0.09865 0.20707
 H44 H 0.09823 0.03489 0.29322
 H45 H -0.16571 0.16455 0.25034
 H46 H 0.16395 -0.16482 0.24956
 C47 C -0.01287 -0.08949 0.77483
 C48 C -0.02570 -0.02662 0.75054
 C49 C -0.08844 -0.01370 0.72627
 C50 C -0.13810 -0.06344 0.72580
 C51 C -0.12539 -0.12640 0.75043
 C52 C -0.06260 -0.13919 0.77519
 C53 C 0.02652 0.02567 0.75032
 C54 C 0.08957 0.01263 0.72646
 C55 C 0.13921 0.06240 0.72592
 C56 C 0.12632 0.12543 0.75010
 C57 C 0.06322 0.13840 0.77434
 C58 C 0.01339 0.08873 0.77398
 H59 H 0.03543 -0.09919 0.79430
 H60 H -0.09790 0.03468 0.70673
 H61 H 0.09942 -0.03585 0.70740
 H62 H -0.03519 0.09848 0.79318
 H63 H -0.16398 -0.16499 0.75040
 H64 H 0.16494 0.16392 0.74979
 C65 C 0.01321 -0.35676 0.10962
 C66 C 0.02182 -0.30936 0.13997
 C67 C 0.03570 -0.25203 0.17254
 C68 C 0.04848 -0.20144 0.19799
 C69 C -0.01520 0.35787 0.11022
 C70 C -0.02377 0.31020 0.14058
 C71 C -0.03755 0.25258 0.17311
 C72 C -0.05027 0.20176 0.19850
 C73 C 0.35782 0.01371 0.60968
 C74 C 0.31025 0.02219 0.64004
 C75 C 0.25271 0.03600 0.67265
 C76 C 0.20195 0.04868 0.69814
 C77 C -0.35610 -0.01459 0.60914
 C78 C -0.30853 -0.02319 0.63939
 C79 C -0.25120 -0.03700 0.67217
 C80 C -0.20065 -0.04964 0.69785
 C81 C -0.01480 -0.35838 0.89136
 C82 C -0.02310 -0.31056 0.86107
 C83 C -0.03656 -0.25283 0.82857
 C84 C -0.04902 -0.20201 0.80307
 C85 C 0.01420 0.35744 0.88927
 C86 C 0.02298 0.30967 0.85932
 C87 C 0.03685 0.25203 0.82707
 C88 C 0.04949 0.20119 0.80186
 C89 C -0.35882 0.01439 0.39071
 C90 C -0.31108 0.02286 0.36044
 C91 C -0.25340 0.03660 0.32797
 C92 C -0.20259 0.04925 0.30253
 C93 C 0.35741 -0.01456 0.38909
 C94 C 0.30968 -0.02330 0.35907
 C95 C 0.25200 -0.03721 0.32685
 C96 C 0.20115 -0.04985 0.30165
   
