data_POSCAR
  _audit_creation_date              2014-09-24
  _audit_creation_method            'ToBaCCo'
  _symmetry_space_group_name_H-M    'P1'
  _symmetry_Int_Tables_number       1
  _symmetry_cell_setting            triclinic
  loop_
  _symmetry_equiv_pos_as_xyz
 x,y,z
_cell_length_a 51.4824
_cell_length_b 53.5724
_cell_length_c 52.6638
_cell_angle_alpha 90.008300
_cell_angle_beta 90.114700
_cell_angle_gamma 93.702200
loop_
  _atom_site_label
  _atom_site_type_symbol
  _atom_site_fract_x
  _atom_site_fract_y
  _atom_site_fract_z
N1 N 0.25165 0.23247 0.19251
 N2 N 0.25259 0.25693 0.18997
 C3 C 0.26793 0.26354 0.17000
 C4 C 0.27666 0.24192 0.15930
 C5 C 0.26579 0.22264 0.17408
 H6 H 0.27239 0.28256 0.16375
 H7 H 0.26889 0.20293 0.17236
 Cu8 Cu 0.23326 0.27721 0.21322
 Cu9 Cu 0.23419 0.21511 0.22081
 Cu10 Cu 0.22374 0.25373 0.27167
 N11 N 0.21157 0.29350 0.23784
 N12 N 0.20880 0.28451 0.26096
 C13 C 0.19296 0.29858 0.27419
 C14 C 0.18494 0.31743 0.25857
 C15 C 0.19724 0.31360 0.23552
 H16 H 0.18691 0.29451 0.29346
 H17 H 0.19563 0.32433 0.21827
 N18 N 0.22638 0.21754 0.27529
 N19 N 0.22873 0.20258 0.25566
 C20 C 0.22865 0.17882 0.26397
 C21 C 0.22611 0.17882 0.29019
 C22 C 0.22473 0.20378 0.29665
 H23 H 0.23101 0.16286 0.25183
 H24 H 0.22221 0.21143 0.31541
 H25 H 0.21208 0.24233 0.23688
 H26 H 0.24811 0.24476 0.24140
 N27 N 0.73789 -0.21900 0.19030
 N28 N 0.75384 -0.22997 0.17511
 C29 C 0.74383 -0.23090 0.15153
 C30 C 0.71991 -0.22032 0.15188
 C31 C 0.71686 -0.21292 0.17697
 H32 H 0.75276 -0.23994 0.13573
 H33 H 0.70074 -0.20365 0.18502
 Cu34 Cu 0.78491 -0.24453 0.18778
 Cu35 Cu 0.74663 -0.21316 0.22598
 Cu36 Cu 0.78467 -0.25859 0.25002
 N37 N 0.80775 -0.26842 0.20179
 N38 N 0.80732 -0.27438 0.22597
 C39 C 0.82328 -0.29296 0.22989
 C40 C 0.83427 -0.29918 0.20677
 C41 C 0.82394 -0.28291 0.18944
 H42 H 0.82597 -0.30166 0.24813
 H43 H 0.82693 -0.28216 0.16916
 N44 N 0.76608 -0.23553 0.27180
 N45 N 0.75211 -0.21779 0.26260
 C46 C 0.74363 -0.20404 0.28193
 C47 C 0.75266 -0.21361 0.30447
 C48 C 0.76678 -0.23360 0.29728
 H49 H 0.73196 -0.18811 0.27969
 H50 H 0.77771 -0.24522 0.30960
 H51 H 0.78445 -0.22583 0.22997
 H52 H 0.75624 -0.24897 0.22436
 N53 N 0.71902 0.20437 0.78255
 N54 N 0.72732 0.22671 0.79065
 C55 C 0.71502 0.23165 0.81248
 C56 C 0.69811 0.21126 0.81844
 C57 C 0.70134 0.19431 0.79896
 H58 H 0.71812 0.24883 0.82313
 H59 H 0.69116 0.17620 0.79639
 Cu60 Cu 0.75344 0.24709 0.77179
 Cu61 Cu 0.73118 0.18992 0.75103
 Cu62 Cu 0.76339 0.23247 0.71116
 N63 N 0.78274 0.26276 0.75282
 N64 N 0.78700 0.25586 0.72934
 C65 C 0.80864 0.26822 0.72060
 C66 C 0.81863 0.28415 0.73948
 C67 C 0.80142 0.28033 0.75969
 H68 H 0.81594 0.26617 0.70153
 H69 H 0.80277 0.28904 0.77821
 N70 N 0.74741 0.20053 0.69922
 N71 N 0.73645 0.18342 0.71447
 C72 C 0.72874 0.16309 0.70056
 C73 C 0.73498 0.16795 0.67534
 C74 C 0.74682 0.19184 0.67532
 H75 H 0.71874 0.14632 0.70807
 H76 H 0.75501 0.20199 0.65917
 H77 H 0.76448 0.21298 0.74381
 H78 H 0.73196 0.22471 0.73627
 N79 N 0.25398 -0.21030 0.80897
 N80 N 0.23642 -0.22798 0.81553
 C81 C 0.24436 -0.23929 0.83672
 C82 C 0.26827 -0.22809 0.84390
 C83 C 0.27367 -0.20967 0.82583
 H84 H 0.23381 -0.25501 0.84568
 H85 H 0.29121 -0.19754 0.82426
 Cu86 Cu 0.20607 -0.23614 0.79460
 Cu87 Cu 0.25116 -0.19110 0.77778
 Cu88 Cu 0.20246 -0.21188 0.73593
 N89 N 0.18252 -0.25098 0.76926
 N90 N 0.18116 -0.24157 0.74632
 C91 C 0.16444 -0.25625 0.73234
 C92 C 0.15481 -0.27616 0.74730
 C93 C 0.16680 -0.27196 0.77073
 H94 H 0.16026 -0.25287 0.71257
 H95 H 0.16500 -0.28354 0.78750
 N96 N 0.22626 -0.18225 0.72929
 N97 N 0.24489 -0.17444 0.74520
 C98 C 0.25842 -0.15458 0.73500
 C99 C 0.24783 -0.14958 0.71150
 C100 C 0.22740 -0.16748 0.70857
 H101 H 0.27487 -0.14458 0.74398
 H102 H 0.21476 -0.17002 0.69225
 H103 H 0.21143 -0.19685 0.77130
 H104 H 0.23266 -0.22126 0.75911
 N105 N 0.73626 -0.23813 0.81238
 N106 N 0.74678 -0.25606 0.82506
 C107 C 0.72875 -0.26768 0.84005
 C108 C 0.70567 -0.25628 0.83688
 C109 C 0.71113 -0.23737 0.81935
 H110 H 0.73227 -0.28318 0.85248
 H111 H 0.69771 -0.22458 0.81169
 Cu112 Cu 0.78304 -0.26275 0.82122
 Cu113 Cu 0.75633 -0.21852 0.78703
 Cu114 Cu 0.80709 -0.25138 0.76321
 N115 N 0.81447 -0.27717 0.81007
 N116 N 0.82307 -0.27403 0.78677
 C117 C 0.84253 -0.28923 0.78288
 C118 C 0.84649 -0.30248 0.80515
 C119 C 0.82837 -0.29398 0.82205
 H120 H 0.85265 -0.29069 0.76503
 H121 H 0.82407 -0.30083 0.84097
 N122 N 0.79371 -0.22193 0.74610
 N123 N 0.77443 -0.20945 0.75513
 C124 C 0.77038 -0.19015 0.73954
 C125 C 0.78826 -0.19025 0.71997
 C126 C 0.80274 -0.21063 0.72477
 H127 H 0.75594 -0.17667 0.74259
 H128 H 0.81878 -0.21670 0.71362
 H129 H 0.76984 -0.25178 0.77847
 H130 H 0.79509 -0.22883 0.79177
 N131 N 0.29956 0.27091 0.78380
 N132 N 0.28328 0.28325 0.79744
 C133 C 0.29655 0.29533 0.81638
 C134 C 0.32255 0.29062 0.81393
 C135 C 0.32374 0.27516 0.79308
 H136 H 0.28813 0.30726 0.83029
 H137 H 0.34091 0.26729 0.78545
 Cu138 Cu 0.24695 0.28404 0.78730
 Cu139 Cu 0.28857 0.24986 0.75523
 Cu140 Cu 0.22229 0.24187 0.74514
 N141 N 0.21466 0.28894 0.76905
 N142 N 0.20512 0.27230 0.75261
 C143 C 0.18355 0.28056 0.74194
 C144 C 0.17934 0.30380 0.75206
 C145 C 0.19944 0.30847 0.76937
 H146 H 0.17216 0.27052 0.72750
 H147 H 0.20331 0.32520 0.78062
 N148 N 0.24701 0.21982 0.73013
 N149 N 0.27235 0.22290 0.73394
 C150 C 0.28412 0.20486 0.72147
 C151 C 0.26529 0.19003 0.70885
 C152 C 0.24197 0.20009 0.71467
 H153 H 0.30489 0.20282 0.72132
 H154 H 0.22277 0.19349 0.70826
 H155 H 0.25410 0.26567 0.74572
 H156 H 0.25332 0.24187 0.77170
 N157 N 0.25459 -0.20910 0.19764
 N158 N 0.24092 -0.23033 0.19391
 C159 C 0.25435 -0.24506 0.17875
 C160 C 0.27761 -0.23219 0.17243
 C161 C 0.27702 -0.20933 0.18460
 H162 H 0.24769 -0.26374 0.17288
 H163 H 0.29221 -0.19440 0.18488
 Cu164 Cu 0.20705 -0.23674 0.20944
 Cu165 Cu 0.24281 -0.18369 0.22053
 Cu166 Cu 0.19488 -0.20557 0.26299
 N167 N 0.17930 -0.24816 0.23211
 N168 N 0.17488 -0.23633 0.25336
 C169 C 0.15583 -0.24926 0.26621
 C170 C 0.14794 -0.27039 0.25223
 C171 C 0.16332 -0.26895 0.23066
 H172 H 0.14858 -0.24382 0.28450
 H173 H 0.16372 -0.28248 0.21547
 N174 N 0.21721 -0.17466 0.26860
 N175 N 0.23503 -0.16623 0.25218
 C176 C 0.24819 -0.14596 0.26198
 C177 C 0.23817 -0.14128 0.28573
 C178 C 0.21842 -0.15975 0.28921
 H179 H 0.26452 -0.13595 0.25284
 H180 H 0.20671 -0.16282 0.30607
 H181 H 0.22843 -0.21247 0.24313
 H182 H 0.20345 -0.19446 0.22693
 N183 N 0.72137 0.19802 0.22267
 N184 N 0.72971 0.22052 0.21513
 C185 C 0.71522 0.22717 0.19516
 C186 C 0.69702 0.20763 0.18986
 C187 C 0.70150 0.18953 0.20779
 H188 H 0.71816 0.24458 0.18485
 H189 H 0.69103 0.17150 0.20996
 Cu190 Cu 0.75953 0.23839 0.23136
 Cu191 Cu 0.73635 0.18127 0.25142
 Cu192 Cu 0.79612 0.20678 0.27150
 N193 N 0.79500 0.25051 0.24015
 N194 N 0.80930 0.23745 0.25522
 C195 C 0.83284 0.24941 0.25806
 C196 C 0.83358 0.27127 0.24403
 C197 C 0.80909 0.27143 0.23292
 H198 H 0.84806 0.24290 0.27004
 H199 H 0.80210 0.28555 0.22042
 N200 N 0.78180 0.17365 0.28242
 N201 N 0.75865 0.16410 0.27538
 C202 C 0.75421 0.14152 0.28643
 C203 C 0.77577 0.13659 0.30093
 C204 C 0.79282 0.15739 0.29789
 H205 H 0.73679 0.12941 0.28381
 H206 H 0.81172 0.16062 0.30668
 H207 H 0.75660 0.21084 0.26895
 H208 H 0.77223 0.19654 0.24106
 C209 C 0.25399 0.03028 0.50245
 C210 C 0.25881 0.00559 0.50177
 C211 C 0.26228 -0.00865 0.52557
 C212 C 0.26119 -0.00817 0.47745
 C213 C 0.24663 0.04406 0.47933
 C214 C 0.25765 0.04475 0.52627
 C215 C 0.28523 -0.02077 0.52978
 C216 C 0.28848 -0.03427 0.55214
 C217 C 0.26865 -0.03615 0.57048
 C218 C 0.24557 -0.02418 0.56607
 C219 C 0.24242 -0.01054 0.54381
 C220 C 0.27744 0.00157 0.45798
 C221 C 0.27934 -0.01131 0.43508
 C222 C 0.26557 -0.03458 0.43140
 C223 C 0.24985 -0.04459 0.45123
 C224 C 0.24767 -0.03150 0.47399
 C225 C 0.22599 0.03477 0.46382
 C226 C 0.22075 0.04653 0.44087
 C227 C 0.23590 0.06795 0.43311
 C228 C 0.25582 0.07781 0.44922
 C229 C 0.26105 0.06603 0.47216
 C230 C 0.23642 0.05474 0.53829
 C231 C 0.23989 0.06753 0.56132
 C232 C 0.26479 0.07098 0.57243
 C233 C 0.28608 0.06137 0.55983
 C234 C 0.28249 0.04824 0.53709
 H235 H 0.30067 -0.01963 0.51580
 H236 H 0.30632 -0.04359 0.55492
 H237 H 0.23005 -0.02520 0.57996
 H238 H 0.22442 -0.00157 0.54071
 H239 H 0.28863 0.01922 0.46046
 H240 H 0.29142 -0.00288 0.42020
 H241 H 0.23530 -0.03954 0.48889
 H242 H 0.21431 0.01810 0.46925
 H243 H 0.20496 0.03877 0.42911
 H244 H 0.26799 0.09413 0.44368
 H245 H 0.27705 0.07351 0.48385
 H246 H 0.21711 0.05211 0.53013
 H247 H 0.22299 0.07433 0.57060
 H248 H 0.30562 0.06420 0.56735
 H249 H 0.29912 0.04083 0.52783
 H250 H 0.23944 -0.06270 0.44931
 C251 C 0.74480 -0.02505 0.50059
 C252 C 0.74551 -0.04959 0.50714
 C253 C 0.74465 -0.06993 0.48773
 C254 C 0.75040 -0.05730 0.53377
 C255 C 0.74347 -0.00496 0.52009
 C256 C 0.74771 -0.01644 0.47374
 C257 C 0.72521 -0.07189 0.46891
 C258 C 0.72456 -0.09146 0.45121
 C259 C 0.74308 -0.10961 0.45231
 C260 C 0.76248 -0.10754 0.47111
 C261 C 0.76327 -0.08795 0.48857
 C262 C 0.73521 -0.07722 0.54461
 C263 C 0.74275 -0.08792 0.56745
 C264 C 0.76577 -0.07902 0.57977
 C265 C 0.78016 -0.05818 0.56960
 C266 C 0.77263 -0.04751 0.54676
 C267 C 0.76055 0.01650 0.51837
 C268 C 0.75754 0.03695 0.53419
 C269 C 0.73757 0.03634 0.55229
 C270 C 0.72128 0.01446 0.55507
 C271 C 0.72407 -0.00600 0.53891
 C272 C 0.76862 -0.02355 0.45887
 C273 C 0.77419 -0.01189 0.43561
 C274 C 0.75954 0.00778 0.42706
 C275 C 0.73787 0.01402 0.44142
 C276 C 0.73196 0.00195 0.46441
 H277 H 0.71041 -0.05842 0.46808
 H278 H 0.70928 -0.09273 0.43702
 H279 H 0.77726 -0.12101 0.47216
 H280 H 0.77858 -0.08680 0.50273
 H281 H 0.71818 -0.08523 0.53473
 H282 H 0.73141 -0.10411 0.57465
 H283 H 0.78498 -0.03252 0.53853
 H284 H 0.77580 0.01771 0.50420
 H285 H 0.77047 0.05357 0.53190
 H286 H 0.70567 0.01369 0.56885
 H287 H 0.71049 -0.02223 0.54044
 H288 H 0.78150 -0.03723 0.46581
 H289 H 0.79068 -0.01761 0.42485
 H290 H 0.72631 0.02926 0.43575
 H291 H 0.71589 0.00794 0.47564
 H292 H 0.79783 -0.05074 0.57881
 C293 C 0.50278 0.25877 0.01714
 C294 C 0.50868 0.26264 -0.00791
 C295 C 0.53365 0.25512 -0.01917
 C296 C 0.48936 0.27195 -0.02622
 C297 C 0.47541 0.25841 0.02661
 C298 C 0.52289 0.25145 0.03565
 C299 C 0.54687 0.27067 -0.03705
 C300 C 0.56708 0.26187 -0.05157
 C301 C 0.57485 0.23735 -0.04830
 C302 C 0.56272 0.22242 -0.02916
 C303 C 0.54205 0.23098 -0.01518
 C304 C 0.47576 0.29336 -0.02112
 C305 C 0.45854 0.30224 -0.03916
 C306 C 0.45516 0.29008 -0.06263
 C307 C 0.46851 0.26867 -0.06764
 C308 C 0.48529 0.25959 -0.04958
 C309 C 0.45533 0.24446 0.01389
 C310 C 0.43039 0.24168 0.02425
 C311 C 0.42504 0.25192 0.04815
 C312 C 0.44503 0.26631 0.06067
 C313 C 0.46990 0.26955 0.04998
 C314 C 0.51791 0.23025 0.05096
 C315 C 0.53708 0.22208 0.06713
 C316 C 0.56176 0.23489 0.06840
 C317 C 0.56646 0.25670 0.05382
 C318 C 0.54716 0.26495 0.03763
 H319 H 0.54058 0.28925 -0.04073
 H320 H 0.57558 0.27388 -0.06627
 H321 H 0.56851 0.20369 -0.02554
 H322 H 0.53185 0.21825 -0.00210
 H323 H 0.47878 0.30336 -0.00338
 H324 H 0.44843 0.31889 -0.03513
 H325 H 0.49531 0.24295 -0.05394
 H326 H 0.45910 0.23494 -0.00373
 H327 H 0.41545 0.23091 0.01376
 H328 H 0.44184 0.27417 0.07925
 H329 H 0.48513 0.28008 0.06036
 H330 H 0.49934 0.21957 0.04990
 H331 H 0.53264 0.20555 0.07855
 H332 H 0.58528 0.26695 0.05436
 H333 H 0.55132 0.28157 0.02627
 H334 H 0.46602 0.25906 -0.08567
 C335 C 0.49212 0.76170 0.01493
 C336 C 0.48936 0.75775 -0.01055
 C337 C 0.51186 0.75298 -0.02708
 C338 C 0.46329 0.75605 -0.02279
 C339 C 0.46931 0.75832 0.03220
 C340 C 0.51813 0.76767 0.02677
 C341 C 0.51507 0.76532 -0.05048
 C342 C 0.53531 0.75977 -0.06676
 C343 C 0.55260 0.74161 -0.05999
 C344 C 0.54938 0.72937 -0.03649
 C345 C 0.52911 0.73484 -0.02031
 C346 C 0.44661 0.77565 -0.02049
 C347 C 0.42207 0.77384 -0.03200
 C348 C 0.41378 0.75230 -0.04576
 C349 C 0.43053 0.73276 -0.04807
 C350 C 0.45517 0.73472 -0.03688
 C351 C 0.45281 0.73644 0.03093
 C352 C 0.43162 0.73298 0.04725
 C353 C 0.42687 0.75094 0.06585
 C354 C 0.44378 0.77262 0.06748
 C355 C 0.46478 0.77627 0.05079
 C356 C 0.52512 0.75545 0.04914
 C357 C 0.54987 0.76007 0.05972
 C358 C 0.56819 0.77682 0.04798
 C359 C 0.56103 0.78961 0.02606
 C360 C 0.53610 0.78537 0.01578
 H361 H 0.50177 0.77915 -0.05620
 H362 H 0.53711 0.76930 -0.08486
 H363 H 0.56258 0.71553 -0.03057
 H364 H 0.52668 0.72468 -0.00261
 H365 H 0.45266 0.79234 -0.00985
 H366 H 0.40945 0.78911 -0.02995
 H367 H 0.46780 0.71943 -0.03889
 H368 H 0.45638 0.72194 0.01729
 H369 H 0.41887 0.71623 0.04513
 H370 H 0.44105 0.78662 0.08188
 H371 H 0.47755 0.79308 0.05239
 H372 H 0.51164 0.74182 0.05809
 H373 H 0.55503 0.74989 0.07656
 H374 H 0.57479 0.80281 0.01687
 H375 H 0.53097 0.79562 -0.00103
 H376 H 0.42469 0.71611 -0.05886
 C377 C 0.00692 0.50148 0.24504
 C378 C -0.01842 0.49702 0.23771
 C379 C -0.03171 0.47151 0.23884
 C380 C -0.03406 0.51773 0.22876
 C381 C 0.01841 0.52739 0.24909
 C382 C 0.02434 0.48089 0.25020
 C383 C -0.04641 0.46204 0.21806
 C384 C -0.05842 0.43786 0.21883
 C385 C -0.05578 0.42275 0.24033
 C386 C -0.04177 0.43252 0.26139
 C387 C -0.03015 0.45677 0.26078
 C388 C -0.02464 0.53399 0.20949
 C389 C -0.03869 0.55421 0.20209
 C390 C -0.06268 0.55843 0.21354
 C391 C -0.07243 0.54169 0.23233
 C392 C -0.05829 0.52149 0.23980
 C393 C 0.00636 0.54402 0.26521
 C394 C 0.01780 0.56798 0.26968
 C395 C 0.04176 0.57565 0.25844
 C396 C 0.05385 0.55887 0.24244
 C397 C 0.04230 0.53499 0.23785
 C398 C 0.03916 0.48131 0.27260
 C399 C 0.05609 0.46260 0.27755
 C400 C 0.05861 0.44292 0.26025
 C401 C 0.04400 0.44264 0.23763
 C402 C 0.02713 0.46152 0.23259
 H403 H -0.04816 0.47319 0.20106
 H404 H -0.06913 0.43070 0.20237
 H405 H -0.03989 0.42137 0.27837
 H406 H -0.01971 0.46396 0.27738
 H407 H -0.00618 0.53120 0.20043
 H408 H -0.03049 0.56684 0.18774
 H409 H -0.06601 0.50906 0.25456
 H410 H -0.01180 0.53835 0.27454
 H411 H 0.00788 0.58051 0.28191
 H412 H 0.07254 0.56398 0.23389
 H413 H 0.05208 0.52234 0.22561
 H414 H 0.03757 0.49618 0.28634
 H415 H 0.06746 0.46373 0.29488
 H416 H 0.04539 0.42768 0.22396
 H417 H 0.01630 0.46107 0.21493
 H418 H -0.09105 0.54414 0.24119
 C419 C 0.01321 0.49648 0.75274
 C420 C -0.01215 0.49337 0.75993
 C421 C -0.02700 0.46895 0.75654
 C422 C -0.02632 0.51450 0.76989
 C423 C 0.02622 0.52174 0.74861
 C424 C 0.02880 0.47456 0.74819
 C425 C -0.02984 0.45860 0.73220
 C426 C -0.04369 0.43565 0.72863
 C427 C -0.05474 0.42229 0.74941
 C428 C -0.05214 0.43294 0.77381
 C429 C -0.03856 0.45621 0.77730
 C430 C -0.04966 0.52082 0.75850
 C431 C -0.06242 0.54140 0.76722
 C432 C -0.05229 0.55568 0.78777
 C433 C -0.02921 0.54899 0.79948
 C434 C -0.01630 0.52861 0.79057
 C435 C 0.05081 0.52799 0.75919
 C436 C 0.06342 0.55145 0.75463
 C437 C 0.05174 0.56906 0.73925
 C438 C 0.02716 0.56268 0.72858
 C439 C 0.01462 0.53921 0.73307
 C440 C 0.03130 0.45664 0.76734
 C441 C 0.04635 0.43625 0.76332
 C442 C 0.05907 0.43337 0.74003
 C443 C 0.05655 0.45133 0.72088
 C444 C 0.04170 0.47188 0.72502
 H445 H -0.02146 0.46846 0.71590
 H446 H -0.04595 0.42853 0.70947
 H447 H -0.06019 0.42315 0.79026
 H448 H -0.03662 0.46404 0.79622
 H449 H -0.05769 0.51013 0.74255
 H450 H -0.08035 0.54603 0.75808
 H451 H 0.00159 0.52387 0.79972
 H452 H 0.06024 0.51468 0.77098
 H453 H 0.08253 0.55564 0.76279
 H454 H 0.01753 0.57588 0.71684
 H455 H -0.00407 0.53460 0.72421
 H456 H 0.02173 0.45858 0.78546
 H457 H 0.04785 0.42258 0.77831
 H458 H 0.06638 0.44964 0.70286
 H459 H 0.04009 0.48561 0.71009
 H460 H -0.02098 0.55976 0.81529
 C461 C 0.33235 0.25419 0.11309
 C462 C 0.33171 0.23153 0.10077
 C463 C 0.31308 0.21225 0.10573
 C464 C 0.29455 0.21630 0.12448
 C465 C 0.29494 0.23931 0.13792
 C466 C 0.31390 0.25872 0.13175
 O467 O 0.35248 0.26951 0.10625
 C468 C 0.36480 0.25613 0.08933
 C469 C 0.35282 0.23279 0.08535
 C470 C 0.36297 0.21520 0.06946
 C471 C 0.38650 0.22186 0.05716
 C472 C 0.39942 0.24591 0.06066
 C473 C 0.38816 0.26332 0.07702
 H474 H 0.31310 0.19453 0.09585
 H475 H 0.28007 0.20133 0.12868
 H476 H 0.31500 0.27632 0.14192
 H477 H 0.35341 0.19675 0.06707
 H478 H 0.39497 0.20789 0.04550
 H479 H 0.39736 0.28177 0.08029
 C480 C 0.65866 0.78572 0.11547
 C481 C 0.66724 0.78164 0.09122
 C482 C 0.69292 0.77730 0.08577
 C483 C 0.71047 0.77691 0.10615
 C484 C 0.70228 0.78121 0.13153
 C485 C 0.67589 0.78613 0.13598
 O486 O 0.63312 0.78774 0.11676
 C487 C 0.62546 0.78494 0.09278
 C488 C 0.64563 0.78140 0.07635
 C489 C 0.64192 0.77745 0.05046
 C490 C 0.61632 0.77689 0.04115
 C491 C 0.59512 0.77981 0.05782
 C492 C 0.59983 0.78410 0.08399
 H493 H 0.69915 0.77383 0.06654
 H494 H 0.73045 0.77344 0.10189
 H495 H 0.66850 0.78894 0.15490
 H496 H 0.65809 0.77454 0.03793
 H497 H 0.61290 0.77333 0.02114
 H498 H 0.58399 0.78629 0.09713
 C499 C 0.65596 0.22588 -0.12510
 C500 C 0.64313 0.20292 -0.12115
 C501 C 0.64784 0.18197 -0.13554
 C502 C 0.66637 0.18482 -0.15499
 C503 C 0.67969 0.20840 -0.15988
 C504 C 0.67449 0.22917 -0.14438
 O505 O 0.64789 0.24356 -0.10984
 C506 C 0.62949 0.23147 -0.09606
 C507 C 0.62585 0.20658 -0.10228
 C508 C 0.60672 0.19070 -0.09121
 C509 C 0.59049 0.20092 -0.07314
 C510 C 0.59370 0.22662 -0.06617
 C511 C 0.61385 0.24197 -0.07778
 H512 H 0.63741 0.16411 -0.13211
 H513 H 0.67008 0.16856 -0.16625
 H514 H 0.68394 0.24751 -0.14759
 H515 H 0.60391 0.17127 -0.09681
 H516 H 0.57483 0.18886 -0.06535
 H517 H 0.61706 0.26159 -0.07310
 C518 C 0.32450 0.77129 -0.10991
 C519 C 0.31989 0.74813 -0.09898
 C520 C 0.29836 0.73228 -0.10511
 C521 C 0.28103 0.74052 -0.12346
 C522 C 0.28560 0.76419 -0.13541
 C523 C 0.30759 0.77985 -0.12817
 O524 O 0.34651 0.78314 -0.10211
 C525 C 0.35607 0.76705 -0.08598
 C526 C 0.34057 0.74531 -0.08341
 C527 C 0.34756 0.72544 -0.06840
 C528 C 0.37160 0.72806 -0.05571
 C529 C 0.38793 0.75030 -0.05814
 C530 C 0.37985 0.77017 -0.07331
 H531 H 0.29523 0.71404 -0.09640
 H532 H 0.26452 0.72810 -0.12874
 H533 H 0.31177 0.79802 -0.13672
 H534 H 0.33518 0.70841 -0.06686
 H535 H 0.37757 0.71276 -0.04408
 H536 H 0.39214 0.78715 -0.07589
 C537 C 0.13665 0.36789 0.25312
 C538 C 0.12877 0.36938 0.27796
 C539 C 0.13886 0.35523 0.29725
 C540 C 0.15767 0.33862 0.29067
 C541 C 0.16596 0.33621 0.26508
 C542 C 0.15535 0.35137 0.24608
 O543 O 0.12461 0.38316 0.23781
 C544 C 0.10877 0.39444 0.25338
 C545 C 0.11058 0.38659 0.27813
 C546 C 0.09572 0.39575 0.29760
 C547 C 0.07842 0.41397 0.29138
 C548 C 0.07636 0.42283 0.26606
 C549 C 0.09172 0.41266 0.24676
 H550 H 0.13246 0.35690 0.31670
 H551 H 0.16561 0.32767 0.30570
 H552 H 0.16107 0.35015 0.22639
 H553 H 0.09736 0.38909 0.31690
 H554 H 0.06652 0.42108 0.30633
 H555 H 0.09086 0.41908 0.22731
 C556 C 0.11429 0.66379 0.74985
 C557 C 0.10531 0.66219 0.72530
 C558 C 0.11154 0.68052 0.70727
 C559 C 0.12784 0.70126 0.71481
 C560 C 0.13774 0.70336 0.74008
 C561 C 0.13046 0.68416 0.75779
 O562 O 0.10635 0.64430 0.76401
 C563 C 0.09208 0.63003 0.74802
 C564 C 0.09078 0.64010 0.72407
 C565 C 0.07710 0.62806 0.70432
 C566 C 0.06425 0.60468 0.70949
 C567 C 0.06526 0.59387 0.73409
 C568 C 0.07942 0.60690 0.75360
 H569 H 0.10425 0.67886 0.68802
 H570 H 0.13274 0.71540 0.70069
 H571 H 0.13722 0.68462 0.77723
 H572 H 0.07650 0.63625 0.68556
 H573 H 0.05388 0.59486 0.69420
 H574 H 0.08042 0.59938 0.77262
 C575 C -0.12558 0.64593 0.21533
 C576 C -0.11806 0.64206 0.19072
 C577 C -0.12504 0.65720 0.17079
 C578 C -0.14063 0.67701 0.17637
 C579 C -0.14916 0.68140 0.20164
 C580 C -0.14111 0.66550 0.22138
 O581 O -0.11686 0.62934 0.23148
 C582 C -0.10361 0.61466 0.21666
 C583 C -0.10376 0.62163 0.19155
 C584 C -0.09129 0.60873 0.17273
 C585 C -0.07800 0.58783 0.18012
 C586 C -0.07731 0.58029 0.20598
 C587 C -0.09045 0.59401 0.22446
 H588 H -0.11880 0.65381 0.15154
 H589 H -0.14603 0.68864 0.16072
 H590 H -0.14683 0.66789 0.24092
 H591 H -0.09184 0.61448 0.15305
 H592 H -0.06848 0.57740 0.16563
 H593 H -0.09012 0.58902 0.24437
 C594 C -0.13244 0.33704 0.75202
 C595 C -0.11487 0.33310 0.73307
 C596 C -0.11802 0.31344 0.71598
 C597 C -0.14031 0.29721 0.71834
 C598 C -0.15884 0.30045 0.73795
 C599 C -0.15442 0.32060 0.75531
 O600 O -0.12660 0.35791 0.76507
 C601 C -0.10481 0.36719 0.75413
 C602 C -0.09672 0.35253 0.73463
 C603 C -0.07469 0.35879 0.72026
 C604 C -0.06054 0.38132 0.72594
 C605 C -0.06888 0.39746 0.74532
 C606 C -0.09123 0.38994 0.75988
 H607 H -0.10405 0.31095 0.70100
 H608 H -0.14268 0.28189 0.70500
 H609 H -0.16818 0.32419 0.77017
 H610 H -0.06867 0.34682 0.70510
 H611 H -0.04314 0.38620 0.71506
 H612 H -0.09845 0.40179 0.77456
 C613 C 0.22871 0.13959 0.34974
 C614 C 0.22460 0.11591 0.33986
 C615 C 0.22075 0.11147 0.31407
 C616 C 0.22118 0.13230 0.29782
 C617 C 0.22541 0.15698 0.30755
 C618 C 0.22916 0.16052 0.33400
 O619 O 0.23241 0.13977 0.37469
 C620 C 0.23060 0.11567 0.38069
 C621 C 0.22579 0.10027 0.36009
 C622 C 0.22355 0.07434 0.36209
 C623 C 0.22652 0.06388 0.38629
 C624 C 0.23165 0.07937 0.40787
 C625 C 0.23358 0.10569 0.40489
 H626 H 0.21760 0.09266 0.30670
 H627 H 0.21806 0.12908 0.27774
 H628 H 0.23275 0.17894 0.34217
 H629 H 0.21994 0.06258 0.34558
 H630 H 0.22544 0.04371 0.38808
 H631 H 0.23732 0.11807 0.42092
 C632 C 0.72854 0.11106 0.63254
 C633 C 0.72639 0.12254 0.60934
 C634 C 0.72575 0.14826 0.60659
 C635 C 0.72781 0.16288 0.62863
 C636 C 0.73047 0.15168 0.65285
 C637 C 0.73034 0.12529 0.65485
 O638 O 0.73028 0.08646 0.63067
 C639 C 0.72929 0.08241 0.60575
 C640 C 0.72690 0.10394 0.59193
 C641 C 0.72704 0.10444 0.56556
 C642 C 0.73002 0.08185 0.55284
 C643 C 0.73272 0.05936 0.56653
 C644 C 0.73193 0.05956 0.59341
 H645 H 0.72428 0.15683 0.58807
 H646 H 0.72761 0.18298 0.62674
 H647 H 0.73281 0.11625 0.67300
 H648 H 0.72547 0.12170 0.55516
 H649 H 0.73051 0.08187 0.53227
 H650 H 0.73440 0.04272 0.60428
 C651 C 0.25040 -0.10545 0.65541
 C652 C 0.27514 -0.09442 0.65791
 C653 C 0.29176 -0.10028 0.67755
 C654 C 0.28252 -0.11829 0.69529
 C655 C 0.25710 -0.13012 0.69304
 C656 C 0.24086 -0.12343 0.67274
 O657 O 0.23777 -0.09739 0.63534
 C658 C 0.25493 -0.08095 0.62490
 C659 C 0.27815 -0.07846 0.63791
 C660 C 0.29897 -0.06254 0.62996
 C661 C 0.29570 -0.04864 0.60769
 C662 C 0.27187 -0.05082 0.59399
 C663 C 0.25121 -0.06723 0.60286
 H664 H 0.31119 -0.09142 0.67910
 H665 H 0.29541 -0.12324 0.71045
 H666 H 0.22133 -0.13186 0.67043
 H667 H 0.31708 -0.06093 0.64047
 H668 H 0.31160 -0.03602 0.60124
 H669 H 0.23294 -0.06958 0.59266
 C670 C 0.74232 -0.16963 0.35926
 C671 C 0.74603 -0.18517 0.37954
 C672 C 0.75136 -0.21012 0.37665
 C673 C 0.75310 -0.21941 0.35183
 C674 C 0.74949 -0.20377 0.33051
 C675 C 0.74375 -0.17853 0.33442
 O676 O 0.73862 -0.14627 0.36613
 C677 C 0.74004 -0.14708 0.39130
 C678 C 0.74451 -0.17048 0.40044
 C679 C 0.74770 -0.17537 0.42613
 C680 C 0.74655 -0.15528 0.44309
 C681 C 0.74233 -0.13084 0.43417
 C682 C 0.73866 -0.12683 0.40786
 H683 H 0.75443 -0.22194 0.39291
 H684 H 0.75731 -0.23878 0.34929
 H685 H 0.74133 -0.16593 0.31866
 H686 H 0.75133 -0.19392 0.43286
 H687 H 0.74913 -0.15871 0.46317
 H688 H 0.73584 -0.10836 0.40043
 C689 C 0.64175 0.74788 -0.12906
 C690 C 0.63635 0.72315 -0.12281
 C691 C 0.65219 0.70432 -0.12991
 C692 C 0.67473 0.71131 -0.14374
 C693 C 0.68083 0.73670 -0.15034
 C694 C 0.66382 0.75518 -0.14325
 O695 O 0.62504 0.76297 -0.11908
 C696 C 0.60877 0.74742 -0.10626
 C697 C 0.61479 0.72285 -0.10803
 C698 C 0.60094 0.70356 -0.09532
 C699 C 0.58015 0.70989 -0.07996
 C700 C 0.57377 0.73518 -0.07739
 C701 C 0.58820 0.75415 -0.09105
 H702 H 0.64769 0.68504 -0.12448
 H703 H 0.68753 0.69696 -0.14915
 H704 H 0.66828 0.77475 -0.14759
 H705 H 0.60613 0.68437 -0.09695
 H706 H 0.56907 0.69507 -0.07002
 H707 H 0.58416 0.77365 -0.08921
 C708 C 0.36739 0.30181 -0.13013
 C709 C 0.38976 0.31054 -0.14239
 C710 C 0.39084 0.31457 -0.16846
 C711 C 0.36807 0.30896 -0.18253
 C712 C 0.34484 0.29980 -0.17039
 C713 C 0.34430 0.29674 -0.14373
 O714 O 0.37132 0.29641 -0.10585
 C715 C 0.39670 0.30176 -0.10277
 C716 C 0.40883 0.31061 -0.12456
 C717 C 0.43568 0.31495 -0.12644
 C718 C 0.45071 0.30948 -0.10517
 C719 C 0.43872 0.29991 -0.08270
 C720 C 0.41131 0.29648 -0.08125
 H721 H 0.40884 0.32074 -0.17778
 H722 H 0.36868 0.31105 -0.20298
 H723 H 0.32704 0.28885 -0.13421
 H724 H 0.44480 0.32127 -0.14399
 H725 H 0.47173 0.31168 -0.10647
 H726 H 0.40189 0.28828 -0.06460
 C727 C 0.33663 0.76655 0.13029
 C728 C 0.34013 0.74132 0.12970
 C729 C 0.32367 0.72379 0.14221
 C730 C 0.30284 0.73266 0.15599
 C731 C 0.29910 0.75866 0.15722
 C732 C 0.31630 0.77579 0.14413
 O733 O 0.35411 0.78002 0.11672
 C734 C 0.36906 0.76293 0.10747
 C735 C 0.36144 0.73899 0.11495
 C736 C 0.37457 0.71831 0.10766
 C737 C 0.39634 0.72246 0.09187
 C738 C 0.40436 0.74697 0.08339
 C739 C 0.39041 0.76747 0.09152
 H740 H 0.32674 0.70401 0.14138
 H741 H 0.28996 0.71932 0.16604
 H742 H 0.31381 0.79570 0.14448
 H743 H 0.36839 0.69966 0.11402
 H744 H 0.40702 0.70655 0.08646
 H745 H 0.39564 0.78637 0.08528
 C746 C 0.64762 0.22466 0.14047
 C747 C 0.63915 0.20123 0.13204
 C748 C 0.64897 0.17945 0.14128
 C749 C 0.66822 0.18187 0.16014
 C750 C 0.67735 0.20580 0.16929
 C751 C 0.66702 0.22753 0.15905
 O752 O 0.63500 0.24282 0.12976
 C753 C 0.61824 0.23055 0.11425
 C754 C 0.62009 0.20507 0.11492
 C755 C 0.60410 0.18854 0.10066
 C756 C 0.58527 0.19866 0.08516
 C757 C 0.58258 0.22488 0.08430
 C758 C 0.59959 0.24105 0.09894
 H759 H 0.64187 0.16122 0.13442
 H760 H 0.67604 0.16506 0.16752
 H761 H 0.67333 0.24602 0.16585
 H762 H 0.60597 0.16855 0.10152
 H763 H 0.57282 0.18601 0.07376
 H764 H 0.59791 0.26109 0.09896
 C765 C -0.10964 0.64631 0.79319
 C766 C -0.10662 0.63754 0.81746
 C767 C -0.11779 0.64827 0.83843
 C768 C -0.13304 0.66864 0.83420
 C769 C -0.13675 0.67812 0.80925
 C770 C -0.12425 0.66689 0.78855
 O771 O -0.09850 0.63267 0.77576
 C772 C -0.08821 0.61492 0.78937
 C773 C -0.09248 0.61714 0.81502
 C774 C -0.08383 0.60026 0.83270
 C775 C -0.07024 0.58024 0.82356
 C776 C -0.06591 0.57733 0.79715
 C777 C -0.07500 0.59503 0.77985
 H778 H -0.11525 0.64094 0.85736
 H779 H -0.14180 0.67690 0.85055
 H780 H -0.12669 0.67303 0.76918
 H781 H -0.08759 0.60232 0.85278
 H782 H -0.06359 0.56670 0.83696
 H783 H -0.07189 0.59333 0.75961
 C784 C -0.12682 0.33287 0.23571
 C785 C -0.10271 0.32602 0.24327
 C786 C -0.09794 0.30175 0.25020
 C787 C -0.11895 0.28380 0.24967
 C788 C -0.14426 0.29032 0.24247
 C789 C -0.14809 0.31525 0.23500
 O790 O -0.12723 0.35714 0.23065
 C791 C -0.10287 0.36575 0.23520
 C792 C -0.08713 0.34743 0.24303
 C793 C -0.06121 0.35236 0.24986
 C794 C -0.05109 0.37727 0.24871
 C795 C -0.06685 0.39657 0.24070
 C796 C -0.09309 0.39065 0.23359
 H797 H -0.07877 0.29686 0.25611
 H798 H -0.11538 0.26484 0.25505
 H799 H -0.16712 0.32098 0.22967
 H800 H -0.04930 0.33763 0.25617
 H801 H -0.03096 0.38155 0.25402
 H802 H -0.10563 0.40506 0.22773
 C803 C 0.13331 0.35603 0.75269
 C804 C 0.12134 0.35250 0.72948
 C805 C 0.12713 0.33339 0.71301
 C806 C 0.14609 0.31730 0.72074
 C807 C 0.15895 0.32064 0.74452
 C808 C 0.15235 0.34036 0.76069
 O809 O 0.12492 0.37525 0.76552
 C810 C 0.10732 0.38407 0.75003
 C811 C 0.10445 0.37089 0.72768
 C812 C 0.08731 0.37718 0.70862
 C813 C 0.07251 0.39791 0.71279
 C814 C 0.07497 0.41170 0.73578
 C815 C 0.09266 0.40457 0.75465
 H816 H 0.11746 0.33100 0.69482
 H817 H 0.15099 0.30255 0.70793
 H818 H 0.16158 0.34338 0.77901
 H819 H 0.08542 0.36655 0.69116
 H820 H 0.05889 0.40304 0.69829
 H821 H 0.09517 0.41489 0.77226
 C822 C 0.10358 0.67073 0.24879
 C823 C 0.09490 0.66884 0.27343
 C824 C 0.10217 0.68651 0.29189
 C825 C 0.11925 0.70680 0.28469
 C826 C 0.12876 0.70898 0.25941
 C827 C 0.12045 0.69067 0.24123
 O828 O 0.09503 0.65169 0.23429
 C829 C 0.08070 0.63738 0.25012
 C830 C 0.07993 0.64698 0.27431
 C831 C 0.06664 0.63453 0.29402
 C832 C 0.05379 0.61119 0.28857
 C833 C 0.05443 0.60081 0.26375
 C834 C 0.06798 0.61436 0.24427
 H835 H 0.09524 0.68459 0.31122
 H836 H 0.12543 0.72040 0.29900
 H837 H 0.12707 0.69161 0.22176
 H838 H 0.06651 0.64229 0.31299
 H839 H 0.04392 0.60096 0.30385
 H840 H 0.06879 0.60717 0.22510
 C841 C 0.77453 -0.14288 0.66932
 C842 C 0.79882 -0.13897 0.65867
 C843 C 0.82032 -0.15102 0.66716
 C844 C 0.81663 -0.16785 0.68744
 C845 C 0.79180 -0.17214 0.69889
 C846 C 0.77050 -0.15927 0.68975
 O847 O 0.75648 -0.13046 0.65762
 C848 C 0.76969 -0.11843 0.63921
 C849 C 0.79570 -0.12290 0.63914
 C850 C 0.81299 -0.11278 0.62110
 C851 C 0.80303 -0.09764 0.60217
 C852 C 0.77616 -0.09302 0.60147
 C853 C 0.75933 -0.10346 0.62050
 H854 H 0.83920 -0.14780 0.65831
 H855 H 0.83317 -0.17739 0.69430
 H856 H 0.75124 -0.16242 0.69780
 H857 H 0.83333 -0.11679 0.62130
 H858 H 0.81611 -0.09030 0.58751
 H859 H 0.73875 -0.10040 0.62049
 C860 C 0.24282 -0.09848 0.34273
 C861 C 0.26831 -0.08926 0.34108
 C862 C 0.28468 -0.09563 0.32149
 C863 C 0.27443 -0.11241 0.30300
 C864 C 0.24828 -0.12253 0.30451
 C865 C 0.23226 -0.11524 0.32465
 O866 O 0.23061 -0.09025 0.36294
 C867 C 0.24885 -0.07562 0.37437
 C868 C 0.27228 -0.07443 0.36183
 C869 C 0.29421 -0.06074 0.37091
 C870 C 0.29185 -0.04771 0.39383
 C871 C 0.26778 -0.04841 0.40710
 C872 C 0.24597 -0.06261 0.39700
 H873 H 0.30470 -0.08816 0.32060
 H874 H 0.28712 -0.11796 0.28796
 H875 H 0.21222 -0.12246 0.32633
 H876 H 0.31256 -0.06036 0.36089
 H877 H 0.30894 -0.03747 0.40142
 H878 H 0.22724 -0.06346 0.40634
 C879 C 0.76323 0.08030 0.34357
 C880 C 0.78833 0.07523 0.34968
 C881 C 0.80995 0.08875 0.33986
 C882 C 0.80555 0.10851 0.32328
 C883 C 0.77985 0.11443 0.31688
 C884 C 0.75839 0.09977 0.32691
 O885 O 0.74548 0.06622 0.35627
 C886 C 0.75972 0.05205 0.37077
 C887 C 0.78603 0.05682 0.36738
 C888 C 0.80451 0.04538 0.38177
 C889 C 0.79554 0.02860 0.40071
 C890 C 0.76844 0.02340 0.40492
 C891 C 0.75033 0.03513 0.38927
 H892 H 0.82952 0.08457 0.34518
 H893 H 0.82223 0.11931 0.31564
 H894 H 0.73855 0.10406 0.32283
 H895 H 0.82513 0.04987 0.37911
 H896 H 0.80985 0.02058 0.41280
 H897 H 0.72954 0.03180 0.39186
 C898 C 0.25852 0.14381 0.65496
 C899 C 0.27803 0.12838 0.66081
 C900 C 0.29396 0.13205 0.68202
 C901 C 0.28962 0.15248 0.69781
 C902 C 0.26937 0.16842 0.69234
 C903 C 0.25350 0.16387 0.67068
 O904 O 0.24643 0.13782 0.63333
 C905 C 0.25848 0.11810 0.62539
 C906 C 0.27782 0.11144 0.64160
 C907 C 0.29295 0.09141 0.63685
 C908 C 0.28811 0.07783 0.61436
 C909 C 0.26871 0.08471 0.59687
 C910 C 0.25358 0.10512 0.60277
 H911 H 0.30939 0.11983 0.68608
 H912 H 0.30187 0.15579 0.71436
 H913 H 0.23821 0.17599 0.66581
 H914 H 0.30795 0.08640 0.64999
 H915 H 0.29949 0.06194 0.61067
 H916 H 0.23892 0.11127 0.58986
   
