data_POSCAR
  _audit_creation_date              2014-09-24
  _audit_creation_method            'ToBaCCo'
  _symmetry_space_group_name_H-M    'P1'
  _symmetry_Int_Tables_number       1
  _symmetry_cell_setting            triclinic
  loop_
  _symmetry_equiv_pos_as_xyz
 x,y,z
_cell_length_a 45.3119
_cell_length_b 46.6850
_cell_length_c 43.2601
_cell_angle_alpha 91.070900
_cell_angle_beta 89.004600
_cell_angle_gamma 91.544800
loop_
  _atom_site_label
  _atom_site_type_symbol
  _atom_site_fract_x
  _atom_site_fract_y
  _atom_site_fract_z
N1 N 0.16628 0.17964 0.22791
 N2 N 0.18443 0.15840 0.22324
 C3 C 0.17760 0.13740 0.24328
 C4 C 0.15403 0.14620 0.26132
 C5 C 0.14736 0.17304 0.25119
 H6 H 0.18894 0.11738 0.24473
 H7 H 0.13007 0.18670 0.25993
 Cu8 Cu 0.21555 0.16081 0.19187
 Cu9 Cu 0.16910 0.21446 0.20383
 Cu10 Cu 0.21069 0.20866 0.13583
 N11 N 0.24778 0.16714 0.16236
 N12 N 0.24569 0.18575 0.14008
 C13 C 0.26962 0.18409 0.12128
 C14 C 0.28763 0.16362 0.13281
 C15 C 0.27322 0.15314 0.15871
 H16 H 0.27302 0.19602 0.10025
 H17 H 0.28007 0.13578 0.17293
 N18 N 0.18147 0.23858 0.14324
 N19 N 0.16639 0.24128 0.16950
 C20 C 0.14825 0.26351 0.16752
 C21 C 0.15231 0.27526 0.13876
 C22 C 0.17342 0.25911 0.12386
 H23 H 0.13270 0.27012 0.18533
 H24 H 0.18201 0.26189 0.10059
 H25 H 0.17945 0.18972 0.16619
 H26 H 0.21078 0.21175 0.18217
 N27 N -0.18069 0.81803 0.23958
 N28 N -0.20237 0.83609 0.23786
 C29 C -0.19971 0.85589 0.26080
 C30 C -0.17518 0.84966 0.27759
 C31 C -0.16356 0.82565 0.26362
 H32 H -0.21408 0.87379 0.26465
 H33 H -0.14376 0.81494 0.27006
 Cu34 Cu -0.23109 0.83234 0.20504
 Cu35 Cu -0.17534 0.78688 0.20966
 Cu36 Cu -0.22655 0.77981 0.15106
 N37 N -0.26001 0.82793 0.17248
 N38 N -0.25813 0.80735 0.15138
 C39 C -0.28003 0.80983 0.13099
 C40 C -0.29637 0.83310 0.14005
 C41 C -0.28318 0.84423 0.16626
 H42 H -0.28331 0.79625 0.11074
 H43 H -0.28949 0.86320 0.17922
 N44 N -0.19303 0.75411 0.15485
 N45 N -0.17363 0.75678 0.17726
 C46 C -0.15322 0.73654 0.17331
 C47 C -0.16019 0.72056 0.14729
 C48 C -0.18541 0.73209 0.13603
 H49 H -0.13444 0.73381 0.18795
 H50 H -0.19705 0.72515 0.11548
 H51 H -0.19580 0.80587 0.17323
 H52 H -0.21935 0.78193 0.19804
 N53 N -0.19134 0.20302 -0.26584
 N54 N -0.21111 0.18248 -0.26054
 C55 C -0.20716 0.16096 -0.28122
 C56 C -0.18376 0.16859 -0.30037
 C57 C -0.17407 0.19526 -0.29005
 H58 H -0.21956 0.14084 -0.28155
 H59 H -0.15516 0.20750 -0.29867
 Cu60 Cu -0.23851 0.18441 -0.22563
 Cu61 Cu -0.18779 0.23687 -0.23917
 Cu62 Cu -0.24112 0.24479 -0.18166
 N63 N -0.27093 0.19155 -0.19687
 N64 N -0.27189 0.21493 -0.17945
 C65 C -0.29560 0.21311 -0.16024
 C66 C -0.31016 0.18735 -0.16638
 C67 C -0.29401 0.17413 -0.18953
 H68 H -0.30113 0.22875 -0.14245
 H69 H -0.29807 0.15296 -0.19939
 N70 N -0.20812 0.27259 -0.18780
 N71 N -0.18785 0.26960 -0.20986
 C72 C -0.16726 0.29077 -0.20688
 C73 C -0.17508 0.30777 -0.18190
 C74 C -0.20092 0.29576 -0.17018
 H75 H -0.14734 0.29293 -0.22088
 H76 H -0.21280 0.30264 -0.14957
 H77 H -0.20717 0.22040 -0.19926
 H78 H -0.23244 0.23613 -0.22775
 N79 N 0.16865 0.81446 -0.24771
 N80 N 0.19098 0.83306 -0.24685
 C81 C 0.18508 0.85531 -0.26496
 C82 C 0.15771 0.85016 -0.27764
 C83 C 0.14783 0.82418 -0.26637
 H84 H 0.19952 0.87378 -0.26874
 H85 H 0.12707 0.81323 -0.27136
 Cu86 Cu 0.22526 0.82610 -0.22198
 Cu87 Cu 0.16809 0.77922 -0.22439
 Cu88 Cu 0.22926 0.76681 -0.17971
 N89 N 0.25954 0.81913 -0.19713
 N90 N 0.26100 0.79586 -0.18057
 C91 C 0.28605 0.79709 -0.16420
 C92 C 0.30092 0.82237 -0.17114
 C93 C 0.28360 0.83597 -0.19188
 H94 H 0.29233 0.78143 -0.14759
 H95 H 0.28765 0.85702 -0.20135
 N96 N 0.19485 0.74010 -0.18213
 N97 N 0.17165 0.74485 -0.19923
 C98 C 0.15142 0.72358 -0.19500
 C99 C 0.16248 0.70471 -0.17443
 C100 C 0.18991 0.71565 -0.16654
 H101 H 0.12981 0.72234 -0.20524
 H102 H 0.20467 0.70692 -0.14997
 H103 H 0.19569 0.79385 -0.18958
 H104 H 0.21343 0.77484 -0.22303
 N105 N 0.19034 1.18047 0.75462
 N106 N 0.17285 1.20252 0.75593
 C107 C 0.15459 1.20102 0.73162
 C108 C 0.16126 1.17687 0.71430
 C109 C 0.18390 1.16427 0.72944
 H110 H 0.13720 1.21579 0.72733
 H111 H 0.19425 1.14434 0.72311
 Cu112 Cu 0.17490 1.22993 0.79034
 Cu113 Cu 0.21889 1.17335 0.78661
 Cu114 Cu 0.22234 1.22210 0.84819
 N115 N 0.17694 1.25731 0.82474
 N116 N 0.19553 1.25414 0.84738
 C117 C 0.19177 1.27532 0.86859
 C118 C 0.16975 1.29252 0.85852
 C119 C 0.16073 1.28059 0.83077
 H120 H 0.20368 1.27768 0.88998
 H121 H 0.14319 1.28794 0.81651
 N122 N 0.24761 1.18831 0.84467
 N123 N 0.24629 1.16984 0.82117
 C124 C 0.26585 1.14912 0.82549
 C125 C 0.28000 1.15490 0.85288
 C126 C 0.26806 1.17977 0.86457
 H127 H 0.26943 1.13102 0.81003
 H128 H 0.27376 1.19068 0.88600
 H129 H 0.19658 1.19381 0.82236
 H130 H 0.22505 1.21552 0.80094
 N131 N 0.83636 0.82869 0.76541
 N132 N 0.85251 0.80568 0.76419
 C133 C 0.87078 0.80717 0.73925
 C134 C 0.86556 0.83238 0.72432
 C135 C 0.84374 0.84556 0.74147
 H136 H 0.88703 0.79150 0.73280
 H137 H 0.83436 0.86616 0.73722
 Cu138 Cu 0.84882 0.77686 0.79623
 Cu139 Cu 0.80829 0.83611 0.79886
 Cu140 Cu 0.79328 0.78049 0.84916
 N141 N 0.84227 0.74742 0.82718
 N142 N 0.82030 0.74871 0.84742
 C143 C 0.82131 0.72618 0.86637
 C144 C 0.84507 0.70999 0.85737
 C145 C 0.85797 0.72396 0.83257
 H146 H 0.80644 0.72232 0.88577
 H147 H 0.87768 0.71782 0.81995
 N148 N 0.76887 0.81477 0.84748
 N149 N 0.77501 0.83615 0.82866
 C150 C 0.75499 0.85666 0.83334
 C151 C 0.73554 0.84776 0.85623
 C152 C 0.74482 0.82121 0.86480
 H153 H 0.75457 0.87661 0.82107
 H154 H 0.73497 0.80782 0.88252
 H155 H 0.82401 0.80927 0.83286
 H156 H 0.79856 0.79299 0.80346
 N157 N 0.19991 0.80997 1.27008
 N158 N 0.18053 0.78853 1.26815
 C159 C 0.15953 0.79196 1.29030
 C160 C 0.16641 0.81672 1.30687
 C161 C 0.19200 0.82768 1.29349
 H162 H 0.14022 0.77814 1.29348
 H163 H 0.20336 0.84759 1.29963
 Cu164 Cu 0.18399 0.75946 1.23551
 Cu165 Cu 0.23259 0.81472 1.24061
 Cu166 Cu 0.23869 0.76311 1.18219
 N167 N 0.18769 0.73035 1.20299
 N168 N 0.20915 0.73190 1.18214
 C169 C 0.20597 0.70996 1.16168
 C170 C 0.18131 0.69392 1.17034
 C171 C 0.17012 0.70736 1.19647
 H172 H 0.22002 0.70639 1.14158
 H173 H 0.15023 0.70128 1.20917
 N174 N 0.26638 0.79631 1.18629
 N175 N 0.26411 0.81584 1.20865
 C176 C 0.28528 0.83630 1.20449
 C177 C 0.30152 0.82919 1.17843
 C178 C 0.28908 0.80387 1.16732
 H179 H 0.28814 0.85543 1.21873
 H180 H 0.29557 0.79235 1.14648
 H181 H 0.21261 0.79333 1.20393
 H182 H 0.23632 0.77186 1.22903
 N183 N 0.81399 1.17703 1.26475
 N184 N 0.83266 1.19904 1.26297
 C185 C 0.85409 1.19603 1.28385
 C186 C 0.84828 1.17090 1.29937
 C187 C 0.82283 1.15933 1.28676
 H188 H 0.87278 1.21061 1.28708
 H189 H 0.81195 1.13921 1.29270
 Cu190 Cu 0.82746 1.22868 1.23259
 Cu191 Cu 0.78043 1.17208 1.23742
 Cu192 Cu 0.77089 1.22489 1.18335
 N193 N 0.82177 1.25843 1.20246
 N194 N 0.79956 1.25681 1.18325
 C195 C 0.80136 1.27930 1.16416
 C196 C 0.82590 1.29577 1.17200
 C197 C 0.83846 1.28201 1.19624
 H198 H 0.78645 1.28296 1.14546
 H199 H 0.85864 1.28832 1.20781
 N200 N 0.74422 1.19096 1.18713
 N201 N 0.74784 1.17089 1.20778
 C202 C 0.72687 1.15017 1.20390
 C203 C 0.70938 1.15768 1.17980
 C204 C 0.72085 1.18350 1.16958
 H205 H 0.72485 1.13072 1.21705
 H206 H 0.71314 1.19555 1.15035
 H207 H 0.79849 1.19488 1.20095
 H208 H 0.77523 1.21507 1.22938
 O209 O 0.53031 0.97107 0.93832
 O210 O 0.47166 0.98719 1.06432
 O211 O 0.55793 0.98213 1.02038
 O212 O 0.46143 0.95028 0.97577
 O213 O 0.51848 0.96546 1.04244
 O214 O 0.47509 0.96989 0.93331
 O215 O 0.46498 0.95781 1.02836
 O216 O 0.56237 0.99534 0.96614
 C217 C 0.55607 0.97509 0.94752
 C218 C 0.45977 0.96445 1.05562
 C219 C 0.54498 0.96289 1.03556
 C220 C 0.46299 0.94961 0.94731
 O221 O 0.47407 1.02499 0.93762
 O222 O 0.52239 1.01172 1.07402
 O223 O 0.53890 1.04676 0.98109
 O224 O 0.44483 1.01344 1.02297
 O225 O 0.48455 1.03507 1.04063
 O226 O 0.52989 1.02732 0.93671
 O227 O 0.44051 1.00356 0.96723
 O228 O 0.53789 1.03549 1.03441
 Co229 Co 0.50234 0.99823 0.94188
 Co230 Co 0.50238 1.00045 1.03981
 Co231 Co 0.54516 1.01335 0.99996
 Co232 Co 0.45662 0.98266 0.99843
 O233 O 0.50046 0.99762 0.99286
 C234 C 0.44787 1.02188 0.94710
 C235 C 0.54159 1.02961 1.06246
 C236 C 0.53879 1.04833 0.95260
 C237 C 0.45740 1.03512 1.03555
 O238 O 0.02552 0.47101 0.06102
 O239 O 0.01439 0.52035 -0.07388
 O240 O 0.01348 0.44408 -0.02464
 O241 O 0.04852 0.53476 0.02047
 O242 O 0.03688 0.48248 -0.04100
 O243 O 0.02753 0.52532 0.06403
 O244 O 0.03829 0.53436 -0.03327
 O245 O 0.00286 0.43928 0.03075
 C246 C 0.02200 0.44583 0.05087
 C247 C 0.03297 0.53838 -0.06144
 C248 C 0.03626 0.45601 -0.03658
 C249 C 0.04922 0.53497 0.04901
 O250 O -0.02999 0.52555 0.06144
 O251 O -0.01234 0.47136 -0.06572
 O252 O -0.05172 0.46088 0.02212
 O253 O -0.01656 0.55454 -0.02064
 O254 O -0.03412 0.51696 -0.04367
 O255 O -0.03115 0.47168 0.06496
 O256 O -0.00503 0.55735 0.03419
 O257 O -0.04328 0.46492 -0.03036
 Co258 Co -0.00206 0.49848 0.05742
 Co259 Co 0.00159 0.50053 -0.04050
 Co260 Co -0.01823 0.45580 -0.00027
 Co261 Co 0.01465 0.54126 0.00062
 O262 O -0.00216 0.49791 0.00634
 C263 C -0.02579 0.55076 0.05281
 C264 C -0.03613 0.46021 -0.05762
 C265 C -0.05222 0.46073 0.05058
 C266 C -0.03620 0.54274 -0.03670
 O267 O 1.05499 0.03131 0.47088
 O268 O 0.93485 0.01032 0.53213
 O269 O 0.97657 0.01846 0.44178
 O270 O 1.01828 0.05030 0.54284
 O271 O 0.95501 0.03346 0.48333
 O272 O 1.05939 0.03217 0.52876
 O273 O 0.96821 0.04099 0.53924
 O274 O 1.02879 0.00698 0.43701
 C275 C 1.04687 0.02703 0.44374
 C276 C 0.94234 0.03332 0.54447
 C277 C 0.96135 0.03680 0.45559
 C278 C 1.04547 0.05179 0.54162
 O279 O 1.05675 -0.02300 0.52950
 O280 O 0.92620 -0.01363 0.47910
 O281 O 1.01595 -0.04527 0.46083
 O282 O 0.97511 -0.01465 0.56007
 O283 O 0.95898 -0.03650 0.51839
 O284 O 1.05780 -0.02475 0.47113
 O285 O 1.02801 -0.00280 0.56467
 O286 O 0.96464 -0.03564 0.46228
 Co287 Co 1.05205 0.00386 0.50007
 Co288 Co 0.95865 -0.00163 0.49995
 Co289 Co 0.99695 -0.01233 0.45482
 Co290 Co 0.99759 0.01711 0.54783
 O291 O 1.00337 0.00284 0.50186
 C292 C 1.04783 -0.02026 0.55694
 C293 C 0.93771 -0.03048 0.45852
 C294 C 1.04323 -0.04594 0.46110
 C295 C 0.96371 -0.03663 0.54687
 C296 C 1.07040 0.09376 0.35233
 C297 C 1.09581 0.11626 0.35683
 C298 C 1.11265 0.10244 0.32952
 C299 C 1.08748 0.08019 0.32462
 C300 C 1.08600 0.07370 0.37415
 C301 C 1.10284 0.05989 0.34684
 C302 C 1.11117 0.09594 0.37904
 C303 C 1.12822 0.08237 0.35136
 C304 C 1.12767 0.11834 0.30471
 C305 C 1.14009 0.13142 0.28432
 C306 C 1.07154 0.05747 0.39903
 C307 C 1.06004 0.04378 0.41949
 H308 H 1.04646 0.09824 0.35303
 H309 H 1.09309 0.13963 0.36066
 H310 H 1.07792 0.07390 0.30196
 H311 H 1.10554 0.03652 0.34300
 H312 H 1.12072 0.10224 0.40171
 H313 H 1.15216 0.07785 0.35068
 C314 C 0.87227 -0.06201 0.36799
 C315 C 0.88736 -0.08174 0.34364
 C316 C 0.86284 -0.10456 0.34905
 C317 C 0.84749 -0.08509 0.37303
 C318 C 0.89023 -0.07575 0.39333
 C319 C 0.86572 -0.09856 0.39879
 C320 C 0.90553 -0.09523 0.36933
 C321 C 0.88081 -0.11829 0.37439
 C322 C 0.84834 -0.12068 0.32396
 C323 C 0.83719 -0.13410 0.30296
 C324 C 0.90622 -0.05969 0.41743
 C325 C 0.92017 -0.04641 0.43660
 H326 H 0.86895 -0.03869 0.36565
 H327 H 0.89613 -0.07500 0.32071
 H328 H 0.82346 -0.08110 0.37426
 H329 H 0.85703 -0.10528 0.42176
 H330 H 0.92957 -0.09923 0.36808
 H331 H 0.88417 -0.14161 0.37675
 C332 C 0.86405 0.10283 0.58869
 C333 C 0.84513 0.09247 0.61677
 C334 C 0.85876 0.11694 0.63651
 C335 C 0.87738 0.12761 0.60882
 C336 C 0.88900 0.08360 0.59875
 C337 C 0.90256 0.10809 0.61853
 C338 C 0.87038 0.07293 0.62645
 C339 C 0.88372 0.09768 0.64650
 C340 C 0.84277 0.13552 0.65822
 C341 C 0.83034 0.15072 0.67678
 C342 C 0.90683 0.06528 0.57846
 C343 C 0.92252 0.05049 0.56251
 H344 H 0.85616 0.10469 0.56469
 H345 H 0.82131 0.08629 0.61634
 H346 H 0.88008 0.15030 0.60182
 H347 H 0.92637 0.11431 0.61903
 H348 H 0.86768 0.05024 0.63344
 H349 H 0.89164 0.09578 0.67049
 C350 C 1.11156 -0.08957 0.61333
 C351 C 1.12985 -0.07763 0.64082
 C352 C 1.11445 -0.09980 0.66182
 C353 C 1.09637 -0.11200 0.63466
 C354 C 1.08718 -0.06847 0.62194
 C355 C 1.07174 -0.09064 0.64293
 C356 C 1.10525 -0.05626 0.64911
 C357 C 1.09006 -0.07872 0.67048
 C358 C 1.12988 -0.11738 0.68369
 C359 C 1.14264 -0.13206 0.70143
 C360 C 1.07248 -0.05117 0.59928
 C361 C 1.06092 -0.03702 0.58017
 H362 H 1.12022 -0.09382 0.58957
 H363 H 1.15392 -0.07248 0.64019
 H364 H 1.09289 -0.13511 0.62895
 H365 H 1.04767 -0.09576 0.64351
 H366 H 1.10871 -0.03315 0.65484
 H367 H 1.08141 -0.07450 0.69424
 C368 C 0.37836 1.11150 1.04993
 C369 C 0.35304 1.09993 1.07110
 C370 C 0.35777 1.12590 1.09295
 C371 C 0.38275 1.13783 1.07200
 C372 C 0.40047 1.09508 1.06893
 C373 C 0.40531 1.12104 1.09077
 C374 C 0.37542 1.08331 1.08988
 C375 C 0.37989 1.10946 1.11189
 C376 C 0.33307 1.14135 1.10695
 C377 C 0.31200 1.15249 1.11894
 C378 C 0.42287 1.07595 1.05622
 C379 C 0.43966 1.05827 1.04642
 H380 H 0.37803 1.11213 1.02429
 H381 H 0.33131 1.09138 1.06314
 H382 H 0.38543 1.16046 1.06481
 H383 H 0.42707 1.12953 1.09868
 H384 H 0.37260 1.06070 1.09714
 H385 H 0.38023 1.10877 1.13752
 C386 C 0.41707 0.86635 0.87822
 C387 C 0.39186 0.84863 0.89429
 C388 C 0.36978 0.86081 0.87173
 C389 C 0.39453 0.87819 0.85539
 C390 C 0.41072 0.89157 0.90044
 C391 C 0.38859 0.90363 0.87787
 C392 C 0.38597 0.87419 0.91676
 C393 C 0.36360 0.88605 0.89397
 C394 C 0.34578 0.84525 0.85593
 C395 C 0.32505 0.83389 0.84312
 C396 C 0.43187 0.91037 0.91675
 C397 C 0.44730 0.92748 0.93054
 H398 H 0.43932 0.85847 0.87196
 H399 H 0.39289 0.82582 0.90086
 H400 H 0.39777 0.87965 0.82997
 H401 H 0.38744 0.92643 0.87125
 H402 H 0.38272 0.87274 0.94218
 H403 H 0.34141 0.89401 0.90037
 C404 C 0.62151 0.88523 1.05238
 C405 C 0.64525 0.89698 1.07497
 C406 C 0.63832 0.87165 1.09630
 C407 C 0.61491 0.85954 1.07395
 C408 C 0.59819 0.90248 1.07029
 C409 C 0.59116 0.87717 1.09161
 C410 C 0.62167 0.91443 1.09265
 C411 C 0.61498 0.88892 1.11415
 C412 C 0.66145 0.85609 1.11156
 C413 C 0.68107 0.84472 1.12473
 C414 C 0.57714 0.92168 1.05673
 C415 C 0.56143 0.93948 1.04652
 H416 H 0.62390 0.88391 1.02681
 H417 H 0.66770 0.90500 1.06827
 H418 H 0.61244 0.83675 1.06644
 H419 H 0.56867 0.86922 1.09825
 H420 H 0.62425 0.93720 1.10024
 H421 H 0.61255 0.89031 1.13971
 C422 C 0.61746 1.12089 0.92193
 C423 C 0.63126 1.11470 0.88966
 C424 C 0.62514 1.14559 0.88050
 C425 C 0.61162 1.15209 0.91260
 C426 C 0.58709 1.11154 0.90943
 C427 C 0.58082 1.14243 0.90035
 C428 C 0.60069 1.10515 0.87735
 C429 C 0.59479 1.13629 0.86795
 C430 C 0.64758 1.16278 0.86396
 C431 C 0.66706 1.17515 0.84990
 C432 C 0.56752 1.09086 0.92520
 C433 C 0.55329 1.07220 0.93786
 H434 H 0.62659 1.11434 0.94430
 H435 H 0.65221 1.10345 0.88511
 H436 H 0.61639 1.17161 0.92688
 H437 H 0.55982 1.15357 0.90495
 H438 H 0.59600 1.08564 0.86300
 H439 H 0.58574 1.14285 0.84555
 C440 C 0.08056 0.37860 0.11772
 C441 C 0.07288 0.34617 0.11444
 C442 C 0.10500 0.34087 0.10442
 C443 C 0.11296 0.37295 0.10788
 C444 C 0.07295 0.38222 0.08358
 C445 C 0.10506 0.37695 0.07354
 C446 C 0.06500 0.35014 0.08012
 C447 C 0.09739 0.34449 0.07027
 C448 C 0.12244 0.31769 0.11629
 C449 C 0.13633 0.29842 0.12637
 C450 C 0.05490 0.40509 0.07204
 C451 C 0.03991 0.42377 0.06248
 H452 H 0.07343 0.39288 0.13709
 H453 H 0.05984 0.33325 0.13138
 H454 H 0.13289 0.38206 0.11942
 H455 H 0.11806 0.38989 0.05658
 H456 H 0.04506 0.34104 0.06860
 H457 H 0.10451 0.33022 0.05089
 C458 C -0.07783 0.38168 -0.12980
 C459 C -0.10230 0.36275 -0.11446
 C460 C -0.12331 0.37027 -0.14041
 C461 C -0.09912 0.38891 -0.15605
 C462 C -0.08895 0.40762 -0.11106
 C463 C -0.10994 0.41522 -0.13700
 C464 C -0.11316 0.38895 -0.09549
 C465 C -0.13445 0.39620 -0.12166
 C466 C -0.14224 0.34878 -0.15594
 C467 C -0.15746 0.33041 -0.16806
 C468 C -0.06986 0.42756 -0.09356
 C469 C -0.05430 0.44303 -0.07787
 H470 H -0.05434 0.37597 -0.13297
 H471 H -0.09935 0.34097 -0.10531
 H472 H -0.09357 0.38862 -0.18114
 H473 H -0.11284 0.43702 -0.14609
 H474 H -0.11873 0.38918 -0.07040
 H475 H -0.15795 0.40190 -0.11847
 C476 C 0.07094 0.62371 -0.12404
 C477 C 0.09476 0.64264 -0.10774
 C478 C 0.11570 0.63784 -0.13555
 C479 C 0.09213 0.61924 -0.15210
 C480 C 0.08356 0.59722 -0.10905
 C481 C 0.10448 0.59235 -0.13685
 C482 C 0.10713 0.61584 -0.09253
 C483 C 0.12835 0.61136 -0.12056
 C484 C 0.13315 0.66101 -0.14979
 C485 C 0.14692 0.68066 -0.16116
 C486 C 0.06552 0.57529 -0.09338
 C487 C 0.05062 0.55800 -0.07941
 H488 H 0.04713 0.62851 -0.12531
 H489 H 0.09096 0.66355 -0.09591
 H490 H 0.08620 0.62096 -0.17677
 H491 H 0.10824 0.57141 -0.14866
 H492 H 0.11309 0.61419 -0.06785
 H493 H 0.15217 0.60660 -0.11930
 C494 C -0.10542 0.60939 0.10888
 C495 C -0.09446 0.63440 0.13014
 C496 C -0.11117 0.65537 0.11033
 C497 C -0.12243 0.63073 0.08926
 C498 C -0.07810 0.61424 0.08791
 C499 C -0.09481 0.63520 0.06808
 C500 C -0.06687 0.63889 0.10897
 C501 C -0.08385 0.66020 0.08935
 C502 C -0.12921 0.67840 0.12314
 C503 C -0.14361 0.69752 0.13400
 C504 C -0.05951 0.59146 0.07552
 C505 C -0.04411 0.57282 0.06525
 H506 H -0.11408 0.58825 0.11677
 H507 H -0.09454 0.63435 0.15580
 H508 H -0.14548 0.62769 0.08130
 H509 H -0.09472 0.63523 0.04241
 H510 H -0.04383 0.64197 0.11694
 H511 H -0.07520 0.68135 0.08145
 C512 C 1.10646 0.09581 0.62473
 C513 C 1.13209 0.11769 0.61894
 C514 C 1.11721 0.13871 0.64167
 C515 C 1.09178 0.11700 0.64774
 C516 C 1.08942 0.10895 0.59828
 C517 C 1.07452 0.12995 0.62102
 C518 C 1.11486 0.13062 0.59212
 C519 C 1.10021 0.15197 0.61529
 C520 C 1.13278 0.15391 0.66676
 C521 C 1.14570 0.16506 0.68814
 C522 C 1.07385 0.09065 0.57561
 C523 C 1.06093 0.07384 0.55886
 H524 H 1.10890 0.07252 0.62838
 H525 H 1.15593 0.11275 0.61840
 H526 H 1.08241 0.11148 0.67082
 H527 H 1.05067 0.13482 0.62161
 H528 H 1.12419 0.13605 0.56900
 H529 H 1.09781 0.17527 0.61175
 C530 C 0.94903 -0.11301 0.63082
 C531 C 0.92738 -0.10203 0.65618
 C532 C 0.90748 -0.12876 0.65073
 C533 C 0.92891 -0.14010 0.62572
 C534 C 0.93147 -0.09740 0.60648
 C535 C 0.91158 -0.12412 0.60092
 C536 C 0.91003 -0.08622 0.63157
 C537 C 0.88997 -0.11312 0.62637
 C538 C 0.89331 -0.14452 0.67626
 C539 C 0.88098 -0.15587 0.69792
 C540 C 0.94400 -0.07799 0.58311
 C541 C 0.95348 -0.06011 0.56552
 H542 H 0.97347 -0.11278 0.63237
 H543 H 0.93376 -0.09308 0.67914
 H544 H 0.93654 -0.16245 0.62360
 H545 H 0.90525 -0.13300 0.57792
 H546 H 0.90233 -0.06389 0.63382
 H547 H 0.86554 -0.11330 0.62478
 C548 C 1.11170 -0.12700 0.42040
 C549 C 1.09807 -0.15078 0.39904
 C550 C 1.11750 -0.13966 0.37213
 C551 C 1.13139 -0.11624 0.39312
 C552 C 1.08753 -0.10672 0.41067
 C553 C 1.10700 -0.09572 0.38373
 C554 C 1.07361 -0.13012 0.38969
 C555 C 1.09333 -0.11934 0.36249
 C556 C 1.13452 -0.15672 0.34970
 C557 C 1.14887 -0.16949 0.33048
 C558 C 1.07120 -0.08684 0.43076
 C559 C 1.05817 -0.06896 0.44564
 H560 H 1.11906 -0.12995 0.44445
 H561 H 1.09461 -0.17365 0.40505
 H562 H 1.15532 -0.11065 0.39429
 H563 H 1.11053 -0.07287 0.37765
 H564 H 1.04967 -0.13565 0.38852
 H565 H 1.08594 -0.11630 0.33847
 C566 C 0.93165 0.09914 0.36765
 C567 C 0.89831 0.09657 0.36073
 C568 C 0.89647 0.12934 0.36341
 C569 C 0.92964 0.13221 0.37003
 C570 C 0.92426 0.09734 0.40237
 C571 C 0.92250 0.13011 0.40518
 C572 C 0.89110 0.09455 0.39568
 C573 C 0.88904 0.12756 0.39813
 C574 C 0.88016 0.14576 0.34108
 C575 C 0.86599 0.15791 0.32224
 C576 C 0.93881 0.07783 0.42305
 C577 C 0.94973 0.06002 0.43876
 H578 H 0.94935 0.08725 0.35534
 H579 H 0.88823 0.08288 0.34227
 H580 H 0.94534 0.14787 0.35922
 H581 H 0.93261 0.14367 0.42371
 H582 H 0.87538 0.07888 0.40644
 H583 H 0.87132 0.13941 0.41043
 C584 C 0.11455 0.37855 -0.05342
 C585 C 0.10233 0.35422 -0.07484
 C586 C 0.12856 0.35938 -0.09721
 C587 C 0.14114 0.38337 -0.07603
 C588 C 0.09702 0.40023 -0.07151
 C589 C 0.12325 0.40546 -0.09387
 C590 C 0.08459 0.37618 -0.09269
 C591 C 0.11101 0.38107 -0.11523
 C592 C 0.14472 0.33603 -0.11230
 C593 C 0.15673 0.31636 -0.12533
 C594 C 0.07761 0.42192 -0.05802
 C595 C 0.05973 0.43840 -0.04777
 H596 H 0.11581 0.37782 -0.02784
 H597 H 0.09383 0.33296 -0.06712
 H598 H 0.16460 0.38601 -0.06934
 H599 H 0.13168 0.42675 -0.10155
 H600 H 0.06114 0.37343 -0.09944
 H601 H 0.10967 0.38184 -0.14079
 C602 C -0.13043 0.38446 0.08174
 C603 C -0.11566 0.35987 0.09874
 C604 C -0.13686 0.36448 0.12636
 C605 C -0.15195 0.38875 0.10964
 C606 C -0.10853 0.40594 0.09682
 C607 C -0.12972 0.41065 0.12445
 C608 C -0.09357 0.38161 0.11358
 C609 C -0.11495 0.38597 0.14142
 C610 C -0.15134 0.34061 0.14277
 C611 C -0.16217 0.32039 0.15616
 C612 C -0.09085 0.42772 0.08031
 C613 C -0.07430 0.44393 0.06670
 H614 H -0.13663 0.38413 0.05702
 H615 H -0.10997 0.33879 0.08829
 H616 H -0.17616 0.39138 0.10819
 H617 H -0.13534 0.43178 0.13481
 H618 H -0.06938 0.37888 0.11507
 H619 H -0.10870 0.38632 0.16613
 C620 C -0.07783 0.62172 -0.09385
 C621 C -0.10262 0.61783 -0.11778
 C622 C -0.12032 0.64072 -0.10016
 C623 C -0.09569 0.64486 -0.07640
 C624 C -0.09313 0.59862 -0.07386
 C625 C -0.11081 0.62151 -0.05619
 C626 C -0.11775 0.59438 -0.09762
 C627 C -0.13576 0.61769 -0.08019
 C628 C -0.13400 0.66487 -0.11511
 C629 C -0.14405 0.68525 -0.12761
 C630 C -0.07574 0.57641 -0.05977
 C631 C -0.05901 0.55985 -0.04881
 H632 H -0.05382 0.62320 -0.09936
 H633 H -0.09932 0.61657 -0.14325
 H634 H -0.08668 0.66584 -0.06785
 H635 H -0.11406 0.62279 -0.03071
 H636 H -0.12670 0.57338 -0.10615
 H637 H -0.15979 0.61634 -0.07476
 C638 C 0.09553 0.61181 0.11376
 C639 C 0.11798 0.60628 0.13935
 C640 C 0.13991 0.62730 0.12365
 C641 C 0.11765 0.63309 0.09827
 C642 C 0.10876 0.58730 0.09426
 C643 C 0.13068 0.60832 0.07854
 C644 C 0.13099 0.58141 0.11964
 C645 C 0.15327 0.60284 0.10419
 C646 C 0.15596 0.65039 0.14017
 C647 C 0.16804 0.67000 0.15388
 C648 C 0.08969 0.56637 0.07796
 C649 C 0.07218 0.55090 0.06464
 H650 H 0.07160 0.61532 0.11758
 H651 H 0.11291 0.60572 0.16453
 H652 H 0.11229 0.65455 0.08963
 H653 H 0.13572 0.60890 0.05335
 H654 H 0.13629 0.55993 0.12823
 H655 H 0.17722 0.59945 0.10042
 C656 C 0.36451 1.09253 0.93224
 C657 C 0.37033 1.11675 0.90869
 C658 C 0.34364 1.10556 0.89016
 C659 C 0.33747 1.08164 0.91351
 C660 C 0.38426 1.07284 0.91252
 C661 C 0.35757 1.06168 0.89400
 C662 C 0.39043 1.09677 0.88918
 C663 C 0.36340 1.08587 0.87047
 C664 C 0.32099 1.12356 0.87737
 C665 C 0.30231 1.13805 0.86645
 C666 C 0.40694 1.05458 0.92481
 C667 C 0.42563 1.03960 0.93491
 H668 H 0.36520 1.09505 0.95779
 H669 H 0.37536 1.13958 0.91460
 H670 H 0.31543 1.07563 0.92337
 H671 H 0.35255 1.03884 0.88809
 H672 H 0.41247 1.10275 0.87931
 H673 H 0.36273 1.08331 0.84492
 C674 C 0.38409 0.89059 1.09144
 C675 C 0.39151 0.86880 1.11652
 C676 C 0.36546 0.87961 1.13629
 C677 C 0.35776 0.90113 1.11143
 C678 C 0.40424 0.91307 1.10754
 C679 C 0.37818 0.92386 1.12731
 C680 C 0.41201 0.89155 1.13239
 C681 C 0.38558 0.90206 1.15245
 C682 C 0.34327 0.86118 1.15173
 C683 C 0.32449 0.84636 1.16403
 C684 C 0.42512 0.93167 1.09050
 C685 C 0.44146 0.94680 1.07529
 H686 H 0.38369 0.88606 1.06616
 H687 H 0.39672 0.84596 1.11223
 H688 H 0.33523 0.90488 1.10294
 H689 H 0.37295 0.94670 1.13159
 H690 H 0.43455 0.88784 1.14085
 H691 H 0.38592 0.90656 1.17773
 C692 C 0.62625 1.06549 1.13222
 C693 C 0.64912 1.08540 1.11566
 C694 C 0.64296 1.10899 1.13996
 C695 C 0.62042 1.08936 1.15680
 C696 C 0.60189 1.07750 1.11229
 C697 C 0.59568 1.10109 1.13660
 C698 C 0.62445 1.09715 1.09552
 C699 C 0.61860 1.12099 1.12003
 C700 C 0.66622 1.12652 1.15474
 C701 C 0.68572 1.14084 1.16638
 C702 C 0.57955 1.06013 1.09588
 C703 C 0.56182 1.04606 1.08126
 H704 H 0.62913 1.04247 1.13705
 H705 H 0.67134 1.07912 1.10717
 H706 H 0.61904 1.08635 1.18218
 H707 H 0.57344 1.10732 1.14504
 H708 H 0.62587 1.10016 1.07013
 H709 H 0.61571 1.14400 1.11516
 C710 C 0.64192 0.90621 0.93316
 C711 C 0.63880 0.88193 0.90840
 C712 C 0.66644 0.89406 0.89162
 C713 C 0.66992 0.91807 0.91618
 C714 C 0.62295 0.92527 0.91334
 C715 C 0.65059 0.93739 0.89656
 C716 C 0.61944 0.90127 0.88878
 C717 C 0.64745 0.91314 0.87182
 C718 C 0.69085 0.87703 0.87928
 C719 C 0.71113 0.86343 0.86891
 C720 C 0.59885 0.94288 0.92537
 C721 C 0.57921 0.95752 0.93536
 H722 H 0.63939 0.90356 0.95853
 H723 H 0.63420 0.85894 0.91315
 H724 H 0.69095 0.92479 0.92733
 H725 H 0.65520 0.96038 0.89181
 H726 H 0.59841 0.89458 0.87764
 H727 H 0.64997 0.91581 0.84646
   
