data_POSCAR
  _audit_creation_date              2014-09-24
  _audit_creation_method            'ToBaCCo'
  _symmetry_space_group_name_H-M    'P1'
  _symmetry_Int_Tables_number       1
  _symmetry_cell_setting            triclinic
  loop_
  _symmetry_equiv_pos_as_xyz
 x,y,z
_cell_length_a 23.2215
_cell_length_b 23.2891
_cell_length_c 23.1593
_cell_angle_alpha 89.904600
_cell_angle_beta 89.978200
_cell_angle_gamma 90.027400
loop_
  _atom_site_label
  _atom_site_type_symbol
  _atom_site_fract_x
  _atom_site_fract_y
  _atom_site_fract_z
N1 N 0.56165 0.11641 0.02746
 N2 N 0.60267 0.15042 0.04714
 N3 N 0.44052 0.11591 -0.02892
 N4 N 0.39947 0.14955 -0.04923
 N5 N 0.44053 0.11624 0.02781
 N6 N 0.39952 0.15013 0.04768
 N7 N 0.56162 0.11590 -0.02926
 N8 N 0.60259 0.14956 -0.04977
 C9 C 0.62798 0.17023 -0.00156
 C10 C 0.37412 0.17004 -0.00091
 N11 N 0.44028 -0.02864 -0.11550
 N12 N 0.39894 -0.04885 -0.14891
 N13 N 0.56146 0.02766 -0.11655
 N14 N 0.60195 0.04729 -0.15153
 N15 N 0.56144 -0.02870 -0.11556
 N16 N 0.60439 -0.04958 -0.15193
 N17 N 0.44034 0.02776 -0.11606
 N18 N 0.39906 0.04752 -0.14985
 Mn19 Mn 0.50100 0.07225 -0.07314
 C20 C 0.37349 -0.00080 -0.16949
 C21 C 0.62796 -0.00046 -0.17229
 N22 N 0.44080 0.02929 0.11670
 N23 N 0.39952 0.04935 0.15031
 N24 N 0.56203 -0.02681 0.11701
 N25 N 0.60245 -0.04647 0.15199
 N26 N 0.56203 0.02956 0.11608
 N27 N 0.60495 0.05039 0.15253
 N28 N 0.44094 -0.02711 0.11719
 N29 N 0.39979 -0.04702 0.15109
 Mn30 Mn 0.50122 0.07331 0.07248
 C31 C 0.37421 0.00118 0.17092
 C32 C 0.62848 0.00123 0.17283
 N33 N 0.56157 -0.11544 -0.02705
 N34 N 0.60263 -0.14915 -0.04707
 N35 N 0.44074 -0.11523 0.03001
 N36 N 0.39980 -0.14898 0.05047
 N37 N 0.44051 -0.11549 -0.02671
 N38 N 0.39945 -0.14940 -0.04643
 N39 N 0.56187 -0.11500 0.02966
 N40 N 0.60314 -0.14845 0.04984
 Mn41 Mn 0.50091 -0.07249 -0.07166
 Mn42 Mn 0.50142 -0.07147 0.07391
 Cl43 Cl 0.50111 0.00041 0.00041
 C44 C 0.62832 -0.16889 0.00141
 C45 C 0.37427 -0.16943 0.00223
 N46 N 0.11668 0.43945 0.02744
 N47 N 0.15035 0.39825 0.04730
 N48 N 0.11739 0.56075 -0.02818
 N49 N 0.15125 0.60197 -0.04778
 N50 N 0.11713 0.56019 0.02854
 N51 N 0.15082 0.60099 0.04913
 N52 N 0.11686 0.43999 -0.02929
 N53 N 0.15068 0.39917 -0.04960
 C54 C 0.17070 0.37336 -0.00128
 C55 C 0.17127 0.62680 0.00098
 N56 N -0.02662 0.56230 -0.11684
 N57 N -0.04640 0.60292 -0.15143
 N58 N 0.02931 0.44128 -0.11761
 N59 N 0.04920 0.40010 -0.15130
 N60 N -0.02726 0.44157 -0.11775
 N61 N -0.04746 0.40063 -0.15151
 N62 N 0.02992 0.56215 -0.11627
 N63 N 0.05074 0.60520 -0.15262
 Mn64 Mn 0.07381 0.50102 -0.07332
 C65 C 0.00139 0.62893 -0.17244
 C66 C 0.00075 0.37505 -0.17164
 N67 N 0.02901 0.55964 0.11624
 N68 N 0.04899 0.60046 0.15032
 N69 N -0.02798 0.43905 0.11493
 N70 N -0.04831 0.39788 0.14849
 N71 N 0.02858 0.43887 0.11515
 N72 N 0.04834 0.39757 0.14885
 N73 N -0.02755 0.55978 0.11599
 N74 N -0.04767 0.60067 0.14985
 Mn75 Mn 0.07329 0.49954 0.07228
 C76 C 0.00060 0.62579 0.17045
 C77 C -0.00016 0.37224 0.16877
 N78 N -0.11528 0.44096 -0.03005
 N79 N -0.14900 0.40014 -0.05057
 N80 N -0.11490 0.56103 0.02776
 N81 N -0.14854 0.60192 0.04818
 N82 N -0.11468 0.56173 -0.02896
 N83 N -0.14819 0.60311 -0.04873
 N84 N -0.11538 0.44032 0.02666
 N85 N -0.14915 0.39908 0.04633
 Mn86 Mn -0.07140 0.50166 -0.07384
 Mn87 Mn -0.07188 0.50003 0.07176
 Cl88 Cl 0.00097 0.50055 -0.00078
 C89 C -0.16929 0.37428 -0.00237
 C90 C -0.16844 0.62793 -0.00006
 N91 N 0.02682 0.11482 0.43948
 N92 N 0.04697 0.14847 0.39823
 N93 N -0.02987 0.11515 0.56082
 N94 N -0.04984 0.14934 0.60162
 N95 N 0.02669 0.11500 0.56088
 N96 N 0.04681 0.14905 0.60169
 N97 N -0.02975 0.11482 0.43937
 N98 N -0.04968 0.14849 0.39805
 C99 C -0.00128 0.16861 0.37262
 C100 C -0.00145 0.16959 0.62691
 N101 N -0.11788 -0.02871 0.56131
 N102 N -0.15200 -0.04847 0.60243
 N103 N -0.11767 0.02735 0.43962
 N104 N -0.15167 0.04724 0.39852
 N105 N -0.11774 -0.02906 0.43987
 N106 N -0.15179 -0.04913 0.39894
 N107 N -0.11775 0.02770 0.56103
 N108 N -0.15174 0.04790 0.60192
 Mn109 Mn -0.07419 0.07168 0.50020
 C110 C -0.17225 -0.00012 0.62753
 C111 C -0.17208 -0.00100 0.37336
 N112 N 0.11433 0.02743 0.56127
 N113 N 0.14827 0.04742 0.60232
 N114 N 0.11447 -0.02905 0.43996
 N115 N 0.14856 -0.04898 0.39899
 N116 N 0.11445 0.02735 0.43987
 N117 N 0.14849 0.04739 0.39885
 N118 N 0.11427 -0.02897 0.56141
 N119 N 0.14815 -0.04895 0.60255
 Mn120 Mn 0.07099 0.07157 0.50039
 C121 C 0.16849 -0.00077 0.62785
 C122 C 0.16890 -0.00074 0.37356
 N123 N -0.02999 -0.11664 0.44022
 N124 N -0.04993 -0.15053 0.39916
 N125 N 0.02645 -0.11645 0.56164
 N126 N 0.04645 -0.15052 0.60259
 N127 N -0.03013 -0.11641 0.56168
 N128 N -0.05019 -0.15048 0.60266
 N129 N 0.02659 -0.11654 0.44023
 N130 N 0.04672 -0.15034 0.39923
 Mn131 Mn -0.07437 -0.07315 0.50078
 Mn132 Mn 0.07087 -0.07318 0.50080
 Cl133 Cl -0.00169 -0.00078 0.50055
 C134 C -0.00153 -0.17068 0.37383
 C135 C -0.00188 -0.17087 0.62798
 C136 C -0.32654 0.21196 -0.00207
 C137 C -0.28919 0.24790 -0.00244
 C138 C -0.24642 0.29097 -0.00272
 C139 C -0.21075 0.32857 -0.00273
 C140 C 0.32875 0.78889 0.00253
 C141 C 0.29134 0.75300 0.00243
 C142 C 0.24851 0.70999 0.00203
 C143 C 0.21278 0.67245 0.00157
 C144 C 0.32851 0.21163 -0.00119
 C145 C 0.29104 0.24742 -0.00137
 C146 C 0.24811 0.29033 -0.00148
 C147 C 0.21230 0.32778 -0.00147
 C148 C -0.32601 0.78967 0.00143
 C149 C -0.28850 0.75394 0.00120
 C150 C -0.24561 0.71106 0.00076
 C151 C -0.20988 0.67358 0.00035
 C152 C 0.00036 -0.32866 0.21210
 C153 C -0.00011 -0.29118 0.24791
 C154 C -0.00079 -0.24822 0.29081
 C155 C -0.00127 -0.21236 0.32826
 C156 C 0.00045 0.32913 0.78711
 C157 C -0.00006 0.29131 0.75166
 C158 C -0.00074 0.24792 0.70919
 C159 C -0.00122 0.21169 0.67209
 C160 C -0.00049 0.32648 0.21033
 C161 C -0.00074 0.28892 0.24617
 C162 C -0.00098 0.24595 0.28919
 C163 C -0.00114 0.21014 0.32680
 C164 C 0.00009 -0.32979 0.78948
 C165 C -0.00082 -0.29218 0.75364
 C166 C -0.00152 -0.24899 0.71079
 C167 C -0.00184 -0.21287 0.67343
 C168 C 0.32751 -0.00101 0.78914
 C169 C 0.28972 -0.00102 0.75351
 C170 C 0.24644 -0.00091 0.71076
 C171 C 0.21036 -0.00082 0.67338
 C172 C -0.33041 0.00006 0.21114
 C173 C -0.29296 -0.00062 0.24719
 C174 C -0.24994 -0.00100 0.29025
 C175 C -0.21396 -0.00109 0.32776
 C176 C 0.32824 0.00110 0.21237
 C177 C 0.29043 0.00067 0.24802
 C178 C 0.24709 -0.00002 0.29077
 C179 C 0.21092 -0.00051 0.32810
 C180 C -0.33085 0.00056 0.78948
 C181 C -0.29332 0.00086 0.75350
 C182 C -0.25022 0.00063 0.71053
 C183 C -0.21417 0.00025 0.67307
   
