data_POSCAR
  _audit_creation_date              2014-09-24
  _audit_creation_method            'ToBaCCo'
  _symmetry_space_group_name_H-M    'P1'
  _symmetry_Int_Tables_number       1
  _symmetry_cell_setting            triclinic
  loop_
  _symmetry_equiv_pos_as_xyz
 x,y,z
_cell_length_a 20.9319
_cell_length_b 23.9309
_cell_length_c 18.3054
_cell_angle_alpha 89.952600
_cell_angle_beta 90.037300
_cell_angle_gamma 90.609200
loop_
  _atom_site_label
  _atom_site_type_symbol
  _atom_site_fract_x
  _atom_site_fract_y
  _atom_site_fract_z
C1 C 1.24726 0.25714 0.25136
 C2 C 0.75584 -0.26432 0.25609
 C3 C 0.74984 0.25266 -0.24088
 C4 C 1.25614 -0.25745 -0.24216
 C5 C 0.24623 0.25673 0.75109
 C6 C 0.75807 0.73547 0.74843
 C7 C 0.74864 0.25269 0.24007
 C8 C 0.25683 0.74169 0.24285
 O9 O 0.89014 -0.08859 -0.12727
 O10 O 0.95147 -0.14740 -0.05752
 C11 C 0.90661 -0.13773 -0.10539
 O12 O 1.11805 0.07782 -0.12164
 O13 O 1.05252 0.13747 -0.05896
 C14 C 1.10034 0.12726 -0.10250
 O15 O 1.12031 -0.07504 -0.12735
 O16 O 1.06794 -0.14132 -0.05791
 C17 C 1.11090 -0.12578 -0.10533
 O18 O 0.87399 0.06314 -0.11875
 O19 O 0.93173 0.13120 -0.05852
 C20 C 0.88488 0.11442 -0.10029
 Zr21 Zr 0.92174 -0.01015 -0.08977
 O22 O 0.93286 -0.00721 -0.20439
 O23 O 0.82160 -0.02050 -0.09975
 Zr24 Zr 1.07911 -0.00016 -0.09169
 O25 O 1.06614 0.00428 -0.20635
 O26 O 1.17909 0.00235 -0.10768
 O27 O 1.00389 -0.05675 -0.10402
 O28 O 0.99677 0.04529 -0.10429
 O29 O 0.87383 0.06425 0.12094
 O30 O 0.93223 0.13178 0.06039
 C31 C 0.88510 0.11540 0.10188
 O32 O 1.12252 -0.07292 0.13213
 O33 O 1.06966 -0.14037 0.06512
 C34 C 1.11336 -0.12400 0.11146
 O35 O 1.11626 0.07972 0.12666
 O36 O 1.05223 0.13846 0.06028
 C37 C 1.09898 0.12882 0.10559
 O38 O 0.89253 -0.08752 0.13568
 O39 O 0.95341 -0.14691 0.06655
 C40 C 0.90922 -0.13690 0.11483
 Zr41 Zr 0.92325 -0.00904 0.09620
 O42 O 0.93778 -0.00383 0.21020
 O43 O 0.82381 -0.01829 0.11330
 Zr44 Zr 1.08068 0.00109 0.09474
 O45 O 1.07257 0.00634 0.20989
 O46 O 1.18158 0.00322 0.10191
 Zr47 Zr 1.00702 -0.08879 0.00343
 Zr48 Zr 0.99556 0.07968 0.00137
 O49 O 0.99828 0.04654 0.10780
 O50 O 1.00567 -0.05532 0.11006
 O51 O 0.90620 0.03813 0.00271
 O52 O 1.09563 -0.04605 0.00196
 O53 O 0.91331 -0.05791 0.00391
 O54 O 1.08984 0.04991 0.00093
 H55 H 0.99466 0.07170 -0.14597
 H56 H 1.13661 -0.06631 0.00191
 H57 H 0.99624 0.07331 0.14903
 H58 H 0.87557 -0.08320 0.00457
 H59 H 1.19870 0.00457 -0.05867
 H60 H 1.19741 0.02589 0.06037
 H61 H 1.05886 -0.03084 0.22821
 H62 H 0.89460 -0.00357 0.23228
 H63 H 0.80384 -0.02015 0.06447
 H64 H 0.80233 -0.00427 -0.05538
 H65 H 0.88907 -0.00813 -0.22494
 H66 H 1.05631 -0.03394 -0.22405
 O67 O 1.10880 0.41345 0.62856
 O68 O 1.04752 0.35523 0.55708
 C69 C 1.08962 0.36408 0.60689
 O70 O 0.89610 0.58233 0.62548
 O71 O 0.95841 0.64021 0.55452
 C72 C 0.91476 0.63153 0.60269
 O73 O 0.88922 0.42270 0.63180
 O74 O 0.94370 0.36027 0.56083
 C75 C 0.90260 0.37217 0.61069
 O76 O 1.12733 0.57298 0.61968
 O77 O 1.06831 0.63531 0.55351
 C78 C 1.11314 0.62339 0.59891
 Zr79 Zr 1.08504 0.49498 0.58983
 O80 O 1.08444 0.50125 0.70515
 O81 O 1.18532 0.48515 0.59371
 Zr82 Zr 0.92397 0.50090 0.59161
 O83 O 0.91763 0.50062 0.70699
 O84 O 0.82343 0.50443 0.58271
 O85 O 1.00169 0.44830 0.60524
 O86 O 1.00779 0.54671 0.60358
 O87 O 1.12623 0.57232 0.37283
 O88 O 1.06700 0.63480 0.43799
 C89 C 1.11206 0.62297 0.39277
 O90 O 0.88596 0.42179 0.36824
 O91 O 0.94226 0.35985 0.43832
 C92 C 0.90002 0.37143 0.38956
 O93 O 0.88593 0.58057 0.38001
 O94 O 0.95435 0.63937 0.44209
 C95 C 0.90511 0.62979 0.40148
 O96 O 1.11243 0.41375 0.36945
 O97 O 1.05002 0.35598 0.44036
 C98 C 1.09463 0.36477 0.39336
 Zr99 Zr 1.08241 0.49472 0.40275
 O100 O 1.07100 0.49926 0.28796
 O101 O 1.18201 0.48846 0.38689
 Zr102 Zr 0.92184 0.50018 0.40602
 O103 O 0.92739 0.50335 0.29072
 O104 O 0.82072 0.50041 0.40961
 Zr105 Zr 0.99877 0.41551 0.49829
 Zr106 Zr 1.00875 0.57989 0.49713
 O107 O 1.00470 0.54676 0.39103
 O108 O 0.99913 0.44707 0.39085
 O109 O 1.09973 0.54301 0.49582
 O110 O 0.90847 0.45272 0.49938
 O111 O 1.09318 0.44723 0.49682
 O112 O 0.91385 0.54989 0.49895
 H113 H 1.01053 0.57310 0.64515
 H114 H 0.86934 0.42907 0.50011
 H115 H 1.00520 0.57353 0.34967
 H116 H 1.13025 0.42186 0.49813
 H117 H 0.80703 0.50493 0.63346
 H118 H 0.80527 0.50040 0.35846
 H119 H 0.88343 0.50929 0.27262
 H120 H 1.05365 0.46276 0.27144
 H121 H 1.20150 0.49001 0.43602
 H122 H 1.20394 0.51142 0.55759
 H123 H 1.05638 0.47089 0.72376
 H124 H 0.95666 0.51903 0.72607
 O125 O 0.39111 -0.08517 0.36711
 O126 O 0.45317 -0.14535 0.43394
 C127 C 0.41032 -0.13491 0.38416
 O128 O 0.61613 0.07908 0.37087
 O129 O 0.55177 0.13923 0.43457
 C130 C 0.59643 0.12880 0.38723
 O131 O 0.61807 -0.07685 0.36458
 O132 O 0.56023 -0.14086 0.43180
 C133 C 0.60183 -0.12779 0.38135
 O134 O 0.38097 0.07017 0.37010
 O135 O 0.44089 0.13422 0.43474
 C136 C 0.39737 0.12118 0.38639
 Zr137 Zr 0.42052 -0.00605 0.40834
 O138 O 0.41671 -0.00189 0.29291
 O139 O 0.32011 -0.01151 0.41894
 Zr140 Zr 0.58275 -0.00042 0.40690
 O141 O 0.58147 0.00521 0.29147
 O142 O 0.68388 -0.00284 0.40832
 O143 O 0.50326 -0.05301 0.39328
 O144 O 0.49994 0.04502 0.39387
 O145 O 0.38108 0.07044 0.62826
 O146 O 0.44104 0.13418 0.56316
 C147 C 0.39697 0.12138 0.61103
 O148 O 0.62088 -0.07652 0.63194
 O149 O 0.56180 -0.14057 0.56617
 C150 C 0.60464 -0.12754 0.61543
 O151 O 0.61831 0.07946 0.62495
 O152 O 0.55268 0.13935 0.56227
 C153 C 0.59821 0.12915 0.60883
 O154 O 0.39321 -0.08441 0.63358
 O155 O 0.45432 -0.14494 0.56631
 C156 C 0.41235 -0.13414 0.61671
 Zr157 Zr 0.42190 -0.00563 0.59144
 O158 O 0.42322 0.00034 0.70685
 O159 O 0.32117 -0.01466 0.58966
 Zr160 Zr 0.58386 -0.00015 0.59050
 O161 O 0.58216 0.00569 0.70592
 O162 O 0.68497 -0.00228 0.58928
 Zr163 Zr 0.50539 -0.08722 0.49945
 Zr164 Zr 0.49947 0.08093 0.49882
 O165 O 0.50131 0.04564 0.60419
 O166 O 0.50468 -0.05280 0.60553
 O167 O 0.40750 0.04434 0.49965
 O168 O 0.59632 -0.04901 0.49870
 O169 O 0.41184 -0.05566 0.50013
 O170 O 0.59387 0.05062 0.49840
 H171 H 0.49881 0.06953 0.35026
 H172 H 0.63457 -0.07304 0.49831
 H173 H 0.50048 0.07064 0.64728
 H174 H 0.37535 -0.08239 0.50056
 H175 H 0.69953 0.03056 0.43492
 H176 H 0.70028 0.02938 0.55901
 H177 H 0.56011 -0.02811 0.72482
 H178 H 0.45068 -0.02987 0.72552
 H179 H 0.30445 0.01327 0.55482
 H180 H 0.30280 -0.01265 0.36855
 H181 H 0.44766 -0.02917 0.27383
 H182 H 0.55635 -0.02701 0.27289
 O183 O 0.59047 0.59735 0.13221
 O184 O 0.66294 0.54667 0.06581
 C185 C 0.64790 0.58342 0.11493
 O186 O 0.41627 0.39384 0.12675
 O187 O 0.34362 0.44759 0.06489
 C188 C 0.35878 0.40837 0.11062
 O189 O 0.59149 0.40371 0.13577
 O190 O 0.66347 0.45179 0.06411
 C191 C 0.64892 0.41575 0.11466
 O192 O 0.41539 0.59863 0.12826
 O193 O 0.34298 0.54752 0.06068
 C194 C 0.35783 0.58590 0.10826
 Zr195 Zr 0.50309 0.56892 0.09068
 O196 O 0.50546 0.57629 0.20596
 O197 O 0.50347 0.65672 0.07777
 Zr198 Zr 0.50342 0.42888 0.09350
 O199 O 0.49648 0.43255 0.20882
 O200 O 0.51178 0.34087 0.09855
 O201 O 0.56053 0.49962 0.10656
 O202 O 0.44707 0.49827 0.10589
 O203 O 0.41495 0.59730 -0.12786
 O204 O 0.34263 0.54594 -0.06056
 C205 C 0.35745 0.58422 -0.10818
 O206 O 0.59142 0.40104 -0.13166
 O207 O 0.66345 0.45066 -0.06195
 C208 C 0.64892 0.41377 -0.11143
 O209 O 0.41643 0.39308 -0.12469
 O210 O 0.34372 0.44625 -0.06219
 C211 C 0.35905 0.40763 -0.10872
 O212 O 0.58953 0.59503 -0.13488
 O213 O 0.66247 0.54551 -0.06738
 C214 C 0.64696 0.58107 -0.11797
 Zr215 Zr 0.50274 0.56712 -0.09189
 O216 O 0.49553 0.56658 -0.20731
 O217 O 0.50843 0.65556 -0.09126
 Zr218 Zr 0.50337 0.42711 -0.09004
 O219 O 0.49542 0.42714 -0.20543
 O220 O 0.51149 0.33894 -0.08927
 Zr221 Zr 0.59938 0.49893 0.00035
 Zr222 Zr 0.40675 0.49671 0.00073
 O223 O 0.44705 0.49639 -0.10452
 O224 O 0.56036 0.49761 -0.10580
 O225 O 0.44550 0.57834 -0.00059
 O226 O 0.55892 0.41801 0.00188
 O227 O 0.55936 0.57905 -0.00084
 O228 O 0.44614 0.41596 0.00190
 H229 H 0.41795 0.49790 0.14851
 H230 H 0.58691 0.38488 0.00240
 H231 H 0.41856 0.49597 -0.14778
 H232 H 0.58816 0.61219 -0.00158
 H233 H 0.48109 0.32474 0.06311
 H234 H 0.47606 0.32357 -0.05941
 H235 H 0.53227 0.44838 -0.22537
 H236 H 0.53013 0.54288 -0.22642
 H237 H 0.47465 0.66930 -0.05821
 H238 H 0.50468 0.67268 0.12770
 H239 H 0.47971 0.54533 0.22676
 H240 H 0.53096 0.45777 0.22645
 N241 N 1.13426 0.22776 0.10471
 N242 N 1.17605 0.25988 0.13895
 C243 C 1.20776 0.22965 0.19008
 C244 C 1.18345 0.17529 0.18763
 C245 C 1.13725 0.17619 0.13272
 H246 H 1.19491 0.14057 0.22281
 H247 H 1.10328 0.24163 0.06401
 H248 H 1.17933 0.30286 0.12970
 N249 N 1.13940 0.72465 0.61212
 N250 N 1.17688 0.75616 0.65355
 C251 C 1.21100 0.72268 0.69788
 C252 C 1.19501 0.66737 0.68236
 C253 C 1.14927 0.67062 0.62901
 H254 H 1.21216 0.62967 0.70812
 H255 H 1.10660 0.74018 0.57437
 H256 H 1.17701 0.79979 0.65311
 N257 N 0.59044 0.20581 0.69893
 N258 N 0.62906 0.23620 0.74044
 C259 C 0.69035 0.22903 0.71896
 C260 C 0.68956 0.18902 0.66306
 C261 C 0.62530 0.17636 0.65128
 H262 H 0.72985 0.16913 0.63749
 H263 H 0.54127 0.20172 0.70750
 H264 H 0.61314 0.25730 0.78666
 N265 N 0.72939 0.58798 0.21080
 N266 N 0.75237 0.62760 0.25381
 C267 C 0.73548 0.67811 0.22676
 C268 C 0.69975 0.66937 0.16413
 C269 C 0.69754 0.61204 0.15572
 H270 H 0.67568 0.70049 0.13152
 H271 H 0.73122 0.54527 0.22245
 H272 H 0.77680 0.61896 0.30200
 N273 N 0.87281 -0.23534 0.11316
 N274 N 0.82962 -0.26707 0.14567
 C275 C 0.79818 -0.23701 0.19706
 C276 C 0.82434 -0.18320 0.19680
 C277 C 0.87128 -0.18423 0.14279
 H278 H 0.81290 -0.14865 0.23221
 H279 H 0.90297 -0.24892 0.07152
 H280 H 0.82487 -0.30968 0.13456
 N281 N 0.87667 0.27087 0.62487
 N282 N 0.83579 0.23950 0.66211
 C283 C 0.79967 0.27290 0.70427
 C284 C 0.81865 0.32814 0.69227
 C285 C 0.86752 0.32484 0.64258
 H286 H 0.80016 0.36585 0.71656
 H287 H 0.91038 0.25531 0.58830
 H288 H 0.83432 0.19592 0.66005
 N289 N 0.41648 -0.20205 0.71844
 N290 N 0.37566 -0.23232 0.75727
 C291 C 0.31770 -0.23240 0.72436
 C292 C 0.32246 -0.19796 0.66281
 C293 C 0.38597 -0.18060 0.66045
 H294 H 0.28462 -0.18416 0.62720
 H295 H 0.46330 -0.19283 0.73461
 H296 H 0.38701 -0.24940 0.80806
 N297 N 0.27770 0.40425 0.20645
 N298 N 0.25400 0.36500 0.24952
 C299 C 0.26953 0.31426 0.22232
 C300 C 0.30602 0.32245 0.16008
 C301 C 0.30919 0.37976 0.15152
 H302 H 0.32944 0.29097 0.12754
 H303 H 0.27675 0.44698 0.21807
 H304 H 0.23026 0.37397 0.29806
 N305 N 0.77370 0.14485 -0.10532
 N306 N 0.73780 0.17787 -0.14526
 C307 C 0.77547 0.20699 -0.19161
 C308 C 0.83904 0.19255 -0.17865
 C309 C 0.83535 0.15322 -0.12328
 H310 H 0.88162 0.20744 -0.20624
 H311 H 0.75586 0.11556 -0.06805
 H312 H 0.68816 0.18009 -0.14082
 N313 N 0.81209 0.68691 0.42812
 N314 N 0.77183 0.71727 0.39006
 C315 C 0.79677 0.72655 0.32308
 C316 C 0.85697 0.70233 0.32021
 C317 C 0.86380 0.67681 0.38695
 H318 H 0.88532 0.69431 0.27201
 H319 H 0.80069 0.66774 0.47779
 H320 H 0.72504 0.72484 0.40679
 N321 N 0.40008 0.21589 0.33091
 N322 N 0.36361 0.24935 0.29201
 C323 C 0.30648 0.22422 0.27814
 C324 C 0.30834 0.17090 0.31066
 C325 C 0.36863 0.16772 0.34375
 H326 H 0.26992 0.14060 0.31522
 H327 H 0.44569 0.22668 0.34968
 H328 H 0.37718 0.29032 0.27943
 N329 N 0.25062 0.62824 -0.11065
 N330 N 0.22637 0.67271 -0.14270
 C331 C 0.26848 0.69250 -0.19284
 C332 C 0.31979 0.65695 -0.19523
 C333 C 0.30787 0.61839 -0.14067
 H334 H 0.36176 0.65975 -0.22954
 H335 H 0.22951 0.60693 -0.06701
 H336 H 0.18207 0.68959 -0.12943
 N337 N 1.21972 -0.16038 -0.09767
 N338 N 1.25912 -0.19058 -0.13684
 C339 C 1.22661 -0.21391 -0.19282
 C340 C 1.16272 -0.19794 -0.18798
 C341 C 1.16079 -0.16451 -0.12638
 H342 H 1.12329 -0.20868 -0.22366
 H343 H 1.23365 -0.13557 -0.05348
 H344 H 1.30745 -0.19546 -0.12458
 N345 N 1.18058 0.30030 0.42185
 N346 N 1.22168 0.27003 0.38501
 C347 C 1.20239 0.26716 0.31473
 C348 C 1.14492 0.29566 0.30791
 C349 C 1.13413 0.31701 0.37635
 H350 H 1.12144 0.30828 0.25797
 H351 H 1.18901 0.31541 0.47450
 H352 H 1.26570 0.25787 0.40626
 N353 N 0.59945 -0.22215 0.32463
 N354 N 0.63750 -0.25601 0.28850
 C355 C 0.69540 -0.23122 0.27808
 C356 C 0.69241 -0.17782 0.30982
 C357 C 0.63070 -0.17414 0.33884
 H358 H 0.73094 -0.14794 0.31704
 H359 H 0.55312 -0.23269 0.34114
 H360 H 0.62440 -0.29708 0.27592
 N361 N 0.75176 0.36431 -0.10563
 N362 N 0.77439 0.31828 -0.13517
 C363 C 0.73571 0.30196 -0.19067
 C364 C 0.68888 0.34190 -0.19905
 C365 C 0.69896 0.37900 -0.14223
 H366 H 0.65082 0.34322 -0.23897
 H367 H 0.77028 0.38324 -0.05882
 H368 H 0.81544 0.29827 -0.11674
 N369 N 1.13386 0.22656 -0.10339
 N370 N 1.17548 0.25897 -0.13736
 C371 C 1.21036 0.22856 -0.18540
 C372 C 1.18775 0.17356 -0.18147
 C373 C 1.13955 0.17448 -0.12880
 H374 H 1.20064 0.13857 -0.21537
 H375 H 1.10041 0.24073 -0.06561
 H376 H 1.17575 0.30234 -0.13136
 N377 N 1.13660 0.72180 0.38359
 N378 N 1.17795 0.75536 0.34259
 C379 C 1.21270 0.72176 0.29896
 C380 C 1.19481 0.66608 0.31336
 C381 C 1.14687 0.66817 0.36497
 H382 H 1.21235 0.62857 0.28753
 H383 H 1.10276 0.73683 0.42038
 H384 H 1.17747 0.79898 0.34272
 N385 N 0.58914 0.20253 0.29307
 N386 N 0.62828 0.23330 0.25273
 C387 C 0.68870 0.22869 0.27831
 C388 C 0.68713 0.19025 0.33598
 C389 C 0.62306 0.17574 0.34430
 H390 H 0.72697 0.17242 0.36499
 H391 H 0.54071 0.19636 0.28152
 H392 H 0.61373 0.25321 0.20490
 N393 N 0.70934 0.58929 -0.22945
 N394 N 0.73159 0.63145 -0.26858
 C395 C 0.73351 0.67788 -0.22646
 C396 C 0.70822 0.66449 -0.15869
 C397 C 0.69560 0.60775 -0.16203
 H398 H 0.69682 0.69287 -0.11468
 H399 H 0.69817 0.54988 -0.25075
 H400 H 0.74255 0.62854 -0.32410
 N401 N 0.87150 -0.23677 -0.10575
 N402 N 0.82890 -0.26848 -0.13938
 C403 C 0.79493 -0.23756 -0.18788
 C404 C 0.81939 -0.18318 -0.18489
 C405 C 0.86767 -0.18484 -0.13235
 H406 H 0.80717 -0.14812 -0.21916
 H407 H 0.90384 -0.25122 -0.06677
 H408 H 0.82735 -0.31176 -0.13257
 N409 N 0.87413 0.27006 0.37614
 N410 N 0.83357 0.23877 0.33833
 C411 C 0.79751 0.27238 0.29625
 C412 C 0.81591 0.32755 0.30916
 C413 C 0.86461 0.32406 0.35884
 H414 H 0.79756 0.36540 0.28497
 H415 H 0.90808 0.25442 0.41244
 H416 H 0.83246 0.19516 0.33972
 N417 N 0.41470 -0.20511 0.28496
 N418 N 0.37445 -0.23607 0.24623
 C419 C 0.31546 -0.23541 0.27717
 C420 C 0.31967 -0.19903 0.33742
 C421 C 0.38341 -0.18193 0.34104
 H422 H 0.28152 -0.18366 0.37129
 H423 H 0.46172 -0.19628 0.26937
 H424 H 0.38696 -0.25337 0.19598
 N425 N 0.29599 0.40184 -0.21949
 N426 N 0.27396 0.36091 -0.26080
 C427 C 0.27229 0.31316 -0.22122
 C428 C 0.29818 0.32435 -0.15292
 C429 C 0.31047 0.38125 -0.15330
 H430 H 0.30967 0.29464 -0.11041
 H431 H 0.30670 0.44198 -0.23870
 H432 H 0.26283 0.36563 -0.31608
 N433 N 1.22506 -0.15218 0.11179
 N434 N 1.26363 -0.18438 0.14944
 C435 C 1.22910 -0.21449 0.19819
 C436 C 1.16433 -0.20124 0.18845
 C437 C 1.16451 -0.16179 0.13303
 H438 H 1.12309 -0.21736 0.21750
 H439 H 1.24047 -0.12249 0.07368
 H440 H 1.31292 -0.18542 0.14118
 N441 N 1.13709 0.26978 0.59741
 N442 N 1.18205 0.24239 0.63294
 C443 C 1.19378 0.26926 0.69632
 C444 C 1.15214 0.31388 0.70215
 C445 C 1.12045 0.31477 0.63708
 H446 H 1.15047 0.34547 0.74440
 H447 H 1.12119 0.25966 0.54497
 H448 H 1.20533 0.20747 0.61233
 N449 N 0.60464 -0.22335 0.66720
 N450 N 0.64248 -0.25749 0.70317
 C451 C 0.69968 -0.23224 0.71690
 C452 C 0.69599 -0.17774 0.68794
 C453 C 0.63486 -0.17437 0.65640
 H454 H 0.73332 -0.14625 0.68583
 H455 H 0.55856 -0.23397 0.64975
 H456 H 0.62883 -0.29846 0.71562
 N457 N 0.75282 0.36786 0.11024
 N458 N 0.77516 0.32110 0.13817
 C459 C 0.73491 0.30259 0.19097
 C460 C 0.68720 0.34154 0.19940
 C461 C 0.69864 0.38067 0.14533
 H462 H 0.64771 0.34084 0.23749
 H463 H 0.77277 0.38882 0.06567
 H464 H 0.81724 0.30221 0.12081
 N465 N 0.77456 0.14740 0.10214
 N466 N 0.73807 0.18025 0.14145
 C467 C 0.77484 0.20794 0.19017
 C468 C 0.83840 0.19281 0.17954
 C469 C 0.83567 0.15455 0.12307
 H470 H 0.88038 0.20646 0.20932
 H471 H 0.75742 0.11897 0.06339
 H472 H 0.68866 0.18322 0.13502
 N473 N 0.86209 0.72350 0.59024
 N474 N 0.81695 0.75004 0.62650
 C475 C 0.80951 0.72489 0.69193
 C476 C 0.85363 0.68224 0.69790
 C477 C 0.88280 0.68064 0.63142
 H478 H 0.85792 0.65172 0.74129
 H479 H 0.87531 0.73247 0.53652
 H480 H 0.79051 0.78284 0.60492
 N481 N 0.39489 0.21866 0.65730
 N482 N 0.35815 0.25224 0.69541
 C483 C 0.30338 0.22540 0.71542
 C484 C 0.30735 0.17058 0.68761
 C485 C 0.36631 0.16850 0.65090
 H486 H 0.27162 0.13774 0.69000
 H487 H 0.43921 0.23042 0.63566
 H488 H 0.37074 0.29387 0.70512
 N489 N 0.25322 0.63375 0.10682
 N490 N 0.22933 0.67814 0.13933
 C491 C 0.26940 0.69518 0.19350
 C492 C 0.31858 0.65686 0.19777
 C493 C 0.30807 0.62051 0.14023
 H494 H 0.35859 0.65659 0.23524
 H495 H 0.23377 0.61488 0.06040
 H496 H 0.18655 0.69667 0.12352
   
