data_POSCAR
  _audit_creation_date              2014-09-24
  _audit_creation_method            'ToBaCCo'
  _symmetry_space_group_name_H-M    'P1'
  _symmetry_Int_Tables_number       1
  _symmetry_cell_setting            triclinic
  loop_
  _symmetry_equiv_pos_as_xyz
 x,y,z
_cell_length_a 42.5061
_cell_length_b 42.7681
_cell_length_c 42.7151
_cell_angle_alpha 89.942400
_cell_angle_beta 90.031700
_cell_angle_gamma 90.048800
loop_
  _atom_site_label
  _atom_site_type_symbol
  _atom_site_fract_x
  _atom_site_fract_y
  _atom_site_fract_z
C1 C 0.15703 0.17808 0.20038
 C2 C 0.15803 0.20199 0.17786
 C3 C 0.18352 0.20432 0.15777
 C4 C 0.20784 0.18220 0.15933
 C5 C 0.20655 0.15849 0.18120
 C6 C 0.18137 0.15684 0.20231
 C7 C 0.13571 0.17046 0.22343
 N8 N 0.14683 0.14544 0.23991
 C9 C 0.17479 0.13699 0.22676
 C10 C 0.23191 0.13930 0.17601
 N11 N 0.24882 0.15060 0.15131
 C12 C 0.23426 0.17726 0.14138
 C13 C 0.17831 0.22969 0.13860
 N14 N 0.15020 0.24249 0.14640
 C15 C 0.13752 0.22572 0.17025
 H16 H 0.11446 0.18336 0.22857
 H17 H 0.18928 0.11745 0.23387
 H18 H 0.23734 0.11860 0.18951
 H19 H 0.24094 0.19115 0.12127
 H20 H 0.19349 0.23795 0.12000
 H21 H 0.11510 0.23054 0.18123
 C22 C -0.15466 0.81928 0.20508
 C23 C -0.15249 0.79789 0.18034
 C24 C -0.17462 0.79833 0.15658
 C25 C -0.19958 0.81974 0.15765
 C26 C -0.20229 0.84006 0.18259
 C27 C -0.17957 0.83992 0.20645
 C28 C -0.13530 0.82569 0.23005
 N29 N -0.14784 0.84972 0.24689
 C30 C -0.17527 0.85818 0.23261
 C31 C -0.22865 0.85800 0.17744
 N32 N -0.24204 0.84941 0.14969
 C33 C -0.22412 0.82587 0.13758
 C34 C -0.16655 0.77523 0.13564
 N35 N -0.14043 0.76052 0.14649
 C36 C -0.13158 0.77424 0.17375
 H37 H -0.11375 0.81337 0.23545
 H38 H -0.19023 0.87746 0.23943
 H39 H -0.23647 0.87680 0.19244
 H40 H -0.22870 0.81332 0.11609
 H41 H -0.17920 0.76893 0.11456
 H42 H -0.11155 0.76733 0.18780
 C43 C -0.16040 0.18233 -0.20458
 C44 C -0.16166 0.20602 -0.18197
 C45 C -0.18478 0.20545 -0.15914
 C46 C -0.20658 0.18081 -0.15838
 C47 C -0.20524 0.15748 -0.18063
 C48 C -0.18180 0.15808 -0.20370
 C49 C -0.14055 0.17691 -0.22939
 N50 N -0.14900 0.14957 -0.24351
 C51 C -0.17426 0.13794 -0.22761
 C52 C -0.22898 0.13664 -0.17410
 N53 N -0.24471 0.14639 -0.14805
 C54 C -0.23082 0.17350 -0.13834
 C55 C -0.17979 0.23084 -0.13995
 N56 N -0.15400 0.24636 -0.15040
 C57 C -0.14268 0.23139 -0.17599
 H58 H -0.12070 0.19143 -0.23575
 H59 H -0.18707 0.11684 -0.23336
 H60 H -0.23338 0.11529 -0.18694
 H61 H -0.23808 0.18763 -0.11865
 H62 H -0.19314 0.23696 -0.11926
 H63 H -0.12184 0.23819 -0.18889
 C64 C 0.15498 0.82188 -0.20439
 C65 C 0.15706 0.79623 -0.18414
 C66 C 0.18083 0.79481 -0.16207
 C67 C 0.20254 0.81944 -0.15970
 C68 C 0.19968 0.84534 -0.17887
 C69 C 0.17579 0.84649 -0.20156
 C70 C 0.13527 0.82848 -0.22896
 N71 N 0.14338 0.85671 -0.24141
 C72 C 0.16799 0.86804 -0.22428
 C73 C 0.22321 0.86587 -0.17066
 N74 N 0.24077 0.85293 -0.14725
 C75 C 0.22810 0.82439 -0.14058
 C76 C 0.17629 0.76783 -0.14499
 N77 N 0.15005 0.75332 -0.15591
 C78 C 0.13828 0.77040 -0.17998
 H79 H 0.11614 0.81370 -0.23673
 H80 H 0.18060 0.88954 -0.22886
 H81 H 0.22768 0.88814 -0.18186
 H82 H 0.23605 0.80859 -0.12242
 H83 H 0.19004 0.76017 -0.12507
 H84 H 0.11706 0.76489 -0.19288
 C85 C 0.18224 1.15717 0.79670
 C86 C 0.20596 1.15797 0.81957
 C87 C 0.20434 1.17953 0.84363
 C88 C 0.17943 1.20090 0.84485
 C89 C 0.15585 1.19979 0.82271
 C90 C 0.15716 1.17760 0.79855
 C91 C 0.17736 1.13852 0.77092
 N92 N 0.14961 1.14673 0.75714
 C93 C 0.13723 1.17074 0.77416
 C94 C 0.13481 1.22318 0.82983
 N95 N 0.14534 1.23901 0.85554
 C96 C 0.17266 1.22509 0.86484
 C97 C 0.22931 1.17398 0.86331
 N98 N 0.24610 1.14964 0.85172
 C99 C 0.23219 1.13981 0.82483
 H100 H 0.19250 1.11952 0.76373
 H101 H 0.11566 1.18312 0.76898
 H102 H 0.11420 1.22892 0.81614
 H103 H 0.18666 1.23148 0.88499
 H104 H 0.23462 1.18636 0.88478
 H105 H 0.23990 1.12014 0.81088
 C106 C 0.81754 0.83899 0.79175
 C107 C 0.79420 0.83791 0.81493
 C108 C 0.79713 0.81730 0.83977
 C109 C 0.82294 0.79696 0.84129
 C110 C 0.84571 0.79782 0.81834
 C111 C 0.84332 0.81944 0.79371
 C112 C 0.82184 0.85787 0.76600
 N113 N 0.85001 0.85081 0.75247
 C114 C 0.86311 0.82709 0.76942
 C115 C 0.86750 0.77512 0.82553
 N116 N 0.85856 0.76020 0.85239
 C117 C 0.83132 0.77398 0.86219
 C118 C 0.77240 0.82277 0.85977
 N119 N 0.75445 0.84598 0.84751
 C120 C 0.76745 0.85533 0.82004
 H121 H 0.80626 0.87660 0.75897
 H122 H 0.88534 0.81581 0.76455
 H123 H 0.88843 0.77036 0.81200
 H124 H 0.81737 0.76710 0.88220
 H125 H 0.76807 0.81124 0.88193
 H126 H 0.75877 0.87426 0.80558
 C127 C 0.17526 0.84274 1.20419
 C128 C 0.19987 0.84192 1.18230
 C129 C 0.20284 0.81661 1.16232
 C130 C 0.18077 0.79224 1.16339
 C131 C 0.15631 0.79334 1.18471
 C132 C 0.15393 0.81845 1.20561
 C133 C 0.16691 0.86391 1.22696
 N134 N 0.14130 0.85280 1.24273
 C135 C 0.13326 0.82494 1.22943
 C136 C 0.13730 0.76794 1.17911
 N137 N 0.14967 0.75143 1.15496
 C138 C 0.17642 0.76592 1.14535
 C139 C 0.22866 0.82204 1.14367
 N140 N 0.24120 0.85011 1.15169
 C141 C 0.22374 0.86252 1.17520
 H142 H 0.17972 0.88509 1.23237
 H143 H 0.11347 0.81043 1.23599
 H144 H 0.11557 0.76231 1.19109
 H145 H 0.19072 0.75868 1.12568
 H146 H 0.23738 0.80703 1.12523
 H147 H 0.22818 0.88484 1.18631
 C148 C 0.81732 1.16231 1.20628
 C149 C 0.79444 1.16114 1.18267
 C150 C 0.79403 1.18366 1.15937
 C151 C 0.81618 1.20800 1.15977
 C152 C 0.83857 1.20920 1.18328
 C153 C 0.83899 1.18632 1.20678
 C154 C 0.82444 1.14261 1.23071
 N155 N 0.84982 1.15420 1.24645
 C156 C 0.85861 1.18120 1.23187
 C157 C 0.85784 1.23426 1.17707
 N158 N 0.84753 1.24846 1.15056
 C159 C 0.82197 1.23267 1.13985
 C160 C 0.77020 1.17590 1.13895
 N161 N 0.75596 1.14959 1.14969
 C162 C 0.77053 1.14039 1.17640
 H163 H 0.81150 1.12164 1.23666
 H164 H 0.87877 1.19545 1.23787
 H165 H 0.87804 1.24153 1.19071
 H166 H 0.80918 1.23817 1.11862
 H167 H 0.76352 1.18849 1.11797
 H168 H 0.76442 1.11984 1.18994
 O169 O 0.45813 1.05520 1.05517
 O170 O 0.42271 1.02502 1.02801
 C171 C 0.42970 1.04698 1.04768
 O172 O 0.54563 1.04894 0.94349
 O173 O 0.57956 1.02044 0.97416
 C174 C 0.57362 1.04057 0.95227
 O175 O 0.45736 1.05350 0.94635
 O176 O 0.42233 1.02541 0.97610
 C177 C 0.42901 1.04636 0.95520
 O178 O 0.54638 1.04915 1.05845
 O179 O 0.57994 1.02068 1.02760
 C180 C 0.57436 1.04079 1.04956
 Zr181 Zr 0.50167 1.03557 1.04104
 O182 O 0.50672 1.08478 1.04188
 O183 O 0.49794 1.03478 1.09048
 Zr184 Zr 0.50125 1.03559 0.96177
 O185 O 0.50587 1.08489 0.96274
 O186 O 0.49773 1.03647 0.91235
 O187 O 0.47363 1.04245 1.00148
 O188 O 0.52883 1.04067 1.00127
 O189 O 0.54340 0.94137 1.05935
 O190 O 0.57842 0.96793 1.02815
 C191 C 0.57173 0.94834 1.05032
 O192 O 0.45455 0.93941 0.94787
 O193 O 0.42107 0.97126 0.97541
 C194 C 0.42664 0.94906 0.95558
 O195 O 0.54321 0.94103 0.94388
 O196 O 0.57829 0.96778 0.97467
 C197 C 0.57166 0.94815 0.95255
 O198 O 0.45476 0.93997 1.05582
 O199 O 0.42115 0.97168 1.02829
 C200 C 0.42674 0.94947 1.04817
 Zr201 Zr 0.49951 0.95657 1.04112
 O202 O 0.50212 0.90713 1.04069
 O203 O 0.49582 0.95625 1.09053
 Zr204 Zr 0.49929 0.95652 0.96190
 O205 O 0.50191 0.90710 0.96178
 O206 O 0.49517 0.95682 0.91249
 Zr207 Zr 0.45372 0.99730 1.00161
 Zr208 Zr 0.54715 0.99496 1.00127
 O209 O 0.52655 0.95017 1.00145
 O210 O 0.47118 0.95114 1.00161
 O211 O 0.52869 0.99539 1.04709
 O212 O 0.47295 0.99670 0.95621
 O213 O 0.47331 0.99680 1.04688
 O214 O 0.52829 0.99538 0.95560
 H215 H 0.54348 1.05871 1.00116
 H216 H 0.45865 0.99694 0.93789
 H217 H 0.54033 0.93150 1.00147
 H218 H 0.45914 0.99725 1.06529
 H219 H 0.51365 1.02180 0.90408
 H220 H 0.51336 0.96855 0.90406
 H221 H 0.48481 0.89923 0.97535
 H222 H 0.48375 0.89929 1.02882
 H223 H 0.51280 0.96974 1.09879
 H224 H 0.51621 1.02307 1.09871
 H225 H 0.49126 1.09348 1.02694
 H226 H 0.48711 1.09343 0.97342
 O227 O 0.05687 0.45406 -0.05680
 O228 O 0.02514 0.42085 -0.02866
 C229 C 0.04722 0.42638 -0.04878
 O230 O 0.05822 0.54282 0.05324
 O231 O 0.02911 0.57752 0.02414
 C232 C 0.04984 0.57098 0.04542
 O233 O 0.05891 0.45459 0.05086
 O234 O 0.02631 0.42117 0.02423
 C235 C 0.04921 0.42671 0.04349
 O236 O 0.05610 0.54202 -0.06055
 O237 O 0.02809 0.57708 -0.03094
 C238 C 0.04811 0.57027 -0.05275
 Zr239 Zr 0.04003 0.49856 -0.04267
 O240 O 0.08974 0.50090 -0.04445
 O241 O 0.03800 0.49467 -0.09205
 Zr242 Zr 0.04193 0.49906 0.03636
 O243 O 0.09167 0.50150 0.03494
 O244 O 0.04317 0.49585 0.08580
 O245 O 0.04637 0.47074 -0.00305
 O246 O 0.04736 0.52589 -0.00349
 O247 O -0.05320 0.54475 -0.05922
 O248 O -0.02356 0.57834 -0.02937
 C249 C -0.04423 0.57255 -0.05083
 O250 O -0.05696 0.45793 0.05328
 O251 O -0.02711 0.42276 0.02566
 C252 C -0.04878 0.42966 0.04581
 O253 O -0.05066 0.54589 0.05596
 O254 O -0.02279 0.57888 0.02393
 C255 C -0.04238 0.57362 0.04652
 O256 O -0.05881 0.45666 -0.05488
 O257 O -0.02815 0.42216 -0.02729
 C258 C -0.05043 0.42849 -0.04698
 Zr259 Zr -0.03974 0.50049 -0.04093
 O260 O -0.08927 0.50549 -0.03909
 O261 O -0.04167 0.49653 -0.09027
 Zr262 Zr -0.03784 0.50121 0.03821
 O263 O -0.08735 0.50636 0.03943
 O264 O -0.03664 0.49778 0.08764
 Zr265 Zr -0.00010 0.45347 -0.00183
 Zr266 Zr 0.00228 0.54612 -0.00265
 O267 O -0.04380 0.52810 -0.00151
 O268 O -0.04561 0.47308 -0.00096
 O269 O 0.00074 0.52723 -0.04819
 O270 O 0.00145 0.47316 0.04329
 O271 O -0.00065 0.47247 -0.04732
 O272 O 0.00292 0.52792 0.04322
 H273 H 0.06606 0.53975 -0.00393
 H274 H 0.00151 0.45917 0.06180
 H275 H -0.06183 0.54277 -0.00130
 H276 H -0.00137 0.45822 -0.06558
 H277 H 0.03068 0.51346 0.09415
 H278 H -0.02317 0.51496 0.09546
 H279 H -0.09644 0.48967 0.02620
 H280 H -0.09774 0.48744 -0.02730
 H281 H -0.02690 0.51215 -0.09899
 H282 H 0.02700 0.51340 -0.10011
 H283 H 0.09798 0.48441 -0.03042
 H284 H 0.09924 0.48329 0.02285
 O285 O 0.94885 0.06504 0.45627
 O286 O 0.97383 0.03196 0.42211
 C287 C 0.95548 0.05526 0.42829
 O288 O 1.06115 0.05365 0.54334
 O289 O 1.02826 0.02844 0.57778
 C290 C 1.05156 0.04688 0.57144
 O291 O 1.05780 0.05621 0.45489
 O292 O 1.02557 0.02923 0.42121
 C293 C 1.04784 0.04905 0.42703
 O294 O 0.94662 0.06227 0.54436
 O295 O 0.97395 0.03070 0.57835
 C296 C 0.95391 0.05265 0.57229
 Zr297 Zr 0.96230 0.04589 0.50009
 O298 O 0.96493 0.09519 0.50334
 O299 O 0.91263 0.04818 0.49692
 Zr300 Zr 1.04177 0.04045 0.49935
 O301 O 1.04439 0.08979 0.50257
 O302 O 1.09133 0.03777 0.49562
 O303 O 1.00220 0.04915 0.47183
 O304 O 1.00267 0.04895 0.52683
 O305 O 0.93788 -0.04630 0.54435
 O306 O 0.97117 -0.02084 0.57809
 C307 C 0.94783 -0.03938 0.57224
 O308 O 1.04894 -0.05750 0.45558
 O309 O 1.02320 -0.02466 0.42157
 C310 C 1.04176 -0.04786 0.42761
 O311 O 1.05275 -0.05456 0.54399
 O312 O 1.02596 -0.02281 0.57814
 C313 C 1.04589 -0.04480 0.57198
 O314 O 0.94014 -0.04943 0.45639
 O315 O 0.97163 -0.02259 0.42188
 C316 C 0.94966 -0.04257 0.42831
 Zr317 Zr 0.95673 -0.03307 0.50032
 O318 O 0.95397 -0.08237 0.50406
 O319 O 0.90713 -0.02999 0.49719
 Zr320 Zr 1.03622 -0.03854 0.49982
 O321 O 1.03340 -0.08781 0.50348
 O322 O 1.08581 -0.04128 0.49593
 Zr323 Zr 0.99885 0.00350 0.45351
 Zr324 Zr 0.99967 0.00382 0.54630
 O325 O 0.99632 -0.04142 0.52725
 O326 O 0.99583 -0.04201 0.47227
 O327 O 0.95364 0.00689 0.52814
 O328 O 1.04448 0.00047 0.47241
 O329 O 0.95355 0.00671 0.47306
 O330 O 1.04538 0.00065 0.52739
 H331 H 1.00400 0.06726 0.54097
 H332 H 1.06274 -0.00078 0.45806
 H333 H 0.99525 -0.05964 0.54156
 H334 H 0.93511 0.00785 0.45890
 H335 H 1.09870 0.02305 0.51192
 H336 H 1.09493 -0.03036 0.51421
 H337 H 1.01871 -0.09510 0.48708
 H338 H 0.96499 -0.09135 0.48577
 H339 H 0.90005 -0.01544 0.51372
 H340 H 0.90388 0.03800 0.51581
 H341 H 0.98029 0.10232 0.48748
 H342 H 1.03389 0.09858 0.48386
 C343 C 1.10499 0.10491 0.31896
 C344 C 1.13736 0.10117 0.31393
 C345 C 1.15111 0.11419 0.28709
 C346 C 1.13300 0.13188 0.26560
 C347 C 1.10044 0.13556 0.27147
 C348 C 1.08631 0.12175 0.29777
 C349 C 1.09039 0.09095 0.34702
 C350 C 1.05777 0.09371 0.35147
 C351 C 1.04394 0.07981 0.37783
 C352 C 1.06270 0.06422 0.40002
 C353 C 1.09537 0.06210 0.39562
 C354 C 1.10932 0.07501 0.36880
 C355 C 1.05378 0.12430 0.30321
 C356 C 1.03972 0.11030 0.32947
 C357 C 1.15546 0.08474 0.33604
 C358 C 1.14172 0.07207 0.36312
 H359 H 1.03904 0.13709 0.28695
 H360 H 1.01454 0.11266 0.33269
 H361 H 1.18052 0.08180 0.33249
 H362 H 1.15655 0.05971 0.37963
 H363 H 1.17621 0.11159 0.28387
 H364 H 1.08572 0.14821 0.25512
 H365 H 1.01871 0.08135 0.38134
 H366 H 1.10965 0.04967 0.41260
 C367 C 0.89297 -0.10584 0.32425
 C368 C 0.86037 -0.10376 0.31959
 C369 C 0.84681 -0.11852 0.29355
 C370 C 0.86542 -0.13618 0.27256
 C371 C 0.89815 -0.13847 0.27829
 C372 C 0.91204 -0.12292 0.30367
 C373 C 0.90745 -0.08967 0.35113
 C374 C 0.94026 -0.09071 0.35504
 C375 C 0.95395 -0.07477 0.38025
 C376 C 0.93494 -0.05884 0.40190
 C377 C 0.90211 -0.05840 0.39809
 C378 C 0.88823 -0.07338 0.37233
 C379 C 0.94474 -0.12379 0.30863
 C380 C 0.95864 -0.10775 0.33374
 C381 C 0.84195 -0.08699 0.34113
 C382 C 0.85561 -0.07226 0.36718
 H383 H 0.95975 -0.13678 0.29281
 H384 H 0.98396 -0.10884 0.33659
 H385 H 0.81672 -0.08531 0.33788
 H386 H 0.84054 -0.05969 0.38328
 H387 H 0.82160 -0.11700 0.29037
 H388 H 0.91325 -0.15104 0.26230
 H389 H 0.97927 -0.07517 0.38342
 H390 H 0.88760 -0.04586 0.41474
 C391 C 0.89441 0.10881 0.67863
 C392 C 0.89780 0.14100 0.68388
 C393 C 0.88369 0.15446 0.71029
 C394 C 0.86531 0.13620 0.73104
 C395 C 0.86197 0.10385 0.72490
 C396 C 0.87683 0.09003 0.69911
 C397 C 0.90956 0.09448 0.65112
 C398 C 0.90709 0.06205 0.64651
 C399 C 0.92200 0.04848 0.62064
 C400 C 0.93828 0.06729 0.59906
 C401 C 0.94019 0.09975 0.60359
 C402 C 0.92625 0.11346 0.62998
 C403 C 0.87464 0.05771 0.69353
 C404 C 0.88973 0.04391 0.66780
 C405 C 0.91502 0.15917 0.66244
 C406 C 0.92881 0.14567 0.63583
 H407 H 0.86127 0.04292 0.70928
 H408 H 0.88760 0.01888 0.66444
 H409 H 0.91771 0.18409 0.66616
 H410 H 0.94174 0.16055 0.61980
 H411 H 0.88608 0.17940 0.71379
 H412 H 0.84885 0.08902 0.74075
 H413 H 0.92059 0.02342 0.61695
 H414 H 0.95311 0.11407 0.58703
 C415 C 1.10302 -0.10167 0.67943
 C416 C 1.11890 -0.08291 0.70127
 C417 C 1.13277 -0.09696 0.72758
 C418 C 1.12998 -0.12952 0.73282
 C419 C 1.11333 -0.14773 0.71064
 C420 C 1.10032 -0.13405 0.68379
 C421 C 1.08891 -0.08713 0.65144
 C422 C 1.07391 -0.10609 0.62908
 C423 C 1.06072 -0.09217 0.60239
 C424 C 1.06159 -0.05955 0.59873
 C425 C 1.07632 -0.04079 0.62145
 C426 C 1.09052 -0.05454 0.64768
 C427 C 1.08487 -0.15221 0.66107
 C428 C 1.07209 -0.13850 0.63406
 C429 C 1.12039 -0.05041 0.69646
 C430 C 1.10621 -0.03643 0.67025
 H431 H 1.08277 -0.17728 0.66412
 H432 H 1.06048 -0.15335 0.61707
 H433 H 1.13243 -0.03562 0.71321
 H434 H 1.10768 -0.01127 0.66755
 H435 H 1.14467 -0.08225 0.74445
 H436 H 1.11154 -0.17282 0.71335
 H437 H 1.04896 -0.10647 0.58499
 H438 H 1.07693 -0.01560 0.61847
 C439 C 0.32613 1.10750 1.10846
 C440 C 0.32078 1.13947 1.10348
 C441 C 0.29488 1.15386 1.11787
 C442 C 0.27455 1.13669 1.13777
 C443 C 0.28097 1.10458 1.14279
 C444 C 0.30633 1.08988 1.12793
 C445 C 0.35291 1.09211 1.09287
 C446 C 0.35768 1.05990 1.09721
 C447 C 0.38292 1.04532 1.08208
 C448 C 0.40352 1.06283 1.06328
 C449 C 0.39885 1.09512 1.05941
 C450 C 0.37322 1.10988 1.07392
 C451 C 0.31203 1.05774 1.13187
 C452 C 0.33718 1.04296 1.11665
 C453 C 0.34147 1.15645 1.08419
 C454 C 0.36733 1.14194 1.06979
 H455 H 0.29681 1.04383 1.14673
 H456 H 0.34068 1.01812 1.12021
 H457 H 0.33768 1.18119 1.08022
 H458 H 0.38273 1.15590 1.05518
 H459 H 0.29126 1.17861 1.11412
 H460 H 0.26557 1.09041 1.15711
 H461 H 0.38697 1.02052 1.08533
 H462 H 0.41478 1.10846 1.04475
 C463 C 0.31931 0.89331 0.89604
 C464 C 0.29687 0.91261 0.88166
 C465 C 0.27091 0.89896 0.86668
 C466 C 0.26649 0.86616 0.86694
 C467 C 0.28920 0.84731 0.88215
 C468 C 0.31585 0.86070 0.89616
 C469 C 0.34698 0.90754 0.91129
 C470 C 0.37009 0.88817 0.92461
 C471 C 0.39663 0.90184 0.93862
 C472 C 0.39937 0.93455 0.94025
 C473 C 0.37580 0.95366 0.92729
 C474 C 0.34977 0.94025 0.91226
 C475 C 0.33926 0.84209 0.91008
 C476 C 0.36605 0.85558 0.92382
 C477 C 0.30070 0.94525 0.88277
 C478 C 0.32656 0.95884 0.89805
 H479 H 0.33696 0.81686 0.91018
 H480 H 0.38363 0.84037 0.93411
 H481 H 0.28345 0.96043 0.87191
 H482 H 0.32851 0.98410 0.89856
 H483 H 0.25357 0.91411 0.85601
 H484 H 0.28700 0.82210 0.88205
 H485 H 0.41474 0.88720 0.94885
 H486 H 0.37811 0.97890 0.92840
 C487 C 0.67818 0.88966 1.10832
 C488 C 0.68338 0.89353 1.14050
 C489 C 0.71020 0.88019 1.15424
 C490 C 0.73167 0.86239 1.13621
 C491 C 0.72548 0.85852 1.10386
 C492 C 0.69911 0.87235 1.08983
 C493 C 0.65036 0.90419 1.09365
 C494 C 0.64572 0.90109 1.06125
 C495 C 0.61969 0.91556 1.04731
 C496 C 0.59819 0.93249 1.06561
 C497 C 0.60263 0.93486 1.09812
 C498 C 0.62903 0.92104 1.11226
 C499 C 0.69343 0.86946 1.05753
 C500 C 0.66726 0.88369 1.04346
 C501 C 0.66159 0.91064 1.15836
 C502 C 0.63480 0.92403 1.14451
 H503 H 0.70946 0.85622 1.04295
 H504 H 0.66382 0.88100 1.01847
 H505 H 0.66525 0.91370 1.18327
 H506 H 0.61861 0.93702 1.15913
 H507 H 0.71361 0.88299 1.17917
 H508 H 0.74168 0.84582 1.08909
 H509 H 0.61584 0.91339 1.02234
 H510 H 0.58605 0.94809 1.11211
 C511 C 0.67888 1.10113 0.89437
 C512 C 0.69647 1.12290 0.91160
 C513 C 0.72182 1.13823 0.89723
 C514 C 0.73028 1.13154 0.86588
 C515 C 0.71230 1.10914 0.84923
 C516 C 0.68650 1.09421 0.86321
 C517 C 0.65187 1.08535 0.90922
 C518 C 0.63371 1.06416 0.89169
 C519 C 0.60773 1.04960 0.90582
 C520 C 0.60050 1.05580 0.93726
 C521 C 0.61895 1.07681 0.95461
 C522 C 0.64461 1.09189 0.94061
 C523 C 0.66799 1.07264 0.84652
 C524 C 0.64196 1.05797 0.86048
 C525 C 0.68844 1.12885 0.94296
 C526 C 0.66302 1.11351 0.95726
 H527 H 0.67359 1.06715 0.82240
 H528 H 0.62823 1.04162 0.84674
 H529 H 0.70193 1.14549 0.95658
 H530 H 0.65762 1.11876 0.98148
 H531 H 0.73545 1.15454 0.91102
 H532 H 0.71744 1.10398 0.82499
 H533 H 0.59339 1.03329 0.89262
 H534 H 0.61288 1.08181 0.97873
 C535 C 0.10804 0.32042 0.10214
 C536 C 0.13819 0.32352 0.11529
 C537 C 0.15226 0.29745 0.12952
 C538 C 0.13594 0.26891 0.13143
 C539 C 0.10564 0.26625 0.11854
 C540 C 0.09173 0.29185 0.10339
 C541 C 0.09326 0.34760 0.08681
 C542 C 0.06358 0.34420 0.07282
 C543 C 0.04971 0.37002 0.05809
 C544 C 0.06477 0.39941 0.05818
 C545 C 0.09455 0.40242 0.07240
 C546 C 0.10907 0.37645 0.08643
 C547 C 0.06196 0.28944 0.08931
 C548 C 0.04826 0.31509 0.07400
 C549 C 0.15349 0.35263 0.11406
 C550 C 0.13909 0.37871 0.10008
 H551 H 0.04922 0.26749 0.08995
 H552 H 0.02538 0.31218 0.06319
 H553 H 0.17671 0.35535 0.12419
 H554 H 0.15161 0.40078 0.09985
 H555 H 0.17557 0.29935 0.13964
 H556 H 0.09332 0.24409 0.11988
 H557 H 0.02700 0.36727 0.04692
 H558 H 0.10654 0.42479 0.07226
 C559 C -0.11079 0.32363 -0.10615
 C560 C -0.09356 0.29598 -0.11070
 C561 C -0.10794 0.27066 -0.12579
 C562 C -0.13949 0.27259 -0.13540
 C563 C -0.15668 0.30017 -0.13022
 C564 C -0.14224 0.32605 -0.11600
 C565 C -0.09558 0.35055 -0.09079
 C566 C -0.11238 0.37859 -0.08716
 C567 C -0.09750 0.40434 -0.07307
 C568 C -0.06644 0.40170 -0.06188
 C569 C -0.05030 0.37314 -0.06510
 C570 C -0.06452 0.34769 -0.08004
 C571 C -0.15845 0.35434 -0.11158
 C572 C -0.14369 0.38024 -0.09763
 C573 C -0.06239 0.29416 -0.09993
 C574 C -0.04820 0.31950 -0.08458
 H575 H -0.18267 0.35654 -0.11917
 H576 H -0.15696 0.40168 -0.09487
 H577 H -0.04892 0.27292 -0.10320
 H578 H -0.02419 0.31709 -0.07641
 H579 H -0.09494 0.24921 -0.12964
 H580 H -0.18097 0.30151 -0.13784
 H581 H -0.11016 0.42616 -0.07037
 H582 H -0.02646 0.37085 -0.05643
 C583 C 0.10651 0.67447 -0.11439
 C584 C 0.08807 0.70028 -0.12310
 C585 C 0.10259 0.72602 -0.13738
 C586 C 0.13533 0.72634 -0.14226
 C587 C 0.15354 0.70042 -0.13318
 C588 C 0.13916 0.67420 -0.11954
 C589 C 0.09139 0.64735 -0.09928
 C590 C 0.10972 0.62129 -0.09105
 C591 C 0.09521 0.59560 -0.07658
 C592 C 0.06292 0.59644 -0.06950
 C593 C 0.04488 0.62275 -0.07775
 C594 C 0.05894 0.64816 -0.09305
 C595 C 0.15673 0.64775 -0.11087
 C596 C 0.14222 0.62165 -0.09705
 C597 C 0.05558 0.69997 -0.11703
 C598 C 0.04128 0.67441 -0.10209
 H599 H 0.18189 0.64720 -0.11483
 H600 H 0.15661 0.60173 -0.09073
 H601 H 0.04114 0.71978 -0.12362
 H602 H 0.01620 0.67519 -0.09758
 H603 H 0.08864 0.74617 -0.14400
 H604 H 0.17872 0.70066 -0.13711
 H605 H 0.10912 0.57540 -0.06996
 H606 H 0.01992 0.62326 -0.07249
 C607 C -0.09789 0.68154 0.10452
 C608 C -0.10482 0.68100 0.13666
 C609 C -0.11829 0.70750 0.15055
 C610 C -0.12562 0.73393 0.13233
 C611 C -0.11887 0.73400 0.10011
 C612 C -0.10456 0.70798 0.08612
 C613 C -0.08352 0.65384 0.08982
 C614 C -0.07578 0.65474 0.05789
 C615 C -0.06180 0.62852 0.04412
 C616 C -0.05657 0.60114 0.06173
 C617 C -0.06480 0.60044 0.09363
 C618 C -0.07788 0.62697 0.10794
 C619 C -0.09677 0.70785 0.05417
 C620 C -0.08237 0.68176 0.04034
 C621 C -0.09841 0.65388 0.15414
 C622 C -0.08538 0.62725 0.13997
 H623 H -0.10170 0.72812 0.03975
 H624 H -0.07657 0.68267 0.01565
 H625 H -0.10373 0.65315 0.17893
 H626 H -0.08103 0.60674 0.15424
 H627 H -0.12383 0.70742 0.17532
 H628 H -0.12439 0.75448 0.08619
 H629 H -0.05547 0.62920 0.01956
 H630 H -0.06050 0.57953 0.10734
 C631 C 1.10884 0.10498 0.67821
 C632 C 1.14129 0.10199 0.68324
 C633 C 1.15483 0.11563 0.70992
 C634 C 1.13632 0.13309 0.73123
 C635 C 1.10370 0.13603 0.72526
 C636 C 1.08986 0.12171 0.69917
 C637 C 1.09440 0.09026 0.65049
 C638 C 1.06172 0.09237 0.64614
 C639 C 1.04802 0.07784 0.62015
 C640 C 1.06684 0.06216 0.59816
 C641 C 1.09960 0.06064 0.60238
 C642 C 1.11349 0.07429 0.62892
 C643 C 1.05729 0.12358 0.69380
 C644 C 1.04342 0.10896 0.66785
 C645 C 1.15961 0.08554 0.66134
 C646 C 1.14599 0.07211 0.63455
 H647 H 1.04235 0.13631 0.70990
 H648 H 1.01819 0.11080 0.66467
 H649 H 1.18474 0.08314 0.66487
 H650 H 1.16098 0.05976 0.61822
 H651 H 1.17997 0.11353 0.71329
 H652 H 1.08863 0.14838 0.74146
 H653 H 1.02275 0.07904 0.61672
 H654 H 1.11397 0.04823 0.58551
 C655 C 0.89089 -0.10243 0.67645
 C656 C 0.91011 -0.11887 0.69747
 C657 C 0.89624 -0.13510 0.72244
 C658 C 0.86332 -0.13420 0.72732
 C659 C 0.84454 -0.11707 0.70596
 C660 C 0.85814 -0.10161 0.68031
 C661 C 0.90536 -0.08577 0.64985
 C662 C 0.88605 -0.07031 0.62805
 C663 C 0.89995 -0.05523 0.60231
 C664 C 0.93285 -0.05478 0.59910
 C665 C 0.95189 -0.06973 0.62148
 C666 C 0.93824 -0.08577 0.64664
 C667 C 0.83961 -0.08549 0.65831
 C668 C 0.85330 -0.07032 0.63249
 C669 C 0.94291 -0.11854 0.69331
 C670 C 0.95676 -0.10206 0.66845
 H671 H 0.81427 -0.08477 0.66094
 H672 H 0.83814 -0.05838 0.61596
 H673 H 0.95803 -0.13100 0.70949
 H674 H 0.98215 -0.10230 0.66614
 H675 H 0.91144 -0.14720 0.73876
 H676 H 0.81922 -0.11656 0.70849
 H677 H 0.88537 -0.04350 0.58509
 H678 H 0.97727 -0.06957 0.61876
 C679 C 1.09847 -0.10538 0.32044
 C680 C 1.09419 -0.13743 0.31508
 C681 C 1.10798 -0.15119 0.28865
 C682 C 1.12688 -0.13339 0.26792
 C683 C 1.13090 -0.10112 0.27405
 C684 C 1.11648 -0.08701 0.29995
 C685 C 1.08393 -0.09079 0.34814
 C686 C 1.08750 -0.05851 0.35297
 C687 C 1.07332 -0.04470 0.37909
 C688 C 1.05659 -0.06310 0.40070
 C689 C 1.05352 -0.09544 0.39593
 C690 C 1.06679 -0.10939 0.36929
 C691 C 1.11968 -0.05481 0.30571
 C692 C 1.10524 -0.04075 0.33166
 C693 C 1.07648 -0.15521 0.33648
 C694 C 1.06319 -0.14146 0.36322
 H695 H 1.13339 -0.04032 0.28998
 H696 H 1.10818 -0.01583 0.33520
 H697 H 1.07306 -0.18001 0.33264
 H698 H 1.04989 -0.15604 0.37922
 H699 H 1.10499 -0.17607 0.28524
 H700 H 1.14441 -0.08658 0.25826
 H701 H 1.07563 -0.01972 0.38293
 H702 H 1.04025 -0.10944 0.41250
 C703 C 0.89467 0.11285 0.32330
 C704 C 0.87627 0.09435 0.30330
 C705 C 0.86083 0.10841 0.27796
 C706 C 0.86439 0.14072 0.27174
 C707 C 0.88354 0.15873 0.29202
 C708 C 0.89827 0.14501 0.31802
 C709 C 0.91047 0.09822 0.35032
 C710 C 0.92800 0.11690 0.37105
 C711 C 0.94241 0.10290 0.39710
 C712 C 0.94010 0.07044 0.40164
 C713 C 0.92304 0.05197 0.38039
 C714 C 0.90770 0.06582 0.35493
 C715 C 0.91637 0.16288 0.33898
 C716 C 0.93079 0.14910 0.36518
 C717 C 0.87384 0.06204 0.30886
 C718 C 0.88950 0.04797 0.33411
 H719 H 0.91925 0.18778 0.33523
 H720 H 0.94435 0.16375 0.38087
 H721 H 0.85984 0.04748 0.29346
 H722 H 0.88714 0.02296 0.33750
 H723 H 0.84716 0.09374 0.26245
 H724 H 0.88614 0.18364 0.28843
 H725 H 0.95587 0.11697 0.41344
 H726 H 0.92124 0.02693 0.38411
 C727 C 0.10386 0.31824 -0.10422
 C728 C 0.08570 0.29866 -0.12338
 C729 C 0.09968 0.27222 -0.13694
 C730 C 0.13159 0.26477 -0.13102
 C731 C 0.14916 0.28477 -0.11118
 C732 C 0.13555 0.31158 -0.09809
 C733 C 0.08943 0.34633 -0.09032
 C734 C 0.10786 0.36635 -0.07174
 C735 C 0.09406 0.39313 -0.05873
 C736 C 0.06201 0.39933 -0.06370
 C737 C 0.04380 0.37911 -0.08222
 C738 C 0.05748 0.35262 -0.09587
 C739 C 0.15318 0.33203 -0.07920
 C740 C 0.13960 0.35903 -0.06636
 C741 C 0.05384 0.30585 -0.12856
 C742 C 0.03994 0.33232 -0.11494
 H743 H 0.17772 0.32718 -0.07438
 H744 H 0.15403 0.37421 -0.05200
 H745 H 0.03951 0.29087 -0.14322
 H746 H 0.01531 0.33699 -0.11949
 H747 H 0.08524 0.25711 -0.15129
 H748 H 0.17381 0.28044 -0.10674
 H749 H 0.10791 0.40874 -0.04423
 H750 H 0.01919 0.38429 -0.08628
 C751 C -0.10884 0.32594 0.10659
 C752 C -0.14182 0.32465 0.10821
 C753 C -0.15621 0.29877 0.12249
 C754 C -0.13778 0.27476 0.13560
 C755 C -0.10477 0.27659 0.13401
 C756 C -0.09015 0.30200 0.11927
 C757 C -0.09356 0.35284 0.09127
 C758 C -0.06061 0.35369 0.08901
 C759 C -0.04622 0.37899 0.07393
 C760 C -0.06446 0.40355 0.06178
 C761 C -0.09739 0.40282 0.06477
 C762 C -0.11215 0.37718 0.07917
 C763 C -0.05725 0.30389 0.11688
 C764 C -0.04272 0.32927 0.10190
 C765 C -0.15966 0.34932 0.09565
 C766 C -0.14507 0.37522 0.08153
 H767 H -0.04261 0.28554 0.12658
 H768 H -0.01729 0.32985 0.10052
 H769 H -0.18511 0.34865 0.09685
 H770 H -0.15969 0.39378 0.07222
 H771 H -0.18163 0.29746 0.12395
 H772 H -0.09058 0.25794 0.14378
 H773 H -0.02084 0.37993 0.07209
 H774 H -0.11141 0.42177 0.05528
 C775 C -0.09884 0.68185 -0.10630
 C776 C -0.09006 0.69081 -0.13664
 C777 C -0.10376 0.71749 -0.15011
 C778 C -0.12668 0.73513 -0.13373
 C779 C -0.13460 0.72571 -0.10289
 C780 C -0.12079 0.69928 -0.08917
 C781 C -0.08496 0.65349 -0.09227
 C782 C -0.09363 0.64469 -0.06178
 C783 C -0.08042 0.61773 -0.04857
 C784 C -0.05902 0.59961 -0.06578
 C785 C -0.05054 0.60850 -0.09629
 C786 C -0.06337 0.63567 -0.10965
 C787 C -0.12870 0.68983 -0.05863
 C788 C -0.11530 0.66303 -0.04514
 C789 C -0.06808 0.67262 -0.15315
 C790 C -0.05499 0.64550 -0.13990
 H791 H -0.14551 0.70319 -0.04507
 H792 H -0.12208 0.65653 -0.02156
 H793 H -0.06106 0.67928 -0.17661
 H794 H -0.03824 0.63210 -0.15348
 H795 H -0.09728 0.72346 -0.17383
 H796 H -0.15112 0.73903 -0.08908
 H797 H -0.08679 0.61070 -0.02502
 H798 H -0.03363 0.59463 -0.10923
 C799 C 0.10724 0.67424 0.10956
 C800 C 0.08873 0.70013 0.11784
 C801 C 0.10283 0.72530 0.13346
 C802 C 0.13526 0.72499 0.14007
 C803 C 0.15355 0.69903 0.13138
 C804 C 0.13955 0.67335 0.11643
 C805 C 0.09252 0.64765 0.09322
 C806 C 0.11084 0.62142 0.08558
 C807 C 0.09664 0.59606 0.07030
 C808 C 0.06465 0.59733 0.06191
 C809 C 0.04670 0.62391 0.06940
 C810 C 0.06043 0.64901 0.08545
 C811 C 0.15717 0.64682 0.10819
 C812 C 0.14300 0.62120 0.09321
 C813 C 0.05661 0.70045 0.11005
 C814 C 0.04273 0.67539 0.09396
 H815 H 0.18208 0.64581 0.11344
 H816 H 0.15740 0.60114 0.08736
 H817 H 0.04213 0.72034 0.11626
 H818 H 0.01792 0.67663 0.08821
 H819 H 0.08885 0.74551 0.13981
 H820 H 0.17850 0.69880 0.13663
 H821 H 0.11051 0.57565 0.06434
 H822 H 0.02195 0.62477 0.06323
 C823 C 0.32432 1.10700 0.89581
 C824 C 0.32520 1.11269 0.86342
 C825 C 0.29912 1.12655 0.84885
 C826 C 0.27273 1.13534 0.86662
 C827 C 0.27238 1.12983 0.89911
 C828 C 0.29798 1.11531 0.91380
 C829 C 0.35141 1.09191 0.91117
 C830 C 0.35010 1.08532 0.94337
 C831 C 0.37564 1.07032 0.95770
 C832 C 0.40256 1.06269 0.94017
 C833 C 0.40379 1.06997 0.90806
 C834 C 0.37804 1.08421 0.89331
 C835 C 0.29771 1.10874 0.94604
 C836 C 0.32327 1.09382 0.96055
 C837 C 0.35216 1.10444 0.84631
 C838 C 0.37822 1.09062 0.86104
 H839 H 0.27749 1.11499 0.96013
 H840 H 0.32204 1.08897 0.98542
 H841 H 0.35317 1.10880 0.82134
 H842 H 0.39858 1.08469 0.84701
 H843 H 0.29941 1.13100 0.82387
 H844 H 0.25187 1.13628 0.91271
 H845 H 0.37477 1.06488 0.98249
 H846 H 0.42442 1.06381 0.89449
 C847 C 0.32007 0.89223 1.10823
 C848 C 0.29253 0.90983 1.11270
 C849 C 0.26669 0.89592 1.12766
 C850 C 0.26803 0.86448 1.13724
 C851 C 0.29563 0.84705 1.13227
 C852 C 0.32193 0.86096 1.11813
 C853 C 0.34743 0.90680 1.09278
 C854 C 0.37527 0.88952 1.08908
 C855 C 0.40137 0.90366 1.07477
 C856 C 0.39939 0.93453 1.06342
 C857 C 0.37104 0.95125 1.06676
 C858 C 0.34517 0.93771 1.08191
 C859 C 0.35007 0.84431 1.11374
 C860 C 0.37636 0.85841 1.09967
 C861 C 0.29134 0.94084 1.10188
 C862 C 0.31713 0.95447 1.08652
 H863 H 0.35183 0.82021 1.12138
 H864 H 0.39765 0.84479 1.09687
 H865 H 0.27021 0.95462 1.10510
 H866 H 0.31516 0.97838 1.07833
 H867 H 0.24528 0.90918 1.13126
 H868 H 0.29663 0.82289 1.13987
 H869 H 0.42300 0.89054 1.07197
 H870 H 0.36925 0.97495 1.05796
 C871 C 0.67929 1.10273 1.10750
 C872 C 0.70619 1.10941 1.08958
 C873 C 0.73131 1.12551 1.10352
 C874 C 0.72990 1.13395 1.13528
 C875 C 0.70303 1.12673 1.15304
 C876 C 0.67738 1.11151 1.13912
 C877 C 0.65259 1.08629 1.09286
 C878 C 0.62524 1.08064 1.11045
 C879 C 0.59959 1.06574 1.09615
 C880 C 0.60159 1.05575 1.06484
 C881 C 0.62951 1.06080 1.04783
 C882 C 0.65488 1.07664 1.06154
 C883 C 0.64983 1.10502 1.15610
 C884 C 0.62410 1.09006 1.14193
 C885 C 0.70746 1.09968 1.05819
 C886 C 0.68234 1.08333 1.04448
 H887 H 0.64806 1.11177 1.18047
 H888 H 0.60318 1.08574 1.15576
 H889 H 0.72812 1.10458 1.04416
 H890 H 0.68431 1.07609 1.02026
 H891 H 0.75221 1.13091 1.09005
 H892 H 0.70204 1.13349 1.17747
 H893 H 0.57824 1.06162 1.10941
 H894 H 0.63119 1.05307 1.02374
 C895 C 0.67657 0.88868 0.89181
 C896 C 0.70496 0.88517 0.90831
 C897 C 0.73043 0.87045 0.89366
 C898 C 0.72791 0.86019 0.86251
 C899 C 0.69953 0.86427 0.84607
 C900 C 0.67353 0.87813 0.86082
 C901 C 0.64958 0.90383 0.90726
 C902 C 0.62090 0.90661 0.89114
 C903 C 0.59517 0.92072 0.90616
 C904 C 0.59839 0.93274 0.93669
 C905 C 0.62756 0.93027 0.95218
 C906 C 0.65305 0.91538 0.93781
 C907 C 0.64457 0.88162 0.84531
 C908 C 0.61864 0.89541 0.86029
 C909 C 0.70737 0.89668 0.93901
 C910 C 0.68193 0.91178 0.95341
 H911 H 0.64188 0.87349 0.82144
 H912 H 0.59669 0.89750 0.84754
 H913 H 0.72918 0.89421 0.95191
 H914 H 0.68484 0.92060 0.97701
 H915 H 0.75247 0.86756 0.90609
 H916 H 0.69770 0.85620 0.82210
 H917 H 0.57292 0.92287 0.89393
 H918 H 0.63037 0.93967 0.97555
   
