data_POSCAR
  _audit_creation_date              2014-09-24
  _audit_creation_method            'ToBaCCo'
  _symmetry_space_group_name_H-M    'P1'
  _symmetry_Int_Tables_number       1
  _symmetry_cell_setting            triclinic
  loop_
  _symmetry_equiv_pos_as_xyz
 x,y,z
_cell_length_a 24.7868
_cell_length_b 24.6484
_cell_length_c 24.6950
_cell_angle_alpha 88.919400
_cell_angle_beta 90.885900
_cell_angle_gamma 89.709300
loop_
  _atom_site_label
  _atom_site_type_symbol
  _atom_site_fract_x
  _atom_site_fract_y
  _atom_site_fract_z
C1 C 0.18630 0.17569 0.24815
 N2 N 0.16162 0.22193 0.23008
 C3 C 0.18454 0.25332 0.19105
 N4 N 0.23175 0.23709 0.16839
 C5 C 0.25734 0.19125 0.18721
 N6 N 0.23459 0.16140 0.22752
 C7 C -0.20147 0.81796 0.26303
 N8 N -0.17538 0.77561 0.24060
 C9 C -0.19206 0.75562 0.19240
 N10 N -0.23508 0.77872 0.16578
 C11 C -0.26122 0.82169 0.18756
 N12 N -0.24412 0.84109 0.23614
 C13 C -0.19071 0.18399 -0.25939
 N14 N -0.16347 0.22590 -0.23711
 C15 C -0.18371 0.25120 -0.19346
 N16 N -0.23111 0.23495 -0.17233
 C17 C -0.25945 0.19452 -0.19556
 N18 N -0.23865 0.16841 -0.23852
 C19 C 0.20077 0.81133 -0.24746
 N20 N 0.17442 0.76929 -0.22407
 C21 C 0.19167 0.74797 -0.17594
 N22 N 0.23501 0.76944 -0.15001
 C23 C 0.26312 0.81011 -0.17420
 N24 N 0.24593 0.83078 -0.22305
 C25 C 0.17942 1.19495 0.72679
 N26 N 0.15603 1.23820 0.75087
 C27 C 0.17789 1.25809 0.79739
 N28 N 0.22130 1.23294 0.82085
 C29 C 0.24497 1.19029 0.79692
 N30 N 0.22452 1.17190 0.74957
 C31 C 0.81674 0.82228 0.74784
 N32 N 0.83779 0.77862 0.77552
 C33 C 0.81914 0.76456 0.82543
 N34 N 0.78065 0.79534 0.84848
 C35 C 0.75878 0.83839 0.82095
 N36 N 0.77627 0.85133 0.77041
 C37 C 0.19836 0.78456 1.26406
 N38 N 0.17591 0.74052 1.24053
 C39 C 0.19250 0.72406 1.19116
 N40 N 0.23059 0.75344 1.16438
 C41 C 0.25418 0.79682 1.18833
 N42 N 0.23822 0.81176 1.23818
 C43 C 0.82143 1.17752 1.24926
 N44 N 0.77169 1.16006 1.23396
 C45 C 0.74364 1.18541 1.19303
 N46 N 0.76598 1.22888 1.16672
 C47 C 0.81607 1.24665 1.18154
 N48 N 0.84338 1.22057 1.22274
 O49 O 0.54977 0.95795 0.90189
 O50 O 0.43687 0.94345 1.07691
 O51 O 0.60292 0.98810 1.05184
 O52 O 0.41999 0.93638 0.98043
 O53 O 0.53650 0.93539 1.07369
 O54 O 0.44668 0.95979 0.90097
 O55 O 0.36268 0.98334 1.04432
 O56 O 0.61024 0.99859 0.95406
 C57 C 0.59760 0.96355 0.91873
 C58 C 0.38546 0.94880 1.07914
 C59 C 0.58596 0.94340 1.07043
 C60 C 0.42080 0.92845 0.93080
 O61 O 0.44922 1.06576 0.89734
 O62 O 0.54807 1.03354 1.11517
 O63 O 0.57070 1.10241 0.96126
 O64 O 0.41029 1.07478 1.03181
 O65 O 0.44863 1.04810 1.10535
 O66 O 0.54956 1.05978 0.89008
 O67 O 0.38495 1.03191 0.94649
 O68 O 0.55585 1.09136 1.05343
 Co69 Co 0.49826 1.01100 0.90726
 Co70 Co 0.49290 0.99301 1.08364
 Co71 Co 0.57855 1.04286 1.00522
 Co72 Co 0.42038 1.00620 1.00719
 O73 O 0.50008 1.01541 0.99654
 C74 C 0.40058 1.06382 0.90977
 C75 C 0.56437 1.07924 1.10089
 C76 C 0.57220 1.09856 0.91169
 C77 C 0.41819 1.08120 1.08081
 O78 O 0.01938 0.44231 0.11291
 O79 O 0.04989 0.54786 -0.10056
 O80 O 0.08191 0.42278 -0.04212
 O81 O 0.06387 0.57865 0.03681
 O82 O 0.03799 0.44725 -0.11278
 O83 O 0.03475 0.54184 0.10875
 O84 O 0.02221 0.61170 -0.04718
 O85 O 0.07477 0.43414 0.05056
 C86 C 0.06447 0.42621 0.09819
 C87 C 0.05265 0.59544 -0.08374
 C88 C 0.07629 0.42195 -0.09165
 C89 C 0.06982 0.56997 0.08573
 O90 O -0.06891 0.55802 0.07653
 O91 O -0.06230 0.45365 -0.10063
 O92 O -0.02837 0.39064 0.04796
 O93 O -0.07419 0.58309 -0.01796
 O94 O -0.05474 0.55719 -0.09802
 O95 O -0.07992 0.45722 0.07090
 O96 O -0.02351 0.63140 0.05197
 O97 O -0.02311 0.38844 -0.05036
 Co98 Co -0.02135 0.49961 0.08336
 Co99 Co -0.00695 0.50154 -0.09321
 Co100 Co 0.02413 0.41542 0.00176
 Co101 Co -0.00497 0.57512 0.01084
 O102 O -0.00084 0.49541 -0.00376
 C103 C -0.05918 0.60846 0.08395
 C104 C -0.05827 0.40475 -0.08538
 C105 C -0.07205 0.40733 0.06722
 C106 C -0.08244 0.58564 -0.06785
 O107 O 1.10444 0.04128 0.44210
 O108 O 0.93430 0.05703 0.55487
 O109 O 0.95516 0.01197 0.38869
 O110 O 1.02839 0.06040 0.57449
 O111 O 0.93614 0.06578 0.45431
 O112 O 1.10687 0.03798 0.54585
 O113 O 0.96078 0.01322 0.62958
 O114 O 1.05233 0.00050 0.38163
 C115 C 1.08690 0.03643 0.39442
 C116 C 0.92767 0.04839 0.60560
 C117 C 0.93815 0.05713 0.40476
 C118 C 1.07785 0.06867 0.57265
 O119 O 1.10803 -0.06803 0.54290
 O120 O 0.89100 -0.03110 0.44553
 O121 O 1.04245 -0.10360 0.42270
 O122 O 0.97159 -0.07694 0.58160
 O123 O 0.89951 -0.04543 0.54517
 O124 O 1.11456 -0.06113 0.44159
 O125 O 1.05875 -0.03634 0.60791
 O126 O 0.95036 -0.09071 0.43726
 Co127 Co 1.09882 -0.01258 0.49360
 Co128 Co 0.92399 0.00868 0.49944
 Co129 Co 1.00018 -0.04324 0.41396
 Co130 Co 0.99902 -0.00876 0.57252
 O131 O 1.00972 -0.01616 0.49236
 C132 C 1.09560 -0.06709 0.59178
 C133 C 0.90312 -0.07730 0.43046
 C134 C 1.09204 -0.10071 0.42095
 C135 C 0.92214 -0.08018 0.57546
 N136 N 1.11009 0.15168 0.30184
 C137 C 1.16089 0.14107 0.28474
 N138 N 1.18585 0.09471 0.30234
 N139 N 1.16132 0.06059 0.33618
 C140 C 1.11053 0.07100 0.35280
 N141 N 1.08540 0.11732 0.33551
 N142 N 0.86345 -0.18179 0.33503
 C143 C 0.81915 -0.15948 0.31035
 N144 N 0.79878 -0.11247 0.32986
 N145 N 0.82330 -0.08761 0.37095
 C146 C 0.86869 -0.10923 0.39434
 N147 N 0.88776 -0.15711 0.37605
 N148 N 0.83112 0.09494 0.70557
 C149 C 0.83595 0.14967 0.70135
 N150 N 0.87032 0.17109 0.66451
 N151 N 0.89850 0.13877 0.63264
 C152 C 0.89423 0.08403 0.63761
 N153 N 0.86007 0.06264 0.67451
 N154 N 1.20141 -0.11752 0.68532
 C155 C 1.17737 -0.16157 0.70816
 N156 N 1.12707 -0.17533 0.69077
 N157 N 1.10125 -0.14559 0.65294
 C158 C 1.12507 -0.10132 0.63078
 N159 N 1.17580 -0.08810 0.64699
 N160 N 0.33160 1.12976 1.18781
 C161 C 0.30380 1.17109 1.16304
 N162 N 0.31859 1.18731 1.11244
 N163 N 0.35770 1.16107 1.08673
 C164 C 0.38461 1.11890 1.11141
 N165 N 0.37134 1.10452 1.16273
 N166 N 0.33742 0.86992 0.82471
 C167 C 0.30673 0.83378 0.85210
 N168 N 0.31706 0.82474 0.90589
 N169 N 0.35527 0.85281 0.93169
 C170 C 0.38527 0.88968 0.90402
 N171 N 0.37603 0.89699 0.85010
 N172 N 0.68168 0.83359 1.10839
 C173 C 0.69781 0.84910 1.15874
 N174 N 0.67550 0.89435 1.17965
 N175 N 0.63917 0.92336 1.15133
 C176 C 0.62342 0.90823 1.10109
 N177 N 0.64502 0.86267 1.08000
 N178 N 0.66445 1.13637 0.80451
 C179 C 0.69330 1.17651 0.82775
 N180 N 0.67763 1.19554 0.87640
 N181 N 0.63627 1.17321 0.90221
 C182 C 0.60852 1.13191 0.87959
 N183 N 0.62278 1.11455 0.82997
 N184 N 0.10804 0.31730 0.19284
 C185 C 0.15620 0.30269 0.17153
 N186 N 0.17607 0.33272 0.12998
 N187 N 0.14797 0.37457 0.10932
 C188 C 0.09925 0.38848 0.12964
 N189 N 0.07989 0.35929 0.17214
 N190 N -0.12813 0.33246 -0.19328
 C191 C -0.15200 0.29159 -0.16537
 N192 N -0.14544 0.28817 -0.11072
 N193 N -0.11539 0.32425 -0.08472
 C194 C -0.09204 0.36549 -0.11261
 N195 N -0.09902 0.36914 -0.16717
 N196 N 0.14844 0.70706 -0.09739
 C197 C 0.16017 0.70524 -0.15073
 N198 N 0.13727 0.66650 -0.18174
 N199 N 0.10386 0.63039 -0.16005
 C200 C 0.09131 0.63286 -0.10696
 N201 N 0.11425 0.67156 -0.07590
 N202 N -0.18036 0.67966 0.12993
 C203 C -0.15894 0.71423 0.16656
 N204 N -0.10508 0.71211 0.17724
 N205 N -0.07352 0.67741 0.15167
 C206 C -0.09486 0.64269 0.11538
 N207 N -0.14884 0.64419 0.10502
 N208 N 1.18206 0.13028 0.65700
 C209 C 1.15494 0.16984 0.68274
 N210 N 1.10232 0.17941 0.66874
 N211 N 1.07737 0.14886 0.63195
 C212 C 1.10467 0.10863 0.60705
 N213 N 1.15757 0.10067 0.61969
 N214 N 0.88782 -0.17940 0.68268
 C215 C 0.83938 -0.15983 0.69904
 N216 N 0.81600 -0.11856 0.66981
 N217 N 0.84069 -0.09665 0.62719
 C218 C 0.89003 -0.11464 0.61215
 N219 N 0.91303 -0.15670 0.64060
 N220 N 1.19856 -0.14903 0.33283
 C221 C 1.17575 -0.19322 0.31005
 N222 N 1.12705 -0.21030 0.32827
 N223 N 1.10112 -0.18266 0.36596
 C224 C 1.12346 -0.13754 0.38748
 N225 N 1.17305 -0.12194 0.37093
 N226 N 0.82918 0.10476 0.31398
 C227 C 0.85048 0.14962 0.29008
 N228 N 0.90097 0.16533 0.30553
 N229 N 0.92909 0.13694 0.34309
 C230 C 0.90755 0.09191 0.36651
 N231 N 0.85724 0.07641 0.35124
 N232 N 0.17438 0.31781 -0.12809
 C233 C 0.15502 0.30221 -0.17717
 N234 N 0.11237 0.32947 -0.19974
 N235 N 0.08922 0.36993 -0.17351
 C236 C 0.10786 0.38461 -0.12389
 N237 N 0.15094 0.35791 -0.10167
 N238 N -0.18361 0.31851 0.11301
 C239 C -0.15844 0.28917 0.15351
 N240 N -0.10621 0.30060 0.16570
 N241 N -0.07987 0.33882 0.13832
 C242 C -0.10466 0.36806 0.09803
 N243 N -0.15725 0.35750 0.08587
 N244 N -0.16335 0.70995 -0.09122
 C245 C -0.15979 0.71600 -0.14598
 N246 N -0.13568 0.67645 -0.17431
 N247 N -0.11462 0.63317 -0.14885
 C248 C -0.11672 0.62750 -0.09410
 N249 N -0.14156 0.66675 -0.06556
 N250 N 0.17718 0.66764 0.11440
 C251 C 0.16731 0.67996 0.16673
 N252 N 0.12967 0.65065 0.19388
 N253 N 0.10158 0.61207 0.16917
 C254 C 0.11009 0.60110 0.11632
 N255 N 0.14869 0.62940 0.08955
 N256 N 0.28434 1.15251 0.88045
 C257 C 0.28733 1.15980 0.82598
 N258 N 0.32803 1.13571 0.79910
 N259 N 0.36489 1.10582 0.82604
 C260 C 0.36142 1.09802 0.88044
 N261 N 0.32052 1.12178 0.90720
 N262 N 0.27951 0.84818 1.10661
 C263 C 0.29132 0.83228 1.15839
 N264 N 0.33433 0.85489 1.18405
 N265 N 0.36492 0.89140 1.15861
 C266 C 0.35256 0.90789 1.10714
 N267 N 0.30945 0.88548 1.08154
 N268 N 0.67327 1.11500 1.19686
 C269 C 0.69194 1.16197 1.17425
 N270 N 0.66480 1.18392 1.13100
 N271 N 0.62178 1.15904 1.11027
 C272 C 0.60385 1.11140 1.13194
 N273 N 0.63020 1.09004 1.17603
 N274 N 0.67535 0.89200 0.81665
 C275 C 0.71726 0.87129 0.84643
 N276 N 0.71979 0.88096 0.90041
 N277 N 0.68197 0.91081 0.92374
 C278 C 0.63971 0.93094 0.89399
 N279 N 0.63702 0.92090 0.84014
   
