data_POSCAR
  _audit_creation_date              2014-09-24
  _audit_creation_method            'ToBaCCo'
  _symmetry_space_group_name_H-M    'P1'
  _symmetry_Int_Tables_number       1
  _symmetry_cell_setting            triclinic
  loop_
  _symmetry_equiv_pos_as_xyz
 x,y,z
_cell_length_a 27.9814
_cell_length_b 27.8910
_cell_length_c 47.8436
_cell_angle_alpha 89.904500
_cell_angle_beta 95.264000
_cell_angle_gamma 90.009800
loop_
  _atom_site_label
  _atom_site_type_symbol
  _atom_site_fract_x
  _atom_site_fract_y
  _atom_site_fract_z
C1 C -0.00678 0.39605 1.02520
 C2 C -0.00044 0.37159 1.00035
 C3 C 0.00588 0.39629 0.97555
 C4 C 0.00609 0.44693 0.97532
 C5 C -0.00044 0.47230 1.00039
 C6 C -0.00698 0.44679 1.02547
 C7 C -0.01351 0.47270 1.05004
 C8 C -0.01367 0.52261 1.05000
 C9 C -0.00717 0.54863 1.02540
 C10 C -0.00042 0.52324 1.00036
 C11 C 0.01264 0.47282 0.95074
 C12 C 0.01283 0.52273 0.95072
 C13 C 0.00636 0.54869 0.97529
 C14 C 0.00644 0.59942 0.97555
 C15 C -0.00037 0.62397 1.00031
 C16 C -0.00721 0.59936 1.02509
 H17 H -0.01863 0.45451 1.06955
 H18 H -0.01889 0.54072 1.06949
 H19 H 0.01774 0.45465 0.93125
 H20 H 0.01807 0.54088 0.93121
 H21 H -0.00042 0.33264 1.00023
 H22 H -0.00036 0.66295 1.00029
 C23 C 0.40420 0.01525 0.52645
 C24 C 0.37535 0.01541 0.50104
 C25 C 0.39543 0.01582 0.47539
 C26 C 0.44582 0.01611 0.47485
 C27 C 0.47558 0.01614 0.50053
 C28 C 0.45469 0.01580 0.52647
 C29 C 0.48479 0.01580 0.55166
 C30 C 0.53453 0.01595 0.55142
 C31 C 0.55605 0.01598 0.52596
 C32 C 0.52627 0.01611 0.50027
 C33 C 0.46722 0.01611 0.44938
 C34 C 0.51695 0.01590 0.44912
 C35 C 0.54709 0.01581 0.47430
 C36 C 0.59756 0.01520 0.47428
 C37 C 0.62650 0.01527 0.49965
 C38 C 0.60652 0.01564 0.52537
 H39 H 0.47009 0.01566 0.57182
 H40 H 0.55606 0.01590 0.57142
 H41 H 0.44563 0.01614 0.42941
 H42 H 0.53161 0.01579 0.42895
 H43 H 0.33658 0.01480 0.50124
 H44 H 0.66527 0.01462 0.49931
 C45 C 0.06009 0.00359 0.26173
 H46 H 0.06163 0.00514 0.23923
 C47 C 0.10246 0.00528 0.27965
 H48 H 0.13662 0.00760 0.27078
 C49 C 0.01363 -0.00168 0.30060
 H50 H -0.02097 -0.00359 0.30881
 C51 C 0.05495 -0.00023 0.31921
 H52 H 0.05152 -0.00100 0.34157
 N53 N 0.01686 -0.00067 0.27241
 C54 C -0.08161 -0.07104 0.20929
 H55 H -0.11219 -0.04729 0.20922
 C56 C -0.08351 -0.11080 0.19154
 H57 H -0.11597 -0.11769 0.17803
 C58 C -0.00222 -0.09070 0.22709
 H59 H 0.02943 -0.08280 0.24095
 C60 C -0.00255 -0.13083 0.20967
 H61 H 0.02937 -0.15283 0.20998
 Zn62 Zn -0.03978 -0.00383 0.24745
 N63 N -0.04094 -0.06105 0.22606
 C64 C -0.04415 0.04368 0.19497
 N65 N -0.04053 0.05016 0.22325
 C66 C -0.03543 0.09477 0.23462
 C67 C -0.03490 0.13517 0.21729
 C68 C -0.04399 0.08296 0.17692
 C69 C -0.10133 -0.04406 0.28368
 C70 C -0.13818 -0.04546 0.30142
 C71 C -0.16146 0.03441 0.28603
 C72 C -0.12415 0.03424 0.26851
 N73 N -0.09421 -0.00415 0.26825
 H74 H -0.04668 0.00804 0.18624
 H75 H -0.03175 0.09891 0.25719
 H76 H -0.03137 0.17044 0.22666
 H77 H -0.04642 0.07690 0.15449
 H78 H -0.07736 -0.07434 0.28278
 H79 H -0.14272 -0.07731 0.31387
 H80 H -0.18361 0.06611 0.28686
 H81 H -0.11843 0.06532 0.25576
 C82 C -0.04326 -0.14082 0.19118
 C83 C 0.10017 0.00280 0.30882
 C84 C -0.16820 -0.00544 0.30324
 C85 C -0.03950 0.12948 0.18800
 C86 C 0.03523 0.09436 0.76501
 H87 H 0.03164 0.09860 0.74243
 C88 C 0.03464 0.13468 0.78232
 H89 H 0.03117 0.17000 0.77293
 C90 C 0.04376 0.04310 0.80469
 H91 H 0.04624 0.00742 0.81343
 C92 C 0.04355 0.08229 0.82271
 H93 H 0.04588 0.07613 0.84515
 N94 N 0.04026 0.04970 0.77640
 C95 C 0.10130 -0.04425 0.71611
 H96 H 0.07729 -0.07452 0.71697
 C97 C 0.13830 -0.04560 0.69847
 H98 H 0.14289 -0.07740 0.68605
 C99 C 0.12411 0.03395 0.73132
 H100 H 0.11835 0.06497 0.74405
 C101 C 0.16157 0.03418 0.71390
 H102 H 0.18378 0.06585 0.71312
 Zn103 Zn 0.03961 -0.00421 0.75225
 N104 N 0.09412 -0.00442 0.73152
 C105 C -0.01370 -0.00197 0.69906
 N106 N -0.01698 -0.00101 0.72724
 C107 C -0.06023 0.00322 0.73789
 C108 C -0.10258 0.00493 0.71995
 C109 C -0.05500 -0.00050 0.68042
 C110 C 0.08139 -0.07148 0.79050
 C111 C 0.08325 -0.11121 0.80834
 C112 C 0.00228 -0.13121 0.79024
 C113 C 0.00200 -0.09110 0.77271
 N114 N 0.04074 -0.06147 0.77370
 H115 H 0.02091 -0.00385 0.69087
 H116 H -0.06181 0.00472 0.76038
 H117 H -0.13676 0.00722 0.72879
 H118 H -0.05154 -0.00123 0.65807
 H119 H 0.11198 -0.04774 0.79053
 H120 H 0.11569 -0.11811 0.82188
 H121 H -0.02966 -0.15318 0.78997
 H122 H -0.02963 -0.08319 0.75884
 C123 C 0.16840 -0.00561 0.69672
 C124 C 0.03913 0.12886 0.81161
 C125 C 0.04297 -0.14119 0.80877
 C126 C -0.10024 0.00249 0.69078
 C127 C -0.01695 -0.26066 0.15809
 C128 C -0.03671 -0.25354 0.13045
 C129 C -0.06020 -0.21049 0.12299
 C130 C -0.06325 -0.17434 0.14291
 C131 C -0.01380 -0.37388 0.04837
 C132 C -0.01998 -0.22449 0.17809
 C133 C -0.03099 -0.28911 0.10925
 C134 C -0.02584 -0.31741 0.09075
 C135 C -0.01946 -0.34873 0.06826
 C136 C -0.04276 -0.18069 0.17064
 H137 H 0.00137 -0.29384 0.16408
 H138 H -0.07533 -0.20447 0.10161
 H139 H -0.08032 -0.14082 0.13635
 H140 H -0.00432 -0.23069 0.19933
 C141 C -0.06690 0.21080 0.12502
 C142 C -0.03299 0.24724 0.13047
 C143 C -0.00267 0.24652 0.15543
 C144 C -0.00560 0.20890 0.17461
 C145 C -0.01256 0.36915 0.04860
 C146 C -0.06980 0.17317 0.14408
 C147 C -0.02760 0.28347 0.10952
 C148 C -0.02299 0.31217 0.09110
 C149 C -0.01745 0.34381 0.06858
 C150 C -0.03871 0.17141 0.16890
 H151 H -0.09051 0.21096 0.10576
 H152 H 0.02392 0.27441 0.15978
 H153 H 0.01911 0.20827 0.19340
 H154 H -0.09612 0.14520 0.13931
 C155 C 0.28327 0.01970 0.66248
 C156 C 0.27174 0.00093 0.63559
 C157 C 0.22715 -0.02090 0.62898
 C158 C 0.19396 -0.02358 0.64899
 C159 C 0.38028 0.01334 0.55195
 C160 C 0.25004 0.01704 0.68261
 C161 C 0.30462 0.00505 0.61427
 C162 C 0.33035 0.00812 0.59547
 C163 C 0.35831 0.01120 0.57244
 C164 C 0.20488 -0.00447 0.67603
 H165 H 0.31771 0.03670 0.66782
 H166 H 0.21773 -0.03528 0.60817
 H167 H 0.15925 -0.03956 0.64305
 H168 H 0.25968 0.03169 0.70330
 C169 C -0.22319 0.03579 0.65576
 C170 C -0.22601 0.00615 0.63207
 C171 C -0.18858 -0.02565 0.62813
 C172 C -0.14812 -0.02733 0.64748
 C173 C -0.36258 0.01475 0.54924
 C174 C -0.18268 0.03409 0.67523
 C175 C -0.26604 0.00942 0.61099
 C176 C -0.29806 0.01161 0.59238
 C177 C -0.33373 0.01356 0.56956
 C178 C -0.14444 0.00289 0.67109
 H179 H -0.25188 0.06071 0.65893
 H180 H -0.19039 -0.04878 0.60989
 H181 H -0.11964 -0.05226 0.64396
 H182 H -0.18068 0.05805 0.69308
 C183 C 0.05971 -0.21061 0.87718
 C184 C 0.03618 -0.25365 0.86986
 C185 C 0.01647 -0.26087 0.84223
 C186 C 0.01957 -0.22479 0.82211
 C187 C 0.01306 -0.37379 0.95225
 C188 C 0.06284 -0.17454 0.85715
 C189 C 0.03039 -0.28913 0.89116
 C190 C 0.02519 -0.31737 0.90974
 C191 C 0.01876 -0.34864 0.93230
 C192 C 0.04239 -0.18099 0.82943
 H193 H 0.07481 -0.20451 0.89856
 H194 H -0.00188 -0.29405 0.83633
 H195 H 0.00395 -0.23105 0.80088
 H196 H 0.07993 -0.14102 0.86361
 C197 C 0.00225 0.24575 0.84410
 C198 C 0.03249 0.24635 0.86910
 C199 C 0.06637 0.20987 0.87459
 C200 C 0.06932 0.17234 0.85554
 C201 C 0.01199 0.36802 0.95084
 C202 C 0.00522 0.20823 0.82494
 C203 C 0.02706 0.28248 0.89002
 C204 C 0.02243 0.31111 0.90842
 C205 C 0.01688 0.34270 0.93090
 C206 C 0.03830 0.17070 0.83069
 H207 H -0.02432 0.27367 0.83972
 H208 H 0.08992 0.20994 0.89387
 H209 H 0.09561 0.14434 0.86035
 H210 H -0.01943 0.20770 0.80612
 C211 C -0.22626 -0.02092 0.37123
 C212 C -0.27086 0.00101 0.36476
 C213 C -0.28262 0.01990 0.33788
 C214 C -0.24962 0.01726 0.31763
 C215 C -0.37862 0.01333 0.44875
 C216 C -0.19330 -0.02358 0.35109
 C217 C -0.30350 0.00511 0.38620
 C218 C -0.32903 0.00816 0.40509
 C219 C -0.35678 0.01122 0.42820
 C220 C -0.20446 -0.00434 0.32407
 H221 H -0.21666 -0.03539 0.39203
 H222 H -0.31706 0.03698 0.33265
 H223 H -0.25943 0.03200 0.29695
 H224 H -0.15858 -0.03963 0.35692
 C225 C 0.18859 -0.02540 0.37148
 C226 C 0.22599 0.00643 0.36748
 C227 C 0.22313 0.03612 0.34375
 C228 C 0.18261 0.03442 0.32429
 C229 C 0.36279 0.01496 0.45017
 C230 C 0.14812 -0.02707 0.35214
 C231 C 0.26604 0.00970 0.38854
 C232 C 0.29811 0.01187 0.40712
 C233 C 0.33385 0.01379 0.42990
 C234 C 0.14439 0.00318 0.32849
 H235 H 0.19043 -0.04856 0.38975
 H236 H 0.25180 0.06106 0.34053
 H237 H 0.18057 0.05841 0.30640
 H238 H 0.11965 -0.05203 0.35571
   
