data_POSCAR
  _audit_creation_date              2014-09-24
  _audit_creation_method            'ToBaCCo'
  _symmetry_space_group_name_H-M    'P1'
  _symmetry_Int_Tables_number       1
  _symmetry_cell_setting            triclinic
  loop_
  _symmetry_equiv_pos_as_xyz
 x,y,z
_cell_length_a 38.2315
_cell_length_b 37.8563
_cell_length_c 32.8768
_cell_angle_alpha 90.090000
_cell_angle_beta 89.981700
_cell_angle_gamma 89.780000
loop_
  _atom_site_label
  _atom_site_type_symbol
  _atom_site_fract_x
  _atom_site_fract_y
  _atom_site_fract_z
O1 O 0.02346 0.32164 -0.03833
 O2 O -0.04843 0.31831 0.03609
 O3 O 0.02069 0.32372 0.04009
 O4 O -0.04450 0.31192 -0.04239
 O5 O -0.03709 0.25413 -0.03818
 O6 O 0.02562 0.26572 0.04474
 O7 O -0.04225 0.26049 0.04055
 O8 O 0.02950 0.26367 -0.03444
 Cu9 Cu -0.01291 0.32472 -0.00139
 Cu10 Cu -0.00545 0.25528 0.00381
 C11 C 0.03876 0.29329 -0.04897
 C12 C -0.05804 0.28883 0.05062
 C13 C 0.03462 0.29642 0.05593
 C14 C -0.05154 0.28078 -0.05442
 O15 O 0.47397 0.80047 0.53937
 O16 O 0.54390 0.80702 0.46206
 O17 O 0.47511 0.80184 0.46013
 O18 O 0.54232 0.80447 0.54057
 O19 O 0.54592 0.74621 0.53878
 O20 O 0.47991 0.74369 0.45824
 O21 O 0.54726 0.74876 0.46002
 O22 O 0.47880 0.74232 0.53782
 Cu23 Cu 0.50827 0.80936 0.50062
 Cu24 Cu 0.51322 0.73942 0.49843
 C25 C 0.46493 0.77021 0.55216
 C26 C 0.55769 0.77885 0.44825
 C27 C 0.46626 0.77215 0.44540
 C28 C 0.55564 0.77568 0.55316
 O29 O 1.05038 0.71957 0.03946
 O30 O 0.97985 0.70409 -0.03427
 O31 O 1.04784 0.71648 -0.03899
 O32 O 0.98283 0.71208 0.04455
 O33 O 0.97525 0.76982 0.03977
 O34 O 1.03724 0.77360 -0.04439
 O35 O 0.97098 0.76162 -0.03896
 O36 O 1.04162 0.77710 0.03497
 Cu37 Cu 1.01597 0.70721 0.00292
 Cu38 Cu 1.00540 0.77624 -0.00283
 C39 C 1.05782 0.75086 0.05024
 C40 C 0.96331 0.73018 -0.04907
 C41 C 1.05362 0.74615 -0.05586
 C42 C 0.96865 0.74063 0.05685
 O43 O 0.45924 0.19430 0.46107
 O44 O 0.52882 0.19915 0.53899
 O45 O 0.46015 0.19359 0.53955
 O46 O 0.52740 0.20154 0.45938
 O47 O 0.52165 0.25958 0.46107
 O48 O 0.45522 0.25175 0.54111
 O49 O 0.52255 0.25713 0.54089
 O50 O 0.45450 0.25248 0.46187
 Cu51 Cu 0.49468 0.19130 0.49962
 Cu52 Cu 0.48809 0.26103 0.50142
 C53 C 0.44498 0.22258 0.44836
 C54 C 0.53712 0.22903 0.55365
 C55 C 0.44602 0.22149 0.55364
 C56 C 0.53559 0.23196 0.44622
 O57 O 0.68325 -0.05652 0.03205
 O58 O 0.67959 0.02012 -0.03606
 O59 O 0.68437 -0.04862 -0.04642
 O60 O 0.68590 0.01239 0.04213
 O61 O 0.74364 0.01230 0.03926
 O62 O 0.74213 -0.04634 -0.04841
 O63 O 0.73724 0.02076 -0.03937
 O64 O 0.74101 -0.05520 0.03024
 Cu65 Cu 0.67747 -0.01826 -0.00181
 Cu66 Cu 0.74670 -0.01700 -0.00475
 C67 C 0.71268 -0.06881 0.04289
 C68 C 0.70766 0.03338 -0.04971
 C69 C 0.71342 -0.05749 -0.06249
 C70 C 0.71541 0.02248 0.05572
 O71 O 0.17218 0.54530 0.46197
 O72 O 0.16979 0.47500 0.53991
 O73 O 0.17247 0.54459 0.54069
 O74 O 0.16910 0.47566 0.46131
 O75 O 0.22685 0.47374 0.46040
 O76 O 0.23018 0.54166 0.54036
 O77 O 0.22754 0.47312 0.53989
 O78 O 0.22987 0.54233 0.46117
 Cu79 Cu 0.16508 0.51040 0.50101
 Cu80 Cu 0.23435 0.50741 0.50038
 C81 C 0.20149 0.55601 0.44860
 C82 C 0.19834 0.46197 0.55296
 C83 C 0.20195 0.55507 0.55375
 C84 C 0.19749 0.46279 0.44762
 O85 O 0.33037 0.97459 -0.03966
 O86 O 0.32752 1.04478 0.03849
 O87 O 0.32983 0.97522 0.03914
 O88 O 0.32793 1.04435 -0.04008
 O89 O 0.27029 1.04186 -0.04119
 O90 O 0.27208 0.97402 0.03898
 O91 O 0.26980 1.04264 0.03829
 O92 O 0.27269 0.97360 -0.04062
 Cu93 Cu 0.33471 1.00987 -0.00050
 Cu94 Cu 0.26549 1.00782 -0.00113
 C95 C 0.30193 0.96203 -0.05345
 C96 C 0.29812 1.05584 0.05142
 C97 C 0.30119 0.96278 0.05242
 C98 C 0.29873 1.05509 -0.05401
 O99 O 0.81032 0.52001 0.53640
 O100 O 0.81596 0.44776 0.46077
 O101 O 0.80846 0.51679 0.45701
 O102 O 0.81464 0.45090 0.53947
 O103 O 0.75696 0.44704 0.53960
 O104 O 0.75092 0.51161 0.45776
 O105 O 0.75828 0.44414 0.46080
 O106 O 0.75281 0.51451 0.53719
 Cu107 Cu 0.81822 0.48449 0.49829
 Cu108 Cu 0.74899 0.47898 0.49881
 C109 C 0.78056 0.52897 0.55023
 C110 C 0.78790 0.43371 0.44801
 C111 C 0.77848 0.52509 0.44320
 C112 C 0.78653 0.43782 0.55344
 O113 O 0.23637 0.20324 0.24134
 O114 O 0.21993 0.28470 0.30028
 O115 O 0.18716 0.24983 0.24321
 O116 O 0.26924 0.23677 0.29976
 O117 O 0.29745 0.26883 0.25436
 O118 O 0.21512 0.28149 0.19725
 O119 O 0.24887 0.31550 0.25433
 O120 O 0.26572 0.23419 0.19591
 Cu121 Cu 0.22540 0.24054 0.27581
 Cu122 Cu 0.25955 0.27796 0.22059
 C123 C 0.25356 0.20496 0.20833
 C124 C 0.23221 0.31385 0.28766
 C125 C 0.18716 0.26746 0.21041
 C126 C 0.29715 0.25125 0.28726
 O127 O 0.76794 0.79193 0.24015
 O128 O 0.78886 0.71636 0.30462
 O129 O 0.81592 0.74451 0.23984
 O130 O 0.73639 0.76102 0.30148
 O131 O 0.70677 0.72641 0.25989
 O132 O 0.78568 0.70840 0.20051
 O133 O 0.75748 0.68148 0.26508
 O134 O 0.73805 0.75759 0.19847
 Cu135 Cu 0.78012 0.75697 0.27581
 Cu136 Cu 0.74380 0.71512 0.22692
 C137 C 0.75070 0.78761 0.20764
 C138 C 0.77684 0.68611 0.29605
 C139 C 0.81411 0.72363 0.20955
 C140 C 0.70807 0.74580 0.29129
 O141 O 0.79357 0.22542 0.23038
 O142 O 0.71857 0.20945 0.29687
 O143 O 0.74261 0.18061 0.23080
 O144 O 0.76581 0.25872 0.29331
 O145 O 0.73297 0.29175 0.25316
 O146 O 0.70901 0.21469 0.19271
 O147 O 0.68553 0.24434 0.25902
 O148 O 0.76130 0.25954 0.19079
 Cu149 Cu 0.75861 0.21530 0.26669
 Cu150 Cu 0.71908 0.25590 0.21978
 C151 C 0.79028 0.24447 0.19896
 C152 C 0.68943 0.22426 0.28971
 C153 C 0.72149 0.18454 0.20124
 C154 C 0.75221 0.28846 0.28428
 O155 O 0.20166 0.76579 0.23937
 O156 O 0.27399 0.78773 0.30876
 O157 O 0.24492 0.81678 0.24494
 O158 O 0.22929 0.73533 0.30365
 O159 O 0.26719 0.70674 0.26493
 O160 O 0.28180 0.78784 0.20518
 O161 O 0.31059 0.75844 0.26900
 O162 O 0.23821 0.73512 0.20083
 Cu163 Cu 0.23383 0.77919 0.27845
 Cu164 Cu 0.27813 0.74416 0.23097
 C165 C 0.20781 0.74722 0.20800
 C166 C 0.30461 0.77659 0.30072
 C167 C 0.26532 0.81596 0.21445
 C168 C 0.24597 0.70727 0.29466
 O169 O 0.76597 0.26647 0.70645
 O170 O 0.75557 0.18563 0.76609
 O171 O 0.72422 0.21226 0.70115
 O172 O 0.79496 0.24023 0.77061
 O173 O 0.75609 0.26789 0.80901
 O174 O 0.68577 0.24024 0.73975
 O175 O 0.71597 0.21208 0.80457
 O176 O 0.72661 0.29355 0.74477
 Cu177 Cu 0.76382 0.22316 0.73201
 Cu178 Cu 0.71703 0.25579 0.77864
 C179 C 0.74816 0.29374 0.71538
 C180 C 0.73492 0.18539 0.79625
 C181 C 0.69307 0.22262 0.70799
 C182 C 0.78752 0.25904 0.80150
 O183 O 0.24632 0.81309 0.76031
 O184 O 0.23257 0.73258 0.69960
 O185 O 0.20383 0.76131 0.76336
 O186 O 0.27630 0.78565 0.69551
 O187 O 0.31302 0.75567 0.73430
 O188 O 0.24046 0.73130 0.80232
 O189 O 0.27013 0.70368 0.73841
 O190 O 0.28410 0.78448 0.79912
 Cu191 Cu 0.23624 0.77611 0.72549
 Cu192 Cu 0.28072 0.74104 0.77261
 C193 C 0.26682 0.81225 0.79066
 C194 C 0.24908 0.70446 0.70855
 C195 C 0.20982 0.74252 0.79453
 C196 C 0.30691 0.77421 0.70296
 O197 O 0.24957 0.31474 0.74649
 O198 O 0.26717 0.23366 0.80508
 O199 O 0.29845 0.26821 0.74684
 O200 O 0.21670 0.28054 0.80463
 O201 O 0.18826 0.24889 0.75895
 O202 O 0.27012 0.23581 0.70177
 O203 O 0.23711 0.20260 0.76024
 O204 O 0.22046 0.28371 0.70084
 Cu205 Cu 0.26069 0.27742 0.78048
 Cu206 Cu 0.22618 0.23974 0.72566
 C207 C 0.23282 0.31295 0.71320
 C208 C 0.25452 0.20448 0.79306
 C209 C 0.29808 0.25030 0.71416
 C210 C 0.18874 0.26610 0.79211
 O211 O 0.73124 0.75887 0.69829
 O212 O 0.81246 0.75506 0.75681
 O213 O 0.78782 0.72054 0.69325
 O214 O 0.75488 0.79042 0.76193
 O215 O 0.73111 0.74980 0.80129
 O216 O 0.76416 0.68043 0.73335
 O217 O 0.78983 0.71448 0.79703
 O218 O 0.70796 0.71768 0.73732
 Cu219 Cu 0.77422 0.76008 0.72348
 Cu220 Cu 0.74631 0.71134 0.77139
 C221 C 0.70577 0.73917 0.70774
 C222 C 0.81471 0.73514 0.78766
 C223 C 0.78044 0.68855 0.70111
 C224 C 0.73712 0.78196 0.79310
 C225 C 0.26525 0.11520 0.13288
 C226 C 0.29072 0.14182 0.13316
 N227 N 0.31893 0.13896 0.10824
 C228 C 0.32264 0.11086 0.08271
 C229 C 0.29652 0.08483 0.08126
 N230 N 0.26843 0.08768 0.10658
 N231 N 0.23750 0.11757 0.15851
 C232 C 0.23382 0.14558 0.18414
 C233 C 0.25858 0.17295 0.18347
 N234 N 0.28656 0.17031 0.15793
 H235 H 0.34517 0.10946 0.06281
 H236 H 0.21121 0.14699 0.20391
 C237 C 0.79740 0.60881 0.61317
 C238 C 0.77087 0.60598 0.64249
 N239 N 0.74842 0.57839 0.64118
 C240 C 0.75113 0.55340 0.61170
 C241 C 0.77780 0.55581 0.58243
 N242 N 0.80057 0.58344 0.58399
 N243 N 0.81879 0.63743 0.61369
 C244 C 0.81464 0.66344 0.64205
 C245 C 0.78820 0.66042 0.67157
 N246 N 0.76712 0.63156 0.67099
 H247 H 0.73280 0.53168 0.61133
 H248 H 0.83165 0.68623 0.64147
 C249 C 0.74357 0.87239 0.12497
 C250 C 0.71774 0.84608 0.12541
 N251 N 0.69049 0.84823 0.09902
 C252 C 0.68795 0.87549 0.07221
 C253 C 0.71423 0.90136 0.07121
 N254 N 0.74144 0.89908 0.09768
 N255 N 0.77022 0.87106 0.15206
 C256 C 0.77240 0.84448 0.17957
 C257 C 0.74711 0.81757 0.17959
 N258 N 0.72031 0.81895 0.15232
 H259 H 0.66595 0.87670 0.05154
 H260 H 0.79418 0.84393 0.20059
 C261 C 0.22629 0.40219 0.63628
 C262 C 0.19992 0.37647 0.63568
 N263 N 0.17269 0.38010 0.60946
 C264 C 0.17084 0.40807 0.58352
 C265 C 0.19790 0.43313 0.58300
 N266 N 0.22499 0.42951 0.60959
 N267 N 0.25303 0.39918 0.66318
 C268 C 0.25487 0.37141 0.68926
 C269 C 0.22925 0.34485 0.68781
 N270 N 0.20225 0.34810 0.66094
 H271 H 0.14906 0.41010 0.56261
 H272 H 0.27678 0.36949 0.71000
 C273 C 0.87751 0.25289 0.12069
 C274 C 0.85579 0.28228 0.12770
 N275 N 0.86368 0.31363 0.10998
 C276 C 0.89214 0.31689 0.08536
 C277 C 0.91348 0.28718 0.07733
 N278 N 0.90542 0.25590 0.09543
 N279 N 0.87050 0.22184 0.13941
 C280 C 0.84270 0.21876 0.16486
 C281 C 0.82041 0.24786 0.17139
 N282 N 0.82745 0.27906 0.15249
 H283 H 0.89753 0.34225 0.07159
 H284 H 0.83772 0.19365 0.17945
 C285 C 0.38739 0.78930 0.61674
 C286 C 0.38775 0.76028 0.64327
 N287 N 0.41316 0.73537 0.63968
 C288 C 0.43824 0.73804 0.61060
 C289 C 0.43822 0.76718 0.58414
 N290 N 0.41281 0.79232 0.58803
 N291 N 0.36107 0.81342 0.61942
 C292 C 0.33497 0.80968 0.64727
 C293 C 0.33547 0.78074 0.67403
 N294 N 0.36205 0.75685 0.67138
 H295 H 0.45815 0.71772 0.60836
 H296 H 0.31407 0.82902 0.64847
 C297 C 0.12882 0.73196 0.12056
 C298 C 0.13396 0.76511 0.13867
 N299 N 0.11442 0.79314 0.12643
 C300 C 0.08975 0.78953 0.09696
 C301 C 0.08379 0.75609 0.07942
 N302 N 0.10363 0.72813 0.09187
 N303 N 0.14947 0.70429 0.13149
 C304 C 0.17512 0.70832 0.15978
 C305 C 0.17974 0.74129 0.17858
 N306 N 0.15897 0.76893 0.16755
 H307 H 0.07454 0.81241 0.08800
 H308 H 0.19152 0.68601 0.16775
 C309 C 0.61449 0.20910 0.61866
 C310 C 0.61298 0.23693 0.64686
 N311 N 0.58706 0.26136 0.64412
 C312 C 0.56252 0.25936 0.61434
 C313 C 0.56358 0.23137 0.58618
 N314 N 0.58958 0.20669 0.58919
 N315 N 0.64138 0.18553 0.62062
 C316 C 0.66690 0.18868 0.64937
 C317 C 0.66520 0.21639 0.67787
 N318 N 0.63807 0.23973 0.67583
 H319 H 0.54216 0.27927 0.61289
 H320 H 0.68825 0.16984 0.64994
 C321 C 0.73582 0.09884 0.87671
 C322 C 0.70475 0.11776 0.86973
 N323 N 0.67500 0.10799 0.88916
 C324 C 0.67492 0.08021 0.91537
 C325 C 0.70632 0.06180 0.92335
 N326 N 0.73600 0.07179 0.90366
 N327 N 0.76530 0.10760 0.85621
 C328 C 0.76521 0.13465 0.82916
 C329 C 0.73445 0.15439 0.82296
 N330 N 0.70485 0.14550 0.84354
 H331 H 0.65072 0.07306 0.93030
 H332 H 0.78921 0.14134 0.81352
 C333 C 0.23530 0.61726 0.36984
 C334 C 0.20840 0.64252 0.36757
 N335 N 0.17908 0.63820 0.39034
 C336 C 0.17559 0.60995 0.41560
 C337 C 0.20299 0.58520 0.41896
 N338 N 0.23221 0.58954 0.39578
 N339 N 0.26431 0.62110 0.34650
 C340 C 0.26784 0.64925 0.32121
 C341 C 0.24148 0.67526 0.31971
 N342 N 0.21226 0.67115 0.34301
 H343 H 0.15211 0.60742 0.43376
 H344 H 0.29145 0.65177 0.30327
 C345 C 0.27060 0.89887 0.87156
 C346 C 0.30115 0.87976 0.86245
 N347 N 0.33181 0.88925 0.88019
 C348 C 0.33323 0.91673 0.90693
 C349 C 0.30231 0.93504 0.91742
 N350 N 0.27178 0.92550 0.89915
 N351 N 0.24016 0.89040 0.85283
 C352 C 0.23876 0.86342 0.82561
 C353 C 0.26896 0.84332 0.81747
 N354 N 0.29958 0.85199 0.83617
 H355 H 0.35806 0.92346 0.92068
 H356 H 0.21402 0.85698 0.81145
 C357 C 0.76011 0.37541 0.36416
 C358 C 0.78664 0.34964 0.36347
 N359 N 0.81422 0.35276 0.38934
 C360 C 0.81619 0.38026 0.41608
 C361 C 0.78890 0.40525 0.41768
 N362 N 0.76162 0.40213 0.39148
 N363 N 0.73295 0.37313 0.33792
 C364 C 0.73078 0.34599 0.31114
 C365 C 0.75655 0.31934 0.31107
 N366 N 0.78406 0.32179 0.33735
 H367 H 0.83819 0.38199 0.43669
 H368 H 0.70847 0.34470 0.29093
 C369 C 0.10020 0.26748 0.86891
 C370 C 0.12401 0.29565 0.86934
 N371 N 0.11880 0.32304 0.89538
 C372 C 0.09101 0.32341 0.92125
 C373 C 0.06784 0.29466 0.92184
 N374 N 0.07304 0.26735 0.89552
 N375 N 0.10478 0.24057 0.84212
 C376 C 0.13232 0.24032 0.81597
 C377 C 0.15694 0.26782 0.81727
 N378 N 0.15213 0.29493 0.84403
 H379 H 0.08757 0.34545 0.94191
 H380 H 0.13560 0.21825 0.79533
 C381 C 0.61907 0.75135 0.36721
 C382 C 0.64330 0.77914 0.36694
 N383 N 0.63805 0.80739 0.39182
 C384 C 0.60992 0.80884 0.41727
 C385 C 0.58640 0.78037 0.41856
 N386 N 0.59165 0.75238 0.39329
 N387 N 0.62362 0.72345 0.34190
 C388 C 0.65151 0.72180 0.31646
 C389 C 0.67656 0.74895 0.31687
 N390 N 0.67182 0.77715 0.34220
 H391 H 0.60659 0.83139 0.43720
 H392 H 0.65460 0.69897 0.29690
 C393 C 0.90097 0.74591 0.86681
 C394 C 0.88057 0.71514 0.86762
 N395 N 0.88828 0.68931 0.89485
 C396 C 0.91528 0.69300 0.92149
 C397 C 0.93501 0.72429 0.92151
 N398 N 0.92731 0.74995 0.89399
 N399 N 0.89394 0.77143 0.83911
 C400 C 0.86716 0.76783 0.81236
 C401 C 0.84587 0.73760 0.81381
 N402 N 0.85318 0.71185 0.84151
 H403 H 0.92077 0.67212 0.94305
 H404 H 0.86192 0.78892 0.79099
 C405 C 0.38552 0.24833 0.36432
 C406 C 0.36130 0.22054 0.36443
 N407 N 0.36583 0.19316 0.39059
 C408 C 0.39326 0.19251 0.41696
 C409 C 0.41676 0.22097 0.41800
 N410 N 0.41229 0.24820 0.39145
 N411 N 0.38155 0.27527 0.33751
 C412 C 0.35417 0.27597 0.31112
 C413 C 0.32906 0.24893 0.31222
 N414 N 0.33335 0.22174 0.33892
 H415 H 0.39605 0.17056 0.43780
 H416 H 0.35136 0.29808 0.29054
 C417 C 0.70558 0.86139 0.87577
 C418 C 0.72870 0.86887 0.84370
 N419 N 0.74366 0.90120 0.84121
 C420 C 0.73723 0.92620 0.86992
 C421 C 0.71480 0.91858 0.90258
 N422 N 0.69914 0.88639 0.90455
 N423 N 0.69187 0.82849 0.87909
 C424 C 0.70067 0.80258 0.85221
 C425 C 0.72442 0.80984 0.82061
 N426 N 0.73749 0.84305 0.81695
 H427 H 0.75035 0.95144 0.86802
 H428 H 0.68972 0.77646 0.85592
 C429 C 0.22523 0.40339 0.36397
 C430 C 0.19888 0.37765 0.36452
 N431 N 0.17158 0.38129 0.39066
 C432 C 0.16967 0.40928 0.41663
 C433 C 0.19677 0.43429 0.41723
 N434 N 0.22388 0.43070 0.39069
 N435 N 0.25210 0.40033 0.33723
 C436 C 0.25408 0.37244 0.31127
 C437 C 0.22851 0.34585 0.31276
 N438 N 0.20138 0.34917 0.33942
 H439 H 0.14789 0.41130 0.43756
 H440 H 0.27608 0.37043 0.29064
 C441 C 0.26368 0.11655 0.87113
 C442 C 0.29286 0.13777 0.86299
 N443 N 0.32394 0.13008 0.88097
 C444 C 0.32708 0.10240 0.90714
 C445 C 0.29744 0.08203 0.91691
 N446 N 0.26647 0.08973 0.89830
 N447 N 0.23291 0.12329 0.85204
 C448 C 0.22986 0.15060 0.82547
 C449 C 0.25857 0.17285 0.81852
 N450 N 0.28953 0.16587 0.83751
 H451 H 0.35219 0.09720 0.92116
 H452 H 0.20490 0.15569 0.81102
 C453 C 0.79559 0.60280 0.37816
 C454 C 0.76641 0.60235 0.35217
 N455 N 0.74253 0.57614 0.35554
 C456 C 0.74623 0.55053 0.38410
 C457 C 0.77528 0.55100 0.41033
 N458 N 0.79949 0.57703 0.40646
 N459 N 0.81871 0.62982 0.37582
 C460 C 0.81376 0.65666 0.34899
 C461 C 0.78447 0.65635 0.32313
 N462 N 0.76164 0.62894 0.32516
 H463 H 0.72659 0.53011 0.38646
 H464 H 0.83236 0.67813 0.34808
 C465 C 0.12779 0.72586 0.87821
 C466 C 0.12980 0.75692 0.85508
 N467 N 0.10637 0.78328 0.86134
 C468 C 0.08104 0.78025 0.89001
 C469 C 0.07855 0.74906 0.91325
 N470 N 0.10196 0.72240 0.90637
 N471 N 0.15256 0.70035 0.87322
 C472 C 0.17931 0.70465 0.84629
 C473 C 0.18099 0.73560 0.82281
 N474 N 0.15598 0.76086 0.82775
 H475 H 0.06297 0.80202 0.89437
 H476 H 0.19894 0.68415 0.84312
 C477 C 0.60909 0.21105 0.37641
 C478 C 0.61101 0.24196 0.35292
 N479 N 0.58821 0.26880 0.36012
 C480 C 0.56366 0.26625 0.38989
 C481 C 0.56157 0.23530 0.41341
 N482 N 0.58432 0.20831 0.40583
 N483 N 0.63266 0.18471 0.37020
 C484 C 0.65831 0.18798 0.34182
 C485 C 0.66033 0.21887 0.31824
 N486 N 0.63639 0.24509 0.32425
 H487 H 0.54587 0.28812 0.39502
 H488 H 0.67705 0.16675 0.33785
 C489 C 0.86784 0.28789 0.88332
 C490 C 0.87214 0.25938 0.85634
 N491 N 0.90167 0.23948 0.85805
 C492 C 0.92700 0.24650 0.88585
 C493 C 0.92283 0.27495 0.91298
 N494 N 0.89335 0.29520 0.91086
 N495 N 0.83762 0.30684 0.88261
 C496 C 0.81141 0.29843 0.85635
 C497 C 0.81568 0.26990 0.82930
 N498 N 0.84617 0.25124 0.82987
 H499 H 0.95008 0.22988 0.88698
 H500 H 0.78750 0.31384 0.85662
 C501 C 0.38685 0.79152 0.38459
 C502 C 0.38794 0.76418 0.35572
 N503 N 0.41476 0.74066 0.35612
 C504 C 0.44053 0.74302 0.38438
 C505 C 0.43966 0.77037 0.41333
 N506 N 0.41287 0.79421 0.41257
 N507 N 0.35915 0.81413 0.38505
 C508 C 0.33236 0.81044 0.35809
 C509 C 0.33352 0.78310 0.32911
 N510 N 0.36150 0.76079 0.32861
 H511 H 0.46150 0.72372 0.38428
 H512 H 0.31042 0.82855 0.35934
 C513 C 0.27173 0.90379 0.13553
 C514 C 0.29928 0.87923 0.13767
 N515 N 0.32764 0.88335 0.11326
 C516 C 0.32953 0.91070 0.08649
 C517 C 0.30141 0.93460 0.08327
 N518 N 0.27318 0.93051 0.10808
 N519 N 0.24371 0.90022 0.16049
 C520 C 0.24175 0.87296 0.18724
 C521 C 0.26867 0.84754 0.18854
 N522 N 0.29693 0.85140 0.16364
 H523 H 0.35227 0.91313 0.06709
 H524 H 0.21883 0.87054 0.20637
 C525 C 0.75666 0.38150 0.63774
 C526 C 0.78437 0.35731 0.64139
 N527 N 0.81345 0.36132 0.61812
 C528 C 0.81580 0.38815 0.59077
 C529 C 0.78738 0.41138 0.58582
 N530 N 0.75860 0.40755 0.60973
 N531 N 0.72776 0.37786 0.66126
 C532 C 0.72499 0.35066 0.68793
 C533 C 0.75201 0.32549 0.69040
 N534 N 0.78123 0.32959 0.66719
 H535 H 0.83894 0.39045 0.57200
 H536 H 0.70140 0.34801 0.70586
 C537 C 0.69876 0.09981 0.12205
 C538 C 0.72785 0.09846 0.14816
 N539 N 0.75072 0.07112 0.14530
 C540 C 0.74627 0.04540 0.11695
 C541 C 0.71760 0.04701 0.09021
 N542 N 0.69422 0.07405 0.09374
 N543 N 0.67674 0.12797 0.12380
 C544 C 0.68279 0.15511 0.14996
 C545 C 0.71225 0.15412 0.17561
 N546 N 0.73385 0.12549 0.17435
 H547 H 0.76536 0.02429 0.11469
 H548 H 0.66509 0.17749 0.15027
 C549 C 0.23704 0.61509 0.63283
 C550 C 0.21028 0.64043 0.63603
 N551 N 0.18057 0.63645 0.61389
 C552 C 0.17657 0.60847 0.58829
 C553 C 0.20385 0.58371 0.58395
 N554 N 0.23343 0.58767 0.60655
 N555 N 0.26645 0.61863 0.65553
 C556 C 0.27051 0.64659 0.68107
 C557 C 0.24428 0.67266 0.68339
 N558 N 0.21467 0.66884 0.66078
 H559 H 0.15283 0.60621 0.57057
 H560 H 0.29440 0.64893 0.69852
 C561 C 0.89768 0.71325 0.12671
 C562 C 0.89445 0.74330 0.15163
 N563 N 0.91634 0.77097 0.14618
 C564 C 0.94103 0.77024 0.11651
 C565 C 0.94413 0.74042 0.09118
 N566 N 0.92257 0.71237 0.09721
 N567 N 0.87469 0.68629 0.13103
 C568 C 0.84824 0.68827 0.15864
 C569 C 0.84470 0.71854 0.18320
 N570 N 0.86822 0.74518 0.17931
 H571 H 0.95788 0.79288 0.11246
 H572 H 0.82981 0.66673 0.16090
 C573 C 0.38691 0.24663 0.63803
 C574 C 0.36260 0.21892 0.63766
 N575 N 0.36720 0.19150 0.61147
 C576 C 0.39476 0.19079 0.58523
 C577 C 0.41825 0.21926 0.58440
 N578 N 0.41374 0.24644 0.61105
 N579 N 0.38286 0.27368 0.66473
 C580 C 0.35527 0.27460 0.69078
 C581 C 0.33004 0.24769 0.68940
 N582 N 0.33442 0.22034 0.66284
 H583 H 0.39755 0.16890 0.56423
 H584 H 0.35241 0.29680 0.71132
 C585 C 0.09561 0.27209 0.13863
 C586 C 0.12010 0.29959 0.13707
 N587 N 0.11462 0.32707 0.11125
 C588 C 0.08610 0.32794 0.08640
 C589 C 0.06246 0.29957 0.08659
 N590 N 0.06784 0.27242 0.11299
 N591 N 0.10055 0.24489 0.16481
 C592 C 0.12916 0.24363 0.18925
 C593 C 0.15457 0.27031 0.18670
 N594 N 0.14932 0.29785 0.16065
 H595 H 0.08279 0.34972 0.06543
 H596 H 0.13261 0.22135 0.20947
 C597 C 0.61663 0.74450 0.63270
 C598 C 0.63874 0.77374 0.63719
 N599 N 0.63212 0.80375 0.61597
 C600 C 0.60459 0.80570 0.58989
 C601 C 0.58322 0.77599 0.58412
 N602 N 0.58972 0.74612 0.60592
 N603 N 0.62295 0.71468 0.65443
 C604 C 0.65075 0.71260 0.68012
 C605 C 0.67370 0.74136 0.68345
 N606 N 0.66696 0.77134 0.66197
 H607 H 0.60019 0.82975 0.57284
 H608 H 0.65552 0.68837 0.69669
   
