data_POSCAR
  _audit_creation_date              2014-09-24
  _audit_creation_method            'ToBaCCo'
  _symmetry_space_group_name_H-M    'P1'
  _symmetry_Int_Tables_number       1
  _symmetry_cell_setting            triclinic
  loop_
  _symmetry_equiv_pos_as_xyz
 x,y,z
_cell_length_a 48.5143
_cell_length_b 47.9272
_cell_length_c 48.5558
_cell_angle_alpha 89.957100
_cell_angle_beta 89.991500
_cell_angle_gamma 89.990000
loop_
  _atom_site_label
  _atom_site_type_symbol
  _atom_site_fract_x
  _atom_site_fract_y
  _atom_site_fract_z
C1 C 0.60448 0.64472 0.62551
 C2 C 0.60461 0.62430 0.64617
 C3 C 0.62517 0.60373 0.64646
 C4 C 0.64561 0.60365 0.62604
 C5 C 0.64549 0.62408 0.60539
 C6 C 0.62493 0.64460 0.60514
 H7 H 0.58875 0.62445 0.66193
 H8 H 0.66157 0.58778 0.62619
 H9 H 0.62483 0.66042 0.58915
 C10 C 0.89655 0.35396 0.12509
 C11 C 0.89634 0.37453 0.14561
 C12 C 0.87579 0.39507 0.14567
 C13 C 0.85543 0.39505 0.12522
 C14 C 0.85559 0.37452 0.10470
 C15 C 0.87614 0.35398 0.10464
 H16 H 0.91209 0.37459 0.16148
 H17 H 0.83952 0.41095 0.12527
 H18 H 0.87622 0.33810 0.08872
 C19 C 0.39561 0.14546 -0.12530
 C20 C 0.37517 0.14538 -0.10492
 C21 C 0.35462 0.12484 -0.10509
 C22 C 0.35453 0.10437 -0.12568
 C23 C 0.37496 0.10443 -0.14607
 C24 C 0.39550 0.12498 -0.14587
 H25 H 0.37525 0.16123 -0.08899
 H26 H 0.33863 0.08847 -0.12583
 H27 H 0.41132 0.12503 -0.16166
 C28 C 0.10338 0.85368 0.37495
 C29 C 0.10358 0.87427 0.35441
 C30 C 0.12416 0.89477 0.35429
 C31 C 0.14455 0.89471 0.37471
 C32 C 0.14440 0.87416 0.39524
 C33 C 0.12382 0.85366 0.39536
 H34 H 0.08780 0.87437 0.33857
 H35 H 0.16049 0.91058 0.37462
 H36 H 0.12375 0.83777 0.41130
 N37 N 0.09319 0.16981 0.11308
 N38 N 0.08275 0.15877 0.13560
 C39 C 0.06041 0.17359 0.14323
 C40 C 0.05687 0.19489 0.12448
 C41 C 0.07789 0.19201 0.10563
 H42 H 0.04766 0.16928 0.16099
 H43 H 0.08174 0.20506 0.08786
 Cu44 Cu 0.09933 0.12609 0.15269
 Cu45 Cu 0.12576 0.15460 0.09511
 Cu46 Cu 0.15509 0.09569 0.12446
 N47 N 0.11566 0.09265 0.16853
 N48 N 0.13747 0.08086 0.15739
 C49 C 0.14449 0.05823 0.17227
 C50 C 0.12609 0.05584 0.19374
 C51 C 0.10805 0.07787 0.19090
 H52 H 0.16165 0.04455 0.16782
 H53 H 0.09076 0.08268 0.20412
 N54 N 0.16993 0.11374 0.09115
 N55 N 0.15875 0.13620 0.07996
 C56 C 0.17354 0.14353 0.05760
 C57 C 0.19487 0.12481 0.05475
 C58 C 0.19212 0.10621 0.07619
 H59 H 0.16921 0.16116 0.04438
 H60 H 0.20534 0.08859 0.08054
 H61 H 0.11997 0.11405 0.10848
 H62 H 0.14290 0.13665 0.12983
 N63 N 0.40726 0.83054 0.61202
 N64 N 0.41840 0.84233 0.63380
 C65 C 0.44081 0.82759 0.64140
 C66 C 0.44368 0.80558 0.62339
 C67 C 0.42218 0.80794 0.60501
 H68 H 0.45403 0.83240 0.65868
 H69 H 0.41773 0.79426 0.58787
 Cu70 Cu 0.40251 0.87574 0.65012
 Cu71 Cu 0.37428 0.84532 0.59443
 Cu72 Cu 0.34486 0.90418 0.62372
 N73 N 0.38539 0.90838 0.66667
 N74 N 0.36285 0.91940 0.65624
 C75 C 0.35538 0.94160 0.67151
 C76 C 0.37425 0.94449 0.69251
 C77 C 0.39302 0.92321 0.68898
 H78 H 0.33759 0.95464 0.66766
 H79 H 0.41080 0.91891 0.70172
 N80 N 0.32971 0.88576 0.59077
 N81 N 0.34092 0.86333 0.57961
 C82 C 0.32595 0.85578 0.55746
 C83 C 0.30446 0.87434 0.55472
 C84 C 0.30731 0.89306 0.57601
 H85 H 0.33031 0.83816 0.54426
 H86 H 0.29407 0.91067 0.58034
 H87 H 0.37962 0.88629 0.60659
 H88 H 0.35827 0.86365 0.62952
 N89 N 0.90669 0.66961 0.38706
 N90 N 0.91712 0.65864 0.36451
 C91 C 0.93944 0.67350 0.35689
 C92 C 0.94298 0.69475 0.37567
 C93 C 0.92197 0.69180 0.39454
 H94 H 0.95219 0.66925 0.33911
 H95 H 0.91813 0.70479 0.41233
 Cu96 Cu 0.90056 0.62601 0.34739
 Cu97 Cu 0.87416 0.65432 0.40504
 Cu98 Cu 0.84486 0.59548 0.37562
 N99 N 0.88425 0.59261 0.33151
 N100 N 0.86247 0.58077 0.34265
 C101 C 0.85546 0.55818 0.32775
 C102 C 0.87384 0.55586 0.30625
 C103 C 0.89185 0.57790 0.30911
 H104 H 0.83832 0.54446 0.33220
 H105 H 0.90914 0.58276 0.29589
 N106 N 0.83003 0.61341 0.40898
 N107 N 0.84120 0.63583 0.42019
 C108 C 0.82643 0.64308 0.44259
 C109 C 0.80513 0.62433 0.44543
 C110 C 0.80787 0.60581 0.42395
 H111 H 0.83076 0.66067 0.45583
 H112 H 0.79466 0.58819 0.41958
 H113 H 0.87998 0.61381 0.39159
 H114 H 0.85701 0.63647 0.37031
 N115 N 0.59276 0.33128 -0.11208
 N116 N 0.58162 0.34308 -0.13388
 C117 C 0.55922 0.32834 -0.14146
 C118 C 0.55635 0.30632 -0.12342
 C119 C 0.57785 0.30868 -0.10504
 H120 H 0.54600 0.33316 -0.15875
 H121 H 0.58229 0.29499 -0.08788
 Cu122 Cu 0.59752 0.37648 -0.15023
 Cu123 Cu 0.62574 0.34604 -0.09450
 Cu124 Cu 0.65517 0.40488 -0.12387
 N125 N 0.61466 0.40911 -0.16684
 N126 N 0.63720 0.42012 -0.15642
 C127 C 0.64469 0.44230 -0.17173
 C128 C 0.62582 0.44520 -0.19273
 C129 C 0.60704 0.42393 -0.18917
 H130 H 0.66248 0.45532 -0.16790
 H131 H 0.58926 0.41964 -0.20191
 N132 N 0.67032 0.38645 -0.09089
 N133 N 0.65910 0.36403 -0.07970
 C134 C 0.67407 0.35646 -0.05754
 C135 C 0.69557 0.37501 -0.05482
 C136 C 0.69272 0.39374 -0.07615
 H137 H 0.66972 0.33884 -0.04432
 H138 H 0.70598 0.41133 -0.08050
 H139 H 0.62041 0.38701 -0.10672
 H140 H 0.64175 0.36435 -0.12961
 C141 C -0.08346 0.33400 0.12502
 C142 C -0.06576 0.31634 0.12497
 C143 C -0.04461 0.29528 0.12490
 C144 C -0.03181 0.28746 0.14959
 C145 C -0.01122 0.26703 0.14952
 C146 C -0.00335 0.25433 0.12475
 C147 C -0.01617 0.26214 0.10006
 C148 C -0.03675 0.28258 0.10013
 C149 C 0.01787 0.23335 0.12466
 C150 C 0.03566 0.21579 0.12458
 H151 H -0.03773 0.29716 0.16885
 H152 H -0.00145 0.26115 0.16872
 H153 H -0.01024 0.25246 0.08079
 H154 H -0.04652 0.28847 0.08092
 C155 C 0.58337 0.66582 0.62523
 C156 C 0.56569 0.68349 0.62500
 C157 C 0.54458 0.70459 0.62474
 C158 C 0.54519 0.72630 0.64405
 C159 C 0.52469 0.74681 0.64379
 C160 C 0.50349 0.74571 0.62423
 C161 C 0.50288 0.72400 0.60493
 C162 C 0.52338 0.70348 0.60518
 C163 C 0.48240 0.76683 0.62395
 C164 C 0.46473 0.78451 0.62370
 H165 H 0.56149 0.72735 0.65927
 H166 H 0.52535 0.76351 0.65881
 H167 H 0.48658 0.72295 0.58971
 H168 H 0.52271 0.68679 0.59016
 C169 C 1.08336 0.83376 0.37507
 C170 C 1.06563 0.81613 0.37517
 C171 C 1.04446 0.79511 0.37528
 C172 C 1.04466 0.77389 0.35544
 C173 C 1.02406 0.75348 0.35553
 C174 C 1.00317 0.75420 0.37545
 C175 C 1.00298 0.77541 0.39529
 C176 C 1.02359 0.79582 0.39521
 C177 C 0.98196 0.73322 0.37552
 C178 C 0.96418 0.71566 0.37559
 H179 H 1.06070 0.77314 0.33994
 H180 H 1.02440 0.73717 0.34009
 H181 H 0.98693 0.77617 0.41079
 H182 H 1.02324 0.81214 0.41064
 C183 C 0.41671 0.16656 -0.12510
 C184 C 0.43437 0.18425 -0.12492
 C185 C 0.45546 0.20536 -0.12469
 C186 C 0.48176 0.19940 -0.13505
 C187 C 0.50227 0.21991 -0.13481
 C188 C 0.49654 0.24647 -0.12422
 C189 C 0.47024 0.25244 -0.11386
 C190 C 0.44974 0.23192 -0.11410
 C191 C 0.51764 0.26758 -0.12395
 C192 C 0.53531 0.28526 -0.12372
 H193 H 0.48641 0.17893 -0.14329
 H194 H 0.52254 0.21508 -0.14287
 H195 H 0.46559 0.27291 -0.10562
 H196 H 0.42947 0.23675 -0.10604
 C197 C 0.12435 -0.08410 0.33321
 C198 C 0.12452 -0.06640 0.31556
 C199 C 0.12474 -0.04527 0.29450
 C200 C 0.12310 -0.01702 0.30173
 C201 C 0.12335 0.00352 0.28126
 C202 C 0.12523 -0.00410 0.25347
 C203 C 0.12686 -0.03235 0.24623
 C204 C 0.12662 -0.05289 0.26671
 C205 C 0.12551 0.01704 0.23240
 C206 C 0.12577 0.03475 0.21476
 H207 H 0.12165 -0.01090 0.32316
 H208 H 0.12208 0.02531 0.28708
 H209 H 0.12833 -0.03847 0.22481
 H210 H 0.12790 -0.07467 0.26089
 C211 C 0.62528 0.58388 -0.33345
 C212 C 0.62538 0.56632 -0.31565
 C213 C 0.62547 0.54537 -0.29441
 C214 C 0.62663 0.51704 -0.30144
 C215 C 0.62670 0.49668 -0.28078
 C216 C 0.62562 0.50456 -0.25302
 C217 C 0.62446 0.53289 -0.24600
 C218 C 0.62439 0.55325 -0.26665
 C219 C 0.62568 0.48361 -0.23177
 C220 C 0.62574 0.46608 -0.21396
 H221 H 0.62747 0.51072 -0.32284
 H222 H 0.62759 0.47484 -0.28644
 H223 H 0.62362 0.53921 -0.22460
 H224 H 0.62348 0.57509 -0.26099
 C225 C 0.37485 1.08341 0.83278
 C226 C 0.37477 1.06581 0.81505
 C227 C 0.37468 1.04482 0.79388
 C228 C 0.37482 1.05267 0.76608
 C229 C 0.37474 1.03226 0.74550
 C230 C 0.37451 1.00393 0.75263
 C231 C 0.37437 0.99608 0.78043
 C232 C 0.37445 1.01649 0.80102
 C233 C 0.37442 0.98295 0.73145
 C234 C 0.37435 0.96539 0.71368
 H235 H 0.37500 1.07451 0.76033
 H236 H 0.37485 1.03856 0.72406
 H237 H 0.37419 0.97424 0.78618
 H238 H 0.37434 1.01019 0.82245
 C239 C 0.87559 0.41617 0.16674
 C240 C 0.87543 0.43386 0.18438
 C241 C 0.87523 0.45496 0.20545
 C242 C 0.87816 0.44741 0.23318
 C243 C 0.87791 0.46791 0.25366
 C244 C 0.87474 0.49606 0.24649
 C245 C 0.87182 0.50361 0.21876
 C246 C 0.87207 0.48310 0.19828
 C247 C 0.87444 0.51715 0.26756
 C248 C 0.87418 0.53482 0.28522
 H249 H 0.88061 0.42571 0.23895
 H250 H 0.88018 0.46184 0.27503
 H251 H 0.86935 0.52531 0.21299
 H252 H 0.86978 0.48917 0.17690
 C253 C 0.33363 0.12478 -0.08415
 C254 C 0.31606 0.12475 -0.06660
 C255 C 0.29509 0.12475 -0.04563
 C256 C 0.27273 0.10635 -0.04750
 C257 C 0.25235 0.10635 -0.02711
 C258 C 0.25426 0.12475 -0.00478
 C259 C 0.27662 0.14314 -0.00291
 C260 C 0.29700 0.14314 -0.02330
 C261 C 0.23330 0.12475 0.01620
 C262 C 0.21576 0.12477 0.03379
 H263 H 0.27105 0.09204 -0.06468
 H264 H 0.23515 0.09204 -0.02875
 H265 H 0.27830 0.15746 0.01427
 H266 H 0.31420 0.15746 -0.02166
 C267 C 0.66648 0.62400 0.58444
 C268 C 0.68405 0.62395 0.56688
 C269 C 0.70502 0.62393 0.54592
 C270 C 0.69891 0.61423 0.51939
 C271 C 0.71927 0.61427 0.49899
 C272 C 0.74582 0.62400 0.50503
 C273 C 0.75193 0.63368 0.53156
 C274 C 0.73157 0.63365 0.55196
 C275 C 0.76675 0.62409 0.48403
 C276 C 0.78427 0.62419 0.46642
 H277 H 0.67844 0.60667 0.51450
 H278 H 0.71432 0.60673 0.47855
 H279 H 0.77239 0.64125 0.53645
 H280 H 0.73652 0.64119 0.57240
 C281 C 0.83465 0.37452 0.08372
 C282 C 0.81709 0.37454 0.06615
 C283 C 0.79612 0.37457 0.04519
 C284 C 0.79749 0.39369 0.02338
 C285 C 0.77708 0.39375 0.00304
 C286 C 0.75522 0.37471 0.00442
 C287 C 0.75385 0.35558 0.02622
 C288 C 0.77426 0.35552 0.04656
 C289 C 0.73420 0.37480 -0.01649
 C290 C 0.71658 0.37489 -0.03399
 H291 H 0.81430 0.40851 0.02212
 H292 H 0.77834 0.40863 -0.01373
 H293 H 0.73703 0.34077 0.02748
 H294 H 0.77300 0.34065 0.06333
 C295 C 0.16537 0.87413 0.41620
 C296 C 0.18295 0.87412 0.43374
 C297 C 0.20395 0.87413 0.45467
 C298 C 0.20027 0.85862 0.47886
 C299 C 0.22069 0.85864 0.49920
 C300 C 0.24486 0.87418 0.49543
 C301 C 0.24854 0.88969 0.47123
 C302 C 0.22812 0.88967 0.45090
 C303 C 0.26587 0.87421 0.51635
 C304 C 0.28347 0.87426 0.53386
 H305 H 0.18166 0.84653 0.48199
 H306 H 0.21764 0.84657 0.51783
 H307 H 0.26714 0.90178 0.46810
 H308 H 0.23117 0.90174 0.43227
   
