data_POSCAR
  _audit_creation_date              2014-09-24
  _audit_creation_method            'ToBaCCo'
  _symmetry_space_group_name_H-M    'P1'
  _symmetry_Int_Tables_number       1
  _symmetry_cell_setting            triclinic
  loop_
  _symmetry_equiv_pos_as_xyz
 x,y,z
_cell_length_a 35.9153
_cell_length_b 39.9551
_cell_length_c 22.7000
_cell_angle_alpha 89.935200
_cell_angle_beta 90.104000
_cell_angle_gamma 123.594600
loop_
  _atom_site_label
  _atom_site_type_symbol
  _atom_site_fract_x
  _atom_site_fract_y
  _atom_site_fract_z
C1 C 0.45248 0.89662 0.49847
 C2 C 0.45916 0.91600 0.55289
 C3 C 0.46874 0.95530 0.55258
 C4 C 0.46789 0.97409 0.50021
 C5 C 0.45741 0.95217 0.44716
 C6 C 0.45156 0.91445 0.44588
 C7 C 0.47985 1.01678 0.50103
 C8 C 0.49311 1.04033 0.44915
 C9 C 0.50789 1.08124 0.45034
 C10 C 0.51071 1.09892 0.50516
 C11 C 0.49761 1.07633 0.55707
 C12 C 0.48072 1.03530 0.55444
 H13 H 0.44493 0.86639 0.49656
 H14 H 0.47923 0.97171 0.59350
 H15 H 0.45448 0.96417 0.40608
 H16 H 0.49513 1.02801 0.40796
 H17 H 0.52235 1.13031 0.50792
 H18 H 0.46864 1.01844 0.59496
 C19 C 0.11909 0.54480 0.49221
 C20 C 0.09810 0.54051 0.54656
 C21 C 0.05136 0.52233 0.54701
 C22 C 0.02519 0.50498 0.49561
 C23 C 0.04774 0.50990 0.44216
 C24 C 0.09439 0.53099 0.43995
 C25 C -0.02522 0.48016 0.49807
 C26 C -0.05116 0.47212 0.44660
 C27 C -0.09788 0.44390 0.44659
 C28 C -0.11915 0.42692 0.50064
 C29 C -0.09473 0.43721 0.55311
 C30 C -0.04802 0.46242 0.55133
 H31 H 0.15520 0.56127 0.48970
 H32 H 0.03527 0.51994 0.58827
 H33 H 0.02971 0.49682 0.40159
 H34 H -0.03492 0.48609 0.40556
 H35 H -0.15529 0.40750 0.50275
 H36 H -0.03017 0.46700 0.59199
 C37 C 0.49742 0.59408 0.50206
 C38 C 0.50612 0.58196 0.55573
 C39 C 0.51778 0.55359 0.55401
 C40 C 0.51605 0.53394 0.50142
 C41 C 0.50456 0.54526 0.44909
 C42 C 0.49650 0.57588 0.44880
 C43 C 0.52518 0.50131 0.50174
 C44 C 0.53560 0.48899 0.44938
 C45 C 0.54214 0.45739 0.44956
 C46 C 0.54114 0.43945 0.50313
 C47 C 0.53303 0.45231 0.55590
 C48 C 0.52343 0.48185 0.55472
 H49 H 0.48766 0.61532 0.50160
 H50 H 0.52944 0.54793 0.59421
 H51 H 0.50159 0.53051 0.40792
 H52 H 0.53849 0.50341 0.40786
 H53 H 0.54850 0.41655 0.50401
 H54 H 0.51443 0.48895 0.59596
 O55 O 0.43754 0.68764 -0.05128
 O56 O 0.42522 0.74489 -0.06673
 C57 C 0.39938 0.75586 -0.08073
 O58 O 0.36358 0.74480 -0.05291
 O59 O 0.29563 0.67169 -0.07202
 C60 C 0.28194 0.63614 -0.08679
 O61 O 0.29261 0.61475 -0.05969
 O62 O 0.37251 0.63040 -0.07119
 C63 C 0.41352 0.65579 -0.08128
 O64 O 0.43032 0.69333 0.06689
 O65 O 0.42258 0.75357 0.05141
 C66 C 0.39133 0.75299 0.07860
 O67 O 0.35065 0.73028 0.06413
 O68 O 0.28130 0.65824 0.04481
 C69 C 0.27911 0.62948 0.07246
 O70 O 0.30250 0.61587 0.05905
 O71 O 0.38093 0.62862 0.04661
 C72 C 0.41205 0.65634 0.07812
 Cr73 Cr 0.42644 0.71843 -0.00004
 Cr74 Cr 0.32438 0.70048 -0.00400
 Cr75 Cr 0.33803 0.62464 -0.00621
 O76 O 0.36292 0.68116 -0.00360
 O77 O 0.57344 0.32765 -0.04758
 O78 O 0.56847 0.26127 -0.06416
 C79 C 0.58635 0.24222 -0.07553
 O80 O 0.61845 0.24624 -0.04522
 O81 O 0.69474 0.31274 -0.06817
 C82 C 0.71777 0.34970 -0.08161
 O83 O 0.71628 0.37623 -0.05258
 O84 O 0.64420 0.37610 -0.06825
 C85 C 0.60266 0.35729 -0.07836
 O86 O 0.57718 0.31838 0.07019
 O87 O 0.56731 0.24929 0.05363
 C88 C 0.59484 0.24612 0.08443
 O89 O 0.63564 0.26334 0.07127
 O90 O 0.71308 0.32670 0.04845
 C91 C 0.72173 0.35742 0.07742
 O92 O 0.70526 0.37750 0.06504
 O93 O 0.63531 0.38021 0.04918
 C94 C 0.60182 0.35572 0.08096
 Cr95 Cr 0.57392 0.29019 0.00300
 Cr96 Cr 0.66446 0.28830 0.00144
 Cr97 Cr 0.67391 0.37538 -0.00164
 O98 O 0.63748 0.31804 0.00076
 C99 C 0.44025 0.85267 -0.28841
 C100 C 0.42968 0.88156 -0.29055
 C101 C 0.43782 0.90363 -0.34247
 C102 C 0.45497 0.89609 -0.39327
 C103 C 0.46563 0.86694 -0.38962
 C104 C 0.45875 0.84553 -0.33733
 C105 C 0.43097 0.82885 -0.23426
 C106 C 0.44213 0.80031 -0.23194
 C107 C 0.43281 0.77745 -0.18069
 C108 C 0.41128 0.78210 -0.13267
 C109 C 0.40005 0.81068 -0.13571
 C110 C 0.41039 0.83456 -0.18627
 C111 C 0.46959 0.81677 -0.33321
 C112 C 0.46166 0.79471 -0.28127
 C113 C 0.41003 0.88708 -0.24120
 C114 C 0.40027 0.86379 -0.19009
 H115 H 0.48411 0.81112 -0.37054
 H116 H 0.47033 0.77270 -0.28000
 H117 H 0.40155 0.90922 -0.24236
 H118 H 0.38458 0.86865 -0.15335
 H119 H 0.42794 0.92479 -0.34411
 H120 H 0.48043 0.86148 -0.42681
 H121 H 0.44100 0.75513 -0.17884
 H122 H 0.38360 0.81443 -0.09874
 C123 C 0.17383 0.57850 -0.29570
 C124 C 0.13745 0.58235 -0.30138
 C125 C 0.11194 0.56923 -0.35332
 C126 C 0.12347 0.55361 -0.40062
 C127 C 0.16081 0.55070 -0.39389
 C128 C 0.18550 0.56244 -0.34140
 C129 C 0.20050 0.59189 -0.24099
 C130 C 0.23619 0.58702 -0.23473
 C131 C 0.26161 0.60003 -0.18277
 C132 C 0.25249 0.61909 -0.13850
 C133 C 0.21682 0.62397 -0.14548
 C134 C 0.19021 0.60982 -0.19637
 C135 C 0.22153 0.55819 -0.33364
 C136 C 0.24624 0.57000 -0.28103
 C137 C 0.12764 0.59972 -0.25524
 C138 C 0.15381 0.61354 -0.20384
 H139 H 0.23069 0.54559 -0.36852
 H140 H 0.27376 0.56622 -0.27685
 H141 H 0.09977 0.60303 -0.25913
 H142 H 0.14543 0.62718 -0.16965
 H143 H 0.08451 0.57313 -0.35767
 H144 H 0.16960 0.53754 -0.42836
 H145 H 0.28951 0.59681 -0.17765
 H146 H 0.20984 0.63866 -0.11123
 C147 C 0.47845 0.61808 -0.28405
 C148 C 0.49682 0.64543 -0.33101
 C149 C 0.50706 0.63391 -0.38380
 C150 C 0.49997 0.59550 -0.38961
 C151 C 0.48329 0.56930 -0.34042
 C152 C 0.47162 0.58006 -0.28834
 C153 C 0.46461 0.62888 -0.23007
 C154 C 0.44326 0.60033 -0.18487
 C155 C 0.42739 0.60971 -0.13547
 C156 C 0.43395 0.64768 -0.13044
 C157 C 0.45702 0.67662 -0.17481
 C158 C 0.47160 0.66703 -0.22552
 C159 C 0.45160 0.55284 -0.24129
 C160 C 0.43730 0.56267 -0.19063
 C161 C 0.50375 0.68350 -0.32460
 C162 C 0.49169 0.69423 -0.27257
 H163 H 0.44605 0.52333 -0.24418
 H164 H 0.42112 0.54050 -0.15591
 H165 H 0.51822 0.70505 -0.36033
 H166 H 0.49725 0.72374 -0.26967
 H167 H 0.52123 0.65523 -0.41982
 H168 H 0.47597 0.53917 -0.34374
 H169 H 0.40963 0.58749 -0.10113
 H170 H 0.46161 0.70572 -0.17106
 C171 C 0.52682 0.14063 -0.28063
 C172 C 0.53897 0.11298 -0.28776
 C173 C 0.52743 0.09068 -0.34002
 C174 C 0.50468 0.09646 -0.38534
 C175 C 0.49204 0.12378 -0.37705
 C176 C 0.50300 0.14594 -0.32468
 C177 C 0.54046 0.16535 -0.22679
 C178 C 0.52883 0.19337 -0.22006
 C179 C 0.54291 0.21757 -0.16960
 C180 C 0.56915 0.21444 -0.12646
 C181 C 0.58025 0.18595 -0.13374
 C182 C 0.56582 0.16120 -0.18378
 C183 C 0.49155 0.17398 -0.31601
 C184 C 0.50414 0.19722 -0.26450
 C185 C 0.56353 0.10905 -0.24321
 C186 C 0.57683 0.13283 -0.19217
 H187 H 0.47309 0.17829 -0.34959
 H188 H 0.49501 0.21879 -0.25979
 H189 H 0.57311 0.08782 -0.24822
 H190 H 0.59625 0.12923 -0.15926
 H191 H 0.53777 0.07008 -0.34654
 H192 H 0.47433 0.12816 -0.41171
 H193 H 0.53448 0.23963 -0.16479
 H194 H 0.60033 0.18324 -0.10080
 C195 C 0.83064 0.39848 -0.28638
 C196 C 0.82096 0.37004 -0.33040
 C197 C 0.84644 0.38255 -0.38220
 C198 C 0.88149 0.42309 -0.38985
 C199 C 0.89158 0.45097 -0.34457
 C200 C 0.86592 0.43890 -0.29294
 C201 C 0.80255 0.38589 -0.23310
 C202 C 0.81113 0.41460 -0.19011
 C203 C 0.78340 0.40269 -0.14040
 C204 C 0.74769 0.36229 -0.13329
 C205 C 0.74006 0.33383 -0.17652
 C206 C 0.76712 0.34553 -0.22675
 C207 C 0.87403 0.46661 -0.24846
 C208 C 0.84701 0.45469 -0.19800
 C209 C 0.78542 0.32987 -0.32222
 C210 C 0.75905 0.31778 -0.27115
 H211 H 0.90114 0.49789 -0.25305
 H212 H 0.85410 0.47710 -0.16507
 H213 H 0.77769 0.30764 -0.35577
 H214 H 0.73179 0.28655 -0.26672
 H215 H 0.83872 0.36101 -0.41691
 H216 H 0.91817 0.48230 -0.35067
 H217 H 0.78967 0.42475 -0.10726
 H218 H 0.71245 0.30273 -0.17174
 C219 C 0.55522 0.41087 -0.28243
 C220 C 0.57714 0.45228 -0.29289
 C221 C 0.56816 0.46538 -0.34496
 C222 C 0.53848 0.43748 -0.38713
 C223 C 0.51661 0.39603 -0.37606
 C224 C 0.52460 0.38252 -0.32334
 C225 C 0.56552 0.39697 -0.22838
 C226 C 0.54367 0.35556 -0.21774
 C227 C 0.55446 0.34258 -0.16687
 C228 C 0.58791 0.37077 -0.12824
 C229 C 0.60936 0.41210 -0.13948
 C230 C 0.59795 0.42540 -0.18917
 C231 C 0.50323 0.34135 -0.31104
 C232 C 0.51241 0.32809 -0.25898
 C233 C 0.60846 0.47977 -0.25181
 C234 C 0.61890 0.46655 -0.20098
 H235 H 0.47943 0.31917 -0.34210
 H236 H 0.49543 0.29608 -0.25141
 H237 H 0.62559 0.51178 -0.25950
 H238 H 0.64381 0.48873 -0.17089
 H239 H 0.58551 0.49731 -0.35384
 H240 H 0.49374 0.37453 -0.40855
 H241 H 0.53833 0.31071 -0.15858
 H242 H 0.63505 0.43380 -0.10962
 C243 C 0.82802 0.40715 0.28761
 C244 C 0.86394 0.44730 0.29403
 C245 C 0.88886 0.45942 0.34647
 C246 C 0.87711 0.43204 0.39351
 C247 C 0.84011 0.39193 0.38613
 C248 C 0.81609 0.37925 0.33314
 C249 C 0.80212 0.39413 0.23229
 C250 C 0.76699 0.35365 0.22529
 C251 C 0.74233 0.34148 0.17277
 C252 C 0.75143 0.36980 0.12876
 C253 C 0.78646 0.41028 0.13642
 C254 C 0.81252 0.42251 0.18784
 C255 C 0.78053 0.33906 0.32467
 C256 C 0.75662 0.32641 0.27146
 C257 C 0.87394 0.47466 0.24807
 C258 C 0.84839 0.46256 0.19611
 H259 H 0.77116 0.31718 0.35942
 H260 H 0.72945 0.29516 0.26670
 H261 H 0.90146 0.50579 0.25254
 H262 H 0.85686 0.48472 0.16209
 H263 H 0.91602 0.49064 0.35135
 H264 H 0.83118 0.36985 0.42046
 H265 H 0.71487 0.31040 0.16707
 H266 H 0.79328 0.43206 0.10242
 C267 C 0.54354 0.15093 0.29472
 C268 C 0.50895 0.11006 0.29277
 C269 C 0.49809 0.08673 0.34404
 C270 C 0.52046 0.10431 0.39787
 C271 C 0.55511 0.14566 0.39841
 C272 C 0.56709 0.16883 0.34705
 C273 C 0.55552 0.17548 0.24084
 C274 C 0.59137 0.21597 0.24243
 C275 C 0.60353 0.23884 0.19081
 C276 C 0.57947 0.22179 0.13835
 C277 C 0.54286 0.18153 0.13751
 C278 C 0.53118 0.15793 0.18869
 C279 C 0.60241 0.20959 0.34701
 C280 C 0.61457 0.23270 0.29545
 C281 C 0.48554 0.09346 0.23971
 C282 C 0.49625 0.11704 0.18869
 H283 H 0.62099 0.22370 0.38711
 H284 H 0.64224 0.26394 0.29715
 H285 H 0.45858 0.06198 0.23766
 H286 H 0.47731 0.10306 0.14878
 H287 H 0.47065 0.05541 0.34244
 H288 H 0.57424 0.15971 0.43816
 H289 H 0.63159 0.26998 0.19131
 H290 H 0.52469 0.16840 0.09680
 C291 C 0.56536 0.41474 0.28971
 C292 C 0.58867 0.45630 0.29974
 C293 C 0.58076 0.47029 0.35186
 C294 C 0.55009 0.44294 0.39386
 C295 C 0.52696 0.40137 0.38289
 C296 C 0.53441 0.38711 0.33088
 C297 C 0.57383 0.39981 0.23534
 C298 C 0.55058 0.35825 0.22552
 C299 C 0.55920 0.34415 0.17429
 C300 C 0.59117 0.37124 0.13312
 C301 C 0.61400 0.41291 0.14355
 C302 C 0.60537 0.42735 0.19459
 C303 C 0.51165 0.34575 0.31935
 C304 C 0.51957 0.33156 0.26752
 C305 C 0.61969 0.48296 0.25768
 C306 C 0.62795 0.46873 0.20606
 H307 H 0.48764 0.32415 0.35077
 H308 H 0.50146 0.29941 0.26043
 H309 H 0.63791 0.51510 0.26488
 H310 H 0.65234 0.49031 0.17497
 H311 H 0.59900 0.50231 0.36031
 H312 H 0.50295 0.38020 0.41473
 H313 H 0.54161 0.31203 0.16713
 H314 H 0.63867 0.43407 0.11230
 C315 C 0.16711 0.56562 0.27789
 C316 C 0.13236 0.57154 0.28547
 C317 C 0.10742 0.55850 0.33771
 C318 C 0.11772 0.54050 0.38259
 C319 C 0.15229 0.53431 0.37399
 C320 C 0.17701 0.54669 0.32155
 C321 C 0.19446 0.58052 0.22394
 C322 C 0.22942 0.57487 0.21664
 C323 C 0.25605 0.58996 0.16604
 C324 C 0.24855 0.61132 0.12340
 C325 C 0.21316 0.61654 0.13128
 C326 C 0.18583 0.60097 0.18139
 C327 C 0.21201 0.54127 0.31235
 C328 C 0.23768 0.55499 0.26067
 C329 C 0.12406 0.59134 0.24135
 C330 C 0.15045 0.60593 0.19029
 H331 H 0.21989 0.52662 0.34559
 H332 H 0.26460 0.55050 0.25550
 H333 H 0.09735 0.59610 0.24672
 H334 H 0.14331 0.62151 0.15774
 H335 H 0.08119 0.56377 0.34453
 H336 H 0.16016 0.52032 0.40840
 H337 H 0.28347 0.58611 0.16076
 H338 H 0.20707 0.63283 0.09868
 C339 C 0.42936 0.85022 0.28504
 C340 C 0.40159 0.86359 0.29925
 C341 C 0.40962 0.88555 0.35131
 C342 C 0.44443 0.89322 0.38944
 C343 C 0.47197 0.87966 0.37451
 C344 C 0.46479 0.85837 0.32210
 C345 C 0.42071 0.82664 0.23084
 C346 C 0.44858 0.81340 0.21652
 C347 C 0.43975 0.79042 0.16541
 C348 C 0.40266 0.77983 0.12972
 C349 C 0.37513 0.79344 0.14469
 C350 C 0.38423 0.81715 0.19497
 C351 C 0.49203 0.84473 0.30626
 C352 C 0.48418 0.82278 0.25422
 C353 C 0.36595 0.85415 0.26161
 C354 C 0.35727 0.83115 0.21050
 H355 H 0.51954 0.85094 0.33444
 H356 H 0.50585 0.81266 0.24377
 H357 H 0.34425 0.86423 0.27209
 H358 H 0.32912 0.82413 0.18305
 H359 H 0.38818 0.89571 0.36305
 H360 H 0.49897 0.88580 0.40376
 H361 H 0.46074 0.77964 0.15447
 H362 H 0.34664 0.78552 0.11722
 C363 C 0.46321 0.61043 0.28838
 C364 C 0.49364 0.64022 0.32779
 C365 C 0.50451 0.62874 0.38009
 C366 C 0.48517 0.58780 0.39304
 C367 C 0.45474 0.55835 0.35289
 C368 C 0.44362 0.56950 0.30051
 C369 C 0.45127 0.62230 0.23362
 C370 C 0.42038 0.59247 0.19463
 C371 C 0.40845 0.60384 0.14321
 C372 C 0.42708 0.64475 0.13063
 C373 C 0.45844 0.67429 0.17006
 C374 C 0.47054 0.66321 0.22169
 C375 C 0.41306 0.54054 0.26022
 C376 C 0.40162 0.55183 0.20818
 C377 C 0.51244 0.68087 0.31418
 C378 C 0.50108 0.69217 0.26204
 H379 H 0.39771 0.50886 0.26909
 H380 H 0.37773 0.52853 0.17843
 H381 H 0.53599 0.70415 0.34421
 H382 H 0.51615 0.72383 0.25339
 H383 H 0.52823 0.65159 0.41053
 H384 H 0.43914 0.52677 0.36290
 H385 H 0.38422 0.58077 0.11345
 H386 H 0.47284 0.70584 0.16119
   
