data_POSCAR
  _audit_creation_date              2014-09-24
  _audit_creation_method            'ToBaCCo'
  _symmetry_space_group_name_H-M    'P1'
  _symmetry_Int_Tables_number       1
  _symmetry_cell_setting            triclinic
  loop_
  _symmetry_equiv_pos_as_xyz
 x,y,z
_cell_length_a 43.1287
_cell_length_b 43.1512
_cell_length_c 43.1633
_cell_angle_alpha 89.979400
_cell_angle_beta 89.983200
_cell_angle_gamma 90.058200
loop_
  _atom_site_label
  _atom_site_type_symbol
  _atom_site_fract_x
  _atom_site_fract_y
  _atom_site_fract_z
O1 O 0.31550 0.35873 0.02952
 O2 O 0.35759 0.31588 -0.03079
 O3 O 0.31514 0.35886 -0.03054
 O4 O 0.35822 0.31614 0.02922
 O5 O 0.32198 0.27985 0.02972
 O6 O 0.27864 0.32283 -0.03032
 O7 O 0.32130 0.27963 -0.03054
 O8 O 0.27904 0.32266 0.03000
 Cu9 Cu 0.34025 0.34104 -0.00070
 Cu10 Cu 0.29654 0.29759 -0.00027
 C11 C 0.29010 0.34808 0.03982
 C12 C 0.34677 0.29039 -0.04063
 C13 C 0.28953 0.34827 -0.04036
 C14 C 0.34757 0.29071 0.03942
 O15 O 0.68454 0.64145 0.02965
 O16 O 0.64165 0.68360 -0.03059
 O17 O 0.68395 0.64048 -0.03038
 O18 O 0.64196 0.68428 0.02939
 O19 O 0.67834 0.72042 0.02875
 O20 O 0.72057 0.67637 -0.03128
 O21 O 0.67808 0.71971 -0.03148
 O22 O 0.72113 0.67738 0.02899
 Cu23 Cu 0.65937 0.65883 -0.00040
 Cu24 Cu 0.70324 0.70211 -0.00133
 C25 C 0.71018 0.65211 0.03931
 C26 C 0.65242 0.70891 -0.04099
 C27 C 0.70944 0.65083 -0.04076
 C28 C 0.65283 0.70985 0.03896
 O29 O 0.68438 0.35775 0.97017
 O30 O 0.64182 0.31558 1.03065
 O31 O 0.68472 0.35818 1.03018
 O32 O 0.64172 0.31498 0.97063
 O33 O 0.67785 0.27864 0.97069
 O34 O 0.72101 0.32201 1.03048
 O35 O 0.67790 0.27920 1.03097
 O36 O 0.72073 0.32163 0.97020
 Cu37 Cu 0.65953 0.34026 1.00040
 Cu38 Cu 0.70305 0.29670 1.00061
 C39 C 0.70982 0.34702 0.96013
 C40 C 0.65246 0.29017 1.04084
 C41 C 0.71024 0.34759 1.04020
 C42 C 0.65235 0.28942 0.96077
 O43 O 0.31489 0.64071 0.97098
 O44 O 0.35756 0.68371 1.03085
 O45 O 0.31529 0.64046 1.03106
 O46 O 0.35729 0.68378 0.97087
 O47 O 0.32081 0.71976 0.97103
 O48 O 0.27858 0.67619 1.03148
 O49 O 0.32105 0.71967 1.03126
 O50 O 0.27820 0.67647 0.97114
 Cu51 Cu 0.33991 0.65855 1.00092
 Cu52 Cu 0.29593 0.70163 1.00127
 C53 C 0.28928 0.65117 0.96109
 C54 C 0.34673 0.70909 1.04093
 C55 C 0.28975 0.65081 1.04129
 C56 C 0.34636 0.70920 0.96099
 O57 O -0.03112 0.35734 0.31554
 O58 O 0.02888 0.31527 0.35884
 O59 O 0.02894 0.35793 0.31614
 O60 O -0.03123 0.31492 0.35853
 O61 O -0.03084 0.27843 0.32258
 O62 O 0.02960 0.32169 0.27993
 O63 O 0.02952 0.27881 0.32285
 O64 O -0.03072 0.32106 0.27936
 Cu65 Cu -0.00120 0.34001 0.34089
 Cu66 Cu -0.00057 0.29630 0.29753
 C67 C -0.04085 0.34651 0.29002
 C68 C 0.03919 0.28986 0.34832
 C69 C 0.03927 0.34727 0.29079
 C70 C -0.04105 0.28933 0.34792
 O71 O -0.03122 0.64124 0.68394
 O72 O 0.02945 0.68305 0.64121
 O73 O 0.02889 0.64042 0.68397
 O74 O -0.03060 0.68398 0.64125
 O75 O -0.03017 0.72032 0.67736
 O76 O 0.02956 0.67657 0.72027
 O77 O 0.03012 0.71941 0.67730
 O78 O -0.03080 0.67736 0.72027
 Cu79 Cu -0.00094 0.65852 0.65897
 Cu80 Cu -0.00028 0.70208 0.70248
 C81 C -0.04109 0.65204 0.70940
 C82 C 0.03985 0.70839 0.65184
 C83 C 0.03914 0.65098 0.70941
 C84 C -0.04023 0.70963 0.65188
 O85 O 1.02993 0.64099 0.31628
 O86 O 0.96969 0.68406 0.35823
 O87 O 0.96986 0.64127 0.31558
 O88 O 1.02975 0.68358 0.35899
 O89 O 1.03060 0.71993 0.32287
 O90 O 0.97046 0.67741 0.27924
 O91 O 0.97029 0.72041 0.32210
 O92 O 1.03077 0.67714 0.27995
 Cu93 Cu 0.99971 0.65883 0.34091
 Cu94 Cu 1.00057 0.70240 0.29736
 C95 C 1.04037 0.65162 0.29096
 C96 C 0.96004 0.70964 0.34747
 C97 C 0.96026 0.65197 0.28996
 C98 C 1.04015 0.70897 0.34844
 O99 O 0.96972 0.31648 0.64009
 O100 O 1.02999 0.35853 0.68316
 O101 O 1.02981 0.31608 0.64025
 O102 O 0.96990 0.35910 0.68286
 O103 O 0.96930 0.32284 0.71908
 O104 O 1.02948 0.27959 0.67623
 O105 O 1.02965 0.32224 0.71936
 O106 O 0.96913 0.28000 0.67609
 Cu107 Cu 0.99990 0.34120 0.65797
 Cu108 Cu 0.99934 0.29748 0.70135
 C109 C 0.95942 0.29104 0.65063
 C110 C 1.03984 0.34767 0.70862
 C111 C 1.03962 0.29049 0.65085
 C112 C 0.95965 0.34843 0.70826
 O113 O 0.31544 -0.03061 0.35829
 O114 O 0.35778 0.03013 0.31615
 O115 O 0.31533 0.02947 0.35910
 O116 O 0.35803 -0.02990 0.31543
 O117 O 0.32171 -0.02969 0.27927
 O118 O 0.27880 0.02993 0.32315
 O119 O 0.32146 0.03058 0.28000
 O120 O 0.27891 -0.03041 0.32235
 Cu121 Cu 0.34029 -0.00027 0.34087
 Cu122 Cu 0.29651 0.00012 0.29755
 C123 C 0.28994 -0.04061 0.34762
 C124 C 0.34697 0.04044 0.29086
 C125 C 0.28978 0.03959 0.34867
 C126 C 0.34729 -0.03962 0.28987
 O127 O 0.64189 0.02959 0.68470
 O128 O 0.68488 -0.03055 0.64244
 O129 O 0.64193 -0.03042 0.68497
 O130 O 0.68433 0.02950 0.64170
 O131 O 0.72077 0.03014 0.67773
 O132 O 0.67808 -0.03004 0.72129
 O133 O 0.72124 -0.03016 0.67855
 O134 O 0.67812 0.03021 0.72093
 Cu135 Cu 0.65962 -0.00053 0.65981
 Cu136 Cu 0.70324 0.00008 0.70328
 C137 C 0.65256 0.03986 0.71007
 C138 C 0.71043 -0.04032 0.65318
 C139 C 0.65260 -0.04014 0.71055
 C140 C 0.70978 0.03979 0.65221
 O141 O 0.31476 1.02959 0.64190
 O142 O 0.35714 0.96931 0.68454
 O143 O 0.31497 0.96951 0.64131
 O144 O 0.35724 1.02931 0.68478
 O145 O 0.32079 1.02911 0.72082
 O146 O 0.27826 0.96905 0.67709
 O147 O 0.32064 0.96887 0.72053
 O148 O 0.27809 1.02939 0.67773
 Cu149 Cu 0.33968 0.99946 0.65950
 Cu150 Cu 0.29571 0.99907 0.70267
 C151 C 0.28920 1.03954 0.65246
 C152 C 0.34625 0.95913 0.70987
 C153 C 0.28941 0.95933 0.65167
 C154 C 0.34638 1.03911 0.71024
 O155 O 0.64201 0.96972 0.31582
 O156 O 0.68389 1.02998 0.35912
 O157 O 0.64104 1.02976 0.31659
 O158 O 0.68462 0.96994 0.35871
 O159 O 0.72101 0.97073 0.32262
 O160 O 0.67718 1.03080 0.28025
 O161 O 0.72023 1.03101 0.32299
 O162 O 0.67819 0.97052 0.27952
 Cu163 Cu 0.65925 0.99973 0.34120
 Cu164 Cu 0.70283 1.00084 0.29767
 C165 C 0.65281 0.96017 0.29023
 C166 C 0.70923 1.04052 0.34854
 C167 C 0.65156 1.04023 0.29122
 C168 C 0.71029 0.96045 0.34801
 C169 C 0.90469 0.76846 0.48425
 C170 C 0.90486 0.76838 0.51602
 C171 C 0.87870 0.78452 0.52541
 N172 N 0.86246 0.79418 0.50041
 C173 C 0.87843 0.78464 0.47521
 C174 C 0.86943 0.78849 0.55655
 C175 C 0.84424 0.80723 0.56587
 C176 C 0.83147 0.80749 0.59537
 C177 C 0.80888 0.83001 0.59546
 C178 C 0.80848 0.84291 0.56601
 N179 N 0.83025 0.82903 0.54825
 C180 C 0.78971 0.86813 0.55689
 C181 C 0.78566 0.87775 0.52585
 C182 C 0.76959 0.90407 0.51680
 C183 C 0.76954 0.90425 0.48503
 C184 C 0.78557 0.87804 0.47566
 N185 N 0.79515 0.86176 0.50066
 C186 C 0.78953 0.86876 0.44452
 C187 C 0.80813 0.84349 0.43522
 C188 C 0.80832 0.83071 0.40573
 C189 C 0.83076 0.80804 0.40565
 C190 C 0.84366 0.80760 0.43508
 N191 N 0.82989 0.82941 0.45284
 C192 C 0.86885 0.78877 0.44418
 H193 H 0.92186 0.75762 0.46952
 H194 H 0.92218 0.75748 0.53052
 H195 H 0.83742 0.83674 0.47444
 H196 H 0.83796 0.79315 0.61490
 H197 H 0.79461 0.83639 0.61507
 H198 H 0.75881 0.92126 0.53152
 H199 H 0.75871 0.92160 0.47052
 H200 H 0.83707 0.79375 0.38604
 H201 H 0.83759 0.83651 0.52662
 H202 H 0.79400 0.83725 0.38621
 C203 C 0.24967 0.11500 0.51695
 C204 C 0.24975 0.11484 0.48518
 C205 C 0.22390 0.13149 0.47584
 N206 N 0.20800 0.14165 0.50085
 C207 C 0.22377 0.13173 0.52603
 C208 C 0.21414 0.13487 0.44480
 C209 C 0.18920 0.15392 0.43549
 C210 C 0.17567 0.15346 0.40634
 C211 C 0.15316 0.17604 0.40624
 C212 C 0.15354 0.18968 0.43534
 N213 N 0.17582 0.17631 0.45287
 C214 C 0.13455 0.21473 0.44446
 C215 C 0.13099 0.22470 0.47542
 C216 C 0.11432 0.25064 0.48448
 C217 C 0.11419 0.25074 0.51624
 C218 C 0.13078 0.22487 0.52560
 N219 N 0.14088 0.20893 0.50060
 C220 C 0.13415 0.21512 0.55666
 C221 C 0.15316 0.19016 0.56599
 C222 C 0.15269 0.17667 0.59517
 C223 C 0.17522 0.15410 0.59526
 C224 C 0.18884 0.15442 0.56613
 N225 N 0.17551 0.17670 0.54860
 C226 C 0.21383 0.13534 0.55699
 H227 H 0.26650 0.10364 0.53167
 H228 H 0.26664 0.10335 0.47064
 H229 H 0.18335 0.18439 0.52720
 H230 H 0.18146 0.13848 0.38708
 H231 H 0.13827 0.18179 0.38690
 H232 H 0.10299 0.26748 0.46975
 H233 H 0.10275 0.26767 0.53077
 H234 H 0.18095 0.13922 0.61461
 H235 H 0.18356 0.18415 0.47424
 H236 H 0.13773 0.18251 0.61443
 C237 C 0.11480 0.74770 0.48362
 C238 C 0.11492 0.74772 0.51539
 C239 C 0.13159 0.77366 0.52450
 N240 N 0.14150 0.78951 0.49936
 C241 C 0.13141 0.77362 0.47432
 C242 C 0.13515 0.78357 0.55548
 C243 C 0.15409 0.80868 0.56462
 C244 C 0.15363 0.82231 0.59372
 C245 C 0.17608 0.84499 0.59364
 C246 C 0.18965 0.84459 0.56450
 N247 N 0.17634 0.82216 0.54710
 C248 C 0.21456 0.86375 0.55522
 C249 C 0.22439 0.86719 0.52420
 C250 C 0.25023 0.88394 0.51491
 C251 C 0.25022 0.88382 0.48314
 C252 C 0.22437 0.86700 0.47402
 N253 N 0.20856 0.85700 0.49916
 C254 C 0.21449 0.86338 0.44303
 C255 C 0.18951 0.84426 0.43388
 C256 C 0.17589 0.84460 0.40476
 C257 C 0.15335 0.82201 0.40484
 C258 C 0.15381 0.80847 0.43399
 N259 N 0.17616 0.82193 0.45139
 C260 C 0.13478 0.78347 0.44330
 H261 H 0.10335 0.73079 0.46905
 H262 H 0.10358 0.73083 0.53008
 H263 H 0.18398 0.81422 0.47278
 H264 H 0.13873 0.81649 0.61305
 H265 H 0.18181 0.86000 0.61290
 H266 H 0.26707 0.89549 0.52949
 H267 H 0.26706 0.89526 0.46846
 H268 H 0.13838 0.81617 0.38557
 H269 H 0.18414 0.81436 0.52573
 H270 H 0.18163 0.85952 0.38543
 C271 C 0.74867 0.11469 0.48355
 C272 C 0.74883 0.11469 0.51532
 C273 C 0.77474 0.13144 0.52437
 N274 N 0.79045 0.14150 0.49919
 C275 C 0.77450 0.13143 0.47419
 C276 C 0.78472 0.13502 0.55533
 C277 C 0.80969 0.15420 0.56439
 C278 C 0.82334 0.15398 0.59348
 C279 C 0.84581 0.17664 0.59332
 C280 C 0.84529 0.19008 0.56412
 N281 N 0.82297 0.17651 0.54678
 C282 C 0.86423 0.21512 0.55474
 C283 C 0.86773 0.22481 0.52367
 C284 C 0.88442 0.25066 0.51432
 C285 C 0.88444 0.25048 0.48255
 C286 C 0.86775 0.22454 0.47349
 N287 N 0.85770 0.20883 0.49867
 C288 C 0.86422 0.21455 0.44253
 C289 C 0.84505 0.18958 0.43346
 C290 C 0.84529 0.17594 0.40436
 C291 C 0.82265 0.15343 0.40452
 C292 C 0.80920 0.15392 0.43372
 N293 N 0.82274 0.17626 0.45106
 C294 C 0.78419 0.13493 0.44312
 H295 H 0.73173 0.10323 0.46902
 H296 H 0.73204 0.10324 0.53005
 H297 H 0.81507 0.18407 0.47246
 H298 H 0.81765 0.13911 0.61287
 H299 H 0.86077 0.18257 0.61256
 H300 H 0.89584 0.26762 0.52885
 H301 H 0.89587 0.26729 0.46782
 H302 H 0.81674 0.13847 0.38529
 H303 H 0.81513 0.18418 0.52539
 H304 H 0.86016 0.18165 0.38497
 C305 C 0.48314 0.90352 0.76885
 C306 C 0.51493 0.90364 0.76888
 C307 C 0.52420 0.87737 0.78490
 N308 N 0.49911 0.86113 0.79441
 C309 C 0.47396 0.87720 0.78488
 C310 C 0.55532 0.86801 0.78892
 C311 C 0.56450 0.84262 0.80744
 C312 C 0.59395 0.82974 0.80760
 C313 C 0.59391 0.80697 0.82996
 C314 C 0.56443 0.80659 0.84284
 N315 N 0.54677 0.82852 0.82912
 C316 C 0.55523 0.78772 0.86798
 C317 C 0.52416 0.78374 0.87760
 C318 C 0.51503 0.76760 0.90386
 C319 C 0.48325 0.76772 0.90409
 C320 C 0.47393 0.78392 0.87794
 N321 N 0.49899 0.79343 0.86167
 C322 C 0.44278 0.78809 0.86872
 C323 C 0.43356 0.80682 0.84350
 C324 C 0.40405 0.80718 0.83074
 C325 C 0.40409 0.82968 0.80811
 C326 C 0.43362 0.84246 0.80768
 N327 N 0.45132 0.82853 0.82947
 C328 C 0.44286 0.86766 0.78890
 H329 H 0.46848 0.92077 0.75807
 H330 H 0.52953 0.92098 0.75810
 H331 H 0.47298 0.83593 0.83681
 H332 H 0.61353 0.83626 0.79333
 H333 H 0.61346 0.79258 0.83624
 H334 H 0.52972 0.75668 0.92100
 H335 H 0.46868 0.75690 0.92142
 H336 H 0.38450 0.83612 0.79383
 H337 H 0.52518 0.83592 0.83666
 H338 H 0.38443 0.79293 0.83725
 C339 C 0.48287 0.11565 0.25124
 C340 C 0.51467 0.11549 0.25136
 C341 C 0.52408 0.13205 0.22547
 N342 N 0.49909 0.14214 0.20949
 C343 C 0.47385 0.13229 0.22527
 C344 C 0.55517 0.13540 0.21574
 C345 C 0.56457 0.15435 0.19074
 C346 C 0.59379 0.15386 0.17732
 C347 C 0.59397 0.17635 0.15471
 C348 C 0.56484 0.18996 0.15492
 N349 N 0.54721 0.17666 0.17718
 C350 C 0.55579 0.21492 0.13576
 C351 C 0.52480 0.22480 0.13198
 C352 C 0.51578 0.25060 0.11509
 C353 C 0.48398 0.25066 0.11486
 C354 C 0.47457 0.22489 0.13163
 N355 N 0.49957 0.20906 0.14192
 C356 C 0.44348 0.21515 0.13503
 C357 C 0.43409 0.19031 0.15420
 C358 C 0.40487 0.17683 0.15380
 C359 C 0.40470 0.15442 0.17649
 C360 C 0.43382 0.15481 0.19015
 N361 N 0.45143 0.17699 0.17666
 C362 C 0.44288 0.13588 0.21528
 H363 H 0.46810 0.10436 0.26809
 H364 H 0.52918 0.10406 0.26832
 H365 H 0.47284 0.18472 0.18446
 H366 H 0.61305 0.13893 0.18324
 H367 H 0.61338 0.18206 0.13986
 H368 H 0.53055 0.26739 0.10368
 H369 H 0.46947 0.26749 0.10325
 H370 H 0.38530 0.13959 0.18231
 H371 H 0.52579 0.18451 0.18480
 H372 H 0.38562 0.18259 0.13878
 C373 C 0.51522 0.23098 0.90417
 C374 C 0.48344 0.23107 0.90399
 C375 C 0.47430 0.21500 0.87770
 N376 N 0.49947 0.20537 0.86172
 C377 C 0.52453 0.21486 0.87798
 C378 C 0.44323 0.21103 0.86810
 C379 C 0.43405 0.19223 0.84294
 C380 C 0.40458 0.19188 0.83006
 C381 C 0.40456 0.16918 0.80765
 C382 C 0.43402 0.15631 0.80745
 N383 N 0.45173 0.17035 0.82917
 C384 C 0.44322 0.13098 0.78889
 C385 C 0.47434 0.12163 0.78484
 C386 C 0.48361 0.09538 0.76879
 C387 C 0.51540 0.09550 0.76875
 C388 C 0.52458 0.12180 0.78479
 N389 N 0.49943 0.13786 0.79435
 C390 C 0.55567 0.13134 0.78880
 C391 C 0.56489 0.15651 0.80760
 C392 C 0.59441 0.16932 0.80801
 C393 C 0.59442 0.19179 0.83066
 C394 C 0.56491 0.19209 0.84345
 N395 N 0.54718 0.17038 0.82941
 C396 C 0.55568 0.21075 0.86870
 H397 H 0.52979 0.24176 0.92151
 H398 H 0.46875 0.24193 0.92117
 H399 H 0.52553 0.16295 0.83676
 H400 H 0.38501 0.20623 0.83638
 H401 H 0.38499 0.16268 0.79336
 H402 H 0.46901 0.07806 0.75801
 H403 H 0.53006 0.07826 0.75794
 H404 H 0.61402 0.20604 0.83718
 H405 H 0.47332 0.16294 0.83668
 H406 H 0.61401 0.16292 0.79372
 C407 C 0.48410 0.76877 0.09548
 C408 C 0.51589 0.76889 0.09526
 C409 C 0.52524 0.78512 0.12137
 N410 N 0.50020 0.79466 0.13762
 C411 C 0.47500 0.78494 0.12172
 C412 C 0.55641 0.78928 0.13059
 C413 C 0.56569 0.80803 0.15577
 C414 C 0.59522 0.80839 0.16851
 C415 C 0.59525 0.83089 0.19113
 C416 C 0.56574 0.84367 0.19158
 N417 N 0.54800 0.82975 0.16981
 C418 C 0.55656 0.86883 0.21039
 C419 C 0.52547 0.87833 0.21444
 C420 C 0.51633 0.90460 0.23054
 C421 C 0.48455 0.90468 0.23056
 C422 C 0.47523 0.87845 0.21449
 N423 N 0.50030 0.86226 0.20491
 C424 C 0.44409 0.86905 0.21053
 C425 C 0.43483 0.84374 0.19194
 C426 C 0.40535 0.83085 0.19178
 C427 C 0.40532 0.80814 0.16939
 C428 C 0.43478 0.80778 0.15647
 N429 N 0.45250 0.82969 0.17020
 C430 C 0.44393 0.78890 0.13134
 H431 H 0.46939 0.75781 0.07837
 H432 H 0.53043 0.75803 0.07795
 H433 H 0.47411 0.83708 0.16268
 H434 H 0.61480 0.79414 0.16200
 H435 H 0.61486 0.83732 0.20539
 H436 H 0.53102 0.92184 0.24135
 H437 H 0.46998 0.92197 0.24140
 H438 H 0.38573 0.79376 0.16311
 H439 H 0.52633 0.83713 0.16250
 H440 H 0.38580 0.83734 0.20610
 C441 C 0.88384 0.51643 0.74910
 C442 C 0.88408 0.48465 0.74893
 C443 C 0.86757 0.47516 0.77483
 N444 N 0.85741 0.50009 0.79085
 C445 C 0.86719 0.52536 0.77510
 C446 C 0.86431 0.44406 0.78451
 C447 C 0.84543 0.43460 0.80955
 C448 C 0.84604 0.40539 0.82298
 C449 C 0.82361 0.40516 0.84565
 C450 C 0.80988 0.43422 0.84547
 N451 N 0.82308 0.45187 0.82316
 C452 C 0.78492 0.44319 0.86466
 C453 C 0.77487 0.47411 0.86839
 C454 C 0.74900 0.48302 0.88527
 C455 C 0.74876 0.51480 0.88545
 C456 C 0.77449 0.52432 0.86866
 N457 N 0.79047 0.49940 0.85841
 C458 C 0.78406 0.55544 0.86522
 C459 C 0.80892 0.56491 0.84609
 C460 C 0.82231 0.59415 0.84651
 C461 C 0.84478 0.59439 0.82388
 C462 C 0.84452 0.56528 0.81023
 N463 N 0.82235 0.54761 0.82367
 C464 C 0.86352 0.55629 0.78513
 H465 H 0.89508 0.53125 0.73226
 H466 H 0.89554 0.47020 0.73194
 H467 H 0.81470 0.52619 0.81585
 H468 H 0.86104 0.38620 0.81702
 H469 H 0.81799 0.38574 0.86052
 H470 H 0.73229 0.46818 0.89671
 H471 H 0.73184 0.52923 0.89703
 H472 H 0.85957 0.61383 0.81809
 H473 H 0.81514 0.47325 0.81555
 H474 H 0.81645 0.61337 0.86152
 C475 C 0.25109 0.51537 0.11577
 C476 C 0.25098 0.48359 0.11580
 C477 C 0.22505 0.47444 0.13249
 N478 N 0.20929 0.49957 0.14250
 C479 C 0.22522 0.52463 0.13245
 C480 C 0.21507 0.44345 0.13595
 C481 C 0.19002 0.43422 0.15494
 C482 C 0.17635 0.40510 0.15445
 C483 C 0.15376 0.40508 0.17698
 C484 C 0.15424 0.43418 0.19062
 N485 N 0.17665 0.45164 0.17729
 C486 C 0.13517 0.44338 0.21559
 C487 C 0.13181 0.47439 0.22548
 C488 C 0.11515 0.48362 0.25136
 C489 C 0.11534 0.51540 0.25141
 C490 C 0.13211 0.52459 0.22556
 N491 N 0.14201 0.49948 0.20969
 C492 C 0.13576 0.55561 0.21575
 C493 C 0.15480 0.56485 0.19076
 C494 C 0.15446 0.59403 0.17724
 C495 C 0.17700 0.59404 0.15467
 C496 C 0.19051 0.56489 0.15502
 N497 N 0.17709 0.54739 0.17733
 C498 C 0.21546 0.55566 0.13592
 H499 H 0.26801 0.52997 0.10434
 H500 H 0.26781 0.46892 0.10438
 H501 H 0.18480 0.52598 0.18508
 H502 H 0.18209 0.38583 0.13948
 H503 H 0.13875 0.38579 0.18269
 H504 H 0.10363 0.46900 0.26819
 H505 H 0.10399 0.53005 0.26830
 H506 H 0.18281 0.61337 0.13976
 H507 H 0.18450 0.47299 0.18510
 H508 H 0.13956 0.61334 0.18306
 C509 C 0.76852 0.48375 0.09518
 C510 C 0.76864 0.51552 0.09529
 C511 C 0.78471 0.52460 0.12161
 N512 N 0.79414 0.49942 0.13767
 C513 C 0.78452 0.47440 0.12143
 C514 C 0.78883 0.55565 0.13116
 C515 C 0.80756 0.56477 0.15640
 C516 C 0.80798 0.59423 0.16927
 C517 C 0.83057 0.59416 0.19180
 C518 C 0.84332 0.56466 0.19208
 N519 N 0.82931 0.54701 0.17030
 C520 C 0.86853 0.55536 0.21078
 C521 C 0.87779 0.52422 0.21480
 C522 C 0.90398 0.51486 0.23091
 C523 C 0.90379 0.48309 0.23088
 C524 C 0.87749 0.47401 0.21475
 N525 N 0.86152 0.49921 0.20520
 C526 C 0.86787 0.44297 0.21067
 C527 C 0.84265 0.43385 0.19188
 C528 C 0.82970 0.40441 0.19149
 C529 C 0.80722 0.40448 0.16885
 C530 C 0.80705 0.43397 0.15604
 N531 N 0.82885 0.45160 0.17007
 C532 C 0.78842 0.44326 0.13078
 H533 H 0.75768 0.46922 0.07785
 H534 H 0.75790 0.53023 0.07805
 H535 H 0.83639 0.47321 0.16270
 H536 H 0.79373 0.61384 0.16286
 H537 H 0.83707 0.61370 0.20612
 H538 H 0.92132 0.52939 0.24177
 H539 H 0.92096 0.46837 0.24171
 H540 H 0.79287 0.38495 0.16235
 H541 H 0.83666 0.52540 0.16283
 H542 H 0.83602 0.38480 0.20579
 C543 C 0.11484 0.48302 0.74954
 C544 C 0.11465 0.51479 0.74958
 C545 C 0.13112 0.52407 0.77557
 N546 N 0.14119 0.49900 0.79144
 C547 C 0.13141 0.47387 0.77551
 C548 C 0.13440 0.55509 0.78545
 C549 C 0.15330 0.56437 0.81054
 C550 C 0.15276 0.59350 0.82411
 C551 C 0.17520 0.59355 0.84678
 C552 C 0.18883 0.56445 0.84645
 N553 N 0.17559 0.54696 0.82406
 C554 C 0.21376 0.55529 0.86561
 C555 C 0.22369 0.52431 0.86919
 C556 C 0.24952 0.51521 0.88602
 C557 C 0.24964 0.48344 0.88604
 C558 C 0.22389 0.47410 0.86921
 N559 N 0.20800 0.49913 0.85909
 C560 C 0.21421 0.44303 0.86562
 C561 C 0.18938 0.43372 0.84639
 C562 C 0.17595 0.40450 0.84660
 C563 C 0.15354 0.40446 0.82391
 C564 C 0.15390 0.43365 0.81043
 N565 N 0.17605 0.45119 0.82403
 C566 C 0.13499 0.44285 0.78534
 H567 H 0.10361 0.46834 0.73257
 H568 H 0.10327 0.52938 0.73265
 H569 H 0.18376 0.47265 0.81636
 H570 H 0.13782 0.61277 0.81824
 H571 H 0.18087 0.61287 0.86173
 H572 H 0.26628 0.52993 0.89752
 H573 H 0.26651 0.46888 0.89755
 H574 H 0.13874 0.38508 0.81796
 H575 H 0.18347 0.52559 0.81635
 H576 H 0.18172 0.38518 0.86151
 C577 C 0.27327 0.36575 0.06234
 C578 C 0.25940 0.38176 0.08050
 C579 C 0.24354 0.40185 0.10079
 C580 C 0.23039 0.42016 0.11726
 C581 C 0.72752 0.63448 0.06147
 C582 C 0.74194 0.61835 0.07909
 C583 C 0.75857 0.59801 0.09850
 C584 C 0.77249 0.57939 0.11396
 C585 C 0.72687 0.36463 0.93768
 C586 C 0.74080 0.38077 0.91964
 C587 C 0.75663 0.40111 0.89952
 C588 C 0.76971 0.41965 0.88320
 C589 C 0.27224 0.63340 0.93876
 C590 C 0.25824 0.61727 0.92076
 C591 C 0.24229 0.59706 0.90061
 C592 C 0.22909 0.57867 0.88424
 C593 C 0.06155 0.27301 0.36619
 C594 C 0.07956 0.25913 0.38237
 C595 C 0.09969 0.24327 0.40264
 C596 C 0.11601 0.23009 0.42107
 C597 C 0.06230 0.72522 0.63401
 C598 C 0.08032 0.73908 0.61777
 C599 C 0.10039 0.75492 0.59739
 C600 C 0.11666 0.76811 0.57889
 C601 C 0.93799 0.72711 0.36512
 C602 C 0.92049 0.74162 0.38131
 C603 C 0.90125 0.75834 0.40174
 C604 C 0.88592 0.77233 0.42041
 C605 C 0.93708 0.27412 0.63276
 C606 C 0.91912 0.26014 0.61658
 C607 C 0.89906 0.24411 0.59633
 C608 C 0.88278 0.23075 0.57798
 C609 C 0.36461 0.06294 0.27390
 C610 C 0.38071 0.08100 0.25992
 C611 C 0.40095 0.10113 0.24395
 C612 C 0.41941 0.11742 0.23071
 C613 C 0.63465 0.06193 0.72726
 C614 C 0.61839 0.07947 0.74164
 C615 C 0.59798 0.09879 0.75831
 C616 C 0.57936 0.11418 0.77232
 C617 C 0.36400 0.93706 0.72721
 C618 C 0.38019 0.91952 0.74168
 C619 C 0.40057 0.90021 0.75840
 C620 C 0.41918 0.88482 0.77242
 C621 C 0.63522 0.93812 0.27264
 C622 C 0.61913 0.92060 0.25799
 C623 C 0.59883 0.90132 0.24109
 C624 C 0.58026 0.88595 0.22696
 C625 C 0.36443 0.27297 0.93730
 C626 C 0.38057 0.25844 0.91978
 C627 C 0.40093 0.24166 0.90051
 C628 C 0.41954 0.22759 0.88518
 C629 C 0.63448 0.72609 0.93697
 C630 C 0.61815 0.74047 0.91950
 C631 C 0.59763 0.75714 0.90031
 C632 C 0.57895 0.77117 0.88502
 C633 C 0.36463 0.72661 0.06278
 C634 C 0.38096 0.74121 0.08011
 C635 C 0.40149 0.75809 0.09917
 C636 C 0.42018 0.77224 0.11437
 C637 C 0.63465 0.27321 0.06321
 C638 C 0.61837 0.25930 0.08114
 C639 C 0.59791 0.24344 0.10113
 C640 C 0.57932 0.23029 0.11733
 C641 C 0.27225 0.06202 0.63483
 C642 C 0.25829 0.08012 0.61883
 C643 C 0.24236 0.10036 0.59872
 C644 C 0.22917 0.11675 0.58037
 C645 C 0.72518 0.06170 0.36545
 C646 C 0.73917 0.07977 0.38152
 C647 C 0.75523 0.09994 0.40163
 C648 C 0.76859 0.11632 0.41990
 C649 C 0.72785 0.93757 0.63554
 C650 C 0.74238 0.91999 0.61946
 C651 C 0.75917 0.90064 0.59918
 C652 C 0.77323 0.88524 0.58061
 C653 C 0.27295 0.93683 0.36516
 C654 C 0.25898 0.91868 0.38116
 C655 C 0.24306 0.89842 0.40130
 C656 C 0.22986 0.88200 0.41966
 C657 C 0.06223 0.36514 0.72588
 C658 C 0.08023 0.38108 0.74010
 C659 C 0.10031 0.40115 0.75632
 C660 C 0.11657 0.41948 0.76974
 C661 C 0.06278 0.63380 0.27414
 C662 C 0.08081 0.61762 0.26027
 C663 C 0.10092 0.59736 0.24440
 C664 C 0.11723 0.57895 0.23119
 C665 C 0.93712 0.36413 0.27250
 C666 C 0.91960 0.38025 0.25794
 C667 C 0.90031 0.40060 0.24117
 C668 C 0.88496 0.41923 0.22714
 C669 C 0.93642 0.63455 0.72653
 C670 C 0.91836 0.61852 0.74058
 C671 C 0.89823 0.59829 0.75655
 C672 C 0.88196 0.57981 0.76976
 C673 C 0.72540 0.63366 0.93825
 C674 C 0.73931 0.61735 0.92033
 C675 C 0.75523 0.59700 0.90026
 C676 C 0.76850 0.57863 0.88392
 C677 C 0.27321 0.36509 0.93864
 C678 C 0.25907 0.38117 0.92069
 C679 C 0.24299 0.40137 0.90060
 C680 C 0.22969 0.41972 0.88425
 C681 C 0.27381 0.63382 0.06246
 C682 C 0.25993 0.61763 0.08054
 C683 C 0.24407 0.59737 0.10078
 C684 C 0.23088 0.57898 0.11721
 C685 C 0.72671 0.36458 0.06093
 C686 C 0.74120 0.38079 0.07849
 C687 C 0.75792 0.40113 0.09790
 C688 C 0.77194 0.41967 0.11342
 C689 C 0.93909 0.72630 0.63500
 C690 C 0.92159 0.74094 0.61888
 C691 C 0.90223 0.75782 0.59861
 C692 C 0.88675 0.77193 0.58012
 C693 C 0.93777 0.27307 0.36461
 C694 C 0.91966 0.25899 0.38060
 C695 C 0.89939 0.24302 0.40075
 C696 C 0.88293 0.22984 0.41912
 C697 C 0.06072 0.27421 0.63413
 C698 C 0.07877 0.26007 0.61817
 C699 C 0.09900 0.24396 0.59812
 C700 C 0.11544 0.23063 0.57988
 C701 C 0.06128 0.72498 0.36539
 C702 C 0.07935 0.73891 0.38153
 C703 C 0.09959 0.75482 0.40172
 C704 C 0.11604 0.76803 0.42005
 C705 C 0.63475 0.93787 0.72801
 C706 C 0.61839 0.92035 0.74239
 C707 C 0.59780 0.90097 0.75889
 C708 C 0.57907 0.88544 0.77269
 C709 C 0.36514 0.93854 0.27227
 C710 C 0.38140 0.92111 0.25770
 C711 C 0.40183 0.90182 0.24096
 C712 C 0.42043 0.88637 0.22696
 C713 C 0.63351 0.06247 0.27435
 C714 C 0.61718 0.08038 0.26046
 C715 C 0.59681 0.10043 0.24456
 C716 C 0.57841 0.11676 0.23130
 C717 C 0.36412 0.06111 0.72776
 C718 C 0.38036 0.07866 0.74220
 C719 C 0.40084 0.09805 0.75877
 C720 C 0.41951 0.11358 0.77261
 C721 C 0.63517 0.72752 0.06091
 C722 C 0.61901 0.74212 0.07840
 C723 C 0.59864 0.75888 0.09775
 C724 C 0.58006 0.77287 0.11324
 C725 C 0.36543 0.27365 0.06168
 C726 C 0.38163 0.25968 0.07965
 C727 C 0.40189 0.24376 0.09981
 C728 C 0.42025 0.23056 0.11625
 C729 C 0.63450 0.27204 0.93876
 C730 C 0.61829 0.25761 0.92117
 C731 C 0.59792 0.24098 0.90169
 C732 C 0.57935 0.22708 0.88611
 C733 C 0.36400 0.72671 0.93886
 C734 C 0.38014 0.74120 0.92122
 C735 C 0.40049 0.75785 0.90172
 C736 C 0.41908 0.77176 0.88614
 C737 C 0.72789 0.93850 0.36573
 C738 C 0.74243 0.92100 0.38194
 C739 C 0.75914 0.90165 0.40234
 C740 C 0.77311 0.88615 0.42092
 C741 C 0.27254 0.93703 0.63367
 C742 C 0.25873 0.91906 0.61734
 C743 C 0.24299 0.89891 0.59695
 C744 C 0.22990 0.88250 0.57851
 C745 C 0.27276 0.06177 0.36666
 C746 C 0.25879 0.07968 0.38292
 C747 C 0.24284 0.09978 0.40320
 C748 C 0.22960 0.11616 0.42155
 C749 C 0.72673 0.06207 0.63422
 C750 C 0.74058 0.08000 0.61785
 C751 C 0.75635 0.10007 0.59736
 C752 C 0.76943 0.11640 0.57880
 C753 C 0.93828 0.63421 0.27242
 C754 C 0.92076 0.61799 0.25790
 C755 C 0.90140 0.59758 0.24119
 C756 C 0.88590 0.57899 0.22722
 C757 C 0.93738 0.36627 0.72534
 C758 C 0.91945 0.38243 0.73940
 C759 C 0.89935 0.40263 0.75549
 C760 C 0.88299 0.42091 0.76886
 C761 C 0.06135 0.63305 0.72648
 C762 C 0.07927 0.61687 0.74053
 C763 C 0.09938 0.59667 0.75660
 C764 C 0.11575 0.57835 0.76993
 C765 C 0.06166 0.36513 0.27383
 C766 C 0.07971 0.38134 0.25992
 C767 C 0.09993 0.40164 0.24408
 C768 C 0.11639 0.42005 0.23093
   
