data_POSCAR
  _audit_creation_date              2014-09-24
  _audit_creation_method            'ToBaCCo'
  _symmetry_space_group_name_H-M    'P1'
  _symmetry_Int_Tables_number       1
  _symmetry_cell_setting            triclinic
  loop_
  _symmetry_equiv_pos_as_xyz
 x,y,z
_cell_length_a 37.0793
_cell_length_b 37.4925
_cell_length_c 37.1274
_cell_angle_alpha 89.991400
_cell_angle_beta 89.373000
_cell_angle_gamma 90.010700
loop_
  _atom_site_label
  _atom_site_type_symbol
  _atom_site_fract_x
  _atom_site_fract_y
  _atom_site_fract_z
N1 N 0.25641 0.28009 0.26043
 N2 N 0.69830 -0.27459 0.28824
 N3 N 0.79264 0.22169 0.78782
 N4 N 0.29035 -0.27658 0.70226
 N5 N 0.79263 -0.22180 0.78793
 N6 N 0.29038 0.27676 0.70214
 N7 N 0.25636 -0.27997 0.26056
 N8 N 0.69832 0.27439 0.28812
 O9 O 0.27803 0.03487 0.44287
 O10 O 0.28431 -0.03468 0.51246
 O11 O 0.27802 -0.03473 0.44289
 O12 O 0.28432 0.03484 0.51244
 O13 O 0.22492 0.03491 0.51848
 O14 O 0.21861 -0.03480 0.44880
 O15 O 0.22491 -0.03475 0.51850
 O16 O 0.21862 0.03494 0.44878
 Cu17 Cu 0.28715 0.00007 0.47704
 Cu18 Cu 0.21575 0.00007 0.48423
 C19 C 0.24732 0.04684 0.43426
 C20 C 0.25569 -0.04660 0.52709
 C21 C 0.24731 -0.04670 0.43428
 C22 C 0.25570 0.04676 0.52707
 O23 O 0.78252 0.03451 0.54049
 O24 O 0.77090 -0.03497 0.47141
 O25 O 0.77090 0.03480 0.47139
 O26 O 0.78252 -0.03466 0.54051
 O27 O 0.72368 -0.03465 0.55100
 O28 O 0.71209 0.03477 0.48191
 O29 O 0.71209 -0.03495 0.48193
 O30 O 0.72368 0.03449 0.55098
 Cu31 Cu 0.78262 -0.00008 0.50473
 Cu32 Cu 0.71192 -0.00009 0.51736
 C33 C 0.75509 0.04600 0.55761
 C34 C 0.73955 -0.04686 0.46520
 C35 C 0.73955 0.04668 0.46517
 C36 C 0.75509 -0.04615 0.55763
 O37 O 0.45907 0.28457 0.02402
 O38 O 0.53727 0.27913 -0.03776
 O39 O 0.46756 0.28229 -0.04586
 O40 O 0.52841 0.28129 0.03177
 O41 O 0.52542 0.22239 0.03347
 O42 O 0.46448 0.22341 -0.04432
 O43 O 0.53425 0.22024 -0.03614
 O44 O 0.45603 0.22568 0.02564
 Cu45 Cu 0.49831 0.28776 -0.00723
 Cu46 Cu 0.49467 0.21698 -0.00529
 C47 C 0.44463 0.25606 0.03559
 C48 C 0.54910 0.24875 -0.04719
 C49 C 0.45579 0.25305 -0.05824
 C50 C 0.53708 0.25171 0.04583
 O51 O 0.52543 0.77758 0.03359
 O52 O 0.46449 0.77664 -0.04420
 O53 O 0.45603 0.77435 0.02576
 O54 O 0.53426 0.77974 -0.03601
 O55 O 0.53721 0.72085 -0.03763
 O56 O 0.45900 0.71546 0.02414
 O57 O 0.46749 0.71775 -0.04574
 O58 O 0.52834 0.71868 0.03190
 Cu59 Cu 0.49469 0.78303 -0.00517
 Cu60 Cu 0.49824 0.71225 -0.00711
 C61 C 0.53705 0.74825 0.04595
 C62 C 0.45576 0.74701 -0.05812
 C63 C 0.44459 0.74398 0.03572
 C64 C 0.54908 0.75122 -0.04706
 O65 O 0.01178 0.46535 0.28145
 O66 O -0.05841 0.53459 0.28652
 O67 O -0.05840 0.46531 0.28649
 O68 O 0.01177 0.53460 0.28147
 O69 O 0.00826 0.53469 0.22205
 O70 O -0.06205 0.46528 0.22707
 O71 O -0.06206 0.53468 0.22710
 O72 O 0.00827 0.46532 0.22202
 Cu73 Cu -0.02295 0.49996 0.28997
 Cu74 Cu -0.02727 0.49999 0.21855
 C75 C 0.02204 0.45379 0.25091
 C76 C -0.07223 0.54619 0.25770
 C77 C -0.07221 0.45373 0.25766
 C78 C 0.02202 0.54620 0.25095
 O79 O 0.05190 0.53456 0.76967
 O80 O -0.01774 0.46507 0.77943
 O81 O 0.05190 0.46545 0.76964
 O82 O -0.01774 0.53489 0.77946
 O83 O -0.02549 0.53494 0.72049
 O84 O 0.04418 0.46547 0.71065
 O85 O -0.02548 0.46509 0.72046
 O86 O 0.04418 0.53460 0.71068
 Cu87 Cu 0.01767 0.49999 0.78053
 Cu88 Cu 0.00838 0.50003 0.70964
 C89 C 0.06002 0.54608 0.73849
 C90 C -0.03311 0.45311 0.75158
 C91 C 0.06002 0.45396 0.73845
 C92 C -0.03312 0.54688 0.75161
 C93 C 0.27626 0.27601 0.22882
 C94 C 0.29420 0.27264 0.20175
 C95 C 0.31673 0.26887 0.17017
 C96 C 0.32460 0.29865 0.14868
 C97 C 0.34871 0.29558 0.11961
 C98 C 0.36504 0.26271 0.11191
 C99 C 0.35663 0.23277 0.13299
 C100 C 0.33252 0.23585 0.16206
 C101 C 0.39206 0.26019 0.08391
 C102 C 0.41559 0.25823 0.06133
 H103 H 0.31270 0.32435 0.15484
 H104 H 0.35520 0.31894 0.10363
 H105 H 0.36928 0.20728 0.12742
 H106 H 0.32679 0.21270 0.17863
 C107 C 0.67950 0.73137 0.25671
 C108 C 0.66289 0.73600 0.22935
 C109 C 0.64267 0.74063 0.19683
 C110 C 0.65419 0.72408 0.16489
 C111 C 0.63355 0.72698 0.13372
 C112 C 0.60130 0.74644 0.13437
 C113 C 0.59001 0.76338 0.16619
 C114 C 0.61065 0.76048 0.19736
 C115 C 0.57909 0.74782 0.10285
 C116 C 0.56010 0.74835 0.07671
 H117 H 0.67883 0.70854 0.16422
 H118 H 0.64246 0.71366 0.10930
 H119 H 0.56504 0.77837 0.16702
 H120 H 0.60142 0.77326 0.22195
 C121 C 0.76100 0.22695 -0.19264
 C122 C 0.73354 0.23109 -0.17542
 C123 C 0.70091 0.23544 -0.15454
 C124 C 0.69948 0.26036 -0.12645
 C125 C 0.66819 0.26366 -0.10533
 C126 C 0.63821 0.24204 -0.11221
 C127 C 0.63954 0.21733 -0.14049
 C128 C 0.67083 0.21403 -0.16162
 C129 C 0.60647 0.24463 -0.08970
 C130 C 0.58013 0.24658 -0.07049
 H131 H 0.72262 0.27698 -0.12069
 H132 H 0.66748 0.28280 -0.08347
 H133 H 0.61655 0.20042 -0.14599
 H134 H 0.67169 0.19460 -0.18321
 C135 C 0.30973 0.72891 -0.26649
 C136 C 0.32688 0.73322 -0.23941
 C137 C 0.34776 0.73766 -0.20728
 C138 C 0.33820 0.71914 -0.17582
 C139 C 0.35944 0.72214 -0.14506
 C140 C 0.39032 0.74368 -0.14564
 C141 C 0.39966 0.76252 -0.17698
 C142 C 0.37843 0.75951 -0.20774
 C143 C 0.41305 0.74549 -0.11452
 C144 C 0.43240 0.74647 -0.08865
 H145 H 0.31462 0.70207 -0.17521
 H146 H 0.35203 0.70737 -0.12101
 H147 H 0.42356 0.77915 -0.17776
 H148 H 0.38614 0.77385 -0.23197
 C149 C 0.22461 0.29902 0.25618
 C150 C 0.19723 0.31604 0.25303
 C151 C 0.16503 0.33722 0.25013
 C152 C 0.13662 0.33254 0.27487
 C153 C 0.10642 0.35485 0.27369
 C154 C 0.10452 0.38192 0.24775
 C155 C 0.13265 0.38620 0.22262
 C156 C 0.16285 0.36389 0.22380
 C157 C 0.07471 0.40650 0.24817
 C158 C 0.05032 0.42774 0.24912
 H159 H 0.13812 0.31214 0.29546
 H160 H 0.08491 0.35144 0.29337
 H161 H 0.13155 0.40717 0.20258
 H162 H 0.18476 0.36787 0.20467
 C163 C 0.25940 0.70329 0.70778
 C164 C 0.23272 0.68539 0.71241
 C165 C 0.20129 0.66341 0.71772
 C166 C 0.19577 0.64573 0.75057
 C167 C 0.16610 0.62308 0.75518
 C168 C 0.14184 0.61801 0.72697
 C169 C 0.14713 0.63601 0.69426
 C170 C 0.17679 0.65867 0.68965
 C171 C 0.11235 0.59334 0.73115
 C172 C 0.08816 0.57208 0.73454
 H173 H 0.21461 0.64911 0.77241
 H174 H 0.16235 0.60918 0.78054
 H175 H 0.12861 0.63218 0.67222
 H176 H 0.18088 0.67213 0.66409
 C177 C -0.27094 0.70494 0.28299
 C178 C -0.24441 0.68678 0.27858
 C179 C -0.21317 0.66450 0.27357
 C180 C -0.18617 0.66384 0.29968
 C181 C -0.15662 0.64095 0.29562
 C182 C -0.15395 0.61864 0.26543
 C183 C -0.18072 0.61962 0.23911
 C184 C -0.21027 0.64251 0.24317
 C185 C -0.12455 0.59375 0.26219
 C186 C -0.10039 0.57234 0.25990
 H187 H -0.18820 0.68065 0.32335
 H188 H -0.13615 0.64030 0.31620
 H189 H -0.17900 0.60237 0.21574
 H190 H -0.23105 0.64272 0.22288
 C191 C -0.18795 0.25284 0.78202
 C192 C -0.17063 0.27970 0.77721
 C193 C -0.14925 0.31132 0.77180
 C194 C -0.13055 0.31648 0.73922
 C195 C -0.10829 0.34629 0.73462
 C196 C -0.10465 0.37108 0.76258
 C197 C -0.12371 0.36617 0.79500
 C198 C -0.14597 0.33635 0.79960
 C199 C -0.08020 0.40068 0.75854
 C200 C -0.05907 0.42494 0.75530
 H201 H -0.13278 0.29722 0.71760
 H202 H -0.09356 0.34975 0.70950
 H203 H -0.12097 0.38509 0.81686
 H204 H -0.16020 0.33256 0.82495
 C205 C 0.25214 0.24862 0.27965
 C206 C 0.24896 0.22146 0.29681
 C207 C 0.24601 0.18946 0.31805
 C208 C 0.26991 0.16109 0.31194
 C209 C 0.26870 0.13098 0.33417
 C210 C 0.24360 0.12912 0.36259
 C211 C 0.21929 0.15722 0.36830
 C212 C 0.22050 0.18733 0.34608
 C213 C 0.24411 0.09936 0.38706
 C214 C 0.24522 0.07502 0.40825
 H215 H 0.28987 0.16255 0.29046
 H216 H 0.28776 0.10950 0.32963
 H217 H 0.19991 0.15614 0.39033
 H218 H 0.20202 0.20919 0.35115
 C219 C 0.78756 0.20195 0.75669
 C220 C 0.78316 0.18436 0.72989
 C221 C 0.77792 0.16271 0.69839
 C222 C 0.80732 0.15403 0.67603
 C223 C 0.80251 0.13158 0.64637
 C224 C 0.76828 0.11774 0.63896
 C225 C 0.73881 0.12677 0.66107
 C226 C 0.74362 0.14921 0.69072
 C227 C 0.76363 0.09317 0.60959
 C228 C 0.75974 0.07197 0.58553
 H229 H 0.83399 0.16422 0.68178
 H230 H 0.82551 0.12465 0.62954
 H231 H 0.71225 0.11610 0.65567
 H232 H 0.72073 0.15565 0.70790
 C233 C 0.28428 -0.24554 0.68292
 C234 C 0.27923 -0.21881 0.66561
 C235 C 0.27357 -0.18737 0.64418
 C236 C 0.24272 -0.18446 0.62293
 C237 C 0.23817 -0.15484 0.60053
 C238 C 0.26446 -0.12800 0.59930
 C239 C 0.29507 -0.13066 0.62094
 C240 C 0.29961 -0.16029 0.64334
 C241 C 0.26085 -0.09864 0.57463
 C242 C 0.25826 -0.07457 0.55329
 H243 H 0.22249 -0.20532 0.62326
 H244 H 0.21449 -0.15313 0.58378
 H245 H 0.31565 -0.11015 0.62007
 H246 H 0.32365 -0.16235 0.65955
 C247 C 0.70449 -0.24382 0.30795
 C248 C 0.70973 -0.21735 0.32560
 C249 C 0.71577 -0.18627 0.34746
 C250 C 0.74893 -0.18157 0.36456
 C251 C 0.75421 -0.15234 0.38729
 C252 C 0.72635 -0.12767 0.39302
 C253 C 0.69334 -0.13212 0.37557
 C254 C 0.68806 -0.16137 0.35283
 C255 C 0.73119 -0.09861 0.41782
 C256 C 0.73508 -0.07472 0.43916
 H257 H 0.77049 -0.20075 0.36071
 H258 H 0.77980 -0.14922 0.40075
 H259 H 0.67157 -0.11329 0.37991
 H260 H 0.66226 -0.16482 0.33985
 C261 C 0.76099 0.77295 -0.19252
 C262 C 0.73353 0.76880 -0.17530
 C263 C 0.70091 0.76445 -0.15441
 C264 C 0.67072 0.78563 -0.16171
 C265 C 0.63943 0.78235 -0.14058
 C266 C 0.63820 0.75787 -0.11208
 C267 C 0.66829 0.73648 -0.10498
 C268 C 0.69958 0.73976 -0.12610
 C269 C 0.60646 0.75531 -0.08957
 C270 C 0.58011 0.75337 -0.07036
 H271 H 0.67150 0.80488 -0.18347
 H272 H 0.61636 0.79908 -0.14626
 H273 H 0.66766 0.71752 -0.08295
 H274 H 0.72280 0.72333 -0.12017
 C275 C 0.30976 0.27128 -0.26660
 C276 C 0.32691 0.26696 -0.23952
 C277 C 0.34779 0.26251 -0.20739
 C278 C 0.33835 0.28118 -0.17598
 C279 C 0.35958 0.27815 -0.14523
 C280 C 0.39035 0.25646 -0.14575
 C281 C 0.39956 0.23748 -0.17703
 C282 C 0.37833 0.24050 -0.20779
 C283 C 0.41308 0.25462 -0.11463
 C284 C 0.43242 0.25362 -0.08877
 H285 H 0.31486 0.29837 -0.17542
 H286 H 0.35227 0.29304 -0.12123
 H287 H 0.42336 0.22072 -0.17777
 H288 H 0.38594 0.22605 -0.23197
 C289 C 0.27621 0.72410 0.22895
 C290 C 0.29416 0.72747 0.20188
 C291 C 0.31669 0.73124 0.17031
 C292 C 0.32448 0.70148 0.14877
 C293 C 0.34860 0.70454 0.11970
 C294 C 0.36500 0.73738 0.11204
 C295 C 0.35667 0.76731 0.13315
 C296 C 0.33256 0.76424 0.16222
 C297 C 0.39202 0.73989 0.08403
 C298 C 0.41555 0.74183 0.06145
 H299 H 0.31252 0.67579 0.15491
 H300 H 0.35502 0.68118 0.10370
 H301 H 0.36938 0.79278 0.12761
 H302 H 0.32689 0.78738 0.17882
 C303 C 0.67953 0.26843 0.25660
 C304 C 0.66292 0.26381 0.22924
 C305 C 0.64270 0.25920 0.19671
 C306 C 0.61065 0.23939 0.19724
 C307 C 0.59000 0.23651 0.16607
 C308 C 0.60133 0.25343 0.13424
 C309 C 0.63362 0.27285 0.13359
 C310 C 0.65426 0.27573 0.16476
 C311 C 0.57912 0.25208 0.10273
 C312 C 0.56013 0.25158 0.07659
 H313 H 0.60139 0.22663 0.22184
 H314 H 0.56501 0.22155 0.16691
 H315 H 0.64255 0.28615 0.10917
 H316 H 0.67892 0.29123 0.16409
 C317 C -0.18797 0.74706 0.78213
 C318 C -0.17065 0.72021 0.77733
 C319 C -0.14928 0.68859 0.77192
 C320 C -0.14581 0.66367 0.79980
 C321 C -0.12355 0.63386 0.79519
 C322 C -0.10467 0.62885 0.76268
 C323 C -0.10851 0.65353 0.73464
 C324 C -0.13077 0.68334 0.73925
 C325 C -0.08022 0.59927 0.75862
 C326 C -0.05908 0.57503 0.75536
 H327 H -0.15990 0.66754 0.82522
 H328 H -0.12066 0.61502 0.81710
 H329 H -0.09392 0.65000 0.70945
 H330 H -0.13314 0.70251 0.71757
 C331 C -0.27091 0.29486 0.28288
 C332 C -0.24438 0.31304 0.27847
 C333 C -0.21313 0.33533 0.27347
 C334 C -0.18613 0.33597 0.29956
 C335 C -0.15658 0.35888 0.29551
 C336 C -0.15392 0.38123 0.26535
 C337 C -0.18071 0.38028 0.23904
 C338 C -0.21025 0.35737 0.24309
 C339 C -0.12453 0.40614 0.26212
 C340 C -0.10037 0.42756 0.25984
 H341 H -0.18815 0.31913 0.32322
 H342 H -0.13610 0.35951 0.31609
 H343 H -0.17900 0.39755 0.21569
 H344 H -0.23105 0.35717 0.22281
 C345 C 0.25943 0.29688 0.70766
 C346 C 0.23274 0.31477 0.71230
 C347 C 0.20131 0.33672 0.71761
 C348 C 0.19570 0.35426 0.75051
 C349 C 0.16604 0.37690 0.75513
 C350 C 0.14185 0.38209 0.72688
 C351 C 0.14722 0.36422 0.69411
 C352 C 0.17689 0.34158 0.68948
 C353 C 0.11236 0.40674 0.73107
 C354 C 0.08816 0.42798 0.73448
 H355 H 0.21448 0.35079 0.77239
 H356 H 0.16221 0.39069 0.78054
 H357 H 0.12877 0.36815 0.67204
 H358 H 0.18104 0.32823 0.66389
 C359 C 0.22456 0.70108 0.25631
 C360 C 0.19718 0.68405 0.25316
 C361 C 0.16499 0.66286 0.25025
 C362 C 0.13660 0.66745 0.27504
 C363 C 0.10641 0.64513 0.27384
 C364 C 0.10448 0.61813 0.24785
 C365 C 0.13258 0.61394 0.22266
 C366 C 0.16277 0.63626 0.22386
 C367 C 0.07468 0.59353 0.24824
 C368 C 0.05030 0.57227 0.24917
 H369 H 0.13813 0.68781 0.29568
 H370 H 0.08493 0.64848 0.29356
 H371 H 0.13146 0.59302 0.20257
 H372 H 0.18466 0.63235 0.20469
 C373 C 0.78755 -0.20206 0.75680
 C374 C 0.78315 -0.18447 0.72999
 C375 C 0.77791 -0.16282 0.69847
 C376 C 0.80730 -0.15417 0.67608
 C377 C 0.80248 -0.13173 0.64642
 C378 C 0.76826 -0.11786 0.63903
 C379 C 0.73880 -0.12686 0.66117
 C380 C 0.74361 -0.14929 0.69083
 C381 C 0.76362 -0.09330 0.60965
 C382 C 0.75973 -0.07211 0.58558
 H383 H 0.83396 -0.16438 0.68182
 H384 H 0.82548 -0.12482 0.62956
 H385 H 0.71225 -0.11617 0.65579
 H386 H 0.72073 -0.15571 0.70804
 C387 C 0.25209 -0.24850 0.27976
 C388 C 0.24890 -0.22134 0.29692
 C389 C 0.24597 -0.18934 0.31813
 C390 C 0.22047 -0.18723 0.34619
 C391 C 0.21927 -0.15711 0.36840
 C392 C 0.24356 -0.12899 0.36265
 C393 C 0.26864 -0.13084 0.33421
 C394 C 0.26984 -0.16096 0.31200
 C395 C 0.24408 -0.09923 0.38712
 C396 C 0.24519 -0.07489 0.40829
 H397 H 0.20201 -0.20910 0.35129
 H398 H 0.19991 -0.15605 0.39044
 H399 H 0.28768 -0.10934 0.32965
 H400 H 0.28978 -0.16239 0.29050
 C401 C 0.70451 0.24361 0.30784
 C402 C 0.70975 0.21714 0.32549
 C403 C 0.71579 0.18606 0.34736
 C404 C 0.68805 0.16118 0.35278
 C405 C 0.69332 0.13194 0.37553
 C406 C 0.72636 0.12747 0.39294
 C407 C 0.75424 0.15211 0.38716
 C408 C 0.74896 0.18134 0.36442
 C409 C 0.73119 0.09842 0.41777
 C410 C 0.73508 0.07454 0.43912
 H411 H 0.66224 0.16465 0.33984
 H412 H 0.67154 0.11312 0.37992
 H413 H 0.77984 0.14898 0.40059
 H414 H 0.77054 0.20050 0.36052
 C415 C 0.28431 0.24573 0.68281
 C416 C 0.27926 0.21899 0.66551
 C417 C 0.27360 0.18755 0.64409
 C418 C 0.24273 0.18461 0.62287
 C419 C 0.23819 0.15498 0.60049
 C420 C 0.26449 0.12817 0.59924
 C421 C 0.29512 0.13087 0.62084
 C422 C 0.29967 0.16050 0.64323
 C423 C 0.26088 0.09881 0.57458
 C424 C 0.25828 0.07474 0.55325
 H425 H 0.22248 0.20544 0.62322
 H426 H 0.21448 0.15325 0.58376
 H427 H 0.31571 0.11038 0.61996
 H428 H 0.32371 0.16258 0.65942
   
