data_POSCAR
  _audit_creation_date              2014-09-24
  _audit_creation_method            'ToBaCCo'
  _symmetry_space_group_name_H-M    'P1'
  _symmetry_Int_Tables_number       1
  _symmetry_cell_setting            triclinic
  loop_
  _symmetry_equiv_pos_as_xyz
 x,y,z
_cell_length_a 43.2603
_cell_length_b 43.2507
_cell_length_c 43.3206
_cell_angle_alpha 90.045500
_cell_angle_beta 90.003600
_cell_angle_gamma 90.032700
loop_
  _atom_site_label
  _atom_site_type_symbol
  _atom_site_fract_x
  _atom_site_fract_y
  _atom_site_fract_z
C1 C 0.18502 0.21379 0.22872
 N2 N 0.18978 0.23307 0.20445
 C3 C 0.21388 0.22832 0.18493
 N4 N 0.23327 0.20412 0.18977
 C5 C 0.22867 0.18472 0.21399
 N6 N 0.20451 0.18964 0.23341
 C7 C 0.68459 0.71430 0.72845
 N8 N 0.68947 0.73372 0.70430
 C9 C 0.71361 0.72900 0.68481
 N10 N 0.73291 0.70470 0.68956
 C11 C 0.72817 0.68518 0.71365
 N12 N 0.70399 0.69006 0.73303
 C13 C 0.31437 0.78695 0.72891
 N14 N 0.30958 0.76753 0.70473
 C15 C 0.28549 0.77222 0.68518
 N16 N 0.26615 0.79649 0.68992
 C17 C 0.27075 0.81606 0.71406
 N18 N 0.29492 0.81116 0.73350
 C19 C 0.81600 0.28594 0.22909
 N20 N 0.81122 0.26652 0.20487
 C21 C 0.78709 0.27111 0.18535
 N22 N 0.76763 0.29528 0.19013
 C23 C 0.77220 0.31480 0.21427
 N24 N 0.79640 0.31007 0.23367
 C25 C 0.81563 0.71408 0.27141
 N26 N 0.79611 0.68989 0.26685
 C27 C 0.77192 0.68512 0.28626
 N28 N 0.76731 0.70470 0.31035
 C29 C 0.78671 0.72894 0.31508
 N30 N 0.81085 0.73355 0.29556
 C31 C 0.31504 0.21351 -0.22942
 N32 N 0.29550 0.18932 -0.23407
 C33 C 0.27123 0.18445 -0.21474
 N34 N 0.26660 0.20400 -0.19060
 C35 C 0.28598 0.22823 -0.18576
 N36 N 0.31015 0.23290 -0.20521
 C37 C 0.68506 0.28617 -0.22819
 N38 N 0.70453 0.31036 -0.23289
 C39 C 0.72883 0.31527 -0.21360
 N40 N 0.73354 0.29574 -0.18949
 C41 C 0.71419 0.27148 -0.18464
 N42 N 0.68997 0.26679 -0.20404
 C43 C 0.18569 0.78625 0.27078
 N44 N 0.20523 0.81040 0.26617
 C45 C 0.22936 0.81535 0.28567
 N46 N 0.23382 0.79590 0.30990
 C47 C 0.21439 0.77170 0.31467
 N48 N 0.19035 0.76696 0.29506
 C49 C 0.46355 0.43466 0.47904
 N50 N 0.48297 0.43944 0.45487
 C51 C 0.47836 0.46359 0.43539
 N52 N 0.45417 0.48302 0.44018
 C53 C 0.43465 0.47841 0.46429
 N54 N 0.43941 0.45420 0.48366
 C55 C -0.03587 -0.06473 0.97823
 N56 N -0.06001 -0.04522 0.98294
 C57 C -0.06489 -0.02096 0.96362
 N58 N -0.04538 -0.01633 0.93946
 C59 C -0.02118 -0.03573 0.93460
 N60 N -0.01651 -0.05990 0.95403
 C61 C 1.03568 0.56542 0.97872
 N62 N 1.05985 0.54588 0.98328
 C63 C 1.06461 0.52163 0.96391
 N64 N 1.04505 0.51695 0.93984
 C65 C 1.02083 0.53633 0.93508
 N66 N 1.01622 0.56052 0.95456
 C67 C 0.53652 0.06438 0.47905
 N68 N 0.51718 0.05954 0.45483
 C69 C 0.52196 0.03547 0.43526
 N70 N 0.54626 0.01617 0.44002
 C71 C 0.56575 0.02081 0.46420
 N72 N 0.56076 0.04497 0.48365
 C73 C -0.03661 0.06523 0.52127
 N74 N -0.01718 0.06042 0.54542
 C75 C -0.02182 0.03627 0.56489
 N76 N -0.04607 0.01688 0.56013
 C77 C -0.06565 0.02149 0.53602
 N78 N -0.06079 0.04572 0.51665
 C79 C 0.46389 0.56525 0.02162
 N80 N 0.43976 0.54571 0.01691
 C81 C 0.43497 0.52144 0.03620
 N82 N 0.45447 0.51677 0.06032
 C83 C 0.47866 0.53620 0.06519
 N84 N 0.48330 0.56042 0.04579
 C85 C 0.53635 -0.06551 0.02114
 N86 N 0.56061 -0.04605 0.01660
 C87 C 0.56553 -0.02190 0.03606
 N88 N 0.54606 -0.01724 0.06020
 C89 C 0.52175 -0.03656 0.06493
 N90 N 0.51699 -0.06064 0.04536
 C91 C 1.03531 0.43454 0.52086
 N92 N 1.05947 0.45413 0.51631
 C93 C 1.06428 0.47831 0.53575
 N94 N 1.04479 0.48288 0.55990
 C95 C 1.02059 0.46344 0.56466
 N96 N 1.01593 0.43932 0.54510
 C97 C 0.42336 0.01354 0.20944
 H98 H 0.42539 0.03389 0.22384
 C99 C 0.44353 0.00931 0.18463
 H100 H 0.46097 0.02668 0.18006
 C101 C 0.39827 -0.03390 0.19838
 H102 H 0.38092 -0.05091 0.20405
 C103 C 0.41789 -0.03902 0.17329
 H104 H 0.41514 -0.05993 0.15982
 N105 N 0.40111 -0.00778 0.21566
 C106 C 0.32715 0.04026 0.26435
 H107 H 0.32514 0.02591 0.28471
 C108 C 0.30699 0.06509 0.26009
 H109 H 0.28958 0.06975 0.27744
 C110 C 0.35214 0.05112 0.21692
 H111 H 0.36944 0.04535 0.19992
 C112 C 0.33253 0.07623 0.21177
 H113 H 0.33524 0.08963 0.19084
 Zn114 Zn 0.37522 -0.00065 0.25017
 N115 N 0.34934 0.03393 0.24305
 C116 C 0.39837 0.03263 0.30191
 N117 N 0.40114 0.00648 0.28468
 C118 C 0.42335 -0.01485 0.29091
 C119 C 0.44356 -0.01059 0.31569
 C120 C 0.41802 0.03777 0.32698
 C121 C 0.32701 -0.04141 0.23598
 C122 C 0.30679 -0.06623 0.24020
 C123 C 0.33246 -0.07764 0.28838
 C124 C 0.35211 -0.05252 0.28329
 N125 N 0.34928 -0.03521 0.25725
 H126 H 0.38105 0.04965 0.29622
 H127 H 0.42534 -0.03522 0.27653
 H128 H 0.46097 -0.02796 0.32028
 H129 H 0.41533 0.05872 0.34041
 H130 H 0.32498 -0.02698 0.21569
 H131 H 0.28933 -0.07079 0.22288
 H132 H 0.33520 -0.09114 0.30924
 H133 H 0.36949 -0.04686 0.30027
 C134 C 0.30958 0.08354 0.23353
 C135 C 0.44089 -0.01723 0.16609
 C136 C 0.30942 -0.08480 0.26666
 C137 C 0.44099 0.01599 0.33418
 C138 C 0.07722 -0.01388 0.70888
 H139 H 0.07522 -0.03421 0.72328
 C140 C 0.05694 -0.00966 0.68416
 H141 H 0.03948 -0.02701 0.67964
 C142 C 0.10228 0.03354 0.69777
 H143 H 0.11966 0.05056 0.70339
 C144 C 0.08256 0.03865 0.67276
 H145 H 0.08526 0.05956 0.65930
 N146 N 0.09949 0.00744 0.71504
 C147 C 0.17364 -0.04034 0.76362
 H148 H 0.17573 -0.02585 0.78388
 C149 C 0.19379 -0.06519 0.75940
 H150 H 0.21128 -0.06971 0.77669
 C151 C 0.14841 -0.05158 0.71638
 H152 H 0.13100 -0.04596 0.69943
 C153 C 0.16799 -0.07673 0.71129
 H154 H 0.16518 -0.09030 0.69046
 Zn155 Zn 0.12545 0.00038 0.74950
 N156 N 0.15133 -0.03419 0.74239
 C157 C 0.10242 -0.03283 0.80128
 N158 N 0.09958 -0.00671 0.78404
 C159 C 0.07734 0.01459 0.79029
 C160 C 0.05716 0.01033 0.81508
 C161 C 0.08279 -0.03797 0.82635
 C162 C 0.17364 0.04117 0.73530
 C163 C 0.19386 0.06599 0.73955
 C164 C 0.16816 0.07744 0.78773
 C165 C 0.14852 0.05232 0.78261
 N166 N 0.15136 0.03498 0.75657
 H167 H 0.11977 -0.04983 0.79558
 H168 H 0.07530 0.03493 0.77591
 H169 H 0.03971 0.02767 0.81967
 H170 H 0.08553 -0.05889 0.83978
 H171 H 0.17567 0.02672 0.71501
 H172 H 0.21133 0.07054 0.72224
 H173 H 0.16542 0.09096 0.80859
 H174 H 0.13115 0.04667 0.79958
 C175 C 0.19106 -0.08385 0.73298
 C176 C 0.05951 0.01688 0.66564
 C177 C 0.19121 0.08459 0.76602
 C178 C 0.05978 -0.01622 0.83356
 C179 C 0.57706 0.48559 0.20945
 H180 H 0.57505 0.46516 0.22371
 C181 C 0.55692 0.48990 0.18463
 H182 H 0.53953 0.47251 0.17991
 C183 C 0.60202 0.53316 0.19876
 H184 H 0.61930 0.55021 0.20459
 C185 C 0.58244 0.53836 0.17367
 H186 H 0.58513 0.55936 0.16036
 N187 N 0.59923 0.50694 0.21585
 C188 C 0.67317 0.45896 0.26455
 H189 H 0.67511 0.47331 0.28492
 C190 C 0.69341 0.43419 0.26029
 H191 H 0.71080 0.42959 0.27766
 C192 C 0.64829 0.44800 0.21706
 H193 H 0.63099 0.45372 0.20003
 C194 C 0.66798 0.42295 0.21191
 H195 H 0.66535 0.40953 0.19097
 Zn196 Zn 0.62509 0.49975 0.25037
 N197 N 0.65100 0.46521 0.24321
 C198 C 0.60190 0.46638 0.30199
 N199 N 0.59916 0.49257 0.28485
 C200 C 0.57700 0.51392 0.29118
 C201 C 0.55681 0.50965 0.31596
 C202 C 0.58227 0.46121 0.32705
 C203 C 0.67323 0.54054 0.23626
 C204 C 0.69344 0.56536 0.24050
 C205 C 0.66792 0.57665 0.28881
 C206 C 0.64826 0.55154 0.28368
 N207 N 0.65102 0.53429 0.25757
 H208 H 0.61919 0.44933 0.29622
 H209 H 0.57504 0.53433 0.27688
 H210 H 0.53944 0.52704 0.32063
 H211 H 0.58493 0.44024 0.34041
 H212 H 0.67520 0.52615 0.21591
 H213 H 0.71085 0.56996 0.22315
 H214 H 0.66524 0.59010 0.30973
 H215 H 0.63093 0.54583 0.30069
 C216 C 0.69092 0.41572 0.23370
 C217 C 0.55951 0.51655 0.16629
 C218 C 0.69088 0.58387 0.26704
 C219 C 0.55935 0.48303 0.33436
 C220 C 0.92236 0.51353 0.70925
 H221 H 0.92440 0.53391 0.72360
 C222 C 0.94250 0.50926 0.68443
 H223 H 0.95993 0.52663 0.67980
 C224 C 0.89728 0.46606 0.69830
 H225 H 0.87993 0.44906 0.70402
 C226 C 0.91687 0.46090 0.67320
 H227 H 0.91412 0.43996 0.65976
 N228 N 0.90013 0.49221 0.71553
 C229 C 0.82611 0.54037 0.76400
 H230 H 0.82407 0.52608 0.78439
 C231 C 0.80600 0.56523 0.75968
 H232 H 0.78860 0.56995 0.77701
 C233 C 0.85116 0.55112 0.71658
 H234 H 0.86849 0.54531 0.69960
 C235 C 0.83161 0.57626 0.71137
 H236 H 0.83436 0.58963 0.69043
 Zn237 Zn 0.87422 0.49947 0.75001
 N238 N 0.84833 0.53398 0.74274
 C239 C 0.89728 0.53301 0.80165
 N240 N 0.90012 0.50680 0.78450
 C241 C 0.92237 0.48554 0.79083
 C242 C 0.94252 0.48991 0.81563
 C243 C 0.91689 0.53827 0.82672
 C244 C 0.82604 0.45858 0.73605
 C245 C 0.80588 0.43374 0.74040
 C246 C 0.83166 0.42255 0.78858
 C247 C 0.85125 0.44769 0.78336
 N248 N 0.84834 0.46490 0.75726
 H249 H 0.87994 0.54998 0.79588
 H250 H 0.92441 0.46512 0.77653
 H251 H 0.95996 0.47259 0.82029
 H252 H 0.91415 0.55925 0.84009
 H253 H 0.82396 0.47292 0.71571
 H254 H 0.78839 0.42908 0.72313
 H255 H 0.83446 0.40913 0.80948
 H256 H 0.86864 0.45344 0.80029
 C257 C 0.80866 0.58365 0.73310
 C258 C 0.93985 0.48269 0.66594
 C259 C 0.80860 0.41526 0.76692
 C260 C 0.93988 0.51654 0.83404
 C261 C 0.20894 0.42279 0.01389
 H262 H 0.22331 0.42473 0.03425
 C263 C 0.18416 0.44302 0.00969
 H264 H 0.17957 0.46041 0.02708
 C265 C 0.19796 0.39790 -0.03360
 H266 H 0.20366 0.38060 -0.05065
 C267 C 0.17289 0.41757 -0.03869
 H268 H 0.15947 0.41494 -0.05962
 N269 N 0.21519 0.40061 -0.00747
 C270 C 0.26386 0.32649 0.04029
 H271 H 0.28423 0.32450 0.02594
 C272 C 0.25962 0.30632 0.06509
 H273 H 0.27700 0.28893 0.06970
 C274 C 0.21639 0.35148 0.05126
 H275 H 0.19936 0.36880 0.04555
 C276 C 0.21126 0.33187 0.07633
 H277 H 0.19033 0.33458 0.08976
 Zn278 Zn 0.24971 0.37466 -0.00039
 N279 N 0.24253 0.34870 0.03404
 C280 C 0.30146 0.39774 0.03297
 N281 N 0.28426 0.40056 0.00684
 C282 C 0.29057 0.42280 -0.01441
 C283 C 0.31539 0.44299 -0.01008
 C284 C 0.32656 0.41738 0.03819
 C285 C 0.23552 0.32664 -0.04135
 C286 C 0.23979 0.30650 -0.06619
 C287 C 0.28822 0.33204 -0.07723
 C288 C 0.28306 0.35163 -0.05211
 N289 N 0.25687 0.34883 -0.03496
 H290 H 0.29570 0.38040 0.04994
 H291 H 0.27623 0.42482 -0.03477
 H292 H 0.32004 0.46043 -0.02738
 H293 H 0.33996 0.41466 0.05911
 H294 H 0.21511 0.32463 -0.02705
 H295 H 0.22241 0.28911 -0.07089
 H296 H 0.30920 0.33475 -0.09059
 H297 H 0.30010 0.36892 -0.04630
 C298 C 0.23307 0.30893 0.08358
 C299 C 0.16568 0.44052 -0.01687
 C300 C 0.26642 0.30911 -0.08459
 C301 C 0.33384 0.44038 0.01648
 C302 C 0.71026 0.07641 -0.01414
 H303 H 0.72456 0.07443 -0.03453
 C304 C 0.68541 0.05624 -0.00987
 H305 H 0.68071 0.03885 -0.02724
 C306 C 0.69947 0.10137 0.03335
 H307 H 0.70526 0.11867 0.05037
 C308 C 0.67435 0.08175 0.03851
 H309 H 0.66097 0.08445 0.05947
 N310 N 0.71662 0.09860 0.00718
 C311 C 0.76516 0.17276 -0.04075
 H312 H 0.78559 0.17477 -0.02647
 C313 C 0.76079 0.19298 -0.06547
 H314 H 0.77812 0.21044 -0.07011
 C315 C 0.71767 0.14770 -0.05156
 H316 H 0.70068 0.13034 -0.04582
 C317 C 0.71240 0.16736 -0.07656
 H318 H 0.69141 0.16465 -0.08990
 Zn319 Zn 0.75115 0.12455 -0.00001
 N320 N 0.74388 0.15049 -0.03445
 C321 C 0.80296 0.10160 -0.03335
 N322 N 0.78570 0.09869 -0.00727
 C323 C 0.79197 0.07640 0.01393
 C324 C 0.81678 0.05622 0.00960
 C325 C 0.82807 0.08200 -0.03856
 C326 C 0.73703 0.17263 0.04082
 C327 C 0.74127 0.19280 0.06565
 C328 C 0.78964 0.16724 0.07684
 C329 C 0.78450 0.14763 0.05173
 N330 N 0.75835 0.15043 0.03452
 H331 H 0.79725 0.11900 -0.05027
 H332 H 0.77758 0.07431 0.03426
 H333 H 0.82138 0.03873 0.02686
 H334 H 0.84152 0.08479 -0.05944
 H335 H 0.71665 0.17464 0.02648
 H336 H 0.72390 0.21020 0.07029
 H337 H 0.81057 0.16453 0.09027
 H338 H 0.80151 0.13031 0.04599
 C339 C 0.73414 0.19039 -0.08384
 C340 C 0.66699 0.05882 0.01672
 C341 C 0.76784 0.19020 0.08413
 C342 C 0.83529 0.05893 -0.01691
 C343 C 0.20866 0.57723 0.48577
 H344 H 0.22305 0.57527 0.46544
 C345 C 0.18385 0.55701 0.48997
 H346 H 0.17925 0.53960 0.47259
 C347 C 0.19767 0.60217 0.53322
 H348 H 0.20338 0.61948 0.55027
 C349 C 0.17257 0.58250 0.53831
 H350 H 0.15913 0.58515 0.55922
 N351 N 0.21492 0.59943 0.50712
 C352 C 0.26386 0.67342 0.45937
 H353 H 0.28420 0.67541 0.47377
 C354 C 0.25973 0.69359 0.43455
 H355 H 0.27715 0.71097 0.42998
 C356 C 0.21637 0.64848 0.44829
 H357 H 0.19929 0.63118 0.45397
 C358 C 0.21134 0.66808 0.42320
 H359 H 0.19044 0.66539 0.40972
 Zn360 Zn 0.24950 0.62533 0.50008
 N361 N 0.24247 0.65124 0.46558
 C362 C 0.30130 0.60214 0.46691
 N363 N 0.28404 0.59940 0.49300
 C364 C 0.29026 0.57721 0.51433
 C365 C 0.31506 0.55699 0.51011
 C366 C 0.32638 0.58248 0.46181
 C367 C 0.23527 0.67345 0.54087
 C368 C 0.23951 0.69366 0.56567
 C369 C 0.28787 0.66814 0.57691
 C370 C 0.28274 0.64849 0.55184
 N371 N 0.25661 0.65125 0.53461
 H372 H 0.29561 0.61945 0.44989
 H373 H 0.27587 0.57525 0.53465
 H374 H 0.31964 0.53960 0.52747
 H375 H 0.33983 0.58514 0.44090
 H376 H 0.21490 0.67543 0.52651
 H377 H 0.22213 0.71107 0.57027
 H378 H 0.30881 0.66547 0.59034
 H379 H 0.29978 0.63118 0.54612
 C380 C 0.23321 0.69101 0.41600
 C381 C 0.16535 0.55953 0.51650
 C382 C 0.26608 0.69111 0.58415
 C383 C 0.33358 0.55953 0.48359
 C384 C 0.70938 0.92399 0.51407
 H385 H 0.72378 0.92611 0.53438
 C386 C 0.68451 0.94410 0.50979
 H387 H 0.67988 0.96158 0.52708
 C388 C 0.69839 0.89876 0.46676
 H389 H 0.70411 0.88137 0.44981
 C390 C 0.67322 0.91829 0.46161
 H391 H 0.65975 0.91546 0.44073
 N392 N 0.71566 0.90170 0.49283
 C393 C 0.76431 0.82769 0.54077
 H394 H 0.78469 0.82566 0.52644
 C395 C 0.75998 0.80748 0.56552
 H396 H 0.77731 0.79003 0.57013
 C397 C 0.71687 0.85275 0.55169
 H398 H 0.69989 0.87011 0.54598
 C399 C 0.71166 0.83310 0.57672
 H400 H 0.69070 0.83582 0.59011
 Zn401 Zn 0.75024 0.87585 0.50003
 N402 N 0.74303 0.84994 0.53450
 C403 C 0.80207 0.89891 0.53331
 N404 N 0.78477 0.90180 0.50726
 C405 C 0.79099 0.92411 0.48605
 C406 C 0.81582 0.94431 0.49035
 C407 C 0.82719 0.91853 0.53848
 C408 C 0.73623 0.82764 0.45926
 C409 C 0.74055 0.80744 0.43448
 C410 C 0.78884 0.83317 0.42326
 C411 C 0.78363 0.85282 0.44832
 N412 N 0.75749 0.84995 0.46553
 H413 H 0.79639 0.88150 0.55023
 H414 H 0.77658 0.92617 0.46574
 H415 H 0.82040 0.96180 0.47308
 H416 H 0.84068 0.91575 0.55935
 H417 H 0.71586 0.82558 0.47361
 H418 H 0.72324 0.78995 0.42988
 H419 H 0.80977 0.83593 0.40985
 H420 H 0.80059 0.87022 0.45404
 C421 C 0.73338 0.81009 0.58395
 C422 C 0.66596 0.94134 0.48330
 C423 C 0.76713 0.81010 0.41603
 C424 C 0.83438 0.94161 0.51682
 C425 C 0.01370 0.20988 0.42314
 H426 H 0.03404 0.22429 0.42522
 C427 C 0.00941 0.18504 0.44326
 H428 H 0.02671 0.18047 0.46072
 C429 C -0.03365 0.19880 0.39796
 H430 H -0.05060 0.20448 0.38058
 C431 C -0.03883 0.17368 0.41753
 H432 H -0.05974 0.16020 0.41473
 N433 N -0.00754 0.21610 0.40087
 C434 C 0.04067 0.26469 0.32705
 H435 H 0.02633 0.28507 0.32497
 C436 C 0.06552 0.26034 0.30694
 H437 H 0.07019 0.27765 0.28952
 C438 C 0.05150 0.21727 0.35214
 H439 H 0.04571 0.20029 0.36945
 C440 C 0.07663 0.21203 0.33259
 H441 H 0.09002 0.19107 0.33535
 Zn442 Zn -0.00031 0.25062 0.37502
 N443 N 0.03431 0.24343 0.34926
 C444 C 0.03282 0.30258 0.39808
 N445 N 0.00675 0.28522 0.40090
 C446 C -0.01456 0.29139 0.42313
 C447 C -0.01034 0.31620 0.44334
 C448 C 0.03791 0.32770 0.41771
 C449 C -0.04088 0.23641 0.32675
 C450 C -0.06564 0.24060 0.30650
 C451 C -0.07724 0.28880 0.33223
 C452 C -0.05218 0.28373 0.35189
 N453 N -0.03479 0.25770 0.34905
 H454 H 0.04982 0.29695 0.38073
 H455 H -0.03487 0.27693 0.42515
 H456 H -0.02768 0.32073 0.46079
 H457 H 0.05880 0.34123 0.41500
 H458 H -0.02640 0.21612 0.32472
 H459 H -0.07010 0.22327 0.28902
 H460 H -0.09081 0.30965 0.33497
 H461 H -0.04662 0.30072 0.36931
 C462 C 0.08395 0.23374 0.30961
 C463 C -0.01712 0.16648 0.44055
 C464 C -0.08429 0.26706 0.30915
 C465 C 0.01616 0.33482 0.44074
 C466 C -0.01389 0.70883 0.07616
 H467 H -0.03422 0.72326 0.07417
 C468 C -0.00973 0.68398 0.05599
 H469 H -0.02712 0.67939 0.03860
 C470 C 0.03356 0.69775 0.10110
 H471 H 0.05061 0.70344 0.11839
 C472 C 0.03860 0.67261 0.08150
 H473 H 0.05949 0.65911 0.08419
 N474 N 0.00747 0.71507 0.09833
 C475 C -0.04010 0.76396 0.17243
 H476 H -0.02567 0.78431 0.17437
 C477 C -0.06484 0.75977 0.19270
 H478 H -0.06934 0.77717 0.21012
 C479 C -0.05130 0.71648 0.14750
 H480 H -0.04570 0.69944 0.13017
 C481 C -0.07632 0.71140 0.16722
 H482 H -0.08983 0.69049 0.16458
 Zn483 Zn 0.00047 0.74968 0.12421
 N484 N -0.03398 0.74260 0.15022
 C485 C -0.03288 0.80146 0.10127
 N486 N -0.00675 0.78422 0.09837
 C487 C 0.01451 0.79052 0.07613
 C488 C 0.01021 0.81538 0.05604
 C489 C -0.03806 0.82660 0.08174
 C490 C 0.04142 0.73556 0.17215
 C491 C 0.06626 0.73986 0.19228
 C492 C 0.07749 0.78819 0.16669
 C493 C 0.05237 0.78300 0.14711
 N494 N 0.03512 0.75685 0.14995
 H495 H -0.04985 0.79572 0.11861
 H496 H 0.03487 0.77615 0.07404
 H497 H 0.02753 0.82002 0.03861
 H498 H -0.05898 0.84004 0.08453
 H499 H 0.02704 0.71519 0.17419
 H500 H 0.07088 0.72253 0.20969
 H501 H 0.09093 0.80914 0.16397
 H502 H 0.04663 0.80000 0.12981
 C503 C -0.08342 0.73323 0.19020
 C504 C 0.01678 0.66540 0.05856
 C505 C 0.08475 0.76645 0.18966
 C506 C -0.01634 0.83388 0.05875
 C507 C 0.48551 0.20860 0.57762
 H508 H 0.46511 0.22291 0.57556
 C509 C 0.48989 0.18378 0.55746
 H510 H 0.47259 0.17910 0.54001
 C511 C 0.53295 0.19781 0.60271
 H512 H 0.54991 0.20359 0.62006
 C513 C 0.53822 0.17271 0.58311
 H514 H 0.55919 0.15935 0.58585
 N515 N 0.50676 0.21496 0.59986
 C516 C 0.45854 0.26361 0.67371
 H517 H 0.47293 0.28398 0.67580
 C518 C 0.43366 0.25932 0.69379
 H519 H 0.42901 0.27666 0.71121
 C520 C 0.44759 0.21619 0.64857
 H521 H 0.45334 0.19919 0.63123
 C522 C 0.42242 0.21102 0.66807
 H523 H 0.40896 0.19010 0.66528
 Zn524 Zn 0.49947 0.24953 0.62570
 N525 N 0.46486 0.24232 0.65148
 C526 C 0.46616 0.30125 0.60253
 N527 N 0.49231 0.28402 0.59978
 C528 C 0.51365 0.29028 0.57761
 C529 C 0.50941 0.31506 0.55743
 C530 C 0.46102 0.32632 0.58290
 C531 C 0.54030 0.23555 0.67382
 C532 C 0.56515 0.23989 0.69394
 C533 C 0.57625 0.28826 0.66837
 C534 C 0.55113 0.28303 0.64881
 N535 N 0.53396 0.25683 0.65162
 H536 H 0.44913 0.29555 0.61983
 H537 H 0.53403 0.27592 0.57565
 H538 H 0.52680 0.31967 0.54005
 H539 H 0.44008 0.33975 0.58556
 H540 H 0.52598 0.21513 0.67583
 H541 H 0.56983 0.22255 0.71133
 H542 H 0.58964 0.30924 0.66564
 H543 H 0.54536 0.30001 0.63150
 C544 C 0.41513 0.23277 0.69106
 C545 C 0.51652 0.16538 0.56010
 C546 C 0.58359 0.26651 0.69130
 C547 C 0.48283 0.33355 0.55997
 C548 C 0.51395 0.70994 0.92335
 H549 H 0.53434 0.72431 0.92531
 C550 C 0.50974 0.68510 0.94350
 H551 H 0.52715 0.68047 0.96083
 C552 C 0.46640 0.69900 0.89851
 H553 H 0.44933 0.70473 0.88126
 C554 C 0.46129 0.67388 0.91809
 H555 H 0.44033 0.66045 0.91544
 N556 N 0.49257 0.71622 0.90123
 C557 C 0.54040 0.76488 0.82719
 H558 H 0.52607 0.78528 0.82524
 C559 C 0.56516 0.76058 0.80697
 H560 H 0.56977 0.77794 0.78957
 C561 C 0.55132 0.71739 0.85211
 H562 H 0.54560 0.70037 0.86942
 C563 C 0.57636 0.71219 0.83244
 H564 H 0.58975 0.69122 0.83510
 Zn565 Zn 0.49968 0.75076 0.87535
 N566 N 0.53414 0.74357 0.84938
 C567 C 0.53307 0.80259 0.89831
 N568 N 0.50694 0.78533 0.90120
 C569 C 0.48572 0.79157 0.92350
 C570 C 0.49009 0.81636 0.94370
 C571 C 0.53831 0.82768 0.91794
 C572 C 0.45874 0.73657 0.82740
 C573 C 0.43390 0.74083 0.80727
 C574 C 0.42273 0.78922 0.83283
 C575 C 0.44785 0.78407 0.85241
 N576 N 0.46507 0.75791 0.84958
 H577 H 0.55000 0.79690 0.88092
 H578 H 0.46536 0.77718 0.92557
 H579 H 0.47281 0.82095 0.96119
 H580 H 0.55924 0.84113 0.91517
 H581 H 0.47309 0.71619 0.82537
 H582 H 0.42924 0.72346 0.78988
 H583 H 0.40932 0.81017 0.83556
 H584 H 0.45362 0.80109 0.86972
 C585 C 0.58360 0.73397 0.80949
 C586 C 0.48314 0.66661 0.94096
 C587 C 0.41544 0.76742 0.80988
 C588 C 0.51665 0.83488 0.94102
 N589 N 0.15324 0.19920 0.27335
 C590 C 0.15888 0.21900 0.24973
 N591 N 0.13992 0.24368 0.24583
 N592 N 0.11619 0.24838 0.26485
 C593 C 0.11043 0.22857 0.28850
 N594 N 0.12947 0.20388 0.29234
 N595 N 0.65277 0.69952 0.77297
 C596 C 0.65844 0.71945 0.74946
 N597 N 0.63951 0.74417 0.74569
 N598 N 0.61580 0.74880 0.76476
 C599 C 0.61003 0.72887 0.78831
 N600 N 0.62903 0.70413 0.79199
 N601 N 0.34616 0.80178 0.77349
 C602 C 0.34050 0.78184 0.74995
 N603 N 0.35946 0.75714 0.74613
 N604 N 0.38320 0.75255 0.76518
 C605 C 0.38896 0.77248 0.78876
 N606 N 0.36992 0.79720 0.79250
 N607 N -0.13971 0.25693 0.24490
 C608 C -0.15919 0.28120 0.24904
 N609 N -0.15399 0.30078 0.27301
 N610 N -0.13023 0.29630 0.29205
 C611 C -0.11073 0.27202 0.28795
 N612 N -0.11599 0.25243 0.26398
 N613 N -0.15269 0.69910 0.22685
 C614 C -0.15823 0.71909 0.25036
 N615 N -0.13918 0.74375 0.25410
 N616 N -0.11547 0.74825 0.23499
 C617 C -0.10983 0.72826 0.21143
 N618 N -0.12896 0.70359 0.20778
 N619 N 0.35932 0.24267 0.75499
 C620 C 0.33992 0.21834 0.75073
 N621 N 0.34529 0.19878 0.72679
 N622 N 0.36915 0.20336 0.70789
 C623 C 0.38858 0.22770 0.71210
 N624 N 0.38313 0.24727 0.73604
 N625 N 0.63983 0.25635 0.75483
 C626 C 0.65880 0.28104 0.75092
 N627 N 0.65305 0.30094 0.72742
 N628 N 0.62919 0.29633 0.70852
 C629 C 0.61014 0.27163 0.71235
 N630 N 0.61599 0.25173 0.73590
 N631 N 0.15404 0.80090 0.22608
 C632 C 0.15960 0.78107 0.24970
 N633 N 0.14058 0.75641 0.25354
 N634 N 0.11688 0.75174 0.23446
 C635 C 0.11121 0.77158 0.21081
 N636 N 0.13030 0.79625 0.20704
 N637 N 0.24586 0.13962 0.24379
 C638 C 0.24967 0.15854 0.21910
 N639 N 0.27319 0.15282 0.19918
 N640 N 0.29218 0.12902 0.20377
 C641 C 0.28845 0.11003 0.22847
 N642 N 0.26489 0.11586 0.24839
 N643 N 0.74511 0.63992 0.74332
 C644 C 0.74905 0.65889 0.71870
 N645 N 0.77260 0.65314 0.69882
 N646 N 0.79149 0.62926 0.70338
 C647 C 0.78762 0.61021 0.72802
 N648 N 0.76404 0.61607 0.74790
 N649 N 0.77275 0.34551 0.80096
 C650 C 0.74872 0.34014 0.78152
 N651 N 0.74443 0.35952 0.75724
 N652 N 0.76344 0.38331 0.75259
 C653 C 0.78748 0.38874 0.77205
 N654 N 0.79172 0.36934 0.79633
 N655 N 0.27320 -0.15444 0.30053
 C656 C 0.24933 -0.15982 0.28089
 N657 N 0.24527 -0.14049 0.25654
 N658 N 0.26435 -0.11674 0.25200
 C659 C 0.28823 -0.11129 0.27165
 N660 N 0.29224 -0.13065 0.29601
 N661 N 0.25507 -0.13960 0.74308
 C662 C 0.25088 -0.15905 0.71880
 N663 N 0.22696 -0.15372 0.69922
 N664 N 0.20801 -0.12987 0.70371
 C665 C 0.21216 -0.11039 0.72799
 N666 N 0.23608 -0.11579 0.74759
 N667 N 0.75487 0.35993 0.24400
 C668 C 0.75112 0.34093 0.21933
 N669 N 0.72757 0.34650 0.19941
 N670 N 0.70848 0.37023 0.20398
 C671 C 0.71215 0.38930 0.22865
 N672 N 0.73575 0.38363 0.24857
 N673 N 0.75471 0.63985 0.25665
 C674 C 0.75090 0.65891 0.28126
 N675 N 0.72735 0.65331 0.30118
 N676 N 0.70833 0.62950 0.29667
 C677 C 0.71206 0.61037 0.27205
 N678 N 0.73565 0.61607 0.25213
 N679 N 0.25548 0.14018 0.75613
 C680 C 0.25129 0.15961 0.78042
 N681 N 0.22729 0.15433 0.79993
 N682 N 0.20827 0.13054 0.79535
 C683 C 0.21240 0.11108 0.77106
 N684 N 0.23640 0.11642 0.75154
 N685 N 0.19896 0.27275 0.15303
 C686 C 0.21889 0.24921 0.15868
 N687 N 0.24350 0.24530 0.13965
 N688 N 0.24801 0.26426 0.11584
 C689 C 0.22808 0.28784 0.11009
 N690 N 0.20345 0.29167 0.12919
 N691 N 0.74343 0.74615 0.63973
 C692 C 0.71877 0.75003 0.65870
 N693 N 0.69894 0.77368 0.65312
 N694 N 0.70358 0.79271 0.62940
 C695 C 0.72825 0.78890 0.61036
 N696 N 0.74809 0.76522 0.61604
 N697 N 0.80151 0.77364 0.34680
 C698 C 0.78163 0.75001 0.34120
 N699 N 0.75697 0.74616 0.36018
 N700 N 0.75236 0.76524 0.38388
 C701 C 0.77223 0.78891 0.38959
 N702 N 0.79691 0.79269 0.37054
 N703 N 0.25618 0.24536 -0.14065
 C704 C 0.28087 0.24923 -0.15959
 N705 N 0.30078 0.27280 -0.15388
 N706 N 0.29619 0.29178 -0.13009
 C707 C 0.27149 0.28799 -0.11108
 N708 N 0.25157 0.26438 -0.11689
 N709 N 0.69953 0.22684 -0.15288
 C710 C 0.71939 0.25046 -0.15853
 N711 N 0.74413 0.25432 -0.13964
 N712 N 0.74882 0.23524 -0.11597
 C713 C 0.72896 0.21159 -0.11022
 N714 N 0.70421 0.20781 -0.12918
 N715 N 0.24386 0.75467 0.36001
 C716 C 0.21930 0.75078 0.34091
 N717 N 0.19932 0.72724 0.34649
 N718 N 0.20373 0.70830 0.37032
 C719 C 0.22831 0.71211 0.38949
 N720 N 0.24829 0.73569 0.38381
 N721 N 0.30030 0.72757 0.65345
 C722 C 0.28042 0.75118 0.65903
 N723 N 0.25580 0.75502 0.64000
 N724 N 0.25123 0.73595 0.61628
 C725 C 0.27111 0.71230 0.61060
 N726 N 0.29575 0.70853 0.62970
 N727 N 0.80203 0.22657 0.15351
 C728 C 0.78208 0.25010 0.15916
 N729 N 0.75744 0.25392 0.14016
 N730 N 0.75291 0.23490 0.11639
 C731 C 0.77286 0.21133 0.11063
 N732 N 0.79752 0.20758 0.12970
 N733 N 0.44863 0.40288 0.52355
 C734 C 0.46858 0.40849 0.50003
 N735 N 0.49322 0.38946 0.49622
 N736 N 0.49776 0.36572 0.51526
 C737 C 0.47782 0.36001 0.53882
 N738 N 0.45316 0.37911 0.54254
 N739 N -0.05065 0.90336 0.02269
 C740 C -0.03077 0.90904 -0.00086
 N741 N -0.00614 0.89003 -0.00481
 N742 N -0.00154 0.86622 0.01413
 C743 C -0.02141 0.86043 0.03772
 N744 N -0.04606 0.87951 0.04159
 N745 N 0.00661 0.60970 -0.00549
 C746 C 0.03092 0.59029 -0.00137
 N747 N 0.05055 0.59561 0.02252
 N748 N 0.04606 0.61943 0.04150
 C749 C 0.02174 0.63888 0.03743
 N750 N 0.00210 0.63349 0.01354
 N751 N 0.55115 0.09619 0.52369
 C752 C 0.53129 0.09050 0.50010
 N753 N 0.50656 0.10940 0.49626
 N754 N 0.50186 0.13312 0.51532
 C755 C 0.52171 0.13892 0.53895
 N756 N 0.54645 0.11994 0.54272
 N757 N -0.00687 0.11045 0.50419
 C758 C -0.03153 0.09142 0.50031
 N759 N -0.05144 0.09706 0.47678
 N760 N -0.04686 0.12088 0.45783
 C761 C -0.02219 0.13997 0.46163
 N762 N -0.00229 0.13423 0.48521
 N763 N 0.49358 0.61054 1.00456
 C764 C 0.46893 0.59150 1.00071
 N765 N 0.44897 0.59714 0.97721
 N766 N 0.45349 0.62098 0.95828
 C767 C 0.47815 0.64009 0.96205
 N768 N 0.49810 0.63434 0.98559
 N769 N 0.50701 0.89040 1.00528
 C770 C 0.53141 0.90972 1.00115
 N771 N 0.55092 0.90440 0.97717
 N772 N 0.54623 0.88067 0.95812
 C773 C 0.52182 0.86131 0.96221
 N774 N 0.50230 0.86670 0.98618
 N775 N 0.05004 0.40453 0.47691
 C776 C 0.03049 0.40974 0.50088
 N777 N 0.00619 0.39029 0.50500
 N778 N 0.00162 0.36657 0.48590
 C779 C 0.02119 0.36128 0.46193
 N780 N 0.04549 0.38077 0.45786
 N781 N 0.38946 0.49566 0.49395
 C782 C 0.40849 0.49945 0.46933
 N783 N 0.40291 0.52301 0.44943
 N784 N 0.37914 0.54205 0.45396
 C785 C 0.36004 0.53833 0.47858
 N786 N 0.36572 0.51474 0.49849
 N787 N 0.89092 -0.00526 -0.00719
 C788 C 0.91029 -0.00104 -0.03150
 N789 N 0.90495 0.02296 -0.05098
 N790 N 0.88117 0.04196 -0.04635
 C791 C 0.86177 0.03779 -0.02203
 N792 N 0.86717 0.01379 -0.00255
 N793 N 0.61077 -0.00482 0.00637
 C794 C 0.59181 -0.00097 0.03103
 N795 N 0.59756 0.02254 0.05098
 N796 N 0.62142 0.04149 0.04645
 C797 C 0.64045 0.03771 0.02177
 N798 N 0.63459 0.01416 0.00182
 N799 N 0.09606 0.52292 0.55068
 C800 C 0.09044 0.49938 0.53072
 N801 N 0.10944 0.49562 0.50608
 N802 N 0.13317 0.51473 0.50155
 C803 C 0.13889 0.53831 0.52150
 N804 N 0.11982 0.54199 0.54616
 N805 N 0.10983 0.50442 -0.00646
 C806 C 0.09078 0.50061 -0.03107
 N807 N 0.09635 0.47703 -0.05098
 N808 N 0.12011 0.45798 -0.04648
 C809 C 0.13923 0.46172 -0.02186
 N810 N 0.13356 0.48534 -0.00194
 N811 N 0.59613 0.97708 0.44939
 C812 C 0.59068 1.00100 0.46898
 N813 N 0.61004 1.00524 0.49330
 N814 N 0.63388 0.98630 0.49786
 C815 C 0.63939 0.96238 0.47826
 N816 N 0.62000 0.95819 0.45393
 N817 N 0.90417 0.97759 0.55073
 C818 C 0.90949 1.00157 0.53122
 N819 N 0.89006 1.00578 0.50695
 N820 N 0.86628 0.98674 0.50237
 C821 C 0.86089 0.96276 0.52189
 N822 N 0.88034 0.95860 0.54616
 N823 N 0.38981 0.50428 0.00642
 C824 C 0.40880 0.50041 0.03106
 N825 N 0.40316 0.47679 0.05088
 N826 N 0.37938 0.45776 0.04625
 C827 C 0.36032 0.46155 0.02160
 N828 N 0.36606 0.48521 0.00178
 N829 N 0.49557 0.49333 0.39030
 C830 C 0.49938 0.46866 0.40924
 N831 N 0.52292 0.44872 0.40358
 N832 N 0.54193 0.45328 0.37982
 C833 C 0.53820 0.47797 0.36081
 N834 N 0.51462 0.49791 0.36657
 N835 N 0.02339 -0.05053 0.90279
 C836 C -0.00019 -0.03063 0.90844
 N837 N -0.00404 -0.00597 0.88948
 N838 N 0.01501 -0.00137 0.86575
 C839 C 0.03863 -0.02128 0.86001
 N840 N 0.04239 -0.04595 0.87904
 N841 N -0.00454 0.00656 0.60998
 C842 C -0.00074 0.03120 0.59098
 N843 N 0.02287 0.05111 0.59652
 N844 N 0.04197 0.04656 0.62020
 C845 C 0.03825 0.02191 0.63927
 N846 N 0.01460 0.00199 0.63364
 N847 N 0.49580 0.50634 0.11022
 C848 C 0.49965 0.53108 0.09135
 N849 N 0.52320 0.55101 0.09709
 N850 N 0.54217 0.54640 0.12086
 C851 C 0.53840 0.52165 0.13981
 N852 N 0.51482 0.50172 0.13397
 N853 N 0.47715 -0.05138 0.09667
 C854 C 0.50078 -0.03150 0.09111
 N855 N 0.50470 -0.00690 0.11019
 N856 N 0.48568 -0.00236 0.13395
 C857 C 0.46202 -0.02224 0.13961
 N858 N 0.45817 -0.04685 0.12046
 N859 N 0.97607 0.44851 0.59650
 C860 C 0.99963 0.46845 0.59086
 N861 N 1.00352 0.49308 0.60990
 N862 N 0.98454 0.49761 0.63369
 C863 C 0.96094 0.47767 0.63943
 N864 N 0.95712 0.45302 0.62032
 N865 N 0.97621 0.55106 0.90328
 C866 C 0.99980 0.53118 0.90895
 N867 N 1.00366 0.50648 0.89000
 N868 N 0.98463 0.50182 0.86627
 C869 C 0.96101 0.52170 0.86050
 N870 N 0.95722 0.54642 0.87952
 N871 N 0.50487 0.00576 0.39003
 C872 C 0.50097 0.03037 0.40909
 N873 N 0.47735 0.05023 0.40353
 N874 N 0.45834 0.04566 0.37976
 C875 C 0.46216 0.02104 0.36063
 N876 N 0.48582 0.00118 0.36629
   
