data_POSCAR
  _audit_creation_date              2014-09-24
  _audit_creation_method            'ToBaCCo'
  _symmetry_space_group_name_H-M    'P1'
  _symmetry_Int_Tables_number       1
  _symmetry_cell_setting            triclinic
  loop_
  _symmetry_equiv_pos_as_xyz
 x,y,z
_cell_length_a 36.7843
_cell_length_b 36.8246
_cell_length_c 36.4979
_cell_angle_alpha 87.518100
_cell_angle_beta 89.949600
_cell_angle_gamma 91.134700
loop_
  _atom_site_label
  _atom_site_type_symbol
  _atom_site_fract_x
  _atom_site_fract_y
  _atom_site_fract_z
C1 C 0.18954 0.53806 1.03186
 H2 H 0.18912 0.55258 1.00545
 C3 C 0.16049 0.54090 1.05602
 H4 H 0.13825 0.55833 1.04794
 C5 C 0.21820 0.49587 1.07268
 H6 H 0.24002 0.47722 1.07832
 C7 C 0.19000 0.49845 1.09812
 H8 H 0.19095 0.48194 1.12337
 N9 N 0.21698 0.51495 1.03998
 C10 C 0.30556 0.53912 0.96336
 H11 H 0.30517 0.51407 0.94891
 C12 C 0.33462 0.56372 0.95843
 H13 H 0.35621 0.55761 0.93962
 C14 C 0.27908 0.57592 1.00749
 H15 H 0.25812 0.57974 1.02767
 C16 C 0.30754 0.60154 1.00311
 H17 H 0.30799 0.62512 1.01984
 Zn18 Zn 0.24786 0.50509 1.00048
 N19 N 0.27912 0.54508 0.98828
 C20 C 0.21710 0.51337 0.92869
 N21 N 0.21666 0.49403 0.96131
 C22 C 0.19007 0.46885 0.96956
 C23 C 0.16141 0.46351 0.94534
 C24 C 0.18907 0.50853 0.90334
 C25 C 0.30538 0.47234 1.03692
 C26 C 0.33337 0.44770 1.04221
 C27 C 0.30422 0.40886 0.99883
 C28 C 0.27693 0.43452 0.99402
 N29 N 0.27841 0.46580 1.01251
 H30 H 0.23814 0.53375 0.92304
 H31 H 0.19017 0.45427 0.99594
 H32 H 0.13978 0.44433 0.95312
 H33 H 0.18897 0.52514 0.87813
 H34 H 0.30613 0.49771 1.05081
 H35 H 0.35537 0.45416 1.06068
 H36 H 0.30344 0.38481 0.98277
 H37 H 0.25564 0.43020 0.97421
 C38 C 0.33645 0.59488 0.97926
 C39 C 0.15973 0.52000 1.08925
 C40 C 0.33353 0.41593 1.02230
 C41 C 0.16017 0.48415 0.91215
 C42 C 0.80618 0.53602 -0.03916
 H43 H 0.80670 0.55249 -0.01532
 C44 C 0.83518 0.53804 -0.06381
 H45 H 0.85767 0.55666 -0.05905
 C46 C 0.77746 0.48967 -0.07249
 H47 H 0.75571 0.46974 -0.07479
 C48 C 0.80576 0.49115 -0.09817
 H49 H 0.80527 0.47250 -0.12031
 N50 N 0.77867 0.51137 -0.04327
 C51 C 0.69111 0.53711 0.03056
 H52 H 0.69085 0.51237 0.04767
 C53 C 0.66264 0.56131 0.03281
 H54 H 0.64084 0.55528 0.05222
 C55 C 0.71862 0.57346 -0.01741
 H56 H 0.73970 0.57720 -0.03796
 C57 C 0.69086 0.59879 -0.01567
 H58 H 0.69103 0.62213 -0.03477
 Zn59 Zn 0.74784 0.50304 -0.00230
 N60 N 0.71777 0.54301 0.00508
 C61 C 0.77914 0.51505 0.06783
 N62 N 0.77899 0.49416 0.03799
 C63 C 0.80510 0.46926 0.03297
 C64 C 0.83398 0.46593 0.05748
 C65 C 0.80735 0.51220 0.09344
 C66 C 0.68900 0.46913 -0.03393
 C67 C 0.65950 0.44496 -0.03554
 C68 C 0.68699 0.40758 0.01252
 C69 C 0.71583 0.43285 0.01360
 N70 N 0.71585 0.46325 -0.00896
 H71 H 0.75848 0.53517 0.07087
 H72 H 0.80454 0.45341 0.00869
 H73 H 0.85530 0.44699 0.05214
 H74 H 0.80794 0.53004 0.11626
 H75 H 0.68949 0.49382 -0.05112
 H76 H 0.63760 0.45099 -0.05453
 H77 H 0.68650 0.38432 0.03172
 H78 H 0.73711 0.42912 0.03373
 C79 C 0.66177 0.59211 0.00884
 C80 C 0.83574 0.51462 -0.09314
 C81 C 0.65775 0.41425 -0.01142
 C82 C 0.83585 0.48824 0.08766
 C83 C -0.02471 0.30308 0.47235
 H84 H -0.03907 0.30225 0.49827
 C85 C -0.02911 0.33244 0.44750
 H86 H -0.04743 0.35370 0.45464
 C87 C 0.01802 0.27698 0.43321
 H88 H 0.03732 0.25595 0.42841
 C89 C 0.01392 0.30558 0.40709
 H90 H 0.03001 0.30577 0.38222
 N91 N -0.00083 0.27661 0.46530
 C92 C -0.02522 0.18336 0.53855
 H93 H -0.00011 0.18233 0.55395
 C94 C -0.04997 0.15418 0.54134
 H95 H -0.04395 0.13101 0.55944
 C96 C -0.06212 0.21378 0.49424
 H97 H -0.06596 0.23636 0.47482
 C98 C -0.08796 0.18539 0.49663
 H99 H -0.11173 0.18662 0.47919
 Zn100 Zn 0.00883 0.24389 0.50524
 N101 N -0.03118 0.21187 0.51456
 C102 C -0.00293 0.27136 0.57605
 N103 N 0.01831 0.27318 0.54547
 C104 C 0.04318 0.30057 0.53942
 C105 C 0.04580 0.32894 0.56342
 C106 C -0.00083 0.29901 0.60114
 C107 C 0.04213 0.18899 0.46960
 C108 C 0.06599 0.16052 0.46560
 C109 C 0.10373 0.18505 0.51311
 C110 C 0.07884 0.21300 0.51647
 N111 N 0.04839 0.21392 0.49534
 H112 H -0.02303 0.24971 0.57990
 H113 H 0.05926 0.30160 0.51456
 H114 H 0.06452 0.35141 0.55712
 H115 H -0.01917 0.29813 0.62440
 H116 H 0.01736 0.19004 0.45366
 H117 H 0.05961 0.14012 0.44597
 H118 H 0.12699 0.18370 0.53125
 H119 H 0.08285 0.23269 0.53729
 C120 C -0.08136 0.15455 0.51950
 C121 C -0.00897 0.33460 0.41463
 C122 C 0.09669 0.15765 0.48828
 C123 C 0.02279 0.32898 0.59412
 C124 C 0.96026 0.68471 0.52853
 H125 H 0.94437 0.68502 0.50359
 C126 C 0.95770 0.65489 0.55331
 H127 H 0.93926 0.63258 0.54755
 C128 C 1.00566 0.71230 0.56475
 H129 H 1.02544 0.73396 0.56821
 C130 C 1.00351 0.68321 0.59065
 H131 H 1.02149 0.68299 0.61413
 N132 N 0.98469 0.71209 0.53408
 C133 C 0.95948 0.80250 0.45863
 H134 H 0.98392 0.80306 0.44208
 C135 C 0.93558 0.83138 0.45572
 H136 H 0.94156 0.85382 0.43636
 C137 C 0.92374 0.77379 0.50602
 H138 H 0.92017 0.75207 0.52667
 C139 C 0.89878 0.80199 0.50368
 H140 H 0.87593 0.80149 0.52243
 Zn141 Zn 0.99357 0.74444 0.49342
 N142 N 0.95379 0.77507 0.48422
 C143 C 0.98123 0.71487 0.42329
 N144 N 1.00244 0.71465 0.45381
 C145 C 1.02767 0.68871 0.46025
 C146 C 1.03104 0.66033 0.43656
 C147 C 0.98403 0.68709 0.39850
 C148 C 1.02833 0.80135 0.52682
 C149 C 1.05345 0.82980 0.53025
 C150 C 1.09047 0.80379 0.48374
 C151 C 1.06431 0.77596 0.48085
 N152 N 1.03372 0.77565 0.50187
 H153 H 0.96084 0.73537 0.41916
 H154 H 1.04372 0.68895 0.48507
 H155 H 1.05026 0.63912 0.44307
 H156 H 0.96589 0.68667 0.37516
 H157 H 1.00350 0.80069 0.54276
 H158 H 1.04794 0.85071 0.54935
 H159 H 1.11400 0.80445 0.46585
 H160 H 1.06768 0.75567 0.46067
 C161 C 0.90539 0.83192 0.47922
 C162 C 0.98022 0.65344 0.58432
 C163 C 1.08457 0.83176 0.50791
 C164 C 1.00832 0.65870 0.40579
 C165 C 0.46774 -0.04786 0.30974
 H166 H 0.49251 -0.06321 0.31095
 C167 C 0.44293 -0.05111 0.33867
 H168 H 0.44857 -0.06954 0.36180
 C169 C 0.43192 -0.00305 0.27935
 H170 H 0.42859 0.01680 0.25698
 C171 C 0.40606 -0.00583 0.30752
 H172 H 0.38280 0.01173 0.30628
 N173 N 0.46241 -0.02336 0.28143
 C174 C 0.53886 -0.04491 0.19451
 H175 H 0.55436 -0.01963 0.19450
 C176 C 0.54344 -0.06853 0.16615
 H177 H 0.56309 -0.06112 0.14487
 C178 C 0.49289 -0.08338 0.22139
 H179 H 0.47229 -0.08826 0.24227
 C180 C 0.49690 -0.10817 0.19370
 H181 H 0.47940 -0.13218 0.19402
 Zn182 Zn 0.50291 -0.01298 0.25060
 N183 N 0.51321 -0.05210 0.22073
 C184 C 0.57271 -0.02309 0.28339
 N185 N 0.54205 -0.00300 0.28232
 C186 C 0.53576 0.02213 0.30763
 C187 C 0.56008 0.02692 0.33633
 C188 C 0.59801 -0.01897 0.31161
 C189 C 0.46995 0.02113 0.19058
 C190 C 0.46587 0.04687 0.16181
 C191 C 0.50993 0.08565 0.19093
 C192 C 0.51359 0.05885 0.21896
 N193 N 0.49398 0.02718 0.21802
 H194 H 0.57679 -0.04345 0.26341
 H195 H 0.51085 0.03727 0.30643
 H196 H 0.55384 0.04629 0.35681
 H197 H 0.62161 -0.03608 0.31284
 H198 H 0.45510 -0.00452 0.19027
 H199 H 0.44740 0.04099 0.13965
 H200 H 0.52653 0.11023 0.19149
 H201 H 0.53309 0.06282 0.24061
 C202 C 0.52142 -0.10015 0.16461
 C203 C 0.41217 -0.02913 0.33831
 C204 C 0.48651 0.07936 0.16138
 C205 C 0.59127 0.00560 0.33913
 C206 C 0.56304 -0.00825 0.71793
 H207 H 0.55792 -0.03194 0.73571
 C208 C 0.58983 -0.00937 0.69071
 H209 H 0.60470 -0.03413 0.68757
 C210 C 0.54969 0.05242 0.69944
 H211 H 0.53451 0.07674 0.70332
 C212 C 0.57563 0.05231 0.67166
 H213 H 0.57964 0.07642 0.65394
 N214 N 0.54250 0.02189 0.72071
 C215 C 0.49015 -0.00577 0.82132
 H216 H 0.48594 0.02226 0.82714
 C217 C 0.48924 -0.03142 0.85031
 H218 H 0.48495 -0.02220 0.87772
 C219 C 0.49924 -0.05148 0.77885
 H220 H 0.50244 -0.05921 0.75081
 C221 C 0.49864 -0.07836 0.80739
 H222 H 0.50204 -0.10654 0.80107
 Zn223 Zn 0.50002 0.02371 0.75043
 N224 N 0.49628 -0.01571 0.78641
 C225 C 0.43545 -0.00517 0.71862
 N226 N 0.45912 0.02374 0.71860
 C227 C 0.45667 0.05153 0.69299
 C228 C 0.43195 0.04947 0.66422
 C229 C 0.40968 -0.00799 0.69061
 C230 C 0.53431 0.07137 0.79579
 C231 C 0.53578 0.09554 0.82407
 C232 C 0.47440 0.11327 0.80930
 C233 C 0.47383 0.08815 0.78157
 N234 N 0.50312 0.06695 0.77640
 H235 H 0.43760 -0.02690 0.73931
 H236 H 0.47477 0.07484 0.69402
 H237 H 0.43160 0.07112 0.64318
 H238 H 0.39217 -0.03194 0.68999
 H239 H 0.55694 0.05373 0.79140
 H240 H 0.55997 0.09689 0.84090
 H241 H 0.45013 0.12829 0.81484
 H242 H 0.44912 0.08360 0.76627
 C243 C 0.49432 -0.06822 0.84384
 C244 C 0.59521 0.02075 0.66624
 C245 C 0.50507 0.11574 0.83202
 C246 C 0.40881 0.01894 0.66223
 C247 C 0.21074 -0.04052 0.50019
 C248 C 0.23112 -0.00790 0.49899
 C249 C 0.21344 0.02556 0.49738
 C250 C 0.17534 0.02655 0.49624
 C251 C 0.15522 -0.00629 0.49812
 C252 C 0.17262 -0.03990 0.50045
 C253 C 0.27103 -0.00878 0.49951
 C254 C 0.29030 -0.01408 0.46706
 C255 C 0.32845 -0.01471 0.46730
 C256 C 0.34703 -0.00941 0.50033
 C257 C 0.32795 -0.00393 0.53291
 C258 C 0.28984 -0.00401 0.53240
 H259 H 0.22463 -0.06622 0.50180
 H260 H 0.22940 0.05064 0.49615
 H261 H 0.27552 -0.01791 0.44180
 H262 H 0.27479 0.00036 0.55732
 H263 H 0.12578 -0.00567 0.49780
 H264 H 0.37649 -0.00937 0.50071
 C265 C 0.78994 -0.03688 0.49635
 C266 C 0.77263 -0.00402 0.50209
 C267 C 0.79336 0.02775 0.50697
 C268 C 0.83145 0.02698 0.50631
 C269 C 0.84857 -0.00603 0.50043
 C270 C 0.82807 -0.03805 0.49533
 C271 C 0.73274 -0.00229 0.50257
 C272 C 0.71446 0.00175 0.53583
 C273 C 0.67694 0.00758 0.53610
 C274 C 0.65790 0.00942 0.50279
 C275 C 0.67572 0.00448 0.46934
 C276 C 0.71329 -0.00165 0.46950
 H277 H 0.77373 -0.06129 0.49238
 H278 H 0.77971 0.05300 0.51141
 H279 H 0.72963 0.00136 0.56129
 H280 H 0.72770 -0.00459 0.44392
 H281 H 0.87799 -0.00680 0.49976
 H282 H 0.62887 0.01386 0.50308
 C283 C 0.52510 0.29411 1.00425
 C284 C 0.49186 0.27506 1.00816
 C285 C 0.45968 0.29395 1.01333
 C286 C 0.46056 0.33199 1.01471
 C287 C 0.49401 0.35082 1.01055
 C288 C 0.52635 0.33213 1.00513
 C289 C 0.49073 0.23538 1.00552
 C290 C 0.48878 0.21275 1.03738
 C291 C 0.48894 0.17479 1.03498
 C292 C 0.49151 0.15989 1.00027
 C293 C 0.49348 0.18242 0.96827
 C294 C 0.49274 0.22020 0.97105
 H295 H 0.54979 0.27930 0.99979
 H296 H 0.43408 0.27900 1.01615
 H297 H 0.48717 0.22478 1.06390
 H298 H 0.49462 0.23787 0.94655
 H299 H 0.49486 0.38022 1.01117
 H300 H 0.49215 0.13065 0.99808
 C301 C 0.53492 0.71358 -0.00207
 C302 C 0.50272 0.73319 -0.00522
 C303 C 0.46941 0.71485 -0.01013
 C304 C 0.46814 0.67683 -0.01196
 C305 C 0.50061 0.65746 -0.00855
 C306 C 0.53407 0.67559 -0.00349
 C307 C 0.50405 0.77291 -0.00258
 C308 C 0.50133 0.79559 -0.03437
 C309 C 0.50430 0.83352 -0.03213
 C310 C 0.51035 0.84822 0.00233
 C311 C 0.51260 0.82583 0.03426
 C312 C 0.50926 0.78808 0.03170
 H313 H 0.56050 0.72794 0.00205
 H314 H 0.44463 0.73022 -0.01250
 H315 H 0.49708 0.78360 -0.06065
 H316 H 0.51126 0.77047 0.05616
 H317 H 0.49984 0.62810 -0.00961
 H318 H 0.51278 0.87741 0.00458
 C319 C 0.99975 0.53054 0.28779
 C320 C 0.99761 0.49799 0.26930
 C321 C 0.99521 0.46459 0.28919
 C322 C 0.99444 0.46363 0.32764
 C323 C 0.99669 0.49637 0.34592
 C324 C 0.99964 0.52993 0.32623
 C325 C 0.99798 0.49903 0.22905
 C326 C 1.03098 0.50381 0.21006
 C327 C 1.03140 0.50603 0.17162
 C328 C 0.99853 0.50280 0.15239
 C329 C 0.96536 0.49756 0.17117
 C330 C 0.96526 0.49600 0.20965
 H331 H 1.00196 0.55620 0.27216
 H332 H 0.99354 0.43952 0.27472
 H333 H 1.05614 0.50636 0.22525
 H334 H 0.93989 0.49218 0.22458
 H335 H 0.99640 0.49566 0.37564
 H336 H 0.99883 0.50429 0.12267
 C337 C -0.00612 0.52187 0.70859
 C338 C -0.00089 0.48934 0.72905
 C339 C 0.00508 0.45707 0.71111
 C340 C 0.00590 0.45720 0.67264
 C341 C 0.00051 0.49001 0.65240
 C342 C -0.00551 0.52246 0.67016
 C343 C -0.00136 0.48939 0.76932
 C344 C -0.03408 0.49471 0.78790
 C345 C -0.03450 0.49650 0.82621
 C346 C -0.00180 0.49261 0.84571
 C347 C 0.03114 0.48729 0.82737
 C348 C 0.03115 0.48574 0.78903
 H349 H -0.01073 0.54667 0.72271
 H350 H 0.00927 0.43204 0.72715
 H351 H -0.05901 0.49799 0.77240
 H352 H 0.05638 0.48193 0.77444
 H353 H 0.00107 0.49031 0.62270
 H354 H -0.00193 0.49406 0.87530
 N355 N 0.10434 0.09342 0.47513
 C356 C 0.11873 0.12444 0.48835
 N357 N 0.15244 0.12342 0.50360
 N358 N 0.17088 0.09255 0.50554
 C359 C 0.15612 0.06143 0.49274
 N360 N 0.12258 0.06259 0.47735
 N361 N 0.59639 0.60053 0.01821
 C362 C 0.62911 0.61491 0.00728
 N363 N 0.63061 0.64967 -0.00683
 N364 N 0.60053 0.66923 -0.00977
 C365 C 0.56776 0.65461 0.00080
 N366 N 0.56634 0.61992 0.01493
 N367 N 0.89828 -0.10220 0.46935
 C368 C 0.88358 -0.13484 0.48084
 N369 N 0.84990 -0.13569 0.49624
 N370 N 0.83177 -0.10506 0.50008
 C371 C 0.84684 -0.07238 0.48910
 N372 N 0.88035 -0.07162 0.47349
 N373 N 0.39827 0.40578 1.03478
 C374 C 0.36574 0.39248 1.02329
 N375 N 0.36424 0.35850 1.01017
 N376 N 0.39416 0.33879 1.00836
 C377 C 0.42680 0.35245 1.01925
 N378 N 0.42817 0.38623 1.03271
 N379 N 0.90823 0.08849 0.52762
 C380 C 0.89489 0.12173 0.51822
 N381 N 0.86025 0.12377 0.50550
 N382 N 0.83984 0.09376 0.50233
 C383 C 0.85340 0.06048 0.51131
 N384 N 0.88796 0.05850 0.52413
 N385 N 0.37037 0.65150 -0.00712
 C386 C 0.36994 0.61791 -0.02120
 N387 N 0.40170 0.60450 -0.03328
 N388 N 0.43266 0.62354 -0.03092
 C389 C 0.43321 0.65693 -0.01656
 N390 N 0.40137 0.67072 -0.00503
 N391 N 0.14289 -0.13594 0.49356
 C392 C 0.10870 -0.13561 0.50771
 N393 N 0.09608 -0.10392 0.51992
 N394 N 0.11656 -0.07373 0.51781
 C395 C 0.15064 -0.07395 0.50356
 N396 N 0.16356 -0.10573 0.49174
 N397 N 0.59189 0.40615 0.98058
 C398 C 0.62410 0.39167 0.99105
 N399 N 0.62419 0.35712 1.00575
 N400 N 0.59323 0.33787 1.00972
 C401 C 0.56098 0.35263 0.99963
 N402 N 0.56098 0.38708 0.98488
 N403 N 0.47397 0.09343 1.09615
 C404 C 0.48546 0.10504 1.12908
 N405 N 0.49753 0.14001 1.13113
 N406 N 0.49810 0.16240 1.10141
 C407 C 0.48699 0.15059 1.06840
 N408 N 0.47482 0.11569 1.06643
 N409 N -0.02775 0.58727 0.59396
 C410 C -0.01821 0.61976 0.60777
 N411 N -0.00505 0.62020 0.64252
 N412 N -0.00162 0.58936 0.66260
 C413 C -0.01074 0.55684 0.64856
 N414 N -0.02399 0.55644 0.61389
 N415 N 0.49531 0.91738 -0.08992
 C416 C 0.49592 0.90523 -0.12447
 N417 N 0.49897 0.86891 -0.12882
 N418 N 0.50135 0.84587 -0.09965
 C419 C 0.50096 0.85829 -0.06506
 N420 N 0.49777 0.89450 -0.06094
 N421 N 0.97239 0.39598 0.40195
 C422 C 0.98988 0.36601 0.39128
 N423 N 1.00781 0.36803 0.35860
 N424 N 1.00849 0.39872 0.33779
 C425 C 0.99164 0.42878 0.34906
 N426 N 0.97343 0.42673 0.38143
 N427 N 0.50123 0.84788 0.13127
 C428 C 0.52199 0.87875 0.13332
 N429 N 0.54129 0.89046 0.10315
 N430 N 0.53909 0.87294 0.07210
 C431 C 0.51785 0.84260 0.06991
 N432 N 0.49933 0.83005 0.10024
 N433 N 0.03133 0.39469 0.60107
 C434 C 0.02083 0.36175 0.61609
 N435 N 0.00615 0.36017 0.65032
 N436 N 0.00211 0.39037 0.66870
 C437 C 0.01214 0.42335 0.65337
 N438 N 0.02699 0.42485 0.61927
 N439 N 0.52118 0.12129 0.89665
 C440 C 0.50358 0.13499 0.86659
 N441 N 0.48283 0.16480 0.86993
 N442 N 0.48007 0.18038 0.90212
 C443 C 0.49736 0.16629 0.93225
 N444 N 0.51801 0.13652 0.92886
 N445 N 0.99370 0.62642 0.34940
 C446 C 1.00777 0.62589 0.38383
 N447 N 1.01953 0.59386 0.39884
 N448 N 1.01711 0.56354 0.38039
 C449 C 1.00299 0.56398 0.34606
 N450 N 0.99158 0.59608 0.33077
 N451 N 1.12766 0.49975 0.14433
 C452 C 1.12841 0.51872 0.11149
 N453 N 1.09727 0.53450 0.09943
 N454 N 1.06665 0.53084 0.11878
 C455 C 1.06589 0.51157 0.15131
 N456 N 1.09709 0.49645 0.16396
 N457 N 0.64677 -0.00437 0.63255
 C458 C 0.61835 0.01861 0.63335
 N459 N 0.61004 0.03845 0.60238
 N460 N 0.62900 0.03520 0.57169
 C461 C 0.65733 0.01224 0.57080
 N462 N 0.66608 -0.00730 0.60188
 N463 N -0.09839 0.52304 0.89773
 C464 C -0.13104 0.51217 0.88428
 N465 N -0.13197 0.49674 0.85112
 N466 N -0.10141 0.49236 0.83226
 C467 C -0.06871 0.50279 0.84605
 N468 N -0.06787 0.51837 0.87907
 N469 N 0.40240 -0.03815 0.40476
 C470 C 0.38893 -0.02789 0.37135
 N471 N 0.35496 -0.01407 0.36949
 N472 N 0.33535 -0.01060 0.39985
 C473 C 0.34913 -0.02037 0.43330
 N474 N 0.38297 -0.03438 0.43509
 N475 N 0.12807 0.49472 0.85319
 C476 C 0.12731 0.48259 0.88890
 N477 N 0.09503 0.47108 0.90377
 N478 N 0.06467 0.47206 0.88401
 C479 C 0.06533 0.48436 0.84843
 N480 N 0.09769 0.49539 0.83328
 N481 N 0.60245 0.02287 0.40255
 C482 C 0.61467 0.00708 0.37208
 N483 N 0.64764 -0.00899 0.37341
 N484 N 0.66742 -0.00931 0.40404
 C485 C 0.65487 0.00612 0.43464
 N486 N 0.62207 0.02235 0.43315
 N487 N 0.86841 0.50176 0.14494
 C488 C 0.86891 0.48876 0.11066
 N489 N 0.90108 0.47813 0.09680
 N490 N 0.93156 0.48069 0.11619
 C491 C 0.93114 0.49377 0.15037
 N492 N 0.89891 0.50399 0.16452
 N493 N 0.35456 -0.00511 0.63059
 C494 C 0.38653 0.01405 0.62911
 N495 N 0.39878 0.02745 0.59603
 N496 N 0.38005 0.02175 0.56558
 C497 C 0.34810 0.00271 0.56699
 N498 N 0.33554 -0.01042 0.60011
   
