data_POSCAR
  _audit_creation_date              2014-09-24
  _audit_creation_method            'ToBaCCo'
  _symmetry_space_group_name_H-M    'P1'
  _symmetry_Int_Tables_number       1
  _symmetry_cell_setting            triclinic
  loop_
  _symmetry_equiv_pos_as_xyz
 x,y,z
_cell_length_a 40.1726
_cell_length_b 38.6200
_cell_length_c 39.9028
_cell_angle_alpha 90.838600
_cell_angle_beta 88.423800
_cell_angle_gamma 85.143900
loop_
  _atom_site_label
  _atom_site_type_symbol
  _atom_site_fract_x
  _atom_site_fract_y
  _atom_site_fract_z
C1 C 0.61018 0.66014 0.63275
 N2 N 0.61227 0.63376 0.65492
 C3 C 0.63872 0.60930 0.65369
 N4 N 0.66318 0.61158 0.62976
 C5 C 0.66130 0.63774 0.60731
 N6 N 0.63473 0.66198 0.60893
 C7 C 0.89176 0.34673 0.11076
 N8 N 0.86906 0.34965 0.08605
 C9 C 0.84431 0.37593 0.08676
 N10 N 0.84235 0.39962 0.11237
 C11 C 0.86488 0.39714 0.13713
 N12 N 0.88942 0.37068 0.13624
 C13 C 0.40310 0.15613 -0.11401
 N14 N 0.37827 0.15676 -0.09016
 C15 C 0.35471 0.13357 -0.09148
 N16 N 0.35611 0.10960 -0.11686
 C17 C 0.38083 0.10878 -0.14087
 N18 N 0.40424 0.13212 -0.13932
 C19 C 0.09253 0.84232 0.38729
 N20 N 0.09170 0.86612 0.36246
 C21 C 0.11507 0.88955 0.36000
 N22 N 0.13961 0.88890 0.38285
 C23 C 0.14074 0.86541 0.40787
 N24 N 0.11718 0.84227 0.40998
 N25 N 0.08508 0.16774 0.11966
 N26 N 0.07444 0.15688 0.14881
 C27 C 0.04715 0.17733 0.15917
 C28 C 0.04008 0.20181 0.13490
 C29 C 0.06451 0.19491 0.11010
 H30 H 0.03328 0.17462 0.18246
 H31 H 0.06767 0.20937 0.08739
 Cu32 Cu 0.09708 0.11675 0.16998
 Cu33 Cu 0.12628 0.14771 0.09766
 Cu34 Cu 0.16790 0.07704 0.13569
 N35 N 0.11954 0.07584 0.18999
 N36 N 0.14818 0.06159 0.17745
 C37 C 0.15925 0.03514 0.19696
 C38 C 0.13595 0.03230 0.22265
 C39 C 0.11099 0.05833 0.21744
 H40 H 0.18210 0.01866 0.19242
 H41 H 0.08864 0.06432 0.23287
 N42 N 0.18372 0.09647 0.09331
 N43 N 0.16836 0.12397 0.07936
 C44 C 0.18601 0.13192 0.05175
 C45 C 0.21341 0.10795 0.04786
 C46 C 0.21115 0.08576 0.07451
 H47 H 0.17935 0.15334 0.03541
 H48 H 0.22868 0.06396 0.08013
 H49 H 0.12373 0.09828 0.11633
 H50 H 0.14874 0.12832 0.14027
 N51 N 0.41113 0.83593 0.60256
 N52 N 0.42230 0.84800 0.63071
 C53 C 0.45061 0.82893 0.63839
 C54 C 0.45775 0.80393 0.61348
 C55 C 0.43224 0.80918 0.59107
 H56 H 0.46535 0.83319 0.66011
 H57 H 0.42902 0.79427 0.56842
 Cu58 Cu 0.39936 0.88820 0.65384
 Cu59 Cu 0.36950 0.85506 0.58356
 Cu60 Cu 0.32780 0.92640 0.62485
 N61 N 0.37600 0.92842 0.67657
 N62 N 0.34753 0.94265 0.66565
 C63 C 0.33623 0.96916 0.68636
 C64 C 0.35909 0.97196 0.71135
 C65 C 0.38406 0.94577 0.70431
 H66 H 0.31342 0.98560 0.68317
 H67 H 0.40616 0.93960 0.71866
 N68 N 0.31187 0.90604 0.58326
 N69 N 0.32707 0.87809 0.56829
 C70 C 0.30926 0.86947 0.54177
 C71 C 0.28190 0.89344 0.53965
 C72 C 0.28437 0.91634 0.56621
 H73 H 0.31584 0.84765 0.52489
 H74 H 0.26694 0.93836 0.57297
 H75 H 0.37181 0.90502 0.60216
 H76 H 0.34748 0.87538 0.62785
 N77 N 0.91578 0.67581 0.38474
 N78 N 0.92706 0.66425 0.35504
 C79 C 0.95054 0.68451 0.34380
 C80 C 0.95454 0.70959 0.36804
 C81 C 0.93226 0.70327 0.39376
 H82 H 0.96431 0.68091 0.32017
 H83 H 0.92801 0.71795 0.41700
 Cu84 Cu 0.91122 0.62269 0.33503
 Cu85 Cu 0.87944 0.65550 0.40869
 Cu86 Cu 0.84905 0.58298 0.37188
 N87 N 0.89460 0.58154 0.31498
 N88 N 0.86940 0.56693 0.32895
 C89 C 0.86218 0.53977 0.30974
 C90 C 0.88440 0.53688 0.28259
 C91 C 0.90471 0.56370 0.28673
 H92 H 0.84279 0.52281 0.31550
 H93 H 0.92506 0.56986 0.27017
 N94 N 0.83180 0.60312 0.41526
 N95 N 0.84270 0.63128 0.42883
 C96 C 0.82501 0.63938 0.45746
 C97 C 0.80231 0.61484 0.46236
 C98 C 0.80737 0.59219 0.43524
 H99 H 0.82852 0.66127 0.47380
 H100 H 0.79368 0.56986 0.43016
 H101 H 0.89004 0.60564 0.38966
 H102 H 0.85883 0.63444 0.36699
 N103 N 0.58442 0.31918 -0.12154
 N104 N 0.57048 0.33610 -0.14660
 C105 C 0.54389 0.31987 -0.15633
 C106 C 0.54073 0.29167 -0.13591
 C107 C 0.56678 0.29206 -0.11402
 H108 H 0.52773 0.32810 -0.17647
 H109 H 0.57284 0.27350 -0.09461
 Cu110 Cu 0.58785 0.37810 -0.16371
 Cu111 Cu 0.62524 0.33258 -0.10170
 Cu112 Cu 0.65944 0.40469 -0.13445
 N113 N 0.60761 0.41844 -0.18170
 N114 N 0.63648 0.42757 -0.17143
 C115 C 0.64509 0.45508 -0.18903
 C116 C 0.61997 0.46398 -0.21106
 C117 C 0.59651 0.44033 -0.20570
 H118 H 0.66747 0.46827 -0.18550
 H119 H 0.57339 0.43899 -0.21871
 N120 N 0.67894 0.37820 -0.09691
 N121 N 0.66643 0.35018 -0.08502
 C122 C 0.68546 0.33775 -0.05989
 C123 C 0.71078 0.35931 -0.05543
 C124 C 0.70585 0.38472 -0.07922
 H125 H 0.68076 0.31528 -0.04519
 H126 H 0.72090 0.40628 -0.08332
 H127 H 0.61814 0.38494 -0.11217
 H128 H 0.64252 0.35646 -0.14403
 C129 C -0.07664 0.29798 0.08111
 C130 C -0.08271 0.31936 0.10997
 C131 C -0.06273 0.31268 0.13807
 C132 C -0.03760 0.28511 0.13749
 C133 C -0.03114 0.26471 0.10797
 C134 C -0.05081 0.27134 0.07997
 C135 C -0.00533 0.23781 0.10710
 C136 C 0.01311 0.23014 0.13581
 C137 C 0.00583 0.24975 0.16537
 C138 C -0.01900 0.27738 0.16608
 H139 H -0.06714 0.32832 0.16080
 H140 H -0.04640 0.25575 0.05724
 H141 H -0.00002 0.22237 0.08436
 H142 H -0.02379 0.29255 0.18903
 H143 H -0.09137 0.30220 0.05898
 H144 H 0.01990 0.24416 0.18771
 C145 C 0.56589 0.69611 0.66579
 C146 C 0.58145 0.68664 0.63466
 C147 C 0.56932 0.70249 0.60543
 C148 C 0.54170 0.72735 0.60724
 C149 C 0.52672 0.73730 0.63879
 C150 C 0.53899 0.72152 0.66789
 C151 C 0.49955 0.76266 0.64067
 C152 C 0.48647 0.77742 0.61136
 C153 C 0.50096 0.76676 0.58007
 C154 C 0.52860 0.74221 0.57803
 H155 H 0.58094 0.69498 0.58127
 H156 H 0.52768 0.72868 0.69225
 H157 H 0.48817 0.77041 0.66488
 H158 H 0.53963 0.73474 0.55363
 H159 H 0.57490 0.68423 0.68861
 H160 H 0.49128 0.77793 0.55720
 C161 C 1.06593 0.79691 0.41771
 C162 C 1.06848 0.81787 0.38926
 C163 C 1.04679 0.81345 0.36260
 C164 C 1.02372 0.78813 0.36399
 C165 C 1.02096 0.76796 0.39305
 C166 C 1.04208 0.77266 0.41978
 C167 C 0.99757 0.74298 0.39460
 C168 C 0.97803 0.73683 0.36687
 C169 C 0.98150 0.75630 0.33778
 C170 C 1.00377 0.78218 0.33652
 H171 H 1.04847 0.82884 0.34020
 H172 H 1.04047 0.75723 0.44214
 H173 H 0.99526 0.72757 0.41692
 H174 H 1.00573 0.79718 0.31392
 H175 H 1.08202 0.79951 0.43878
 H176 H 0.96657 0.75179 0.31619
 C177 C 0.43935 0.19289 -0.08131
 C178 C 0.42870 0.18128 -0.11243
 C179 C 0.44262 0.19385 -0.14207
 C180 C 0.46673 0.21803 -0.14066
 C181 C 0.47794 0.22889 -0.10921
 C182 C 0.46407 0.21618 -0.07970
 C183 C 0.50256 0.25253 -0.10784
 C184 C 0.51526 0.26638 -0.13743
 C185 C 0.50340 0.25610 -0.16849
 C186 C 0.47963 0.23179 -0.17014
 H187 H 0.43419 0.18533 -0.16618
 H188 H 0.47218 0.22440 -0.05538
 H189 H 0.51130 0.26076 -0.08376
 H190 H 0.47118 0.22392 -0.19443
 H191 H 0.42894 0.18343 -0.05819
 H192 H 0.51299 0.26644 -0.19157
 C193 C 0.08549 -0.08106 0.31416
 C194 C 0.11383 -0.08591 0.33421
 C195 C 0.14093 -0.06573 0.32779
 C196 C 0.13988 -0.04165 0.30175
 C197 C 0.11081 -0.03632 0.28269
 C198 C 0.08380 -0.05615 0.28910
 C199 C 0.10942 -0.01154 0.25728
 C200 C 0.13729 0.00679 0.24970
 C201 C 0.16647 0.00055 0.26794
 C202 C 0.16760 -0.02308 0.29416
 H203 H 0.16327 -0.06926 0.34243
 H204 H 0.06144 -0.05263 0.27451
 H205 H 0.08702 -0.00708 0.24285
 H206 H 0.19022 -0.02706 0.30828
 H207 H 0.06413 -0.09597 0.31824
 H208 H 0.18816 0.01453 0.26231
 C209 C 0.67022 0.55979 -0.32088
 C210 C 0.64066 0.58197 -0.32327
 C211 C 0.61296 0.57606 -0.30224
 C212 C 0.61460 0.54840 -0.27978
 C213 C 0.64474 0.52708 -0.27703
 C214 C 0.67237 0.53302 -0.29766
 C215 C 0.64657 0.49992 -0.25398
 C216 C 0.61822 0.49292 -0.23474
 C217 C 0.58811 0.51355 -0.23832
 C218 C 0.58643 0.54142 -0.26030
 H219 H 0.58974 0.59235 -0.30384
 H220 H 0.69559 0.51674 -0.29608
 H221 H 0.66974 0.48369 -0.25158
 H222 H 0.56303 0.55731 -0.26227
 H223 H 0.69207 0.56341 -0.33653
 H224 H 0.56605 0.50846 -0.22360
 C225 C 0.41318 1.07075 0.81636
 C226 C 0.38229 1.08278 0.83150
 C227 C 0.35286 1.07011 0.81985
 C228 C 0.35422 1.04598 0.79309
 C229 C 0.38550 1.03353 0.77847
 C230 C 0.41482 1.04606 0.79032
 C231 C 0.38693 1.00903 0.75206
 C232 C 0.35744 0.99751 0.73938
 C233 C 0.32644 1.01055 0.75357
 C234 C 0.32484 1.03431 0.78045
 H235 H 0.32888 1.07959 0.83111
 H236 H 0.43899 1.03694 0.77929
 H237 H 0.41094 0.99948 0.74092
 H238 H 0.30064 1.04370 0.79121
 H239 H 0.43617 1.08011 0.82501
 H240 H 0.30342 1.00188 0.74425
 C241 C 0.83168 0.43758 0.17721
 C242 C 0.86289 0.42318 0.16466
 C243 C 0.89222 0.43409 0.17826
 C244 C 0.89042 0.45950 0.20390
 C245 C 0.85887 0.47324 0.21697
 C246 C 0.82967 0.46208 0.20346
 C247 C 0.85709 0.49815 0.24305
 C248 C 0.88638 0.51042 0.25541
 C249 C 0.91755 0.49731 0.24171
 C250 C 0.91960 0.47172 0.21644
 H251 H 0.91639 0.42341 0.16833
 H252 H 0.80529 0.47250 0.21301
 H253 H 0.83294 0.50855 0.25324
 H254 H 0.94396 0.46166 0.20657
 H255 H 0.80881 0.42945 0.16703
 H256 H 0.94040 0.50640 0.25102
 C257 C 0.31437 0.16647 -0.05160
 C258 C 0.32775 0.13454 -0.06556
 C259 C 0.31544 0.10359 -0.05444
 C260 C 0.29028 0.10449 -0.02925
 C261 C 0.27640 0.13683 -0.01590
 C262 C 0.28860 0.16766 -0.02727
 C263 C 0.25085 0.13778 0.00886
 C264 C 0.23982 0.10680 0.02134
 C265 C 0.25428 0.07478 0.00855
 C266 C 0.27901 0.07362 -0.01686
 H267 H 0.32599 0.07883 -0.06483
 H268 H 0.27841 0.19264 -0.01716
 H269 H 0.24012 0.16257 0.01901
 H270 H 0.28951 0.04860 -0.02662
 H271 H 0.32351 0.19059 -0.05991
 H272 H 0.24601 0.05064 0.01785
 C273 C 0.69536 0.67166 0.56833
 C274 C 0.68766 0.63946 0.58102
 C275 C 0.70494 0.60879 0.56807
 C276 C 0.72925 0.61020 0.54231
 C277 C 0.73725 0.64277 0.53011
 C278 C 0.72022 0.67334 0.54336
 C279 C 0.76174 0.64416 0.50450
 C280 C 0.77749 0.61339 0.49015
 C281 C 0.76897 0.58117 0.50205
 C282 C 0.74534 0.57958 0.52820
 H283 H 0.69884 0.58381 0.57742
 H284 H 0.72589 0.69851 0.53418
 H285 H 0.76787 0.66911 0.49509
 H286 H 0.73940 0.55440 0.53713
 H287 H 0.68237 0.69559 0.57803
 H288 H 0.78094 0.55718 0.49138
 C289 C 0.80531 0.41135 0.05050
 C290 C 0.81962 0.37864 0.06001
 C291 C 0.80986 0.34854 0.04416
 C292 C 0.78565 0.35104 0.01941
 C293 C 0.77187 0.38413 0.00956
 C294 C 0.78193 0.41410 0.02521
 C295 C 0.74792 0.38665 -0.01542
 C296 C 0.73672 0.35653 -0.02989
 C297 C 0.75006 0.32378 -0.01951
 C298 C 0.77463 0.32104 0.00466
 H299 H 0.82048 0.32319 0.05167
 H300 H 0.77148 0.43965 0.01811
 H301 H 0.73735 0.41201 -0.02296
 H302 H 0.78477 0.29548 0.01203
 H303 H 0.81256 0.43485 0.06238
 H304 H 0.74179 0.30027 -0.03045
 C305 C 0.18056 0.83321 0.44564
 C306 C 0.16750 0.86487 0.43247
 C307 C 0.18001 0.89598 0.44307
 C308 C 0.20508 0.89552 0.46691
 C309 C 0.21867 0.86343 0.47940
 C310 C 0.20624 0.83244 0.46859
 C311 C 0.24419 0.86291 0.50274
 C312 C 0.25547 0.89410 0.51468
 C313 C 0.24127 0.92589 0.50281
 C314 C 0.21657 0.92660 0.47878
 H315 H 0.16971 0.92054 0.43331
 H316 H 0.21620 0.80764 0.47807
 H317 H 0.25473 0.83831 0.51221
 H318 H 0.20629 0.95143 0.46966
 H319 H 0.17127 0.80896 0.43772
 H320 H 0.24973 0.95019 0.51170
   
