data_POSCAR
  _audit_creation_date              2014-09-24
  _audit_creation_method            'ToBaCCo'
  _symmetry_space_group_name_H-M    'P1'
  _symmetry_Int_Tables_number       1
  _symmetry_cell_setting            triclinic
  loop_
  _symmetry_equiv_pos_as_xyz
 x,y,z
_cell_length_a 21.6033
_cell_length_b 21.6290
_cell_length_c 21.3512
_cell_angle_alpha 90.094900
_cell_angle_beta 90.145600
_cell_angle_gamma 89.875500
loop_
  _atom_site_label
  _atom_site_type_symbol
  _atom_site_fract_x
  _atom_site_fract_y
  _atom_site_fract_z
C1 C 0.14177 0.17991 0.22943
 C2 C 0.13209 0.21776 0.17724
 C3 C 0.17688 0.22154 0.13136
 C4 C 0.23185 0.18745 0.13720
 C5 C 0.24357 0.15364 0.19112
 C6 C 0.19789 0.14976 0.23793
 C7 C 0.10315 0.16202 0.27686
 N8 N 0.13482 0.12357 0.31542
 C9 C 0.19308 0.11599 0.29275
 C10 C 0.29985 0.12440 0.18264
 N11 N 0.32103 0.13823 0.12443
 C12 C 0.27935 0.17590 0.09602
 C13 C 0.15764 0.26573 0.08921
 N14 N 0.10274 0.28898 0.10910
 C15 C 0.08611 0.25953 0.16237
 H16 H 0.05496 0.17494 0.28233
 H17 H 0.22738 0.08457 0.31175
 H18 H 0.32087 0.09107 0.21402
 H19 H 0.28222 0.19171 0.04806
 H20 H 0.18364 0.28292 0.04963
 H21 H 0.04609 0.27104 0.19056
 C22 C -0.13522 0.83200 0.22075
 C23 C -0.13097 0.78751 0.17305
 C24 C -0.18169 0.77610 0.13503
 C25 C -0.23674 0.80961 0.14349
 C26 C -0.24208 0.85087 0.19277
 C27 C -0.19122 0.86129 0.23250
 C28 C -0.09299 0.85423 0.26348
 N29 N -0.12276 0.89385 0.30249
 C30 C -0.18295 0.89805 0.28468
 C31 C -0.29864 0.88000 0.18656
 N32 N -0.32733 0.85783 0.13448
 C33 C -0.28939 0.81536 0.10751
 C34 C -0.16665 0.72698 0.09694
 N35 N -0.10849 0.70810 0.11148
 C36 C -0.08561 0.74526 0.15716
 H37 H -0.04482 0.84073 0.26758
 H38 H -0.21750 0.92699 0.30691
 H39 H -0.31462 0.91910 0.21393
 H40 H -0.29737 0.79387 0.06236
 H41 H -0.19686 0.70440 0.06348
 H42 H -0.04104 0.73939 0.17975
 C43 C -0.15038 0.19375 -0.23556
 C44 C -0.16077 0.24367 -0.19502
 C45 C -0.20043 0.23707 -0.14473
 C46 C -0.23095 0.18080 -0.13513
 C47 C -0.21756 0.13014 -0.17243
 C48 C -0.17615 0.13658 -0.22249
 C49 C -0.11524 0.18736 -0.28893
 N50 N -0.11731 0.12724 -0.30667
 C51 C -0.15344 0.09555 -0.26597
 C52 C -0.25533 0.08234 -0.15331
 N53 N -0.29235 0.10395 -0.10690
 C54 C -0.27793 0.16394 -0.09557
 C55 C -0.19349 0.28854 -0.10735
 N56 N -0.15051 0.32577 -0.13381
 C57 C -0.13074 0.29920 -0.18774
 H58 H -0.08813 0.22295 -0.31153
 H59 H -0.16372 0.04662 -0.26894
 H60 H -0.25952 0.03734 -0.17527
 H61 H -0.30201 0.19388 -0.06295
 H62 H -0.21300 0.29517 -0.06116
 H63 H -0.09206 0.31543 -0.21533
 C64 C 0.14444 0.80487 -0.23457
 C65 C 0.15441 0.75421 -0.19504
 C66 C 0.19766 0.75803 -0.14725
 C67 C 0.23198 0.81242 -0.13906
 C68 C 0.21810 0.86444 -0.17420
 C69 C 0.17362 0.86061 -0.22218
 C70 C 0.10783 0.81298 -0.28686
 N71 N 0.11258 0.87280 -0.30481
 C72 C 0.15156 0.90268 -0.26507
 C73 C 0.25785 0.91077 -0.15507
 N74 N 0.29732 0.88664 -0.11192
 C75 C 0.28199 0.82671 -0.10182
 C76 C 0.18993 0.70677 -0.10986
 N77 N 0.14297 0.67259 -0.13387
 C78 C 0.12148 0.70061 -0.18632
 H79 H 0.07879 0.77858 -0.30916
 H80 H 0.16488 0.95080 -0.26891
 H81 H 0.26117 0.95678 -0.17475
 H82 H 0.30615 0.79559 -0.07040
 H83 H 0.21216 0.69838 -0.06514
 H84 H 0.08044 0.68669 -0.21190
 C85 C 0.19636 1.14165 0.77056
 C86 C 0.24732 1.15440 0.80891
 C87 C 0.24246 1.19805 0.85603
 C88 C 0.18667 1.22978 0.86482
 C89 C 0.13452 1.21325 0.83098
 C90 C 0.13947 1.16840 0.78360
 C91 C 0.18920 1.10462 0.71856
 N92 N 0.12885 1.10661 0.70151
 C93 C 0.09776 1.14442 0.74143
 C94 C 0.08699 1.25166 0.85007
 N95 N 0.11057 1.29275 0.89188
 C96 C 0.17129 1.27977 0.90121
 C97 C 0.29415 1.19249 0.89336
 N98 N 0.32945 1.14602 0.87018
 C99 C 0.30191 1.12314 0.81804
 H100 H 0.22474 1.07758 0.69550
 H101 H 0.04914 1.15633 0.73769
 H102 H 0.04060 1.25333 0.83072
 H103 H 0.20232 1.30597 0.93099
 H104 H 0.30186 1.21527 0.93784
 H105 H 0.31650 1.08168 0.79360
 C106 C 0.80439 0.85598 0.76123
 C107 C 0.75741 0.84793 0.80550
 C108 C 0.76519 0.80605 0.85392
 C109 C 0.81950 0.77075 0.85776
 C110 C 0.86727 0.78076 0.81599
 C111 C 0.85990 0.82445 0.76819
 C112 C 0.81006 0.89428 0.70997
 N113 N 0.86839 0.88793 0.68776
 C114 C 0.89944 0.84621 0.72333
 C115 C 0.91413 0.73969 0.83051
 N116 N 0.89483 0.70458 0.87919
 C117 C 0.83723 0.72301 0.89617
 C118 C 0.71659 0.81416 0.89468
 N119 N 0.67996 0.85978 0.87185
 C120 C 0.70398 0.88044 0.81725
 H121 H 0.77588 0.92667 0.69245
 H122 H 0.94723 0.83244 0.71655
 H123 H 0.95712 0.73325 0.80529
 H124 H 0.80962 0.70186 0.93258
 H125 H 0.71079 0.79203 0.93972
 H126 H 0.68674 0.91979 0.79112
 C127 C 0.17278 0.85956 1.22527
 C128 C 0.21463 0.86496 1.17556
 C129 C 0.22291 0.81597 1.13476
 C130 C 0.18874 0.76161 1.14248
 C131 C 0.14898 0.75541 1.19291
 C132 C 0.14207 0.80431 1.23565
 C133 C 0.15271 0.90090 1.26961
 N134 N 0.11289 0.87134 1.30830
 C135 C 0.10637 0.81203 1.28868
 C136 C 0.11708 0.70095 1.18444
 N137 N 0.13637 0.67474 1.13012
 C138 C 0.18025 0.71120 1.10423
 C139 C 0.26907 0.83216 1.09377
 N140 N 0.28910 0.88951 1.10920
 C141 C 0.25592 0.91045 1.15870
 H142 H 0.16685 0.94874 1.27423
 H143 H 0.07565 0.77830 1.30940
 H144 H 0.07860 0.68470 1.21228
 H145 H 0.20039 0.70425 1.05835
 H146 H 0.28908 0.80318 1.05767
 H147 H 0.26415 0.95363 1.18305
 C148 C 0.82757 1.14279 1.22953
 C149 C 0.78201 1.13457 1.18351
 C150 C 0.76997 1.18151 1.14123
 C151 C 0.80376 1.23672 1.14391
 C152 C 0.84687 1.24571 1.19122
 C153 C 0.85808 1.19884 1.23524
 C154 C 0.85169 1.10379 1.27387
 N155 N 0.89411 1.13546 1.30800
 C156 C 0.89810 1.19395 1.28563
 C157 C 0.87677 1.30035 1.17867
 N158 N 0.85329 1.32417 1.12488
 C159 C 0.80861 1.28580 1.10313
 C160 C 0.72180 1.16228 1.10396
 N161 N 0.70409 1.10532 1.12316
 C162 C 0.74087 1.08730 1.17127
 H163 H 0.83851 1.05611 1.28175
 H164 H 0.92947 1.22909 1.30287
 H165 H 0.91659 1.31850 1.20347
 H166 H 0.78510 1.29069 1.05857
 H167 H 0.69946 1.18867 1.06720
 H168 H 0.73605 1.04453 1.19710
 O169 O 0.42322 1.11377 1.11568
 O170 O 0.35164 1.07105 1.04891
 C171 C 0.36698 1.10728 1.09488
 O172 O 0.60301 1.10056 0.89795
 O173 O 0.66161 1.02983 0.95189
 C174 C 0.65572 1.07623 0.91400
 O175 O 0.43245 1.12252 0.89095
 O176 O 0.35594 1.07241 0.94512
 C177 C 0.37502 1.11289 0.90470
 O178 O 0.59697 1.09537 1.11664
 O179 O 0.65912 1.03040 1.05915
 C180 C 0.65077 1.07402 1.09996
 Zr181 Zr 0.50710 1.07379 1.08267
 O182 O 0.52165 1.17057 1.08444
 O183 O 0.50128 1.07141 1.18163
 Zr184 Zr 0.51172 1.07565 0.92358
 O185 O 0.52651 1.17206 0.91844
 O186 O 0.51016 1.06963 0.82455
 O187 O 0.45642 1.09415 1.00178
 O188 O 0.56333 1.07945 1.00487
 O189 O 0.57083 0.88124 1.11919
 O190 O 0.64591 0.92608 1.05880
 C191 C 0.62822 0.88928 1.10309
 O192 O 0.40164 0.88806 0.90269
 O193 O 0.34119 0.96567 0.94268
 C194 C 0.34835 0.91485 0.91124
 O195 O 0.57564 0.88163 0.88762
 O196 O 0.64863 0.92721 0.95083
 C197 C 0.63229 0.89064 0.90553
 O198 O 0.39664 0.89386 1.10263
 O199 O 0.33775 0.96371 1.04739
 C200 C 0.34385 0.91737 1.08532
 Zr201 Zr 0.48875 0.91929 1.07959
 O202 O 0.48451 0.82151 1.07852
 O203 O 0.47741 0.91899 1.17805
 Zr204 Zr 0.49236 0.92114 0.92120
 O205 O 0.48813 0.82442 0.90786
 O206 O 0.48417 0.92962 0.82271
 Zr207 Zr 0.40872 1.00950 0.99875
 Zr208 Zr 0.59146 0.98604 1.00404
 O209 O 0.54261 0.90205 1.00160
 O210 O 0.43495 0.91531 0.99894
 O211 O 0.55290 0.98975 1.09467
 O212 O 0.44848 1.00510 0.90908
 O213 O 0.44396 1.00276 1.09059
 O214 O 0.55753 0.99169 0.91153
 H215 H 0.59398 1.11342 1.00643
 H216 H 0.42053 1.00826 0.87233
 H217 H 0.56618 0.86271 1.00204
 H218 H 0.41504 1.00458 1.12651
 H219 H 0.55004 1.05150 0.81094
 H220 H 0.52480 0.94339 0.80670
 H221 H 0.48692 0.80570 0.95000
 H222 H 0.45030 0.80968 1.05002
 H223 H 0.51292 0.94150 1.19637
 H224 H 0.53564 1.04525 1.19718
 H225 H 0.48615 1.19028 1.06286
 H226 H 0.50991 1.18996 0.95758
 O227 O -0.12617 0.42824 0.10512
 O228 O -0.07724 0.35321 0.04730
 C229 C -0.11650 0.37104 0.08950
 O230 O -0.10035 0.60009 -0.11616
 O231 O -0.03299 0.65945 -0.05873
 C232 C -0.07727 0.65298 -0.09921
 O233 O -0.12450 0.42933 -0.11812
 O234 O -0.07755 0.35427 -0.05886
 C235 C -0.11658 0.37233 -0.10133
 O236 O -0.10363 0.60045 0.10365
 O237 O -0.03490 0.65969 0.04825
 C238 C -0.08000 0.65332 0.08754
 Zr239 Zr -0.08185 0.50947 0.07272
 O240 O -0.17837 0.52665 0.07124
 O241 O -0.08194 0.50534 0.17182
 Zr242 Zr -0.07789 0.50928 -0.08624
 O243 O -0.17390 0.52608 -0.09543
 O244 O -0.06861 0.50429 -0.18486
 O245 O -0.09973 0.45652 -0.00722
 O246 O -0.08401 0.56339 -0.00673
 O247 O 0.11114 0.57084 0.11461
 O248 O 0.06828 0.64528 0.05119
 C249 C 0.10368 0.62781 0.09701
 O250 O 0.10939 0.39692 -0.09593
 O251 O 0.02973 0.33843 -0.05795
 C252 C 0.08179 0.34432 -0.08734
 O253 O 0.11908 0.56904 -0.11601
 O254 O 0.07089 0.64432 -0.05815
 C255 C 0.10969 0.62623 -0.10070
 O256 O 0.09689 0.39660 0.10273
 O257 O 0.02908 0.33711 0.04570
 C258 C 0.07432 0.34360 0.08502
 Zr259 Zr 0.07267 0.48860 0.07678
 O260 O 0.17045 0.48308 0.08107
 O261 O 0.06849 0.48034 0.17547
 Zr262 Zr 0.07634 0.48807 -0.08148
 O263 O 0.17356 0.48230 -0.09045
 O264 O 0.07092 0.47722 -0.17995
 Zr265 Zr -0.01538 0.40755 -0.00503
 Zr266 Zr 0.00978 0.59028 -0.00430
 O267 O 0.09323 0.54012 -0.00191
 O268 O 0.07900 0.43280 -0.00204
 O269 O 0.00237 0.55409 0.08709
 O270 O -0.00756 0.44473 -0.09569
 O271 O -0.01169 0.44554 0.08577
 O272 O 0.00691 0.55387 -0.09596
 H273 H -0.11766 0.59458 -0.00718
 H274 H -0.00985 0.41582 -0.13169
 H275 H 0.13297 0.56288 -0.00074
 H276 H -0.01492 0.41771 0.12243
 H277 H -0.04907 0.54315 -0.19907
 H278 H 0.05864 0.51768 -0.19769
 H279 H 0.19030 0.47752 -0.04763
 H280 H 0.18341 0.44828 0.05393
 H281 H 0.04681 0.51737 0.19162
 H282 H -0.05751 0.54076 0.18760
 H283 H -0.19796 0.49317 0.04662
 H284 H -0.19407 0.50637 -0.05911
 O285 O 1.08721 -0.12654 0.41187
 O286 O 1.05569 -0.04933 0.34560
 C287 C 1.08338 -0.10131 0.35671
 O288 O 0.87175 -0.08522 0.58476
 O289 O 0.94413 -0.04914 0.65433
 C290 C 0.89443 -0.07963 0.64096
 O291 O 0.87861 -0.08635 0.40715
 O292 O 0.95303 -0.04568 0.34294
 C293 C 0.90345 -0.07796 0.35245
 O294 O 1.09225 -0.12372 0.59035
 O295 O 1.05033 -0.05212 0.65726
 C296 C 1.08348 -0.10069 0.64601
 Zr297 Zr 1.06778 -0.08667 0.50103
 O298 O 1.05948 -0.18393 0.50501
 O299 O 1.16511 -0.09725 0.49573
 Zr300 Zr 0.91261 -0.06155 0.49728
 O301 O 0.89872 -0.15837 0.50070
 O302 O 0.81586 -0.04794 0.48925
 O303 O 0.98974 -0.08503 0.44344
 O304 O 0.98729 -0.08656 0.55264
 O305 O 1.12900 0.08591 0.59669
 O306 O 1.05191 0.04938 0.66004
 C307 C 1.10317 0.07870 0.65124
 O308 O 0.91794 0.13360 0.41195
 O309 O 0.95756 0.06090 0.34470
 C310 C 0.92602 0.11058 0.35621
 O311 O 0.90766 0.12682 0.58965
 O312 O 0.94571 0.05258 0.65593
 C313 C 0.91346 0.10179 0.64473
 O314 O 1.13055 0.09786 0.41886
 O315 O 1.06037 0.05820 0.34881
 C316 C 1.10848 0.09135 0.36253
 Zr317 Zr 1.09257 0.06772 0.50550
 O318 O 1.10707 0.16401 0.51535
 O319 O 1.18946 0.05346 0.50203
 Zr320 Zr 0.93755 0.09318 0.50087
 O321 O 0.95074 0.18975 0.50928
 O322 O 0.84099 0.10763 0.49178
 Zr323 Zr 1.00506 0.00487 0.40875
 Zr324 Zr 0.99989 0.00137 0.59330
 O325 O 1.01502 0.09074 0.55735
 O326 O 1.01838 0.09341 0.44795
 O327 O 1.09041 -0.01240 0.55918
 O328 O 0.91534 0.01831 0.44489
 O329 O 1.09283 -0.01000 0.44926
 O330 O 0.91153 0.01661 0.55422
 H331 H 0.98192 -0.12358 0.57933
 H332 H 0.87957 0.02381 0.41628
 H333 H 1.01907 0.12651 0.58613
 H334 H 1.12953 -0.01446 0.42186
 H335 H 0.80365 -0.01806 0.52211
 H336 H 0.82083 0.08703 0.52765
 H337 H 0.98273 0.20156 0.47852
 H338 H 1.08769 0.18437 0.47875
 H339 H 1.19974 0.02172 0.53373
 H340 H 1.18260 -0.08484 0.53674
 H341 H 1.02032 -0.19446 0.48349
 H342 H 0.91722 -0.17636 0.46242
   
