data_POSCAR
  _audit_creation_date              2014-09-24
  _audit_creation_method            'ToBaCCo'
  _symmetry_space_group_name_H-M    'P1'
  _symmetry_Int_Tables_number       1
  _symmetry_cell_setting            triclinic
  loop_
  _symmetry_equiv_pos_as_xyz
 x,y,z
_cell_length_a 24.0509
_cell_length_b 20.5973
_cell_length_c 11.9141
_cell_angle_alpha 89.502200
_cell_angle_beta 90.971900
_cell_angle_gamma 122.311800
loop_
  _atom_site_label
  _atom_site_type_symbol
  _atom_site_fract_x
  _atom_site_fract_y
  _atom_site_fract_z
C1 C 0.31029 0.82223 0.45668
 C2 C 0.33254 0.84969 0.56486
 C3 C 0.39410 0.91635 0.58287
 C4 C 0.43406 0.96016 0.49195
 C5 C 0.40959 0.93199 0.38230
 C6 C 0.34925 0.86240 0.36496
 C7 C 0.50120 1.03196 0.51247
 C8 C 0.54771 1.06782 0.42551
 C9 C 0.61060 1.13247 0.44731
 C10 C 0.62960 1.15971 0.55692
 C11 C 0.58490 1.12527 0.64462
 C12 C 0.52074 1.06468 0.62123
 H13 H 0.26339 0.76880 0.44441
 H14 H 0.40970 0.93154 0.66909
 H15 H 0.43713 0.96174 0.30858
 H16 H 0.53690 1.04608 0.34073
 H17 H 0.67891 1.20837 0.57346
 H18 H 0.48731 1.04415 0.69053
 C19 C 0.15844 0.46678 0.45366
 C20 C 0.13515 0.46600 0.56031
 C21 C 0.07878 0.46885 0.57316
 C22 C 0.04229 0.46832 0.47847
 C23 C 0.06530 0.46540 0.37121
 C24 C 0.12419 0.46788 0.35866
 C25 C -0.01725 0.47407 0.49105
 C26 C -0.04104 0.49768 0.40042
 C27 C -0.09598 0.50346 0.41187
 C28 C -0.12598 0.49060 0.51629
 C29 C -0.10240 0.46898 0.60869
 C30 C -0.05015 0.45817 0.59448
 H31 H 0.20375 0.46794 0.44501
 H32 H 0.06507 0.47274 0.65752
 H33 H 0.03932 0.46346 0.29533
 H34 H -0.01702 0.51325 0.32020
 H35 H -0.16750 0.49713 0.52524
 H36 H -0.03590 0.43742 0.66593
 C37 C 0.46052 0.65902 0.46854
 C38 C 0.47468 0.64308 0.57537
 C39 C 0.48977 0.58689 0.59040
 C40 C 0.48672 0.54125 0.49964
 C41 C 0.46970 0.55647 0.39253
 C42 C 0.45898 0.61658 0.37626
 C43 C 0.50258 0.48002 0.51663
 C44 C 0.51872 0.44983 0.42544
 C45 C 0.53562 0.39468 0.44224
 C46 C 0.53861 0.37089 0.55109
 C47 C 0.52726 0.40388 0.64329
 C48 C 0.50632 0.45465 0.62554
 H49 H 0.45055 0.70418 0.45762
 H50 H 0.50503 0.58127 0.67364
 H51 H 0.46432 0.52225 0.32021
 H52 H 0.52061 0.47019 0.34100
 H53 H 0.55646 0.33294 0.56409
 H54 H 0.49557 0.47553 0.69949
 O55 O 0.43519 0.74869 -0.11191
 O56 O 0.33804 0.76873 -0.16666
 C57 C 0.27755 0.74577 -0.18295
 O58 O 0.23173 0.69675 -0.12016
 O59 O 0.20834 0.55930 -0.17045
 C60 C 0.22577 0.51132 -0.18514
 O61 O 0.26785 0.50854 -0.12244
 O62 O 0.38840 0.62608 -0.16459
 C63 C 0.43164 0.69757 -0.17598
 O64 O 0.40503 0.74453 0.10800
 O65 O 0.31590 0.77532 0.04914
 C66 C 0.27506 0.73281 0.12272
 O67 O 0.23120 0.66314 0.10200
 O68 O 0.19988 0.52444 0.04625
 C69 C 0.23486 0.51784 0.12033
 O70 O 0.29376 0.53803 0.10149
 O71 O 0.41399 0.64754 0.05603
 C72 C 0.41933 0.69458 0.12981
 Cr73 Cr 0.37247 0.75670 -0.03068
 Cr74 Cr 0.22009 0.61239 -0.03578
 Cr75 Cr 0.33984 0.58125 -0.03288
 O76 O 0.31081 0.65000 -0.03748
 O77 O 0.58305 0.28987 -0.07198
 O78 O 0.63542 0.21153 -0.02969
 C79 C 0.67990 0.23161 -0.10327
 O80 O 0.73929 0.28579 -0.08774
 O81 O 0.82091 0.43336 -0.07189
 C82 C 0.79839 0.45651 -0.14855
 O83 O 0.75141 0.46564 -0.13096
 O84 O 0.63188 0.41680 -0.07442
 C85 C 0.59125 0.35066 -0.11430
 O86 O 0.59092 0.32832 0.15082
 O87 O 0.64451 0.24843 0.19278
 C88 C 0.69322 0.24092 0.20413
 O89 O 0.74083 0.27109 0.13678
 O90 O 0.81312 0.42227 0.15387
 C91 C 0.82048 0.48829 0.15786
 O92 O 0.79360 0.51032 0.08666
 O93 O 0.67067 0.45335 0.13963
 C94 C 0.61915 0.39817 0.18362
 Cr95 Cr 0.61615 0.27264 0.06012
 Cr96 Cr 0.77605 0.35313 0.03341
 Cr97 Cr 0.71190 0.45846 0.00651
 O98 O 0.70085 0.36141 0.03595
 N99 N 0.29538 0.81259 -0.35018
 N100 N 0.25877 0.77702 -0.27197
 N101 N 0.16614 0.46164 -0.35204
 N102 N 0.19617 0.45557 -0.27238
 N103 N 0.47691 0.68347 -0.33906
 N104 N 0.48055 0.72374 -0.26030
 N105 N 0.60255 0.15369 -0.24268
 N106 N 0.66236 0.19555 -0.21081
 N107 N 0.86916 0.45640 -0.28215
 N108 N 0.82680 0.47294 -0.25771
 N109 N 0.55004 0.39986 -0.24668
 N110 N 0.55636 0.34494 -0.21559
 N111 N 0.88184 0.52267 0.32498
 N112 N 0.86149 0.54166 0.24345
 N113 N 0.65328 0.16512 0.36665
 N114 N 0.69552 0.19569 0.29380
 N115 N 0.55862 0.37030 0.35143
 N116 N 0.59248 0.41738 0.27418
 N117 N 0.15190 0.48175 0.24925
 N118 N 0.20795 0.49203 0.22933
 N119 N 0.33249 0.82993 0.25464
 N120 N 0.28207 0.76375 0.23245
 N121 N 0.44387 0.63098 0.26561
 N122 N 0.43964 0.68855 0.24070
   
