data_POSCAR
  _audit_creation_date              2014-09-24
  _audit_creation_method            'ToBaCCo'
  _symmetry_space_group_name_H-M    'P1'
  _symmetry_Int_Tables_number       1
  _symmetry_cell_setting            triclinic
  loop_
  _symmetry_equiv_pos_as_xyz
 x,y,z
_cell_length_a 40.4858
_cell_length_b 40.4693
_cell_length_c 40.4710
_cell_angle_alpha 89.832900
_cell_angle_beta 89.823100
_cell_angle_gamma 90.073700
loop_
  _atom_site_label
  _atom_site_type_symbol
  _atom_site_fract_x
  _atom_site_fract_y
  _atom_site_fract_z
C1 C 0.16895 0.16985 0.20895
 C2 C 0.19733 0.15552 0.19517
 C3 C 0.21149 0.16900 0.16646
 C4 C 0.19725 0.19686 0.15158
 C5 C 0.16890 0.21119 0.16533
 C6 C 0.15478 0.19771 0.19400
 H7 H 0.20820 0.13382 0.20660
 H8 H 0.20801 0.20725 0.12926
 H9 H 0.13271 0.20876 0.20446
 C10 C -0.16589 0.83177 0.21378
 C11 C -0.19445 0.84586 0.20023
 C12 C -0.20919 0.83168 0.17238
 C13 C -0.19540 0.80336 0.15808
 C14 C -0.16687 0.78924 0.17158
 C15 C -0.15214 0.80343 0.19943
 H16 H -0.20506 0.86791 0.21113
 H17 H -0.20667 0.79252 0.13638
 H18 H -0.12992 0.79256 0.20971
 C19 C -0.17031 0.16683 -0.21225
 C20 C -0.15689 0.19548 -0.19821
 C21 C -0.17131 0.20923 -0.16990
 C22 C -0.19919 0.19436 -0.15562
 C23 C -0.21267 0.16571 -0.16959
 C24 C -0.19823 0.15198 -0.19793
 H25 H -0.13516 0.20693 -0.20908
 H26 H -0.21017 0.20494 -0.13356
 H27 H -0.20852 0.12968 -0.20865
 C28 C 0.17062 0.83390 -0.21030
 C29 C 0.15559 0.80559 -0.19705
 C30 C 0.16878 0.79043 -0.16887
 C31 C 0.19706 0.80358 -0.15394
 C32 C 0.21214 0.83192 -0.16715
 C33 C 0.19889 0.84705 -0.19537
 H34 H 0.13359 0.79553 -0.20848
 H35 H 0.20709 0.79191 -0.13199
 H36 H 0.21036 0.86910 -0.20556
 C37 C 0.17151 1.16884 0.78977
 C38 C 0.15702 1.19708 0.80354
 C39 C 0.17038 1.21118 0.83212
 C40 C 0.19825 1.19705 0.84691
 C41 C 0.21275 1.16882 0.83317
 C42 C 0.19938 1.15474 0.80458
 H43 H 0.13530 1.20786 0.79222
 H44 H 0.20846 1.20782 0.86916
 H45 H 0.21047 1.13275 0.79407
 C46 C 0.83230 0.83322 0.78735
 C47 C 0.84634 0.80457 0.80086
 C48 C 0.83213 0.78973 0.82886
 C49 C 0.80383 0.80357 0.84329
 C50 C 0.78980 0.83218 0.82980
 C51 C 0.80401 0.84698 0.80183
 H52 H 0.86837 0.79401 0.78979
 H53 H 0.79289 0.79230 0.86510
 H54 H 0.79319 0.86927 0.79157
 C55 C 0.16630 0.82955 1.21224
 C56 C 0.19504 0.84291 1.19812
 C57 C 0.20886 0.82849 1.16985
 C58 C 0.19396 0.80067 1.15572
 C59 C 0.16525 0.78729 1.16980
 C60 C 0.15143 0.80170 1.19806
 H61 H 0.20650 0.86460 1.20887
 H62 H 0.20453 0.78965 1.13370
 H63 H 0.12906 0.79140 1.20878
 C64 C 0.83292 1.16910 1.21137
 C65 C 0.80468 1.15407 1.19819
 C66 C 0.78966 1.16733 1.16999
 C67 C 0.80283 1.19567 1.15495
 C68 C 0.83107 1.21076 1.16808
 C69 C 0.84609 1.19747 1.19631
 H70 H 0.79453 1.13198 1.20964
 H71 H 0.79126 1.20576 1.13298
 H72 H 0.86808 1.20901 1.20638
 O73 O 0.45373 1.05793 1.05979
 O74 O 0.41771 1.02565 1.03047
 C75 C 0.42406 1.04891 1.05149
 O76 O 0.54690 1.05497 0.94190
 O77 O 0.58291 1.02558 0.97417
 C78 C 0.57656 1.04665 0.95085
 O79 O 0.45397 1.05790 0.94516
 O80 O 0.41774 1.02621 0.97529
 C81 C 0.42425 1.04920 0.95385
 O82 O 0.54679 1.05480 1.06271
 O83 O 0.58291 1.02486 1.03097
 C84 C 0.57648 1.04617 1.05397
 Zr85 Zr 0.50026 1.03939 1.04419
 O86 O 0.50403 1.09158 1.04380
 O87 O 0.49647 1.03953 1.09637
 Zr88 Zr 0.50044 1.03941 0.96070
 O89 O 0.50421 1.09160 0.96087
 O90 O 0.49685 1.03963 0.90853
 O91 O 0.47087 1.04583 1.00245
 O92 O 0.52903 1.04544 1.00240
 O93 O 0.54671 0.94046 1.06316
 O94 O 0.58286 0.97040 1.03119
 C95 C 0.57641 0.94912 1.05434
 O96 O 0.45387 0.93726 0.94524
 O97 O 0.41779 0.96945 0.97466
 C98 C 0.42419 0.94629 0.95354
 O99 O 0.54678 0.94008 0.94234
 O100 O 0.58282 0.96952 0.97443
 C101 C 0.57644 0.94843 0.95126
 O102 O 0.45364 0.93724 1.06027
 O103 O 0.41769 0.96941 1.03067
 C104 C 0.42400 0.94621 1.05188
 Zr105 Zr 0.50017 0.95586 1.04458
 O106 O 0.50383 0.90369 1.04484
 O107 O 0.49637 0.95608 1.09677
 Zr108 Zr 0.50034 0.95564 0.96101
 O109 O 0.50393 0.90345 0.96182
 O110 O 0.49686 0.95521 0.90884
 Zr111 Zr 0.45127 0.99752 1.00257
 Zr112 Zr 0.54931 0.99758 1.00244
 O113 O 0.52890 0.94973 1.00279
 O114 O 0.47074 0.94924 1.00284
 O115 O 0.52963 0.99765 1.05076
 O116 O 0.47184 0.99754 0.95476
 O117 O 0.47157 0.99762 1.05041
 O118 O 0.52982 0.99752 0.95423
 H119 H 0.54403 1.06481 1.00238
 H120 H 0.45697 0.99762 0.93536
 H121 H 0.54385 0.93036 1.00293
 H122 H 0.45666 0.99763 1.06987
 H123 H 0.51501 1.02578 0.89988
 H124 H 0.51488 0.96929 0.90011
 H125 H 0.48483 0.89489 0.97453
 H126 H 0.48556 0.89502 1.03119
 H127 H 0.51495 0.96940 1.10533
 H128 H 0.51476 1.02589 1.10506
 H129 H 0.48542 1.10020 1.03057
 H130 H 0.48547 1.10021 0.97398
 O131 O 0.05727 0.45364 -0.05996
 O132 O 0.02551 0.41734 -0.02998
 C133 C 0.04856 0.42389 -0.05134
 O134 O 0.05396 0.54616 0.05782
 O135 O 0.02411 0.58242 0.02616
 C136 C 0.04536 0.57590 0.04918
 O137 O 0.05711 0.45315 0.05460
 O138 O 0.02489 0.41716 0.02519
 C139 C 0.04813 0.42349 0.04623
 O140 O 0.05442 0.54668 -0.06290
 O141 O 0.02489 0.58257 -0.03062
 C142 C 0.04609 0.57631 -0.05384
 Zr143 Zr 0.03871 0.50011 -0.04439
 O144 O 0.09088 0.50384 -0.04438
 O145 O 0.03874 0.49667 -0.09657
 Zr146 Zr 0.03860 0.49970 0.03911
 O147 O 0.09077 0.50349 0.03877
 O148 O 0.03872 0.49575 0.09129
 O149 O 0.04509 0.47042 -0.00271
 O150 O 0.04470 0.52858 -0.00259
 O151 O -0.06053 0.54656 -0.06270
 O152 O -0.03113 0.58250 -0.03044
 C153 C -0.05218 0.57621 -0.05367
 O154 O -0.06343 0.45304 0.05507
 O155 O -0.03133 0.41713 0.02533
 C156 C -0.05447 0.42340 0.04662
 O157 O -0.06023 0.54611 0.05820
 O158 O -0.03031 0.58237 0.02634
 C159 C -0.05156 0.57585 0.04950
 O160 O -0.06341 0.45357 -0.06001
 O161 O -0.03123 0.41740 -0.03069
 C162 C -0.05439 0.42385 -0.05177
 Zr163 Zr -0.04502 0.50002 -0.04414
 O164 O -0.09718 0.50363 -0.04342
 O165 O -0.04534 0.49667 -0.09633
 Zr166 Zr -0.04491 0.49962 0.03942
 O167 O -0.09707 0.50330 0.03940
 O168 O -0.04497 0.49569 0.09159
 Zr169 Zr -0.00320 0.45081 -0.00267
 Zr170 Zr -0.00313 0.54889 -0.00251
 O171 O -0.05097 0.52849 -0.00228
 O172 O -0.05147 0.47029 -0.00241
 O173 O -0.00314 0.52954 -0.05079
 O174 O -0.00316 0.47100 0.04522
 O175 O -0.00314 0.47151 -0.05043
 O176 O -0.00314 0.52906 0.04574
 H177 H 0.06408 0.54357 -0.00251
 H178 H -0.00316 0.45606 0.06466
 H179 H -0.07031 0.54347 -0.00211
 H180 H -0.00303 0.45666 -0.06985
 H181 H 0.02506 0.51400 0.10004
 H182 H -0.03134 0.51401 0.10024
 H183 H -0.10570 0.48476 0.02608
 H184 H -0.10575 0.48459 -0.03062
 H185 H -0.03122 0.51470 -0.10498
 H186 H 0.02531 0.51518 -0.10515
 H187 H 0.09948 0.48529 -0.03098
 H188 H 0.09941 0.48486 0.02557
 O189 O 1.06238 -0.05447 0.54646
 O190 O 1.03060 -0.02444 0.58246
 C191 C 1.05363 -0.04576 0.57612
 O192 O 1.05961 0.06294 0.45273
 O193 O 1.02954 0.03119 0.41685
 C194 C 1.05095 0.05417 0.42309
 O195 O 1.06265 0.05985 0.54590
 O196 O 1.03072 0.03000 0.58218
 C197 C 1.05386 0.05124 0.57565
 O198 O 1.05952 -0.05786 0.45346
 O199 O 1.03026 -0.02567 0.41724
 C200 C 1.05125 -0.04894 0.42373
 Zr201 Zr 1.04388 -0.03914 0.49984
 O202 O 1.09604 -0.03914 0.49607
 O203 O 1.04372 -0.09132 0.50384
 Zr204 Zr 1.04402 0.04445 0.49942
 O205 O 1.09618 0.04453 0.49562
 O206 O 1.04396 0.09664 0.50292
 O207 O 1.05032 0.00270 0.52904
 O208 O 1.05006 0.00260 0.47097
 O209 O 0.94467 -0.05769 0.45362
 O210 O 0.97427 -0.02561 0.41731
 C211 C 0.95306 -0.04878 0.42387
 O212 O 0.94182 0.06020 0.54602
 O213 O 0.97396 0.03085 0.58218
 C214 C 0.95074 0.05191 0.57573
 O215 O 0.94489 0.06285 0.45302
 O216 O 0.97433 0.03053 0.41705
 C217 C 0.95322 0.05375 0.42337
 O218 O 0.94169 -0.05473 0.54651
 O219 O 0.97386 -0.02523 0.58243
 C220 C 0.95065 -0.04638 0.57615
 Zr221 Zr 0.96032 -0.03912 0.49998
 O222 O 0.90816 -0.03908 0.49643
 O223 O 0.96042 -0.09130 0.50387
 Zr224 Zr 0.96058 0.04459 0.49961
 O225 O 0.90843 0.04507 0.49608
 O226 O 0.96132 0.09678 0.50303
 Zr227 Zr 1.00203 0.00275 0.54873
 Zr228 Zr 1.00228 0.00253 0.45066
 O229 O 0.95445 0.00267 0.47124
 O230 O 0.95382 0.00278 0.52925
 O231 O 1.00213 -0.04571 0.47044
 O232 O 1.00228 0.05058 0.52818
 O233 O 1.00205 -0.04513 0.52858
 O234 O 1.00234 0.05088 0.46997
 H235 H 1.06946 0.00263 0.45598
 H236 H 1.00237 0.06996 0.54309
 H237 H 0.93500 0.00265 0.45645
 H238 H 1.00209 -0.06448 0.54363
 H239 H 1.03060 0.10525 0.48438
 H240 H 0.97397 0.10531 0.48386
 H241 H 0.89970 0.03092 0.51406
 H242 H 0.89953 -0.02560 0.51487
 H243 H 0.97367 -0.09995 0.48524
 H244 H 1.03023 -0.10000 0.48546
 H245 H 1.10468 -0.02564 0.51446
 H246 H 1.10479 0.03083 0.51394
 C247 C 1.07299 0.07816 0.33505
 C248 C 1.09746 0.10204 0.34012
 C249 C 1.10646 0.11066 0.37233
 C250 C 1.09120 0.09531 0.39939
 C251 C 1.15474 0.15635 0.23643
 C252 C 1.05772 0.06278 0.36202
 C253 C 1.11344 0.11739 0.31219
 C254 C 1.12667 0.12992 0.28854
 C255 C 1.14193 0.14428 0.26055
 C256 C 1.06672 0.07107 0.39456
 H257 H 1.06581 0.07131 0.31023
 H258 H 1.12538 0.12912 0.37653
 H259 H 1.09874 0.10230 0.42406
 H260 H 1.03895 0.04430 0.35733
 C261 C 0.89813 -0.10620 0.37429
 C262 C 0.90661 -0.09738 0.34189
 C263 C 0.93043 -0.07291 0.33628
 C264 C 0.94565 -0.05720 0.36292
 C265 C 0.84882 -0.15405 0.24046
 C266 C 0.91332 -0.09053 0.40100
 C267 C 0.89071 -0.11322 0.31439
 C268 C 0.87743 -0.12628 0.29122
 C269 C 0.86195 -0.14135 0.26393
 C270 C 0.93721 -0.06576 0.39564
 H271 H 0.87971 -0.12511 0.37891
 H272 H 0.93718 -0.06589 0.31130
 H273 H 0.96395 -0.03829 0.35784
 H274 H 0.90624 -0.09775 0.42582
 C275 C 0.89302 0.10633 0.62576
 C276 C 0.90172 0.09769 0.65809
 C277 C 0.92627 0.07400 0.66349
 C278 C 0.94215 0.05906 0.63672
 C279 C 0.84413 0.15305 0.76064
 C280 C 0.90886 0.09141 0.59891
 C281 C 0.88561 0.11313 0.68577
 C282 C 0.87234 0.12591 0.70918
 C283 C 0.85704 0.14065 0.73683
 C284 C 0.93367 0.06762 0.60407
 H285 H 0.87404 0.12464 0.62130
 H286 H 0.93319 0.06711 0.68841
 H287 H 0.96108 0.04083 0.64166
 H288 H 0.90171 0.09859 0.57415
 C289 C 1.07801 -0.06747 0.66398
 C290 C 1.10201 -0.09174 0.65869
 C291 C 1.11056 -0.10071 0.62641
 C292 C 1.09503 -0.08563 0.59950
 C293 C 1.15659 -0.15017 0.76116
 C294 C 1.06243 -0.05236 0.63714
 C295 C 1.11749 -0.10771 0.68643
 C296 C 1.13012 -0.12111 0.70984
 C297 C 1.14455 -0.13680 0.73743
 C298 C 1.07066 -0.06135 0.60454
 H299 H 1.07120 -0.06034 0.68887
 H300 H 1.12911 -0.11949 0.62205
 H301 H 1.10198 -0.09314 0.57478
 H302 H 1.04385 -0.03375 0.64198
 C303 C 0.33622 1.07306 1.07356
 C304 C 0.34149 1.09761 1.09723
 C305 C 0.37376 1.10644 1.10585
 C306 C 0.40069 1.09072 1.09094
 C307 C 0.23866 1.15468 1.15266
 C308 C 0.36306 1.05730 1.05862
 C309 C 0.31373 1.11359 1.11269
 C310 C 0.29026 1.12673 1.12548
 C311 C 0.26254 1.14189 1.14025
 C312 C 0.39565 1.06590 1.06717
 H313 H 0.31135 1.06604 1.06668
 H314 H 0.37812 1.12543 1.12415
 H315 H 0.42540 1.09796 1.09811
 H316 H 0.35822 1.03836 1.04041
 C317 C 0.33642 0.92298 0.93063
 C318 C 0.34178 0.89880 0.90658
 C319 C 0.37408 0.88979 0.89813
 C320 C 0.40094 0.90502 0.91354
 C321 C 0.23923 0.84511 0.84777
 C322 C 0.36321 0.93825 0.94606
 C323 C 0.31408 0.88358 0.89035
 C324 C 0.29068 0.87117 0.87683
 C325 C 0.26304 0.85698 0.86110
 C326 C 0.39583 0.92955 0.93761
 H327 H 0.31152 0.93014 0.93736
 H328 H 0.37850 0.87109 0.87953
 H329 H 0.42568 0.89771 0.90644
 H330 H 0.35831 0.95698 0.96450
 C331 C 0.66419 0.92756 1.07876
 C332 C 0.65890 0.90328 1.10287
 C333 C 0.62662 0.89419 1.11146
 C334 C 0.59971 0.90921 1.09587
 C335 C 0.76194 0.84664 1.15802
 C336 C 0.63738 0.94260 1.06314
 C337 C 0.68666 0.88753 1.11849
 C338 C 0.71017 0.87447 1.13123
 C339 C 0.73798 0.85937 1.14581
 C340 C 0.60478 0.93353 1.07142
 H341 H 0.68908 0.93480 1.07193
 H342 H 0.62224 0.87541 1.13010
 H343 H 0.57499 0.90164 1.10286
 H344 H 0.64225 0.96125 1.04449
 C345 C 0.62658 1.10143 0.89308
 C346 C 0.65889 1.09296 0.90185
 C347 C 0.66431 1.06918 0.92639
 C348 C 0.63755 1.05400 0.94223
 C349 C 0.76061 1.15089 0.84470
 C350 C 0.59976 1.08628 0.90887
 C351 C 0.68651 1.10885 0.88589
 C352 C 0.70975 1.12215 0.87272
 C353 C 0.73710 1.13769 0.85751
 C354 C 0.60492 1.06244 0.93373
 H355 H 0.62211 1.11981 0.87411
 H356 H 0.68923 1.06244 0.93337
 H357 H 0.64248 1.03574 0.96120
 H358 H 0.57501 1.09336 0.90169
 C359 C 0.07241 0.33568 0.06846
 C360 C 0.09693 0.34108 0.09213
 C361 C 0.10571 0.37340 0.10064
 C362 C 0.08997 0.40025 0.08565
 C363 C 0.15391 0.23939 0.14966
 C364 C 0.05661 0.36247 0.05343
 C365 C 0.11285 0.31345 0.10785
 C366 C 0.12600 0.29020 0.12105
 C367 C 0.14116 0.26287 0.13650
 C368 C 0.06515 0.39510 0.06191
 H369 H 0.06542 0.31076 0.06168
 H370 H 0.12467 0.37786 0.11894
 H371 H 0.09717 0.42500 0.09276
 H372 H 0.03768 0.35756 0.03524
 C373 C -0.07796 0.33604 -0.07439
 C374 C -0.10225 0.34137 -0.09831
 C375 C -0.11119 0.37367 -0.10686
 C376 C -0.09580 0.40058 -0.09164
 C377 C -0.15704 0.23818 -0.15503
 C378 C -0.06252 0.36285 -0.05916
 C379 C -0.11776 0.31360 -0.11416
 C380 C -0.13041 0.29007 -0.12725
 C381 C -0.14490 0.26221 -0.14234
 C382 C -0.07119 0.39548 -0.06766
 H383 H -0.07085 0.31114 -0.06757
 H384 H -0.12999 0.37807 -0.12535
 H385 H -0.10308 0.42532 -0.09878
 H386 H -0.04374 0.35796 -0.04079
 C387 C 0.10185 0.62677 -0.11031
 C388 C 0.09340 0.65903 -0.10125
 C389 C 0.06920 0.66425 -0.07709
 C390 C 0.05363 0.63737 -0.06186
 C391 C 0.15287 0.76177 -0.15488
 C392 C 0.08631 0.59981 -0.09511
 C393 C 0.10980 0.68681 -0.11641
 C394 C 0.12348 0.71027 -0.12879
 C395 C 0.13940 0.73795 -0.14298
 C396 C 0.06210 0.60479 -0.07059
 H397 H 0.12057 0.62245 -0.12899
 H398 H 0.06246 0.68912 -0.06990
 H399 H 0.03509 0.64216 -0.04314
 H400 H 0.09343 0.57510 -0.10244
 C401 C -0.10598 0.62578 0.10733
 C402 C -0.09684 0.65811 0.09897
 C403 C -0.07276 0.66354 0.07470
 C404 C -0.05794 0.63680 0.05871
 C405 C -0.15226 0.76059 0.15642
 C406 C -0.09118 0.59895 0.09139
 C407 C -0.11226 0.68578 0.11510
 C408 C -0.12504 0.70917 0.12834
 C409 C -0.13982 0.73680 0.14359
 C410 C -0.06703 0.60415 0.06680
 H411 H -0.12460 0.62130 0.12611
 H412 H -0.06548 0.68847 0.06804
 H413 H -0.03942 0.64177 0.03997
 H414 H -0.09877 0.57419 0.09824
 C415 C 1.11092 0.10620 0.62564
 C416 C 1.10239 0.09712 0.65796
 C417 C 1.07835 0.07283 0.66335
 C418 C 1.06273 0.05777 0.63659
 C419 C 1.15729 0.15387 0.76089
 C420 C 1.09533 0.09116 0.59879
 C421 C 1.11798 0.11290 0.68567
 C422 C 1.13067 0.12599 0.70915
 C423 C 1.14517 0.14112 0.73693
 C424 C 1.07094 0.06684 0.60396
 H425 H 1.12950 0.12499 0.62120
 H426 H 1.07157 0.06561 0.68827
 H427 H 1.04413 0.03912 0.64153
 H428 H 1.10226 0.09873 0.57404
 C429 C 0.92683 -0.06936 0.66399
 C430 C 0.90249 -0.09331 0.65863
 C431 C 0.89359 -0.10168 0.62634
 C432 C 0.90907 -0.08629 0.59946
 C433 C 0.84646 -0.15196 0.76055
 C434 C 0.94236 -0.05394 0.63718
 C435 C 0.88688 -0.10946 0.68630
 C436 C 0.87399 -0.12296 0.70958
 C437 C 0.85908 -0.13867 0.73699
 C438 C 0.93374 -0.06230 0.60456
 H439 H 0.93390 -0.06269 0.68889
 H440 H 0.87476 -0.12019 0.62193
 H441 H 0.90182 -0.09332 0.57473
 H442 H 0.96119 -0.03557 0.64205
 C443 C 1.10555 -0.10685 0.37388
 C444 C 1.09695 -0.09818 0.34155
 C445 C 1.07333 -0.07358 0.33607
 C446 C 1.05841 -0.05762 0.36279
 C447 C 1.15243 -0.15600 0.23928
 C448 C 1.09066 -0.09094 0.40068
 C449 C 1.11239 -0.11436 0.31393
 C450 C 1.12518 -0.12769 0.29058
 C451 C 1.13997 -0.14305 0.26302
 C452 C 1.06694 -0.06607 0.39545
 H453 H 1.12382 -0.12588 0.37839
 H454 H 1.06648 -0.06668 0.31113
 H455 H 1.04023 -0.03866 0.35780
 H456 H 1.09780 -0.09807 0.42546
 C457 C 0.89810 0.11053 0.37310
 C458 C 0.90654 0.10147 0.34082
 C459 C 0.93047 0.07714 0.33551
 C460 C 0.94579 0.06175 0.36234
 C461 C 0.84791 0.15577 0.23839
 C462 C 0.91340 0.09519 0.40001
 C463 C 0.89043 0.11682 0.31311
 C464 C 0.87697 0.12938 0.28972
 C465 C 0.86126 0.14375 0.26213
 C466 C 0.93736 0.07052 0.39495
 H467 H 0.87959 0.12934 0.37748
 H468 H 0.93719 0.06994 0.31062
 H469 H 0.96414 0.04292 0.35749
 H470 H 0.90631 0.10255 0.42474
 C471 C 0.07338 0.33627 -0.07316
 C472 C 0.09762 0.34180 -0.09726
 C473 C 0.10606 0.37415 -0.10621
 C474 C 0.09025 0.40092 -0.09120
 C475 C 0.15507 0.23970 -0.15325
 C476 C 0.05753 0.36296 -0.05812
 C477 C 0.11365 0.31421 -0.11287
 C478 C 0.12687 0.29090 -0.12580
 C479 C 0.14215 0.26339 -0.14072
 C480 C 0.06571 0.39564 -0.06702
 H481 H 0.06667 0.31131 -0.06603
 H482 H 0.12481 0.37869 -0.12485
 H483 H 0.09717 0.42571 -0.09864
 H484 H 0.03881 0.35794 -0.03959
 C485 C -0.11102 0.37295 0.10228
 C486 C -0.10201 0.34070 0.09377
 C487 C -0.07784 0.33548 0.06958
 C488 C -0.06255 0.36236 0.05407
 C489 C -0.15572 0.23791 0.15303
 C490 C -0.09577 0.39992 0.08680
 C491 C -0.11722 0.31292 0.11010
 C492 C -0.12963 0.28945 0.12372
 C493 C -0.14383 0.26175 0.13959
 C494 C -0.07124 0.39494 0.06259
 H495 H -0.12970 0.37727 0.12099
 H496 H -0.07069 0.31060 0.06280
 H497 H -0.04383 0.35757 0.03553
 H498 H -0.10306 0.42462 0.09395
 C499 C -0.07406 0.66415 -0.07763
 C500 C -0.09787 0.65897 -0.10205
 C501 C -0.10663 0.62673 -0.11089
 C502 C -0.09171 0.59973 -0.09529
 C503 C -0.15380 0.76234 -0.15754
 C504 C -0.05912 0.63725 -0.06199
 C505 C -0.11342 0.68681 -0.11777
 C506 C -0.12630 0.71040 -0.13061
 C507 C -0.14121 0.73829 -0.14528
 C508 C -0.06782 0.60468 -0.07057
 H509 H -0.06709 0.68901 -0.07060
 H510 H -0.12505 0.62245 -0.12977
 H511 H -0.09899 0.57504 -0.10251
 H512 H -0.04081 0.64202 -0.04314
 C513 C 0.06735 0.66348 0.07408
 C514 C 0.09142 0.65789 0.09817
 C515 C 0.10020 0.62551 0.10656
 C516 C 0.08510 0.59879 0.09080
 C517 C 0.14956 0.75916 0.15484
 C518 C 0.05221 0.63683 0.05827
 C519 C 0.10734 0.68539 0.11401
 C520 C 0.12069 0.70853 0.12708
 C521 C 0.13630 0.73576 0.14214
 C522 C 0.06100 0.60413 0.06636
 H523 H 0.06037 0.68846 0.06741
 H524 H 0.11882 0.62092 0.12518
 H525 H 0.09245 0.57399 0.09765
 H526 H 0.03374 0.64188 0.03963
 C527 C 0.37462 1.10630 0.89852
 C528 C 0.34226 1.09774 0.90729
 C529 C 0.33668 1.07364 0.93153
 C530 C 0.36333 1.05799 0.94684
 C531 C 0.24092 1.15392 0.84882
 C532 C 0.40134 1.09069 0.91379
 C533 C 0.31476 1.11343 0.89123
 C534 C 0.29161 1.12637 0.87777
 C535 C 0.26435 1.14130 0.86209
 C536 C 0.39602 1.06625 0.93806
 H537 H 0.37920 1.12493 0.87978
 H538 H 0.31172 1.06684 0.93851
 H539 H 0.35829 1.03934 0.96543
 H540 H 0.42613 1.09767 0.90644
 C541 C 0.37352 0.88902 1.10687
 C542 C 0.34129 0.89789 1.09818
 C543 C 0.33611 0.92228 1.07421
 C544 C 0.36299 0.93788 1.05905
 C545 C 0.23787 0.84273 1.15487
 C546 C 0.40050 0.90458 1.09174
 C547 C 0.31346 0.88224 1.11397
 C548 C 0.28987 0.86948 1.12704
 C549 C 0.26195 0.85490 1.14214
 C550 C 0.39555 0.92928 1.06770
 H551 H 0.37780 0.87015 1.12542
 H552 H 0.31126 0.92934 1.06729
 H553 H 0.35822 0.95673 1.04063
 H554 H 0.42518 0.89734 1.09898
 C555 C 0.62652 1.10149 1.11057
 C556 C 0.65882 1.09260 1.10202
 C557 C 0.66420 1.06824 1.07816
 C558 C 0.63743 1.05296 1.06271
 C559 C 0.76112 1.15145 1.15603
 C560 C 0.59967 1.08624 1.09517
 C561 C 0.68648 1.10875 1.11733
 C562 C 0.70984 1.12226 1.12983
 C563 C 0.73740 1.13804 1.14410
 C564 C 0.60481 1.06188 1.07092
 H565 H 0.62208 1.12034 1.12901
 H566 H 0.68911 1.06117 1.07135
 H567 H 0.64234 1.03429 1.04422
 H568 H 0.57493 1.09370 1.10210
 C569 C 0.62653 0.89389 0.89377
 C570 C 0.65883 0.90254 0.90247
 C571 C 0.66420 0.92629 0.92692
 C572 C 0.63742 0.94129 0.94272
 C573 C 0.76121 0.84681 0.84506
 C574 C 0.59967 0.90886 0.90953
 C575 C 0.68650 0.88702 0.88645
 C576 C 0.70988 0.87416 0.87323
 C577 C 0.73746 0.85930 0.85796
 C578 C 0.60480 0.93270 0.93426
 H579 H 0.62211 0.87552 0.87486
 H580 H 0.68910 0.93319 0.93383
 H581 H 0.64232 0.95957 0.96158
 H582 H 0.57494 0.90167 0.90239
   
