data_POSCAR
  _audit_creation_date              2014-09-24
  _audit_creation_method            'ToBaCCo'
  _symmetry_space_group_name_H-M    'P1'
  _symmetry_Int_Tables_number       1
  _symmetry_cell_setting            triclinic
  loop_
  _symmetry_equiv_pos_as_xyz
 x,y,z
_cell_length_a 52.8389
_cell_length_b 52.7070
_cell_length_c 52.7084
_cell_angle_alpha 89.980000
_cell_angle_beta 89.987900
_cell_angle_gamma 90.042700
loop_
  _atom_site_label
  _atom_site_type_symbol
  _atom_site_fract_x
  _atom_site_fract_y
  _atom_site_fract_z
C1 C 0.21021 1.22462 0.18899
 C2 C 0.22770 1.20464 0.18803
 C3 C 0.22674 1.18548 0.20596
 C4 C 0.20837 1.18611 0.22515
 C5 C 0.19125 1.20593 0.22622
 C6 C 0.19215 1.22530 0.20799
 C7 C 0.20560 1.24482 0.17310
 N8 N 0.18515 1.25771 0.18197
 C9 C 0.17690 1.24597 0.20341
 C10 C 0.17495 1.20099 0.24600
 N11 N 0.18171 1.17860 0.25688
 C12 C 0.20218 1.16940 0.24425
 C13 C 0.24511 1.16807 0.19970
 N14 N 0.25721 1.17627 0.17849
 C15 C 0.24669 1.19862 0.17121
 H16 H 0.21596 1.24935 0.15595
 H17 H 0.16051 1.25152 0.21443
 H18 H 0.15898 1.21256 0.25164
 H19 H 0.21160 1.15161 0.24830
 H20 H 0.24916 1.15056 0.20965
 H21 H 0.25216 1.20946 0.15464
 C22 C 0.79241 0.77181 0.19053
 C23 C 0.77335 0.79030 0.19007
 C24 C 0.77290 0.80916 0.20832
 C25 C 0.79155 0.80982 0.22724
 C26 C 0.81034 0.79156 0.22770
 C27 C 0.81081 0.77246 0.20919
 C28 C 0.79826 0.75207 0.17448
 N29 N 0.81986 0.74085 0.18285
 C30 C 0.82763 0.75319 0.20412
 C31 C 0.82646 0.79755 0.24732
 N32 N 0.81800 0.81911 0.25865
 C33 C 0.79662 0.82672 0.24649
 C34 C 0.75315 0.82515 0.20248
 N35 N 0.74174 0.81650 0.18108
 C36 C 0.75395 0.79520 0.17335
 H37 H 0.78789 0.74672 0.15757
 H38 H 0.84457 0.74885 0.21484
 H39 H 0.84345 0.78731 0.25252
 H40 H 0.78579 0.84357 0.25097
 H41 H 0.74790 0.84220 0.21264
 H42 H 0.74940 0.78438 0.15649
 C43 C 0.79522 1.22779 -0.18540
 C44 C 0.77592 1.20953 -0.18606
 C45 C 0.77475 1.19235 -0.20588
 C46 C 0.79297 1.19311 -0.22522
 C47 C 0.81205 1.21108 -0.22452
 C48 C 0.81312 1.22862 -0.20454
 C49 C 0.80159 1.24615 -0.16797
 N50 N 0.82288 1.25815 -0.17611
 C51 C 0.83004 1.24754 -0.19850
 C52 C 0.82790 1.20634 -0.24469
 N53 N 0.81892 1.18589 -0.25758
 C54 C 0.79746 1.17777 -0.24587
 C55 C 0.75489 1.17615 -0.20096
 N56 N 0.74407 1.18308 -0.17864
 C57 C 0.75679 1.20347 -0.16939
 H58 H 0.79161 1.25023 -0.15049
 H59 H 0.84660 1.25287 -0.20940
 H60 H 0.84509 1.21661 -0.24919
 H61 H 0.78636 1.16141 -0.25144
 H62 H 0.74913 1.16013 -0.21244
 H63 H 0.75276 1.21288 -0.15159
 C64 C 0.20562 0.77400 -0.19235
 C65 C 0.22513 0.79203 -0.19350
 C66 C 0.22447 0.81099 -0.21166
 C67 C 0.20436 0.81211 -0.22898
 C68 C 0.18507 0.79440 -0.22779
 C69 C 0.18569 0.77523 -0.20934
 C70 C 0.20067 0.75429 -0.17594
 N71 N 0.17818 0.74360 -0.18250
 C72 C 0.16891 0.75629 -0.20295
 C73 C 0.16757 0.80080 -0.24603
 N74 N 0.17582 0.82194 -0.25831
 C75 C 0.19834 0.82897 -0.24800
 C76 C 0.24480 0.82671 -0.20724
 N77 N 0.25773 0.81775 -0.18686
 C78 C 0.24590 0.79649 -0.17838
 H79 H 0.21233 0.74855 -0.16004
 H80 H 0.15105 0.75238 -0.21224
 H81 H 0.14997 0.79097 -0.24983
 H82 H 0.20936 0.84538 -0.25359
 H83 H 0.24940 0.84385 -0.21760
 H84 H 0.25149 0.78561 -0.16189
 C85 C 0.53776 1.03301 -0.01059
 H86 H 0.53684 1.03392 0.00990
 C87 C 0.55490 1.04829 -0.02374
 H88 H 0.56707 1.06098 -0.01314
 C89 C 0.52331 1.01480 -0.04904
 H90 H 0.51134 1.00136 -0.05880
 C91 C 0.54032 1.02961 -0.06295
 H92 H 0.54094 1.02760 -0.08339
 N93 N 0.52222 1.01690 -0.02334
 C94 C 0.46243 1.00358 0.03215
 H95 H 0.46304 0.98309 0.03316
 C96 C 0.44504 1.01700 0.04688
 H97 H 0.43238 1.00661 0.05926
 C98 C 0.47790 1.04179 0.01422
 H99 H 0.49038 1.05135 0.00109
 C100 C 0.46066 1.05596 0.02846
 H101 H 0.46037 1.07639 0.02636
 Zn102 Zn 0.50055 0.99611 -0.00368
 N103 N 0.47858 1.01609 0.01644
 C104 C 0.52168 0.97803 0.04264
 N105 N 0.52162 0.97569 0.01694
 C106 C 0.53783 0.95967 0.00495
 C107 C 0.55464 0.94476 0.01890
 C108 C 0.53835 0.96363 0.05734
 C109 C 0.46416 0.98811 -0.04114
 C110 C 0.44757 0.97447 -0.05657
 C111 C 0.46280 0.93571 -0.03745
 C112 C 0.47928 0.95011 -0.02252
 N113 N 0.47977 0.97582 -0.02474
 H114 H 0.50918 0.99139 0.05180
 H115 H 0.53774 0.95859 -0.01555
 H116 H 0.56739 0.93217 0.00891
 H117 H 0.53817 0.96585 0.07776
 H118 H 0.46457 1.00861 -0.04213
 H119 H 0.43530 0.98469 -0.06945
 H120 H 0.46262 0.91528 -0.03532
 H121 H 0.49128 0.94072 -0.00886
 C122 C 0.44393 1.04356 0.04509
 C123 C 0.55641 1.04666 -0.05029
 C124 C 0.44665 0.94789 -0.05477
 C125 C 0.55513 0.94670 0.04547
 C126 C -0.00462 0.53778 1.04061
 H127 H 0.01581 0.53758 1.04197
 C128 C -0.01864 0.55456 1.05550
 H129 H -0.00879 0.56718 1.06834
 C130 C -0.04207 0.52193 1.02162
 H131 H -0.05109 0.50956 1.00802
 C132 C -0.05682 0.53859 1.03597
 H133 H -0.07716 0.53853 1.03347
 N134 N -0.01646 0.52171 1.02430
 C135 C 0.04177 0.46436 1.01221
 H136 H 0.04304 0.46493 0.99173
 C137 C 0.05709 0.44773 1.02594
 H138 H 0.07016 0.43560 1.01580
 C139 C 0.02257 0.47909 1.05007
 H140 H 0.00872 0.49094 1.05936
 C141 C 0.03736 0.46256 1.06454
 H142 H 0.03494 0.46219 1.08494
 Zn143 Zn 0.00425 0.50062 1.00399
 N144 N 0.02514 0.47980 1.02440
 C145 C 0.04955 0.52369 0.98570
 N146 N 0.02395 0.52238 0.98334
 C147 C 0.01129 0.53777 0.96700
 C148 C 0.02445 0.55496 0.95176
 C149 C 0.06347 0.54077 0.97096
 C150 C -0.03163 0.46255 0.99628
 C151 C -0.04631 0.44517 0.98277
 C152 C -0.02731 0.46044 0.94396
 C153 C -0.01315 0.47771 0.95822
 N154 N -0.01569 0.47858 0.98389
 H155 H 0.05922 0.51185 0.99932
 H156 H -0.00913 0.53669 0.96588
 H157 H 0.01393 0.56700 0.93889
 H158 H 0.08382 0.54156 0.97318
 H159 H -0.03288 0.46329 1.01676
 H160 H -0.05888 0.43262 0.99307
 H161 H -0.02497 0.46002 0.92356
 H162 H 0.00016 0.49008 0.94876
 C163 C 0.05492 0.44659 1.05248
 C164 C -0.04512 0.55519 1.05321
 C165 C -0.04420 0.44389 0.95624
 C166 C 0.05091 0.55668 0.95367
 C167 C 1.04153 -0.01370 0.52243
 H168 H 1.05096 -0.00035 0.51009
 C169 C 1.05575 -0.02792 0.53966
 H170 H 1.07611 -0.02558 0.54007
 C171 C 1.00355 -0.03222 0.53760
 H172 H 0.98313 -0.03347 0.53688
 C173 C 1.01703 -0.04696 0.55495
 H174 H 1.00676 -0.05957 0.56749
 N175 N 1.01592 -0.01623 0.52159
 C176 C 1.01410 0.04927 0.47663
 H177 H 1.00050 0.05892 0.48849
 C178 C 1.02881 0.06326 0.45960
 H179 H 1.02659 0.08367 0.45886
 C180 C 1.03277 0.01095 0.46247
 H181 H 1.03389 -0.00952 0.46349
 C182 C 1.04798 0.02419 0.44533
 H183 H 1.06083 0.01369 0.43327
 Zn184 Zn 0.99586 0.00380 0.49960
 N185 N 1.01647 0.02360 0.47788
 C186 C 0.98774 0.04134 0.53594
 N187 N 0.97554 0.02472 0.52048
 C188 C 0.94993 0.02220 0.52118
 C189 C 0.93553 0.03704 0.53773
 C190 C 0.97409 0.05671 0.55259
 C191 C 0.95930 -0.00504 0.46243
 C192 C 0.94448 -0.01908 0.44559
 C193 C 0.96402 -0.05736 0.46145
 C194 C 0.97830 -0.04259 0.47817
 N195 N 0.97559 -0.01693 0.47847
 H196 H 1.00817 0.04256 0.53537
 H197 H 0.94062 0.00836 0.50930
 H198 H 0.91518 0.03467 0.53809
 H199 H 0.98424 0.06978 0.56474
 H200 H 0.95793 0.01543 0.46269
 H201 H 0.93167 -0.00919 0.43299
 H202 H 0.96654 -0.07775 0.46143
 H203 H 0.99188 -0.05164 0.49052
 C204 C 1.04607 0.05072 0.44368
 C205 C 1.04351 -0.04486 0.55620
 C206 C 0.94682 -0.04561 0.44487
 C207 C 0.94762 0.05460 0.55372
 C208 C 0.15081 0.31746 1.14697
 N209 N 0.14198 0.30859 1.16947
 N210 N 0.15335 0.28924 1.18105
 C211 C 0.17404 0.27803 1.17060
 N212 N 0.18299 0.28712 1.14818
 N213 N 0.17156 0.30642 1.13657
 C214 C 0.13764 0.33806 1.13365
 N215 N 0.14481 0.34498 1.10989
 N216 N 0.13228 0.36300 1.09739
 C217 C 0.11218 0.37482 1.10822
 N218 N 0.10512 0.36803 1.13204
 N219 N 0.11759 0.34995 1.14451
 C220 C 0.09786 0.39404 1.09406
 N221 N 0.07861 0.40690 1.10525
 N222 N 0.06517 0.42380 1.09214
 C223 C 0.07037 0.42841 1.06731
 N224 N 0.08970 0.41556 1.05620
 N225 N 0.10321 0.39874 1.06932
 C226 C -0.14273 0.68307 1.14771
 N227 N -0.13314 0.69389 1.16900
 N228 N -0.14549 0.71259 1.18064
 C229 C -0.16787 0.72129 1.17136
 N230 N -0.17748 0.71034 1.15009
 N231 N -0.16517 0.69157 1.13851
 C232 C -0.12875 0.66296 1.13448
 N233 N -0.13904 0.65096 1.11415
 N234 N -0.12609 0.63316 1.10178
 C235 C -0.10233 0.62678 1.10922
 N236 N -0.09206 0.63874 1.12958
 N237 N -0.10506 0.65647 1.14201
 C238 C -0.08773 0.60773 1.09513
 N239 N -0.06305 0.60346 1.10080
 N240 N -0.04958 0.58668 1.08759
 C241 C -0.06028 0.57343 1.06825
 N242 N -0.08505 0.57762 1.06272
 N243 N -0.09850 0.59449 1.07586
 C244 C -0.13984 0.31459 0.86135
 N245 N -0.16085 0.30380 0.87153
 N246 N -0.17312 0.28547 0.85922
 C247 C -0.16479 0.27713 0.83629
 N248 N -0.14376 0.28799 0.82612
 N249 N -0.13155 0.30639 0.83840
 C250 C -0.12611 0.33453 0.87512
 N251 N -0.10614 0.34659 0.86425
 N252 N -0.09349 0.36443 0.87690
 C253 C -0.10028 0.37080 0.90091
 N254 N -0.12026 0.35875 0.91176
 N255 N -0.13297 0.34098 0.89908
 C256 C -0.08604 0.39009 0.91508
 N257 N -0.09127 0.39460 0.93987
 N258 N -0.07805 0.41175 0.95288
 C259 C -0.05915 0.42513 0.94161
 N260 N -0.05404 0.42065 0.91674
 N261 N -0.06719 0.40343 0.90373
 C262 C 0.14271 0.68597 0.85496
 N263 N 0.16591 0.69410 0.86248
 N264 N 0.17757 0.71284 0.85016
 C265 C 0.16651 0.72413 0.82979
 N266 N 0.14335 0.71583 0.82221
 N267 N 0.13167 0.69715 0.83458
 C268 C 0.12952 0.66581 0.86896
 N269 N 0.10544 0.65929 0.86279
 N270 N 0.09322 0.64144 0.87584
 C271 C 0.10466 0.62938 0.89550
 N272 N 0.12879 0.63580 0.90159
 N273 N 0.14099 0.65372 0.88858
 C274 C 0.09094 0.61012 0.91023
 N275 N 0.10269 0.59704 0.92902
 N276 N 0.09005 0.57993 0.94267
 C277 C 0.06515 0.57528 0.93813
 N278 N 0.05348 0.58837 0.91926
 N279 N 0.06612 0.60542 0.90556
 C280 C 1.14453 0.14307 0.31464
 N281 N 1.13686 0.16621 0.30637
 N282 N 1.14910 0.17791 0.28760
 C283 C 1.16953 0.16693 0.27641
 N284 N 1.17727 0.14383 0.28486
 N285 N 1.16498 0.13212 0.30357
 C286 C 1.13061 0.12983 0.33481
 N287 N 1.13688 0.10573 0.34139
 N288 N 1.12386 0.09344 0.35922
 C289 C 1.10415 0.10482 0.37118
 N290 N 1.09796 0.12896 0.36470
 N291 N 1.11093 0.14123 0.34680
 C292 C 1.08945 0.09101 0.39040
 N293 N 1.07062 0.10272 0.40342
 N294 N 1.05699 0.09000 0.42048
 C295 C 1.06159 0.06506 0.42513
 N296 N 1.08050 0.05343 0.41211
 N297 N 1.09418 0.06615 0.39511
 C298 C 1.13831 -0.14077 0.68531
 N299 N 1.16137 -0.13264 0.69322
 N300 N 1.17366 -0.14485 0.71160
 C301 C 1.16340 -0.16574 0.72273
 N302 N 1.14035 -0.17391 0.71468
 N303 N 1.12803 -0.16163 0.69637
 C304 C 1.12454 -0.12702 0.66539
 N305 N 1.10052 -0.13374 0.65917
 N306 N 1.08785 -0.12100 0.64142
 C307 C 1.09876 -0.10114 0.62918
 N308 N 1.12281 -0.09448 0.63532
 N309 N 1.13546 -0.10717 0.65314
 C310 C 1.08460 -0.08685 0.60992
 N311 N 1.09596 -0.06807 0.59646
 N312 N 1.08297 -0.05487 0.57927
 C313 C 1.05811 -0.05987 0.57494
 N314 N 1.04682 -0.07871 0.58843
 N315 N 1.05981 -0.09197 0.60555
 C316 C 0.85302 -0.14333 0.31644
 N317 N 0.86234 -0.16570 0.30779
 N318 N 0.85082 -0.17805 0.28900
 C319 C 0.82947 -0.16855 0.27819
 N320 N 0.82007 -0.14624 0.28704
 N321 N 0.83166 -0.13384 0.30575
 C322 C 0.86616 -0.12932 0.33660
 N323 N 0.85851 -0.10565 0.34324
 N324 N 0.87085 -0.09264 0.36104
 C325 C 0.89123 -0.10287 0.37292
 N326 N 0.89879 -0.12660 0.36639
 N327 N 0.88651 -0.13957 0.34852
 C328 C 0.90521 -0.08826 0.39207
 N329 N 0.92447 -0.09903 0.40526
 N330 N 0.93751 -0.08557 0.42221
 C331 C 0.93188 -0.06079 0.42654
 N332 N 0.91255 -0.05009 0.41334
 N333 N 0.89944 -0.06356 0.39647
 C334 C 0.85370 0.15121 0.68273
 N335 N 0.83118 0.14249 0.69157
 N336 N 0.81968 0.15398 0.71091
 C337 C 0.83022 0.17467 0.72212
 N338 N 0.85265 0.18350 0.71306
 N339 N 0.86418 0.17196 0.69378
 C340 C 0.86693 0.13791 0.66216
 N341 N 0.89067 0.14499 0.65526
 N342 N 0.90309 0.13235 0.63727
 C343 C 0.89220 0.11224 0.62545
 N344 N 0.86840 0.10527 0.63221
 N345 N 0.85600 0.11785 0.65028
 C346 C 0.90627 0.09780 0.60625
 N347 N 0.89504 0.07854 0.59338
 N348 N 0.90808 0.06501 0.57650
 C349 C 0.93287 0.07013 0.57190
 N350 N 0.94402 0.08949 0.58475
 N351 N 0.93098 0.10308 0.60156
 C352 C 0.31457 1.13809 0.14069
 N353 N 0.30274 1.12730 0.16085
 N354 N 0.28443 1.13962 0.17308
 C355 C 0.27720 1.16317 0.16555
 N356 N 0.28906 1.17397 0.14539
 N357 N 0.30743 1.16168 0.13321
 C358 C 0.33450 1.12434 0.12699
 N359 N 0.34739 1.13564 0.10776
 N360 N 0.36523 1.12302 0.09513
 C361 C 0.37078 1.09862 0.10121
 N362 N 0.35791 1.08733 0.12045
 N363 N 0.34013 1.09997 0.13314
 C364 C 0.39008 1.08451 0.08698
 N365 N 0.39403 1.05950 0.09161
 N366 N 0.41119 1.04655 0.07840
 C367 C 0.42516 1.05811 0.06008
 N368 N 0.42125 1.08319 0.05556
 N369 N 0.40402 1.09613 0.06872
 C370 C 0.68546 1.14525 -0.14233
 N371 N 0.69737 1.16500 -0.13089
 N372 N 0.71602 1.17730 -0.14265
 C373 C 0.72352 1.17026 -0.16627
 N374 N 0.71155 1.15054 -0.17774
 N375 N 0.69284 1.13829 -0.16600
 C376 C 0.66533 1.13132 -0.12908
 N377 N 0.65265 1.11224 -0.14083
 N378 N 0.63476 1.09926 -0.12859
 C379 C 0.62896 1.10484 -0.10412
 N380 N 0.64161 1.12396 -0.09239
 N381 N 0.65944 1.13698 -0.10466
 C382 C 0.60974 1.09013 -0.09037
 N383 N 0.60552 1.09436 -0.06533
 N384 N 0.58850 1.08066 -0.05267
 C385 C 0.57497 1.06222 -0.06455
 N386 N 0.57914 1.05812 -0.08966
 N387 N 0.59622 1.07178 -0.10232
 C388 C 0.31821 0.85356 -0.15168
 N389 N 0.30643 0.86451 -0.17177
 N390 N 0.28725 0.85283 -0.18330
 C391 C 0.27908 0.82980 -0.17513
 N392 N 0.29097 0.81879 -0.15510
 N393 N 0.31020 0.83044 -0.14361
 C394 C 0.33867 0.86692 -0.13836
 N395 N 0.35115 0.85566 -0.11885
 N396 N 0.36913 0.86814 -0.10624
 C397 C 0.37521 0.89235 -0.11263
 N398 N 0.36280 0.90355 -0.13219
 N399 N 0.34489 0.89106 -0.14485
 C400 C 0.39433 0.90647 -0.09815
 N401 N 0.39850 0.93143 -0.10292
 N402 N 0.41525 0.94450 -0.08928
 C403 C 0.42854 0.93313 -0.07037
 N404 N 0.42444 0.90809 -0.06574
 N405 N 0.40763 0.89503 -0.07933
 C406 C 0.68308 0.85221 0.14286
 N407 N 0.69071 0.86066 0.16596
 N408 N 0.70942 0.84908 0.17832
 C409 C 0.72115 0.82857 0.16808
 N410 N 0.71340 0.82004 0.14504
 N411 N 0.69475 0.83167 0.13265
 C412 C 0.66300 0.86543 0.12887
 N413 N 0.65719 0.85855 0.10474
 N414 N 0.63946 0.87098 0.09177
 C415 C 0.62682 0.89067 0.10248
 N416 N 0.63253 0.89746 0.12666
 N417 N 0.65033 0.88509 0.13960
 C418 C 0.60775 0.90476 0.08791
 N419 N 0.59401 0.92348 0.09899
 N420 N 0.57713 0.93662 0.08559
 C421 C 0.57339 0.93164 0.06057
 N422 N 0.58714 0.91285 0.04957
 N423 N 0.60396 0.89964 0.06298
   
