data_POSCAR
  _audit_creation_date              2014-09-24
  _audit_creation_method            'ToBaCCo'
  _symmetry_space_group_name_H-M    'P1'
  _symmetry_Int_Tables_number       1
  _symmetry_cell_setting            triclinic
  loop_
  _symmetry_equiv_pos_as_xyz
 x,y,z
_cell_length_a 13.2490
_cell_length_b 12.9731
_cell_length_c 21.1509
_cell_angle_alpha 86.023000
_cell_angle_beta 78.068400
_cell_angle_gamma 125.421300
loop_
  _atom_site_label
  _atom_site_type_symbol
  _atom_site_fract_x
  _atom_site_fract_y
  _atom_site_fract_z
O1 O -0.22270 0.42599 1.00852
 O2 O -0.05105 0.31020 1.06895
 O3 O -0.13835 0.43786 1.11371
 O4 O -0.20115 0.24336 0.99342
 O5 O -0.01084 0.39856 0.92017
 O6 O 0.04109 0.61001 1.04114
 O7 O 0.13408 0.48563 1.00146
 O8 O -0.03494 0.58222 0.93393
 Cu9 Cu -0.16983 0.34032 1.05337
 Cu10 Cu 0.04952 0.53395 0.96769
 C11 C -0.15547 0.52312 0.95814
 C12 C 0.07275 0.38076 1.04486
 C13 C -0.04168 0.55635 1.09920
 C14 C -0.11987 0.28455 0.93692
 O15 O 0.50699 0.18170 0.53370
 O16 O 0.77235 0.19683 0.43569
 O17 O 0.59996 0.21925 0.40772
 O18 O 0.63420 0.09496 0.55922
 O19 O 0.49622 -0.10575 0.54942
 O20 O 0.46655 0.01612 0.39994
 O21 O 0.64363 -0.00419 0.42465
 O22 O 0.36471 -0.02182 0.52851
 Cu23 Cu 0.64130 0.19146 0.48470
 Cu24 Cu 0.47961 -0.04778 0.47463
 C25 C 0.39100 0.07999 0.54793
 C26 C 0.75768 0.10211 0.41419
 C27 C 0.52321 0.13620 0.37922
 C28 C 0.56957 -0.02786 0.57983
 C29 C 0.07987 -0.08454 0.21000
 C30 C -0.00144 -0.06870 0.26663
 C31 C 0.06194 0.05577 0.27423
 C32 C 0.19932 0.15230 0.22439
 C33 C 0.11488 0.01327 0.14873
 C34 C 0.17673 0.13658 0.15667
 C35 C 0.20744 -0.02931 0.22622
 C36 C 0.27006 0.09470 0.23393
 H37 H -0.10116 -0.14655 0.29570
 H38 H 0.25158 0.25478 0.22835
 H39 H 0.08081 -0.01484 0.10606
 H40 H 0.23921 -0.08746 0.23627
 C41 C -0.00345 -0.02207 0.70467
 C42 C -0.05196 -0.14826 0.75057
 C43 C -0.17121 -0.20943 0.79595
 C44 C -0.23267 -0.13995 0.78930
 C45 C -0.10936 -0.05971 0.67232
 C46 C -0.22881 -0.11955 0.71628
 C47 C -0.01072 0.05983 0.75224
 C48 C -0.13155 -0.00082 0.79532
 H49 H 0.00883 -0.17842 0.75169
 H50 H -0.33087 -0.19127 0.82514
 H51 H -0.08827 -0.02749 0.61939
 H52 H 0.06906 0.16028 0.74816
 C53 C -0.03053 -0.37098 0.15115
 C54 C -0.10966 -0.43079 0.21614
 C55 C -0.07902 -0.33279 0.24734
 C56 C 0.01634 -0.21977 0.19900
 O57 O 0.04734 -0.24269 0.14060
 H58 H -0.18272 -0.53425 0.23791
 H59 H -0.12238 -0.34289 0.29899
 C60 C 0.14346 0.34456 0.06553
 C61 C 0.27791 0.42513 0.04845
 C62 C 0.30783 0.35626 0.08038
 C63 C 0.19047 0.23797 0.11228
 O64 O 0.08992 0.23041 0.10452
 H65 H 0.34573 0.52403 0.01830
 H66 H 0.40286 0.38849 0.08206
 C67 C 0.28959 0.08791 0.58413
 C68 C 0.30225 0.20159 0.57410
 C69 C 0.19528 0.17518 0.61792
 C70 C 0.12657 0.04828 0.65295
 O71 O 0.18268 -0.00625 0.63192
 H72 H 0.38016 0.29270 0.53843
 H73 H 0.16961 0.24034 0.62349
 C74 C -0.41640 -0.08125 0.63759
 C75 C -0.51857 -0.18508 0.68910
 C76 C -0.46245 -0.21305 0.72752
 C77 C -0.33083 -0.12628 0.69512
 O78 O -0.30284 -0.04603 0.64087
 H79 H -0.62114 -0.23522 0.69664
 H80 H -0.51141 -0.28956 0.77232
 C81 C -0.21279 -0.42928 0.92498
 C82 C -0.33450 -0.46079 0.94851
 C83 C -0.33883 -0.38481 0.90233
 C84 C -0.21964 -0.31418 0.85383
 O85 O -0.14387 -0.34141 0.86781
 H86 H -0.40872 -0.52750 0.99454
 H87 H -0.41841 -0.38016 0.90477
 C88 C -0.15897 0.19635 0.89206
 C89 C -0.28696 0.11269 0.89313
 C90 C -0.29249 0.02963 0.85606
 C91 C -0.16757 0.06754 0.83546
 O92 O -0.08518 0.17002 0.85670
 H93 H -0.36758 0.11022 0.91994
 H94 H -0.37823 -0.04995 0.84607
 C95 C -0.12903 0.11984 0.37997
 C96 C -0.00704 0.23046 0.37570
 C97 C 0.07859 0.21686 0.33846
 C98 C 0.00391 0.09954 0.32150
 O99 O -0.12326 0.03849 0.34751
 H100 H 0.01700 0.31224 0.39736
 H101 H 0.18331 0.28566 0.32521
 C102 C 0.49048 0.17571 0.32470
 C103 C 0.53454 0.30067 0.30019
 C104 C 0.46269 0.28858 0.25922
 C105 C 0.37994 0.15706 0.26200
 O106 O 0.39712 0.08876 0.30154
 H107 H 0.60493 0.38875 0.31352
 H108 H 0.46698 0.36612 0.23273
   
