data_POSCAR
  _audit_creation_date              2014-09-24
  _audit_creation_method            'ToBaCCo'
  _symmetry_space_group_name_H-M    'P1'
  _symmetry_Int_Tables_number       1
  _symmetry_cell_setting            triclinic
  loop_
  _symmetry_equiv_pos_as_xyz
 x,y,z
_cell_length_a 32.6607
_cell_length_b 32.6363
_cell_length_c 31.7010
_cell_angle_alpha 89.853900
_cell_angle_beta 89.809500
_cell_angle_gamma 92.009800
loop_
  _atom_site_label
  _atom_site_type_symbol
  _atom_site_fract_x
  _atom_site_fract_y
  _atom_site_fract_z
C1 C -0.11839 0.32652 -0.02003
 C2 C -0.11801 0.32631 0.02321
 C3 C -0.08018 0.31235 0.03532
 N4 N -0.05697 0.30577 0.00072
 C5 C -0.08081 0.31268 -0.03318
 C6 C -0.06787 0.30458 0.07754
 C7 C -0.02572 0.30840 0.08834
 C8 C -0.01060 0.32170 0.12692
 C9 C 0.03098 0.31661 0.12619
 C10 C 0.04055 0.30100 0.08675
 N11 N 0.00570 0.29659 0.06388
 C12 C 0.07896 0.28577 0.07404
 C13 C 0.08314 0.27117 0.03249
 C14 C 0.09975 0.23439 0.02096
 C15 C 0.09890 0.23315 -0.02233
 C16 C 0.08206 0.26939 -0.03555
 N17 N 0.07125 0.29209 -0.00195
 C18 C 0.07702 0.28220 -0.07781
 C19 C 0.03835 0.29782 -0.08955
 C20 C 0.02761 0.31260 -0.12906
 C21 C -0.01369 0.31922 -0.12792
 C22 C -0.02768 0.30737 -0.08831
 N23 N 0.00426 0.29517 -0.06494
 C24 C -0.06946 0.30527 -0.07571
 H25 H -0.14342 0.33628 -0.03946
 H26 H -0.14272 0.33581 0.04337
 H27 H 0.00203 0.28046 -0.03588
 H28 H -0.02790 0.33283 0.15345
 H29 H 0.05081 0.32198 0.15290
 H30 H 0.11045 0.21062 0.04162
 H31 H 0.10893 0.20824 -0.04187
 H32 H -0.03156 0.33046 -0.15390
 H33 H 0.00286 0.28085 0.03553
 H34 H 0.04636 0.31660 -0.15693
 C35 C 0.37112 0.78406 0.48213
 C36 C 0.37249 0.78692 0.52495
 C37 C 0.41338 0.79231 0.53586
 N38 N 0.43703 0.79342 0.50066
 C39 C 0.41115 0.78847 0.46761
 C40 C 0.42825 0.79741 0.57760
 C41 C 0.46908 0.81080 0.58427
 C42 C 0.48206 0.83889 0.61448
 C43 C 0.52415 0.83988 0.61352
 C44 C 0.53539 0.81226 0.58285
 N45 N 0.50168 0.79590 0.56384
 C46 C 0.57569 0.80071 0.57434
 C47 C 0.58842 0.79569 0.53189
 C48 C 0.62855 0.79173 0.51871
 C49 C 0.62774 0.78875 0.47583
 C50 C 0.58716 0.79157 0.46358
 N51 N 0.56312 0.79573 0.49806
 C52 C 0.57255 0.78672 0.42166
 C53 C 0.53098 0.77532 0.41456
 C54 C 0.51764 0.74661 0.38507
 C55 C 0.47572 0.74606 0.38580
 C56 C 0.46446 0.77438 0.41577
 N57 N 0.49836 0.79113 0.43444
 C58 C 0.42354 0.78408 0.42495
 H59 H 0.34343 0.77743 0.46455
 H60 H 0.34583 0.78528 0.54521
 H61 H 0.49923 0.81497 0.45635
 H62 H 0.46311 0.85658 0.63518
 H63 H 0.54423 0.85854 0.63331
 H64 H 0.65606 0.79126 0.53749
 H65 H 0.65434 0.78320 0.45664
 H66 H 0.45582 0.72630 0.36695
 H67 H 0.50093 0.77208 0.54189
 H68 H 0.53618 0.72744 0.36546
 C69 C 1.10221 0.75267 -0.02231
 C70 C 1.10126 0.75298 0.02093
 C71 C 1.07910 0.71798 0.03331
 N72 N 1.06529 0.69689 -0.00082
 C73 C 1.08045 0.71759 -0.03481
 C74 C 1.07119 0.70564 0.07550
 C75 C 1.02987 0.69505 0.08713
 C76 C 1.01565 0.68423 0.12716
 C77 C 0.97360 0.68485 0.12613
 C78 C 0.96269 0.69608 0.08556
 N79 N 0.99719 0.70165 0.06218
 C80 C 0.92325 0.70798 0.07224
 C81 C 0.91838 0.72162 0.03037
 C82 C 0.89980 0.75730 0.01836
 C83 C 0.90085 0.75833 -0.02486
 C84 C 0.91996 0.72320 -0.03760
 N85 N 0.93170 0.70121 -0.00381
 C86 C 0.92647 0.71131 -0.07979
 C87 C 0.96622 0.69913 -0.09196
 C88 C 0.97869 0.68891 -0.13233
 C89 C 1.02069 0.68686 -0.13156
 C90 C 1.03331 0.69596 -0.09067
 N91 N 0.99970 0.70288 -0.06700
 C92 C 1.07432 0.70487 -0.07704
 H93 H 1.11647 0.77600 -0.04237
 H94 H 1.11455 0.77665 0.04101
 H95 H 1.00008 0.71512 -0.03683
 H96 H 1.03299 0.67971 0.15559
 H97 H 0.95430 0.68091 0.15362
 H98 H 0.88772 0.78060 0.03870
 H99 H 0.88969 0.78255 -0.04468
 H100 H 1.03923 0.68265 -0.15933
 H101 H 0.99862 0.71509 0.03248
 H102 H 0.96055 0.68644 -0.16065
 C103 C 0.61371 0.25440 0.48273
 C104 C 0.61303 0.25446 0.52589
 C105 C 0.58200 0.22681 0.53823
 N106 N 0.56509 0.20872 0.50369
 C107 C 0.58520 0.22474 0.46974
 C108 C 0.57107 0.21523 0.58017
 C109 C 0.53280 0.19457 0.58644
 C110 C 0.52344 0.16356 0.61528
 C111 C 0.48151 0.15719 0.61452
 C112 C 0.46692 0.18365 0.58442
 N113 N 0.49832 0.20518 0.56633
 C114 C 0.42544 0.18920 0.57522
 C115 C 0.41281 0.19070 0.53257
 C116 C 0.37262 0.18800 0.51890
 C117 C 0.37388 0.19067 0.47592
 C118 C 0.41476 0.19617 0.46441
 N119 N 0.43861 0.19448 0.49914
 C120 C 0.42954 0.20239 0.42254
 C121 C 0.47118 0.19604 0.41252
 C122 C 0.48493 0.18112 0.37448
 C123 C 0.52687 0.18405 0.37528
 C124 C 0.53825 0.19920 0.41471
 N125 N 0.50368 0.20614 0.43725
 C126 C 0.57886 0.21093 0.42773
 H127 H 0.63297 0.27450 0.46337
 H128 H 0.63339 0.27334 0.54486
 H129 H 0.50208 0.22188 0.46571
 H130 H 0.54446 0.14691 0.63462
 H131 H 0.46373 0.13552 0.63365
 H132 H 0.34503 0.18351 0.53748
 H133 H 0.34732 0.18770 0.45577
 H134 H 0.54559 0.17727 0.34838
 H135 H 0.49583 0.22932 0.54487
 H136 H 0.46666 0.17002 0.34820
 C137 C 0.75733 -0.10288 -0.02756
 C138 C 0.75661 -0.10368 0.01563
 C139 C 0.72598 -0.07808 0.02837
 N140 N 0.71035 -0.05915 -0.00563
 C141 C 0.72919 -0.07435 -0.04002
 C142 C 0.71026 -0.07344 0.06989
 C143 C 0.69804 -0.03341 0.08200
 C144 C 0.67703 -0.02281 0.11848
 C145 C 0.67611 0.01916 0.11949
 C146 C 0.69832 0.03364 0.08513
 N147 N 0.71030 0.00164 0.06162
 C148 C 0.70986 0.07522 0.07743
 C149 C 0.71117 0.09047 0.03526
 C150 C 0.71684 0.13134 0.02365
 C151 C 0.71443 0.13302 -0.01932
 C152 C 0.70699 0.09321 -0.03319
 N153 N 0.70430 0.06737 0.00037
 C154 C 0.70086 0.08094 -0.07587
 C155 C 0.69104 0.03936 -0.08397
 C156 C 0.66118 0.02415 -0.11123
 C157 C 0.66559 -0.01772 -0.11297
 C158 C 0.69842 -0.02642 -0.08717
 N159 N 0.71226 0.00827 -0.06803
 C160 C 0.71739 -0.06434 -0.08184
 H161 H 0.77698 -0.12133 -0.04647
 H162 H 0.77663 -0.12133 0.03516
 H163 H 0.73799 0.01117 -0.04859
 H164 H 0.66418 -0.04194 0.14317
 H165 H 0.66127 0.03694 0.14350
 H166 H 0.72079 0.15797 0.04356
 H167 H 0.71681 0.16095 -0.03768
 H168 H 0.64659 -0.03913 -0.13090
 H169 H 0.73036 0.00385 0.03597
 H170 H 0.63888 0.04152 -0.12822
 C171 C 0.23390 0.37213 0.51894
 C172 C 0.23368 0.37325 0.47596
 C173 C 0.21757 0.41033 0.46432
 N174 N 0.20700 0.43134 0.49946
 C175 C 0.21634 0.40769 0.53305
 C176 C 0.20976 0.42315 0.42212
 C177 C 0.19231 0.46155 0.41515
 C178 C 0.16515 0.47098 0.38328
 C179 C 0.16115 0.51274 0.38400
 C180 C 0.18437 0.52713 0.41753
 N181 N 0.20243 0.49581 0.43716
 C182 C 0.18959 0.56863 0.42841
 C183 C 0.18637 0.58007 0.47095
 C184 C 0.16863 0.61527 0.48516
 C185 C 0.17081 0.61401 0.52834
 C186 C 0.19156 0.57901 0.53885
 N187 N 0.19965 0.55759 0.50363
 C188 C 0.20566 0.56855 0.57960
 C189 C 0.20916 0.52646 0.59185
 C190 C 0.21894 0.51325 0.63208
 C191 C 0.22140 0.47164 0.63069
 C192 C 0.21031 0.45911 0.59043
 N193 N 0.20277 0.49289 0.56691
 C194 C 0.20955 0.41745 0.57635
 H195 H 0.24660 0.34771 0.53726
 H196 H 0.24375 0.34855 0.45639
 H197 H 0.19182 0.49267 0.53623
 H198 H 0.14960 0.45007 0.36176
 H199 H 0.14270 0.53044 0.36285
 H200 H 0.15429 0.63853 0.46648
 H201 H 0.15825 0.63632 0.54950
 H202 H 0.23198 0.45348 0.65671
 H203 H 0.22448 0.49841 0.46084
 H204 H 0.22359 0.53091 0.66047
 C205 C 0.29889 0.86856 0.02705
 C206 C 0.29913 0.86795 -0.01597
 C207 C 0.29558 0.90814 -0.02947
 N208 N 0.29294 0.93314 0.00443
 C209 C 0.29527 0.90910 0.03915
 C210 C 0.28855 0.92088 -0.07168
 C211 C 0.27480 0.96092 -0.07818
 C212 C 0.24257 0.97115 -0.10408
 C213 C 0.24200 1.01313 -0.10480
 C214 C 0.27394 1.02722 -0.07938
 N215 N 0.29267 0.99520 -0.06164
 C216 C 0.28669 1.06870 -0.07444
 C217 C 0.29418 1.08331 -0.03282
 C218 C 0.29749 1.12417 -0.02094
 C219 C 0.29849 1.12493 0.02203
 C220 C 0.29570 1.08450 0.03583
 N221 N 0.29268 1.05919 0.00208
 C222 C 0.28984 1.07144 0.07841
 C223 C 0.27695 1.03021 0.08592
 C224 C 0.24568 1.01761 0.11317
 C225 C 0.24510 0.97558 0.11381
 C226 C 0.27607 0.96368 0.08700
 N227 N 0.29423 0.99711 0.06855
 C228 C 0.28784 0.92287 0.08086
 H229 H 0.29777 0.84122 0.04626
 H230 H 0.29819 0.84013 -0.03434
 H231 H 0.31968 0.99745 0.04849
 H232 H 0.22182 0.95048 -0.12090
 H233 H 0.22069 1.03126 -0.12228
 H234 H 0.29574 1.15132 -0.04028
 H235 H 0.29761 1.15279 0.04022
 H236 H 0.22395 0.95601 0.13169
 H237 H 0.31899 0.99672 -0.04298
 H238 H 0.22521 1.03676 0.13061
 C239 C 0.81952 0.38073 0.52308
 C240 C 0.82015 0.38020 0.47987
 C241 C 0.81084 0.41923 0.46644
 N242 N 0.80638 0.44393 0.50026
 C243 C 0.80995 0.42009 0.53497
 C244 C 0.80592 0.43144 0.42370
 C245 C 0.81018 0.47335 0.41198
 C246 C 0.82502 0.48771 0.37353
 C247 C 0.81899 0.52917 0.37243
 C248 C 0.80178 0.53951 0.41093
 N249 N 0.79701 0.50518 0.43491
 C250 C 0.78593 0.57810 0.42204
 C251 C 0.77246 0.58365 0.46385
 C252 C 0.73658 0.60159 0.47632
 C253 C 0.73706 0.60242 0.51964
 C254 C 0.77314 0.58484 0.53185
 N255 N 0.79422 0.57228 0.49782
 C256 C 0.78720 0.58046 0.57352
 C257 C 0.80214 0.54188 0.58604
 C258 C 0.81858 0.53226 0.62507
 C259 C 0.82348 0.49061 0.62562
 C260 C 0.80894 0.47552 0.58753
 N261 N 0.79688 0.50696 0.56330
 C262 C 0.80412 0.43343 0.57716
 H263 H 0.82629 0.35510 0.54327
 H264 H 0.82751 0.35407 0.46072
 H265 H 0.78056 0.50412 0.53527
 H266 H 0.83774 0.46994 0.34820
 H267 H 0.82518 0.54836 0.34525
 H268 H 0.71228 0.61213 0.45633
 H269 H 0.71323 0.61375 0.53986
 H270 H 0.83533 0.47325 0.65173
 H271 H 0.78031 0.50280 0.46287
 H272 H 0.82483 0.55212 0.65159
 O273 O 0.22066 0.26963 0.29997
 O274 O 0.24886 0.18520 0.23086
 O275 O 0.27667 0.21584 0.30164
 O276 O 0.19388 0.23947 0.22832
 O277 O 0.23564 0.28259 0.19400
 O278 O 0.31932 0.25713 0.26607
 O279 O 0.29071 0.22744 0.19541
 O280 O 0.26376 0.31190 0.26629
 Cu281 Cu 0.23077 0.22342 0.26879
 Cu282 Cu 0.28153 0.27415 0.22693
 C283 C 0.23800 0.30483 0.29578
 C284 C 0.27397 0.19205 0.20083
 C285 C 0.31205 0.23254 0.29650
 C286 C 0.20087 0.26428 0.19800
 O287 O 0.68285 0.74426 0.26359
 O288 O 0.76575 0.71593 0.19158
 O289 O 0.73699 0.68895 0.26442
 O290 O 0.71081 0.77156 0.19080
 O291 O 0.75407 0.81378 0.22382
 O292 O 0.77994 0.73152 0.29745
 O293 O 0.80830 0.75875 0.22478
 O294 O 0.72569 0.78717 0.29639
 Cu295 Cu 0.71984 0.72588 0.22417
 Cu296 Cu 0.77129 0.77704 0.26396
 C297 C 0.69046 0.76988 0.29285
 C298 C 0.80092 0.73343 0.19521
 C299 C 0.76202 0.69650 0.29424
 C300 C 0.72886 0.80653 0.19411
 O301 O 0.82070 0.24749 0.23284
 O302 O 0.73664 0.21623 0.30555
 O303 O 0.76523 0.18869 0.23372
 O304 O 0.79278 0.27414 0.30534
 O305 O 0.75274 0.31466 0.26948
 O306 O 0.72270 0.22857 0.20035
 O307 O 0.69599 0.25789 0.27202
 O308 O 0.77883 0.28652 0.19752
 Cu309 Cu 0.78305 0.22761 0.27275
 Cu310 Cu 0.73336 0.27579 0.23135
 C311 C 0.81387 0.27153 0.20222
 C312 C 0.70231 0.23311 0.30209
 C313 C 0.73941 0.19423 0.20457
 C314 C 0.77702 0.30882 0.29995
 O315 O 0.27858 0.76683 0.20250
 O316 O 0.24484 0.68237 0.27297
 O317 O 0.22153 0.71006 0.19960
 O318 O 0.30489 0.73632 0.27320
 O319 O 0.26488 0.77866 0.30681
 O320 O 0.18121 0.75221 0.23302
 O321 O 0.20475 0.72416 0.30714
 O322 O 0.23790 0.80840 0.23636
 Cu323 Cu 0.26644 0.71961 0.23377
 Cu324 Cu 0.21801 0.76980 0.27443
 C325 C 0.26337 0.80189 0.20704
 C326 C 0.21974 0.68908 0.30268
 C327 C 0.18769 0.72777 0.20273
 C328 C 0.29916 0.76177 0.30263
 O329 O 0.78551 0.27925 0.69945
 O330 O 0.75453 0.19522 0.77176
 O331 O 0.72728 0.22421 0.70040
 O332 O 0.81243 0.25153 0.77150
 O333 O 0.77242 0.29228 0.80713
 O334 O 0.68759 0.26658 0.73433
 O335 O 0.71365 0.23651 0.80560
 O336 O 0.74666 0.32129 0.73488
 Cu337 Cu 0.77396 0.23334 0.73241
 Cu338 Cu 0.72616 0.28337 0.77406
 C339 C 0.77073 0.31440 0.70432
 C340 C 0.72901 0.20154 0.80116
 C341 C 0.69327 0.24154 0.70444
 C342 C 0.80679 0.27590 0.80199
 O343 O 0.31734 0.74259 0.73546
 O344 O 0.23178 0.71065 0.80572
 O345 O 0.26195 0.68462 0.73336
 O346 O 0.28843 0.76810 0.80712
 O347 O 0.24721 0.80881 0.77289
 O348 O 0.22052 0.72526 0.69943
 O349 O 0.19133 0.75191 0.77137
 O350 O 0.27611 0.78350 0.70154
 Cu351 Cu 0.27884 0.72218 0.77391
 Cu352 Cu 0.22958 0.77127 0.73274
 C353 C 0.31102 0.76824 0.70620
 C354 C 0.19740 0.72729 0.80157
 C355 C 0.23778 0.69114 0.70297
 C356 C 0.27195 0.80253 0.80284
 O357 O 0.25462 0.29928 0.72651
 O358 O 0.28438 0.21806 0.79945
 O359 O 0.31110 0.24496 0.72653
 O360 O 0.22904 0.27246 0.80000
 O361 O 0.18616 0.22951 0.76739
 O362 O 0.26910 0.19998 0.69556
 O363 O 0.24072 0.17471 0.76836
 O364 O 0.21353 0.25529 0.69300
 Cu365 Cu 0.27406 0.26317 0.76614
 Cu366 Cu 0.22301 0.21068 0.72766
 C367 C 0.22987 0.29099 0.69666
 C368 C 0.26687 0.18279 0.79698
 C369 C 0.30427 0.21761 0.69874
 C370 C 0.19390 0.25483 0.79697
 O371 O 0.71935 0.78001 0.80058
 O372 O 0.74163 0.69643 0.72741
 O373 O 0.77174 0.72245 0.79931
 O374 O 0.68828 0.75256 0.72952
 O375 O 0.73141 0.79377 0.69445
 O376 O 0.81457 0.76509 0.76571
 O377 O 0.78551 0.73752 0.69324
 O378 O 0.76169 0.82185 0.76535
 Cu379 Cu 0.72597 0.73373 0.76772
 Cu380 Cu 0.77770 0.78360 0.72611
 C381 C 0.73716 0.81499 0.79592
 C382 C 0.76671 0.70297 0.69725
 C383 C 0.80702 0.73968 0.79540
 C384 C 0.69574 0.77767 0.69959
 C385 C 0.28766 0.10172 0.11213
 C386 C 0.32317 0.13436 0.11228
 C387 C 0.31894 0.16466 0.14130
 C388 C 0.28057 0.15883 0.16915
 C389 C 0.24455 0.15534 0.13846
 C390 C 0.24810 0.12572 0.10903
 C391 C 0.28852 0.08586 0.15832
 C392 C 0.28421 0.11569 0.18794
 H393 H 0.35034 0.13271 0.09261
 H394 H 0.34224 0.18876 0.14588
 H395 H 0.21800 0.17441 0.14007
 H396 H 0.22450 0.11957 0.08560
 H397 H 0.29568 0.05485 0.16737
 H398 H 0.28649 0.10957 0.22151
 C399 C 0.78232 0.61504 0.60598
 C400 C 0.76846 0.65695 0.58928
 C401 C 0.76279 0.68536 0.61988
 C402 C 0.77266 0.67036 0.66449
 C403 C 0.74572 0.63123 0.67055
 C404 C 0.75068 0.60267 0.64010
 C405 C 0.82184 0.62719 0.63020
 C406 C 0.81664 0.65554 0.66117
 H407 H 0.76793 0.66582 0.55635
 H408 H 0.75555 0.71679 0.61251
 H409 H 0.72425 0.62628 0.69642
 H410 H 0.73338 0.57365 0.64014
 H411 H 0.85176 0.61579 0.62241
 H412 H 0.84186 0.66762 0.68016
 C413 C 0.71284 0.89360 0.10135
 C414 C 0.74752 0.90399 0.13265
 C415 C 0.75242 0.87578 0.16340
 C416 C 0.72239 0.83869 0.16082
 C417 C 0.67957 0.85673 0.16043
 C418 C 0.67425 0.88462 0.12878
 C419 C 0.72138 0.84987 0.08517
 C420 C 0.72765 0.82187 0.11609
 H421 H 0.76698 0.93162 0.13064
 H422 H 0.77599 0.87967 0.18726
 H423 H 0.65453 0.84562 0.18047
 H424 H 0.64411 0.89542 0.12109
 H425 H 0.71610 0.83954 0.05310
 H426 H 0.73040 0.78952 0.10915
 C427 C 0.21172 0.38246 0.60944
 C428 C 0.25656 0.37519 0.62075
 C429 C 0.26182 0.34472 0.64898
 C430 C 0.22185 0.32376 0.66454
 C431 C 0.19580 0.35850 0.68115
 C432 C 0.18951 0.38856 0.65210
 C433 C 0.19352 0.34005 0.59594
 C434 C 0.19960 0.30931 0.62424
 H435 H 0.28229 0.39264 0.60717
 H436 H 0.29204 0.33622 0.65932
 H437 H 0.18067 0.35776 0.71171
 H438 H 0.16808 0.41259 0.65791
 H439 H 0.17513 0.33508 0.56784
 H440 H 0.18722 0.27838 0.61949
 C441 C 0.90152 0.29550 0.11043
 C442 C 0.88571 0.33410 0.13206
 C443 C 0.85722 0.32632 0.16284
 C444 C 0.84658 0.28058 0.16951
 C445 C 0.83384 0.26462 0.12586
 C446 C 0.86263 0.27136 0.09539
 C447 C 0.91617 0.26800 0.14697
 C448 C 0.88783 0.26085 0.17791
 H449 H 0.89624 0.36504 0.12389
 H450 H 0.84356 0.35056 0.18090
 H451 H 0.80516 0.24800 0.11969
 H452 H 0.85873 0.25848 0.06407
 H453 H 0.94534 0.25308 0.14737
 H454 H 0.89369 0.24101 0.20459
 C455 C 0.39877 0.79023 0.61502
 C456 C 0.41663 0.78793 0.66021
 C457 C 0.38769 0.78180 0.69103
 C458 C 0.34377 0.77739 0.67400
 C459 C 0.33779 0.81658 0.64816
 C460 C 0.36656 0.82335 0.61772
 C461 C 0.37447 0.74900 0.61145
 C462 C 0.34541 0.74275 0.64160
 H463 H 0.44898 0.78722 0.66753
 H464 H 0.39562 0.77770 0.72396
 H465 H 0.31375 0.83799 0.65409
 H466 H 0.36691 0.85040 0.59770
 H467 H 0.38059 0.72593 0.58784
 H468 H 0.32652 0.71472 0.64333
 C469 C 0.10282 0.71054 0.10779
 C470 C 0.14743 0.71948 0.09258
 C471 C 0.17480 0.72598 0.12427
 C472 C 0.15617 0.72132 0.16863
 C473 C 0.12120 0.75152 0.16956
 C474 C 0.09372 0.74606 0.13791
 C475 C 0.10781 0.67264 0.13644
 C476 C 0.13511 0.67854 0.16855
 H477 H 0.15803 0.71642 0.06034
 H478 H 0.20740 0.73046 0.11822
 H479 H 0.11846 0.77573 0.19271
 H480 H 0.06778 0.76570 0.13431
 H481 H 0.09243 0.64312 0.13091
 H482 H 0.14238 0.65440 0.19062
 C483 C 0.60200 0.22237 0.61639
 C484 C 0.64091 0.19839 0.60806
 C485 C 0.67096 0.20439 0.63696
 C486 C 0.65991 0.23388 0.67251
 C487 C 0.64752 0.27331 0.65007
 C488 C 0.61673 0.26745 0.62163
 C489 C 0.58918 0.21074 0.66217
 C490 C 0.61971 0.21607 0.69115
 H491 H 0.64434 0.17785 0.58148
 H492 H 0.69979 0.18898 0.63475
 H493 H 0.65983 0.30364 0.65803
 H494 H 0.60213 0.29301 0.60658
 H495 H 0.55790 0.20563 0.67283
 H496 H 0.61425 0.21251 0.72479
 C497 C 0.70687 0.11059 0.88982
 C498 C 0.67562 0.14485 0.89081
 C499 C 0.68247 0.17491 0.86157
 C500 C 0.71963 0.16808 0.83291
 C501 C 0.75572 0.16275 0.86292
 C502 C 0.74942 0.13264 0.89202
 C503 C 0.70556 0.09508 0.84350
 C504 C 0.71165 0.12528 0.81400
 H505 H 0.64974 0.14504 0.91239
 H506 H 0.66237 0.20051 0.85836
 H507 H 0.78475 0.17980 0.86012
 H508 H 0.77334 0.12415 0.91377
 H509 H 0.70412 0.06324 0.83397
 H510 H 0.71342 0.11880 0.78049
 C511 C 0.19660 0.60108 0.39383
 C512 C 0.15750 0.61917 0.37569
 C513 C 0.16468 0.64798 0.34493
 C514 C 0.21038 0.65628 0.33511
 C515 C 0.22985 0.66735 0.37770
 C516 C 0.22319 0.63852 0.40811
 C517 C 0.22008 0.58543 0.35499
 C518 C 0.22693 0.61405 0.32435
 H519 H 0.12684 0.60998 0.38607
 H520 H 0.14013 0.66331 0.32900
 H521 H 0.24830 0.69512 0.38323
 H522 H 0.23685 0.64170 0.43914
 H523 H 0.23148 0.55472 0.35213
 H524 H 0.24335 0.60722 0.29554
 C525 C 0.28615 0.89103 0.89416
 C526 C 0.24674 0.86401 0.89730
 C527 C 0.24294 0.83500 0.86699
 C528 C 0.27864 0.83510 0.83558
 C529 C 0.28197 0.87897 0.81804
 C530 C 0.28650 0.90821 0.84844
 C531 C 0.32173 0.86102 0.89253
 C532 C 0.31732 0.83130 0.86261
 H533 H 0.22352 0.86760 0.92149
 H534 H 0.21657 0.81384 0.86540
 H535 H 0.28388 0.88623 0.78463
 H536 H 0.29345 0.93999 0.84019
 H537 H 0.34907 0.86411 0.91181
 H538 H 0.34063 0.80905 0.85691
 C539 C 0.79751 0.39872 0.38935
 C540 C 0.83677 0.37969 0.37261
 C541 C 0.83027 0.35039 0.34261
 C542 C 0.78497 0.34230 0.33178
 C543 C 0.76379 0.33245 0.37403
 C544 C 0.76957 0.36206 0.40370
 C545 C 0.77491 0.41359 0.34957
 C546 C 0.76905 0.38443 0.31938
 H547 H 0.86726 0.38882 0.38336
 H548 H 0.85518 0.33457 0.32775
 H549 H 0.74350 0.30585 0.37922
 H550 H 0.75329 0.36069 0.43360
 H551 H 0.76150 0.44339 0.34654
 H552 H 0.75222 0.39033 0.29066
 C553 C 0.10878 0.27561 0.89044
 C554 C 0.15108 0.26185 0.90621
 C555 C 0.17832 0.25430 0.87491
 C556 C 0.16218 0.26256 0.83041
 C557 C 0.12258 0.23602 0.82707
 C558 C 0.09503 0.24268 0.85828
 C559 C 0.12098 0.31396 0.86387
 C560 C 0.14819 0.30694 0.83213
 H561 H 0.16127 0.26303 0.93869
 H562 H 0.20986 0.24704 0.88152
 H563 H 0.11664 0.21351 0.80250
 H564 H 0.06587 0.22571 0.86010
 H565 H 0.11053 0.34449 0.87062
 H566 H 0.16016 0.33118 0.81155
 C567 C 0.60350 0.78422 0.38510
 C568 C 0.63867 0.81709 0.38629
 C569 C 0.66777 0.81264 0.35598
 C570 C 0.65847 0.77665 0.32588
 C571 C 0.65286 0.73889 0.35438
 C572 C 0.62430 0.74276 0.38501
 C573 C 0.58688 0.78931 0.33971
 C574 C 0.61557 0.78476 0.30883
 H575 H 0.63957 0.84288 0.40787
 H576 H 0.69343 0.83440 0.35223
 H577 H 0.66990 0.71113 0.35061
 H578 H 0.61691 0.71828 0.40732
 H579 H 0.55623 0.79889 0.33239
 H580 H 0.60894 0.78939 0.27565
 C581 C 0.89309 0.71793 0.88686
 C582 C 0.90474 0.75394 0.85731
 C583 C 0.87684 0.76098 0.82670
 C584 C 0.83910 0.73157 0.82809
 C585 C 0.85625 0.68839 0.82649
 C586 C 0.88403 0.68106 0.85749
 C587 C 0.84989 0.72741 0.90366
 C588 C 0.82224 0.73537 0.87310
 H589 H 0.93275 0.77258 0.86044
 H590 H 0.88126 0.78562 0.80389
 H591 H 0.84627 0.66511 0.80401
 H592 H 0.89711 0.65122 0.86174
 H593 H 0.84008 0.72380 0.93620
 H594 H 0.79029 0.74048 0.88034
 C595 C 0.39904 0.21189 0.38702
 C596 C 0.41677 0.23266 0.34660
 C597 C 0.38849 0.23879 0.31589
 C598 C 0.34466 0.22482 0.32854
 C599 C 0.34776 0.17964 0.34103
 C600 C 0.37594 0.17296 0.37149
 C601 C 0.36560 0.24185 0.39983
 C602 C 0.33674 0.24752 0.36986
 H603 H 0.44796 0.24486 0.34350
 H604 H 0.39629 0.25457 0.28662
 H605 H 0.32959 0.15488 0.32681
 H606 H 0.38175 0.14246 0.38328
 H607 H 0.36567 0.25887 0.42920
 H608 H 0.31169 0.26800 0.37449
 C609 C 0.72214 0.90622 0.88395
 C610 C 0.69785 0.86594 0.89360
 C611 C 0.70249 0.83588 0.86474
 C612 C 0.73088 0.84824 0.82789
 C613 C 0.71297 0.88731 0.80965
 C614 C 0.70902 0.91790 0.83854
 C615 C 0.76680 0.89393 0.87679
 C616 C 0.77120 0.86310 0.84849
 H617 H 0.67804 0.86158 0.92095
 H618 H 0.68673 0.80619 0.86780
 H619 H 0.70813 0.89213 0.77616
 H620 H 0.70363 0.94872 0.82774
 H621 H 0.79314 0.91020 0.89037
 H622 H 0.80105 0.85240 0.83933
 C623 C 0.21754 0.39350 0.38515
 C624 C 0.18847 0.35556 0.38815
 C625 C 0.19494 0.32653 0.35868
 C626 C 0.22985 0.33764 0.32772
 C627 C 0.21887 0.37926 0.30915
 C628 C 0.21336 0.40877 0.33894
 C629 C 0.26122 0.37703 0.38474
 C630 C 0.26738 0.34751 0.35540
 H631 H 0.16416 0.35214 0.41148
 H632 H 0.17598 0.29859 0.35709
 H633 H 0.22008 0.38622 0.27565
 H634 H 0.21283 0.44066 0.32952
 H635 H 0.28594 0.38929 0.40431
 H636 H 0.29724 0.33486 0.35013
 C637 C 0.28337 0.09734 0.89040
 C638 C 0.24371 0.12119 0.89344
 C639 C 0.23910 0.14917 0.86238
 C640 C 0.27431 0.15132 0.83037
 C641 C 0.31335 0.15883 0.85662
 C642 C 0.31857 0.13015 0.88725
 C643 C 0.28321 0.07918 0.84516
 C644 C 0.27786 0.10736 0.81400
 H645 H 0.22082 0.11614 0.91801
 H646 H 0.21235 0.16793 0.86050
 H647 H 0.33638 0.18276 0.84987
 H648 H 0.34628 0.12967 0.90604
 H649 H 0.29052 0.04784 0.83768
 H650 H 0.27937 0.09956 0.78078
 C651 C 0.78012 0.61151 0.38827
 C652 C 0.74861 0.59740 0.35492
 C653 C 0.74279 0.62491 0.32348
 C654 C 0.76883 0.66478 0.32784
 C655 C 0.75879 0.68081 0.37200
 C656 C 0.76537 0.65356 0.40354
 C657 C 0.81925 0.62386 0.36316
 C658 C 0.81321 0.65112 0.33122
 H659 H 0.73204 0.56799 0.35610
 H660 H 0.72136 0.61872 0.29800
 H661 H 0.75090 0.71226 0.37833
 H662 H 0.76521 0.66362 0.43606
 H663 H 0.84952 0.61356 0.37110
 H664 H 0.83808 0.66327 0.31155
 C665 C 0.10763 0.70934 0.89225
 C666 C 0.10136 0.74614 0.86292
 C667 C 0.13058 0.75165 0.83285
 C668 C 0.16442 0.72011 0.83436
 C669 C 0.18087 0.72261 0.87962
 C670 C 0.15164 0.71614 0.90980
 C671 C 0.11275 0.67217 0.86275
 C672 C 0.14192 0.67811 0.83215
 H673 H 0.07605 0.76667 0.86594
 H674 H 0.12988 0.77688 0.81052
 H675 H 0.21319 0.72595 0.88730
 H676 H 0.16020 0.71224 0.94255
 H677 H 0.09606 0.64305 0.86668
 H678 H 0.14954 0.65442 0.80976
 C679 C 0.61404 0.21456 0.39466
 C680 C 0.65832 0.22154 0.41115
 C681 C 0.68697 0.22848 0.38045
 C682 C 0.66978 0.22569 0.33549
 C683 C 0.64782 0.18332 0.33408
 C684 C 0.61938 0.17718 0.36548
 C685 C 0.60683 0.25085 0.36499
 C686 C 0.63549 0.25663 0.33439
 H687 H 0.66786 0.21519 0.44316
 H688 H 0.71949 0.23044 0.38748
 H689 H 0.65605 0.15924 0.31242
 H690 H 0.60458 0.14735 0.37107
 H691 H 0.58104 0.27076 0.36806
 H692 H 0.63386 0.28147 0.31170
 C693 C 0.89708 0.29675 0.89080
 C694 C 0.88160 0.33595 0.87013
 C695 C 0.85212 0.32921 0.84039
 C696 C 0.84032 0.28377 0.83375
 C697 C 0.88087 0.26325 0.82369
 C698 C 0.91013 0.26941 0.85364
 C699 C 0.85817 0.27335 0.90716
 C700 C 0.82844 0.26742 0.87768
 H701 H 0.89311 0.36653 0.87819
 H702 H 0.83852 0.35400 0.82305
 H703 H 0.88558 0.24350 0.79674
 H704 H 0.93885 0.25372 0.85224
 H705 H 0.85512 0.26003 0.93846
 H706 H 0.79996 0.25053 0.88450
 C707 C 0.39072 0.78001 0.39021
 C708 C 0.40528 0.78571 0.34395
 C709 C 0.37501 0.77983 0.31478
 C710 C 0.33267 0.76976 0.33422
 C711 C 0.33879 0.73228 0.36238
 C712 C 0.36888 0.73756 0.39137
 C713 C 0.35642 0.81129 0.39329
 C714 C 0.32573 0.80539 0.36476
 H715 H 0.43586 0.79648 0.33485
 H716 H 0.38021 0.78459 0.28126
 H717 H 0.32126 0.70357 0.35931
 H718 H 0.37692 0.71337 0.41307
 H719 H 0.35719 0.83714 0.41480
 H720 H 0.30041 0.82595 0.36249
 C721 C 0.28333 0.89148 0.11712
 C722 C 0.24367 0.86524 0.11227
 C723 C 0.23799 0.83590 0.14217
 C724 C 0.27221 0.83494 0.17497
 C725 C 0.31196 0.83077 0.14949
 C726 C 0.31818 0.86078 0.11995
 C727 C 0.28190 0.90818 0.16279
 C728 C 0.27551 0.87864 0.19287
 H729 H 0.22161 0.86966 0.08726
 H730 H 0.21116 0.81526 0.14258
 H731 H 0.33455 0.80798 0.15593
 H732 H 0.34631 0.86362 0.10168
 H733 H 0.28928 0.93971 0.17141
 H734 H 0.27619 0.88548 0.22636
 C735 C 0.79447 0.40175 0.61244
 C736 C 0.83303 0.38276 0.63070
 C737 C 0.82539 0.35437 0.66156
 C738 C 0.77973 0.34708 0.67167
 C739 C 0.76400 0.38970 0.68225
 C740 C 0.77105 0.41799 0.65119
 C741 C 0.76652 0.36501 0.59873
 C742 C 0.75957 0.33630 0.62930
 H743 H 0.86388 0.39125 0.62032
 H744 H 0.84971 0.33871 0.67754
 H745 H 0.74656 0.39657 0.71040
 H746 H 0.75814 0.44811 0.65293
 H747 H 0.75117 0.36291 0.56847
 H748 H 0.73927 0.30965 0.62454
 C749 C 0.71819 0.10520 0.11439
 C750 C 0.75800 0.13146 0.10852
 C751 C 0.76425 0.16079 0.13839
 C752 C 0.73095 0.16100 0.17259
 C753 C 0.69041 0.16488 0.14883
 C754 C 0.68374 0.13582 0.11888
 C755 C 0.72386 0.08776 0.15955
 C756 C 0.72961 0.11700 0.18993
 H757 H 0.78065 0.12579 0.08428
 H758 H 0.79219 0.17968 0.13953
 H759 H 0.66813 0.18788 0.15570
 H760 H 0.65589 0.13426 0.10026
 H761 H 0.72861 0.05583 0.16681
 H762 H 0.73665 0.10931 0.22238
 C763 C 0.21615 0.60309 0.61184
 C764 C 0.22412 0.64714 0.59454
 C765 C 0.23068 0.67610 0.62484
 C766 C 0.23034 0.65877 0.66992
 C767 C 0.18905 0.63569 0.67474
 C768 C 0.18170 0.60684 0.64467
 C769 C 0.25571 0.59719 0.63748
 C770 C 0.26249 0.62545 0.66845
 H771 H 0.23050 0.65447 0.56174
 H772 H 0.24016 0.70746 0.61710
 H773 H 0.16732 0.64155 0.69982
 H774 H 0.15354 0.58815 0.64410
 H775 H 0.27811 0.57449 0.62995
 H776 H 0.29009 0.62597 0.68745
 C777 C 0.88880 0.71363 0.10474
 C778 C 0.87896 0.67602 0.13314
 C779 C 0.85045 0.68261 0.16377
 C780 C 0.83338 0.72583 0.16266
 C781 C 0.87111 0.75518 0.16529
 C782 C 0.89970 0.74890 0.13514
 C783 C 0.84607 0.72356 0.08723
 C784 C 0.81759 0.73069 0.11744
 H785 H 0.89205 0.64625 0.12846
 H786 H 0.83982 0.65878 0.18552
 H787 H 0.87503 0.77932 0.18857
 H788 H 0.92774 0.76767 0.13287
 H789 H 0.83727 0.72094 0.05438
 H790 H 0.78580 0.73578 0.10974
 C791 C 0.39412 0.19568 0.61081
 C792 C 0.36873 0.23390 0.60263
 C793 C 0.33899 0.24012 0.63164
 C794 C 0.33737 0.20843 0.66732
 C795 C 0.33282 0.16662 0.64525
 C796 C 0.36253 0.15992 0.61605
 C797 C 0.41073 0.20329 0.65593
 C798 C 0.38102 0.20947 0.68538
 H799 H 0.37442 0.25507 0.57662
 H800 H 0.31918 0.26612 0.62998
 H801 H 0.30894 0.14375 0.65269
 H802 H 0.36390 0.13139 0.59866
 H803 H 0.44287 0.20635 0.66410
 H804 H 0.38815 0.21631 0.71809
 C805 C 0.11340 0.28053 0.10652
 C806 C 0.10073 0.24896 0.14061
 C807 C 0.12915 0.24380 0.17111
 C808 C 0.16847 0.27047 0.16511
 C809 C 0.18346 0.26042 0.12051
 C810 C 0.15517 0.26627 0.08986
 C811 C 0.12581 0.32001 0.13077
 C812 C 0.15402 0.31460 0.16176
 H813 H 0.07164 0.23180 0.14056
 H814 H 0.12400 0.22232 0.19693
 H815 H 0.21476 0.25270 0.11320
 H816 H 0.16392 0.26529 0.05690
 H817 H 0.11454 0.35001 0.12308
 H818 H 0.16620 0.33974 0.18084
 C819 C 0.60654 0.79519 0.61046
 C820 C 0.62967 0.75496 0.60647
 C821 C 0.65933 0.75021 0.63578
 C822 C 0.66286 0.78530 0.66774
 C823 C 0.66934 0.82442 0.64118
 C824 C 0.63991 0.82964 0.61160
 C825 C 0.58993 0.79260 0.65630
 C826 C 0.61948 0.78812 0.68613
 H827 H 0.62232 0.73141 0.58331
 H828 H 0.67738 0.72292 0.63724
 H829 H 0.69434 0.84671 0.64587
 H830 H 0.63996 0.85632 0.59108
 H831 H 0.55779 0.79019 0.66485
 H832 H 0.61221 0.78395 0.71934
   
