data_POSCAR
  _audit_creation_date              2014-09-24
  _audit_creation_method            'ToBaCCo'
  _symmetry_space_group_name_H-M    'P1'
  _symmetry_Int_Tables_number       1
  _symmetry_cell_setting            triclinic
  loop_
  _symmetry_equiv_pos_as_xyz
 x,y,z
_cell_length_a 35.4247
_cell_length_b 36.1341
_cell_length_c 33.7024
_cell_angle_alpha 90.044700
_cell_angle_beta 88.291400
_cell_angle_gamma 91.258100
loop_
  _atom_site_label
  _atom_site_type_symbol
  _atom_site_fract_x
  _atom_site_fract_y
  _atom_site_fract_z
C1 C 0.20842 0.20322 0.24897
 C2 C 0.24067 0.18698 0.23126
 C3 C 0.25279 0.19492 0.19180
 C4 C 0.23214 0.22065 0.17023
 C5 C 0.20005 0.23727 0.18702
 C6 C 0.18863 0.22873 0.22621
 H7 H 0.25387 0.16478 0.24669
 H8 H 0.24081 0.22816 0.14022
 H9 H 0.16470 0.24307 0.23899
 C10 C -0.15940 0.81057 0.22139
 C11 C -0.15138 0.77353 0.21124
 C12 C -0.17321 0.75382 0.18373
 C13 C -0.20382 0.77116 0.16658
 C14 C -0.21273 0.80756 0.17663
 C15 C -0.19065 0.82694 0.20385
 H16 H -0.12670 0.76051 0.22255
 H17 H -0.22121 0.75616 0.14580
 H18 H -0.19884 0.85470 0.21184
 C19 C -0.22598 0.21488 -0.28215
 C20 C -0.26036 0.20131 -0.26486
 C21 C -0.27645 0.21698 -0.23010
 C22 C -0.25864 0.24881 -0.21436
 C23 C -0.22505 0.26375 -0.23155
 C24 C -0.20920 0.24687 -0.26547
 H25 H -0.27379 0.17724 -0.27763
 H26 H -0.27112 0.26264 -0.18885
 H27 H -0.18187 0.25698 -0.27641
 C28 C 0.17938 0.80391 -0.23217
 C29 C 0.16416 0.77324 -0.21170
 C30 C 0.18222 0.75893 -0.17867
 C31 C 0.21662 0.77526 -0.16689
 C32 C 0.23268 0.80635 -0.18727
 C33 C 0.21409 0.81913 -0.22093
 H34 H 0.13728 0.76151 -0.22050
 H35 H 0.22876 0.76548 -0.13988
 H36 H 0.22625 0.84133 -0.23898
 C37 C 0.22029 1.19303 0.76247
 C38 C 0.20271 1.22395 0.77944
 C39 C 0.21729 1.24135 0.81295
 C40 C 0.25097 1.22892 0.82847
 C41 C 0.26915 1.19768 0.81255
 C42 C 0.25340 1.17995 0.77928
 H43 H 0.17681 1.23386 0.76734
 H44 H 0.26254 1.24376 0.85336
 H45 H 0.26563 1.15493 0.76749
 C46 C 0.82350 0.79717 0.77256
 C47 C 0.83309 0.76058 0.78249
 C48 C 0.81259 0.74002 0.81202
 C49 C 0.78133 0.75673 0.83112
 C50 C 0.77051 0.79244 0.82097
 C51 C 0.79141 0.81226 0.79181
 H52 H 0.85891 0.74939 0.77017
 H53 H 0.76401 0.74161 0.85286
 H54 H 0.78194 0.83950 0.78406
 C55 C 0.17851 0.81254 1.21435
 C56 C 0.16083 0.78021 1.19943
 C57 C 0.17753 0.75970 1.16841
 C58 C 0.21328 0.77066 1.15319
 C59 C 0.23182 0.80256 1.16720
 C60 C 0.21407 0.82342 1.19745
 H61 H 0.13306 0.77161 1.21049
 H62 H 0.22636 0.75460 1.12968
 H63 H 0.22860 0.84783 1.20823
 C64 C 0.77552 1.20993 1.29193
 C65 C 0.79353 1.24194 1.27516
 C66 C 0.78032 1.25816 1.24054
 C67 C 0.74777 1.24349 1.22340
 C68 C 0.72960 1.21169 1.23880
 C69 C 0.74288 1.19565 1.27346
 H70 H 0.82007 1.25232 1.28627
 H71 H 0.73746 1.25594 1.19667
 H72 H 0.72791 1.17148 1.28519
 O73 O 0.53731 0.94644 0.94519
 O74 O 0.47543 0.95247 1.07265
 O75 O 0.59131 0.98290 1.03599
 O76 O 0.41836 0.98087 0.97128
 O77 O 0.54783 0.95299 1.07296
 O78 O 0.46777 0.95414 0.94351
 O79 O 0.45871 0.94305 1.01258
 O80 O 0.58585 0.97954 0.96397
 C81 C 0.57218 0.94975 0.94998
 C82 C 0.45821 0.93306 1.04785
 C83 C 0.58161 0.95723 1.06044
 C84 C 0.43225 0.95988 0.94283
 O85 O 0.48039 1.02755 0.92997
 O86 O 0.54844 1.02271 1.08561
 O87 O 0.55782 1.05173 0.96669
 O88 O 0.43434 1.00348 1.04493
 O89 O 0.47890 1.02641 1.07985
 O90 O 0.54876 1.01458 0.92037
 O91 O 0.45432 1.04029 0.98611
 O92 O 0.56811 1.05396 1.03474
 Co93 Co 0.50893 0.98707 0.94166
 Co94 Co 0.51230 0.98918 1.07094
 Co95 Co 0.57103 1.01543 1.00005
 Co96 Co 0.45956 0.99217 0.99880
 O97 O 0.51505 0.99714 1.00616
 C98 C 0.46064 1.04885 0.95095
 C99 C 0.56455 1.05084 1.07124
 C100 C 0.55820 1.04619 0.93086
 C101 C 0.44502 1.02587 1.07076
 O102 O 0.03896 0.44858 0.05606
 O103 O 0.03929 0.51843 -0.05394
 O104 O 0.00484 0.40736 -0.04882
 O105 O -0.00289 0.55877 0.02891
 O106 O 0.04258 0.45291 -0.05952
 O107 O 0.03819 0.51897 0.04678
 O108 O -0.00326 0.55787 -0.04204
 O109 O 0.00899 0.40442 0.02420
 C110 C 0.03558 0.41535 0.04583
 C111 C 0.03040 0.55125 -0.05096
 C112 C 0.03719 0.41911 -0.05850
 C113 C 0.02930 0.55177 0.04174
 O114 O -0.03211 0.51791 0.07678
 O115 O -0.02874 0.44925 -0.08883
 O116 O -0.06315 0.41815 0.03287
 O117 O -0.07095 0.51995 -0.03951
 O118 O -0.03017 0.51643 -0.08661
 O119 O -0.03264 0.44920 0.07835
 O120 O -0.07228 0.52450 0.03181
 O121 O -0.06641 0.42947 -0.04143
 Co122 Co 0.00163 0.48368 0.05756
 Co123 Co 0.00392 0.48395 -0.06669
 Co124 Co -0.02766 0.42129 -0.00842
 Co125 Co -0.03549 0.53538 -0.00539
 O126 O -0.01408 0.48081 -0.00530
 C127 C -0.06430 0.52747 0.06708
 C128 C -0.06027 0.43540 -0.07740
 C129 C -0.05894 0.42725 0.06833
 C130 C -0.06305 0.52391 -0.07522
 O131 O 1.09048 0.03009 0.47031
 O132 O 0.93290 0.02379 0.54536
 O133 O 0.97577 0.06378 0.44381
 O134 O 1.04485 0.06202 0.55198
 O135 O 0.93174 0.02878 0.47236
 O136 O 1.08817 0.02327 0.54202
 O137 O 0.97711 0.06266 0.55864
 O138 O 1.04640 0.06782 0.45534
 C139 C 1.08050 0.06183 0.45948
 C140 C 0.94290 0.05571 0.55591
 C141 C 0.94177 0.05722 0.45266
 C142 C 1.07865 0.05464 0.55372
 O143 O 1.05475 -0.04468 0.53487
 O144 O 0.95167 -0.04007 0.46356
 O145 O 1.05244 0.00163 0.42183
 O146 O 0.97576 -0.00783 0.58610
 O147 O 0.95910 -0.04503 0.53915
 O148 O 1.06031 -0.04052 0.46409
 O149 O 1.04371 -0.00788 0.58315
 O150 O 0.98302 -0.00523 0.41974
 Co151 Co 1.06825 -0.00627 0.50285
 Co152 Co 0.95037 -0.00666 0.50536
 Co153 Co 1.01433 0.03008 0.44187
 Co154 Co 1.01061 0.02585 0.56454
 O155 O 1.01048 0.01055 0.50346
 C156 C 1.05134 -0.03969 0.57113
 C157 C 0.96255 -0.03342 0.42845
 C158 C 1.06015 -0.03109 0.42891
 C159 C 0.96332 -0.03909 0.57518
 C160 C 1.16639 0.16035 0.35986
 C161 C 1.20527 0.16106 0.35085
 C162 C 1.21938 0.17673 0.31533
 C163 C 1.19492 0.19186 0.28741
 C164 C 1.15610 0.19305 0.29810
 C165 C 1.14215 0.17745 0.33360
 C166 C 1.15028 0.13853 0.39391
 C167 C 1.11813 0.15080 0.41502
 C168 C 1.09724 0.12660 0.43981
 C169 C 1.10824 0.08976 0.44422
 C170 C 1.14267 0.07869 0.42681
 C171 C 1.16347 0.10286 0.40168
 H172 H 1.24966 0.17693 0.31012
 H173 H 1.13554 0.20324 0.27796
 H174 H 1.07101 0.13596 0.45336
 H175 H 1.15172 0.05040 0.42962
 H176 H 1.11189 0.17678 0.33924
 H177 H 1.10781 0.17842 0.41043
 H178 H 1.22477 0.14884 0.37096
 H179 H 1.18808 0.09252 0.38582
 C180 C 0.90456 -0.12747 0.30462
 C181 C 0.90272 -0.16626 0.30659
 C182 C 0.88261 -0.18680 0.27869
 C183 C 0.86317 -0.16901 0.24831
 C184 C 0.86633 -0.12998 0.24601
 C185 C 0.88673 -0.10964 0.27365
 C186 C 0.92278 -0.10534 0.33611
 C187 C 0.94512 -0.07378 0.32655
 C188 C 0.95904 -0.05092 0.35652
 C189 C 0.95060 -0.05902 0.39664
 C190 C 0.92934 -0.09130 0.40614
 C191 C 0.91566 -0.11423 0.37622
 H192 H 0.88073 -0.21648 0.28266
 H193 H 0.85381 -0.11474 0.22233
 H194 H 0.97564 -0.02645 0.34823
 H195 H 0.92250 -0.09848 0.43675
 H196 H 0.88763 -0.07973 0.27138
 H197 H 0.95139 -0.06653 0.29585
 H198 H 0.91641 -0.18073 0.33014
 H199 H 0.89823 -0.13816 0.38447
 C200 C 0.83645 0.15373 0.63090
 C201 C 0.80945 0.13601 0.65596
 C202 C 0.78804 0.15618 0.68342
 C203 C 0.79293 0.19501 0.68692
 C204 C 0.81897 0.21279 0.66021
 C205 C 0.84035 0.19244 0.63268
 C206 C 0.86278 0.13135 0.60613
 C207 C 0.90151 0.14063 0.60431
 C208 C 0.92732 0.11675 0.58638
 C209 C 0.91502 0.08296 0.57000
 C210 C 0.87612 0.07462 0.56970
 C211 C 0.85024 0.09860 0.58760
 H212 H 0.76993 0.14037 0.70379
 H213 H 0.82280 0.24257 0.66006
 H214 H 0.95712 0.12408 0.58685
 H215 H 0.86579 0.04901 0.55681
 H216 H 0.86042 0.20699 0.61312
 H217 H 0.91217 0.16541 0.61862
 H218 H 0.80633 0.10613 0.65603
 H219 H 0.82050 0.09102 0.58793
 C220 C 1.11298 -0.13854 0.68381
 C221 C 1.13248 -0.11928 0.71333
 C222 C 1.15418 -0.13816 0.74008
 C223 C 1.15704 -0.17680 0.73800
 C224 C 1.13745 -0.19629 0.70864
 C225 C 1.11577 -0.17725 0.68151
 C226 C 1.09129 -0.11748 0.65487
 C227 C 1.09519 -0.12468 0.61400
 C228 C 1.08019 -0.10051 0.58648
 C229 C 1.06121 -0.06876 0.59946
 C230 C 1.05492 -0.06317 0.64031
 C231 C 1.06970 -0.08735 0.66773
 H232 H 1.16842 -0.12246 0.76282
 H233 H 1.13918 -0.22611 0.70648
 H234 H 1.08528 -0.10557 0.55511
 H235 H 1.03990 -0.03922 0.65114
 H236 H 1.10099 -0.19272 0.65900
 H237 H 1.11176 -0.14766 0.60330
 H238 H 1.13143 -0.08941 0.71540
 H239 H 1.06555 -0.08165 0.69909
 C240 C 0.33973 1.12982 1.13930
 C241 C 0.33965 1.13809 1.17993
 C242 C 0.31199 1.16057 1.19692
 C243 C 0.28328 1.17542 1.17380
 C244 C 0.28489 1.16846 1.13251
 C245 C 0.31258 1.14590 1.11565
 C246 C 0.36695 1.10324 1.12194
 C247 C 0.35488 1.07663 1.09439
 C248 C 0.38011 1.05115 1.07834
 C249 C 0.41802 1.05165 1.08948
 C250 C 0.43011 1.07809 1.11723
 C251 C 0.40481 1.10361 1.13334
 H252 H 0.31362 1.16645 1.22831
 H253 H 0.26348 1.17820 1.11311
 H254 H 0.36990 1.03115 1.05702
 H255 H 0.45923 1.07933 1.12616
 H256 H 0.31231 1.14046 1.08405
 H257 H 0.32574 1.07520 1.08557
 H258 H 0.36036 1.12628 1.19893
 H259 H 0.41499 1.12398 1.15427
 C260 C 0.32501 0.86823 0.85977
 C261 C 0.29957 0.88486 0.83472
 C262 C 0.26994 0.86441 0.81881
 C263 C 0.26467 0.82622 0.82713
 C264 C 0.29126 0.80940 0.85148
 C265 C 0.32113 0.83015 0.86741
 C266 C 0.35350 0.89158 0.87996
 C267 C 0.39129 0.88089 0.88233
 C268 C 0.41759 0.90362 0.90162
 C269 C 0.40624 0.93699 0.91927
 C270 C 0.36856 0.94760 0.91662
 C271 C 0.34253 0.92521 0.89718
 H272 H 0.25000 0.87976 0.80205
 H273 H 0.28963 0.78010 0.85799
 H274 H 0.44648 0.89473 0.90353
 H275 H 0.35903 0.97315 0.92999
 H276 H 0.34049 0.81665 0.88671
 H277 H 0.40044 0.85516 0.86909
 H278 H 0.30200 0.91418 0.82819
 H279 H 0.31351 0.93392 0.89627
 C280 C 0.69626 0.86459 1.12383
 C281 C 0.72274 0.84586 1.09984
 C282 C 0.75174 0.82636 1.11705
 C283 C 0.75505 0.82582 1.15847
 C284 C 0.72832 0.84417 1.18243
 C285 C 0.69904 0.86318 1.16528
 C286 C 0.66649 0.88665 1.10587
 C287 C 0.62903 0.88390 1.12051
 C288 C 0.60133 0.90626 1.10515
 C289 C 0.61062 0.93220 1.07513
 C290 C 0.64808 0.93465 1.06023
 C291 C 0.67568 0.91187 1.07522
 H292 H 0.77219 0.81254 1.09802
 H293 H 0.73024 0.84395 1.21444
 H294 H 0.57275 0.90365 1.11731
 H295 H 0.65625 0.95457 1.03742
 H296 H 0.67914 0.87764 1.18438
 H297 H 0.62123 0.86448 1.14397
 H298 H 0.72102 0.84641 1.06782
 H299 H 0.70447 0.91478 1.06374
 C300 C 0.63726 1.15474 0.83243
 C301 C 0.66169 1.17881 0.85271
 C302 C 0.68857 1.20081 0.83206
 C303 C 0.69243 1.19905 0.79026
 C304 C 0.66623 1.17639 0.77002
 C305 C 0.63914 1.15463 0.79079
 C306 C 0.61204 1.12813 0.85491
 C307 C 0.60682 1.09151 0.84141
 C308 C 0.58742 1.06513 0.86515
 C309 C 0.57328 1.07476 0.90299
 C310 C 0.57666 1.11171 0.91559
 C311 C 0.59559 1.13814 0.89174
 H312 H 0.70819 1.21676 0.84957
 H313 H 0.66616 1.17545 0.73794
 H314 H 0.58524 1.03680 0.85478
 H315 H 0.56554 1.11999 0.94447
 H316 H 0.61994 1.13730 0.77415
 H317 H 0.61939 1.08268 0.81340
 H318 H 0.66156 1.17925 0.88483
 H319 H 0.59820 1.16624 0.90265
 C320 C 0.13401 0.31085 0.11786
 C321 C 0.17358 0.31487 0.11788
 C322 C 0.19512 0.29089 0.14010
 C323 C 0.17747 0.26268 0.16309
 C324 C 0.13795 0.25855 0.16288
 C325 C 0.11647 0.28227 0.14039
 C326 C 0.11084 0.33733 0.09600
 C327 C 0.07976 0.32485 0.07427
 C328 C 0.05612 0.35013 0.05651
 C329 C 0.06285 0.38842 0.06051
 C330 C 0.09470 0.40079 0.08111
 C331 C 0.11848 0.37553 0.09852
 H332 H 0.22553 0.29475 0.13984
 H333 H 0.12366 0.23678 0.17999
 H334 H 0.03192 0.33970 0.04072
 H335 H 0.10078 0.43009 0.08464
 H336 H 0.08601 0.27878 0.14132
 H337 H 0.07350 0.29551 0.07146
 H338 H 0.18785 0.33656 0.10064
 H339 H 0.14205 0.38596 0.11529
 C340 C -0.16177 0.35069 -0.17329
 C341 C -0.16392 0.35025 -0.21488
 C342 C -0.18514 0.32262 -0.23388
 C343 C -0.20447 0.29473 -0.21171
 C344 C -0.20245 0.29547 -0.17014
 C345 C -0.18147 0.32304 -0.15123
 C346 C -0.13780 0.37847 -0.15251
 C347 C -0.15008 0.39296 -0.11577
 C348 C -0.12544 0.41375 -0.09263
 C349 C -0.08798 0.42085 -0.10577
 C350 C -0.07650 0.40912 -0.14392
 C351 C -0.10120 0.38798 -0.16708
 H352 H -0.18635 0.32300 -0.26594
 H353 H -0.21612 0.27397 -0.15214
 H354 H -0.13521 0.42289 -0.06355
 H355 H -0.04774 0.41411 -0.15472
 H356 H -0.17967 0.32197 -0.11923
 H357 H -0.17839 0.38696 -0.10416
 H358 H -0.14924 0.37128 -0.23267
 H359 H -0.09085 0.37717 -0.19524
 C360 C 0.12472 0.67178 -0.11158
 C361 C 0.10484 0.70156 -0.12687
 C362 C 0.12372 0.72999 -0.14768
 C363 C 0.16300 0.72924 -0.15455
 C364 C 0.18320 0.69992 -0.13870
 C365 C 0.16424 0.67144 -0.11742
 C366 C 0.10361 0.64071 -0.09137
 C367 C 0.11424 0.60377 -0.09742
 C368 C 0.09137 0.57451 -0.08266
 C369 C 0.05722 0.58163 -0.06209
 C370 C 0.04749 0.61845 -0.05456
 C371 C 0.07065 0.64760 -0.06850
 H372 H 0.10735 0.75259 -0.15860
 H373 H 0.21351 0.69862 -0.14347
 H374 H 0.09954 0.54635 -0.08895
 H375 H 0.02139 0.62479 -0.03874
 H376 H 0.18049 0.64914 -0.10568
 H377 H 0.13923 0.59738 -0.11514
 H378 H 0.07438 0.70257 -0.12368
 H379 H 0.06210 0.67564 -0.06226
 C380 C -0.14064 0.64444 0.14680
 C381 C -0.15349 0.67011 0.11923
 C382 C -0.16449 0.70527 0.13138
 C383 C -0.16298 0.71572 0.17146
 C384 C -0.15077 0.68989 0.19925
 C385 C -0.13965 0.65461 0.18704
 C386 C -0.12554 0.60859 0.13262
 C387 C -0.09144 0.59551 0.14697
 C388 C -0.07306 0.56629 0.12788
 C389 C -0.08835 0.54984 0.09397
 C390 C -0.12416 0.56055 0.08202
 C391 C -0.14261 0.58957 0.10122
 H392 H -0.17303 0.72471 0.10910
 H393 H -0.14976 0.69699 0.23043
 H394 H -0.04546 0.55868 0.13773
 H395 H -0.13681 0.54813 0.05619
 H396 H -0.13009 0.63536 0.20900
 H397 H -0.07751 0.60960 0.17102
 H398 H -0.15368 0.66356 0.08788
 H399 H -0.16933 0.59844 0.09013
 C400 C 1.16713 0.13840 0.66402
 C401 C 1.20669 0.14252 0.66444
 C402 C 1.22418 0.15989 0.69652
 C403 C 1.20243 0.17333 0.72881
 C404 C 1.16297 0.16835 0.72862
 C405 C 1.14558 0.15124 0.69667
 C406 C 1.14786 0.11990 0.63053
 C407 C 1.11373 0.13367 0.61699
 C408 C 1.09241 0.11355 0.58988
 C409 C 1.10475 0.07921 0.57561
 C410 C 1.14018 0.06668 0.58688
 C411 C 1.16155 0.08685 0.61411
 H412 H 1.25463 0.16345 0.69574
 H413 H 1.14542 0.17740 0.75348
 H414 H 1.06540 0.12411 0.58150
 H415 H 1.15043 0.04029 0.57639
 H416 H 1.11515 0.14753 0.69781
 H417 H 1.10287 0.15947 0.62844
 H418 H 1.22402 0.13287 0.63969
 H419 H 1.18771 0.07552 0.62401
 C420 C 0.89155 -0.13798 0.69065
 C421 C 0.89056 -0.17675 0.68795
 C422 C 0.86839 -0.19812 0.71476
 C423 C 0.84617 -0.18134 0.74507
 C424 C 0.84761 -0.14225 0.74746
 C425 C 0.86989 -0.12106 0.72078
 C426 C 0.91384 -0.11492 0.66141
 C427 C 0.93330 -0.08272 0.67362
 C428 C 0.95080 -0.05888 0.64570
 C429 C 0.94928 -0.06668 0.60493
 C430 C 0.93147 -0.09981 0.59283
 C431 C 0.91394 -0.12365 0.62076
 H432 H 0.86775 -0.22777 0.71036
 H433 H 0.83273 -0.12752 0.77083
 H434 H 0.96454 -0.03375 0.65602
 H435 H 0.92985 -0.10668 0.56164
 H436 H 0.86973 -0.09120 0.72351
 H437 H 0.93437 -0.07560 0.70478
 H438 H 0.90697 -0.19064 0.66502
 H439 H 0.89902 -0.14809 0.61035
 C440 C 1.12380 -0.12337 0.30479
 C441 C 1.11673 -0.16160 0.30217
 C442 C 1.13466 -0.18265 0.27262
 C443 C 1.16055 -0.16614 0.24478
 C444 C 1.16763 -0.12761 0.24803
 C445 C 1.14944 -0.10665 0.27743
 C446 C 1.10495 -0.10091 0.33623
 C447 C 1.09117 -0.06578 0.32738
 C448 C 1.07552 -0.04364 0.35733
 C449 C 1.07345 -0.05605 0.39686
 C450 C 1.08606 -0.09166 0.40556
 C451 C 1.10162 -0.11388 0.37553
 H452 H 1.12900 -0.21218 0.27290
 H453 H 1.18596 -0.11287 0.22694
 H454 H 1.06572 -0.01646 0.34964
 H455 H 1.08478 -0.10199 0.43573
 H456 H 1.15568 -0.07721 0.27888
 H457 H 1.09273 -0.05533 0.29726
 H458 H 1.09710 -0.17529 0.32291
 H459 H 1.11217 -0.14075 0.38329
 C460 C 0.83358 0.15069 0.37977
 C461 C 0.80751 0.13237 0.35573
 C462 C 0.78702 0.15196 0.32824
 C463 C 0.79211 0.19071 0.32370
 C464 C 0.81646 0.20913 0.35010
 C465 C 0.83689 0.18941 0.37759
 C466 C 0.86012 0.12912 0.40346
 C467 C 0.89866 0.13913 0.40276
 C468 C 0.92485 0.11638 0.42007
 C469 C 0.91319 0.08305 0.43861
 C470 C 0.87442 0.07390 0.44121
 C471 C 0.84813 0.09666 0.42362
 H472 H 0.76975 0.13574 0.30854
 H473 H 0.82000 0.23894 0.34982
 H474 H 0.95447 0.12441 0.41778
 H475 H 0.86454 0.04853 0.45555
 H476 H 0.85605 0.20443 0.39655
 H477 H 0.90891 0.16366 0.38706
 H478 H 0.80469 0.10247 0.35630
 H479 H 0.81854 0.08847 0.42500
 C480 C 0.14756 0.32078 -0.12690
 C481 C 0.15630 0.32462 -0.16767
 C482 C 0.17975 0.29938 -0.18717
 C483 C 0.19533 0.27021 -0.16611
 C484 C 0.18750 0.26704 -0.12511
 C485 C 0.16361 0.29195 -0.10573
 C486 C 0.12074 0.34610 -0.10695
 C487 C 0.09062 0.33200 -0.08297
 C488 C 0.06370 0.35576 -0.06653
 C489 C 0.06677 0.39404 -0.07338
 C490 C 0.09766 0.40820 -0.09619
 C491 C 0.12420 0.38443 -0.11307
 H492 H 0.18539 0.30236 -0.21878
 H493 H 0.19885 0.24451 -0.10832
 H494 H 0.04027 0.34418 -0.04888
 H495 H 0.10077 0.43762 -0.10193
 H496 H 0.15746 0.28857 -0.07425
 H497 H 0.08727 0.30249 -0.07798
 H498 H 0.14403 0.34650 -0.18468
 H499 H 0.14737 0.39596 -0.13113
 C500 C -0.15406 0.34064 0.17503
 C501 C -0.16991 0.30966 0.15602
 C502 C -0.19095 0.28320 0.17751
 C503 C -0.19683 0.28688 0.21869
 C504 C -0.18025 0.31733 0.23814
 C505 C -0.15900 0.34406 0.21644
 C506 C -0.13204 0.36842 0.15097
 C507 C -0.09697 0.38251 0.16332
 C508 C -0.07377 0.40380 0.13728
 C509 C -0.08529 0.41094 0.09854
 C510 C -0.12138 0.39900 0.08734
 C511 C -0.14459 0.37825 0.11334
 H512 H -0.20227 0.25944 0.16184
 H513 H -0.18421 0.32068 0.26991
 H514 H -0.04602 0.41275 0.14657
 H515 H -0.13122 0.40470 0.05788
 H516 H -0.14697 0.36761 0.23185
 H517 H -0.08658 0.37534 0.19214
 H518 H -0.16560 0.30556 0.12439
 H519 H -0.17190 0.36865 0.10340
 C520 C -0.14803 0.63465 -0.15220
 C521 C -0.16847 0.65707 -0.12552
 C522 C -0.18239 0.69101 -0.13754
 C523 C -0.17579 0.70418 -0.17664
 C524 C -0.15622 0.68097 -0.20362
 C525 C -0.14284 0.64671 -0.19165
 C526 C -0.12952 0.60067 -0.13780
 C527 C -0.09331 0.59138 -0.15243
 C528 C -0.07299 0.56370 -0.13424
 C529 C -0.08814 0.54508 -0.10065
 C530 C -0.12539 0.55219 -0.08792
 C531 C -0.14597 0.57948 -0.10651
 H532 H -0.19603 0.70783 -0.11501
 H533 H -0.15181 0.68869 -0.23446
 H534 H -0.04427 0.55896 -0.14463
 H535 H -0.13788 0.53803 -0.06227
 H536 H -0.12810 0.62980 -0.21335
 H537 H -0.07947 0.60714 -0.17619
 H538 H -0.17225 0.64933 -0.09461
 H539 H -0.17420 0.58505 -0.09520
 C540 C 0.11769 0.67030 0.11079
 C541 C 0.09840 0.70141 0.12516
 C542 C 0.11772 0.73008 0.14419
 C543 C 0.15674 0.72815 0.15006
 C544 C 0.17592 0.69669 0.13647
 C545 C 0.15671 0.66828 0.11680
 C546 C 0.09697 0.63997 0.09022
 C547 C 0.10694 0.60284 0.09528
 C548 C 0.08599 0.57425 0.07795
 C549 C 0.05422 0.58208 0.05571
 C550 C 0.04476 0.61914 0.04980
 C551 C 0.06614 0.64777 0.06643
 H552 H 0.10209 0.75412 0.15359
 H553 H 0.20588 0.69402 0.14090
 H554 H 0.09383 0.54593 0.08332
 H555 H 0.02029 0.62605 0.03305
 H556 H 0.17262 0.64497 0.10584
 H557 H 0.13012 0.59567 0.11380
 H558 H 0.06824 0.70365 0.12190
 H559 H 0.05816 0.67602 0.06103
 C560 C 0.36329 1.14916 0.87200
 C561 C 0.35923 1.14467 0.83081
 C562 C 0.32973 1.16143 0.81123
 C563 C 0.30274 1.18232 0.83242
 C564 C 0.30746 1.18742 0.87345
 C565 C 0.33764 1.17188 0.89263
 C566 C 0.39186 1.12796 0.89399
 C567 C 0.38382 1.11634 0.93329
 C568 C 0.40812 1.09318 0.95280
 C569 C 0.44069 1.08000 0.93329
 C570 C 0.44996 1.09272 0.89479
 C571 C 0.42601 1.11682 0.87550
 H572 H 0.32793 1.15745 0.77953
 H573 H 0.28728 1.20246 0.89151
 H574 H 0.39991 1.08351 0.98230
 H575 H 0.47500 1.08304 0.87913
 H576 H 0.34019 1.17716 0.92404
 H577 H 0.35765 1.12327 0.94858
 H578 H 0.37801 1.12719 0.81368
 H579 H 0.43384 1.12584 0.84572
 C580 C 0.33839 0.84086 1.11389
 C581 C 0.31185 0.82111 1.09143
 C582 C 0.27752 0.80879 1.10865
 C583 C 0.26913 0.81467 1.14923
 C584 C 0.29644 0.83280 1.17215
 C585 C 0.33034 0.84612 1.15465
 C586 C 0.37265 0.85852 1.09438
 C587 C 0.40576 0.86530 1.11564
 C588 C 0.43516 0.88754 1.09947
 C589 C 0.43251 0.90262 1.06132
 C590 C 0.40112 0.89312 1.03869
 C591 C 0.37136 0.87176 1.05516
 H592 H 0.25721 0.79549 1.08966
 H593 H 0.29159 0.83712 1.20365
 H594 H 0.45920 0.89427 1.11745
 H595 H 0.39809 0.90459 1.00930
 H596 H 0.34959 0.86161 1.17304
 H597 H 0.40847 0.85463 1.14538
 H598 H 0.31716 0.81565 1.06022
 H599 H 0.34640 0.86781 1.03780
 C600 C 0.64764 1.15222 1.16998
 C601 C 0.68054 1.16783 1.15199
 C602 C 0.70641 1.18775 1.17437
 C603 C 0.70023 1.19255 1.21539
 C604 C 0.66722 1.17737 1.23354
 C605 C 0.64106 1.15749 1.21099
 C606 C 0.62192 1.12866 1.14613
 C607 C 0.60603 1.09570 1.16202
 C608 C 0.58594 1.07115 1.13804
 C609 C 0.58160 1.07888 1.09758
 C610 C 0.59590 1.11259 1.08212
 C611 C 0.61562 1.13732 1.10620
 H612 H 0.73204 1.19836 1.15971
 H613 H 0.66173 1.18080 1.26509
 H614 H 0.57522 1.04536 1.15080
 H615 H 0.59259 1.11950 1.05117
 H616 H 0.61582 1.14610 1.22568
 H617 H 0.61064 1.08796 1.19249
 H618 H 0.68709 1.16352 1.12077
 H619 H 0.62674 1.16288 1.09326
 C620 C 0.67894 0.84773 0.88127
 C621 C 0.68078 0.84591 0.83961
 C622 C 0.71010 0.82732 0.82000
 C623 C 0.73783 0.80974 0.84168
 C624 C 0.73519 0.81034 0.88335
 C625 C 0.70619 0.82941 0.90296
 C626 C 0.65041 0.87099 0.90175
 C627 C 0.66171 0.89667 0.93058
 C628 C 0.63594 0.92150 0.94700
 C629 C 0.59812 0.92080 0.93550
 C630 C 0.58637 0.89402 0.90794
 C631 C 0.61239 0.86957 0.89093
 H632 H 0.71141 0.82704 0.78785
 H633 H 0.75634 0.79714 0.90071
 H634 H 0.64587 0.94191 0.96797
 H635 H 0.55745 0.89290 0.89839
 H636 H 0.70531 0.83029 0.93510
 H637 H 0.69091 0.89862 0.93918
 H638 H 0.66035 0.86008 0.82219
 H639 H 0.60296 0.84987 0.86889
   
