data_POSCAR
  _audit_creation_date              2014-09-24
  _audit_creation_method            'ToBaCCo'
  _symmetry_space_group_name_H-M    'P1'
  _symmetry_Int_Tables_number       1
  _symmetry_cell_setting            triclinic
  loop_
  _symmetry_equiv_pos_as_xyz
 x,y,z
_cell_length_a 29.4065
_cell_length_b 29.4529
_cell_length_c 29.3148
_cell_angle_alpha 90.000000
_cell_angle_beta 90.000000
_cell_angle_gamma 89.881000
loop_
  _atom_site_label
  _atom_site_type_symbol
  _atom_site_fract_x
  _atom_site_fract_y
  _atom_site_fract_z
C1 C 0.15885 0.19073 0.22621
 C2 C 0.15889 0.22440 0.19240
 C3 C 0.19228 0.22439 0.15905
 C4 C 0.22604 0.19070 0.15910
 C5 C 0.22604 0.15738 0.19253
 C6 C 0.19221 0.15740 0.22631
 C7 C 0.13079 0.18266 0.26293
 N8 N 0.14648 0.14538 0.28498
 C9 C 0.18390 0.12954 0.26314
 C10 C 0.26283 0.12948 0.18432
 N11 N 0.28476 0.14528 0.14690
 C12 C 0.26279 0.18256 0.13111
 C13 C 0.18411 0.26106 0.13105
 N14 N 0.14673 0.28297 0.14678
 C15 C 0.13094 0.26107 0.18416
 H16 H 0.10133 0.20242 0.27295
 H17 H 0.20360 0.10013 0.27336
 H18 H 0.27296 0.10008 0.20408
 H19 H 0.27288 0.20230 0.10163
 H20 H 0.20385 0.27118 0.10159
 H21 H 0.10147 0.27120 0.20387
 C22 C -0.15883 0.80927 0.22621
 C23 C -0.15888 0.77560 0.19240
 C24 C -0.19227 0.77561 0.15905
 C25 C -0.22603 0.80930 0.15910
 C26 C -0.22602 0.84262 0.19253
 C27 C -0.19220 0.84260 0.22631
 C28 C -0.13077 0.81734 0.26293
 N29 N -0.14647 0.85462 0.28498
 C30 C -0.18389 0.87046 0.26314
 C31 C -0.26282 0.87052 0.18432
 N32 N -0.28474 0.85472 0.14690
 C33 C -0.26278 0.81744 0.13111
 C34 C -0.18409 0.73894 0.13105
 N35 N -0.14672 0.71703 0.14678
 C36 C -0.13093 0.73893 0.18416
 H37 H -0.10131 0.79758 0.27295
 H38 H -0.20358 0.89987 0.27336
 H39 H -0.27295 0.89992 0.20408
 H40 H -0.27286 0.79770 0.10163
 H41 H -0.20384 0.72882 0.10159
 H42 H -0.10146 0.72880 0.20387
 C43 C -0.15989 0.19125 -0.22613
 C44 C -0.16003 0.22505 -0.19248
 C45 C -0.19339 0.22523 -0.15909
 C46 C -0.22707 0.19153 -0.15898
 C47 C -0.22693 0.15808 -0.19228
 C48 C -0.19313 0.15794 -0.22607
 C49 C -0.13180 0.18299 -0.26282
 N50 N -0.14736 0.14562 -0.28470
 C51 C -0.18472 0.12991 -0.26278
 C52 C -0.26357 0.13018 -0.18398
 N53 N -0.28558 0.14606 -0.14661
 C54 C -0.26380 0.18343 -0.13095
 C55 C -0.18522 0.26203 -0.13126
 N56 N -0.14788 0.28379 -0.14714
 C57 C -0.13213 0.26168 -0.18444
 H58 H -0.10241 0.20269 -0.27292
 H59 H -0.20431 0.10046 -0.27286
 H60 H -0.27354 0.10069 -0.20363
 H61 H -0.27397 0.20324 -0.10152
 H62 H -0.20491 0.27232 -0.10179
 H63 H -0.10269 0.27162 -0.20422
 C64 C 0.15990 0.80875 -0.22613
 C65 C 0.16004 0.77495 -0.19248
 C66 C 0.19341 0.77477 -0.15909
 C67 C 0.22708 0.80847 -0.15898
 C68 C 0.22695 0.84192 -0.19228
 C69 C 0.19314 0.84206 -0.22607
 C70 C 0.13182 0.81701 -0.26282
 N71 N 0.14738 0.85438 -0.28470
 C72 C 0.18474 0.87009 -0.26278
 C73 C 0.26359 0.86982 -0.18398
 N74 N 0.28560 0.85394 -0.14661
 C75 C 0.26381 0.81657 -0.13095
 C76 C 0.18523 0.73797 -0.13126
 N77 N 0.14790 0.71621 -0.14714
 C78 C 0.13214 0.73832 -0.18444
 H79 H 0.10242 0.79731 -0.27292
 H80 H 0.20433 0.89954 -0.27286
 H81 H 0.27355 0.89931 -0.20363
 H82 H 0.27398 0.79676 -0.10152
 H83 H 0.20492 0.72768 -0.10179
 H84 H 0.10270 0.72838 -0.20422
 C85 C 0.19033 1.15884 0.77415
 C86 C 0.22407 1.15891 0.80789
 C87 C 0.22415 1.19230 0.84118
 C88 C 0.19045 1.22604 0.84111
 C89 C 0.15705 1.22600 0.80772
 C90 C 0.15699 1.19218 0.77403
 C91 C 0.18223 1.13081 0.73748
 N92 N 0.14492 1.14652 0.71545
 C93 C 0.12908 1.18391 0.73723
 C94 C 0.12919 1.26278 0.81581
 N95 N 0.14508 1.28474 0.85313
 C96 C 0.18240 1.26282 0.86898
 C97 C 0.26094 1.18415 0.86908
 N98 N 0.28279 1.14680 0.85332
 C99 C 0.26077 1.13099 0.81604
 H100 H 0.20201 1.10139 0.72747
 H101 H 0.09966 1.20361 0.72697
 H102 H 0.09974 1.27289 0.79603
 H103 H 0.20222 1.27298 0.89840
 H104 H 0.27120 1.20391 0.89847
 H105 H 0.27085 1.10155 0.79633
 C106 C 0.80969 0.84116 0.77415
 C107 C 0.77595 0.84109 0.80789
 C108 C 0.77586 0.80771 0.84118
 C109 C 0.80956 0.77396 0.84111
 C110 C 0.84296 0.77400 0.80772
 C111 C 0.84302 0.80782 0.77403
 C112 C 0.81779 0.86919 0.73748
 N113 N 0.85509 0.85348 0.71545
 C114 C 0.87094 0.81609 0.73723
 C115 C 0.87083 0.73722 0.81581
 N116 N 0.85493 0.71526 0.85313
 C117 C 0.81761 0.73718 0.86898
 C118 C 0.73907 0.81585 0.86908
 N119 N 0.71722 0.85320 0.85332
 C120 C 0.73925 0.86901 0.81604
 H121 H 0.79801 0.89861 0.72747
 H122 H 0.90035 0.79639 0.72697
 H123 H 0.90027 0.72711 0.79603
 H124 H 0.79780 0.72702 0.89840
 H125 H 0.72881 0.79609 0.89847
 H126 H 0.72917 0.89845 0.79633
 C127 C 0.19116 0.84170 1.22628
 C128 C 0.22488 0.84165 1.19252
 C129 C 0.22500 0.80833 1.15916
 C130 C 0.19139 0.77469 1.15917
 C131 C 0.15802 0.77470 1.19254
 C132 C 0.15789 0.80843 1.22632
 C133 C 0.18300 0.86965 1.26302
 N134 N 0.14573 0.85396 1.28502
 C135 C 0.12996 0.81666 1.26314
 C136 C 0.13027 0.73799 1.18432
 N137 N 0.14621 0.71611 1.14694
 C138 C 0.18345 0.73803 1.13120
 C139 C 0.26173 0.81640 1.13123
 N140 N 0.28353 0.85364 1.14704
 C141 C 0.26154 0.86947 1.18438
 H142 H 0.20271 0.89902 1.27310
 H143 H 0.10059 0.79699 1.27335
 H144 H 0.10085 0.72782 1.20402
 H145 H 0.20326 0.72791 1.10175
 H146 H 0.27197 0.79666 1.10179
 H147 H 0.27162 0.89885 1.20412
 C148 C 0.80886 1.15830 1.22628
 C149 C 0.77513 1.15835 1.19252
 C150 C 0.77501 1.19167 1.15916
 C151 C 0.80862 1.22531 1.15917
 C152 C 0.84200 1.22530 1.19254
 C153 C 0.84213 1.19158 1.22632
 C154 C 0.81702 1.13035 1.26302
 N155 N 0.85429 1.14604 1.28502
 C156 C 0.87005 1.18334 1.26314
 C157 C 0.86975 1.26201 1.18432
 N158 N 0.85380 1.28389 1.14694
 C159 C 0.81656 1.26197 1.13120
 C160 C 0.73829 1.18360 1.13123
 N161 N 0.71648 1.14636 1.14704
 C162 C 0.73847 1.13053 1.18438
 H163 H 0.79730 1.10098 1.27310
 H164 H 0.89942 1.20301 1.27335
 H165 H 0.89916 1.27218 1.20402
 H166 H 0.79675 1.27209 1.10175
 H167 H 0.72804 1.20334 1.10179
 H168 H 0.72839 1.10115 1.20412
 N169 N 0.45183 1.08038 1.04922
 N170 N 0.41718 1.10839 1.05504
 N171 N 0.54763 1.04893 1.08086
 N172 N 0.58218 1.05460 1.10901
 N173 N 0.54754 1.08046 1.04918
 N174 N 0.58204 1.10850 1.05486
 N175 N 0.45196 1.04881 1.08088
 N176 N 0.41743 1.05445 1.10913
 C177 C 0.39622 1.09170 1.09250
 C178 C 0.60311 1.09186 1.09227
 N179 N 0.54819 0.91962 1.04922
 N180 N 0.58283 0.89161 1.05504
 N181 N 0.45239 0.95107 1.08086
 N182 N 0.41783 0.94540 1.10901
 N183 N 0.45247 0.91954 1.04918
 N184 N 0.41798 0.89150 1.05486
 N185 N 0.54806 0.95119 1.08088
 N186 N 0.58259 0.94555 1.10913
 Mn187 Mn 0.50001 1.00000 1.08141
 C188 C 0.60380 0.90830 1.09250
 C189 C 0.39690 0.90814 1.09227
 N190 N 0.54770 1.08050 0.95091
 N191 N 0.58215 1.10862 0.94514
 N192 N 0.45205 1.04890 0.91925
 N193 N 0.41746 1.05462 0.89110
 N194 N 0.45200 1.08042 0.95095
 N195 N 0.41739 1.10846 0.94530
 N196 N 0.54780 1.04896 0.91923
 N197 N 0.58232 1.05474 0.89101
 Mn198 Mn 0.49977 1.08098 1.00006
 C199 C 0.60327 1.09205 0.90768
 C200 C 0.39636 1.09187 0.90788
 N201 N 0.45231 0.91950 0.95091
 N202 N 0.41786 0.89138 0.94514
 N203 N 0.54796 0.95110 0.91925
 N204 N 0.58255 0.94538 0.89110
 N205 N 0.54802 0.91958 0.95095
 N206 N 0.58263 0.89154 0.94530
 N207 N 0.45221 0.95104 0.91923
 N208 N 0.41769 0.94526 0.89101
 Mn209 Mn 0.50025 0.91902 1.00006
 Mn210 Mn 0.50001 1.00000 0.91868
 Cl211 Cl 0.50001 1.00000 1.00004
 C212 C 0.39675 0.90795 0.90768
 C213 C 0.60365 0.90813 0.90788
 N214 N 0.08044 0.45183 -0.04982
 N215 N 0.10841 0.41717 -0.05555
 N216 N 0.04919 0.54759 -0.08148
 N217 N 0.05506 0.58214 -0.10958
 N218 N 0.08074 0.54738 -0.04975
 N219 N 0.10896 0.58175 -0.05536
 N220 N 0.04884 0.45199 -0.08150
 N221 N 0.05441 0.41746 -0.10968
 C222 C 0.09166 0.39625 -0.09298
 C223 C 0.09245 0.60294 -0.09277
 N224 N -0.08042 0.54817 -0.04982
 N225 N -0.10839 0.58283 -0.05555
 N226 N -0.04918 0.45241 -0.08148
 N227 N -0.05505 0.41786 -0.10958
 N228 N -0.08073 0.45262 -0.04975
 N229 N -0.10894 0.41825 -0.05536
 N230 N -0.04882 0.54801 -0.08150
 N231 N -0.05440 0.58254 -0.10968
 Mn232 Mn 0.00001 0.50000 -0.08205
 C233 C -0.09165 0.60375 -0.09298
 C234 C -0.09244 0.39706 -0.09277
 N235 N 0.08068 0.54736 0.04851
 N236 N 0.10878 0.58180 0.05426
 N237 N 0.04885 0.45195 0.08014
 N238 N 0.05452 0.41747 0.10837
 N239 N 0.08043 0.45180 0.04845
 N240 N 0.10848 0.41721 0.05420
 N241 N 0.04906 0.54747 0.08015
 N242 N 0.05471 0.58195 0.10833
 Mn243 Mn 0.08112 0.49959 -0.00066
 C244 C 0.09205 0.60285 0.09169
 C245 C 0.09181 0.39629 0.09167
 N246 N -0.08067 0.45264 0.04851
 N247 N -0.10876 0.41820 0.05426
 N248 N -0.04884 0.54805 0.08014
 N249 N -0.05451 0.58253 0.10837
 N250 N -0.08041 0.54820 0.04845
 N251 N -0.10846 0.58279 0.05420
 N252 N -0.04904 0.45253 0.08015
 N253 N -0.05470 0.41805 0.10833
 Mn254 Mn -0.08110 0.50041 -0.00066
 Mn255 Mn 0.00001 0.50000 0.08068
 Cl256 Cl 0.00001 0.50000 -0.00068
 C257 C -0.09204 0.39715 0.09169
 C258 C -0.09179 0.60371 0.09167
 N259 N 1.04918 -0.08039 0.45234
 N260 N 1.05490 -0.10848 0.41772
 N261 N 1.08073 -0.04877 0.54832
 N262 N 1.10897 -0.05445 0.58288
 N263 N 1.04929 -0.08038 0.54834
 N264 N 1.05525 -0.10848 0.58295
 N265 N 1.08071 -0.04887 0.45232
 N266 N 1.10880 -0.05461 0.41764
 C267 C 1.09217 -0.09190 0.39659
 C268 C 1.09257 -0.09178 0.60400
 N269 N 1.04868 0.08051 0.54822
 N270 N 1.05423 0.10865 0.58281
 N271 N 1.08045 0.04893 0.45227
 N272 N 1.10863 0.05462 0.41768
 N273 N 1.04880 0.08047 0.45221
 N274 N 1.05456 0.10852 0.41754
 N275 N 1.08040 0.04905 0.54828
 N276 N 1.10845 0.05488 0.58295
 Mn277 Mn 1.08112 0.00009 0.50030
 C278 C 1.09160 0.09215 0.60397
 C279 C 1.09198 0.09187 0.39651
 N280 N 0.95133 -0.08051 0.54822
 N281 N 0.94578 -0.10865 0.58281
 N282 N 0.91956 -0.04893 0.45227
 N283 N 0.89139 -0.05462 0.41768
 N284 N 0.95121 -0.08047 0.45221
 N285 N 0.94545 -0.10852 0.41754
 N286 N 0.91962 -0.04904 0.54828
 N287 N 0.89157 -0.05488 0.58295
 Mn288 Mn 1.00026 -0.08098 0.50028
 C289 C 0.90842 -0.09215 0.60397
 C290 C 0.90803 -0.09187 0.39651
 N291 N 0.95083 0.08039 0.45234
 N292 N 0.94512 0.10848 0.41772
 N293 N 0.91928 0.04877 0.54832
 N294 N 0.89104 0.05445 0.58288
 N295 N 0.95073 0.08038 0.54834
 N296 N 0.94477 0.10848 0.58295
 N297 N 0.91930 0.04887 0.45232
 N298 N 0.89122 0.05461 0.41764
 Mn299 Mn 0.99976 0.08098 0.50028
 Mn300 Mn 0.91890 -0.00009 0.50030
 Cl301 Cl 1.00001 0.00000 0.50029
 C302 C 0.90784 0.09190 0.39659
 C303 C 0.90745 0.09178 0.60400
 C304 C 1.12825 0.12749 0.32225
 C305 C 1.11164 0.11127 0.35615
 C306 C 0.87177 -0.12749 0.32225
 C307 C 0.88837 -0.11127 0.35615
 C308 C 0.87094 0.12757 0.67812
 C309 C 0.88763 0.11125 0.64428
 C310 C 1.12907 -0.12757 0.67812
 C311 C 1.11238 -0.11125 0.64428
 C312 C 0.32200 1.12733 1.12875
 C313 C 0.35589 1.11108 1.11219
 C314 C 0.32274 0.87198 0.87156
 C315 C 0.35652 0.88839 0.88806
 C316 C 0.67801 0.87267 1.12875
 C317 C 0.64413 0.88892 1.11219
 C318 C 0.67728 1.12802 0.87156
 C319 C 0.64349 1.11161 0.88806
 C320 C 0.12766 0.32224 0.12767
 C321 C 0.11128 0.35605 0.11125
 C322 C -0.12870 0.32306 -0.12826
 C323 C -0.11212 0.35685 -0.11210
 C324 C 0.12871 0.67694 -0.12826
 C325 C 0.11214 0.64315 -0.11210
 C326 C -0.12765 0.67776 0.12767
 C327 C -0.11126 0.64395 0.11125
 C328 C 1.12705 0.12835 0.67819
 C329 C 1.11089 0.11179 0.64430
 C330 C 0.87296 -0.12835 0.67819
 C331 C 0.88912 -0.11179 0.64430
 C332 C 1.12780 -0.12794 0.32231
 C333 C 1.11157 -0.11145 0.35623
 C334 C 0.87221 0.12794 0.32231
 C335 C 0.88845 0.11145 0.35623
 C336 C 0.12718 0.32201 -0.12889
 C337 C 0.11096 0.35591 -0.11251
 C338 C -0.12743 0.32317 0.12777
 C339 C -0.11134 0.35696 0.11125
 C340 C -0.12717 0.67799 -0.12889
 C341 C -0.11095 0.64409 -0.11251
 C342 C 0.12745 0.67683 0.12777
 C343 C 0.11135 0.64304 0.11125
 C344 C 0.32216 1.12775 0.87226
 C345 C 0.35605 1.11134 0.88849
 C346 C 0.32284 0.87254 1.12803
 C347 C 0.35667 0.88879 1.11171
 C348 C 0.67717 1.12746 1.12803
 C349 C 0.64335 1.11121 1.11171
 C350 C 0.67785 0.87225 0.87226
 C351 C 0.64397 0.88866 0.88849
   
