data_POSCAR
  _audit_creation_date              2014-09-24
  _audit_creation_method            'ToBaCCo'
  _symmetry_space_group_name_H-M    'P1'
  _symmetry_Int_Tables_number       1
  _symmetry_cell_setting            triclinic
  loop_
  _symmetry_equiv_pos_as_xyz
 x,y,z
_cell_length_a 22.6868
_cell_length_b 26.2856
_cell_length_c 15.8507
_cell_angle_alpha 90.026500
_cell_angle_beta 90.018200
_cell_angle_gamma 90.257800
loop_
  _atom_site_label
  _atom_site_type_symbol
  _atom_site_fract_x
  _atom_site_fract_y
  _atom_site_fract_z
O1 O 0.23038 0.29610 0.14177
 O2 O 0.32257 0.19880 0.24184
 O3 O 0.22718 0.19766 0.15016
 O4 O 0.32422 0.29707 0.23751
 O5 O 0.26859 0.30081 0.35154
 O6 O 0.17162 0.20158 0.26422
 O7 O 0.26694 0.20137 0.35605
 O8 O 0.17452 0.29906 0.25573
 Cu9 Cu 0.28168 0.24712 0.18138
 Cu10 Cu 0.21510 0.25116 0.31867
 C11 C 0.18616 0.31361 0.18111
 C12 C 0.31063 0.18345 0.31581
 C13 C 0.18211 0.18328 0.19163
 C14 C 0.31334 0.31550 0.30992
 O15 O 0.82549 0.29666 0.26814
 O16 O 0.72680 0.19819 0.35465
 O17 O 0.82176 0.19852 0.26121
 O18 O 0.72964 0.29743 0.35864
 O19 O 0.67470 0.29977 0.24366
 O20 O 0.76685 0.20130 0.14628
 O21 O 0.67210 0.20178 0.23973
 O22 O 0.77040 0.30043 0.15347
 Cu23 Cu 0.78128 0.24727 0.32238
 Cu24 Cu 0.71569 0.25108 0.18407
 C25 C 0.81499 0.31508 0.19569
 C26 C 0.68210 0.18360 0.31258
 C27 C 0.81026 0.18331 0.18690
 C28 C 0.68629 0.31536 0.31765
 O29 O 0.82891 0.70119 0.72612
 O30 O 0.73363 0.80084 0.63889
 O31 O 0.82953 0.79979 0.73012
 O32 O 0.73022 0.70171 0.64223
 O33 O 0.67816 0.70301 0.75985
 O34 O 0.77675 0.80091 0.84695
 O35 O 0.68084 0.80096 0.75589
 O36 O 0.77660 0.70117 0.84351
 Cu37 Cu 0.78574 0.75091 0.67252
 Cu38 Cu 0.72314 0.75167 0.81359
 C39 C 0.81923 0.68424 0.79976
 C40 C 0.69073 0.81759 0.68195
 C41 C 0.82030 0.81691 0.80401
 C42 C 0.68686 0.68598 0.68604
 O43 O 0.26844 0.69973 0.65267
 O44 O 0.17641 0.79948 0.74635
 O45 O 0.27161 0.79882 0.65495
 O46 O 0.17506 0.70080 0.74900
 O47 O 0.23114 0.70001 0.86272
 O48 O 0.32730 0.79756 0.76917
 O49 O 0.23227 0.79975 0.86046
 O50 O 0.32470 0.69953 0.76636
 Cu51 Cu 0.21731 0.74968 0.68931
 Cu52 Cu 0.28419 0.74902 0.82639
 C53 C 0.31258 0.68291 0.69303
 C54 C 0.18867 0.81688 0.81898
 C55 C 0.31627 0.81460 0.69599
 C56 C 0.18660 0.68366 0.82217
 C57 C 1.03038 0.04373 0.03598
 C58 C 0.96712 0.04142 0.03925
 C59 C 0.93957 -0.00228 0.00543
 C60 C 0.96877 -0.03881 -0.04431
 C61 C 1.03206 -0.03627 -0.04721
 C62 C 1.05926 0.00788 -0.01521
 H63 H 1.10564 0.01352 -0.02815
 H64 H 0.89305 -0.00769 0.01740
 C65 C 0.53111 0.54129 0.54013
 C66 C 0.46790 0.53929 0.54607
 C67 C 0.43950 0.49526 0.51492
 C68 C 0.46732 0.45841 0.46430
 C69 C 0.53050 0.46015 0.45932
 C70 C 0.55884 0.50427 0.48975
 H71 H 0.60509 0.50920 0.47528
 H72 H 0.39322 0.49012 0.52894
 C73 C -0.03295 0.45893 0.04056
 C74 C 0.02998 0.45524 0.03139
 C75 C 0.05924 0.49711 -0.00563
 C76 C 0.03082 0.53951 -0.04152
 C77 C -0.03223 0.53641 -0.05075
 C78 C -0.06157 0.49755 -0.00564
 H79 H -0.10893 0.49752 -0.00617
 H80 H 0.10673 0.49695 -0.00590
 C81 C 0.46785 0.95905 0.54116
 C82 C 0.53108 0.96121 0.54528
 C83 C 0.55881 1.00549 0.51427
 C84 C 0.53037 1.04218 0.46411
 C85 C 0.46712 1.04010 0.46006
 C86 C 0.43926 0.99600 0.49164
 H87 H 0.39283 0.99086 0.47861
 H88 H 0.60520 1.01073 0.52764
 C89 C 1.14270 0.14707 0.15502
 C90 C 1.16970 0.09403 0.14483
 C91 C 1.13234 0.05951 0.10886
 C92 C 1.07125 0.08131 0.08350
 C93 C 1.04919 0.10221 0.16853
 C94 C 1.08537 0.13739 0.20468
 C95 C 1.12262 0.16225 0.06618
 C96 C 1.08669 0.12766 0.02862
 H97 H 1.21276 0.08354 0.16905
 H98 H 1.14388 0.01958 0.10532
 H99 H 1.01331 0.08587 0.20401
 H100 H 1.07691 0.15198 0.26759
 H101 H 1.13663 0.19686 0.03441
 H102 H 1.07061 0.13269 -0.03536
 C103 C 0.64519 0.64705 0.64964
 C104 C 0.67252 0.59410 0.64036
 C105 C 0.63477 0.55876 0.60743
 C106 C 0.57293 0.57976 0.58396
 C107 C 0.55254 0.60178 0.66904
 C108 C 0.58914 0.63773 0.70208
 C109 C 0.62327 0.66080 0.56122
 C110 C 0.58684 0.62542 0.52657
 H111 H 0.71622 0.58440 0.66300
 H112 H 0.64669 0.51887 0.60491
 H113 H 0.51739 0.58588 0.70657
 H114 H 0.58191 0.65344 0.76454
 H115 H 0.63654 0.69496 0.52760
 H116 H 0.56944 0.62937 0.46309
 C117 C -0.14407 0.35413 0.15818
 C118 C -0.12615 0.34117 0.06766
 C119 C -0.09086 0.37651 0.03105
 C120 C -0.07373 0.42137 0.08839
 C121 C -0.13406 0.44282 0.11813
 C122 C -0.17090 0.40747 0.15304
 C123 C -0.08577 0.36226 0.20602
 C124 C -0.05006 0.39827 0.17095
 H125 H -0.14112 0.30743 0.03422
 H126 H -0.07611 0.37292 -0.03386
 H127 H -0.14493 0.48296 0.12026
 H128 H -0.21297 0.41751 0.18096
 H129 H -0.07611 0.34553 0.26704
 H130 H -0.01269 0.41316 0.20529
 C131 C 0.35673 0.85355 0.65702
 C132 C 0.37663 0.83937 0.56778
 C133 C 0.41201 0.87471 0.53090
 C134 C 0.42703 0.92073 0.58701
 C135 C 0.36566 0.94165 0.61295
 C136 C 0.32890 0.90635 0.64822
 C137 C 0.41392 0.86341 0.70663
 C138 C 0.44950 0.89929 0.67140
 H139 H 0.36271 0.80500 0.53525
 H140 H 0.42785 0.87052 0.46665
 H141 H 0.35338 0.98145 0.60998
 H142 H 0.28563 0.91598 0.67253
 H143 H 0.42274 0.84808 0.76892
 H144 H 0.48550 0.91551 0.70695
 C145 C -0.14110 0.64409 -0.16369
 C146 C -0.16900 0.59082 -0.16171
 C147 C -0.13299 0.55451 -0.12830
 C148 C -0.07239 0.57497 -0.09690
 C149 C -0.04793 0.59947 -0.17791
 C150 C -0.08269 0.63644 -0.21127
 C151 C -0.12345 0.65510 -0.07232
 C152 C -0.08911 0.61875 -0.03726
 H153 H -0.21123 0.58166 -0.19030
 H154 H -0.14471 0.51451 -0.13221
 H155 H -0.01058 0.58506 -0.21253
 H156 H -0.07226 0.65440 -0.27111
 H157 H -0.13805 0.68818 -0.03711
 H158 H -0.07480 0.62086 0.02805
 C159 C 0.35077 1.14535 0.35659
 C160 C 0.40862 1.16982 0.38590
 C161 C 0.44637 1.13677 0.42336
 C162 C 0.42507 1.08103 0.42412
 C163 C 0.36549 1.08583 0.47173
 C164 C 0.32659 1.11890 0.43592
 C165 C 0.36861 1.10182 0.29779
 C166 C 0.40669 1.06831 0.33306
 H167 H 0.41566 1.21071 0.38820
 H168 H 0.48179 1.15129 0.46155
 H169 H 0.35584 1.06727 0.53131
 H170 H 0.28398 1.12701 0.46386
 H171 H 0.35134 1.09684 0.23442
 H172 H 0.42184 1.03482 0.29946
 C173 C 1.14899 -0.14353 -0.14320
 C174 C 1.17315 -0.11524 -0.06556
 C175 C 1.13428 -0.08118 -0.03220
 C176 C 1.07478 -0.07739 -0.08054
 C177 C 1.09358 -0.06684 -0.17216
 C178 C 1.13158 -0.10137 -0.20496
 C179 C 1.09096 -0.16683 -0.11257
 C180 C 1.05334 -0.13289 -0.07761
 H181 H 1.21560 -0.12289 -0.03677
 H182 H 1.14382 -0.06144 0.02636
 H183 H 1.07898 -0.03396 -0.20780
 H184 H 1.14927 -0.09791 -0.26834
 H185 H 1.08418 -0.20727 -0.10555
 H186 H 1.01864 -0.14640 -0.03719
 C187 C 0.64623 0.35380 0.35758
 C188 C 0.62899 0.39724 0.29826
 C189 C 0.59101 0.43108 0.33288
 C190 C 0.57215 0.41877 0.42388
 C191 C 0.55041 0.36314 0.42328
 C192 C 0.58806 0.32975 0.38646
 C193 C 0.67026 0.38038 0.43696
 C194 C 0.63147 0.41377 0.47212
 H195 H 0.64658 0.40189 0.23502
 H196 H 0.57628 0.46454 0.29888
 H197 H 0.51485 0.34890 0.46140
 H198 H 0.58074 0.28891 0.38909
 H199 H 0.71271 0.37217 0.46534
 H200 H 0.64103 0.43255 0.53157
 C201 C 0.85891 -0.14579 -0.16009
 C202 C 0.87845 -0.15905 -0.07014
 C203 C 0.91325 -0.12321 -0.03356
 C204 C 0.92853 -0.07767 -0.09044
 C205 C 0.95162 -0.09986 -0.17405
 C206 C 0.91644 -0.13619 -0.20910
 C207 C 0.83089 -0.09287 -0.15281
 C208 C 0.86730 -0.05717 -0.11772
 H209 H 0.86457 -0.19313 -0.03673
 H210 H 0.92830 -0.12662 0.03123
 H211 H 0.98730 -0.08352 -0.20991
 H212 H 0.92570 -0.15178 -0.27111
 H213 H 0.78772 -0.08346 -0.17781
 H214 H 0.85483 -0.01740 -0.11543
 C215 C 0.35444 0.35426 0.34819
 C216 C 0.37478 0.33960 0.43703
 C217 C 0.41067 0.37452 0.47398
 C218 C 0.42582 0.42062 0.41831
 C219 C 0.44751 0.39935 0.33330
 C220 C 0.41134 0.36388 0.29799
 C221 C 0.32718 0.40724 0.35803
 C222 C 0.36450 0.44211 0.39343
 H223 H 0.36070 0.30522 0.46934
 H224 H 0.42673 0.36999 0.53806
 H225 H 0.48325 0.41560 0.29734
 H226 H 0.41943 0.34890 0.23525
 H227 H 0.28384 0.41728 0.33442
 H228 H 0.35261 0.48197 0.39733
 C229 C 0.14785 0.64702 -0.14057
 C230 C 0.13403 0.60163 -0.19792
 C231 C 0.09548 0.56774 -0.16388
 C232 C 0.07283 0.58165 -0.07522
 C233 C 0.12997 0.58971 -0.02275
 C234 C 0.16929 0.62310 -0.05732
 C235 C 0.08785 0.66982 -0.11805
 C236 C 0.04988 0.63650 -0.08118
 H237 H 0.15384 0.59594 -0.25955
 H238 H 0.08250 0.53326 -0.19692
 H239 H 0.13713 0.57387 0.03962
 H240 H 0.20990 0.63354 -0.02534
 H241 H 0.07851 0.71001 -0.12091
 H242 H 0.01249 0.65082 -0.04723
 C243 C 0.64276 1.14696 0.34843
 C244 C 0.62229 1.16139 0.43744
 C245 C 0.58650 1.12630 0.47404
 C246 C 0.57149 1.08027 0.41806
 C247 C 0.54963 1.10168 0.33329
 C248 C 0.58567 1.13731 0.29816
 C249 C 0.67007 1.09395 0.35781
 C250 C 0.63283 1.05897 0.39284
 H251 H 0.63602 1.19580 0.47008
 H252 H 0.57027 1.13073 0.53806
 H253 H 0.51388 1.08548 0.29728
 H254 H 0.57724 1.15237 0.23557
 H255 H 0.71332 1.08387 0.33387
 H256 H 0.64471 1.01910 0.39590
 C257 C 0.14552 0.35056 0.13853
 C258 C 0.13116 0.39692 0.19285
 C259 C 0.09305 0.42974 0.15611
 C260 C 0.07119 0.41374 0.06798
 C261 C 0.12878 0.40487 0.01708
 C262 C 0.16777 0.37263 0.05449
 C263 C 0.08589 0.32643 0.11607
 C264 C 0.04800 0.35879 0.07694
 H265 H 0.15043 0.40402 0.25449
 H266 H 0.07985 0.46482 0.18686
 H267 H 0.13639 0.41913 -0.04626
 H268 H 0.20857 0.36147 0.02408
 H269 H 0.07742 0.28577 0.11947
 H270 H 0.01074 0.34362 0.04320
 C271 C 0.64927 0.85574 0.64404
 C272 C 0.63213 0.89884 0.70410
 C273 C 0.59324 0.93236 0.67056
 C274 C 0.57348 0.92006 0.57985
 C275 C 0.63225 0.91569 0.53021
 C276 C 0.67190 0.88274 0.56426
 C277 C 0.59108 0.83114 0.61639
 C278 C 0.55250 0.86421 0.58067
 H279 H 0.65028 0.90344 0.76704
 H280 H 0.57828 0.96552 0.70523
 H281 H 0.64078 0.93447 0.47048
 H282 H 0.71407 0.87503 0.53468
 H283 H 0.58421 0.79024 0.61395
 H284 H 0.51647 0.84968 0.54369
 C285 C 0.85058 0.14548 0.14569
 C286 C 0.82636 0.11960 0.06574
 C287 C 0.86526 0.08691 0.02903
 C288 C 0.92489 0.08182 0.07640
 C289 C 0.94608 0.13759 0.07848
 C290 C 0.90834 0.17027 0.11683
 C291 C 0.86857 0.10152 0.20343
 C292 C 0.90662 0.06831 0.16721
 H293 H 0.78370 0.12784 0.03805
 H294 H 0.85555 0.06890 -0.03102
 H295 H 0.98160 0.15241 0.04079
 H296 H 0.91537 0.21118 0.11570
 H297 H 0.85141 0.09605 0.26673
 H298 H 0.92187 0.03456 0.19993
 C299 C 0.35279 0.64471 0.65242
 C300 C 0.41008 0.66926 0.62109
 C301 C 0.44743 0.63616 0.58282
 C302 C 0.42640 0.58032 0.58323
 C303 C 0.40948 0.56800 0.67506
 C304 C 0.37177 0.60157 0.71118
 C305 C 0.32762 0.61775 0.57408
 C306 C 0.36611 0.58476 0.53741
 H307 H 0.41696 0.71016 0.61841
 H308 H 0.48240 0.65061 0.54373
 H309 H 0.42544 0.53480 0.70862
 H310 H 0.35566 0.59698 0.77522
 H311 H 0.28461 0.62557 0.54717
 H312 H 0.35569 0.56616 0.47809
   
