data_POSCAR
  _audit_creation_date              2014-09-24
  _audit_creation_method            'ToBaCCo'
  _symmetry_space_group_name_H-M    'P1'
  _symmetry_Int_Tables_number       1
  _symmetry_cell_setting            triclinic
  loop_
  _symmetry_equiv_pos_as_xyz
 x,y,z
_cell_length_a 51.2930
_cell_length_b 50.5034
_cell_length_c 49.1767
_cell_angle_alpha 90.094400
_cell_angle_beta 90.082100
_cell_angle_gamma 93.327400
loop_
  _atom_site_label
  _atom_site_type_symbol
  _atom_site_fract_x
  _atom_site_fract_y
  _atom_site_fract_z
N1 N 0.59226 0.67034 0.61310
 N2 N 0.58248 0.65943 0.63540
 C3 C 0.56195 0.67293 0.64350
 C4 C 0.55854 0.69303 0.62503
 C5 C 0.57802 0.69078 0.60597
 H6 H 0.55010 0.66833 0.66123
 H7 H 0.58172 0.70333 0.58843
 Cu8 Cu 0.59700 0.62816 0.65120
 Cu9 Cu 0.62318 0.65784 0.59542
 Cu10 Cu 0.65118 0.60398 0.62467
 N11 N 0.61316 0.59795 0.66735
 N12 N 0.63502 0.58945 0.65757
 C13 C 0.64259 0.56927 0.67297
 C14 C 0.62425 0.56457 0.69321
 C15 C 0.60578 0.58306 0.68904
 H16 H 0.65981 0.55840 0.66934
 H17 H 0.58847 0.58561 0.70109
 N18 N 0.66470 0.62129 0.59132
 N19 N 0.65452 0.64230 0.58057
 C20 C 0.66840 0.64979 0.55834
 C21 C 0.68789 0.63237 0.55478
 C22 C 0.68497 0.61454 0.57593
 H23 H 0.66435 0.66629 0.54532
 H24 H 0.69686 0.59796 0.57980
 H25 H 0.61800 0.61889 0.60799
 H26 H 0.63859 0.64184 0.63011
 N27 N 0.91042 0.33136 0.11016
 N28 N 0.91992 0.34092 0.13326
 C29 C 0.93999 0.32662 0.14105
 C30 C 0.94349 0.30742 0.12153
 C31 C 0.92447 0.31104 0.10215
 H32 H 0.95144 0.33007 0.15933
 H33 H 0.92081 0.29942 0.08389
 Cu34 Cu 0.90568 0.37161 0.15049
 Cu35 Cu 0.87974 0.34511 0.09296
 Cu36 Cu 0.85281 0.39861 0.12440
 N37 N 0.89034 0.40164 0.16787
 N38 N 0.86914 0.41150 0.15800
 C39 C 0.86205 0.43131 0.17422
 C40 C 0.87995 0.43423 0.19514
 C41 C 0.89772 0.41519 0.19052
 H42 H 0.84535 0.44302 0.17085
 H43 H 0.91451 0.41137 0.20292
 N44 N 0.83904 0.38280 0.09029
 N45 N 0.84869 0.36185 0.07879
 C46 C 0.83424 0.35501 0.05668
 C47 C 0.81493 0.37277 0.05400
 C48 C 0.81857 0.39016 0.07551
 H49 H 0.83759 0.33851 0.04334
 H50 H 0.80679 0.40662 0.08026
 H51 H 0.88567 0.38335 0.10746
 H52 H 0.86414 0.36007 0.12808
 N53 N 0.40222 0.16547 -0.11263
 N54 N 0.41252 0.15453 -0.13406
 C55 C 0.43417 0.16915 -0.14144
 C56 C 0.43774 0.19002 -0.12339
 C57 C 0.41721 0.18707 -0.10530
 H58 H 0.44666 0.16479 -0.15837
 H59 H 0.41326 0.19997 -0.08841
 Cu60 Cu 0.39720 0.12176 -0.14962
 Cu61 Cu 0.36954 0.15158 -0.09662
 Cu62 Cu 0.34176 0.09315 -0.12379
 N63 N 0.38203 0.08828 -0.16373
 N64 N 0.35986 0.07771 -0.15421
 C65 C 0.35317 0.05545 -0.16828
 C66 C 0.37238 0.05170 -0.18732
 C67 C 0.39046 0.07279 -0.18385
 H68 H 0.33579 0.04276 -0.16477
 H69 H 0.40813 0.07672 -0.19548
 N70 N 0.32640 0.11177 -0.09299
 N71 N 0.33652 0.13448 -0.08324
 C72 C 0.32109 0.14270 -0.06313
 C73 C 0.30058 0.12406 -0.05985
 C74 C 0.30456 0.10468 -0.07897
 H75 H 0.32465 0.16067 -0.05140
 H76 H 0.29223 0.08691 -0.08254
 H77 H 0.37454 0.11246 -0.10684
 H78 H 0.35494 0.13199 -0.13082
 N79 N 0.09953 0.83228 0.38238
 N80 N 0.08446 0.84807 0.36912
 C81 C 0.06101 0.83532 0.36482
 C82 C 0.06162 0.81010 0.37564
 C83 C 0.08638 0.80879 0.38654
 H84 H 0.04489 0.84347 0.35411
 H85 H 0.09400 0.79223 0.39728
 Cu86 Cu 0.09789 0.88273 0.35656
 Cu87 Cu 0.13408 0.84414 0.39563
 Cu88 Cu 0.15728 0.90707 0.37609
 N89 N 0.11193 0.91731 0.34433
 N90 N 0.13565 0.92614 0.35120
 C91 C 0.14193 0.94863 0.33747
 C92 C 0.12097 0.95427 0.32127
 C93 C 0.10219 0.93411 0.32618
 H94 H 0.16065 0.95960 0.33848
 H95 H 0.08354 0.93113 0.31601
 N96 N 0.17634 0.88473 0.40108
 N97 N 0.16819 0.86025 0.40744
 C98 C 0.18506 0.85049 0.42537
 C99 C 0.20446 0.86991 0.43073
 C100 C 0.19838 0.89132 0.41504
 H101 H 0.18262 0.83133 0.43510
 H102 H 0.20885 0.91052 0.41451
 H103 H 0.12771 0.88408 0.39514
 H104 H 0.14247 0.86994 0.36399
 C105 C 0.10606 0.15026 0.11208
 C106 C 0.12779 0.13881 0.10062
 C107 C 0.13847 0.11750 0.11328
 C108 C 0.12787 0.10762 0.13775
 C109 C 0.10649 0.11894 0.14910
 C110 C 0.09564 0.14052 0.13629
 C111 C 0.09149 0.17100 0.10422
 N112 N 0.07283 0.17424 0.12328
 C113 C 0.07525 0.15579 0.14301
 C114 C 0.10029 0.10523 0.17263
 N115 N 0.11762 0.08617 0.17591
 C116 C 0.13461 0.08752 0.15476
 C117 C 0.15921 0.11039 0.09770
 N118 N 0.16158 0.12712 0.07618
 C119 C 0.14254 0.14463 0.07778
 H120 H 0.09445 0.18309 0.08620
 H121 H 0.06294 0.15357 0.16083
 H122 H 0.08454 0.10901 0.18648
 H123 H 0.15057 0.07468 0.15189
 H124 H 0.17194 0.09454 0.10196
 H125 H 0.13963 0.16038 0.06337
 C126 C 0.39012 0.84547 0.61399
 C127 C 0.36843 0.85613 0.60162
 C128 C 0.35713 0.87759 0.61332
 C129 C 0.36711 0.88845 0.63770
 C130 C 0.38855 0.87798 0.64991
 C131 C 0.40002 0.85619 0.63808
 C132 C 0.40538 0.82504 0.60688
 N133 N 0.42401 0.82290 0.62625
 C134 C 0.42088 0.84178 0.64546
 C135 C 0.39439 0.89293 0.67281
 N136 N 0.37677 0.91189 0.67489
 C137 C 0.35997 0.90926 0.65359
 C138 C 0.33694 0.88418 0.59666
 N139 N 0.33555 0.86702 0.57537
 C140 C 0.35466 0.84972 0.57823
 H141 H 0.40303 0.81254 0.58904
 H142 H 0.43309 0.84498 0.66328
 H143 H 0.41018 0.89019 0.68698
 H144 H 0.34400 0.92186 0.64973
 H145 H 0.32410 0.90018 0.59983
 H146 H 0.35844 0.83390 0.56415
 C147 C 0.88468 0.64895 0.38387
 C148 C 0.86016 0.63896 0.39305
 C149 C 0.85030 0.61429 0.38437
 C150 C 0.86452 0.59953 0.36606
 C151 C 0.88888 0.60915 0.35732
 C152 C 0.89911 0.63396 0.36644
 C153 C 0.89916 0.67226 0.38887
 N154 N 0.92205 0.67156 0.37518
 C155 C 0.92228 0.64824 0.36147
 C156 C 0.89778 0.59099 0.33911
 N157 N 0.87919 0.57090 0.33635
 C158 C 0.85887 0.57586 0.35286
 C159 C 0.82704 0.60892 0.39767
 N160 N 0.82255 0.62971 0.41418
 C161 C 0.84254 0.64833 0.41132
 H162 H 0.89363 0.68840 0.40176
 H163 H 0.93805 0.64227 0.34863
 H164 H 0.91588 0.59284 0.32778
 H165 H 0.84095 0.56354 0.35451
 H166 H 0.81467 0.59086 0.39610
 H167 H 0.84469 0.66673 0.42266
 C168 C 0.61448 0.35373 -0.11420
 C169 C 0.63822 0.36466 -0.10381
 C170 C 0.64946 0.38780 -0.11481
 C171 C 0.63732 0.40011 -0.13659
 C172 C 0.61389 0.38933 -0.14684
 C173 C 0.60252 0.36586 -0.13573
 C174 C 0.59893 0.33162 -0.10733
 N175 N 0.57814 0.32987 -0.12447
 C176 C 0.58017 0.35064 -0.14197
 C177 C 0.60647 0.40560 -0.16756
 N178 N 0.62504 0.42566 -0.17033
 C179 C 0.64403 0.42246 -0.15158
 C180 C 0.67203 0.39410 -0.10046
 N181 N 0.67489 0.37514 -0.08133
 C182 C 0.65439 0.35699 -0.08325
 H183 H 0.60262 0.31762 -0.09132
 H184 H 0.56629 0.35447 -0.15789
 H185 H 0.58906 0.40286 -0.17997
 H186 H 0.66133 0.43554 -0.14895
 H187 H 0.68548 0.41111 -0.10376
 H188 H 0.65132 0.33972 -0.07039
 C189 C -0.00165 0.25133 0.12185
 N190 N -0.01701 0.25439 0.09971
 N191 N -0.03493 0.27247 0.09965
 C192 C -0.03788 0.28841 0.12157
 N193 N -0.02234 0.28545 0.14362
 N194 N -0.00469 0.26712 0.14383
 C195 C 0.01784 0.23119 0.12214
 N196 N 0.02632 0.22145 0.14608
 N197 N 0.04387 0.20302 0.14642
 C198 C 0.05387 0.19396 0.12285
 N199 N 0.04553 0.20385 0.09891
 N200 N 0.02769 0.22201 0.09855
 C201 C 0.50125 0.74859 0.62590
 N202 N 0.51419 0.74339 0.60261
 N203 N 0.53256 0.72580 0.60240
 C204 C 0.53843 0.71254 0.62539
 N205 N 0.52539 0.71762 0.64866
 N206 N 0.50723 0.73546 0.64894
 C207 C 0.48107 0.76803 0.62607
 N208 N 0.47360 0.77923 0.64972
 N209 N 0.45539 0.79701 0.64977
 C210 C 0.44377 0.80397 0.62622
 N211 N 0.45115 0.79265 0.60260
 N212 N 0.46958 0.77513 0.60251
 C213 C 1.00259 0.75159 0.37546
 N214 N 1.02696 0.74632 0.38387
 N215 N 1.04606 0.76536 0.38414
 C216 C 1.04159 0.79026 0.37558
 N217 N 1.01723 0.79544 0.36697
 N218 N 0.99803 0.77650 0.36711
 C219 C 0.98153 0.73068 0.37538
 N220 N 0.95623 0.73687 0.37782
 N221 N 0.93712 0.71784 0.37797
 C222 C 0.94260 0.69199 0.37525
 N223 N 0.96788 0.68582 0.37260
 N224 N 0.98703 0.70482 0.37288
 C225 C 0.49768 0.24971 -0.12376
 N226 N 0.49101 0.23628 -0.14691
 N227 N 0.47203 0.21712 -0.14674
 C228 C 0.45880 0.21097 -0.12350
 N229 N 0.46534 0.22452 -0.10039
 N230 N 0.48457 0.24343 -0.10047
 C231 C 0.51869 0.27069 -0.12392
 N232 N 0.53174 0.27755 -0.10068
 N233 N 0.55097 0.29646 -0.10089
 C234 C 0.55758 0.30944 -0.12427
 N235 N 0.54440 0.30270 -0.14746
 N236 N 0.52543 0.28353 -0.14733
 C237 C 0.11910 0.01269 0.26132
 N238 N 0.09658 0.00042 0.27055
 N239 N 0.09711 -0.01808 0.28983
 C240 C 0.12015 -0.02469 0.30077
 N241 N 0.14263 -0.01221 0.29174
 N242 N 0.14212 0.00605 0.27227
 C243 C 0.11871 0.03227 0.23933
 N244 N 0.14063 0.03844 0.22468
 N245 N 0.14025 0.05572 0.20428
 C246 C 0.11801 0.06770 0.19798
 N247 N 0.09613 0.06169 0.21277
 N248 N 0.09643 0.04415 0.23298
 C249 C 0.62447 0.50670 -0.24821
 N250 N 0.64543 0.51138 -0.26468
 N251 N 0.64528 0.53008 -0.28373
 C252 C 0.62433 0.54507 -0.28678
 N253 N 0.60345 0.54054 -0.27011
 N254 N 0.60344 0.52155 -0.25131
 C255 C 0.62455 0.48576 -0.22758
 N256 N 0.60178 0.47413 -0.21822
 N257 N 0.60193 0.45473 -0.19989
 C258 C 0.62484 0.44653 -0.19000
 N259 N 0.64759 0.45833 -0.19920
 N260 N 0.64745 0.47746 -0.21781
 C261 C 0.37446 0.99080 0.75520
 N262 N 0.39669 1.00497 0.76247
 N263 N 0.39602 1.02442 0.78076
 C264 C 0.37316 1.03017 0.79267
 N265 N 0.35098 1.01585 0.78557
 N266 N 0.35159 0.99663 0.76703
 C267 C 0.37504 0.96984 0.73455
 N268 N 0.35298 0.96178 0.72088
 N269 N 0.35356 0.94317 0.70170
 C270 C 0.37615 0.93168 0.69575
 N271 N 0.39818 0.93957 0.70960
 N272 N 0.39767 0.95844 0.72854
 C273 C 0.88011 0.49029 0.25777
 N274 N 0.85799 0.48390 0.24345
 N275 N 0.85798 0.46603 0.22350
 C276 C 0.88002 0.45368 0.21736
 N277 N 0.90211 0.45987 0.23183
 N278 N 0.90220 0.47799 0.25158
 C279 C 0.88011 0.51058 0.27915
 N280 N 0.90279 0.52305 0.28782
 N281 N 0.90257 0.54229 0.30640
 C282 C 0.87967 0.54951 0.31721
 N283 N 0.85705 0.53680 0.30875
 N284 N 0.85725 0.51780 0.28996
 C285 C 0.24017 0.12546 -0.00301
 N286 N 0.24637 0.10229 -0.01470
 N287 N 0.26545 0.10188 -0.03302
 C288 C 0.27926 0.12459 -0.04002
 N289 N 0.27315 0.14775 -0.02823
 N290 N 0.25383 0.14820 -0.01018
 C291 C 0.21931 0.12585 0.01735
 N292 N 0.20758 0.14864 0.02301
 N293 N 0.18879 0.14899 0.04167
 C294 C 0.18129 0.12663 0.05560
 N295 N 0.19310 0.10388 0.05000
 N296 N 0.21165 0.10345 0.03110
 C297 C 0.74362 0.63192 0.49289
 N298 N 0.73755 0.60974 0.50765
 N299 N 0.71986 0.60996 0.52741
 C300 C 0.70735 0.63229 0.53293
 N301 N 0.71324 0.65445 0.51805
 N302 N 0.73120 0.65432 0.49848
 C303 C 0.76356 0.63161 0.47155
 N304 N 0.77581 0.65450 0.46257
 N305 N 0.79465 0.65396 0.44396
 C306 C 0.80165 0.63053 0.43342
 N307 N 0.78917 0.60770 0.44220
 N308 N 0.77058 0.60822 0.46103
 C309 C 0.75617 0.37356 -0.00492
 N310 N 0.76344 0.39587 0.00924
 N311 N 0.78215 0.39557 0.02803
 C312 C 0.79452 0.37305 0.03307
 N313 N 0.78741 0.35078 0.01875
 N314 N 0.76845 0.35098 0.00020
 C315 C 0.73518 0.37386 -0.02520
 N316 N 0.72185 0.35102 -0.03279
 N317 N 0.70241 0.35143 -0.05077
 C318 C 0.69583 0.37465 -0.06206
 N319 N 0.70931 0.39745 -0.05462
 N320 N 0.72852 0.39708 -0.03638
 C321 C 0.26236 0.86825 0.49049
 N322 N 0.25528 0.89163 0.48005
 N323 N 0.23718 0.89208 0.46064
 C324 C 0.22529 0.86918 0.45118
 N325 N 0.23234 0.84577 0.46162
 N326 N 0.25067 0.84531 0.48083
 C327 C 0.28181 0.86791 0.51238
 N328 N 0.29396 0.84544 0.51828
 N329 N 0.31142 0.84519 0.53837
 C330 C 0.31710 0.86732 0.55348
 N331 N 0.30485 0.88974 0.54763
 N332 N 0.28763 0.89007 0.52736
   
