data_POSCAR
  _audit_creation_date              2014-09-24
  _audit_creation_method            'ToBaCCo'
  _symmetry_space_group_name_H-M    'P1'
  _symmetry_Int_Tables_number       1
  _symmetry_cell_setting            triclinic
  loop_
  _symmetry_equiv_pos_as_xyz
 x,y,z
_cell_length_a 30.8387
_cell_length_b 30.1911
_cell_length_c 31.1176
_cell_angle_alpha 90.595300
_cell_angle_beta 89.893200
_cell_angle_gamma 89.516200
loop_
  _atom_site_label
  _atom_site_type_symbol
  _atom_site_fract_x
  _atom_site_fract_y
  _atom_site_fract_z
N1 N 0.10216 0.12793 0.22927
 N2 N 0.13882 0.10916 0.24102
 C3 C 0.13304 0.08818 0.27846
 C4 C 0.08996 0.09319 0.29045
 C5 C 0.07118 0.11819 0.25822
 H6 H 0.15802 0.06958 0.29484
 H7 H 0.03782 0.12946 0.25655
 Cu8 Cu 0.18980 0.11126 0.20469
 Cu9 Cu 0.09926 0.16544 0.17830
 Cu10 Cu 0.20078 0.20063 0.14371
 N11 N 0.23723 0.11570 0.16413
 N12 N 0.24355 0.15223 0.14245
 C13 C 0.28021 0.14769 0.11910
 C14 C 0.29690 0.10544 0.12585
 C15 C 0.26861 0.08607 0.15434
 H16 H 0.29243 0.17247 0.09742
 H17 H 0.27094 0.05301 0.16732
 N18 N 0.14635 0.23288 0.13105
 N19 N 0.10769 0.21779 0.14160
 C20 C 0.07708 0.24522 0.12584
 C21 C 0.09741 0.27943 0.10487
 C22 C 0.14135 0.27062 0.10877
 H23 H 0.04252 0.24125 0.13021
 H24 H 0.16768 0.28961 0.09550
 H25 H 0.15709 0.15135 0.14501
 H26 H 0.15943 0.18546 0.19520
 N27 N -0.14354 0.84641 0.24341
 N28 N -0.16787 0.88163 0.23660
 C29 C -0.15872 0.91301 0.26612
 C30 C -0.12793 0.89605 0.29363
 C31 C -0.11905 0.85362 0.27857
 H32 H -0.17334 0.94570 0.26744
 H33 H -0.09488 0.83080 0.29072
 Cu34 Cu -0.20954 0.88301 0.19011
 Cu35 Cu -0.14190 0.79703 0.20206
 Cu36 Cu -0.17491 0.83199 0.10100
 N37 N -0.24484 0.88188 0.13867
 N38 N -0.22964 0.86510 0.10247
 C39 C -0.25828 0.87310 0.07078
 C40 C -0.29396 0.89457 0.08858
 C41 C -0.28434 0.89957 0.13185
 H42 H -0.25391 0.86308 0.03755
 H43 H -0.30356 0.91649 0.15614
 N44 N -0.13602 0.78066 0.11008
 N45 N -0.12639 0.76519 0.14849
 C46 C -0.10344 0.72728 0.14383
 C47 C -0.09823 0.71884 0.10030
 C48 C -0.11896 0.75338 0.07993
 H49 H -0.09099 0.70780 0.17012
 H50 H -0.12284 0.75737 0.04564
 H51 H -0.14508 0.84665 0.15961
 H52 H -0.19340 0.81001 0.15953
 N53 N -0.11254 0.13648 -0.23550
 N54 N -0.14245 0.10577 -0.23365
 C55 C -0.13746 0.07763 -0.26704
 C56 C -0.10339 0.09216 -0.29163
 C57 C -0.08798 0.12951 -0.27082
 H58 H -0.15728 0.04890 -0.27329
 H59 H -0.06022 0.14909 -0.27976
 Cu60 Cu -0.18610 0.10650 -0.18888
 Cu61 Cu -0.10617 0.17991 -0.18930
 Cu62 Cu -0.20307 0.20262 -0.13608
 N63 N -0.23024 0.11227 -0.14491
 N64 N -0.24045 0.15108 -0.12796
 C65 C -0.27794 0.14729 -0.10592
 C66 C -0.29083 0.10333 -0.10848
 C67 C -0.25937 0.08207 -0.13266
 H68 H -0.29411 0.17427 -0.08908
 H69 H -0.25948 0.04778 -0.14307
 N70 N -0.15146 0.24166 -0.13243
 N71 N -0.11409 0.23127 -0.15096
 C72 C -0.08383 0.26050 -0.13861
 C73 C -0.10293 0.29126 -0.11147
 C74 C -0.14593 0.27856 -0.10817
 H75 H -0.05012 0.25925 -0.14825
 H76 H -0.17059 0.29352 -0.08781
 H77 H -0.15136 0.16024 -0.14247
 H78 H -0.17093 0.18581 -0.19342
 N79 N 0.12366 0.84874 -0.23860
 N80 N 0.13835 0.88854 -0.22948
 C81 C 0.12528 0.91694 -0.25990
 C82 C 0.10197 0.89370 -0.29029
 C83 C 0.10140 0.85039 -0.27589
 H84 H 0.13288 0.95186 -0.26040
 H85 H 0.08509 0.82261 -0.29073
 Cu86 Cu 0.17623 0.90003 -0.18098
 Cu87 Cu 0.13295 0.79898 -0.19963
 Cu88 Cu 0.19567 0.81991 -0.11003
 N89 N 0.22769 0.90061 -0.14484
 N90 N 0.23730 0.86731 -0.11959
 C91 C 0.27575 0.87506 -0.10052
 C92 C 0.29051 0.91600 -0.11410
 C93 C 0.25894 0.93136 -0.14183
 H94 H 0.29068 0.85347 -0.07721
 H95 H 0.25903 0.96227 -0.15912
 N96 N 0.15814 0.76769 -0.11484
 N97 N 0.13544 0.75846 -0.14972
 C98 C 0.11174 0.72187 -0.14243
 C99 C 0.11956 0.70808 -0.10075
 C100 C 0.14893 0.73798 -0.08426
 H101 H 0.08852 0.70801 -0.16473
 H102 H 0.16173 0.73868 -0.05193
 H103 H 0.14075 0.83877 -0.14570
 H104 H 0.19178 0.82115 -0.17436
 N105 N 0.14729 1.11098 0.75455
 N106 N 0.10969 1.12798 0.76640
 C107 C 0.07945 1.11650 0.73742
 C108 C 0.09948 1.09204 0.70523
 C109 C 0.14258 1.08887 0.71710
 H110 H 0.04551 1.12569 0.73943
 H111 H 0.16810 1.07062 0.70065
 Cu112 Cu 0.10333 1.16435 0.81820
 Cu113 Cu 0.19744 1.11596 0.79150
 Cu114 Cu 0.20112 1.20544 0.85548
 N115 N 0.10777 1.21752 0.85517
 N116 N 0.14524 1.23525 0.86607
 C117 C 0.13779 1.27382 0.88689
 C118 C 0.09340 1.28036 0.88945
 C119 C 0.07535 1.24397 0.86942
 H120 H 0.16278 1.29499 0.89992
 H121 H 0.04121 1.23805 0.86417
 N122 N 0.24456 1.15821 0.85905
 N123 N 0.24109 1.12176 0.83585
 C124 C 0.27150 1.09244 0.84818
 C125 C 0.29589 1.11195 0.88013
 C126 C 0.27826 1.15385 0.88620
 H127 H 0.27548 1.05932 0.83506
 H128 H 0.28770 1.17832 0.90996
 H129 H 0.16051 1.15346 0.85116
 H130 H 0.16193 1.18803 0.80188
 N131 N 0.84579 0.88198 0.76350
 N132 N 0.88365 0.86388 0.77236
 C133 C 0.91307 0.87681 0.74333
 C134 C 0.89239 0.90322 0.71392
 C135 C 0.84959 0.90600 0.72737
 H136 H 0.94668 0.86630 0.74247
 H137 H 0.82352 0.92448 0.71252
 Cu138 Cu 0.88914 0.81989 0.81658
 Cu139 Cu 0.79525 0.87284 0.80072
 Cu140 Cu 0.81830 0.81893 0.89669
 N141 N 0.89440 0.77694 0.86184
 N142 N 0.86434 0.77434 0.89170
 C143 C 0.87334 0.73962 0.91709
 C144 C 0.91129 0.72006 0.90228
 C145 C 0.92404 0.74463 0.86756
 H146 H 0.85438 0.73001 0.94470
 H147 H 0.95207 0.73857 0.84734
 N148 N 0.76652 0.85633 0.88869
 N149 N 0.75641 0.87501 0.85176
 C150 C 0.71954 0.89885 0.85714
 C151 C 0.70652 0.89529 0.89958
 C152 C 0.73702 0.86832 0.91857
 H153 H 0.70477 0.91934 0.83281
 H154 H 0.73793 0.85873 0.95195
 H155 H 0.83618 0.86737 0.85191
 H156 H 0.81179 0.81453 0.83254
 N157 N 0.14382 0.88282 1.23284
 N158 N 0.12979 0.84281 1.24135
 C159 C 0.10588 0.84425 1.27764
 C160 C 0.10468 0.88766 1.29225
 C161 C 0.12877 0.91122 1.26302
 H162 H 0.08937 0.81626 1.29139
 H163 H 0.13458 0.94652 1.26350
 Cu164 Cu 0.14018 0.79350 1.20206
 Cu165 Cu 0.18036 0.89557 1.18333
 Cu166 Cu 0.21241 0.80486 1.12300
 N167 N 0.13965 0.75529 1.15125
 N168 N 0.16665 0.76159 1.11920
 C169 C 0.15768 0.73311 1.08701
 C170 C 0.12373 0.70710 1.09998
 C171 C 0.11301 0.72177 1.14096
 H172 H 0.17498 0.73111 1.05676
 H173 H 0.08710 0.70992 1.16120
 N174 N 0.24166 0.86153 1.11978
 N175 N 0.22823 0.89719 1.14093
 C176 C 0.25461 0.93108 1.13126
 C177 C 0.28634 0.91534 1.10346
 C178 C 0.27704 0.87122 1.09667
 H179 H 0.25195 0.96421 1.14462
 H180 H 0.29460 0.84791 1.07635
 H181 H 0.16232 0.84330 1.14507
 H182 H 0.20606 0.83420 1.18566
 N183 N 0.84865 1.11126 1.23841
 N184 N 0.87797 1.14228 1.24319
 C185 C 0.90311 1.13259 1.27718
 C186 C 0.88904 1.09316 1.29411
 C187 C 0.85472 1.08026 1.26865
 H188 H 0.93044 1.15192 1.28801
 H189 H 0.83548 1.05071 1.27212
 Cu190 Cu 0.88291 1.19095 1.20331
 Cu191 Cu 0.80423 1.11408 1.19422
 Cu192 Cu 0.81343 1.19790 1.12002
 N193 N 0.88926 1.23496 1.15878
 N194 N 0.86070 1.23898 1.12774
 C195 C 0.87145 1.27345 1.10304
 C196 C 0.90912 1.29139 1.11912
 C197 C 0.91997 1.26602 1.15412
 H198 H 0.85394 1.28403 1.07481
 H199 H 0.94773 1.27034 1.17490
 N200 N 0.76763 1.15331 1.11750
 N201 N 0.76260 1.12273 1.14706
 C202 C 0.72706 1.09890 1.13757
 C203 C 0.70969 1.11496 1.09988
 C204 C 0.73627 1.14900 1.08778
 H205 H 0.71543 1.07109 1.15579
 H206 H 0.73262 1.16935 1.05961
 H207 H 0.84412 1.14566 1.15102
 H208 H 0.80677 1.18137 1.18416
 O209 O 0.43842 1.09307 1.07608
 O210 O 0.39003 1.05210 1.03650
 C211 C 0.39933 1.08242 1.06477
 O212 O 0.56100 1.09598 0.92876
 O213 O 0.60751 1.04915 0.96416
 C214 C 0.59960 1.08184 0.93859
 O215 O 0.43934 1.10170 0.93217
 O216 O 0.39065 1.05556 0.96475
 C217 C 0.40019 1.08883 0.94056
 O218 O 0.55998 1.08174 1.08354
 O219 O 0.60689 1.04487 1.03810
 C220 C 0.59864 1.07048 1.07080
 Zr221 Zr 0.49904 1.06568 1.05634
 O222 O 0.50633 1.13523 1.06097
 O223 O 0.49226 1.06227 1.12392
 Zr224 Zr 0.49941 1.07149 0.94772
 O225 O 0.50178 1.14127 0.94438
 O226 O 0.49540 1.06882 0.87982
 O227 O 0.46100 1.07840 1.00259
 O228 O 0.53696 1.07561 1.00274
 O229 O 0.55793 0.93275 1.07453
 O230 O 0.60625 0.97104 1.03312
 C231 C 0.59703 0.94307 1.06296
 O232 O 0.43667 0.93226 0.92413
 O233 O 0.38954 0.97777 0.96122
 C234 C 0.39787 0.94519 0.93498
 O235 O 0.55797 0.93948 0.91469
 O236 O 0.60632 0.97479 0.95907
 C237 C 0.59710 0.94872 0.92700
 O238 O 0.43610 0.92923 1.06799
 O239 O 0.38930 0.97622 1.03328
 C240 C 0.39748 0.94324 1.05841
 Zr241 Zr 0.49732 0.95400 1.04945
 O242 O 0.50227 0.88415 1.04406
 O243 O 0.49106 0.94877 1.11692
 Zr244 Zr 0.49736 0.96016 0.94078
 O245 O 0.50239 0.89092 0.93110
 O246 O 0.49009 0.96782 0.87360
 Zr247 Zr 0.43371 1.01457 0.99876
 Zr248 Zr 0.56285 1.01097 0.99843
 O249 O 0.53485 0.94772 0.99453
 O250 O 0.45883 0.94945 0.99482
 O251 O 0.53672 1.00835 1.06112
 O252 O 0.46021 1.01721 0.93648
 O253 O 0.46043 1.01048 1.06082
 O254 O 0.53738 1.01530 0.93574
 H255 H 0.55683 1.10111 1.00531
 H256 H 0.43974 1.01859 0.91199
 H257 H 0.55427 0.92142 0.99302
 H258 H 0.44072 1.00997 1.08599
 H259 H 0.52459 1.06119 0.86861
 H260 H 0.51645 0.98253 0.86281
 H261 H 0.49096 0.87700 0.95733
 H262 H 0.47608 0.87350 1.02892
 H263 H 0.51316 0.96817 1.13005
 H264 H 0.51563 1.04274 1.13470
 H265 H 0.48368 1.14881 1.04273
 H266 H 0.50823 1.15223 0.97368
 O267 O 0.07706 0.43505 -0.07846
 O268 O 0.03539 0.38761 -0.03898
 C269 C 0.06489 0.39571 -0.06758
 O270 O 0.08399 0.55681 0.07840
 O271 O 0.04647 0.60790 0.03854
 C272 C 0.07414 0.59714 0.06805
 O273 O 0.08686 0.43307 0.06834
 O274 O 0.03973 0.38659 0.03344
 C275 C 0.07260 0.39394 0.05843
 O276 O 0.07298 0.55876 -0.08377
 O277 O 0.04161 0.60898 -0.03717
 C278 C 0.06530 0.59894 -0.07042
 Zr279 Zr 0.05442 0.49762 -0.05655
 O280 O 0.12298 0.49863 -0.05699
 O281 O 0.05168 0.49234 -0.12435
 Zr282 Zr 0.06249 0.49642 0.05123
 O283 O 0.13059 0.49920 0.04341
 O284 O 0.07049 0.48967 0.11836
 O285 O 0.06528 0.45700 -0.00392
 O286 O 0.06781 0.53566 -0.00261
 O287 O -0.07719 0.56566 -0.06793
 O288 O -0.03134 0.61205 -0.03114
 C289 C -0.06317 0.60468 -0.05733
 O290 O -0.07389 0.44071 0.07905
 O291 O -0.03495 0.39019 0.03861
 C292 C -0.06386 0.40057 0.06730
 O293 O -0.06313 0.56443 0.08645
 O294 O -0.02616 0.61155 0.04250
 C295 C -0.05217 0.60374 0.07421
 O296 O -0.08451 0.44186 -0.06648
 O297 O -0.04048 0.39080 -0.03366
 C298 C -0.07305 0.40145 -0.05792
 Zr299 Zr -0.05470 0.50236 -0.04853
 O300 O -0.12294 0.50997 -0.04660
 O301 O -0.05626 0.49792 -0.11647
 Zr302 Zr -0.04650 0.50147 0.05981
 O303 O -0.11420 0.51044 0.06769
 O304 O -0.03947 0.49481 0.12717
 Zr305 Zr 0.00139 0.43329 0.00045
 Zr306 Zr 0.00626 0.56566 0.00244
 O307 O -0.05717 0.54054 0.00687
 O308 O -0.06062 0.46296 0.00568
 O309 O 0.00051 0.53965 -0.06043
 O310 O 0.00712 0.46026 0.06282
 O311 O -0.00204 0.46137 -0.06105
 O312 O 0.00993 0.53832 0.06449
 H313 H 0.09351 0.55509 -0.00399
 H314 H 0.00817 0.43997 0.08763
 H315 H -0.08230 0.56109 0.00942
 H316 H -0.00442 0.44134 -0.08634
 H317 H 0.04808 0.50845 0.13238
 H318 H -0.02459 0.52151 0.13821
 H319 H -0.12860 0.48985 0.04748
 H320 H -0.13390 0.48967 -0.02442
 H321 H -0.04551 0.52625 -0.12792
 H322 H 0.02839 0.51261 -0.13396
 H323 H 0.13177 0.49797 -0.08764
 H324 H 0.13895 0.47549 0.02274
 O325 O 1.06195 -0.10212 0.55973
 O326 O 1.02902 -0.05273 0.60613
 C327 C 1.05380 -0.08670 0.59810
 O328 O 1.08258 0.05054 0.43525
 O329 O 1.03442 0.01626 0.38982
 C330 C 1.06768 0.04111 0.39722
 O331 O 1.08824 0.04958 0.55644
 O332 O 1.04069 0.01915 0.60433
 C333 C 1.07475 0.04197 0.59520
 O334 O 1.05667 -0.10750 0.43828
 O335 O 1.02365 -0.05955 0.39154
 C336 C 1.04771 -0.09377 0.39983
 Zr337 Zr 1.04043 -0.07862 0.49898
 O338 O 1.10769 -0.09224 0.49360
 O339 O 1.02737 -0.14703 0.50482
 Zr340 Zr 1.05929 0.03191 0.49674
 O341 O 1.12696 0.02081 0.49149
 O342 O 1.06714 0.10136 0.49744
 O343 O 1.05892 -0.02385 0.53588
 O344 O 1.05696 -0.02568 0.46059
 O345 O 0.90978 -0.08402 0.44122
 O346 O 0.95240 -0.04773 0.39254
 C347 C 0.92162 -0.07492 0.40225
 O348 O 0.93320 0.07986 0.55928
 O349 O 0.96664 0.03210 0.60586
 C350 C 0.94243 0.06618 0.59766
 O351 O 0.93619 0.08016 0.43835
 O352 O 0.96384 0.02781 0.39153
 C353 C 0.94302 0.06434 0.39999
 O354 O 0.90494 -0.07095 0.56214
 O355 O 0.95464 -0.03890 0.60726
 C356 C 0.91937 -0.06073 0.60016
 Zr357 Zr 0.93237 -0.05825 0.50069
 O358 O 0.86515 -0.04476 0.49509
 O359 O 0.91876 -0.12627 0.50835
 Zr360 Zr 0.95115 0.05202 0.49866
 O361 O 0.88323 0.06212 0.49490
 O362 O 0.96111 0.12121 0.50118
 Zr363 Zr 0.99697 -0.01149 0.56233
 Zr364 Zr 0.99462 -0.01489 0.43509
 O365 O 0.93317 -0.00273 0.46239
 O366 O 0.93410 -0.00047 0.53799
 O367 O 0.98442 -0.07794 0.46176
 O368 O 1.00730 0.05088 0.53483
 O369 O 0.98564 -0.07535 0.53734
 O370 O 1.00599 0.04932 0.45938
 H371 H 1.08188 -0.03044 0.44089
 H372 H 1.01209 0.07698 0.55375
 H373 H 0.90808 0.00100 0.44286
 H374 H 0.98145 -0.10005 0.55760
 H375 H 1.09882 0.10647 0.49631
 H376 H 0.98787 0.12700 0.48464
 H377 H 0.87038 0.05121 0.52192
 H378 H 0.85714 -0.02406 0.51869
 H379 H 0.93875 -0.14291 0.48915
 H380 H 1.01106 -0.15637 0.47897
 H381 H 1.12246 -0.07521 0.51653
 H382 H 1.13507 -0.00093 0.51371
 C383 C 1.06901 0.07637 0.32660
 C384 C 1.09059 0.05929 0.36005
 H385 H 1.03392 0.07872 0.32801
 H386 H 1.12562 0.06055 0.36151
 C387 C 0.89368 -0.07997 0.32867
 C388 C 0.89943 -0.09830 0.36710
 H389 H 0.90301 -0.04599 0.32335
 H390 H 0.88633 -0.13080 0.37335
 C391 C 0.91460 0.06939 0.67062
 C392 C 0.92454 0.09076 0.63461
 H393 H 0.91718 0.03357 0.67167
 H394 H 0.91793 0.12592 0.63184
 C395 C 1.08083 -0.08676 0.67194
 C396 C 1.07405 -0.10896 0.63510
 H397 H 1.07288 -0.05175 0.67392
 H398 H 1.08531 -0.14290 0.63148
 C399 C 0.33311 1.08478 1.10732
 C400 C 0.36315 1.10647 1.08497
 H401 H 0.33750 1.04953 1.11237
 H402 H 0.36232 1.14222 1.08258
 C403 C 0.32784 0.93885 0.89830
 C404 C 0.36106 0.91948 0.91866
 H405 H 0.33025 0.97352 0.89001
 H406 H 0.36177 0.88397 0.92330
 C407 C 0.66951 0.90958 1.06650
 C408 C 0.63321 0.92311 1.08656
 H409 H 0.67054 0.90939 1.03171
 H410 H 0.62943 0.91915 1.12091
 C411 C 0.67217 1.08309 0.90770
 C412 C 0.63695 1.10546 0.92100
 H413 H 0.67134 1.04715 0.90722
 H414 H 0.63466 1.14108 0.91748
 C415 C 0.07583 0.31673 0.08312
 C416 C 0.09529 0.35572 0.07749
 H417 H 0.04227 0.31268 0.07378
 H418 H 0.12778 0.36073 0.08967
 C419 C -0.07982 0.32685 -0.08858
 C420 C -0.09847 0.36551 -0.07773
 H421 H -0.04536 0.32217 -0.08338
 H422 H -0.13192 0.37203 -0.08639
 C423 C 0.09816 0.67259 -0.07650
 C424 C 0.08471 0.63511 -0.09527
 H425 H 0.09581 0.67641 -0.04191
 H426 H 0.09072 0.62956 -0.12922
 C427 C -0.07628 0.68125 0.07884
 C428 C -0.07121 0.64184 0.09758
 H429 H -0.06658 0.68545 0.04562
 H430 H -0.08391 0.63647 0.12957
 C431 C 1.07784 0.07196 0.66805
 C432 C 1.09857 0.06164 0.63140
 H433 H 1.04309 0.06735 0.67046
 H434 H 1.13244 0.06984 0.62723
 C435 C 0.91342 -0.07732 0.67645
 C436 C 0.89458 -0.07538 0.63785
 H437 H 0.94734 -0.06885 0.67992
 H438 H 0.86183 -0.08730 0.63348
 C439 C 1.08093 -0.09317 0.32899
 C440 C 1.06850 -0.11658 0.36314
 H441 H 1.07554 -0.05764 0.32871
 H442 H 1.07696 -0.15136 0.36566
 C443 C 0.90760 0.06869 0.33023
 C444 C 0.92557 0.08941 0.36379
 H445 H 0.90441 0.03301 0.33022
 H446 H 0.92491 0.12525 0.36599
 C447 C 0.06983 0.31779 -0.09072
 C448 C 0.08710 0.35817 -0.08865
 H449 H 0.03724 0.31230 -0.07900
 H450 H 0.11824 0.36422 -0.10361
 C451 C -0.06676 0.32868 0.10172
 C452 C -0.08747 0.36452 0.08736
 H453 H -0.03166 0.32723 0.10181
 H454 H -0.12227 0.36791 0.09132
 C455 C -0.06583 0.68168 -0.08028
 C456 C -0.08594 0.64319 -0.07496
 H457 H -0.03130 0.68434 -0.07443
 H458 H -0.11947 0.63964 -0.08467
 C459 C 0.10323 0.67184 0.07486
 C460 C 0.09492 0.63277 0.09245
 H461 H 0.09725 0.67711 0.04098
 H462 H 0.10495 0.62633 0.12519
 C463 C 0.33079 1.09033 0.90415
 C464 C 0.36444 1.11265 0.91999
 H465 H 0.33033 1.05452 0.90617
 H466 H 0.36751 1.14785 0.91430
 C467 C 0.32290 0.94000 1.08568
 C468 C 0.36087 0.91988 1.07740
 H469 H 0.31893 0.97525 1.08058
 H470 H 0.36578 0.88550 1.08598
 C471 C 0.67249 1.09807 1.07577
 C472 C 0.63548 1.08762 1.09534
 H473 H 0.67479 1.09660 1.04102
 H474 H 0.63166 1.09331 1.12958
 C475 C 0.67085 0.91843 0.92204
 C476 C 0.63311 0.92775 0.90303
 H477 H 0.67494 0.92548 0.95597
 H478 H 0.62763 0.91731 0.87007
   
