data_POSCAR
  _audit_creation_date              2014-09-24
  _audit_creation_method            'ToBaCCo'
  _symmetry_space_group_name_H-M    'P1'
  _symmetry_Int_Tables_number       1
  _symmetry_cell_setting            triclinic
  loop_
  _symmetry_equiv_pos_as_xyz
 x,y,z
_cell_length_a 14.1089
_cell_length_b 14.4322
_cell_length_c 14.4860
_cell_angle_alpha 91.877700
_cell_angle_beta 88.235100
_cell_angle_gamma 89.218200
loop_
  _atom_site_label
  _atom_site_type_symbol
  _atom_site_fract_x
  _atom_site_fract_y
  _atom_site_fract_z
Si1 Si 0.01178 0.50626 0.23380
 Si2 Si -0.00264 0.49854 0.76116
 Si3 Si 0.24623 0.00268 0.49061
 Si4 Si 0.75094 -0.00847 0.50881
 Si5 Si 0.49166 0.25917 0.99145
 Si6 Si 0.49842 0.74155 1.00916
 B7 B 0.99243 1.09698 0.06435
 B8 B 0.99490 1.09950 -0.05387
 B9 B 1.09373 1.06216 0.00113
 B10 B 1.05583 1.00142 0.09629
 B11 B 0.93439 0.99850 0.09812
 B12 B 0.89517 1.05854 0.00491
 B13 B 1.00108 0.90481 -0.06333
 B14 B 0.99847 0.90286 0.05486
 B15 B 0.89946 0.93975 -0.00051
 B16 B 0.93778 1.00047 -0.09552
 B17 B 1.05910 1.00353 -0.09744
 B18 B 1.09796 0.94334 -0.00392
 B19 B 0.60535 0.49535 0.43939
 B20 B 0.60267 0.49620 0.55859
 B21 B 0.56656 0.59402 0.50321
 B22 B 0.50747 0.55659 0.40387
 B23 B 0.50496 0.43754 0.40147
 B24 B 0.56337 0.39790 0.49821
 B25 B 0.40432 0.50193 0.56104
 B26 B 0.40576 0.50123 0.44124
 B27 B 0.44054 0.40279 0.49574
 B28 B 0.50093 0.44014 0.59561
 B29 B 0.50385 0.55877 0.59797
 B30 B 0.44437 0.59803 0.50081
 C31 C 0.92111 1.35244 0.14854
 C32 C 1.00839 1.38965 0.17279
 C33 C 1.08567 1.32840 0.17830
 C34 C 1.07703 1.23465 0.15475
 C35 C 0.99234 1.19746 0.12209
 C36 C 0.91253 1.25691 0.13098
 H37 H 0.85759 1.39557 0.15149
 H38 H 1.15302 1.35083 0.20332
 H39 H 1.13748 1.19208 0.16401
 H40 H 0.84247 1.23085 0.12826
 C41 C 1.06714 0.68774 0.20569
 C42 C 1.01396 0.61521 0.16983
 C43 C 0.95027 0.63382 0.10116
 C44 C 0.94181 0.72399 0.06876
 C45 C 0.99815 0.79839 0.10115
 C46 C 1.06047 0.77538 0.17086
 H47 H 1.11282 0.67914 0.26339
 H48 H 0.90402 0.58007 0.07571
 H49 H 0.88854 0.73341 0.01973
 H50 H 1.10545 0.82388 0.20078
 C51 C 1.05436 1.36716 -0.10444
 C52 C 0.98680 1.39000 -0.16880
 C53 C 0.91903 1.32349 -0.18873
 C54 C 0.93113 1.23196 -0.16392
 C55 C 0.99697 1.20530 -0.09882
 C56 C 1.05576 1.27841 -0.06669
 H57 H 1.10641 1.41757 -0.08366
 H58 H 0.85451 1.34032 -0.22184
 H59 H 0.88000 1.18576 -0.18817
 H60 H 1.10523 1.26893 -0.01346
 C61 C 1.08353 0.65290 -0.14894
 C62 C 0.99766 0.60894 -0.16547
 C63 C 0.91466 0.66196 -0.15403
 C64 C 0.91891 0.75832 -0.14249
 C65 C 1.00326 0.80318 -0.11966
 C66 C 1.08624 0.74884 -0.13292
 H67 H 1.14999 0.61459 -0.15501
 H68 H 0.84615 0.63038 -0.16172
 H69 H 0.85475 0.79575 -0.14859
 H70 H 1.15462 0.77850 -0.13293
 C71 C 1.10476 1.05590 0.36370
 C72 C 1.18319 0.99936 0.37903
 C73 C 1.22856 0.95376 0.30260
 C74 C 1.19195 0.95771 0.21480
 C75 C 1.10735 1.00665 0.19824
 C76 C 1.06859 1.06068 0.27478
 H77 H 1.07187 1.09718 0.41988
 H78 H 1.29452 0.91599 0.30902
 H79 H 1.23106 0.92096 0.16040
 H80 H 1.00662 1.10406 0.26852
 C81 C 1.11156 1.05980 -0.36208
 C82 C 1.18744 1.00119 -0.38933
 C83 C 1.22626 0.94574 -0.32148
 C84 C 1.18780 0.94632 -0.23095
 C85 C 1.11367 1.00752 -0.20099
 C86 C 1.07971 1.06670 -0.26939
 H87 H 1.07498 1.09966 -0.41212
 H88 H 1.28655 0.90046 -0.33777
 H89 H 1.21761 0.89744 -0.18645
 H90 H 1.02077 1.11220 -0.25528
 C91 C 0.88304 0.94027 0.36093
 C92 C 0.80560 0.99570 0.38794
 C93 C 0.76514 1.05107 0.32040
 C94 C 0.80607 1.05514 0.23122
 C95 C 0.87989 0.99413 0.20088
 C96 C 0.91399 0.93474 0.26869
 H97 H 0.92189 0.90228 0.41082
 H98 H 0.70300 1.09394 0.33607
 H99 H 0.77951 1.10773 0.18844
 H100 H 0.97425 0.89240 0.25601
 C101 C 0.89054 0.94056 -0.36165
 C102 C 0.81363 0.99832 -0.37915
 C103 C 0.76921 1.04745 -0.30416
 C104 C 0.80479 1.04460 -0.21579
 C105 C 0.88770 0.99419 -0.19754
 C106 C 0.92576 0.93723 -0.27225
 H107 H 0.92289 0.89710 -0.41653
 H108 H 0.70428 1.08648 -0.31176
 H109 H 0.76531 1.08192 -0.16187
 H110 H 0.98682 0.89305 -0.26460
 C111 C 1.32082 1.19612 -0.09069
 C112 C 1.38222 1.18994 -0.01654
 C113 C 1.35277 1.14336 0.06080
 C114 C 1.26068 1.11242 0.06880
 C115 C 1.19535 1.11764 -0.00291
 C116 C 1.22982 1.15845 -0.08486
 H117 H 1.34187 1.23057 -0.15302
 H118 H 1.39850 1.13725 0.11913
 H119 H 1.24364 1.08614 0.13348
 H120 H 1.18661 1.16315 -0.14454
 C121 C 0.61464 1.10741 0.03049
 C122 C 0.60618 1.19409 -0.00729
 C123 C 0.68867 1.24157 -0.03093
 C124 C 0.77726 1.20118 -0.02206
 C125 C 0.78924 1.11041 0.00787
 C126 C 0.70465 1.06780 0.03997
 H127 H 0.55267 1.07218 0.05665
 H128 H 0.68512 1.31283 -0.05211
 H129 H 0.83526 1.24696 -0.02809
 H130 H 0.70598 1.00766 0.08047
 C131 C 1.37749 0.89499 -0.02163
 C132 C 1.38480 0.80635 0.01167
 C133 C 1.30222 0.75635 0.02813
 C134 C 1.21372 0.79833 0.02255
 C135 C 1.20286 0.89020 -0.00574
 C136 C 1.28795 0.93338 -0.03505
 H137 H 1.44022 0.93120 -0.04459
 H138 H 1.30588 0.68366 0.04450
 H139 H 1.15496 0.75337 0.03000
 H140 H 1.28769 0.99339 -0.07585
 C141 C 0.64248 0.85061 -0.06555
 C142 C 0.61056 0.80856 0.01387
 C143 C 0.67053 0.80631 0.08962
 C144 C 0.76189 0.84352 0.08411
 C145 C 0.79708 0.88432 0.00251
 C146 C 0.73287 0.88737 -0.07073
 H147 H 0.59878 0.85224 -0.12572
 H148 H 0.64801 0.77538 0.15338
 H149 H 0.80445 0.83975 0.14435
 H150 H 0.75152 0.91297 -0.13575
 C151 C 0.86598 0.43112 0.34227
 C152 C 0.89960 0.51289 0.30643
 C153 C 0.83617 0.58847 0.30321
 C154 C 0.74268 0.58168 0.33849
 C155 C 0.70961 0.50087 0.38134
 C156 C 0.77078 0.42423 0.36796
 H157 H 0.90911 0.36838 0.33762
 H158 H 0.85715 0.65237 0.27211
 H159 H 0.69689 0.64171 0.33355
 H160 H 0.74277 0.35660 0.36003
 C161 C 0.21143 0.51797 0.24574
 C162 C 0.12568 0.50681 0.29529
 C163 C 0.12755 0.49530 0.38933
 C164 C 0.21391 0.49360 0.43318
 C165 C 0.30290 0.50490 0.38674
 C166 C 0.29781 0.51750 0.29062
 H167 H 0.21170 0.52562 0.17158
 H168 H 0.06228 0.48637 0.42924
 H169 H 0.20594 0.48339 0.50408
 H170 H 0.36040 0.52033 0.24693
 C171 C 0.86135 0.42583 0.63814
 C172 C 0.89885 0.50702 0.67433
 C173 C 0.84457 0.58814 0.66603
 C174 C 0.74905 0.58363 0.64218
 C175 C 0.70746 0.50035 0.61041
 C176 C 0.76444 0.42171 0.62169
 H177 H 0.90264 0.36203 0.63670
 H178 H 0.87336 0.65529 0.68226
 H179 H 0.70779 0.64600 0.65422
 H180 H 0.73466 0.35577 0.62710
 C181 C 0.15407 0.57621 0.66834
 C182 C 0.11677 0.49394 0.70060
 C183 C 0.17692 0.41593 0.70185
 C184 C 0.27039 0.42003 0.66605
 C185 C 0.30687 0.50187 0.62777
 C186 C 0.24989 0.58146 0.64368
 H187 H 0.11114 0.63904 0.66930
 H188 H 0.15203 0.35133 0.72874
 H189 H 0.31296 0.35728 0.66577
 H190 H 0.27612 0.64856 0.63507
 C191 C 0.43303 0.71010 0.19247
 C192 C 0.49351 0.67823 0.11944
 C193 C 0.56068 0.61055 0.13694
 C194 C 0.56812 0.57748 0.22603
 C195 C 0.50695 0.60663 0.30140
 C196 C 0.43607 0.67117 0.27873
 H197 H 0.38184 0.76526 0.18465
 H198 H 0.61097 0.58662 0.08311
 H199 H 0.62377 0.52891 0.23271
 H200 H 0.37566 0.68691 0.32276
 C201 C 0.43478 0.71277 0.82385
 C202 C 0.49761 0.68212 0.89061
 C203 C 0.56693 0.61680 0.86237
 C204 C 0.57112 0.58103 0.77102
 C205 C 0.50754 0.61036 0.70255
 C206 C 0.44019 0.67813 0.73256
 H207 H 0.38226 0.76629 0.83975
 H208 H 0.61738 0.59227 0.91114
 H209 H 0.61988 0.52410 0.75834
 H210 H 0.39438 0.70955 0.68467
 C211 C 0.40767 0.32643 0.16620
 C212 C 0.48897 0.32264 0.10774
 C213 C 0.57497 0.34474 0.14703
 C214 C 0.58017 0.36840 0.24041
 C215 C 0.49990 0.38191 0.29884
 C216 C 0.41389 0.35182 0.26045
 H217 H 0.33915 0.30826 0.14024
 H218 H 0.64032 0.34334 0.10679
 H219 H 0.64827 0.38448 0.26130
 H220 H 0.34956 0.34904 0.30215
 C221 C 0.55712 0.28349 0.80889
 C222 C 0.49987 0.32122 0.88138
 C223 C 0.44078 0.39583 0.86427
 C224 C 0.43904 0.43088 0.77547
 C225 C 0.49730 0.39399 0.69995
 C226 C 0.56056 0.32350 0.72343
 H227 H 0.60031 0.22203 0.81666
 H228 H 0.39467 0.42592 0.91879
 H229 H 0.39486 0.49130 0.77006
 H230 H 0.61448 0.29641 0.67816
 C231 C 0.75388 0.79738 0.48743
 C232 C 0.69931 0.87485 0.51752
 C233 C 0.61736 0.85941 0.56974
 C234 C 0.58278 0.76929 0.57488
 C235 C 0.62303 0.69402 0.52025
 C236 C 0.71740 0.70876 0.49219
 H237 H 0.82640 0.80304 0.46429
 H238 H 0.57910 0.91615 0.60516
 H239 H 0.51635 0.76424 0.61021
 H240 H 0.76716 0.65239 0.48259
 C241 C 0.74567 0.17966 0.49514
 C242 C 0.68795 0.10515 0.51378
 C243 C 0.59423 0.12283 0.54195
 C244 C 0.55963 0.21479 0.54494
 C245 C 0.61144 0.29001 0.50675
 C246 C 0.70810 0.26794 0.49053
 H247 H 0.82156 0.16997 0.48332
 H248 H 0.54951 0.06775 0.56576
 H249 H 0.49156 0.22640 0.57956
 H250 H 0.76172 0.31814 0.48765
 C251 C 0.25015 0.80582 0.49154
 C252 C 0.30660 0.88475 0.48275
 C253 C 0.40190 0.87076 0.45874
 C254 C 0.44005 0.78035 0.45365
 C255 C 0.39037 0.70228 0.48772
 C256 C 0.29110 0.71640 0.48960
 H257 H 0.17382 0.81324 0.49981
 H258 H 0.44593 0.92833 0.44013
 H259 H 0.50934 0.77238 0.42081
 H260 H 0.24347 0.65931 0.49040
 C261 C 0.38465 0.13581 0.42695
 C262 C 0.30251 0.12050 0.48017
 C263 C 0.25029 0.19944 0.51098
 C264 C 0.28742 0.28831 0.50482
 C265 C 0.38113 0.30317 0.47477
 C266 C 0.42098 0.22620 0.42105
 H267 H 0.42169 0.07862 0.39103
 H268 H 0.17896 0.19443 0.53786
 H269 H 0.23978 0.34351 0.52275
 H270 H 0.48748 0.23168 0.38309
   
