data_POSCAR
  _audit_creation_date              2014-09-24
  _audit_creation_method            'ToBaCCo'
  _symmetry_space_group_name_H-M    'P1'
  _symmetry_Int_Tables_number       1
  _symmetry_cell_setting            triclinic
  loop_
  _symmetry_equiv_pos_as_xyz
 x,y,z
_cell_length_a 13.3995
_cell_length_b 13.3909
_cell_length_c 13.4405
_cell_angle_alpha 93.663800
_cell_angle_beta 86.726400
_cell_angle_gamma 86.677200
loop_
  _atom_site_label
  _atom_site_type_symbol
  _atom_site_fract_x
  _atom_site_fract_y
  _atom_site_fract_z
C1 C 0.67875 0.67907 0.00100
 C2 C 0.70866 0.57846 0.01191
 C3 C 0.63491 0.50795 0.01760
 C4 C 0.53370 0.53401 0.00081
 C5 C 0.50767 0.63519 -0.01589
 C6 C 0.57820 0.70897 -0.01006
 C7 C 0.45605 0.45645 0.00058
 C8 C 0.35248 0.48492 0.01185
 C9 C 0.27985 0.41340 0.00824
 C10 C 0.31079 0.31116 -0.00002
 C11 C 0.41290 0.28016 -0.00791
 C12 C 0.48438 0.35278 -0.01096
 H13 H 0.73437 0.73473 0.00106
 H14 H 0.65792 0.43254 0.03396
 H15 H 0.43226 0.65813 -0.03241
 H16 H 0.32650 0.56263 0.02512
 H17 H 0.25523 0.25551 -0.00019
 H18 H 0.56198 0.32668 -0.02397
 C19 C 0.00069 0.68845 0.32374
 C20 C 0.00858 0.72015 0.42435
 C21 C 0.01332 0.64740 0.49554
 C22 C -0.00100 0.54532 0.46975
 C23 C -0.01543 0.51775 0.36827
 C24 C -0.00846 0.58708 0.29422
 C25 C -0.00063 0.46808 0.54746
 C26 C 0.00851 0.36437 0.51859
 C27 C 0.00476 0.29185 0.58922
 C28 C -0.00112 0.32219 0.69108
 C29 C -0.00615 0.42399 0.72298
 C30 C -0.00896 0.49620 0.65128
 H31 H 0.00152 0.74333 0.26783
 H32 H 0.02693 0.67201 0.57120
 H33 H -0.03105 0.44209 0.34490
 H34 H 0.02053 0.33770 0.44126
 H35 H -0.00148 0.26622 0.74584
 H36 H -0.01912 0.57385 0.67833
 C37 C 0.69069 -0.00325 0.67448
 C38 C 0.58941 -0.00984 0.70338
 C39 C 0.51912 -0.01349 0.63024
 C40 C 0.54618 0.00030 0.52908
 C41 C 0.64849 0.01262 0.50320
 C42 C 0.72180 0.00593 0.57420
 C43 C 0.46820 0.00153 0.45190
 C44 C 0.49556 -0.00714 0.34830
 C45 C 0.42302 -0.00442 0.27677
 C46 C 0.32148 0.00052 0.30842
 C47 C 0.29177 0.00647 0.41024
 C48 C 0.36470 0.01073 0.48086
 H49 H 0.74539 -0.00440 0.73083
 H50 H 0.44334 -0.02668 0.65446
 H51 H 0.67278 0.02660 0.42782
 H52 H 0.57296 -0.01765 0.32123
 H53 H 0.26529 -0.00016 0.25355
 H54 H 0.33843 0.02285 0.55816
 O55 O 0.46754 -0.02850 -0.16331
 O56 O 0.38961 -0.02421 0.10450
 O57 O 0.38285 0.10667 -0.03069
 O58 O 0.45953 -0.16175 -0.03030
 O59 O 0.61190 -0.12311 0.00438
 O60 O 0.53448 0.14539 0.00731
 O61 O 0.54208 0.01240 0.14173
 O62 O 0.61867 0.01106 -0.12444
 Cu63 Cu 0.40966 -0.03058 -0.03398
 Cu64 Cu 0.59178 0.01551 0.01122
 C65 C 0.55696 -0.00987 -0.18955
 C66 C 0.45317 -0.00595 0.16900
 C67 C 0.44510 0.17206 -0.01120
 C68 C 0.54893 -0.18872 -0.01289
 O69 O -0.12373 0.61214 0.99703
 O70 O 0.14474 0.53528 0.99475
 O71 O 0.01148 0.54313 0.85939
 O72 O 0.00971 0.61827 1.12708
 O73 O -0.02616 0.46620 1.16469
 O74 O -0.02554 0.39066 0.89526
 O75 O 0.10672 0.38289 1.02987
 O76 O -0.16174 0.45988 1.03192
 Cu77 Cu 0.01462 0.59220 0.99085
 Cu78 Cu -0.03038 0.40975 1.03420
 C79 C -0.18903 0.54920 1.01454
 C80 C 0.17177 0.44558 1.01170
 C81 C -0.00733 0.45429 0.83120
 C82 C -0.00899 0.55610 1.19209
 O83 O -0.00740 -0.11209 0.38981
 O84 O -0.01295 0.15720 0.46770
 O85 O 0.11915 0.02629 0.38074
 O86 O -0.14787 0.02339 0.45652
 O87 O -0.11037 -0.00920 0.60901
 O88 O 0.15818 -0.01207 0.53154
 O89 O 0.02640 0.11931 0.61854
 O90 O 0.02597 -0.14865 0.54234
 Cu91 Cu -0.01646 0.02738 0.40880
 Cu92 Cu 0.02889 -0.01673 0.59027
 C93 C 0.00981 -0.17692 0.45307
 C94 C 0.00660 0.18415 0.55670
 C95 C 0.18442 0.00744 0.44266
 C96 C -0.17554 0.00731 0.54567
   
