data_POSCAR
  _audit_creation_date              2014-09-24
  _audit_creation_method            'ToBaCCo'
  _symmetry_space_group_name_H-M    'P1'
  _symmetry_Int_Tables_number       1
  _symmetry_cell_setting            triclinic
  loop_
  _symmetry_equiv_pos_as_xyz
 x,y,z
_cell_length_a 44.9639
_cell_length_b 45.0156
_cell_length_c 44.8127
_cell_angle_alpha 89.975200
_cell_angle_beta 90.019100
_cell_angle_gamma 89.919700
loop_
  _atom_site_label
  _atom_site_type_symbol
  _atom_site_fract_x
  _atom_site_fract_y
  _atom_site_fract_z
C1 C 0.15933 0.18231 0.20100
 C2 C 0.15912 0.20390 0.17843
 C3 C 0.18081 0.20356 0.15647
 C4 C 0.20298 0.18161 0.15680
 C5 C 0.20319 0.16026 0.17910
 C6 C 0.18125 0.16061 0.20133
 C7 C 0.14082 0.17698 0.22490
 N8 N 0.15112 0.15270 0.23950
 C9 C 0.17573 0.14243 0.22543
 C10 C 0.22691 0.14163 0.17363
 N11 N 0.24085 0.15131 0.14867
 C12 C 0.22655 0.17565 0.13811
 C13 C 0.17489 0.22678 0.13734
 N14 N 0.15026 0.24100 0.14729
 C15 C 0.14036 0.22733 0.17231
 H16 H 0.12127 0.18965 0.23109
 H17 H 0.18848 0.12310 0.23210
 H18 H 0.23342 0.12243 0.18667
 H19 H 0.23274 0.18792 0.11827
 H20 H 0.18739 0.23280 0.11760
 H21 H 0.12089 0.23387 0.18493
 C22 C -0.15631 0.82024 0.20449
 C23 C -0.15693 0.79815 0.18244
 C24 C -0.17929 0.79815 0.16116
 C25 C -0.20131 0.82025 0.16166
 C26 C -0.20070 0.84209 0.18344
 C27 C -0.17807 0.84209 0.20499
 C28 C -0.13707 0.82592 0.22772
 N29 N -0.14678 0.85056 0.24208
 C30 C -0.17173 0.86072 0.22852
 C31 C -0.22448 0.86074 0.17828
 N32 N -0.23926 0.85059 0.15400
 C33 C -0.22543 0.82594 0.14357
 C34 C -0.17412 0.77446 0.14242
 N35 N -0.14928 0.76029 0.15195
 C36 C -0.13851 0.77445 0.17631
 H37 H -0.11745 0.81322 0.23364
 H38 H -0.18420 0.88022 0.23518
 H39 H -0.23047 0.88027 0.19105
 H40 H -0.23230 0.81326 0.12423
 H41 H -0.18727 0.76808 0.12322
 H42 H -0.11870 0.76806 0.18849
 C43 C -0.16171 0.17817 -0.20307
 C44 C -0.16229 0.20041 -0.18116
 C45 C -0.18412 0.20015 -0.15935
 C46 C -0.20566 0.17763 -0.15917
 C47 C -0.20509 0.15565 -0.18082
 C48 C -0.18299 0.15592 -0.20290
 C49 C -0.14289 0.17265 -0.22668
 N50 N -0.15238 0.14771 -0.24061
 C51 C -0.17679 0.13720 -0.22641
 C52 C -0.22830 0.13657 -0.17497
 N53 N -0.24271 0.14659 -0.15042
 C54 C -0.22921 0.17158 -0.14048
 C55 C -0.17897 0.22405 -0.14087
 N56 N -0.15465 0.23858 -0.15108
 C57 C -0.14421 0.22445 -0.17561
 H58 H -0.12368 0.18565 -0.23312
 H59 H -0.18895 0.11739 -0.23260
 H60 H -0.23415 0.11684 -0.18749
 H61 H -0.23591 0.18426 -0.12107
 H62 H -0.19174 0.23030 -0.12137
 H63 H -0.12481 0.23107 -0.18827
 C64 C 0.16026 0.82045 -0.20277
 C65 C 0.15943 0.79796 -0.18111
 C66 C 0.18079 0.79706 -0.15883
 C67 C 0.20324 0.81864 -0.15793
 C68 C 0.20407 0.84086 -0.17934
 C69 C 0.18245 0.84178 -0.20189
 C70 C 0.14221 0.82699 -0.22673
 N71 N 0.15304 0.85166 -0.24019
 C72 C 0.17755 0.86098 -0.22534
 C73 C 0.22795 0.85885 -0.17278
 N74 N 0.24141 0.84795 -0.14804
 C75 C 0.22664 0.82345 -0.13867
 C76 C 0.17427 0.77318 -0.14077
 N77 N 0.14960 0.75978 -0.15167
 C78 C 0.14026 0.77462 -0.17625
 H79 H 0.12262 0.81488 -0.23374
 H80 H 0.19067 0.88032 -0.23106
 H81 H 0.23491 0.87844 -0.18495
 H82 H 0.23239 0.81028 -0.11927
 H83 H 0.18638 0.76616 -0.12110
 H84 H 0.12090 0.76893 -0.18943
 C85 C 0.18295 1.16019 0.79871
 C86 C 0.20450 1.16020 0.82133
 C87 C 0.20404 1.18202 0.84313
 C88 C 0.18202 1.20409 0.84257
 C89 C 0.16071 1.20409 0.82022
 C90 C 0.16117 1.18201 0.79816
 C91 C 0.17770 1.14147 0.77499
 N92 N 0.15337 1.15156 0.76029
 C93 C 0.14300 1.17623 0.77411
 C94 C 0.14192 1.22770 0.82550
 N95 N 0.15148 1.24180 0.85041
 C96 C 0.17588 1.22771 0.86112
 C97 C 0.22722 1.17628 0.86239
 N98 N 0.24152 1.15162 0.85266
 C99 C 0.22796 1.14154 0.82767
 H100 H 0.19041 1.12190 0.76901
 H101 H 0.12360 1.18884 0.76733
 H102 H 0.12267 1.23401 0.81240
 H103 H 0.18806 1.23402 0.88099
 H104 H 0.23316 1.18890 0.88207
 H105 H 0.23457 1.12201 0.81521
 C106 C 0.81898 0.84199 0.79415
 C107 C 0.79685 0.84160 0.81617
 C108 C 0.79666 0.81933 0.83753
 C109 C 0.81861 0.79717 0.83711
 C110 C 0.84049 0.79755 0.81533
 C111 C 0.84068 0.82010 0.79374
 C112 C 0.82494 0.86122 0.77101
 N113 N 0.84962 0.85136 0.75678
 C114 C 0.85952 0.82634 0.77034
 C115 C 0.85910 0.77381 0.82069
 N116 N 0.84888 0.75926 0.84507
 C117 C 0.82423 0.77320 0.85538
 C118 C 0.77309 0.82485 0.85635
 N119 N 0.75918 0.84980 0.84679
 C120 C 0.77339 0.86031 0.82234
 H121 H 0.81247 0.88097 0.76512
 H122 H 0.87906 0.81381 0.76383
 H123 H 0.87870 0.76773 0.80802
 H124 H 0.81156 0.76656 0.87482
 H125 H 0.76666 0.81191 0.87567
 H126 H 0.76725 0.88019 0.81018
 C127 C 0.17969 0.83794 1.20390
 C128 C 0.20177 0.83733 1.18182
 C129 C 0.20131 0.81551 1.16003
 C130 C 0.17877 0.79403 1.16006
 C131 C 0.15694 0.79462 1.18187
 C132 C 0.15739 0.81669 1.20392
 C133 C 0.17431 0.85681 1.22747
 N134 N 0.14941 0.84737 1.24157
 C135 C 0.13879 0.82296 1.22751
 C136 C 0.13774 0.77151 1.17611
 N137 N 0.14753 0.75714 1.15145
 C138 C 0.17251 0.77059 1.14137
 C139 C 0.22504 0.82065 1.14131
 N140 N 0.23967 0.84494 1.15135
 C141 C 0.22577 0.85540 1.17602
 H142 H 0.18734 0.87603 1.23377
 H143 H 0.11896 0.81087 1.23383
 H144 H 0.11803 0.76570 1.18870
 H145 H 0.18498 0.76392 1.12182
 H146 H 0.23110 0.80788 1.12176
 H147 H 0.23252 0.87480 1.18858
 C148 C 0.81856 1.16112 1.20603
 C149 C 0.79600 1.16032 1.18445
 C150 C 0.79504 1.18169 1.16220
 C151 C 0.81663 1.20412 1.16128
 C152 C 0.83893 1.20492 1.18261
 C153 C 0.83991 1.18330 1.20512
 C154 C 0.82537 1.14289 1.22976
 N155 N 0.85019 1.15361 1.24305
 C156 C 0.85937 1.17822 1.22832
 C157 C 0.85708 1.22859 1.17584
 N158 N 0.84620 1.24195 1.15105
 C159 C 0.82157 1.22731 1.14187
 C160 C 0.77127 1.17506 1.14403
 N161 N 0.75799 1.15032 1.15483
 C162 C 0.77279 1.14102 1.17945
 H163 H 0.81340 1.12317 1.23665
 H164 H 0.87887 1.19120 1.23387
 H165 H 0.87685 1.23541 1.18780
 H166 H 0.80848 1.23295 1.12238
 H167 H 0.76431 1.18709 1.12429
 H168 H 0.76724 1.12154 1.19248
 O169 O 0.45808 1.05168 1.05449
 O170 O 0.42551 1.02270 1.02777
 C171 C 0.43148 1.04358 1.04674
 O172 O 0.54168 1.04891 0.94846
 O173 O 0.57442 1.02204 0.97718
 C174 C 0.56832 1.04114 0.95644
 O175 O 0.45812 1.05172 0.95151
 O176 O 0.42554 1.02279 0.97824
 C177 C 0.43153 1.04362 0.95923
 O178 O 0.54161 1.04874 1.05778
 O179 O 0.57438 1.02199 1.02897
 C180 C 0.56826 1.04105 1.04974
 Zr181 Zr 0.49993 1.03451 1.04092
 O182 O 0.50213 1.08144 1.04225
 O183 O 0.49843 1.03136 1.08794
 Zr184 Zr 0.49993 1.03492 0.96550
 O185 O 0.50130 1.08174 0.96861
 O186 O 0.49691 1.03637 0.91838
 O187 O 0.47343 1.04037 1.00318
 O188 O 0.52582 1.04019 1.00321
 O189 O 0.54204 0.94582 1.05783
 O190 O 0.57461 0.97254 1.02883
 C191 C 0.56864 0.95355 1.04971
 O192 O 0.45845 0.94288 0.95096
 O193 O 0.42572 0.97130 0.97809
 C194 C 0.43181 0.95075 0.95882
 O195 O 0.54203 0.94581 0.94827
 O196 O 0.57457 0.97273 0.97707
 C197 C 0.56861 0.95369 0.95627
 O198 O 0.45848 0.94260 1.05484
 O199 O 0.42575 0.97106 1.02769
 C200 C 0.43185 0.95043 1.04689
 Zr201 Zr 0.50020 0.95948 1.04071
 O202 O 0.50373 0.91258 1.04038
 O203 O 0.49739 0.95954 1.08785
 Zr204 Zr 0.50019 0.95967 0.96518
 O205 O 0.50372 0.91277 0.96529
 O206 O 0.49683 0.95990 0.91805
 Zr207 Zr 0.45588 0.99702 1.00299
 Zr208 Zr 0.54425 0.99724 1.00303
 O209 O 0.52604 0.95420 1.00295
 O210 O 0.47372 0.95368 1.00292
 O211 O 0.52660 0.99708 1.04656
 O212 O 0.47428 0.99727 0.95984
 O213 O 0.47411 0.99697 1.04622
 O214 O 0.52651 0.99737 0.95948
 H215 H 0.53922 1.05764 1.00327
 H216 H 0.46083 0.99736 0.94232
 H217 H 0.53963 0.93686 1.00295
 H218 H 0.46056 0.99695 1.06365
 H219 H 0.51208 1.02256 0.91044
 H220 H 0.51346 0.97198 0.91027
 H221 H 0.48702 0.90494 0.97729
 H222 H 0.48704 0.90482 1.02833
 H223 H 0.51108 0.97512 1.09515
 H224 H 0.49826 1.05206 1.09546
 H225 H 0.49035 1.08885 1.02514
 H226 H 0.50119 1.08924 0.94781
 O227 O 0.04821 0.54158 -0.05789
 O228 O 0.02145 0.57420 -0.02894
 C229 C 0.04055 0.56818 -0.04972
 O230 O -0.05781 0.45831 -0.05540
 O231 O -0.02925 0.42561 -0.02832
 C232 C -0.04988 0.43169 -0.04756
 O233 O -0.05476 0.54180 -0.05822
 O234 O -0.02806 0.57431 -0.02916
 C235 C -0.04705 0.56835 -0.05005
 O236 O 0.05119 0.45813 -0.05496
 O237 O 0.02238 0.42551 -0.02813
 C238 C 0.04317 0.43154 -0.04719
 Zr239 Zr 0.03436 0.49984 -0.04082
 O240 O 0.03559 0.49757 -0.08796
 O241 O 0.08123 0.50117 -0.03768
 Zr242 Zr -0.04079 0.50001 -0.04136
 O243 O -0.03749 0.49861 -0.08838
 O244 O -0.08774 0.50307 -0.04301
 O245 O -0.00320 0.52642 -0.04678
 O246 O -0.00323 0.47405 -0.04656
 O247 O 0.05100 0.45791 0.04835
 O248 O 0.02211 0.42539 0.02150
 C249 C 0.04288 0.43134 0.04061
 O250 O -0.05533 0.54164 0.05112
 O251 O -0.02824 0.57423 0.02255
 C252 C -0.04744 0.56822 0.04321
 O253 O -0.05806 0.45817 0.04834
 O254 O -0.02944 0.42556 0.02127
 C255 C -0.05008 0.43159 0.04049
 O256 O 0.04820 0.54135 0.05146
 O257 O 0.02118 0.57407 0.02286
 C258 C 0.04034 0.56796 0.04356
 Zr259 Zr 0.03400 0.49970 0.03457
 O260 O 0.03346 0.49627 0.08169
 O261 O 0.08098 0.50234 0.03471
 Zr262 Zr -0.04128 0.49989 0.03422
 O263 O -0.04153 0.49649 0.08133
 O264 O -0.08825 0.50333 0.03362
 Zr265 Zr -0.00344 0.54400 -0.00324
 Zr266 Zr -0.00351 0.45572 -0.00339
 O267 O -0.00367 0.47400 0.03982
 O268 O -0.00364 0.52624 0.04030
 O269 O 0.03988 0.47327 -0.00317
 O270 O -0.04648 0.52572 -0.00357
 O271 O 0.03960 0.52565 -0.00309
 O272 O -0.04691 0.47353 -0.00363
 H273 H -0.00314 0.46061 -0.06406
 H274 H -0.06392 0.53919 -0.00367
 H275 H -0.00369 0.46049 0.05728
 H276 H 0.05703 0.53910 -0.00302
 H277 H -0.09569 0.48817 -0.02890
 H278 H -0.09597 0.48637 0.02195
 H279 H -0.02913 0.51283 0.08922
 H280 H 0.02170 0.51317 0.08945
 H281 H 0.08828 0.48883 0.01891
 H282 H 0.08872 0.50123 -0.05848
 H283 H 0.01888 0.50984 -0.09541
 H284 H -0.05818 0.49872 -0.09599
 O285 O 1.05820 -0.04880 0.54217
 O286 O 1.02930 -0.02221 0.57501
 C287 C 1.05011 -0.04118 0.56891
 O288 O 1.05524 0.05703 0.45854
 O289 O 1.02872 0.02815 0.42576
 C290 C 1.04768 0.04891 0.43182
 O291 O 1.05792 0.05418 0.54222
 O292 O 1.02880 0.02776 0.57491
 C293 C 1.04966 0.04666 0.56890
 O294 O 1.05501 -0.05176 0.45828
 O295 O 1.02805 -0.02303 0.42553
 C296 C 1.04715 -0.04375 0.43158
 Zr297 Zr 1.04100 -0.03505 0.50025
 O298 O 1.08798 -0.03617 0.49784
 O299 O 1.03813 -0.08188 0.50165
 Zr300 Zr 1.04115 0.04002 0.50038
 O301 O 1.08803 0.03683 0.49901
 O302 O 1.04246 0.08693 0.50336
 O303 O 1.04681 0.00245 0.52695
 O304 O 1.04647 0.00254 0.47433
 O305 O 0.95215 -0.05186 0.45826
 O306 O 0.97864 -0.02282 0.42552
 C307 C 0.95973 -0.04366 0.43155
 O308 O 0.94897 0.05406 0.54238
 O309 O 0.97760 0.02701 0.57511
 C310 C 0.95689 0.04612 0.56908
 O311 O 0.95172 0.05712 0.45846
 O312 O 0.97878 0.02869 0.42565
 C313 C 0.95957 0.04926 0.43175
 O314 O 0.94919 -0.04923 0.54206
 O315 O 0.97764 -0.02229 0.57492
 C316 C 0.95707 -0.04145 0.56879
 Zr317 Zr 0.96589 -0.03491 0.50020
 O318 O 0.91892 -0.03454 0.49685
 O319 O 0.96598 -0.08184 0.50283
 Zr320 Zr 0.96583 0.04027 0.50036
 O321 O 0.91887 0.04034 0.49698
 O322 O 0.96608 0.08717 0.50388
 Zr323 Zr 1.00344 0.00249 0.54467
 Zr324 Zr 1.00342 0.00276 0.45595
 O325 O 0.96039 0.00274 0.47438
 O326 O 0.96002 0.00261 0.52686
 O327 O 1.00347 -0.04061 0.47360
 O328 O 1.00348 0.04551 0.52625
 O329 O 1.00348 -0.04046 0.52623
 O330 O 1.00350 0.04608 0.47381
 H331 H 1.06395 0.00244 0.46088
 H332 H 1.00343 0.06296 0.53971
 H333 H 0.94298 0.00276 0.46082
 H334 H 1.00354 -0.05788 0.53975
 H335 H 1.02855 0.09480 0.48819
 H336 H 0.97785 0.09498 0.48697
 H337 H 0.91109 0.02793 0.51342
 H338 H 0.91115 -0.02283 0.51383
 H339 H 0.98177 -0.08905 0.48925
 H340 H 1.05889 -0.08928 0.50167
 H341 H 1.09537 -0.01945 0.51008
 H342 H 1.09555 0.05751 0.49907
 C343 C 1.13874 0.14055 0.26342
 C344 C 1.12746 0.12941 0.28512
 C345 C 1.11398 0.11591 0.31090
 C346 C 1.09484 0.13247 0.32916
 C347 C 1.08153 0.11921 0.35404
 C348 C 1.08732 0.08935 0.36076
 C349 C 1.10650 0.07283 0.34254
 C350 C 1.11980 0.08608 0.31768
 C351 C 1.07336 0.07552 0.38610
 C352 C 1.06165 0.06359 0.40712
 H353 H 1.09016 0.15554 0.32411
 H354 H 1.06670 0.13218 0.36795
 H355 H 1.11109 0.04971 0.34750
 H356 H 1.13454 0.07306 0.30370
 C357 C 0.86629 -0.13699 0.26547
 C358 C 0.87817 -0.12562 0.28671
 C359 C 0.89231 -0.11192 0.31202
 C360 C 0.87616 -0.09251 0.33033
 C361 C 0.88993 -0.07899 0.35478
 C362 C 0.91991 -0.08480 0.36103
 C363 C 0.93606 -0.10425 0.34276
 C364 C 0.92228 -0.11779 0.31830
 C365 C 0.93411 -0.07059 0.38601
 C366 C 0.94588 -0.05845 0.40687
 H367 H 0.85298 -0.08780 0.32566
 H368 H 0.87725 -0.06395 0.36874
 H369 H 0.95926 -0.10887 0.34736
 H370 H 0.93498 -0.13274 0.30427
 C371 C 0.86048 0.13528 0.73586
 C372 C 0.87224 0.12397 0.71451
 C373 C 0.88639 0.11046 0.68910
 C374 C 0.89309 0.12758 0.66386
 C375 C 0.90712 0.11450 0.63928
 C376 C 0.91449 0.08426 0.63983
 C377 C 0.90771 0.06712 0.66504
 C378 C 0.89369 0.08019 0.68961
 C379 C 0.92925 0.07087 0.61471
 C380 C 0.94177 0.05961 0.59378
 H381 H 0.88757 0.15100 0.66323
 H382 H 0.91228 0.12797 0.61993
 H383 H 0.91334 0.04372 0.66571
 H384 H 0.88863 0.06675 0.70901
 C385 C 1.14121 -0.13517 0.73613
 C386 C 1.13032 -0.12324 0.71464
 C387 C 1.11708 -0.10910 0.68905
 C388 C 1.09289 -0.12243 0.67463
 C389 C 1.07976 -0.10860 0.64996
 C390 C 1.09076 -0.08138 0.63960
 C391 C 1.11501 -0.06807 0.65398
 C392 C 1.12815 -0.08191 0.67866
 C393 C 1.07690 -0.06701 0.61448
 C394 C 1.06490 -0.05513 0.59357
 H395 H 1.08413 -0.14343 0.68250
 H396 H 1.06099 -0.11905 0.63905
 H397 H 1.12366 -0.04700 0.64618
 H398 H 1.14682 -0.07140 0.68967
 C399 C 0.26447 1.13868 1.13627
 C400 C 0.28591 1.12715 1.12497
 C401 C 0.31143 1.11326 1.11148
 C402 C 0.33210 1.09807 1.12927
 C403 C 0.35673 1.08429 1.11614
 C404 C 0.36081 1.08564 1.08517
 C405 C 0.34019 1.10090 1.06739
 C406 C 0.31556 1.11468 1.08052
 C407 C 0.38592 1.07106 1.07163
 C408 C 0.40682 1.05864 1.06028
 H409 H 0.32912 1.09680 1.15322
 H410 H 0.37251 1.07251 1.13009
 H411 H 0.34310 1.10204 1.04341
 H412 H 0.29970 1.12635 1.06656
 C413 C 0.26504 0.85968 0.86515
 C414 C 0.28650 0.87045 0.87712
 C415 C 0.31205 0.88351 0.89131
 C416 C 0.33434 0.89673 0.87398
 C417 C 0.35895 0.90985 0.88775
 C418 C 0.36139 0.90980 0.91892
 C419 C 0.33917 0.89648 0.93626
 C420 C 0.31455 0.88335 0.92248
 C421 C 0.38642 0.92388 0.93308
 C422 C 0.40724 0.93597 0.94486
 H423 H 0.33261 0.89701 0.84986
 H424 H 0.37597 0.92015 0.87413
 H425 H 0.34081 0.89638 0.96039
 H426 H 0.29743 0.87323 0.93610
 C427 C 0.73684 0.86308 1.14198
 C428 C 0.71515 0.87441 1.13094
 C429 C 0.68935 0.88788 1.11751
 C430 C 0.67731 0.91400 1.12951
 C431 C 0.65246 0.92725 1.11618
 C432 C 0.63955 0.91442 1.09081
 C433 C 0.65154 0.88825 1.07888
 C434 C 0.67638 0.87501 1.09220
 C435 C 0.61430 0.92826 1.07674
 C436 C 0.59333 0.93982 1.06461
 H437 H 0.68718 0.92416 1.14905
 H438 H 0.64340 0.94752 1.12555
 H439 H 0.64178 0.87817 1.05924
 H440 H 0.68553 0.85484 1.08272
 C441 C 0.73393 1.13372 0.86216
 C442 C 0.71272 1.12198 0.87363
 C443 C 0.68746 1.10795 0.88741
 C444 C 0.66461 1.12531 0.89960
 C445 C 0.64020 1.11169 0.91325
 C446 C 0.63854 1.08064 0.91476
 C447 C 0.66135 1.06328 0.90251
 C448 C 0.68576 1.07691 0.88886
 C449 C 0.61363 1.06664 0.92919
 C450 C 0.59286 1.05497 0.94149
 H451 H 0.66571 1.14934 0.89863
 H452 H 0.62271 1.12533 0.92269
 H453 H 0.66032 1.03926 0.90360
 H454 H 0.70332 1.06327 0.87953
 C455 C 0.13685 0.26561 0.13360
 C456 C 0.12525 0.28674 0.12181
 C457 C 0.11126 0.31188 0.10774
 C458 C 0.08019 0.31431 0.10746
 C459 C 0.06655 0.33870 0.09376
 C460 C 0.08391 0.36078 0.08029
 C461 C 0.11498 0.35835 0.08056
 C462 C 0.12863 0.33395 0.09426
 C463 C 0.06978 0.38584 0.06621
 C464 C 0.05768 0.40671 0.05449
 H465 H 0.06654 0.29737 0.11780
 H466 H 0.04250 0.34035 0.09367
 H467 H 0.12861 0.37529 0.07020
 H468 H 0.15267 0.33229 0.09434
 C469 C -0.14190 0.26381 -0.13800
 C470 C -0.13078 0.28545 -0.12676
 C471 C -0.11722 0.31115 -0.11337
 C472 C -0.13427 0.33065 -0.09597
 C473 C -0.12096 0.35547 -0.08277
 C474 C -0.09056 0.36089 -0.08694
 C475 C -0.07355 0.34143 -0.10439
 C476 C -0.08685 0.31663 -0.11758
 C477 C -0.07668 0.38617 -0.07308
 C478 C -0.06468 0.40712 -0.06145
 H479 H -0.15777 0.32661 -0.09255
 H480 H -0.13431 0.37034 -0.06928
 H481 H -0.05001 0.34538 -0.10771
 H482 H -0.07345 0.30170 -0.13096
 C483 C 0.13565 0.73489 -0.13918
 C484 C 0.12363 0.71353 -0.12834
 C485 C 0.10929 0.68813 -0.11519
 C486 C 0.11267 0.68232 -0.08466
 C487 C 0.09864 0.65775 -0.07178
 C488 C 0.08118 0.63886 -0.08937
 C489 C 0.07781 0.64464 -0.11992
 C490 C 0.09184 0.66923 -0.13280
 C491 C 0.06668 0.61369 -0.07596
 C492 C 0.05467 0.59278 -0.06427
 H493 H 0.12609 0.69679 -0.07082
 H494 H 0.10138 0.65351 -0.04814
 H495 H 0.06434 0.63019 -0.13372
 H496 H 0.08907 0.67352 -0.15643
 C497 C -0.13648 0.73529 0.13842
 C498 C -0.12545 0.71384 0.12670
 C499 C -0.11226 0.68832 0.11256
 C500 C -0.09460 0.66866 0.12916
 C501 C -0.08161 0.64400 0.11532
 C502 C -0.08623 0.63890 0.08483
 C503 C -0.10392 0.65853 0.06825
 C504 C -0.11691 0.68318 0.08208
 C505 C -0.07262 0.61373 0.07045
 C506 C -0.06117 0.59283 0.05817
 H507 H -0.09084 0.67244 0.15274
 H508 H -0.06793 0.62898 0.12834
 H509 H -0.10760 0.65482 0.04464
 H510 H -0.13050 0.69825 0.06903
 C511 C 1.14121 0.13890 0.73654
 C512 C 1.13005 0.12737 0.71500
 C513 C 1.11654 0.11360 0.68941
 C514 C 1.08650 0.11887 0.68295
 C515 C 1.07325 0.10534 0.65822
 C516 C 1.08996 0.08648 0.63985
 C517 C 1.12002 0.08124 0.64627
 C518 C 1.13328 0.09478 0.67101
 C519 C 1.07616 0.07239 0.61460
 C520 C 1.06426 0.06062 0.59362
 H521 H 1.07335 0.13336 0.69704
 H522 H 1.04998 0.10952 0.65348
 H523 H 1.13314 0.06667 0.63223
 H524 H 1.15652 0.09053 0.67583
 C525 C 0.86243 -0.13552 0.73364
 C526 C 0.87414 -0.12356 0.71264
 C527 C 0.88825 -0.10931 0.68766
 C528 C 0.87177 -0.09064 0.66885
 C529 C 0.88555 -0.07675 0.64460
 C530 C 0.91586 -0.08148 0.63909
 C531 C 0.93233 -0.10015 0.65791
 C532 C 0.91856 -0.11403 0.68214
 C533 C 0.93011 -0.06723 0.61418
 C534 C 0.94227 -0.05539 0.59339
 H535 H 0.84833 -0.08683 0.67293
 H536 H 0.87262 -0.06235 0.63019
 H537 H 0.95579 -0.10395 0.65384
 H538 H 0.93151 -0.12841 0.69656
 C539 C 1.13706 -0.13967 0.26507
 C540 C 1.12581 -0.12782 0.28639
 C541 C 1.11236 -0.11356 0.31175
 C542 C 1.08931 -0.12764 0.32730
 C543 C 1.07612 -0.11366 0.35183
 C544 C 1.08595 -0.08556 0.36091
 C545 C 1.10902 -0.07150 0.34538
 C546 C 1.12220 -0.08548 0.32085
 C547 C 1.07227 -0.07104 0.38599
 C548 C 1.06080 -0.05870 0.40689
 H549 H 1.08152 -0.14935 0.32042
 H550 H 1.05827 -0.12471 0.36366
 H551 H 1.11676 -0.04975 0.35219
 H552 H 1.13999 -0.07438 0.30897
 C553 C 0.86380 0.14144 0.26629
 C554 C 0.87617 0.13025 0.28735
 C555 C 0.89092 0.11664 0.31237
 C556 C 0.89828 0.08641 0.31145
 C557 C 0.91248 0.07307 0.33578
 C558 C 0.91936 0.08991 0.36114
 C559 C 0.91205 0.12017 0.36205
 C560 C 0.89785 0.13351 0.33770
 C561 C 0.93371 0.07602 0.38623
 C562 C 0.94560 0.06402 0.40711
 H563 H 0.89302 0.07317 0.29198
 H564 H 0.91801 0.04966 0.33486
 H565 H 0.91726 0.13338 0.38156
 H566 H 0.89225 0.15691 0.33864
 C567 C 0.13861 0.26531 -0.13730
 C568 C 0.12684 0.28663 -0.12609
 C569 C 0.11264 0.31198 -0.11267
 C570 C 0.12913 0.33155 -0.09488
 C571 C 0.11524 0.35606 -0.08168
 C572 C 0.08482 0.36109 -0.08622
 C573 C 0.06835 0.34154 -0.10405
 C574 C 0.08223 0.31704 -0.11725
 C575 C 0.07042 0.38613 -0.07247
 C576 C 0.05812 0.40697 -0.06094
 H577 H 0.15266 0.32782 -0.09119
 H578 H 0.12818 0.37102 -0.06791
 H579 H 0.04480 0.34520 -0.10768
 H580 H 0.06927 0.30203 -0.13095
 C581 C -0.14107 0.26650 0.13671
 C582 C -0.13000 0.28754 0.12436
 C583 C -0.11656 0.31254 0.10963
 C584 C -0.13437 0.33524 0.09781
 C585 C -0.12122 0.35954 0.08353
 C586 C -0.09020 0.36120 0.08103
 C587 C -0.07241 0.33848 0.09283
 C588 C -0.08555 0.31420 0.10709
 C589 C -0.07655 0.38621 0.06653
 C590 C -0.06471 0.40703 0.05454
 H591 H -0.15837 0.33416 0.09965
 H592 H -0.13518 0.37700 0.07449
 H593 H -0.04840 0.33956 0.09102
 H594 H -0.07157 0.29677 0.11615
 C595 C -0.13857 0.73556 -0.14265
 C596 C -0.12713 0.71407 -0.13137
 C597 C -0.11347 0.68854 -0.11770
 C598 C -0.11803 0.68276 -0.08733
 C599 C -0.10459 0.65810 -0.07393
 C600 C -0.08654 0.63912 -0.09084
 C601 C -0.08200 0.64487 -0.12123
 C602 C -0.09544 0.66954 -0.13464
 C603 C -0.07255 0.61393 -0.07690
 C604 C -0.06088 0.59299 -0.06486
 H605 H -0.13190 0.69733 -0.07402
 H606 H -0.10822 0.65388 -0.05041
 H607 H -0.06805 0.63034 -0.13451
 H608 H -0.09175 0.67383 -0.15814
 C609 C 0.13370 0.73265 0.13810
 C610 C 0.12182 0.71164 0.12650
 C611 C 0.10769 0.68664 0.11245
 C612 C 0.08889 0.66807 0.12897
 C613 C 0.07512 0.64382 0.11523
 C614 C 0.08011 0.63806 0.08492
 C615 C 0.09891 0.65663 0.06840
 C616 C 0.11267 0.68087 0.08214
 C617 C 0.06596 0.61318 0.07068
 C618 C 0.05420 0.59245 0.05847
 H619 H 0.08488 0.67235 0.15242
 H620 H 0.06061 0.62960 0.12819
 H621 H 0.10290 0.65238 0.04494
 H622 H 0.12716 0.69510 0.06916
 C623 C 0.26614 1.13838 0.86649
 C624 C 0.28728 1.12688 0.87835
 C625 C 0.31249 1.11299 0.89241
 C626 C 0.31622 1.11483 0.92340
 C627 C 0.34058 1.10105 0.93706
 C628 C 0.36129 1.08539 0.91978
 C629 C 0.35758 1.08361 0.88878
 C630 C 0.33324 1.09739 0.87513
 C631 C 0.38615 1.07089 0.93381
 C632 C 0.40692 1.05855 0.94547
 H633 H 0.30029 1.12682 0.93697
 H634 H 0.34321 1.10252 0.96105
 H635 H 0.37345 1.07152 0.87522
 H636 H 0.33054 1.09580 0.85116
 C637 C 0.26477 0.85764 1.13797
 C638 C 0.28631 0.86865 1.12643
 C639 C 0.31193 0.88198 1.11265
 C640 C 0.31375 0.88394 1.08149
 C641 C 0.33842 0.89733 1.06811
 C642 C 0.36137 0.90880 1.08583
 C643 C 0.35961 0.90672 1.11698
 C644 C 0.33493 0.89333 1.13036
 C645 C 0.38644 0.92315 1.07210
 C646 C 0.40729 0.93545 1.06060
 H647 H 0.29606 0.87526 1.06759
 H648 H 0.33954 0.89888 1.04401
 H649 H 0.37720 0.91558 1.13089
 H650 H 0.33373 0.89196 1.15447
 C651 C 0.73338 1.13615 1.14203
 C652 C 0.71227 1.12399 1.13085
 C653 C 0.68720 1.10957 1.11720
 C654 C 0.68138 1.11383 1.08679
 C655 C 0.65708 1.09979 1.07341
 C656 C 0.63849 1.08143 1.09039
 C657 C 0.64429 1.07716 1.12081
 C658 C 0.66861 1.09121 1.13420
 C659 C 0.61356 1.06700 1.07650
 C660 C 0.59278 1.05507 1.06449
 H661 H 0.69562 1.12796 1.07344
 H662 H 0.65280 1.10323 1.04986
 H663 H 0.63006 1.06299 1.13414
 H664 H 0.67292 1.08776 1.15774
 C665 C 0.73450 0.86306 0.86046
 C666 C 0.71334 0.87453 0.87230
 C667 C 0.68819 0.88829 0.88656
 C668 C 0.69174 0.90260 0.91408
 C669 C 0.66732 0.91595 0.92800
 C670 C 0.63925 0.91504 0.91446
 C671 C 0.63569 0.90075 0.88692
 C672 C 0.66012 0.88740 0.87299
 C673 C 0.61414 0.92867 0.92892
 C674 C 0.59325 0.94009 0.94126
 H675 H 0.71334 0.90342 0.92476
 H676 H 0.67031 0.92693 0.94930
 H677 H 0.61407 0.89992 0.87627
 H678 H 0.65713 0.87639 0.85171
   
