data_POSCAR
  _audit_creation_date              2014-09-24
  _audit_creation_method            'ToBaCCo'
  _symmetry_space_group_name_H-M    'P1'
  _symmetry_Int_Tables_number       1
  _symmetry_cell_setting            triclinic
  loop_
  _symmetry_equiv_pos_as_xyz
 x,y,z
_cell_length_a 23.9370
_cell_length_b 24.0289
_cell_length_c 41.3116
_cell_angle_alpha 90.666000
_cell_angle_beta 91.449300
_cell_angle_gamma 90.312000
loop_
  _atom_site_label
  _atom_site_type_symbol
  _atom_site_fract_x
  _atom_site_fract_y
  _atom_site_fract_z
C1 C 0.00223 0.38040 0.97152
 C2 C 0.00056 0.35191 1.00072
 C3 C 0.00087 0.38036 1.03040
 C4 C 0.00304 0.43920 1.03118
 C5 C 0.00483 0.46867 1.00161
 C6 C 0.00445 0.43914 0.97163
 C7 C 0.00611 0.46907 0.94264
 C8 C 0.00790 0.52702 0.94303
 C9 C 0.00808 0.55714 0.97242
 C10 C 0.00662 0.52775 1.00200
 C11 C 0.00327 0.46935 1.06058
 C12 C 0.00500 0.52727 1.06096
 C13 C 0.00659 0.55735 1.03195
 C14 C 0.00794 0.61623 1.03197
 C15 C 0.00942 0.64462 1.00267
 C16 C 0.00945 0.61593 0.97308
 H17 H 0.00596 0.44786 0.91937
 H18 H 0.00906 0.54807 0.92002
 H19 H 0.00203 0.44829 1.08358
 H20 H 0.00501 0.54838 1.08426
 H21 H -0.00140 0.30671 1.00026
 H22 H 0.01021 0.68984 1.00281
 C23 C 0.61476 0.00741 0.46628
 C24 C 0.64662 0.00450 0.49501
 C25 C 0.62139 0.00390 0.52510
 C26 C 0.56259 0.00619 0.52689
 C27 C 0.52969 0.00929 0.49790
 C28 C 0.55581 0.00996 0.46742
 C29 C 0.52230 0.01312 0.43902
 C30 C 0.46432 0.01554 0.44050
 C31 C 0.43764 0.01481 0.47041
 C32 C 0.47056 0.01161 0.49939
 C33 C 0.53585 0.00539 0.55680
 C34 C 0.47781 0.00752 0.55825
 C35 C 0.44442 0.01063 0.52984
 C36 C 0.38552 0.01273 0.53097
 C37 C 0.35363 0.01601 0.50229
 C38 C 0.37885 0.01710 0.47220
 H39 H 0.54072 0.01376 0.41535
 H40 H 0.44052 0.01794 0.41792
 H41 H 0.55966 0.00305 0.57938
 H42 H 0.45928 0.00673 0.58188
 H43 H 0.69189 0.00257 0.49400
 H44 H 0.30839 0.01761 0.50340
 C45 C 0.10104 0.01012 0.26752
 H46 H 0.10771 0.00658 0.24177
 C47 C 0.14680 0.01532 0.28911
 H48 H 0.18870 0.01580 0.27984
 C49 C 0.03829 0.01501 0.31088
 H50 H -0.00394 0.01564 0.31939
 C51 C 0.08262 0.02063 0.33321
 H52 H 0.07379 0.02410 0.35873
 N53 N 0.04809 0.00893 0.27875
 C54 C -0.05474 -0.07999 0.20591
 H55 H -0.09030 -0.05240 0.20500
 C56 C -0.05360 -0.12665 0.18554
 H57 H -0.08835 -0.13429 0.16877
 C58 C 0.03484 -0.10152 0.22787
 H59 H 0.06915 -0.09175 0.24445
 C60 C 0.03776 -0.14867 0.20787
 H61 H 0.07446 -0.17477 0.20932
 Zn62 Zn -0.01343 0.00092 0.24913
 N63 N -0.01022 -0.06737 0.22580
 C64 C -0.00903 0.05040 0.18753
 N65 N -0.01149 0.06111 0.21986
 C66 C -0.01138 0.11430 0.23157
 C67 C -0.01100 0.15924 0.21034
 C68 C -0.00886 0.09389 0.16553
 C69 C -0.08939 -0.04298 0.29205
 C70 C -0.13535 -0.04383 0.31213
 C71 C -0.16478 0.04398 0.28968
 C72 C -0.11819 0.04312 0.26997
 N73 N -0.08080 0.00082 0.27220
 H74 H -0.00706 0.00812 0.17859
 H75 H -0.01226 0.12174 0.25743
 H76 H -0.01215 0.20130 0.21998
 H77 H -0.00691 0.08436 0.13990
 H78 H -0.05919 -0.07628 0.29313
 H79 H -0.13984 -0.07781 0.32886
 H80 H -0.19353 0.07853 0.28811
 H81 H -0.11141 0.07689 0.25349
 C82 C -0.00635 -0.16106 0.18583
 C83 C 0.13777 0.02045 0.32248
 C84 C -0.17318 0.00064 0.31161
 C85 C -0.01052 0.14915 0.17679
 C86 C 0.00822 0.10688 0.76775
 H87 H 0.01089 0.11358 0.74199
 C88 C 0.00507 0.15253 0.78894
 H89 H 0.00531 0.19425 0.77931
 C90 C 0.00324 0.04448 0.81157
 H91 H 0.00221 0.00243 0.82046
 C92 C -0.00034 0.08876 0.83350
 H93 H -0.00311 0.08009 0.85908
 N94 N 0.00768 0.05403 0.77934
 C95 C 0.09055 -0.05101 0.70762
 H96 H 0.06457 -0.08779 0.70809
 C97 C 0.13606 -0.04971 0.68717
 H98 H 0.14329 -0.08499 0.67132
 C99 C 0.11273 0.03927 0.72769
 H100 H 0.10426 0.07367 0.74377
 C101 C 0.15871 0.04237 0.70761
 H102 H 0.18478 0.07935 0.70843
 Zn103 Zn 0.01173 -0.00864 0.75076
 N104 N 0.07851 -0.00620 0.72658
 C105 C -0.05737 -0.05334 0.70043
 N106 N -0.05149 -0.00989 0.72168
 C107 C -0.08961 0.03196 0.72202
 C108 C -0.13416 0.03237 0.69949
 C109 C -0.10125 -0.05465 0.67756
 C110 C 0.05985 -0.08707 0.79253
 C111 C 0.06051 -0.13171 0.81387
 C112 C -0.03642 -0.14986 0.79949
 C113 C -0.03524 -0.10482 0.77845
 N114 N 0.01224 -0.07411 0.77570
 H115 H -0.02823 -0.08737 0.70127
 H116 H -0.08542 0.06551 0.73950
 H117 H -0.16292 0.06698 0.69953
 H118 H -0.10495 -0.08964 0.66088
 H119 H 0.09682 -0.06150 0.79013
 H120 H 0.09823 -0.13998 0.82798
 H121 H -0.07479 -0.17342 0.80164
 H122 H -0.07279 -0.09334 0.76513
 C123 C 0.17015 -0.00204 0.68644
 C124 C 0.00056 0.14365 0.82229
 C125 C 0.01163 -0.16323 0.81798
 C126 C -0.13988 -0.01094 0.67651
 C127 C 0.00422 -0.28713 0.11167
 C128 C 0.05161 -0.25602 0.12103
 C129 C 0.04868 -0.21640 0.14596
 C130 C 0.00701 -0.35267 0.05989
 C131 C -0.04884 -0.23995 0.15290
 C132 C -0.04579 -0.27958 0.12796
 C133 C 0.00590 -0.32372 0.08390
 C134 C -0.00186 -0.20722 0.16182
 H135 H 0.09042 -0.26123 0.10842
 H136 H 0.08536 -0.19137 0.15189
 H137 H -0.08814 -0.23432 0.16490
 H138 H -0.08277 -0.30339 0.12088
 C139 C -0.00934 0.27911 0.10635
 C140 C -0.04400 0.23253 0.10168
 C141 C -0.04530 0.19105 0.12499
 C142 C -0.00197 0.34907 0.05775
 C143 C 0.02173 0.24324 0.15840
 C144 C 0.02312 0.28476 0.13490
 C145 C -0.00501 0.31873 0.08068
 C146 C -0.01182 0.19547 0.15337
 H147 H -0.06926 0.22772 0.07967
 H148 H -0.07218 0.15518 0.12070
 H149 H 0.04822 0.24753 0.17993
 H150 H 0.05034 0.32054 0.13866
 C151 C 0.29339 0.00837 0.61283
 C152 C 0.28667 -0.04114 0.62985
 C153 C 0.24794 -0.04415 0.65458
 C154 C 0.35576 0.01123 0.56096
 C155 C 0.22363 0.05241 0.64591
 C156 C 0.26235 0.05531 0.62122
 C157 C 0.32856 0.00993 0.58511
 C158 C 0.21527 0.00236 0.66252
 H159 H 0.31036 -0.07779 0.62349
 H160 H 0.24299 -0.08306 0.66718
 H161 H 0.19864 0.08872 0.65108
 H162 H 0.26685 0.09371 0.60801
 C163 C -0.26805 -0.00557 0.60176
 C164 C -0.28022 0.01097 0.63340
 C165 C -0.23878 0.00889 0.65788
 C166 C -0.34221 0.00071 0.55345
 C167 C -0.17312 -0.02659 0.61909
 C168 C -0.21450 -0.02446 0.59472
 C169 C -0.30954 -0.00207 0.57606
 C170 C -0.18467 -0.00982 0.65096
 H171 H -0.32157 0.02570 0.63909
 H172 H -0.24912 0.02155 0.68223
 H173 H -0.13171 -0.04028 0.61282
 H174 H -0.20453 -0.03703 0.57027
 C175 C 0.00894 -0.28556 0.89308
 C176 C 0.05548 -0.28127 0.87339
 C177 C 0.05597 -0.24246 0.84840
 C178 C 0.00987 -0.35135 0.94395
 C179 C -0.03711 -0.21290 0.86238
 C180 C -0.03750 -0.25168 0.88730
 C181 C 0.00973 -0.32228 0.92036
 C182 C 0.00988 -0.20738 0.84284
 H183 H 0.09171 -0.30724 0.87769
 H184 H 0.09251 -0.23963 0.83358
 H185 H -0.07287 -0.18596 0.85913
 H186 H -0.07357 -0.25436 0.90255
 C187 C -0.00394 0.27619 0.89280
 C188 C -0.04027 0.23065 0.89487
 C189 C -0.03982 0.18836 0.87144
 C190 C 0.00065 0.34717 0.94214
 C191 C 0.03229 0.23774 0.84304
 C192 C 0.03191 0.28004 0.86664
 C193 C -0.00120 0.31636 0.91890
 C194 C -0.00290 0.19094 0.84555
 H195 H -0.06813 0.22720 0.91503
 H196 H -0.06796 0.15327 0.87374
 H197 H 0.06146 0.24060 0.82351
 H198 H 0.06047 0.31495 0.86493
 C199 C -0.29625 0.00667 0.38540
 C200 C -0.26904 0.05543 0.37615
 C201 C -0.23060 0.05386 0.35126
 C202 C -0.35729 0.00741 0.43783
 C203 C -0.24773 -0.04509 0.34407
 C204 C -0.28618 -0.04340 0.36898
 C205 C -0.33065 0.00718 0.41345
 C206 C -0.21869 0.00335 0.33535
 H207 H -0.27617 0.09432 0.38889
 H208 H -0.20841 0.09169 0.34546
 H209 H -0.23995 -0.08444 0.33202
 H210 H -0.30691 -0.08143 0.37601
 C211 C 0.27018 0.02558 0.39457
 C212 C 0.27429 -0.00961 0.36748
 C213 C 0.23210 -0.01003 0.34339
 C214 C 0.34265 0.02029 0.44377
 C215 C 0.18235 0.06089 0.37310
 C216 C 0.22454 0.06133 0.39707
 C217 C 0.31062 0.02281 0.42085
 C218 C 0.18517 0.02452 0.34626
 H219 H 0.30933 -0.03766 0.36539
 H220 H 0.23514 -0.03882 0.32316
 H221 H 0.14714 0.08854 0.37574
 H222 H 0.22095 0.08873 0.41793
   
