data_POSCAR
  _audit_creation_date              2014-09-24
  _audit_creation_method            'ToBaCCo'
  _symmetry_space_group_name_H-M    'P1'
  _symmetry_Int_Tables_number       1
  _symmetry_cell_setting            triclinic
  loop_
  _symmetry_equiv_pos_as_xyz
 x,y,z
_cell_length_a 31.4560
_cell_length_b 30.9841
_cell_length_c 30.8324
_cell_angle_alpha 95.369200
_cell_angle_beta 76.628400
_cell_angle_gamma 93.614400
loop_
  _atom_site_label
  _atom_site_type_symbol
  _atom_site_fract_x
  _atom_site_fract_y
  _atom_site_fract_z
O1 O 0.50372 0.53152 0.07079
 O2 O 0.39805 0.51771 0.03787
 O3 O 0.44398 0.46901 0.07264
 O4 O 0.45789 0.57937 0.03455
 O5 O 0.49215 0.55330 -0.03275
 O6 O 0.47690 0.44355 0.00466
 O7 O 0.43166 0.49221 -0.02984
 O8 O 0.53727 0.50527 0.00334
 Cu9 Cu 0.44764 0.52705 0.06084
 Cu10 Cu 0.48799 0.49595 -0.02037
 C11 C 0.53846 0.52063 0.04275
 C12 C 0.39684 0.50289 -0.00171
 C13 C 0.45781 0.43741 0.04474
 C14 C 0.47702 0.58496 -0.00572
 O15 O -0.07032 0.54341 0.52465
 O16 O -0.06164 0.42469 0.51790
 O17 O -0.07084 0.48662 0.58206
 O18 O -0.06207 0.48133 0.46033
 O19 O 0.00971 0.49037 0.44910
 O20 O 0.00104 0.49445 0.57084
 O21 O 0.01021 0.43320 0.50630
 O22 O 0.00142 0.55220 0.51390
 Cu23 Cu -0.07337 0.48319 0.52228
 Cu24 Cu 0.01278 0.49347 0.50885
 C25 C -0.03606 0.56810 0.52053
 C26 C -0.02426 0.40871 0.51125
 C27 C -0.03641 0.49099 0.59716
 C28 C -0.02470 0.48510 0.43397
 O29 O 0.55421 0.01568 0.53726
 O30 O 0.57610 0.05106 0.42351
 O31 O 0.50803 0.04853 0.48972
 O32 O 0.62202 0.01610 0.47038
 O33 O 0.60250 -0.04972 0.44582
 O34 O 0.48885 -0.01707 0.46422
 O35 O 0.55708 -0.01473 0.39840
 O36 O 0.53431 -0.04991 0.51256
 Cu37 Cu 0.56715 0.03942 0.48272
 Cu38 Cu 0.54388 -0.03950 0.45267
 C39 C 0.54023 -0.02296 0.54448
 C40 C 0.56993 0.02429 0.39164
 C41 C 0.47906 0.02126 0.48011
 C42 C 0.63159 -0.02245 0.45500
 C43 C 0.47959 -0.07637 -0.09595
 C44 C 0.49373 -0.03451 -0.10889
 C45 C 0.49830 -0.00128 -0.07587
 C46 C 0.48733 -0.00888 -0.03032
 C47 C 0.47178 -0.05047 -0.01809
 C48 C 0.46915 -0.08455 -0.05057
 C49 C 0.49311 0.02610 0.00449
 C50 C 0.50785 0.01651 0.04201
 C51 C 0.51323 0.04900 0.07530
 C52 C 0.50355 0.09186 0.07099
 C53 C 0.48884 0.10204 0.03358
 C54 C 0.48397 0.06909 0.00050
 H55 H 0.47692 -0.10268 -0.12078
 H56 H 0.51090 0.03053 -0.08583
 H57 H 0.46259 -0.05676 0.01691
 H58 H 0.51598 -0.01636 0.04511
 H59 H 0.50746 0.11716 0.09647
 H60 H 0.47205 0.07694 -0.02798
 C61 C -0.13022 0.49155 1.10152
 C62 C -0.13163 0.50103 1.05820
 C63 C -0.09253 0.50301 1.02539
 C64 C -0.05225 0.49404 1.03450
 C65 C -0.05183 0.48418 1.07817
 C66 C -0.09039 0.48424 1.11214
 C67 C -0.01098 0.49499 0.99851
 C68 C 0.02988 0.50493 1.00935
 C69 C 0.06879 0.50451 0.97613
 C70 C 0.06654 0.49745 0.93104
 C71 C 0.02633 0.48882 0.91908
 C72 C -0.01206 0.48604 0.95299
 H73 H -0.15999 0.48928 1.12723
 H74 H -0.09385 0.51191 0.99263
 H75 H -0.02179 0.47510 1.08544
 H76 H 0.03186 0.51287 1.04377
 H77 H 0.09593 0.49969 0.90481
 H78 H -0.04257 0.47605 0.94391
 C79 C -0.03621 -0.08438 0.48778
 C80 C 0.00252 -0.09518 0.49884
 C81 C 0.03510 -0.06252 0.50171
 C82 C 0.02982 -0.01942 0.49310
 C83 C -0.00914 -0.00980 0.48164
 C84 C -0.04241 -0.04165 0.47946
 C85 C 0.06466 0.01549 0.49587
 C86 C 0.05389 0.05941 0.50669
 C87 C 0.08662 0.09233 0.50754
 C88 C 0.13023 0.08100 0.50032
 C89 C 0.14176 0.03750 0.49087
 C90 C 0.10905 0.00528 0.48730
 H91 H -0.06144 -0.10919 0.48574
 H92 H 0.06420 -0.07092 0.51152
 H93 H -0.01376 0.02259 0.47361
 H94 H 0.02006 0.06809 0.51539
 H95 H 0.15520 0.10662 0.50060
 H96 H 0.11860 -0.02782 0.47772
 C97 C -0.41973 0.52556 1.05677
 C98 C -0.38000 0.51616 1.02715
 C99 C -0.33750 0.51849 1.04044
 C100 C -0.29883 0.52171 1.00719
 C101 C -0.25798 0.52223 1.01794
 C102 C -0.25493 0.51880 1.06233
 C103 C -0.29365 0.51622 1.09567
 C104 C -0.33450 0.51582 1.08493
 C105 C -0.21245 0.51736 1.07531
 C106 C -0.17329 0.50682 1.04503
 H107 H -0.37983 0.50746 0.99223
 H108 H -0.30022 0.52393 0.97269
 H109 H -0.22919 0.52564 0.99128
 H110 H -0.29233 0.51354 1.13012
 H111 H -0.36344 0.51223 1.11143
 H112 H -0.21279 0.52319 1.11051
 H113 H -0.42058 0.53722 1.09112
 H114 H -0.17269 0.50164 1.00976
 C115 C 0.35730 0.49838 0.98487
 C116 C 0.31761 0.51058 1.01326
 C117 C 0.27517 0.50737 0.99965
 C118 C 0.23640 0.51074 1.03303
 C119 C 0.19562 0.50783 1.02185
 C120 C 0.19283 0.50180 0.97680
 C121 C 0.23154 0.49868 0.94344
 C122 C 0.27227 0.50180 0.95458
 C123 C 0.15051 0.49680 0.96317
 C124 C 0.11112 0.51197 0.98966
 H125 H 0.31730 0.52234 1.04757
 H126 H 0.23763 0.51510 1.06801
 H127 H 0.16659 0.50927 1.04866
 H128 H 0.23028 0.49409 0.90848
 H129 H 0.30110 0.50029 0.92758
 H130 H 0.15087 0.48024 0.93063
 H131 H 0.35816 0.48485 0.95109
 H132 H 0.11061 0.52824 1.02236
 C133 C -0.04045 -0.38707 0.52330
 C134 C -0.00477 -0.35706 0.51816
 C135 C -0.00937 -0.30942 0.51994
 C136 C 0.02623 -0.28338 0.49892
 C137 C 0.02270 -0.23854 0.49871
 C138 C -0.01652 -0.21864 0.52016
 C139 C -0.05174 -0.24460 0.54202
 C140 C -0.04822 -0.28935 0.54220
 C141 C -0.02315 -0.17181 0.51841
 C142 C 0.01056 -0.14060 0.50570
 H143 H 0.02804 -0.36895 0.51015
 H144 H 0.05662 -0.29793 0.48170
 H145 H 0.05039 -0.22004 0.48070
 H146 H -0.08230 -0.23020 0.55894
 H147 H -0.07597 -0.30786 0.56010
 H148 H -0.05648 -0.16151 0.52832
 H149 H -0.07320 -0.37563 0.52859
 H150 H 0.04417 -0.14918 0.50133
 C151 C -0.02150 0.36123 0.50984
 C152 C 0.01825 0.34154 0.50536
 C153 C 0.02303 0.29409 0.50554
 C154 C 0.06360 0.27963 0.50846
 C155 C 0.07024 0.23540 0.50822
 C156 C 0.03621 0.20429 0.50523
 C157 C -0.00426 0.21868 0.50181
 C158 C -0.01090 0.26299 0.50199
 C159 C 0.04227 0.15684 0.50316
 C160 C 0.07686 0.13898 0.51591
 H161 H 0.04763 0.36229 0.50288
 H162 H 0.09053 0.30270 0.51065
 H163 H 0.10246 0.22606 0.50930
 H164 H -0.03086 0.19548 0.49876
 H165 H -0.04242 0.27230 0.49864
 H166 H 0.01906 0.13530 0.48986
 H167 H -0.05182 0.34202 0.51406
 H168 H 0.10000 0.16017 0.52957
 C169 C 0.53093 -0.03625 -0.41227
 C170 C 0.53630 -0.00812 -0.37553
 C171 C 0.52534 -0.02002 -0.32867
 C172 C 0.52266 0.01339 -0.29423
 C173 C 0.51230 0.00406 -0.24947
 C174 C 0.50479 -0.03913 -0.23820
 C175 C 0.50731 -0.07256 -0.27254
 C176 C 0.51784 -0.06325 -0.31735
 C177 C 0.49309 -0.05039 -0.19124
 C178 C 0.50544 -0.02428 -0.15633
 H179 H 0.54769 0.02512 -0.38102
 H180 H 0.52811 0.04697 -0.30195
 H181 H 0.50931 0.03084 -0.22397
 H182 H 0.50160 -0.10609 -0.26467
 H183 H 0.52047 -0.09016 -0.34262
 H184 H 0.47490 -0.08074 -0.18473
 H185 H 0.51830 -0.06917 -0.40770
 H186 H 0.52431 0.00562 -0.16378
 C187 C 0.57652 0.03945 0.34677
 C188 C 0.56907 0.01193 0.31061
 C189 C 0.56749 0.02705 0.26693
 C190 C 0.56988 -0.00370 0.23016
 C191 C 0.56442 0.00835 0.18935
 C192 C 0.55578 0.05147 0.18472
 C193 C 0.55507 0.08258 0.22092
 C194 C 0.56053 0.07053 0.26178
 C195 C 0.54618 0.06482 0.14330
 C196 C 0.52716 0.03619 0.11476
 H197 H 0.56287 -0.02242 0.31481
 H198 H 0.57544 -0.03733 0.23319
 H199 H 0.56689 -0.01626 0.16170
 H200 H 0.54865 0.11602 0.21809
 H201 H 0.55753 0.09513 0.28944
 H202 H 0.55182 0.09868 0.13695
 H203 H 0.58582 0.07331 0.34289
 H204 H 0.52148 0.00246 0.12166
 C205 C 0.48141 -0.37176 -0.02218
 C206 C 0.46108 -0.33620 0.00349
 C207 C 0.46306 -0.29292 -0.01354
 C208 C 0.45619 -0.25634 0.01718
 C209 C 0.45870 -0.21483 0.00235
 C210 C 0.46752 -0.20923 -0.04371
 C211 C 0.47366 -0.24589 -0.07438
 C212 C 0.47112 -0.28737 -0.05955
 C213 C 0.47321 -0.16587 -0.06108
 C214 C 0.45662 -0.12844 -0.03572
 H215 H 0.44404 -0.33986 0.03785
 H216 H 0.44981 -0.25982 0.05278
 H217 H 0.45503 -0.18742 0.02711
 H218 H 0.48044 -0.24242 -0.11000
 H219 H 0.47508 -0.31482 -0.08429
 H220 H 0.49262 -0.16346 -0.09473
 H221 H 0.50060 -0.36837 -0.05574
 H222 H 0.43697 -0.13074 -0.00218
 C223 C 0.45195 0.39312 0.05903
 C224 C 0.45873 0.35747 0.02751
 C225 C 0.45699 0.31210 0.03888
 C226 C 0.45043 0.27899 0.00659
 C227 C 0.45232 0.23556 0.01415
 C228 C 0.46177 0.22438 0.05399
 C229 C 0.46676 0.25746 0.08701
 C230 C 0.46460 0.30100 0.07953
 C231 C 0.46756 0.17894 0.06176
 C232 C 0.47987 0.14686 0.02685
 H233 H 0.46525 0.36299 -0.00767
 H234 H 0.44418 0.28678 -0.02485
 H235 H 0.44640 0.21111 -0.01140
 H236 H 0.47379 0.24965 0.11810
 H237 H 0.47054 0.32571 0.10489
 H238 H 0.46403 0.17129 0.09597
 H239 H 0.44148 0.38872 0.09437
 H240 H 0.48330 0.15443 -0.00734
 C241 C -0.32337 -0.03639 0.44822
 C242 C -0.28954 -0.00800 0.45689
 C243 C -0.24458 -0.02154 0.45404
 C244 C -0.21056 0.01035 0.45103
 C245 C -0.16806 -0.00064 0.45068
 C246 C -0.15882 -0.04391 0.45402
 C247 C -0.19265 -0.07594 0.45604
 C248 C -0.23514 -0.06495 0.45636
 C249 C -0.11491 -0.05693 0.45636
 C250 C -0.08397 -0.02825 0.47088
 H251 H -0.29618 0.02596 0.46595
 H252 H -0.21691 0.04399 0.44904
 H253 H -0.14277 0.02489 0.44757
 H254 H -0.18644 -0.10950 0.45862
 H255 H -0.26049 -0.09043 0.45980
 H256 H -0.10808 -0.09090 0.44877
 H257 H -0.31712 -0.06983 0.43620
 H258 H -0.09069 0.00580 0.47784
 C259 C 0.43375 0.03473 0.48758
 C260 C 0.40070 0.00703 0.47578
 C261 C 0.35450 0.01884 0.48223
 C262 C 0.32311 -0.01406 0.47611
 C263 C 0.27917 -0.00465 0.48172
 C264 C 0.26571 0.03814 0.49333
 C265 C 0.29703 0.07102 0.49949
 C266 C 0.34095 0.06167 0.49371
 C267 C 0.21949 0.04984 0.50063
 C268 C 0.18777 0.02481 0.48321
 H269 H 0.40894 -0.02555 0.46165
 H270 H 0.33254 -0.04734 0.46734
 H271 H 0.25598 -0.03117 0.47780
 H272 H 0.28753 0.10426 0.50845
 H273 H 0.36383 0.08833 0.49791
 H274 H 0.21055 0.08002 0.52030
 H275 H 0.42686 0.06706 0.50296
 H276 H 0.19630 -0.00574 0.46413
 C277 C -0.02071 0.48379 1.38527
 C278 C -0.05721 0.47812 1.36631
 C279 C -0.05553 0.47865 1.31775
 C280 C -0.09490 0.48162 1.30432
 C281 C -0.09521 0.48305 1.25919
 C282 C -0.05598 0.48108 1.22616
 C283 C -0.01662 0.47783 1.23951
 C284 C -0.01630 0.47634 1.28468
 C285 C -0.05446 0.48446 1.17807
 C286 C -0.09071 0.47611 1.15893
 H287 H -0.08919 0.47469 1.38854
 H288 H -0.12561 0.48357 1.32898
 H289 H -0.12617 0.48686 1.25076
 H290 H 0.01410 0.47635 1.21482
 H291 H 0.01475 0.47314 1.29312
 H292 H -0.02348 0.49471 1.15734
 H293 H 0.01169 0.48863 1.36455
 H294 H -0.12158 0.46550 1.17958
 C295 C -0.04045 0.49175 0.64577
 C296 C -0.00424 0.48846 0.66408
 C297 C -0.00716 0.48757 0.71267
 C298 C 0.02590 0.46809 0.72666
 C299 C 0.02498 0.46739 0.77215
 C300 C -0.00871 0.48711 0.80482
 C301 C -0.04203 0.50621 0.79076
 C302 C -0.04128 0.50661 0.74523
 C303 C -0.01019 0.48875 0.85350
 C304 C 0.02620 0.48255 0.87077
 H305 H 0.02749 0.48401 0.64161
 H306 H 0.05243 0.45302 0.70225
 H307 H 0.05061 0.45104 0.78122
 H308 H -0.06841 0.52160 0.81510
 H309 H -0.06687 0.52276 0.73578
 H310 H -0.04021 0.49873 0.87630
 H311 H -0.07296 0.49261 0.66719
 H312 H 0.05734 0.47681 0.84789
   
