data_POSCAR
  _audit_creation_date              2014-09-24
  _audit_creation_method            'ToBaCCo'
  _symmetry_space_group_name_H-M    'P1'
  _symmetry_Int_Tables_number       1
  _symmetry_cell_setting            triclinic
  loop_
  _symmetry_equiv_pos_as_xyz
 x,y,z
_cell_length_a 42.0588
_cell_length_b 42.0939
_cell_length_c 45.2991
_cell_angle_alpha 89.886700
_cell_angle_beta 90.075600
_cell_angle_gamma 120.133500
loop_
  _atom_site_label
  _atom_site_type_symbol
  _atom_site_fract_x
  _atom_site_fract_y
  _atom_site_fract_z
C1 C 0.03297 0.51567 1.31302
 C2 C -0.00049 0.49945 1.32815
 C3 C -0.03394 0.48283 1.31299
 C4 C -0.03431 0.48219 1.28176
 C5 C -0.00049 0.49863 1.26612
 C6 C 0.03333 0.51549 1.28179
 C7 C 0.06651 0.53165 1.26580
 C8 C 0.06649 0.53130 1.23508
 C9 C 0.03332 0.51474 1.21914
 C10 C -0.00049 0.49822 1.23477
 C11 C -0.06748 0.46561 1.26575
 C12 C -0.06747 0.46516 1.23503
 C13 C -0.03428 0.48131 1.21907
 C14 C -0.03386 0.48109 1.18784
 C15 C -0.00036 0.49750 1.17276
 C16 C 0.03301 0.51424 1.18797
 H17 H 0.09283 0.54477 1.27697
 H18 H 0.09279 0.54415 1.22389
 H19 H -0.09380 0.45279 1.27689
 H20 H -0.09378 0.45202 1.22383
 H21 H -0.00049 0.49975 1.35215
 H22 H -0.00019 0.49730 1.14877
 C23 C 0.48438 0.51743 1.31284
 C24 C 0.50054 0.50030 1.32810
 C25 C 0.51716 0.48348 1.31306
 C26 C 0.51781 0.48370 1.28182
 C27 C 0.50139 0.50100 1.26610
 C28 C 0.48457 0.51793 1.28166
 C29 C 0.46843 0.53486 1.26566
 C30 C 0.46876 0.53517 1.23492
 C31 C 0.48530 0.51861 1.21906
 C32 C 0.50180 0.50139 1.23476
 C33 C 0.53438 0.46716 1.26588
 C34 C 0.53481 0.46760 1.23514
 C35 C 0.51867 0.48455 1.21917
 C36 C 0.51891 0.48515 1.18799
 C37 C 0.50255 0.50213 1.17278
 C38 C 0.48581 0.51874 1.18787
 H39 H 0.45535 0.54803 1.27680
 H40 H 0.45593 0.54857 1.22367
 H41 H 0.54719 0.45372 1.27709
 H42 H 0.54792 0.45449 1.22398
 H43 H 0.50017 0.50010 1.35208
 H44 H 0.50281 0.50239 1.14881
 C45 C 0.51510 1.03394 1.18791
 C46 C 0.49812 1.00049 1.17282
 C47 C 0.48137 0.96710 1.18801
 C48 C 0.48134 0.96673 1.21920
 C49 C 0.49853 1.00049 1.23484
 C50 C 0.51553 1.03430 1.21915
 C51 C 0.53244 1.06741 1.23513
 C52 C 0.53268 1.06737 1.26586
 C53 C 0.51599 1.03420 1.28186
 C54 C 0.49872 1.00043 1.26621
 C55 C 0.46463 0.93357 1.23512
 C56 C 0.46474 0.93349 1.26586
 C57 C 0.48163 0.96660 1.28186
 C58 C 0.48196 0.96690 1.31310
 C59 C 0.49909 1.00031 1.32825
 C60 C 0.51604 1.03378 1.31311
 H61 H 0.54569 1.09373 1.22395
 H62 H 0.54611 1.09365 1.27702
 H63 H 0.45126 0.90732 1.22392
 H64 H 0.45145 0.90716 1.27701
 H65 H 0.49791 1.00036 1.14883
 H66 H 0.49923 1.00026 1.35225
 C67 C 0.96743 0.48416 0.68738
 C68 C 1.00079 0.50103 0.67215
 C69 C 1.03433 0.51830 0.68720
 C70 C 1.03482 0.51881 0.71844
 C71 C 1.00105 0.50177 0.73415
 C72 C 0.96719 0.48438 0.71856
 C73 C 0.93406 0.46771 0.73454
 C74 C 0.93413 0.46809 0.76528
 C75 C 0.96733 0.48513 0.78118
 C76 C 1.00112 0.50212 0.76551
 C77 C 1.06803 0.53584 0.73439
 C78 C 1.06810 0.53611 0.76512
 C79 C 1.03495 0.51942 0.78114
 C80 C 1.03460 0.51949 0.81239
 C81 C 1.00112 0.50270 0.82751
 C82 C 0.96770 0.48565 0.81236
 H83 H 0.90774 0.45420 0.72338
 H84 H 0.90785 0.45487 0.77650
 H85 H 1.09432 0.54911 0.72318
 H86 H 1.09444 0.54959 0.77627
 H87 H 1.00056 0.50069 0.64816
 H88 H 1.00099 0.50284 0.85150
 C89 C 0.51617 0.48274 0.68736
 C90 C 0.49933 0.49928 0.67220
 C91 C 0.48223 0.51551 0.68733
 C92 C 0.48183 0.51542 0.71852
 C93 C 0.49880 0.49864 0.73418
 C94 C 0.51604 0.48219 0.71855
 C95 C 0.53264 0.46566 0.73450
 C96 C 0.53232 0.46529 0.76525
 C97 C 0.51543 0.48147 0.78117
 C98 C 0.49854 0.49832 0.76551
 C99 C 0.46496 0.53161 0.73444
 C100 C 0.46477 0.53137 0.76519
 C101 C 0.48139 0.51487 0.78114
 C102 C 0.48138 0.51444 0.81233
 C103 C 0.49804 0.49772 0.82749
 C104 C 0.51496 0.48130 0.81236
 H105 H 0.54602 0.45283 0.72330
 H106 H 0.54548 0.45220 0.77646
 H107 H 0.45176 0.54466 0.72323
 H108 H 0.45142 0.54423 0.77638
 H109 H 0.49952 0.49952 0.64823
 H110 H 0.49787 0.49751 0.85146
 C111 C 0.48549 -0.03390 0.81296
 C112 C 0.50227 -0.00046 0.82806
 C113 C 0.51864 0.03292 0.81287
 C114 C 0.51840 0.03331 0.78169
 C115 C 0.50150 -0.00045 0.76607
 C116 C 0.48497 -0.03426 0.78172
 C117 C 0.46843 -0.06738 0.76572
 C118 C 0.46813 -0.06730 0.73498
 C119 C 0.48432 -0.03411 0.71908
 C120 C 0.50113 -0.00038 0.73473
 C121 C 0.53456 0.06648 0.76576
 C122 C 0.53413 0.06654 0.73502
 C123 C 0.51757 0.03342 0.71909
 C124 C 0.51697 0.03311 0.68792
 C125 C 0.50039 -0.00024 0.67276
 C126 C 0.48418 -0.03367 0.68790
 H127 H 0.45556 -0.09370 0.77688
 H128 H 0.45506 -0.09354 0.72376
 H129 H 0.54768 0.09274 0.77695
 H130 H 0.54694 0.09283 0.72382
 H131 H 0.50261 -0.00034 0.85204
 H132 H 0.50011 -0.00019 0.64879
 O133 O 0.38893 0.65856 0.97517
 O134 O 0.38748 0.71913 0.96597
 C135 C 0.37036 0.73614 0.96085
 O136 O 0.34206 0.73070 0.97507
 O137 O 0.28136 0.66857 0.96585
 C138 C 0.26429 0.63442 0.96072
 O139 O 0.26964 0.61151 0.97498
 O140 O 0.33181 0.61317 0.96589
 C141 C 0.36603 0.63031 0.96088
 O142 O 0.38732 0.66859 1.03379
 O143 O 0.38893 0.73070 1.02460
 C144 C 0.36602 0.73601 1.03883
 O145 O 0.33183 0.71891 1.03370
 O146 O 0.26964 0.65826 1.02448
 C147 C 0.26424 0.62996 1.03873
 O148 O 0.28125 0.61288 1.03363
 O149 O 0.34190 0.61151 1.02453
 C150 C 0.37017 0.63440 1.03884
 Cr151 Cr 0.38610 0.69321 0.99988
 Cr152 Cr 0.30726 0.69308 0.99978
 Cr153 Cr 0.30718 0.61433 0.99976
 O154 O 0.33351 0.66688 0.99980
 O155 O 0.61324 0.33135 0.96673
 O156 O 0.61171 0.26930 0.97601
 C157 C 0.63462 0.26398 0.96179
 O158 O 0.66882 0.28104 0.96691
 O159 O 0.73102 0.34170 0.97602
 C160 C 0.73641 0.36992 0.96167
 O161 O 0.71937 0.38700 0.96668
 O162 O 0.65875 0.38844 0.97577
 C163 C 0.63041 0.36551 0.96156
 O164 O 0.61181 0.34151 1.02534
 O165 O 0.61323 0.28094 1.03463
 C166 C 0.63033 0.26393 1.03978
 O167 O 0.65864 0.26937 1.02555
 O168 O 0.71931 0.33157 1.03466
 C169 C 0.73640 0.36574 1.03968
 O170 O 0.73107 0.38860 1.02533
 O171 O 0.66894 0.38702 1.03441
 C172 C 0.63476 0.36984 1.03953
 Cr173 Cr 0.61457 0.30681 1.00068
 Cr174 Cr 0.69341 0.30695 1.00078
 Cr175 Cr 0.69350 0.38570 1.00055
 O176 O 0.66716 0.33315 1.00067
 O177 O 0.66824 0.38705 0.53327
 O178 O 0.73037 0.38866 0.52411
 C179 C 0.73576 0.36577 0.53835
 O180 O 0.71870 0.33161 0.53323
 O181 O 0.65795 0.26950 0.52413
 C182 C 0.62969 0.26409 0.53839
 O183 O 0.61253 0.28105 0.53326
 O184 O 0.61111 0.34163 0.52408
 C185 C 0.63404 0.36988 0.53835
 O186 O 0.65810 0.38866 0.47463
 O187 O 0.71873 0.38726 0.46548
 C188 C 0.73569 0.37012 0.46036
 O189 O 0.73022 0.34179 0.47458
 O190 O 0.66799 0.28112 0.46547
 C191 C 0.63378 0.26406 0.46040
 O192 O 0.61094 0.26947 0.47463
 O193 O 0.61258 0.33160 0.46545
 C194 C 0.62977 0.36579 0.46038
 Cr195 Cr 0.69282 0.38583 0.49937
 Cr196 Cr 0.69268 0.30704 0.49935
 Cr197 Cr 0.61386 0.30697 0.49935
 O198 O 0.66646 0.33328 0.49935
 O199 O 0.33100 0.61294 0.53343
 O200 O 0.26885 0.61136 0.52429
 C201 C 0.26352 0.63424 0.53850
 O202 O 0.28057 0.66840 0.53332
 O203 O 0.34130 0.73052 0.52412
 C204 C 0.36958 0.73587 0.53839
 O205 O 0.38671 0.71890 0.53327
 O206 O 0.38811 0.65834 0.52414
 C207 C 0.36521 0.63007 0.53846
 O208 O 0.34103 0.61143 0.47480
 O209 O 0.28038 0.61285 0.46565
 C210 C 0.26339 0.62998 0.46051
 O211 O 0.26889 0.65829 0.47469
 O212 O 0.33110 0.71897 0.46549
 C213 C 0.36530 0.73606 0.46040
 O214 O 0.38818 0.73063 0.47464
 O215 O 0.38650 0.66850 0.46551
 C216 C 0.36932 0.63432 0.46051
 Cr217 Cr 0.30635 0.61421 0.49954
 Cr218 Cr 0.30650 0.69301 0.49940
 Cr219 Cr 0.38530 0.69306 0.49939
 O220 O 0.33271 0.66676 0.49944
 C221 C 0.43877 0.56410 0.36492
 C222 C 0.45537 0.60571 0.36098
 C223 C 0.44085 0.62056 0.37958
 C224 C 0.41118 0.59232 0.40026
 C225 C 0.42966 0.57368 0.41627
 C226 C 0.44415 0.55886 0.39771
 C227 C 0.39716 0.54783 0.36117
 C228 C 0.38264 0.56268 0.37977
 C229 C 0.45457 0.54793 0.34535
 C230 C 0.46793 0.53424 0.33011
 C231 C 0.39575 0.60804 0.42070
 C232 C 0.38347 0.62038 0.43841
 H233 H 0.47658 0.62203 0.34496
 H234 H 0.44962 0.64961 0.37950
 H235 H 0.43124 0.57223 0.44012
 H236 H 0.45812 0.54473 0.40567
 H237 H 0.38058 0.52660 0.34528
 H238 H 0.35362 0.55417 0.37981
 C239 C 0.43586 0.87613 0.36448
 C240 C 0.44149 0.88674 0.39725
 C241 C 0.42660 0.85738 0.41587
 C242 C 0.40749 0.82020 0.39997
 C243 C 0.43683 0.82116 0.37925
 C244 C 0.45175 0.85058 0.36058
 C245 C 0.39414 0.85125 0.36082
 C246 C 0.37921 0.82182 0.37950
 C247 C 0.45214 0.90819 0.34482
 C248 C 0.46593 0.93534 0.32953
 C249 C 0.39170 0.78897 0.42050
 C250 C 0.37930 0.76427 0.43826
 H251 H 0.45592 0.91489 0.40514
 H252 H 0.42829 0.86040 0.43972
 H253 H 0.44509 0.80052 0.37920
 H254 H 0.47279 0.85515 0.34453
 H255 H 0.37779 0.85626 0.34493
 H256 H 0.35008 0.80162 0.37961
 C257 C 0.12362 0.56046 0.36444
 C258 C 0.11288 0.55482 0.39718
 C259 C 0.14219 0.56931 0.41585
 C260 C 0.17946 0.58806 0.39999
 C261 C 0.17832 0.61662 0.37955
 C262 C 0.14894 0.60210 0.36084
 C263 C 0.14880 0.54412 0.36053
 C264 C 0.17818 0.55864 0.37924
 C265 C 0.09162 0.54465 0.34475
 C266 C 0.06450 0.53126 0.32945
 C267 C 0.21061 0.60350 0.42055
 C268 C 0.23526 0.61580 0.43835
 H269 H 0.08467 0.54066 0.40504
 H270 H 0.13908 0.56755 0.43969
 H271 H 0.19881 0.64565 0.37971
 H272 H 0.14426 0.61868 0.34497
 H273 H 0.14401 0.52308 0.34445
 H274 H 0.19857 0.55004 0.37920
 C275 C 0.56102 0.43685 0.36450
 C276 C 0.59665 0.43953 0.35310
 C277 C 0.61097 0.42445 0.37176
 C278 C 0.58821 0.40818 0.39996
 C279 C 0.54929 0.38072 0.38912
 C280 C 0.53499 0.39580 0.37047
 C281 C 0.57075 0.45480 0.39512
 C282 C 0.58503 0.43975 0.41373
 C283 C 0.54547 0.45330 0.34486
 C284 C 0.53236 0.46727 0.32955
 C285 C 0.60344 0.39225 0.42047
 C286 C 0.61564 0.37979 0.43823
 H287 H 0.60946 0.45210 0.33221
 H288 H 0.63605 0.42409 0.36687
 H289 H 0.53433 0.35196 0.39547
 H290 H 0.50777 0.37996 0.36085
 H291 H 0.56680 0.47740 0.40161
 H292 H 0.59330 0.44947 0.43617
 C293 C 0.56264 0.12434 0.36448
 C294 C 0.55771 0.11360 0.39725
 C295 C 0.57275 0.14288 0.41588
 C296 C 0.59130 0.18013 0.39998
 C297 C 0.56145 0.17899 0.37971
 C298 C 0.54638 0.14964 0.36104
 C299 C 0.60425 0.14950 0.36038
 C300 C 0.61933 0.17886 0.37906
 C301 C 0.54620 0.09236 0.34483
 C302 C 0.53225 0.06527 0.32954
 C303 C 0.60725 0.21128 0.42051
 C304 C 0.61973 0.23592 0.43827
 H305 H 0.54362 0.08542 0.40514
 H306 H 0.57153 0.13977 0.43972
 H307 H 0.55297 0.19946 0.37996
 H308 H 0.52499 0.14497 0.34528
 H309 H 0.62042 0.14473 0.34420
 H310 H 0.64842 0.19923 0.37888
 C311 C 0.87540 0.43890 0.36433
 C312 C 0.84975 0.39733 0.36079
 C313 C 0.82037 0.38304 0.37947
 C314 C 0.81957 0.41174 0.39984
 C315 C 0.82118 0.44134 0.37902
 C316 C 0.85056 0.45564 0.36033
 C317 C 0.88614 0.44441 0.39708
 C318 C 0.85683 0.43015 0.41573
 C319 C 0.90740 0.45444 0.34467
 C320 C 0.93453 0.46757 0.32939
 C321 C 0.78842 0.39651 0.42039
 C322 C 0.76379 0.38430 0.43818
 H323 H 0.85421 0.38063 0.34496
 H324 H 0.79967 0.35408 0.37966
 H325 H 0.80100 0.45023 0.37892
 H326 H 0.85556 0.47677 0.34421
 H327 H 0.91434 0.45832 0.40495
 H328 H 0.85994 0.43185 0.43957
 C329 C 0.56518 0.43939 1.13562
 C330 C 0.54922 0.39789 1.13966
 C331 C 0.56390 0.38334 1.12094
 C332 C 0.59309 0.41174 1.10004
 C333 C 0.62160 0.44172 1.12032
 C334 C 0.60691 0.45627 1.13905
 C335 C 0.55928 0.44433 1.10289
 C336 C 0.57393 0.42981 1.08420
 C337 C 0.54917 0.45523 1.15533
 C338 C 0.53560 0.46864 1.17066
 C339 C 0.60864 0.39629 1.07946
 C340 C 0.62088 0.38399 1.06168
 H341 H 0.52830 0.38142 1.15584
 H342 H 0.55557 0.35440 1.12106
 H343 H 0.65072 0.45067 1.12005
 H344 H 0.62344 0.47769 1.15483
 H345 H 0.54483 0.45805 1.09505
 H346 H 0.57204 0.43110 1.06036
 C347 C 0.87570 0.43559 1.13619
 C348 C 0.88663 0.44104 1.10349
 C349 C 0.85742 0.42635 1.08471
 C350 C 0.82007 0.40760 1.10043
 C351 C 0.82113 0.43711 1.12096
 C352 C 0.85040 0.45183 1.13977
 C353 C 0.85046 0.39396 1.13994
 C354 C 0.82119 0.37923 1.12112
 C355 C 0.90759 0.45164 1.15598
 C356 C 0.93465 0.46526 1.17135
 C357 C 0.78903 0.39200 1.07977
 C358 C 0.76446 0.37971 1.06190
 H359 H 0.91487 0.45522 1.09573
 H360 H 0.86066 0.42795 1.06088
 H361 H 0.80066 0.44562 1.12077
 H362 H 0.85502 0.47296 1.15572
 H363 H 0.85513 0.37754 1.15598
 H364 H 0.80077 0.35018 1.12103
 C365 C 0.56035 0.12445 1.13626
 C366 C 0.54378 0.14947 1.13977
 C367 C 0.55843 0.17877 1.12096
 C368 C 0.58819 0.18014 1.10052
 C369 C 0.56974 0.14284 1.08478
 C370 C 0.55513 0.11362 1.10354
 C371 C 0.60195 0.14992 1.14009
 C372 C 0.61660 0.17921 1.12128
 C373 C 0.54439 0.09252 1.15605
 C374 C 0.53086 0.06545 1.17142
 C375 C 0.60374 0.21122 1.07985
 C376 C 0.61611 0.23582 1.06200
 H377 H 0.52251 0.14466 1.15565
 H378 H 0.54969 0.19905 1.12073
 H379 H 0.56828 0.13966 1.06095
 H380 H 0.54116 0.08541 1.09578
 H381 H 0.61843 0.14539 1.15618
 H382 H 0.64562 0.19978 1.12126
 C383 C 0.44004 0.56501 1.13524
 C384 C 0.44509 0.55925 1.10253
 C385 C 0.43048 0.57383 1.08377
 C386 C 0.41221 0.59278 1.09952
 C387 C 0.44211 0.62129 1.11987
 C388 C 0.45675 0.60668 1.13867
 C389 C 0.39847 0.54887 1.13916
 C390 C 0.38383 0.56348 1.12036
 C391 C 0.45596 0.54907 1.15503
 C392 C 0.46938 0.53550 1.17043
 C393 C 0.39666 0.60826 1.07888
 C394 C 0.38431 0.62048 1.06104
 H395 H 0.45895 0.54496 1.09476
 H396 H 0.43183 0.57203 1.05994
 H397 H 0.45093 0.65036 1.11959
 H398 H 0.47812 0.62321 1.15450
 H399 H 0.38202 0.52790 1.15530
 H400 H 0.35482 0.55503 1.12039
 C401 C 0.12516 0.56003 1.13538
 C402 C 0.15017 0.54342 1.13883
 C403 C 0.17939 0.55805 1.11997
 C404 C 0.18068 0.58783 1.09954
 C405 C 0.17992 0.61621 1.12032
 C406 C 0.15070 0.60159 1.13918
 C407 C 0.11414 0.55487 1.10268
 C408 C 0.14328 0.56947 1.08387
 C409 C 0.09333 0.54413 1.15522
 C410 C 0.06631 0.53070 1.17061
 C411 C 0.21166 0.60337 1.07883
 C412 C 0.23619 0.61574 1.06095
 H413 H 0.14541 0.52213 1.15471
 H414 H 0.19966 0.54928 1.11969
 H415 H 0.20053 0.64521 1.12027
 H416 H 0.14628 0.61804 1.15529
 H417 H 0.08587 0.54095 1.09497
 H418 H 0.13997 0.56804 1.06005
 C419 C 0.43520 0.87504 1.13539
 C420 C 0.39358 0.84953 1.13910
 C421 C 0.37903 0.82034 1.12026
 C422 C 0.40753 0.81956 1.09958
 C423 C 0.43722 0.82083 1.12013
 C424 C 0.45178 0.85002 1.13896
 C425 C 0.44054 0.88606 1.10269
 C426 C 0.42601 0.85694 1.08389
 C427 C 0.45109 0.90686 1.15523
 C428 C 0.46462 0.93384 1.17063
 C429 C 0.39210 0.78858 1.07889
 C430 C 0.37992 0.76406 1.06103
 H431 H 0.37704 0.85396 1.15513
 H432 H 0.35001 0.79976 1.12015
 H433 H 0.44598 0.80057 1.11994
 H434 H 0.47300 0.85476 1.15492
 H435 H 0.45452 0.91431 1.09495
 H436 H 0.42756 0.86026 1.06007
 C437 C 0.56346 0.43814 0.63479
 C438 C 0.56300 0.40381 0.64690
 C439 C 0.57797 0.38960 0.62809
 C440 C 0.59191 0.41114 0.59907
 C441 C 0.61884 0.45085 0.60843
 C442 C 0.60388 0.46504 0.62722
 C443 C 0.54377 0.42636 0.60489
 C444 C 0.55870 0.41218 0.58614
 C445 C 0.54713 0.45359 0.65458
 C446 C 0.53326 0.46665 0.66997
 C447 C 0.60773 0.39602 0.57841
 C448 C 0.62010 0.38392 0.56056
 H449 H 0.55196 0.39178 0.66834
 H450 H 0.57975 0.36538 0.63342
 H451 H 0.64717 0.46641 0.60102
 H452 H 0.61941 0.49276 0.63590
 H453 H 0.52012 0.42890 0.59897
 H454 H 0.54783 0.40259 0.56415
 C455 C 0.56152 0.12519 0.63525
 C456 C 0.54473 0.14998 0.63900
 C457 C 0.55890 0.17918 0.62011
 C458 C 0.58845 0.18067 0.59935
 C459 C 0.57001 0.14332 0.58372
 C460 C 0.55587 0.11419 0.60257
 C461 C 0.60314 0.15090 0.63869
 C462 C 0.61731 0.18009 0.61980
 C463 C 0.54610 0.09338 0.65511
 C464 C 0.53305 0.06638 0.67053
 C465 C 0.60354 0.21163 0.57861
 C466 C 0.61564 0.23611 0.56068
 H467 H 0.52364 0.14508 0.65511
 H468 H 0.54996 0.19930 0.62002
 H469 H 0.56820 0.14002 0.55990
 H470 H 0.54195 0.08595 0.59488
 H471 H 0.61996 0.14660 0.65459
 H472 H 0.64628 0.20082 0.61951
 C473 C 0.87511 0.43657 0.63488
 C474 C 0.88604 0.44157 0.60217
 C475 C 0.85683 0.42657 0.58340
 C476 C 0.81947 0.40799 0.59911
 C477 C 0.82049 0.43777 0.61928
 C478 C 0.84976 0.45280 0.63810
 C479 C 0.84992 0.39498 0.63897
 C480 C 0.82065 0.37995 0.62015
 C481 C 0.90702 0.45298 0.65468
 C482 C 0.93408 0.46694 0.67005
 C483 C 0.78842 0.39211 0.57844
 C484 C 0.76384 0.37971 0.56058
 H485 H 0.91428 0.45568 0.59442
 H486 H 0.86008 0.42784 0.55957
 H487 H 0.80000 0.44623 0.61887
 H488 H 0.85434 0.47414 0.65381
 H489 H 0.85462 0.37881 0.65524
 H490 H 0.80026 0.35088 0.62029
 C491 C 0.43548 0.56091 0.63477
 C492 C 0.43993 0.55461 0.60206
 C493 C 0.42511 0.56901 0.58333
 C494 C 0.40725 0.58834 0.59909
 C495 C 0.43756 0.61708 0.61904
 C496 C 0.45241 0.60265 0.63781
 C497 C 0.39400 0.54501 0.63911
 C498 C 0.37915 0.55944 0.62033
 C499 C 0.45167 0.54520 0.65454
 C500 C 0.46538 0.53190 0.66993
 C501 C 0.39153 0.60369 0.57847
 C502 C 0.37918 0.61594 0.56065
 H503 H 0.45354 0.54008 0.59427
 H504 H 0.42604 0.56681 0.55950
 H505 H 0.44651 0.64617 0.61851
 H506 H 0.47407 0.61937 0.65337
 H507 H 0.37776 0.52432 0.65551
 H508 H 0.35018 0.55111 0.62064
 C509 C 0.43871 0.87447 0.63519
 C510 C 0.39711 0.84886 0.63883
 C511 C 0.38268 0.81974 0.61994
 C512 C 0.41129 0.81912 0.59929
 C513 C 0.44098 0.82043 0.61985
 C514 C 0.45541 0.84956 0.63874
 C515 C 0.44410 0.88560 0.60251
 C516 C 0.42970 0.85654 0.58366
 C517 C 0.45442 0.90621 0.65506
 C518 C 0.46775 0.93314 0.67049
 C519 C 0.39595 0.78824 0.57855
 C520 C 0.38371 0.76381 0.56064
 H521 H 0.38049 0.85318 0.65487
 H522 H 0.35368 0.79909 0.61978
 H523 H 0.44982 0.80023 0.61963
 H524 H 0.47662 0.85433 0.65472
 H525 H 0.45802 0.91387 0.59483
 H526 H 0.43130 0.85992 0.55984
 C527 C 0.12460 0.56417 0.63536
 C528 C 0.14978 0.54774 0.63867
 C529 C 0.17896 0.56255 0.61977
 C530 C 0.18006 0.59233 0.59945
 C531 C 0.17917 0.62056 0.62033
 C532 C 0.14999 0.60574 0.63923
 C533 C 0.11351 0.55908 0.60268
 C534 C 0.14262 0.57386 0.58383
 C535 C 0.09279 0.54801 0.65524
 C536 C 0.06578 0.53428 0.67067
 C537 C 0.21101 0.60800 0.57869
 C538 C 0.23551 0.62031 0.56077
 H539 H 0.14515 0.52643 0.65449
 H540 H 0.19933 0.55393 0.61940
 H541 H 0.19968 0.64958 0.62033
 H542 H 0.14550 0.62207 0.65542
 H543 H 0.08523 0.54507 0.59501
 H544 H 0.13926 0.57251 0.56001
 C545 C 0.43529 0.56035 0.86479
 C546 C 0.45204 0.60202 0.86123
 C547 C 0.43748 0.61669 0.87996
 C548 C 0.40761 0.58823 0.90039
 C549 C 0.42587 0.56926 0.91622
 C550 C 0.44040 0.55462 0.89753
 C551 C 0.39372 0.54426 0.86089
 C552 C 0.37915 0.55893 0.87963
 C553 C 0.45118 0.54439 0.84506
 C554 C 0.46468 0.53093 0.82970
 C555 C 0.39216 0.60381 0.92097
 C556 C 0.37996 0.61617 0.93875
 H557 H 0.47338 0.61852 0.84536
 H558 H 0.44634 0.64576 0.88014
 H559 H 0.42727 0.56747 0.94006
 H560 H 0.45424 0.54030 0.90536
 H561 H 0.37721 0.52327 0.84481
 H562 H 0.35016 0.55051 0.87960
 C563 C 0.12508 0.56505 0.86405
 C564 C 0.11410 0.55941 0.89675
 C565 C 0.14328 0.57400 0.91556
 C566 C 0.18066 0.59286 0.89988
 C567 C 0.17955 0.62134 0.87932
 C568 C 0.15030 0.60670 0.86046
 C569 C 0.15040 0.54885 0.86037
 C570 C 0.17964 0.56348 0.87923
 C571 C 0.09319 0.54907 0.84422
 C572 C 0.06612 0.53543 0.82885
 C573 C 0.21168 0.60835 0.92059
 C574 C 0.23623 0.62055 0.93848
 H575 H 0.08584 0.54517 0.90447
 H576 H 0.14000 0.57226 0.93938
 H577 H 0.19996 0.65039 0.87950
 H578 H 0.14565 0.62322 0.84449
 H579 H 0.14582 0.52783 0.84435
 H580 H 0.20012 0.55498 0.87935
 C581 C 0.44047 0.87559 0.86450
 C582 C 0.44586 0.88640 0.89722
 C583 C 0.43121 0.85716 0.91595
 C584 C 0.41257 0.81989 0.90018
 C585 C 0.44218 0.82112 0.87964
 C586 C 0.45686 0.85044 0.86085
 C587 C 0.39883 0.85028 0.86075
 C588 C 0.38415 0.82097 0.87953
 C589 C 0.45643 0.90752 0.84475
 C590 C 0.46990 0.93460 0.82941
 C591 C 0.39698 0.78882 0.92081
 C592 C 0.38458 0.76423 0.93865
 H593 H 0.45997 0.91460 0.90500
 H594 H 0.43278 0.86032 0.93979
 H595 H 0.45079 0.80075 0.87978
 H596 H 0.47805 0.85518 0.84490
 H597 H 0.38237 0.85492 0.84473
 H598 H 0.35510 0.80050 0.87960
 C599 C 0.56078 0.43505 0.86500
 C600 C 0.55568 0.44079 0.89771
 C601 C 0.57020 0.42615 0.91649
 C602 C 0.58844 0.40715 0.90078
 C603 C 0.61690 0.43644 0.87997
 C604 C 0.60235 0.45112 0.86115
 C605 C 0.54401 0.39337 0.86155
 C606 C 0.55856 0.37869 0.88038
 C607 C 0.54493 0.45105 0.84518
 C608 C 0.53150 0.46462 0.82977
 C609 C 0.60391 0.39160 0.92146
 C610 C 0.61623 0.37937 0.93933
 H611 H 0.54185 0.45512 0.90545
 H612 H 0.56880 0.42794 0.94032
 H613 H 0.64589 0.44485 0.87998
 H614 H 0.61886 0.47209 0.84502
 H615 H 0.52267 0.37688 0.84569
 H616 H 0.54968 0.34962 0.88066
 C617 C 0.87557 0.43962 0.86503
 C618 C 0.85016 0.39802 0.86141
 C619 C 0.82094 0.38342 0.88026
 C620 C 0.82003 0.41189 0.90087
 C621 C 0.82120 0.44146 0.88026
 C622 C 0.85043 0.45605 0.86140
 C623 C 0.88659 0.44504 0.89773
 C624 C 0.85744 0.43049 0.91654
 C625 C 0.90742 0.45552 0.84518
 C626 C 0.93442 0.46901 0.82976
 C627 C 0.78903 0.39639 0.92158
 C628 C 0.76448 0.38407 0.93945
 H629 H 0.85466 0.38151 0.84541
 H630 H 0.80041 0.35441 0.88043
 H631 H 0.80085 0.45012 0.88042
 H632 H 0.85511 0.47721 0.84540
 H633 H 0.91486 0.45911 0.90544
 H634 H 0.86074 0.43209 0.94036
 C635 C 0.56495 0.12497 0.86537
 C636 C 0.55934 0.11399 0.89808
 C637 C 0.57400 0.14314 0.91684
 C638 C 0.59288 0.18048 0.90110
 C639 C 0.56346 0.17951 0.88041
 C640 C 0.54876 0.15030 0.86161
 C641 C 0.60663 0.15014 0.86179
 C642 C 0.62133 0.17935 0.88060
 C643 C 0.54893 0.09315 0.84559
 C644 C 0.53535 0.06616 0.83022
 C645 C 0.60844 0.21146 0.92176
 C646 C 0.62070 0.23597 0.93960
 H647 H 0.54508 0.08575 0.90584
 H648 H 0.57229 0.13986 0.94067
 H649 H 0.55498 0.19999 0.88048
 H650 H 0.52770 0.14574 0.84556
 H651 H 0.62312 0.14547 0.84586
 H652 H 0.65042 0.19973 0.88079
   
