data_POSCAR
  _audit_creation_date              2014-09-24
  _audit_creation_method            'ToBaCCo'
  _symmetry_space_group_name_H-M    'P1'
  _symmetry_Int_Tables_number       1
  _symmetry_cell_setting            triclinic
  loop_
  _symmetry_equiv_pos_as_xyz
 x,y,z
_cell_length_a 28.0380
_cell_length_b 28.4993
_cell_length_c 26.9519
_cell_angle_alpha 91.162100
_cell_angle_beta 90.303600
_cell_angle_gamma 93.650300
loop_
  _atom_site_label
  _atom_site_type_symbol
  _atom_site_fract_x
  _atom_site_fract_y
  _atom_site_fract_z
C1 C 0.28415 0.43697 0.98432
 C2 C 0.24858 0.42880 1.02675
 C3 C 0.22201 0.46599 1.03715
 C4 C 0.23282 0.50815 1.00299
 C5 C 0.25314 0.45016 0.94031
 C6 C 0.22602 0.48744 0.95002
 C7 C 0.31348 0.48236 0.99854
 C8 C 0.28690 0.51980 1.00816
 H9 H 0.24397 0.39584 1.04602
 H10 H 0.21113 0.53875 1.01032
 H11 H 0.25049 0.42938 0.90627
 H12 H 0.35214 0.48523 0.99671
 C13 C 0.72165 0.56599 -0.01243
 C14 C 0.75574 0.56952 0.03238
 C15 C 0.78151 0.53110 0.03812
 C16 C 0.77149 0.49267 -0.00243
 C17 C 0.75394 0.55666 -0.05669
 C18 C 0.78064 0.51858 -0.05129
 C19 C 0.69146 0.52006 -0.00634
 C20 C 0.71724 0.48158 -0.00110
 H21 H 0.76059 0.60057 0.05618
 H22 H 0.79258 0.46124 0.00114
 H23 H 0.75572 0.57884 -0.08883
 H24 H 0.65283 0.51811 -0.00921
 C25 C 0.06569 0.22052 0.50097
 C26 C 0.06748 0.24815 0.45640
 C27 C 0.02665 0.27440 0.44835
 C28 C -0.00957 0.26757 0.48701
 C29 C 0.05668 0.25557 0.54334
 C30 C 0.01705 0.28033 0.53612
 C31 C 0.01914 0.18950 0.49608
 C32 C -0.02052 0.21396 0.48921
 H33 H 0.09785 0.24976 0.43159
 H34 H -0.04227 0.28686 0.48217
 H35 H 0.08118 0.26187 0.57426
 H36 H 0.01756 0.15180 0.50078
 C37 C 0.92943 0.78019 0.49401
 C38 C 0.92833 0.74854 0.44736
 C39 C 0.96781 0.72360 0.44163
 C40 C 1.00529 0.73289 0.48350
 C41 C 0.93789 0.74706 0.53687
 C42 C 0.97760 0.72203 0.53136
 C43 C 0.97580 0.81090 0.49068
 C44 C 1.01562 0.78646 0.48519
 H45 H 0.89813 0.74486 0.42204
 H46 H 1.03817 0.71351 0.47947
 H47 H 0.91483 0.74476 0.56890
 H48 H 0.97695 0.84871 0.49619
 C49 C 0.48066 0.05045 0.22093
 C50 C 0.43554 0.04205 0.25206
 C51 C 0.43540 0.00266 0.27985
 C52 C 0.48000 -0.02530 0.27294
 C53 C 0.52176 0.05082 0.25888
 C54 C 0.52178 0.01069 0.28593
 C55 C 0.48421 0.00785 0.19140
 C56 C 0.48406 -0.03399 0.21982
 H57 H 0.40740 0.06637 0.25367
 H58 H 0.47962 -0.05757 0.29552
 H59 H 0.54666 0.08097 0.26499
 H60 H 0.48434 0.00785 0.15121
 C61 C 0.51044 -0.05415 0.78707
 C62 C 0.46526 -0.05448 0.75485
 C63 C 0.46206 -0.01511 0.72750
 C64 C 0.50472 0.02105 0.73471
 C65 C 0.55162 -0.04596 0.75052
 C66 C 0.54898 -0.00639 0.72308
 C67 C 0.51060 -0.00860 0.81818
 C68 C 0.50772 0.03087 0.79086
 H69 H 0.43787 -0.08297 0.75514
 H70 H 0.50224 0.05320 0.71242
 H71 H 0.57865 -0.07101 0.74534
 H72 H 0.51152 -0.00811 0.85837
 C73 C 0.31699 0.03801 0.46609
 H74 H 0.31841 0.06135 0.49829
 C75 C 0.34875 0.04606 0.42722
 H76 H 0.37468 0.07590 0.42941
 C77 C 0.28133 -0.02941 0.42407
 H78 H 0.25518 -0.05895 0.42330
 C79 C 0.31312 -0.02318 0.38471
 H80 H 0.31048 -0.04747 0.35326
 N81 N 0.28353 0.00139 0.46337
 C82 C 0.17943 0.05121 0.56807
 H83 H 0.17789 0.02327 0.59470
 C84 C 0.14900 0.08802 0.57291
 H85 H 0.12426 0.08831 0.60364
 C86 C 0.21105 0.08285 0.49371
 H87 H 0.23346 0.07962 0.46154
 C88 C 0.18124 0.12007 0.49696
 H89 H 0.18204 0.14451 0.46686
 Zn90 Zn 0.24230 -0.00609 0.51780
 N91 N 0.20936 0.04910 0.52867
 C92 C 0.29120 0.01414 0.60866
 N93 N 0.28145 -0.01880 0.57217
 C94 C 0.30502 -0.05898 0.56952
 C95 C 0.34014 -0.06732 0.60447
 C96 C 0.32673 0.00758 0.64394
 C97 C 0.16588 -0.04634 0.46519
 C98 C 0.12713 -0.07753 0.45332
 C99 C 0.14962 -0.12641 0.52075
 C100 C 0.18806 -0.09398 0.53153
 N101 N 0.19519 -0.05479 0.50385
 H102 H 0.27294 0.04641 0.60920
 H103 H 0.29757 -0.08386 0.53919
 H104 H 0.35907 -0.09922 0.60151
 H105 H 0.33439 0.03430 0.67249
 H106 H 0.17209 -0.01455 0.44428
 H107 H 0.10342 -0.06948 0.42322
 H108 H 0.14334 -0.15632 0.54446
 H109 H 0.21103 -0.09936 0.56294
 C110 C 0.14900 0.12272 0.53668
 C111 C 0.34716 0.01514 0.38614
 C112 C 0.11831 -0.11792 0.48140
 C113 C 0.35223 -0.03327 0.64137
 C114 C 0.68773 0.04085 0.56459
 H115 H 0.68639 0.07030 0.54003
 C116 C 0.65792 0.03798 0.60617
 H117 H 0.63461 0.06601 0.61391
 C118 C 0.71876 -0.03214 0.58341
 H119 H 0.74079 -0.06051 0.57372
 C120 C 0.69039 -0.03598 0.62556
 H121 H 0.69184 -0.06688 0.64816
 N122 N 0.71701 0.00577 0.55374
 C123 C 0.82683 0.05102 0.44769
 H124 H 0.81979 0.02209 0.42152
 C125 C 0.86633 0.08227 0.44114
 H126 H 0.88977 0.07706 0.40995
 C127 C 0.80592 0.09127 0.52148
 H128 H 0.78282 0.09376 0.55329
 C129 C 0.84505 0.12397 0.51596
 H130 H 0.85211 0.15119 0.54411
 Zn131 Zn 0.75023 0.00581 0.49243
 N132 N 0.79796 0.05551 0.48762
 C133 C 0.70847 0.04765 0.41020
 N134 N 0.70472 0.01065 0.44128
 C135 C 0.66754 -0.02227 0.43765
 C136 C 0.63241 -0.01904 0.40113
 C137 C 0.67424 0.05228 0.37326
 C138 C 0.81770 -0.05717 0.51814
 C139 C 0.84518 -0.09608 0.51359
 C140 C 0.80172 -0.11911 0.43842
 C141 C 0.77422 -0.08023 0.44505
 N142 N 0.78258 -0.05029 0.48457
 H143 H 0.73772 0.07400 0.41428
 H144 H 0.66527 -0.05112 0.46319
 H145 H 0.60388 -0.04630 0.39875
 H146 H 0.67783 0.08208 0.34893
 H147 H 0.82469 -0.03194 0.54825
 H148 H 0.87359 -0.10030 0.54017
 H149 H 0.79562 -0.14212 0.40622
 H150 H 0.74730 -0.07328 0.41781
 C151 C 0.87616 0.11903 0.47560
 C152 C 0.65863 -0.00138 0.63678
 C153 C 0.83732 -0.12756 0.47323
 C154 C 0.63540 0.01896 0.36844
 C155 C 0.47589 0.18023 1.05809
 H156 H 0.44784 0.17764 1.03026
 C157 C 0.47648 0.14718 1.09537
 H158 H 0.44874 0.11898 1.09580
 C159 C 0.54802 0.21845 1.08879
 H160 H 0.57646 0.24555 1.08512
 C161 C 0.55042 0.18557 1.12633
 H162 H 0.58041 0.18786 1.15196
 N163 N 0.51106 0.21515 1.05572
 C164 C 0.44208 0.31150 0.95863
 H165 H 0.46590 0.31247 0.92717
 C166 C 0.40366 0.34056 0.96012
 H167 H 0.39841 0.36371 0.92953
 C168 C 0.42321 0.28353 1.03880
 H169 H 0.43206 0.26297 1.07037
 C170 C 0.38487 0.31227 1.04204
 H171 H 0.36408 0.31278 1.07580
 Zn172 Zn 0.50976 0.25400 1.00018
 N173 N 0.45132 0.28403 0.99781
 C174 C 0.48342 0.20238 0.91080
 N175 N 0.51827 0.21337 0.94520
 C176 C 0.55818 0.18885 0.94753
 C177 C 0.56336 0.15021 0.91601
 C178 C 0.48731 0.16393 0.87816
 C179 C 0.55379 0.33275 1.04462
 C180 C 0.58542 0.37208 1.05079
 C181 C 0.62813 0.34706 0.97822
 C182 C 0.59528 0.30813 0.97321
 N183 N 0.55886 0.30206 1.00608
 H184 H 0.45124 0.22134 0.91076
 H185 H 0.58468 0.19759 0.97612
 H186 H 0.59439 0.12978 0.92006
 H187 H 0.45796 0.15407 0.85307
 H188 H 0.52423 0.32716 1.06991
 H189 H 0.57992 0.39691 1.08088
 H190 H 0.65568 0.35242 0.95059
 H191 H 0.59803 0.28372 0.94230
 C192 C 0.37505 0.34172 1.00279
 C193 C 0.51416 0.14969 1.13006
 C194 C 0.62287 0.37990 1.01721
 C195 C 0.52725 0.13659 0.88160
 C196 C 0.44849 0.80734 -0.04657
 H197 H 0.42275 0.80510 -0.01681
 C198 C 0.44475 0.84098 -0.08300
 H199 H 0.41541 0.86392 -0.08154
 C200 C 0.51987 0.78240 -0.08232
 H201 H 0.55011 0.76081 -0.08082
 C202 C 0.51747 0.81559 -0.11961
 H203 H 0.54516 0.81739 -0.14735
 N204 N 0.48605 0.77948 -0.04631
 C205 C 0.44889 0.67133 0.06202
 H206 H 0.47909 0.67733 0.08700
 C207 C 0.41716 0.63210 0.06783
 H208 H 0.42305 0.60806 0.09756
 C209 C 0.40685 0.69332 -0.00948
 H210 H 0.40415 0.71615 -0.04075
 C211 C 0.37389 0.65471 -0.00471
 H212 H 0.34632 0.64836 -0.03271
 Zn213 Zn 0.49484 0.74577 0.01248
 N214 N 0.44384 0.70043 0.02327
 C215 C 0.47273 0.79254 0.10480
 N216 N 0.49995 0.79223 0.06319
 C217 C 0.53084 0.82911 0.05222
 C218 C 0.53383 0.86936 0.08226
 C219 C 0.47552 0.83193 0.13695
 C220 C 0.55709 0.68076 -0.02616
 C221 C 0.59637 0.65297 -0.02573
 C222 C 0.62321 0.69237 0.05059
 C223 C 0.58400 0.72006 0.04816
 N224 N 0.55170 0.71354 0.01040
 H225 H 0.44786 0.76300 0.11229
 H226 H 0.55188 0.82789 0.01874
 H227 H 0.55759 0.89888 0.07158
 H228 H 0.45233 0.83198 0.16888
 H229 H 0.53013 0.67537 -0.05494
 H230 H 0.59920 0.62599 -0.05422
 H231 H 0.64776 0.69678 0.08175
 H232 H 0.57837 0.74538 0.07758
 C233 C 0.37956 0.62293 0.03381
 C234 C 0.48028 0.84656 -0.11921
 C235 C 0.62969 0.65837 0.01342
 C236 C 0.50567 0.87158 0.12499
 C237 C 1.05842 0.45621 0.17203
 H238 H 1.03178 0.42703 0.17208
 C239 C 1.09491 0.45718 0.13690
 H240 H 1.09566 0.42848 0.11010
 C241 C 1.08686 0.53063 0.20468
 H242 H 1.08271 0.55986 0.23011
 C243 C 1.12382 0.53316 0.16996
 H244 H 1.14841 0.56405 0.16961
 N245 N 1.05508 0.49250 0.20511
 C246 C 0.95848 0.43459 0.31940
 H247 H 0.93113 0.45965 0.31784
 C248 C 0.95582 0.39953 0.35498
 H249 H 0.92589 0.39789 0.38030
 C250 C 1.03134 0.40806 0.28923
 H251 H 1.06129 0.41219 0.26428
 C252 C 1.03022 0.37247 0.32424
 H253 H 1.05948 0.34971 0.32382
 Zn254 Zn 0.99999 0.49128 0.24589
 N255 N 0.99598 0.43842 0.28766
 C256 C 0.91345 0.45378 0.19917
 N257 N 0.94707 0.49036 0.20199
 C258 C 0.94625 0.52690 0.17043
 C259 C 0.91003 0.52827 0.13496
 C260 C 0.87668 0.45353 0.16382
 C261 C 1.03744 0.55106 0.32221
 C262 C 1.03776 0.58750 0.35770
 C263 C 0.96302 0.61044 0.32382
 C264 C 0.96424 0.57368 0.28888
 N265 N 1.00110 0.54492 0.28863
 H266 H 0.91556 0.42441 0.22365
 H267 H 0.97421 0.55485 0.17261
 H268 H 0.91079 0.55734 0.10971
 H269 H 0.85024 0.42413 0.16171
 H270 H 1.06575 0.52698 0.32196
 H271 H 1.06676 0.59150 0.38448
 H272 H 0.93220 0.63132 0.32391
 H273 H 0.93477 0.56720 0.26316
 C274 C 0.99236 0.36816 0.35872
 C275 C 1.12831 0.49613 0.13554
 C276 C 1.00024 0.61780 0.35901
 C277 C 0.87437 0.49137 0.13158
 C278 C -0.07309 0.47346 0.80061
 H279 H -0.06775 0.43886 0.78536
 C280 C -0.11127 0.47990 0.83293
 H281 H -0.13500 0.44993 0.84203
 C282 C -0.05046 0.55497 0.80504
 H283 H -0.02738 0.58437 0.79304
 C284 C -0.08809 0.56299 0.83684
 H285 H -0.09319 0.59856 0.84977
 N286 N -0.04344 0.51085 0.78767
 C287 C -0.00198 0.45230 0.65303
 H288 H -0.00548 0.48558 0.63542
 C289 C 0.00123 0.41196 0.62343
 H290 H 0.00028 0.41538 0.58355
 C291 C 0.00821 0.40881 0.72588
 H292 H 0.01247 0.40822 0.76577
 C293 C 0.01193 0.36752 0.69755
 H294 H 0.01843 0.33508 0.71596
 Zn295 Zn 0.00651 0.50766 0.74078
 N296 N 0.00201 0.45027 0.70326
 C297 C 0.10121 0.48458 0.75922
 N298 N 0.06660 0.51284 0.77455
 C299 C 0.07230 0.53950 0.81689
 C300 C 0.11250 0.53602 0.84723
 C301 C 0.14189 0.47998 0.78843
 C302 C -0.04682 0.56037 0.68019
 C303 C -0.05817 0.59591 0.64843
 C304 C 0.02457 0.62549 0.65111
 C305 C 0.03430 0.58944 0.68362
 N306 N -0.00134 0.55772 0.69712
 H307 H 0.09643 0.46402 0.72522
 H308 H 0.04484 0.56210 0.82848
 H309 H 0.11542 0.55720 0.88093
 H310 H 0.16804 0.45581 0.77647
 H311 H -0.07444 0.53469 0.69166
 H312 H -0.09470 0.59746 0.63556
 H313 H 0.05310 0.65082 0.64110
 H314 H 0.07010 0.58674 0.69798
 C315 C 0.00878 0.36883 0.64562
 C316 C -0.11902 0.52535 0.85135
 C317 C -0.02235 0.62878 0.63310
 C318 C 0.14713 0.50444 0.83403
 C319 C 0.10977 0.19332 0.50745
 C320 C 0.11121 0.15702 0.53820
 H321 H 0.14054 0.20331 0.48514
 H322 H 0.08135 0.14987 0.56289
 C323 C 0.69089 0.60697 -0.01892
 C324 C 0.66786 0.62554 0.01943
 H325 H 0.68279 0.61734 -0.05633
 H326 H 0.67611 0.61527 0.05683
 C327 C 0.88706 -0.19048 0.50130
 C328 C 0.86929 -0.16603 0.46428
 H329 H 0.87568 -0.18376 0.53900
 H330 H 0.88028 -0.17261 0.42644
 C331 C 0.31532 0.39665 0.97369
 C332 C 0.33878 0.37671 1.01039
 H333 H 0.32146 0.38662 0.93542
 H334 H 0.33167 0.38717 1.04840
 C335 C 0.93056 0.19112 0.48903
 C336 C 0.92208 0.14711 0.47130
 H337 H 0.90175 0.21054 0.50392
 H338 H 0.95059 0.13022 0.45234
 C339 C 0.30837 0.56830 0.01494
 C340 C 0.35185 0.57696 0.03534
 H341 H 0.28852 0.59686 0.00151
 H342 H 0.36909 0.54841 0.05259
 C343 C 0.06438 -0.19067 0.48735
 C344 C 0.07314 -0.14647 0.47232
 H345 H 0.09275 -0.21023 0.50243
 H346 H 0.04510 -0.12944 0.45315
 C347 C 0.69476 0.43338 1.00086
 C348 C 0.65139 0.42525 1.02069
 H349 H 0.71393 0.40480 0.98539
 H350 H 0.63514 0.45379 1.04010
 C351 C 0.47901 0.09344 1.18963
 C352 C 0.51776 0.11329 1.16778
 H353 H 0.44413 0.10546 1.18068
 H354 H 0.55288 0.10209 1.17701
 C355 C -0.00641 0.68746 0.56714
 C356 C -0.03614 0.66624 0.59965
 H357 H 0.02992 0.67706 0.56404
 H358 H -0.07348 0.67381 0.59940
 C359 C 0.51417 0.90256 -0.18212
 C360 C 0.47769 0.88593 -0.15414
 H361 H 0.54857 0.88761 -0.17998
 H362 H 0.44478 0.90395 -0.15481
 C363 C 1.02583 0.30444 0.40764
 C364 C 0.99010 0.33524 0.39743
 H365 H 1.05660 0.30412 0.38388
 H366 H 0.95950 0.33541 0.42162
 C367 C 0.48748 0.92094 0.19892
 C368 C 0.50665 0.91438 0.15167
 H369 H 0.47836 0.89080 0.22158
 H370 H 0.52536 0.94441 0.13481
 C371 C 0.00300 0.31953 0.56849
 C372 C 0.01808 0.32622 0.61558
 H373 H -0.02079 0.34357 0.55239
 H374 H 0.03834 0.29986 0.63294
 C375 C 0.50637 0.07867 0.81292
 C376 C 0.52996 0.09086 0.85504
 H377 H 0.48693 0.10422 0.79329
 H378 H 0.55282 0.06591 0.87127
 C379 C 0.97123 0.69012 0.39938
 C380 C 0.99986 0.65421 0.39933
 H381 H 0.94758 0.69466 0.36832
 H382 H 1.02343 0.65020 0.43064
 C383 C 1.18451 0.46273 0.07556
 C384 C 1.16630 0.50024 0.09732
 H385 H 1.17308 0.42783 0.08767
 H386 H 1.18083 0.53516 0.08856
 C387 C 0.58299 0.00770 0.68329
 C388 C 0.62660 -0.00890 0.67981
 H389 H 0.57079 0.03116 0.65554
 H390 H 0.63846 -0.03215 0.70793
 C391 C -0.18227 0.50472 0.91340
 C392 C -0.15952 0.53593 0.88385
 H393 H -0.17084 0.46925 0.91524
 H394 H -0.16853 0.57229 0.88594
 C395 C 0.39922 -0.00902 0.31773
 C396 C 0.38039 0.02484 0.34500
 H397 H 0.39161 -0.04565 0.32639
 H398 H 0.39256 0.06124 0.33958
 C399 C 0.18903 0.50378 0.91612
 C400 C 0.18762 0.49404 0.86713
 H401 H 0.16143 0.52318 0.93326
 H402 H 0.21584 0.47481 0.85073
 C403 C 0.55668 0.00220 0.32551
 C404 C 0.59969 0.02554 0.32880
 H405 H 0.54616 -0.02449 0.35184
 H406 H 0.60953 0.05152 0.30134
 C407 C 0.81863 0.53036 0.07707
 C408 C 0.83590 0.49078 0.09359
 H409 H 0.83107 0.56386 0.09374
 H410 H 0.82035 0.45697 0.08063
 C411 C 0.42126 -0.00657 0.69468
 C412 C 0.39162 -0.04141 0.67610
 H413 H 0.41721 0.02928 0.68364
 H414 H 0.39846 -0.07762 0.68321
   
