data_POSCAR
  _audit_creation_date              2014-09-24
  _audit_creation_method            'ToBaCCo'
  _symmetry_space_group_name_H-M    'P1'
  _symmetry_Int_Tables_number       1
  _symmetry_cell_setting            triclinic
  loop_
  _symmetry_equiv_pos_as_xyz
 x,y,z
_cell_length_a 23.0117
_cell_length_b 21.5587
_cell_length_c 31.3845
_cell_angle_alpha 98.808300
_cell_angle_beta 90.923500
_cell_angle_gamma 68.484700
loop_
  _atom_site_label
  _atom_site_type_symbol
  _atom_site_fract_x
  _atom_site_fract_y
  _atom_site_fract_z
C1 C -0.01594 0.39236 1.04382
 C2 C -0.02635 0.35595 1.00500
 C3 C -0.02546 0.37659 0.96504
 C4 C -0.01664 0.43743 0.96325
 C5 C -0.00263 0.47379 1.00099
 C6 C -0.00105 0.45078 1.04137
 C7 C 0.01543 0.48716 1.07769
 C8 C 0.03188 0.54238 1.07427
 C9 C 0.02879 0.56724 1.03506
 C10 C 0.01172 0.53214 0.99785
 C11 C -0.02025 0.46185 0.92400
 C12 C -0.00592 0.51782 0.92080
 C13 C 0.01090 0.55374 0.95706
 C14 C 0.03076 0.60764 0.95290
 C15 C 0.05154 0.63827 0.98955
 C16 C 0.04705 0.62259 1.03083
 H17 H 0.01745 0.47323 1.10938
 H18 H 0.04918 0.56368 1.10276
 H19 H -0.03364 0.43748 0.89485
 H20 H -0.00602 0.53023 0.88877
 H21 H -0.02910 0.30696 1.00494
 H22 H 0.06443 0.68119 0.98702
 C23 C 0.38468 -0.01212 0.53843
 C24 C 0.35188 -0.01093 0.50041
 C25 C 0.37693 -0.00637 0.46119
 C26 C 0.43708 -0.00294 0.45971
 C27 C 0.47155 -0.00502 0.49780
 C28 C 0.44513 -0.00944 0.53725
 C29 C 0.48002 -0.01159 0.57443
 C30 C 0.53960 -0.00947 0.57315
 C31 C 0.56763 -0.00594 0.53441
 C32 C 0.53228 -0.00194 0.49651
 C33 C 0.46282 0.00470 0.42148
 C34 C 0.52128 0.00977 0.42047
 C35 C 0.55699 0.00605 0.45743
 C36 C 0.61615 0.01158 0.45653
 C37 C 0.65124 0.00514 0.49353
 C38 C 0.62884 -0.00396 0.53274
 H39 H 0.46176 -0.01513 0.60513
 H40 H 0.56220 -0.00897 0.60351
 H41 H 0.43751 0.00822 0.39204
 H42 H 0.53796 0.01698 0.39028
 H43 H 0.30556 -0.01301 0.50142
 H44 H 0.69868 0.00274 0.49001
 C45 C 0.08931 0.00260 0.30314
 H46 H 0.09087 -0.04497 0.28513
 C47 C 0.13755 0.00423 0.33049
 H48 H 0.17534 -0.04261 0.33370
 C49 C 0.03677 0.12085 0.32222
 H50 H -0.00283 0.16615 0.31887
 C51 C 0.08340 0.12465 0.35022
 H52 H 0.07928 0.17303 0.36856
 N53 N 0.03967 0.06030 0.30010
 C54 C 0.00229 -0.04383 0.19242
 H55 H 0.00781 -0.00577 0.17584
 C56 C 0.00841 -0.10676 0.16920
 H57 H 0.01786 -0.11599 0.13467
 C58 C -0.02032 -0.07622 0.25712
 H59 H -0.03244 -0.06339 0.29134
 C60 C -0.01561 -0.13945 0.23501
 H61 H -0.02389 -0.17533 0.25240
 Zn62 Zn -0.02869 0.05861 0.26572
 N63 N -0.01227 -0.02963 0.23550
 C64 C -0.09397 0.13567 0.20244
 N65 N -0.04157 0.12017 0.22569
 C66 C 0.00283 0.14625 0.21969
 C67 C -0.00487 0.19025 0.18981
 C68 C -0.10343 0.17923 0.17210
 C69 C -0.15087 0.06654 0.28532
 C70 C -0.20206 0.07453 0.31204
 C71 C -0.15259 0.11614 0.37215
 C72 C -0.10214 0.10650 0.34454
 N73 N -0.10181 0.08184 0.30192
 H74 H -0.12821 0.11368 0.20701
 H75 H 0.04523 0.13172 0.23727
 H76 H 0.03210 0.20848 0.18501
 H77 H -0.14516 0.19035 0.15357
 H78 H -0.14913 0.04532 0.25164
 H79 H -0.24009 0.06128 0.29816
 H80 H -0.15127 0.13466 0.40612
 H81 H -0.06267 0.11695 0.35780
 C82 C -0.00108 -0.15539 0.19052
 C83 C 0.13437 0.06594 0.35485
 C84 C -0.20262 0.09855 0.35631
 C85 C -0.05878 0.20740 0.16554
 C86 C -0.01544 0.08060 0.76817
 H87 H -0.00924 0.08671 0.73518
 C88 C -0.03655 0.13719 0.80051
 H89 H -0.04635 0.18678 0.79210
 C90 C -0.01257 0.00878 0.81892
 H91 H -0.00440 -0.04108 0.82604
 C92 C -0.03443 0.06383 0.85197
 H93 H -0.04150 0.05560 0.88437
 N94 N -0.00214 0.01775 0.77813
 C95 C 0.12640 -0.12395 0.67576
 H96 H 0.10606 -0.16231 0.67268
 C97 C 0.17688 -0.13225 0.64862
 H98 H 0.19525 -0.17738 0.62470
 C99 C 0.12532 -0.01756 0.70980
 H100 H 0.10493 0.02714 0.73358
 C101 C 0.17599 -0.02374 0.68316
 H102 H 0.19277 0.01737 0.68664
 Zn103 Zn 0.02686 -0.05925 0.73463
 N104 N 0.10048 -0.06645 0.70467
 C105 C -0.02607 -0.04407 0.65406
 N106 N -0.03749 -0.05178 0.69492
 C107 C -0.09534 -0.04664 0.70820
 C108 C -0.14441 -0.03355 0.67971
 C109 C -0.07353 -0.03058 0.62483
 C110 C 0.09870 -0.14617 0.78644
 C111 C 0.11428 -0.19460 0.81361
 C112 C 0.02755 -0.22531 0.78753
 C113 C 0.01365 -0.17608 0.76060
 N114 N 0.04801 -0.13633 0.76176
 H115 H 0.01927 -0.04573 0.64432
 H116 H -0.10387 -0.05063 0.74128
 H117 H -0.19041 -0.02776 0.69127
 H118 H -0.06357 -0.02338 0.59271
 H119 H 0.12522 -0.11382 0.78656
 H120 H 0.15327 -0.19954 0.83438
 H121 H -0.00128 -0.25529 0.78671
 H122 H -0.02585 -0.16803 0.74017
 C123 C 0.20160 -0.08132 0.65139
 C124 C -0.04520 0.12871 0.84321
 C125 C 0.07727 -0.23320 0.81568
 C126 C -0.13359 -0.02482 0.63743
 C127 C 0.05991 -0.33403 0.06500
 C128 C 0.02737 -0.30974 0.10288
 C129 C 0.03491 -0.25162 0.13076
 C130 C -0.00101 -0.22029 0.16651
 H131 H -0.01002 -0.32579 0.11077
 H132 H 0.06853 -0.23186 0.12051
 H133 H 0.09071 -0.30894 0.05726
 H134 H -0.03225 -0.24197 0.17812
 C135 C -0.01547 0.36635 0.08295
 C136 C -0.04564 0.32510 0.08884
 C137 C -0.03750 0.29107 0.12713
 C138 C -0.06808 0.24972 0.13101
 H139 H -0.07709 0.31532 0.06504
 H140 H -0.00527 0.29841 0.15105
 H141 H 0.01028 0.37905 0.10970
 H142 H -0.10164 0.24585 0.10708
 C143 C 0.35305 -0.01294 0.57911
 C144 C 0.32162 -0.05384 0.58068
 C145 C 0.28232 -0.04807 0.61876
 C146 C 0.24971 -0.08837 0.61816
 H147 H 0.32260 -0.09029 0.55246
 H148 H 0.27831 -0.00913 0.64598
 H149 H 0.35380 0.02218 0.60758
 H150 H 0.25691 -0.12781 0.59053
 C151 C -0.33126 -0.01521 0.56818
 C152 C -0.28131 0.00302 0.57278
 C153 C -0.23710 -0.01607 0.60734
 C154 C -0.18344 -0.00545 0.60617
 H155 H -0.27209 0.03316 0.55114
 H156 H -0.24712 -0.04111 0.63207
 H157 H -0.33997 -0.04093 0.59288
 H158 H -0.17408 0.01661 0.57947
 C159 C 0.02564 -0.36568 0.91386
 C160 C 0.06234 -0.33474 0.90205
 C161 C 0.05013 -0.30217 0.86317
 C162 C 0.09039 -0.27714 0.84943
 H163 H 0.10208 -0.33364 0.92069
 H164 H 0.00630 -0.29531 0.84780
 H165 H -0.00985 -0.36990 0.89186
 H166 H 0.13322 -0.28437 0.86647
 C167 C -0.02388 0.32929 0.92482
 C168 C -0.05504 0.28739 0.92050
 C169 C -0.04510 0.23752 0.88100
 C170 C -0.06387 0.18558 0.87945
 H171 H -0.08584 0.28805 0.94647
 H172 H -0.01742 0.24030 0.85425
 H173 H 0.00653 0.32694 0.89810
 H174 H -0.08764 0.18091 0.90766
 C175 C -0.35507 0.02035 0.41689
 C176 C -0.32602 0.06421 0.41863
 C177 C -0.28717 0.06525 0.38210
 C178 C -0.25241 0.10368 0.38751
 H179 H -0.32758 0.09709 0.44881
 H180 H -0.28281 0.03026 0.35256
 H181 H -0.35506 -0.01170 0.38671
 H182 H -0.25603 0.13560 0.41842
 C183 C 0.33938 -0.00680 0.42230
 C184 C 0.27870 0.03203 0.42334
 C185 C 0.23899 0.02694 0.38673
 C186 C 0.17983 0.07045 0.38791
 H187 H 0.25743 0.06728 0.45238
 H188 H 0.25780 -0.01296 0.35947
 H189 H 0.36163 -0.04008 0.39284
 H190 H 0.16356 0.11192 0.41462
   
