data_POSCAR
  _audit_creation_date              2014-09-24
  _audit_creation_method            'ToBaCCo'
  _symmetry_space_group_name_H-M    'P1'
  _symmetry_Int_Tables_number       1
  _symmetry_cell_setting            triclinic
  loop_
  _symmetry_equiv_pos_as_xyz
 x,y,z
_cell_length_a 52.4649
_cell_length_b 52.9085
_cell_length_c 52.9617
_cell_angle_alpha 92.852600
_cell_angle_beta 87.025000
_cell_angle_gamma 88.548400
loop_
  _atom_site_label
  _atom_site_type_symbol
  _atom_site_fract_x
  _atom_site_fract_y
  _atom_site_fract_z
C1 C 0.20751 0.50946 1.03291
 H2 H 0.20546 0.52672 1.02297
 C3 C 0.18945 0.50385 1.05197
 H4 H 0.17342 0.51696 1.05578
 C5 C 0.23032 0.47110 1.03811
 H6 H 0.24643 0.45848 1.03280
 C7 C 0.21271 0.46465 1.05718
 H8 H 0.21639 0.44734 1.06654
 N9 N 0.22729 0.49304 1.02622
 C10 C 0.28905 0.53549 0.99177
 H11 H 0.29142 0.52619 0.97311
 C12 C 0.30522 0.55490 0.99870
 H13 H 0.31999 0.56062 0.98527
 C14 C 0.26785 0.53846 1.03249
 H15 H 0.25347 0.53183 1.04573
 C16 C 0.28392 0.55762 1.04034
 H17 H 0.28169 0.56577 1.05953
 Zn18 Zn 0.25001 0.50036 0.99887
 N19 N 0.27068 0.52778 1.00857
 C20 C 0.23424 0.52966 0.95827
 N21 N 0.22986 0.50867 0.97151
 C22 C 0.20944 0.49406 0.96704
 C23 C 0.19250 0.50034 0.94871
 C24 C 0.21794 0.53648 0.93959
 C25 C 0.29570 0.47098 0.99762
 C26 C 0.31071 0.44875 0.99499
 C27 C 0.27531 0.42736 0.97690
 C28 C 0.26098 0.45004 0.97980
 N29 N 0.27119 0.47119 0.99036
 H30 H 0.25008 0.54149 0.96237
 H31 H 0.20573 0.47802 0.97841
 H32 H 0.17594 0.48888 0.94615
 H33 H 0.22200 0.55314 0.92918
 H34 H 0.30330 0.48771 1.00663
 H35 H 0.32978 0.44875 1.00189
 H36 H 0.26671 0.41060 0.96889
 H37 H 0.24141 0.45044 0.97447
 C38 C 0.30284 0.56599 1.02332
 C39 C 0.19148 0.48087 1.06434
 C40 C 0.30037 0.42642 0.98500
 C41 C 0.19652 0.52193 0.93478
 C42 C 0.79843 0.51005 -0.03020
 H43 H 0.80859 0.50789 -0.01323
 C44 C 0.81230 0.51225 -0.05317
 H45 H 0.83291 0.51087 -0.05330
 C46 C 0.75950 0.51334 -0.05053
 H47 H 0.73890 0.51372 -0.04950
 C48 C 0.77260 0.51632 -0.07379
 H49 H 0.76167 0.51935 -0.09019
 N50 N 0.77248 0.50982 -0.02935
 C51 C 0.71194 0.52301 0.02966
 H52 H 0.71436 0.50593 0.03979
 C53 C 0.69050 0.53879 0.03517
 H54 H 0.67675 0.53395 0.04998
 C55 C 0.72670 0.54951 -0.00248
 H56 H 0.74066 0.55333 -0.01742
 C57 C 0.70535 0.56574 0.00227
 H58 H 0.70298 0.58181 -0.00935
 Zn59 Zn 0.75392 0.50247 0.00126
 N60 N 0.72917 0.52825 0.01072
 C61 C 0.77354 0.51260 0.04984
 N62 N 0.77655 0.49811 0.02785
 C63 C 0.79501 0.47952 0.02476
 C64 C 0.81035 0.47399 0.04458
 C65 C 0.78858 0.50775 0.07020
 C66 C 0.71500 0.47369 -0.01921
 C67 C 0.70043 0.45241 -0.02398
 C68 C 0.72788 0.42863 0.00193
 C69 C 0.74170 0.45042 0.00648
 N70 N 0.73547 0.47232 -0.00449
 H71 H 0.75906 0.52755 0.05188
 H72 H 0.79733 0.46844 0.00702
 H73 H 0.82462 0.45882 0.04182
 H74 H 0.78531 0.51885 0.08786
 H75 H 0.70964 0.49145 -0.02692
 H76 H 0.68435 0.45381 -0.03589
 H77 H 0.73318 0.41138 0.01079
 H78 H 0.75722 0.44965 0.01896
 C79 C 0.68651 0.56002 0.02081
 C80 C 0.79945 0.51510 -0.07557
 C81 C 0.70704 0.42945 -0.01357
 C82 C 0.80686 0.48782 0.06786
 C83 C -0.01466 0.28999 0.47525
 H84 H -0.02818 0.29648 0.49046
 C85 C -0.01118 0.30430 0.45394
 H86 H -0.02201 0.32193 0.45358
 C87 C 0.01693 0.26001 0.45894
 H88 H 0.02802 0.24284 0.46102
 C89 C 0.02129 0.27383 0.43746
 H90 H 0.03508 0.26614 0.42305
 N91 N -0.00079 0.26824 0.47731
 C92 C -0.04238 0.22110 0.52960
 H93 H -0.02738 0.21675 0.54210
 C94 C -0.06542 0.20849 0.53145
 H95 H -0.06825 0.19464 0.54564
 C96 C -0.05652 0.24362 0.49512
 H97 H -0.05273 0.25665 0.48043
 C98 C -0.08003 0.23182 0.49663
 H99 H -0.09420 0.23605 0.48317
 Zn100 Zn -0.00488 0.25077 0.50754
 N101 N -0.03824 0.23807 0.51145
 C102 C -0.01447 0.27876 0.55485
 N103 N 0.00219 0.27379 0.53456
 C104 C 0.02474 0.28578 0.53236
 C105 C 0.03167 0.30308 0.55132
 C106 C -0.00835 0.29611 0.57428
 C107 C 0.01376 0.20287 0.48990
 C108 C 0.02906 0.18086 0.48911
 C109 C 0.05330 0.19968 0.52239
 C110 C 0.03737 0.22126 0.52272
 N111 N 0.01811 0.22251 0.50654
 H112 H -0.03246 0.26925 0.55602
 H113 H 0.03742 0.28177 0.51580
 H114 H 0.04969 0.31247 0.54912
 H115 H -0.02161 0.29962 0.59050
 H116 H -0.00186 0.20426 0.47744
 H117 H 0.02530 0.16541 0.47575
 H118 H 0.06830 0.19883 0.53565
 H119 H 0.04021 0.23677 0.53620
 C120 C -0.08448 0.21369 0.51467
 C121 C 0.00733 0.29660 0.43457
 C122 C 0.04908 0.17905 0.50558
 C123 C 0.01511 0.30835 0.57272
 C124 C 0.99358 0.72134 0.53395
 H125 H 0.97786 0.71654 0.52234
 C126 C 0.99892 0.70676 0.55433
 H127 H 0.98727 0.69063 0.55802
 C128 C 1.02889 0.74712 0.54171
 H129 H 1.04085 0.76250 0.53637
 C130 C 1.03475 0.73320 0.56251
 H131 H 1.05092 0.73849 0.57331
 N132 N 1.00866 0.74089 0.52786
 C133 C 0.96219 0.78871 0.48231
 H134 H 0.97297 0.78765 0.46430
 C135 C 0.93992 0.80389 0.48561
 H136 H 0.93343 0.81419 0.46988
 C137 C 0.95768 0.77667 0.52478
 H138 H 0.96491 0.76649 0.54019
 C139 C 0.93538 0.79152 0.52887
 H140 H 0.92571 0.79255 0.54748
 Zn141 Zn 1.00159 0.75636 0.49743
 N142 N 0.97052 0.77541 0.50175
 C143 C 0.97920 0.72515 0.45878
 N144 N 0.99979 0.72935 0.47289
 C145 C 1.01992 0.71260 0.47198
 C146 C 1.01971 0.69031 0.45693
 C147 C 0.97829 0.70303 0.44320
 C148 C 1.03153 0.79951 0.50258
 C149 C 1.05086 0.81607 0.49608
 C150 C 1.06229 0.78880 0.45908
 C151 C 1.04271 0.77285 0.46623
 N152 N 1.02800 0.77825 0.48782
 H153 H 0.96320 0.73850 0.46015
 H154 H 1.03590 0.71631 0.48361
 H155 H 1.03579 0.67705 0.45679
 H156 H 0.96156 0.69948 0.43255
 H157 H 1.01928 0.80359 0.51944
 H158 H 1.05320 0.83301 0.50796
 H159 H 1.07411 0.78378 0.44212
 H160 H 1.03936 0.75615 0.45446
 C161 C 0.92621 0.80541 0.50917
 C162 C 1.01994 0.71239 0.56881
 C163 C 1.06663 0.81075 0.47408
 C164 C 0.99853 0.68508 0.44265
 C165 C 0.48228 0.01164 0.28366
 H166 H 0.49575 -0.00414 0.28407
 C167 C 0.46169 0.01414 0.30157
 H168 H 0.45962 0.00020 0.31575
 C169 C 0.46990 0.04991 0.26577
 H170 H 0.47342 0.06414 0.25218
 C171 C 0.44892 0.05298 0.28306
 H172 H 0.43624 0.06931 0.28203
 N173 N 0.48621 0.02962 0.26650
 C174 C 0.53649 0.00102 0.20298
 H175 H 0.55036 0.01578 0.20393
 C176 C 0.53985 -0.01869 0.18466
 H177 H 0.55604 -0.01812 0.17121
 C178 C 0.49826 -0.01636 0.21921
 H179 H 0.48231 -0.01546 0.23302
 C180 C 0.50056 -0.03631 0.20072
 H181 H 0.48633 -0.05074 0.20109
 Zn182 Zn 0.51679 0.02774 0.24576
 N183 N 0.51652 0.00136 0.22035
 C184 C 0.56038 0.00126 0.26092
 N185 N 0.54446 0.02164 0.26674
 C186 C 0.54711 0.03657 0.28808
 C187 C 0.56618 0.03095 0.30467
 C188 C 0.57982 -0.00477 0.27667
 C189 C 0.50545 0.06154 0.20928
 C190 C 0.50931 0.08149 0.19341
 C191 C 0.54481 0.09420 0.21795
 C192 C 0.54036 0.07385 0.23329
 N193 N 0.52105 0.05791 0.22856
 H194 H 0.55787 -0.01081 0.24431
 H195 H 0.53397 0.05244 0.29254
 H196 H 0.56743 0.04253 0.32197
 H197 H 0.59232 -0.02096 0.27133
 H198 H 0.49055 0.04827 0.20567
 H199 H 0.49732 0.08326 0.17753
 H200 H 0.56040 0.10658 0.22187
 H201 H 0.55276 0.07042 0.24849
 C202 C 0.52216 -0.03828 0.18356
 C203 C 0.44490 0.03531 0.30172
 C204 C 0.52948 0.09795 0.19736
 C205 C 0.58266 0.00978 0.29918
 C206 C 0.50099 -0.04155 0.70501
 H207 H 0.48617 -0.05540 0.70575
 C208 C 0.51732 -0.04069 0.68340
 H209 H 0.51521 -0.05417 0.66764
 C210 C 0.52126 -0.00667 0.72439
 H211 H 0.52234 0.00708 0.74002
 C212 C 0.53810 -0.00527 0.70328
 H213 H 0.55198 0.00953 0.70298
 N214 N 0.50318 -0.02465 0.72493
 C215 C 0.46942 -0.05566 0.79333
 H216 H 0.45587 -0.04061 0.79960
 C217 C 0.47378 -0.07576 0.80885
 H218 H 0.46358 -0.07590 0.82714
 C219 C 0.50038 -0.07272 0.76256
 H220 H 0.51108 -0.07125 0.74475
 C221 C 0.50523 -0.09321 0.77739
 H222 H 0.51933 -0.10755 0.77050
 Zn223 Zn 0.47853 -0.02490 0.75241
 N224 N 0.48284 -0.05438 0.77079
 C225 C 0.42896 -0.04207 0.74309
 N226 N 0.44620 -0.02394 0.73826
 C227 C 0.44259 -0.00714 0.72008
 C228 C 0.42177 -0.00920 0.70478
 C229 C 0.40768 -0.04458 0.72848
 C230 C 0.50476 0.00217 0.78800
 C231 C 0.51152 0.02281 0.80331
 C232 C 0.47317 0.04510 0.79235
 C233 C 0.46719 0.02396 0.77702
 N234 N 0.48330 0.00331 0.77475
 H235 H 0.43230 -0.05542 0.75742
 H236 H 0.45685 0.00680 0.71634
 H237 H 0.42031 0.00330 0.68933
 H238 H 0.39452 -0.05953 0.73227
 H239 H 0.51708 -0.01459 0.78598
 H240 H 0.52897 0.02170 0.81331
 H241 H 0.46070 0.06178 0.79340
 H242 H 0.45013 0.02433 0.76642
 C243 C 0.49219 -0.09470 0.80111
 C244 C 0.53607 -0.02224 0.68233
 C245 C 0.49592 0.04482 0.80523
 C246 C 0.40439 -0.02867 0.70833
 C247 C 0.29207 0.02585 0.47597
 H248 H 0.28977 0.03543 0.49451
 C249 C 0.31027 0.03394 0.45818
 H250 H 0.32208 0.04965 0.46337
 C251 C 0.27996 -0.00686 0.44722
 H252 H 0.26831 -0.02293 0.44311
 C253 C 0.29782 0.00070 0.42880
 H254 H 0.29928 -0.00940 0.41047
 N255 N 0.27721 0.00594 0.47017
 C256 C 0.20824 0.01568 0.51923
 H257 H 0.20941 -0.00171 0.52909
 C258 C 0.18620 0.03102 0.52228
 H259 H 0.17066 0.02558 0.53496
 C260 C 0.22664 0.04308 0.48970
 H261 H 0.24202 0.04714 0.47628
 C262 C 0.20489 0.05905 0.49223
 H263 H 0.20382 0.07540 0.48079
 Zn264 Zn 0.25322 -0.00386 0.49557
 N265 N 0.22768 0.02165 0.50283
 C266 C 0.26575 0.00267 0.54717
 N267 N 0.27096 -0.01072 0.52481
 C268 C 0.28936 -0.02936 0.52252
 C269 C 0.30263 -0.03594 0.54350
 C270 C 0.27877 -0.00312 0.56862
 C271 C 0.22010 -0.02941 0.46473
 C272 C 0.20373 -0.04841 0.45725
 C273 C 0.21919 -0.07389 0.49015
 C274 C 0.23530 -0.05436 0.49701
 N275 N 0.23539 -0.03262 0.48434
 H276 H 0.25144 0.01779 0.54846
 H277 H 0.29344 -0.03938 0.50439
 H278 H 0.31707 -0.05099 0.54136
 H279 H 0.27411 0.00739 0.58639
 H280 H 0.22002 -0.01165 0.45545
 H281 H 0.19112 -0.04507 0.44215
 H282 H 0.21920 -0.09098 0.50057
 H283 H 0.24701 -0.05632 0.51301
 C284 C 0.18403 0.05265 0.50816
 C285 C 0.31324 0.02144 0.43411
 C286 C 0.20288 -0.07090 0.47022
 C287 C 0.29724 -0.02289 0.56698
 C288 C 0.69648 0.02577 0.52565
 H289 H 0.69708 0.03776 0.50968
 C290 C 0.67387 0.02405 0.54042
 H291 H 0.65720 0.03513 0.53599
 C292 C 0.71721 -0.00419 0.55002
 H293 H 0.73400 -0.01560 0.55326
 C294 C 0.69500 -0.00635 0.56542
 H295 H 0.69483 -0.01954 0.58041
 N296 N 0.71731 0.01122 0.53020
 C297 C 0.78355 0.04319 0.49088
 H298 H 0.78961 0.02793 0.47737
 C299 C 0.79727 0.06550 0.49199
 H300 H 0.81378 0.06739 0.47916
 C301 C 0.75464 0.05935 0.52398
 H302 H 0.73817 0.05683 0.53661
 C303 C 0.76754 0.08210 0.52545
 H304 H 0.76089 0.09690 0.53927
 Zn305 Zn 0.74445 0.00987 0.50519
 N306 N 0.76269 0.04048 0.50680
 C307 C 0.73423 0.01983 0.45349
 N308 N 0.72885 0.00550 0.47367
 C309 C 0.71018 -0.01185 0.47297
 C310 C 0.69673 -0.01602 0.45129
 C311 C 0.72094 0.01643 0.43133
 C312 C 0.79151 -0.01605 0.51453
 C313 C 0.80720 -0.03735 0.51767
 C314 C 0.77090 -0.06370 0.51178
 C315 C 0.75602 -0.04203 0.50865
 N316 N 0.76639 -0.01871 0.50989
 H317 H 0.74856 0.03407 0.45457
 H318 H 0.70499 -0.02191 0.48961
 H319 H 0.68176 -0.02975 0.45136
 H320 H 0.72542 0.02783 0.41536
 H321 H 0.79944 0.00256 0.51605
 H322 H 0.82708 -0.03488 0.52153
 H323 H 0.76218 -0.08202 0.51040
 H324 H 0.73604 -0.04395 0.50553
 C325 C 0.78918 0.08534 0.50937
 C326 C 0.67276 0.00730 0.56015
 C327 C 0.79686 -0.06158 0.51636
 C328 C 0.70209 -0.00191 0.43006
 C329 C 0.49985 0.21713 1.02472
 H330 H 0.48440 0.21149 1.01310
 C331 C 0.50489 0.20394 1.04623
 H332 H 0.49325 0.18806 1.05091
 C333 C 0.53481 0.24361 1.03163
 H334 H 0.54693 0.25858 1.02566
 C335 C 0.54038 0.23111 1.05332
 H336 H 0.55635 0.23720 1.06403
 N337 N 0.51484 0.23649 1.01777
 C338 C 0.47272 0.28387 0.96796
 H339 H 0.48654 0.28423 0.95211
 C340 C 0.44983 0.29789 0.96783
 H341 H 0.44599 0.30889 0.95168
 C342 C 0.46094 0.26895 1.00828
 H343 H 0.46550 0.25792 1.02414
 C344 C 0.43772 0.28251 1.00883
 H345 H 0.42456 0.28183 1.02521
 Zn346 Zn 0.50929 0.25149 0.98662
 N347 N 0.47774 0.26965 0.98790
 C348 C 0.49076 0.22191 0.94516
 N349 N 0.50997 0.22495 0.96126
 C350 C 0.53059 0.20877 0.95998
 C351 C 0.53305 0.18924 0.94129
 C352 C 0.49242 0.20252 0.92617
 C353 C 0.53760 0.29527 0.99499
 C354 C 0.55849 0.31094 0.99215
 C355 C 0.57385 0.28440 0.95582
 C356 C 0.55273 0.26923 0.95940
 N357 N 0.53565 0.27433 0.97932
 H358 H 0.47429 0.23467 0.94679
 H359 H 0.54536 0.21135 0.97332
 H360 H 0.54972 0.17667 0.94051
 H361 H 0.47731 0.20075 0.91307
 H362 H 0.52353 0.29911 1.01046
 H363 H 0.56045 0.32671 1.00567
 H364 H 0.58758 0.27967 0.94022
 H365 H 0.55045 0.25304 0.94660
 C366 C 0.43194 0.29719 0.98841
 C367 C 0.52563 0.21068 1.06068
 C368 C 0.57733 0.30514 0.97276
 C369 C 0.51398 0.18612 0.92384
 C370 C 0.47538 0.78326 -0.02498
 H371 H 0.46225 0.79065 -0.00982
 C372 C 0.47776 0.79576 -0.04759
 H373 H 0.46638 0.81283 -0.04956
 C374 C 0.50778 0.75333 -0.03974
 H375 H 0.52006 0.73730 -0.03636
 C376 C 0.51056 0.76502 -0.06272
 H377 H 0.52454 0.75732 -0.07699
 N378 N 0.49071 0.76282 -0.02127
 C379 C 0.45669 0.72749 0.04482
 H380 H 0.46991 0.73333 0.05883
 C381 C 0.43724 0.71121 0.05137
 H382 H 0.43495 0.70623 0.07089
 C383 C 0.44469 0.72643 0.00233
 H384 H 0.44841 0.73164 -0.01697
 C385 C 0.42574 0.70908 0.00780
 H386 H 0.41521 0.70133 -0.00765
 Zn387 Zn 0.49083 0.75072 0.01175
 N388 N 0.46004 0.73482 0.02069
 C389 C 0.48135 0.78635 0.05428
 N390 N 0.49719 0.77878 0.03400
 C391 C 0.51866 0.79156 0.02817
 C392 C 0.52562 0.81206 0.04364
 C393 C 0.48787 0.80645 0.07061
 C394 C 0.51242 0.70308 0.00026
 C395 C 0.52877 0.68218 0.00208
 C396 C 0.55394 0.70729 0.03030
 C397 C 0.53690 0.72776 0.02812
 N398 N 0.51659 0.72525 0.01330
 H399 H 0.46373 0.77682 0.05803
 H400 H 0.53052 0.78563 0.01150
 H401 H 0.54272 0.82198 0.03837
 H402 H 0.47553 0.81137 0.08722
 H403 H 0.49599 0.70152 -0.01118
 H404 H 0.52498 0.66463 -0.00828
 H405 H 0.56971 0.70932 0.04258
 H406 H 0.53959 0.74533 0.03879
 C407 C 0.42211 0.70070 0.03256
 C408 C 0.49604 0.78705 -0.06661
 C409 C 0.54964 0.68403 0.01751
 C410 C 0.51049 0.81943 0.06559
 C411 C 1.01226 0.46595 0.20812
 H412 H 0.99555 0.45437 0.20805
 C413 C 1.03147 0.46205 0.18907
 H414 H 1.02932 0.44757 0.17421
 C415 C 1.03531 0.49877 0.22777
 H416 H 1.03677 0.51296 0.24296
 C417 C 1.05499 0.49560 0.20893
 H418 H 1.07164 0.50722 0.20996
 N419 N 1.01486 0.48347 0.22741
 C420 C 0.98006 0.45533 0.29604
 H421 H 0.96778 0.47131 0.30261
 C422 C 0.98443 0.43563 0.31206
 H423 H 0.97551 0.43679 0.33099
 C424 C 1.00802 0.43554 0.26405
 H425 H 1.01770 0.43569 0.24561
 C426 C 1.01255 0.41529 0.27922
 H427 H 1.02517 0.39988 0.27179
 Zn428 Zn 0.98901 0.48456 0.25377
 N429 N 0.99215 0.45517 0.27268
 C430 C 0.93977 0.46776 0.24320
 N431 N 0.95737 0.48556 0.23846
 C432 C 0.95445 0.50219 0.22001
 C433 C 0.93392 0.50028 0.20433
 C434 C 0.91878 0.46538 0.22818
 C435 C 1.01308 0.51182 0.29105
 C436 C 1.01521 0.52936 0.31126
 C437 C 0.97516 0.54891 0.30104
 C438 C 0.97376 0.53086 0.28094
 N439 N 0.99241 0.51258 0.27666
 H440 H 0.94258 0.45463 0.25786
 H441 H 0.96897 0.51591 0.21645
 H442 H 0.93292 0.51265 0.18872
 H443 H 0.90529 0.45070 0.23190
 H444 H 1.02741 0.49683 0.28744
 H445 H 1.03156 0.52807 0.32284
 H446 H 0.95969 0.56273 0.30492
 H447 H 0.95728 0.53080 0.26950
 C448 C 1.00125 0.41541 0.30387
 C449 C 1.05345 0.47658 0.18965
 C450 C 0.99576 0.54779 0.31689
 C451 C 0.91615 0.48114 0.20780
 C452 C -0.02543 0.50621 0.78484
 H453 H -0.00920 0.49518 0.79040
 C454 C -0.04867 0.50571 0.79879
 H455 H -0.05039 0.49417 0.81509
 C456 C -0.04293 0.53490 0.75693
 H457 H -0.04049 0.54652 0.74084
 C458 C -0.06674 0.53449 0.77005
 H459 H -0.08260 0.54574 0.76397
 N460 N -0.02292 0.52074 0.76443
 C461 C 0.03746 0.48831 0.71232
 H462 H 0.05103 0.50337 0.71255
 C463 C 0.04226 0.46670 0.69640
 H464 H 0.05959 0.46529 0.68432
 C465 C -0.00204 0.47232 0.72721
 H466 H -0.01935 0.47467 0.73915
 C467 C 0.00194 0.45043 0.71148
 H468 H -0.01224 0.43592 0.71174
 Zn469 Zn 0.01000 0.52069 0.74804
 N470 N 0.01572 0.49061 0.72748
 C471 C 0.05473 0.50719 0.77367
 N472 N 0.03386 0.52298 0.77366
 C473 C 0.02931 0.54166 0.79202
 C474 C 0.04658 0.54570 0.81084
 C475 C 0.07265 0.51068 0.79209
 C476 C 0.00024 0.54997 0.70607
 C477 C 0.00438 0.56940 0.68947
 C478 C 0.03682 0.58538 0.71628
 C479 C 0.03199 0.56581 0.73238
 N480 N 0.01396 0.54856 0.72709
 H481 H 0.05784 0.49222 0.75914
 H482 H 0.01238 0.55373 0.79174
 H483 H 0.04256 0.56073 0.82522
 H484 H 0.08961 0.49851 0.79126
 H485 H -0.01351 0.53567 0.70190
 H486 H -0.00632 0.56996 0.67256
 H487 H 0.05131 0.59885 0.72083
 H488 H 0.04313 0.56419 0.74880
 C489 C 0.02438 0.44738 0.69587
 C490 C -0.06961 0.51993 0.79136
 C491 C 0.02312 0.58724 0.69438
 C492 C 0.06887 0.53042 0.81078
 C493 C 0.10587 0.13382 0.50757
 C494 C 0.09391 0.11098 0.50674
 C495 C 0.06764 0.10905 0.50536
 C496 C 0.05307 0.13160 0.50482
 C497 C 0.06488 0.15546 0.50579
 C498 C 0.09173 0.15649 0.50724
 O499 O 0.13106 0.13143 0.50853
 C500 C 0.13508 0.10653 0.50835
 C501 C 0.11295 0.09320 0.50736
 C502 C 0.11269 0.06694 0.50699
 C503 C 0.13621 0.05386 0.50759
 C504 C 0.15941 0.06710 0.50848
 C505 C 0.15873 0.09390 0.50883
 H506 H 0.05868 0.09085 0.50472
 H507 H 0.03254 0.13051 0.50403
 H508 H 0.10133 0.17437 0.50779
 H509 H 0.09503 0.05687 0.50611
 H510 H 0.13639 0.03336 0.50682
 H511 H 0.17605 0.10455 0.50956
 C512 C 0.63715 0.61382 0.02286
 C513 C 0.61512 0.60063 0.02647
 C514 C 0.61508 0.57464 0.02894
 C515 C 0.63874 0.56161 0.02751
 C516 C 0.66189 0.57464 0.02371
 C517 C 0.66096 0.60124 0.02145
 O518 O 0.63282 0.63837 0.02020
 C519 C 0.60750 0.64066 0.02210
 C520 C 0.59581 0.61809 0.02592
 C521 C 0.56946 0.61588 0.02763
 C522 C 0.55448 0.63784 0.02511
 C523 C 0.56599 0.66139 0.02099
 C524 C 0.59295 0.66282 0.01974
 H525 H 0.59744 0.56466 0.03143
 H526 H 0.63891 0.54124 0.02862
 H527 H 0.67818 0.61179 0.01849
 H528 H 0.56073 0.59787 0.03054
 H529 H 0.53390 0.63651 0.02641
 H530 H 0.60225 0.68045 0.01632
 C531 C 0.87909 -0.13917 0.50888
 C532 C 0.85903 -0.14800 0.52336
 C533 C 0.85944 -0.17184 0.53324
 C534 C 0.88152 -0.18715 0.52817
 C535 C 0.90266 -0.17846 0.51347
 C536 C 0.90124 -0.15409 0.50357
 O537 O 0.87478 -0.11598 0.50126
 C538 C 0.85149 -0.11005 0.51116
 C539 C 0.84103 -0.12901 0.52485
 C540 C 0.81677 -0.12689 0.53672
 C541 C 0.80258 -0.10442 0.53416
 C542 C 0.81275 -0.08462 0.51987
 C543 C 0.83774 -0.08749 0.50841
 H544 H 0.84334 -0.17843 0.54447
 H545 H 0.88208 -0.20585 0.53560
 H546 H 0.91707 -0.14674 0.49252
 H547 H 0.80899 -0.14204 0.54749
 H548 H 0.78367 -0.10243 0.54336
 H549 H 0.84596 -0.07291 0.49718
 C550 C 0.35506 0.37814 0.98061
 C551 C 0.34273 0.35705 0.98847
 C552 C 0.31661 0.35708 0.99442
 C553 C 0.30268 0.37985 0.99247
 C554 C 0.31502 0.40203 0.98481
 C555 C 0.34162 0.40096 0.97857
 O556 O 0.38005 0.37430 0.97643
 C557 C 0.38359 0.35029 0.98187
 C558 C 0.36139 0.33888 0.98941
 C559 C 0.36091 0.31404 0.99685
 C560 C 0.38427 0.30042 0.99645
 C561 C 0.40743 0.31173 0.98859
 C562 C 0.40695 0.33704 0.98111
 H563 H 0.30735 0.34029 1.00074
 H564 H 0.28245 0.38039 0.99774
 H565 H 0.35163 0.41748 0.97263
 H566 H 0.34323 0.30553 1.00291
 H567 H 0.38434 0.28101 1.00206
 H568 H 0.42433 0.34632 0.97541
 C569 C 0.86979 0.15974 0.51437
 C570 C 0.84675 0.17273 0.51415
 C571 C 0.84485 0.19903 0.51437
 C572 C 0.86762 0.21244 0.51471
 C573 C 0.89158 0.19946 0.51514
 C574 C 0.89258 0.17270 0.51512
 O575 O 0.86753 0.13479 0.51341
 C576 C 0.84253 0.13192 0.51263
 C577 C 0.82891 0.15453 0.51317
 C578 C 0.80243 0.15584 0.51264
 C579 C 0.78948 0.13292 0.51153
 C580 C 0.80312 0.10934 0.51069
 C581 C 0.83008 0.10894 0.51120
 H582 H 0.82653 0.20884 0.51402
 H583 H 0.86664 0.23291 0.51473
 H584 H 0.91062 0.16228 0.51502
 H585 H 0.79211 0.17384 0.51308
 H586 H 0.76887 0.13350 0.51098
 H587 H 0.84099 0.09126 0.51080
 C588 C 0.34343 0.62385 0.02554
 C589 C 0.35744 0.61916 0.04613
 C590 C 0.35394 0.59807 0.06045
 C591 C 0.33530 0.58102 0.05316
 C592 C 0.32104 0.58511 0.03164
 C593 C 0.32512 0.60690 0.01769
 O594 O 0.35014 0.64472 0.01426
 C595 C 0.36895 0.65327 0.02790
 C596 C 0.37423 0.63822 0.04748
 C597 C 0.39424 0.64266 0.06308
 C598 C 0.40960 0.66334 0.05819
 C599 C 0.40450 0.67964 0.03830
 C600 C 0.38346 0.67445 0.02318
 H601 H 0.36532 0.59473 0.07649
 H602 H 0.33244 0.56426 0.06379
 H603 H 0.31450 0.61039 0.00116
 H604 H 0.39843 0.63014 0.07797
 H605 H 0.42599 0.66585 0.06951
 H606 H 0.37859 0.68619 0.00790
 C607 C 0.12162 -0.14442 0.47780
 C608 C 0.12669 -0.14053 0.45258
 C609 C 0.11280 -0.15165 0.43355
 C610 C 0.09297 -0.16754 0.44081
 C611 C 0.08745 -0.17209 0.46673
 C612 C 0.10210 -0.16021 0.48544
 O613 O 0.13668 -0.13165 0.49292
 C614 C 0.15158 -0.11943 0.47690
 C615 C 0.14631 -0.12424 0.45198
 C616 C 0.15939 -0.11306 0.43213
 C617 C 0.17847 -0.09600 0.43825
 C618 C 0.18403 -0.09038 0.46387
 C619 C 0.17044 -0.10257 0.48341
 H620 H 0.11695 -0.14809 0.41383
 H621 H 0.08173 -0.17600 0.42622
 H622 H 0.09863 -0.16337 0.50535
 H623 H 0.15493 -0.11715 0.41265
 H624 H 0.18884 -0.08709 0.42304
 H625 H 0.17381 -0.09843 0.50316
 C626 C 0.65201 0.38545 0.97887
 C627 C 0.66501 0.36285 0.97297
 C628 C 0.69151 0.36076 0.97095
 C629 C 0.70519 0.38287 0.97527
 C630 C 0.69225 0.40645 0.98137
 C631 C 0.66522 0.40770 0.98302
 O632 O 0.62685 0.38317 0.98066
 C633 C 0.62390 0.35859 0.97578
 C634 C 0.64666 0.34534 0.97087
 C635 C 0.64805 0.31931 0.96582
 C636 C 0.62504 0.30637 0.96598
 C637 C 0.60124 0.31952 0.97121
 C638 C 0.60078 0.34610 0.97606
 H639 H 0.70131 0.34273 0.96642
 H640 H 0.72585 0.38168 0.97376
 H641 H 0.65482 0.42533 0.98802
 H642 H 0.66621 0.30927 0.96224
 H643 H 0.62585 0.28599 0.96273
 H644 H 0.58301 0.35673 0.98008
 C645 C 0.52221 0.14684 1.14817
 C646 C 0.54738 0.15082 1.14139
 C647 C 0.56747 0.13912 1.15283
 C648 C 0.56137 0.12235 1.17181
 C649 C 0.53552 0.11759 1.17900
 C650 C 0.51571 0.13041 1.16712
 O651 O 0.50604 0.15900 1.13423
 C652 C 0.52135 0.17081 1.11822
 C653 C 0.54682 0.16644 1.12183
 C654 C 0.56614 0.17613 1.10654
 C655 C 0.55894 0.19089 1.08667
 C656 C 0.53275 0.19576 1.08245
 C657 C 0.51373 0.18555 1.09866
 H658 H 0.58714 0.14230 1.14693
 H659 H 0.57683 0.11238 1.18018
 H660 H 0.49579 0.12734 1.17208
 H661 H 0.58606 0.17212 1.10951
 H662 H 0.57382 0.19795 1.07420
 H663 H 0.49361 0.18884 1.09608
 C664 C 0.01552 0.66649 0.62147
 C665 C 0.04095 0.66162 0.62480
 C666 C 0.06035 0.67329 0.61126
 C667 C 0.05326 0.69043 0.59330
 C668 C 0.02711 0.69572 0.58930
 C669 C 0.00803 0.68369 0.60398
 O670 O 0.00009 0.65275 0.63557
 C671 C 0.01614 0.63885 0.64805
 C672 C 0.04136 0.64362 0.64221
 C673 C 0.06136 0.63084 0.65273
 C674 C 0.05511 0.61242 0.67002
 C675 C 0.02922 0.60704 0.67633
 C676 C 0.00948 0.62052 0.66508
 H677 H 0.08026 0.66892 0.61400
 H678 H 0.06821 0.69889 0.58197
 H679 H -0.01209 0.68730 0.60168
 H680 H 0.08107 0.63476 0.64769
 H681 H 0.07044 0.60202 0.67813
 H682 H -0.01043 0.61692 0.66954
 C683 C 0.48718 0.85605 -0.14935
 C684 C 0.51243 0.84883 -0.14823
 C685 C 0.53176 0.85880 -0.16332
 C686 C 0.52481 0.87705 -0.18021
 C687 C 0.49887 0.88499 -0.18176
 C688 C 0.47980 0.87411 -0.16609
 O689 O 0.47194 0.84486 -0.13274
 C690 C 0.48797 0.83035 -0.12084
 C691 C 0.51295 0.83209 -0.12965
 C692 C 0.53299 0.81923 -0.11932
 C693 C 0.52710 0.80408 -0.09895
 C694 C 0.50147 0.80193 -0.08931
 C695 C 0.48163 0.81524 -0.10068
 H696 H 0.55155 0.85305 -0.16185
 H697 H 0.53977 0.88548 -0.19155
 H698 H 0.45985 0.87965 -0.16675
 H699 H 0.55254 0.82119 -0.12636
 H700 H 0.54269 0.79469 -0.09021
 H701 H 0.46189 0.81411 -0.09391
 C702 C 0.99879 0.34284 0.38428
 C703 C 1.02270 0.34157 0.37241
 C704 C 1.04212 0.32572 0.37975
 C705 C 1.03675 0.31056 0.40024
 C706 C 1.01221 0.31151 0.41334
 C707 C 0.99302 0.32813 0.40485
 O708 O 0.98302 0.35916 0.37429
 C709 C 0.99741 0.36851 0.35581
 C710 C 1.02187 0.35841 0.35394
 C711 C 1.04032 0.36590 0.33631
 C712 C 1.03330 0.38460 0.31995
 C713 C 1.00806 0.39526 0.32120
 C714 C 0.98989 0.38692 0.33951
 H715 H 1.06089 0.32522 0.37020
 H716 H 1.05235 0.29908 0.40643
 H717 H 0.97380 0.32923 0.41331
 H718 H 1.05956 0.35789 0.33543
 H719 H 1.04778 0.39109 0.30668
 H720 H 0.97045 0.39441 0.34104
 C721 C 0.51135 0.90620 0.13926
 C722 C 0.53615 0.89896 0.13232
 C723 C 0.55693 0.91150 0.14140
 C724 C 0.55203 0.93246 0.15831
 C725 C 0.52653 0.94054 0.16622
 C726 C 0.50594 0.92674 0.15648
 O727 O 0.49439 0.89205 0.12779
 C728 C 0.50889 0.87545 0.11345
 C729 C 0.53457 0.87880 0.11570
 C730 C 0.55319 0.86346 0.10262
 C731 C 0.54504 0.84386 0.08645
 C732 C 0.51861 0.84016 0.08324
 C733 C 0.50032 0.85631 0.09715
 H734 H 0.57630 0.90536 0.13569
 H735 H 0.56837 0.94161 0.16593
 H736 H 0.48621 0.93230 0.16118
 H737 H 0.57331 0.86635 0.10492
 H738 H 0.55943 0.83140 0.07672
 H739 H 0.48004 0.85439 0.09513
 C740 C 0.01243 0.36217 0.62275
 C741 C 0.03732 0.36180 0.62976
 C742 C 0.05559 0.34426 0.61940
 C743 C 0.04797 0.32649 0.60092
 C744 C 0.02245 0.32657 0.59313
 C745 C 0.00440 0.34462 0.60447
 O746 O -0.00176 0.38077 0.63449
 C747 C 0.01453 0.39238 0.64922
 C748 C 0.03869 0.38153 0.64703
 C749 C 0.05883 0.39103 0.66031
 C750 C 0.05389 0.41263 0.67647
 C751 C 0.02913 0.42427 0.67906
 C752 C 0.00916 0.41380 0.66524
 H753 H 0.07507 0.34435 0.62519
 H754 H 0.06194 0.31264 0.59269
 H755 H -0.01509 0.34545 0.59873
 H756 H 0.07771 0.38220 0.65822
 H757 H 0.06931 0.42020 0.68709
 H758 H -0.00984 0.42240 0.66648
 C759 C 0.49610 0.10213 0.85096
 C760 C 0.52124 0.10870 0.84799
 C761 C 0.53872 0.09570 0.83118
 C762 C 0.52999 0.07492 0.81697
 C763 C 0.50419 0.06754 0.81977
 C764 C 0.48694 0.08159 0.83685
 O765 O 0.48290 0.11658 0.86854
 C766 C 0.50011 0.13258 0.87679
 C767 C 0.52384 0.12855 0.86479
 C768 C 0.54483 0.14270 0.87083
 C769 C 0.54126 0.16176 0.89015
 C770 C 0.51703 0.16625 0.90305
 C771 C 0.49610 0.15149 0.89605
 H772 H 0.55842 0.10120 0.82924
 H773 H 0.54334 0.06454 0.80375
 H774 H 0.46724 0.07626 0.83959
 H775 H 0.56332 0.13913 0.86111
 H776 H 0.55737 0.17310 0.89496
 H777 H 0.47746 0.15422 0.90570
 C778 C 0.99119 0.63487 0.39024
 C779 C 0.99819 0.61359 0.40238
 C780 C 1.00462 0.61427 0.42750
 C781 C 1.00413 0.63793 0.44063
 C782 C 0.99730 0.66030 0.42856
 C783 C 0.99035 0.65867 0.40305
 O784 O 0.98669 0.63003 0.36603
 C785 C 0.99100 0.60517 0.36288
 C786 C 0.99808 0.59429 0.38459
 C787 C 1.00428 0.56870 0.38553
 C788 C 1.00327 0.55365 0.36312
 C789 C 0.99621 0.56431 0.34031
 C790 C 0.98973 0.59048 0.34031
 H791 H 1.01017 0.59724 0.43657
 H792 H 1.00921 0.63887 0.46021
 H793 H 0.98535 0.67545 0.39329
 H794 H 1.00987 0.56063 0.40287
 H795 H 1.00785 0.53361 0.36357
 H796 H 0.98449 0.59920 0.32319
 C797 C 1.13827 0.48521 0.11439
 C798 C 1.13494 0.46002 0.11824
 C799 C 1.14967 0.44093 0.10534
 C800 C 1.16860 0.44803 0.08762
 C801 C 1.17263 0.47404 0.08287
 C802 C 1.15692 0.49278 0.09684
 O803 O 1.12216 0.50037 0.12861
 C804 C 1.10828 0.48432 0.14162
 C805 C 1.11532 0.45940 0.13591
 C806 C 1.10313 0.43941 0.14700
 C807 C 1.08277 0.44536 0.16466
 C808 C 1.07505 0.47093 0.17092
 C809 C 1.08817 0.49070 0.15927
 H810 H 1.14650 0.42119 0.10855
 H811 H 1.17914 0.43290 0.07692
 H812 H 1.15939 0.51282 0.09492
 H813 H 1.10904 0.41994 0.14219
 H814 H 1.07319 0.43004 0.17369
 H815 H 1.08262 0.51036 0.16349
 C816 C 0.59356 -0.01148 0.63855
 C817 C 0.58263 -0.01257 0.61549
 C818 C 0.55696 -0.01749 0.61288
 C819 C 0.54188 -0.02120 0.63499
 C820 C 0.55260 -0.01980 0.65908
 C821 C 0.57890 -0.01498 0.66076
 O822 O 0.61827 -0.00659 0.63689
 C823 C 0.62303 -0.00445 0.61224
 C824 C 0.60183 -0.00784 0.59833
 C825 C 0.60241 -0.00605 0.57222
 C826 C 0.62583 -0.00068 0.55992
 C827 C 0.64808 0.00267 0.57378
 C828 C 0.64656 0.00071 0.60037
 H829 H 0.54879 -0.01822 0.59452
 H830 H 0.52173 -0.02453 0.63341
 H831 H 0.58768 -0.01394 0.67883
 H832 H 0.58548 -0.00876 0.56169
 H833 H 0.62675 0.00038 0.53953
 H834 H 0.66315 0.00330 0.61147
 C835 C -0.14737 0.52376 0.87443
 C836 C -0.15839 0.51454 0.85299
 C837 C -0.18308 0.50563 0.85341
 C838 C -0.19689 0.50611 0.87689
 C839 C -0.18610 0.51582 0.89941
 C840 C -0.16094 0.52506 0.89781
 O841 O -0.12323 0.52997 0.87031
 C842 C -0.11891 0.52459 0.84571
 C843 C -0.13986 0.51532 0.83412
 C844 C -0.13936 0.50823 0.80842
 C845 C -0.11625 0.51060 0.79418
 C846 C -0.09428 0.51944 0.80595
 C847 C -0.09571 0.52667 0.83204
 H848 H -0.19117 0.49792 0.83639
 H849 H -0.21570 0.49817 0.87747
 H850 H -0.15190 0.53287 0.91423
 H851 H -0.15607 0.50093 0.79972
 H852 H -0.11518 0.50490 0.77422
 H853 H -0.07914 0.53342 0.84144
 C854 C 0.39225 0.02423 0.35162
 C855 C 0.38648 0.04868 0.36046
 C856 C 0.39881 0.06941 0.35102
 C857 C 0.41789 0.06478 0.33166
 C858 C 0.42419 0.03972 0.32193
 C859 C 0.41101 0.01917 0.33220
 O860 O 0.37861 0.00721 0.36356
 C861 C 0.36392 0.02126 0.38028
 C862 C 0.36796 0.04675 0.37911
 C863 C 0.35471 0.06486 0.39497
 C864 C 0.33662 0.05635 0.41284
 C865 C 0.33220 0.03009 0.41472
 C866 C 0.34612 0.01235 0.39800
 H867 H 0.39415 0.08847 0.35850
 H868 H 0.42808 0.08076 0.32468
 H869 H 0.41510 -0.00016 0.32526
 H870 H 0.35814 0.08485 0.39360
 H871 H 0.32589 0.07030 0.42503
 H872 H 0.34357 -0.00781 0.39902
 C873 C 0.14760 0.51958 0.88454
 C874 C 0.14249 0.54497 0.88237
 C875 C 0.15435 0.56368 0.89647
 C876 C 0.17218 0.55591 0.91356
 C877 C 0.17797 0.52979 0.91615
 C878 C 0.16541 0.51142 0.90125
 O879 O 0.13393 0.50488 0.86970
 C880 C 0.11988 0.52137 0.85791
 C881 C 0.12444 0.54613 0.86498
 C882 C 0.11178 0.56646 0.85506
 C883 C 0.09363 0.56105 0.83718
 C884 C 0.08832 0.53564 0.82966
 C885 C 0.10183 0.51553 0.84023
 H886 H 0.14983 0.58355 0.89458
 H887 H 0.18105 0.57030 0.92510
 H888 H 0.16941 0.49137 0.90250
 H889 H 0.11580 0.58581 0.86083
 H890 H 0.08395 0.57672 0.82897
 H891 H 0.09814 0.49594 0.83517
 C892 C 0.63318 0.01158 0.34806
 C893 C 0.63774 -0.01390 0.35024
 C894 C 0.62496 -0.03237 0.33679
 C895 C 0.60683 -0.02429 0.32022
 C896 C 0.60190 0.00192 0.31715
 C897 C 0.61533 0.02010 0.33147
 O898 O 0.64666 0.02591 0.36347
 C899 C 0.65997 0.00906 0.37561
 C900 C 0.65522 -0.01555 0.36810
 C901 C 0.66630 -0.03627 0.37886
 C902 C 0.68258 -0.03145 0.39858
 C903 C 0.68738 -0.00626 0.40720
 C904 C 0.67626 0.01431 0.39515
 H905 H 0.62854 -0.05231 0.33923
 H906 H 0.59632 -0.03856 0.31013
 H907 H 0.61210 0.04020 0.32971
 H908 H 0.66215 -0.05546 0.37266
 H909 H 0.69110 -0.04735 0.40749
 H910 H 0.67919 0.03370 0.40162
 C911 C 0.84593 0.49147 0.12605
 C912 C 0.84925 0.46615 0.13009
 C913 C 0.83916 0.44719 0.11484
 C914 C 0.82511 0.45461 0.09452
 C915 C 0.82146 0.48061 0.08977
 C916 C 0.83191 0.49931 0.10598
 O917 O 0.85792 0.50635 0.14225
 C918 C 0.86906 0.49004 0.15678
 C919 C 0.86427 0.46523 0.15014
 C920 C 0.87478 0.44501 0.16216
 C921 C 0.89119 0.45054 0.18164
 C922 C 0.89675 0.47599 0.18882
 C923 C 0.88517 0.49601 0.17626
 H924 H 0.84215 0.42739 0.11834
 H925 H 0.81695 0.44008 0.08255
 H926 H 0.82975 0.51926 0.10270
 H927 H 0.87101 0.42563 0.15632
 H928 H 0.90028 0.43488 0.19041
 H929 H 0.88893 0.51562 0.18114
 C930 C 0.35682 -0.02028 0.65759
 C931 C 0.35228 -0.04514 0.65092
 C932 C 0.36301 -0.06525 0.66294
 C933 C 0.37941 -0.05955 0.68239
 C934 C 0.38478 -0.03404 0.68956
 C935 C 0.37290 -0.01414 0.67706
 O936 O 0.34572 -0.00408 0.64293
 C937 C 0.33403 -0.01907 0.62660
 C938 C 0.33746 -0.04436 0.63068
 C939 C 0.32793 -0.06341 0.61510
 C940 C 0.31442 -0.05609 0.59435
 C941 C 0.31070 -0.03011 0.58958
 C942 C 0.32048 -0.01135 0.60618
 H943 H 0.35947 -0.08468 0.65707
 H944 H 0.38872 -0.07513 0.69109
 H945 H 0.37649 0.00552 0.68189
 H946 H 0.33107 -0.08320 0.61858
 H947 H 0.30685 -0.07065 0.58198
 H948 H 0.31834 0.00859 0.60281
   
