data_POSCAR
  _audit_creation_date              2014-09-24
  _audit_creation_method            'ToBaCCo'
  _symmetry_space_group_name_H-M    'P1'
  _symmetry_Int_Tables_number       1
  _symmetry_cell_setting            triclinic
  loop_
  _symmetry_equiv_pos_as_xyz
 x,y,z
_cell_length_a 21.5473
_cell_length_b 21.2405
_cell_length_c 21.7060
_cell_angle_alpha 90.632200
_cell_angle_beta 90.474800
_cell_angle_gamma 90.019600
loop_
  _atom_site_label
  _atom_site_type_symbol
  _atom_site_fract_x
  _atom_site_fract_y
  _atom_site_fract_z
N1 N 0.22586 0.21675 0.21576
 N2 N -0.23163 0.76966 0.23537
 N3 N -0.23055 0.22536 -0.21834
 N4 N 0.22051 0.77801 -0.22087
 N5 N 0.20298 1.21638 0.79024
 N6 N 0.76978 0.78159 0.75571
 N7 N 0.22827 0.77800 1.21586
 N8 N 0.79874 1.22163 1.22068
 O9 O 0.55011 0.93922 0.88590
 O10 O 0.45848 0.93264 1.10917
 O11 O 0.60726 0.91694 1.02709
 O12 O 0.40083 0.91599 0.97649
 O13 O 0.57063 0.94288 1.11310
 O14 O 0.43541 0.94105 0.88907
 O15 O 0.37674 0.97453 1.06998
 O16 O 0.63224 0.97478 0.93379
 C17 C 0.60816 0.93925 0.89367
 C18 C 0.40044 0.93396 1.10387
 C19 C 0.60337 0.90641 1.08286
 C20 C 0.40291 0.90521 0.92022
 O21 O 0.43055 1.06478 0.90440
 O22 O 0.56989 1.06660 1.10018
 O23 O 0.60305 1.08158 0.97670
 O24 O 0.40750 1.08145 1.02571
 O25 O 0.45090 1.05993 1.11220
 O26 O 0.55094 1.06471 0.89146
 O27 O 0.34812 1.02262 0.95218
 O28 O 0.65541 1.02529 1.05688
 Co29 Co 0.49309 1.00208 0.90273
 Co30 Co 0.51099 1.00028 1.09932
 Co31 Co 0.59632 0.99976 1.00502
 Co32 Co 0.41126 0.99866 0.99924
 O33 O 0.50297 0.99528 1.00164
 C34 C 0.37097 1.06034 0.91069
 C35 C 0.63000 1.06393 1.09640
 C36 C 0.59227 1.09459 0.92115
 C37 C 0.41448 1.09361 1.08151
 O38 O 0.07447 0.43769 0.08168
 O39 O 0.05969 0.55242 -0.11812
 O40 O 0.08062 0.42036 -0.02993
 O41 O 0.03111 0.63366 0.05121
 O42 O 0.04146 0.43601 -0.11790
 O43 O 0.08505 0.55387 0.08389
 O44 O 0.02184 0.63241 -0.06393
 O45 O 0.02859 0.35210 0.04393
 C46 C 0.06734 0.37793 0.08403
 C47 C 0.06034 0.60995 -0.10285
 C48 C 0.08370 0.41230 -0.08651
 C49 C 0.07903 0.61202 0.07787
 O50 O -0.02836 0.56791 0.12814
 O51 O -0.07979 0.45795 -0.10690
 O52 O -0.07492 0.40743 0.03594
 O53 O -0.10149 0.60004 -0.04994
 O54 O -0.05572 0.57110 -0.13026
 O55 O -0.04456 0.45042 0.11943
 O56 O -0.08969 0.59575 0.05647
 O57 O -0.03506 0.38012 -0.06142
 Co58 Co 0.01816 0.50298 0.09291
 Co59 Co -0.00885 0.50398 -0.10694
 Co60 Co 0.00195 0.41954 0.00413
 Co61 Co -0.03193 0.60704 -0.00201
 O62 O -0.00834 0.51123 -0.00592
 C63 C -0.07687 0.59572 0.11167
 C64 C -0.07819 0.40063 -0.09502
 C65 C -0.08079 0.41300 0.09240
 C66 C -0.09869 0.60058 -0.10627
 O67 O 1.12314 0.06808 0.44680
 O68 O 0.91588 0.07644 0.56800
 O69 O 0.95287 0.03706 0.37954
 O70 O 1.02665 0.08785 0.58951
 O71 O 0.92136 0.09328 0.45597
 O72 O 1.11865 0.05950 0.56399
 O73 O 0.95127 0.02919 0.65080
 O74 O 1.06485 0.02561 0.37349
 C75 C 1.10603 0.06495 0.39122
 C76 C 0.90941 0.06610 0.62553
 C77 C 0.92848 0.08692 0.39932
 C78 C 1.08391 0.09631 0.59319
 O79 O 1.11881 -0.06463 0.55158
 O80 O 0.87541 -0.02208 0.43350
 O81 O 1.05105 -0.09768 0.40773
 O82 O 0.96622 -0.07349 0.59253
 O83 O 0.88330 -0.04521 0.54646
 O84 O 1.13346 -0.05180 0.43765
 O85 O 1.06342 -0.02456 0.62512
 O86 O 0.94656 -0.08659 0.42153
 Co87 Co 1.11248 0.00260 0.50025
 Co88 Co 0.90954 0.02240 0.50060
 Co89 Co 1.00343 -0.02708 0.40316
 Co90 Co 0.99555 0.00655 0.58497
 O91 O 1.01004 -0.00141 0.49442
 C92 C 1.10312 -0.06370 0.60687
 C93 C 0.89167 -0.07479 0.41364
 C94 C 1.10808 -0.09524 0.40761
 C95 C 0.91025 -0.08254 0.58216
 C96 C 1.19585 0.17315 0.26193
 C97 C 1.13452 0.14251 0.23897
 C98 C 1.10429 0.10840 0.28185
 C99 C 1.13803 0.10526 0.34426
 C100 C 1.20317 0.08110 0.32879
 C101 C 1.23367 0.11603 0.28630
 C102 C 1.17971 0.20865 0.32217
 C103 C 1.14824 0.17397 0.36413
 H104 H 1.11668 0.14591 0.19232
 H105 H 1.06084 0.08451 0.27143
 H106 H 1.22381 0.03986 0.34954
 H107 H 1.27905 0.10103 0.27174
 H108 H 1.19248 0.25739 0.33095
 H109 H 1.13400 0.19318 0.40836
 C110 C 0.79757 -0.18681 0.28432
 C111 C 0.80081 -0.21645 0.34928
 C112 C 0.83048 -0.18003 0.39340
 C113 C 0.85384 -0.11644 0.36934
 C114 C 0.89389 -0.13558 0.31435
 C115 C 0.86493 -0.16851 0.26980
 C116 C 0.76553 -0.12238 0.29896
 C117 C 0.79588 -0.08569 0.34158
 H118 H 0.78002 -0.26155 0.35988
 H119 H 0.83511 -0.19433 0.44106
 H120 H 0.94373 -0.13915 0.31619
 H121 H 0.89289 -0.18767 0.23330
 H122 H 0.72137 -0.10659 0.28111
 H123 H 0.77757 -0.04072 0.35720
 C124 C 0.80884 0.18419 0.73923
 C125 C 0.77515 0.16729 0.67825
 C126 C 0.80686 0.12673 0.64076
 C127 C 0.87126 0.10866 0.66580
 C128 C 0.90358 0.17141 0.67787
 C129 C 0.87168 0.21122 0.71524
 C130 C 0.82797 0.12055 0.76777
 C131 C 0.85972 0.08179 0.72981
 H132 H 0.73029 0.18656 0.66539
 H133 H 0.78859 0.11133 0.59648
 H134 H 0.94780 0.18391 0.65808
 H135 H 0.89249 0.25612 0.72579
 H136 H 0.82038 0.10752 0.81514
 H137 H 0.87837 0.03782 0.74630
 C138 C 1.19122 -0.17712 0.73319
 C139 C 1.17792 -0.20960 0.67054
 C140 C 1.14721 -0.17307 0.62901
 C141 C 1.13495 -0.10573 0.65224
 C142 C 1.09919 -0.11322 0.71235
 C143 C 1.12845 -0.14921 0.75452
 C144 C 1.22883 -0.11795 0.71327
 C145 C 1.19880 -0.08088 0.67188
 H146 H 1.19226 -0.25742 0.65973
 H147 H 1.13509 -0.18986 0.58304
 H148 H 1.05493 -0.09094 0.72193
 H149 H 1.10877 -0.15542 0.79972
 H150 H 1.27436 -0.10393 0.72912
 H151 H 1.21906 -0.03789 0.65432
 C152 C 0.27729 1.18858 1.17703
 C153 C 0.26022 1.12365 1.15019
 C154 C 0.30584 1.09579 1.11792
 C155 C 0.36667 1.13286 1.11524
 C156 C 0.34745 1.19597 1.08764
 C157 C 0.30114 1.22572 1.11977
 C158 C 0.33771 1.17922 1.21411
 C159 C 0.38353 1.14891 1.18269
 H160 H 0.21408 1.10345 1.15107
 H161 H 0.29581 1.05515 1.08945
 H162 H 0.36839 1.21577 1.04687
 H163 H 0.28440 1.27065 1.10408
 H164 H 0.34426 1.19654 1.26096
 H165 H 0.42903 1.14079 1.20292
 C166 C 0.26940 0.80670 0.82123
 C167 C 0.29121 0.77087 0.88022
 C168 C 0.33632 0.80161 0.91395
 C169 C 0.35591 0.86461 0.88631
 C170 C 0.37543 0.84704 0.82028
 C171 C 0.33102 0.81588 0.78715
 C172 C 0.25065 0.87169 0.84647
 C173 C 0.29530 0.90159 0.87877
 H174 H 0.27563 0.72519 0.89479
 H175 H 0.35878 0.78048 0.95340
 H176 H 0.42158 0.85501 0.80224
 H177 H 0.33932 0.79784 0.74096
 H178 H 0.20520 0.89269 0.84099
 H179 H 0.28621 0.94746 0.89815
 C180 C 0.72566 0.80196 1.18911
 C181 C 0.70783 0.76828 1.12657
 C182 C 0.66719 0.80139 1.09014
 C183 C 0.64738 0.86439 1.11849
 C184 C 0.62182 0.84689 1.18209
 C185 C 0.66195 0.81413 1.21798
 C186 C 0.74942 0.86650 1.16727
 C187 C 0.70861 0.89892 1.13212
 H188 H 0.72791 0.72582 1.10790
 H189 H 0.65303 0.78543 1.04447
 H190 H 0.57473 0.85685 1.19674
 H191 H 0.64910 0.79689 1.26301
 H192 H 0.79545 0.88491 1.17694
 H193 H 0.72066 0.94431 1.11347
 C194 C 0.72092 1.19076 0.81852
 C195 C 0.74320 1.17074 0.88345
 C196 C 0.69982 1.14185 0.91744
 C197 C 0.63721 1.13363 0.88507
 C198 C 0.61767 1.20001 0.86550
 C199 C 0.66100 1.22948 0.82979
 C200 C 0.69442 1.12957 0.78910
 C201 C 0.65226 1.10003 0.82412
 H202 H 0.78930 1.17734 0.90216
 H203 H 0.70980 1.12583 0.96345
 H204 H 0.57318 1.22097 0.87663
 H205 H 0.65291 1.27551 0.81005
 H206 H 0.70314 1.11120 0.74359
 H207 H 0.62707 1.05951 0.80672
 C208 C 0.18167 0.26013 0.18216
 C209 C 0.16204 0.23565 0.11757
 C210 C 0.12625 0.27579 0.08516
 C211 C 0.11052 0.33684 0.11980
 C212 C 0.08210 0.31618 0.18048
 C213 C 0.11887 0.27703 0.21364
 C214 C 0.21003 0.32590 0.17185
 C215 C 0.17349 0.36556 0.13832
 H216 H 0.17404 0.19019 0.09832
 H217 H 0.11025 0.26437 0.03881
 H218 H 0.03778 0.33304 0.19746
 H219 H 0.10284 0.26193 0.25796
 H220 H 0.25484 0.34023 0.19043
 H221 H 0.18736 0.41339 0.12797
 C222 C -0.19380 0.27369 -0.18201
 C223 C -0.13368 0.24624 -0.15413
 C224 C -0.09726 0.28830 -0.12514
 C225 C -0.12209 0.35567 -0.12593
 C226 C -0.13499 0.37072 -0.19388
 C227 C -0.17424 0.32938 -0.22225
 C228 C -0.22470 0.30839 -0.12633
 C229 C -0.18659 0.35099 -0.09709
 H230 H -0.12255 0.19670 -0.15192
 H231 H -0.05905 0.27229 -0.09688
 H232 H -0.11781 0.41236 -0.21675
 H233 H -0.19054 0.33576 -0.26923
 H234 H -0.27144 0.30206 -0.11020
 H235 H -0.20142 0.37935 -0.05803
 C236 C 0.17621 0.73292 -0.19068
 C237 C 0.20617 0.66842 -0.17774
 C238 C 0.16897 0.62762 -0.14696
 C239 C 0.10382 0.65376 -0.13418
 C240 C 0.11433 0.71567 -0.09891
 C241 C 0.15160 0.75676 -0.12796
 C242 C 0.11643 0.71367 -0.22731
 C243 C 0.07892 0.67317 -0.19720
 H244 H 0.25252 0.65570 -0.19261
 H245 H 0.18374 0.58038 -0.13513
 H246 H 0.09183 0.72782 -0.05603
 H247 H 0.16012 0.80316 -0.10866
 H248 H 0.10246 0.72909 -0.27242
 H249 H 0.03558 0.65592 -0.21700
 C250 C -0.18865 0.72047 0.20784
 C251 C -0.13649 0.69182 0.24988
 C252 C -0.09820 0.64943 0.22041
 C253 C -0.11581 0.63833 0.15257
 C254 C -0.18463 0.61874 0.15453
 C255 C -0.22203 0.66045 0.18495
 C256 C -0.15398 0.74579 0.15187
 C257 C -0.11512 0.70456 0.12556
 H258 H -0.13051 0.70136 0.29853
 H259 H -0.06088 0.62483 0.24381
 H260 H -0.20166 0.57377 0.13718
 H261 H -0.27070 0.65091 0.19338
 H262 H -0.15303 0.79483 0.13890
 H263 H -0.07894 0.72193 0.09641
 C264 C 1.16818 0.19220 0.73890
 C265 C 1.11216 0.22975 0.71050
 C266 C 1.08362 0.19981 0.66128
 C267 C 1.11280 0.13596 0.64443
 C268 C 1.18142 0.15191 0.63378
 C269 C 1.20937 0.18270 0.68171
 C270 C 1.13800 0.12819 0.75317
 C271 C 1.11158 0.09880 0.70441
 H272 H 1.09511 0.27514 0.72553
 H273 H 1.04596 0.22100 0.63541
 H274 H 1.20499 0.14373 0.59041
 H275 H 1.25664 0.20012 0.67903
 H276 H 1.13633 0.10786 0.79874
 H277 H 1.08930 0.05358 0.70955
 C278 C 0.80971 -0.18726 0.70717
 C279 C 0.83751 -0.12467 0.72999
 C280 C 0.86966 -0.09330 0.68751
 C281 C 0.87341 -0.12514 0.62418
 C282 C 0.90026 -0.19045 0.63789
 C283 C 0.86707 -0.22346 0.68060
 C284 C 0.77320 -0.17194 0.64764
 C285 C 0.80567 -0.13827 0.60528
 H286 H 0.83706 -0.10810 0.77727
 H287 H 0.89613 -0.05273 0.70093
 H288 H 0.94088 -0.20965 0.61520
 H289 H 0.88155 -0.27042 0.69251
 H290 H 0.72603 -0.18791 0.63900
 H291 H 0.78607 -0.12584 0.56082
 C292 C 1.20146 -0.19054 0.26828
 C293 C 1.13769 -0.16230 0.25206
 C294 C 1.10807 -0.13507 0.29902
 C295 C 1.14369 -0.13343 0.36016
 C296 C 1.15903 -0.20293 0.37287
 C297 C 1.19071 -0.23231 0.32565
 C298 C 1.23730 -0.13377 0.29921
 C299 C 1.20659 -0.10433 0.34538
 H300 H 1.11474 -0.16641 0.20770
 H301 H 1.06002 -0.12377 0.29318
 H302 H 1.14907 -0.22589 0.41609
 H303 H 1.20777 -0.28022 0.32922
 H304 H 1.28371 -0.11773 0.29035
 H305 H 1.22831 -0.06720 0.37263
 C306 C 0.83649 0.19354 0.26754
 C307 C 0.89584 0.22739 0.29457
 C308 C 0.92705 0.19327 0.33876
 C309 C 0.89665 0.12956 0.35294
 C310 C 0.82975 0.14669 0.36996
 C311 C 0.79963 0.18187 0.32706
 C312 C 0.86332 0.12964 0.24600
 C313 C 0.89207 0.09641 0.28982
 H314 H 0.91428 0.27232 0.28079
 H315 H 0.96940 0.20990 0.36093
 H316 H 0.80901 0.13575 0.41394
 H317 H 0.75337 0.20046 0.33475
 H318 H 0.86268 0.11251 0.19885
 H319 H 0.91372 0.05175 0.27817
 C320 C 0.17749 0.26698 -0.17449
 C321 C 0.20967 0.28860 -0.11229
 C322 C 0.18019 0.33715 -0.08225
 C323 C 0.12243 0.36092 -0.11625
 C324 C 0.14575 0.37735 -0.18086
 C325 C 0.17533 0.32918 -0.21046
 C326 C 0.11055 0.25346 -0.15441
 C327 C 0.08247 0.30198 -0.12542
 H328 H 0.25027 0.26817 -0.09103
 H329 H 0.19639 0.35624 -0.03839
 H330 H 0.14211 0.42403 -0.20042
 H331 H 0.19673 0.33507 -0.25514
 H332 H 0.08790 0.20807 -0.15940
 H333 H 0.03714 0.29677 -0.10602
 C334 C -0.17479 0.27191 0.18618
 C335 C -0.16611 0.33341 0.22438
 C336 C -0.13570 0.38075 0.19454
 C337 C -0.11833 0.36438 0.12771
 C338 C -0.08109 0.30301 0.13235
 C339 C -0.11002 0.25552 0.16112
 C340 C -0.20972 0.29665 0.12752
 C341 C -0.17989 0.34418 0.09761
 H342 H -0.18354 0.33942 0.27085
 H343 H -0.12748 0.42657 0.21567
 H344 H -0.03544 0.29593 0.11370
 H345 H -0.08828 0.20971 0.16468
 H346 H -0.25253 0.27888 0.10803
 H347 H -0.19855 0.36533 0.05615
 C348 C -0.19728 0.73285 -0.20504
 C349 C -0.18908 0.66948 -0.23957
 C350 C -0.15656 0.62506 -0.20765
 C351 C -0.13647 0.64680 -0.14280
 C352 C -0.09994 0.70764 -0.15235
 C353 C -0.13128 0.75240 -0.18375
 C354 C -0.22900 0.71178 -0.14420
 C355 C -0.19682 0.66772 -0.11202
 H356 H -0.20840 0.66014 -0.28510
 H357 H -0.14808 0.57812 -0.22599
 H358 H -0.05341 0.71567 -0.13431
 H359 H -0.11077 0.79819 -0.19089
 H360 H -0.27204 0.72883 -0.12552
 H361 H -0.21352 0.64891 -0.06889
 C362 C 0.18997 0.73464 0.18140
 C363 C 0.16046 0.76339 0.12252
 C364 C 0.12570 0.72287 0.08783
 C365 C 0.12188 0.65620 0.11355
 C366 C 0.18980 0.63520 0.12230
 C367 C 0.22475 0.67522 0.15853
 C368 C 0.13291 0.70484 0.21466
 C369 C 0.09818 0.66532 0.17908
 H370 H 0.16456 0.81246 0.10997
 H371 H 0.10070 0.73814 0.04724
 H372 H 0.20833 0.59171 0.10328
 H373 H 0.27274 0.66520 0.17047
 H374 H 0.11684 0.71414 0.26065
 H375 H 0.05656 0.64289 0.19629
 C376 C 0.24687 1.17530 0.81888
 C377 C 0.26743 1.11356 0.78378
 C378 C 0.30832 1.07717 0.81506
 C379 C 0.32722 1.10397 0.87768
 C380 C 0.35150 1.17042 0.86414
 C381 C 0.31024 1.20703 0.83242
 C382 C 0.22403 1.15001 0.88119
 C383 C 0.26587 1.11451 0.91196
 H384 H 0.25169 1.09604 0.73956
 H385 H 0.32542 1.03272 0.79666
 H386 H 0.39777 1.18662 0.87652
 H387 H 0.32178 1.25420 0.81753
 H388 H 0.17830 1.15897 0.89981
 H389 H 0.25542 1.09545 0.95686
 C390 C 0.27381 0.81305 1.18315
 C391 C 0.29567 0.79181 1.11774
 C392 C 0.33882 0.83129 1.09262
 C393 C 0.35754 0.88746 1.13418
 C394 C 0.29631 0.91975 1.14986
 C395 C 0.25254 0.88152 1.17155
 C396 C 0.33685 0.81659 1.21833
 C397 C 0.37945 0.85686 1.19401
 H398 H 0.28057 0.75070 1.09202
 H399 H 0.35982 0.82202 1.04846
 H400 H 0.28643 0.96884 1.14248
 H401 H 0.20596 0.89913 1.17835
 H402 H 0.34703 0.78878 1.25885
 H403 H 0.42552 0.86330 1.21367
 C404 C 0.75341 1.18138 1.19113
 C405 C 0.68961 1.21266 1.17889
 C406 C 0.64811 1.17566 1.14642
 C407 C 0.67252 1.10918 1.13106
 C408 C 0.73395 1.12009 1.09723
 C409 C 0.77526 1.15672 1.12782
 C410 C 0.73271 1.11933 1.22481
 C411 C 0.69185 1.08267 1.19294
 H412 H 0.67776 1.25951 1.19544
 H413 H 0.60149 1.19135 1.13519
 H414 H 0.74676 1.09734 1.05442
 H415 H 0.82106 1.16466 1.10922
 H416 H 0.74801 1.10171 1.26867
 H417 H 0.67469 1.03836 1.21069
 C418 C 0.72604 0.82556 0.79052
 C419 C 0.75310 0.85078 0.85218
 C420 C 0.71374 0.88673 0.88566
 C421 C 0.64983 0.89669 0.85551
 C422 C 0.66372 0.92250 0.79154
 C423 C 0.70287 0.88607 0.75750
 C424 C 0.66396 0.79364 0.80722
 C425 C 0.62514 0.82994 0.84237
 H426 H 0.79984 0.84187 0.86853
 H427 H 0.72751 0.90658 0.93001
 H428 H 0.64076 0.96300 0.77205
 H429 H 0.71237 0.89972 0.71092
 H430 H 0.65144 0.74649 0.79185
 H431 H 0.57995 0.81354 0.85700
   
