data_POSCAR
  _audit_creation_date              2014-09-24
  _audit_creation_method            'ToBaCCo'
  _symmetry_space_group_name_H-M    'P1'
  _symmetry_Int_Tables_number       1
  _symmetry_cell_setting            triclinic
  loop_
  _symmetry_equiv_pos_as_xyz
 x,y,z
_cell_length_a 27.1405
_cell_length_b 29.2776
_cell_length_c 35.7877
_cell_angle_alpha 90.145500
_cell_angle_beta 89.966000
_cell_angle_gamma 89.980900
loop_
  _atom_site_label
  _atom_site_type_symbol
  _atom_site_fract_x
  _atom_site_fract_y
  _atom_site_fract_z
Zr1 Zr 0.24475 0.25577 0.31486
 O2 O 0.28469 0.29087 0.35687
 O3 O 0.19623 0.21642 0.34713
 O4 O 0.19964 0.30211 0.34446
 O5 O 0.32623 0.16592 0.30240
 O6 O 0.16080 0.34365 0.29925
 O7 O 0.29019 0.21170 0.34641
 O8 O 0.14559 0.18472 0.30331
 O9 O 0.18025 0.26271 0.28320
 O10 O 0.23805 0.19563 0.28358
 O11 O 0.25455 0.31502 0.28254
 O12 O 0.31056 0.25019 0.28374
 Zr13 Zr 0.24853 0.25569 0.18467
 Zr14 Zr 0.19165 0.31960 0.24863
 Zr15 Zr 0.30102 0.19150 0.25054
 Zr16 Zr 0.17545 0.20372 0.25088
 O17 O 0.37891 0.18877 0.24990
 O18 O 0.10051 0.22418 0.25078
 O19 O 0.23804 0.19584 0.21659
 O20 O 0.18308 0.26071 0.21596
 O21 O 0.25518 0.31621 0.21547
 O22 O 0.31230 0.24863 0.21691
 C23 C 0.15950 0.19136 0.33737
 C24 C 0.31851 0.17843 0.33652
 C25 C 0.16901 0.33306 0.33365
 O26 O 0.11416 0.32268 0.24258
 O27 O 0.17400 0.35042 0.19667
 O28 O 0.20935 0.30421 0.15278
 C29 C 0.18325 0.33911 0.16243
 O30 O 0.35204 0.33003 0.29900
 Zr31 Zr 0.31733 0.30765 0.24899
 O32 O 0.29860 0.29394 0.15280
 O33 O 0.20636 0.39032 0.25349
 O34 O 0.31396 0.38000 0.24859
 O35 O 0.39351 0.29155 0.24764
 O36 O 0.34564 0.32931 0.19705
 C37 C 0.33369 0.32076 0.16292
 O38 O 0.20536 0.22361 0.14290
 O39 O 0.28575 0.12064 0.25199
 O40 O 0.28978 0.20683 0.15465
 O41 O 0.32202 0.16034 0.19957
 O42 O 0.17496 0.13134 0.25311
 O43 O 0.14364 0.17589 0.20158
 C44 C 0.31521 0.17197 0.16522
 H45 H 0.23543 0.16780 0.29909
 H46 H 0.15404 0.26316 0.19936
 H47 H 0.34256 0.24473 0.20178
 H48 H 0.25794 0.34232 0.29872
 H49 H 0.08058 0.19733 0.25820
 H50 H 0.10490 0.35539 0.24386
 H51 H 0.17429 0.40620 0.25102
 H52 H 0.34723 0.39135 0.24196
 H53 H 0.14105 0.12169 0.25969
 H54 H 0.31795 0.10476 0.25343
 H55 H 0.38802 0.15600 0.24939
 H56 H 0.41161 0.32006 0.24181
 H57 H 0.11259 0.15999 0.20801
 H58 H 0.21907 0.23280 0.11834
 H59 H 0.27130 0.28100 0.38137
 H60 H 0.37631 0.35419 0.29305
 Zr61 Zr 0.75434 0.75507 0.31050
 O62 O 0.71009 0.72395 0.35197
 O63 O 0.80399 0.79207 0.34362
 O64 O 0.79486 0.70654 0.34166
 O65 O 0.67563 0.84600 0.29312
 O66 O 0.83386 0.66288 0.29757
 O67 O 0.71051 0.80403 0.33971
 O68 O 0.85778 0.82101 0.30077
 O69 O 0.81987 0.74464 0.28045
 O70 O 0.76538 0.81388 0.27859
 O71 O 0.74365 0.69539 0.27837
 O72 O 0.69050 0.76182 0.27738
 Zr73 Zr 0.75664 0.75177 0.17985
 Zr74 Zr 0.80768 0.68752 0.24594
 Zr75 Zr 0.70445 0.81890 0.24355
 Zr76 Zr 0.82904 0.80258 0.24768
 O77 O 0.62682 0.82481 0.24017
 O78 O 0.90296 0.77922 0.24938
 O79 O 0.76862 0.81184 0.21138
 O80 O 0.82035 0.74526 0.21299
 O81 O 0.74601 0.69227 0.21115
 O82 O 0.69191 0.76157 0.21043
 C83 C 0.84247 0.81515 0.33460
 C84 C 0.68194 0.83631 0.32777
 C85 C 0.82423 0.67399 0.33168
 O86 O 0.88528 0.68158 0.24277
 O87 O 0.82725 0.65531 0.19460
 O88 O 0.79558 0.70168 0.14947
 C89 C 0.82010 0.66632 0.16001
 O90 O 0.64490 0.68353 0.29234
 Zr91 Zr 0.68290 0.70377 0.24314
 O92 O 0.70686 0.71382 0.14729
 O93 O 0.78965 0.61746 0.25042
 O94 O 0.68335 0.63136 0.24377
 O95 O 0.60765 0.72292 0.23975
 O96 O 0.65615 0.68171 0.19082
 C97 C 0.67018 0.68862 0.15692
 O98 O 0.80241 0.78191 0.13881
 O99 O 0.72307 0.88908 0.24508
 O100 O 0.71737 0.80063 0.14837
 O101 O 0.68680 0.84955 0.19235
 O102 O 0.83230 0.87493 0.24950
 O103 O 0.86454 0.82842 0.19918
 C104 C 0.69293 0.83642 0.15838
 H105 H 0.76847 0.84196 0.29386
 H106 H 0.85005 0.74139 0.19722
 H107 H 0.66239 0.76605 0.19464
 H108 H 0.73823 0.66857 0.29466
 H109 H 0.92380 0.80533 0.25718
 H110 H 0.89303 0.64856 0.24437
 H111 H 0.82111 0.60037 0.24904
 H112 H 0.65004 0.62094 0.23631
 H113 H 0.86612 0.88352 0.25723
 H114 H 0.69167 0.90636 0.24519
 H115 H 0.61910 0.85786 0.23876
 H116 H 0.58852 0.69512 0.23344
 H117 H 0.89563 0.84373 0.20646
 H118 H 0.78930 0.77268 0.11405
 H119 H 0.72290 0.73426 0.37654
 H120 H 0.61954 0.66055 0.28583
 Zr121 Zr 0.74809 0.24208 -0.31119
 O122 O 0.70463 0.27419 -0.35261
 O123 O 0.79617 0.20385 -0.34472
 O124 O 0.78981 0.28953 -0.34280
 O125 O 0.66730 0.15249 -0.29296
 O126 O 0.83025 0.33208 -0.29888
 O127 O 0.70198 0.19477 -0.33948
 O128 O 0.85047 0.17482 -0.30228
 O129 O 0.81418 0.25086 -0.28178
 O130 O 0.75813 0.18295 -0.27942
 O131 O 0.73885 0.30188 -0.27917
 O132 O 0.68456 0.23639 -0.27753
 Zr133 Zr 0.75214 0.24520 -0.18071
 Zr134 Zr 0.80346 0.30813 -0.24743
 Zr135 Zr 0.69761 0.17901 -0.24378
 Zr136 Zr 0.82239 0.19284 -0.24897
 O137 O 0.61994 0.17453 -0.23950
 O138 O 0.89693 0.21440 -0.25066
 O139 O 0.76232 0.18481 -0.21217
 O140 O 0.81549 0.25041 -0.21438
 O141 O 0.74230 0.30475 -0.21206
 O142 O 0.68671 0.23659 -0.21060
 C143 C 0.83475 0.18081 -0.33594
 C144 C 0.67308 0.16284 -0.32751
 C145 C 0.82033 0.32121 -0.33292
 O146 O 0.88120 0.31271 -0.24462
 O147 O 0.82392 0.33978 -0.19666
 O148 O 0.79154 0.29515 -0.15072
 C149 C 0.81665 0.32976 -0.16199
 O150 O 0.64004 0.31520 -0.29217
 Zr151 Zr 0.67846 0.29452 -0.24331
 O152 O 0.70381 0.28394 -0.14763
 O153 O 0.78705 0.37854 -0.25203
 O154 O 0.68033 0.36691 -0.24406
 O155 O 0.60289 0.27681 -0.23907
 O156 O 0.65330 0.31722 -0.19069
 C157 C 0.66774 0.30999 -0.15694
 O158 O 0.79841 0.21463 -0.14024
 O159 O 0.71471 0.10850 -0.24568
 O160 O 0.71281 0.19710 -0.14876
 O161 O 0.68046 0.14867 -0.19232
 O162 O 0.82391 0.12047 -0.25145
 O163 O 0.85749 0.16593 -0.20073
 C164 C 0.68766 0.16167 -0.15844
 H165 H 0.76039 0.15487 -0.29480
 H166 H 0.84545 0.25379 -0.19885
 H167 H 0.65740 0.23264 -0.19447
 H168 H 0.73390 0.32877 -0.29546
 H169 H 0.91704 0.18786 -0.25867
 H170 H 0.88966 0.34558 -0.24609
 H171 H 0.81888 0.39503 -0.25073
 H172 H 0.64733 0.37791 -0.23630
 H173 H 0.85745 0.11130 -0.25948
 H174 H 0.68296 0.09180 -0.24521
 H175 H 0.61159 0.14163 -0.23791
 H176 H 0.58451 0.30496 -0.23249
 H177 H 0.88783 0.14948 -0.20824
 H178 H 0.78592 0.22404 -0.11532
 H179 H 0.71690 0.26330 -0.37720
 H180 H 0.61532 0.33872 -0.28547
 Zr181 Zr 0.25185 0.75080 -0.32004
 O182 O 0.28729 0.71378 -0.36333
 O183 O 0.20643 0.79536 -0.35079
 O184 O 0.20192 0.70839 -0.34946
 O185 O 0.34921 0.82458 -0.30792
 O186 O 0.16072 0.66953 -0.30395
 O187 O 0.29988 0.79170 -0.35180
 O188 O 0.15783 0.82593 -0.30548
 O189 O 0.18784 0.74936 -0.28755
 O190 O 0.25298 0.81070 -0.28811
 O191 O 0.25671 0.69046 -0.28841
 O192 O 0.31855 0.74895 -0.28954
 Zr193 Zr 0.25799 0.74816 -0.18976
 Zr194 Zr 0.19431 0.69117 -0.25402
 Zr195 Zr 0.31685 0.80770 -0.25579
 Zr196 Zr 0.19058 0.80781 -0.25437
 O197 O 0.39461 0.80434 -0.25215
 O198 O 0.11360 0.79667 -0.24977
 O199 O 0.25429 0.80911 -0.22109
 O200 O 0.19209 0.74972 -0.22045
 O201 O 0.25793 0.68781 -0.22117
 O202 O 0.32201 0.74966 -0.22237
 C203 C 0.17021 0.82069 -0.34000
 C204 C 0.33720 0.81637 -0.34232
 C205 C 0.16924 0.67939 -0.33835
 O206 O 0.11694 0.69543 -0.24745
 O207 O 0.17498 0.66133 -0.20274
 O208 O 0.21393 0.70304 -0.15801
 C209 C 0.18461 0.67066 -0.16826
 O210 O 0.35196 0.66458 -0.30496
 Zr211 Zr 0.32025 0.69097 -0.25505
 O212 O 0.30410 0.70559 -0.15848
 O213 O 0.20103 0.61945 -0.25960
 O214 O 0.30894 0.61932 -0.25484
 O215 O 0.39759 0.70133 -0.25490
 O216 O 0.34685 0.66654 -0.20324
 C217 C 0.33626 0.67602 -0.16895
 O218 O 0.21874 0.78305 -0.14721
 O219 O 0.31039 0.87947 -0.26059
 O220 O 0.30361 0.79330 -0.15986
 O221 O 0.33882 0.83825 -0.20463
 O222 O 0.19767 0.87969 -0.25928
 O223 O 0.16668 0.83941 -0.20399
 C224 C 0.33099 0.82689 -0.17026
 H225 H 0.25317 0.83858 -0.30371
 H226 H 0.16315 0.74966 -0.20359
 H227 H 0.35253 0.75083 -0.20727
 H228 H 0.25698 0.66322 -0.30486
 H229 H 0.09688 0.82572 -0.25617
 H230 H 0.10418 0.66373 -0.24821
 H231 H 0.16755 0.60651 -0.25645
 H232 H 0.34069 0.60482 -0.24806
 H233 H 0.16449 0.89207 -0.26482
 H234 H 0.34438 0.89163 -0.26210
 H235 H 0.40688 0.83619 -0.25285
 H236 H 0.41324 0.67191 -0.24810
 H237 H 0.13898 0.86041 -0.20937
 H238 H 0.23183 0.77233 -0.12287
 H239 H 0.27396 0.72509 -0.38741
 H240 H 0.37475 0.63931 -0.29870
 Zr241 Zr 1.25441 1.25106 0.81374
 O242 O 1.21493 1.21380 0.85469
 O243 O 1.30268 1.28956 0.84713
 O244 O 1.29915 1.20357 0.84179
 O245 O 1.16913 1.33759 0.80450
 O246 O 1.33907 1.16467 0.79540
 O247 O 1.20884 1.29257 0.84703
 O248 O 1.34949 1.32627 0.80371
 O249 O 1.31907 1.24835 0.78180
 O250 O 1.25766 1.31267 0.78432
 O251 O 1.24712 1.19293 0.77966
 O252 O 1.18805 1.25523 0.78322
 Zr253 Zr 1.24920 1.25679 0.68382
 Zr254 Zr 1.30994 1.19258 0.74556
 Zr255 Zr 1.19417 1.31548 0.75171
 Zr256 Zr 1.32012 1.30878 0.75109
 O257 O 1.11623 1.31475 0.75216
 O258 O 1.39619 1.29231 0.74948
 O259 O 1.25693 1.31566 0.71740
 O260 O 1.31509 1.25309 0.71471
 O261 O 1.24615 1.19473 0.71275
 O262 O 1.18541 1.25929 0.71646
 C263 C 1.33755 1.31694 0.83770
 C264 C 1.17887 1.32472 0.83812
 C265 C 1.32932 1.17274 0.83009
 O266 O 1.38767 1.19343 0.74131
 O267 O 1.32984 1.16696 0.69230
 O268 O 1.29252 1.21406 0.65005
 C269 C 1.32051 1.18035 0.65868
 O270 O 1.14991 1.17436 0.79630
 Zr271 Zr 1.18396 1.19904 0.74681
 O272 O 1.20215 1.21645 0.65068
 O273 O 1.29884 1.12106 0.74569
 O274 O 1.19031 1.12685 0.74540
 O275 O 1.10701 1.21152 0.74495
 O276 O 1.15875 1.17681 0.69438
 C277 C 1.16971 1.18669 0.66037
 O278 O 1.28925 1.29402 0.64321
 O279 O 1.20575 1.38684 0.75501
 O280 O 1.20410 1.30383 0.65564
 O281 O 1.16998 1.34728 0.70194
 O282 O 1.31704 1.38093 0.75614
 O283 O 1.34965 1.34021 0.70250
 C284 C 1.17659 1.33677 0.66728
 H285 H 1.25941 1.33989 0.80071
 H286 H 1.34431 1.25294 0.69813
 H287 H 1.15482 1.26203 0.70159
 H288 H 1.24472 1.16474 0.79477
 H289 H 1.41460 1.31974 0.75777
 H290 H 1.39849 1.16112 0.74054
 H291 H 1.33175 1.10682 0.74279
 H292 H 1.15758 1.11439 0.73854
 H293 H 1.35054 1.39171 0.76276
 H294 H 1.17281 1.40116 0.75742
 H295 H 1.10543 1.34707 0.75301
 H296 H 1.09073 1.18238 0.73810
 H297 H 1.37958 1.35770 0.70924
 H298 H 1.27603 1.28547 0.61830
 H299 H 1.22820 1.22257 0.87954
 H300 H 1.12635 1.14977 0.78983
 Zr301 Zr 0.74669 0.75223 0.81678
 O302 O 0.78684 0.78566 0.85960
 O303 O 0.69856 0.71125 0.84806
 O304 O 0.70149 0.79656 0.84817
 O305 O 0.83051 0.66609 0.80072
 O306 O 0.66162 0.83906 0.80427
 O307 O 0.79246 0.70744 0.84661
 O308 O 0.64977 0.67949 0.80317
 O309 O 0.68175 0.75907 0.78587
 O310 O 0.74098 0.69353 0.78357
 O311 O 0.75550 0.81297 0.78644
 O312 O 0.81226 0.74939 0.78503
 Zr313 Zr 0.74907 0.75838 0.68647
 Zr314 Zr 0.69217 0.81754 0.75338
 Zr315 Zr 0.80348 0.69235 0.74999
 Zr316 Zr 0.67800 0.70184 0.75138
 O317 O 0.88138 0.69111 0.74782
 O318 O 0.60255 0.72057 0.75260
 O319 O 0.74018 0.69696 0.71653
 O320 O 0.68409 0.76060 0.71848
 O321 O 0.75496 0.81725 0.71942
 O322 O 0.81346 0.75092 0.71792
 C323 C 0.66303 0.68522 0.83747
 C324 C 0.82216 0.67616 0.83523
 C325 C 0.67032 0.82737 0.83818
 O326 O 0.61448 0.81934 0.74827
 O327 O 0.67247 0.85046 0.70385
 O328 O 0.70949 0.80948 0.65747
 C329 C 0.68197 0.84245 0.66931
 O330 O 0.85362 0.82884 0.80204
 Zr331 Zr 0.81776 0.80835 0.75195
 O332 O 0.79865 0.79761 0.65521
 O333 O 0.70554 0.88829 0.76018
 O334 O 0.81320 0.88059 0.75457
 O335 O 0.89409 0.79331 0.74872
 O336 O 0.84323 0.83385 0.70033
 C337 C 0.83199 0.82589 0.66593
 O338 O 0.70534 0.72916 0.64369
 O339 O 0.79049 0.62105 0.75043
 O340 O 0.78943 0.71028 0.65477
 O341 O 0.82293 0.66276 0.69841
 O342 O 0.67981 0.62942 0.75089
 O343 O 0.64565 0.67609 0.70153
 C344 C 0.81489 0.67500 0.66443
 H345 H 0.73922 0.66493 0.79819
 H346 H 0.65473 0.76350 0.70224
 H347 H 0.84342 0.74801 0.70230
 H348 H 0.75857 0.83955 0.80344
 H349 H 0.58346 0.69297 0.75940
 H350 H 0.60430 0.85172 0.75081
 H351 H 0.67311 0.90378 0.75892
 H352 H 0.84601 0.89287 0.74774
 H353 H 0.64644 0.61848 0.75767
 H354 H 0.82316 0.60595 0.75118
 H355 H 0.89119 0.65854 0.74659
 H356 H 0.91145 0.82220 0.74286
 H357 H 0.61558 0.65857 0.70782
 H358 H 0.71881 0.74011 0.61954
 H359 H 0.77374 0.77473 0.88389
 H360 H 0.87803 0.85297 0.79635
 Zr361 Zr 1.25258 0.74507 0.18985
 O362 O 1.21346 0.78218 0.14870
 O363 O 1.29752 0.70406 0.15598
 O364 O 1.29825 0.79017 0.15961
 O365 O 1.15904 0.66710 0.20549
 O366 O 1.34268 0.82776 0.20433
 O367 O 1.20202 0.70393 0.15986
 O368 O 1.34412 0.66625 0.19887
 O369 O 1.31881 0.74492 0.22005
 O370 O 1.25331 0.68432 0.22053
 O371 O 1.25119 0.80447 0.22302
 O372 O 1.18796 0.74592 0.22257
 Zr373 Zr 1.25298 0.74423 0.32040
 Zr374 Zr 1.31552 0.80198 0.25547
 Zr375 Zr 1.19193 0.68673 0.25553
 Zr376 Zr 1.31740 0.68555 0.25203
 O377 O 1.11425 0.69111 0.25981
 O378 O 1.39450 0.69732 0.25221
 O379 O 1.25592 0.68396 0.28800
 O380 O 1.31750 0.74234 0.28757
 O381 O 1.25318 0.80526 0.28997
 O382 O 1.18792 0.74426 0.28951
 C383 C 1.33185 0.67598 0.16500
 C384 C 1.16782 0.67661 0.17118
 C385 C 1.33065 0.81979 0.17005
 O386 O 1.39322 0.79619 0.25524
 O387 O 1.34413 0.82481 0.30729
 O388 O 1.29816 0.78805 0.35148
 C389 C 1.33234 0.81571 0.34143
 O390 O 1.15555 0.82910 0.20830
 Zr391 Zr 1.18934 0.80337 0.25753
 O392 O 1.20821 0.78709 0.35353
 O393 O 1.30910 0.87396 0.25638
 O394 O 1.20052 0.87507 0.25774
 O395 O 1.11184 0.79489 0.26071
 O396 O 1.16682 0.82814 0.30963
 C397 C 1.17719 0.81806 0.34363
 O398 O 1.29356 0.70812 0.36135
 O399 O 1.19867 0.61487 0.25116
 O400 O 1.20758 0.69925 0.35087
 O401 O 1.17074 0.65577 0.30596
 O402 O 1.30835 0.61376 0.24784
 O403 O 1.34704 0.65290 0.30002
 C404 C 1.17926 0.66637 0.34023
 H405 H 1.25221 0.65676 0.20447
 H406 H 1.34734 0.74091 0.30341
 H407 H 1.15794 0.74320 0.30526
 H408 H 1.24987 0.83242 0.20755
 H409 H 1.41072 0.66884 0.24361
 H410 H 1.40653 0.82770 0.25523
 H411 H 1.34311 0.88620 0.25717
 H412 H 1.16885 0.88960 0.26480
 H413 H 1.34034 0.60073 0.23974
 H414 H 1.16478 0.60228 0.25080
 H415 H 1.10150 0.65939 0.26014
 H416 H 1.09739 0.82497 0.26720
 H417 H 1.37446 0.63255 0.29245
 H418 H 1.28148 0.71834 0.38618
 H419 H 1.22486 0.77107 0.12393
 H420 H 1.13364 0.85495 0.21487
 Zr421 Zr 0.74976 1.25202 0.18436
 O422 O 0.79023 1.21922 0.14138
 O423 O 0.70451 1.29532 0.15288
 O424 O 0.70398 1.21001 0.15070
 O425 O 0.83951 1.33125 0.20671
 O426 O 0.65975 1.16875 0.19302
 O427 O 0.80031 1.29660 0.15798
 O428 O 0.65455 1.32673 0.19725
 O429 O 0.68314 1.24682 0.21355
 O430 O 0.74502 1.30965 0.21894
 O431 O 0.75398 1.18994 0.21357
 O432 O 0.81332 1.25072 0.21836
 Zr433 Zr 0.74511 1.24094 0.31509
 Zr434 Zr 0.68900 1.18699 0.24493
 Zr435 Zr 0.80529 1.30657 0.25475
 Zr436 Zr 0.68018 1.30286 0.24932
 O437 O 0.88285 1.30504 0.26106
 O438 O 0.60389 1.28758 0.24654
 O439 O 0.74033 1.30365 0.28627
 O440 O 0.68190 1.24287 0.28107
 O441 O 0.74982 1.18316 0.28068
 O442 O 0.81119 1.24670 0.28553
 C443 C 0.66874 1.32127 0.16313
 C444 C 0.83298 1.32395 0.17170
 C445 C 0.67049 1.18061 0.15952
 O446 O 0.61107 1.18865 0.24779
 O447 O 0.66445 1.15297 0.29256
 O448 O 0.70147 1.19017 0.34098
 C449 C 0.67274 1.15910 0.32747
 O450 O 0.85156 1.16956 0.20047
 Zr451 Zr 0.81444 1.19051 0.24995
 O452 O 0.79197 1.19883 0.34647
 O453 O 0.69944 1.11601 0.23671
 O454 O 0.80631 1.11864 0.24591
 O455 O 0.89116 1.20281 0.25493
 O456 O 0.83681 1.16268 0.30138
 C457 C 0.82488 1.17004 0.33572
 O458 O 0.70075 1.26949 0.35784
 O459 O 0.79561 1.37833 0.25397
 O460 O 0.78557 1.28701 0.34910
 O461 O 0.82188 1.33485 0.30708
 O462 O 0.68607 1.37507 0.25077
 O463 O 0.64675 1.32900 0.29866
 C464 C 0.81205 1.32217 0.34059
 H465 H 0.74555 1.33866 0.20478
 H466 H 0.65158 1.24068 0.29636
 H467 H 0.84043 1.24811 0.30202
 H468 H 0.75660 1.16380 0.19607
 H469 H 0.58642 1.31611 0.23977
 H470 H 0.59924 1.15694 0.24400
 H471 H 0.66627 1.10186 0.23636
 H472 H 0.83814 1.10469 0.25324
 H473 H 0.65387 1.38774 0.24287
 H474 H 0.82890 1.39218 0.25506
 H475 H 0.89396 1.33715 0.26352
 H476 H 0.90717 1.17326 0.26081
 H477 H 0.61872 1.34897 0.29182
 H478 H 0.71282 1.25687 0.38186
 H479 H 0.77884 1.23228 0.11733
 H480 H 0.87460 1.14438 0.20642
 O481 O 0.43435 1.08698 0.02342
 O482 O 0.55125 0.91242 0.02748
 O483 O 0.39992 0.94701 0.02918
 O484 O 0.58595 1.05250 0.02741
 O485 O 0.46888 0.92303 0.04950
 O486 O 0.51751 1.07968 0.04636
 O487 O 0.57660 0.97589 0.04833
 O488 O 0.40814 1.02516 0.04656
 C489 C 0.41240 1.06701 0.04925
 C490 C 0.57516 0.93402 0.05138
 C491 C 0.42395 0.92652 0.05391
 C492 C 0.56264 1.07645 0.05029
 O493 O 0.55045 1.08631 -0.02477
 O494 O 0.43596 0.91088 -0.02152
 O495 O 0.39973 1.04979 -0.02756
 O496 O 0.58669 0.94677 -0.02404
 O497 O 0.51876 0.91990 -0.04392
 O498 O 0.46831 1.07536 -0.04735
 O499 O 0.57752 1.02297 -0.04478
 O500 O 0.40996 0.97211 -0.04520
 Co501 Co 0.49260 1.07377 -0.00037
 Co502 Co 0.49360 0.92482 0.00273
 Co503 Co 0.41292 0.99851 0.00080
 Co504 Co 0.57296 0.99948 0.00174
 O505 O 0.49303 0.99918 0.00131
 C506 C 0.57475 1.06467 -0.04844
 C507 C 0.41588 0.93054 -0.04828
 C508 C 0.42368 1.07022 -0.05235
 C509 C 0.56362 0.92452 -0.04809
 O510 O 0.93202 0.58764 0.52351
 O511 O 1.04948 0.41308 0.52719
 O512 O 0.89770 0.44776 0.52954
 O513 O 1.08337 0.55278 0.52823
 O514 O 0.96643 0.42206 0.54939
 O515 O 1.01483 0.57912 0.54755
 O516 O 1.07392 0.47635 0.54871
 O517 O 0.90558 0.52610 0.54680
 C518 C 0.90964 0.56797 0.54916
 C519 C 1.07088 0.43461 0.55245
 C520 C 0.92135 0.42581 0.55357
 C521 C 1.05992 0.57570 0.55176
 O522 O 1.04842 0.58703 0.47649
 O523 O 0.93390 0.41026 0.47891
 O524 O 0.89741 0.55003 0.47255
 O525 O 1.08448 0.44753 0.47573
 O526 O 1.01674 0.42069 0.45557
 O527 O 0.96617 0.57642 0.45335
 O528 O 1.07455 0.52405 0.45537
 O529 O 0.90671 0.47163 0.45563
 Co530 Co 0.99043 0.57413 0.50043
 Co531 Co 0.99165 0.42494 0.50258
 Co532 Co 0.91047 0.49898 0.50118
 Co533 Co 1.07046 0.50008 0.50197
 O534 O 0.99069 0.49953 0.50156
 C535 C 1.07159 0.56584 0.45198
 C536 C 0.91043 0.42967 0.45369
 C537 C 0.92136 0.57165 0.44844
 C538 C 1.06155 0.42609 0.45103
 O539 O 1.06397 0.48253 0.05580
 O540 O 1.03459 0.55182 -0.07787
 O541 O 1.03490 0.41223 -0.03594
 O542 O 1.05926 0.57147 0.03433
 O543 O 1.06218 0.47118 -0.06723
 O544 O 1.01595 0.54877 0.07898
 O545 O 1.06810 0.57868 -0.02956
 O546 O 1.04630 0.41824 0.03159
 C547 C 1.07396 0.44150 0.05214
 C548 C 1.06875 0.57343 -0.06374
 C549 C 1.06596 0.43014 -0.05826
 C550 C 1.04963 0.57380 0.06798
 O551 O 0.93588 0.51885 0.05305
 O552 O 0.97201 0.44638 -0.07358
 O553 O 0.94876 0.43609 0.04148
 O554 O 0.96726 0.59017 -0.03941
 O555 O 0.94569 0.52897 -0.07211
 O556 O 0.98466 0.46414 0.09108
 O557 O 0.95840 0.58479 0.03084
 O558 O 0.93440 0.43225 -0.02385
 Co559 Co 0.99986 0.49867 0.05126
 Co560 Co 1.00375 0.49956 -0.06613
 Co561 Co 0.99235 0.43123 0.00231
 Co562 Co 1.01195 0.57506 -0.00112
 O563 O 1.00367 0.50340 -0.00527
 C564 C 0.92844 0.56105 0.05001
 C565 C 0.93441 0.43223 -0.05832
 C566 C 0.95664 0.43283 0.07640
 C567 C 0.94010 0.57061 -0.06401
 O568 O 0.52440 0.95295 0.57410
 O569 O 0.51554 1.03595 0.41985
 O570 O 0.57325 0.94720 0.46421
 O571 O 0.55549 1.07609 0.53310
 O572 O 0.52032 0.95306 0.42131
 O573 O 0.51907 1.03639 0.57666
 O574 O 0.55970 1.06647 0.46377
 O575 O 0.57578 0.94396 0.52999
 C576 C 0.56706 0.94354 0.56372
 C577 C 0.55369 1.05718 0.43028
 C578 C 0.56327 0.94328 0.43082
 C579 C 0.55143 1.06481 0.56644
 O580 O 0.42543 1.03223 0.55731
 O581 O 0.43008 0.95009 0.45470
 O582 O 0.48757 0.89941 0.53237
 O583 O 0.46579 1.08894 0.45899
 O584 O 0.42192 1.03069 0.44708
 O585 O 0.43210 0.94851 0.54661
 O586 O 0.46006 1.09040 0.52971
 O587 O 0.48596 0.90050 0.46375
 Co588 Co 0.47719 0.99250 0.55730
 Co589 Co 0.47435 0.99274 0.44108
 Co590 Co 0.52739 0.92894 0.49752
 Co591 Co 0.50889 1.07210 0.49632
 O592 O 0.49718 0.99717 0.49830
 C593 C 0.42759 1.07400 0.55134
 C594 C 0.44336 0.90995 0.45289
 C595 C 0.44627 0.90839 0.54667
 C596 C 0.42774 1.07234 0.44479
 O597 O 1.09274 1.04245 0.45996
 O598 O 0.91212 1.03944 0.53902
 O599 O 0.94315 1.01873 0.42735
 O600 O 1.06348 1.02726 0.57172
 O601 O 0.91705 1.05187 0.47495
 O602 O 1.08552 1.05930 0.52283
 O603 O 0.98145 1.06063 0.56285
 O604 O 1.02242 1.05727 0.43489
 C605 C 1.06615 1.06789 0.43984
 C606 C 0.93672 1.06760 0.55830
 C607 C 0.92139 1.05181 0.44082
 C608 C 1.08182 1.06113 0.55694
 O609 O 1.09545 0.96451 0.54056
 O610 O 0.91503 0.95639 0.46137
 O611 O 1.06552 0.97753 0.42897
 O612 O 0.94439 0.97913 0.57309
 O613 O 0.92126 0.94411 0.52559
 O614 O 1.08994 0.94762 0.47813
 O615 O 1.02593 0.94531 0.56499
 O616 O 0.98546 0.93945 0.43690
 Co617 Co 1.08325 1.00328 0.50035
 Co618 Co 0.92418 0.99816 0.50025
 Co619 Co 1.00421 0.99848 0.43883
 Co620 Co 1.00387 1.00286 0.56125
 O621 O 1.00387 1.00068 0.50014
 C622 C 1.07041 0.93751 0.56040
 C623 C 0.94119 0.93007 0.44145
 C624 C 1.08598 0.94495 0.44413
 C625 C 0.92517 0.94469 0.55975
 O626 O 0.58587 0.55539 -0.02486
 O627 O 0.41700 0.55591 0.02291
 O628 O 0.48200 0.55624 -0.06596
 O629 O 0.52332 0.56088 0.06233
 O630 O 0.41205 0.53878 -0.04099
 O631 O 0.59294 0.54165 0.03829
 O632 O 0.44268 0.52467 0.07128
 O633 O 0.56347 0.52106 -0.07269
 C634 C 0.58174 0.55571 -0.05899
 C635 C 0.42245 0.55789 0.05699
 C636 C 0.43742 0.56450 -0.06178
 C637 C 0.56752 0.56951 0.05699
 O638 O 0.58660 0.44628 0.02405
 O639 O 0.41765 0.44445 -0.02362
 O640 O 0.52411 0.43997 -0.06282
 O641 O 0.48211 0.44403 0.06501
 O642 O 0.41225 0.46139 0.03974
 O643 O 0.59358 0.45992 -0.03912
 O644 O 0.56332 0.48020 0.07190
 O645 O 0.44323 0.47517 -0.07217
 Co646 Co 0.58204 0.50079 -0.00043
 Co647 Co 0.42263 0.50023 -0.00050
 Co648 Co 0.50329 0.49829 -0.06164
 Co649 Co 0.50298 0.50229 0.06084
 O650 O 0.50273 0.50043 -0.00043
 C651 C 0.58243 0.44597 0.05819
 C652 C 0.42352 0.44186 -0.05758
 C653 C 0.56830 0.43161 -0.05745
 C654 C 0.43774 0.43519 0.06001
 C655 C 0.35269 1.16486 0.10166
 C656 C 0.33957 1.14440 0.13572
 C657 C 0.35084 1.09801 0.14132
 C658 C 0.37409 1.07249 0.11314
 C659 C 0.38758 1.09323 0.07926
 C660 C 0.37687 1.13972 0.07396
 H661 H 0.34495 1.20062 0.09664
 H662 H 0.34116 1.08136 0.16730
 H663 H 0.38204 1.03673 0.11796
 H664 H 0.38670 1.15660 0.04811
 C665 C 0.84998 0.66680 0.60017
 C666 C 0.83754 0.64700 0.63457
 C667 C 0.84839 0.60058 0.64059
 C668 C 0.87114 0.57447 0.61265
 C669 C 0.88444 0.59462 0.57858
 C670 C 0.87367 0.64101 0.57263
 H671 H 0.84239 0.70253 0.59487
 H672 H 0.83908 0.58442 0.66685
 H673 H 0.87910 0.53880 0.61790
 H674 H 0.88333 0.65736 0.54652
 C675 C 0.65444 0.90885 0.13569
 C676 C 0.66702 0.86284 0.12941
 C677 C 0.64989 0.84089 0.09705
 C678 C 0.61950 0.86404 0.07202
 C679 C 0.60644 0.90984 0.07850
 C680 C 0.62484 0.93232 0.11021
 H681 H 0.66704 0.92649 0.16055
 H682 H 0.65845 0.80530 0.09180
 H683 H 0.60629 0.84609 0.04750
 H684 H 0.61555 0.96771 0.11564
 C685 C 1.13544 0.34066 0.60526
 C686 C 1.14925 0.36266 0.63856
 C687 C 1.13622 0.40871 0.64388
 C688 C 1.11083 0.43254 0.61588
 C689 C 1.09699 0.41026 0.58265
 C690 C 1.10919 0.36402 0.57784
 H691 H 1.14447 0.30506 0.60056
 H692 H 1.14638 0.42641 0.66934
 H693 H 1.10173 0.46818 0.62025
 H694 H 1.09915 0.34599 0.55250
 C695 C 0.64652 1.15778 -0.09643
 C696 C 0.66253 1.13555 -0.12901
 C697 C 0.65012 1.08944 -0.13474
 C698 C 0.62187 1.06605 -0.10837
 C699 C 0.60468 1.08876 -0.07636
 C700 C 0.61743 1.13471 -0.07051
 H701 H 0.65504 1.19346 -0.09161
 H702 H 0.66194 1.07163 -0.15975
 H703 H 0.61269 1.03053 -0.11330
 H704 H 0.60504 1.15280 -0.04579
 C705 C 1.14052 0.66045 0.40321
 C706 C 1.15344 0.63975 0.36920
 C707 C 1.13959 0.59413 0.36257
 C708 C 1.11346 0.56960 0.38963
 C709 C 1.09969 0.59074 0.42327
 C710 C 1.11343 0.63635 0.42979
 H711 H 1.15035 0.69565 0.40889
 H712 H 1.14917 0.57740 0.33653
 H713 H 1.10333 0.53446 0.38405
 H714 H 1.10356 0.65334 0.45566
 C715 C 0.36712 0.83225 -0.10627
 C716 C 0.35510 0.85362 -0.14018
 C717 C 0.36451 0.90059 -0.14415
 C718 C 0.38413 0.92588 -0.11428
 C719 C 0.39573 0.90437 -0.08029
 C720 C 0.38768 0.85720 -0.07685
 H721 H 0.36062 0.79605 -0.10247
 H722 H 0.35544 0.91793 -0.16994
 H723 H 0.39029 0.96217 -0.11773
 H724 H 0.39636 0.83966 -0.05107
 C725 C 0.84376 0.39673 0.36476
 C726 C 0.83388 0.35011 0.37082
 C727 C 0.84815 0.33026 0.40475
 C728 C 0.87323 0.35621 0.43158
 C729 C 0.88353 0.40271 0.42531
 C730 C 0.86787 0.42288 0.39189
 H731 H 0.83303 0.41296 0.33884
 H732 H 0.84135 0.29439 0.41002
 H733 H 0.88457 0.33987 0.45730
 H734 H 0.87520 0.45862 0.38640
 C735 C 1.15221 0.34883 0.09647
 C736 C 1.16160 0.36763 0.13204
 C737 C 1.14801 0.41331 0.13866
 C738 C 1.12367 0.43880 0.11110
 C739 C 1.11124 0.41897 0.07647
 C740 C 1.12678 0.37398 0.06922
 H741 H 1.16225 0.31380 0.09035
 H742 H 1.15510 0.42903 0.16555
 H743 H 1.11166 0.47313 0.11789
 H744 H 1.11735 0.35752 0.04304
 C745 C 0.62264 0.90485 0.65419
 C746 C 0.65799 0.87293 0.64188
 C747 C 0.66763 0.86912 0.60343
 C748 C 0.64035 0.89475 0.57778
 C749 C 0.60272 0.92413 0.59024
 C750 C 0.59517 0.92995 0.62865
 H751 H 0.61451 0.90915 0.68362
 H752 H 0.69498 0.84527 0.59310
 H753 H 0.64680 0.88963 0.54820
 H754 H 0.56659 0.95258 0.63892
 C755 C 1.16503 0.65513 -0.10318
 C756 C 1.16163 0.64512 -0.14185
 C757 C 1.13176 0.60798 -0.15278
 C758 C 1.10436 0.58374 -0.12679
 C759 C 1.10489 0.59576 -0.08882
 C760 C 1.13654 0.63089 -0.07696
 H761 H 1.18797 0.68286 -0.09318
 H762 H 1.12846 0.59765 -0.18178
 H763 H 1.08123 0.55622 -0.13689
 H764 H 1.13791 0.64067 -0.04778
 C765 C 0.65699 1.12890 0.39163
 C766 C 0.64618 1.12865 0.35338
 C767 C 0.60806 1.10021 0.34006
 C768 C 0.57940 1.07475 0.36480
 C769 C 0.58848 1.07714 0.40325
 C770 C 0.62859 1.10325 0.41629
 H771 H 0.68654 1.14982 0.40267
 H772 H 0.59901 1.09889 0.31061
 H773 H 0.54896 1.05480 0.35399
 H774 H 0.63687 1.10543 0.44584
 C775 C 0.85539 0.59138 0.13695
 C776 C 0.84229 0.63708 0.13009
 C777 C 0.85207 0.65529 0.09442
 C778 C 0.87709 0.62951 0.06724
 C779 C 0.89187 0.58441 0.07460
 C780 C 0.87937 0.56523 0.10942
 H781 H 0.84805 0.57610 0.16391
 H782 H 0.84245 0.69031 0.08805
 H783 H 0.88664 0.64551 0.04096
 H784 H 0.89093 0.53086 0.11632
 C785 C 0.33814 1.10740 0.62688
 C786 C 0.34327 1.15477 0.62790
 C787 C 0.37130 1.17681 0.60022
 C788 C 0.39699 1.15108 0.57335
 C789 C 0.39370 1.10318 0.57345
 C790 C 0.36232 1.08196 0.59965
 H791 H 0.31602 1.08996 0.64764
 H792 H 0.37526 1.21362 0.60059
 H793 H 0.42090 1.16836 0.55372
 H794 H 0.35841 1.04517 0.60057
 C795 C 0.84096 0.34742 -0.09528
 C796 C 0.83989 0.35966 -0.13340
 C797 C 0.86403 0.39978 -0.14453
 C798 C 0.89156 0.42506 -0.11901
 C799 C 0.89570 0.41110 -0.08162
 C800 C 0.86869 0.37303 -0.06953
 H801 H 0.82234 0.31692 -0.08569
 H802 H 0.86338 0.41082 -0.17339
 H803 H 0.91169 0.45453 -0.12901
 H804 H 0.87151 0.36144 -0.04090
 C805 C 0.41236 0.83765 0.36996
 C806 C 0.36077 0.83733 0.37149
 C807 C 0.33663 0.85621 0.40262
 C808 C 0.36378 0.87766 0.43082
 C809 C 0.41538 0.87871 0.42894
 C810 C 0.43954 0.85761 0.39879
 H811 H 0.43156 0.82261 0.34640
 H812 H 0.29678 0.85589 0.40435
 H813 H 0.34457 0.89463 0.45348
 H814 H 0.47931 0.85916 0.39636
 C815 C 1.08408 1.15272 0.36172
 C816 C 1.13324 1.16601 0.36694
 C817 C 1.15858 1.15084 0.39888
 C818 C 1.13615 1.12043 0.42379
 C819 C 1.08771 1.10539 0.41752
 C820 C 1.06139 1.12316 0.38695
 H821 H 1.06364 1.16411 0.33748
 H822 H 1.19666 1.16040 0.40346
 H823 H 1.15724 1.10742 0.44714
 H824 H 1.02398 1.11236 0.38135
 C825 C 0.60179 0.62562 -0.14551
 C826 C 0.63756 0.65727 -0.13403
 C827 C 0.65189 0.65810 -0.09616
 C828 C 0.63244 0.62631 -0.07085
 C829 C 0.59899 0.59303 -0.08327
 C830 C 0.58321 0.59374 -0.12058
 H831 H 0.58954 0.62398 -0.17428
 H832 H 0.67936 0.68214 -0.08641
 H833 H 0.64500 0.62652 -0.04213
 H834 H 0.55727 0.56871 -0.13096
 C835 C 0.83667 1.13975 0.60266
 C836 C 0.86191 1.15792 0.63362
 C837 C 0.91282 1.15100 0.63667
 C838 C 0.93771 1.12453 0.61027
 C839 C 0.91201 1.10335 0.58082
 C840 C 0.86145 1.11226 0.57665
 H841 H 0.79730 1.14465 0.59974
 H842 H 0.93318 1.16509 0.66004
 H843 H 0.97666 1.11864 0.61420
 H844 H 0.84070 1.09648 0.55423
 C845 C 0.40093 0.62690 0.14368
 C846 C 0.35838 0.65169 0.13482
 C847 C 0.34013 0.64997 0.09793
 C848 C 0.36248 0.62149 0.07118
 C849 C 0.40300 0.59442 0.08124
 C850 C 0.42269 0.59855 0.11735
 H851 H 0.41655 0.62795 0.17151
 H852 H 0.30741 0.66892 0.09025
 H853 H 0.34660 0.61878 0.04351
 H854 H 0.45408 0.57838 0.12589
 C855 C 1.16053 0.84897 0.59687
 C856 C 1.14421 0.84445 0.63426
 C857 C 1.10081 0.86771 0.64493
 C858 C 1.07591 0.89559 0.61993
 C859 C 1.09417 0.90256 0.58380
 C860 C 1.13639 0.87877 0.57220
 H861 H 1.19348 0.83170 0.58719
 H862 H 1.08585 0.86492 0.67292
 H863 H 1.04346 0.91360 0.62964
 H864 H 1.15095 0.88364 0.54430
 C865 C 0.65882 0.34848 0.09671
 C866 C 0.64318 0.34852 0.13430
 C867 C 0.60461 0.37763 0.14502
 C868 C 0.58420 0.40787 0.11960
 C869 C 0.60120 0.40955 0.08261
 C870 C 0.63772 0.37873 0.07092
 H871 H 0.68836 0.32626 0.08754
 H872 H 0.59115 0.37837 0.17352
 H873 H 0.55579 0.43093 0.12935
 H874 H 0.65132 0.37939 0.04247
 C875 C 0.91975 0.84893 0.36082
 C876 C 0.86963 0.83847 0.36498
 C877 C 0.84473 0.85366 0.39721
 C878 C 0.86868 0.88145 0.42344
 C879 C 0.91822 0.89382 0.41828
 C880 C 0.94390 0.87582 0.38739
 H881 H 0.93996 0.83734 0.33647
 H882 H 0.80599 0.84616 0.40111
 H883 H 0.84790 0.89477 0.44691
 H884 H 0.98204 0.88458 0.38255
 C885 C 0.40510 0.36871 -0.14250
 C886 C 0.36422 0.34205 -0.13264
 C887 C 0.34636 0.34428 -0.09566
 C888 C 0.36718 0.37499 -0.06992
 C889 C 0.40561 0.40399 -0.08111
 C890 C 0.42509 0.39951 -0.11724
 H891 H 0.42035 0.36753 -0.17047
 H892 H 0.31486 0.32409 -0.08722
 H893 H 0.35161 0.37782 -0.04214
 H894 H 0.45493 0.42111 -0.12663
 C895 C 1.13010 0.32854 -0.10249
 C896 C 1.15540 0.35047 -0.13161
 C897 C 1.15673 0.39812 -0.13290
 C898 C 1.13094 0.42377 -0.10674
 C899 C 1.10194 0.40226 -0.07929
 C900 C 1.10294 0.35436 -0.07660
 H901 H 1.12918 0.29160 -0.10104
 H902 H 1.17688 0.41554 -0.15480
 H903 H 1.13158 0.46061 -0.10947
 H904 H 1.08102 0.33692 -0.05576
 C905 C 0.61466 0.89245 0.34176
 C906 C 0.65375 0.86504 0.35482
 C907 C 0.66507 0.86623 0.39314
 C908 C 0.63732 0.89356 0.41775
 C909 C 0.59735 0.91977 0.40458
 C910 C 0.58679 0.91918 0.36627
 H911 H 0.60469 0.89262 0.31247
 H912 H 0.69512 0.84594 0.40410
 H913 H 0.64611 0.89299 0.44726
 H914 H 0.55619 0.93874 0.35527
 C915 C 0.85707 0.60271 -0.14367
 C916 C 0.84799 0.64894 -0.13652
 C917 C 0.86516 0.66869 -0.10314
 C918 C 0.89378 0.64295 -0.07832
 C919 C 0.90443 0.59698 -0.08632
 C920 C 0.88448 0.57690 -0.11870
 H921 H 0.84350 0.58662 -0.16895
 H922 H 0.85826 0.70439 -0.09710
 H923 H 0.90864 0.65923 -0.05357
 H924 H 0.89182 0.54156 -0.12577
 C925 C 0.34367 1.10400 0.36444
 C926 C 0.34324 1.15186 0.36628
 C927 C 0.36754 1.17363 0.39610
 C928 C 0.39401 1.14793 0.42248
 C929 C 0.39513 1.09995 0.42023
 C930 C 0.36855 1.07835 0.39141
 H931 H 0.32482 1.08642 0.34193
 H932 H 0.36765 1.21055 0.39812
 H933 H 0.41423 1.16553 0.44426
 H934 H 0.36866 1.04151 0.38872
 C935 C 1.14846 0.65218 0.10557
 C936 C 1.13627 0.65326 0.14366
 C937 C 1.09420 0.62962 0.15613
 C938 C 1.06581 0.60428 0.13138
 C939 C 1.07871 0.60210 0.09360
 C940 C 1.11980 0.62672 0.08067
 H941 H 1.18062 0.67002 0.09522
 H942 H 1.08336 0.63010 0.18526
 H943 H 1.03404 0.58599 0.14193
 H944 H 1.13023 0.62569 0.05146
 C945 C 0.64875 1.14354 0.60669
 C946 C 0.64400 1.13585 0.64515
 C947 C 0.61021 1.10248 0.65753
 C948 C 0.58090 1.07838 0.63210
 C949 C 0.58476 1.08705 0.59373
 C950 C 0.61956 1.11943 0.58131
 H951 H 0.67453 1.16863 0.59615
 H952 H 0.60569 1.09541 0.68702
 H953 H 0.55463 1.05365 0.64253
 H954 H 0.62372 1.12689 0.55186
 C955 C 0.90483 0.37526 0.16141
 C956 C 0.86573 0.34954 0.14630
 C957 C 0.85830 0.34966 0.10749
 C958 C 0.88863 0.37605 0.08446
 C959 C 0.92666 0.40266 0.09997
 C960 C 0.93489 0.40148 0.13851
 H961 H 0.91212 0.37563 0.19116
 H962 H 0.82866 0.33010 0.09504
 H963 H 0.88173 0.37630 0.05466
 H964 H 0.96422 0.42129 0.15112
 C965 C 0.41004 0.85712 0.63840
 C966 C 0.36532 0.83471 0.63003
 C967 C 0.35086 0.83231 0.59196
 C968 C 0.37842 0.85416 0.56396
 C969 C 0.42220 0.87688 0.57301
 C970 C 0.43830 0.87712 0.61022
 H971 H 0.42352 0.85954 0.66684
 H972 H 0.31696 0.81550 0.58380
 H973 H 0.36482 0.85451 0.53551
 H974 H 0.47177 0.89495 0.61790
 C975 C 0.40192 1.12885 -0.14533
 C976 C 0.35321 1.14421 -0.14111
 C977 C 0.32719 1.13285 -0.10846
 C978 C 0.34953 1.10714 -0.08034
 C979 C 0.39881 1.09327 -0.08383
 C980 C 0.42479 1.10415 -0.11666
 H981 H 0.42272 1.13717 -0.17024
 H982 H 0.28942 1.14392 -0.10467
 H983 H 0.32876 1.09943 -0.05528
 H984 H 0.46286 1.09379 -0.11999
 C985 C 0.82437 0.63783 0.39507
 C986 C 0.84882 0.64730 0.36138
 C987 C 0.89697 0.63070 0.35613
 C988 C 0.92062 0.60600 0.38438
 C989 C 0.89599 0.59620 0.41793
 C990 C 0.84747 0.61195 0.42285
 H991 H 0.78717 0.65000 0.39972
 H992 H 0.91668 0.63764 0.33044
 H993 H 0.95807 0.59436 0.37997
 H994 H 0.82782 0.60520 0.44861
 C995 C 0.59232 1.14647 0.13618
 C996 C 0.64198 1.15792 0.12981
 C997 C 0.66477 1.14373 0.09665
 C998 C 0.63886 1.11692 0.07094
 C999 C 0.58941 1.10483 0.07761
 C1000 C 0.56605 1.12064 0.11007
 H1001 H 0.57395 1.15715 0.16163
 H1002 H 0.70307 1.15185 0.09132
 H1003 H 0.65750 1.10563 0.04579
 H1004 H 0.52793 1.11205 0.11568
 C1005 C 1.16117 0.64375 0.59844
 C1006 C 1.14002 0.65480 0.63307
 C1007 C 1.09161 0.64022 0.64073
 C1008 C 1.06488 0.61513 0.61416
 C1009 C 1.08672 0.60303 0.57999
 C1010 C 1.13506 0.61764 0.57241
 H1011 H 1.19845 0.65425 0.59190
 H1012 H 1.07440 0.64838 0.66723
 H1013 H 1.02764 0.60440 0.62057
 H1014 H 1.15261 0.60917 0.54609
 C1015 C 0.66482 0.86109 -0.09812
 C1016 C 0.64251 0.85125 -0.13249
 C1017 C 0.59378 0.86540 -0.13903
 C1018 C 0.56758 0.88882 -0.11138
 C1019 C 0.59035 0.89951 -0.07733
 C1020 C 0.63915 0.88559 -0.07093
 H1021 H 0.70242 0.85068 -0.09261
 H1022 H 0.57585 0.85793 -0.16538
 H1023 H 0.52993 0.89920 -0.11677
 H1024 H 0.65725 0.89316 -0.04466
 C1025 C 1.09223 0.37158 0.35734
 C1026 C 1.14138 0.35796 0.36300
 C1027 C 1.16386 0.36741 0.39747
 C1028 C 1.13799 0.39030 0.42561
 C1029 C 1.08857 0.40310 0.42036
 C1030 C 1.06578 0.39336 0.38601
 H1031 H 1.07398 0.36444 0.33106
 H1032 H 1.20170 0.35742 0.40253
 H1033 H 1.15642 0.39721 0.45186
 H1034 H 1.02775 0.40297 0.38126
 C1035 C 0.40266 0.86441 0.14541
 C1036 C 0.35458 0.84759 0.14063
 C1037 C 0.32888 0.85849 0.10773
 C1038 C 0.35076 0.88563 0.08018
 C1039 C 0.39926 0.90145 0.08453
 C1040 C 0.42503 0.89053 0.11739
 H1041 H 0.42327 0.85662 0.17050
 H1042 H 0.29158 0.84641 0.10347
 H1043 H 0.33022 0.89320 0.05501
 H1044 H 0.46254 0.90221 0.12138
 C1045 C 0.89456 0.36301 0.64376
 C1046 C 0.84623 0.34727 0.63765
 C1047 C 0.82273 0.35793 0.60387
 C1048 C 0.84681 0.38450 0.57698
 C1049 C 0.89532 0.39980 0.58294
 C1050 C 0.91913 0.38844 0.61643
 H1051 H 0.91358 0.35514 0.66955
 H1052 H 0.78544 0.34646 0.59858
 H1053 H 0.82780 0.39239 0.55118
 H1054 H 0.95656 0.39963 0.62162
 C1055 C 1.15994 1.15879 0.59386
 C1056 C 1.14338 1.16056 0.63116
 C1057 C 1.10319 1.13337 0.64176
 C1058 C 1.08250 1.10267 0.61681
 C1059 C 1.10052 1.09881 0.58025
 C1060 C 1.13837 1.12813 0.56839
 H1061 H 1.19082 1.17946 0.58488
 H1062 H 1.08879 1.13425 0.66998
 H1063 H 1.05326 1.08072 0.62671
 H1064 H 1.15284 1.12567 0.54025
 C1065 C 0.59182 0.65660 0.13228
 C1066 C 0.64227 0.66503 0.12737
 C1067 C 0.66641 0.64703 0.09590
 C1068 C 0.64127 0.61792 0.07139
 C1069 C 0.59146 0.60713 0.07770
 C1070 C 0.56653 0.62837 0.10744
 H1071 H 0.57230 0.67062 0.15610
 H1072 H 0.70537 0.65313 0.09158
 H1073 H 0.66134 0.60221 0.04856
 H1074 H 0.52816 0.62107 0.11290
 C1075 C 1.16756 0.84847 0.40942
 C1076 C 1.15092 0.84498 0.37229
 C1077 C 1.11004 0.87092 0.36105
 C1078 C 1.08863 0.90209 0.38514
 C1079 C 1.10648 0.90758 0.42152
 C1080 C 1.14515 0.87960 0.43410
 H1081 H 1.19891 0.82873 0.41883
 H1082 H 1.09545 0.86856 0.33295
 H1083 H 1.05879 0.92297 0.37473
 H1084 H 1.15940 0.88332 0.46220
 C1085 C 0.66667 0.35403 -0.09714
 C1086 C 0.64111 0.33423 -0.12718
 C1087 C 0.59032 0.34157 -0.13068
 C1088 C 0.56590 0.37049 -0.10590
 C1089 C 0.59206 0.39358 -0.07775
 C1090 C 0.64236 0.38390 -0.07273
 H1091 H 0.70597 0.34873 -0.09400
 H1092 H 0.56982 0.32614 -0.15341
 H1093 H 0.52709 0.37677 -0.11023
 H1094 H 0.66335 0.40102 -0.05111
 C1095 C 0.83693 1.14335 0.40209
 C1096 C 0.85141 1.14323 0.36427
 C1097 C 0.89122 1.11574 0.35321
 C1098 C 0.91454 1.08752 0.37871
 C1099 C 0.89903 1.08606 0.41607
 C1100 C 0.86076 1.11494 0.42792
 H1101 H 0.80649 1.16438 0.41147
 H1102 H 0.90396 1.11519 0.32453
 H1103 H 0.94429 1.06602 0.36884
 H1104 H 0.84823 1.11435 0.45665
 C1105 C 0.41231 0.63829 -0.14566
 C1106 C 0.36328 0.65135 -0.13961
 C1107 C 0.34011 0.63960 -0.10584
 C1108 C 0.36485 0.61288 -0.07944
 C1109 C 0.41348 0.59855 -0.08609
 C1110 C 0.43733 0.61263 -0.11899
 H1111 H 0.43112 0.64745 -0.17128
 H1112 H 0.30224 0.64943 -0.10059
 H1113 H 0.34559 0.60239 -0.05437
 H1114 H 0.47463 0.60193 -0.12505
 C1115 C 0.84422 0.85123 0.59931
 C1116 C 0.85906 0.85179 0.63705
 C1117 C 0.89877 0.87961 0.64765
 C1118 C 0.92127 0.90809 0.62180
 C1119 C 0.90493 0.90942 0.58462
 C1120 C 0.86716 0.87983 0.57319
 H1121 H 0.81382 0.82997 0.59025
 H1122 H 0.91170 0.88050 0.67626
 H1123 H 0.95072 0.93015 0.63128
 H1124 H 0.85400 0.88029 0.54462
 C1125 C 0.41173 0.35539 0.13997
 C1126 C 0.36223 0.34404 0.13359
 C1127 C 0.33951 0.35813 0.10030
 C1128 C 0.36494 0.38595 0.07508
 C1129 C 0.41373 0.39930 0.08248
 C1130 C 0.43739 0.38233 0.11447
 H1131 H 0.43021 0.34447 0.16524
 H1132 H 0.30131 0.34975 0.09480
 H1133 H 0.34588 0.39846 0.05057
 H1134 H 0.47491 0.39197 0.12095
   
