data_POSCAR
  _audit_creation_date              2014-09-24
  _audit_creation_method            'ToBaCCo'
  _symmetry_space_group_name_H-M    'P1'
  _symmetry_Int_Tables_number       1
  _symmetry_cell_setting            triclinic
  loop_
  _symmetry_equiv_pos_as_xyz
 x,y,z
_cell_length_a 50.9584
_cell_length_b 51.0063
_cell_length_c 21.2397
_cell_angle_alpha 90.027600
_cell_angle_beta 89.942900
_cell_angle_gamma 120.186700
loop_
  _atom_site_label
  _atom_site_type_symbol
  _atom_site_fract_x
  _atom_site_fract_y
  _atom_site_fract_z
C1 C 0.18993 0.50936 0.50109
 C2 C 0.20549 0.51883 0.44365
 C3 C 0.23734 0.53283 0.44412
 C4 C 0.25337 0.53483 0.50037
 C5 C 0.23689 0.52743 0.55786
 C6 C 0.20524 0.51478 0.55857
 C7 C 0.28558 0.54049 0.49814
 C8 C 0.30204 0.54313 0.55420
 C9 C 0.32796 0.54015 0.55279
 C10 C 0.33941 0.53747 0.49496
 C11 C 0.32501 0.53677 0.43880
 C12 C 0.29834 0.53826 0.44025
 H13 H 0.16546 0.49916 0.50139
 H14 H 0.24908 0.54075 0.39984
 H15 H 0.24777 0.52944 0.60243
 H16 H 0.29416 0.54539 0.59985
 H17 H 0.35927 0.53489 0.49371
 H18 H 0.28685 0.53508 0.39595
 C19 C 0.49357 -0.31832 0.50298
 C20 C 0.48480 -0.31149 0.44558
 C21 C 0.47245 -0.29225 0.44616
 C22 C 0.47154 -0.27764 0.50248
 C23 C 0.47847 -0.28711 0.55985
 C24 C 0.48935 -0.30751 0.56046
 C25 C 0.46766 -0.25008 0.50050
 C26 C 0.46488 -0.23648 0.55666
 C27 C 0.46972 -0.20685 0.55633
 C28 C 0.47430 -0.19169 0.49905
 C29 C 0.47461 -0.20538 0.44241
 C30 C 0.47151 -0.23425 0.44315
 H31 H 0.50238 -0.33370 0.50326
 H32 H 0.46504 -0.28778 0.40197
 H33 H 0.47767 -0.27739 0.60431
 H34 H 0.46091 -0.24758 0.60168
 H35 H 0.47800 -0.16881 0.49860
 H36 H 0.47449 -0.24272 0.39883
 C37 C 1.32434 0.80701 0.51559
 C38 C 1.31873 0.79270 0.45659
 C39 C 1.29844 0.76119 0.45347
 C40 C 1.28139 0.74467 0.50686
 C41 C 1.28825 0.75989 0.56551
 C42 C 1.30993 0.79072 0.56998
 C43 C 1.25443 0.71309 0.50008
 C44 C 1.24063 0.69422 0.55334
 C45 C 1.21189 0.66771 0.54887
 C46 C 1.19866 0.65845 0.48904
 C47 C 1.21243 0.67577 0.43560
 C48 C 1.23986 0.70304 0.44102
 H49 H 1.34046 0.83106 0.51994
 H50 H 1.29513 0.74999 0.40861
 H51 H 1.27588 0.74875 0.60775
 H52 H 1.25133 0.70062 0.59896
 H53 H 1.17678 0.63799 0.48348
 H54 H 1.24825 0.71697 0.39936
 C55 C 0.81139 0.47976 0.50482
 C56 C 0.79640 0.47391 0.44699
 C57 C 0.76594 0.46669 0.44570
 C58 C 0.75117 0.46832 0.50114
 C59 C 0.76688 0.47354 0.55899
 C60 C 0.79663 0.47888 0.56086
 C61 C 0.72175 0.46881 0.49774
 C62 C 0.70513 0.46715 0.55292
 C63 C 0.68215 0.47488 0.55153
 C64 C 0.67377 0.48126 0.49300
 C65 C 0.68804 0.48063 0.43747
 C66 C 0.71201 0.47482 0.43987
 H67 H 0.83480 0.48499 0.50630
 H68 H 0.75478 0.46143 0.40054
 H69 H 0.75734 0.47555 0.60282
 H70 H 0.71071 0.46125 0.59769
 H71 H 0.65577 0.48666 0.48992
 H72 H 0.72384 0.47707 0.39632
 C73 C 0.52003 0.33234 0.49611
 C74 C 0.51991 0.31790 0.44038
 C75 C 0.52407 0.29287 0.44267
 C76 C 0.52921 0.28225 0.50057
 C77 C 0.53132 0.29879 0.55596
 C78 C 0.52529 0.32293 0.55460
 C79 C 0.52838 0.25219 0.50342
 C80 C 0.52224 0.23551 0.56062
 C81 C 0.51460 0.20480 0.56048
 C82 C 0.51263 0.19081 0.50241
 C83 C 0.52006 0.20702 0.44619
 C84 C 0.52966 0.23790 0.44718
 H85 H 0.51601 0.35125 0.49328
 H86 H 0.52118 0.28101 0.39893
 H87 H 0.53620 0.29226 0.60079
 H88 H 0.52119 0.24523 0.60498
 H89 H 0.50584 0.16699 0.50034
 H90 H 0.53622 0.24982 0.40287
 C91 C 0.66251 0.19495 0.50360
 C92 C 0.67265 0.20974 0.44588
 C93 C 0.69725 0.23957 0.44462
 C94 C 0.71401 0.25364 0.50025
 C95 C 0.70266 0.23803 0.55806
 C96 C 0.67696 0.20900 0.55964
 C97 C 0.74513 0.28179 0.49701
 C98 C 0.76072 0.29779 0.55228
 C99 C 0.79208 0.31920 0.55109
 C100 C 0.80708 0.32674 0.49267
 C101 C 0.79174 0.31324 0.43701
 C102 C 0.76117 0.29074 0.43924
 H103 H 0.64341 0.17194 0.50488
 H104 H 0.70396 0.25056 0.39935
 H105 H 0.71456 0.24686 0.60188
 H106 H 0.74911 0.29287 0.59696
 H107 H 0.83100 0.34362 0.48978
 H108 H 0.75107 0.27937 0.39559
 O109 O 1.04392 0.55893 0.11533
 O110 O 1.07726 0.55198 0.05462
 C111 C 1.07109 0.56518 0.09984
 O112 O 0.95657 0.42498 0.10805
 O113 O 0.92327 0.43396 0.05232
 C114 C 0.92940 0.41910 0.09377
 O115 O 1.04107 0.46820 0.11398
 O116 O 1.07584 0.50828 0.05454
 C117 C 1.06867 0.48861 0.09946
 O118 O 0.95980 0.52110 0.11117
 O119 O 0.92484 0.48039 0.05333
 C120 C 0.93212 0.50083 0.09680
 Zr121 Zr 1.00148 0.52736 0.07687
 O122 O 1.00142 0.53155 0.17594
 O123 O 1.00372 0.56957 0.06538
 Zr124 Zr 0.99921 0.45983 0.07632
 O125 O 0.99634 0.45695 0.17575
 O126 O 1.00140 0.41948 0.07191
 O127 O 1.02715 0.50637 0.08916
 O128 O 0.97410 0.48101 0.08881
 O129 O 0.95938 0.52153 -0.11155
 O130 O 0.92448 0.47989 -0.05575
 C131 C 0.93174 0.50116 -0.09724
 O132 O 1.04073 0.46788 -0.11789
 O133 O 1.07574 0.50785 -0.05854
 C134 C 1.06839 0.48790 -0.10300
 O135 O 0.95619 0.42603 -0.11414
 O136 O 0.92302 0.43410 -0.05555
 C137 C 0.92904 0.42012 -0.09936
 O138 O 1.04346 0.55700 -0.12267
 O139 O 1.07713 0.55147 -0.06038
 C140 C 1.07072 0.56330 -0.10780
 Zr141 Zr 1.00133 0.52761 -0.07968
 O142 O 0.99870 0.53131 -0.17826
 O143 O 1.00673 0.57144 -0.07078
 Zr144 Zr 0.99897 0.46002 -0.08082
 O145 O 0.99633 0.45730 -0.18028
 O146 O 1.00052 0.41933 -0.07637
 Zr147 Zr 1.04601 0.51549 -0.00220
 Zr148 Zr 0.95448 0.47183 -0.00150
 O149 O 0.97397 0.48140 -0.09212
 O150 O 1.02685 0.50648 -0.09325
 O151 O 0.97389 0.51943 -0.00108
 O152 O 1.02583 0.46796 -0.00243
 O153 O 1.02878 0.54529 -0.00167
 O154 O 0.97136 0.44158 -0.00215
 H155 H 0.96086 0.47441 0.12651
 H156 H 1.03929 0.45915 -0.00235
 H157 H 0.96089 0.47529 -0.13000
 H158 H 1.04366 0.56735 -0.00219
 H159 H 0.98275 0.40385 0.05077
 H160 H 0.98103 0.40338 -0.05854
 H161 H 1.01187 0.47726 -0.19700
 H162 H 0.99963 0.51406 -0.19692
 H163 H 0.98763 0.56899 -0.05316
 H164 H 1.00467 0.57749 0.10842
 H165 H 0.99497 0.51132 0.19378
 H166 H 1.01122 0.47718 0.19249
 O167 O 0.44070 0.48453 0.11487
 O168 O 0.44850 0.52541 0.05532
 C169 C 0.43495 0.50580 0.10009
 O170 O 0.57488 0.53118 0.10915
 O171 O 0.56575 0.48892 0.05302
 C172 C 0.58064 0.50988 0.09469
 O173 O 0.53203 0.57252 0.11579
 O174 O 0.49244 0.56774 0.05570
 C175 C 0.51196 0.58002 0.10101
 O176 O 0.47787 0.43781 0.10986
 O177 O 0.51902 0.44395 0.05330
 C178 C 0.49796 0.43029 0.09554
 Zr179 Zr 0.47258 0.47397 0.07737
 O180 O 0.47212 0.47058 0.17672
 O181 O 0.42869 0.43507 0.07250
 Zr182 Zr 0.54039 0.53923 0.07733
 O183 O 0.54412 0.53966 0.17657
 O184 O 0.58090 0.58189 0.07229
 O185 O 0.49382 0.52073 0.09001
 O186 O 0.51884 0.49281 0.08944
 O187 O 0.47907 0.43847 -0.11315
 O188 O 0.51990 0.44448 -0.05576
 C189 C 0.49926 0.43109 -0.09871
 O190 O 0.53318 0.57334 -0.11633
 O191 O 0.49308 0.56826 -0.05740
 C192 C 0.51326 0.58102 -0.10151
 O193 O 0.57441 0.53037 -0.11299
 O194 O 0.56579 0.48875 -0.05513
 C195 C 0.58002 0.50894 -0.09861
 O196 O 0.44247 0.48582 -0.12062
 O197 O 0.44908 0.52580 -0.05940
 C198 C 0.43640 0.50688 -0.10562
 Zr199 Zr 0.47262 0.47383 -0.07947
 O200 O 0.46881 0.46806 -0.17819
 O201 O 0.42881 0.43510 -0.07011
 Zr202 Zr 0.54054 0.53917 -0.07967
 O203 O 0.54353 0.53956 -0.17912
 O204 O 0.58147 0.58144 -0.07459
 Zr205 Zr 0.48502 0.53066 -0.00137
 Zr206 Zr 0.52808 0.48247 -0.00102
 O207 O 0.51888 0.49277 -0.09155
 O208 O 0.49405 0.52065 -0.09254
 O209 O 0.48038 0.45431 -0.00104
 O210 O 0.53263 0.55802 -0.00117
 O211 O 0.45504 0.48350 -0.00130
 O212 O 0.55865 0.52970 -0.00112
 H213 H 0.52506 0.48593 0.12726
 H214 H 0.54157 0.58034 -0.00080
 H215 H 0.52506 0.48604 -0.12968
 H216 H 0.43298 0.47623 -0.00176
 H217 H 0.59673 0.57869 0.05289
 H218 H 0.59727 0.57780 -0.05665
 H219 H 0.52365 0.53523 -0.19598
 H220 H 0.48633 0.48623 -0.19651
 H221 H 0.43137 0.41768 -0.05902
 H222 H 0.43067 0.41863 0.05244
 H223 H 0.47832 0.49088 0.19395
 H224 H 0.52379 0.53329 0.19403
 O225 O 0.46976 0.04137 0.12018
 O226 O 0.50902 0.07522 0.05763
 C227 C 0.49009 0.06868 0.10386
 O228 O 0.52086 -0.04171 0.11092
 O229 O 0.47831 -0.07661 0.05763
 C230 C 0.49993 -0.06932 0.09825
 O231 O 0.55890 0.04252 0.11582
 O232 O 0.55197 0.07587 0.05546
 C233 C 0.56511 0.06971 0.10075
 O234 O 0.42639 -0.04298 0.11968
 O235 O 0.43299 -0.07718 0.06137
 C236 C 0.41995 -0.07037 0.10592
 Zr237 Zr 0.46040 -0.00096 0.08360
 O238 O 0.45902 -0.00226 0.18322
 O239 O 0.41912 -0.00071 0.07829
 Zr240 Zr 0.52744 0.00009 0.07686
 O241 O 0.53334 -0.00107 0.17505
 O242 O 0.57060 0.00431 0.06312
 O243 O 0.50723 0.02636 0.09203
 O244 O 0.48135 -0.02640 0.09333
 O245 O 0.42134 -0.04514 -0.10204
 O246 O 0.43117 -0.07824 -0.04785
 C247 C 0.41563 -0.07227 -0.08790
 O248 O 0.55613 0.04070 -0.11934
 O249 O 0.55047 0.07494 -0.05913
 C250 C 0.56296 0.06809 -0.10468
 O251 O 0.51685 -0.04356 -0.11179
 O252 O 0.47665 -0.07752 -0.05131
 C253 C 0.49656 -0.07094 -0.09572
 O254 O 0.46554 0.03917 -0.11238
 O255 O 0.50672 0.07422 -0.05588
 C256 C 0.48626 0.06682 -0.09932
 Zr257 Zr 0.45706 -0.00236 -0.07303
 O258 O 0.45084 -0.00643 -0.17174
 O259 O 0.41708 0.00029 -0.06319
 Zr260 Zr 0.52402 -0.00127 -0.07974
 O261 O 0.52204 -0.00514 -0.17909
 O262 O 0.56744 0.00267 -0.07956
 Zr263 Zr 0.51468 0.04462 0.00028
 Zr264 Zr 0.46979 -0.04683 0.00374
 O265 O 0.47745 -0.02808 -0.08741
 O266 O 0.50347 0.02493 -0.09023
 O267 O 0.44009 -0.02935 0.00691
 O268 O 0.54377 0.02654 -0.00268
 O269 O 0.46724 0.02528 0.00471
 O270 O 0.51731 -0.02814 -0.00086
 H271 H 0.47572 -0.03898 0.13193
 H272 H 0.56592 0.04103 -0.00402
 H273 H 0.47024 -0.04148 -0.12482
 H274 H 0.45882 0.03907 0.00541
 H275 H 0.56735 -0.01598 0.05223
 H276 H 0.56544 -0.01566 -0.05905
 H277 H 0.51695 0.00989 -0.19556
 H278 H 0.47110 0.00586 -0.19111
 H279 H 0.40226 -0.01766 -0.03887
 H280 H 0.41305 -0.00014 0.12237
 H281 H 0.47971 0.01225 0.19838
 H282 H 0.51644 0.00004 0.19514
 C283 C 1.15418 0.50229 0.28231
 N284 N 1.18481 0.52098 0.27978
 N285 N 1.20177 0.52615 0.33142
 C286 C 1.18860 0.51333 0.38760
 N287 N 1.15802 0.49469 0.38915
 N288 N 1.14126 0.48919 0.33784
 C289 C 1.13417 0.49686 0.22819
 N290 N 1.14237 0.51670 0.17936
 N291 N 1.12195 0.51341 0.13596
 C292 C 1.09277 0.49013 0.13989
 N293 N 1.08499 0.47000 0.18775
 N294 N 1.10524 0.47334 0.23099
 C295 C 0.49961 0.65253 0.28408
 N296 N 0.51201 0.65181 0.33982
 N297 N 0.50698 0.66339 0.39118
 C298 C 0.48958 0.67660 0.38950
 N299 N 0.47743 0.67781 0.33313
 N300 N 0.48209 0.66568 0.28142
 C301 C 0.50472 0.63782 0.22981
 N302 N 0.48487 0.62635 0.18095
 N303 N 0.48781 0.60901 0.13753
 C304 C 0.51075 0.60272 0.14153
 N305 N 0.53089 0.61492 0.18941
 N306 N 0.52789 0.63203 0.23265
 C307 C 0.35562 -0.15467 0.29744
 N308 N 0.35858 -0.14188 0.35481
 N309 N 0.34724 -0.15899 0.40586
 C310 C 0.33209 -0.18974 0.40203
 N311 N 0.32915 -0.20261 0.34427
 N312 N 0.34093 -0.18540 0.29297
 C313 C 0.36853 -0.13476 0.24238
 N314 N 0.37774 -0.14339 0.19015
 N315 N 0.39278 -0.12342 0.14430
 C316 C 0.39870 -0.09432 0.14882
 N317 N 0.38870 -0.08616 0.20025
 N318 N 0.37400 -0.10592 0.24606
 C319 C 0.84808 0.48847 0.28303
 N320 N 0.81812 0.46694 0.28348
 N321 N 0.80132 0.46229 0.33517
 C322 C 0.81405 0.47863 0.38844
 N323 N 0.84392 0.50010 0.38750
 N324 N 0.86053 0.50496 0.33594
 C325 C 0.86782 0.49329 0.22841
 N326 N 0.89638 0.51755 0.22826
 N327 N 0.91613 0.52071 0.18376
 C328 C 0.90818 0.49978 0.13739
 N329 N 0.87933 0.47576 0.13648
 N330 N 0.85944 0.47262 0.18112
 C331 C 0.50418 0.35271 0.27522
 N332 N 0.52591 0.34469 0.27631
 N333 N 0.53027 0.33247 0.32803
 C334 C 0.51333 0.32824 0.38062
 N335 N 0.49149 0.33599 0.37906
 N336 N 0.48691 0.34782 0.32735
 C337 C 0.50077 0.36901 0.22163
 N338 N 0.47705 0.37403 0.22096
 N339 N 0.47550 0.39221 0.17818
 C340 C 0.49760 0.40619 0.13421
 N341 N 0.52108 0.40067 0.13371
 N342 N 0.52260 0.38232 0.17663
 C343 C 0.63546 0.15669 0.28392
 N344 N 0.64038 0.14508 0.33698
 N345 N 0.65225 0.16221 0.38775
 C346 C 0.65991 0.19181 0.38773
 N347 N 0.65550 0.20378 0.33426
 N348 N 0.64321 0.18641 0.28331
 C349 C 0.62049 0.13621 0.23041
 N350 N 0.60740 0.14338 0.18276
 N351 N 0.59085 0.12274 0.13908
 C352 C 0.58699 0.09435 0.14148
 N353 N 0.60068 0.08760 0.18830
 N354 N 0.61707 0.10808 0.23178
 C355 C 0.49678 0.15208 -0.28004
 N356 N 0.51065 0.18278 -0.27460
 N357 N 0.51577 0.20009 -0.32568
 C358 C 0.50783 0.18732 -0.38405
 N359 N 0.49390 0.15665 -0.38852
 N360 N 0.48830 0.13945 -0.33783
 C361 C 0.49173 0.13192 -0.22635
 N362 N 0.46974 0.10240 -0.23115
 N363 N 0.46732 0.08222 -0.18862
 C364 C 0.48696 0.09060 -0.13969
 N365 N 0.50874 0.12032 -0.13388
 N366 N 0.51105 0.14069 -0.17648
 C367 C 0.64529 0.48897 -0.28729
 N368 N 0.66239 0.47544 -0.28313
 N369 N 0.67419 0.47048 -0.33501
 C370 C 0.66884 0.47834 -0.39296
 N371 N 0.65125 0.49132 -0.39633
 N372 N 0.63994 0.49670 -0.34482
 C373 C 0.63275 0.49614 -0.23186
 N374 N 0.62821 0.52009 -0.23513
 N375 N 0.61317 0.52508 -0.19005
 C376 C 0.60179 0.50622 -0.13984
 N377 N 0.60682 0.48247 -0.13561
 N378 N 0.62224 0.47762 -0.18071
 C379 C 0.84348 0.35465 -0.28764
 N380 N 0.85664 0.35869 -0.34490
 N381 N 0.83988 0.34775 -0.39643
 C382 C 0.80908 0.33188 -0.39335
 N383 N 0.79577 0.32776 -0.33566
 N384 N 0.81265 0.33921 -0.28378
 C385 C 0.86323 0.36723 -0.23223
 N386 N 0.85531 0.37796 -0.18137
 N387 N 0.87565 0.39340 -0.13635
 C388 C 0.90444 0.39828 -0.14038
 N389 N 0.91183 0.38668 -0.19028
 N390 N 0.89172 0.37158 -0.23526
 C391 C 0.48392 -0.15597 -0.27904
 N392 N 0.46195 -0.18576 -0.28024
 N393 N 0.45742 -0.20239 -0.33210
 C394 C 0.47435 -0.18961 -0.38475
 N395 N 0.49626 -0.15995 -0.38304
 N396 N 0.50099 -0.14354 -0.33131
 C397 C 0.48865 -0.13626 -0.22455
 N398 N 0.46739 -0.14402 -0.17858
 N399 N 0.47056 -0.12385 -0.13463
 C400 C 0.49516 -0.09536 -0.13504
 N401 N 0.51665 -0.08808 -0.17998
 N402 N 0.51347 -0.10809 -0.22373
 C403 C 0.36575 0.52382 -0.28722
 N404 N 0.35740 0.54531 -0.28506
 N405 N 0.34481 0.55046 -0.33531
 C406 C 0.34064 0.53461 -0.38953
 N407 N 0.34886 0.51313 -0.39106
 N408 N 0.36104 0.50779 -0.34101
 C409 C 0.38111 0.51832 -0.23462
 N410 N 0.38531 0.49413 -0.23781
 N411 N 0.40185 0.49003 -0.19490
 C412 C 0.41495 0.50996 -0.14689
 N413 N 0.41038 0.53400 -0.14274
 N414 N 0.39367 0.53809 -0.18587
 C415 C 1.15860 0.62528 -0.29562
 N416 N 1.18816 0.64705 -0.28773
 N417 N 1.20593 0.66032 -0.33776
 C418 C 1.19489 0.65204 -0.39737
 N419 N 1.16556 0.62960 -0.40432
 N420 N 1.14781 0.61669 -0.35475
 C421 C 1.13724 0.61221 -0.24286
 N422 N 1.10764 0.60312 -0.25319
 N423 N 1.08698 0.58893 -0.20860
 C424 C 1.09495 0.58295 -0.15187
 N425 N 1.12470 0.59227 -0.14095
 N426 N 1.14558 0.60692 -0.18560
 C427 C 0.84716 0.49508 -0.27407
 N428 N 0.81750 0.47287 -0.27552
 N429 N 0.80089 0.46834 -0.32727
 C430 C 0.81352 0.48560 -0.37948
 N431 N 0.84302 0.50794 -0.37756
 N432 N 0.85945 0.51267 -0.32580
 C433 C 0.86699 0.49849 -0.22085
 N434 N 0.89570 0.52244 -0.21995
 N435 N 0.91567 0.52392 -0.17789
 C436 C 0.90780 0.50148 -0.13499
 N437 N 0.87880 0.47778 -0.13463
 N438 N 0.85870 0.47634 -0.17683
 C439 C 0.51309 0.36101 -0.28445
 N440 N 0.52530 0.34273 -0.28014
 N441 N 0.52959 0.33044 -0.33198
 C442 C 0.52241 0.33651 -0.38993
 N443 N 0.51075 0.35524 -0.39340
 N444 N 0.50601 0.36703 -0.34196
 C445 C 0.50704 0.37447 -0.22935
 N446 N 0.48425 0.38079 -0.23285
 N447 N 0.48076 0.39714 -0.18852
 C448 C 0.50006 0.40809 -0.13897
 N449 N 0.52257 0.40122 -0.13440
 N450 N 0.52592 0.38452 -0.17876
 C451 C 0.64075 0.15563 -0.27952
 N452 N 0.64731 0.14462 -0.33157
 N453 N 0.65980 0.16209 -0.38174
 C454 C 0.66652 0.19139 -0.38170
 N455 N 0.66068 0.20279 -0.32909
 N456 N 0.64784 0.18514 -0.27886
 C457 C 0.62363 0.13463 -0.22830
 N458 N 0.61021 0.14220 -0.18198
 N459 N 0.59161 0.12138 -0.14063
 C460 C 0.58585 0.09234 -0.14441
 N461 N 0.59977 0.08509 -0.18995
 N462 N 0.61825 0.10579 -0.23106
 C463 C 1.15389 0.49589 -0.27979
 N464 N 1.14097 0.48324 -0.33561
 N465 N 1.15778 0.48895 -0.38699
 C466 C 1.18839 0.50726 -0.38502
 N467 N 1.20157 0.51922 -0.32841
 N468 N 1.18458 0.51393 -0.27679
 C469 C 1.13385 0.49161 -0.22642
 N470 N 1.14229 0.51235 -0.17927
 N471 N 1.12183 0.51061 -0.13755
 C472 C 1.09233 0.48810 -0.14175
 N473 N 1.08428 0.46705 -0.18782
 N474 N 1.10459 0.46883 -0.22937
 C475 C 0.50710 0.65936 -0.27793
 N476 N 0.51893 0.65806 -0.33407
 N477 N 0.51357 0.66933 -0.38549
 C478 C 0.49646 0.68284 -0.38323
 N479 N 0.48531 0.68505 -0.32635
 N480 N 0.49022 0.67317 -0.27467
 C481 C 0.51101 0.64356 -0.22438
 N482 N 0.49005 0.63127 -0.17752
 N483 N 0.49131 0.61229 -0.13591
 C484 C 0.51357 0.60505 -0.13995
 N485 N 0.53485 0.61807 -0.18567
 N486 N 0.53353 0.63683 -0.22712
 C487 C 0.33875 -0.15970 -0.26255
 N488 N 0.33161 -0.14856 -0.31360
 N489 N 0.32129 -0.16491 -0.36595
 C490 C 0.31738 -0.19321 -0.36918
 N491 N 0.32372 -0.20479 -0.31757
 N492 N 0.33441 -0.18824 -0.26524
 C493 C 0.35443 -0.13941 -0.20928
 N494 N 0.36982 -0.14617 -0.16609
 N495 N 0.38808 -0.12538 -0.12438
 C496 C 0.39149 -0.09718 -0.12439
 N497 N 0.37539 -0.09086 -0.16638
 N498 N 0.35725 -0.11153 -0.20795
 C499 C 0.49142 -0.15362 0.27875
 N500 N 0.50767 -0.14126 0.33201
 N501 N 0.50257 -0.15798 0.38345
 C502 C 0.48121 -0.18785 0.38357
 N503 N 0.46527 -0.20050 0.32992
 N504 N 0.47013 -0.18361 0.27847
 C505 C 0.49549 -0.13376 0.22513
 N506 N 0.47406 -0.14216 0.17946
 N507 N 0.47612 -0.12215 0.13635
 C508 C 0.49978 -0.09315 0.13730
 N509 N 0.52152 -0.08515 0.18194
 N510 N 0.51940 -0.10502 0.22498
 C511 C 0.36046 0.51912 0.27727
 N512 N 0.35377 0.54179 0.27682
 N513 N 0.34146 0.54698 0.32743
 C514 C 0.33584 0.52992 0.38028
 N515 N 0.34230 0.50719 0.38023
 N516 N 0.35422 0.50182 0.32968
 C517 C 0.37649 0.51436 0.22505
 N518 N 0.38019 0.48986 0.22655
 N519 N 0.39776 0.48670 0.18465
 C520 C 0.41243 0.50793 0.13949
 N521 N 0.40831 0.53227 0.13690
 N522 N 0.39059 0.53542 0.17901
 C523 C 1.16001 0.64205 0.27318
 N524 N 1.18873 0.64671 0.27437
 N525 N 1.20626 0.65894 0.32498
 C526 C 1.19553 0.66665 0.37608
 N527 N 1.16704 0.66232 0.37438
 N528 N 1.14970 0.65042 0.32381
 C529 C 1.13884 0.62532 0.22191
 N530 N 1.11053 0.62150 0.22350
 N531 N 1.08950 0.60326 0.18269
 C532 C 1.09588 0.58805 0.13855
 N533 N 1.12442 0.59229 0.13585
 N534 N 1.14556 0.61062 0.17693
 C535 C 0.50373 0.15606 0.28161
 N536 N 0.52841 0.18442 0.28506
 N537 N 0.53350 0.20130 0.33668
 C538 C 0.51429 0.19013 0.38670
 N539 N 0.48953 0.16202 0.38252
 N540 N 0.48433 0.14537 0.33105
 C541 C 0.49891 0.13555 0.22892
 N542 N 0.47379 0.10758 0.22905
 N543 N 0.47049 0.08687 0.18700
 C544 C 0.49215 0.09330 0.14296
 N545 N 0.51705 0.12156 0.14160
 N546 N 0.52040 0.14237 0.18397
 C547 C 0.65630 0.49930 0.27177
 N548 N 0.66213 0.47608 0.27346
 N549 N 0.67340 0.47072 0.32544
 C550 C 0.67877 0.48813 0.37765
 N551 N 0.67322 0.51146 0.37552
 N552 N 0.66235 0.51702 0.32352
 C553 C 0.64073 0.50373 0.21830
 N554 N 0.63773 0.52866 0.21709
 N555 N 0.61990 0.53119 0.17494
 C556 C 0.60427 0.50889 0.13227
 N557 N 0.60783 0.48420 0.13217
 N558 N 0.62582 0.48169 0.17446
 C559 C 0.84250 0.34378 0.27103
 N560 N 0.81354 0.33837 0.27263
 N561 N 0.79678 0.32745 0.32468
 C562 C 0.80859 0.32199 0.37708
 N563 N 0.83738 0.32707 0.37501
 N564 N 0.85393 0.33762 0.32294
 C565 C 0.86271 0.35917 0.21755
 N566 N 0.89073 0.36228 0.21675
 N567 N 0.91126 0.38003 0.17454
 C568 C 0.90466 0.39546 0.13140
 N569 N 0.87632 0.39178 0.13091
 N570 N 0.85566 0.37388 0.17326
   
