data_POSCAR
  _audit_creation_date              2014-09-24
  _audit_creation_method            'ToBaCCo'
  _symmetry_space_group_name_H-M    'P1'
  _symmetry_Int_Tables_number       1
  _symmetry_cell_setting            triclinic
  loop_
  _symmetry_equiv_pos_as_xyz
 x,y,z
_cell_length_a 40.3843
_cell_length_b 39.4841
_cell_length_c 41.0920
_cell_angle_alpha 91.002400
_cell_angle_beta 90.081100
_cell_angle_gamma 90.299700
loop_
  _atom_site_label
  _atom_site_type_symbol
  _atom_site_fract_x
  _atom_site_fract_y
  _atom_site_fract_z
C1 C 0.12271 0.11991 0.17141
 N2 N 0.10888 0.14728 0.15733
 C3 C 0.12194 0.15979 0.12958
 N4 N 0.14948 0.14555 0.11650
 C5 C 0.16339 0.11820 0.13052
 N6 N 0.15028 0.10573 0.15827
 C7 C -0.12566 0.88685 0.16523
 N8 N -0.11078 0.85964 0.15104
 C9 C -0.12364 0.84542 0.12350
 N10 N -0.15191 0.85788 0.11064
 C11 C -0.16687 0.88509 0.12474
 N12 N -0.15400 0.89927 0.15235
 C13 C -0.12397 0.11120 -0.16418
 N14 N -0.15197 0.09803 -0.15111
 C15 C -0.16484 0.11202 -0.12352
 N16 N -0.15023 0.13969 -0.10960
 C17 C -0.12229 0.15289 -0.12268
 N18 N -0.10942 0.13890 -0.15021
 C19 C 0.11972 0.88207 -0.17051
 N20 N 0.10604 0.85456 -0.15631
 C21 C 0.11926 0.84235 -0.12852
 N22 N 0.14682 0.85702 -0.11554
 C23 C 0.16058 0.88450 -0.12968
 N24 N 0.14731 0.89667 -0.15747
 C25 C 0.12513 1.11230 0.83744
 N26 N 0.15004 1.09681 0.85356
 C27 C 0.16098 1.10979 0.88249
 N28 N 0.14766 1.13881 0.89473
 C29 C 0.12278 1.15432 0.87865
 N30 N 0.11185 1.14127 0.84981
 C31 C 0.87287 0.87600 0.82395
 N32 N 0.88709 0.84916 0.83856
 C33 C 0.87392 0.83672 0.86627
 N34 N 0.84600 0.85060 0.87891
 C35 C 0.83171 0.87744 0.86437
 N36 N 0.84489 0.88984 0.83661
 C37 C 0.12324 0.88999 1.16200
 N38 N 0.11006 0.86081 1.14962
 C39 C 0.12104 0.84789 1.12083
 N40 N 0.14586 0.86375 1.10481
 C41 C 0.15907 0.89297 1.11706
 N42 N 0.14810 0.90582 1.14594
 C43 C 0.87545 1.12363 1.17499
 N44 N 0.84766 1.10923 1.16212
 C45 C 0.83438 1.12154 1.13439
 N46 N 0.84837 1.14880 1.12008
 C47 C 0.87610 1.16324 1.13293
 N48 N 0.88938 1.15091 1.16062
 N49 N 0.53349 1.06096 0.96786
 N50 N 0.56200 1.07756 0.96794
 N51 N 0.46303 1.03885 0.94429
 N52 N 0.43404 1.03841 0.92942
 N53 N 0.46328 1.06165 0.96801
 N54 N 0.43434 1.07705 0.96977
 N55 N 0.53280 1.03826 0.94411
 N56 N 0.56067 1.03895 0.92742
 C57 C 0.57830 1.06391 0.94221
 C58 C 0.41673 1.06277 0.94513
 N59 N 0.46180 0.94183 0.96230
 N60 N 0.43363 0.92470 0.96050
 N61 N 0.53195 0.96555 0.94088
 N62 N 0.55972 0.96503 0.92398
 N63 N 0.53180 0.94132 0.96242
 N64 N 0.55953 0.92379 0.96070
 N65 N 0.46220 0.96607 0.94081
 N66 N 0.43442 0.96596 0.92385
 Mn67 Mn 0.49750 1.00223 0.94215
 C68 C 0.41716 0.93980 0.93613
 C69 C 0.57634 0.93862 0.93632
 N70 N 0.46360 1.05959 1.03796
 N71 N 0.43592 1.07722 1.03973
 N72 N 0.53304 1.03451 1.05945
 N73 N 0.56067 1.03468 1.07665
 N74 N 0.53360 1.05871 1.03790
 N75 N 0.56171 1.07590 1.03990
 N76 N 0.46336 1.03534 1.05945
 N77 N 0.43562 1.03596 1.07638
 Mn78 Mn 0.49853 1.06072 1.00292
 C79 C 0.41907 1.06243 1.06409
 C80 C 0.57798 1.06089 1.06449
 N81 N 0.53174 0.93905 1.03238
 N82 N 0.55973 0.92187 1.03220
 N83 N 0.46204 0.96256 1.05595
 N84 N 0.43310 0.96355 1.07082
 N85 N 0.46157 0.93977 1.03222
 N86 N 0.43221 0.92491 1.03047
 N87 N 0.53188 0.96180 1.05610
 N88 N 0.55987 0.96060 1.07263
 Mn89 Mn 0.49674 0.94001 0.99735
 Mn90 Mn 0.49759 0.99850 1.05811
 Cl91 Cl 0.49759 1.00037 1.00013
 C92 C 0.57664 0.93527 1.05777
 C93 C 0.41508 0.93952 1.05510
 N94 N 0.03685 0.46621 0.05820
 N95 N 0.03742 0.43800 0.07498
 N96 N 0.05983 0.53720 0.03491
 N97 N 0.07667 0.56597 0.03535
 N98 N 0.03687 0.53767 0.05754
 N99 N 0.03755 0.56674 0.07390
 N100 N 0.05983 0.46565 0.03559
 N101 N 0.07656 0.43704 0.03645
 C102 C 0.06261 0.42043 0.06143
 C103 C 0.06279 0.58379 0.06009
 N104 N 0.03664 0.53436 -0.05769
 N105 N 0.03707 0.56261 -0.07441
 N106 N 0.05973 0.46364 -0.03439
 N107 N 0.07666 0.43511 -0.03488
 N108 N 0.03669 0.46290 -0.05700
 N109 N 0.03740 0.43386 -0.07342
 N110 N 0.05969 0.53519 -0.03508
 N111 N 0.07632 0.56405 -0.03589
 Mn112 Mn 0.06022 0.50043 0.00026
 C113 C 0.06224 0.58051 -0.06084
 C114 C 0.06273 0.41714 -0.05964
 N115 N -0.03428 0.53725 0.05759
 N116 N -0.03486 0.56628 0.07399
 N117 N -0.05734 0.46503 0.03568
 N118 N -0.07446 0.43648 0.03701
 N119 N -0.03431 0.46590 0.05830
 N120 N -0.03522 0.43804 0.07558
 N121 N -0.05730 0.53660 0.03494
 N122 N -0.07405 0.56525 0.03539
 Mn123 Mn 0.00129 0.50176 0.05831
 C124 C -0.06009 0.58313 0.06021
 C125 C -0.06066 0.42029 0.06231
 N126 N -0.03447 0.46255 -0.05703
 N127 N -0.03508 0.43349 -0.07341
 N128 N -0.05745 0.53453 -0.03513
 N129 N -0.07459 0.56288 -0.03649
 N130 N -0.03450 0.53389 -0.05777
 N131 N -0.03549 0.56172 -0.07508
 N132 N -0.05742 0.46296 -0.03439
 N133 N -0.07416 0.43412 -0.03481
 Mn134 Mn 0.00110 0.49841 -0.05778
 Mn135 Mn -0.05785 0.49978 0.00028
 Cl136 Cl 0.00117 0.50010 0.00027
 C137 C -0.06027 0.41638 -0.05961
 C138 C -0.06090 0.57919 -0.06182
 N139 N 0.94590 -0.03491 0.46316
 N140 N 0.92851 -0.03456 0.43595
 N141 N 0.96860 -0.06175 0.53031
 N142 N 0.96772 -0.08007 0.55691
 N143 N 0.94577 -0.03816 0.53155
 N144 N 0.92884 -0.03989 0.55892
 N145 N 0.96878 -0.05842 0.46160
 N146 N 0.96755 -0.07459 0.43319
 C147 C 0.94199 -0.05972 0.41781
 C148 C 0.94247 -0.06642 0.57414
 N149 N 1.06304 -0.03842 0.53205
 N150 N 1.07912 -0.03972 0.55999
 N151 N 1.04009 -0.05860 0.46184
 N152 N 1.04105 -0.07464 0.43336
 N153 N 1.06332 -0.03521 0.46354
 N154 N 1.08068 -0.03483 0.43635
 N155 N 1.03987 -0.06191 0.53055
 N156 N 1.03968 -0.07969 0.55748
 Mn157 Mn 1.00434 -0.06065 0.49603
 C158 C 1.06466 -0.06592 0.57522
 C159 C 1.06682 -0.05986 0.41807
 N160 N 0.94625 0.03451 0.53594
 N161 N 0.92887 0.03410 0.56310
 N162 N 0.96965 0.06124 0.46899
 N163 N 0.96920 0.07955 0.44239
 N164 N 0.94649 0.03775 0.46757
 N165 N 0.92974 0.03955 0.44006
 N166 N 0.96948 0.05790 0.53767
 N167 N 0.96849 0.07392 0.56615
 Mn168 Mn 0.94572 -0.00020 0.49955
 C169 C 0.94271 0.05911 0.58138
 C170 C 0.94385 0.06602 0.42497
 N171 N 1.06374 0.03752 0.46790
 N172 N 1.08008 0.03887 0.44014
 N173 N 1.04079 0.05781 0.53794
 N174 N 1.04205 0.07407 0.56629
 N175 N 1.06367 0.03431 0.53642
 N176 N 1.08110 0.03406 0.56363
 N177 N 1.04090 0.06110 0.46925
 N178 N 1.04120 0.07900 0.44239
 Mn179 Mn 1.06385 -0.00046 0.49998
 Mn180 Mn 1.00521 0.05999 0.50351
 Cl181 Cl 1.00479 -0.00033 0.49977
 C182 C 1.06612 0.06519 0.42486
 C183 C 1.06762 0.05929 0.58172
 C184 C 1.08306 0.08528 0.32902
 C185 C 1.07193 0.06194 0.30475
 C186 C 1.07876 0.06800 0.27141
 C187 C 1.09644 0.09748 0.26256
 C188 C 1.10707 0.12108 0.28682
 C189 C 1.10039 0.11493 0.32013
 C190 C 1.11141 0.13880 0.34395
 C191 C 1.12851 0.16794 0.33509
 C192 C 1.13503 0.17400 0.30252
 C193 C 1.12451 0.15095 0.27857
 C194 C 1.06789 0.04408 0.24763
 C195 C 1.05096 0.01483 0.25656
 C196 C 1.04435 0.00887 0.28915
 C197 C 1.05439 0.03220 0.31306
 C198 C 1.10442 0.10361 0.22872
 C199 C 1.11234 0.11039 0.20131
 C200 C 1.07720 0.07859 0.36315
 C201 C 1.07238 0.07288 0.39147
 H202 H 1.10691 0.13524 0.36961
 H203 H 1.13673 0.18593 0.35362
 H204 H 1.14831 0.19669 0.29575
 H205 H 1.13019 0.15687 0.25358
 H206 H 1.07258 0.04761 0.22199
 H207 H 1.04312 -0.00342 0.23811
 H208 H 1.03170 -0.01415 0.29600
 H209 H 1.04870 0.02640 0.33808
 C210 C 0.91974 -0.07545 0.32163
 C211 C 0.90088 -0.05121 0.30475
 C212 C 0.89359 -0.05640 0.27117
 C213 C 0.90482 -0.08602 0.25482
 C214 C 0.92415 -0.10996 0.27157
 C215 C 0.93148 -0.10475 0.30512
 C216 C 0.95006 -0.12951 0.32156
 C217 C 0.96097 -0.15862 0.30534
 C218 C 0.95432 -0.16347 0.27241
 C219 C 0.93614 -0.13950 0.25559
 C220 C 0.87493 -0.03175 0.25473
 C221 C 0.86360 -0.00282 0.27105
 C222 C 0.87040 0.00209 0.30397
 C223 C 0.88880 -0.02175 0.32077
 C224 C 0.89437 -0.09347 0.22164
 C225 C 0.88518 -0.10170 0.19471
 C226 C 0.92720 -0.07028 0.35592
 C227 C 0.93374 -0.06588 0.38430
 H228 H 0.95608 -0.12682 0.34714
 H229 H 0.97461 -0.17757 0.31844
 H230 H 0.96312 -0.18601 0.25986
 H231 H 0.93155 -0.14445 0.22999
 H232 H 0.86909 -0.03447 0.22910
 H233 H 0.84955 0.01592 0.25807
 H234 H 0.86164 0.02465 0.31651
 H235 H 0.89367 -0.01669 0.34630
 C236 C 0.92133 0.07385 0.67773
 C237 C 0.93417 0.10255 0.69465
 C238 C 0.92707 0.10746 0.72824
 C239 C 0.90688 0.08382 0.74462
 C240 C 0.89463 0.05472 0.72789
 C241 C 0.90168 0.04983 0.69426
 C242 C 0.88862 0.02088 0.67787
 C243 C 0.86948 -0.00276 0.69434
 C244 C 0.86288 0.00186 0.72730
 C245 C 0.87516 0.03029 0.74399
 C246 C 0.94016 0.13642 0.74465
 C247 C 0.95921 0.16011 0.72818
 C248 C 0.96568 0.15556 0.69521
 C249 C 0.95365 0.12702 0.67858
 C250 C 0.89659 0.09113 0.77781
 C251 C 0.88749 0.09919 0.80474
 C252 C 0.92844 0.06906 0.64338
 C253 C 0.93472 0.06496 0.61495
 H254 H 0.89331 0.01605 0.65229
 H255 H 0.85999 -0.02495 0.68151
 H256 H 0.84824 -0.01673 0.74003
 H257 H 0.86946 0.03279 0.76965
 H258 H 0.93577 0.14111 0.77030
 H259 H 0.96886 0.18221 0.74104
 H260 H 0.97999 0.17430 0.68240
 H261 H 0.95955 0.12454 0.65297
 C262 C 1.08045 -0.08523 0.67140
 C263 C 1.06994 -0.06134 0.69530
 C264 C 1.07654 -0.06703 0.72877
 C265 C 1.09338 -0.09668 0.73809
 C266 C 1.10332 -0.12086 0.71421
 C267 C 1.09687 -0.11509 0.68078
 C268 C 1.10721 -0.13952 0.65734
 C269 C 1.12345 -0.16885 0.66667
 C270 C 1.12975 -0.17454 0.69936
 C271 C 1.11988 -0.15093 0.72295
 C272 C 1.06630 -0.04257 0.75217
 C273 C 1.05021 -0.01316 0.74278
 C274 C 1.04382 -0.00756 0.71007
 C275 C 1.05325 -0.03141 0.68652
 C276 C 1.10133 -0.10234 0.77203
 C277 C 1.10927 -0.10877 0.79952
 C278 C 1.07497 -0.07887 0.63715
 C279 C 1.07049 -0.07340 0.60873
 H280 H 1.10284 -0.13628 0.63160
 H281 H 1.13117 -0.18727 0.64842
 H282 H 1.14237 -0.19737 0.70650
 H283 H 1.12535 -0.15658 0.74805
 H284 H 1.07085 -0.04581 0.77789
 H285 H 1.04285 0.00549 0.76094
 H286 H 1.03181 0.01557 0.70285
 H287 H 1.04775 -0.02589 0.66139
 C288 C 0.32219 1.08035 1.08698
 C289 C 0.29670 1.06987 1.06528
 C290 C 0.26299 1.07546 1.07369
 C291 C 0.25504 1.09128 1.10382
 C292 C 0.28053 1.10095 1.12586
 C293 C 0.31419 1.09561 1.11735
 C294 C 0.33923 1.10562 1.13973
 C295 C 0.33124 1.12040 1.16971
 C296 C 0.29831 1.12557 1.17808
 C297 C 0.27316 1.11603 1.15652
 C298 C 0.23794 1.06502 1.05155
 C299 C 0.24594 1.04945 1.02192
 C300 C 0.27887 1.04391 1.01376
 C301 C 0.30406 1.05386 1.03510
 C302 C 0.22090 1.09900 1.11194
 C303 C 0.19333 1.10713 1.12001
 C304 C 0.35663 1.07477 1.07852
 C305 C 0.38525 1.06971 1.07192
 H306 H 0.36522 1.10208 1.13438
 H307 H 0.35070 1.12787 1.18654
 H308 H 0.29220 1.13702 1.20142
 H309 H 0.24793 1.12052 1.16424
 H310 H 0.21198 1.06874 1.05694
 H311 H 0.22651 1.04170 1.00517
 H312 H 0.28495 1.03206 0.99062
 H313 H 0.32931 1.04908 1.02759
 C314 C 0.31988 0.92305 0.91311
 C315 C 0.29463 0.93368 0.93483
 C316 C 0.26081 0.92814 0.92652
 C317 C 0.25250 0.91222 0.89646
 C318 C 0.27775 0.90253 0.87433
 C319 C 0.31152 0.90781 0.88275
 C320 C 0.33632 0.89775 0.86031
 C321 C 0.32797 0.88298 0.83035
 C322 C 0.29494 0.87788 0.82207
 C323 C 0.27002 0.88746 0.84370
 C324 C 0.23600 0.93869 0.94869
 C325 C 0.24436 0.95435 0.97825
 C326 C 0.27739 0.95985 0.98631
 C327 C 0.30235 0.94976 0.96494
 C328 C 0.21825 0.90431 0.88856
 C329 C 0.19060 0.89593 0.88066
 C330 C 0.35443 0.92832 0.92158
 C331 C 0.38317 0.93304 0.92821
 H332 H 0.36238 0.90125 0.86559
 H333 H 0.34725 0.87549 0.81347
 H334 H 0.28856 0.86643 0.79874
 H335 H 0.24470 0.88302 0.83605
 H336 H 0.20997 0.93500 0.94337
 H337 H 0.22511 0.96218 0.99503
 H338 H 0.28374 0.97173 1.00942
 H339 H 0.32770 0.95452 0.97238
 C340 C 0.67387 0.91685 1.07841
 C341 C 0.68283 0.88780 1.09599
 C342 C 0.71644 0.88262 1.10471
 C343 C 0.74093 0.90656 1.09583
 C344 C 0.73203 0.93547 1.07797
 C345 C 0.69838 0.94057 1.06912
 C346 C 0.69001 0.96975 1.05141
 C347 C 0.71412 0.99344 1.04310
 C348 C 0.74700 0.98844 1.05172
 C349 C 0.75601 0.95976 1.06889
 C350 C 0.72475 0.85335 1.12238
 C351 C 0.70057 0.82995 1.13115
 C352 C 0.66770 0.83505 1.12262
 C353 C 0.65878 0.86359 1.10525
 C354 C 0.77511 0.90110 1.10531
 C355 C 0.80283 0.89461 1.11405
 C356 C 0.63931 0.92272 1.07073
 C357 C 0.61059 0.92792 1.06476
 H358 H 0.66476 0.97479 1.04420
 H359 H 0.70718 1.01597 1.03017
 H360 H 0.76559 1.00697 1.04525
 H361 H 0.78187 0.95698 1.07519
 H362 H 0.74997 0.84819 1.12962
 H363 H 0.70739 0.80773 1.14465
 H364 H 0.64899 0.81679 1.12947
 H365 H 0.63288 0.86639 1.09913
 C366 C 0.67648 1.07824 0.92243
 C367 C 0.69413 1.10632 0.93567
 C368 C 0.72824 1.11065 0.92833
 C369 C 0.74442 1.08703 0.90754
 C370 C 0.72701 1.05848 0.89497
 C371 C 0.69286 1.05417 0.90226
 C372 C 0.67577 1.02582 0.88880
 C373 C 0.69202 1.00228 0.86893
 C374 C 0.72550 1.00631 0.86212
 C375 C 0.74290 1.03408 0.87487
 C376 C 0.74535 1.13903 0.94174
 C377 C 0.72908 1.16271 0.96142
 C378 C 0.69561 1.15871 0.96818
 C379 C 0.67827 1.13074 0.95578
 C380 C 0.77803 1.09388 0.89697
 C381 C 0.80530 1.10145 0.88759
 C382 C 0.64149 1.07417 0.92944
 C383 C 0.61251 1.07021 0.93525
 H384 H 0.64978 1.02142 0.89364
 H385 H 0.67863 0.98061 0.85905
 H386 H 0.73807 0.98776 0.84695
 H387 H 0.76894 1.03613 0.86898
 H388 H 0.77141 1.14326 0.93713
 H389 H 0.74248 1.18436 0.97132
 H390 H 0.68296 1.17745 0.98300
 H391 H 0.65230 1.12867 0.96191
 C392 C 0.08275 0.32193 0.08289
 C393 C 0.11151 0.31422 0.10095
 C394 C 0.11817 0.28015 0.10923
 C395 C 0.09595 0.25396 0.09949
 C396 C 0.06728 0.26164 0.08124
 C397 C 0.06075 0.29573 0.07274
 C398 C 0.03195 0.30282 0.05447
 C399 C 0.00995 0.27705 0.04534
 C400 C 0.01632 0.24374 0.05367
 C401 C 0.04468 0.23596 0.07135
 C402 C 0.14714 0.27311 0.12734
 C403 C 0.16884 0.29896 0.13696
 C404 C 0.16229 0.33227 0.12885
 C405 C 0.13400 0.33996 0.11107
 C406 C 0.10286 0.21937 0.10869
 C407 C 0.11048 0.19152 0.11754
 C408 C 0.07566 0.35689 0.07524
 C409 C 0.06992 0.38600 0.06908
 H410 H 0.02590 0.32835 0.04747
 H411 H -0.01233 0.28301 0.03200
 H412 H -0.00089 0.22385 0.04654
 H413 H 0.04860 0.20970 0.07735
 H414 H 0.15340 0.24762 0.13426
 H415 H 0.19086 0.29309 0.15077
 H416 H 0.17922 0.35227 0.13637
 H417 H 0.13003 0.36627 0.10533
 C418 C -0.07848 0.31585 -0.07767
 C419 C -0.10770 0.30065 -0.06560
 C420 C -0.11416 0.26577 -0.07203
 C421 C -0.09151 0.24637 -0.09077
 C422 C -0.06179 0.26129 -0.10200
 C423 C -0.05535 0.29622 -0.09563
 C424 C -0.02587 0.31080 -0.10780
 C425 C -0.00324 0.29134 -0.12549
 C426 C -0.00935 0.25710 -0.13136
 C427 C -0.03830 0.24213 -0.11987
 C428 C -0.14362 0.25116 -0.05981
 C429 C -0.16628 0.27059 -0.04217
 C430 C -0.16018 0.30481 -0.03632
 C431 C -0.13115 0.31975 -0.04757
 C432 C -0.10042 0.21213 -0.10095
 C433 C -0.10950 0.18453 -0.11035
 C434 C -0.07236 0.35167 -0.07173
 C435 C -0.06721 0.38135 -0.06648
 H436 H -0.01989 0.33726 -0.10361
 H437 H 0.01931 0.30283 -0.13439
 H438 H 0.00846 0.24204 -0.14484
 H439 H -0.04199 0.21539 -0.12498
 H440 H -0.14947 0.22462 -0.06375
 H441 H -0.18876 0.25906 -0.03313
 H442 H -0.17808 0.31993 -0.02306
 H443 H -0.12746 0.34643 -0.04219
 C444 C 0.08160 0.67946 -0.08194
 C445 C 0.05932 0.70517 -0.07189
 C446 C 0.06552 0.73941 -0.08031
 C447 C 0.09414 0.74772 -0.09840
 C448 C 0.11665 0.72202 -0.10804
 C449 C 0.11033 0.68781 -0.09983
 C450 C 0.13311 0.66256 -0.10985
 C451 C 0.16135 0.67089 -0.12748
 C452 C 0.16758 0.70435 -0.13551
 C453 C 0.14559 0.72971 -0.12598
 C454 C 0.04263 0.76459 -0.07052
 C455 C 0.01430 0.75618 -0.05301
 C456 C 0.00825 0.72273 -0.04476
 C457 C 0.03054 0.69744 -0.05379
 C458 C 0.10069 0.78246 -0.10758
 C459 C 0.10805 0.81045 -0.11643
 C460 C 0.07483 0.64433 -0.07441
 C461 C 0.06932 0.61510 -0.06836
 H462 H 0.12939 0.63616 -0.10416
 H463 H 0.17850 0.65126 -0.13493
 H464 H 0.18956 0.71071 -0.14920
 H465 H 0.15160 0.75534 -0.13284
 H466 H 0.04630 0.79094 -0.07646
 H467 H -0.00313 0.77569 -0.04596
 H468 H -0.01400 0.71626 -0.03156
 H469 H 0.02473 0.67178 -0.04685
 C470 C -0.07864 0.68338 0.07838
 C471 C -0.05561 0.70342 0.09634
 C472 C -0.06225 0.73824 0.10268
 C473 C -0.09209 0.75264 0.09144
 C474 C -0.11465 0.73283 0.07269
 C475 C -0.10799 0.69806 0.06627
 C476 C -0.13136 0.67855 0.04824
 C477 C -0.16052 0.69297 0.03697
 C478 C -0.16683 0.72709 0.04280
 C479 C -0.14425 0.74692 0.06044
 C480 C -0.03883 0.75783 0.12055
 C481 C -0.00975 0.74337 0.13205
 C482 C -0.00344 0.70923 0.12620
 C483 C -0.02601 0.68936 0.10854
 C484 C -0.10123 0.78670 0.10164
 C485 C -0.11054 0.81411 0.11108
 C486 C -0.07233 0.64766 0.07243
 C487 C -0.06708 0.61806 0.06715
 H488 H -0.12752 0.65193 0.04288
 H489 H -0.17836 0.67753 0.02372
 H490 H -0.18941 0.73821 0.03375
 H491 H -0.15026 0.77335 0.06438
 H492 H -0.04268 0.78450 0.12564
 H493 H 0.00800 0.75876 0.14551
 H494 H 0.01922 0.69815 0.13511
 H495 H -0.01987 0.66300 0.10437
 C496 C 1.08898 0.07614 0.67804
 C497 C 1.07802 0.10631 0.69361
 C498 C 1.08387 0.11165 0.72743
 C499 C 1.10098 0.08695 0.74545
 C500 C 1.11188 0.05675 0.72990
 C501 C 1.10610 0.05144 0.69604
 C502 C 1.11784 0.02136 0.68090
 C503 C 1.13446 -0.00297 0.69877
 C504 C 1.13974 0.00204 0.73195
 C505 C 1.12870 0.03155 0.74745
 C506 C 1.07261 0.14203 0.74244
 C507 C 1.05663 0.16667 0.72443
 C508 C 1.05145 0.16168 0.69127
 C509 C 1.06163 0.13175 0.67597
 C510 C 1.10919 0.09393 0.77935
 C511 C 1.11645 0.10160 0.80701
 C512 C 1.08214 0.07042 0.64366
 C513 C 1.07586 0.06565 0.61525
 H514 H 1.11411 0.01622 0.65520
 H515 H 1.14301 -0.02598 0.68687
 H516 H 1.15239 -0.01709 0.74577
 H517 H 1.13335 0.03434 0.77330
 H518 H 1.07613 0.14714 0.76817
 H519 H 1.04837 0.18983 0.73626
 H520 H 1.03947 0.18109 0.67728
 H521 H 1.05682 0.12899 0.65015
 C522 C 0.92064 -0.08808 0.66868
 C523 C 0.93070 -0.06524 0.69382
 C524 C 0.92166 -0.07151 0.72661
 C525 C 0.90281 -0.10068 0.73406
 C526 C 0.89316 -0.12375 0.70896
 C527 C 0.90208 -0.11741 0.67619
 C528 C 0.89203 -0.14075 0.65150
 C529 C 0.87370 -0.16957 0.65899
 C530 C 0.86498 -0.17580 0.69103
 C531 C 0.87452 -0.15326 0.71581
 C532 C 0.93157 -0.04811 0.75126
 C533 C 0.94972 -0.01918 0.74371
 C534 C 0.95847 -0.01300 0.71166
 C535 C 0.94940 -0.03581 0.68693
 C536 C 0.89300 -0.10719 0.76737
 C537 C 0.88396 -0.11422 0.79438
 C538 C 0.92862 -0.08105 0.63503
 C539 C 0.93493 -0.07489 0.60709
 H540 H 0.89824 -0.13704 0.62621
 H541 H 0.86623 -0.18715 0.63981
 H542 H 0.85074 -0.19822 0.69673
 H543 H 0.86710 -0.15928 0.74034
 H544 H 0.92519 -0.05181 0.77653
 H545 H 0.95679 -0.00132 0.76280
 H546 H 0.97201 0.00981 0.70586
 H547 H 0.95677 -0.02986 0.66237
 C548 C 1.08731 -0.07535 0.32149
 C549 C 1.07534 -0.10495 0.30539
 C550 C 1.08106 -0.10984 0.27152
 C551 C 1.09905 -0.08527 0.25398
 C552 C 1.11085 -0.05556 0.27002
 C553 C 1.10519 -0.05070 0.30394
 C554 C 1.11781 -0.02112 0.31958
 C555 C 1.13517 0.00316 0.30214
 C556 C 1.14035 -0.00141 0.26892
 C557 C 1.12845 -0.03043 0.25293
 C558 C 1.06879 -0.13967 0.25599
 C559 C 1.05193 -0.16421 0.27352
 C560 C 1.04686 -0.15967 0.30673
 C561 C 1.05805 -0.13029 0.32255
 C562 C 1.10728 -0.09197 0.22007
 C563 C 1.11455 -0.09945 0.19242
 C564 C 1.08078 -0.07016 0.35596
 C565 C 1.07475 -0.06581 0.38445
 H566 H 1.11418 -0.01632 0.34533
 H567 H 1.14438 0.02580 0.31442
 H568 H 1.15358 0.01769 0.25544
 H569 H 1.13304 -0.03288 0.22706
 H570 H 1.07218 -0.14442 0.23020
 H571 H 1.04290 -0.18696 0.26130
 H572 H 1.03424 -0.17904 0.32036
 H573 H 1.05330 -0.12787 0.34839
 C574 C 0.92295 0.08779 0.33028
 C575 C 0.93243 0.06470 0.30526
 C576 C 0.92355 0.07099 0.27242
 C577 C 0.90547 0.10044 0.26484
 C578 C 0.89648 0.12380 0.28983
 C579 C 0.90523 0.11743 0.32264
 C580 C 0.89583 0.14105 0.34721
 C581 C 0.87831 0.17016 0.33958
 C582 C 0.86975 0.17642 0.30749
 C583 C 0.87865 0.15361 0.28281
 C584 C 0.93285 0.04735 0.24787
 C585 C 0.95025 0.01816 0.25557
 C586 C 0.95886 0.01196 0.28766
 C587 C 0.95037 0.03500 0.31230
 C588 C 0.89568 0.10690 0.23153
 C589 C 0.88661 0.11390 0.20452
 C590 C 0.93063 0.08070 0.36398
 C591 C 0.93666 0.07451 0.39196
 H592 H 0.90196 0.13734 0.37254
 H593 H 0.87134 0.18795 0.35868
 H594 H 0.85614 0.19908 0.30167
 H595 H 0.87141 0.15967 0.25825
 H596 H 0.92657 0.05106 0.22258
 H597 H 0.95687 0.00012 0.23656
 H598 H 0.97182 -0.01104 0.29357
 H599 H 0.95760 0.02904 0.33690
 C600 C 0.08357 0.31772 -0.07986
 C601 C 0.11221 0.30924 -0.09798
 C602 C 0.11919 0.27476 -0.10553
 C603 C 0.09742 0.24892 -0.09499
 C604 C 0.06879 0.25739 -0.07681
 C605 C 0.06195 0.29189 -0.06904
 C606 C 0.03323 0.29975 -0.05077
 C607 C 0.01159 0.27430 -0.04095
 C608 C 0.01825 0.24060 -0.04858
 C609 C 0.04655 0.23207 -0.06624
 C610 C 0.14804 0.26696 -0.12369
 C611 C 0.16931 0.29245 -0.13409
 C612 C 0.16245 0.32616 -0.12672
 C613 C 0.13428 0.33461 -0.10888
 C614 C 0.10472 0.21382 -0.10324
 C615 C 0.11240 0.18539 -0.11118
 C616 C 0.07628 0.35303 -0.07271
 C617 C 0.07031 0.38239 -0.06690
 H618 H 0.02693 0.32561 -0.04432
 H619 H -0.01065 0.28082 -0.02764
 H620 H 0.00131 0.22096 -0.04093
 H621 H 0.05070 0.20552 -0.07167
 H622 H 0.15451 0.24113 -0.13007
 H623 H 0.19124 0.28601 -0.14794
 H624 H 0.17905 0.34589 -0.13485
 H625 H 0.13005 0.36120 -0.10374
 C626 C -0.08074 0.32169 0.08433
 C627 C -0.05711 0.30260 0.10160
 C628 C -0.06394 0.26825 0.10910
 C629 C -0.09454 0.25338 0.09971
 C630 C -0.11788 0.27228 0.08190
 C631 C -0.11103 0.30659 0.07433
 C632 C -0.13514 0.32523 0.05728
 C633 C -0.16520 0.31044 0.04811
 C634 C -0.17170 0.27675 0.05504
 C635 C -0.14840 0.25776 0.07173
 C636 C -0.03993 0.24962 0.12626
 C637 C -0.01013 0.26460 0.13606
 C638 C -0.00364 0.29832 0.12913
 C639 C -0.02672 0.31720 0.11202
 C640 C -0.10339 0.21979 0.11070
 C641 C -0.11228 0.19271 0.12071
 C642 C -0.07399 0.35687 0.07692
 C643 C -0.06826 0.38598 0.07050
 H644 H -0.13117 0.35147 0.05111
 H645 H -0.18355 0.32523 0.03555
 H646 H -0.19498 0.26530 0.04759
 H647 H -0.15462 0.23164 0.07659
 H648 H -0.04390 0.22331 0.13218
 H649 H 0.00804 0.24996 0.14905
 H650 H 0.01956 0.30982 0.13675
 H651 H -0.02041 0.34324 0.10694
 C652 C -0.08129 0.67748 -0.08401
 C653 C -0.11156 0.69219 -0.07393
 C654 C -0.11857 0.72638 -0.08153
 C655 C -0.09541 0.74558 -0.09946
 C656 C -0.06482 0.73111 -0.10892
 C657 C -0.05783 0.69687 -0.10139
 C658 C -0.02747 0.68268 -0.11188
 C659 C -0.00454 0.70187 -0.12906
 C660 C -0.01117 0.73548 -0.13600
 C661 C -0.04096 0.75006 -0.12615
 C662 C -0.14906 0.74050 -0.07127
 C663 C -0.17219 0.72121 -0.05448
 C664 C -0.16554 0.68762 -0.04753
 C665 C -0.13550 0.67323 -0.05678
 C666 C -0.10445 0.77901 -0.11051
 C667 C -0.11350 0.80592 -0.12060
 C668 C -0.07439 0.64241 -0.07656
 C669 C -0.06857 0.61339 -0.07008
 H670 H -0.02105 0.65673 -0.10680
 H671 H 0.01866 0.69068 -0.13671
 H672 H 0.00689 0.75037 -0.14903
 H673 H -0.04504 0.77631 -0.13207
 H674 H -0.15539 0.76652 -0.07615
 H675 H -0.19545 0.73235 -0.04697
 H676 H -0.18377 0.67259 -0.03490
 H677 H -0.13141 0.64706 -0.05059
 C678 C 0.08300 0.68365 0.07987
 C679 C 0.06105 0.70899 0.06908
 C680 C 0.06764 0.74366 0.07670
 C681 C 0.09634 0.75277 0.09471
 C682 C 0.11844 0.72741 0.10521
 C683 C 0.11172 0.69277 0.09781
 C684 C 0.13411 0.66789 0.10867
 C685 C 0.16236 0.67697 0.12633
 C686 C 0.16897 0.71084 0.13356
 C687 C 0.14737 0.73586 0.12320
 C688 C 0.04508 0.76848 0.06616
 C689 C 0.01671 0.75932 0.04869
 C690 C 0.01029 0.72546 0.04120
 C691 C 0.03225 0.70049 0.05099
 C692 C 0.10336 0.78803 0.10284
 C693 C 0.11084 0.81663 0.11070
 C694 C 0.07596 0.64817 0.07289
 C695 C 0.07019 0.61868 0.06721
 H696 H 0.13008 0.64120 0.10364
 H697 H 0.17921 0.65761 0.13444
 H698 H 0.19095 0.71777 0.14729
 H699 H 0.15365 0.76183 0.12947
 H700 H 0.04902 0.79514 0.07149
 H701 H -0.00048 0.77859 0.04106
 H702 H -0.01200 0.71844 0.02804
 H703 H 0.02613 0.67448 0.04466
 C704 C 0.31631 1.06946 0.93474
 C705 C 0.29773 1.09392 0.95232
 C706 C 0.26342 1.09771 0.94571
 C707 C 0.24808 1.07732 0.92130
 C708 C 0.26587 1.05064 0.90614
 C709 C 0.30017 1.04673 0.91281
 C710 C 0.31765 1.02030 0.89684
 C711 C 0.30165 0.99835 0.87496
 C712 C 0.26802 1.00195 0.86873
 C713 C 0.25023 1.02787 0.88398
 C714 C 0.24521 1.12210 0.96371
 C715 C 0.26042 1.14195 0.98787
 C716 C 0.29402 1.13832 0.99428
 C717 C 0.31265 1.11477 0.97661
 C718 C 0.21570 1.08656 0.90899
 C719 C 0.19001 1.09615 0.89744
 C720 C 0.35199 1.06807 0.93865
 C721 C 0.38163 1.06644 0.94153
 H722 H 0.34375 1.01624 0.90119
 H723 H 0.31542 0.97838 0.86284
 H724 H 0.25567 0.98460 0.85195
 H725 H 0.22408 1.02970 0.87851
 H726 H 0.21897 1.12560 0.95969
 H727 H 0.24605 1.16022 1.00170
 H728 H 0.30570 1.15374 1.01311
 H729 H 0.33864 1.11263 0.98262
 C730 C 0.31452 0.93389 1.06518
 C731 C 0.29567 0.90949 1.04749
 C732 C 0.26132 0.90573 1.05399
 C733 C 0.24621 0.92607 1.07840
 C734 C 0.26429 0.95273 1.09363
 C735 C 0.29862 0.95663 1.08705
 C736 C 0.31639 0.98305 1.10305
 C737 C 0.30062 1.00502 1.12489
 C738 C 0.26696 1.00141 1.13105
 C739 C 0.24889 0.97549 1.11576
 C740 C 0.24282 0.88139 1.03589
 C741 C 0.25781 0.86157 1.01173
 C742 C 0.29145 0.86519 1.00542
 C743 C 0.31034 0.88867 1.02319
 C744 C 0.21381 0.91672 1.09071
 C745 C 0.18810 0.90694 1.10221
 C746 C 0.35023 0.93509 1.06149
 C747 C 0.37990 0.93642 1.05871
 H748 H 0.34253 0.98710 1.09876
 H749 H 0.31460 1.02500 1.13703
 H750 H 0.25480 1.01876 1.14780
 H751 H 0.22273 0.97366 1.12116
 H752 H 0.21654 0.87791 1.03983
 H753 H 0.24322 0.84335 0.99782
 H754 H 0.30295 0.84979 0.98659
 H755 H 0.33636 0.89079 1.01725
 C756 C 0.67496 1.07971 1.08760
 C757 C 0.69014 1.11040 1.07819
 C758 C 0.72399 1.11665 1.08575
 C759 C 0.74237 1.09234 1.10304
 C760 C 0.72732 1.06145 1.11208
 C761 C 0.69344 1.05520 1.10452
 C762 C 0.67873 1.02445 1.11444
 C763 C 0.69703 1.00046 1.13113
 C764 C 0.73025 1.00641 1.13818
 C765 C 0.74534 1.03655 1.12886
 C766 C 0.73862 1.14755 1.07607
 C767 C 0.72017 1.17181 1.05993
 C768 C 0.68693 1.16591 1.05303
 C769 C 0.67204 1.13548 1.06169
 C770 C 0.77588 1.10045 1.11352
 C771 C 0.80305 1.10903 1.12278
 C772 C 0.64036 1.07344 1.07982
 C773 C 0.61174 1.06811 1.07304
 H774 H 0.65304 1.01855 1.10927
 H775 H 0.68546 0.97697 1.13833
 H776 H 0.74443 0.98754 1.15086
 H777 H 0.77126 1.04006 1.13483
 H778 H 0.76439 1.15335 1.08093
 H779 H 0.73170 1.19537 1.05285
 H780 H 0.67258 1.18501 1.04088
 H781 H 0.64617 1.13200 1.05555
 C782 C 0.67240 0.91774 0.91213
 C783 C 0.69832 0.93896 0.92391
 C784 C 0.73159 0.93243 0.91447
 C785 C 0.73874 0.90449 0.89364
 C786 C 0.71280 0.88320 0.88199
 C787 C 0.67955 0.88987 0.89124
 C788 C 0.65406 0.86828 0.87922
 C789 C 0.66120 0.84086 0.85868
 C790 C 0.69370 0.83430 0.84964
 C791 C 0.71929 0.85512 0.86107
 C792 C 0.75700 0.95433 0.92603
 C793 C 0.74975 0.98203 0.94622
 C794 C 0.71725 0.98839 0.95548
 C795 C 0.69176 0.96704 0.94475
 C796 C 0.77264 0.89711 0.88423
 C797 C 0.80010 0.88918 0.87561
 C798 C 0.63830 0.92483 0.92094
 C799 C 0.60993 0.93078 0.92794
 H800 H 0.62837 0.87231 0.88558
 H801 H 0.64139 0.82461 0.84973
 H802 H 0.69914 0.81296 0.83366
 H803 H 0.74415 0.84893 0.85328
 H804 H 0.78263 0.95043 0.91937
 H805 H 0.76942 0.99877 0.95458
 H806 H 0.71171 1.01020 0.97078
 H807 H 0.66687 0.97310 0.95254
   
