data_POSCAR
  _audit_creation_date              2014-09-24
  _audit_creation_method            'ToBaCCo'
  _symmetry_space_group_name_H-M    'P1'
  _symmetry_Int_Tables_number       1
  _symmetry_cell_setting            triclinic
  loop_
  _symmetry_equiv_pos_as_xyz
 x,y,z
_cell_length_a 21.9407
_cell_length_b 21.7433
_cell_length_c 20.9538
_cell_angle_alpha 94.559300
_cell_angle_beta 89.190900
_cell_angle_gamma 88.010900
loop_
  _atom_site_label
  _atom_site_type_symbol
  _atom_site_fract_x
  _atom_site_fract_y
  _atom_site_fract_z
N1 N 0.12818 1.28993 0.09440
 N2 N 0.08031 1.25787 0.10670
 C3 C 0.03194 1.27994 0.07591
 C4 C 0.04972 1.33064 0.04511
 C5 C 0.11114 1.33627 0.05869
 H6 H -0.01331 1.26185 0.07789
 H7 H 0.14206 1.36825 0.03974
 Cu8 Cu 0.08400 1.19166 0.16419
 Cu9 Cu 0.20900 1.25871 0.11506
 Cu10 Cu 0.22215 1.16811 0.23657
 N11 N 0.09336 1.14938 0.24406
 N12 N 0.14505 1.14457 0.27502
 C13 C 0.13577 1.11358 0.32745
 C14 C 0.07550 1.09598 0.32811
 C15 C 0.05008 1.12077 0.27501
 H16 H 0.17172 1.09925 0.35843
 H17 H 0.00365 1.11754 0.25896
 N18 N 0.28345 1.16425 0.16685
 N19 N 0.27706 1.19866 0.11826
 C20 C 0.31526 1.17650 0.07037
 C21 C 0.34745 1.12576 0.08989
 C22 C 0.32629 1.11943 0.15136
 H23 H 0.31455 1.19151 0.02237
 H24 H 0.33559 1.08041 0.17915
 H25 H 0.17230 1.16365 0.15569
 H26 H 0.15317 1.23382 0.20984
 N27 N 0.82797 0.71551 0.13486
 N28 N 0.87236 0.72129 0.17628
 C29 C 0.92099 0.68620 0.15405
 C30 C 0.90596 0.65630 0.09618
 C31 C 0.84658 0.67552 0.08547
 H32 H 0.96545 0.68634 0.17573
 H33 H 0.82131 0.66629 0.04199
 Cu34 Cu 0.86754 0.78256 0.24924
 Cu35 Cu 0.75597 0.77152 0.14097
 Cu36 Cu 0.79277 0.91185 0.21602
 N37 N 0.87945 0.85975 0.29995
 N38 N 0.85432 0.91099 0.28149
 C39 C 0.88309 0.95940 0.30886
 C40 C 0.92811 0.93763 0.34769
 C41 C 0.92343 0.87397 0.34241
 H42 H 0.87398 1.00679 0.29866
 H43 H 0.95553 0.84064 0.35996
 N44 N 0.72145 0.90151 0.16096
 N45 N 0.70665 0.84792 0.13236
 C46 C 0.66175 0.85774 0.09061
 C47 C 0.64753 0.92043 0.09391
 C48 C 0.68610 0.94648 0.13892
 H49 H 0.64581 0.82308 0.05545
 H50 H 0.69218 0.99535 0.14945
 H51 H 0.82026 0.83268 0.16215
 H52 H 0.76521 0.82494 0.22944
 N53 N 0.82165 1.27372 -0.14133
 N54 N 0.86570 1.27033 -0.18487
 C55 C 0.90632 1.31358 -0.16885
 C56 C 0.88745 1.34541 -0.11194
 C57 C 0.83358 1.31876 -0.09567
 H58 H 0.95053 1.31596 -0.19189
 H59 H 0.80904 1.32660 -0.05045
 Cu60 Cu 0.87693 1.19900 -0.24714
 Cu61 Cu 0.76128 1.20926 -0.14051
 Cu62 Cu 0.83750 1.07018 -0.18125
 N63 N 0.90650 1.11804 -0.28247
 N64 N 0.89633 1.06884 -0.25186
 C65 C 0.93114 1.02108 -0.27813
 C66 C 0.96353 1.04086 -0.32955
 C67 C 0.94600 1.10270 -0.33134
 H68 H 0.93147 0.97508 -0.26188
 H69 H 0.96418 1.13526 -0.36243
 N70 N 0.75948 1.07776 -0.13230
 N71 N 0.72809 1.13039 -0.12006
 C72 C 0.67618 1.11980 -0.08818
 C73 C 0.67547 1.05740 -0.07946
 C74 C 0.72887 1.03232 -0.10793
 H75 H 0.64352 1.15527 -0.06929
 H76 H 0.74461 0.98451 -0.10987
 H77 H 0.84152 1.16022 -0.14741
 H78 H 0.79022 1.14154 -0.21619
 N79 N 0.13181 0.74920 -0.08351
 N80 N 0.11637 0.72097 -0.13842
 C81 C 0.08206 0.67265 -0.12742
 C82 C 0.07461 0.67122 -0.06190
 C83 C 0.10644 0.72074 -0.03549
 H84 H 0.06007 0.64394 -0.16416
 H85 H 0.10909 0.73620 0.01473
 Cu86 Cu 0.13340 0.75733 -0.21785
 Cu87 Cu 0.17911 0.82415 -0.07979
 Cu88 Cu 0.24775 0.85410 -0.22416
 N89 N 0.13912 0.81277 -0.28576
 N90 N 0.18721 0.84620 -0.29260
 C91 C 0.17668 0.88386 -0.33974
 C92 C 0.11794 0.87539 -0.36173
 C93 C 0.09554 0.83024 -0.32562
 H94 H 0.20509 0.92188 -0.34940
 H95 H 0.04896 0.81551 -0.32421
 N96 N 0.27841 0.88601 -0.14029
 N97 N 0.24880 0.87911 -0.08608
 C98 C 0.27520 0.91307 -0.03828
 C99 C 0.32418 0.94189 -0.06346
 C100 C 0.32532 0.92341 -0.12817
 H101 H 0.26023 0.91642 0.01131
 H102 H 0.35578 0.93879 -0.16422
 H103 H 0.17091 0.85439 -0.17003
 H104 H 0.22430 0.78781 -0.15924
 C105 C 0.42756 0.97889 -0.03484
 C106 C 0.46513 1.01895 0.00115
 C107 C 0.43904 1.06757 0.04172
 C108 C 0.37555 1.07570 0.04689
 C109 C 0.33819 1.03443 0.01224
 C110 C 0.36392 0.98604 -0.02887
 C111 C 0.53141 1.00676 0.00067
 C112 C 0.57000 1.03765 -0.03924
 C113 C 0.63328 1.02561 -0.03895
 C114 C 0.65742 0.98392 0.00245
 C115 C 0.61941 0.95481 0.04391
 C116 C 0.55628 0.96542 0.04234
 H117 H 0.44783 0.94083 -0.06542
 H118 H 0.46802 1.09822 0.06992
 H119 H 0.55083 1.07029 -0.07063
 H120 H 0.52677 0.94347 0.07497
 H121 H 0.28901 1.04013 0.01720
 H122 H 0.70641 0.97615 0.00471
 C123 C -0.06220 0.44004 0.93347
 C124 C -0.01598 0.46719 0.97044
 C125 C 0.02377 0.43011 1.00422
 C126 C 0.01348 0.36694 1.00704
 C127 C -0.03477 0.34082 0.97207
 C128 C -0.07057 0.37648 0.93299
 C129 C -0.01516 0.53465 0.98281
 C130 C -0.05565 0.56346 1.02912
 C131 C -0.05128 0.62614 1.04813
 C132 C -0.00682 0.66056 1.02003
 C133 C 0.03208 0.63295 0.97137
 C134 C 0.02805 0.56957 0.95309
 H135 H -0.09187 0.46832 0.90591
 H136 H 0.05904 0.45171 1.03299
 H137 H -0.08935 0.53663 1.05177
 H138 H 0.05887 0.54738 0.91675
 H139 H -0.04219 0.29174 0.97174
 H140 H -0.00435 0.70945 1.03419
 C141 C 1.00439 -0.04556 0.43004
 C142 C 1.05001 -0.00924 0.45809
 C143 C 1.07418 0.03841 0.42498
 C144 C 1.04896 0.05321 0.36628
 C145 C 0.99726 0.02192 0.34423
 C146 C 0.97617 -0.02882 0.37426
 C147 C 1.05911 -0.01255 0.52720
 C148 C 1.09344 -0.06140 0.55041
 C149 C 1.08249 -0.07824 0.61280
 C150 C 1.03665 -0.04626 0.65111
 C151 C 1.00649 0.00656 0.63055
 C152 C 1.01921 0.02373 0.56872
 H153 H 0.98622 -0.08252 0.45563
 H154 H 1.11012 0.06556 0.44649
 H155 H 1.12504 -0.08889 0.51867
 H156 H 0.99292 0.06123 0.55000
 H157 H 0.97687 0.03255 0.29962
 H158 H 1.02833 -0.05964 0.69912
   
