data_POSCAR
  _audit_creation_date              2014-09-24
  _audit_creation_method            'ToBaCCo'
  _symmetry_space_group_name_H-M    'P1'
  _symmetry_Int_Tables_number       1
  _symmetry_cell_setting            triclinic
  loop_
  _symmetry_equiv_pos_as_xyz
 x,y,z
_cell_length_a 57.1920
_cell_length_b 56.9834
_cell_length_c 58.1961
_cell_angle_alpha 89.456700
_cell_angle_beta 89.913600
_cell_angle_gamma 89.080600
loop_
  _atom_site_label
  _atom_site_type_symbol
  _atom_site_fract_x
  _atom_site_fract_y
  _atom_site_fract_z
N1 N 0.29720 0.24058 0.21896
 N2 N 0.28725 0.25963 0.21030
 C3 C 0.29948 0.26670 0.19177
 C4 C 0.31803 0.25119 0.18853
 C5 C 0.31601 0.23479 0.20612
 H6 H 0.29506 0.28182 0.18122
 H7 H 0.32755 0.21995 0.20953
 Cu8 Cu 0.25907 0.27314 0.22383
 Cu9 Cu 0.28535 0.22520 0.24660
 Cu10 Cu 0.23554 0.24972 0.27151
 N11 N 0.23120 0.28673 0.23787
 N12 N 0.22200 0.27749 0.25649
 C13 C 0.20288 0.29013 0.26245
 C14 C 0.19984 0.30834 0.24667
 C15 C 0.21825 0.30555 0.23134
 H16 H 0.19197 0.28621 0.27711
 H17 H 0.22200 0.31639 0.21651
 N18 N 0.25181 0.22163 0.28409
 N19 N 0.27072 0.21229 0.27462
 C20 C 0.27769 0.19352 0.28724
 C21 C 0.26244 0.19084 0.30557
 C22 C 0.24625 0.20901 0.30295
 H23 H 0.29269 0.18252 0.28328
 H24 H 0.23161 0.21294 0.31410
 H25 H 0.25085 0.23565 0.24246
 H26 H 0.26952 0.25475 0.26045
 N27 N 0.71846 -0.22876 0.21823
 N28 N 0.72255 -0.25100 0.21382
 C29 C 0.70842 -0.25773 0.19672
 C30 C 0.69453 -0.23864 0.18994
 C31 C 0.70162 -0.22051 0.20404
 H32 H 0.70830 -0.27531 0.18995
 H33 H 0.69465 -0.20280 0.20456
 Cu34 Cu 0.74536 -0.26947 0.23122
 Cu35 Cu 0.73384 -0.21276 0.24335
 Cu36 Cu 0.77813 -0.24356 0.27144
 N37 N 0.77365 -0.28432 0.24330
 N38 N 0.78617 -0.27435 0.25926
 C39 C 0.80461 -0.28836 0.26445
 C40 C 0.80378 -0.30832 0.25092
 C41 C 0.78373 -0.30499 0.23768
 H42 H 0.81776 -0.28399 0.27693
 H43 H 0.77690 -0.31655 0.22480
 N44 N 0.76744 -0.21202 0.28076
 N45 N 0.75130 -0.19984 0.26941
 C46 C 0.74808 -0.17896 0.27971
 C47 C 0.76269 -0.17808 0.29858
 C48 C 0.77468 -0.19935 0.29875
 H49 H 0.73535 -0.16573 0.27449
 H50 H 0.78767 -0.20516 0.31112
 H51 H 0.76418 -0.23278 0.24021
 H52 H 0.74290 -0.24189 0.26296
 N53 N 0.71252 0.24902 0.76597
 N54 N 0.72193 0.26805 0.77424
 C55 C 0.70936 0.27539 0.79244
 C56 C 0.69105 0.26009 0.79584
 C57 C 0.69362 0.24355 0.77863
 H58 H 0.71354 0.29050 0.80266
 H59 H 0.68257 0.22871 0.77545
 Cu60 Cu 0.74981 0.28148 0.76062
 Cu61 Cu 0.72570 0.23329 0.73916
 Cu62 Cu 0.78523 0.24252 0.73428
 N63 N 0.78164 0.28918 0.75221
 N64 N 0.79580 0.27354 0.74296
 C65 C 0.81717 0.28282 0.74060
 C66 C 0.81632 0.30580 0.74844
 C67 C 0.79332 0.30914 0.75562
 H68 H 0.83196 0.27356 0.73320
 H69 H 0.78572 0.32457 0.76352
 N70 N 0.76902 0.21693 0.71843
 N71 N 0.74627 0.21377 0.71988
 C72 C 0.74023 0.19640 0.70567
 C73 C 0.76015 0.18828 0.69448
 C74 C 0.77808 0.20173 0.70310
 H75 H 0.72248 0.19076 0.70309
 H76 H 0.79629 0.20108 0.69812
 H77 H 0.75591 0.23935 0.75540
 H78 H 0.75250 0.25567 0.72756
 N79 N 0.28810 -0.24119 0.78273
 N80 N 0.27749 -0.25980 0.79086
 C81 C 0.28884 -0.26760 0.80976
 C82 C 0.30750 -0.25304 0.81379
 C83 C 0.30643 -0.23640 0.79630
 H84 H 0.28393 -0.28277 0.81984
 H85 H 0.31851 -0.22230 0.79326
 Cu86 Cu 0.25019 -0.27250 0.77586
 Cu87 Cu 0.27823 -0.22561 0.75436
 Cu88 Cu 0.23176 -0.24998 0.72526
 N89 N 0.22391 -0.28560 0.75946
 N90 N 0.21717 -0.27722 0.73941
 C91 C 0.19896 -0.28970 0.73187
 C92 C 0.19378 -0.30684 0.74819
 C93 C 0.21014 -0.30358 0.76546
 H94 H 0.18992 -0.28610 0.71590
 H95 H 0.21209 -0.31360 0.78120
 N96 N 0.24862 -0.22226 0.71385
 N97 N 0.26579 -0.21252 0.72529
 C98 C 0.27298 -0.19343 0.71359
 C99 C 0.25981 -0.19110 0.69375
 C100 C 0.24457 -0.20971 0.69449
 H101 H 0.28696 -0.18218 0.71895
 H102 H 0.23114 -0.21350 0.68208
 H103 H 0.24355 -0.23541 0.75539
 H104 H 0.26438 -0.25539 0.74001
 N105 N 0.71174 -0.23488 0.78374
 N106 N 0.72104 -0.25445 0.79198
 C107 C 0.70942 -0.26068 0.81120
 C108 C 0.69202 -0.24403 0.81525
 C109 C 0.69408 -0.22791 0.79747
 H110 H 0.71334 -0.27611 0.82153
 H111 H 0.68310 -0.21259 0.79437
 Cu112 Cu 0.74734 -0.26981 0.77667
 Cu113 Cu 0.72219 -0.22052 0.75518
 Cu114 Cu 0.76842 -0.24781 0.72705
 N115 N 0.77445 -0.28382 0.76151
 N116 N 0.78209 -0.27555 0.74179
 C117 C 0.80067 -0.28844 0.73495
 C118 C 0.80525 -0.30574 0.75139
 C119 C 0.78813 -0.30214 0.76804
 H120 H 0.81044 -0.28493 0.71943
 H121 H 0.78565 -0.31212 0.78370
 N122 N 0.75238 -0.21945 0.71504
 N123 N 0.73512 -0.20874 0.72600
 C124 C 0.72839 -0.18957 0.71386
 C125 C 0.74204 -0.18814 0.69426
 C126 C 0.75705 -0.20740 0.69560
 H127 H 0.71445 -0.17763 0.71882
 H128 H 0.77071 -0.21203 0.68355
 H129 H 0.73525 -0.25101 0.74067
 H130 H 0.75637 -0.23302 0.75715
 N131 N 0.28554 0.23246 0.77727
 N132 N 0.27774 0.25286 0.78463
 C133 C 0.29029 0.25905 0.80314
 C134 C 0.30676 0.24151 0.80764
 C135 C 0.30317 0.22492 0.79085
 H136 H 0.28757 0.27503 0.81270
 H137 H 0.31299 0.20878 0.78836
 Cu138 Cu 0.25195 0.26927 0.76925
 Cu139 Cu 0.27297 0.21748 0.75017
 Cu140 Cu 0.22706 0.24602 0.72241
 N141 N 0.22518 0.28428 0.75418
 N142 N 0.21594 0.27536 0.73561
 C143 C 0.19794 0.28911 0.72862
 C144 C 0.19559 0.30761 0.74371
 C145 C 0.21316 0.30396 0.75977
 H146 H 0.18696 0.28556 0.71399
 H147 H 0.21694 0.31486 0.77436
 N148 N 0.24067 0.21610 0.71175
 N149 N 0.25803 0.20512 0.72245
 C150 C 0.26328 0.18519 0.71119
 C151 C 0.24850 0.18344 0.69246
 C152 C 0.23440 0.20341 0.69342
 H153 H 0.27680 0.17280 0.71636
 H154 H 0.22067 0.20846 0.68155
 H155 H 0.26102 0.24788 0.73414
 H156 H 0.23974 0.23219 0.75297
 N157 N 0.28091 -0.24249 0.22033
 N158 N 0.26840 -0.25818 0.20967
 C159 C 0.27911 -0.26389 0.18980
 C160 C 0.29952 -0.25131 0.18815
 C161 C 0.30016 -0.23797 0.20783
 H162 H 0.27280 -0.27650 0.17760
 H163 H 0.31335 -0.22545 0.21239
 Cu164 Cu 0.24001 -0.27043 0.22339
 Cu165 Cu 0.27048 -0.22770 0.24866
 Cu166 Cu 0.21872 -0.24764 0.27228
 N167 N 0.21167 -0.28231 0.23757
 N168 N 0.20349 -0.27327 0.25670
 C169 C 0.18449 -0.28515 0.26339
 C170 C 0.18047 -0.30274 0.24766
 C171 C 0.19812 -0.30034 0.23146
 H172 H 0.17479 -0.28162 0.27895
 H173 H 0.20112 -0.31111 0.21654
 N174 N 0.23666 -0.22195 0.28560
 N175 N 0.25673 -0.21481 0.27704
 C176 C 0.26462 -0.19710 0.28994
 C177 C 0.24867 -0.19279 0.30736
 C178 C 0.23119 -0.20891 0.30407
 H179 H 0.28043 -0.18752 0.28649
 H180 H 0.21563 -0.21098 0.31441
 H181 H 0.25206 -0.25604 0.26081
 H182 H 0.23537 -0.23349 0.24373
 N183 N 0.70592 0.24244 0.22368
 N184 N 0.71936 0.25567 0.21078
 C185 C 0.70831 0.26062 0.19088
 C186 C 0.68666 0.25014 0.19146
 C187 C 0.68570 0.23881 0.21256
 H188 H 0.71531 0.27134 0.17715
 H189 H 0.67159 0.22819 0.21904
 Cu190 Cu 0.74973 0.26595 0.22127
 Cu191 Cu 0.71641 0.22940 0.25303
 Cu192 Cu 0.76682 0.25258 0.27522
 N193 N 0.77456 0.28285 0.23639
 N194 N 0.78111 0.27757 0.25745
 C195 C 0.79833 0.29194 0.26372
 C196 C 0.80290 0.30718 0.24563
 C197 C 0.78739 0.30085 0.22853
 H198 H 0.80664 0.29149 0.28039
 H199 H 0.78553 0.30866 0.21162
 N200 N 0.74975 0.22718 0.29053
 N201 N 0.73029 0.21847 0.28229
 C202 C 0.72334 0.20083 0.29617
 C203 C 0.73930 0.19826 0.31395
 C204 C 0.75574 0.21535 0.30979
 H205 H 0.70830 0.19006 0.29307
 H206 H 0.77116 0.21874 0.31986
 H207 H 0.73470 0.25942 0.25968
 H208 H 0.75190 0.23350 0.24871
 C209 C 0.24707 -0.01126 0.42535
 C210 C 0.24846 0.01272 0.42603
 C211 C 0.24680 0.01894 0.44897
 N212 N 0.24431 -0.00043 0.46223
 C213 C 0.24432 -0.01886 0.44786
 C214 C 0.24732 0.04217 0.45723
 C215 C 0.24628 0.04806 0.48081
 C216 C 0.25115 0.07014 0.48924
 C217 C 0.24814 0.06905 0.51263
 C218 C 0.24142 0.04636 0.51794
 N219 N 0.24020 0.03368 0.49845
 C220 C 0.23583 0.03831 0.54033
 C221 C 0.23323 0.01441 0.54631
 C222 C 0.22525 0.00644 0.56742
 C223 C 0.22688 -0.01757 0.56699
 C224 C 0.23637 -0.02352 0.54585
 N225 N 0.23960 -0.00393 0.53299
 C226 C 0.24055 -0.04670 0.53807
 C227 C 0.23564 -0.05141 0.51473
 C228 C 0.22173 -0.06941 0.50708
 C229 C 0.22192 -0.06838 0.48353
 C230 C 0.23479 -0.04891 0.47741
 N231 N 0.24275 -0.03830 0.49655
 C232 C 0.23948 -0.04210 0.45452
 H233 H 0.24719 -0.02180 0.40997
 H234 H 0.25017 0.02420 0.41123
 H235 H 0.25430 -0.02433 0.49714
 H236 H 0.25654 0.08544 0.47956
 H237 H 0.25069 0.08340 0.52437
 H238 H 0.21862 0.01684 0.58155
 H239 H 0.22085 -0.02926 0.58042
 H240 H 0.21289 -0.08018 0.47224
 H241 H 0.23353 0.01690 0.49722
 H242 H 0.21179 -0.08164 0.51737
 C243 C 0.73854 0.07419 0.49110
 C244 C 0.74194 0.07347 0.51443
 C245 C 0.74605 0.05013 0.52035
 N246 N 0.74497 0.03664 0.50144
 C247 C 0.74044 0.05125 0.48353
 C248 C 0.75113 0.04186 0.54282
 C249 C 0.75666 0.01816 0.54855
 C250 C 0.76520 0.01082 0.56978
 C251 C 0.76815 -0.01312 0.56881
 C252 C 0.76098 -0.01993 0.54716
 N253 N 0.75435 -0.00070 0.53479
 C254 C 0.76168 -0.04336 0.53907
 C255 C 0.76650 -0.04731 0.51558
 C256 C 0.78390 -0.06200 0.50697
 C257 C 0.78219 -0.06099 0.48348
 C258 C 0.76464 -0.04476 0.47857
 N259 N 0.75524 -0.03620 0.49813
 C260 C 0.75659 -0.03894 0.45637
 C261 C 0.74594 -0.01689 0.45154
 C262 C 0.73404 -0.01096 0.43153
 C263 C 0.72901 0.01270 0.43260
 C264 C 0.73755 0.02048 0.45344
 N265 N 0.74784 0.00232 0.46488
 C266 C 0.73698 0.04414 0.46060
 H267 H 0.73471 0.08979 0.48094
 H268 H 0.74154 0.08847 0.52570
 H269 H 0.75810 0.00340 0.47957
 H270 H 0.76930 0.02163 0.58438
 H271 H 0.77541 -0.02416 0.58234
 H272 H 0.79744 -0.07134 0.51644
 H273 H 0.79321 -0.07030 0.47135
 H274 H 0.72016 0.02297 0.41942
 H275 H 0.74670 -0.00086 0.51866
 H276 H 0.72978 -0.02232 0.41740
 C277 C 0.43146 0.25654 -0.01585
 C278 C 0.43253 0.25463 0.00765
 C279 C 0.45559 0.24919 0.01309
 N280 N 0.46854 0.24747 -0.00627
 C281 C 0.45389 0.25215 -0.02398
 C282 C 0.46395 0.24423 0.03546
 C283 C 0.48785 0.24030 0.04068
 C284 C 0.49612 0.23099 0.06127
 C285 C 0.52011 0.23146 0.06021
 C286 C 0.52591 0.24130 0.03910
 N287 N 0.50613 0.24663 0.02730
 C288 C 0.54896 0.24645 0.03195
 C289 C 0.55491 0.25110 0.00875
 C290 C 0.57666 0.25828 0.00111
 C291 C 0.57567 0.25893 -0.02245
 C292 C 0.55322 0.25256 -0.02842
 N293 N 0.54064 0.24761 -0.00935
 C294 C 0.54518 0.24992 -0.05117
 C295 C 0.52139 0.24697 -0.05697
 C296 C 0.51340 0.24138 -0.07871
 C297 C 0.48938 0.24182 -0.07770
 C298 C 0.48330 0.24758 -0.05534
 N299 N 0.50292 0.25093 -0.04291
 C300 C 0.46010 0.25085 -0.04743
 H301 H 0.41587 0.26033 -0.02581
 H302 H 0.41792 0.25666 0.01934
 H303 H 0.50360 0.25807 -0.02660
 H304 H 0.48597 0.22469 0.07570
 H305 H 0.53193 0.22546 0.07362
 H306 H 0.59178 0.26244 0.01136
 H307 H 0.58987 0.26356 -0.03384
 H308 H 0.47774 0.23850 -0.09190
 H309 H 0.50514 0.25666 0.01233
 H310 H 0.52375 0.23777 -0.09389
 C311 C 0.48705 0.75603 0.07532
 C312 C 0.51104 0.75624 0.07527
 C313 C 0.51810 0.74939 0.05353
 N314 N 0.49928 0.74474 0.04042
 C315 C 0.48026 0.74883 0.05367
 C316 C 0.54155 0.74581 0.04667
 C317 C 0.54832 0.74112 0.02377
 C318 C 0.57040 0.73338 0.01711
 C319 C 0.57035 0.73255 -0.00650
 C320 C 0.54825 0.73986 -0.01364
 N321 N 0.53500 0.74519 0.00492
 C322 C 0.54151 0.74307 -0.03683
 C323 C 0.51816 0.74685 -0.04397
 C324 C 0.51132 0.75237 -0.06624
 C325 C 0.48732 0.75328 -0.06617
 C326 C 0.48032 0.74821 -0.04388
 N327 N 0.49919 0.74408 -0.03041
 C328 C 0.45688 0.74577 -0.03670
 C329 C 0.45032 0.74142 -0.01365
 C330 C 0.42867 0.73332 -0.00675
 C331 C 0.42881 0.73268 0.01687
 C332 C 0.45040 0.74082 0.02381
 N333 N 0.46341 0.74607 0.00506
 C334 C 0.45695 0.74465 0.04693
 H335 H 0.47593 0.76052 0.08973
 H336 H 0.52200 0.76073 0.08967
 H337 H 0.47910 0.75501 0.00500
 H338 H 0.58516 0.72908 0.02805
 H339 H 0.58506 0.72750 -0.01717
 H340 H 0.52243 0.75520 -0.08104
 H341 H 0.47632 0.75686 -0.08094
 H342 H 0.41447 0.72715 0.02768
 H343 H 0.51888 0.75381 0.00465
 H344 H 0.41420 0.72843 -0.01756
 C345 C -0.01421 0.42421 0.24586
 C346 C 0.00978 0.42391 0.24554
 C347 C 0.01668 0.44629 0.25132
 N348 N -0.00223 0.46020 0.25528
 C349 C -0.02114 0.44674 0.25190
 C350 C 0.04010 0.45319 0.25414
 C351 C 0.04668 0.47685 0.25656
 C352 C 0.06854 0.48404 0.26369
 C353 C 0.06843 0.50814 0.26226
 C354 C 0.04649 0.51503 0.25437
 N355 N 0.03335 0.49586 0.25087
 C356 C 0.03958 0.53846 0.24942
 C357 C 0.01596 0.54561 0.24686
 C358 C 0.00848 0.56772 0.23959
 C359 C -0.01545 0.56806 0.24122
 C360 C -0.02179 0.54611 0.24931
 N361 N -0.00258 0.53244 0.25282
 C362 C -0.04487 0.53951 0.25469
 C363 C -0.05125 0.51601 0.25910
 C364 C -0.07249 0.50923 0.26836
 C365 C -0.07244 0.48509 0.26849
 C366 C -0.05113 0.47778 0.25945
 N367 N -0.03835 0.49672 0.25367
 C368 C -0.04452 0.45412 0.25568
 H369 H -0.02526 0.40946 0.24221
 H370 H 0.02086 0.40891 0.24157
 H371 H -0.02292 0.49646 0.24421
 H372 H 0.08314 0.47305 0.26918
 H373 H 0.08291 0.51931 0.26648
 H374 H 0.01915 0.58217 0.23388
 H375 H -0.02687 0.58279 0.23697
 H376 H -0.08653 0.47416 0.27454
 H377 H 0.01727 0.49566 0.24259
 H378 H -0.08664 0.52049 0.27425
 C379 C 0.07424 0.49006 0.76661
 C380 C 0.07404 0.51410 0.76767
 C381 C 0.05122 0.52148 0.76342
 N382 N 0.03760 0.50278 0.75947
 C383 C 0.05158 0.48354 0.76161
 C384 C 0.04369 0.54517 0.76177
 C385 C 0.01997 0.55227 0.75947
 C386 C 0.01240 0.57496 0.75435
 C387 C -0.01162 0.57496 0.75512
 C388 C -0.01813 0.55225 0.76067
 N389 N 0.00124 0.53861 0.76351
 C390 C -0.04140 0.54511 0.76447
 C391 C -0.04806 0.52141 0.76625
 C392 C -0.07021 0.51395 0.77229
 C393 C -0.06994 0.48999 0.77029
 C394 C -0.04772 0.48360 0.76281
 N395 N -0.03441 0.50285 0.76034
 C396 C -0.04056 0.46056 0.75687
 C397 C -0.01690 0.45420 0.75263
 C398 C -0.00948 0.43321 0.74294
 C399 C 0.01456 0.43301 0.74338
 C400 C 0.02122 0.45407 0.75294
 N401 N 0.00196 0.46681 0.75867
 C402 C 0.04457 0.46032 0.75743
 H403 H 0.08947 0.47873 0.76879
 H404 H 0.08906 0.52489 0.77091
 H405 H 0.00176 0.48186 0.76860
 H406 H 0.02305 0.59010 0.75076
 H407 H -0.02295 0.59009 0.75224
 H408 H -0.08510 0.52463 0.77740
 H409 H -0.08453 0.47863 0.77375
 H410 H 0.02581 0.41891 0.73735
 H411 H 0.00165 0.52175 0.77040
 H412 H -0.02022 0.41930 0.73644
 C413 C 0.34061 0.27339 0.15877
 C414 C 0.35738 0.27430 0.14132
 C415 C 0.36968 0.25403 0.13481
 C416 C 0.36524 0.23270 0.14621
 C417 C 0.34863 0.23180 0.16386
 C418 C 0.33602 0.25211 0.17022
 N419 N 0.38653 0.25567 0.11666
 N420 N 0.39666 0.23771 0.10813
 C421 C 0.41358 0.23969 0.09005
 C422 C 0.42217 0.21927 0.07958
 C423 C 0.43853 0.22068 0.06174
 C424 C 0.44668 0.24259 0.05440
 C425 C 0.43824 0.26306 0.06494
 C426 C 0.42173 0.26166 0.08261
 H427 H 0.33144 0.28941 0.16341
 H428 H 0.36072 0.29086 0.13273
 H429 H 0.37459 0.21679 0.14150
 H430 H 0.34540 0.21512 0.17225
 H431 H 0.41603 0.20226 0.08514
 H432 H 0.44489 0.20475 0.05370
 H433 H 0.44438 0.28008 0.05939
 H434 H 0.41542 0.27770 0.09047
 C435 C 0.66457 0.78305 0.16769
 C436 C 0.64666 0.78347 0.15135
 C437 C 0.64027 0.76292 0.14023
 C438 C 0.65225 0.74185 0.14541
 C439 C 0.67029 0.74138 0.16157
 C440 C 0.67670 0.76195 0.17316
 N441 N 0.62172 0.76389 0.12370
 N442 N 0.61349 0.74539 0.11492
 C443 C 0.59522 0.74607 0.09812
 C444 C 0.58566 0.72489 0.09096
 C445 C 0.56803 0.72482 0.07437
 C446 C 0.55994 0.74599 0.06456
 C447 C 0.56943 0.76725 0.07168
 C448 C 0.58694 0.76733 0.08845
 H449 H 0.66879 0.79940 0.17586
 H450 H 0.63760 0.79986 0.14744
 H451 H 0.64771 0.72572 0.13694
 H452 H 0.67891 0.72471 0.16500
 H453 H 0.59190 0.70842 0.09828
 H454 H 0.56081 0.70829 0.06902
 H455 H 0.56329 0.78371 0.06424
 H456 H 0.59410 0.78392 0.09368
 C457 C 0.66832 0.28213 -0.17421
 C458 C 0.65154 0.28301 -0.15674
 C459 C 0.63933 0.26289 -0.15041
 C460 C 0.64387 0.24178 -0.16203
 C461 C 0.66049 0.24092 -0.17967
 C462 C 0.67301 0.26106 -0.18586
 N463 N 0.62256 0.26435 -0.13214
 N464 N 0.61262 0.24628 -0.12393
 C465 C 0.59579 0.24772 -0.10572
 C466 C 0.58735 0.22692 -0.09605
 C467 C 0.57102 0.22766 -0.07818
 C468 C 0.56274 0.24929 -0.06992
 C469 C 0.57104 0.27018 -0.07962
 C470 C 0.58755 0.26944 -0.09737
 H471 H 0.67744 0.29803 -0.17869
 H472 H 0.64815 0.29940 -0.14797
 H473 H 0.63460 0.22598 -0.15748
 H474 H 0.66378 0.22439 -0.18818
 H475 H 0.59354 0.21010 -0.10234
 H476 H 0.56471 0.21140 -0.07085
 H477 H 0.56475 0.28699 -0.07340
 H478 H 0.59377 0.28576 -0.10461
 C479 C 0.32910 0.72297 -0.15653
 C480 C 0.34587 0.72075 -0.13917
 C481 C 0.35879 0.74014 -0.13246
 C482 C 0.35489 0.76190 -0.14350
 C483 C 0.33829 0.76410 -0.16104
 C484 C 0.32516 0.74467 -0.16769
 N485 N 0.37583 0.73723 -0.11460
 N486 N 0.38645 0.75458 -0.10613
 C487 C 0.40375 0.75179 -0.08850
 C488 C 0.41295 0.77187 -0.07849
 C489 C 0.43003 0.76984 -0.06143
 C490 C 0.43826 0.74764 -0.05430
 C491 C 0.42916 0.72746 -0.06433
 C492 C 0.41190 0.72948 -0.08127
 H493 H 0.31949 0.70759 -0.16140
 H494 H 0.34878 0.70386 -0.13087
 H495 H 0.36472 0.77716 -0.13865
 H496 H 0.33557 0.78108 -0.16918
 H497 H 0.40685 0.78912 -0.08395
 H498 H 0.43701 0.78556 -0.05389
 H499 H 0.43547 0.71022 -0.05904
 H500 H 0.40511 0.71371 -0.08883
 C501 C 0.17982 0.34317 0.22794
 C502 C 0.16218 0.36041 0.22735
 C503 C 0.14540 0.36160 0.24478
 C504 C 0.14643 0.34526 0.26300
 C505 C 0.16409 0.32799 0.26365
 C506 C 0.18104 0.32669 0.24610
 N507 N 0.12761 0.37954 0.24352
 N508 N 0.11158 0.38161 0.25859
 C509 C 0.09388 0.39965 0.25713
 C510 C 0.07656 0.40075 0.27412
 C511 C 0.05904 0.41812 0.27317
 C512 C 0.05866 0.43467 0.25514
 C513 C 0.07603 0.43363 0.23811
 C514 C 0.09353 0.41624 0.23907
 H515 H 0.19237 0.34284 0.21404
 H516 H 0.16156 0.37289 0.21320
 H517 H 0.13364 0.34584 0.27672
 H518 H 0.16439 0.31574 0.27795
 H519 H 0.07666 0.38810 0.28813
 H520 H 0.04581 0.41874 0.28649
 H521 H 0.07596 0.44626 0.22409
 H522 H 0.10673 0.41578 0.22573
 C523 C 0.16161 0.67405 0.72798
 C524 C 0.14383 0.65748 0.72752
 C525 C 0.13957 0.64315 0.74664
 C526 C 0.15354 0.64535 0.76628
 C527 C 0.17150 0.66168 0.76672
 C528 C 0.17581 0.67644 0.74761
 N529 N 0.12116 0.62642 0.74567
 N530 N 0.11467 0.61490 0.76334
 C531 C 0.09658 0.59782 0.76249
 C532 C 0.08864 0.58781 0.78308
 C533 C 0.07123 0.57088 0.78288
 C534 C 0.06172 0.56358 0.76199
 C535 C 0.06964 0.57353 0.74132
 C536 C 0.08690 0.59065 0.74154
 H537 H 0.16421 0.68472 0.71276
 H538 H 0.13324 0.65588 0.71222
 H539 H 0.15066 0.63439 0.78128
 H540 H 0.18168 0.66274 0.78229
 H541 H 0.09599 0.59316 0.79932
 H542 H 0.06530 0.56329 0.79895
 H543 H 0.06247 0.56799 0.72507
 H544 H 0.09282 0.59806 0.72540
 C545 C -0.18304 0.65386 0.23506
 C546 C -0.16695 0.63513 0.23447
 C547 C -0.14771 0.63451 0.24923
 C548 C -0.14473 0.65287 0.26481
 C549 C -0.16074 0.67166 0.26542
 C550 C -0.18018 0.67256 0.25050
 N551 N -0.13134 0.61527 0.24784
 N552 N -0.11360 0.61353 0.26096
 C553 C -0.09699 0.59452 0.25938
 C554 C -0.07802 0.59377 0.27455
 C555 C -0.06120 0.57578 0.27316
 C556 C -0.06311 0.55828 0.25647
 C557 C -0.08222 0.55889 0.24136
 C558 C -0.09907 0.57688 0.24279
 H559 H -0.19756 0.65353 0.22321
 H560 H -0.16944 0.62107 0.22237
 H561 H -0.12998 0.65279 0.27644
 H562 H -0.15765 0.68538 0.27769
 H563 H -0.07622 0.60724 0.28740
 H564 H -0.04660 0.57553 0.28500
 H565 H -0.08393 0.54555 0.22837
 H566 H -0.11358 0.57709 0.23085
 C567 C -0.14195 0.31481 0.74522
 C568 C -0.12375 0.33085 0.74644
 C569 C -0.12849 0.35452 0.75083
 C570 C -0.15167 0.36199 0.75449
 C571 C -0.16984 0.34589 0.75397
 C572 C -0.16532 0.32202 0.74917
 N573 N -0.10956 0.37060 0.75194
 N574 N -0.11260 0.39238 0.74771
 C575 C -0.09406 0.40879 0.74974
 C576 C -0.09523 0.42975 0.73706
 C577 C -0.07758 0.44628 0.73895
 C578 C -0.05886 0.44244 0.75421
 C579 C -0.05780 0.42146 0.76709
 C580 C -0.07514 0.40462 0.76468
 H581 H -0.13745 0.29669 0.74171
 H582 H -0.10590 0.32487 0.74369
 H583 H -0.15568 0.38022 0.75811
 H584 H -0.18742 0.35244 0.75693
 H585 H -0.10976 0.43316 0.72552
 H586 H -0.07865 0.46224 0.72872
 H587 H -0.04361 0.41821 0.77907
 H588 H -0.07408 0.38863 0.77484
 C589 C 0.28327 0.15820 0.32706
 C590 C 0.28395 0.14100 0.34437
 C591 C 0.26471 0.13777 0.35886
 C592 C 0.24468 0.15208 0.35589
 C593 C 0.24398 0.16930 0.33864
 C594 C 0.26325 0.17257 0.32396
 N595 N 0.26582 0.11978 0.37623
 N596 N 0.24868 0.11588 0.38964
 C597 C 0.24927 0.09782 0.40692
 C598 C 0.22919 0.09416 0.42016
 C599 C 0.22876 0.07623 0.43666
 C600 C 0.24847 0.06169 0.44018
 C601 C 0.26882 0.06559 0.42726
 C602 C 0.26921 0.08351 0.41064
 H603 H 0.29852 0.16028 0.31627
 H604 H 0.29950 0.13010 0.34647
 H605 H 0.22953 0.14991 0.36683
 H606 H 0.22819 0.17982 0.33672
 H607 H 0.21375 0.10509 0.41747
 H608 H 0.21295 0.07347 0.44653
 H609 H 0.28421 0.05457 0.42987
 H610 H 0.28496 0.08606 0.40065
 C611 C 0.78171 0.16832 0.66220
 C612 C 0.78270 0.15206 0.64436
 C613 C 0.76374 0.13756 0.64003
 C614 C 0.74368 0.13940 0.65391
 C615 C 0.74263 0.15568 0.67173
 C616 C 0.76159 0.17044 0.67604
 N617 N 0.76520 0.12132 0.62139
 N618 N 0.74867 0.10743 0.61684
 C619 C 0.74983 0.09124 0.59817
 C620 C 0.73117 0.07605 0.59485
 C621 C 0.73163 0.06005 0.57681
 C622 C 0.75078 0.05911 0.56176
 C623 C 0.76955 0.07428 0.56501
 C624 C 0.76910 0.09028 0.58312
 H625 H 0.79660 0.17944 0.66483
 H626 H 0.79825 0.15084 0.63377
 H627 H 0.72878 0.12835 0.65095
 H628 H 0.72695 0.15660 0.68211
 H629 H 0.71625 0.07661 0.60633
 H630 H 0.71706 0.04838 0.57454
 H631 H 0.78448 0.07367 0.55355
 H632 H 0.78374 0.10185 0.58533
 C633 C 0.27098 -0.15063 0.68079
 C634 C 0.27163 -0.13290 0.66400
 C635 C 0.26299 -0.13685 0.64192
 C636 C 0.25369 -0.15886 0.63675
 C637 C 0.25278 -0.17649 0.65356
 C638 C 0.26133 -0.17255 0.67580
 N639 N 0.26295 -0.11807 0.62534
 N640 N 0.25739 -0.12139 0.60446
 C641 C 0.25595 -0.10275 0.58781
 C642 C 0.25088 -0.10820 0.56509
 C643 C 0.24722 -0.09041 0.54876
 C644 C 0.24697 -0.06642 0.55499
 C645 C 0.25528 -0.06142 0.57733
 C646 C 0.25906 -0.07924 0.59369
 H647 H 0.27754 -0.14696 0.69779
 H648 H 0.27873 -0.11598 0.66826
 H649 H 0.24680 -0.16234 0.61982
 H650 H 0.24546 -0.19323 0.64909
 H651 H 0.24973 -0.12637 0.55999
 H652 H 0.24510 -0.09610 0.53136
 H653 H 0.25919 -0.04375 0.58243
 H654 H 0.26425 -0.07458 0.61092
 C655 C 0.75920 -0.13571 0.30934
 C656 C 0.75991 -0.11791 0.32571
 C657 C 0.76486 -0.12331 0.34872
 C658 C 0.76987 -0.14670 0.35510
 C659 C 0.76969 -0.16443 0.33867
 C660 C 0.76404 -0.15914 0.31569
 N661 N 0.76420 -0.10496 0.36538
 N662 N 0.76217 -0.10950 0.38674
 C663 C 0.76147 -0.09157 0.40380
 C664 C 0.75263 -0.09708 0.42556
 C665 C 0.75098 -0.07994 0.44247
 C666 C 0.75868 -0.05702 0.43808
 C667 C 0.76822 -0.05168 0.41639
 C668 C 0.76933 -0.06875 0.39925
 H669 H 0.75498 -0.13115 0.29171
 H670 H 0.75607 -0.09995 0.32057
 H671 H 0.77390 -0.15128 0.37277
 H672 H 0.77336 -0.18234 0.34408
 H673 H 0.74657 -0.11463 0.42926
 H674 H 0.74353 -0.08452 0.45901
 H675 H 0.77466 -0.03427 0.41271
 H676 H 0.77650 -0.06421 0.38260
 C677 C 0.66332 0.77740 -0.15978
 C678 C 0.64626 0.77767 -0.14259
 C679 C 0.63981 0.75685 -0.13157
 C680 C 0.65096 0.73564 -0.13763
 C681 C 0.66825 0.73537 -0.15467
 C682 C 0.67444 0.75624 -0.16607
 N683 N 0.62185 0.75780 -0.11443
 N684 N 0.61328 0.73943 -0.10537
 C685 C 0.59533 0.74072 -0.08822
 C686 C 0.58504 0.71996 -0.08045
 C687 C 0.56738 0.72069 -0.06382
 C688 C 0.55999 0.74223 -0.05466
 C689 C 0.57030 0.76304 -0.06231
 C690 C 0.58783 0.76233 -0.07905
 H691 H 0.66788 0.79381 -0.16803
 H692 H 0.63786 0.79414 -0.13798
 H693 H 0.64630 0.71931 -0.12927
 H694 H 0.67638 0.71878 -0.15923
 H695 H 0.59066 0.70322 -0.08738
 H696 H 0.55953 0.70450 -0.05801
 H697 H 0.56473 0.77977 -0.05532
 H698 H 0.59554 0.77861 -0.08473
 C699 C 0.33534 0.21929 -0.16748
 C700 C 0.35267 0.21855 -0.15059
 C701 C 0.35987 0.23917 -0.14008
 C702 C 0.34925 0.26068 -0.14642
 C703 C 0.33175 0.26143 -0.16320
 C704 C 0.32474 0.24075 -0.17404
 N705 N 0.37805 0.23774 -0.12321
 N706 N 0.38682 0.25587 -0.11424
 C707 C 0.40503 0.25420 -0.09741
 C708 C 0.41514 0.27482 -0.08947
 C709 C 0.43314 0.27375 -0.07324
 C710 C 0.44110 0.25199 -0.06467
 C711 C 0.43091 0.23131 -0.07243
 C712 C 0.41303 0.23237 -0.08876
 H713 H 0.33018 0.20300 -0.17525
 H714 H 0.36066 0.20186 -0.14578
 H715 H 0.35450 0.27687 -0.13849
 H716 H 0.32406 0.27826 -0.16795
 H717 H 0.40913 0.29173 -0.09598
 H718 H 0.44084 0.28984 -0.06732
 H719 H 0.43690 0.21440 -0.06588
 H720 H 0.40547 0.21619 -0.09458
 C721 C 0.30957 0.74535 0.14649
 C722 C 0.32595 0.74541 0.12863
 C723 C 0.34979 0.74753 0.13341
 C724 C 0.35711 0.75013 0.15626
 C725 C 0.34069 0.75077 0.17406
 C726 C 0.31681 0.74821 0.16933
 N727 N 0.36624 0.74743 0.11487
 N728 N 0.38745 0.74110 0.11791
 C729 C 0.40428 0.74187 0.09974
 C730 C 0.42407 0.72718 0.10097
 C731 C 0.44093 0.72773 0.08359
 C732 C 0.43859 0.74360 0.06508
 C733 C 0.41883 0.75854 0.06400
 C734 C 0.40164 0.75750 0.08107
 H735 H 0.29122 0.74353 0.14242
 H736 H 0.32011 0.74351 0.11106
 H737 H 0.37546 0.75204 0.16028
 H738 H 0.34667 0.75293 0.19155
 H739 H 0.42627 0.71509 0.11530
 H740 H 0.45594 0.71594 0.08466
 H741 H 0.41678 0.77102 0.04996
 H742 H 0.38659 0.76922 0.07998
 C743 C 0.64482 0.25012 0.17917
 C744 C 0.62775 0.25062 0.16199
 C745 C 0.63423 0.25084 0.13880
 C746 C 0.65804 0.25111 0.13288
 C747 C 0.67512 0.25125 0.15004
 C748 C 0.66865 0.25055 0.17333
 N749 N 0.61635 0.25107 0.12161
 N750 N 0.62036 0.24456 0.10111
 C751 C 0.60253 0.24544 0.08388
 C752 C 0.60486 0.23127 0.06447
 C753 C 0.58743 0.23141 0.04764
 C754 C 0.56775 0.24634 0.04966
 C755 C 0.56570 0.26090 0.06893
 C756 C 0.58282 0.26029 0.08604
 H757 H 0.63939 0.24977 0.19700
 H758 H 0.60944 0.25053 0.16675
 H759 H 0.66341 0.25148 0.11503
 H760 H 0.69338 0.25147 0.14512
 H761 H 0.61999 0.21977 0.06262
 H762 H 0.58926 0.21987 0.03304
 H763 H 0.55071 0.27260 0.07079
 H764 H 0.58079 0.27155 0.10080
 C765 C -0.16195 0.67446 0.73192
 C766 C -0.14397 0.65759 0.73181
 C767 C -0.13989 0.64330 0.75105
 C768 C -0.15425 0.64581 0.77047
 C769 C -0.17249 0.66245 0.77054
 C770 C -0.17658 0.67719 0.75129
 N771 N -0.12124 0.62628 0.75027
 N772 N -0.11449 0.61476 0.76796
 C773 C -0.09604 0.59752 0.76677
 C774 C -0.08711 0.58776 0.78718
 C775 C -0.06910 0.57088 0.78651
 C776 C -0.06006 0.56340 0.76535
 C777 C -0.06908 0.57303 0.74489
 C778 C -0.08687 0.59008 0.74557
 H779 H -0.16437 0.68505 0.71657
 H780 H -0.13306 0.65572 0.71669
 H781 H -0.15146 0.63484 0.78554
 H782 H -0.18304 0.66382 0.78591
 H783 H -0.09406 0.59331 0.80360
 H784 H -0.06233 0.56349 0.80243
 H785 H -0.06230 0.56730 0.72844
 H786 H -0.09358 0.59726 0.72956
 C787 C -0.17992 0.34318 0.22728
 C788 C -0.16350 0.36111 0.22688
 C789 C -0.14647 0.36236 0.24404
 C790 C -0.14599 0.34538 0.26169
 C791 C -0.16239 0.32748 0.26213
 C792 C -0.17960 0.32615 0.24496
 N793 N -0.12984 0.38089 0.24314
 N794 N -0.11395 0.38282 0.25826
 C795 C -0.09712 0.40116 0.25752
 C796 C -0.07980 0.40161 0.27447
 C797 C -0.06280 0.41894 0.27402
 C798 C -0.06293 0.43607 0.25654
 C799 C -0.08045 0.43584 0.23969
 C800 C -0.09744 0.41847 0.24013
 H801 H -0.19296 0.34285 0.21385
 H802 H -0.16405 0.37409 0.21318
 H803 H -0.13295 0.34590 0.27513
 H804 H -0.16136 0.31462 0.27589
 H805 H -0.07941 0.38840 0.28797
 H806 H -0.04944 0.41896 0.28720
 H807 H -0.08078 0.44897 0.22611
 H808 H -0.11069 0.41850 0.22687
 C809 C 0.16632 0.33264 0.72238
 C810 C 0.14910 0.35031 0.72182
 C811 C 0.14273 0.36208 0.74191
 C812 C 0.15411 0.35626 0.76263
 C813 C 0.17154 0.33878 0.76317
 C814 C 0.17769 0.32666 0.74307
 N815 N 0.12463 0.37971 0.74083
 N816 N 0.11607 0.38898 0.75885
 C817 C 0.09807 0.40671 0.75792
 C818 C 0.08778 0.41418 0.77848
 C819 C 0.07017 0.43144 0.77824
 C820 C 0.06279 0.44158 0.75739
 C821 C 0.07314 0.43427 0.73675
 C822 C 0.09062 0.41682 0.73697
 H823 H 0.17084 0.32381 0.70656
 H824 H 0.14052 0.35470 0.70573
 H825 H 0.14953 0.36519 0.77839
 H826 H 0.17984 0.33448 0.77940
 H827 H 0.09340 0.40655 0.79470
 H828 H 0.06239 0.43705 0.79430
 H829 H 0.06766 0.44208 0.72056
 H830 H 0.09840 0.41139 0.72087
 C831 C 0.14384 0.68086 0.26492
 C832 C 0.12691 0.66351 0.26642
 C833 C 0.12780 0.64418 0.25183
 C834 C 0.14581 0.64243 0.23546
 C835 C 0.16279 0.65976 0.23394
 C836 C 0.16210 0.67916 0.24874
 N837 N 0.11033 0.62660 0.25414
 N838 N 0.10984 0.60865 0.24132
 C839 C 0.09232 0.59113 0.24386
 C840 C 0.09207 0.57238 0.22850
 C841 C 0.07500 0.55518 0.23035
 C842 C 0.05796 0.55652 0.24769
 C843 C 0.05837 0.57514 0.26330
 C844 C 0.07537 0.59238 0.26137
 H845 H 0.14250 0.69557 0.27647
 H846 H 0.11307 0.66509 0.27906
 H847 H 0.14686 0.62761 0.22397
 H848 H 0.17656 0.65772 0.22134
 H849 H 0.10505 0.57120 0.21498
 H850 H 0.07494 0.54090 0.21820
 H851 H 0.04544 0.57634 0.27687
 H852 H 0.07526 0.60663 0.27353
 C853 C 0.73004 -0.14799 0.67999
 C854 C 0.72987 -0.13049 0.66298
 C855 C 0.74070 -0.13445 0.64178
 C856 C 0.75158 -0.15629 0.63764
 C857 C 0.75184 -0.17376 0.65462
 C858 C 0.74119 -0.16978 0.67605
 N859 N 0.74102 -0.11590 0.62500
 N860 N 0.75049 -0.11871 0.60540
 C861 C 0.75173 -0.10025 0.58863
 C862 C 0.76275 -0.10480 0.56775
 C863 C 0.76558 -0.08695 0.55143
 C864 C 0.75819 -0.06360 0.55588
 C865 C 0.74512 -0.05993 0.57628
 C866 C 0.74240 -0.07780 0.59264
 H867 H 0.72182 -0.14424 0.69633
 H868 H 0.72150 -0.11370 0.66641
 H869 H 0.76007 -0.15981 0.62136
 H870 H 0.76034 -0.19038 0.65087
 H871 H 0.76925 -0.12233 0.56410
 H872 H 0.77331 -0.09228 0.53552
 H873 H 0.73670 -0.04321 0.57972
 H874 H 0.73299 -0.07402 0.60838
 C875 C 0.27103 -0.16452 0.33129
 C876 C 0.27184 -0.14718 0.34810
 C877 C 0.25131 -0.13924 0.35880
 C878 C 0.22984 -0.14902 0.35266
 C879 C 0.22902 -0.16652 0.33604
 C880 C 0.24960 -0.17442 0.32513
 N881 N 0.25275 -0.12145 0.37593
 N882 N 0.23463 -0.11175 0.38460
 C883 C 0.23617 -0.09424 0.40200
 C884 C 0.21577 -0.08240 0.40903
 C885 C 0.21672 -0.06528 0.42605
 C886 C 0.23812 -0.06011 0.43643
 C887 C 0.25855 -0.07193 0.42944
 C888 C 0.25763 -0.08886 0.41229
 H889 H 0.28721 -0.17035 0.32336
 H890 H 0.28851 -0.13983 0.35276
 H891 H 0.21372 -0.14321 0.36074
 H892 H 0.21221 -0.17361 0.33155
 H893 H 0.19914 -0.08639 0.40123
 H894 H 0.20084 -0.05616 0.43125
 H895 H 0.27518 -0.06799 0.43728
 H896 H 0.27362 -0.09781 0.40719
 C897 C 0.76052 0.17538 0.34462
 C898 C 0.76122 0.15813 0.36178
 C899 C 0.74124 0.14547 0.36729
 C900 C 0.72030 0.15026 0.35542
 C901 C 0.71959 0.16748 0.33809
 C902 C 0.73973 0.18024 0.33250
 N903 N 0.74299 0.12767 0.38473
 N904 N 0.72563 0.11591 0.39182
 C905 C 0.72852 0.09801 0.40911
 C906 C 0.70883 0.08661 0.41786
 C907 C 0.71134 0.06906 0.43474
 C908 C 0.73367 0.06265 0.44282
 C909 C 0.75335 0.07401 0.43407
 C910 C 0.75084 0.09158 0.41738
 H911 H 0.77645 0.18457 0.34066
 H912 H 0.77747 0.15451 0.37077
 H913 H 0.70462 0.14063 0.35940
 H914 H 0.70326 0.17087 0.32920
 H915 H 0.69155 0.09137 0.41163
 H916 H 0.69600 0.06043 0.44143
 H917 H 0.77067 0.06924 0.44021
 H918 H 0.76635 0.10004 0.41090
 C919 C 0.26593 0.14729 0.67440
 C920 C 0.26553 0.12953 0.65803
 C921 C 0.24730 0.12852 0.64213
 C922 C 0.22925 0.14551 0.64280
 C923 C 0.22960 0.16330 0.65917
 C924 C 0.24798 0.16446 0.67517
 N925 N 0.24771 0.11028 0.62538
 N926 N 0.23194 0.10847 0.61012
 C927 C 0.23276 0.09030 0.59328
 C928 C 0.21536 0.08977 0.57639
 C929 C 0.21612 0.07269 0.55929
 C930 C 0.23431 0.05588 0.55897
 C931 C 0.25160 0.05622 0.57604
 C932 C 0.25085 0.07330 0.59308
 H933 H 0.28046 0.14760 0.68624
 H934 H 0.27957 0.11655 0.65764
 H935 H 0.21493 0.14508 0.63068
 H936 H 0.21537 0.17603 0.65928
 H937 H 0.20135 0.10278 0.57635
 H938 H 0.20268 0.07266 0.54620
 H939 H 0.26580 0.04341 0.57594
 H940 H 0.26450 0.07332 0.60595
   
