data_POSCAR
  _audit_creation_date              2014-09-24
  _audit_creation_method            'ToBaCCo'
  _symmetry_space_group_name_H-M    'P1'
  _symmetry_Int_Tables_number       1
  _symmetry_cell_setting            triclinic
  loop_
  _symmetry_equiv_pos_as_xyz
 x,y,z
_cell_length_a 23.5450
_cell_length_b 24.2690
_cell_length_c 16.5110
_cell_angle_alpha 89.793700
_cell_angle_beta 90.424000
_cell_angle_gamma 87.004600
loop_
  _atom_site_label
  _atom_site_type_symbol
  _atom_site_fract_x
  _atom_site_fract_y
  _atom_site_fract_z
C1 C -0.07879 0.25838 0.02587
 C2 C -0.07578 0.25677 -0.05979
 C3 C -0.03578 0.28787 -0.10023
 C4 C 0.00544 0.31534 -0.05694
 C5 C 0.00540 0.31368 0.02798
 C6 C -0.03872 0.28802 0.06849
 H7 H -0.03820 0.28565 0.13407
 H8 H -0.03359 0.28663 -0.16581
 C9 C 0.48462 0.79811 0.54147
 C10 C 0.48359 0.79601 0.45675
 C11 C 0.53425 0.78495 0.41470
 C12 C 0.58550 0.77447 0.45731
 C13 C 0.58642 0.77494 0.54214
 C14 C 0.53598 0.78751 0.58411
 H15 H 0.53647 0.78756 0.64967
 H16 H 0.53360 0.78321 0.34919
 C17 C 1.07240 0.74647 0.04829
 C18 C 1.08066 0.74306 -0.03569
 C19 C 1.04120 0.71608 -0.08436
 C20 C 0.99324 0.69388 -0.04970
 C21 C 0.98553 0.69700 0.03421
 C22 C 1.02575 0.72267 0.08243
 H23 H 1.01878 0.72788 0.14684
 H24 H 1.04801 0.71198 -0.14894
 C25 C 0.51690 0.21000 0.53877
 C26 C 0.51628 0.21286 0.45382
 C27 C 0.46418 0.22233 0.41283
 C28 C 0.41296 0.22926 0.45628
 C29 C 0.41351 0.22682 0.54144
 C30 C 0.46574 0.21706 0.58235
 H31 H 0.46673 0.21579 0.64788
 H32 H 0.46354 0.22493 0.34736
 C33 C 0.73486 -0.09336 0.05636
 C34 C 0.73683 -0.09997 -0.02808
 C35 C 0.72114 -0.05458 -0.07887
 C36 C 0.70440 -0.00312 -0.04483
 C37 C 0.69972 0.00192 0.03919
 C38 C 0.71331 -0.04379 0.08899
 H39 H 0.71388 -0.03897 0.15424
 H40 H 0.72421 -0.05865 -0.14398
 C41 C 0.23133 0.49749 0.54616
 C42 C 0.22703 0.49783 0.46114
 C43 C 0.23145 0.54757 0.41833
 C44 C 0.23909 0.59699 0.46006
 C45 C 0.24370 0.59666 0.54489
 C46 C 0.24029 0.54685 0.58777
 H47 H 0.24334 0.54674 0.65322
 H48 H 0.22816 0.54797 0.35290
 C49 C 0.25553 1.09642 0.04973
 C50 C 0.25332 1.09745 -0.03586
 C51 C 0.27582 1.05186 -0.07944
 C52 C 0.29533 1.00335 -0.03912
 C53 C 0.29755 1.00238 0.04556
 C54 C 0.28069 1.05000 0.08920
 H55 H 0.27952 1.04820 0.15479
 H56 H 0.27137 1.05173 -0.14484
 C57 C 0.78333 0.49801 0.54030
 C58 C 0.78265 0.49928 0.45533
 C59 C 0.77763 0.45043 0.41165
 C60 C 0.77335 0.40009 0.45230
 C61 C 0.77367 0.39841 0.53734
 C62 C 0.77847 0.44752 0.58127
 H63 H 0.77852 0.44643 0.64682
 H64 H 0.77700 0.45159 0.34610
 O65 O 0.15932 0.32806 0.14569
 O66 O 0.30018 0.29101 0.23516
 O67 O 0.22915 0.24328 0.13996
 O68 O 0.23371 0.38163 0.23358
 O69 O 0.19566 0.35085 0.34571
 O70 O 0.18237 0.21631 0.24742
 O71 O 0.25765 0.25970 0.34352
 O72 O 0.11818 0.30391 0.25939
 Cu73 Cu 0.23486 0.31487 0.17823
 Cu74 Cu 0.18467 0.27979 0.31027
 C75 C 0.11481 0.31988 0.18637
 C76 C 0.30259 0.26855 0.30472
 C77 C 0.20236 0.20696 0.17718
 C78 C 0.21709 0.38937 0.30581
 O79 O 0.82979 0.67557 0.14271
 O80 O 0.69126 0.70973 0.23541
 O81 O 0.76177 0.76153 0.14711
 O82 O 0.75943 0.62030 0.23276
 O83 O 0.79921 0.64891 0.34558
 O84 O 0.81051 0.78516 0.25547
 O85 O 0.73598 0.73864 0.34415
 O86 O 0.87262 0.69606 0.25757
 Cu87 Cu 0.75593 0.68813 0.17858
 Cu88 Cu 0.80868 0.71975 0.31217
 C89 C 0.87467 0.68206 0.18395
 C90 C 0.69043 0.73108 0.30528
 C91 C 0.78873 0.79678 0.18666
 C92 C 0.77799 0.61110 0.30427
 O93 O 0.80963 0.18330 0.22575
 O94 O 0.67260 0.19543 0.33542
 O95 O 0.72725 0.12055 0.25191
 O96 O 0.76230 0.25388 0.33138
 O97 O 0.72098 0.29669 0.22663
 O98 O 0.69356 0.16028 0.13952
 O99 O 0.63343 0.23364 0.22561
 O100 O 0.77291 0.23039 0.12153
 Cu101 Cu 0.74709 0.18498 0.29681
 Cu102 Cu 0.70101 0.23453 0.16807
 C103 C 0.81457 0.20365 0.15492
 C104 C 0.62909 0.21594 0.29764
 C105 C 0.70648 0.11719 0.18156
 C106 C 0.74615 0.29795 0.29492
 O107 O 0.18484 0.82058 0.24966
 O108 O 0.32620 0.81158 0.34550
 O109 O 0.26708 0.88506 0.26358
 O110 O 0.24104 0.74809 0.34501
 O111 O 0.27685 0.70833 0.23527
 O112 O 0.29898 0.84664 0.15038
 O113 O 0.36154 0.77409 0.23376
 O114 O 0.21802 0.77763 0.14074
 Cu115 Cu 0.25095 0.81962 0.31225
 Cu116 Cu 0.29245 0.77263 0.17921
 C117 C 0.17737 0.80181 0.17886
 C118 C 0.36821 0.79181 0.30521
 C119 C 0.28632 0.88931 0.19262
 C120 C 0.25575 0.70496 0.30554
 O121 O 0.76186 0.24567 0.64692
 O122 O 0.73478 0.10802 0.72706
 O123 O 0.67410 0.18469 0.64975
 O124 O 0.81609 0.17371 0.74501
 O125 O 0.78276 0.21741 0.85327
 O126 O 0.63957 0.22150 0.76240
 O127 O 0.70395 0.14693 0.84040
 O128 O 0.72592 0.28548 0.75654
 Cu129 Cu 0.75020 0.17464 0.68085
 Cu130 Cu 0.70930 0.22163 0.81373
 C131 C 0.74787 0.28886 0.68673
 C132 C 0.71652 0.10395 0.79859
 C133 C 0.63246 0.20484 0.69067
 C134 C 0.82345 0.19317 0.81554
 O135 O 0.37158 0.78266 0.76868
 O136 O 0.23277 0.77211 0.86100
 O137 O 0.29353 0.71013 0.76404
 O138 O 0.30417 0.84956 0.85182
 O139 O 0.26254 0.88580 0.74229
 O140 O 0.25322 0.74781 0.65445
 O141 O 0.19018 0.80655 0.75084
 O142 O 0.33060 0.81835 0.65823
 Cu143 Cu 0.30482 0.77532 0.82210
 Cu144 Cu 0.25514 0.81919 0.69082
 C145 C 0.37476 0.80085 0.69724
 C146 C 0.18793 0.78592 0.82149
 C147 C 0.27128 0.70545 0.69404
 C148 C 0.28431 0.89133 0.81194
 O149 O 0.25444 0.37875 0.77154
 O150 O 0.23547 0.24517 0.87465
 O151 O 0.31037 0.28287 0.77208
 O152 O 0.18017 0.34151 0.87035
 O153 O 0.12822 0.31552 0.76663
 O154 O 0.25945 0.25734 0.66734
 O155 O 0.18231 0.22074 0.77140
 O156 O 0.20320 0.35212 0.66759
 Cu157 Cu 0.25050 0.31416 0.83222
 Cu158 Cu 0.18861 0.28301 0.70773
 C159 C 0.23199 0.38813 0.70235
 C160 C 0.20338 0.21127 0.84130
 C161 C 0.30748 0.26202 0.70189
 C162 C 0.13219 0.33881 0.83516
 O163 O 0.75555 0.61167 0.76696
 O164 O 0.75806 0.74576 0.86942
 O165 O 0.69105 0.70221 0.76517
 O166 O 0.82612 0.65588 0.86526
 O167 O 0.87380 0.69132 0.76465
 O168 O 0.73877 0.73405 0.66179
 O169 O 0.80286 0.78049 0.76546
 O170 O 0.80323 0.64483 0.66456
 Cu171 Cu 0.75333 0.67575 0.82717
 Cu172 Cu 0.81029 0.71601 0.70452
 C173 C 0.77834 0.60551 0.69811
 C174 C 0.77858 0.78649 0.83351
 C175 C 0.69194 0.72558 0.69623
 C176 C 0.87287 0.66496 0.83112
 N177 N 0.22316 0.13011 0.09353
 N178 N 0.19037 0.15610 0.13905
 N179 N 0.78713 0.54896 0.58327
 N180 N 0.77494 0.55381 0.65787
 N181 N 0.76571 0.87416 0.10454
 N182 N 0.79769 0.84980 0.15365
 N183 N 0.22587 0.44644 0.58877
 N184 N 0.23955 0.43974 0.66301
 N185 N 0.89017 0.22496 0.06777
 N186 N 0.86646 0.19185 0.11156
 N187 N 0.43186 0.80510 0.58301
 N188 N 0.42851 0.79826 0.65897
 N189 N 0.10141 0.77897 0.09424
 N190 N 0.12284 0.81124 0.14159
 N191 N 0.57080 0.20293 0.57922
 N192 N 0.57720 0.21062 0.65476
 N193 N 0.70085 0.04695 0.90883
 N194 N 0.71440 0.05055 0.83480
 N195 N 0.24330 0.64837 0.41801
 N196 N 0.25066 0.65201 0.34196
 N197 N 0.30134 0.95158 0.91925
 N198 N 0.28345 0.94499 0.84728
 N199 N 0.76619 0.35021 0.40846
 N200 N 0.75400 0.34945 0.33327
 N201 N 0.04566 0.34015 0.90460
 N202 N 0.08299 0.36562 0.87096
 N203 N 0.63681 0.75972 0.41584
 N204 N 0.63754 0.74583 0.34180
 N205 N 0.95741 0.66780 0.90522
 N206 N 0.92455 0.64107 0.86461
 N207 N 0.35998 0.24182 0.41552
 N208 N 0.35666 0.25493 0.34093
 N209 N 0.75247 0.84685 0.93907
 N210 N 0.77071 0.84043 0.86721
 N211 N 0.21919 0.44682 0.41973
 N212 N 0.22437 0.44152 0.34340
 N213 N 0.22047 0.13365 0.92460
 N214 N 0.18724 0.16327 0.88365
 N215 N 0.78543 0.55120 0.41472
 N216 N 0.77421 0.55785 0.33970
 N217 N 0.13125 0.76259 0.92994
 N218 N 0.13440 0.77477 0.85525
 N219 N 0.56964 0.20838 0.41140
 N220 N 0.57472 0.22010 0.33658
 N221 N 0.89801 0.22034 0.89755
 N222 N 0.87803 0.18555 0.85296
 N223 N 0.42978 0.80090 0.41558
 N224 N 0.42343 0.78810 0.34154
 N225 N 0.30313 0.94959 0.08487
 N226 N 0.28913 0.94301 0.15828
 N227 N 0.76699 0.34645 0.57704
 N228 N 0.75527 0.34200 0.65184
 N229 N 0.69397 0.05616 0.07314
 N230 N 0.70289 0.06372 0.14805
 N231 N 0.25104 0.64802 0.58547
 N232 N 0.26638 0.65198 0.65924
 N233 N 0.93285 0.68287 0.06912
 N234 N 0.92816 0.68183 0.14563
 N235 N 0.36114 0.23857 0.58459
 N236 N 0.35947 0.24653 0.66085
 N237 N 0.05630 0.32632 0.07073
 N238 N 0.06076 0.32060 0.14708
 N239 N 0.63837 0.75898 0.58402
 N240 N 0.63940 0.74206 0.65710
   
