data_POSCAR
  _audit_creation_date              2014-09-24
  _audit_creation_method            'ToBaCCo'
  _symmetry_space_group_name_H-M    'P1'
  _symmetry_Int_Tables_number       1
  _symmetry_cell_setting            triclinic
  loop_
  _symmetry_equiv_pos_as_xyz
 x,y,z
_cell_length_a 15.0236
_cell_length_b 15.0236
_cell_length_c 15.0236
_cell_angle_alpha 90.000000
_cell_angle_beta 90.000000
_cell_angle_gamma 90.000000
loop_
  _atom_site_label
  _atom_site_type_symbol
  _atom_site_fract_x
  _atom_site_fract_y
  _atom_site_fract_z
C1 C 0.00002 0.50004 0.24981
 C2 C 0.00002 0.50004 0.74981
 C3 C 0.25002 0.00004 0.49981
 C4 C 0.75002 0.00004 0.49981
 C5 C 0.50002 0.25004 0.99981
 C6 C 0.50002 0.75004 0.99981
 B7 B 1.00002 1.09087 0.05574
 B8 B 1.05596 1.00004 0.09064
 B9 B 0.94409 1.00004 0.09064
 B10 B 0.90919 1.05597 -0.00019
 B11 B 1.00002 1.09087 -0.05613
 B12 B 1.09086 1.05597 -0.00019
 B13 B 1.00002 0.90921 -0.05613
 B14 B 0.94409 1.00004 -0.09102
 B15 B 1.05596 1.00004 -0.09102
 B16 B 1.09086 0.94410 -0.00019
 B17 B 1.00002 0.90921 0.05574
 B18 B 0.90919 0.94410 -0.00019
 B19 B 0.59086 0.50004 0.44387
 B20 B 0.59086 0.50004 0.55574
 B21 B 0.55596 0.59087 0.49981
 B22 B 0.50002 0.55597 0.40898
 B23 B 0.50002 0.44410 0.40898
 B24 B 0.55596 0.40921 0.49981
 B25 B 0.40919 0.50004 0.55574
 B26 B 0.40919 0.50004 0.44387
 B27 B 0.44409 0.40921 0.49981
 B28 B 0.50002 0.44410 0.59064
 B29 B 0.50002 0.55597 0.59064
 B30 B 0.44409 0.59087 0.49981
 C31 C 1.00002 1.41808 0.19699
 C32 C 1.00002 1.34494 0.16390
 C33 C 1.00002 1.25684 0.13140
 C34 C 1.00002 1.18203 0.10258
 C35 C 1.00002 0.58200 0.19699
 C36 C 1.00002 0.65514 0.16390
 C37 C 1.00002 0.74323 0.13140
 C38 C 1.00002 0.81805 0.10258
 C39 C 1.00002 1.41808 -0.19737
 C40 C 1.00002 1.34494 -0.16428
 C41 C 1.00002 1.25685 -0.13178
 C42 C 1.00002 1.18203 -0.10297
 C43 C 1.00002 0.58200 -0.19737
 C44 C 1.00002 0.65514 -0.16428
 C45 C 1.00002 0.74323 -0.13178
 C46 C 1.00002 0.81805 -0.10297
 C47 C 1.19721 1.00004 0.41785
 C48 C 1.16411 1.00004 0.34471
 C49 C 1.13161 1.00004 0.25662
 C50 C 1.10280 1.00004 0.18180
 C51 C 1.19721 1.00004 -0.41823
 C52 C 1.16411 1.00004 -0.34509
 C53 C 1.13161 1.00004 -0.25700
 C54 C 1.10280 1.00004 -0.18218
 C55 C 0.80284 1.00004 0.41785
 C56 C 0.83594 1.00004 0.34471
 C57 C 0.86843 1.00004 0.25662
 C58 C 0.89725 1.00004 0.18180
 C59 C 0.80284 1.00004 -0.41823
 C60 C 0.83594 1.00004 -0.34509
 C61 C 0.86843 1.00004 -0.25700
 C62 C 0.89725 1.00004 -0.18218
 C63 C 1.41806 1.19722 -0.00019
 C64 C 1.34493 1.16413 -0.00019
 C65 C 1.25683 1.13163 -0.00019
 C66 C 1.18201 1.10281 -0.00019
 C67 C 0.58198 1.19722 -0.00019
 C68 C 0.65512 1.16413 -0.00019
 C69 C 0.74322 1.13163 -0.00019
 C70 C 0.81803 1.10281 -0.00019
 C71 C 1.41806 0.80286 -0.00019
 C72 C 1.34493 0.83595 -0.00019
 C73 C 1.25683 0.86845 -0.00019
 C74 C 1.18201 0.89726 -0.00019
 C75 C 0.58198 0.80286 -0.00019
 C76 C 0.65512 0.83595 -0.00019
 C77 C 0.74322 0.86845 -0.00019
 C78 C 0.81803 0.89726 -0.00019
 C79 C 0.91806 0.50004 0.30263
 C80 C 0.84493 0.50004 0.33572
 C81 C 0.75683 0.50004 0.36822
 C82 C 0.68201 0.50004 0.39703
 C83 C 0.08198 0.50004 0.30263
 C84 C 0.15512 0.50004 0.33572
 C85 C 0.24322 0.50004 0.36822
 C86 C 0.31803 0.50004 0.39703
 C87 C 0.91806 0.50004 0.69699
 C88 C 0.84493 0.50004 0.66390
 C89 C 0.75683 0.50004 0.63140
 C90 C 0.68201 0.50004 0.60258
 C91 C 0.08198 0.50004 0.69699
 C92 C 0.15512 0.50004 0.66390
 C93 C 0.24322 0.50004 0.63140
 C94 C 0.31803 0.50004 0.60258
 C95 C 0.50002 0.69722 0.08177
 C96 C 0.50002 0.66413 0.15491
 C97 C 0.50002 0.63163 0.24300
 C98 C 0.50002 0.60281 0.31782
 C99 C 0.50002 0.69722 0.91785
 C100 C 0.50002 0.66413 0.84471
 C101 C 0.50002 0.63163 0.75662
 C102 C 0.50002 0.60281 0.68180
 C103 C 0.50002 0.30286 0.08177
 C104 C 0.50002 0.33595 0.15491
 C105 C 0.50002 0.36845 0.24300
 C106 C 0.50002 0.39726 0.31782
 C107 C 0.50002 0.30286 0.91785
 C108 C 0.50002 0.33595 0.84471
 C109 C 0.50002 0.36845 0.75662
 C110 C 0.50002 0.39726 0.68180
 C111 C 0.69721 0.91808 0.49981
 C112 C 0.66411 0.84494 0.49981
 C113 C 0.63161 0.75685 0.49981
 C114 C 0.60280 0.68203 0.49981
 C115 C 0.69721 0.08200 0.49981
 C116 C 0.66411 0.15514 0.49981
 C117 C 0.63161 0.24323 0.49981
 C118 C 0.60280 0.31805 0.49981
 C119 C 0.30284 0.91808 0.49981
 C120 C 0.33594 0.84494 0.49981
 C121 C 0.36843 0.75685 0.49981
 C122 C 0.39725 0.68203 0.49981
 C123 C 0.30284 0.08200 0.49981
 C124 C 0.33594 0.15514 0.49981
 C125 C 0.36843 0.24323 0.49981
 C126 C 0.39725 0.31805 0.49981
   
