data_POSCAR
  _audit_creation_date              2014-09-24
  _audit_creation_method            'ToBaCCo'
  _symmetry_space_group_name_H-M    'P1'
  _symmetry_Int_Tables_number       1
  _symmetry_cell_setting            triclinic
  loop_
  _symmetry_equiv_pos_as_xyz
 x,y,z
_cell_length_a 22.2151
_cell_length_b 22.0031
_cell_length_c 22.2496
_cell_angle_alpha 90.601200
_cell_angle_beta 91.385800
_cell_angle_gamma 86.774700
loop_
  _atom_site_label
  _atom_site_type_symbol
  _atom_site_fract_x
  _atom_site_fract_y
  _atom_site_fract_z
C1 C -0.09306 0.52357 0.27785
 C2 C -0.03818 0.53285 0.25192
 C3 C -0.02653 0.58996 0.22993
 C4 C -0.07076 0.63777 0.23005
 C5 C -0.12808 0.62762 0.25381
 C6 C -0.13793 0.57084 0.28074
 C7 C 0.00977 0.48462 0.25189
 C8 C 0.00295 0.43045 0.22015
 C9 C 0.05196 0.38800 0.21458
 C10 C 0.10843 0.40094 0.24050
 C11 C 0.11523 0.45595 0.27304
 C12 C 0.06451 0.49582 0.28007
 H13 H -0.10000 0.47988 0.29804
 H14 H 0.01727 0.59679 0.21126
 H15 H -0.03999 0.42216 0.19824
 H16 H 0.06692 0.53682 0.30712
 H17 H -0.16215 0.66475 0.25625
 H18 H 0.14670 0.36932 0.23326
 C19 C -0.07636 0.48341 0.71794
 C20 C -0.02075 0.47344 0.74842
 C21 C -0.01205 0.42483 0.78877
 C22 C -0.06033 0.38962 0.80317
 C23 C -0.11641 0.40256 0.77462
 C24 C -0.12383 0.44633 0.72959
 C25 C 0.02679 0.51681 0.74330
 C26 C 0.01358 0.57830 0.75640
 C27 C 0.05993 0.61798 0.76757
 C28 C 0.12046 0.59453 0.76197
 C29 C 0.13423 0.53395 0.74097
 C30 C 0.08620 0.49553 0.73337
 H31 H -0.08199 0.51909 0.68476
 H32 H 0.03107 0.41756 0.81217
 H33 H -0.03283 0.59338 0.76460
 H34 H 0.09384 0.44868 0.71919
 H35 H -0.15403 0.37530 0.78418
 H36 H 0.15630 0.62452 0.77196
 C37 C 0.26203 -0.07082 0.50167
 C38 C 0.23391 -0.01729 0.52317
 C39 C 0.20801 -0.01556 0.57975
 C40 C 0.20535 -0.06924 0.61369
 C41 C 0.23251 -0.12398 0.58964
 C42 C 0.26368 -0.12449 0.53472
 C43 C 0.23241 0.03615 0.48424
 C44 C 0.20712 0.03163 0.42632
 C45 C 0.21480 0.07595 0.38210
 C46 C 0.24939 0.12619 0.39947
 C47 C 0.27581 0.12999 0.45778
 C48 C 0.26616 0.08534 0.49999
 H49 H 0.28123 -0.07038 0.45738
 H50 H 0.19002 0.02792 0.59626
 H51 H 0.18595 -0.01022 0.41562
 H52 H 0.28789 0.08706 0.54411
 H53 H 0.23167 -0.16560 0.61464
 H54 H 0.25690 0.16236 0.36854
 C55 C 0.72251 -0.09765 0.47302
 C56 C 0.75337 -0.04552 0.46291
 C57 C 0.78660 -0.04024 0.41114
 C58 C 0.78818 -0.08678 0.36767
 C59 C 0.75772 -0.13965 0.37854
 C60 C 0.72600 -0.14606 0.43166
 C61 C 0.75385 0.00255 0.50820
 C62 C 0.78820 -0.00622 0.56069
 C63 C 0.79273 0.04035 0.60424
 C64 C 0.75729 0.09600 0.59365
 C65 C 0.72033 0.10357 0.54077
 C66 C 0.72082 0.05680 0.49798
 H67 H 0.69905 -0.10157 0.51486
 H68 H 0.81212 -0.00020 0.40602
 H69 H 0.80983 -0.05098 0.56714
 H70 H 0.69505 0.06232 0.45616
 H71 H 0.75621 -0.17519 0.34465
 H72 H 0.75849 0.13372 0.62504
 C73 C 0.47321 0.28241 1.08050
 C74 C 0.47118 0.24316 1.03126
 C75 C 0.42488 0.20309 1.02473
 C76 C 0.37683 0.20605 1.06465
 C77 C 0.37697 0.24886 1.11235
 C78 C 0.42683 0.28474 1.12180
 C79 C 0.51532 0.24688 0.98433
 C80 C 0.57169 0.21648 0.99083
 C81 C 0.61133 0.21360 0.94283
 C82 C 0.59511 0.24518 0.88941
 C83 C 0.54030 0.28118 0.88506
 C84 C 0.49996 0.27980 0.93237
 H85 H 0.51041 0.31203 1.08610
 H86 H 0.42439 0.17245 0.98621
 H87 H 0.58282 0.19146 1.03176
 H88 H 0.45605 0.30374 0.92877
 H89 H 0.34064 0.25143 1.14410
 H90 H 0.62668 0.24434 0.85303
 C91 C 0.52705 0.72790 1.08524
 C92 C 0.53821 0.75233 1.02863
 C93 C 0.59105 0.78304 1.02022
 C94 C 0.63014 0.79540 1.06891
 C95 C 0.61631 0.77296 1.12615
 C96 C 0.56675 0.73628 1.13481
 C97 C 0.49210 0.75171 0.97925
 C98 C 0.43449 0.78005 0.98822
 C99 C 0.39415 0.79144 0.93923
 C100 C 0.41076 0.76882 0.88217
 C101 C 0.46716 0.73867 0.87245
 C102 C 0.50801 0.73094 0.92137
 H103 H 0.48757 0.70189 1.08956
 H104 H 0.59832 0.80237 0.97656
 H105 H 0.42388 0.79847 1.03230
 H106 H 0.55271 0.71017 0.91437
 H107 H 0.64572 0.78279 1.16384
 H108 H 0.37838 0.77298 0.84507
 B109 B 1.00028 1.06102 0.04483
 B110 B 0.99841 1.06505 -0.03376
 B111 B 1.06280 1.03814 0.00354
 B112 B 1.04116 0.99551 0.06449
 B113 B 0.96358 0.99682 0.06350
 B114 B 0.93671 1.04039 0.00418
 B115 B 1.00302 0.93739 -0.04151
 B116 B 1.00340 0.93339 0.03534
 B117 B 0.93876 0.96274 -0.00242
 B118 B 0.96068 1.00435 -0.06237
 B119 B 1.03799 1.00115 -0.06244
 B120 B 1.06592 0.96023 -0.00013
 B121 B 0.55933 0.50013 0.45708
 B122 B 0.56426 0.50084 0.53489
 B123 B 0.53158 0.56371 0.49736
 B124 B 0.49180 0.53730 0.43595
 B125 B 0.49901 0.45874 0.43618
 B126 B 0.54377 0.43569 0.49606
 B127 B 0.44046 0.49733 0.54319
 B128 B 0.43422 0.49427 0.46288
 B129 B 0.46539 0.43350 0.50302
 B130 B 0.50730 0.45918 0.56193
 B131 B 0.50140 0.53851 0.56181
 B132 B 0.45365 0.55959 0.49921
 C133 C 1.02460 1.34054 0.11694
 C134 C 1.04371 1.33317 0.17712
 C135 C 1.04776 1.27460 0.20219
 C136 C 1.03164 1.22403 0.16720
 C137 C 1.01210 1.23224 0.10722
 C138 C 1.00899 1.29057 0.08223
 C139 C 0.99644 1.18206 0.07231
 C140 C 1.00436 1.12146 0.09206
 C141 C 1.01725 1.11608 0.15469
 C142 C 1.03206 1.16567 0.19121
 H143 H 1.06127 1.26888 0.24902
 H144 H 0.99418 1.29758 0.03591
 H145 H 0.98050 1.19182 0.02872
 H146 H 1.04350 1.15817 0.23828
 H147 H 1.02073 1.38542 0.09716
 H148 H 1.01437 1.07390 0.17745
 C149 C 0.99557 0.72226 0.23232
 C150 C 0.94518 0.69393 0.20727
 C151 C 0.92202 0.71376 0.15116
 C152 C 0.94955 0.76009 0.12032
 C153 C 0.99845 0.78971 0.14666
 C154 C 1.02099 0.77041 0.20312
 C155 C 1.02302 0.83894 0.11686
 C156 C 0.99691 0.86260 0.06247
 C157 C 0.95494 0.82444 0.03394
 C158 C 0.93037 0.77595 0.06253
 H159 H 0.88546 0.69036 0.12965
 H160 H 1.05888 0.79186 0.22430
 H161 H 1.06057 0.85852 0.13855
 H162 H 0.89555 0.75147 0.03941
 H163 H 1.01578 0.70639 0.27453
 H164 H 0.93836 0.83218 -0.01078
 C165 C 0.89801 1.32454 -0.12214
 C166 C 0.94662 1.33992 -0.15756
 C167 C 0.99925 1.30086 -0.15772
 C168 C 1.00030 1.24474 -0.12825
 C169 C 0.94958 1.22882 -0.09666
 C170 C 0.89951 1.26967 -0.09206
 C171 C 0.94928 1.17245 -0.06922
 C172 C 0.99867 1.12987 -0.07039
 C173 C 1.04974 1.14746 -0.10175
 C174 C 1.05044 1.20359 -0.13057
 H175 H 1.03731 1.31139 -0.18457
 H176 H 0.86082 1.25858 -0.06634
 H177 H 0.91159 1.16506 -0.04215
 H178 H 1.09033 1.21480 -0.15426
 H179 H 0.85819 1.35487 -0.11792
 H180 H 1.09025 1.11800 -0.10347
 C181 C 0.99291 0.71178 -0.23319
 C182 C 1.04500 0.67813 -0.21143
 C183 C 1.07818 0.70340 -0.16374
 C184 C 1.05743 0.75802 -0.13578
 C185 C 1.00638 0.79202 -0.15840
 C186 C 0.97491 0.76866 -0.20817
 C187 C 0.98665 0.84746 -0.12970
 C188 C 1.01613 0.86944 -0.07697
 C189 C 1.06163 0.82804 -0.05249
 C190 C 1.08407 0.77623 -0.08224
 H191 H 1.11685 0.67778 -0.14430
 H192 H 0.93522 0.79337 -0.22657
 H193 H 0.94720 0.87031 -0.14834
 H194 H 1.12063 0.74864 -0.06138
 H195 H 0.96641 0.69455 -0.27046
 H196 H 1.08017 0.83317 -0.00838
 C197 C 1.21408 1.09772 0.27235
 C198 C 1.19168 1.06696 0.32194
 C199 C 1.14655 1.02485 0.30920
 C200 C 1.12694 1.01227 0.25011
 C201 C 1.14992 1.04337 0.20206
 C202 C 1.19321 1.08638 0.21359
 C203 C 1.12597 1.03481 0.14370
 C204 C 1.07954 0.99453 0.13013
 C205 C 1.05833 0.96399 0.18032
 C206 C 1.08180 0.97170 0.23862
 H207 H 1.12376 1.00317 0.34480
 H208 H 1.21130 1.11121 0.17693
 H209 H 1.13680 1.06855 0.11327
 H210 H 1.06220 0.94810 0.27524
 H211 H 1.24925 1.12939 0.27761
 H212 H 1.01965 0.93783 0.17692
 C213 C 1.19047 0.88773 -0.28219
 C214 C 1.17574 0.93262 -0.32590
 C215 C 1.13329 0.98034 -0.31045
 C216 C 1.10944 0.98485 -0.25253
 C217 C 1.12389 0.93917 -0.21040
 C218 C 1.16358 0.89008 -0.22597
 C219 C 1.09904 0.94337 -0.15300
 C220 C 1.06618 0.99636 -0.13197
 C221 C 1.04865 1.03864 -0.17776
 C222 C 1.07022 1.03367 -0.23625
 H223 H 1.11835 1.01447 -0.34292
 H224 H 1.17566 0.85456 -0.19376
 H225 H 1.10765 0.90469 -0.12486
 H226 H 1.05526 1.06772 -0.26900
 H227 H 1.22371 0.85103 -0.29018
 H228 H 1.01325 1.07305 -0.17146
 C229 C 0.84520 0.86758 0.28085
 C230 C 0.82148 0.91955 0.31137
 C231 C 0.82938 0.97747 0.28724
 C232 C 0.86122 0.98308 0.23442
 C233 C 0.88227 0.93067 0.20345
 C234 C 0.87355 0.87311 0.22652
 C235 C 0.91116 0.93615 0.14928
 C236 C 0.92632 0.99285 0.12653
 C237 C 0.90339 1.04456 0.15838
 C238 C 0.87124 1.04006 0.21109
 H239 H 0.81027 1.01827 0.30868
 H240 H 0.88971 0.83231 0.20332
 H241 H 0.91674 0.89560 0.12366
 H242 H 0.85478 1.08129 0.23384
 H243 H 0.84237 0.82233 0.29868
 H244 H 0.90950 1.08941 0.14404
 C245 C 0.87741 0.98224 -0.34218
 C246 C 0.83033 1.02905 -0.34315
 C247 C 0.82130 1.06235 -0.28945
 C248 C 0.85526 1.04743 -0.23690
 C249 C 0.89866 0.99829 -0.23574
 C250 C 0.91026 0.96673 -0.28939
 C251 C 0.93127 0.98338 -0.18162
 C252 C 0.92153 1.01673 -0.12742
 C253 C 0.88218 1.06905 -0.13427
 C254 C 0.84799 1.08282 -0.18575
 H255 H 0.78658 1.09870 -0.28700
 H256 H 0.94510 0.93025 -0.29077
 H257 H 0.96880 0.95087 -0.18460
 H258 H 0.81702 1.12273 -0.18579
 H259 H 0.89086 0.95776 -0.38243
 H260 H 0.87570 1.10142 -0.10006
 C261 C 1.33981 1.10537 0.04394
 C262 C 1.32883 1.16813 0.05502
 C263 C 1.26932 1.19308 0.05196
 C264 C 1.22199 1.15631 0.03560
 C265 C 1.23272 1.09322 0.02808
 C266 C 1.29194 1.06785 0.03309
 C267 C 1.18394 1.05610 0.01793
 C268 C 1.12382 1.08022 0.00765
 C269 C 1.11709 1.14450 0.01164
 C270 C 1.16396 1.18155 0.02668
 H271 H 1.26034 1.24165 0.05851
 H272 H 1.30134 1.01933 0.02706
 H273 H 1.19353 1.00996 0.02956
 H274 H 1.15458 1.23030 0.03072
 H275 H 1.38536 1.08499 0.04593
 H276 H 1.07545 1.16852 0.00357
 C277 C 0.67619 1.12799 -0.09117
 C278 C 0.66486 1.17721 -0.05156
 C279 C 0.70516 1.18611 -0.00288
 C280 C 0.75751 1.14799 0.00430
 C281 C 0.76611 1.09625 -0.03263
 C282 C 0.72496 1.08627 -0.08016
 C283 C 0.81822 1.05792 -0.02477
 C284 C 0.86876 1.07626 0.00993
 C285 C 0.85824 1.12883 0.04606
 C286 C 0.80299 1.16246 0.04538
 H287 H 0.69739 1.22472 0.02722
 H288 H 0.73175 1.04748 -0.11014
 H289 H 0.82209 1.01877 -0.05400
 H290 H 0.79785 1.20286 0.07349
 H291 H 0.64533 1.11976 -0.12845
 H292 H 0.89293 1.14790 0.07234
 C293 C 1.31977 0.86743 -0.10145
 C294 C 1.33978 0.82779 -0.05462
 C295 C 1.30455 0.82624 -0.00254
 C296 C 1.24905 0.86054 0.00046
 C297 C 1.23045 0.89945 -0.04700
 C298 C 1.26673 0.90379 -0.09697
 C299 C 1.17572 0.93385 -0.04404
 C300 C 1.13393 0.92559 0.00148
 C301 C 1.15591 0.89054 0.05092
 C302 C 1.21203 0.85787 0.05033
 H303 H 1.31839 0.79616 0.03411
 H304 H 1.25334 0.93430 -0.13343
 H305 H 1.16868 0.97135 -0.07445
 H306 H 1.22618 0.83032 0.08876
 H307 H 1.34637 0.87242 -0.14106
 H308 H 1.13041 0.88859 0.09052
 C309 C 0.69841 0.87174 0.10740
 C310 C 0.68061 0.83163 0.06119
 C311 C 0.71393 0.82966 0.00732
 C312 C 0.76490 0.86472 0.00153
 C313 C 0.78072 0.90451 0.04820
 C314 C 0.74673 0.90860 0.10037
 C315 C 0.83068 0.93981 0.04256
 C316 C 0.87269 0.93014 -0.00384
 C317 C 0.85221 0.89545 -0.05313
 C318 C 0.79986 0.86231 -0.05036
 H319 H 0.70226 0.79890 -0.02892
 H320 H 0.75834 0.93952 0.13653
 H321 H 0.83365 0.97722 0.07332
 H322 H 0.78717 0.83446 -0.08854
 H323 H 0.67330 0.87717 0.14837
 H324 H 0.87628 0.89389 -0.09389
 C325 C 0.82588 0.55085 0.37965
 C326 C 0.81352 0.56202 0.31823
 C327 C 0.75600 0.55077 0.29427
 C328 C 0.71171 0.52877 0.33160
 C329 C 0.72414 0.52016 0.39337
 C330 C 0.78161 0.53091 0.41691
 C331 C 0.67825 0.50411 0.43159
 C332 C 0.61801 0.49933 0.41085
 C333 C 0.60959 0.50001 0.34727
 C334 C 0.65504 0.51530 0.30860
 H335 H 0.74669 0.55641 0.24652
 H336 H 0.79230 0.52413 0.46424
 H337 H 0.68908 0.50489 0.47895
 H338 H 0.64457 0.51992 0.26099
 H339 H 0.87046 0.55723 0.39875
 H340 H 0.56596 0.49678 0.32620
 C341 C 0.18538 0.53544 0.30993
 C342 C 0.17382 0.47345 0.30031
 C343 C 0.21727 0.42904 0.32002
 C344 C 0.26919 0.44608 0.35126
 C345 C 0.27705 0.50750 0.36618
 C346 C 0.23545 0.55216 0.34389
 C347 C 0.32707 0.52358 0.40166
 C348 C 0.37232 0.47991 0.42099
 C349 C 0.36522 0.41978 0.39785
 C350 C 0.31417 0.40269 0.36649
 H351 H 0.21046 0.38118 0.31254
 H352 H 0.24170 0.60000 0.35246
 H353 H 0.33176 0.57117 0.40855
 H354 H 0.31082 0.35548 0.35300
 H355 H 0.15535 0.57158 0.29206
 H356 H 0.39943 0.38361 0.40433
 C357 C 0.79199 0.39502 0.67878
 C358 C 0.81939 0.44951 0.69365
 C359 C 0.79102 0.50548 0.67616
 C360 C 0.73522 0.50653 0.64522
 C361 C 0.70726 0.45167 0.63375
 C362 C 0.73571 0.39618 0.65069
 C363 C 0.65158 0.45244 0.60411
 C364 C 0.62590 0.50493 0.57650
 C365 C 0.65085 0.56026 0.59467
 C366 C 0.70539 0.56115 0.62735
 H367 H 0.81155 0.54776 0.68747
 H368 H 0.71499 0.35356 0.64118
 H369 H 0.63037 0.41042 0.60024
 H370 H 0.72361 0.60444 0.63926
 H371 H 0.81384 0.35111 0.68949
 H372 H 0.62679 0.60336 0.58850
 C373 C 0.21475 0.44945 0.71455
 C374 C 0.19684 0.51206 0.72217
 C375 C 0.23764 0.55451 0.70508
 C376 C 0.29120 0.53610 0.67682
 C377 C 0.30611 0.47450 0.66341
 C378 C 0.26853 0.43097 0.68526
 C379 C 0.35674 0.45884 0.62677
 C380 C 0.38780 0.50503 0.59752
 C381 C 0.37562 0.56382 0.62182
 C382 C 0.32895 0.57967 0.65941
 H383 H 0.22653 0.60278 0.70945
 H384 H 0.27931 0.38292 0.67765
 H385 H 0.37078 0.41144 0.62160
 H386 H 0.31984 0.62731 0.67088
 H387 H 0.18692 0.41422 0.72972
 H388 H 0.39570 0.60163 0.60498
 C389 C 0.60780 0.69570 0.23497
 C390 C 0.55809 0.70610 0.19482
 C391 C 0.50169 0.68513 0.21221
 C392 C 0.49630 0.65365 0.26690
 C393 C 0.54627 0.64585 0.30614
 C394 C 0.60159 0.66770 0.29021
 C395 C 0.54169 0.61344 0.35961
 C396 C 0.49022 0.58203 0.37461
 C397 C 0.43997 0.59298 0.33517
 C398 C 0.44255 0.62819 0.28281
 H399 H 0.46202 0.69232 0.18352
 H400 H 0.64103 0.66084 0.31953
 H401 H 0.58194 0.60817 0.38592
 H402 H 0.40282 0.63365 0.25373
 H403 H 0.65269 0.70737 0.22374
 H404 H 0.39847 0.57353 0.34216
 C405 C 0.46028 0.74909 0.76009
 C406 C 0.48200 0.71595 0.81073
 C407 C 0.51320 0.65918 0.80155
 C408 C 0.51796 0.63410 0.74321
 C409 C 0.49173 0.66576 0.69376
 C410 C 0.46462 0.72412 0.70238
 C411 C 0.48967 0.63754 0.63690
 C412 C 0.51161 0.57673 0.62692
 C413 C 0.54420 0.54965 0.67637
 C414 C 0.54621 0.57680 0.73345
 H415 H 0.53058 0.63299 0.83978
 H416 H 0.44510 0.74977 0.66468
 H417 H 0.46307 0.66141 0.60363
 H418 H 0.56875 0.55211 0.77023
 H419 H 0.43816 0.79390 0.76519
 H420 H 0.56743 0.50583 0.67275
 C421 C 0.39218 0.37316 0.18547
 C422 C 0.43301 0.32347 0.17544
 C423 C 0.48340 0.31337 0.21412
 C424 C 0.49232 0.35204 0.26340
 C425 C 0.45177 0.40234 0.27284
 C426 C 0.40202 0.41305 0.23347
 C427 C 0.46026 0.43993 0.32291
 C428 C 0.50107 0.42283 0.37026
 C429 C 0.54686 0.37875 0.35439
 C430 C 0.54184 0.34261 0.30268
 H431 H 0.51531 0.27524 0.20586
 H432 H 0.37020 0.45148 0.24053
 H433 H 0.43048 0.47930 0.32666
 H434 H 0.57665 0.30747 0.29355
 H435 H 0.35371 0.38183 0.15532
 H436 H 0.58889 0.37402 0.37883
 C437 C 0.49291 0.37713 0.83777
 C438 C 0.52453 0.31993 0.83174
 C439 C 0.54112 0.30002 0.77429
 C440 C 0.52841 0.33695 0.72424
 C441 C 0.49720 0.39417 0.73012
 C442 C 0.47887 0.41361 0.78740
 C443 C 0.48675 0.43141 0.67900
 C444 C 0.51161 0.41484 0.62251
 C445 C 0.53981 0.35582 0.61948
 C446 C 0.54785 0.31766 0.66836
 H447 H 0.56423 0.25574 0.76833
 H448 H 0.45513 0.45754 0.79349
 H449 H 0.46209 0.47453 0.68492
 H450 H 0.57156 0.27361 0.66254
 H451 H 0.47995 0.39433 0.88162
 H452 H 0.55936 0.33779 0.58042
 C453 C 0.73108 0.74334 0.43006
 C454 C 0.70016 0.79913 0.44406
 C455 C 0.64378 0.79892 0.47150
 C456 C 0.61797 0.74385 0.48248
 C457 C 0.65018 0.68875 0.47027
 C458 C 0.70707 0.68870 0.44483
 C459 C 0.62442 0.63412 0.48210
 C460 C 0.56374 0.63047 0.49723
 C461 C 0.53397 0.68697 0.51143
 C462 C 0.56028 0.74252 0.50496
 H463 H 0.61853 0.84137 0.48117
 H464 H 0.73228 0.64653 0.43488
 H465 H 0.65266 0.59499 0.47981
 H466 H 0.53449 0.78440 0.51554
 H467 H 0.77521 0.74183 0.41023
 H468 H 0.48966 0.69097 0.52630
 C469 C 0.62239 0.15376 0.50263
 C470 C 0.68116 0.15940 0.52707
 C471 C 0.70427 0.21735 0.52975
 C472 C 0.66880 0.26860 0.50968
 C473 C 0.60945 0.26283 0.48722
 C474 C 0.58752 0.20465 0.48188
 C475 C 0.57268 0.31567 0.47282
 C476 C 0.59160 0.37446 0.48806
 C477 C 0.65447 0.37698 0.49728
 C478 C 0.69211 0.32574 0.50999
 H479 H 0.75018 0.22234 0.54593
 H480 H 0.54340 0.19854 0.46197
 H481 H 0.52899 0.31094 0.45169
 H482 H 0.73888 0.33141 0.52277
 H483 H 0.60370 0.10945 0.49862
 H484 H 0.67539 0.41831 0.50194
 C485 C 0.34900 0.82963 0.47802
 C486 C 0.29700 0.82342 0.51279
 C487 C 0.27993 0.76433 0.52504
 C488 C 0.31535 0.71346 0.50595
 C489 C 0.36856 0.72061 0.47407
 C490 C 0.38391 0.77888 0.45853
 C491 C 0.40767 0.66965 0.46230
 C492 C 0.40001 0.61445 0.49175
 C493 C 0.34003 0.60609 0.50938
 C494 C 0.29893 0.65506 0.51858
 H495 H 0.23895 0.75741 0.54884
 H496 H 0.42472 0.78546 0.43424
 H497 H 0.44712 0.67561 0.43616
 H498 H 0.25575 0.64732 0.53793
 H499 H 0.36549 0.87380 0.46865
 H500 H 0.32478 0.56144 0.51821
 C501 C 0.37788 0.16119 0.49087
 C502 C 0.31764 0.17760 0.47453
 C503 C 0.29665 0.23850 0.47964
 C504 C 0.33635 0.28298 0.49784
 C505 C 0.39787 0.26724 0.50950
 C506 C 0.41754 0.20557 0.50867
 C507 C 0.43866 0.31346 0.52011
 C508 C 0.42023 0.37565 0.51363
 C509 C 0.35649 0.38793 0.51477
 C510 C 0.31554 0.34304 0.50545
 H511 H 0.24953 0.25103 0.46992
 H512 H 0.46348 0.19163 0.52124
 H513 H 0.48365 0.29939 0.53293
 H514 H 0.26789 0.35610 0.50071
 H515 H 0.39422 0.11388 0.48954
 H516 H 0.33673 0.43377 0.51585
   
