data_POSCAR
  _audit_creation_date              2014-09-24
  _audit_creation_method            'ToBaCCo'
  _symmetry_space_group_name_H-M    'P1'
  _symmetry_Int_Tables_number       1
  _symmetry_cell_setting            triclinic
  loop_
  _symmetry_equiv_pos_as_xyz
 x,y,z
_cell_length_a 18.0306
_cell_length_b 17.7728
_cell_length_c 30.6109
_cell_angle_alpha 79.836900
_cell_angle_beta 94.941800
_cell_angle_gamma 86.004900
loop_
  _atom_site_label
  _atom_site_type_symbol
  _atom_site_fract_x
  _atom_site_fract_y
  _atom_site_fract_z
O1 O -0.05691 0.59687 0.94393
 O2 O -0.09623 0.42664 1.02367
 O3 O -0.09277 0.57335 1.02518
 O4 O -0.05650 0.44959 0.94265
 O5 O 0.06211 0.43143 0.96951
 O6 O 0.02648 0.55457 1.05092
 O7 O 0.02230 0.41028 1.05052
 O8 O 0.06211 0.57811 0.96997
 Cu9 Cu -0.08758 0.51322 0.98116
 Cu10 Cu 0.05516 0.49152 1.01265
 C11 C 0.00927 0.61714 0.94369
 C12 C -0.04376 0.38962 1.05116
 C13 C -0.03882 0.58530 1.05201
 C14 C 0.00931 0.41913 0.94216
 O15 O 0.59474 -0.06719 0.55651
 O16 O 0.45022 -0.09437 0.47123
 O17 O 0.59231 -0.07605 0.47237
 O18 O 0.45094 -0.07193 0.55255
 O19 O 0.43442 0.05413 0.53302
 O20 O 0.56846 0.04879 0.44978
 O21 O 0.42503 0.03080 0.45105
 O22 O 0.57885 0.05816 0.53416
 Cu23 Cu 0.52420 -0.08975 0.51522
 Cu24 Cu 0.49972 0.06050 0.48976
 C25 C 0.61260 -0.00061 0.56004
 C26 C 0.41163 -0.03731 0.44718
 C27 C 0.60432 -0.01397 0.44718
 C28 C 0.41893 -0.00778 0.55662
 C29 C -0.01552 -0.13401 0.22953
 C30 C -0.07637 -0.14204 0.26139
 C31 C -0.08386 -0.08404 0.28474
 C32 C -0.02923 -0.02205 0.27393
 C33 C -0.03418 -0.05469 0.20004
 C34 C -0.04089 0.00383 0.22297
 C35 C 0.05579 -0.12403 0.25887
 C36 C 0.04868 -0.06629 0.28274
 H37 H -0.11081 -0.18990 0.26486
 H38 H -0.03643 0.02567 0.29253
 H39 H -0.03180 -0.04466 0.16424
 H40 H 0.10938 -0.15414 0.25758
 C41 C 0.10127 0.07800 0.71357
 C42 C 0.09472 0.00424 0.74730
 C43 C 0.03153 0.00413 0.76865
 C44 C -0.01944 0.07923 0.75486
 C45 C 0.02850 0.08959 0.68264
 C46 C -0.03419 0.09023 0.70403
 C47 C 0.09481 0.14147 0.74169
 C48 C 0.03149 0.14243 0.76318
 H49 H 0.13679 -0.04387 0.75357
 H50 H -0.07103 0.07989 0.77213
 H51 H 0.02685 0.09279 0.64688
 H52 H 0.13725 0.18053 0.74550
 C53 C -0.11349 -0.30976 0.07817
 C54 C -0.05075 -0.36342 0.08432
 C55 C 0.00340 -0.36517 0.12046
 C56 C -0.00332 -0.31222 0.14906
 C57 C -0.06496 -0.25650 0.14165
 C58 C -0.12048 -0.25656 0.10658
 C59 C -0.06910 -0.20076 0.16882
 C60 C -0.01171 -0.19883 0.20289
 C61 C 0.04682 -0.25798 0.21150
 C62 C 0.05130 -0.31347 0.18459
 H63 H 0.05160 -0.40694 0.12591
 H64 H -0.16844 -0.21452 0.10056
 H65 H -0.11612 -0.15753 0.16279
 H66 H 0.09797 -0.35710 0.19138
 H67 H -0.15597 -0.30737 0.05059
 H68 H 0.08954 -0.26257 0.23898
 C69 C -0.12834 0.29483 0.07998
 C70 C -0.05822 0.32523 0.08211
 C71 C -0.00199 0.28888 0.11550
 C72 C -0.01455 0.22242 0.14512
 C73 C -0.08394 0.19050 0.14124
 C74 C -0.14079 0.22779 0.10900
 C75 C -0.09421 0.12061 0.16872
 C76 C -0.03618 0.08318 0.20021
 C77 C 0.03141 0.11677 0.20493
 C78 C 0.04216 0.18598 0.17770
 H79 H 0.05210 0.31171 0.11835
 H80 H -0.19453 0.20449 0.10575
 H81 H -0.14604 0.09396 0.16465
 H82 H 0.09572 0.20962 0.18110
 H83 H -0.17314 0.32148 0.05501
 H84 H 0.07754 0.08725 0.22788
 C85 C 0.32623 -0.07084 0.60379
 C86 C 0.36212 -0.00503 0.58843
 C87 C 0.34151 0.06410 0.60246
 C88 C 0.28502 0.06763 0.63103
 C89 C 0.24805 0.00159 0.64525
 C90 C 0.26930 -0.06744 0.63170
 C91 C 0.18959 0.00576 0.67222
 C92 C 0.16881 0.07427 0.68706
 C93 C 0.20589 0.13987 0.67232
 C94 C 0.26364 0.13643 0.64481
 H95 H 0.36914 0.11516 0.59100
 H96 H 0.24156 -0.11870 0.64245
 H97 H 0.15925 -0.04438 0.68088
 H98 H 0.29080 0.18794 0.63375
 H99 H 0.34095 -0.12461 0.59335
 H100 H 0.18919 0.19467 0.68076
 C101 C -0.29597 -0.05857 0.62235
 C102 C -0.32928 0.00690 0.59227
 C103 C -0.30133 0.07849 0.59435
 C104 C -0.23895 0.08361 0.62426
 C105 C -0.20559 0.01690 0.65349
 C106 C -0.23531 -0.05346 0.65278
 C107 C -0.14107 0.02089 0.68165
 C108 C -0.10827 0.09020 0.68014
 C109 C -0.14177 0.15661 0.65166
 C110 C -0.20734 0.15362 0.62427
 H111 H -0.32593 0.12966 0.57160
 H112 H -0.21043 -0.10505 0.67501
 H113 H -0.11388 -0.03072 0.70286
 H114 H -0.23182 0.20535 0.60204
 H115 H -0.31620 -0.11452 0.62223
 H116 H -0.11613 0.21026 0.64995
 C117 C 0.09908 -0.29340 0.91038
 C118 C 0.02509 -0.31271 0.91314
 C119 C -0.03341 -0.26359 0.88735
 C120 C -0.01812 -0.19626 0.85918
 C121 C 0.05654 -0.17792 0.85661
 C122 C 0.11465 -0.22672 0.88239
 C123 C 0.07208 -0.11141 0.82804
 C124 C 0.01412 -0.06298 0.80133
 C125 C -0.06011 -0.08086 0.80486
 C126 C -0.07609 -0.14693 0.83347
 H127 H -0.09078 -0.27742 0.88933
 H128 H 0.17222 -0.21343 0.88083
 H129 H 0.12950 -0.09754 0.82670
 H130 H -0.13374 -0.15990 0.83509
 H131 H 0.14520 -0.32995 0.92990
 H132 H -0.10592 -0.04501 0.78469
 C133 C 0.09901 0.33921 0.90756
 C134 C 0.02516 0.36840 0.90987
 C135 C -0.03283 0.34772 0.88170
 C136 C -0.01726 0.29801 0.85202
 C137 C 0.05723 0.26905 0.85022
 C138 C 0.11488 0.29017 0.87802
 C139 C 0.07288 0.21891 0.82093
 C140 C 0.01503 0.19680 0.79338
 C141 C -0.05884 0.22592 0.79536
 C142 C -0.07486 0.27621 0.82433
 H143 H -0.09004 0.36956 0.88315
 H144 H 0.17229 0.26847 0.87708
 H145 H 0.12997 0.19586 0.82034
 H146 H -0.13230 0.29791 0.82513
 H147 H 0.14484 0.35414 0.92875
 H148 H -0.10427 0.21055 0.77407
 C149 C -0.32466 0.05448 0.38754
 C150 C -0.33915 -0.01434 0.41477
 C151 C -0.29874 -0.08310 0.41103
 C152 C -0.24492 -0.08319 0.38050
 C153 C -0.23085 -0.01366 0.35334
 C154 C -0.27103 0.05483 0.35717
 C155 C -0.17734 -0.01393 0.32257
 C156 C -0.13831 -0.08301 0.31827
 C157 C -0.15243 -0.15170 0.34571
 C158 C -0.20510 -0.15179 0.37656
 H159 H -0.30917 -0.13660 0.43178
 H160 H -0.26111 0.10868 0.33663
 H161 H -0.16749 0.03922 0.30127
 H162 H -0.21486 -0.20559 0.39722
 H163 H -0.35476 0.10836 0.38973
 H164 H -0.12222 -0.20553 0.34354
 C165 C 0.34528 -0.12657 0.40639
 C166 C 0.35005 -0.05196 0.41532
 C167 C 0.29399 0.00604 0.39547
 C168 C 0.23327 -0.01096 0.36781
 C169 C 0.22918 -0.08641 0.35960
 C170 C 0.28562 -0.14358 0.37882
 C171 C 0.16857 -0.10392 0.33248
 C172 C 0.11157 -0.04699 0.31261
 C173 C 0.11568 0.02781 0.32149
 C174 C 0.17599 0.04567 0.34867
 H175 H 0.29668 0.06365 0.40230
 H176 H 0.28341 -0.20170 0.37278
 H177 H 0.16564 -0.16249 0.32745
 H178 H 0.17784 0.10385 0.35465
 H179 H 0.38763 -0.17239 0.42106
 H180 H 0.07316 0.07331 0.30698
   
