data_POSCAR
  _audit_creation_date              2014-09-24
  _audit_creation_method            'ToBaCCo'
  _symmetry_space_group_name_H-M    'P1'
  _symmetry_Int_Tables_number       1
  _symmetry_cell_setting            triclinic
  loop_
  _symmetry_equiv_pos_as_xyz
 x,y,z
_cell_length_a 36.1485
_cell_length_b 35.3350
_cell_length_c 13.3726
_cell_angle_alpha 90.132600
_cell_angle_beta 89.998600
_cell_angle_gamma 122.181000
loop_
  _atom_site_label
  _atom_site_type_symbol
  _atom_site_fract_x
  _atom_site_fract_y
  _atom_site_fract_z
C1 C 0.12759 0.44616 0.38824
 C2 C 0.11842 0.46304 0.47366
 C3 C 0.14465 0.47603 0.55997
 C4 C 0.17954 0.46811 0.56335
 C5 C 0.18684 0.44787 0.48009
 C6 C 0.15825 0.43321 0.39713
 C7 C 0.16049 0.40490 0.32666
 C8 C 0.19623 0.40021 0.32432
 C9 C 0.23017 0.42279 0.39397
 C10 C 0.22328 0.44273 0.47834
 C11 C 0.20514 0.47599 0.64943
 C12 C 0.24110 0.47121 0.64759
 C13 C 0.25283 0.45794 0.55980
 C14 C 0.29095 0.45571 0.55306
 C15 C 0.29834 0.43874 0.46542
 C16 C 0.27007 0.42483 0.38323
 H17 H 0.13508 0.38719 0.27110
 H18 H 0.19729 0.37907 0.26716
 H19 H 0.19700 0.48455 0.72015
 H20 H 0.25871 0.47679 0.71683
 H21 H 0.09412 0.47181 0.46912
 H22 H 0.32906 0.44072 0.45785
 C23 C 0.52924 -0.32924 0.58640
 C24 C 0.53051 -0.34731 0.49326
 C25 C 0.53058 -0.32676 0.40271
 C26 C 0.53866 -0.28290 0.40773
 C27 C 0.53163 -0.26726 0.49833
 C28 C 0.52416 -0.29206 0.58701
 C29 C 0.50896 -0.28073 0.67128
 C30 C 0.50500 -0.24366 0.67028
 C31 C 0.51887 -0.21443 0.58747
 C32 C 0.53029 -0.22772 0.49895
 C33 C 0.55417 -0.25396 0.32522
 C34 C 0.55513 -0.21410 0.32701
 C35 C 0.53909 -0.20260 0.41004
 C36 C 0.53187 -0.16685 0.40659
 C37 C 0.52235 -0.15271 0.49663
 C38 C 0.51854 -0.17426 0.58869
 H39 H 0.49766 -0.30177 0.73692
 H40 H 0.48979 -0.23898 0.73470
 H41 H 0.56536 -0.26229 0.25843
 H42 H 0.56797 -0.19281 0.26199
 H43 H 0.52908 -0.37867 0.49204
 H44 H 0.51916 -0.12394 0.49511
 C45 C 1.15459 0.72846 0.61602
 C46 C 1.13759 0.70685 0.52280
 C47 C 1.15888 0.72638 0.43242
 C48 C 1.19597 0.77035 0.43449
 C49 C 1.21696 0.79006 0.52649
 C50 C 1.19707 0.76852 0.61759
 C51 C 1.22259 0.78487 0.70530
 C52 C 1.26419 0.82375 0.70491
 C53 C 1.28287 0.84829 0.61660
 C54 C 1.25966 0.82953 0.52608
 C55 C 1.21347 0.79480 0.34616
 C56 C 1.25486 0.83324 0.34598
 C57 C 1.28025 0.84780 0.43377
 C58 C 1.32568 0.87957 0.43062
 C59 C 1.34722 0.90151 0.51988
 C60 C 1.32598 0.88774 0.61388
 H61 H 1.21229 0.76617 0.77422
 H62 H 1.28265 0.83214 0.77364
 H63 H 1.19592 0.78344 0.27594
 H64 H 1.26779 0.85033 0.27552
 H65 H 1.10758 0.67435 0.51969
 H66 H 1.38124 0.92830 0.51629
 C67 C 0.65572 0.48999 0.57727
 C68 C 0.63851 0.49254 0.48581
 C69 C 0.66166 0.50192 0.39657
 C70 C 0.70338 0.50740 0.39680
 C71 C 0.72165 0.50467 0.48849
 C72 C 0.69709 0.49403 0.57817
 C73 C 0.71324 0.48444 0.66387
 C74 C 0.75494 0.49136 0.66556
 C75 C 0.78235 0.50794 0.58139
 C76 C 0.76432 0.51183 0.49015
 C77 C 0.72641 0.51330 0.30775
 C78 C 0.76812 0.52045 0.30934
 C79 C 0.78841 0.52178 0.40002
 C80 C 0.83125 0.53036 0.40289
 C81 C 0.84869 0.52719 0.49303
 C82 C 0.82579 0.51698 0.58294
 H83 H 0.69326 0.47005 0.72982
 H84 H 0.76476 0.48203 0.73275
 H85 H 0.71209 0.51132 0.23551
 H86 H 0.78369 0.52370 0.23818
 H87 H 0.60791 0.49124 0.48447
 H88 H 0.88239 0.53613 0.49358
 C89 C 0.43243 0.28106 0.41664
 C90 C 0.41995 0.29314 0.50424
 C91 C 0.42206 0.27664 0.59802
 C92 C 0.43615 0.24615 0.60420
 C93 C 0.45044 0.23493 0.51659
 C94 C 0.44916 0.25298 0.42288
 C95 C 0.46567 0.24337 0.33803
 C96 C 0.48057 0.21462 0.34345
 C97 C 0.48140 0.19562 0.43477
 C98 C 0.46648 0.20589 0.52252
 C99 C 0.43493 0.22538 0.69455
 C100 C 0.44896 0.19545 0.69939
 C101 C 0.46755 0.18723 0.61574
 C102 C 0.48503 0.15917 0.62061
 C103 C 0.49638 0.14712 0.53081
 C104 C 0.49621 0.16607 0.43975
 H105 H 0.46780 0.25814 0.26605
 H106 H 0.49122 0.20733 0.27449
 H107 H 0.42197 0.23121 0.76180
 H108 H 0.44396 0.17803 0.76918
 H109 H 0.40872 0.31608 0.49942
 H110 H 0.51004 0.12629 0.53173
 C111 C 0.72947 0.13933 0.43475
 C112 C 0.71680 0.11722 0.52624
 C113 C 0.73428 0.14003 0.61610
 C114 C 0.76701 0.18609 0.61480
 C115 C 0.78110 0.20896 0.52218
 C116 C 0.76103 0.18582 0.43207
 C117 C 0.77118 0.21031 0.34294
 C118 C 0.80247 0.25581 0.34113
 C119 C 0.82604 0.27869 0.42763
 C120 C 0.81420 0.25534 0.51990
 C121 C 0.78525 0.21004 0.70353
 C122 C 0.81760 0.25528 0.70132
 C123 C 0.83442 0.27829 0.61015
 C124 C 0.86829 0.32436 0.60733
 C125 C 0.87897 0.34712 0.51489
 C126 C 0.85958 0.32466 0.42463
 H127 H 0.75422 0.19501 0.27382
 H128 H 0.80713 0.27291 0.27099
 H129 H 0.77444 0.19408 0.77577
 H130 H 0.82807 0.27209 0.77270
 H131 H 0.69143 0.08193 0.52770
 H132 H 0.90523 0.38199 0.51180
 O133 O 0.96063 0.51494 -0.21847
 O134 O 1.04202 0.58511 0.19035
 O135 O 0.94086 0.54408 0.06947
 O136 O 1.08727 0.60554 -0.07791
 O137 O 0.96113 0.52900 0.20470
 O138 O 1.02704 0.58584 -0.15280
 O139 O 1.09494 0.59138 0.09868
 O140 O 0.94895 0.54204 -0.09541
 C141 C 0.93905 0.52950 -0.18208
 C142 C 1.08141 0.60626 0.16635
 C143 C 0.94072 0.54326 0.16079
 C144 C 1.06529 0.61520 -0.13224
 O145 O 1.04226 0.53483 -0.25528
 O146 O 0.97383 0.46458 0.18507
 O147 O 0.92819 0.45385 -0.08908
 O148 O 1.07271 0.50734 0.04390
 O149 O 1.05463 0.51843 0.18834
 O150 O 0.99066 0.46880 -0.14892
 O151 O 1.06940 0.52215 -0.12493
 O152 O 0.91956 0.45717 0.09472
 Co153 Co 1.00989 0.52780 -0.14451
 Co154 Co 1.00797 0.52484 0.17452
 Co155 Co 0.93959 0.50107 -0.00460
 Co156 Co 1.07485 0.55445 -0.01303
 O157 O 1.00614 0.52699 0.00945
 C158 C 1.07398 0.53252 -0.21650
 C159 C 0.93460 0.44235 0.15924
 C160 C 0.95068 0.44176 -0.13632
 C161 C 1.06896 0.50016 0.13462
 O162 O 0.42693 0.41163 -0.16015
 O163 O 0.41072 0.46041 0.17673
 O164 O 0.48655 0.40406 0.08351
 O165 O 0.40356 0.46607 -0.13839
 O166 O 0.43655 0.40740 0.16864
 O167 O 0.44338 0.47764 -0.26883
 O168 O 0.38171 0.45147 0.03168
 O169 O 0.47594 0.40020 -0.09895
 C170 C 0.44039 0.38594 -0.14626
 C171 C 0.37752 0.44657 0.12324
 C172 C 0.45476 0.38715 0.14431
 C173 C 0.41136 0.47882 -0.22834
 O174 O 0.50935 0.53008 -0.16675
 O175 O 0.51627 0.47251 0.19505
 O176 O 0.54422 0.49026 -0.10271
 O177 O 0.44713 0.53508 0.08627
 O178 O 0.49221 0.52736 0.18108
 O179 O 0.50603 0.46071 -0.22733
 O180 O 0.46980 0.54962 -0.09056
 O181 O 0.55308 0.49280 0.06131
 Co182 Co 0.46767 0.47114 -0.15669
 Co183 Co 0.46457 0.46751 0.16269
 Co184 Co 0.51151 0.44832 -0.01387
 Co185 Co 0.42928 0.49827 -0.02559
 O186 O 0.46984 0.47132 -0.00208
 C187 C 0.50088 0.55906 -0.14788
 C188 C 0.55229 0.49128 0.15254
 C189 C 0.54292 0.47860 -0.18936
 C190 C 0.47631 0.54959 0.15362
 O191 O 0.59178 0.02540 -0.12578
 O192 O 0.52619 -0.03958 0.19339
 O193 O 0.62201 0.07888 0.08159
 O194 O 0.46565 -0.09946 -0.08585
 O195 O 0.57922 0.04379 0.21229
 O196 O 0.53089 -0.04695 -0.13402
 O197 O 0.52314 -0.06852 0.04658
 O198 O 0.60968 0.09119 -0.10002
 C199 C 0.62002 0.06517 -0.13062
 C200 C 0.52962 -0.06707 0.13973
 C201 C 0.61708 0.06606 0.17138
 C202 C 0.49816 -0.08629 -0.14762
 O203 O 0.47794 -0.01642 -0.17673
 O204 O 0.50866 0.05271 0.18541
 O205 O 0.54697 0.10049 -0.04140
 O206 O 0.45069 -0.08307 0.10153
 O207 O 0.46058 -0.02377 0.16518
 O208 O 0.53847 0.06042 -0.17448
 O209 O 0.44320 -0.04283 -0.04099
 O210 O 0.57092 0.10430 0.13443
 Co211 Co 0.53477 0.00698 -0.13889
 Co212 Co 0.51974 0.00857 0.17516
 Co213 Co 0.58183 0.08600 0.01762
 Co214 Co 0.48618 -0.05179 -0.00243
 O215 O 0.53041 0.01467 0.01845
 C216 C 0.44271 -0.03407 -0.13037
 C217 C 0.53716 0.09265 0.18174
 C218 C 0.53486 0.09024 -0.12978
 C219 C 0.43889 -0.06512 0.16225
 N220 N 1.11581 0.46909 0.13354
 N221 N 1.13293 0.45437 0.20582
 C222 C 1.11235 0.45036 0.29361
 C223 C 1.08177 0.46234 0.27745
 C224 C 1.08611 0.47495 0.17864
 H225 H 1.06135 0.46565 0.33126
 H226 H 1.12868 0.47963 0.06185
 H227 H 1.16218 0.45572 0.19490
 N228 N 0.48106 0.62185 0.16794
 N229 N 0.49717 0.65681 0.23658
 C230 C 0.51667 0.64832 0.31224
 C231 C 0.51310 0.60767 0.29257
 C232 C 0.49068 0.59246 0.20240
 H233 H 0.52370 0.59019 0.33911
 H234 H 0.46303 0.61870 0.10399
 H235 H 0.48915 0.68112 0.23428
 N236 N 0.37021 -0.13494 0.20496
 N237 N 0.33856 -0.14999 0.27912
 C238 C 0.34974 -0.11575 0.34302
 C239 C 0.38915 -0.07848 0.31165
 C240 C 0.40015 -0.09188 0.22439
 H241 H 0.40736 -0.04589 0.34686
 H242 H 0.37027 -0.15437 0.14607
 H243 H 0.31328 -0.18339 0.28698
 N244 N 0.89711 0.57835 0.18306
 N245 N 0.86657 0.57371 0.24538
 C246 C 0.86018 0.54330 0.31518
 C247 C 0.88870 0.52926 0.29855
 C248 C 0.91139 0.55219 0.21495
 H249 H 0.89157 0.50461 0.33986
 H250 H 0.90778 0.59895 0.12010
 H251 H 0.85127 0.59172 0.24082
 N252 N 0.41976 0.30477 0.16151
 N253 N 0.41184 0.27652 0.23521
 C254 C 0.42976 0.30006 0.32021
 C255 C 0.44890 0.34501 0.30037
 C256 C 0.44245 0.34650 0.19899
 H257 H 0.46620 0.37284 0.35175
 H258 H 0.40929 0.29551 0.08771
 H259 H 0.39488 0.24180 0.22697
 N260 N 0.69553 0.09270 0.18964
 N261 N 0.72581 0.11270 0.25949
 C262 C 0.70633 0.11327 0.34478
 C263 C 0.66170 0.09147 0.32984
 C264 C 0.65635 0.07967 0.23004
 H265 H 0.63744 0.08936 0.38097
 H266 H 0.70201 0.09030 0.11454
 H267 H 0.75932 0.12773 0.24730
 N268 N 0.52331 0.15302 -0.13686
 N269 N 0.50884 0.17205 -0.20501
 C270 C 0.49604 0.14676 -0.28875
 C271 C 0.50305 0.11160 -0.27541
 C272 C 0.52011 0.11695 -0.18006
 H273 H 0.49723 0.08574 -0.32824
 H274 H 0.53643 0.16646 -0.06659
 H275 H 0.51417 0.20394 -0.19604
 N276 N 0.62158 0.50778 -0.18675
 N277 N 0.65314 0.50968 -0.24954
 C278 C 0.63315 0.48867 -0.33547
 C279 C 0.58854 0.47330 -0.32876
 C280 C 0.58304 0.48619 -0.23536
 H281 H 0.56332 0.45553 -0.38460
 H282 H 0.62780 0.52214 -0.11552
 H283 H 0.68667 0.52979 -0.23575
 N284 N 0.92869 0.36273 -0.16214
 N285 N 0.90571 0.33000 -0.23499
 C286 C 0.89272 0.34754 -0.30648
 C287 C 0.90796 0.39174 -0.28190
 C288 C 0.92909 0.39933 -0.19061
 H289 H 0.90335 0.41517 -0.32354
 H290 H 0.94299 0.35896 -0.09816
 H291 H 0.90225 0.29871 -0.23559
 N292 N 0.52562 -0.13624 -0.15879
 N293 N 0.53342 -0.15873 -0.23298
 C294 C 0.51635 -0.15511 -0.31974
 C295 C 0.49911 -0.12836 -0.30292
 C296 C 0.50446 -0.11864 -0.20088
 H297 H 0.48473 -0.11723 -0.35722
 H298 H 0.53768 -0.13107 -0.08582
 H299 H 0.55315 -0.17179 -0.22281
 N300 N 0.37397 0.51906 -0.26447
 N301 N 0.33810 0.51101 -0.32117
 C302 C 0.32425 0.47321 -0.37417
 C303 C 0.35139 0.45725 -0.35399
 C304 C 0.38138 0.48638 -0.28490
 H305 H 0.34843 0.42702 -0.38236
 H306 H 0.39177 0.54622 -0.21635
 H307 H 0.32763 0.53331 -0.32763
 N308 N 1.10678 0.69830 -0.13815
 N309 N 1.13298 0.73019 -0.20971
 C310 C 1.12976 0.70852 -0.29600
 C311 C 1.09941 0.66316 -0.28244
 C312 C 1.08652 0.65820 -0.18344
 H313 H 1.09143 0.63616 -0.33396
 H314 H 1.10609 0.70469 -0.06211
 H315 H 1.15035 0.76465 -0.19709
 N316 N 0.87870 0.54300 -0.17925
 N317 N 0.84540 0.53732 -0.24210
 C318 C 0.84904 0.52028 -0.32918
 C319 C 0.88468 0.51476 -0.32283
 C320 C 0.90216 0.52942 -0.22854
 H321 H 0.89668 0.50206 -0.37962
 H322 H 0.88430 0.55624 -0.10698
 H323 H 0.82582 0.55019 -0.22720
 N324 N 0.37817 0.32276 -0.23764
 N325 N 0.37329 0.29343 -0.30624
 C326 C 0.41056 0.29359 -0.31307
 C327 C 0.44042 0.32432 -0.24448
 C328 C 0.41875 0.34254 -0.19893
 H329 H 0.47500 0.33683 -0.24038
 H330 H 0.35541 0.33181 -0.22420
 H331 H 0.34621 0.27648 -0.35355
 N332 N 0.67561 0.05341 -0.20710
 N333 N 0.70734 0.07413 -0.27328
 C334 C 0.71407 0.11485 -0.29126
 C335 C 0.68560 0.12042 -0.23309
 C336 C 0.66137 0.08044 -0.18218
 H337 H 0.67882 0.14671 -0.23905
 H338 H 0.66178 0.02011 -0.18570
 H339 H 0.72132 0.05907 -0.31193
 N340 N 1.14942 0.55220 -0.25397
 N341 N 1.16899 0.53463 -0.31167
 C342 C 1.13744 0.50060 -0.36670
 C343 C 1.09765 0.49717 -0.34710
 C344 C 1.10656 0.52965 -0.27634
 H345 H 1.06567 0.47238 -0.37591
 H346 H 1.16574 0.57789 -0.20165
 H347 H 1.20273 0.54923 -0.31734
 N348 N 0.54298 0.64224 -0.16212
 N349 N 0.54967 0.67156 -0.23238
 C350 C 0.53189 0.64961 -0.31925
 C351 C 0.51486 0.60444 -0.30383
 C352 C 0.52244 0.60124 -0.20344
 H353 H 0.49606 0.57718 -0.35578
 H354 H 0.55117 0.65015 -0.08680
 H355 H 0.56547 0.70595 -0.21995
 N356 N 0.36290 -0.06302 -0.14109
 N357 N 0.33010 -0.08603 -0.21270
 C358 C 0.34891 -0.08800 -0.29842
 C359 C 0.39415 -0.06391 -0.28416
 C360 C 0.40139 -0.04993 -0.18474
 H361 H 0.41854 -0.06126 -0.33557
 H362 H 0.35755 -0.05981 -0.06566
 H363 H 0.29713 -0.09795 -0.20053
 N364 N 0.51730 -0.14287 0.15142
 N365 N 0.51511 -0.16975 0.22281
 C366 C 0.53128 -0.14636 0.30877
 C367 C 0.54306 -0.10251 0.29085
 C368 C 0.53401 -0.10166 0.18968
 H369 H 0.55412 -0.07571 0.34483
 H370 H 0.50394 -0.15367 0.08010
 H371 H 0.50017 -0.20424 0.21352
 N372 N 0.30437 0.43632 0.12636
 N373 N 0.27606 0.43137 0.19551
 C374 C 0.28693 0.42106 0.28366
 C375 C 0.32437 0.41973 0.26815
 C376 C 0.33473 0.43055 0.16866
 H377 H 0.34445 0.41640 0.32296
 H378 H 0.30538 0.44818 0.05428
 H379 H 0.25298 0.44005 0.18356
 N380 N 1.15632 0.66994 0.20461
 N381 N 1.17645 0.70080 0.27446
 C382 C 1.14666 0.69858 0.33922
 C383 C 1.10541 0.66369 0.30931
 C384 C 1.11315 0.64665 0.22310
 H385 H 1.07451 0.65137 0.34677
 H386 H 1.17229 0.66392 0.14751
 H387 H 1.21040 0.72159 0.27982
 N388 N 0.56157 0.16988 0.23431
 N389 N 0.55079 0.18930 0.30267
 C390 C 0.51559 0.15736 0.35272
 C391 C 0.50346 0.11581 0.31540
 C392 C 0.53339 0.12535 0.24017
 H393 H 0.47759 0.08335 0.34156
 H394 H 0.58832 0.18686 0.18628
 H395 H 0.56799 0.22369 0.31642
 N396 N 0.63261 0.53956 0.17778
 N397 N 0.66198 0.54159 0.24013
 C398 C 0.64127 0.50836 0.30753
 C399 C 0.59672 0.48524 0.28894
 C400 C 0.59274 0.50612 0.20681
 H401 H 0.57079 0.45685 0.32900
 H402 H 0.63978 0.56113 0.11746
 H403 H 0.69523 0.56633 0.23812
 N404 N 0.90352 0.36122 0.17600
 N405 N 0.88617 0.33107 0.24791
 C406 C 0.87738 0.34861 0.32748
 C407 C 0.89091 0.39258 0.30521
 C408 C 0.90642 0.39886 0.20753
 H409 H 0.89162 0.41724 0.35471
 H410 H 0.91574 0.35695 0.10898
 H411 H 0.88253 0.29973 0.24391
   
