data_POSCAR
  _audit_creation_date              2014-09-24
  _audit_creation_method            'ToBaCCo'
  _symmetry_space_group_name_H-M    'P1'
  _symmetry_Int_Tables_number       1
  _symmetry_cell_setting            triclinic
  loop_
  _symmetry_equiv_pos_as_xyz
 x,y,z
_cell_length_a 19.4218
_cell_length_b 19.4889
_cell_length_c 33.0636
_cell_angle_alpha 89.768000
_cell_angle_beta 91.948500
_cell_angle_gamma 90.345500
loop_
  _atom_site_label
  _atom_site_type_symbol
  _atom_site_fract_x
  _atom_site_fract_y
  _atom_site_fract_z
O1 O -0.05199 0.56782 0.95764
 O2 O -0.06134 0.43263 1.03525
 O3 O -0.06093 0.56739 1.03573
 O4 O -0.05080 0.43492 0.95678
 O5 O 0.06236 0.43249 0.96615
 O6 O 0.05270 0.56940 1.04186
 O7 O 0.05181 0.43632 1.04418
 O8 O 0.06165 0.56709 0.96364
 Cu9 Cu -0.06771 0.50047 0.99576
 Cu10 Cu 0.06855 0.50139 1.00458
 C11 C 0.00632 0.59038 0.94736
 C12 C -0.00643 0.41151 1.05307
 C13 C -0.00562 0.59167 1.05174
 C14 C 0.00756 0.41067 0.94844
 O15 O 0.42932 -0.06158 0.46260
 O16 O 0.57206 -0.06083 0.53873
 O17 O 0.43753 -0.06046 0.54077
 O18 O 0.56398 -0.06134 0.46009
 O19 O 0.56700 0.05199 0.46091
 O20 O 0.43614 0.05286 0.53877
 O21 O 0.57017 0.05243 0.53976
 O22 O 0.43318 0.05169 0.45984
 Cu23 Cu 0.50078 -0.07246 0.50060
 Cu24 Cu 0.50172 0.06363 0.49977
 C25 C 0.40715 -0.00511 0.44819
 C26 C 0.59517 -0.00410 0.55246
 C27 C 0.41457 -0.00359 0.55304
 C28 C 0.58754 -0.00473 0.44710
 C29 C 0.12956 0.01404 0.26977
 H30 H 0.13510 0.02546 0.23800
 C31 C 0.18768 0.01379 0.29586
 H32 H 0.23783 0.02556 0.28418
 C33 C 0.05789 -0.01606 0.32375
 H34 H 0.00727 -0.02744 0.33464
 C35 C 0.11491 -0.01932 0.35053
 H36 H 0.10772 -0.03278 0.38193
 N37 N 0.06596 0.00053 0.28416
 C38 C -0.07240 -0.09347 0.19342
 H39 H -0.11891 -0.06435 0.19713
 C40 C -0.07347 -0.15002 0.16753
 H41 H -0.12078 -0.16304 0.15098
 C42 C 0.04498 -0.11292 0.21128
 H43 H 0.09102 -0.09892 0.22852
 C44 C 0.04633 -0.16947 0.18558
 H45 H 0.09377 -0.19791 0.18342
 Zn46 Zn -0.01365 0.00231 0.24884
 N47 N -0.01352 -0.07554 0.21436
 C48 C -0.06756 0.09113 0.18835
 N49 N -0.01592 0.08406 0.21691
 C50 C 0.03287 0.13394 0.22235
 C51 C 0.03361 0.19117 0.19683
 C52 C -0.06955 0.14824 0.16266
 C53 C -0.11920 -0.06196 0.29232
 C54 C -0.17480 -0.06421 0.31803
 C55 C -0.17541 0.05980 0.31840
 C56 C -0.11985 0.05965 0.29272
 N57 N -0.09285 -0.00061 0.28040
 H58 H -0.10702 0.05213 0.18518
 H59 H 0.07151 0.12976 0.24640
 H60 H 0.07378 0.22949 0.20112
 H61 H -0.11026 0.15210 0.13957
 H62 H -0.09607 -0.10915 0.28254
 H63 H -0.19441 -0.11357 0.32760
 H64 H -0.19550 0.10846 0.32820
 H65 H -0.09735 0.10771 0.28319
 C66 C -0.01331 -0.18850 0.16307
 C67 C 0.18048 -0.00346 0.33667
 C68 C -0.20326 -0.00272 0.33174
 C69 C -0.01757 0.19837 0.16619
 C70 C 0.00475 0.14504 0.76964
 H71 H -0.00558 0.15179 0.73752
 C72 C 0.00403 0.20186 0.79528
 H73 H -0.00716 0.25224 0.78286
 C74 C 0.03153 0.07151 0.82516
 H75 H 0.04147 0.02065 0.83691
 C76 C 0.03379 0.12718 0.85158
 H77 H 0.04522 0.11865 0.88349
 N78 N 0.01690 0.08109 0.78498
 C79 C 0.10893 -0.05811 0.69992
 H80 H 0.08023 -0.10441 0.70620
 C81 C 0.16448 -0.06075 0.67427
 H82 H 0.17738 -0.10922 0.66064
 C83 C 0.12726 0.06081 0.71050
 H84 H 0.11288 0.10809 0.72471
 C85 C 0.18287 0.06061 0.68480
 H86 H 0.21049 0.10808 0.67960
 Zn87 Zn 0.01348 0.00273 0.75062
 N88 N 0.09098 0.00216 0.71717
 C89 C -0.07626 -0.05082 0.69035
 N90 N -0.06843 0.00161 0.71720
 C91 C -0.11761 0.05073 0.71994
 C92 C -0.17549 0.05019 0.69367
 C93 C -0.13406 -0.05418 0.66414
 C94 C 0.07539 -0.10131 0.79916
 C95 C 0.07621 -0.15863 0.82471
 C96 C -0.04772 -0.16593 0.81632
 C97 C -0.04614 -0.10859 0.79098
 N98 N 0.01473 -0.07741 0.78307
 H99 H -0.03755 -0.09021 0.68923
 H100 H -0.11254 0.09037 0.74250
 H101 H -0.21356 0.09025 0.69590
 H102 H -0.13884 -0.09592 0.64268
 H103 H 0.12303 -0.07515 0.79261
 H104 H 0.12494 -0.17637 0.83759
 H105 H -0.09694 -0.18938 0.82250
 H106 H -0.09377 -0.08821 0.77819
 C107 C 0.20188 -0.00067 0.66608
 C108 C 0.01885 0.19300 0.83673
 C109 C 0.01395 -0.19143 0.83385
 C110 C -0.18397 -0.00257 0.66517
 N111 N -0.06920 -0.32282 0.08998
 C112 C -0.00853 -0.35300 0.08160
 N113 N 0.05018 -0.32966 0.10036
 N114 N 0.04840 -0.27797 0.12649
 C115 C -0.01209 -0.24730 0.13482
 N116 N -0.07092 -0.27091 0.11606
 N117 N 0.04791 0.33938 0.10304
 C118 C -0.00985 0.36002 0.08224
 N119 N -0.07059 0.32828 0.08976
 N120 N -0.07325 0.27730 0.11666
 C121 C -0.01543 0.25655 0.13741
 N122 N 0.04511 0.28886 0.13019
 N123 N 0.33846 0.05717 0.59833
 C124 C 0.36143 -0.00305 0.58354
 N125 N 0.33273 -0.06258 0.59639
 N126 N 0.28256 -0.06186 0.62288
 C127 C 0.25923 -0.00163 0.63764
 N128 N 0.28845 0.05784 0.62492
 N129 N -0.32819 0.05581 0.59826
 C130 C -0.35104 -0.00390 0.58138
 N131 N -0.31951 -0.06332 0.59266
 N132 N -0.26667 -0.06295 0.61944
 C133 C -0.24377 -0.00325 0.63631
 N134 N -0.27579 0.05608 0.62534
 N135 N 0.07015 -0.32667 0.90649
 C136 C 0.00914 -0.35503 0.91676
 N137 N -0.04991 -0.33046 0.89923
 N138 N -0.04815 -0.27919 0.87257
 C139 C 0.01270 -0.25029 0.86237
 N140 N 0.07187 -0.27526 0.87980
 N141 N -0.03776 0.34863 0.88872
 C142 C 0.01169 0.35583 0.91845
 N143 N 0.06421 0.31022 0.92069
 N144 N 0.06672 0.25864 0.89449
 C145 C 0.01744 0.25151 0.86466
 N146 N -0.03465 0.29766 0.86210
 N147 N -0.33518 -0.06428 0.40172
 C148 C -0.36005 -0.00456 0.41615
 N149 N -0.33428 0.05562 0.40227
 N150 N -0.28518 0.05610 0.37513
 C151 C -0.25981 -0.00354 0.36077
 N152 N -0.28601 -0.06375 0.37456
 N153 N 0.34135 0.04670 0.39133
 C154 C 0.34973 -0.00556 0.41829
 N155 N 0.30287 -0.05750 0.41796
 N156 N 0.24905 -0.05686 0.39190
 C157 C 0.24078 -0.00480 0.36480
 N158 N 0.28811 0.04677 0.36481
   
