data_POSCAR
  _audit_creation_date              2014-09-24
  _audit_creation_method            'ToBaCCo'
  _symmetry_space_group_name_H-M    'P1'
  _symmetry_Int_Tables_number       1
  _symmetry_cell_setting            triclinic
  loop_
  _symmetry_equiv_pos_as_xyz
 x,y,z
_cell_length_a 26.7691
_cell_length_b 27.5259
_cell_length_c 33.3628
_cell_angle_alpha 89.858100
_cell_angle_beta 90.094900
_cell_angle_gamma 90.042500
loop_
  _atom_site_label
  _atom_site_type_symbol
  _atom_site_fract_x
  _atom_site_fract_y
  _atom_site_fract_z
O1 O -0.04227 0.45328 1.03764
 O2 O -0.04244 0.54813 0.96004
 O3 O -0.04114 0.45292 0.96014
 O4 O -0.04094 0.54845 1.03753
 O5 O 0.04169 0.54794 1.03760
 O6 O 0.04149 0.45353 0.96003
 O7 O 0.04018 0.54874 0.96012
 O8 O 0.04035 0.45277 1.03753
 Cu9 Cu -0.05003 0.50069 0.99883
 Cu10 Cu 0.04926 0.50075 0.99881
 C11 C -0.00107 0.43635 1.05015
 C12 C -0.00130 0.56515 0.94753
 C13 C 0.00028 0.43659 0.94754
 C14 C 0.00055 0.56480 1.05013
 O15 O 0.45203 -0.04115 0.46218
 O16 O 0.54919 -0.04123 0.54002
 O17 O 0.45166 -0.03986 0.54004
 O18 O 0.54952 -0.03988 0.46216
 O19 O 0.54919 0.04047 0.46210
 O20 O 0.45222 0.04049 0.53983
 O21 O 0.54975 0.03911 0.53995
 O22 O 0.45169 0.03920 0.46197
 Cu23 Cu 0.50059 -0.04863 0.50112
 Cu24 Cu 0.50072 0.04792 0.50095
 C25 C 0.43516 -0.00111 0.44911
 C26 C 0.56619 -0.00123 0.55294
 C27 C 0.43526 0.00047 0.55287
 C28 C 0.56602 0.00045 0.44918
 C29 C -0.06590 0.00968 0.25941
 C30 C -0.01927 0.01892 0.24181
 C31 C -0.00987 0.06447 0.22441
 C32 C -0.04696 0.10032 0.22424
 C33 C -0.09327 0.09111 0.24224
 C34 C -0.10263 0.04586 0.26002
 C35 C 0.01968 -0.01892 0.24180
 C36 C 0.01019 -0.06437 0.22441
 C37 C 0.04728 -0.10021 0.22420
 C38 C 0.09369 -0.09112 0.24216
 C39 C 0.10314 -0.04597 0.25993
 C40 C 0.06641 -0.00979 0.25936
 H41 H -0.07317 -0.02527 0.27331
 H42 H 0.02594 0.07166 0.21045
 H43 H -0.02570 -0.07148 0.21047
 H44 H 0.07375 0.02508 0.27325
 H45 H -0.12184 0.11903 0.24246
 H46 H 0.12226 -0.11903 0.24236
 C47 C -0.01036 -0.06463 0.77540
 C48 C -0.01987 -0.01904 0.75810
 C49 C -0.06663 -0.00982 0.74061
 C50 C -0.10337 -0.04605 0.74001
 C51 C -0.09388 -0.09134 0.75768
 C52 C -0.04745 -0.10053 0.77556
 C53 C 0.01910 0.01886 0.75811
 C54 C 0.06590 0.00965 0.74083
 C55 C 0.10264 0.04587 0.74025
 C56 C 0.09312 0.09115 0.75772
 C57 C 0.04665 0.10034 0.77539
 C58 C 0.00956 0.06445 0.77520
 H59 H 0.02555 -0.07182 0.78928
 H60 H -0.07400 0.02515 0.72678
 H61 H 0.07329 -0.02531 0.72716
 H62 H -0.02637 0.07163 0.78892
 H63 H -0.12245 -0.11929 0.75746
 H64 H 0.12170 0.11911 0.75751
 C65 C 0.02082 -0.22834 0.16574
 C66 C 0.03120 -0.27371 0.18403
 C67 C 0.02419 -0.31742 0.16209
 C68 C 0.00689 -0.31546 0.12200
 C69 C -0.00466 -0.27015 0.10404
 C70 C 0.00235 -0.22647 0.12597
 C71 C -0.00910 -0.18159 0.10725
 C72 C -0.02705 -0.17994 0.06804
 C73 C -0.03400 -0.22265 0.04663
 C74 C -0.02288 -0.26732 0.06422
 C75 C 0.03510 -0.36231 0.18089
 C76 C 0.05242 -0.36401 0.22028
 C77 C 0.05928 -0.32129 0.24174
 C78 C 0.04888 -0.27654 0.22397
 C79 C 0.00323 -0.35959 0.09844
 C80 C 0.00131 -0.39502 0.07735
 C81 C 0.03011 -0.18353 0.18739
 C82 C 0.03799 -0.14583 0.20461
 H83 H -0.00442 -0.14737 0.12270
 H84 H -0.03565 -0.14531 0.05421
 H85 H -0.04805 -0.22118 0.01621
 H86 H -0.02892 -0.29951 0.04630
 H87 H 0.03024 -0.39650 0.16541
 H88 H 0.06054 -0.39867 0.23423
 H89 H 0.07274 -0.32281 0.27233
 H90 H 0.05476 -0.24430 0.24186
 C91 C -0.02079 0.22880 0.16577
 C92 C -0.00259 0.22716 0.12595
 C93 C 0.00431 0.27098 0.10403
 C94 C -0.00706 0.31618 0.12203
 C95 C -0.02408 0.31790 0.16215
 C96 C -0.03098 0.27406 0.18409
 C97 C -0.04838 0.27665 0.22406
 C98 C -0.05861 0.32129 0.24186
 C99 C -0.05185 0.36415 0.22041
 C100 C -0.03481 0.36269 0.18098
 C101 C 0.02227 0.26839 0.06418
 C102 C 0.03320 0.22382 0.04655
 C103 C 0.02634 0.18097 0.06796
 C104 C 0.00867 0.18240 0.10721
 C105 C -0.00352 0.36046 0.09847
 C106 C -0.00170 0.39602 0.07738
 C107 C -0.02998 0.18385 0.18742
 C108 C -0.03776 0.14605 0.20464
 H109 H -0.05418 0.24430 0.24195
 H110 H -0.07186 0.32263 0.27248
 H111 H -0.05983 0.39873 0.23438
 H112 H -0.03002 0.39697 0.16550
 H113 H 0.02822 0.30069 0.04626
 H114 H 0.04705 0.22253 0.01611
 H115 H 0.03480 0.14643 0.05410
 H116 H 0.00405 0.14808 0.12265
 C117 C 0.23381 0.02068 0.68090
 C118 C 0.27381 0.05421 0.68338
 C119 C 0.31703 0.04762 0.65930
 C120 C 0.31995 0.00756 0.63285
 C121 C 0.28073 -0.02694 0.63147
 C122 C 0.23753 -0.02036 0.65558
 C123 C 0.19860 -0.05510 0.65341
 C124 C 0.20227 -0.09520 0.62818
 C125 C 0.24450 -0.10161 0.60460
 C126 C 0.28339 -0.06797 0.60608
 C127 C 0.35636 0.08186 0.66203
 C128 C 0.35310 0.12145 0.68784
 C129 C 0.31083 0.12791 0.71137
 C130 C 0.27151 0.09480 0.70927
 C131 C 0.36187 0.00340 0.60550
 C132 C 0.39587 0.00124 0.58192
 C133 C 0.18804 0.02945 0.70302
 C134 C 0.14943 0.03696 0.72048
 H135 H 0.16505 -0.05174 0.67124
 H136 H 0.17217 -0.12144 0.62693
 H137 H 0.24717 -0.13283 0.58505
 H138 H 0.31554 -0.07458 0.58726
 H139 H 0.39005 0.07832 0.64440
 H140 H 0.38356 0.14726 0.68959
 H141 H 0.30849 0.15872 0.73138
 H142 H 0.23944 0.10130 0.72822
 C143 C -0.23443 -0.02090 0.68005
 C144 C -0.27473 -0.05404 0.68303
 C145 C -0.31792 -0.04753 0.65877
 C146 C -0.32053 -0.00794 0.63165
 C147 C -0.28102 0.02619 0.62976
 C148 C -0.23784 0.01971 0.65404
 C149 C -0.19861 0.05407 0.65136
 C150 C -0.20197 0.09373 0.62545
 C151 C -0.24418 0.10005 0.60170
 C152 C -0.28336 0.06677 0.60368
 C153 C -0.35755 -0.08138 0.66200
 C154 C -0.35460 -0.12052 0.68848
 C155 C -0.31234 -0.12689 0.71218
 C156 C -0.27273 -0.09416 0.70959
 C157 C -0.36246 -0.00395 0.60416
 C158 C -0.39646 -0.00194 0.58046
 C159 C -0.18870 -0.02964 0.70238
 C160 C -0.15012 -0.03713 0.72003
 H161 H -0.16506 0.05076 0.66929
 H162 H -0.17164 0.11969 0.62381
 H163 H -0.24661 0.13092 0.58163
 H164 H -0.31549 0.07329 0.58470
 H165 H -0.39124 -0.07789 0.64426
 H166 H -0.38528 -0.14604 0.69061
 H167 H -0.31023 -0.15735 0.73270
 H168 H -0.24068 -0.10057 0.72870
 C169 C -0.02097 -0.22921 0.83367
 C170 C -0.03160 -0.27440 0.81534
 C171 C -0.02468 -0.31831 0.83719
 C172 C -0.00720 -0.31673 0.87723
 C173 C 0.00463 -0.27160 0.89523
 C174 C -0.00230 -0.22772 0.87340
 C175 C 0.00942 -0.18303 0.89215
 C176 C 0.02755 -0.18175 0.93132
 C177 C 0.03443 -0.22466 0.95263
 C178 C 0.02305 -0.26915 0.93500
 C179 C -0.03586 -0.36302 0.81835
 C180 C -0.05335 -0.36434 0.77900
 C181 C -0.06013 -0.32142 0.75763
 C182 C -0.04946 -0.27685 0.77544
 C183 C -0.00373 -0.36105 0.90074
 C184 C -0.00197 -0.39660 0.92186
 C185 C -0.03024 -0.18418 0.81215
 C186 C -0.03812 -0.14632 0.79504
 H187 H 0.00481 -0.14866 0.87678
 H188 H 0.03635 -0.14727 0.94518
 H189 H 0.04863 -0.22349 0.98301
 H190 H 0.02905 -0.30151 0.95284
 H191 H -0.03107 -0.39735 0.83376
 H192 H -0.06167 -0.39887 0.76502
 H193 H -0.07372 -0.32265 0.72707
 H194 H -0.05529 -0.24444 0.75762
 C195 C 0.02009 0.22896 0.83295
 C196 C 0.00153 0.22743 0.87267
 C197 C -0.00543 0.27129 0.89432
 C198 C 0.00624 0.31645 0.87615
 C199 C 0.02360 0.31807 0.83611
 C200 C 0.03056 0.27418 0.81444
 C201 C 0.04831 0.27668 0.77456
 C202 C 0.05882 0.32127 0.75657
 C203 C 0.05200 0.36417 0.77776
 C204 C 0.03462 0.36281 0.81710
 C205 C -0.02374 0.26880 0.93409
 C206 C -0.03495 0.22428 0.95189
 C207 C -0.02804 0.18139 0.93075
 C208 C -0.01002 0.18271 0.89159
 C209 C 0.00271 0.36076 0.89948
 C210 C 0.00090 0.39632 0.92043
 C211 C 0.02939 0.18396 0.81162
 C212 C 0.03730 0.14612 0.79466
 H213 H 0.05416 0.24428 0.75687
 H214 H 0.07233 0.32253 0.72602
 H215 H 0.06020 0.39871 0.76365
 H216 H 0.02980 0.39712 0.83237
 H217 H -0.02975 0.30114 0.95180
 H218 H -0.04906 0.22307 0.98226
 H219 H -0.03672 0.14688 0.94474
 H220 H -0.00538 0.14836 0.87636
 C221 C -0.23322 0.02061 0.32032
 C222 C -0.27353 0.05371 0.31745
 C223 C -0.31655 0.04711 0.34179
 C224 C -0.31898 0.00748 0.36887
 C225 C -0.27944 -0.02659 0.37068
 C226 C -0.23643 -0.02001 0.34632
 C227 C -0.19717 -0.05431 0.34891
 C228 C -0.20034 -0.09399 0.37480
 C229 C -0.24238 -0.10041 0.39863
 C230 C -0.28159 -0.06719 0.39673
 C231 C -0.35620 0.08091 0.33865
 C232 C -0.35343 0.12008 0.31220
 C233 C -0.31135 0.12654 0.28842
 C234 C -0.27172 0.09386 0.29091
 C235 C -0.36076 0.00335 0.39639
 C236 C -0.39467 0.00120 0.42007
 C237 C -0.18767 0.02941 0.29787
 C238 C -0.14923 0.03693 0.28012
 H239 H -0.16374 -0.05093 0.33091
 H240 H -0.16999 -0.11991 0.37638
 H241 H -0.24467 -0.13130 0.41869
 H242 H -0.31358 -0.07378 0.41577
 H243 H -0.38976 0.07735 0.35645
 H244 H -0.38413 0.14555 0.31014
 H245 H -0.30938 0.15702 0.26792
 H246 H -0.23980 0.10034 0.27175
 C247 C 0.23404 -0.02104 0.32013
 C248 C 0.23768 0.01989 0.34560
 C249 C 0.28077 0.02639 0.36996
 C250 C 0.31998 -0.00806 0.36869
 C251 C 0.31714 -0.04802 0.34211
 C252 C 0.27403 -0.05454 0.31777
 C253 C 0.27180 -0.09502 0.29175
 C254 C 0.31111 -0.12809 0.28977
 C255 C 0.35328 -0.12171 0.31355
 C256 C 0.35645 -0.08222 0.33950
 C257 C 0.28335 0.06731 0.39549
 C258 C 0.24448 0.10091 0.39687
 C259 C 0.20234 0.09458 0.37304
 C260 C 0.19876 0.05459 0.34766
 C261 C 0.36183 -0.00396 0.39623
 C262 C 0.39578 -0.00184 0.41995
 C263 C 0.18838 -0.02973 0.29771
 C264 C 0.14985 -0.03715 0.28000
 H265 H 0.23981 -0.10145 0.27261
 H266 H 0.30882 -0.15882 0.26967
 H267 H 0.38372 -0.14748 0.31189
 H268 H 0.39007 -0.07873 0.35732
 H269 H 0.31543 0.07386 0.41451
 H270 H 0.24709 0.13205 0.41653
 H271 H 0.17226 0.12079 0.37421
 H272 H 0.16529 0.05128 0.32964
   
