data_POSCAR
  _audit_creation_date              2014-09-24
  _audit_creation_method            'ToBaCCo'
  _symmetry_space_group_name_H-M    'P1'
  _symmetry_Int_Tables_number       1
  _symmetry_cell_setting            triclinic
  loop_
  _symmetry_equiv_pos_as_xyz
 x,y,z
_cell_length_a 26.6599
_cell_length_b 25.1926
_cell_length_c 65.2941
_cell_angle_alpha 92.111000
_cell_angle_beta 82.271600
_cell_angle_gamma 116.252500
loop_
  _atom_site_label
  _atom_site_type_symbol
  _atom_site_fract_x
  _atom_site_fract_y
  _atom_site_fract_z
C1 C -0.04301 -0.02608 0.52245
 H2 H -0.03276 -0.05853 0.52876
 C3 C -0.04569 0.01871 0.53503
 H4 H -0.03893 0.01940 0.55105
 C5 C -0.06056 0.01505 0.49371
 H6 H -0.06411 0.01448 0.47739
 C7 C -0.06445 0.06033 0.50588
 H8 H -0.07174 0.09424 0.49893
 N9 N -0.04989 -0.02690 0.50215
 C10 C 0.02214 -0.14194 0.50147
 H11 H 0.06010 -0.11293 0.49173
 C12 C 0.02238 -0.18635 0.51370
 H13 H 0.06080 -0.19135 0.51327
 C14 C -0.07475 -0.17215 0.51340
 H15 H -0.11249 -0.16631 0.51309
 C16 C -0.07639 -0.21676 0.52579
 H17 H -0.11549 -0.24450 0.53528
 Zn18 Zn -0.03313 -0.08064 0.48494
 N19 N -0.02611 -0.13585 0.50161
 C20 C 0.07733 0.00750 0.47683
 N21 N 0.03478 -0.03482 0.46763
 C22 C 0.03840 -0.03879 0.44668
 C23 C 0.08585 0.00155 0.43413
 C24 C 0.12491 0.04963 0.46484
 C25 C -0.14045 -0.12171 0.46976
 C26 C -0.18353 -0.16120 0.45893
 C27 C -0.12446 -0.20905 0.44699
 C28 C -0.08308 -0.16900 0.45806
 N29 N -0.09143 -0.12634 0.46908
 H30 H 0.07300 0.01025 0.49350
 H31 H 0.00369 -0.07156 0.43958
 H32 H 0.08745 -0.00091 0.41748
 H33 H 0.15749 0.08458 0.47231
 H34 H -0.14705 -0.08864 0.47920
 H35 H -0.22249 -0.15705 0.46097
 H36 H -0.11323 -0.23946 0.43769
 H37 H -0.04378 -0.17201 0.45794
 C38 C -0.02758 -0.22472 0.52597
 C39 C -0.05573 0.06303 0.52669
 C40 C -0.17692 -0.20708 0.44734
 C41 C 0.12903 0.04724 0.44323
 C42 C 1.07114 0.08768 0.14580
 H43 H 1.07276 0.13129 0.14737
 C44 C 1.11242 0.07951 0.13245
 H45 H 1.14524 0.11715 0.12356
 C46 C 1.02489 -0.01444 0.15511
 H47 H 0.99051 -0.05087 0.16395
 C48 C 1.06567 -0.02458 0.14202
 H49 H 1.06265 -0.06887 0.14115
 N50 N 1.02841 0.04105 0.15671
 C51 C 0.89713 0.10161 0.16699
 H52 H 0.89132 0.10487 0.18363
 C53 C 0.86417 0.11493 0.15507
 H54 H 0.83354 0.12917 0.16255
 C55 C 0.94124 0.07530 0.13705
 H56 H 0.97027 0.05852 0.13008
 C57 C 0.90850 0.08708 0.12464
 H58 H 0.91327 0.08018 0.10816
 Zn59 Zn 0.97518 0.05791 0.17429
 N60 N 0.93494 0.08237 0.15786
 C61 C 1.01225 0.17084 0.19404
 N62 N 1.01667 0.11902 0.19196
 C63 C 1.05400 0.10962 0.20177
 C64 C 1.08684 0.15174 0.21490
 C65 C 1.04465 0.21452 0.20700
 C66 C 0.86747 -0.03555 0.18714
 C67 C 0.82766 -0.08542 0.19869
 C68 C 0.90207 -0.08557 0.21599
 C69 C 0.94049 -0.03568 0.20411
 N70 N 0.92272 -0.01114 0.19015
 H71 H 0.98435 0.17904 0.18551
 H72 H 1.05931 0.06978 0.19908
 H73 H 1.11521 0.14232 0.22285
 H74 H 1.04088 0.25561 0.20831
 H75 H 0.85399 -0.01677 0.17566
 H76 H 0.78403 -0.10424 0.19593
 H77 H 0.91704 -0.10356 0.22728
 H78 H 0.98445 -0.01689 0.20608
 C79 C 0.86919 0.10676 0.13367
 C80 C 1.11027 0.02282 0.13046
 C81 C 0.84471 -0.11088 0.21346
 C82 C 1.08250 0.20514 0.21769
 C83 C 0.10150 0.95813 0.86835
 H84 H 0.06376 0.91745 0.86766
 C85 C 0.14136 0.95971 0.88040
 H86 H 0.13228 0.92082 0.88958
 C87 C 0.16038 1.05653 0.85625
 H88 H 0.16871 1.09342 0.84624
 C89 C 0.20183 1.05995 0.86808
 H90 H 0.24132 1.09980 0.86717
 N91 N 0.11114 1.00607 0.85666
 C92 C -0.03788 1.01682 0.85181
 H93 H -0.01834 1.05037 0.83968
 C94 C -0.08640 1.01285 0.86412
 H95 H -0.10311 1.04300 0.86057
 C96 C -0.04155 0.93504 0.86961
 H97 H -0.02443 0.90437 0.87170
 C98 C -0.09053 0.92915 0.88227
 H99 H -0.10806 0.89510 0.89431
 Zn100 Zn 0.05545 0.99348 0.83914
 N101 N -0.01521 0.97948 0.85507
 C102 C 0.00197 0.87698 0.82256
 N103 N 0.05037 0.92758 0.82330
 C104 C 0.10017 0.93385 0.81266
 C105 C 0.10287 0.88835 0.80055
 C106 C 0.00279 0.82994 0.81062
 C107 C 0.09234 1.11476 0.82794
 C108 C 0.09927 1.16077 0.81480
 C109 C 0.07403 1.09134 0.78711
 C110 C 0.06838 1.04696 0.80064
 N111 N 0.07682 1.05900 0.82073
 H112 H -0.03712 0.87303 0.83120
 H113 H 0.13793 0.97470 0.81355
 H114 H 0.14288 0.89505 0.79188
 H115 H -0.03589 0.78965 0.81033
 H116 H 0.09655 1.12290 0.84415
 H117 H 0.10996 1.20451 0.82087
 H118 H 0.06575 1.08062 0.77131
 H119 H 0.05450 1.00222 0.79529
 C120 C -0.11319 0.96955 0.88015
 C121 C 0.19276 1.01072 0.88017
 C122 C 0.08877 1.14880 0.79423
 C123 C 0.05387 0.83533 0.79945
 O124 O 0.61449 0.12264 -0.01550
 O125 O 0.51220 0.12649 0.02756
 O126 O 0.60528 0.11551 0.02464
 O127 O 0.52109 0.13431 -0.01252
 O128 O 0.47452 0.03721 -0.01420
 O129 O 0.55606 0.01853 0.02362
 O130 O 0.46236 0.02976 0.02603
 O131 O 0.56724 0.02540 -0.01621
 Cu132 Cu 0.56811 0.13449 0.00613
 Cu133 Cu 0.50999 0.01801 0.00474
 C134 C 0.60895 0.07340 -0.02303
 C135 C 0.46955 0.07892 0.03408
 C136 C 0.59517 0.06368 0.03037
 C137 C 0.48347 0.08877 -0.01976
 O138 O -0.01932 0.48883 0.64135
 O139 O -0.03396 0.38037 0.68112
 O140 O -0.03920 0.48190 0.68152
 O141 O -0.02295 0.38441 0.64093
 O142 O 0.06920 0.42682 0.64131
 O143 O 0.05281 0.52569 0.68222
 O144 O 0.05815 0.42522 0.68152
 O145 O 0.07270 0.53242 0.64201
 Cu146 Cu -0.03807 0.42953 0.66126
 Cu147 Cu 0.07242 0.48192 0.66177
 C148 C 0.02947 0.52931 0.63493
 C149 C 0.00996 0.38441 0.68808
 C150 C 0.00370 0.52067 0.68875
 C151 C 0.02554 0.38866 0.63414
 O152 O 0.42976 0.44864 0.31287
 O153 O 0.51077 0.53627 0.35349
 O154 O 0.42317 0.43363 0.35252
 O155 O 0.51718 0.55022 0.31401
 O156 O 0.46002 0.59281 0.31889
 O157 O 0.36918 0.47965 0.35890
 O158 O 0.45687 0.58264 0.35840
 O159 O 0.37189 0.49015 0.31896
 Cu160 Cu 0.47567 0.48763 0.33271
 Cu161 Cu 0.40862 0.54047 0.33935
 C162 C 0.38684 0.45406 0.30899
 C163 C 0.49869 0.57541 0.36257
 C164 C 0.38033 0.43701 0.36241
 C165 C 0.50479 0.59155 0.30988
 C166 C -0.00943 0.14368 0.55096
 C167 C -0.00909 0.18922 0.56404
 C168 C -0.05496 0.20381 0.56595
 C169 C -0.09940 0.17392 0.55421
 C170 C -0.09904 0.12904 0.54103
 C171 C -0.05462 0.11292 0.53959
 C172 C -0.05601 0.24744 0.57973
 C173 C -0.01164 0.27686 0.59154
 C174 C 0.03514 0.26373 0.58911
 C175 C 0.03606 0.21985 0.57540
 C176 C 0.07987 0.29418 0.60067
 C177 C 0.07763 0.33619 0.61490
 C178 C 0.03041 0.34798 0.61795
 C179 C -0.01376 0.31864 0.60598
 H180 H 0.02539 0.13193 0.54964
 H181 H -0.13470 0.18481 0.55539
 H182 H -0.13417 0.10579 0.53236
 H183 H -0.09163 0.25798 0.58145
 H184 H 0.07152 0.20907 0.57377
 H185 H 0.11621 0.28494 0.59890
 H186 H 0.11214 0.35826 0.62394
 H187 H -0.05013 0.32791 0.60804
 C188 C 0.74966 0.83325 0.23421
 C189 C 0.71050 0.78477 0.24677
 C190 C 0.72459 0.73908 0.25147
 C191 C 0.77739 0.74246 0.24338
 C192 C 0.81616 0.79094 0.23093
 C193 C 0.80288 0.83693 0.22629
 C194 C 0.68595 0.69110 0.26433
 C195 C 0.63354 0.68843 0.27268
 C196 C 0.61930 0.73390 0.26785
 C197 C 0.65778 0.78168 0.25488
 C198 C 0.56700 0.73120 0.27629
 C199 C 0.52948 0.68443 0.28968
 C200 C 0.54341 0.63931 0.29482
 C201 C 0.59544 0.64138 0.28604
 H202 H 0.73914 0.86876 0.23099
 H203 H 0.78880 0.70774 0.24675
 H204 H 0.85650 0.79224 0.22478
 H205 H 0.69692 0.65624 0.26802
 H206 H 0.64693 0.81670 0.25127
 H207 H 0.55536 0.76561 0.27272
 H208 H 0.48970 0.68395 0.29617
 H209 H 0.60682 0.60698 0.28989
 C210 C 0.26968 0.06079 -0.09721
 C211 C 0.30878 0.05876 -0.08515
 C212 C 0.31528 0.00618 -0.08410
 C213 C 0.28401 -0.04270 -0.09550
 C214 C 0.24542 -0.04033 -0.10742
 C215 C 0.23694 0.01084 -0.10813
 C216 C 0.35230 0.00283 -0.07146
 C217 C 0.38306 0.05134 -0.05977
 C218 C 0.37794 0.10456 -0.06116
 C219 C 0.34077 0.10796 -0.07384
 C220 C 0.40963 0.15316 -0.04961
 C221 C 0.44507 0.14862 -0.03650
 C222 C 0.44904 0.09526 -0.03458
 C223 C 0.41829 0.04701 -0.04648
 H224 H 0.26352 0.10046 -0.09759
 H225 H 0.28897 -0.08306 -0.09505
 H226 H 0.22196 -0.07887 -0.11610
 H227 H 0.35660 -0.03784 -0.07050
 H228 H 0.33623 0.14850 -0.07470
 H229 H 0.40653 0.19444 -0.05054
 H230 H 0.46837 0.18644 -0.02749
 H231 H 0.42145 0.00580 -0.04530
 C232 C 0.01476 0.73703 0.55047
 C233 C 0.01053 0.69293 0.56410
 C234 C -0.03852 0.63817 0.56625
 C235 C -0.08175 0.62783 0.55435
 C236 C -0.07725 0.67185 0.54087
 C237 C -0.02953 0.72721 0.53903
 C238 C -0.04399 0.59492 0.58045
 C239 C -0.00100 0.60562 0.59255
 C240 C 0.04865 0.65978 0.59006
 C241 C 0.05407 0.70313 0.57588
 C242 C 0.09191 0.66987 0.60194
 C243 C 0.08583 0.62705 0.61632
 C244 C 0.03616 0.57359 0.61924
 C245 C -0.00707 0.56309 0.60720
 H246 H 0.05159 0.77962 0.54930
 H247 H -0.11937 0.58593 0.55565
 H248 H -0.11145 0.66266 0.53192
 H249 H -0.08192 0.55323 0.58223
 H250 H 0.09187 0.74494 0.57418
 H251 H 0.13034 0.71100 0.60019
 H252 H 0.11975 0.63623 0.62541
 H253 H -0.04534 0.52179 0.60919
 C254 C 0.17347 0.26002 0.23250
 C255 C 0.20580 0.29960 0.24656
 C256 C 0.18277 0.33144 0.25967
 C257 C 0.12779 0.32338 0.25831
 C258 C 0.09550 0.28316 0.24444
 C259 C 0.11773 0.25055 0.23157
 C260 C 0.21473 0.36998 0.27411
 C261 C 0.26907 0.37626 0.27579
 C262 C 0.29195 0.34440 0.26257
 C263 C 0.26043 0.30679 0.24794
 C264 C 0.34574 0.34990 0.26440
 C265 C 0.37642 0.38587 0.27940
 C266 C 0.35422 0.41758 0.29276
 C267 C 0.30058 0.41305 0.29070
 H268 H 0.19169 0.23623 0.22237
 H269 H 0.10937 0.34736 0.26824
 H270 H 0.05258 0.27646 0.24419
 H271 H 0.19699 0.39423 0.28424
 H272 H 0.27802 0.28222 0.23789
 H273 H 0.36387 0.32582 0.25439
 H274 H 0.41770 0.38876 0.28056
 H275 H 0.28291 0.43710 0.30095
 C276 C 0.83236 0.01976 -0.10231
 C277 C 0.78749 0.01924 -0.08825
 C278 C 0.74837 -0.03395 -0.07777
 C279 C 0.75484 -0.08577 -0.08160
 C280 C 0.80002 -0.08489 -0.09547
 C281 C 0.83984 -0.03212 -0.10613
 C282 C 0.70396 -0.03425 -0.06343
 C283 C 0.69888 0.01835 -0.05920
 C284 C 0.73828 0.07163 -0.06967
 C285 C 0.78201 0.07164 -0.08422
 C286 C 0.73384 0.12433 -0.06519
 C287 C 0.69138 0.12461 -0.05020
 C288 C 0.65210 0.07208 -0.03958
 C289 C 0.65573 0.01884 -0.04436
 H290 H 0.86298 0.06186 -0.10935
 H291 H 0.72500 -0.12712 -0.07380
 H292 H 0.80218 -0.12645 -0.09822
 H293 H 0.67397 -0.07513 -0.05534
 H294 H 0.81224 0.11262 -0.09220
 H295 H 0.76369 0.16553 -0.07308
 H296 H 0.68942 0.16613 -0.04686
 H297 H 0.62593 -0.02190 -0.03617
 C298 C 0.21056 0.05709 0.11400
 C299 C 0.25156 0.05067 0.09967
 C300 C 0.23647 -0.00062 0.08765
 C301 C 0.18057 -0.04476 0.09030
 C302 C 0.13974 -0.03760 0.10439
 C303 C 0.15413 0.01360 0.11626
 C304 C 0.27725 -0.00642 0.07296
 C305 C 0.33264 0.03899 0.06989
 C306 C 0.34756 0.09023 0.08197
 C307 C 0.30714 0.09543 0.09692
 C308 C 0.40247 0.13606 0.07864
 C309 C 0.44208 0.13187 0.06321
 C310 C 0.42782 0.08142 0.05099
 C311 C 0.37310 0.03466 0.05463
 H312 H 0.22263 0.09626 0.12331
 H313 H 0.16817 -0.08433 0.08119
 H314 H 0.09658 -0.07155 0.10561
 H315 H 0.26562 -0.04566 0.06367
 H316 H 0.31865 0.13488 0.10610
 H317 H 0.41458 0.17560 0.08776
 H318 H 0.48399 0.16835 0.06080
 H319 H 0.36153 -0.00430 0.04521
 C320 C 0.73571 0.76226 0.43201
 C321 C 0.69442 0.72117 0.42071
 C322 C 0.69762 0.66859 0.41423
 C323 C 0.74082 0.65707 0.41955
 C324 C 0.78158 0.69771 0.43076
 C325 C 0.78117 0.75217 0.43700
 C326 C 0.65797 0.62843 0.40234
 C327 C 0.61513 0.64035 0.39662
 C328 C 0.61090 0.69233 0.40337
 C329 C 0.65054 0.73243 0.41541
 C330 C 0.56763 0.70369 0.39764
 C331 C 0.52996 0.66477 0.38488
 C332 C 0.53495 0.61385 0.37760
 C333 C 0.57721 0.60155 0.38386
 H334 H 0.73327 0.80330 0.43565
 H335 H 0.74312 0.61626 0.41508
 H336 H 0.81175 0.68393 0.43512
 H337 H 0.66104 0.58837 0.39723
 H338 H 0.64767 0.77266 0.42039
 H339 H 0.56351 0.74316 0.40274
 H340 H 0.49780 0.67532 0.38029
 H341 H 0.58139 0.56229 0.37848
 C342 C 0.04437 0.18257 0.76949
 C343 C 0.04515 0.22562 0.75626
 C344 C 0.09258 0.28163 0.75380
 C345 C 0.13773 0.29404 0.76501
 C346 C 0.13622 0.25113 0.77838
 C347 C 0.08994 0.19492 0.78053
 C348 C 0.09422 0.32417 0.74012
 C349 C 0.04883 0.31158 0.72901
 C350 C 0.00076 0.25617 0.73189
 C351 C -0.00068 0.21343 0.74544
 C352 C -0.04488 0.24431 0.72102
 C353 C -0.04255 0.28653 0.70712
 C354 C 0.00566 0.34108 0.70372
 C355 C 0.05101 0.35345 0.71491
 H356 H 0.00811 0.13953 0.77137
 H357 H 0.17427 0.33684 0.76339
 H358 H 0.17167 0.26139 0.78678
 H359 H 0.13089 0.36690 0.73804
 H360 H -0.03728 0.17065 0.74748
 H361 H -0.08217 0.20218 0.72312
 H362 H -0.07797 0.27595 0.69868
 H363 H 0.08824 0.39563 0.71257
 C364 C 0.80070 0.06998 0.10803
 C365 C 0.76518 0.07747 0.09563
 C366 C 0.76112 0.13160 0.09576
 C367 C 0.79166 0.17670 0.10876
 C368 C 0.82625 0.16842 0.12136
 C369 C 0.83152 0.11535 0.12088
 C370 C 0.72669 0.13965 0.08290
 C371 C 0.69565 0.09389 0.07018
 C372 C 0.69862 0.03924 0.07057
 C373 C 0.73365 0.03156 0.08315
 C374 C 0.66658 -0.00694 0.05830
 C375 C 0.63226 0.00095 0.04557
 C376 C 0.62987 0.05541 0.04465
 C377 C 0.66166 0.10179 0.05706
 H378 H 0.80403 0.02859 0.10787
 H379 H 0.78885 0.21835 0.10916
 H380 H 0.84973 0.20381 0.13121
 H381 H 0.72404 0.18137 0.08280
 H382 H 0.73634 -0.01016 0.08324
 H383 H 0.66819 -0.04915 0.05849
 H384 H 0.60835 -0.03536 0.03611
 H385 H 0.65974 0.14382 0.05658
 C386 C 0.18396 0.15392 0.43294
 C387 C 0.22402 0.19921 0.41938
 C388 C 0.25727 0.18578 0.40322
 C389 C 0.24949 0.12714 0.40084
 C390 C 0.20827 0.08203 0.41405
 C391 C 0.17532 0.09511 0.43016
 C392 C 0.29671 0.23086 0.38942
 C393 C 0.30202 0.28878 0.39119
 C394 C 0.26814 0.30190 0.40719
 C395 C 0.23003 0.25727 0.42136
 C396 C 0.27211 0.35926 0.40850
 C397 C 0.30866 0.40309 0.39393
 C398 C 0.34276 0.39072 0.37804
 C399 C 0.33971 0.33354 0.37691
 H400 H 0.15782 0.16392 0.44516
 H401 H 0.27439 0.11598 0.38850
 H402 H 0.20188 0.03681 0.41168
 H403 H 0.32223 0.22058 0.37703
 H404 H 0.20409 0.26742 0.43363
 H405 H 0.24635 0.37002 0.42062
 H406 H 0.31047 0.44688 0.39515
 H407 H 0.36546 0.32344 0.36457
 C408 C 0.01342 0.75409 0.77429
 C409 C 0.01838 0.71179 0.76062
 C410 C 0.06711 0.70207 0.75895
 C411 C 0.10917 0.73342 0.77142
 C412 C 0.10389 0.77528 0.78501
 C413 C 0.05657 0.78693 0.78633
 C414 C 0.07340 0.66181 0.74464
 C415 C 0.03150 0.63095 0.73200
 C416 C -0.01795 0.63945 0.73408
 C417 C -0.02413 0.67991 0.74832
 C418 C -0.06025 0.60769 0.72172
 C419 C -0.05338 0.56845 0.70724
 C420 C -0.00384 0.56071 0.70468
 C421 C 0.03841 0.59199 0.71721
 H422 H -0.02307 0.76286 0.77501
 H423 H 0.14651 0.72609 0.77052
 H424 H 0.13718 0.79893 0.79441
 H425 H 0.11113 0.65498 0.74320
 H426 H -0.06173 0.68697 0.74968
 H427 H -0.09851 0.61344 0.72315
 H428 H -0.08654 0.54490 0.69776
 H429 H 0.07655 0.58592 0.71550
   
