data_POSCAR
  _audit_creation_date              2014-09-24
  _audit_creation_method            'ToBaCCo'
  _symmetry_space_group_name_H-M    'P1'
  _symmetry_Int_Tables_number       1
  _symmetry_cell_setting            triclinic
  loop_
  _symmetry_equiv_pos_as_xyz
 x,y,z
_cell_length_a 50.8207
_cell_length_b 51.0994
_cell_length_c 47.0478
_cell_angle_alpha 90.263000
_cell_angle_beta 89.673300
_cell_angle_gamma 121.389100
loop_
  _atom_site_label
  _atom_site_type_symbol
  _atom_site_fract_x
  _atom_site_fract_y
  _atom_site_fract_z
C1 C 0.00562 0.49181 -0.00355
 C2 C 0.01233 0.46948 -0.00751
 C3 C 0.03239 0.46570 0.01267
 C4 C -0.00052 0.44753 -0.03164
 C5 C -0.01911 0.49215 -0.01989
 C6 C 0.02287 0.51672 0.01749
 C7 C 0.05917 0.46698 0.00300
 C8 C 0.07841 0.46411 0.02220
 C9 C 0.07082 0.45930 0.05121
 C10 C 0.04370 0.45764 0.06076
 C11 C 0.02460 0.46064 0.04160
 C12 C 0.00302 0.45808 -0.05966
 C13 C -0.00972 0.43740 -0.08228
 C14 C -0.02648 0.40537 -0.07736
 C15 C -0.02900 0.39514 -0.04911
 C16 C -0.01610 0.41593 -0.02661
 C17 C -0.04885 0.46608 -0.02042
 C18 C -0.07215 0.46504 -0.03669
 C19 C -0.06696 0.49163 -0.05430
 C20 C -0.03469 0.51915 -0.05155
 C21 C -0.01250 0.51850 -0.03484
 C22 C 0.00760 0.51979 0.04100
 C23 C 0.02424 0.54195 0.06182
 C24 C 0.05622 0.56195 0.05899
 C25 C 0.07135 0.55928 0.03504
 C26 C 0.05480 0.53677 0.01453
 H27 H 0.06544 0.47077 -0.01930
 H28 H 0.09929 0.46570 0.01440
 H29 H 0.03752 0.45481 0.08305
 H30 H 0.00380 0.45926 0.04935
 H31 H 0.01563 0.48246 -0.06402
 H32 H -0.00620 0.44717 -0.10323
 H33 H -0.01886 0.40731 -0.00512
 H34 H -0.05400 0.44600 -0.00824
 H35 H -0.09464 0.44420 -0.03685
 H36 H -0.02830 0.53987 -0.06316
 H37 H 0.01047 0.53868 -0.03412
 H38 H -0.01702 0.50442 0.04364
 H39 H 0.01216 0.54347 0.08019
 H40 H 0.09607 0.57392 0.03257
 H41 H 0.06692 0.53467 -0.00351
 H42 H -0.04138 0.37086 -0.04421
 C43 C 0.46350 0.48779 -0.00948
 C44 C 0.49121 0.51478 -0.00878
 C45 C 0.49636 0.53997 0.01061
 C46 C 0.51759 0.52036 -0.02706
 C47 C 0.45633 0.46444 -0.03192
 C48 C 0.43945 0.48076 0.01238
 C49 C 0.47706 0.55196 0.00957
 C50 C 0.48075 0.57430 0.02903
 C51 C 0.50400 0.58534 0.04967
 C52 C 0.52387 0.57383 0.05018
 C53 C 0.52018 0.55150 0.03063
 C54 C 0.53288 0.54685 -0.04385
 C55 C 0.55747 0.55210 -0.06136
 C56 C 0.56729 0.53102 -0.06242
 C57 C 0.55253 0.50492 -0.04484
 C58 C 0.52795 0.49971 -0.02734
 C59 C 0.44586 0.43413 -0.02421
 C60 C 0.44168 0.41229 -0.04444
 C61 C 0.44837 0.42020 -0.07559
 C62 C 0.45759 0.45253 -0.08192
 C63 C 0.46093 0.47299 -0.06061
 C64 C 0.44614 0.48146 0.04139
 C65 C 0.42458 0.47771 0.06205
 C66 C 0.39569 0.47278 0.05406
 C67 C 0.38877 0.47124 0.02500
 C68 C 0.41035 0.47492 0.00433
 H69 H 0.45881 0.54360 -0.00602
 H70 H 0.46511 0.58270 0.02818
 H71 H 0.54163 0.58114 0.06607
 H72 H 0.53525 0.54245 0.03172
 H73 H 0.52547 0.56325 -0.04372
 H74 H 0.56863 0.57255 -0.07439
 H75 H 0.51705 0.47958 -0.01389
 H76 H 0.44192 0.42753 -0.00203
 H77 H 0.43452 0.38938 -0.03741
 H78 H 0.46247 0.46048 -0.10370
 H79 H 0.46810 0.49625 -0.06654
 H80 H 0.46844 0.48577 0.04802
 H81 H 0.43114 0.47978 0.08414
 H82 H 0.36675 0.46759 0.01827
 H83 H 0.40478 0.47430 -0.01795
 H84 H 0.56008 0.48870 -0.04406
 C85 C 0.55331 1.02139 0.00880
 C86 C 0.52411 1.01469 0.00316
 C87 C 0.49741 0.99197 0.02035
 C88 C 0.51752 1.03014 -0.02007
 C89 C 0.58036 1.04704 -0.00585
 C90 C 0.55914 1.00288 0.02930
 C91 C 0.47237 0.96671 0.00708
 C92 C 0.44756 0.94475 0.02325
 C93 C 0.44710 0.94805 0.05285
 C94 C 0.47211 0.97359 0.06607
 C95 C 0.49698 0.99543 0.04992
 C96 C 0.52776 1.03040 -0.04784
 C97 C 0.52345 1.04621 -0.06956
 C98 C 0.50704 1.06315 -0.06472
 C99 C 0.49558 1.06045 -0.03461
 C100 C 0.50108 1.04453 -0.01389
 C101 C 0.58518 1.07668 -0.00549
 C102 C 0.60779 1.09960 -0.02278
 C103 C 0.62638 1.09356 -0.04057
 C104 C 0.62270 1.06418 -0.03938
 C105 C 0.59997 1.04128 -0.02211
 C106 C 0.57995 1.01727 0.05174
 C107 C 0.58389 0.99977 0.07216
 C108 C 0.56700 0.96762 0.07057
 C109 C 0.54729 0.95332 0.04729
 C110 C 0.54354 0.97082 0.02681
 H111 H 0.47235 0.96373 -0.01573
 H112 H 0.42864 0.92517 0.01264
 H113 H 0.47289 0.97646 0.08891
 H114 H 0.51605 1.01491 0.06047
 H115 H 0.53971 1.01850 -0.05268
 H116 H 0.53237 1.04637 -0.09055
 H117 H 0.49296 1.04401 0.00756
 H118 H 0.57056 1.08171 0.00732
 H119 H 0.61007 1.12190 -0.02282
 H120 H 0.63609 1.05793 -0.05246
 H121 H 0.59663 1.01854 -0.02256
 H122 H 0.59250 1.04199 0.05387
 H123 H 0.59957 1.01134 0.08964
 H124 H 0.53487 0.92868 0.04473
 H125 H 0.52813 0.95930 0.00915
 H126 H 0.48330 1.07172 -0.02864
 C127 C 0.99395 0.54422 0.49011
 C128 C 0.99377 0.51744 0.48987
 C129 C 1.01567 0.51344 0.47192
 C130 C 0.97149 0.49119 0.50772
 C131 C 0.97771 0.55080 0.51279
 C132 C 1.01005 0.56774 0.46770
 C133 C 1.00495 0.48766 0.45431
 C134 C 1.02538 0.48418 0.43693
 C135 C 1.05728 0.50640 0.43703
 C136 C 1.06783 0.53189 0.45522
 C137 C 1.04736 0.53529 0.47250
 C138 C 0.93979 0.47985 0.50568
 C139 C 0.91891 0.45648 0.52368
 C140 C 0.92922 0.44374 0.54390
 C141 C 0.96104 0.45482 0.54557
 C142 C 0.98191 0.47815 0.52743
 C143 C 0.98413 0.54930 0.54149
 C144 C 0.96805 0.55422 0.56290
 C145 C 0.94505 0.56062 0.55598
 C146 C 0.93962 0.56340 0.52722
 C147 C 0.95583 0.55857 0.50579
 C148 C 1.03011 0.59854 0.47504
 C149 C 1.04587 0.62050 0.45393
 C150 C 1.04198 0.61216 0.42500
 C151 C 1.02069 0.58130 0.41777
 C152 C 1.00493 0.55947 0.43891
 H153 H 0.98058 0.47046 0.45362
 H154 H 1.01563 0.46416 0.42345
 H155 H 1.09210 0.54941 0.45609
 H156 H 1.05627 0.55510 0.48633
 H157 H 0.93127 0.48944 0.49038
 H158 H 0.89462 0.44850 0.52193
 H159 H 1.00632 0.48675 0.52939
 H160 H 1.00157 0.54418 0.54730
 H161 H 0.97391 0.55317 0.58475
 H162 H 0.92232 0.56867 0.52131
 H163 H 0.95080 0.56015 0.48375
 H164 H 1.03404 0.60548 0.49715
 H165 H 1.06168 0.64402 0.46036
 H166 H 1.01559 0.57353 0.39602
 H167 H 0.98869 0.53596 0.43278
 H168 H 0.97018 0.44631 0.56126
 C169 C 0.48804 0.48468 0.51012
 C170 C 0.51224 0.51413 0.51180
 C171 C 0.51578 0.53806 0.49168
 C172 C 0.53565 0.52356 0.53440
 C173 C 0.48627 0.46007 0.52825
 C174 C 0.46171 0.47609 0.49095
 C175 C 0.51696 0.53412 0.46224
 C176 C 0.51862 0.55595 0.44331
 C177 C 0.51923 0.58218 0.45354
 C178 C 0.51841 0.58620 0.48300
 C179 C 0.51706 0.56450 0.50193
 C180 C 0.56620 0.53316 0.52734
 C181 C 0.58753 0.53884 0.54873
 C182 C 0.57863 0.53542 0.57749
 C183 C 0.54849 0.52750 0.58448
 C184 C 0.52707 0.52136 0.56309
 C185 C 0.46064 0.44285 0.54598
 C186 C 0.45944 0.42064 0.56411
 C187 C 0.48377 0.41501 0.56455
 C188 C 0.50914 0.43196 0.54641
 C189 C 0.51026 0.45407 0.52824
 C190 C 0.44468 0.49050 0.49344
 C191 C 0.42013 0.48270 0.47513
 C192 C 0.41230 0.46041 0.45380
 C193 C 0.42882 0.44537 0.45201
 C194 C 0.45326 0.45307 0.47048
 H195 H 0.51611 0.51389 0.45394
 H196 H 0.51849 0.55174 0.42074
 H197 H 0.51868 0.60611 0.49139
 H198 H 0.51612 0.56790 0.52456
 H199 H 0.57319 0.53518 0.50527
 H200 H 0.61088 0.54576 0.54277
 H201 H 0.50360 0.51424 0.56885
 H202 H 0.44195 0.44721 0.54635
 H203 H 0.43986 0.40868 0.57825
 H204 H 0.52820 0.42814 0.54637
 H205 H 0.53002 0.46675 0.51437
 H206 H 0.45036 0.50772 0.50969
 H207 H 0.40729 0.49396 0.47813
 H208 H 0.42304 0.42786 0.43605
 H209 H 0.46595 0.44146 0.46851
 H210 H 0.54124 0.52506 0.60650
 C211 C 0.50717 -0.00287 0.50065
 C212 C 0.47881 -0.00619 0.50023
 C213 C 0.45559 -0.02586 0.47863
 C214 C 0.46962 0.00930 0.52132
 C215 C 0.53179 0.01868 0.52024
 C216 C 0.51503 -0.02079 0.48136
 C217 C 0.46116 -0.01879 0.44964
 C218 C 0.43961 -0.03787 0.42930
 C219 C 0.41195 -0.06466 0.43762
 C220 C 0.40665 -0.07149 0.46682
 C221 C 0.42804 -0.05211 0.48710
 C222 C 0.45760 0.02703 0.51207
 C223 C 0.44915 0.04195 0.53175
 C224 C 0.45263 0.03947 0.56101
 C225 C 0.46374 0.02085 0.57029
 C226 C 0.47207 0.00585 0.55060
 C227 C 0.54416 0.00746 0.53989
 C228 C 0.56831 0.02758 0.55765
 C229 C 0.58085 0.05937 0.55569
 C230 C 0.56869 0.07060 0.53574
 C231 C 0.54413 0.05039 0.51832
 C232 C 0.49872 -0.05284 0.48274
 C233 C 0.50610 -0.06969 0.46443
 C234 C 0.53011 -0.05468 0.44423
 C235 C 0.54658 -0.02241 0.44337
 C236 C 0.53925 -0.00566 0.46185
 H237 H 0.48238 0.00144 0.44277
 H238 H 0.44543 -0.03174 0.40724
 H239 H 0.38577 -0.09186 0.47408
 H240 H 0.42342 -0.05793 0.50942
 H241 H 0.45516 0.02967 0.48958
 H242 H 0.44030 0.05584 0.52408
 H243 H 0.48028 -0.00860 0.55821
 H244 H 0.53512 -0.01693 0.54140
 H245 H 0.57769 0.01829 0.57231
 H246 H 0.57820 0.09503 0.53370
 H247 H 0.53513 0.05945 0.50295
 H248 H 0.48023 -0.06482 0.49805
 H249 H 0.49252 -0.09430 0.46642
 H250 H 0.56521 -0.00998 0.42827
 H251 H 0.55220 0.01914 0.46066
 H252 H 0.46558 0.01739 0.59267
 O253 O 0.18289 0.41589 0.24145
 O254 O 0.23882 0.43262 0.29875
 O255 O 0.18402 0.42511 0.29604
 O256 O 0.23712 0.42237 0.24426
 O257 O 0.25835 0.47191 0.23608
 O258 O 0.20526 0.47471 0.28830
 O259 O 0.26021 0.48218 0.29066
 O260 O 0.20454 0.46557 0.23381
 Cu261 Cu 0.20859 0.41903 0.27098
 Cu262 Cu 0.23428 0.47860 0.26155
 C263 C 0.18439 0.43800 0.22776
 C264 C 0.25912 0.46032 0.30433
 C265 C 0.18541 0.45025 0.30089
 C266 C 0.25654 0.44653 0.23113
 O267 O 0.56951 0.76311 0.22814
 O268 O 0.55722 0.80392 0.28673
 O269 O 0.56792 0.75926 0.28336
 O270 O 0.55956 0.80818 0.23127
 O271 O 0.50951 0.77464 0.22922
 O272 O 0.51765 0.72648 0.28228
 O273 O 0.50704 0.77096 0.28440
 O274 O 0.51939 0.72969 0.22708
 Cu275 Cu 0.56860 0.78701 0.25759
 Cu276 Cu 0.50838 0.74712 0.25557
 C277 C 0.54640 0.73933 0.21770
 C278 C 0.52997 0.79431 0.29548
 C279 C 0.54421 0.73462 0.29177
 C280 C 0.53311 0.79957 0.22119
 O281 O 0.18997 0.76436 0.25721
 O282 O 0.24501 0.81960 0.20510
 O283 O 0.19385 0.76669 0.20176
 O284 O 0.24129 0.81768 0.26004
 O285 O 0.26757 0.79430 0.26144
 O286 O 0.21960 0.74279 0.20352
 O287 O 0.27106 0.79596 0.20611
 O288 O 0.21647 0.74119 0.25842
 Cu289 Cu 0.21480 0.79435 0.23095
 Cu290 Cu 0.24637 0.76627 0.23247
 C291 C 0.19383 0.74331 0.26657
 C292 C 0.26748 0.81721 0.19684
 C293 C 0.19849 0.74594 0.19286
 C294 C 0.26265 0.81486 0.27049
 O295 O 0.79454 0.54526 0.73274
 O296 O 0.73840 0.53826 0.78718
 O297 O 0.79367 0.54670 0.78807
 O298 O 0.74037 0.53917 0.73180
 O299 O 0.71946 0.48894 0.73160
 O300 O 0.77267 0.49645 0.78853
 O301 O 0.71748 0.48801 0.78705
 O302 O 0.77340 0.49497 0.73346
 Cu303 Cu 0.76882 0.54740 0.75996
 Cu304 Cu 0.74357 0.48705 0.76024
 C305 C 0.79345 0.52113 0.72395
 C306 C 0.71832 0.51178 0.79629
 C307 C 0.79243 0.52298 0.79778
 C308 C 0.72097 0.51288 0.72198
 O309 O 0.41631 0.17295 0.78149
 O310 O 0.41147 0.21874 0.72378
 O311 O 0.42142 0.17352 0.72634
 O312 O 0.40685 0.21821 0.77909
 O313 O 0.45694 0.25139 0.78187
 O314 O 0.47149 0.20661 0.72967
 O315 O 0.46160 0.25160 0.72681
 O316 O 0.46644 0.20588 0.78455
 Cu317 Cu 0.40897 0.19255 0.75230
 Cu318 Cu 0.46913 0.23222 0.75608
 C319 C 0.44222 0.18154 0.79273
 C320 C 0.43568 0.24297 0.71548
 C321 C 0.44899 0.18241 0.71919
 C322 C 0.42948 0.24250 0.78938
 O323 O 0.76314 0.19567 0.71134
 O324 O 0.82714 0.25335 0.75609
 O325 O 0.77711 0.20051 0.76530
 O326 O 0.81502 0.24646 0.70190
 O327 O 0.79030 0.27113 0.70750
 O328 O 0.75319 0.22575 0.77240
 O329 O 0.80246 0.27814 0.76119
 O330 O 0.73818 0.21984 0.71880
 Cu331 Cu 0.79800 0.22147 0.73304
 Cu332 Cu 0.76841 0.25106 0.74046
 C333 C 0.73964 0.19799 0.70772
 C334 C 0.82560 0.27573 0.76604
 C335 C 0.75905 0.20542 0.77985
 C336 C 0.80946 0.26676 0.69400
 C337 C 0.09237 0.45788 0.07118
 C338 C 0.08313 0.44340 0.09758
 C339 C 0.10510 0.44548 0.11924
 C340 C 0.09454 0.42329 0.14075
 C341 C 0.11424 0.42561 0.16255
 C342 C 0.14490 0.45040 0.16327
 C343 C 0.15537 0.47264 0.14183
 C344 C 0.13576 0.47025 0.12000
 C345 C 0.16613 0.45490 0.18670
 C346 C 0.16253 0.43155 0.20461
 H347 H 0.05879 0.42956 0.10253
 H348 H 0.07087 0.40428 0.14087
 H349 H 0.10505 0.40847 0.17912
 H350 H 0.17877 0.49218 0.14214
 H351 H 0.14447 0.48837 0.10437
 H352 H 0.18615 0.47771 0.18944
 H353 H 0.11616 0.46807 0.06453
 H354 H 0.14414 0.40808 0.20122
 C355 C 0.50535 0.60722 0.07119
 C356 C 0.53005 0.62401 0.08968
 C357 C 0.52898 0.64291 0.11306
 C358 C 0.55664 0.66703 0.12419
 C359 C 0.55635 0.68492 0.14665
 C360 C 0.52820 0.67878 0.15855
 C361 C 0.50061 0.65431 0.14765
 C362 C 0.50092 0.63649 0.12527
 C363 C 0.52612 0.69666 0.18240
 C364 C 0.55104 0.72287 0.19438
 H365 H 0.55127 0.62425 0.08659
 H366 H 0.57857 0.67213 0.11541
 H367 H 0.57821 0.70320 0.15454
 H368 H 0.47860 0.64879 0.15660
 H369 H 0.47914 0.61736 0.11809
 H370 H 0.50330 0.68883 0.19083
 H371 H 0.48589 0.61037 0.07226
 H372 H 0.57426 0.73196 0.18665
 C373 C 0.42086 0.92405 0.06940
 C374 C 0.41166 0.92997 0.09543
 C375 C 0.38608 0.90589 0.11252
 C376 C 0.37032 0.91425 0.13149
 C377 C 0.34653 0.89221 0.14852
 C378 C 0.33823 0.86133 0.14702
 C379 C 0.35440 0.85307 0.12845
 C380 C 0.37803 0.87508 0.11125
 C381 C 0.31403 0.83762 0.16552
 C382 C 0.28981 0.83987 0.17671
 H383 H 0.42247 0.95339 0.10293
 H384 H 0.37648 0.93793 0.13319
 H385 H 0.33530 0.89962 0.16329
 H386 H 0.34877 0.82953 0.12730
 H387 H 0.39039 0.86800 0.09755
 H388 H 0.31497 0.81734 0.16999
 H389 H 0.40741 0.90145 0.06001
 H390 H 0.28702 0.85870 0.17069
 C391 C 0.92634 0.56437 0.57807
 C392 C 0.92139 0.55124 0.60506
 C393 C 0.90055 0.55209 0.62669
 C394 C 0.88964 0.53034 0.64860
 C395 C 0.86944 0.52965 0.66921
 C396 C 0.85963 0.55078 0.66837
 C397 C 0.87143 0.57332 0.64712
 C398 C 0.89164 0.57397 0.62638
 C399 C 0.83750 0.54992 0.68952
 C400 C 0.81551 0.52274 0.70269
 H401 H 0.93114 0.53735 0.60992
 H402 H 0.89656 0.51358 0.64966
 H403 H 0.86185 0.51271 0.68591
 H404 H 0.86466 0.59020 0.64635
 H405 H 0.90035 0.59176 0.61043
 H406 H 0.83749 0.57078 0.69374
 H407 H 0.91398 0.57542 0.57191
 H408 H 0.81371 0.50137 0.69682
 C409 C 0.48424 0.39290 0.58448
 C410 C 0.45782 0.36890 0.59731
 C411 C 0.45873 0.34806 0.61854
 C412 C 0.43222 0.31914 0.62298
 C413 C 0.43193 0.29914 0.64336
 C414 C 0.45816 0.30790 0.66008
 C415 C 0.48466 0.33685 0.65557
 C416 C 0.48496 0.35679 0.63517
 C417 C 0.45912 0.28788 0.68230
 C418 C 0.43331 0.26115 0.69258
 H419 H 0.43539 0.36423 0.59077
 H420 H 0.41168 0.31191 0.61051
 H421 H 0.41115 0.27692 0.64560
 H422 H 0.50516 0.34428 0.66817
 H423 H 0.50555 0.37922 0.63302
 H424 H 0.48132 0.29515 0.69173
 H425 H 0.50628 0.39507 0.58833
 H426 H 0.41058 0.25343 0.68441
 C427 C 0.60745 0.08117 0.57323
 C428 C 0.61180 0.07429 0.60083
 C429 C 0.63870 0.09578 0.61816
 C430 C 0.63504 0.09728 0.64757
 C431 C 0.66012 0.11745 0.66446
 C432 C 0.68949 0.13592 0.65227
 C433 C 0.69340 0.13364 0.62302
 C434 C 0.66814 0.11401 0.60600
 C435 C 0.71616 0.15757 0.66977
 C436 C 0.71334 0.17514 0.69089
 H437 H 0.59390 0.05341 0.61078
 H438 H 0.61263 0.08312 0.65742
 H439 H 0.65664 0.11832 0.68709
 H440 H 0.71592 0.14747 0.61328
 H441 H 0.67173 0.11271 0.58346
 H442 H 0.73878 0.16177 0.66431
 H443 H 0.62313 0.10383 0.56477
 H444 H 0.69142 0.17359 0.69393
 C445 C 0.50287 0.08310 0.90933
 C446 C 0.48240 0.09331 0.91144
 C447 C 0.47973 0.11184 0.88888
 C448 C 0.45502 0.11674 0.88969
 C449 C 0.45205 0.13443 0.86882
 C450 C 0.47396 0.14775 0.84683
 C451 C 0.49895 0.14329 0.84629
 C452 C 0.50172 0.12530 0.86695
 C453 C 0.47185 0.16703 0.82469
 C454 C 0.44384 0.16278 0.81546
 H455 H 0.46753 0.08718 0.92994
 H456 H 0.43796 0.10688 0.90652
 H457 H 0.43296 0.13811 0.87032
 H458 H 0.51626 0.15355 0.82969
 H459 H 0.52125 0.12225 0.86589
 H460 H 0.49291 0.18386 0.81406
 H461 H 0.50446 0.07325 0.92298
 H462 H 0.42238 0.14422 0.82399
 C463 C 0.59317 0.53736 0.91833
 C464 C 0.59874 0.51474 0.90873
 C465 C 0.62397 0.52056 0.88885
 C466 C 0.63291 0.49884 0.88721
 C467 C 0.65578 0.50262 0.86814
 C468 C 0.66997 0.52808 0.84985
 C469 C 0.66144 0.55010 0.85177
 C470 C 0.63854 0.54635 0.87092
 C471 C 0.69360 0.53231 0.82869
 C472 C 0.69547 0.50788 0.81779
 H473 H 0.58407 0.49143 0.91602
 H474 H 0.62220 0.47886 0.90085
 H475 H 0.66240 0.48564 0.86807
 H476 H 0.67206 0.56996 0.83798
 H477 H 0.63193 0.56331 0.87096
 H478 H 0.70890 0.55510 0.82029
 H479 H 0.60774 0.56067 0.91099
 H480 H 0.67902 0.48469 0.82445
 C481 C 0.95928 0.38412 0.90184
 C482 C 0.95847 0.39043 0.87295
 C483 C 0.93893 0.36639 0.85200
 C484 C 0.92785 0.37467 0.82860
 C485 C 0.90761 0.35251 0.80936
 C486 C 0.89813 0.32152 0.81304
 C487 C 0.91065 0.31344 0.83540
 C488 C 0.93080 0.33564 0.85482
 C489 C 0.87471 0.29739 0.79426
 C490 C 0.85057 0.29969 0.78330
 H491 H 0.96981 0.41371 0.86534
 H492 H 0.93423 0.39828 0.82560
 H493 H 0.89928 0.35968 0.79172
 H494 H 0.90413 0.28978 0.83832
 H495 H 0.93987 0.32859 0.87193
 H496 H 0.87485 0.27645 0.79112
 H497 H 0.94633 0.36025 0.90813
 H498 H 0.84883 0.31933 0.78882
 C499 C 0.53815 0.92968 0.42461
 C500 C 0.52425 0.89777 0.42299
 C501 C 0.53152 0.88204 0.40056
 C502 C 0.50975 0.85119 0.39475
 C503 C 0.51495 0.83554 0.37320
 C504 C 0.54214 0.85052 0.35685
 C505 C 0.56452 0.88098 0.36341
 C506 C 0.55935 0.89665 0.38504
 C507 C 0.54796 0.83495 0.33321
 C508 C 0.52426 0.80993 0.31877
 H509 H 0.50592 0.88307 0.43745
 H510 H 0.48842 0.83918 0.40675
 H511 H 0.49769 0.81168 0.36971
 H512 H 0.58595 0.89281 0.35153
 H513 H 0.57733 0.91999 0.38957
 H514 H 0.57153 0.84429 0.32616
 H515 H 0.55587 0.94349 0.40921
 H516 H 0.50046 0.80143 0.32431
 C517 C 0.38699 0.45197 0.43336
 C518 C 0.37512 0.47068 0.42761
 C519 C 0.35080 0.46329 0.40632
 C520 C 0.34618 0.48679 0.39754
 C521 C 0.32388 0.48123 0.37727
 C522 C 0.30571 0.45191 0.36515
 C523 C 0.30966 0.42816 0.37455
 C524 C 0.33190 0.43369 0.39495
 C525 C 0.28228 0.44511 0.34307
 C526 C 0.28198 0.46768 0.32673
 H527 H 0.38535 0.49285 0.43780
 H528 H 0.35999 0.50967 0.40632
 H529 H 0.32088 0.49997 0.37156
 H530 H 0.29560 0.40523 0.36595
 H531 H 0.33384 0.41461 0.40178
 H532 H 0.26538 0.42128 0.33866
 H533 H 0.37904 0.43122 0.42115
 H534 H 0.29942 0.49158 0.32961
 C535 C 0.05970 0.63486 0.40469
 C536 C 0.06141 0.62912 0.37581
 C537 C 0.08268 0.65329 0.35589
 C538 C 0.09491 0.64516 0.33312
 C539 C 0.11594 0.66743 0.31439
 C540 C 0.12492 0.69832 0.31796
 C541 C 0.11165 0.70630 0.33995
 C542 C 0.09082 0.68402 0.35892
 C543 C 0.14769 0.72233 0.29875
 C544 C 0.17176 0.72048 0.28668
 H545 H 0.04963 0.60594 0.36774
 H546 H 0.08856 0.62154 0.33007
 H547 H 0.12491 0.66036 0.29701
 H548 H 0.11782 0.72989 0.34273
 H549 H 0.08096 0.69084 0.37570
 H550 H 0.14635 0.74254 0.29515
 H551 H 0.07451 0.65814 0.41224
 H552 H 0.17485 0.70172 0.29231
 C553 C 0.90505 0.48940 0.92520
 C554 C 0.90913 0.51339 0.90821
 C555 C 0.88465 0.51039 0.88917
 C556 C 0.89057 0.53540 0.87222
 C557 C 0.86829 0.53314 0.85341
 C558 C 0.83944 0.50575 0.85131
 C559 C 0.83357 0.48069 0.86820
 C560 C 0.85585 0.48296 0.88704
 C561 C 0.81560 0.50212 0.83097
 C562 C 0.81471 0.52684 0.81966
 H563 H 0.93112 0.53483 0.90834
 H564 H 0.91267 0.55667 0.87326
 H565 H 0.87419 0.55268 0.84014
 H566 H 0.81165 0.45926 0.86680
 H567 H 0.85056 0.46317 0.89972
 H568 H 0.79784 0.47907 0.82496
 H569 H 0.92002 0.49181 0.93517
 H570 H 0.83093 0.54994 0.82673
 C571 C 0.44722 0.39685 0.89866
 C572 C 0.43416 0.36550 0.90221
 C573 C 0.43632 0.34632 0.87979
 C574 C 0.41856 0.31427 0.88211
 C575 C 0.42114 0.29565 0.86176
 C576 C 0.44185 0.30887 0.83886
 C577 C 0.45969 0.34089 0.83663
 C578 C 0.45680 0.35947 0.85671
 C579 C 0.44655 0.29010 0.81781
 C580 C 0.42365 0.26036 0.81032
 H581 H 0.42245 0.35483 0.92195
 H582 H 0.40283 0.30361 0.89983
 H583 H 0.40761 0.27104 0.86449
 H584 H 0.47597 0.35158 0.81929
 H585 H 0.47110 0.38411 0.85442
 H586 H 0.46851 0.30070 0.80678
 H587 H 0.44729 0.40750 0.91257
 H588 H 0.40065 0.25033 0.81910
 C589 C 0.64643 0.11645 0.94017
 C590 C 0.66658 0.11398 0.92149
 C591 C 0.68291 0.13585 0.89800
 C592 C 0.70962 0.13817 0.88667
 C593 C 0.72443 0.15677 0.86314
 C594 C 0.71243 0.17307 0.85004
 C595 C 0.68613 0.17132 0.86179
 C596 C 0.67136 0.15277 0.88542
 C597 C 0.72661 0.19186 0.82420
 C598 C 0.74515 0.18702 0.80559
 H599 H 0.67118 0.09573 0.92391
 H600 H 0.71901 0.12542 0.89600
 H601 H 0.74527 0.15831 0.85546
 H602 H 0.67648 0.18372 0.85219
 H603 H 0.65037 0.15099 0.89306
 H604 H 0.72107 0.20907 0.81894
 H605 H 0.64580 0.13730 0.93938
 H606 H 0.74959 0.16885 0.80958
 C607 C 0.07906 0.50459 0.41970
 C608 C 0.07251 0.48045 0.40104
 C609 C 0.09610 0.48000 0.38258
 C610 C 0.09032 0.45176 0.37200
 C611 C 0.11156 0.45024 0.35412
 C612 C 0.13923 0.47708 0.34634
 C613 C 0.14474 0.50539 0.35646
 C614 C 0.12348 0.50692 0.37435
 C615 C 0.16221 0.47665 0.32696
 C616 C 0.16334 0.45040 0.32121
 H617 H 0.04968 0.46027 0.40039
 H618 H 0.06919 0.43072 0.37755
 H619 H 0.10575 0.42802 0.34608
 H620 H 0.16557 0.52648 0.35041
 H621 H 0.12837 0.52927 0.38108
 H622 H 0.17931 0.49807 0.31719
 H623 H 0.10282 0.52316 0.42134
 H624 H 0.14765 0.42904 0.33177
 C625 C 0.51899 0.60477 0.43411
 C626 C 0.53109 0.61014 0.40656
 C627 C 0.52924 0.63154 0.38674
 C628 C 0.55177 0.64591 0.36547
 C629 C 0.55021 0.66564 0.34597
 C630 C 0.52577 0.67104 0.34716
 C631 C 0.50290 0.65616 0.36806
 C632 C 0.50467 0.63675 0.38778
 C633 C 0.52274 0.69090 0.32627
 C634 C 0.54793 0.71541 0.31261
 H635 H 0.54369 0.59947 0.39967
 H636 H 0.57064 0.64186 0.36396
 H637 H 0.56774 0.67599 0.32961
 H638 H 0.48360 0.65959 0.36913
 H639 H 0.48639 0.62529 0.40333
 H640 H 0.49992 0.68695 0.32252
 H641 H 0.51012 0.61855 0.44227
 H642 H 0.57112 0.72141 0.31794
 C643 C 0.38980 0.91481 0.41805
 C644 C 0.38968 0.92060 0.38899
 C645 C 0.36660 0.89761 0.36917
 C646 C 0.35741 0.90761 0.34561
 C647 C 0.33630 0.88651 0.32607
 C648 C 0.32433 0.85494 0.32950
 C649 C 0.33402 0.84497 0.35273
 C650 C 0.35476 0.86605 0.37255
 C651 C 0.30305 0.83224 0.30843
 C652 C 0.28218 0.83635 0.29288
 H653 H 0.40531 0.94317 0.38049
 H654 H 0.36659 0.93184 0.34233
 H655 H 0.33004 0.89505 0.30792
 H656 H 0.32548 0.82081 0.35556
 H657 H 0.36208 0.85768 0.39004
 H658 H 0.30315 0.81121 0.30576
 H659 H 0.37086 0.89336 0.42619
 H660 H 0.27982 0.85584 0.29732
 C661 C 0.57054 0.94965 0.09324
 C662 C 0.54688 0.92012 0.10070
 C663 C 0.54930 0.90192 0.12387
 C664 C 0.52211 0.87813 0.13614
 C665 C 0.52320 0.85993 0.15766
 C666 C 0.55167 0.86484 0.16713
 C667 C 0.57888 0.88874 0.15486
 C668 C 0.57778 0.90703 0.13341
 C669 C 0.55416 0.84587 0.18959
 C670 C 0.52933 0.81825 0.19973
 H671 H 0.52477 0.91051 0.09031
 H672 H 0.49986 0.87371 0.12919
 H673 H 0.50162 0.84235 0.16676
 H674 H 0.60114 0.89307 0.16166
 H675 H 0.59923 0.92465 0.12403
 H676 H 0.57690 0.85354 0.19790
 H677 H 0.59136 0.96101 0.10582
 H678 H 0.50643 0.80922 0.19138
 C679 C 0.37318 0.47112 0.07530
 C680 C 0.37301 0.46341 0.10381
 C681 C 0.35223 0.46431 0.12551
 C682 C 0.34542 0.44647 0.15015
 C683 C 0.32664 0.44740 0.17149
 C684 C 0.31445 0.46645 0.16870
 C685 C 0.32181 0.48479 0.14436
 C686 C 0.34040 0.48369 0.12291
 C687 C 0.29486 0.46844 0.19104
 C688 C 0.27687 0.44461 0.20992
 H689 H 0.38781 0.45521 0.11044
 H690 H 0.35471 0.43179 0.15291
 H691 H 0.32232 0.43367 0.19034
 H692 H 0.31310 0.50000 0.14189
 H693 H 0.34599 0.49856 0.10471
 H694 H 0.29315 0.48871 0.19154
 H695 H 0.35564 0.47543 0.06793
 H696 H 0.27623 0.42316 0.20822
 C697 C 0.07350 0.58417 0.08195
 C698 C 0.10003 0.61264 0.07682
 C699 C 0.11838 0.63402 0.09996
 C700 C 0.13398 0.66573 0.09511
 C701 C 0.15220 0.68641 0.11640
 C702 C 0.15565 0.67566 0.14273
 C703 C 0.14058 0.64394 0.14734
 C704 C 0.12185 0.62328 0.12629
 C705 C 0.17573 0.69692 0.16521
 C706 C 0.17904 0.72546 0.16989
 H707 H 0.10681 0.62017 0.05510
 H708 H 0.13200 0.67450 0.07483
 H709 H 0.16416 0.71074 0.11197
 H710 H 0.14323 0.63515 0.16734
 H711 H 0.11077 0.59894 0.13037
 H712 H 0.18659 0.68901 0.17974
 H713 H 0.06433 0.57844 0.10336
 H714 H 0.16563 0.73222 0.15754
 C715 C 0.44407 0.05617 0.58117
 C716 C 0.45705 0.06523 0.60819
 C717 C 0.45006 0.08350 0.62789
 C718 C 0.47166 0.10113 0.64889
 C719 C 0.46617 0.11894 0.66777
 C720 C 0.43879 0.11940 0.66609
 C721 C 0.41671 0.10100 0.64569
 C722 C 0.42228 0.08327 0.62668
 C723 C 0.43226 0.13803 0.68577
 C724 C 0.45551 0.16460 0.69883
 H725 H 0.47493 0.06093 0.61441
 H726 H 0.49299 0.10126 0.65060
 H727 H 0.48322 0.13188 0.68390
 H728 H 0.39519 0.10050 0.64433
 H729 H 0.40460 0.06914 0.61144
 H730 H 0.40843 0.13123 0.68928
 H731 H 0.42902 0.06367 0.57353
 H732 H 0.47943 0.17299 0.69391
 C733 C 0.60009 0.53962 0.60055
 C734 C 0.62198 0.53112 0.59751
 C735 C 0.64149 0.53233 0.62127
 C736 C 0.65166 0.51154 0.62168
 C737 C 0.66991 0.51189 0.64398
 C738 C 0.67862 0.53336 0.66616
 C739 C 0.66915 0.55470 0.66532
 C740 C 0.65062 0.55413 0.64320
 C741 C 0.69857 0.53502 0.68972
 C742 C 0.70011 0.50994 0.69899
 H743 H 0.62291 0.52059 0.57780
 H744 H 0.64526 0.49483 0.60480
 H745 H 0.67762 0.49576 0.64344
 H746 H 0.67601 0.57179 0.68192
 H747 H 0.64395 0.57108 0.64307
 H748 H 0.71169 0.55664 0.70094
 H749 H 0.59621 0.54631 0.62129
 H750 H 0.68540 0.48753 0.68964
 C751 C 0.90622 0.42002 0.56342
 C752 C 0.91197 0.40092 0.58000
 C753 C 0.88945 0.37810 0.60041
 C754 C 0.89447 0.35528 0.61048
 C755 C 0.87454 0.33380 0.63038
 C756 C 0.84884 0.33451 0.64066
 C757 C 0.84400 0.35758 0.63087
 C758 C 0.86405 0.37918 0.61099
 C759 C 0.82779 0.31283 0.66263
 C760 C 0.82632 0.28551 0.66921
 H761 H 0.93349 0.40166 0.57726
 H762 H 0.91413 0.35422 0.60310
 H763 H 0.88002 0.31730 0.63805
 H764 H 0.82476 0.35905 0.63882
 H765 H 0.85984 0.39697 0.60461
 H766 H 0.81339 0.31893 0.67448
 H767 H 0.88350 0.41694 0.56387
 H768 H 0.83934 0.27814 0.65691
   
