data_POSCAR
  _audit_creation_date              2014-09-24
  _audit_creation_method            'ToBaCCo'
  _symmetry_space_group_name_H-M    'P1'
  _symmetry_Int_Tables_number       1
  _symmetry_cell_setting            triclinic
  loop_
  _symmetry_equiv_pos_as_xyz
 x,y,z
_cell_length_a 32.5117
_cell_length_b 34.0201
_cell_length_c 40.7279
_cell_angle_alpha 90.525700
_cell_angle_beta 88.989700
_cell_angle_gamma 89.072000
loop_
  _atom_site_label
  _atom_site_type_symbol
  _atom_site_fract_x
  _atom_site_fract_y
  _atom_site_fract_z
C1 C 1.25081 0.25144 0.24949
 C2 C 0.75663 -0.25149 0.24565
 C3 C 0.75010 0.23988 -0.25300
 C4 C 1.25488 -0.26079 -0.25240
 C5 C 0.25053 0.26030 0.75086
 C6 C 0.74500 0.76453 0.75350
 C7 C 0.74909 0.25036 0.25292
 C8 C 0.24578 0.74859 0.25209
 O9 O 1.07633 0.02519 0.04013
 O10 O 0.93590 -0.01726 0.03868
 O11 O 0.98304 0.07118 0.03839
 O12 O 1.02828 -0.06259 0.04317
 O13 O 0.92806 0.04759 0.01971
 O14 O 1.08561 -0.04142 0.02524
 O15 O 0.96019 -0.07200 0.02221
 O16 O 1.05303 0.07809 0.02024
 C17 C 1.06985 0.06082 0.04338
 C18 C 0.94067 -0.05267 0.04354
 C19 C 0.94589 0.06515 0.04226
 C20 C 1.06557 -0.05827 0.04736
 O21 O 1.08037 -0.02167 -0.04031
 O22 O 0.93974 0.02138 -0.04381
 O23 O 1.02953 0.06766 -0.04300
 O24 O 0.99088 -0.06768 -0.03988
 O25 O 0.93264 -0.04428 -0.02477
 O26 O 1.08588 0.04599 -0.02404
 O27 O 1.05847 -0.07362 -0.01874
 O28 O 0.95947 0.07604 -0.02516
 Co29 Co 1.07493 0.00200 0.00002
 Co30 Co 0.94115 0.00181 -0.00243
 Co31 Co 1.00644 0.06626 -0.00223
 Co32 Co 1.00922 -0.06205 0.00149
 O33 O 1.00791 0.00203 -0.00076
 C34 C 1.07568 -0.05758 -0.04247
 C35 C 0.94250 0.05723 -0.04741
 C36 C 1.06711 0.06307 -0.04642
 C37 C 0.95404 -0.06282 -0.04559
 O38 O 1.06342 0.52436 0.53938
 O39 O 0.92277 0.48632 0.54737
 O40 O 0.96967 0.57356 0.53870
 O41 O 1.01699 0.43941 0.54625
 O42 O 0.91333 0.55021 0.52336
 O43 O 1.07200 0.45693 0.52295
 O44 O 0.94739 0.43041 0.53271
 O45 O 1.03839 0.57728 0.51995
 C46 C 1.05684 0.56013 0.54251
 C47 C 0.92904 0.45133 0.55383
 C48 C 0.93273 0.56876 0.54429
 C49 C 1.05459 0.44278 0.54746
 O50 O 1.06048 0.47753 0.45937
 O51 O 0.91885 0.51743 0.46296
 O52 O 1.01331 0.56412 0.45631
 O53 O 0.96868 0.43070 0.46708
 O54 O 0.91312 0.45381 0.48726
 O55 O 1.06975 0.54499 0.47579
 O56 O 1.03853 0.42530 0.48132
 O57 O 0.94391 0.57313 0.47499
 Co58 Co 1.05895 0.50097 0.49959
 Co59 Co 0.92428 0.50190 0.50498
 Co60 Co 0.99138 0.56537 0.49784
 Co61 Co 0.99281 0.43812 0.50642
 O62 O 0.99177 0.50163 0.50222
 C63 C 1.05539 0.44165 0.45741
 C64 C 0.92459 0.55205 0.45549
 C65 C 1.05095 0.56053 0.45283
 C66 C 0.93124 0.43573 0.46448
 O67 O 0.57530 0.04065 0.51504
 O68 O 0.41443 -0.04540 0.52280
 O69 O 0.45110 0.07344 0.52496
 O70 O 0.53904 -0.07793 0.51990
 O71 O 0.42605 0.01986 0.54245
 O72 O 0.56541 -0.02465 0.53632
 O73 O 0.47125 -0.06798 0.53904
 O74 O 0.52129 0.06413 0.53741
 C75 C 0.55874 0.05854 0.53867
 C76 C 0.43420 -0.06297 0.54425
 C77 C 0.43323 0.05496 0.54736
 C78 C 0.55766 -0.05949 0.54160
 O79 O 0.57029 -0.05263 0.47366
 O80 O 0.41537 0.04711 0.48118
 O81 O 0.54111 0.06920 0.47099
 O82 O 0.44370 -0.07425 0.47579
 O83 O 0.42082 -0.01893 0.45999
 O84 O 0.56346 0.01309 0.45402
 O85 O 0.51249 -0.07012 0.45639
 O86 O 0.47066 0.06562 0.45891
 Co87 Co 0.56121 -0.00564 0.49518
 Co88 Co 0.42653 0.00027 0.50117
 Co89 Co 0.49585 0.06144 0.49809
 Co90 Co 0.49181 -0.06602 0.49775
 O91 O 0.49383 -0.00247 0.49800
 C92 C 0.54995 -0.06864 0.45180
 C93 C 0.43306 0.06254 0.45737
 C94 C 0.55937 0.04874 0.44931
 C95 C 0.42556 -0.05449 0.45458
 O96 O 0.57674 0.51480 0.04000
 O97 O 0.43490 0.47856 0.04277
 O98 O 0.48552 0.56594 0.04445
 O99 O 0.52574 0.42968 0.03875
 O100 O 0.42831 0.54593 0.02714
 O101 O 0.58211 0.44948 0.01883
 O102 O 0.45599 0.42513 0.02101
 O103 O 0.55470 0.57063 0.02477
 C104 C 0.57264 0.55035 0.04566
 C105 C 0.43883 0.44252 0.04464
 C106 C 0.44833 0.56135 0.04953
 C107 C 0.56323 0.43339 0.04180
 O108 O 0.57375 0.47744 -0.04336
 O109 O 0.43382 0.52418 -0.03727
 O110 O 0.52800 0.56722 -0.03851
 O111 O 0.48116 0.43441 -0.04210
 O112 O 0.42526 0.45777 -0.02194
 O113 O 0.58408 0.54235 -0.02217
 O114 O 0.55009 0.42368 -0.02602
 O115 O 0.45901 0.57634 -0.01791
 Co116 Co 0.57200 0.49628 -0.00150
 Co117 Co 0.43775 0.50132 0.00255
 Co118 Co 0.50665 0.56320 0.00288
 Co119 Co 0.50347 0.43504 -0.00173
 O120 O 0.50492 0.49901 0.00054
 C121 C 0.56703 0.44231 -0.04857
 C122 C 0.44090 0.55947 -0.04062
 C123 C 0.56530 0.56178 -0.04312
 C124 C 0.44407 0.44133 -0.04535
 C125 C 1.24986 0.19362 0.20903
 C126 C 1.23050 0.16750 0.18798
 C127 C 1.18788 0.16881 0.18483
 C128 C 1.16438 0.19503 0.20456
 C129 C 1.18361 0.22058 0.22644
 C130 C 1.22702 0.22173 0.22799
 N131 N 1.16956 0.14411 0.16067
 N132 N 1.13390 0.15114 0.14952
 C133 C 1.11654 0.12689 0.12456
 C134 C 1.08402 0.14191 0.10616
 C135 C 1.06871 0.12033 0.07982
 C136 C 1.08507 0.08285 0.07199
 C137 C 1.11662 0.06712 0.09129
 C138 C 1.13257 0.08914 0.11716
 H139 H 1.28314 0.19278 0.20979
 H140 H 1.24896 0.14713 0.17312
 H141 H 1.13115 0.19574 0.20310
 H142 H 1.16397 0.23929 0.24164
 H143 H 1.07139 0.17093 0.11163
 H144 H 1.04421 0.13302 0.06545
 H145 H 1.12970 0.03826 0.08583
 H146 H 1.15756 0.07683 0.13119
 C147 C 1.24290 0.67583 0.71346
 C148 C 1.22044 0.65229 0.69241
 C149 C 1.18224 0.66491 0.68144
 C150 C 1.16603 0.70117 0.69250
 C151 C 1.18826 0.72473 0.71403
 C152 C 1.22780 0.71303 0.72485
 N153 N 1.16129 0.64068 0.65844
 N154 N 1.12896 0.65210 0.64394
 C155 C 1.10934 0.62767 0.62027
 C156 C 1.07847 0.64401 0.60093
 C157 C 1.06099 0.62183 0.57590
 C158 C 1.07383 0.58267 0.57012
 C159 C 1.10375 0.56582 0.59035
 C160 C 1.12159 0.58821 0.61511
 H161 H 1.27268 0.66457 0.72067
 H162 H 1.23330 0.62429 0.68409
 H163 H 1.13618 0.71140 0.68447
 H164 H 1.17358 0.75185 0.72164
 H165 H 1.06871 0.67432 0.60472
 H166 H 1.03771 0.63545 0.56085
 H167 H 1.11409 0.53567 0.58652
 H168 H 1.14526 0.57484 0.62989
 C169 C 0.68941 0.19330 0.73824
 C170 C 0.66405 0.17054 0.71835
 C171 C 0.67191 0.16727 0.68454
 C172 C 0.70569 0.18682 0.67092
 C173 C 0.73042 0.21010 0.69052
 C174 C 0.72192 0.21528 0.72452
 N175 N 0.64551 0.14434 0.66424
 N176 N 0.65714 0.13357 0.63547
 C177 C 0.63177 0.11257 0.61312
 C178 C 0.65030 0.09579 0.58498
 C179 C 0.62660 0.07738 0.56128
 C180 C 0.58360 0.07609 0.56498
 C181 C 0.56492 0.09254 0.59349
 C182 C 0.58888 0.11047 0.61753
 H183 H 0.68325 0.19436 0.76445
 H184 H 0.63856 0.15503 0.72939
 H185 H 0.71297 0.18427 0.64494
 H186 H 0.75671 0.22323 0.67863
 H187 H 0.68329 0.09740 0.58123
 H188 H 0.64191 0.06500 0.53964
 H189 H 0.53184 0.09186 0.59701
 H190 H 0.57389 0.12355 0.63901
 C191 C 0.69811 0.74350 0.20492
 C192 C 0.67380 0.72292 0.18297
 C193 C 0.68030 0.68269 0.17772
 C194 C 0.71200 0.66320 0.19426
 C195 C 0.73648 0.68375 0.21616
 C196 C 0.72894 0.72409 0.22299
 N197 N 0.65553 0.66279 0.15437
 N198 N 0.65890 0.62599 0.14891
 C199 C 0.63482 0.60687 0.12461
 C200 C 0.64033 0.56644 0.11909
 C201 C 0.61926 0.54757 0.09396
 C202 C 0.59248 0.56910 0.07392
 C203 C 0.58607 0.60942 0.08019
 C204 C 0.60703 0.62817 0.10530
 H205 H 0.69281 0.77484 0.20793
 H206 H 0.65007 0.73847 0.16972
 H207 H 0.71845 0.63228 0.18975
 H208 H 0.76189 0.66792 0.22691
 H209 H 0.66163 0.54973 0.13385
 H210 H 0.62467 0.51641 0.08972
 H211 H 0.56536 0.62668 0.06531
 H212 H 0.60209 0.65943 0.10917
 C213 C 0.81276 -0.24737 0.20128
 C214 C 0.83644 -0.22709 0.17835
 C215 C 0.83032 -0.18679 0.17410
 C216 C 0.79942 -0.16696 0.19249
 C217 C 0.77555 -0.18721 0.21537
 C218 C 0.78292 -0.22758 0.22124
 N219 N 0.85503 -0.16699 0.15027
 N220 N 0.85236 -0.13005 0.14605
 C221 C 0.87659 -0.11077 0.12157
 C222 C 0.87187 -0.07014 0.11769
 C223 C 0.89347 -0.05088 0.09279
 C224 C 0.92002 -0.07218 0.07132
 C225 C 0.92554 -0.11279 0.07586
 C226 C 0.90401 -0.13196 0.10076
 H227 H 0.81799 -0.27871 0.20376
 H228 H 0.85958 -0.24287 0.16376
 H229 H 0.79329 -0.13594 0.18886
 H230 H 0.75092 -0.17107 0.22786
 H231 H 0.85090 -0.05351 0.13365
 H232 H 0.88878 -0.01953 0.08995
 H233 H 0.94601 -0.12989 0.05982
 H234 H 0.90832 -0.16338 0.10336
 C235 C 0.82339 0.26312 0.72876
 C236 C 0.84849 0.28744 0.70978
 C237 C 0.83116 0.31534 0.68894
 C238 C 0.78826 0.31863 0.68704
 C239 C 0.76317 0.29387 0.70533
 C240 C 0.78007 0.26502 0.72617
 N241 N 0.85745 0.33898 0.66896
 N242 N 0.84428 0.37039 0.65569
 C243 C 0.86899 0.39263 0.63340
 C244 C 0.85468 0.42959 0.62341
 C245 C 0.87551 0.44996 0.59871
 C246 C 0.91058 0.43315 0.58321
 C247 C 0.92580 0.39675 0.59415
 C248 C 0.90534 0.37673 0.61921
 H249 H 0.83842 0.24358 0.74566
 H250 H 0.88161 0.28493 0.71169
 H251 H 0.77409 0.33991 0.67099
 H252 H 0.73012 0.29705 0.70318
 H253 H 0.82660 0.44206 0.63410
 H254 H 0.86302 0.47785 0.59062
 H255 H 0.95290 0.38326 0.58268
 H256 H 0.91692 0.34814 0.62644
 C257 C 0.30669 -0.25630 0.69863
 C258 C 0.33168 -0.23527 0.67711
 C259 C 0.33649 -0.19498 0.68140
 C260 C 0.31916 -0.17637 0.70925
 C261 C 0.29539 -0.19774 0.73157
 C262 C 0.28548 -0.23758 0.72528
 N263 N 0.35885 -0.17380 0.65696
 N264 N 0.35164 -0.13764 0.65129
 C265 C 0.37389 -0.11751 0.62608
 C266 C 0.35589 -0.08457 0.61133
 C267 C 0.37541 -0.06666 0.58461
 C268 C 0.41383 -0.08084 0.57296
 C269 C 0.43255 -0.11289 0.58867
 C270 C 0.41256 -0.13136 0.61476
 H271 H 0.30431 -0.28722 0.69371
 H272 H 0.34627 -0.25028 0.65631
 H273 H 0.32438 -0.14548 0.71390
 H274 H 0.28474 -0.18259 0.75361
 H275 H 0.32608 -0.07363 0.61985
 H276 H 0.36051 -0.04183 0.57301
 H277 H 0.46215 -0.12438 0.58020
 H278 H 0.42716 -0.15661 0.62595
 C279 C 0.29818 0.31071 0.24265
 C280 C 0.32031 0.33760 0.22374
 C281 C 0.32027 0.33499 0.18948
 C282 C 0.29623 0.30645 0.17434
 C283 C 0.27358 0.28015 0.19304
 C284 C 0.27537 0.28047 0.22771
 N285 N 0.34489 0.36092 0.17013
 N286 N 0.35560 0.35077 0.14104
 C287 C 0.37871 0.37469 0.11905
 C288 C 0.39581 0.35670 0.09097
 C289 C 0.41627 0.37881 0.06745
 C290 C 0.41936 0.41975 0.07124
 C291 C 0.40266 0.43796 0.09975
 C292 C 0.38260 0.41546 0.12372
 H293 H 0.29928 0.31305 0.26915
 H294 H 0.33822 0.35988 0.23580
 H295 H 0.29459 0.30471 0.14783
 H296 H 0.25455 0.26007 0.17970
 H297 H 0.39280 0.32534 0.08714
 H298 H 0.42877 0.36386 0.04581
 H299 H 0.40477 0.46944 0.10331
 H300 H 0.36926 0.42991 0.14527
 C301 C 0.79828 0.17978 -0.24616
 C302 C 0.82056 0.15305 -0.22706
 C303 C 0.81758 0.15491 -0.19278
 C304 C 0.78977 0.18179 -0.17793
 C305 C 0.76698 0.20785 -0.19688
 C306 C 0.77269 0.20925 -0.23136
 N307 N 0.84354 0.13045 -0.17312
 N308 N 0.85290 0.14192 -0.14441
 C309 C 0.87758 0.11971 -0.12225
 C310 C 0.89396 0.13954 -0.09546
 C311 C 0.91613 0.11922 -0.07190
 C312 C 0.92163 0.07822 -0.07425
 C313 C 0.90554 0.05815 -0.10142
 C314 C 0.88387 0.07885 -0.12551
 H315 H 0.80210 0.17841 -0.27262
 H316 H 0.84124 0.13188 -0.23896
 H317 H 0.78563 0.18265 -0.15149
 H318 H 0.74511 0.22681 -0.18394
 H319 H 0.88914 0.17099 -0.09267
 H320 H 0.92800 0.13558 -0.05129
 H321 H 0.90931 0.02655 -0.10382
 H322 H 0.87112 0.06295 -0.14599
 C323 C 0.82519 0.73088 0.27395
 C324 C 0.84785 0.70871 0.29612
 C325 C 0.82946 0.67835 0.31352
 C326 C 0.78761 0.67085 0.30923
 C327 C 0.76469 0.69338 0.28744
 C328 C 0.78339 0.72273 0.26822
 N329 N 0.85333 0.65716 0.33680
 N330 N 0.84082 0.62571 0.35001
 C331 C 0.86414 0.60613 0.37461
 C332 C 0.85156 0.56933 0.38567
 C333 C 0.87212 0.55085 0.41129
 C334 C 0.90515 0.56941 0.42652
 C335 C 0.91833 0.60589 0.41484
 C336 C 0.89814 0.62404 0.38899
 H337 H 0.84046 0.75507 0.26212
 H338 H 0.87982 0.71554 0.30008
 H339 H 0.77240 0.64827 0.32326
 H340 H 0.73213 0.68782 0.28541
 H341 H 0.82537 0.55528 0.37477
 H342 H 0.86135 0.52273 0.41987
 H343 H 0.94391 0.62065 0.42601
 H344 H 0.90842 0.65251 0.38088
 C345 C 0.32302 0.22753 0.26956
 C346 C 0.34716 0.20444 0.29020
 C347 C 0.32891 0.17810 0.31191
 C348 C 0.28610 0.17367 0.31175
 C349 C 0.26191 0.19660 0.29113
 C350 C 0.27957 0.22550 0.27075
 N351 N 0.35425 0.15731 0.33460
 N352 N 0.33903 0.13455 0.35609
 C353 C 0.36372 0.11494 0.37988
 C354 C 0.34423 0.09189 0.40357
 C355 C 0.36688 0.07441 0.42850
 C356 C 0.40959 0.07967 0.43009
 C357 C 0.42933 0.10198 0.40577
 C358 C 0.40657 0.11960 0.38088
 H359 H 0.33899 0.24667 0.25285
 H360 H 0.38028 0.20744 0.28956
 H361 H 0.27121 0.15299 0.32793
 H362 H 0.22888 0.19289 0.29191
 H363 H 0.31124 0.08806 0.40303
 H364 H 0.35088 0.05711 0.44674
 H365 H 0.46223 0.10637 0.40629
 H366 H 0.42234 0.13727 0.36279
 C367 C 0.26141 0.67883 -0.21496
 C368 C 0.28246 0.65521 -0.19289
 C369 C 0.32200 0.66473 -0.18326
 C370 C 0.34078 0.69813 -0.19635
 C371 C 0.32002 0.72163 -0.21897
 C372 C 0.27996 0.71219 -0.22918
 N373 N 0.34145 0.64075 -0.15919
 N374 N 0.37447 0.65043 -0.14515
 C375 C 0.39251 0.62618 -0.12051
 C376 C 0.42382 0.64142 -0.10128
 C377 C 0.43985 0.61954 -0.07545
 C378 C 0.42512 0.58176 -0.06878
 C379 C 0.39474 0.56594 -0.08885
 C380 C 0.37832 0.58806 -0.11437
 H381 H 0.22995 0.67151 -0.22034
 H382 H 0.26737 0.62994 -0.18246
 H383 H 0.37130 0.70629 -0.18889
 H384 H 0.33528 0.74757 -0.22780
 H385 H 0.43509 0.67068 -0.10583
 H386 H 0.46360 0.63227 -0.06057
 H387 H 0.38296 0.53686 -0.08434
 H388 H 0.35430 0.57552 -0.12905
 C389 C 1.20819 -0.19823 -0.24469
 C390 C 1.18604 -0.17072 -0.22525
 C391 C 1.18114 -0.17647 -0.19152
 C392 C 1.19863 -0.21012 -0.17750
 C393 C 1.22132 -0.23711 -0.19659
 C394 C 1.22719 -0.23199 -0.23086
 N395 N 1.15926 -0.14790 -0.17145
 N396 N 1.14711 -0.15715 -0.14271
 C397 C 1.12710 -0.13080 -0.11979
 C398 C 1.10884 -0.14708 -0.09194
 C399 C 1.09164 -0.12305 -0.06737
 C400 C 1.09293 -0.08190 -0.06985
 C401 C 1.11083 -0.06530 -0.09811
 C402 C 1.12773 -0.08969 -0.12311
 H403 H 1.21158 -0.19247 -0.27070
 H404 H 1.17275 -0.14488 -0.23653
 H405 H 1.19560 -0.21524 -0.15137
 H406 H 1.23449 -0.26145 -0.18351
 H407 H 1.10841 -0.17870 -0.08909
 H408 H 1.07799 -0.13687 -0.04605
 H409 H 1.11205 -0.03368 -0.10069
 H410 H 1.14212 -0.07657 -0.14444
 C411 C 1.19490 0.30548 0.25658
 C412 C 1.16994 0.33119 0.27558
 C413 C 1.17102 0.33000 0.30984
 C414 C 1.19848 0.30393 0.32486
 C415 C 1.22403 0.27902 0.30606
 C416 C 1.22179 0.27793 0.27138
 N417 N 1.14499 0.35572 0.32938
 N418 N 1.13549 0.34628 0.35867
 C419 C 1.11209 0.37085 0.38095
 C420 C 1.09534 0.35362 0.40902
 C421 C 1.07572 0.37667 0.43319
 C422 C 1.07327 0.41774 0.43007
 C423 C 1.08941 0.43513 0.40150
 C424 C 1.10850 0.41175 0.37690
 H425 H 1.19330 0.30702 0.23008
 H426 H 1.14945 0.35170 0.26359
 H427 H 1.20098 0.30351 0.35133
 H428 H 1.24600 0.26161 0.31937
 H429 H 1.09819 0.32216 0.41244
 H430 H 1.06359 0.36234 0.45485
 H431 H 1.08783 0.46672 0.39846
 H432 H 1.12169 0.42563 0.35544
 C433 C 0.75231 -0.19638 0.28864
 C434 C 0.73125 -0.17291 0.31184
 C435 C 0.68930 -0.17799 0.31782
 C436 C 0.66862 -0.20755 0.30083
 C437 C 0.68967 -0.23126 0.27772
 C438 C 0.73166 -0.22506 0.27012
 N439 N 0.66882 -0.15369 0.34205
 N440 N 0.63023 -0.15512 0.34749
 C441 C 0.61031 -0.13143 0.37245
 C442 C 0.56770 -0.13401 0.37707
 C443 C 0.54771 -0.11282 0.40240
 C444 C 0.57028 -0.08888 0.42360
 C445 C 0.61291 -0.08560 0.41840
 C446 C 0.63278 -0.10666 0.39303
 H447 H 0.78495 -0.19197 0.28490
 H448 H 0.74774 -0.15077 0.32535
 H449 H 0.63638 -0.21283 0.30584
 H450 H 0.67291 -0.25486 0.26648
 H451 H 0.55007 -0.15295 0.36133
 H452 H 0.51480 -0.11582 0.40581
 H453 H 0.63100 -0.06716 0.43424
 H454 H 0.66576 -0.10408 0.38988
 C455 C 0.74961 0.29557 -0.21060
 C456 C 0.73056 0.32386 -0.19029
 C457 C 0.68790 0.32852 -0.18984
 C458 C 0.66446 0.30606 -0.21147
 C459 C 0.68361 0.27838 -0.23263
 C460 C 0.72651 0.27107 -0.23140
 N461 N 0.66926 0.35502 -0.16624
 N462 N 0.63176 0.35231 -0.15726
 C463 C 0.61384 0.37754 -0.13239
 C464 C 0.57950 0.36448 -0.11478
 C465 C 0.56412 0.38594 -0.08778
 C466 C 0.58196 0.42165 -0.07861
 C467 C 0.61516 0.43586 -0.09731
 C468 C 0.63141 0.41366 -0.12379
 H469 H 0.78273 0.29205 -0.20958
 H470 H 0.74906 0.34130 -0.17399
 H471 H 0.63138 0.31009 -0.21215
 H472 H 0.66439 0.26326 -0.24978
 H473 H 0.56579 0.33668 -0.12110
 H474 H 0.53868 0.37422 -0.07367
 H475 H 0.62949 0.46328 -0.09070
 H476 H 0.65792 0.42436 -0.13722
 C477 C 1.19230 0.21053 -0.24274
 C478 C 1.16647 0.18651 -0.22406
 C479 C 1.16950 0.18586 -0.18988
 C480 C 1.19685 0.21119 -0.17446
 C481 C 1.22189 0.23576 -0.19290
 C482 C 1.22180 0.23460 -0.22763
 N483 N 1.14496 0.15954 -0.17086
 N484 N 1.15747 0.14812 -0.14305
 C485 C 1.13430 0.12373 -0.12143
 C486 C 1.15472 0.10621 -0.09532
 C487 C 1.13295 0.08516 -0.07174
 C488 C 1.09002 0.08196 -0.07348
 C489 C 1.06951 0.09882 -0.10018
 C490 C 1.09159 0.11941 -0.12419
 H491 H 1.18995 0.20977 -0.26923
 H492 H 1.14490 0.16766 -0.23628
 H493 H 1.19854 0.21229 -0.14794
 H494 H 1.24096 0.25556 -0.17931
 H495 H 1.18760 0.10954 -0.09292
 H496 H 1.14964 0.07254 -0.05149
 H497 H 1.03643 0.09673 -0.10214
 H498 H 1.07522 0.13306 -0.14412
 C499 C 1.19016 0.69753 0.25535
 C500 C 1.16247 0.67417 0.27307
 C501 C 1.16039 0.67648 0.30736
 C502 C 1.18433 0.70416 0.32352
 C503 C 1.21113 0.72803 0.30602
 C504 C 1.21707 0.72374 0.27146
 N505 N 1.13426 0.65084 0.32585
 N506 N 1.14406 0.64172 0.35497
 C507 C 1.11986 0.61820 0.37666
 C508 C 1.13943 0.60152 0.40352
 C509 C 1.11700 0.58160 0.42737
 C510 C 1.07404 0.57868 0.42533
 C511 C 1.05422 0.59481 0.39795
 C512 C 1.07710 0.61426 0.37355
 H513 H 1.19118 0.69465 0.22884
 H514 H 1.14337 0.65365 0.26009
 H515 H 1.18181 0.70783 0.34993
 H516 H 1.22647 0.75016 0.32024
 H517 H 1.17231 0.60461 0.40627
 H518 H 1.13330 0.56958 0.44806
 H519 H 1.02116 0.59299 0.39575
 H520 H 1.06134 0.62739 0.35308
 C521 C 0.68174 0.21078 0.26045
 C522 C 0.65495 0.18762 0.27903
 C523 C 0.66693 0.17304 0.30939
 C524 C 0.70612 0.18156 0.32086
 C525 C 0.73233 0.20573 0.30295
 C526 C 0.72038 0.22229 0.27273
 N527 N 0.63882 0.15072 0.32894
 N528 N 0.65208 0.12505 0.34887
 C529 C 0.62572 0.10460 0.37116
 C530 C 0.63870 0.06801 0.38284
 C531 C 0.61596 0.04904 0.40721
 C532 C 0.58051 0.06711 0.42114
 C533 C 0.56715 0.10366 0.40913
 C534 C 0.58933 0.12208 0.38396
 H535 H 0.67185 0.21987 0.23642
 H536 H 0.62503 0.18060 0.26952
 H537 H 0.71615 0.17034 0.34424
 H538 H 0.76170 0.21113 0.31360
 H539 H 0.66691 0.05446 0.37338
 H540 H 0.62708 0.02098 0.41613
 H541 H 0.53996 0.11816 0.41952
 H542 H 0.57915 0.15066 0.37555
 C543 C 0.69356 0.70702 -0.23993
 C544 C 0.66914 0.68179 -0.22117
 C545 C 0.67018 0.68319 -0.18692
 C546 C 0.69576 0.71027 -0.17168
 C547 C 0.71929 0.73608 -0.19025
 C548 C 0.71819 0.73607 -0.22510
 N549 N 0.64576 0.65686 -0.16773
 N550 N 0.65660 0.64795 -0.13882
 C551 C 0.63309 0.62380 -0.11719
 C552 C 0.65304 0.60684 -0.09061
 C553 C 0.63103 0.58565 -0.06727
 C554 C 0.58820 0.58186 -0.06960
 C555 C 0.56803 0.59858 -0.09652
 C556 C 0.59044 0.61916 -0.12041
 H557 H 0.69353 0.70356 -0.26639
 H558 H 0.65019 0.66045 -0.23337
 H559 H 0.69742 0.71170 -0.14517
 H560 H 0.73863 0.75535 -0.17643
 H561 H 0.68583 0.61049 -0.08778
 H562 H 0.64744 0.57324 -0.04680
 H563 H 0.53504 0.59607 -0.09889
 H564 H 0.57440 0.63250 -0.14065
 C565 C 0.75267 -0.17897 -0.20507
 C566 C 0.77510 -0.15629 -0.18333
 C567 C 0.81677 -0.16428 -0.17867
 C568 C 0.83603 -0.19553 -0.19598
 C569 C 0.81364 -0.21846 -0.21781
 C570 C 0.77151 -0.21025 -0.22324
 N571 N 0.83813 -0.14111 -0.15520
 N572 N 0.87626 -0.14581 -0.14958
 C573 C 0.89610 -0.12286 -0.12501
 C574 C 0.93794 -0.12940 -0.11917
 C575 C 0.95732 -0.10915 -0.09386
 C576 C 0.93487 -0.08216 -0.07393
 C577 C 0.89320 -0.07484 -0.08048
 C578 C 0.87397 -0.09497 -0.10577
 H579 H 0.72014 -0.17249 -0.20742
 H580 H 0.75979 -0.13263 -0.16970
 H581 H 0.86819 -0.20262 -0.19229
 H582 H 0.82950 -0.24289 -0.22988
 H583 H 0.95534 -0.15077 -0.13385
 H584 H 0.98954 -0.11526 -0.08942
 H585 H 0.87523 -0.05398 -0.06571
 H586 H 0.84162 -0.08922 -0.10985
 C587 C 0.81198 0.25768 0.29044
 C588 C 0.83606 0.27799 0.31265
 C589 C 0.82441 0.31551 0.32347
 C590 C 0.78852 0.33303 0.31128
 C591 C 0.76453 0.31297 0.28854
 C592 C 0.77544 0.27448 0.27759
 N593 N 0.84915 0.33460 0.34737
 N594 N 0.83751 0.36599 0.36225
 C595 C 0.86234 0.38425 0.38657
 C596 C 0.84478 0.41390 0.40653
 C597 C 0.86732 0.43068 0.43178
 C598 C 0.90816 0.41848 0.43713
 C599 C 0.92623 0.38954 0.41644
 C600 C 0.90339 0.37230 0.39149
 H601 H 0.82183 0.22812 0.28365
 H602 H 0.86358 0.26403 0.32201
 H603 H 0.77899 0.36227 0.31928
 H604 H 0.73761 0.32827 0.28006
 H605 H 0.81325 0.42341 0.40294
 H606 H 0.85272 0.45315 0.44721
 H607 H 0.95769 0.37972 0.41996
 H608 H 0.91771 0.34956 0.37622
 C609 C 0.29913 -0.24785 0.29566
 C610 C 0.32352 -0.22748 0.31767
 C611 C 0.32296 -0.18651 0.31850
 C612 C 0.29911 -0.16591 0.29579
 C613 C 0.27476 -0.18620 0.27345
 C614 C 0.27221 -0.22788 0.27402
 N615 N 0.34608 -0.16687 0.34320
 N616 N 0.34525 -0.12971 0.34724
 C617 C 0.36751 -0.11107 0.37304
 C618 C 0.36365 -0.07032 0.37757
 C619 C 0.38301 -0.05168 0.40376
 C620 C 0.40661 -0.07365 0.42591
 C621 C 0.41127 -0.11442 0.42082
 C622 C 0.39187 -0.13298 0.39468
 H623 H 0.30006 -0.27969 0.29626
 H624 H 0.34237 -0.24377 0.33466
 H625 H 0.29923 -0.13410 0.29532
 H626 H 0.25841 -0.16866 0.25581
 H627 H 0.34500 -0.05307 0.36109
 H628 H 0.37901 -0.02020 0.40695
 H629 H 0.42948 -0.13209 0.43731
 H630 H 0.39550 -0.16450 0.39170
 C631 C 0.31013 0.26454 -0.20940
 C632 C 0.33662 0.28455 -0.18886
 C633 C 0.33349 0.32527 -0.18539
 C634 C 0.30488 0.34623 -0.20411
 C635 C 0.27889 0.32633 -0.22545
 C636 C 0.27971 0.28477 -0.22745
 N637 N 0.35894 0.34421 -0.16196
 N638 N 0.35119 0.37869 -0.15092
 C639 C 0.37645 0.39624 -0.12655
 C640 C 0.36058 0.42778 -0.10776
 C641 C 0.38282 0.44278 -0.08152
 C642 C 0.42179 0.42700 -0.07423
 C643 C 0.43845 0.39652 -0.09405
 C644 C 0.41583 0.38098 -0.11982
 H645 H 0.31261 0.23277 -0.21063
 H646 H 0.35885 0.26809 -0.17476
 H647 H 0.30275 0.37797 -0.20234
 H648 H 0.25849 0.34398 -0.24005
 H649 H 0.33029 0.43978 -0.11270
 H650 H 0.36934 0.46640 -0.06669
 H651 H 0.46833 0.38380 -0.08896
 H652 H 0.42883 0.35673 -0.13416
 C653 C 1.18895 -0.20057 0.24648
 C654 C 1.16286 -0.17687 0.22768
 C655 C 1.16528 -0.17843 0.19341
 C656 C 1.19220 -0.20571 0.17815
 C657 C 1.21747 -0.23002 0.19669
 C658 C 1.21861 -0.22656 0.23150
 N659 N 1.14053 -0.15242 0.17411
 N660 N 1.15313 -0.14265 0.14561
 C661 C 1.13020 -0.11855 0.12361
 C662 C 1.15146 -0.10143 0.09746
 C663 C 1.13039 -0.08058 0.07355
 C664 C 1.08724 -0.07720 0.07487
 C665 C 1.06575 -0.09382 0.10152
 C666 C 1.08717 -0.11415 0.12595
 H667 H 1.18661 -0.19809 0.27298
 H668 H 1.14147 -0.15660 0.23989
 H669 H 1.19326 -0.20869 0.15165
 H670 H 1.23560 -0.25170 0.18308
 H671 H 1.18459 -0.10484 0.09532
 H672 H 1.14790 -0.06823 0.05339
 H673 H 1.03250 -0.09166 0.10314
 H674 H 1.07014 -0.12755 0.14588
 C675 C 1.19120 0.31089 0.74566
 C676 C 1.16407 0.33414 0.72739
 C677 C 1.16627 0.33334 0.69307
 C678 C 1.19432 0.30753 0.67726
 C679 C 1.22065 0.28382 0.69530
 C680 C 1.22131 0.28630 0.73000
 N681 N 1.13984 0.35818 0.67420
 N682 N 1.15092 0.36766 0.64525
 C683 C 1.12607 0.38996 0.62335
 C684 C 1.14508 0.40532 0.59538
 C685 C 1.12183 0.42370 0.57139
 C686 C 1.07879 0.42638 0.57464
 C687 C 1.05962 0.41179 0.60319
 C688 C 1.08319 0.39382 0.62756
 H689 H 1.18909 0.31238 0.77221
 H690 H 1.14190 0.35327 0.73999
 H691 H 1.19539 0.30514 0.65072
 H692 H 1.23973 0.26325 0.68138
 H693 H 1.17808 0.40227 0.59185
 H694 H 1.13752 0.43470 0.54975
 H695 H 1.02650 0.41359 0.60634
 H696 H 1.06791 0.38175 0.64894
 C697 C 0.73391 -0.17021 0.72209
 C698 C 0.71243 -0.14549 0.70107
 C699 C 0.67384 -0.15578 0.68999
 C700 C 0.65564 -0.18995 0.70190
 C701 C 0.67680 -0.21452 0.72340
 C702 C 0.71766 -0.20657 0.73284
 N703 N 0.65467 -0.13203 0.66561
 N704 N 0.62322 -0.14342 0.65026
 C705 C 0.60520 -0.12061 0.62475
 C706 C 0.57551 -0.13789 0.60512
 C707 C 0.55982 -0.11783 0.57823
 C708 C 0.57320 -0.07979 0.57084
 C709 C 0.60197 -0.06188 0.59126
 C710 C 0.61810 -0.08224 0.61791
 H711 H 0.76395 -0.16067 0.72950
 H712 H 0.72657 -0.11873 0.69257
 H713 H 0.62505 -0.19789 0.69440
 H714 H 0.65994 -0.23926 0.73197
 H715 H 0.56536 -0.16743 0.61016
 H716 H 0.53752 -0.13227 0.56301
 H717 H 0.61268 -0.03252 0.58620
 H718 H 0.64096 -0.06824 0.63286
 C719 C 0.68584 0.29655 0.24393
 C720 C 0.66010 0.31934 0.22411
 C721 C 0.67074 0.32592 0.19125
 C722 C 0.70755 0.30955 0.17853
 C723 C 0.73279 0.28626 0.19795
 C724 C 0.72262 0.27866 0.23125
 N725 N 0.64370 0.34816 0.17066
 N726 N 0.65676 0.36078 0.14312
 C727 C 0.63189 0.38116 0.11992
 C728 C 0.65183 0.39907 0.09352
 C729 C 0.62932 0.41664 0.06869
 C730 C 0.58609 0.41614 0.06946
 C731 C 0.56583 0.39867 0.09631
 C732 C 0.58863 0.38137 0.12154
 H733 H 0.67649 0.29210 0.26926
 H734 H 0.63180 0.33180 0.23439
 H735 H 0.71649 0.31392 0.15311
 H736 H 0.75982 0.27407 0.18584
 H737 H 0.68513 0.39891 0.09196
 H738 H 0.64592 0.42997 0.04849
 H739 H 0.53254 0.39801 0.09759
 H740 H 0.57263 0.36734 0.14168
 C741 C 0.81572 0.24190 0.21806
 C742 C 0.84201 0.22104 0.19659
 C743 C 0.83185 0.18359 0.18563
 C744 C 0.79520 0.16668 0.19695
 C745 C 0.76897 0.18727 0.21890
 C746 C 0.77866 0.22546 0.23011
 N747 N 0.85839 0.16430 0.16191
 N748 N 0.84827 0.13299 0.14701
 C749 C 0.87444 0.11468 0.12250
 C750 C 0.85841 0.08501 0.10277
 C751 C 0.88190 0.06866 0.07693
 C752 C 0.92223 0.08131 0.07072
 C753 C 0.93891 0.11010 0.09130
 C754 C 0.91508 0.12691 0.11687
 H755 H 0.82389 0.27165 0.22462
 H756 H 0.86989 0.23464 0.18767
 H757 H 0.78661 0.13771 0.18858
 H758 H 0.74089 0.17315 0.22639
 H759 H 0.82720 0.07531 0.10690
 H760 H 0.86835 0.04634 0.06159
 H761 H 0.96992 0.12030 0.08712
 H762 H 0.92822 0.14970 0.13195
 C763 C 0.79731 0.76037 0.70482
 C764 C 0.82274 0.73984 0.68245
 C765 C 0.82585 0.69903 0.68339
 C766 C 0.80516 0.67889 0.70838
 C767 C 0.78060 0.69953 0.73150
 C768 C 0.77387 0.74074 0.72913
 N769 N 0.85008 0.67894 0.65862
 N770 N 0.84475 0.64294 0.65141
 C771 C 0.86860 0.62351 0.62602
 C772 C 0.85268 0.59021 0.61075
 C773 C 0.87359 0.57247 0.58412
 C774 C 0.91148 0.58709 0.57300
 C775 C 0.92828 0.61959 0.58918
 C776 C 0.90673 0.63801 0.61525
 H777 H 0.79706 0.79180 0.70290
 H778 H 0.83958 0.75586 0.66385
 H779 H 0.80854 0.64729 0.71036
 H780 H 0.76756 0.68266 0.75131
 H781 H 0.82335 0.57878 0.61883
 H782 H 0.86006 0.54739 0.57213
 H783 H 0.95748 0.63136 0.58111
 H784 H 0.91973 0.66359 0.62689
 C785 C 0.30905 0.25440 0.70830
 C786 C 0.33517 0.23337 0.68677
 C787 C 0.33385 0.19244 0.68527
 C788 C 0.30732 0.17250 0.70670
 C789 C 0.28113 0.19346 0.72836
 C790 C 0.28000 0.23505 0.72847
 N791 N 0.35821 0.17209 0.66073
 N792 N 0.35733 0.13494 0.65710
 C793 C 0.37983 0.11504 0.63121
 C794 C 0.37589 0.07436 0.62767
 C795 C 0.39423 0.05456 0.60087
 C796 C 0.41680 0.07530 0.57710
 C797 C 0.42202 0.11594 0.58136
 C798 C 0.40363 0.13569 0.60817
 H799 H 0.31036 0.28619 0.70842
 H800 H 0.35586 0.24909 0.67064
 H801 H 0.30646 0.14070 0.70648
 H802 H 0.26212 0.17658 0.74478
 H803 H 0.35765 0.05814 0.64526
 H804 H 0.38993 0.02319 0.59838
 H805 H 0.43948 0.13262 0.56357
 H806 H 0.40720 0.16718 0.61043
 C807 C 0.30507 0.74554 0.21188
 C808 C 0.33327 0.72552 0.19135
 C809 C 0.33358 0.68460 0.18949
 C810 C 0.30684 0.66364 0.21001
 C811 C 0.27912 0.68356 0.23132
 C812 C 0.27574 0.72528 0.23148
 N813 N 0.36044 0.66535 0.16587
 N814 N 0.35550 0.62986 0.15678
 C815 C 0.38136 0.61129 0.13209
 C816 C 0.36723 0.57768 0.11611
 C817 C 0.38950 0.56110 0.08964
 C818 C 0.42698 0.57728 0.07923
 C819 C 0.44227 0.60985 0.09632
 C820 C 0.41937 0.62707 0.12233
 H821 H 0.30523 0.77738 0.21179
 H822 H 0.35417 0.74209 0.17602
 H823 H 0.30754 0.63181 0.20973
 H824 H 0.26082 0.66567 0.24750
 H825 H 0.33807 0.56519 0.12340
 H826 H 0.37714 0.53588 0.07700
 H827 H 0.47108 0.62285 0.08877
 H828 H 0.43103 0.65293 0.13448
   
