data_POSCAR
  _audit_creation_date              2014-09-24
  _audit_creation_method            'ToBaCCo'
  _symmetry_space_group_name_H-M    'P1'
  _symmetry_Int_Tables_number       1
  _symmetry_cell_setting            triclinic
  loop_
  _symmetry_equiv_pos_as_xyz
 x,y,z
_cell_length_a 39.5925
_cell_length_b 39.5436
_cell_length_c 39.6660
_cell_angle_alpha 89.971800
_cell_angle_beta 89.953800
_cell_angle_gamma 91.309200
loop_
  _atom_site_label
  _atom_site_type_symbol
  _atom_site_fract_x
  _atom_site_fract_y
  _atom_site_fract_z
C1 C 0.26705 0.24606 0.22139
 C2 C 0.24221 0.27089 0.22261
 C3 C 0.21712 0.27008 0.24768
 C4 C 0.21689 0.24381 0.27153
 C5 C 0.24142 0.21872 0.27074
 C6 C 0.26641 0.22006 0.24558
 H7 H 0.24257 0.29109 0.20415
 H8 H 0.19765 0.24303 0.29097
 H9 H 0.28553 0.20091 0.24496
 C10 C 0.73503 -0.24843 0.21844
 C11 C 0.75997 -0.27342 0.22037
 C12 C 0.78468 -0.27320 0.24609
 C13 C 0.78399 -0.24697 0.27014
 C14 C 0.75976 -0.22173 0.26871
 C15 C 0.73559 -0.22256 0.24292
 H16 H 0.76003 -0.29332 0.20180
 H17 H 0.80288 -0.24534 0.28979
 H18 H 0.71653 -0.20340 0.24294
 C19 C 0.72046 0.24767 0.77463
 C20 C 0.74670 0.27220 0.77376
 C21 C 0.77161 0.27221 0.74822
 C22 C 0.76952 0.24646 0.72357
 C23 C 0.74375 0.22143 0.72437
 C24 C 0.71931 0.22231 0.74994
 H25 H 0.74671 0.29197 0.79258
 H26 H 0.78846 0.24502 0.70401
 H27 H 0.69922 0.20327 0.75054
 C28 C 0.27617 -0.24705 0.77996
 C29 C 0.27686 -0.22259 0.75438
 C30 C 0.25175 -0.22241 0.72944
 C31 C 0.22564 -0.24713 0.73036
 C32 C 0.22396 -0.27185 0.75610
 C33 C 0.24962 -0.27119 0.78083
 H34 H 0.29718 -0.20380 0.75375
 H35 H 0.20620 -0.24629 0.71127
 H36 H 0.24999 -0.29026 0.80036
 C37 C 0.72677 -0.25249 0.76999
 C38 C 0.75125 -0.27759 0.77121
 C39 C 0.77676 -0.27963 0.74639
 C40 C 0.77686 -0.25556 0.72002
 C41 C 0.75266 -0.23015 0.71859
 C42 C 0.72770 -0.22890 0.74362
 H43 H 0.74964 -0.29597 0.79136
 H44 H 0.79642 -0.25552 0.70099
 H45 H 0.70904 -0.20932 0.74271
 C46 C 0.27197 0.25044 0.77132
 C47 C 0.27077 0.22627 0.74538
 C48 C 0.24542 0.22688 0.72063
 C49 C 0.22110 0.25216 0.72201
 C50 C 0.22187 0.27657 0.74775
 C51 C 0.24746 0.27554 0.77222
 H52 H 0.28950 0.20675 0.74460
 H53 H 0.20137 0.25270 0.70313
 H54 H 0.24813 0.29418 0.79221
 C55 C 0.28500 -0.25201 0.22609
 C56 C 0.25962 -0.27770 0.22592
 C57 C 0.23403 -0.27890 0.25050
 C58 C 0.23401 -0.25438 0.27603
 C59 C 0.25901 -0.22873 0.27711
 C60 C 0.28415 -0.22763 0.25210
 H61 H 0.25875 -0.29638 0.20602
 H62 H 0.21441 -0.25521 0.29509
 H63 H 0.30357 -0.20803 0.25374
 C64 C 0.71576 0.25285 0.22662
 C65 C 0.74060 0.27879 0.22781
 C66 C 0.76476 0.27985 0.25375
 C67 C 0.76382 0.25461 0.27868
 C68 C 0.73921 0.22850 0.27794
 C69 C 0.71524 0.22789 0.25186
 H70 H 0.74123 0.29809 0.20842
 H71 H 0.78243 0.25520 0.29868
 H72 H 0.69620 0.20781 0.25112
 O73 O 0.21898 0.02724 0.46582
 O74 O 0.22277 -0.03608 0.53362
 O75 O 0.21900 0.02954 0.53147
 O76 O 0.22337 -0.03824 0.46793
 O77 O 0.27898 -0.03348 0.46818
 O78 O 0.27461 0.03421 0.53144
 O79 O 0.27839 -0.03150 0.53364
 O80 O 0.27458 0.03207 0.46583
 Cu81 Cu 0.21546 -0.00486 0.49972
 Cu82 Cu 0.28221 0.00082 0.49980
 C83 C 0.24609 0.04049 0.45415
 C84 C 0.25120 -0.04471 0.54521
 C85 C 0.24611 0.04350 0.54233
 C86 C 0.25198 -0.04745 0.45717
 O87 O 0.71781 0.02767 0.53135
 O88 O 0.72271 -0.03571 0.46346
 O89 O 0.72223 -0.03800 0.52906
 O90 O 0.71759 0.02978 0.46582
 O91 O 0.77317 0.03508 0.46595
 O92 O 0.77781 -0.03282 0.52929
 O93 O 0.77827 -0.03029 0.46372
 O94 O 0.77340 0.03268 0.53159
 Cu95 Cu 0.71451 -0.00461 0.49742
 Cu96 Cu 0.78122 0.00169 0.49768
 C97 C 0.74483 0.04105 0.54307
 C98 C 0.75138 -0.04380 0.45193
 C99 C 0.75077 -0.04706 0.54001
 C100 C 0.74456 0.04403 0.45501
 O101 O 0.46069 0.22179 0.03134
 O102 O 0.52702 0.22200 -0.03420
 O103 O 0.52654 0.22142 0.03136
 O104 O 0.46123 0.22087 -0.03428
 O105 O 0.46203 0.27665 -0.03465
 O106 O 0.52766 0.27721 0.03146
 O107 O 0.52772 0.27779 -0.03421
 O108 O 0.46192 0.27757 0.03107
 Cu109 Cu 0.49376 0.21594 -0.00141
 Cu110 Cu 0.49492 0.28289 -0.00158
 C111 C 0.44998 0.24975 0.04243
 C112 C 0.53869 0.25004 -0.04544
 C113 C 0.53836 0.24929 0.04267
 C114 C 0.45045 0.24856 -0.04580
 O115 O 0.53919 0.72265 0.03089
 O116 O 0.47222 0.72316 -0.03295
 O117 O 0.53779 0.72378 -0.03467
 O118 O 0.47339 0.72361 0.03264
 O119 O 0.47509 0.77939 0.03280
 O120 O 0.53910 0.77956 -0.03422
 O121 O 0.47330 0.77894 -0.03288
 O122 O 0.54081 0.77843 0.03138
 Cu123 Cu 0.50550 0.71772 -0.00101
 Cu124 Cu 0.50720 0.78467 -0.00070
 C125 C 0.55157 0.75033 0.04207
 C126 C 0.46128 0.75099 -0.04395
 C127 C 0.54944 0.75179 -0.04597
 C128 C 0.46322 0.75158 0.04422
 O129 O 0.03151 0.46462 0.22429
 O130 O -0.03129 0.53212 0.22401
 O131 O 0.03443 0.53055 0.22254
 O132 O -0.03427 0.46633 0.22538
 O133 O -0.03341 0.46793 0.28095
 O134 O 0.03584 0.53158 0.27811
 O135 O -0.02975 0.53360 0.27957
 O136 O 0.03235 0.46586 0.27986
 Cu137 Cu 0.00001 0.49826 0.21848
 Cu138 Cu 0.00139 0.49984 0.28518
 C139 C 0.04268 0.45368 0.25218
 C140 C -0.04126 0.54443 0.25180
 C141 C 0.04693 0.54206 0.24982
 C142 C -0.04575 0.45626 0.25366
 O143 O 0.03258 0.53356 0.72572
 O144 O -0.03295 0.46601 0.72222
 O145 O -0.03311 0.53190 0.72403
 O146 O 0.03288 0.46760 0.72434
 O147 O 0.03081 0.46598 0.77987
 O148 O -0.03454 0.53046 0.77959
 O149 O -0.03488 0.46480 0.77778
 O150 O 0.03112 0.53183 0.78127
 Cu151 Cu 0.00004 0.49988 0.71850
 Cu152 Cu -0.00200 0.49811 0.78518
 C153 C 0.04305 0.54431 0.75411
 C154 C -0.04523 0.45391 0.74939
 C155 C -0.04507 0.54224 0.75182
 C156 C 0.04306 0.45571 0.75221
 C157 C 0.34546 0.25112 0.14556
 C158 C 0.33030 0.21963 0.15459
 C159 C 0.30471 0.21815 0.17915
 C160 C 0.29397 0.24766 0.19524
 C161 C 0.30926 0.27877 0.18641
 C162 C 0.33458 0.28056 0.16195
 C163 C 0.37252 0.25163 0.11903
 C164 C 0.38867 0.28170 0.10779
 C165 C 0.41367 0.28089 0.08302
 C166 C 0.42341 0.25014 0.06875
 C167 C 0.40746 0.22001 0.07973
 C168 C 0.38210 0.22056 0.10454
 C169 C 0.34079 0.18980 0.13913
 C170 C 0.36621 0.19024 0.11476
 H171 H 0.32924 0.16567 0.14606
 H172 H 0.37346 0.16644 0.10365
 H173 H 0.29288 0.19398 0.18550
 H174 H 0.30194 0.30186 0.19884
 H175 H 0.42548 0.30455 0.07506
 H176 H 0.41462 0.19609 0.06881
 H177 H 0.34537 0.30523 0.15647
 H178 H 0.38237 0.30615 0.11765
 C179 C 0.65815 0.74764 0.14281
 C180 C 0.66924 0.77901 0.15638
 C181 C 0.69460 0.78017 0.18115
 C182 C 0.70971 0.75039 0.19296
 C183 C 0.69857 0.71935 0.17886
 C184 C 0.67332 0.71798 0.15436
 C185 C 0.63072 0.74747 0.11671
 C186 C 0.61745 0.71750 0.10218
 C187 C 0.59186 0.71863 0.07808
 C188 C 0.57875 0.74961 0.06769
 C189 C 0.59178 0.77965 0.08199
 C190 C 0.61748 0.77878 0.10640
 C191 C 0.65509 0.80913 0.14507
 C192 C 0.62985 0.80903 0.12058
 H193 H 0.66365 0.83323 0.15535
 H194 H 0.61975 0.83303 0.11273
 H195 H 0.70333 0.80471 0.19010
 H196 H 0.70804 0.69549 0.18771
 H197 H 0.58234 0.69503 0.06752
 H198 H 0.58183 0.80376 0.07426
 H199 H 0.66591 0.69330 0.14508
 H200 H 0.62634 0.69288 0.10905
 C201 C 0.64277 0.25213 -0.14903
 C202 C 0.65654 0.22072 -0.15825
 C203 C 0.68190 0.21942 -0.18299
 C204 C 0.69379 0.24904 -0.19903
 C205 C 0.67987 0.28007 -0.19005
 C206 C 0.65478 0.28168 -0.16542
 C207 C 0.61590 0.25246 -0.12234
 C208 C 0.60109 0.28243 -0.11095
 C209 C 0.57617 0.28145 -0.08606
 C210 C 0.56521 0.25061 -0.07183
 C211 C 0.57984 0.22058 -0.08293
 C212 C 0.60510 0.22129 -0.10788
 C213 C 0.64489 0.19080 -0.14280
 C214 C 0.61964 0.19106 -0.11827
 H215 H 0.65538 0.16673 -0.14987
 H216 H 0.61146 0.16720 -0.10718
 H217 H 0.69266 0.19532 -0.18954
 H218 H 0.68807 0.30323 -0.20247
 H219 H 0.56539 0.30504 -0.07801
 H220 H 0.57172 0.19658 -0.07204
 H221 H 0.64506 0.30628 -0.15981
 H222 H 0.60837 0.30694 -0.12078
 C223 C 0.35578 0.74900 -0.14588
 C224 C 0.34223 0.78045 -0.15534
 C225 C 0.31636 0.78165 -0.17954
 C226 C 0.30370 0.75187 -0.19466
 C227 C 0.31751 0.72085 -0.18553
 C228 C 0.34313 0.71934 -0.16152
 C229 C 0.38305 0.74872 -0.11966
 C230 C 0.39759 0.71870 -0.10804
 C231 C 0.42283 0.71968 -0.08356
 C232 C 0.43440 0.75055 -0.06992
 C233 C 0.42006 0.78066 -0.08125
 C234 C 0.39447 0.77995 -0.10583
 C235 C 0.35456 0.81046 -0.14060
 C236 C 0.38019 0.81023 -0.11649
 H237 H 0.34426 0.83455 -0.14787
 H238 H 0.38886 0.83415 -0.10591
 H239 H 0.30574 0.80576 -0.18627
 H240 H 0.30872 0.69757 -0.19732
 H241 H 0.43337 0.69603 -0.07533
 H242 H 0.42867 0.80469 -0.07083
 H243 H 0.35267 0.69470 -0.15575
 H244 H 0.38986 0.69414 -0.11738
 C245 C 0.14284 0.34829 0.25316
 C246 C 0.15221 0.33463 0.22161
 C247 C 0.17632 0.30914 0.21996
 C248 C 0.19153 0.29695 0.24939
 C249 C 0.18232 0.31068 0.28059
 C250 C 0.15835 0.33594 0.28253
 C251 C 0.11692 0.37539 0.25383
 C252 C 0.10561 0.39034 0.28392
 C253 C 0.08153 0.41556 0.28322
 C254 C 0.06802 0.42666 0.25257
 C255 C 0.07900 0.41184 0.22244
 C256 C 0.10318 0.38636 0.22285
 C257 C 0.13750 0.34648 0.19188
 C258 C 0.11360 0.37183 0.19248
 H259 H 0.14466 0.33606 0.16771
 H260 H 0.10307 0.38017 0.16876
 H261 H 0.18297 0.29850 0.19573
 H262 H 0.19407 0.30218 0.30364
 H263 H 0.07355 0.42648 0.30688
 H264 H 0.06871 0.42010 0.19856
 H265 H 0.15253 0.34549 0.30726
 H266 H 0.11495 0.38298 0.30830
 C267 C 0.14616 0.65141 0.75904
 C268 C 0.15624 0.66610 0.72801
 C269 C 0.18146 0.69170 0.72720
 C270 C 0.19761 0.70305 0.75699
 C271 C 0.18705 0.68827 0.78774
 C272 C 0.16184 0.66306 0.78877
 C273 C 0.11942 0.62387 0.75876
 C274 C 0.10746 0.60778 0.78832
 C275 C 0.08274 0.58210 0.78668
 C276 C 0.06927 0.57163 0.75560
 C277 C 0.08092 0.58755 0.72601
 C278 C 0.10571 0.61351 0.72737
 C279 C 0.14145 0.65484 0.69783
 C280 C 0.11681 0.62910 0.69751
 H281 H 0.14917 0.66601 0.67400
 H282 H 0.10628 0.62125 0.67346
 H283 H 0.18951 0.70134 0.70287
 H284 H 0.19726 0.69688 0.81160
 H285 H 0.07422 0.57032 0.80993
 H286 H 0.07064 0.57982 0.70181
 H287 H 0.15504 0.65313 0.81323
 H288 H 0.11679 0.61458 0.81297
 C289 C -0.14110 0.65012 0.25197
 C290 C -0.15476 0.65942 0.22048
 C291 C -0.17919 0.68460 0.21865
 C292 C -0.19055 0.70130 0.24788
 C293 C -0.17649 0.69181 0.27906
 C294 C -0.15234 0.66674 0.28110
 C295 C -0.11519 0.62299 0.25284
 C296 C -0.10040 0.61160 0.28297
 C297 C -0.07648 0.58623 0.28246
 C298 C -0.06653 0.57150 0.25196
 C299 C -0.08105 0.58270 0.22178
 C300 C -0.10525 0.60815 0.22201
 C301 C -0.14382 0.64372 0.19087
 C302 C -0.11959 0.61870 0.19162
 H303 H -0.15418 0.65088 0.16668
 H304 H -0.11202 0.60736 0.16800
 H305 H -0.18805 0.69202 0.19398
 H306 H -0.18504 0.70259 0.30254
 H307 H -0.06574 0.57813 0.30615
 H308 H -0.07366 0.57149 0.19803
 H309 H -0.14304 0.66067 0.30585
 H310 H -0.10694 0.62181 0.30724
 C311 C -0.15010 0.34848 0.74497
 C312 C -0.16489 0.33868 0.77602
 C313 C -0.19060 0.31362 0.77694
 C314 C -0.20218 0.29747 0.74723
 C315 C -0.18689 0.30731 0.71650
 C316 C -0.16145 0.33231 0.71536
 C317 C -0.12291 0.37560 0.74510
 C318 C -0.10708 0.38772 0.71547
 C319 C -0.08196 0.41305 0.71697
 C320 C -0.07184 0.42697 0.74798
 C321 C -0.08745 0.41507 0.77763
 C322 C -0.11286 0.38973 0.77641
 C323 C -0.15379 0.35374 0.80613
 C324 C -0.12829 0.37862 0.80633
 H325 H -0.16500 0.34617 0.82998
 H326 H -0.12063 0.38944 0.83031
 H327 H -0.20042 0.30588 0.80130
 H328 H -0.19541 0.29690 0.69269
 H329 H -0.07040 0.42173 0.69367
 H330 H -0.07999 0.42568 0.80177
 H331 H -0.15123 0.33871 0.69092
 H332 H -0.11373 0.37811 0.69087
 C333 C 0.23995 0.14087 0.34720
 C334 C 0.27089 0.15628 0.33688
 C335 C 0.27124 0.18134 0.31175
 C336 C 0.24110 0.19146 0.29654
 C337 C 0.21054 0.17584 0.30651
 C338 C 0.20989 0.15091 0.33144
 C339 C 0.24062 0.11467 0.37458
 C340 C 0.21120 0.09830 0.38709
 C341 C 0.21312 0.07432 0.41281
 C342 C 0.24437 0.06590 0.42677
 C343 C 0.27385 0.08200 0.41444
 C344 C 0.27220 0.10628 0.38865
 C345 C 0.30128 0.14678 0.35181
 C346 C 0.30193 0.12227 0.37706
 H347 H 0.32499 0.15852 0.34388
 H348 H 0.32612 0.11586 0.38781
 H349 H 0.29498 0.19349 0.30452
 H350 H 0.18699 0.18279 0.29481
 H351 H 0.18994 0.06233 0.42178
 H352 H 0.29817 0.07580 0.42504
 H353 H 0.18558 0.13990 0.33793
 H354 H 0.18642 0.10367 0.37752
 C355 C 0.73991 0.14346 0.64805
 C356 C 0.77111 0.15376 0.66265
 C357 C 0.77208 0.17882 0.68770
 C358 C 0.74240 0.19436 0.69837
 C359 C 0.71152 0.18418 0.68383
 C360 C 0.71021 0.15908 0.65907
 C361 C 0.74006 0.11666 0.62126
 C362 C 0.71039 0.10411 0.60555
 C363 C 0.71197 0.07945 0.58042
 C364 C 0.74312 0.06669 0.57019
 C365 C 0.77276 0.07877 0.58593
 C366 C 0.77146 0.10340 0.61133
 C367 C 0.80122 0.13923 0.65201
 C368 C 0.80141 0.11473 0.62679
 H369 H 0.82510 0.14713 0.66317
 H370 H 0.82543 0.10448 0.61929
 H371 H 0.79605 0.18610 0.69908
 H372 H 0.68829 0.19607 0.69124
 H373 H 0.68869 0.07054 0.56878
 H374 H 0.79699 0.06895 0.57845
 H375 H 0.68575 0.15257 0.64871
 H376 H 0.68572 0.11296 0.61224
 C377 C 0.25541 -0.14672 0.65075
 C378 C 0.22425 -0.15638 0.66589
 C379 C 0.22326 -0.18086 0.69156
 C380 C 0.25290 -0.19642 0.70232
 C381 C 0.28368 -0.18707 0.68700
 C382 C 0.28500 -0.16258 0.66164
 C383 C 0.25537 -0.12023 0.62363
 C384 C 0.28508 -0.10809 0.60766
 C385 C 0.28366 -0.08352 0.58243
 C386 C 0.25263 -0.07044 0.57232
 C387 C 0.22292 -0.08218 0.58823
 C388 C 0.22407 -0.10669 0.61381
 C389 C 0.19422 -0.14167 0.65527
 C390 C 0.19411 -0.11754 0.62966
 H391 H 0.17036 -0.14910 0.66680
 H392 H 0.17016 -0.10709 0.62223
 H393 H 0.19936 -0.18754 0.70344
 H394 H 0.30686 -0.19908 0.69436
 H395 H 0.30699 -0.07489 0.57065
 H396 H 0.19878 -0.07210 0.58085
 H397 H 0.30940 -0.15668 0.65078
 H398 H 0.30969 -0.11712 0.61428
 C399 C 0.75963 -0.14408 0.34521
 C400 C 0.72898 -0.16005 0.33487
 C401 C 0.72917 -0.18510 0.30978
 C402 C 0.75954 -0.19462 0.29460
 C403 C 0.78981 -0.17848 0.30460
 C404 C 0.78993 -0.15357 0.32951
 C405 C 0.75839 -0.11789 0.37252
 C406 C 0.78749 -0.10099 0.38503
 C407 C 0.78505 -0.07703 0.41068
 C408 C 0.75360 -0.06915 0.42458
 C409 C 0.72443 -0.08577 0.41224
 C410 C 0.72660 -0.11004 0.38651
 C411 C 0.69836 -0.15109 0.34973
 C412 C 0.69719 -0.12657 0.37492
 H413 H 0.67489 -0.16327 0.34179
 H414 H 0.67284 -0.12059 0.38562
 H415 H 0.70567 -0.19767 0.30249
 H416 H 0.81351 -0.18501 0.29291
 H417 H 0.80800 -0.06463 0.41966
 H418 H 0.69996 -0.07999 0.42279
 H419 H 0.81402 -0.14214 0.33602
 H420 H 0.81240 -0.10592 0.37552
 C421 C 0.65096 0.75304 -0.15199
 C422 C 0.65960 0.72142 -0.16590
 C423 C 0.68406 0.71982 -0.19147
 C424 C 0.70044 0.74932 -0.20342
 C425 C 0.69186 0.78060 -0.18958
 C426 C 0.66748 0.78252 -0.16427
 C427 C 0.62475 0.75364 -0.12468
 C428 C 0.61412 0.78378 -0.10945
 C429 C 0.58973 0.78301 -0.08404
 C430 C 0.57526 0.75223 -0.07302
 C431 C 0.58558 0.72205 -0.08808
 C432 C 0.61003 0.72254 -0.11377
 C433 C 0.64390 0.69158 -0.15414
 C434 C 0.61974 0.69212 -0.12859
 H435 H 0.65051 0.66737 -0.16478
 H436 H 0.60844 0.66830 -0.12032
 H437 H 0.69018 0.69554 -0.20228
 H438 H 0.70445 0.80370 -0.19800
 H439 H 0.58226 0.80671 -0.07293
 H440 H 0.57450 0.69809 -0.07989
 H441 H 0.66219 0.80730 -0.15457
 H442 H 0.62423 0.80825 -0.11674
 C443 C 0.34799 0.24606 -0.15082
 C444 C 0.33891 0.27754 -0.16477
 C445 C 0.31435 0.27878 -0.19026
 C446 C 0.29836 0.24905 -0.20213
 C447 C 0.30736 0.21792 -0.18819
 C448 C 0.33180 0.21637 -0.16294
 C449 C 0.37434 0.24583 -0.12365
 C450 C 0.38539 0.21585 -0.10842
 C451 C 0.40998 0.21694 -0.08325
 C452 C 0.42424 0.24788 -0.07246
 C453 C 0.41343 0.27792 -0.08746
 C454 C 0.38877 0.27711 -0.11293
 C455 C 0.35429 0.30758 -0.15316
 C456 C 0.37860 0.30738 -0.12775
 H457 H 0.34734 0.33168 -0.16381
 H458 H 0.38966 0.33133 -0.11962
 H459 H 0.30788 0.30296 -0.20110
 H460 H 0.29504 0.19465 -0.19645
 H461 H 0.41780 0.19334 -0.07218
 H462 H 0.42433 0.30200 -0.07944
 H463 H 0.33741 0.19168 -0.15319
 H464 H 0.37550 0.19127 -0.11555
 C465 C 0.36117 0.75289 0.14970
 C466 C 0.34620 0.72148 0.15904
 C467 C 0.32113 0.71998 0.18412
 C468 C 0.31047 0.74947 0.20075
 C469 C 0.32589 0.78057 0.19130
 C470 C 0.35066 0.78227 0.16630
 C471 C 0.38765 0.75343 0.12261
 C472 C 0.40354 0.78350 0.11103
 C473 C 0.42796 0.78270 0.08570
 C474 C 0.43735 0.75196 0.07120
 C475 C 0.42171 0.72182 0.08254
 C476 C 0.39694 0.72235 0.10793
 C477 C 0.35650 0.69161 0.14347
 C478 C 0.38137 0.69203 0.11856
 H479 H 0.34515 0.66747 0.15067
 H480 H 0.38842 0.66822 0.10734
 H481 H 0.31112 0.69537 0.19150
 H482 H 0.31798 0.80424 0.20204
 H483 H 0.43956 0.80637 0.07749
 H484 H 0.42863 0.69789 0.07147
 H485 H 0.36102 0.80698 0.16026
 H486 H 0.39748 0.80796 0.12105
 C487 C 0.64160 0.24816 0.14684
 C488 C 0.65096 0.27960 0.16157
 C489 C 0.67521 0.28102 0.18742
 C490 C 0.69055 0.25149 0.19889
 C491 C 0.68158 0.22047 0.18387
 C492 C 0.65748 0.21874 0.15825
 C493 C 0.61516 0.24762 0.11976
 C494 C 0.60345 0.21755 0.10421
 C495 C 0.57864 0.21831 0.07931
 C496 C 0.56480 0.24900 0.06907
 C497 C 0.57629 0.27914 0.08437
 C498 C 0.60114 0.27865 0.10965
 C499 C 0.63604 0.30940 0.15049
 C500 C 0.61179 0.30895 0.12500
 H501 H 0.64326 0.33349 0.16168
 H502 H 0.60106 0.33272 0.11733
 H503 H 0.68174 0.30512 0.19901
 H504 H 0.69349 0.19739 0.19174
 H505 H 0.57030 0.19464 0.06799
 H506 H 0.56570 0.30303 0.07681
 H507 H 0.65181 0.19413 0.14775
 H508 H 0.61293 0.19313 0.11095
 C509 C -0.14816 0.64462 0.75214
 C510 C -0.15760 0.65811 0.72061
 C511 C -0.18226 0.68305 0.71882
 C512 C -0.19827 0.69510 0.74815
 C513 C -0.18857 0.68128 0.77939
 C514 C -0.16404 0.65662 0.78136
 C515 C -0.12166 0.61811 0.75296
 C516 C -0.11029 0.60335 0.78312
 C517 C -0.08554 0.57881 0.78257
 C518 C -0.07142 0.56821 0.75201
 C519 C -0.08258 0.58271 0.72180
 C520 C -0.10744 0.60750 0.72207
 C521 C -0.14255 0.64650 0.69092
 C522 C -0.11805 0.62174 0.69164
 H523 H -0.14980 0.65673 0.66670
 H524 H -0.10719 0.61365 0.66796
 H525 H -0.18980 0.69183 0.69416
 H526 H -0.19873 0.69039 0.80292
 H527 H -0.07745 0.56809 0.80628
 H528 H -0.07185 0.57479 0.69800
 H529 H -0.15777 0.64754 0.80616
 H530 H -0.12006 0.61035 0.80744
 C531 C -0.15621 0.35686 0.25716
 C532 C -0.16607 0.34216 0.22604
 C533 C -0.19204 0.31738 0.22505
 C534 C -0.20865 0.30695 0.25468
 C535 C -0.19927 0.32205 0.28537
 C536 C -0.17345 0.34663 0.28668
 C537 C -0.12779 0.38263 0.25723
 C538 C -0.11533 0.39795 0.28694
 C539 C -0.08871 0.42167 0.28568
 C540 C -0.07380 0.43087 0.25482
 C541 C -0.08597 0.41570 0.22508
 C542 C -0.11260 0.39164 0.22608
 C543 C -0.14990 0.35212 0.19612
 C544 C -0.12387 0.37645 0.19612
 H545 H -0.15750 0.34095 0.17228
 H546 H -0.11221 0.38331 0.17227
 H547 H -0.19885 0.30568 0.20121
 H548 H -0.21210 0.31493 0.30853
 H549 H -0.07985 0.43294 0.30903
 H550 H -0.07458 0.42245 0.20107
 H551 H -0.16749 0.35725 0.31104
 H552 H -0.12563 0.39193 0.31144
 C553 C 0.14554 0.35269 0.75321
 C554 C 0.15976 0.34378 0.72177
 C555 C 0.18463 0.31907 0.72014
 C556 C 0.19563 0.30277 0.74947
 C557 C 0.18133 0.31150 0.78055
 C558 C 0.15668 0.33608 0.78248
 C559 C 0.11915 0.37931 0.75387
 C560 C 0.10382 0.39030 0.78389
 C561 C 0.07930 0.41508 0.78318
 C562 C 0.06931 0.42961 0.75261
 C563 C 0.08452 0.41895 0.72256
 C564 C 0.10932 0.39409 0.72298
 C565 C 0.14905 0.35953 0.69213
 C566 C 0.12431 0.38406 0.69271
 H567 H 0.15990 0.35271 0.66804
 H568 H 0.11685 0.39539 0.66906
 H569 H 0.19574 0.31277 0.69602
 H570 H 0.18891 0.29891 0.80349
 H571 H 0.06806 0.42280 0.80678
 H572 H 0.07713 0.43005 0.69876
 H573 H 0.14663 0.34149 0.80710
 H574 H 0.11035 0.38020 0.80820
 C575 C 0.15463 0.64447 0.24632
 C576 C 0.16961 0.65358 0.27752
 C577 C 0.19560 0.67832 0.27866
 C578 C 0.20690 0.69455 0.24912
 C579 C 0.19187 0.68561 0.21828
 C580 C 0.16616 0.66093 0.21681
 C581 C 0.12696 0.61789 0.24621
 C582 C 0.11082 0.60658 0.21648
 C583 C 0.08503 0.58194 0.21776
 C584 C 0.07454 0.56793 0.24864
 C585 C 0.09060 0.57887 0.27837
 C586 C 0.11668 0.60352 0.27737
 C587 C 0.15848 0.63812 0.30742
 C588 C 0.13250 0.61375 0.30737
 H589 H 0.16992 0.64511 0.33131
 H590 H 0.12471 0.60268 0.33122
 H591 H 0.20724 0.68478 0.30261
 H592 H 0.19966 0.69816 0.19518
 H593 H 0.07315 0.57395 0.19440
 H594 H 0.08288 0.56813 0.30240
 H595 H 0.15554 0.65537 0.19236
 H596 H 0.11769 0.61633 0.19198
 C597 C 0.75609 -0.15337 0.64112
 C598 C 0.72494 -0.16883 0.65075
 C599 C 0.72409 -0.19412 0.67561
 C600 C 0.75389 -0.20429 0.69142
 C601 C 0.78474 -0.18908 0.68172
 C602 C 0.78591 -0.16401 0.65692
 C603 C 0.75579 -0.12611 0.61478
 C604 C 0.78534 -0.10910 0.60340
 C605 C 0.78364 -0.08362 0.57911
 C606 C 0.75250 -0.07436 0.56550
 C607 C 0.72295 -0.09131 0.57649
 C608 C 0.72436 -0.11699 0.60086
 C609 C 0.69477 -0.15884 0.63573
 C610 C 0.69448 -0.13346 0.61137
 H611 H 0.67093 -0.17071 0.64307
 H612 H 0.67042 -0.12654 0.60066
 H613 H 0.70015 -0.20600 0.68263
 H614 H 0.80805 -0.19611 0.69386
 H615 H 0.80686 -0.07103 0.57108
 H616 H 0.69871 -0.08451 0.56610
 H617 H 0.81037 -0.15314 0.65079
 H618 H 0.81002 -0.11498 0.61292
 C619 C 0.25941 -0.15296 0.35554
 C620 C 0.22869 -0.16368 0.34027
 C621 C 0.22870 -0.18840 0.31486
 C622 C 0.25897 -0.20298 0.30440
 C623 C 0.28929 -0.19272 0.32000
 C624 C 0.28959 -0.16808 0.34517
 C625 C 0.25839 -0.12596 0.38208
 C626 C 0.28764 -0.11275 0.39798
 C627 C 0.28540 -0.08740 0.42228
 C628 C 0.25398 -0.07457 0.43155
 C629 C 0.22466 -0.08760 0.41593
 C630 C 0.22665 -0.11292 0.39121
 C631 C 0.19814 -0.14964 0.35039
 C632 C 0.19712 -0.12496 0.37543
 H633 H 0.17459 -0.15792 0.33878
 H634 H 0.17282 -0.11496 0.38236
 H635 H 0.20514 -0.19593 0.30281
 H636 H 0.31291 -0.20404 0.31292
 H637 H 0.30845 -0.07784 0.43389
 H638 H 0.20024 -0.07776 0.42271
 H639 H 0.31371 -0.16140 0.35618
 H640 H 0.31253 -0.12141 0.39193
 C641 C 0.73766 0.15034 0.35409
 C642 C 0.76868 0.16238 0.34033
 C643 C 0.76897 0.18774 0.31554
 C644 C 0.73873 0.20171 0.30422
 C645 C 0.70805 0.18993 0.31808
 C646 C 0.70744 0.16462 0.34264
 C647 C 0.73847 0.12297 0.38027
 C648 C 0.70903 0.10874 0.39504
 C649 C 0.71114 0.08322 0.41922
 C650 C 0.74258 0.07121 0.42944
 C651 C 0.77206 0.08520 0.41490
 C652 C 0.77024 0.11075 0.39040
 C653 C 0.79923 0.14909 0.35134
 C654 C 0.80001 0.12394 0.37593
 H655 H 0.82298 0.15834 0.34085
 H656 H 0.82433 0.11455 0.38363
 H657 H 0.79281 0.19633 0.30472
 H658 H 0.68439 0.20062 0.31019
 H659 H 0.68796 0.07290 0.42998
 H660 H 0.79653 0.07605 0.42245
 H661 H 0.68307 0.15677 0.35236
 H662 H 0.68412 0.11681 0.38825
 C663 C 0.24151 0.14965 0.64362
 C664 C 0.27277 0.16486 0.65323
 C665 C 0.27379 0.19021 0.67800
 C666 C 0.24406 0.20072 0.69375
 C667 C 0.21310 0.18573 0.68410
 C668 C 0.21176 0.16058 0.65940
 C669 C 0.24161 0.12240 0.61727
 C670 C 0.21194 0.10568 0.60585
 C671 C 0.21346 0.08024 0.58151
 C672 C 0.24454 0.07074 0.56789
 C673 C 0.27421 0.08738 0.57895
 C674 C 0.27298 0.11302 0.60336
 C675 C 0.30287 0.15459 0.63823
 C676 C 0.30298 0.12920 0.61390
 H677 H 0.32679 0.16625 0.64556
 H678 H 0.32699 0.12207 0.60319
 H679 H 0.29782 0.20193 0.68492
 H680 H 0.18983 0.19302 0.69616
 H681 H 0.19015 0.06788 0.57344
 H682 H 0.29841 0.08039 0.56856
 H683 H 0.18723 0.14990 0.65329
 H684 H 0.18730 0.11176 0.61537
   
