data_POSCAR
  _audit_creation_date              2014-09-24
  _audit_creation_method            'ToBaCCo'
  _symmetry_space_group_name_H-M    'P1'
  _symmetry_Int_Tables_number       1
  _symmetry_cell_setting            triclinic
  loop_
  _symmetry_equiv_pos_as_xyz
 x,y,z
_cell_length_a 40.0083
_cell_length_b 40.1927
_cell_length_c 35.9728
_cell_angle_alpha 89.366200
_cell_angle_beta 90.032100
_cell_angle_gamma 90.038100
loop_
  _atom_site_label
  _atom_site_type_symbol
  _atom_site_fract_x
  _atom_site_fract_y
  _atom_site_fract_z
C1 C 1.26013 0.21833 0.27738
 C2 C 1.23534 0.23257 0.25474
 C3 C 1.20963 0.21270 0.24071
 C4 C 1.20877 0.17867 0.24890
 C5 C 1.23328 0.16441 0.27175
 C6 C 1.25887 0.18430 0.28621
 C7 C 1.23537 0.26840 0.24651
 C8 C 1.26014 0.28262 0.22384
 C9 C 1.25888 0.31663 0.21491
 C10 C 1.23330 0.33653 0.22930
 C11 C 1.20880 0.32228 0.25219
 C12 C 1.20967 0.28827 0.26047
 H13 H 1.27983 0.23384 0.28860
 H14 H 1.19059 0.22370 0.22297
 H15 H 1.27981 0.26710 0.21265
 H16 H 1.19061 0.27727 0.27820
 H17 H 1.23247 0.13796 0.27810
 H18 H 1.23247 0.36295 0.22286
 C19 C 0.78052 -0.28858 0.26258
 C20 C 0.75531 -0.26853 0.24721
 C21 C 0.72962 -0.28305 0.22647
 C22 C 0.72916 -0.31742 0.22083
 C23 C 0.75416 -0.33759 0.23666
 C24 C 0.77981 -0.32314 0.25778
 C25 C 0.75527 -0.23244 0.25349
 C26 C 0.78048 -0.21231 0.23823
 C27 C 0.77970 -0.17778 0.24306
 C28 C 0.75401 -0.16340 0.26405
 C29 C 0.72899 -0.18362 0.27978
 C30 C 0.72951 -0.21799 0.27413
 H31 H 0.80012 -0.27728 0.27906
 H32 H 0.71015 -0.26750 0.21452
 H33 H 0.80016 -0.22345 0.22181
 H34 H 0.71003 -0.23359 0.28600
 H35 H 0.75347 -0.36431 0.23281
 H36 H 0.75334 -0.13668 0.26785
 C37 C 0.78142 0.21272 -0.23725
 C38 C 0.75642 0.23264 -0.25328
 C39 C 0.73080 0.21786 -0.27391
 C40 C 0.73020 0.18338 -0.27878
 C41 C 0.75501 0.16339 -0.26229
 C42 C 0.78057 0.17810 -0.24130
 C43 C 0.75644 0.26884 -0.24774
 C44 C 0.78140 0.28877 -0.26385
 C45 C 0.78055 0.32343 -0.25986
 C46 C 0.75500 0.33811 -0.23883
 C47 C 0.73024 0.31807 -0.22228
 C48 C 0.73086 0.28359 -0.22710
 H49 H 0.80098 0.22413 -0.22083
 H50 H 0.71147 0.23328 -0.28635
 H51 H 0.80090 0.27729 -0.28026
 H52 H 0.71156 0.26815 -0.21463
 H53 H 0.75428 0.13661 -0.26549
 H54 H 0.75418 0.36489 -0.23562
 C55 C 1.25809 -0.28402 -0.22427
 C56 C 1.23300 -0.26891 -0.24580
 C57 C 1.20721 -0.28829 -0.26057
 C58 C 1.20665 -0.32265 -0.25426
 C59 C 1.23146 -0.33773 -0.23250
 C60 C 1.25710 -0.31839 -0.21729
 C61 C 1.23311 -0.23280 -0.25244
 C62 C 1.25823 -0.21785 -0.27407
 C63 C 1.25738 -0.18352 -0.28115
 C64 C 1.23192 -0.16403 -0.26600
 C65 C 1.20707 -0.17893 -0.24415
 C66 C 1.20746 -0.21328 -0.23769
 H67 H 1.27790 -0.26895 -0.21255
 H68 H 1.18799 -0.27666 -0.27755
 H69 H 1.27794 -0.23295 -0.28583
 H70 H 1.18820 -0.22477 -0.22066
 H71 H 1.23090 -0.36443 -0.22767
 H72 H 1.23156 -0.13737 -0.27102
 C73 C 0.22640 0.27480 0.73138
 C74 C 0.24418 0.25006 0.75094
 C75 C 0.22655 0.22520 0.77052
 C76 C 0.19146 0.22527 0.77094
 C77 C 0.17394 0.24986 0.75095
 C78 C 0.19135 0.27451 0.73098
 C79 C 0.28115 0.25017 0.75090
 C80 C 0.29880 0.27733 0.76539
 C81 C 0.33389 0.27739 0.76578
 C82 C 0.35143 0.25038 0.75072
 C83 C 0.33392 0.22329 0.73577
 C84 C 0.29887 0.22313 0.73634
 H85 H 0.23987 0.29387 0.71597
 H86 H 0.24021 0.20623 0.78590
 H87 H 0.28512 0.29808 0.77697
 H88 H 0.28533 0.20227 0.72479
 H89 H 0.14682 0.24985 0.75088
 H90 H 0.37854 0.25039 0.75060
 C91 C 0.72007 0.77782 0.73603
 C92 C 0.73759 0.75034 0.75033
 C93 C 0.71994 0.72294 0.76465
 C94 C 0.68497 0.72315 0.76501
 C95 C 0.66749 0.75049 0.75034
 C96 C 0.68510 0.77775 0.73567
 C97 C 0.77433 0.75026 0.75029
 C98 C 0.79202 0.77570 0.76792
 C99 C 0.82697 0.77545 0.76820
 C100 C 0.84443 0.75011 0.75014
 C101 C 0.82675 0.72485 0.73216
 C102 C 0.79180 0.72474 0.73258
 H103 H 0.73374 0.79885 0.72449
 H104 H 0.73351 0.70184 0.77615
 H105 H 0.77857 0.79529 0.78202
 H106 H 0.77818 0.70522 0.71853
 H107 H 0.64035 0.75054 0.75033
 H108 H 0.87154 0.75006 0.75008
 C109 C 0.71182 0.27720 0.23539
 C110 C 0.72944 0.24963 0.24937
 C111 C 0.71182 0.22201 0.26325
 C112 C 0.67685 0.22210 0.26350
 C113 C 0.65932 0.24953 0.24918
 C114 C 0.67685 0.27700 0.23496
 C115 C 0.76623 0.24972 0.24952
 C116 C 0.78375 0.27531 0.26719
 C117 C 0.81871 0.27522 0.26766
 C118 C 0.83635 0.24991 0.24980
 C119 C 0.81892 0.22450 0.23180
 C120 C 0.78395 0.22422 0.23200
 H121 H 0.72532 0.29845 0.22418
 H122 H 0.72533 0.20082 0.27456
 H123 H 0.77015 0.29488 0.28114
 H124 H 0.77051 0.20458 0.21794
 H125 H 0.63222 0.24949 0.24913
 H126 H 0.86346 0.24998 0.24991
 C127 C 0.22814 0.77495 0.23110
 C128 C 0.24579 0.74970 0.25000
 C129 C 0.22804 0.72452 0.26891
 C130 C 0.19295 0.72475 0.26934
 C131 C 0.17553 0.74984 0.25003
 C132 C 0.19305 0.77486 0.23070
 C133 C 0.28279 0.74966 0.25001
 C134 C 0.30055 0.77637 0.26537
 C135 C 0.33562 0.77627 0.26584
 C136 C 0.35307 0.74960 0.25002
 C137 C 0.33552 0.72296 0.23419
 C138 C 0.30045 0.72291 0.23466
 H139 H 0.24178 0.79426 0.21624
 H140 H 0.24160 0.70517 0.28378
 H141 H 0.28702 0.79691 0.27758
 H142 H 0.28686 0.70240 0.22245
 H143 H 0.14840 0.74990 0.25004
 H144 H 0.38017 0.74958 0.25002
 O145 O 1.05935 0.01616 0.04956
 O146 O 0.94459 -0.01420 0.04940
 O147 O 0.98265 0.05804 0.04535
 O148 O 1.02328 -0.05427 0.04966
 O149 O 0.93748 0.04092 0.02256
 O150 O 1.06836 -0.03874 0.02514
 O151 O 0.96639 -0.06068 0.03405
 O152 O 1.03909 0.06263 0.03094
 C153 C 1.05377 0.04584 0.05564
 C154 C 0.94933 -0.04401 0.05649
 C155 C 0.95212 0.05605 0.04774
 C156 C 1.05399 -0.05371 0.05102
 O157 O 1.05994 -0.01380 -0.04401
 O158 O 0.94495 0.01535 -0.04539
 O159 O 1.02307 0.05647 -0.04424
 O160 O 0.98396 -0.05641 -0.04051
 O161 O 0.93824 -0.03996 -0.01867
 O162 O 1.06808 0.04133 -0.01931
 O163 O 1.04008 -0.06039 -0.02525
 O164 O 0.96604 0.06209 -0.02956
 Co165 Co 1.05751 0.00120 0.00279
 Co166 Co 0.94759 0.00055 0.00203
 Co167 Co 1.00275 0.05442 0.00072
 Co168 Co 1.00338 -0.05255 0.00441
 O169 O 1.00272 0.00091 0.00249
 C170 C 1.05466 -0.04358 -0.04996
 C171 C 0.94935 0.04527 -0.05227
 C172 C 1.05376 0.05607 -0.04538
 C173 C 0.95348 -0.05480 -0.04359
 O174 O 1.05880 0.51406 0.54419
 O175 O 0.94376 0.48504 0.54525
 O176 O 0.98289 0.55676 0.54053
 O177 O 1.02185 0.44387 0.54423
 O178 O 0.93717 0.54037 0.51853
 O179 O 1.06689 0.45897 0.51938
 O180 O 0.96481 0.43830 0.52946
 O181 O 1.03904 0.56071 0.52552
 C182 C 1.05358 0.54383 0.55021
 C183 C 0.94812 0.45511 0.55214
 C184 C 0.95241 0.55516 0.54352
 C185 C 1.05254 0.44426 0.54543
 O186 O 1.05825 0.48427 0.45056
 O187 O 0.94355 0.51462 0.45049
 O188 O 1.02236 0.55470 0.45049
 O189 O 0.98147 0.44241 0.45457
 O190 O 0.93631 0.45949 0.47728
 O191 O 1.06736 0.53913 0.47516
 O192 O 1.03788 0.43778 0.46903
 O193 O 0.96546 0.56109 0.46589
 Co194 Co 1.05639 0.49915 0.49736
 Co195 Co 0.94648 0.49985 0.49785
 Co196 Co 1.00238 0.55294 0.49568
 Co197 Co 1.00156 0.44597 0.49924
 O198 O 1.00162 0.49947 0.49753
 C199 C 1.05266 0.45459 0.44443
 C200 C 0.94835 0.54444 0.44343
 C201 C 1.05307 0.55410 0.44923
 C202 C 0.95095 0.44437 0.45213
 O203 O 0.56194 0.02496 0.54224
 O204 O 0.42702 -0.03443 0.51324
 O205 O 0.47373 0.06092 0.53257
 O206 O 0.52219 -0.05096 0.55763
 O207 O 0.44899 0.01562 0.54804
 O208 O 0.56776 -0.03621 0.53205
 O209 O 0.46576 -0.04635 0.54936
 O210 O 0.53309 0.06597 0.51796
 C211 C 0.55325 0.05478 0.54238
 C212 C 0.43603 -0.05020 0.54106
 C213 C 0.45632 0.04495 0.55543
 C214 C 0.55289 -0.04944 0.55867
 O215 O 0.56257 -0.02687 0.46144
 O216 O 0.41642 0.02545 0.48847
 O217 O 0.51772 0.04747 0.44642
 O218 O 0.47200 -0.06191 0.47435
 O219 O 0.45203 -0.01504 0.45272
 O220 O 0.56480 0.03492 0.47052
 O221 O 0.53263 -0.06808 0.48451
 O222 O 0.45992 0.04573 0.46030
 Co223 Co 0.55843 -0.00076 0.50177
 Co224 Co 0.45281 0.00136 0.50020
 Co225 Co 0.49667 0.05022 0.49064
 Co226 Co 0.49830 -0.05264 0.51525
 O227 O 0.50349 -0.00192 0.50311
 C228 C 0.55351 -0.05670 0.46083
 C229 C 0.42892 0.04848 0.46720
 C230 C 0.54849 0.04674 0.44395
 C231 C 0.45768 -0.04561 0.44850
 O232 O 0.56237 0.52668 0.03817
 O233 O 0.41619 0.47419 0.01119
 O234 O 0.47168 0.56163 0.02554
 O235 O 0.51760 0.45233 0.05297
 O236 O 0.45182 0.51465 0.04700
 O237 O 0.56461 0.46494 0.02877
 O238 O 0.45976 0.45391 0.03926
 O239 O 0.53232 0.56794 0.01539
 C240 C 0.55328 0.55649 0.03897
 C241 C 0.42873 0.45118 0.03245
 C242 C 0.45742 0.54523 0.05133
 C243 C 0.54838 0.45304 0.05536
 O244 O 0.56153 0.47518 -0.04289
 O245 O 0.42669 0.53414 -0.01342
 O246 O 0.52176 0.55112 -0.05783
 O247 O 0.47339 0.43897 -0.03311
 O248 O 0.44861 0.48425 -0.04843
 O249 O 0.56738 0.53632 -0.03238
 O250 O 0.53279 0.43403 -0.01870
 O251 O 0.46533 0.54636 -0.04955
 Co252 Co 0.55813 0.50073 -0.00228
 Co253 Co 0.45253 0.49838 -0.00054
 Co254 Co 0.49794 0.55257 -0.01541
 Co255 Co 0.49644 0.44961 0.00879
 O256 O 0.50318 0.50180 -0.00352
 C257 C 0.55287 0.44534 -0.04313
 C258 C 0.43559 0.55001 -0.04122
 C259 C 0.55246 0.54967 -0.05890
 C260 C 0.45593 0.45495 -0.05590
 C261 C 1.07953 0.11157 0.12421
 C262 C 1.10010 0.09309 0.14819
 C263 C 1.10342 0.05876 0.14359
 C264 C 1.08723 0.04310 0.11421
 C265 C 1.18360 0.15842 0.23199
 C266 C 1.06332 0.09596 0.09477
 C267 C 1.12083 0.10991 0.17452
 C268 C 1.13963 0.12452 0.19467
 C269 C 1.16293 0.14236 0.21587
 C270 C 1.06774 0.06173 0.08895
 H271 H 1.07703 0.13822 0.12744
 H272 H 1.11950 0.04432 0.16187
 H273 H 1.09093 0.01664 0.11052
 H274 H 1.04826 0.11084 0.07589
 C275 C 1.07878 0.60964 0.61892
 C276 C 1.09986 0.59146 0.64259
 C277 C 1.10389 0.55723 0.63769
 C278 C 1.08779 0.54139 0.60833
 C279 C 1.18167 0.65753 0.72787
 C280 C 1.06269 0.59387 0.58951
 C281 C 1.12018 0.60857 0.66909
 C282 C 1.13855 0.62346 0.68949
 C283 C 1.16134 0.64151 0.71116
 C284 C 1.06771 0.55975 0.58342
 H285 H 1.07570 0.63621 0.62239
 H286 H 1.12036 0.54303 0.65574
 H287 H 1.09198 0.51503 0.60441
 H288 H 1.04716 0.60855 0.57092
 C289 C 0.60304 0.08090 0.62597
 C290 C 0.61014 0.11415 0.61749
 C291 C 0.59552 0.12926 0.58609
 C292 C 0.57502 0.11061 0.56241
 C293 C 0.70390 0.16891 0.69926
 C294 C 0.58290 0.06230 0.60238
 C295 C 0.63454 0.13132 0.63966
 C296 C 0.65598 0.14391 0.65848
 C297 C 0.68174 0.15746 0.68056
 C298 C 0.56943 0.07665 0.56982
 H299 H 0.61412 0.06894 0.65015
 H300 H 0.60092 0.15501 0.57922
 H301 H 0.56507 0.12220 0.53744
 H302 H 0.57882 0.03624 0.60895
 C303 C 0.60245 0.58138 0.12344
 C304 C 0.60924 0.61485 0.11580
 C305 C 0.59455 0.63045 0.08476
 C306 C 0.57430 0.61210 0.06054
 C307 C 0.70283 0.66842 0.19869
 C308 C 0.58258 0.56307 0.09930
 C309 C 0.63352 0.63174 0.13839
 C310 C 0.65490 0.64406 0.15748
 C311 C 0.68065 0.65726 0.17982
 C312 C 0.56907 0.57795 0.06706
 H313 H 0.61361 0.56904 0.14733
 H314 H 0.59971 0.65638 0.07855
 H315 H 0.56431 0.62408 0.03582
 H316 H 0.57876 0.53684 0.10519
 C317 C 0.91442 -0.11068 0.12093
 C318 C 0.89176 -0.09229 0.14211
 C319 C 0.88978 -0.05778 0.13709
 C320 C 0.90954 -0.04184 0.11022
 C321 C 0.80445 -0.15738 0.22465
 C322 C 0.93421 -0.09480 0.09401
 C323 C 0.86887 -0.10914 0.16690
 C324 C 0.84899 -0.12366 0.18640
 C325 C 0.82511 -0.14139 0.20776
 C326 C 0.93147 -0.06030 0.08783
 H327 H 0.91611 -0.13743 0.12449
 H328 H 0.87229 -0.04329 0.15322
 H329 H 0.90687 -0.01523 0.10618
 H330 H 0.95089 -0.10967 0.07729
 C331 C 0.91276 0.38859 0.61655
 C332 C 0.89043 0.40714 0.63798
 C333 C 0.88879 0.44170 0.63309
 C334 C 0.90858 0.45751 0.60613
 C335 C 0.80371 0.34254 0.72198
 C336 C 0.93258 0.40436 0.58955
 C337 C 0.86761 0.39045 0.66302
 C338 C 0.84785 0.37605 0.68282
 C339 C 0.82417 0.35844 0.70463
 C340 C 0.93021 0.43892 0.58353
 H341 H 0.91420 0.36182 0.62000
 H342 H 0.87157 0.45632 0.64941
 H343 H 0.90619 0.48417 0.60223
 H344 H 0.94901 0.38937 0.57267
 C345 C 0.40210 -0.10410 0.61903
 C346 C 0.36827 -0.10597 0.60943
 C347 C 0.35664 -0.08990 0.57723
 C348 C 0.37875 -0.07183 0.55475
 C349 C 0.28228 -0.16816 0.69562
 C350 C 0.42425 -0.08605 0.59660
 C351 C 0.34534 -0.12378 0.63299
 C352 C 0.32584 -0.13829 0.65280
 C353 C 0.30260 -0.15469 0.67595
 C354 C 0.41272 -0.06965 0.56435
 H355 H 0.41130 -0.11642 0.64394
 H356 H 0.33046 -0.09118 0.56963
 H357 H 0.36927 -0.05946 0.53002
 H358 H 0.45033 -0.08479 0.60456
 C359 C 0.39976 0.38965 0.10585
 C360 C 0.36514 0.39029 0.10034
 C361 C 0.35150 0.40964 0.07156
 C362 C 0.37231 0.42890 0.04881
 C363 C 0.28200 0.33031 0.19168
 C364 C 0.42065 0.40888 0.08309
 C365 C 0.34338 0.37246 0.12523
 C366 C 0.32459 0.35841 0.14624
 C367 C 0.30194 0.34291 0.17083
 C368 C 0.40703 0.42905 0.05472
 H369 H 0.41052 0.37478 0.12812
 H370 H 0.32471 0.41031 0.06713
 H371 H 0.36119 0.44408 0.02705
 H372 H 0.44733 0.40851 0.08820
 C373 C 0.91422 0.11184 -0.11675
 C374 C 0.89180 0.09334 -0.13817
 C375 C 0.89003 0.05879 -0.13326
 C376 C 0.90978 0.04293 -0.10630
 C377 C 0.80512 0.15794 -0.22218
 C378 C 0.93400 0.09604 -0.08974
 C379 C 0.86901 0.11008 -0.16321
 C380 C 0.84927 0.12451 -0.18300
 C381 C 0.82559 0.14211 -0.20481
 C382 C 0.93149 0.06149 -0.08370
 H383 H 0.91577 0.13860 -0.12022
 H384 H 0.87273 0.04420 -0.14958
 H385 H 0.90728 0.01628 -0.10237
 H386 H 0.95050 0.11099 -0.07286
 C387 C 0.88883 0.55813 0.36272
 C388 C 0.89068 0.59267 0.35782
 C389 C 0.91325 0.61111 0.37911
 C390 C 0.93309 0.59526 0.40602
 C391 C 0.80321 0.65760 0.27529
 C392 C 0.90863 0.54223 0.38959
 C393 C 0.86773 0.60946 0.33303
 C394 C 0.84781 0.62392 0.31352
 C395 C 0.82389 0.64160 0.29217
 C396 C 0.93047 0.56073 0.41209
 H397 H 0.87140 0.54360 0.34651
 H398 H 0.91484 0.63788 0.37564
 H399 H 0.94969 0.61017 0.42283
 H400 H 0.90605 0.51559 0.39353
 C401 C 0.39988 0.11043 0.39429
 C402 C 0.36529 0.10989 0.39998
 C403 C 0.35169 0.09043 0.42869
 C404 C 0.37252 0.07097 0.45120
 C405 C 0.28203 0.17056 0.30935
 C406 C 0.42078 0.09099 0.41681
 C407 C 0.34350 0.12795 0.37533
 C408 C 0.32469 0.14218 0.35449
 C409 C 0.30201 0.15786 0.33008
 C410 C 0.40721 0.07073 0.44512
 H411 H 0.41060 0.12538 0.37207
 H412 H 0.32492 0.08984 0.43324
 H413 H 0.36143 0.05572 0.47292
 H414 H 0.44744 0.09130 0.41157
 C415 C 0.40114 0.60359 -0.11921
 C416 C 0.36731 0.60517 -0.10957
 C417 C 0.35586 0.58904 -0.07734
 C418 C 0.37815 0.57119 -0.05486
 C419 C 0.28070 0.66694 -0.19543
 C420 C 0.42347 0.58575 -0.09677
 C421 C 0.34420 0.62280 -0.13310
 C422 C 0.32454 0.63718 -0.15284
 C423 C 0.30114 0.65349 -0.17587
 C424 C 0.41212 0.56928 -0.06449
 H425 H 0.41021 0.61597 -0.14414
 H426 H 0.32970 0.59011 -0.06970
 H427 H 0.36880 0.55876 -0.03010
 H428 H 0.44954 0.58470 -0.10476
 C429 C 1.10523 -0.05756 -0.13706
 C430 C 1.10082 -0.09175 -0.14196
 C431 C 1.07939 -0.10968 -0.11843
 C432 C 1.06336 -0.09371 -0.08916
 C433 C 1.18222 -0.15891 -0.22642
 C434 C 1.08918 -0.04151 -0.10784
 C435 C 1.12107 -0.10913 -0.16825
 C436 C 1.13935 -0.12428 -0.18845
 C437 C 1.16200 -0.14265 -0.20988
 C438 C 1.06876 -0.05965 -0.08307
 H439 H 1.12197 -0.04355 -0.15500
 H440 H 1.07601 -0.13621 -0.12190
 H441 H 1.04756 -0.10822 -0.07068
 H442 H 1.09366 -0.01520 -0.10390
 C443 C 1.10266 0.44185 0.35676
 C444 C 1.09950 0.40750 0.35219
 C445 C 1.07891 0.38894 0.37605
 C446 C 1.06251 0.40450 0.40538
 C447 C 1.18357 0.34250 0.26895
 C448 C 1.08629 0.45746 0.38602
 C449 C 1.12042 0.39077 0.32601
 C450 C 1.13937 0.37624 0.30600
 C451 C 1.16281 0.35850 0.28495
 C452 C 1.06677 0.43876 0.41119
 H453 H 1.11876 0.45636 0.33857
 H454 H 1.07653 0.36227 0.37284
 H455 H 1.04744 0.38955 0.42419
 H456 H 1.08987 0.48394 0.38970
 C457 C 0.59440 -0.13095 0.41536
 C458 C 0.60919 -0.11548 0.38429
 C459 C 0.60261 -0.08200 0.37655
 C460 C 0.58285 -0.06354 0.40059
 C461 C 0.70262 -0.16950 0.30181
 C462 C 0.57425 -0.11244 0.43948
 C463 C 0.63338 -0.13254 0.36182
 C464 C 0.65471 -0.14499 0.34281
 C465 C 0.68043 -0.15830 0.32059
 C466 C 0.56923 -0.07828 0.43285
 H467 H 0.59940 -0.15688 0.42166
 H468 H 0.61385 -0.06977 0.35264
 H469 H 0.57918 -0.03731 0.39461
 H470 H 0.56417 -0.12431 0.46422
 C471 C 0.59556 0.37127 -0.08699
 C472 C 0.60994 0.38651 -0.11844
 C473 C 0.60249 0.41968 -0.12693
 C474 C 0.58227 0.43808 -0.10328
 C475 C 0.70394 0.33248 -0.20031
 C476 C 0.57496 0.38971 -0.06326
 C477 C 0.63445 0.36959 -0.14065
 C478 C 0.65595 0.35719 -0.15950
 C479 C 0.68176 0.34382 -0.18160
 C480 C 0.56904 0.42360 -0.07067
 H481 H 0.60122 0.34557 -0.08012
 H482 H 0.61339 0.43175 -0.15114
 H483 H 0.57793 0.46410 -0.10984
 H484 H 0.56522 0.37804 -0.03824
 C485 C 1.07325 0.11531 -0.12536
 C486 C 1.10823 0.11642 -0.12408
 C487 C 1.12539 0.09653 -0.09818
 C488 C 1.10770 0.07619 -0.07319
 C489 C 1.17444 0.20195 -0.20861
 C490 C 1.05551 0.09498 -0.10041
 C491 C 1.12641 0.13900 -0.14819
 C492 C 1.14159 0.15841 -0.16776
 C493 C 1.15934 0.18168 -0.19007
 C494 C 1.07254 0.07553 -0.07371
 H495 H 1.05966 0.13060 -0.14521
 H496 H 1.15243 0.09717 -0.09685
 H497 H 1.12151 0.06148 -0.05301
 H498 H 1.02845 0.09502 -0.10151
 C499 C 1.07318 0.61430 0.37028
 C500 C 1.10818 0.61484 0.37144
 C501 C 1.12509 0.59420 0.39680
 C502 C 1.10716 0.57372 0.42141
 C503 C 1.17575 0.70112 0.28919
 C504 C 1.05518 0.59381 0.39486
 C505 C 1.12669 0.63761 0.34787
 C506 C 1.14221 0.65718 0.32882
 C507 C 1.16037 0.68065 0.30717
 C508 C 1.07199 0.57364 0.42107
 H509 H 1.05977 0.63017 0.35085
 H510 H 1.15215 0.59439 0.39804
 H511 H 1.12081 0.55845 0.44121
 H512 H 1.02812 0.59432 0.39393
 C513 C 0.61672 0.08378 0.38383
 C514 C 0.59796 0.10206 0.35792
 C515 C 0.56306 0.09992 0.35816
 C516 C 0.54689 0.08059 0.38519
 C517 C 0.65913 0.19470 0.28020
 C518 C 0.60062 0.06445 0.41091
 C519 C 0.61434 0.12563 0.33382
 C520 C 0.62821 0.14658 0.31531
 C521 C 0.64471 0.17217 0.29557
 C522 C 0.56552 0.06337 0.41244
 H523 H 0.64376 0.08543 0.38398
 H524 H 0.54833 0.11415 0.33834
 H525 H 0.51982 0.08020 0.38564
 H526 H 0.61561 0.05137 0.43145
 C527 C 0.62326 0.58737 -0.11472
 C528 C 0.60558 0.60521 -0.14194
 C529 C 0.57076 0.60274 -0.14378
 C530 C 0.55351 0.58346 -0.11760
 C531 C 0.66817 0.69739 -0.21888
 C532 C 0.60605 0.56804 -0.08848
 C533 C 0.62277 0.62862 -0.16549
 C534 C 0.63701 0.64946 -0.18377
 C535 C 0.65368 0.67494 -0.20344
 C536 C 0.57095 0.56656 -0.08915
 H537 H 0.65022 0.58931 -0.11297
 H538 H 0.55687 0.61663 -0.16464
 H539 H 0.52647 0.58273 -0.11887
 H540 H 0.62013 0.55524 -0.06695
 C541 C 0.88492 -0.09396 -0.10094
 C542 C 0.90373 -0.11202 -0.12660
 C543 C 0.93859 -0.10985 -0.12634
 C544 C 0.95471 -0.09042 -0.09990
 C545 C 0.84457 -0.19933 -0.21170
 C546 C 0.90102 -0.07443 -0.07443
 C547 C 0.88752 -0.13455 -0.15151
 C548 C 0.87419 -0.15437 -0.17150
 C549 C 0.85849 -0.17838 -0.19374
 C550 C 0.93610 -0.07299 -0.07327
 H551 H 0.85789 -0.09559 -0.10087
 H552 H 0.95336 -0.12382 -0.14601
 H553 H 0.98178 -0.08966 -0.09979
 H554 H 0.88611 -0.06117 -0.05431
 C555 C 0.88056 0.40631 0.39657
 C556 C 0.89847 0.38734 0.37094
 C557 C 0.93340 0.38850 0.37061
 C558 C 0.95045 0.40786 0.39643
 C559 C 0.83629 0.30056 0.28766
 C560 C 0.89759 0.42574 0.42245
 C561 C 0.88123 0.36498 0.34665
 C562 C 0.86707 0.34532 0.32714
 C563 C 0.85058 0.32146 0.30536
 C564 C 0.93272 0.42621 0.42302
 H565 H 0.85350 0.40547 0.39709
 H566 H 0.94747 0.37384 0.35097
 H567 H 0.97753 0.40784 0.39612
 H568 H 0.88333 0.43971 0.44253
 C569 C 0.40315 -0.07334 0.36803
 C570 C 0.41595 -0.10532 0.36176
 C571 C 0.44443 -0.11587 0.38114
 C572 C 0.45907 -0.09544 0.40779
 C573 C 0.35344 -0.19691 0.28372
 C574 C 0.41797 -0.05267 0.39467
 C575 C 0.39871 -0.12858 0.33800
 C576 C 0.38450 -0.14935 0.31966
 C577 C 0.36786 -0.17475 0.29967
 C578 C 0.44552 -0.06396 0.41558
 H579 H 0.38106 -0.06486 0.35333
 H580 H 0.45463 -0.14047 0.37666
 H581 H 0.48036 -0.10481 0.42330
 H582 H 0.40685 -0.02868 0.40028
 C583 C 0.39803 0.42703 -0.13310
 C584 C 0.41300 0.39680 -0.14297
 C585 C 0.44391 0.38808 -0.12752
 C586 C 0.45890 0.40837 -0.10098
 C587 C 0.35066 0.30322 -0.21810
 C588 C 0.41318 0.44759 -0.10658
 C589 C 0.39566 0.37306 -0.16602
 C590 C 0.38149 0.35182 -0.18371
 C591 C 0.36499 0.32586 -0.20289
 C592 C 0.44326 0.43785 -0.08939
 H593 H 0.37403 0.43405 -0.14472
 H594 H 0.45580 0.36483 -0.13480
 H595 H 0.48212 0.40024 -0.08831
 H596 H 0.40043 0.46997 -0.09794
 C597 C 1.12580 -0.09406 0.10354
 C598 C 1.10879 -0.11472 0.12880
 C599 C 1.07379 -0.11408 0.12988
 C600 C 1.05589 -0.09349 0.10532
 C601 C 1.17594 -0.20142 0.21089
 C602 C 1.10797 -0.07348 0.07895
 C603 C 1.12719 -0.13761 0.15233
 C604 C 1.14262 -0.15728 0.17134
 C605 C 1.16066 -0.18086 0.19295
 C606 C 1.07280 -0.07331 0.07920
 H607 H 1.15286 -0.09432 0.10237
 H608 H 1.06030 -0.12997 0.14924
 H609 H 1.02883 -0.09394 0.10618
 H610 H 1.12170 -0.05821 0.05921
 C611 C 1.12410 0.40400 0.59851
 C612 C 1.10692 0.38413 0.62441
 C613 C 1.07194 0.38517 0.62558
 C614 C 1.05422 0.40542 0.60053
 C615 C 1.17325 0.29905 0.70934
 C616 C 1.10644 0.42425 0.57343
 C617 C 1.12509 0.36166 0.64864
 C618 C 1.14028 0.34235 0.66831
 C619 C 1.15808 0.31920 0.69072
 C620 C 1.07128 0.42485 0.57384
 H621 H 1.15115 0.40342 0.59728
 H622 H 1.05833 0.36990 0.64543
 H623 H 1.02716 0.40533 0.60154
 H624 H 1.12027 0.43896 0.55325
 C625 C 0.62374 -0.08683 0.61467
 C626 C 0.60609 -0.10446 0.64209
 C627 C 0.57129 -0.10192 0.64398
 C628 C 0.55402 -0.08280 0.61767
 C629 C 0.66842 -0.19646 0.71949
 C630 C 0.60652 -0.06766 0.58831
 C631 C 0.62326 -0.12776 0.66577
 C632 C 0.63746 -0.14855 0.68416
 C633 C 0.65403 -0.17401 0.70396
 C634 C 0.57142 -0.06614 0.58903
 H635 H 0.65070 -0.08883 0.61288
 H636 H 0.55741 -0.11565 0.66498
 H637 H 0.52698 -0.08202 0.61900
 H638 H 0.62057 -0.05504 0.56663
 C639 C 0.61673 0.41563 0.11503
 C640 C 0.59801 0.39732 0.14096
 C641 C 0.56312 0.39956 0.14088
 C642 C 0.54691 0.41903 0.11400
 C643 C 0.65914 0.30440 0.21828
 C644 C 0.60059 0.43508 0.08810
 C645 C 0.61439 0.37363 0.16491
 C646 C 0.62826 0.35261 0.18331
 C647 C 0.64473 0.32696 0.20296
 C648 C 0.56548 0.43628 0.08673
 H649 H 0.64376 0.41389 0.11475
 H650 H 0.54841 0.38532 0.16071
 H651 H 0.51984 0.41950 0.11368
 H652 H 0.61553 0.44818 0.06754
 C653 C 0.88165 0.09378 0.10328
 C654 C 0.89950 0.11289 0.12885
 C655 C 0.93443 0.11196 0.12916
 C656 C 0.95155 0.09267 0.10336
 C657 C 0.83671 0.19928 0.21192
 C658 C 0.89873 0.07442 0.07742
 C659 C 0.88216 0.13516 0.15313
 C660 C 0.86787 0.15473 0.17259
 C661 C 0.85119 0.17847 0.19430
 C662 C 0.93386 0.07416 0.07682
 H663 H 0.85458 0.09444 0.10277
 H664 H 0.94846 0.12674 0.14877
 H665 H 0.97862 0.09285 0.10364
 H666 H 0.88451 0.06032 0.05738
 C667 C 0.88390 0.59436 0.60077
 C668 C 0.90275 0.61226 0.62658
 C669 C 0.93760 0.60998 0.62644
 C670 C 0.95368 0.59059 0.59998
 C671 C 0.84413 0.69958 0.71195
 C672 C 0.89996 0.57487 0.57423
 C673 C 0.88662 0.63477 0.65153
 C674 C 0.87340 0.65459 0.67158
 C675 C 0.85787 0.67861 0.69390
 C676 C 0.93504 0.57331 0.57320
 H677 H 0.85688 0.59608 0.60061
 H678 H 0.95240 0.62382 0.64623
 H679 H 0.98075 0.58973 0.59997
 H680 H 0.88503 0.56173 0.55400
 C681 C 0.44445 0.11187 0.62700
 C682 C 0.41372 0.10296 0.64274
 C683 C 0.39882 0.07263 0.63302
 C684 C 0.41386 0.05215 0.60639
 C685 C 0.35165 0.19608 0.71862
 C686 C 0.45933 0.09167 0.60034
 C687 C 0.39647 0.12658 0.66598
 C688 C 0.38237 0.14771 0.68384
 C689 C 0.36592 0.17355 0.70323
 C690 C 0.44376 0.06206 0.58893
 H691 H 0.45628 0.13520 0.63417
 H692 H 0.37496 0.06546 0.64487
 H693 H 0.40117 0.02967 0.59790
 H694 H 0.48242 0.09993 0.58749
 C695 C 0.40287 0.57269 0.13178
 C696 C 0.41569 0.60465 0.13820
 C697 C 0.44421 0.61526 0.11894
 C698 C 0.45885 0.59491 0.09226
 C699 C 0.35327 0.69613 0.21630
 C700 C 0.41769 0.55209 0.10511
 C701 C 0.39845 0.62786 0.16198
 C702 C 0.38425 0.64860 0.18033
 C703 C 0.36764 0.67397 0.20034
 C704 C 0.44528 0.56345 0.08431
 H705 H 0.38074 0.56418 0.14639
 H706 H 0.45444 0.63985 0.12354
 H707 H 0.48017 0.60432 0.07683
 H708 H 0.40654 0.52813 0.09938
   
