data_POSCAR
  _audit_creation_date              2014-09-24
  _audit_creation_method            'ToBaCCo'
  _symmetry_space_group_name_H-M    'P1'
  _symmetry_Int_Tables_number       1
  _symmetry_cell_setting            triclinic
  loop_
  _symmetry_equiv_pos_as_xyz
 x,y,z
_cell_length_a 50.0649
_cell_length_b 50.1078
_cell_length_c 19.7828
_cell_angle_alpha 90.092600
_cell_angle_beta 89.967400
_cell_angle_gamma 119.273900
loop_
  _atom_site_label
  _atom_site_type_symbol
  _atom_site_fract_x
  _atom_site_fract_y
  _atom_site_fract_z
C1 C 0.16788 0.45717 0.43837
 C2 C 0.15638 0.46043 0.50061
 C3 C 0.17023 0.46096 0.56250
 C4 C 0.19717 0.45821 0.56246
 C5 C 0.20969 0.45538 0.50000
 C6 C 0.19491 0.45455 0.43786
 C7 C 0.20646 0.44909 0.37765
 C8 C 0.23317 0.44709 0.37734
 C9 C 0.24909 0.44961 0.43743
 C10 C 0.23705 0.45317 0.49964
 C11 C 0.21272 0.45953 0.62263
 C12 C 0.23881 0.45644 0.62229
 C13 C 0.25211 0.45421 0.56143
 C14 C 0.27900 0.45121 0.56055
 C15 C 0.28998 0.44727 0.49811
 C16 C 0.27620 0.44751 0.43699
 H17 H 0.19470 0.44560 0.32997
 H18 H 0.24084 0.44279 0.32945
 H19 H 0.20506 0.46302 0.67119
 H20 H 0.24812 0.45549 0.67088
 H21 H 0.13589 0.46271 0.50096
 H22 H 0.31120 0.44639 0.49637
 C23 C 0.54600 -0.28139 0.56516
 C24 C 0.54563 -0.29586 0.50462
 C25 C 0.54518 -0.28340 0.44138
 C26 C 0.54635 -0.25442 0.43930
 C27 C 0.54712 -0.23922 0.50081
 C28 C 0.54706 -0.25275 0.56378
 C29 C 0.54955 -0.23669 0.62372
 C30 C 0.55148 -0.20809 0.62229
 C31 C 0.55009 -0.19460 0.56095
 C32 C 0.54892 -0.20995 0.49942
 C33 C 0.54932 -0.23902 0.37793
 C34 C 0.55098 -0.21052 0.37653
 C35 C 0.55046 -0.19576 0.43648
 C36 C 0.55288 -0.16649 0.43511
 C37 C 0.55438 -0.15153 0.49577
 C38 C 0.55229 -0.16515 0.55900
 H39 H 0.55093 -0.24574 0.67244
 H40 H 0.55509 -0.19631 0.67003
 H41 H 0.55146 -0.24829 0.33016
 H42 H 0.55356 -0.19975 0.32778
 H43 H 0.54380 -0.31833 0.50732
 H44 H 0.55509 -0.12956 0.49318
 C45 C 1.18816 0.70267 0.43730
 C46 C 1.17455 0.68839 0.49795
 C47 C 1.18759 0.70085 0.56101
 C48 C 1.21612 0.72862 0.56257
 C49 C 1.23024 0.74351 0.50090
 C50 C 1.21615 0.73035 0.43820
 C51 C 1.23118 0.74418 0.37783
 C52 C 1.25963 0.77039 0.37854
 C53 C 1.27398 0.78458 0.43966
 C54 C 1.25933 0.77069 0.50169
 C55 C 1.23246 0.74021 0.62313
 C56 C 1.26081 0.76660 0.62397
 C57 C 1.27440 0.78285 0.56430
 C58 C 1.30403 0.80906 0.56492
 C59 C 1.31835 0.82153 0.50298
 C60 C 1.30379 0.81055 0.44053
 H61 H 1.22156 0.73423 0.32917
 H62 H 1.27069 0.77854 0.33023
 H63 H 1.22429 0.72826 0.67053
 H64 H 1.27261 0.77324 0.67196
 H65 H 1.15263 0.66750 0.49559
 H66 H 1.34047 0.84222 0.50352
 C67 C 0.70889 0.53790 0.44089
 C68 C 0.69312 0.53302 0.50175
 C69 C 0.70563 0.53098 0.56380
 C70 C 0.73502 0.53298 0.56387
 C71 C 0.75148 0.53826 0.50215
 C72 C 0.73842 0.54098 0.44063
 C73 C 0.75517 0.54668 0.38036
 C74 C 0.78359 0.54815 0.37964
 C75 C 0.79636 0.54396 0.43916
 C76 C 0.78064 0.53977 0.50143
 C77 C 0.74721 0.52708 0.62239
 C78 C 0.77566 0.52849 0.62166
 C79 C 0.79345 0.53596 0.56241
 C80 C 0.82238 0.53696 0.56088
 C81 C 0.83694 0.54044 0.49820
 C82 C 0.82445 0.54380 0.43793
 H83 H 0.74636 0.54990 0.33294
 H84 H 0.79543 0.55246 0.33172
 H85 H 0.73439 0.52006 0.66906
 H86 H 0.78289 0.52241 0.66782
 H87 H 0.67079 0.53161 0.50052
 H88 H 0.85895 0.54117 0.49596
 C89 C 0.45262 0.17104 0.56509
 C90 C 0.44910 0.15547 0.50415
 C91 C 0.45101 0.16936 0.44175
 C92 C 0.45510 0.19936 0.43987
 C93 C 0.45837 0.21543 0.50124
 C94 C 0.45745 0.20134 0.56402
 C95 C 0.46163 0.21797 0.62393
 C96 C 0.46708 0.24797 0.62240
 C97 C 0.46711 0.26226 0.56108
 C98 C 0.46326 0.24590 0.49968
 C99 C 0.45595 0.21366 0.37826
 C100 C 0.46111 0.24355 0.37660
 C101 C 0.46503 0.26013 0.43657
 C102 C 0.47146 0.29086 0.43498
 C103 C 0.47595 0.30691 0.49543
 C104 C 0.47302 0.29311 0.55883
 H105 H 0.46114 0.20809 0.67281
 H106 H 0.47200 0.25997 0.67010
 H107 H 0.45271 0.20189 0.33053
 H108 H 0.46234 0.25365 0.32760
 H109 H 0.44648 0.13266 0.50525
 H110 H 0.47989 0.33019 0.49267
 C111 C 0.70765 0.18345 0.56285
 C112 C 0.69605 0.16824 0.50159
 C113 C 0.70922 0.18170 0.43976
 C114 C 0.73570 0.21090 0.43898
 C115 C 0.74792 0.22662 0.50087
 C116 C 0.73357 0.21302 0.56295
 C117 C 0.74546 0.22930 0.62334
 C118 C 0.77105 0.25835 0.62300
 C119 C 0.78674 0.27184 0.56259
 C120 C 0.77446 0.25603 0.50061
 C121 C 0.75053 0.22455 0.37815
 C122 C 0.77640 0.25338 0.37777
 C123 C 0.78847 0.26962 0.43823
 C124 C 0.81439 0.29903 0.43796
 C125 C 0.82596 0.31454 0.49880
 C126 C 0.81317 0.30145 0.56160
 H127 H 0.73492 0.21987 0.67160
 H128 H 0.77796 0.27022 0.67084
 H129 H 0.74241 0.21296 0.33018
 H130 H 0.78688 0.26282 0.32944
 H131 H 0.67568 0.14588 0.50197
 H132 H 0.84644 0.33680 0.49694
 N133 N 0.96922 0.53850 0.07242
 N134 N 0.94935 0.54798 0.08602
 N135 N 1.03217 0.54748 0.11941
 N136 N 1.05383 0.56141 0.16502
 N137 N 1.03357 0.56688 0.07310
 N138 N 1.05628 0.59468 0.08614
 N139 N 0.96796 0.51914 0.11872
 N140 N 0.94725 0.51489 0.16489
 C141 C 0.93561 0.53265 0.14330
 C142 C 1.06878 0.59064 0.14324
 N143 N 1.02774 0.46915 0.07365
 N144 N 1.04789 0.46007 0.08736
 N145 N 0.96444 0.46006 0.11905
 N146 N 0.94311 0.44587 0.16521
 N147 N 0.96339 0.44068 0.07291
 N148 N 0.94128 0.41270 0.08659
 N149 N 1.02873 0.48850 0.11979
 N150 N 1.04956 0.49316 0.16598
 Mn151 Mn 0.99831 0.50379 0.11980
 C152 C 1.06156 0.47567 0.14451
 C153 C 0.92864 0.41653 0.14369
 N154 N 1.03388 0.56681 -0.07312
 N155 N 1.05631 0.59469 -0.08677
 N156 N 0.96855 0.51887 -0.11957
 N157 N 0.94728 0.51349 -0.16501
 N158 N 0.96947 0.53830 -0.07374
 N159 N 0.94878 0.54676 -0.08698
 N160 N 1.03273 0.54727 -0.11893
 N161 N 1.05426 0.56117 -0.16475
 Mn162 Mn 1.00156 0.55298 -0.00033
 C163 C 1.06893 0.59054 -0.14364
 C164 C 0.93501 0.53073 -0.14368
 N165 N 0.96367 0.44050 -0.07315
 N166 N 0.94136 0.41258 -0.08701
 N167 N 1.02924 0.48831 -0.11853
 N168 N 1.05018 0.49291 -0.16431
 N169 N 1.02804 0.46896 -0.07233
 N170 N 1.04818 0.45979 -0.08561
 N171 N 0.96502 0.45992 -0.11934
 N172 N 0.94374 0.44588 -0.16567
 Mn173 Mn 0.99569 0.45449 0.00030
 Mn174 Mn 0.99889 0.50361 -0.11959
 Cl175 Cl 0.99861 0.50372 0.00006
 C176 C 0.92900 0.41656 -0.14441
 C177 C 1.06199 0.47532 -0.14266
 N178 N 0.45017 0.48533 0.11852
 N179 N 0.43385 0.48907 0.16625
 N180 N 0.46632 0.43576 0.07079
 N181 N 0.45994 0.40734 0.08355
 N182 N 0.48421 0.45440 0.11800
 N183 N 0.49059 0.43929 0.16385
 N184 N 0.43218 0.46668 0.07142
 N185 N 0.40316 0.45726 0.08591
 C186 C 0.40471 0.47188 0.14450
 C187 C 0.47564 0.41014 0.14128
 N188 N 0.48518 0.45613 -0.12137
 N189 N 0.49186 0.44165 -0.16835
 N190 N 0.43286 0.46786 -0.07447
 N191 N 0.40403 0.45920 -0.08952
 N192 N 0.45136 0.48728 -0.11975
 N193 N 0.43567 0.49234 -0.16667
 N194 N 0.46692 0.43685 -0.07564
 N195 N 0.46057 0.40860 -0.09055
 Mn196 Mn 0.44930 0.45147 -0.00200
 C197 C 0.47669 0.41220 -0.14801
 C198 C 0.40633 0.47514 -0.14643
 N199 N 0.54018 0.51190 0.12031
 N200 N 0.55579 0.50682 0.16740
 N201 N 0.52515 0.56217 0.07506
 N202 N 0.53290 0.59069 0.09071
 N203 N 0.50642 0.54318 0.12065
 N204 N 0.50098 0.55828 0.16850
 N205 N 0.55871 0.53073 0.07430
 N206 N 0.58749 0.53906 0.08902
 Mn207 Mn 0.49521 0.49872 0.11992
 C208 C 0.58511 0.52350 0.14654
 C209 C 0.51714 0.58774 0.14831
 N210 N 0.50760 0.54494 -0.11754
 N211 N 0.50286 0.56078 -0.16465
 N212 N 0.55941 0.53167 -0.07175
 N213 N 0.58812 0.53886 -0.08433
 N214 N 0.54112 0.51344 -0.11894
 N215 N 0.55673 0.50760 -0.16465
 N216 N 0.52589 0.56324 -0.07042
 N217 N 0.53404 0.59201 -0.08419
 Mn218 Mn 0.49628 0.50048 -0.11992
 Mn219 Mn 0.54258 0.54720 0.00182
 Cl220 Cl 0.49581 0.49946 -0.00002
 C221 C 0.51899 0.58994 -0.14235
 C222 C 0.58584 0.52330 -0.14205
 N223 N 0.43728 -0.03562 0.07441
 N224 N 0.40957 -0.05821 0.08870
 N225 N 0.48439 0.03009 0.12084
 N226 N 0.48803 0.05010 0.16829
 N227 N 0.46460 0.02855 0.07523
 N228 N 0.45422 0.04752 0.09060
 N229 N 0.45710 -0.03396 0.12004
 N230 N 0.44356 -0.05532 0.16629
 C231 C 0.41412 -0.07042 0.14566
 C232 C 0.46946 0.06104 0.14817
 N233 N 0.56343 0.03622 0.07248
 N234 N 0.59156 0.05778 0.08723
 N235 N 0.51662 -0.02938 0.11847
 N236 N 0.51308 -0.04976 0.16476
 N237 N 0.53581 -0.02795 0.07144
 N238 N 0.54593 -0.04731 0.08466
 N239 N 0.54413 0.03476 0.11930
 N240 N 0.55858 0.05525 0.16704
 Mn241 Mn 0.50056 0.00041 0.12016
 C242 C 0.58796 0.06971 0.14568
 C243 C 0.53111 -0.06100 0.14243
 N244 N 0.46412 0.02890 -0.07105
 N245 N 0.45408 0.04834 -0.08436
 N246 N 0.45630 -0.03347 -0.11870
 N247 N 0.44268 -0.05527 -0.16413
 N248 N 0.43680 -0.03538 -0.07195
 N249 N 0.40922 -0.05861 -0.08454
 N250 N 0.48363 0.03061 -0.11757
 N251 N 0.48744 0.05118 -0.16358
 Mn252 Mn 0.45035 -0.00343 0.00165
 C253 C 0.46924 0.06228 -0.14172
 C254 C 0.41352 -0.07085 -0.14185
 N255 N 0.53528 -0.02765 -0.07464
 N256 N 0.54522 -0.04700 -0.08967
 N257 N 0.54326 0.03527 -0.11914
 N258 N 0.55724 0.05646 -0.16566
 N259 N 0.56286 0.03657 -0.07337
 N260 N 0.59076 0.05871 -0.08761
 N261 N 0.51573 -0.02887 -0.12045
 N262 N 0.51176 -0.04908 -0.16767
 Mn263 Mn 0.54963 0.00430 -0.00105
 Mn264 Mn 0.49973 0.00092 -0.11948
 Cl265 Cl 0.50007 0.00057 0.00036
 C266 C 0.52989 -0.06048 -0.14722
 C267 C 0.58666 0.07113 -0.14463
 C268 C 1.11779 0.46214 0.27129
 C269 C 1.10283 0.44177 0.32412
 C270 C 1.11956 0.43938 0.37777
 C271 C 1.15177 0.45711 0.37946
 C272 C 1.16672 0.47703 0.32494
 C273 C 1.14980 0.47953 0.27127
 C274 C 1.09966 0.46701 0.22148
 C275 C 1.08293 0.47095 0.18399
 H276 H 1.07806 0.42836 0.32495
 H277 H 1.10722 0.42370 0.41849
 H278 H 1.19130 0.49196 0.32567
 H279 H 1.16158 0.49579 0.23116
 C280 C 0.53269 0.65709 0.27776
 C281 C 0.51543 0.67216 0.28077
 C282 C 0.52029 0.69289 0.33322
 C283 C 0.54255 0.69882 0.38342
 C284 C 0.56002 0.68373 0.37874
 C285 C 0.55523 0.66326 0.32631
 C286 C 0.52627 0.63362 0.22830
 C287 C 0.52167 0.61304 0.19009
 H288 H 0.49759 0.66719 0.24392
 H289 H 0.50545 0.70292 0.33656
 H290 H 0.57747 0.68776 0.41596
 H291 H 0.56866 0.65165 0.32462
 C292 C 0.35379 -0.13549 0.27318
 C293 C 0.32261 -0.14472 0.27934
 C294 C 0.30562 -0.16348 0.33325
 C295 C 0.31963 -0.17328 0.38177
 C296 C 0.35100 -0.16393 0.37422
 C297 C 0.36778 -0.14544 0.32030
 C298 C 0.37258 -0.11366 0.22279
 C299 C 0.39045 -0.09438 0.18487
 H300 H 0.31168 -0.13666 0.24383
 H301 H 0.28194 -0.16899 0.33887
 H302 H 0.36262 -0.17101 0.41021
 H303 H 0.39196 -0.13823 0.31639
 C304 C 0.87670 0.54386 0.26666
 C305 C 0.88890 0.56859 0.31174
 C306 C 0.87123 0.56943 0.36556
 C307 C 0.84114 0.54557 0.37469
 C308 C 0.82859 0.52139 0.32789
 C309 C 0.84631 0.52055 0.27408
 C310 C 0.89652 0.54059 0.21858
 C311 C 0.91396 0.53728 0.18203
 H312 H 0.91249 0.58655 0.30702
 H313 H 0.88138 0.58805 0.40166
 H314 H 0.80560 0.50253 0.33488
 H315 H 0.83677 0.50109 0.24008
 C316 C 0.47390 0.34402 0.26351
 C317 C 0.50082 0.35146 0.29916
 C318 C 0.50031 0.33321 0.35300
 C319 C 0.47288 0.30721 0.37156
 C320 C 0.44613 0.29920 0.33428
 C321 C 0.44664 0.31755 0.28044
 C322 C 0.47374 0.36552 0.21551
 C323 C 0.47422 0.38507 0.17923
 H324 H 0.52195 0.37207 0.28711
 H325 H 0.52104 0.33991 0.38178
 H326 H 0.42467 0.27951 0.34870
 H327 H 0.42559 0.31179 0.25386
 C328 C 0.65534 0.12924 0.27136
 C329 C 0.66985 0.11760 0.31296
 C330 C 0.68870 0.13531 0.36586
 C331 C 0.69335 0.16493 0.37753
 C332 C 0.67952 0.17688 0.33437
 C333 C 0.66062 0.15911 0.28147
 C334 C 0.63273 0.10940 0.22326
 C335 C 0.61278 0.09181 0.18607
 H336 H 0.66569 0.09441 0.30607
 H337 H 0.69886 0.12560 0.39915
 H338 H 0.68238 0.19946 0.34341
 H339 H 0.64923 0.16822 0.25013
 C340 C 0.45730 0.12077 -0.26461
 C341 C 0.48264 0.14889 -0.28176
 C342 C 0.48069 0.16607 -0.33530
 C343 C 0.45333 0.15532 -0.37203
 C344 C 0.42775 0.12753 -0.35342
 C345 C 0.42972 0.11037 -0.29988
 C346 C 0.46070 0.10100 -0.21672
 C347 C 0.46420 0.08369 -0.18023
 H348 H 0.50423 0.15695 -0.25556
 H349 H 0.50084 0.18713 -0.34985
 H350 H 0.40661 0.11868 -0.38183
 H351 H 0.41010 0.08846 -0.28774
 C352 C 0.65080 0.52510 -0.26790
 C353 C 0.63801 0.50561 -0.32329
 C354 C 0.65636 0.50681 -0.37742
 C355 C 0.68814 0.52736 -0.37714
 C356 C 0.70102 0.54626 -0.31992
 C357 C 0.68241 0.54518 -0.26575
 C358 C 0.63049 0.52579 -0.21725
 C359 C 0.61120 0.52528 -0.17992
 H360 H 0.61357 0.49004 -0.32564
 H361 H 0.64559 0.49163 -0.41994
 H362 H 0.72511 0.56316 -0.31877
 H363 H 0.69250 0.56070 -0.22348
 C364 C 0.86477 0.35440 -0.27127
 C365 C 0.85456 0.32293 -0.27263
 C366 C 0.83637 0.30497 -0.32637
 C367 C 0.82817 0.31830 -0.37958
 C368 C 0.83833 0.34996 -0.37664
 C369 C 0.85624 0.36771 -0.32290
 C370 C 0.88624 0.37401 -0.22103
 C371 C 0.90528 0.39243 -0.18338
 H372 H 0.86150 0.31248 -0.23351
 H373 H 0.83026 0.28104 -0.32819
 H374 H 0.83245 0.36109 -0.41627
 H375 H 0.86418 0.39208 -0.32265
 C376 C 0.54478 -0.11548 -0.27549
 C377 C 0.56774 -0.10077 -0.32383
 C378 C 0.57078 -0.11736 -0.37712
 C379 C 0.55108 -0.14920 -0.38282
 C380 C 0.52830 -0.16386 -0.33301
 C381 C 0.52523 -0.14710 -0.27977
 C382 C 0.53968 -0.09741 -0.22586
 C383 C 0.53533 -0.08110 -0.18782
 H384 H 0.58283 -0.07625 -0.32139
 H385 H 0.58866 -0.10521 -0.41407
 H386 H 0.51174 -0.18796 -0.33718
 H387 H 0.50695 -0.15862 -0.24336
 C388 C 0.33709 0.46112 -0.27471
 C389 C 0.32620 0.48188 -0.28269
 C390 C 0.30608 0.47814 -0.33562
 C391 C 0.29644 0.45344 -0.38124
 C392 C 0.30751 0.43265 -0.37199
 C393 C 0.32743 0.43637 -0.31904
 C394 C 0.36028 0.46642 -0.22536
 C395 C 0.38076 0.47052 -0.18735
 H396 H 0.33405 0.50151 -0.24948
 H397 H 0.29943 0.49551 -0.34297
 H398 H 0.30073 0.41342 -0.40600
 H399 H 0.33595 0.42033 -0.31378
 C400 C 1.13377 0.65076 -0.27151
 C401 C 1.14679 0.68266 -0.27234
 C402 C 1.16553 0.69958 -0.32644
 C403 C 1.17142 0.68474 -0.38048
 C404 C 1.15833 0.65263 -0.37813
 C405 C 1.13992 0.63593 -0.32410
 C406 C 1.11215 0.63233 -0.22036
 C407 C 1.09291 0.61445 -0.18236
 H408 H 1.14177 0.69433 -0.23235
 H409 H 1.17411 0.72405 -0.32762
 H410 H 1.16247 0.64033 -0.41821
 H411 H 1.12985 0.61124 -0.32419
 C412 C 0.87327 0.53354 -0.27179
 C413 C 0.85947 0.55199 -0.26849
 C414 C 0.84165 0.55245 -0.32269
 C415 C 0.83750 0.53449 -0.38093
 C416 C 0.85132 0.51582 -0.38269
 C417 C 0.86881 0.51525 -0.32861
 C418 C 0.89382 0.53429 -0.22009
 C419 C 0.91218 0.53350 -0.18200
 H420 H 0.86315 0.56658 -0.22506
 H421 H 0.83243 0.56800 -0.32044
 H422 H 0.84846 0.50142 -0.42606
 H423 H 0.87945 0.50094 -0.33180
 C424 C 0.47610 0.34823 -0.27567
 C425 C 0.49874 0.36001 -0.32552
 C426 C 0.49820 0.34152 -0.37883
 C427 C 0.47515 0.31060 -0.38303
 C428 C 0.45269 0.29883 -0.33175
 C429 C 0.45321 0.31753 -0.27846
 C430 C 0.47531 0.36874 -0.22571
 C431 C 0.47548 0.38768 -0.18783
 H432 H 0.51645 0.38381 -0.32418
 H433 H 0.51594 0.35145 -0.41698
 H434 H 0.43376 0.27566 -0.33472
 H435 H 0.43522 0.30833 -0.24079
 C436 C 0.65327 0.13237 -0.26867
 C437 C 0.65443 0.15996 -0.28662
 C438 C 0.67336 0.17752 -0.33961
 C439 C 0.69125 0.16759 -0.37489
 C440 C 0.69064 0.14038 -0.35543
 C441 C 0.67178 0.12290 -0.30245
 C442 C 0.63082 0.11213 -0.22099
 C443 C 0.61111 0.09399 -0.18429
 H444 H 0.63991 0.16730 -0.26139
 H445 H 0.67321 0.19820 -0.35484
 H446 H 0.70401 0.13224 -0.38277
 H447 H 0.67079 0.10142 -0.28951
 C448 C 1.12223 0.46861 -0.26939
 C449 C 1.13155 0.48989 -0.32191
 C450 C 1.14824 0.48783 -0.37604
 C451 C 1.15642 0.46463 -0.37841
 C452 C 1.14745 0.44359 -0.32448
 C453 C 1.13043 0.44559 -0.27029
 C454 C 1.10201 0.46940 -0.21873
 C455 C 1.08413 0.47141 -0.18113
 H456 H 1.12512 0.50764 -0.32204
 H457 H 1.15471 0.50440 -0.41652
 H458 H 1.15217 0.42468 -0.32594
 H459 H 1.12285 0.42866 -0.23041
 C460 C 0.53490 0.66113 -0.26579
 C461 C 0.56199 0.67374 -0.30358
 C462 C 0.56640 0.69396 -0.35633
 C463 C 0.54379 0.70188 -0.37160
 C464 C 0.51718 0.69016 -0.33186
 C465 C 0.51275 0.66982 -0.27912
 C466 C 0.52874 0.63698 -0.21860
 C467 C 0.52397 0.61586 -0.18220
 H468 H 0.57915 0.66696 -0.29409
 H469 H 0.58687 0.70251 -0.38704
 H470 H 0.49929 0.69562 -0.34377
 H471 H 0.49158 0.65996 -0.25063
 C472 C 0.35349 -0.13808 -0.26592
 C473 C 0.32191 -0.14900 -0.27010
 C474 C 0.30508 -0.16775 -0.32428
 C475 C 0.31970 -0.17571 -0.37526
 C476 C 0.35139 -0.16506 -0.36912
 C477 C 0.36800 -0.14663 -0.31489
 C478 C 0.37208 -0.11567 -0.21619
 C479 C 0.38987 -0.09570 -0.17933
 H480 H 0.31053 -0.14209 -0.23302
 H481 H 0.28104 -0.17442 -0.32841
 H482 H 0.36346 -0.17087 -0.40675
 H483 H 0.39246 -0.13818 -0.31241
 C484 C 0.54601 -0.11774 0.26460
 C485 C 0.52245 -0.14742 0.27828
 C486 C 0.52538 -0.16409 0.33166
 C487 C 0.55193 -0.15119 0.37177
 C488 C 0.57591 -0.12185 0.35628
 C489 C 0.57297 -0.10523 0.30288
 C490 C 0.54117 -0.09877 0.21719
 C491 C 0.53675 -0.08197 0.18102
 H492 H 0.50132 -0.15717 0.24959
 H493 H 0.50642 -0.18645 0.34368
 H494 H 0.59638 -0.11140 0.38719
 H495 H 0.59119 -0.08216 0.29329
 C496 C 0.33334 0.45573 0.26844
 C497 C 0.32462 0.47801 0.27961
 C498 C 0.30447 0.47443 0.33221
 C499 C 0.29281 0.44851 0.37406
 C500 C 0.30076 0.42572 0.36100
 C501 C 0.32088 0.42930 0.30837
 C502 C 0.35739 0.46134 0.22118
 C503 C 0.37856 0.46620 0.18459
 H504 H 0.33438 0.49869 0.24953
 H505 H 0.29910 0.49254 0.34235
 H506 H 0.29230 0.40576 0.39323
 H507 H 0.32768 0.41205 0.30059
 C508 C 1.13533 0.65298 0.26555
 C509 C 1.15151 0.64188 0.30308
 C510 C 1.16987 0.65883 0.35721
 C511 C 1.17235 0.68714 0.37415
 C512 C 1.15700 0.69878 0.33497
 C513 C 1.13848 0.68170 0.28084
 C514 C 1.11292 0.63311 0.21724
 C515 C 1.09319 0.61465 0.18093
 H516 H 1.14897 0.61955 0.29223
 H517 H 1.18135 0.64945 0.38741
 H518 H 1.15840 0.72043 0.34805
 H519 H 1.12574 0.69032 0.25269
 C520 C 0.45603 0.11781 0.27398
 C521 C 0.42931 0.10609 0.31301
 C522 C 0.42708 0.12342 0.36597
 C523 C 0.45153 0.15269 0.38020
 C524 C 0.47798 0.16460 0.33987
 C525 C 0.48017 0.14727 0.28693
 C526 C 0.45998 0.09848 0.22578
 C527 C 0.46398 0.08172 0.18846
 H528 H 0.41064 0.08317 0.30400
 H529 H 0.40668 0.11371 0.39711
 H530 H 0.49733 0.18686 0.35098
 H531 H 0.50112 0.15639 0.25772
 C532 C 0.65436 0.53502 0.27193
 C533 C 0.66346 0.51278 0.27844
 C534 C 0.68266 0.51457 0.33165
 C535 C 0.69287 0.53862 0.37865
 C536 C 0.68449 0.56136 0.37054
 C537 C 0.66537 0.55959 0.31733
 C538 C 0.63123 0.53106 0.22369
 C539 C 0.61070 0.52761 0.18661
 H540 H 0.65478 0.49349 0.24405
 H541 H 0.68853 0.49658 0.33790
 H542 H 0.69188 0.57984 0.40685
 H543 H 0.65822 0.57674 0.31317
 C544 C 0.86707 0.35045 0.26805
 C545 C 0.83744 0.34603 0.27768
 C546 C 0.81948 0.32795 0.33130
 C547 C 0.83113 0.31429 0.37558
 C548 C 0.86042 0.31800 0.36442
 C549 C 0.87828 0.33595 0.31081
 C550 C 0.88737 0.37244 0.21970
 C551 C 0.90562 0.39200 0.18288
 H552 H 0.82870 0.35745 0.24539
 H553 H 0.79705 0.32558 0.33990
 H554 H 0.86980 0.30784 0.39864
 H555 H 0.90128 0.33949 0.30432
   
