data_POSCAR
  _audit_creation_date              2014-09-24
  _audit_creation_method            'ToBaCCo'
  _symmetry_space_group_name_H-M    'P1'
  _symmetry_Int_Tables_number       1
  _symmetry_cell_setting            triclinic
  loop_
  _symmetry_equiv_pos_as_xyz
 x,y,z
_cell_length_a 50.3180
_cell_length_b 49.9784
_cell_length_c 50.0046
_cell_angle_alpha 85.985400
_cell_angle_beta 88.624900
_cell_angle_gamma 91.595100
loop_
  _atom_site_label
  _atom_site_type_symbol
  _atom_site_fract_x
  _atom_site_fract_y
  _atom_site_fract_z
C1 C 0.18885 0.19162 0.24027
 C2 C 0.16778 0.19781 0.25757
 C3 C 0.14991 0.21798 0.24972
 C4 C 0.15326 0.23162 0.22432
 C5 C 0.17417 0.22572 0.20695
 C6 C 0.19212 0.20573 0.21490
 C7 C 0.20651 0.17131 0.24777
 C8 C 0.22719 0.16473 0.23022
 C9 C 0.23066 0.17941 0.20520
 C10 C 0.21321 0.19974 0.19738
 C11 C 0.21633 0.21403 0.17220
 C12 C 0.19836 0.23399 0.16426
 C13 C 0.17727 0.23949 0.18166
 H14 H 0.16520 0.18649 0.27673
 H15 H 0.13949 0.24701 0.21804
 H16 H 0.20394 0.16028 0.26717
 H17 H 0.24707 0.17535 0.19183
 H18 H 0.23228 0.20908 0.15865
 H19 H 0.16331 0.25476 0.17554
 C20 C 0.71535 0.69386 0.71633
 C21 C 0.69555 0.69400 0.73659
 C22 C 0.67591 0.71341 0.73546
 C23 C 0.67668 0.73330 0.71407
 C24 C 0.69629 0.73334 0.69371
 C25 C 0.71565 0.71350 0.69467
 C26 C 0.73501 0.67456 0.71764
 C27 C 0.75489 0.67422 0.69731
 C28 C 0.75509 0.69401 0.67581
 C29 C 0.73560 0.71367 0.67430
 C30 C 0.73589 0.73373 0.65303
 C31 C 0.71652 0.75364 0.65212
 C32 C 0.69697 0.75325 0.67260
 H33 H 0.69532 0.67888 0.75326
 H34 H 0.66251 0.74920 0.71338
 H35 H 0.73499 0.66035 0.73497
 H36 H 0.77052 0.69412 0.66028
 H37 H 0.75153 0.73411 0.63776
 H38 H 0.68212 0.76859 0.67208
 C39 C 0.29790 0.79737 0.73961
 C40 C 0.32227 0.79206 0.75160
 C41 C 0.33803 0.77109 0.74341
 C42 C 0.32941 0.75608 0.72235
 C43 C 0.30518 0.76138 0.70995
 C44 C 0.28926 0.78200 0.71876
 C45 C 0.28210 0.81791 0.74822
 C46 C 0.25748 0.82340 0.73656
 C47 C 0.24896 0.80779 0.71565
 C48 C 0.26473 0.78727 0.70671
 C49 C 0.25636 0.77196 0.68580
 C50 C 0.27228 0.75173 0.67652
 C51 C 0.29658 0.74634 0.68896
 H52 H 0.32889 0.80465 0.76701
 H53 H 0.34157 0.74012 0.71568
 H54 H 0.28904 0.82964 0.76428
 H55 H 0.23031 0.81130 0.70596
 H56 H 0.23751 0.77598 0.67647
 H57 H 0.30866 0.73017 0.68276
 C58 C 0.79173 0.31409 0.24492
 C59 C 0.81093 0.30686 0.26355
 C60 C 0.82849 0.28608 0.25927
 C61 C 0.82590 0.27185 0.23590
 C62 C 0.80627 0.27863 0.21715
 C63 C 0.78936 0.30007 0.22161
 C64 C 0.77502 0.33543 0.24921
 C65 C 0.75620 0.34337 0.23027
 C66 C 0.75358 0.32911 0.20716
 C67 C 0.77005 0.30756 0.20276
 C68 C 0.76743 0.29340 0.17980
 C69 C 0.78362 0.27167 0.17529
 C70 C 0.80324 0.26446 0.19396
 H71 H 0.81250 0.31795 0.28138
 H72 H 0.83871 0.25544 0.23215
 H73 H 0.77697 0.34625 0.26716
 H74 H 0.73853 0.33439 0.19276
 H75 H 0.75247 0.29916 0.16540
 H76 H 0.81636 0.24821 0.19041
 C77 C 0.80080 0.70637 0.28243
 C78 C 0.82414 0.71086 0.26675
 C79 C 0.84050 0.73404 0.26901
 C80 C 0.83242 0.75297 0.28699
 C81 C 0.80913 0.74863 0.30300
 C82 C 0.79339 0.72513 0.30078
 C83 C 0.78472 0.68328 0.28001
 C84 C 0.76140 0.67864 0.29592
 C85 C 0.75457 0.69701 0.31466
 C86 C 0.77022 0.72030 0.31700
 C87 C 0.76296 0.73883 0.33533
 C88 C 0.77824 0.76241 0.33762
 C89 C 0.80144 0.76724 0.32139
 H90 H 0.82878 0.69629 0.25252
 H91 H 0.84451 0.77103 0.28886
 H92 H 0.79066 0.66876 0.26608
 H93 H 0.73672 0.69336 0.32713
 H94 H 0.74517 0.73494 0.34785
 H95 H 0.81383 0.78500 0.32337
 C96 C 0.31252 0.17490 -0.23513
 C97 C 0.33540 0.18329 -0.25050
 C98 C 0.34942 0.20734 -0.24559
 C99 C 0.34002 0.22262 -0.22491
 C100 C 0.31725 0.21451 -0.20950
 C101 C 0.30345 0.19058 -0.21456
 C102 C 0.29842 0.15113 -0.24008
 C103 C 0.27564 0.14276 -0.22457
 C104 C 0.26658 0.15879 -0.20439
 C105 C 0.28035 0.18251 -0.19925
 C106 C 0.27121 0.19840 -0.17912
 C107 C 0.28501 0.22211 -0.17376
 C108 C 0.30796 0.23018 -0.18924
 H109 H 0.34187 0.17086 -0.26608
 H110 H 0.35044 0.24115 -0.22081
 H111 H 0.30521 0.13903 -0.25592
 H112 H 0.24844 0.15323 -0.19300
 H113 H 0.25340 0.19220 -0.16740
 H114 H 0.31835 0.24890 -0.18606
 C115 C 0.68949 0.32180 -0.22383
 C116 C 0.66971 0.31512 -0.24181
 C117 C 0.65131 0.29361 -0.23523
 C118 C 0.65316 0.27915 -0.21019
 C119 C 0.67276 0.28565 -0.19211
 C120 C 0.69112 0.30695 -0.19894
 C121 C 0.70765 0.34318 -0.23038
 C122 C 0.72757 0.34992 -0.21258
 C123 C 0.72902 0.33499 -0.18768
 C124 C 0.71098 0.31349 -0.18079
 C125 C 0.71232 0.29853 -0.15597
 C126 C 0.69401 0.27714 -0.14916
 C127 C 0.67422 0.27109 -0.16725
 H128 H 0.66912 0.32683 -0.26076
 H129 H 0.63921 0.26261 -0.20466
 H130 H 0.70634 0.35467 -0.24950
 H131 H 0.74372 0.34024 -0.17334
 H132 H 0.72729 0.30389 -0.14193
 H133 H 0.66002 0.25471 -0.16204
 C134 C 0.21249 0.78498 0.25536
 C135 C 0.19152 0.77510 0.24047
 C136 C 0.17737 0.75122 0.24934
 C137 C 0.18501 0.73698 0.27302
 C138 C 0.20598 0.74656 0.28810
 C139 C 0.21975 0.77067 0.27923
 C140 C 0.22624 0.80901 0.24674
 C141 C 0.24719 0.81926 0.26162
 C142 C 0.25447 0.80442 0.28535
 C143 C 0.24091 0.78036 0.29414
 C144 C 0.24821 0.76590 0.31777
 C145 C 0.23441 0.74212 0.32701
 C146 C 0.21337 0.73243 0.31192
 H147 H 0.18665 0.78594 0.22183
 H148 H 0.17438 0.71850 0.27987
 H149 H 0.22037 0.81993 0.22841
 H150 H 0.27056 0.81108 0.29737
 H151 H 0.26453 0.77332 0.32925
 H152 H 0.20304 0.71370 0.31833
 C153 C 0.44257 0.46740 0.46346
 C154 C 0.45102 0.44713 0.48201
 C155 C 0.47604 0.43563 0.47864
 C156 C 0.49265 0.44485 0.45680
 C157 C 0.48434 0.46467 0.43790
 C158 C 0.45920 0.47595 0.44115
 C159 C 0.41785 0.47938 0.46684
 C160 C 0.40959 0.49962 0.44806
 C161 C 0.42599 0.50738 0.42562
 C162 C 0.45080 0.49593 0.42215
 C163 C 0.46740 0.50429 0.40004
 C164 C 0.49235 0.49298 0.39651
 C165 C 0.50083 0.47336 0.41580
 H166 H 0.43836 0.44076 0.49923
 H167 H 0.51200 0.43619 0.45428
 H168 H 0.40503 0.47271 0.48386
 H169 H 0.41960 0.52282 0.41104
 H170 H 0.46085 0.51962 0.38542
 H171 H 0.52036 0.46502 0.41404
 C172 C -0.08849 -0.05494 0.99278
 C173 C -0.08621 -0.07924 1.00826
 C174 C -0.06453 -0.09571 1.00436
 C175 C -0.04540 -0.08800 0.98406
 C176 C -0.04745 -0.06376 0.96845
 C177 C -0.06902 -0.04709 0.97285
 C178 C -0.10976 -0.03823 0.99727
 C179 C -0.11196 -0.01343 0.98241
 C180 C -0.09242 -0.00587 0.96224
 C181 C -0.07104 -0.02256 0.95742
 C182 C -0.05154 -0.01504 0.93750
 C183 C -0.03005 -0.03165 0.93277
 C184 C -0.02806 -0.05591 0.94866
 H185 H -0.10111 -0.08516 1.02373
 H186 H -0.02906 -0.10087 0.98001
 H187 H -0.12454 -0.04446 1.01280
 H188 H -0.09342 0.01279 0.95009
 H189 H -0.05309 0.00380 0.92558
 H190 H -0.01129 -0.06865 0.94627
 C191 C 1.07236 0.53428 0.98096
 C192 C 1.07011 0.55620 0.99666
 C193 C 1.04787 0.57261 0.99516
 C194 C 1.02802 0.56719 0.97648
 C195 C 1.03035 0.54551 0.96005
 C196 C 1.05246 0.52878 0.96269
 C197 C 1.09421 0.51764 0.98359
 C198 C 1.09655 0.49505 0.96853
 C199 C 1.07654 0.48970 0.95011
 C200 C 1.05469 0.50647 0.94710
 C201 C 1.03502 0.50119 0.92870
 C202 C 1.01333 0.51803 0.92522
 C203 C 1.01095 0.54012 0.94113
 H204 H 1.08563 0.56010 1.01072
 H205 H 1.01096 0.57976 0.97421
 H206 H 1.10936 0.52216 0.99783
 H207 H 1.07766 0.47281 0.93783
 H208 H 1.03675 0.48405 0.91669
 H209 H 0.99390 0.55280 0.93917
 C210 C 0.54862 0.06438 0.46234
 C211 C 0.54489 0.08343 0.48147
 C212 C 0.52356 0.10107 0.47940
 C213 C 0.50615 0.09971 0.45806
 C214 C 0.50988 0.08131 0.43862
 C215 C 0.53107 0.06347 0.44077
 C216 C 0.56935 0.04606 0.46457
 C217 C 0.57286 0.02685 0.44534
 C218 C 0.55543 0.02674 0.42372
 C219 C 0.53459 0.04467 0.42138
 C220 C 0.51707 0.04391 0.39999
 C221 C 0.49575 0.06156 0.39792
 C222 C 0.49253 0.08036 0.41717
 H223 H 0.55808 0.08404 0.49825
 H224 H 0.48966 0.11322 0.45653
 H225 H 0.58245 0.04714 0.48128
 H226 H 0.55783 0.01229 0.40868
 H227 H 0.52034 0.02978 0.38487
 H228 H 0.47622 0.09408 0.41562
 C229 C -0.05258 0.03156 0.54754
 C230 C -0.04595 0.05478 0.53118
 C231 C -0.02428 0.07154 0.53718
 C232 C -0.00878 0.06433 0.55938
 C233 C -0.01511 0.04104 0.57588
 C234 C -0.03715 0.02461 0.56998
 C235 C -0.07431 0.01508 0.54162
 C236 C -0.08115 -0.00817 0.55813
 C237 C -0.06542 -0.01525 0.58017
 C238 C -0.04352 0.00101 0.58626
 C239 C -0.02787 -0.00597 0.60831
 C240 C -0.00607 0.01039 0.61452
 C241 C 0.00033 0.03382 0.59806
 H242 H -0.05749 0.05936 0.51353
 H243 H 0.00815 0.07700 0.56388
 H244 H -0.08552 0.02028 0.52389
 H245 H -0.07039 -0.03336 0.59273
 H246 H -0.03271 -0.02416 0.62080
 H247 H 0.01760 0.04620 0.60201
 C248 C 0.44461 0.52978 0.00565
 C249 C 0.44668 0.55293 -0.01193
 C250 C 0.46685 0.57265 -0.00930
 C251 C 0.48503 0.56873 0.01167
 C252 C 0.48320 0.54567 0.02936
 C253 C 0.46300 0.52609 0.02630
 C254 C 0.42452 0.51016 0.00279
 C255 C 0.42260 0.48690 0.02046
 C256 C 0.44129 0.48329 0.04066
 C257 C 0.46134 0.50269 0.04377
 C258 C 0.47976 0.49901 0.06415
 C259 C 0.49966 0.51854 0.06763
 C260 C 0.50142 0.54180 0.05003
 H261 H 0.43248 0.55553 -0.02783
 H262 H 0.50080 0.58321 0.01463
 H263 H 0.41083 0.51295 -0.01347
 H264 H 0.44006 0.46533 0.05419
 H265 H 0.47846 0.48097 0.07756
 H266 H 0.51721 0.55666 0.05195
 C267 C 0.55740 -0.04436 0.00988
 C268 C 0.55184 -0.06370 -0.00853
 C269 C 0.52966 -0.08145 -0.00427
 C270 C 0.51319 -0.07970 0.01849
 C271 C 0.51862 -0.06076 0.03706
 C272 C 0.54065 -0.04281 0.03272
 C273 C 0.57939 -0.02656 0.00582
 C274 C 0.58502 -0.00716 0.02415
 C275 C 0.56812 -0.00580 0.04696
 C276 C 0.54593 -0.02343 0.05129
 C277 C 0.52902 -0.02219 0.07400
 C278 C 0.50716 -0.04033 0.07837
 C279 C 0.50229 -0.05959 0.05993
 H280 H 0.56446 -0.06451 -0.02629
 H281 H 0.49610 -0.09335 0.02185
 H282 H 0.59228 -0.02783 -0.01172
 H283 H 0.57220 0.00850 0.06168
 H284 H 0.53319 -0.00757 0.08847
 H285 H 0.48547 -0.07358 0.06330
 C286 C 1.04833 0.45229 0.51708
 C287 C 1.04398 0.43270 0.49891
 C288 C 1.02355 0.41300 0.50337
 C289 C 1.00696 0.41362 0.52659
 C290 C 1.01107 0.43336 0.54498
 C291 C 1.03197 0.45264 0.54027
 C292 C 1.06903 0.47146 0.51239
 C293 C 1.07409 0.49076 0.53080
 C294 C 1.05773 0.49114 0.55400
 C295 C 1.03660 0.47225 0.55876
 C296 C 1.02004 0.47268 0.58169
 C297 C 0.99870 0.45391 0.58634
 C298 C 0.99466 0.43412 0.56803
 H299 H 1.05690 0.43268 0.48120
 H300 H 0.99091 0.39900 0.53074
 H301 H 1.08155 0.47116 0.49445
 H302 H 1.06100 0.50636 0.56805
 H303 H 1.02420 0.48743 0.59599
 H304 H 0.97850 0.41941 0.57168
 C305 C 0.40834 0.02377 0.20130
 H306 H 0.40639 0.04113 0.21289
 C307 C 0.42754 0.02401 0.18070
 H308 H 0.44023 0.04173 0.17638
 C309 C 0.39444 -0.02059 0.19336
 H310 H 0.38178 -0.03806 0.19863
 C311 C 0.41347 -0.02125 0.17258
 H312 H 0.41446 -0.03910 0.16162
 N313 N 0.39222 0.00175 0.20719
 C314 C 0.32680 0.03726 0.25024
 H315 H 0.32699 0.02625 0.26965
 C316 C 0.30851 0.05756 0.24546
 H317 H 0.29461 0.06172 0.26136
 C318 C 0.34401 0.04410 0.20572
 H319 H 0.35748 0.03852 0.19006
 C320 C 0.32606 0.06434 0.20005
 H321 H 0.32618 0.07435 0.18011
 Zn322 Zn 0.36885 0.00346 0.23722
 N323 N 0.34434 0.03122 0.23058
 C324 C 0.38911 0.03158 0.28124
 N325 N 0.39125 0.01024 0.26596
 C326 C 0.41068 -0.00784 0.27005
 C327 C 0.42853 -0.00534 0.29062
 C328 C 0.40671 0.03493 0.30210
 C329 C 0.33376 -0.04032 0.22712
 C330 C 0.32007 -0.06489 0.23329
 C331 C 0.33852 -0.06624 0.27746
 C332 C 0.35175 -0.04181 0.27049
 N333 N 0.34962 -0.02955 0.24552
 H334 H 0.37378 0.04595 0.27739
 H335 H 0.41208 -0.02445 0.25739
 H336 H 0.44368 -0.02015 0.29370
 H337 H 0.40419 0.05167 0.31440
 H338 H 0.33201 -0.02999 0.20753
 H339 H 0.30816 -0.07324 0.21804
 H340 H 0.34078 -0.07569 0.29741
 H341 H 0.36365 -0.03267 0.28523
 C342 C 0.30817 0.07155 0.22004
 C343 C 0.43060 0.00122 0.16628
 C344 C 0.32252 -0.07825 0.25883
 C345 C 0.42679 0.01623 0.30694
 C346 C 0.08308 -0.01798 0.74584
 H347 H 0.07882 -0.03679 0.75740
 C348 C 0.06620 -0.00936 0.72551
 H349 H 0.04873 -0.02159 0.72201
 C350 C 0.11061 0.02112 0.73757
 H351 H 0.12776 0.03306 0.74254
 C352 C 0.09426 0.03050 0.71698
 H353 H 0.09913 0.04956 0.70604
 N354 N 0.10506 -0.00303 0.75109
 C355 C 0.16055 -0.06109 0.78388
 H356 H 0.16425 -0.05358 0.80327
 C357 C 0.17372 -0.08361 0.77599
 H358 H 0.18709 -0.09353 0.78981
 C359 C 0.13814 -0.05727 0.74272
 H360 H 0.12465 -0.04673 0.72955
 C361 C 0.15079 -0.07972 0.73407
 H362 H 0.14667 -0.08637 0.71439
 Zn363 Zn 0.12675 -0.01732 0.77849
 N364 N 0.14307 -0.04850 0.76732
 C365 C 0.10121 -0.05109 0.82005
 N366 N 0.10412 -0.02556 0.80890
 C367 C 0.08914 -0.00554 0.81767
 C368 C 0.07031 -0.01080 0.83849
 C369 C 0.08261 -0.05726 0.84089
 C370 C 0.17274 0.01422 0.76617
 C371 C 0.19298 0.03315 0.77004
 C372 C 0.17491 0.03758 0.81466
 C373 C 0.15505 0.01855 0.80993
 N374 N 0.15401 0.00773 0.78578
 H375 H 0.11281 -0.06687 0.81241
 H376 H 0.09156 0.01452 0.80812
 H377 H 0.05887 0.00567 0.84488
 H378 H 0.08038 -0.07779 0.84931
 H379 H 0.17175 0.00482 0.74736
 H380 H 0.20754 0.03778 0.75405
 H381 H 0.17515 0.04634 0.83387
 H382 H 0.14041 0.01263 0.82552
 C383 C 0.16905 -0.09302 0.75059
 C384 C 0.07208 0.01493 0.71034
 C385 C 0.19394 0.04549 0.79446
 C386 C 0.06661 -0.03712 0.85022
 C387 C 0.59351 0.50907 0.19674
 H388 H 0.59179 0.49031 0.20892
 C389 C 0.57603 0.51423 0.17593
 H390 H 0.56061 0.49939 0.17270
 C391 C 0.61514 0.55154 0.18738
 H392 H 0.63022 0.56613 0.19212
 C393 C 0.59805 0.55754 0.16633
 H394 H 0.60026 0.57670 0.15482
 N395 N 0.61289 0.52739 0.20171
 C396 C 0.67531 0.48062 0.23867
 H397 H 0.67783 0.49095 0.25679
 C398 C 0.69099 0.45884 0.23376
 H399 H 0.70585 0.45292 0.24810
 C400 C 0.65351 0.47688 0.19756
 H401 H 0.63912 0.48418 0.18334
 C402 C 0.66882 0.45504 0.19179
 H403 H 0.66591 0.44550 0.17324
 Zn404 Zn 0.63584 0.51792 0.22985
 N405 N 0.65663 0.48881 0.22096
 C406 C 0.61548 0.48311 0.27319
 N407 N 0.61439 0.50814 0.26080
 C408 C 0.59712 0.52629 0.26951
 C409 C 0.58051 0.51979 0.29194
 C410 C 0.59921 0.47574 0.29562
 C411 C 0.67769 0.55442 0.21599
 C412 C 0.69616 0.57516 0.21939
 C413 C 0.67713 0.57952 0.26363
 C414 C 0.65908 0.55863 0.25941
 N415 N 0.65951 0.54673 0.23578
 H416 H 0.62875 0.46866 0.26560
 H417 H 0.59635 0.54592 0.25900
 H418 H 0.56743 0.53493 0.29849
 H419 H 0.60044 0.45571 0.30522
 H420 H 0.67780 0.54434 0.19753
 H421 H 0.71044 0.58108 0.20336
 H422 H 0.67570 0.58895 0.28238
 H423 H 0.64480 0.55195 0.27508
 C424 C 0.68742 0.44541 0.21025
 C425 C 0.57857 0.53856 0.16003
 C426 C 0.69619 0.58793 0.24348
 C427 C 0.58139 0.49408 0.30532
 C428 C 0.91997 0.52328 0.72115
 H429 H 0.91999 0.54163 0.73140
 C430 C 0.93709 0.52105 0.69906
 H431 H 0.95021 0.53788 0.69243
 C432 C 0.90285 0.47913 0.71748
 H433 H 0.88962 0.46273 0.72484
 C434 C 0.91964 0.47602 0.69527
 H435 H 0.91856 0.45723 0.68590
 N436 N 0.90302 0.50263 0.72969
 C437 C 0.83570 0.53803 0.76908
 H438 H 0.83517 0.52593 0.78791
 C439 C 0.81607 0.55669 0.76378
 H440 H 0.80049 0.55894 0.77871
 C441 C 0.85630 0.54920 0.72652
 H442 H 0.87163 0.54577 0.71178
 C443 C 0.83711 0.56829 0.72044
 H444 H 0.83799 0.57919 0.70096
 Zn445 Zn 0.87995 0.50754 0.75948
 N446 N 0.85538 0.53469 0.75062
 C447 C 0.89712 0.54067 0.80031
 N448 N 0.90105 0.51731 0.78854
 C449 C 0.92055 0.50058 0.79679
 C450 C 0.93648 0.50665 0.81820
 C451 C 0.91265 0.54757 0.82174
 C452 C 0.84161 0.46736 0.75144
 C453 C 0.82500 0.44484 0.75790
 C454 C 0.84548 0.43970 0.80106
 C455 C 0.86166 0.46236 0.79379
 N456 N 0.85955 0.47563 0.76927
 H457 H 0.88198 0.55407 0.79310
 H458 H 0.92369 0.48243 0.78669
 H459 H 0.95208 0.49313 0.82397
 H460 H 0.90917 0.56619 0.83094
 H461 H 0.84016 0.47840 0.73216
 H462 H 0.81135 0.43851 0.74306
 H463 H 0.84737 0.42944 0.82070
 H464 H 0.87560 0.46948 0.80795
 C465 C 0.81666 0.57223 0.73930
 C466 C 0.93706 0.49728 0.68566
 C467 C 0.82661 0.43085 0.78320
 C468 C 0.93236 0.53031 0.83126
 C469 C 0.21333 0.39079 -0.00598
 H470 H 0.22430 0.39354 0.01202
 C471 C 0.19039 0.40515 -0.01088
 H472 H 0.18361 0.41829 0.00397
 C473 C 0.20900 0.36971 -0.04671
 H474 H 0.21660 0.35623 -0.06083
 C475 C 0.18594 0.38375 -0.05247
 H476 H 0.17579 0.38076 -0.07093
 N477 N 0.22214 0.37347 -0.02375
 C478 C 0.27243 0.31895 0.02307
 H479 H 0.29070 0.32090 0.01114
 C480 C 0.27078 0.30138 0.04609
 H481 H 0.28793 0.28990 0.05186
 C482 C 0.22785 0.33142 0.02989
 H483 H 0.21106 0.34296 0.02344
 C484 C 0.22534 0.31418 0.05306
 H485 H 0.20673 0.31358 0.06433
 Zn486 Zn 0.25466 0.35697 -0.01597
 N487 N 0.25122 0.33374 0.01560
 C488 C 0.29471 0.38576 0.01052
 N489 N 0.27989 0.38495 -0.01180
 C490 C 0.28212 0.40472 -0.03192
 C491 C 0.30046 0.42598 -0.03047
 C492 C 0.31344 0.40658 0.01272
 C493 C 0.25070 0.31453 -0.04958
 C494 C 0.25876 0.29815 -0.06961
 C495 C 0.29808 0.32670 -0.07768
 C496 C 0.28927 0.34251 -0.05756
 N497 N 0.26581 0.33635 -0.04416
 H498 H 0.29207 0.37032 0.02665
 H499 H 0.26973 0.40378 -0.04924
 H500 H 0.30221 0.44142 -0.04679
 H501 H 0.32485 0.40694 0.03076
 H502 H 0.23247 0.30972 -0.03812
 H503 H 0.24658 0.28064 -0.07307
 H504 H 0.31683 0.33189 -0.08814
 H505 H 0.30140 0.35947 -0.05246
 C506 C 0.24699 0.29869 0.06138
 C507 C 0.17662 0.40208 -0.03469
 C508 C 0.28272 0.30435 -0.08411
 C509 C 0.31676 0.42681 -0.00821
 C510 C 0.70746 0.10463 0.00388
 H511 H 0.71818 0.10564 -0.01519
 C512 C 0.68457 0.08818 0.00786
 H513 H 0.67769 0.07714 -0.00860
 C514 C 0.70346 0.11847 0.04810
 H515 H 0.71101 0.13004 0.06386
 C516 C 0.68045 0.10237 0.05291
 H517 H 0.67040 0.10188 0.07234
 N518 N 0.71636 0.11948 0.02381
 C519 C 0.76315 0.18738 -0.01436
 H520 H 0.78115 0.18566 -0.00305
 C521 C 0.76118 0.20788 -0.03461
 H522 H 0.77780 0.22192 -0.03877
 C523 C 0.71987 0.17080 -0.02293
 H524 H 0.70384 0.15626 -0.01840
 C525 C 0.71705 0.19097 -0.04339
 H526 H 0.69892 0.19102 -0.05451
 Zn527 Zn 0.74811 0.14066 0.01710
 N528 N 0.74286 0.16906 -0.00927
 C529 C 0.78733 0.12385 -0.01939
 N530 N 0.77459 0.11796 0.00468
 C531 C 0.78015 0.09551 0.02024
 C532 C 0.79984 0.07842 0.01219
 C533 C 0.80713 0.10731 -0.02824
 C534 C 0.74373 0.17545 0.05839
 C535 C 0.75119 0.18839 0.08102
 C536 C 0.79032 0.16151 0.08357
 C537 C 0.78222 0.14923 0.06073
 N538 N 0.75916 0.15621 0.04874
 H539 H 0.78227 0.14140 -0.03183
 H540 H 0.76952 0.09115 0.03919
 H541 H 0.80440 0.06130 0.02553
 H542 H 0.81727 0.11249 -0.04734
 H543 H 0.72559 0.18076 0.04839
 H544 H 0.73827 0.20324 0.08857
 H545 H 0.80869 0.15571 0.09291
 H546 H 0.79453 0.13429 0.05256
 C547 C 0.73802 0.20982 -0.04961
 C548 C 0.67081 0.08676 0.03278
 C549 C 0.77496 0.18161 0.09377
 C550 C 0.81365 0.08426 -0.01245
 C551 C 0.21021 0.57901 0.51237
 H552 H 0.22103 0.57617 0.49386
 C553 C 0.18784 0.56286 0.51971
 H554 H 0.18201 0.54729 0.50687
 C555 C 0.20578 0.60211 0.55194
 H556 H 0.21302 0.61720 0.56461
 C557 C 0.18325 0.58632 0.56012
 H558 H 0.17317 0.58957 0.57895
 N559 N 0.21838 0.59858 0.52811
 C560 C 0.25852 0.65703 0.47063
 H561 H 0.27801 0.65880 0.47914
 C562 C 0.25288 0.67193 0.44678
 H563 H 0.26831 0.68514 0.43749
 C564 C 0.21484 0.63804 0.47329
 H565 H 0.19985 0.62520 0.48381
 C566 C 0.20836 0.65249 0.44958
 H567 H 0.18848 0.65029 0.44203
 Zn568 Zn 0.24838 0.61974 0.51512
 N569 N 0.23974 0.64013 0.48310
 C570 C 0.28811 0.59518 0.48408
 N571 N 0.27585 0.59561 0.50857
 C572 C 0.28257 0.57835 0.52939
 C573 C 0.30290 0.56029 0.52626
 C574 C 0.30856 0.57742 0.48005
 C575 C 0.24231 0.66252 0.54852
 C576 C 0.24964 0.68001 0.56789
 C577 C 0.29249 0.65947 0.56986
 C578 C 0.28431 0.64233 0.55060
 N579 N 0.25940 0.64376 0.54072
 H580 H 0.28224 0.60873 0.46765
 H581 H 0.27229 0.57890 0.54859
 H582 H 0.30825 0.54700 0.54321
 H583 H 0.31849 0.57827 0.46059
 H584 H 0.22286 0.66372 0.53982
 H585 H 0.23569 0.69479 0.57362
 H586 H 0.31231 0.65782 0.57769
 H587 H 0.29796 0.62793 0.54358
 C588 C 0.22749 0.66949 0.43574
 C589 C 0.17367 0.56684 0.54362
 C590 C 0.27496 0.67827 0.57914
 C591 C 0.31622 0.55961 0.50138
 C592 C 0.70303 0.93277 0.50674
 H593 H 0.71413 0.92843 0.52472
 C594 C 0.68231 0.95078 0.50698
 H595 H 0.67735 0.95997 0.52537
 C596 C 0.69696 0.92699 0.46067
 H597 H 0.70329 0.91832 0.44246
 C598 C 0.67613 0.94497 0.45998
 H599 H 0.66692 0.94967 0.44100
 N600 N 0.70995 0.92129 0.48382
 C601 C 0.75693 0.85146 0.50693
 H602 H 0.77337 0.85553 0.49276
 C603 C 0.75669 0.82847 0.52444
 H604 H 0.77304 0.81486 0.52368
 C605 C 0.71577 0.86448 0.52521
 H606 H 0.69977 0.87845 0.52525
 C607 C 0.71483 0.84178 0.54327
 H608 H 0.69780 0.83844 0.55683
 Zn609 Zn 0.74078 0.90033 0.48419
 N610 N 0.73693 0.86916 0.50793
 C611 C 0.78261 0.91450 0.51772
 N612 N 0.76893 0.92216 0.49548
 C613 C 0.77442 0.94602 0.48142
 C614 C 0.79510 0.96282 0.48904
 C615 C 0.80343 0.93066 0.52604
 C616 C 0.73170 0.87053 0.44000
 C617 C 0.73843 0.85775 0.41696
 C618 C 0.78020 0.88295 0.41400
 C619 C 0.77272 0.89517 0.43721
 N620 N 0.74898 0.88850 0.44990
 H621 H 0.77734 0.89594 0.52920
 H622 H 0.76281 0.95186 0.46415
 H623 H 0.79947 0.98162 0.47744
 H624 H 0.81368 0.92423 0.54402
 H625 H 0.71307 0.86543 0.45063
 H626 H 0.72444 0.84334 0.40961
 H627 H 0.79951 0.88781 0.40459
 H628 H 0.78645 0.90907 0.44563
 C629 C 0.73583 0.82371 0.54336
 C630 C 0.66858 0.95725 0.48341
 C631 C 0.76337 0.86332 0.40417
 C632 C 0.81019 0.95499 0.51131
 C633 C -0.00679 0.20682 0.43653
 H634 H 0.00985 0.22035 0.43959
 C635 C -0.01311 0.18569 0.45551
 H636 H -0.00134 0.18344 0.47329
 C637 C -0.04298 0.19452 0.41004
 H638 H -0.05484 0.19830 0.39254
 C639 C -0.05007 0.17317 0.42855
 H640 H -0.06719 0.16043 0.42495
 N641 N -0.02138 0.21052 0.41412
 C642 C 0.03244 0.25277 0.35512
 H643 H 0.02130 0.27050 0.34989
 C644 C 0.05637 0.24851 0.34153
 H645 H 0.06373 0.26344 0.32623
 C646 C 0.03616 0.21181 0.38146
 H647 H 0.02795 0.19717 0.39653
 C648 C 0.06025 0.20688 0.36855
 H649 H 0.07049 0.18859 0.37403
 Zn650 Zn -0.01126 0.23990 0.38994
 N651 N 0.02275 0.23444 0.37455
 C652 C 0.01120 0.28598 0.41253
 N653 N -0.01117 0.27052 0.41021
 C654 C -0.03379 0.27485 0.42450
 C655 C -0.03454 0.29543 0.44197
 C656 C 0.01133 0.30683 0.42978
 C657 C -0.03738 0.22323 0.34471
 C658 C -0.05535 0.22462 0.32380
 C659 C -0.06843 0.26788 0.33743
 C660 C -0.05026 0.26563 0.35806
 N661 N -0.03556 0.24332 0.36164
 H662 H 0.02921 0.28169 0.40163
 H663 H -0.05113 0.26187 0.42272
 H664 H -0.05265 0.29835 0.45343
 H665 H 0.02969 0.31815 0.43187
 H666 H -0.02503 0.20595 0.34767
 H667 H -0.05686 0.20828 0.31074
 H668 H -0.07951 0.28606 0.33484
 H669 H -0.04788 0.28180 0.37113
 C670 C 0.07033 0.22501 0.34792
 C671 C -0.03481 0.16828 0.45139
 C672 C -0.07158 0.24688 0.32029
 C673 C -0.01184 0.31177 0.44483
 C674 C -0.01550 0.69851 0.08600
 H675 H -0.03251 0.71113 0.08755
 C676 C -0.01529 0.67888 0.06750
 H677 H -0.03234 0.67641 0.05499
 C678 C 0.02754 0.68698 0.10014
 H679 H 0.04430 0.69046 0.11269
 C680 C 0.02858 0.66700 0.08189
 H681 H 0.04609 0.65503 0.08138
 N682 N 0.00567 0.70220 0.10188
 C683 C -0.02841 0.74289 0.16878
 H684 H -0.01592 0.76091 0.16808
 C685 C -0.04922 0.73914 0.18785
 H686 H -0.05218 0.75437 0.20184
 C687 C -0.03891 0.70106 0.15151
 H688 H -0.03473 0.68614 0.13749
 C689 C -0.05983 0.69647 0.17021
 H690 H -0.07171 0.67805 0.17021
 Zn691 Zn 0.00342 0.73112 0.12435
 N692 N -0.02403 0.72423 0.15075
 C693 C -0.02622 0.77625 0.10539
 N694 N -0.00438 0.76144 0.10148
 C695 C 0.01287 0.76756 0.08046
 C696 C 0.00906 0.78995 0.06292
 C697 C -0.03088 0.79881 0.08823
 C698 C 0.04578 0.71908 0.15968
 C699 C 0.06850 0.72494 0.17415
 C700 C 0.06994 0.76957 0.15224
 C701 C 0.04733 0.76290 0.13833
 N702 N 0.03573 0.73797 0.14208
 H703 H -0.03996 0.77079 0.12191
 H704 H 0.02990 0.75521 0.07766
 H705 H 0.02326 0.79481 0.04656
 H706 H -0.04791 0.81073 0.09233
 H707 H 0.03586 0.69959 0.16282
 H708 H 0.07574 0.70961 0.18820
 H709 H 0.07861 0.78966 0.14902
 H710 H 0.03873 0.77805 0.12505
 C711 C -0.06557 0.71578 0.18841
 C712 C 0.00700 0.66294 0.06497
 C713 C 0.08085 0.75065 0.17053
 C714 C -0.01300 0.80590 0.06666
 C715 C 0.50560 0.22592 0.56992
 H716 H 0.48610 0.23443 0.56848
 C717 C 0.51274 0.20584 0.55335
 H718 H 0.49871 0.19964 0.53879
 C719 C 0.54766 0.22469 0.59019
 H720 H 0.56125 0.23218 0.60448
 C721 C 0.55565 0.20451 0.57397
 H722 H 0.57535 0.19654 0.57601
 N723 N 0.52273 0.23445 0.58834
 C724 C 0.47100 0.25862 0.65288
 H725 H 0.47787 0.27915 0.65442
 C726 C 0.45001 0.24789 0.66942
 H727 H 0.44082 0.26074 0.68323
 C728 C 0.47446 0.21771 0.63203
 H729 H 0.48412 0.20588 0.61762
 C730 C 0.45362 0.20615 0.64821
 H731 H 0.44734 0.18556 0.64585
 Zn732 Zn 0.50979 0.25994 0.61139
 N733 N 0.48239 0.24369 0.63426
 C734 C 0.47040 0.29589 0.59225
 N735 N 0.49625 0.28896 0.58969
 C736 C 0.51291 0.30206 0.57102
 C737 C 0.50406 0.32371 0.55474
 C738 C 0.46070 0.31738 0.57636
 C739 C 0.54757 0.25418 0.65151
 C740 C 0.56769 0.26208 0.66832
 C741 C 0.56581 0.30712 0.64769
 C742 C 0.54568 0.29838 0.63135
 N743 N 0.53718 0.27222 0.63330
 H744 H 0.45714 0.28476 0.60651
 H745 H 0.53318 0.29569 0.56886
 H746 H 0.51772 0.33346 0.53988
 H747 H 0.44011 0.32272 0.57881
 H748 H 0.54031 0.23354 0.65281
 H749 H 0.57606 0.24710 0.68205
 H750 H 0.57245 0.32800 0.64576
 H751 H 0.53685 0.31260 0.61721
 C752 C 0.44095 0.22124 0.66711
 C753 C 0.53785 0.19432 0.55578
 C754 C 0.57698 0.28898 0.66659
 C755 C 0.47766 0.33191 0.55762
 C756 C 0.52955 0.71872 0.90747
 H757 H 0.54781 0.73063 0.90455
 C758 C 0.52810 0.69684 0.92644
 H759 H 0.54543 0.69190 0.93804
 C760 C 0.48465 0.71105 0.89618
 H761 H 0.46759 0.71697 0.88475
 C762 C 0.48232 0.68901 0.91494
 H763 H 0.46326 0.67853 0.91769
 N764 N 0.50812 0.72515 0.89253
 C765 C 0.53859 0.76810 0.81897
 H766 H 0.52662 0.78575 0.81890
 C767 C 0.55642 0.76486 0.79775
 H768 H 0.55822 0.78020 0.78133
 C769 C 0.55051 0.72648 0.84036
 H770 H 0.54775 0.71131 0.85672
 C771 C 0.56874 0.72251 0.81961
 H772 H 0.57965 0.70415 0.82029
 Zn773 Zn 0.51142 0.75534 0.86754
 N774 N 0.53623 0.74921 0.83988
 C775 C 0.54546 0.79946 0.87876
 N776 N 0.52286 0.78501 0.88629
 C777 C 0.50819 0.79068 0.90823
 C778 C 0.51555 0.81219 0.92307
 C779 C 0.55360 0.82114 0.89308
 C780 C 0.46897 0.74373 0.83474
 C781 C 0.44485 0.74761 0.82198
 C782 C 0.44072 0.78922 0.84337
 C783 C 0.46500 0.78465 0.85556
 N784 N 0.47843 0.76203 0.85132
 H785 H 0.55730 0.79419 0.86172
 H786 H 0.49072 0.77840 0.91421
 H787 H 0.50372 0.81591 0.94069
 H788 H 0.57155 0.83256 0.88678
 H789 H 0.48015 0.72599 0.83161
 H790 H 0.43747 0.73242 0.80944
 H791 H 0.43015 0.80723 0.84712
 H792 H 0.47303 0.79921 0.86837
 C793 C 0.57207 0.74208 0.79810
 C794 C 0.50440 0.68145 0.93016
 C795 C 0.43044 0.77071 0.82622
 C796 C 0.53835 0.82804 0.91526
 C797 C 0.12688 0.22509 0.26667
 C798 C 0.12371 0.21833 0.29294
 C799 C 0.09985 0.22659 0.30754
 C800 C 0.09505 0.21857 0.33332
 H801 H 0.13846 0.20696 0.30383
 H802 H 0.08550 0.23855 0.29663
 H803 H 0.11180 0.23713 0.25692
 H804 H 0.10880 0.20527 0.34352
 C805 C 0.65559 0.71302 0.75749
 C806 C 0.63208 0.72467 0.75489
 C807 C 0.61317 0.72504 0.77774
 C808 C 0.59112 0.73930 0.77556
 H809 H 0.62654 0.73425 0.73584
 H810 H 0.61800 0.71463 0.79665
 H811 H 0.66008 0.70251 0.77649
 H812 H 0.58764 0.75075 0.75679
 C813 C 0.36386 0.76474 0.75581
 C814 C 0.37083 0.77237 0.77988
 C815 C 0.39687 0.76585 0.79104
 C816 C 0.40444 0.77583 0.81391
 H817 H 0.35730 0.78333 0.79186
 H818 H 0.41006 0.75355 0.78007
 H819 H 0.37750 0.75281 0.74487
 H820 H 0.39136 0.78930 0.82361
 C821 C -0.15222 0.28095 0.27882
 C822 C -0.13216 0.26393 0.27749
 C823 C -0.11313 0.26218 0.29952
 C824 C -0.09110 0.24788 0.29847
 H825 H -0.12899 0.25219 0.26042
 H826 H -0.11742 0.27301 0.31705
 H827 H -0.15324 0.29251 0.29640
 H828 H -0.08762 0.23599 0.28147
 C829 C -0.13568 0.73926 0.25370
 C830 C -0.12403 0.72159 0.23844
 C831 C -0.09984 0.72882 0.22195
 C832 C -0.08865 0.71049 0.20728
 H833 H -0.13184 0.70132 0.23787
 H834 H -0.09204 0.74925 0.22122
 H835 H -0.12585 0.75876 0.25462
 H836 H -0.09769 0.69047 0.20825
 C837 C 0.37233 0.21718 0.73964
 C838 C 0.38366 0.20584 0.71883
 C839 C 0.40718 0.21887 0.70469
 C840 C 0.41798 0.20869 0.68303
 H841 H 0.37577 0.18746 0.71159
 H842 H 0.41548 0.23695 0.71225
 H843 H 0.38147 0.23579 0.74539
 H844 H 0.40958 0.19005 0.67659
 C845 C 0.63114 0.28562 0.74758
 C846 C 0.62616 0.29732 0.72329
 C847 C 0.60456 0.28666 0.70725
 C848 C 0.59854 0.29871 0.68351
 H849 H 0.63758 0.31462 0.71485
 H850 H 0.59323 0.26908 0.71533
 H851 H 0.61847 0.26849 0.75461
 H852 H 0.60931 0.31707 0.67651
 C853 C 0.15487 0.74026 0.23427
 C854 C 0.14053 0.75523 0.21702
 C855 C 0.11797 0.74366 0.20288
 C856 C 0.10427 0.75935 0.18567
 H857 H 0.14487 0.77653 0.21361
 H858 H 0.11285 0.72257 0.20669
 H859 H 0.14927 0.71923 0.23829
 H860 H 0.11063 0.78028 0.18241
 C861 C 0.24506 0.14276 0.23886
 C862 C 0.25826 0.12833 0.22159
 C863 C 0.27589 0.10667 0.23088
 C864 C 0.28925 0.09304 0.21303
 H865 H 0.25585 0.13214 0.20022
 H866 H 0.27834 0.10253 0.25219
 H867 H 0.24665 0.13767 0.26019
 H868 H 0.28693 0.09860 0.19187
 C869 C 0.77638 0.65434 0.69867
 C870 C 0.77437 0.63098 0.71360
 C871 C 0.79676 0.61261 0.71619
 C872 C 0.79503 0.59131 0.73405
 H873 H 0.75605 0.62512 0.72446
 H874 H 0.81482 0.61720 0.70438
 H875 H 0.79454 0.65914 0.68700
 H876 H 0.77707 0.58826 0.74646
 C877 C 0.74567 0.37327 0.77940
 C878 C 0.76925 0.37801 0.79030
 C879 C 0.78585 0.40175 0.78075
 C880 C 0.80937 0.40697 0.79158
 H881 H 0.77670 0.36434 0.80591
 H882 H 0.77828 0.41533 0.76512
 H883 H 0.73949 0.38696 0.76307
 H884 H 0.81584 0.39369 0.80808
 C885 C 0.25972 -0.15604 0.25214
 C886 C 0.27927 -0.14331 0.26452
 C887 C 0.29081 -0.11718 0.25357
 C888 C 0.30954 -0.10470 0.26713
 H889 H 0.28703 -0.15154 0.28316
 H890 H 0.28360 -0.10826 0.23490
 H891 H 0.25280 -0.14637 0.23358
 H892 H 0.31557 -0.11432 0.28607
 C893 C 0.24275 -0.15559 0.74642
 C894 C 0.21890 -0.14780 0.73789
 C895 C 0.20586 -0.12510 0.74957
 C896 C 0.18253 -0.11651 0.74062
 H897 H 0.20871 -0.15760 0.72235
 H898 H 0.21598 -0.11490 0.76496
 H899 H 0.25146 -0.14470 0.76226
 H900 H 0.17349 -0.12632 0.72428
 C901 C 0.73945 0.36636 0.23564
 C902 C 0.72865 0.38210 0.21635
 C903 C 0.71333 0.40540 0.22323
 C904 C 0.70300 0.42179 0.20418
 H905 H 0.73177 0.37849 0.19543
 H906 H 0.71025 0.40884 0.24420
 H907 H 0.73710 0.37138 0.25631
 H908 H 0.70516 0.41716 0.18338
 C909 C 0.74389 0.65467 0.29384
 C910 C 0.74067 0.64278 0.27097
 C911 C 0.72156 0.62011 0.26978
 C912 C 0.71586 0.61014 0.24637
 H913 H 0.75120 0.65048 0.25277
 H914 H 0.71220 0.61181 0.28832
 H915 H 0.73188 0.64764 0.31138
 H916 H 0.72633 0.61853 0.22836
 C917 C 0.26078 0.11798 0.76933
 C918 C 0.24626 0.10312 0.78795
 C919 C 0.22928 0.08031 0.78092
 C920 C 0.21394 0.06672 0.79980
 H921 H 0.24630 0.10814 0.80867
 H922 H 0.22840 0.07589 0.76010
 H923 H 0.26178 0.11187 0.74896
 H924 H 0.21500 0.07252 0.82027
 C925 C 0.20025 0.24903 0.13768
 C926 C 0.22310 0.25453 0.12392
 C927 C 0.22317 0.27142 0.09855
 C928 C 0.24588 0.28036 0.08612
 H929 H 0.24180 0.24782 0.13188
 H930 H 0.20419 0.27669 0.09031
 H931 H 0.18211 0.25741 0.12986
 H932 H 0.26457 0.27390 0.09438
 C933 C 0.71625 0.77602 0.63104
 C934 C 0.72769 0.77577 0.60665
 C935 C 0.72533 0.79913 0.58721
 C936 C 0.73672 0.79991 0.56273
 H937 H 0.73826 0.75846 0.60077
 H938 H 0.71470 0.81628 0.59346
 H939 H 0.70506 0.79345 0.63562
 H940 H 0.74852 0.78319 0.55731
 C941 C 0.76946 0.78058 0.35805
 C942 C 0.77659 0.80655 0.35829
 C943 C 0.76581 0.82238 0.37962
 C944 C 0.77281 0.84817 0.38152
 H945 H 0.78979 0.81619 0.34290
 H946 H 0.75254 0.81227 0.39470
 H947 H 0.75546 0.77216 0.37345
 H948 H 0.78738 0.85773 0.36737
 C949 C 0.27439 0.23826 -0.15241
 C950 C 0.28940 0.25524 -0.13929
 C951 C 0.27773 0.27070 -0.11819
 C952 C 0.29290 0.28773 -0.10528
 H953 H 0.31055 0.25751 -0.14363
 H954 H 0.25660 0.26845 -0.11379
 H955 H 0.25353 0.23538 -0.14666
 H956 H 0.31378 0.29027 -0.11108
 C957 C 0.69437 0.26078 -0.12328
 C958 C 0.71622 0.25661 -0.10903
 C959 C 0.71517 0.23765 -0.08502
 C960 C 0.73731 0.23064 -0.07232
 H961 H 0.73516 0.26579 -0.11582
 H962 H 0.69602 0.22904 -0.07827
 H963 H 0.67607 0.25010 -0.11662
 H964 H 0.75603 0.24037 -0.07915
 C965 C 0.24308 0.72766 0.35209
 C966 C 0.22681 0.71194 0.36836
 C967 C 0.23651 0.69855 0.39336
 C968 C 0.21974 0.68416 0.41033
 H969 H 0.20604 0.70936 0.36366
 H970 H 0.25744 0.70043 0.39745
 H971 H 0.26342 0.73109 0.35801
 H972 H 0.19900 0.68260 0.40504
 C973 C 0.26249 0.73610 0.65441
 C974 C 0.27858 0.72390 0.63771
 C975 C 0.26779 0.70826 0.61630
 C976 C 0.28412 0.69571 0.60010
 H977 H 0.29995 0.72554 0.63955
 H978 H 0.24644 0.70634 0.61455
 H979 H 0.24124 0.73531 0.65126
 H980 H 0.30536 0.69719 0.60324
 C981 C 0.77925 0.25768 0.15050
 C982 C 0.78607 0.23249 0.14686
 C983 C 0.77802 0.21998 0.12232
 C984 C 0.78386 0.19471 0.11786
 H985 H 0.79627 0.22070 0.16220
 H986 H 0.76698 0.23181 0.10765
 H987 H 0.76819 0.26828 0.13490
 H988 H 0.79619 0.18350 0.13188
 C989 C 0.48600 0.41436 0.49764
 C990 C 0.47028 0.39624 0.51179
 C991 C 0.48203 0.37439 0.52855
 C992 C 0.46684 0.35470 0.54102
 H993 H 0.44888 0.39672 0.51014
 H994 H 0.50340 0.37461 0.53056
 H995 H 0.50738 0.41243 0.49863
 H996 H 0.44541 0.35561 0.53952
 C997 C -0.06270 0.87916 0.02171
 C998 C -0.03980 0.86690 0.02636
 C999 C -0.03888 0.84251 0.04452
 C1000 C -0.01589 0.83020 0.04841
 H1001 H -0.02129 0.87520 0.01745
 H1002 H -0.05711 0.83459 0.05436
 H1003 H -0.08070 0.87109 0.03200
 H1004 H 0.00171 0.83799 0.03720
 C1005 C 0.04688 0.59356 0.01264
 C1006 C 0.02606 0.60903 0.01688
 C1007 C 0.02791 0.62944 0.03683
 C1008 C 0.00653 0.64245 0.04474
 H1009 H 0.00749 0.60629 0.00684
 H1010 H 0.04714 0.63358 0.04503
 H1011 H 0.06428 0.59685 0.02457
 H1012 H -0.01231 0.63817 0.03561
 C1013 C 0.51783 0.12049 0.49957
 C1014 C 0.53649 0.13392 0.51224
 C1015 C 0.52844 0.15502 0.52969
 C1016 C 0.54604 0.17214 0.53943
 H1017 H 0.55740 0.13053 0.50857
 H1018 H 0.50744 0.15669 0.53426
 H1019 H 0.49718 0.12560 0.50244
 H1020 H 0.56710 0.16950 0.53578
 C1021 C -0.01677 0.09615 0.52014
 C1022 C -0.03403 0.10957 0.50472
 C1023 C -0.02540 0.13322 0.48723
 C1024 C -0.04244 0.14529 0.47052
 H1025 H -0.05478 0.10323 0.50486
 H1026 H -0.00478 0.13996 0.48735
 H1027 H 0.00360 0.10374 0.52064
 H1028 H -0.06260 0.13712 0.46988
 C1029 C 0.46789 0.59531 0.97210
 C1030 C 0.48585 0.61573 0.97174
 C1031 C 0.48522 0.63824 0.95110
 C1032 C 0.50340 0.65837 0.95052
 H1033 H 0.50128 0.61637 0.98631
 H1034 H 0.47013 0.63784 0.93608
 H1035 H 0.45301 0.59629 0.95672
 H1036 H 0.51892 0.65750 0.96522
 C1037 C 0.52231 0.89826 0.97681
 C1038 C 0.53960 0.88681 0.96076
 C1039 C 0.53032 0.86492 0.94471
 C1040 C 0.54716 0.85110 0.93030
 H1041 H 0.56055 0.89243 0.96046
 H1042 H 0.50923 0.85995 0.94502
 H1043 H 0.50174 0.89107 0.97749
 H1044 H 0.56804 0.85716 0.92908
 C1045 C 0.02120 0.39354 0.48433
 C1046 C 0.00344 0.37294 0.48525
 C1047 C 0.00439 0.35351 0.46433
 C1048 C -0.01272 0.33250 0.46470
 H1049 H -0.01137 0.36974 0.50123
 H1050 H 0.01938 0.35662 0.44844
 H1051 H 0.03533 0.39514 0.46750
 H1052 H -0.02831 0.33051 0.48013
 C1053 C 0.38397 0.51318 0.45086
 C1054 C 0.37233 0.51731 0.47448
 C1055 C 0.34864 0.53398 0.47559
 C1056 C 0.33864 0.54113 0.49899
 H1057 H 0.38112 0.50994 0.49303
 H1058 H 0.33981 0.54079 0.45691
 H1059 H 0.37551 0.52215 0.43272
 H1060 H 0.34737 0.53314 0.51739
 C1061 C 0.86648 0.00262 -0.01116
 C1062 C 0.86207 0.02733 -0.02208
 C1063 C 0.83934 0.04238 -0.01251
 C1064 C 0.83547 0.06764 -0.02195
 H1065 H 0.87518 0.03711 -0.03739
 H1066 H 0.82580 0.03250 0.00241
 H1067 H 0.85250 -0.00548 0.00442
 H1068 H 0.84883 0.07657 -0.03766
 C1069 C 0.60911 0.01058 0.01877
 C1070 C 0.61504 0.03246 0.03178
 C1071 C 0.63959 0.04862 0.02485
 C1072 C 0.64624 0.06991 0.03841
 H1073 H 0.60193 0.03886 0.04737
 H1074 H 0.65251 0.04253 0.00892
 H1075 H 0.62266 0.00547 0.00283
 H1076 H 0.63351 0.07473 0.05511
 C1077 C 0.09632 0.51036 0.52446
 C1078 C 0.11014 0.52259 0.54286
 C1079 C 0.13349 0.53980 0.53435
 C1080 C 0.14939 0.55062 0.55202
 H1081 H 0.10522 0.51895 0.56402
 H1082 H 0.13776 0.54346 0.51305
 H1083 H 0.10277 0.51351 0.50359
 H1084 H 0.14415 0.54802 0.57322
 C1085 C 0.11885 0.47897 -0.02718
 C1086 C 0.12362 0.45597 -0.03854
 C1087 C 0.14767 0.44110 -0.03160
 C1088 C 0.15261 0.41746 -0.04143
 H1089 H 0.11009 0.44757 -0.05237
 H1090 H 0.16166 0.45000 -0.01846
 H1091 H 0.13330 0.48557 -0.01306
 H1092 H 0.13905 0.40952 -0.05564
 C1093 C 0.59286 1.00753 0.44649
 C1094 C 0.61043 1.00364 0.46608
 C1095 C 0.63021 0.98243 0.46455
 C1096 C 0.64771 0.97776 0.48398
 H1097 H 0.61054 1.01556 0.48328
 H1098 H 0.63007 0.97051 0.44733
 H1099 H 0.59397 0.99435 0.43016
 H1100 H 0.64661 0.98949 0.50140
 C1101 C 0.89595 0.97409 0.55239
 C1102 C 0.87487 0.98276 0.53888
 C1103 C 0.85292 0.96421 0.53311
 C1104 C 0.83236 0.97283 0.51875
 H1105 H 0.87349 1.00372 0.53212
 H1106 H 0.85422 0.94326 0.53992
 H1107 H 0.89616 0.95329 0.56016
 H1108 H 0.83235 0.99367 0.51105
 C1109 C 0.40195 0.46548 0.01837
 C1110 C 0.37896 0.46890 0.00587
 C1111 C 0.35934 0.44651 0.00581
 C1112 C 0.33663 0.44909 -0.00730
 H1113 H 0.37416 0.48816 -0.00375
 H1114 H 0.36392 0.42751 0.01618
 H1115 H 0.40545 0.44607 0.02859
 H1116 H 0.33305 0.46776 -0.01887
 C1117 C 0.50912 0.50270 0.37281
 C1118 C 0.52888 0.48874 0.36276
 C1119 C 0.54459 0.49940 0.33894
 C1120 C 0.56451 0.48537 0.32929
 H1121 H 0.53333 0.46907 0.37164
 H1122 H 0.53946 0.51857 0.32944
 H1123 H 0.50443 0.52182 0.36267
 H1124 H 0.56852 0.46602 0.33939
 C1125 C -0.00980 -0.02260 0.91164
 C1126 C 0.00811 -0.03871 0.90143
 C1127 C 0.02782 -0.02856 0.88060
 C1128 C 0.04632 -0.04480 0.87168
 H1129 H 0.00828 -0.05977 0.90792
 H1130 H 0.02676 -0.00796 0.87267
 H1131 H -0.00993 -0.00180 0.90383
 H1132 H 0.04628 -0.06535 0.88027
 C1133 C 0.01007 0.00172 0.63774
 C1134 C 0.02504 0.01850 0.65115
 C1135 C 0.04056 0.00820 0.67398
 C1136 C 0.05554 0.02464 0.68777
 H1137 H 0.02564 0.03986 0.64572
 H1138 H 0.04017 -0.01324 0.67894
 H1139 H 0.00891 -0.01937 0.64461
 H1140 H 0.05668 0.04587 0.68151
 C1141 C 0.51858 0.51344 0.08946
 C1142 C 0.53148 0.53285 0.10146
 C1143 C 0.54899 0.52592 0.12387
 C1144 C 0.56103 0.54489 0.13723
 H1145 H 0.52852 0.55378 0.09552
 H1146 H 0.55217 0.50491 0.12922
 H1147 H 0.52096 0.49275 0.09690
 H1148 H 0.55865 0.56581 0.13067
 C1149 C 0.48921 -0.04050 0.10221
 C1150 C 0.48205 -0.01831 0.11359
 C1151 C 0.46179 -0.02010 0.13548
 C1152 C 0.45148 0.00192 0.14475
 H1153 H 0.48997 0.00117 0.10588
 H1154 H 0.45526 -0.03980 0.14386
 H1155 H 0.47973 -0.05954 0.10927
 H1156 H 0.45913 0.02141 0.13666
 C1157 C 0.98068 0.45386 0.61037
 C1158 C 0.97698 0.47540 0.62443
 C1159 C 0.95865 0.47424 0.64803
 C1160 C 0.95515 0.49603 0.66179
 H1161 H 0.98702 0.49435 0.61834
 H1162 H 0.94832 0.45544 0.65393
 H1163 H 0.96934 0.43553 0.61622
 H1164 H 0.96635 0.51425 0.65517
 C1165 C 0.99349 0.51117 0.90515
 C1166 C 0.97885 0.52912 0.89144
 C1167 C 0.96179 0.52046 0.86981
 C1168 C 0.94875 0.53810 0.85398
 H1169 H 0.98046 0.55020 0.89508
 H1170 H 0.96015 0.49925 0.86681
 H1171 H 0.99236 0.49046 0.89996
 H1172 H 0.94972 0.55912 0.85811
 C1173 C 0.47669 0.06128 0.37580
 C1174 C 0.47097 0.03939 0.36290
 C1175 C 0.45132 0.03992 0.34152
 C1176 C 0.44583 0.01774 0.32898
 H1177 H 0.48030 0.02062 0.36848
 H1178 H 0.44187 0.05859 0.33587
 H1179 H 0.46603 0.07946 0.37081
 H1180 H 0.45653 -0.00026 0.33461
   
