data_POSCAR
  _audit_creation_date              2014-09-24
  _audit_creation_method            'ToBaCCo'
  _symmetry_space_group_name_H-M    'P1'
  _symmetry_Int_Tables_number       1
  _symmetry_cell_setting            triclinic
  loop_
  _symmetry_equiv_pos_as_xyz
 x,y,z
_cell_length_a 41.8511
_cell_length_b 29.9554
_cell_length_c 29.7012
_cell_angle_alpha 89.925400
_cell_angle_beta 90.050300
_cell_angle_gamma 90.159200
loop_
  _atom_site_label
  _atom_site_type_symbol
  _atom_site_fract_x
  _atom_site_fract_y
  _atom_site_fract_z
C1 C 0.22627 0.22427 0.22614
 C2 C 0.22631 0.27137 0.22620
 C3 C 0.25004 0.29455 0.24994
 C4 C 0.27374 0.27141 0.27365
 C5 C 0.27374 0.22431 0.27363
 C6 C 0.24999 0.20107 0.24987
 H7 H 0.24998 0.16481 0.24984
 H8 H 0.25006 0.33077 0.24997
 C9 C 0.77416 0.27488 0.22586
 C10 C 0.77405 0.22777 0.22585
 C11 C 0.75029 0.20456 0.24951
 C12 C 0.72664 0.22773 0.27319
 C13 C 0.72674 0.27476 0.27323
 C14 C 0.75048 0.29803 0.24958
 H15 H 0.75047 0.33427 0.24969
 H16 H 0.75019 0.16834 0.24951
 C17 C 0.72671 0.72812 0.72664
 C18 C 0.72670 0.77514 0.72665
 C19 C 0.75038 0.79843 0.75039
 C20 C 0.77412 0.77530 0.77415
 C21 C 0.77411 0.72819 0.77413
 C22 C 0.75040 0.70497 0.75037
 H23 H 0.75038 0.66875 0.75034
 H24 H 0.75030 0.83467 0.75032
 C25 C 0.27327 0.77231 0.72667
 C26 C 0.27327 0.72528 0.72675
 C27 C 0.24962 0.70196 0.75053
 C28 C 0.22593 0.72506 0.77427
 C29 C 0.22594 0.77217 0.77419
 C30 C 0.24961 0.79543 0.75038
 H31 H 0.24963 0.83165 0.75031
 H32 H 0.24971 0.66572 0.75050
 O33 O 0.96901 -0.00450 -0.05715
 O34 O 1.03145 0.05653 0.00507
 O35 O 1.03122 -0.00482 -0.05694
 O36 O 0.96924 0.05687 0.00485
 O37 O 0.96893 0.00473 0.05734
 O38 O 1.03092 -0.05697 -0.00446
 O39 O 1.03115 0.00439 0.05756
 O40 O 0.96871 -0.05664 -0.00466
 Cu41 Cu 1.00026 0.03125 -0.03130
 Cu42 Cu 0.99990 -0.03134 0.03171
 C43 C 0.95816 -0.04103 -0.04157
 C44 C 1.04200 0.04092 0.04197
 C45 C 1.04169 -0.04147 -0.04130
 C46 C 0.95846 0.04138 0.04168
 O47 O 0.46895 0.49523 0.44286
 O48 O 0.53110 0.55710 0.50480
 O49 O 0.53116 0.49571 0.44282
 O50 O 0.46890 0.55663 0.50483
 O51 O 0.46904 0.50451 0.55735
 O52 O 0.53130 0.44359 0.49533
 O53 O 0.53125 0.50498 0.55731
 O54 O 0.46910 0.44311 0.49538
 Cu55 Cu 0.50001 0.53139 0.46856
 Cu56 Cu 0.50019 0.46883 0.53161
 C57 C 0.45838 0.45856 0.45850
 C58 C 0.54183 0.54164 0.54168
 C59 C 0.54190 0.45920 0.45844
 C60 C 0.45829 0.54102 0.54172
 O61 O 0.03123 0.50444 -0.05708
 O62 O -0.03116 0.44324 0.00505
 O63 O -0.03099 0.50478 -0.05693
 O64 O 0.03104 0.44290 0.00490
 O65 O 0.03139 0.49489 0.05741
 O66 O -0.03064 0.55677 -0.00443
 O67 O -0.03082 0.49523 0.05756
 O68 O 0.03156 0.55644 -0.00457
 Cu69 Cu -0.00001 0.46863 -0.03128
 Cu70 Cu 0.00041 0.53104 0.03175
 C71 C 0.04209 0.54094 -0.04148
 C72 C -0.04169 0.45874 0.04196
 C73 C -0.04144 0.54139 -0.04128
 C74 C 0.04185 0.45828 0.04175
 O75 O 0.46837 1.05685 0.49452
 O76 O 0.53068 0.99590 0.55673
 O77 O 0.53059 1.05726 0.49458
 O78 O 0.46847 0.99548 0.55668
 O79 O 0.46854 0.94334 0.50432
 O80 O 0.53066 1.00512 0.44222
 O81 O 0.53075 0.94376 0.50438
 O82 O 0.46844 1.00471 0.44216
 Cu83 Cu 0.49952 1.03160 0.53087
 Cu84 Cu 0.49960 0.96901 0.46802
 C85 C 0.45772 1.04123 0.45767
 C86 C 0.54139 0.95938 0.54122
 C87 C 0.54128 1.04178 0.45777
 C88 C 0.45787 0.95881 0.54115
 C89 C 1.10298 0.12926 0.07401
 C90 C 1.11480 0.11219 0.11459
 C91 C 1.10285 0.07183 0.13145
 C92 C 1.07916 0.04859 0.10785
 C93 C 1.20346 0.20064 0.20332
 C94 C 1.07930 0.10609 0.05033
 C95 C 1.13914 0.13614 0.13895
 C96 C 1.15949 0.15630 0.15932
 C97 C 1.18324 0.18009 0.18309
 C98 C 1.06711 0.06548 0.06700
 H99 H 1.11206 0.16049 0.06066
 H100 H 1.11184 0.05832 0.16285
 H101 H 1.07030 0.01744 0.12160
 H102 H 1.07054 0.12001 0.01901
 C103 C 0.60227 0.63078 0.57347
 C104 C 0.61428 0.61388 0.61402
 C105 C 0.60262 0.57338 0.63093
 C106 C 0.57905 0.54983 0.60742
 C107 C 0.70265 0.70309 0.70253
 C108 C 0.57870 0.60730 0.54988
 C109 C 0.63851 0.63812 0.63828
 C110 C 0.65878 0.65849 0.65858
 C111 C 0.68247 0.68245 0.68232
 C112 C 0.56681 0.56654 0.56660
 H113 H 0.61113 0.66212 0.56008
 H114 H 0.61175 0.56000 0.66230
 H115 H 0.57042 0.51857 0.62121
 H116 H 0.56980 0.62109 0.51858
 C117 C -0.10262 0.37029 0.07393
 C118 C -0.11441 0.38724 0.11451
 C119 C -0.10246 0.42756 0.13139
 C120 C -0.07879 0.45087 0.10780
 C121 C -0.20302 0.29854 0.20309
 C122 C -0.07896 0.39354 0.05027
 C123 C -0.13872 0.36322 0.13884
 C124 C -0.15905 0.34299 0.15917
 C125 C -0.18280 0.31914 0.18291
 C126 C -0.06677 0.43411 0.06696
 H127 H -0.11170 0.33909 0.06057
 H128 H -0.11141 0.44097 0.16278
 H129 H -0.06993 0.48199 0.12157
 H130 H -0.07023 0.37971 0.01896
 C131 C 0.39745 0.86970 0.57322
 C132 C 0.38551 0.88661 0.61372
 C133 C 0.39718 0.92713 0.63051
 C134 C 0.42073 0.95067 0.60692
 C135 C 0.29729 0.79736 0.70250
 C136 C 0.42099 0.89317 0.54956
 C137 C 0.36131 0.86237 0.63807
 C138 C 0.34107 0.84200 0.65844
 C139 C 0.31743 0.81802 0.68224
 C140 C 0.43291 0.93394 0.56615
 H141 H 0.38859 0.83835 0.55993
 H142 H 0.38810 0.94052 0.66185
 H143 H 0.42937 0.98193 0.62062
 H144 H 0.42985 0.87937 0.51830
 C145 C -0.10164 0.63050 -0.07298
 C146 C -0.11374 0.61367 -0.11351
 C147 C -0.10222 0.57323 -0.13043
 C148 C -0.07870 0.54966 -0.10696
 C149 C -0.20188 0.70305 -0.20182
 C150 C -0.07812 0.60700 -0.04943
 C151 C -0.13791 0.63794 -0.13773
 C152 C -0.15813 0.65834 -0.15799
 C153 C -0.18176 0.68235 -0.18166
 C154 C -0.06637 0.56629 -0.06617
 H155 H -0.11038 0.66179 -0.05958
 H156 H -0.11142 0.55991 -0.16179
 H157 H -0.07018 0.51845 -0.12076
 H158 H -0.06915 0.62073 -0.01815
 C159 C 0.39699 1.12949 0.42558
 C160 C 0.38505 1.11240 0.38507
 C161 C 0.39685 1.07206 0.36828
 C162 C 0.42050 1.04885 0.39188
 C163 C 0.29652 1.20072 0.29642
 C164 C 0.42063 1.10635 0.44925
 C165 C 0.36076 1.13631 0.36072
 C166 C 0.34044 1.15645 0.34038
 C167 C 0.31671 1.18020 0.31663
 C168 C 0.43266 1.06575 0.43265
 H169 H 0.38803 1.16071 0.43887
 H170 H 0.38778 1.05854 0.33694
 H171 H 0.42923 1.01771 0.37818
 H172 H 0.42948 1.12028 0.48051
 C173 C 1.10187 -0.13049 -0.07297
 C174 C 1.11392 -0.11355 -0.11349
 C175 C 1.10240 -0.07305 -0.13041
 C176 C 1.07890 -0.04955 -0.10694
 C177 C 1.20196 -0.20272 -0.20177
 C178 C 1.07837 -0.10706 -0.04943
 C179 C 1.13808 -0.13775 -0.13771
 C180 C 1.15827 -0.15810 -0.15796
 C181 C 1.18187 -0.18206 -0.18163
 C182 C 1.06661 -0.06631 -0.06617
 H183 H 1.11062 -0.16182 -0.05958
 H184 H 1.11157 -0.05964 -0.16175
 H185 H 1.07036 -0.01830 -0.12074
 H186 H 1.06942 -0.12088 -0.01817
 C187 C 0.60256 0.37091 0.42654
 C188 C 0.61442 0.38797 0.38596
 C189 C 0.60261 0.42831 0.36907
 C190 C 0.57901 0.45154 0.39263
 C191 C 0.70272 0.29965 0.29732
 C192 C 0.57898 0.39407 0.45018
 C193 C 0.63865 0.36403 0.36163
 C194 C 0.65891 0.34388 0.34129
 C195 C 0.68257 0.32014 0.31753
 C196 C 0.56692 0.43467 0.43348
 H197 H 0.61154 0.33969 0.43991
 H198 H 0.61161 0.44181 0.33767
 H199 H 0.57026 0.48268 0.37885
 H200 H 0.57019 0.38016 0.48149
 C201 C 0.89735 -0.07201 -0.13108
 C202 C 0.88542 -0.11238 -0.11423
 C203 C 0.89723 -0.12943 -0.07363
 C204 C 0.92089 -0.10623 -0.04993
 C205 C 0.79689 -0.20103 -0.20301
 C206 C 0.92102 -0.04874 -0.10746
 C207 C 0.86112 -0.13637 -0.13861
 C208 C 0.84080 -0.15658 -0.15899
 C209 C 0.81708 -0.18042 -0.18278
 C210 C 0.93307 -0.06561 -0.06660
 H211 H 0.88838 -0.05852 -0.16250
 H212 H 0.88817 -0.16067 -0.06028
 H213 H 0.92964 -0.12013 -0.01860
 H214 H 0.92987 -0.01758 -0.12122
 C215 C 0.39799 0.36935 0.42672
 C216 C 0.38599 0.38622 0.38615
 C217 C 0.39762 0.42673 0.36923
 C218 C 0.42117 0.45032 0.39275
 C219 C 0.29777 0.29663 0.29772
 C220 C 0.42154 0.39287 0.45031
 C221 C 0.36179 0.36191 0.36188
 C222 C 0.34155 0.34147 0.34159
 C223 C 0.31791 0.31739 0.31789
 C224 C 0.43341 0.43364 0.43358
 H225 H 0.38916 0.33800 0.44011
 H226 H 0.38849 0.44009 0.33785
 H227 H 0.42978 0.48159 0.37895
 H228 H 0.43044 0.37910 0.48161
 C229 C 0.10298 0.62943 -0.07348
 C230 C 0.11476 0.61250 -0.11408
 C231 C 0.10281 0.57217 -0.13095
 C232 C 0.07917 0.54883 -0.10734
 C233 C 0.20318 0.70136 -0.20287
 C234 C 0.07935 0.60616 -0.04980
 C235 C 0.13903 0.63656 -0.13845
 C236 C 0.15932 0.65682 -0.15882
 C237 C 0.18302 0.68071 -0.18261
 C238 C 0.06716 0.56558 -0.06649
 H239 H 0.11206 0.66063 -0.06012
 H240 H 0.11176 0.55877 -0.16236
 H241 H 0.07031 0.51771 -0.12111
 H242 H 0.07062 0.61997 -0.01848
 C243 C 0.60185 1.13075 0.42589
 C244 C 0.61385 1.11379 0.38543
 C245 C 0.60213 1.07332 0.36859
 C246 C 0.57851 1.04986 0.39209
 C247 C 0.70250 1.20273 0.29719
 C248 C 0.57823 1.10735 0.44946
 C249 C 0.63816 1.13794 0.36121
 C250 C 0.65850 1.15823 0.34096
 C251 C 0.68227 1.18213 0.31732
 C252 C 0.56628 1.06661 0.43282
 H253 H 0.61075 1.16206 0.43922
 H254 H 0.61125 1.05990 0.33729
 H255 H 0.56983 1.01862 0.37836
 H256 H 0.56934 1.12117 0.48069
 C257 C 0.10264 0.42643 0.13089
 C258 C 0.11415 0.38599 0.11395
 C259 C 0.10205 0.36917 0.07342
 C260 C 0.07853 0.39267 0.04988
 C261 C 0.20230 0.29654 0.20217
 C262 C 0.07911 0.45000 0.10742
 C263 C 0.13833 0.36172 0.13816
 C264 C 0.15856 0.34131 0.15840
 C265 C 0.18218 0.31727 0.18205
 C266 C 0.06678 0.43338 0.06663
 H267 H 0.11184 0.43975 0.16224
 H268 H 0.11079 0.33788 0.06002
 H269 H 0.06955 0.37895 0.01861
 H270 H 0.07059 0.48121 0.12123
 C271 C 0.60226 0.92855 0.63062
 C272 C 0.61406 0.88821 0.61383
 C273 C 0.60213 0.87112 0.57332
 C274 C 0.57849 0.89426 0.54965
 C275 C 0.70262 0.80001 0.70254
 C276 C 0.57862 0.95175 0.60702
 C277 C 0.63836 0.86431 0.63819
 C278 C 0.65868 0.84419 0.65854
 C279 C 0.68242 0.82048 0.68231
 C280 C 0.56645 0.93486 0.56625
 H281 H 0.61133 0.94207 0.66196
 H282 H 0.61109 0.83990 0.56004
 H283 H 0.56964 0.88033 0.51839
 H284 H 0.56988 0.98290 0.62072
 C285 C 0.89823 0.13036 0.07328
 C286 C 0.88616 0.11342 0.11378
 C287 C 0.89769 0.07294 0.13073
 C288 C 0.92122 0.04945 0.10730
 C289 C 0.79804 0.20262 0.20186
 C290 C 0.92176 0.10694 0.04977
 C291 C 0.86198 0.13761 0.13795
 C292 C 0.84176 0.15796 0.15816
 C293 C 0.81814 0.18193 0.18177
 C294 C 0.93353 0.06620 0.06653
 H295 H 0.88947 0.16168 0.05986
 H296 H 0.88851 0.05953 0.16206
 H297 H 0.92976 0.01821 0.12112
 H298 H 0.93072 0.12076 0.01852
 C299 C 0.39759 0.62928 0.57356
 C300 C 0.38572 0.61221 0.61413
 C301 C 0.39755 0.57188 0.63104
 C302 C 0.42116 0.54867 0.60750
 C303 C 0.29732 0.70043 0.70266
 C304 C 0.42120 0.60613 0.54995
 C305 C 0.36147 0.63613 0.63842
 C306 C 0.34118 0.65626 0.65874
 C307 C 0.31749 0.67997 0.68247
 C308 C 0.43326 0.56554 0.56667
 H309 H 0.38861 0.66049 0.56018
 H310 H 0.38853 0.55838 0.66243
 H311 H 0.42992 0.51754 0.62129
 H312 H 0.43000 0.62004 0.51864
   
