data_POSCAR
  _audit_creation_date              2014-09-24
  _audit_creation_method            'ToBaCCo'
  _symmetry_space_group_name_H-M    'P1'
  _symmetry_Int_Tables_number       1
  _symmetry_cell_setting            triclinic
  loop_
  _symmetry_equiv_pos_as_xyz
 x,y,z
_cell_length_a 19.9104
_cell_length_b 19.9104
_cell_length_c 19.9104
_cell_angle_alpha 85.708400
_cell_angle_beta 85.708600
_cell_angle_gamma 85.708100
loop_
  _atom_site_label
  _atom_site_type_symbol
  _atom_site_fract_x
  _atom_site_fract_y
  _atom_site_fract_z
C1 C 0.78211 0.59936 0.99654
 C2 C 0.74652 0.34936 0.53211
 C3 C 0.24653 -0.15064 0.03210
 C4 C 0.28210 0.09937 0.49653
 C5 C 0.09936 0.49653 0.28210
 C6 C -0.15064 0.03211 0.24653
 C7 C 0.34936 0.53210 0.74653
 C8 C 0.59936 0.99652 0.78210
 C9 C 0.03210 0.24653 -0.15064
 C10 C 0.49653 0.28211 0.09936
 C11 C 0.99653 0.78210 0.59936
 C12 C 0.53211 0.74653 0.34936
 C13 C 0.52651 -0.07691 0.25682
 H14 H 0.54945 -0.02990 0.26037
 C15 C 0.55762 -0.13769 0.28348
 H16 H 0.60565 -0.13610 0.30499
 C17 C 0.43755 -0.13600 0.22385
 H18 H 0.38961 -0.13652 0.20237
 C19 C 0.46640 -0.19677 0.25067
 H20 H 0.44099 -0.24150 0.24479
 N21 N 0.46476 -0.07669 0.23200
 C22 C 0.41475 0.11122 0.12460
 H23 H 0.37552 0.08894 0.10143
 C24 C 0.43238 0.17454 0.09919
 H25 H 0.40820 0.19595 0.05480
 C26 C 0.48660 0.11248 0.21326
 H27 H 0.50480 0.08921 0.25992
 C28 C 0.50402 0.17775 0.19068
 H29 H 0.53534 0.20129 0.22223
 Zn30 Zn 0.40383 0.00127 0.21973
 N31 N 0.44282 0.08036 0.17987
 C32 C 0.33937 0.08982 0.30893
 N33 N 0.36379 0.02459 0.30542
 C34 C 0.36775 -0.01770 0.36226
 C35 C 0.34414 0.00481 0.42556
 C36 C 0.31754 0.11489 0.37082
 C37 C 0.37041 -0.03791 0.09922
 C38 C 0.33706 -0.07195 0.05514
 C39 C 0.24337 -0.07968 0.13878
 C40 C 0.27794 -0.04265 0.18077
 N41 N 0.34117 -0.02449 0.16097
 H42 H 0.33808 0.12309 0.26350
 H43 H 0.38943 -0.06888 0.35865
 H44 H 0.34668 -0.03043 0.46949
 H45 H 0.29837 0.16720 0.37188
 H46 H 0.42208 -0.02602 0.08596
 H47 H 0.36458 -0.08542 0.00849
 H48 H 0.19566 -0.09762 0.15898
 H49 H 0.25674 -0.03362 0.23119
 C50 C 0.47827 0.21039 0.13114
 C51 C 0.52129 -0.19686 0.29116
 C52 C 0.27360 -0.09713 0.07493
 C53 C 0.31748 0.07215 0.43074
 C54 C 0.08937 1.05892 0.83981
 H55 H 0.08808 1.01349 0.87308
 C56 C 0.06753 1.12082 0.86489
 H57 H 0.04836 1.12187 0.91720
 C58 C 0.11775 1.11225 0.73230
 H59 H 0.13943 1.10865 0.68111
 C60 C 0.09414 1.17556 0.75481
 H61 H 0.09668 1.21948 0.71956
 N62 N 0.11379 1.05542 0.77458
 C63 C 0.12042 0.84922 0.71208
 H64 H 0.17209 0.83596 0.72396
 C65 C 0.08707 0.80513 0.67803
 H66 H 0.11459 0.75849 0.66456
 C67 C 0.02794 0.93076 0.70735
 H68 H 0.00674 0.98118 0.71639
 C69 C -0.00663 0.88877 0.67032
 H70 H -0.05435 0.90897 0.65239
 Zn71 Zn 0.15383 0.96973 0.75127
 N72 N 0.09118 0.91097 0.72550
 C73 C 0.16476 0.87459 0.86121
 N74 N 0.19283 0.92987 0.83035
 C75 C 0.23660 0.96326 0.86247
 C76 C 0.25401 0.94069 0.92775
 C77 C 0.18240 0.84918 0.92453
 C78 C 0.18754 0.97386 0.61400
 C79 C 0.21639 1.00068 0.55322
 C80 C 0.30761 1.03348 0.61230
 C81 C 0.27651 1.00682 0.67308
 N82 N 0.21476 0.98200 0.67330
 H83 H 0.12554 0.85142 0.83893
 H84 H 0.25479 1.00993 0.83921
 H85 H 0.28533 0.97224 0.95129
 H86 H 0.15821 0.80479 0.94594
 H87 H 0.13960 0.95239 0.61347
 H88 H 0.19097 0.99481 0.50849
 H89 H 0.35565 1.05498 0.61389
 H90 H 0.29945 1.01036 0.72009
 C91 C 0.02361 0.82492 0.65286
 C92 C 0.06748 1.18074 0.82215
 C93 C 0.27129 1.04116 0.55313
 C94 C 0.22827 0.88114 0.96038
 C95 C 0.58937 0.55893 0.33982
 H96 H 0.58808 0.51350 0.37308
 C97 C 0.56754 0.62083 0.36489
 H98 H 0.54837 0.62188 0.41720
 C99 C 0.61775 0.61226 0.23230
 H100 H 0.63943 0.60865 0.18111
 C101 C 0.59414 0.67556 0.25481
 H102 H 0.59668 0.71949 0.21956
 N103 N 0.61379 0.55542 0.27458
 C104 C 0.62041 0.34923 0.21208
 H105 H 0.67209 0.33597 0.22397
 C106 C 0.58706 0.30514 0.17803
 H107 H 0.61458 0.25850 0.16457
 C108 C 0.52794 0.43077 0.20734
 H109 H 0.50674 0.48119 0.21638
 C110 C 0.49337 0.38878 0.17031
 H111 H 0.44565 0.40898 0.15238
 Zn112 Zn 0.65383 0.46973 0.25127
 N113 N 0.59117 0.41097 0.22550
 C114 C 0.66476 0.37460 0.36121
 N115 N 0.69282 0.42987 0.33036
 C116 C 0.73659 0.46327 0.36248
 C117 C 0.75400 0.44069 0.42776
 C118 C 0.68239 0.34918 0.42454
 C119 C 0.68756 0.47385 0.11400
 C120 C 0.71641 0.50067 0.05323
 C121 C 0.80762 0.53349 0.11231
 C122 C 0.77651 0.50683 0.17309
 N123 N 0.71476 0.48200 0.17331
 H124 H 0.62553 0.35142 0.33893
 H125 H 0.75478 0.50993 0.33922
 H126 H 0.78531 0.47225 0.45131
 H127 H 0.65821 0.30479 0.44594
 H128 H 0.63962 0.45237 0.11347
 H129 H 0.69100 0.49479 0.00849
 H130 H 0.85565 0.55499 0.11390
 H131 H 0.79945 0.51037 0.22010
 C132 C 0.52360 0.32493 0.15286
 C133 C 0.56749 0.68075 0.32215
 C134 C 0.77130 0.54116 0.05314
 C135 C 0.72826 0.38114 0.46039
 C136 C 1.02651 0.42308 0.75682
 H137 H 1.04945 0.47009 0.76037
 C138 C 1.05761 0.36230 0.78348
 H139 H 1.10565 0.36389 0.80499
 C140 C 0.93754 0.36400 0.72385
 H141 H 0.88961 0.36347 0.70238
 C142 C 0.96640 0.30322 0.75067
 H143 H 0.94098 0.25849 0.74480
 N144 N 0.96476 0.42330 0.73201
 C145 C 0.91475 0.61121 0.62461
 H146 H 0.87551 0.58894 0.60144
 C147 C 0.93238 0.67454 0.59919
 H148 H 0.90820 0.69594 0.55480
 C149 C 0.98661 0.61247 0.71326
 H150 H 1.00481 0.58920 0.75992
 C151 C 1.00402 0.67774 0.69068
 H152 H 1.03535 0.70128 0.72223
 Zn153 Zn 0.90383 0.50127 0.71974
 N154 N 0.94282 0.58035 0.67987
 C155 C 0.83937 0.58981 0.80893
 N156 N 0.86379 0.52458 0.80543
 C157 C 0.86776 0.48230 0.86226
 C158 C 0.84414 0.50481 0.92557
 C159 C 0.81754 0.61489 0.87083
 C160 C 0.87040 0.46209 0.59923
 C161 C 0.83705 0.42804 0.55514
 C162 C 0.74336 0.42031 0.63878
 C163 C 0.77793 0.45734 0.68078
 N164 N 0.84117 0.47550 0.66098
 H165 H 0.83808 0.62308 0.76350
 H166 H 0.88944 0.43111 0.85866
 H167 H 0.84668 0.46957 0.96950
 H168 H 0.79837 0.66720 0.87188
 H169 H 0.92208 0.47398 0.58597
 H170 H 0.86457 0.41458 0.50850
 H171 H 0.69565 0.40237 0.65899
 H172 H 0.75673 0.46637 0.73120
 C173 C 0.97827 0.71038 0.63114
 C174 C 1.02129 0.30313 0.79116
 C175 C 0.77360 0.40286 0.57493
 C176 C 0.81749 0.57215 0.93075
 C177 C 0.25682 0.52651 -0.07691
 H178 H 0.26037 0.54945 -0.02990
 C179 C 0.28348 0.55761 -0.13769
 H180 H 0.30499 0.60565 -0.13610
 C181 C 0.22385 0.43755 -0.13600
 H182 H 0.20237 0.38961 -0.13653
 C183 C 0.25067 0.46640 -0.19678
 H184 H 0.24479 0.44099 -0.24151
 N185 N 0.23200 0.46476 -0.07670
 C186 C 0.12460 0.41476 0.11121
 H187 H 0.10142 0.37553 0.08894
 C188 C 0.09918 0.43239 0.17454
 H189 H 0.05479 0.40821 0.19594
 C190 C 0.21326 0.48660 0.11247
 H191 H 0.25992 0.50480 0.08921
 C192 C 0.19068 0.50402 0.17774
 H193 H 0.22223 0.53534 0.20129
 Zn194 Zn 0.21973 0.40383 0.00127
 N195 N 0.17987 0.44282 0.08035
 C196 C 0.30893 0.33938 0.08982
 N197 N 0.30542 0.36379 0.02458
 C198 C 0.36225 0.36775 -0.01771
 C199 C 0.42556 0.34414 0.00480
 C200 C 0.37083 0.31754 0.11489
 C201 C 0.09922 0.37041 -0.03791
 C202 C 0.05514 0.33705 -0.07196
 C203 C 0.13878 0.24336 -0.07969
 C204 C 0.18077 0.27793 -0.04266
 N205 N 0.16097 0.34117 -0.02450
 H206 H 0.26350 0.33809 0.12308
 H207 H 0.35864 0.38942 -0.06889
 H208 H 0.46949 0.34667 -0.03044
 H209 H 0.37188 0.29838 0.16720
 H210 H 0.08596 0.42208 -0.02603
 H211 H 0.00849 0.36458 -0.08543
 H212 H 0.15898 0.19565 -0.09762
 H213 H 0.23119 0.25674 -0.03362
 C214 C 0.13114 0.47827 0.21038
 C215 C 0.29116 0.52129 -0.19686
 C216 C 0.07493 0.27360 -0.09714
 C217 C 0.43074 0.31749 0.07215
 C218 C 0.83981 0.08937 1.05893
 H219 H 0.87308 0.08808 1.01350
 C220 C 0.86489 0.06754 1.12083
 H221 H 0.91720 0.04837 1.12188
 C222 C 0.73230 0.11776 1.11226
 H223 H 0.68111 0.13944 1.10865
 C224 C 0.75481 0.09414 1.17556
 H225 H 0.71956 0.09669 1.21949
 N226 N 0.77458 0.11379 1.05542
 C227 C 0.71208 0.12041 0.84923
 H228 H 0.72396 0.17208 0.83597
 C229 C 0.67803 0.08706 0.80514
 H230 H 0.66456 0.11458 0.75850
 C231 C 0.70735 0.02793 0.93077
 H232 H 0.71639 0.00673 0.98119
 C233 C 0.67032 -0.00664 0.88877
 H234 H 0.65239 -0.05435 0.90898
 Zn235 Zn 0.75127 0.15383 0.96973
 N236 N 0.72550 0.09117 0.91097
 C237 C 0.86121 0.16476 0.87460
 N238 N 0.83036 0.19282 0.92987
 C239 C 0.86248 0.23660 0.96326
 C240 C 0.92775 0.25401 0.94069
 C241 C 0.92453 0.18239 0.84918
 C242 C 0.61400 0.18754 0.97385
 C243 C 0.55322 0.21640 1.00067
 C244 C 0.61230 0.30762 1.03348
 C245 C 0.67308 0.27651 1.00682
 N246 N 0.67330 0.21476 0.98200
 H247 H 0.83893 0.12553 0.85142
 H248 H 0.83921 0.25479 1.00993
 H249 H 0.95130 0.28532 0.97224
 H250 H 0.94594 0.15820 0.80479
 H251 H 0.61347 0.13960 0.95238
 H252 H 0.50849 0.19098 0.99480
 H253 H 0.61389 0.35565 1.05498
 H254 H 0.72009 0.29945 1.01036
 C255 C 0.65286 0.02360 0.82493
 C256 C 0.82215 0.06749 1.18074
 C257 C 0.55314 0.27129 1.04116
 C258 C 0.96038 0.22826 0.88114
 C259 C 0.33982 0.58937 0.55893
 H260 H 0.37309 0.58807 0.51350
 C261 C 0.36489 0.56753 0.62083
 H262 H 0.41720 0.54836 0.62188
 C263 C 0.23230 0.61775 0.61225
 H264 H 0.18112 0.63943 0.60865
 C265 C 0.25481 0.59414 0.67556
 H266 H 0.21957 0.59668 0.71949
 N267 N 0.27459 0.61379 0.55542
 C268 C 0.21209 0.62041 0.34922
 H269 H 0.22398 0.67209 0.33597
 C270 C 0.17804 0.58706 0.30514
 H271 H 0.16457 0.61459 0.25850
 C272 C 0.20735 0.52793 0.43076
 H273 H 0.21639 0.50673 0.48118
 C274 C 0.17032 0.49337 0.38877
 H275 H 0.15239 0.44565 0.40897
 Zn276 Zn 0.25128 0.65383 0.46973
 N277 N 0.22551 0.59117 0.41097
 C278 C 0.36121 0.66476 0.37460
 N279 N 0.33036 0.69282 0.42987
 C280 C 0.36248 0.73660 0.46326
 C281 C 0.42775 0.75401 0.44069
 C282 C 0.42454 0.68239 0.34918
 C283 C 0.11400 0.68753 0.47386
 C284 C 0.05323 0.71638 0.50068
 C285 C 0.11230 0.80761 0.53348
 C286 C 0.17308 0.77651 0.50681
 N287 N 0.17331 0.71475 0.48200
 H288 H 0.33894 0.62553 0.35142
 H289 H 0.33922 0.75479 0.50993
 H290 H 0.45130 0.78533 0.47224
 H291 H 0.44594 0.65821 0.30479
 H292 H 0.11348 0.63959 0.45239
 H293 H 0.00850 0.69096 0.49481
 H294 H 0.11389 0.85565 0.55498
 H295 H 0.22009 0.79945 0.51036
 C296 C 0.15287 0.52360 0.32492
 C297 C 0.32215 0.56748 0.68074
 C298 C 0.05314 0.77128 0.54116
 C299 C 0.46039 0.72827 0.38113
 C300 C 0.75683 1.02651 0.42309
 H301 H 0.76038 1.04945 0.47010
 C302 C 0.78349 1.05762 0.36231
 H303 H 0.80499 1.10565 0.36390
 C304 C 0.72385 0.93756 0.36400
 H305 H 0.70237 0.88962 0.36347
 C306 C 0.75067 0.96641 0.30322
 H307 H 0.74479 0.94100 0.25849
 N308 N 0.73201 0.96476 0.42330
 C309 C 0.62461 0.91474 0.61121
 H310 H 0.60144 0.87551 0.58894
 C311 C 0.59919 0.93238 0.67454
 H312 H 0.55481 0.90819 0.69595
 C313 C 0.71326 0.98660 0.61248
 H314 H 0.75992 1.00480 0.58921
 C315 C 0.69068 1.00401 0.67775
 H316 H 0.72223 1.03534 0.70129
 Zn317 Zn 0.71973 0.90383 0.50127
 N318 N 0.67987 0.94282 0.58036
 C319 C 0.80893 0.83937 0.58981
 N320 N 0.80542 0.86379 0.52458
 C321 C 0.86226 0.86775 0.48230
 C322 C 0.92557 0.84413 0.50481
 C323 C 0.87083 0.81754 0.61489
 C324 C 0.59923 0.87041 0.46209
 C325 C 0.55514 0.83706 0.42804
 C326 C 0.63878 0.74337 0.42031
 C327 C 0.68077 0.77794 0.45734
 N328 N 0.66098 0.84117 0.47550
 H329 H 0.76350 0.83808 0.62308
 H330 H 0.85865 0.88943 0.43111
 H331 H 0.96949 0.84667 0.46956
 H332 H 0.87188 0.79837 0.66720
 H333 H 0.58597 0.92208 0.47398
 H334 H 0.50850 0.86458 0.41458
 H335 H 0.65899 0.69566 0.40237
 H336 H 0.73120 0.75674 0.46637
 C337 C 0.63114 0.97826 0.71039
 C338 C 0.79116 1.02130 0.30314
 C339 C 0.57493 0.77360 0.40286
 C340 C 0.93075 0.81748 0.57215
 C341 C -0.07692 0.25683 0.52651
 H342 H -0.02991 0.26038 0.54945
 C343 C -0.13770 0.28349 0.55762
 H344 H -0.13611 0.30499 0.60565
 C345 C -0.13600 0.22385 0.43755
 H346 H -0.13653 0.20238 0.38962
 C347 C -0.19678 0.25067 0.46641
 H348 H -0.24151 0.24479 0.44099
 N349 N -0.07670 0.23201 0.46476
 C350 C 0.11121 0.12461 0.41475
 H351 H 0.08894 0.10144 0.37552
 C352 C 0.17454 0.09920 0.43238
 H353 H 0.19594 0.05481 0.40819
 C354 C 0.11247 0.21327 0.48661
 H355 H 0.08921 0.25993 0.50481
 C356 C 0.17774 0.19069 0.50402
 H357 H 0.20129 0.22223 0.53534
 Zn358 Zn 0.00127 0.21974 0.40383
 N359 N 0.08035 0.17988 0.44282
 C360 C 0.08981 0.30893 0.33937
 N361 N 0.02458 0.30543 0.36379
 C362 C -0.01770 0.36227 0.36776
 C363 C 0.00481 0.42557 0.34414
 C364 C 0.11489 0.37083 0.31754
 C365 C -0.03791 0.09923 0.37041
 C366 C -0.07196 0.05515 0.33706
 C367 C -0.07969 0.13879 0.24337
 C368 C -0.04266 0.18078 0.27794
 N369 N -0.02450 0.16098 0.34117
 H370 H 0.12308 0.26350 0.33808
 H371 H -0.06889 0.35866 0.38943
 H372 H -0.03043 0.46950 0.34668
 H373 H 0.16720 0.37188 0.29836
 H374 H -0.02602 0.08597 0.42208
 H375 H -0.08542 0.00850 0.36458
 H376 H -0.09763 0.15899 0.19565
 H377 H -0.03363 0.23120 0.25674
 C378 C 0.21038 0.13114 0.47827
 C379 C -0.19687 0.29116 0.52130
 C380 C -0.09714 0.07494 0.27360
 C381 C 0.07215 0.43075 0.31748
 C382 C 1.05893 0.83982 0.08937
 H383 H 1.01350 0.87309 0.08807
 C384 C 1.12083 0.86489 0.06753
 H385 H 1.12188 0.91720 0.04836
 C386 C 1.11226 0.73230 0.11775
 H387 H 1.10865 0.68112 0.13943
 C388 C 1.17557 0.75481 0.09414
 H389 H 1.21949 0.71957 0.09668
 N390 N 1.05542 0.77459 0.11379
 C391 C 0.84923 0.71209 0.12041
 H392 H 0.83597 0.72398 0.17209
 C393 C 0.80514 0.67804 0.08706
 H394 H 0.75850 0.66458 0.11459
 C395 C 0.93077 0.70735 0.02793
 H396 H 0.98119 0.71639 0.00674
 C397 C 0.88878 0.67032 -0.00663
 H398 H 0.90898 0.65238 -0.05435
 Zn399 Zn 0.96973 0.75128 0.15383
 N400 N 0.91097 0.72551 0.09117
 C401 C 0.87460 0.86122 0.16476
 N402 N 0.92987 0.83037 0.19282
 C403 C 0.96327 0.86249 0.23660
 C404 C 0.94069 0.92776 0.25401
 C405 C 0.84918 0.92454 0.18239
 C406 C 0.97386 0.61401 0.18754
 C407 C 1.00068 0.55323 0.21640
 C408 C 1.03348 0.61231 0.30761
 C409 C 1.00682 0.67309 0.27651
 N410 N 0.98201 0.67331 0.21476
 H411 H 0.85142 0.83894 0.12553
 H412 H 1.00993 0.83922 0.25479
 H413 H 0.97224 0.95131 0.28532
 H414 H 0.80479 0.94595 0.15821
 H415 H 0.95238 0.61348 0.13961
 H416 H 0.99480 0.50850 0.19098
 H417 H 1.05499 0.61390 0.35565
 H418 H 1.01037 0.72010 0.29945
 C419 C 0.82493 0.65287 0.02361
 C420 C 1.18075 0.82215 0.06748
 C421 C 1.04116 0.55314 0.27129
 C422 C 0.88114 0.96039 0.22827
 C423 C 0.55892 0.33981 0.58937
 H424 H 0.51349 0.37308 0.58808
 C425 C 0.62082 0.36489 0.56754
 H426 H 0.62187 0.41720 0.54837
 C427 C 0.61226 0.23230 0.61776
 H428 H 0.60865 0.18111 0.63944
 C429 C 0.67556 0.25481 0.59414
 H430 H 0.71949 0.21957 0.59669
 N431 N 0.55542 0.27458 0.61380
 C432 C 0.34922 0.21208 0.62042
 H433 H 0.33597 0.22396 0.67209
 C434 C 0.30514 0.17804 0.58706
 H435 H 0.25850 0.16457 0.61459
 C436 C 0.43076 0.20735 0.52794
 H437 H 0.48118 0.21639 0.50674
 C438 C 0.38877 0.17032 0.49337
 H439 H 0.40897 0.15239 0.44565
 Zn440 Zn 0.46973 0.25127 0.65384
 N441 N 0.41097 0.22550 0.59118
 C442 C 0.37460 0.36120 0.66476
 N443 N 0.42987 0.33035 0.69283
 C444 C 0.46326 0.36247 0.73661
 C445 C 0.44069 0.42774 0.75402
 C446 C 0.34919 0.42453 0.68239
 C447 C 0.47386 0.11400 0.68754
 C448 C 0.50068 0.05322 0.71639
 C449 C 0.53348 0.11229 0.80762
 C450 C 0.50681 0.17308 0.77651
 N451 N 0.48200 0.17330 0.71476
 H452 H 0.35142 0.33893 0.62553
 H453 H 0.50993 0.33921 0.75480
 H454 H 0.47224 0.45129 0.78533
 H455 H 0.30480 0.44594 0.65821
 H456 H 0.45239 0.11347 0.63960
 H457 H 0.49481 0.00849 0.69097
 H458 H 0.55498 0.11388 0.85565
 H459 H 0.51035 0.22008 0.79946
 C460 C 0.32492 0.15286 0.52360
 C461 C 0.68074 0.32215 0.56749
 C462 C 0.54116 0.05313 0.77129
 C463 C 0.38114 0.46038 0.72827
 C464 C 0.42309 0.75683 1.02651
 H465 H 0.47010 0.76037 1.04945
 C466 C 0.36231 0.78349 1.05762
 H467 H 0.36390 0.80500 1.10565
 C468 C 0.36400 0.72385 0.93755
 H469 H 0.36347 0.70237 0.88962
 C470 C 0.30323 0.75067 0.96641
 H471 H 0.25850 0.74479 0.94099
 N472 N 0.42331 0.73200 0.96476
 C473 C 0.61121 0.62460 0.91476
 H474 H 0.58894 0.60142 0.87553
 C475 C 0.67454 0.59918 0.93239
 H476 H 0.69595 0.55479 0.90821
 C477 C 0.61248 0.71326 0.98661
 H478 H 0.58921 0.75992 1.00480
 C479 C 0.67775 0.69068 1.00402
 H480 H 0.70129 0.72224 1.03534
 Zn481 Zn 0.50127 0.71973 0.90384
 N482 N 0.58036 0.67987 0.94283
 C483 C 0.58982 0.80892 0.83938
 N484 N 0.52459 0.80542 0.86380
 C485 C 0.48230 0.86225 0.86776
 C486 C 0.50481 0.92556 0.84414
 C487 C 0.61489 0.87082 0.81754
 C488 C 0.46209 0.59922 0.87041
 C489 C 0.42804 0.55513 0.83706
 C490 C 0.42032 0.63877 0.74337
 C491 C 0.45734 0.68077 0.77794
 N492 N 0.47550 0.66097 0.84118
 H493 H 0.62309 0.76349 0.83809
 H494 H 0.43112 0.85864 0.88943
 H495 H 0.46956 0.96948 0.84668
 H496 H 0.66720 0.87187 0.79837
 H497 H 0.47398 0.58596 0.92209
 H498 H 0.41457 0.50849 0.86458
 H499 H 0.40238 0.65898 0.69566
 H500 H 0.46638 0.73119 0.75674
 C501 C 0.71039 0.63114 0.97827
 C502 C 0.30314 0.79116 1.02129
 C503 C 0.40286 0.57493 0.77360
 C504 C 0.57215 0.93074 0.81749
   
