data_POSCAR
  _audit_creation_date              2014-09-24
  _audit_creation_method            'ToBaCCo'
  _symmetry_space_group_name_H-M    'P1'
  _symmetry_Int_Tables_number       1
  _symmetry_cell_setting            triclinic
  loop_
  _symmetry_equiv_pos_as_xyz
 x,y,z
_cell_length_a 32.1991
_cell_length_b 26.7946
_cell_length_c 24.7075
_cell_angle_alpha 89.805500
_cell_angle_beta 89.990800
_cell_angle_gamma 90.029100
loop_
  _atom_site_label
  _atom_site_type_symbol
  _atom_site_fract_x
  _atom_site_fract_y
  _atom_site_fract_z
C1 C 0.00321 -0.01166 0.17453
 C2 C 0.00059 0.00240 -0.18009
 C3 C -0.09438 -0.08602 0.07860
 C4 C -0.09564 0.07948 0.08430
 C5 C -0.09820 -0.08308 -0.08207
 C6 C 0.09024 -0.08470 -0.09273
 C7 C 0.08972 0.08790 -0.08650
 C8 C 0.09679 -0.07952 0.07750
 C9 C -0.09927 0.08101 -0.07823
 C10 C 0.09730 0.07604 0.08076
 O11 O -0.06050 -0.09220 -0.09659
 O12 O -0.10911 -0.04940 -0.04762
 O13 O -0.06166 0.09164 -0.09229
 O14 O -0.10988 0.04662 -0.04467
 O15 O 0.05940 0.08509 0.09575
 O16 O 0.10770 0.04468 0.04335
 O17 O -0.00055 0.04446 -0.15491
 O18 O -0.00382 -0.04019 -0.15711
 O19 O 0.00278 0.03254 0.15294
 O20 O 0.00218 -0.05226 0.14744
 O21 O 0.05213 -0.08849 -0.10725
 O22 O 0.10418 -0.05195 -0.05822
 O23 O -0.05608 -0.09711 0.08865
 O24 O -0.10680 -0.05059 0.04750
 O25 O 0.05903 -0.09093 0.09011
 O26 O 0.10769 -0.04683 0.04176
 O27 O 0.05140 0.09417 -0.09900
 O28 O 0.10381 0.05224 -0.05579
 O29 O 0.00244 0.13467 0.08778
 O30 O -0.00503 0.14001 -0.08096
 O31 O -0.00281 -0.13812 -0.08983
 O32 O 0.00427 -0.14362 0.07058
 O33 O -0.03702 -0.06692 -0.00397
 O34 O -0.03677 0.06370 0.00132
 O35 O 0.03422 -0.06557 -0.00715
 O36 O -0.03752 -0.00397 0.07102
 O37 O -0.10726 0.04558 0.05050
 O38 O -0.05718 0.08914 0.09638
 O39 O 0.03923 -0.00354 0.06699
 O40 O 0.03558 0.00107 -0.07818
 O41 O 0.03316 0.06306 -0.00192
 O42 O -0.04154 0.00049 -0.07420
 Zr43 Zr 0.00045 0.05761 0.07075
 Zr44 Zr -0.00315 -0.06053 -0.07530
 Zr45 Zr -0.07231 -0.00157 -0.00002
 Zr46 Zr 0.00074 -0.06515 0.06420
 Zr47 Zr -0.00354 0.06177 -0.07131
 Zr48 Zr 0.07087 -0.00069 -0.00744
 H49 H 0.05020 -0.09706 -0.00780
 H50 H -0.05546 -0.00503 0.10355
 H51 H 0.04882 0.09478 -0.00094
 H52 H -0.06046 0.00100 -0.10581
 H53 H 0.00034 0.15150 0.05217
 H54 H -0.00678 0.15358 -0.04382
 H55 H -0.00844 -0.15676 0.03707
 H56 H 0.00271 -0.15403 -0.05440
 C57 C 0.25771 0.24994 0.07182
 C58 C 0.24956 0.26069 0.42688
 C59 C 0.15388 0.33202 0.16660
 C60 C 0.15542 0.16590 0.16646
 C61 C 0.15278 0.33355 0.32663
 C62 C 0.34554 0.33370 0.33152
 C63 C 0.34559 0.17475 0.33687
 C64 C 0.34665 0.32809 0.16414
 C65 C 0.15410 0.17100 0.33160
 C66 C 0.34705 0.16864 0.16877
 O67 O 0.19067 0.34548 0.33883
 O68 O 0.14227 0.29857 0.29364
 O69 O 0.19202 0.16155 0.34560
 O70 O 0.14299 0.20370 0.29627
 O71 O 0.30910 0.15759 0.15609
 O72 O 0.35748 0.20321 0.20245
 O73 O 0.24963 0.21668 0.40505
 O74 O 0.24920 0.30161 0.39990
 O75 O 0.25690 0.20731 0.09649
 O76 O 0.25181 0.29204 0.09497
 O77 O 0.30734 0.34474 0.34333
 O78 O 0.35656 0.29942 0.29799
 O79 O 0.19199 0.34313 0.15461
 O80 O 0.14276 0.29658 0.19865
 O81 O 0.30872 0.33903 0.15110
 O82 O 0.35743 0.29526 0.19933
 O83 O 0.30757 0.16465 0.34992
 O84 O 0.35677 0.20709 0.30124
 O85 O 0.25098 0.10959 0.16971
 O86 O 0.25073 0.11542 0.34075
 O87 O 0.25000 0.39433 0.32337
 O88 O 0.25102 0.38879 0.15934
 O89 O 0.21378 0.31662 0.24608
 O90 O 0.21520 0.18551 0.25077
 O91 O 0.28495 0.31678 0.24699
 O92 O 0.21260 0.24925 0.17516
 O93 O 0.14406 0.20018 0.20004
 O94 O 0.19367 0.15629 0.15391
 O95 O 0.28870 0.24989 0.17664
 O96 O 0.28784 0.25429 0.32263
 O97 O 0.28474 0.18650 0.25178
 O98 O 0.21160 0.25361 0.32040
 Zr99 Zr 0.25090 0.18774 0.17968
 Zr100 Zr 0.24929 0.31585 0.31668
 Zr101 Zr 0.17920 0.25029 0.24739
 Zr102 Zr 0.25007 0.31164 0.17669
 Zr103 Zr 0.24977 0.19239 0.32256
 Zr104 Zr 0.32072 0.25139 0.24990
 H105 H 0.30132 0.34801 0.24627
 H106 H 0.19450 0.24875 0.14276
 H107 H 0.30117 0.15535 0.25325
 H108 H 0.19280 0.25419 0.35208
 H109 H 0.24863 0.09570 0.20677
 H110 H 0.25016 0.09845 0.30522
 H111 H 0.25374 0.40550 0.19480
 H112 H 0.24096 0.40702 0.28762
 C113 C 0.50177 -0.01106 0.17711
 C114 C 0.49363 -0.01773 -0.17651
 C115 C 0.59689 0.07725 0.07922
 C116 C 0.59431 -0.09202 0.07637
 C117 C 0.58937 0.08060 -0.08602
 C118 C 0.40148 0.07373 -0.08185
 C119 C 0.40058 -0.08565 -0.08026
 C120 C 0.40458 0.07472 0.08823
 C121 C 0.59038 -0.09435 -0.08286
 C122 C 0.40713 -0.09014 0.08663
 O123 O 0.55125 0.08415 -0.10048
 O124 O 0.60392 0.04712 -0.05269
 O125 O 0.55200 -0.10111 -0.09482
 O126 O 0.60453 -0.05866 -0.05220
 O127 O 0.44496 -0.09387 0.10230
 O128 O 0.39330 -0.05729 0.05258
 O129 O 0.49456 -0.05833 -0.14990
 O130 O 0.49394 0.02643 -0.15472
 O131 O 0.50316 -0.05215 0.15178
 O132 O 0.50074 0.03260 0.15404
 O133 O 0.43918 0.08153 -0.09732
 O134 O 0.39045 0.04167 -0.04526
 O135 O 0.55876 0.08706 0.09255
 O136 O 0.60778 0.04277 0.04512
 O137 O 0.44312 0.08538 0.09856
 O138 O 0.39251 0.04041 0.05519
 O139 O 0.43840 -0.09648 -0.09332
 O140 O 0.38981 -0.05236 -0.04533
 O141 O 0.50070 -0.14505 0.08110
 O142 O 0.49406 -0.14847 -0.07007
 O143 O 0.49503 0.12933 -0.08822
 O144 O 0.50059 0.13329 0.08249
 O145 O 0.53370 0.05771 -0.00275
 O146 O 0.53500 -0.07104 -0.00032
 O147 O 0.46412 0.05754 0.00063
 O148 O 0.53929 -0.00570 0.07028
 O149 O 0.60691 -0.05735 0.04335
 O150 O 0.55676 -0.09865 0.09183
 O151 O 0.46170 -0.00574 0.07508
 O152 O 0.45768 -0.00865 -0.07077
 O153 O 0.46298 -0.07121 0.00288
 O154 O 0.53550 -0.00851 -0.07374
 Zr155 Zr 0.50050 -0.06676 0.07013
 Zr156 Zr 0.49648 0.05192 -0.07236
 Zr157 Zr 0.57146 -0.00606 -0.00346
 Zr158 Zr 0.50056 0.05536 0.07067
 Zr159 Zr 0.49663 -0.06971 -0.06754
 Zr160 Zr 0.42681 -0.00631 0.00364
 H161 H 0.44807 0.08900 0.00061
 H162 H 0.55843 -0.00608 0.10163
 H163 H 0.44711 -0.10278 0.00324
 H164 H 0.55327 -0.00896 -0.10646
 H165 H 0.48757 -0.15963 0.04864
 H166 H 0.51038 -0.16045 -0.03867
 H167 H 0.50152 0.14793 0.04567
 H168 H 0.49722 0.14549 -0.05235
 C169 C 0.75299 0.26147 0.07433
 C170 C 0.74698 0.26286 0.42801
 C171 C 0.65418 0.33373 0.16797
 C172 C 0.65441 0.16923 0.16488
 C173 C 0.65241 0.33678 0.32858
 C174 C 0.84510 0.32668 0.33938
 C175 C 0.83916 0.16626 0.33847
 C176 C 0.84741 0.32916 0.16866
 C177 C 0.65061 0.17396 0.33253
 C178 C 0.84599 0.17067 0.16842
 O179 O 0.69045 0.34725 0.34172
 O180 O 0.64151 0.30226 0.29503
 O181 O 0.68827 0.16411 0.34695
 O182 O 0.64016 0.20652 0.29667
 O183 O 0.80790 0.16167 0.15425
 O184 O 0.85670 0.20295 0.20444
 O185 O 0.74681 0.21875 0.40587
 O186 O 0.74664 0.30374 0.40171
 O187 O 0.75247 0.21730 0.09659
 O188 O 0.75195 0.30231 0.10015
 O189 O 0.80708 0.33976 0.34961
 O190 O 0.85615 0.29316 0.30517
 O191 O 0.69254 0.34553 0.15774
 O192 O 0.64225 0.29887 0.19993
 O193 O 0.80965 0.34086 0.15564
 O194 O 0.85759 0.29568 0.20400
 O195 O 0.80116 0.16292 0.35364
 O196 O 0.85296 0.19778 0.30275
 O197 O 0.75029 0.11415 0.16436
 O198 O 0.74502 0.11581 0.33878
 O199 O 0.75235 0.39473 0.32385
 O200 O 0.75175 0.39368 0.17249
 O201 O 0.71304 0.31876 0.24953
 O202 O 0.71309 0.18770 0.25012
 O203 O 0.78590 0.31670 0.25177
 O204 O 0.71224 0.25363 0.17749
 O205 O 0.64293 0.20304 0.19925
 O206 O 0.69272 0.16004 0.15245
 O207 O 0.78856 0.25252 0.17944
 O208 O 0.78585 0.25324 0.32491
 O209 O 0.78183 0.18708 0.25242
 O210 O 0.70938 0.25508 0.32193
 Zr211 Zr 0.74963 0.19164 0.17915
 Zr212 Zr 0.74858 0.31617 0.31944
 Zr213 Zr 0.67768 0.25270 0.24868
 Zr214 Zr 0.75072 0.31530 0.18194
 Zr215 Zr 0.74621 0.19326 0.32321
 Zr216 Zr 0.82016 0.24976 0.25329
 H217 H 0.80330 0.34711 0.25244
 H218 H 0.69419 0.25383 0.14508
 H219 H 0.79714 0.15509 0.25285
 H220 H 0.69037 0.25584 0.35339
 H221 H 0.74808 0.09833 0.20054
 H222 H 0.74390 0.09993 0.30266
 H223 H 0.76475 0.40720 0.20559
 H224 H 0.73724 0.40752 0.29182
 C225 C -0.00013 0.51336 0.17728
 C226 C 0.00528 0.49668 -0.17722
 C227 C -0.09534 0.41945 0.08450
 C228 C -0.09707 0.58448 0.07867
 C229 C -0.09537 0.41465 -0.07937
 C230 C 0.09723 0.42095 -0.08063
 C231 C 0.09574 0.57612 -0.08736
 C232 C 0.09636 0.42568 0.08812
 C233 C -0.09661 0.57898 -0.08407
 C234 C 0.09447 0.58372 0.08372
 O235 O -0.05712 0.40466 -0.09193
 O236 O -0.10665 0.44935 -0.04635
 O237 O -0.05862 0.58991 -0.09656
 O238 O -0.10773 0.54507 -0.05005
 O239 O 0.05630 0.59482 0.09496
 O240 O 0.10577 0.55010 0.04955
 O241 O 0.00079 0.53933 -0.15453
 O242 O 0.00436 0.45450 -0.15165
 O243 O -0.00112 0.55393 0.14994
 O244 O 0.00030 0.46903 0.15627
 O245 O 0.05932 0.40903 -0.09298
 O246 O 0.10745 0.45477 -0.04620
 O247 O -0.05723 0.41051 0.09813
 O248 O -0.10682 0.45264 0.04972
 O249 O 0.05841 0.41545 0.10162
 O250 O 0.10709 0.45804 0.05227
 O251 O 0.05774 0.58641 -0.10061
 O252 O 0.10673 0.54511 -0.05039
 O253 O -0.00007 0.64510 0.07025
 O254 O -0.00015 0.63734 -0.09038
 O255 O 0.00183 0.35826 -0.07573
 O256 O 0.00172 0.36631 0.09519
 O257 O -0.03490 0.43517 0.00352
 O258 O -0.03692 0.56611 -0.00339
 O259 O 0.03487 0.43646 0.00383
 O260 O -0.03846 0.50383 0.07227
 O261 O -0.10785 0.54908 0.04615
 O262 O -0.05914 0.59630 0.09025
 O263 O 0.03763 0.50511 0.07373
 O264 O 0.03806 0.49881 -0.07190
 O265 O 0.03451 0.56690 -0.00287
 O266 O -0.03801 0.49776 -0.07254
 Zr267 Zr -0.00116 0.56642 0.06682
 Zr268 Zr 0.00048 0.43659 -0.06781
 Zr269 Zr -0.07131 0.49973 -0.00009
 Zr270 Zr 0.00010 0.44278 0.07473
 Zr271 Zr -0.00062 0.56020 -0.07290
 Zr272 Zr 0.07034 0.50180 0.00115
 H273 H 0.05161 0.40554 0.00517
 H274 H -0.05722 0.50453 0.10399
 H275 H 0.05102 0.59804 -0.00406
 H276 H -0.05621 0.49655 -0.10480
 H277 H -0.01232 0.65669 0.03571
 H278 H 0.00501 0.65410 -0.05543
 H279 H 0.00207 0.34846 0.06017
 H280 H -0.00137 0.34515 -0.03845
 C281 C 0.24707 0.75994 0.07208
 C282 C 0.25154 0.76805 0.42550
 C283 C 0.15176 0.83575 0.16813
 C284 C 0.15165 0.67194 0.17015
 C285 C 0.15400 0.83940 0.32924
 C286 C 0.34669 0.83592 0.32751
 C287 C 0.34564 0.67757 0.33345
 C288 C 0.34021 0.82366 0.14871
 C289 C 0.15358 0.67237 0.33389
 C290 C 0.34380 0.67152 0.16478
 O291 O 0.19227 0.85085 0.33987
 O292 O 0.14224 0.80374 0.29794
 O293 O 0.19195 0.66333 0.34670
 O294 O 0.14206 0.70673 0.30035
 O295 O 0.30543 0.66213 0.15206
 O296 O 0.35508 0.70498 0.19930
 O297 O 0.25087 0.72355 0.40434
 O298 O 0.25120 0.80852 0.39837
 O299 O 0.24876 0.71628 0.09543
 O300 O 0.24436 0.80122 0.09700
 O301 O 0.30885 0.84675 0.34117
 O302 O 0.35699 0.80280 0.29221
 O303 O 0.18959 0.84692 0.15586
 O304 O 0.14070 0.80158 0.20206
 O305 O 0.30294 0.83991 0.14283
 O306 O 0.35274 0.79399 0.18665
 O307 O 0.30772 0.66806 0.34773
 O308 O 0.35635 0.70969 0.29709
 O309 O 0.24760 0.61489 0.16604
 O310 O 0.25100 0.61980 0.34229
 O311 O 0.25249 0.89872 0.32002
 O312 O 0.24797 0.89498 0.16824
 O313 O 0.21197 0.82114 0.24810
 O314 O 0.21357 0.68997 0.25161
 O315 O 0.28502 0.82082 0.24546
 O316 O 0.20949 0.75428 0.17769
 O317 O 0.14088 0.70594 0.20422
 O318 O 0.18957 0.66183 0.15653
 O319 O 0.28511 0.75428 0.17537
 O320 O 0.28798 0.75784 0.32025
 O321 O 0.28272 0.69042 0.24996
 O322 O 0.21168 0.75803 0.32198
 Zr323 Zr 0.24764 0.69267 0.17881
 Zr324 Zr 0.25001 0.82010 0.31576
 Zr325 Zr 0.17740 0.75473 0.25070
 Zr326 Zr 0.24712 0.81662 0.17842
 Zr327 Zr 0.24935 0.69641 0.32247
 Zr328 Zr 0.31959 0.75456 0.24646
 H329 H 0.30245 0.85115 0.24289
 H330 H 0.19046 0.75395 0.14624
 H331 H 0.29886 0.65904 0.25063
 H332 H 0.19333 0.75861 0.35412
 H333 H 0.24677 0.59995 0.20275
 H334 H 0.25055 0.60223 0.30707
 H335 H 0.26320 0.90888 0.19947
 H336 H 0.23817 0.91105 0.28716
 C337 C 0.49837 0.49108 0.17677
 C338 C 0.49949 0.48609 -0.17696
 C339 C 0.59543 0.58231 0.08222
 C340 C 0.59751 0.41955 0.08114
 C341 C 0.59601 0.57834 -0.08389
 C342 C 0.40407 0.57545 -0.08636
 C343 C 0.40527 0.41837 -0.08516
 C344 C 0.40319 0.57879 0.08308
 C345 C 0.59748 0.41616 -0.07877
 C346 C 0.40411 0.41946 0.08404
 O347 O 0.55796 0.58783 -0.09762
 O348 O 0.60709 0.54586 -0.04843
 O349 O 0.55959 0.40436 -0.09102
 O350 O 0.60801 0.45125 -0.04601
 O351 O 0.44212 0.40827 0.09650
 O352 O 0.39315 0.45278 0.04946
 O353 O 0.50147 0.44551 -0.15026
 O354 O 0.49867 0.53047 -0.15538
 O355 O 0.49999 0.44995 0.15149
 O356 O 0.49797 0.53500 0.15397
 O357 O 0.44206 0.58551 -0.09979
 O358 O 0.39322 0.54308 -0.05051
 O359 O 0.55721 0.59158 0.09555
 O360 O 0.60648 0.54870 0.04780
 O361 O 0.44124 0.58895 0.09653
 O362 O 0.39284 0.54527 0.04811
 O363 O 0.44334 0.40699 -0.09668
 O364 O 0.39403 0.45144 -0.05038
 O365 O 0.50099 0.35749 0.08225
 O366 O 0.49931 0.35491 -0.07230
 O367 O 0.49931 0.63411 -0.09158
 O368 O 0.49850 0.63714 0.08511
 O369 O 0.53461 0.56373 -0.00106
 O370 O 0.53735 0.43219 0.00130
 O371 O 0.46578 0.56236 -0.00137
 O372 O 0.53783 0.49831 0.07254
 O373 O 0.60825 0.45442 0.04847
 O374 O 0.55955 0.40691 0.09251
 O375 O 0.46188 0.49736 0.07284
 O376 O 0.46242 0.49527 -0.07297
 O377 O 0.46493 0.43197 0.00079
 O378 O 0.53840 0.49617 -0.07217
 Zr379 Zr 0.50059 0.43551 0.06992
 Zr380 Zr 0.50010 0.55720 -0.07319
 Zr381 Zr 0.57099 0.49930 0.00033
 Zr382 Zr 0.49957 0.55956 0.07102
 Zr383 Zr 0.50111 0.43356 -0.06793
 Zr384 Zr 0.42958 0.49781 -0.00031
 H385 H 0.44928 0.59349 -0.00204
 H386 H 0.55638 0.49871 0.10448
 H387 H 0.44832 0.40091 0.00078
 H388 H 0.55707 0.49569 -0.10399
 H389 H 0.49067 0.34262 0.04824
 H390 H 0.51428 0.34269 -0.03989
 H391 H 0.49973 0.65263 0.04869
 H392 H 0.50003 0.65107 -0.05602
 C393 C 0.75674 0.75840 0.07247
 C394 C 0.74976 0.76937 0.42574
 C395 C 0.66206 0.83037 0.14986
 C396 C 0.65460 0.67249 0.16702
 C397 C 0.65460 0.84149 0.32487
 C398 C 0.84773 0.83226 0.33427
 C399 C 0.84481 0.67344 0.33852
 C400 C 0.85076 0.82663 0.16507
 C401 C 0.65292 0.67809 0.33211
 C402 C 0.84636 0.67158 0.16700
 O403 O 0.69267 0.85131 0.33867
 O404 O 0.64370 0.80798 0.29026
 O405 O 0.69067 0.66794 0.34641
 O406 O 0.64262 0.71114 0.29621
 O407 O 0.80833 0.66208 0.15382
 O408 O 0.85760 0.70372 0.20293
 O409 O 0.74972 0.72476 0.40478
 O410 O 0.74947 0.80973 0.39846
 O411 O 0.75442 0.71478 0.09591
 O412 O 0.75724 0.79985 0.09732
 O413 O 0.80970 0.84525 0.34481
 O414 O 0.85851 0.79773 0.30105
 O415 O 0.69959 0.84635 0.14675
 O416 O 0.64806 0.80010 0.18680
 O417 O 0.81327 0.83870 0.15176
 O418 O 0.86073 0.79460 0.20158
 O419 O 0.80627 0.66540 0.35148
 O420 O 0.85676 0.70539 0.30275
 O421 O 0.75061 0.61403 0.16887
 O422 O 0.74737 0.62024 0.34306
 O423 O 0.75452 0.89916 0.31846
 O424 O 0.75609 0.89420 0.16805
 O425 O 0.71568 0.82267 0.24542
 O426 O 0.71495 0.69137 0.25058
 O427 O 0.78877 0.81929 0.24839
 O428 O 0.71535 0.75453 0.17606
 O429 O 0.64370 0.70727 0.20021
 O430 O 0.69283 0.66184 0.15474
 O431 O 0.79076 0.75250 0.17796
 O432 O 0.78828 0.75738 0.32326
 O433 O 0.78434 0.68889 0.25252
 O434 O 0.71216 0.75931 0.31941
 Zr435 Zr 0.75111 0.69207 0.17971
 Zr436 Zr 0.75105 0.82050 0.31587
 Zr437 Zr 0.67985 0.75712 0.24620
 Zr438 Zr 0.75427 0.81593 0.17858
 Zr439 Zr 0.74918 0.69683 0.32318
 Zr440 Zr 0.82219 0.75207 0.25155
 H441 H 0.80638 0.84953 0.24784
 H442 H 0.69845 0.75239 0.14281
 H443 H 0.80002 0.65716 0.25373
 H444 H 0.69310 0.76078 0.35078
 H445 H 0.74779 0.59988 0.20577
 H446 H 0.74721 0.60267 0.30785
 H447 H 0.76854 0.90812 0.20130
 H448 H 0.73876 0.91128 0.28665
 C449 C 0.00398 0.01433 0.32189
 C450 C 0.00887 -0.00029 0.67566
 C451 C -0.09304 0.08201 0.40830
 C452 C -0.09467 -0.07702 0.41577
 C453 C -0.09780 0.08213 0.58009
 C454 C 0.09469 0.07889 0.59039
 C455 C 0.09535 -0.07879 0.58358
 C456 C 0.09731 0.08464 0.41921
 C457 C -0.09651 -0.08047 0.57833
 C458 C 0.09769 -0.07136 0.41360
 O459 O -0.06007 0.09172 0.59530
 O460 O -0.10812 0.04978 0.54435
 O461 O -0.05855 -0.09073 0.59190
 O462 O -0.10709 -0.04596 0.54436
 O463 O 0.05989 -0.08153 0.39965
 O464 O 0.10820 -0.03994 0.45039
 O465 O 0.00607 -0.04226 0.65048
 O466 O 0.00195 0.04258 0.65408
 O467 O 0.00289 -0.02990 0.34348
 O468 O 0.00379 0.05502 0.34895
 O469 O 0.05651 0.09008 0.60170
 O470 O 0.10614 0.04724 0.55427
 O471 O -0.05547 0.09786 0.40241
 O472 O -0.10482 0.04943 0.44405
 O473 O 0.05949 0.09600 0.40652
 O474 O 0.10795 0.05130 0.45411
 O475 O 0.05713 -0.09047 0.59429
 O476 O 0.10654 -0.04436 0.55000
 O477 O 0.00314 -0.13168 0.40675
 O478 O -0.00136 -0.13880 0.57668
 O479 O -0.00067 0.14096 0.58719
 O480 O 0.00103 0.14737 0.42599
 O481 O -0.03618 0.06991 0.50121
 O482 O -0.03481 -0.06162 0.49584
 O483 O 0.03540 0.06923 0.50307
 O484 O -0.03614 0.00625 0.42658
 O485 O -0.10618 -0.04347 0.44957
 O486 O -0.05646 -0.08660 0.40264
 O487 O 0.03944 0.00703 0.42742
 O488 O 0.03710 0.00152 0.57235
 O489 O 0.03529 -0.06143 0.49739
 O490 O -0.03860 0.00119 0.57142
 Zr491 Zr 0.00148 -0.05502 0.42575
 Zr492 Zr -0.00116 0.06348 0.57212
 Zr493 Zr -0.07055 0.00358 0.49783
 Zr494 Zr 0.00111 0.06878 0.43206
 Zr495 Zr -0.00046 -0.06050 0.56770
 Zr496 Zr 0.07101 0.00372 0.50102
 H497 H 0.05213 0.10017 0.50466
 H498 H -0.05367 0.00557 0.39376
 H499 H 0.05186 -0.09250 0.49651
 H500 H -0.05693 0.00024 0.60359
 H501 H 0.00295 -0.14921 0.44208
 H502 H -0.00372 -0.15201 0.53944
 H503 H 0.00704 0.15980 0.46278
 H504 H -0.01003 0.15687 0.55314
 C505 C 0.26625 0.25484 0.92784
 C506 C 0.24831 0.23479 0.57489
 C507 C 0.15856 0.17536 0.85186
 C508 C 0.15610 0.33294 0.83401
 C509 C 0.15234 0.16305 0.67984
 C510 C 0.34493 0.16634 0.66884
 C511 C 0.34545 0.32597 0.66158
 C512 C 0.34719 0.16878 0.83705
 C513 C 0.15333 0.32740 0.67086
 C514 C 0.34821 0.33030 0.82967
 O515 O 0.19009 0.15187 0.66628
 O516 O 0.14208 0.19778 0.71317
 O517 O 0.19113 0.33650 0.65574
 O518 O 0.14278 0.29432 0.70653
 O519 O 0.31043 0.34281 0.84122
 O520 O 0.35867 0.29527 0.79684
 O521 O 0.24889 0.27920 0.59564
 O522 O 0.24744 0.19443 0.60287
 O523 O 0.26128 0.29634 0.90198
 O524 O 0.26072 0.21140 0.90721
 O525 O 0.30666 0.15445 0.65872
 O526 O 0.35675 0.20073 0.70139
 O527 O 0.19652 0.16241 0.85997
 O528 O 0.14606 0.20522 0.81382
 O529 O 0.30946 0.15955 0.85139
 O530 O 0.35802 0.20148 0.80096
 O531 O 0.30706 0.33490 0.64867
 O532 O 0.35691 0.29348 0.69736
 O533 O 0.25168 0.39142 0.82625
 O534 O 0.24944 0.38198 0.65655
 O535 O 0.25036 0.10363 0.68099
 O536 O 0.25024 0.11162 0.84156
 O537 O 0.21434 0.18178 0.75837
 O538 O 0.21541 0.31290 0.74938
 O539 O 0.28570 0.18267 0.75508
 O540 O 0.21484 0.25158 0.82683
 O541 O 0.14450 0.29819 0.80152
 O542 O 0.19450 0.34353 0.84546
 O543 O 0.29034 0.25113 0.82316
 O544 O 0.28742 0.24363 0.67813
 O545 O 0.28550 0.31273 0.74685
 O546 O 0.21106 0.24412 0.68216
 Zr547 Zr 0.25219 0.31301 0.81900
 Zr548 Zr 0.24880 0.18220 0.68655
 Zr549 Zr 0.17961 0.24781 0.75608
 Zr550 Zr 0.25220 0.18915 0.82642
 Zr551 Zr 0.24943 0.30553 0.67723
 Zr552 Zr 0.32167 0.24783 0.74988
 H553 H 0.30196 0.15138 0.75565
 H554 H 0.19854 0.25421 0.86066
 H555 H 0.30177 0.34399 0.74479
 H556 H 0.19176 0.24280 0.65102
 H557 H 0.24779 0.40414 0.78894
 H558 H 0.25024 0.39994 0.69149
 H559 H 0.25527 0.09550 0.80623
 H560 H 0.23917 0.09110 0.71576
 C561 C 0.49835 0.01490 0.32322
 C562 C 0.49658 0.00893 0.67716
 C563 C 0.59588 -0.07492 0.41531
 C564 C 0.59430 0.08779 0.42101
 C565 C 0.59503 -0.07905 0.58295
 C566 C 0.40317 -0.07953 0.58289
 C567 C 0.40168 0.07762 0.58550
 C568 C 0.40425 -0.07552 0.41261
 C569 C 0.59442 0.08303 0.58313
 C570 C 0.40230 0.08266 0.41743
 O571 O 0.55695 -0.08910 0.59617
 O572 O 0.60586 -0.04539 0.54817
 O573 O 0.55633 0.09405 0.59512
 O574 O 0.60581 0.04965 0.54907
 O575 O 0.44022 0.09463 0.40559
 O576 O 0.39156 0.04825 0.45105
 O577 O 0.49800 0.05030 0.65189
 O578 O 0.49666 -0.03481 0.65417
 O579 O 0.49842 0.05547 0.34981
 O580 O 0.49883 -0.02948 0.34487
 O581 O 0.44125 -0.08904 0.59648
 O582 O 0.39226 -0.04645 0.54768
 O583 O 0.55791 -0.08496 0.40173
 O584 O 0.60651 -0.04255 0.45116
 O585 O 0.44238 -0.08474 0.39940
 O586 O 0.39288 -0.04388 0.44875
 O587 O 0.43954 0.08947 0.59800
 O588 O 0.39114 0.04504 0.55007
 O589 O 0.49784 0.14631 0.42400
 O590 O 0.49569 0.14334 0.57875
 O591 O 0.49918 -0.13641 0.58501
 O592 O 0.49996 -0.13296 0.41037
 O593 O 0.53439 -0.06177 0.49915
 O594 O 0.53493 0.06963 0.50142
 O595 O 0.46535 -0.06199 0.49866
 O596 O 0.53702 0.00623 0.42801
 O597 O 0.60565 0.05274 0.45364
 O598 O 0.55624 0.09909 0.40946
 O599 O 0.46098 0.00527 0.42682
 O600 O 0.46050 0.00244 0.57270
 O601 O 0.46261 0.06834 0.50112
 O602 O 0.53647 0.00319 0.57247
 Zr603 Zr 0.49859 0.06784 0.43217
 Zr604 Zr 0.49908 -0.05871 0.57104
 Zr605 Zr 0.56984 0.00345 0.50038
 Zr606 Zr 0.49981 -0.05582 0.42706
 Zr607 Zr 0.49828 0.06503 0.57014
 Zr608 Zr 0.42827 0.00179 0.49957
 H609 H 0.44927 -0.09344 0.49788
 H610 H 0.55568 0.00738 0.39620
 H611 H 0.44559 0.09904 0.50199
 H612 H 0.55483 0.00287 0.60459
 H613 H 0.48750 0.15945 0.45883
 H614 H 0.51057 0.15725 0.54706
 H615 H 0.50150 -0.14946 0.44623
 H616 H 0.50082 -0.15161 0.54859
 C617 C 0.75284 0.23603 0.92841
 C618 C 0.74773 0.23685 0.57489
 C619 C 0.65525 0.16841 0.84503
 C620 C 0.65432 0.32795 0.83556
 C621 C 0.65100 0.16528 0.67372
 C622 C 0.84403 0.16839 0.66556
 C623 C 0.84456 0.32480 0.66595
 C624 C 0.84498 0.16794 0.83587
 C625 C 0.65256 0.32917 0.66957
 C626 C 0.84606 0.32475 0.83605
 O627 O 0.68886 0.15417 0.66049
 O628 O 0.64028 0.19878 0.70808
 O629 O 0.69069 0.33825 0.65577
 O630 O 0.64167 0.29553 0.70480
 O631 O 0.80814 0.33480 0.84970
 O632 O 0.85640 0.29228 0.80008
 O633 O 0.74849 0.28092 0.59712
 O634 O 0.74663 0.19587 0.60103
 O635 O 0.75244 0.28027 0.90623
 O636 O 0.75159 0.19519 0.90252
 O637 O 0.80590 0.15694 0.65381
 O638 O 0.85521 0.20096 0.70068
 O639 O 0.69286 0.15294 0.85110
 O640 O 0.64345 0.20113 0.80924
 O641 O 0.80718 0.15632 0.84808
 O642 O 0.85596 0.20067 0.80055
 O643 O 0.80642 0.33471 0.65279
 O644 O 0.85556 0.29213 0.70136
 O645 O 0.75101 0.38334 0.83946
 O646 O 0.74909 0.38363 0.66419
 O647 O 0.74953 0.10399 0.67651
 O648 O 0.74806 0.10329 0.82701
 O649 O 0.71149 0.17936 0.75279
 O650 O 0.71416 0.31073 0.75252
 O651 O 0.78448 0.17988 0.75134
 O652 O 0.71213 0.24490 0.82471
 O653 O 0.64248 0.29484 0.80129
 O654 O 0.69258 0.33718 0.84844
 O655 O 0.78763 0.24404 0.82416
 O656 O 0.78612 0.24446 0.67859
 O657 O 0.78331 0.31050 0.75116
 O658 O 0.71003 0.24487 0.68089
 Zr659 Zr 0.75005 0.30604 0.82364
 Zr660 Zr 0.74769 0.18248 0.68320
 Zr661 Zr 0.67750 0.24622 0.75377
 Zr662 Zr 0.74912 0.18198 0.82073
 Zr663 Zr 0.74824 0.30621 0.67984
 Zr664 Zr 0.81945 0.24600 0.75098
 H665 H 0.80144 0.14913 0.75086
 H666 H 0.69469 0.24596 0.85761
 H667 H 0.79979 0.34167 0.75100
 H668 H 0.69108 0.24498 0.64937
 H669 H 0.74971 0.39953 0.80340
 H670 H 0.74860 0.39952 0.70032
 H671 H 0.76342 0.09025 0.79543
 H672 H 0.73497 0.09096 0.70889
 C673 C -0.00079 0.48703 0.32391
 C674 C 0.01102 0.49981 0.67762
 C675 C -0.09719 0.57919 0.41936
 C676 C -0.09729 0.41393 0.42431
 C677 C -0.09665 0.58035 0.58055
 C678 C 0.09525 0.57860 0.58304
 C679 C 0.09557 0.41835 0.58700
 C680 C 0.09558 0.57693 0.41410
 C681 C -0.09696 0.41676 0.58470
 C682 C 0.09503 0.41818 0.41585
 O683 O -0.05858 0.59082 0.59348
 O684 O -0.10765 0.54564 0.54792
 O685 O -0.05889 0.40650 0.59800
 O686 O -0.10776 0.45093 0.55082
 O687 O 0.05691 0.40638 0.40492
 O688 O 0.10624 0.45123 0.45061
 O689 O 0.00460 0.45700 0.65590
 O690 O 0.00714 0.54191 0.65253
 O691 O -0.00188 0.44626 0.35086
 O692 O -0.00038 0.53121 0.34531
 O693 O 0.05724 0.59039 0.59420
 O694 O 0.10631 0.54436 0.54947
 O695 O -0.05913 0.58869 0.40520
 O696 O -0.10785 0.54500 0.45352
 O697 O 0.05736 0.58618 0.40052
 O698 O 0.10648 0.54407 0.44980
 O699 O 0.05755 0.40784 0.59991
 O700 O 0.10642 0.45135 0.55140
 O701 O 0.00126 0.35444 0.42722
 O702 O -0.00097 0.35922 0.59001
 O703 O -0.00103 0.63856 0.58000
 O704 O -0.00005 0.63349 0.40795
 O705 O -0.03576 0.56268 0.49861
 O706 O -0.03659 0.43141 0.50418
 O707 O 0.03402 0.56214 0.49815
 O708 O -0.03888 0.49500 0.42908
 O709 O -0.10806 0.44939 0.45619
 O710 O -0.05936 0.40213 0.41234
 O711 O 0.03730 0.49480 0.42774
 O712 O 0.03769 0.49870 0.57295
 O713 O 0.03465 0.43189 0.50339
 O714 O -0.03831 0.49877 0.57479
 Zr715 Zr -0.00104 0.43290 0.43378
 Zr716 Zr -0.00045 0.56047 0.56961
 Zr717 Zr -0.07130 0.49748 0.50194
 Zr718 Zr -0.00082 0.55673 0.42714
 Zr719 Zr -0.00051 0.43661 0.57398
 Zr720 Zr 0.07040 0.49739 0.50030
 H721 H 0.05032 0.59342 0.49726
 H722 H -0.05787 0.49436 0.39760
 H723 H 0.05125 0.40082 0.50346
 H724 H -0.05614 0.49949 0.60745
 H725 H -0.00906 0.34145 0.46226
 H726 H 0.00319 0.34298 0.55453
 H727 H 0.00000 0.65083 0.44329
 H728 H -0.00281 0.65258 0.54295
 C729 C 0.25145 0.73404 0.92603
 C730 C 0.24937 0.74210 0.57225
 C731 C 0.15273 0.66346 0.82694
 C732 C 0.15652 0.82428 0.84341
 C733 C 0.15213 0.66747 0.66819
 C734 C 0.34490 0.67104 0.66320
 C735 C 0.34503 0.82847 0.66550
 C736 C 0.34595 0.66584 0.83099
 C737 C 0.15306 0.83185 0.66980
 C738 C 0.34513 0.82430 0.83560
 O739 O 0.19009 0.65611 0.65590
 O740 O 0.14131 0.70202 0.70163
 O741 O 0.19112 0.84095 0.65567
 O742 O 0.14205 0.79842 0.70466
 O743 O 0.30730 0.83346 0.84949
 O744 O 0.35620 0.79267 0.79926
 O745 O 0.24995 0.78576 0.59541
 O746 O 0.24789 0.70070 0.59746
 O747 O 0.25169 0.77851 0.90450
 O748 O 0.25025 0.69357 0.89933
 O749 O 0.30684 0.65983 0.65096
 O750 O 0.35607 0.70366 0.69813
 O751 O 0.19081 0.65134 0.83819
 O752 O 0.14159 0.69948 0.79573
 O753 O 0.30796 0.65402 0.84299
 O754 O 0.35659 0.70019 0.79714
 O755 O 0.30692 0.83861 0.65257
 O756 O 0.35595 0.79506 0.70035
 O757 O 0.25123 0.88285 0.83822
 O758 O 0.24984 0.88684 0.66456
 O759 O 0.25013 0.60728 0.66953
 O760 O 0.24933 0.60328 0.82507
 O761 O 0.21243 0.68167 0.74838
 O762 O 0.21437 0.81289 0.75135
 O763 O 0.28484 0.68118 0.74755
 O764 O 0.21204 0.74402 0.82196
 O765 O 0.14442 0.79330 0.80629
 O766 O 0.19453 0.83658 0.85210
 O767 O 0.28792 0.74375 0.82212
 O768 O 0.28692 0.74745 0.67629
 O769 O 0.28361 0.81158 0.75046
 O770 O 0.21076 0.74799 0.67782
 Zr771 Zr 0.24997 0.80553 0.82249
 Zr772 Zr 0.24846 0.68551 0.67914
 Zr773 Zr 0.17806 0.74843 0.75057
 Zr774 Zr 0.24947 0.68176 0.81693
 Zr775 Zr 0.24894 0.80919 0.67879
 Zr776 Zr 0.31993 0.74724 0.74898
 H777 H 0.30150 0.65021 0.74653
 H778 H 0.19401 0.74226 0.85432
 H779 H 0.29999 0.84281 0.75111
 H780 H 0.19196 0.74862 0.64614
 H781 H 0.24901 0.89908 0.80227
 H782 H 0.24901 0.90219 0.70096
 H783 H 0.26033 0.58997 0.79067
 H784 H 0.23729 0.59322 0.70262
 C785 C 0.49815 0.51691 0.32260
 C786 C 0.49727 0.51154 0.67627
 C787 C 0.59519 0.42485 0.41525
 C788 C 0.59528 0.58946 0.41918
 C789 C 0.59454 0.42052 0.58278
 C790 C 0.40303 0.42159 0.58155
 C791 C 0.40216 0.58067 0.58329
 C792 C 0.40344 0.42600 0.41276
 C793 C 0.59511 0.58505 0.58184
 C794 C 0.40317 0.58567 0.41543
 O795 O 0.55629 0.41125 0.59573
 O796 O 0.60577 0.45452 0.54819
 O797 O 0.55698 0.59619 0.59360
 O798 O 0.60649 0.55103 0.54836
 O799 O 0.44124 0.59724 0.40377
 O800 O 0.39223 0.55130 0.44925
 O801 O 0.49824 0.55273 0.65069
 O802 O 0.49729 0.46764 0.65355
 O803 O 0.49922 0.55747 0.34900
 O804 O 0.49807 0.47253 0.34427
 O805 O 0.44111 0.41244 0.59546
 O806 O 0.39220 0.45520 0.54665
 O807 O 0.55711 0.41546 0.40179
 O808 O 0.60642 0.45763 0.45040
 O809 O 0.44162 0.41644 0.39967
 O810 O 0.39232 0.45850 0.44811
 O811 O 0.44007 0.59231 0.59587
 O812 O 0.39143 0.54764 0.54857
 O813 O 0.49942 0.64828 0.42403
 O814 O 0.49667 0.64527 0.57742
 O815 O 0.49864 0.36551 0.58442
 O816 O 0.49924 0.36896 0.40877
 O817 O 0.53417 0.43994 0.49845
 O818 O 0.53576 0.57099 0.50036
 O819 O 0.46517 0.44011 0.49801
 O820 O 0.53736 0.50752 0.42722
 O821 O 0.60639 0.55412 0.45197
 O822 O 0.55718 0.60076 0.40765
 O823 O 0.46114 0.50743 0.42583
 O824 O 0.46058 0.50465 0.57178
 O825 O 0.46319 0.57028 0.49987
 O826 O 0.53687 0.50481 0.57155
 Zr827 Zr 0.49939 0.56968 0.43112
 Zr828 Zr 0.49899 0.44321 0.57044
 Zr829 Zr 0.57050 0.50458 0.49956
 Zr830 Zr 0.49942 0.44593 0.42637
 Zr831 Zr 0.49885 0.56693 0.56891
 Zr832 Zr 0.42827 0.50403 0.49849
 H833 H 0.44907 0.40867 0.49725
 H834 H 0.55598 0.50835 0.39536
 H835 H 0.44636 0.60112 0.50045
 H836 H 0.55527 0.50445 0.60362
 H837 H 0.48719 0.66122 0.45788
 H838 H 0.51128 0.65906 0.54546
 H839 H 0.50009 0.35208 0.44449
 H840 H 0.50000 0.35029 0.54798
 C841 C 0.75444 0.73323 0.92593
 C842 C 0.74905 0.74355 0.57242
 C843 C 0.65378 0.66473 0.82871
 C844 C 0.65891 0.82239 0.84794
 C845 C 0.65214 0.67063 0.66920
 C846 C 0.84554 0.67154 0.66128
 C847 C 0.84538 0.82913 0.66337
 C848 C 0.84690 0.66733 0.83058
 C849 C 0.65375 0.83349 0.67098
 C850 C 0.84689 0.82523 0.83481
 O851 O 0.68995 0.65883 0.65639
 O852 O 0.64168 0.70469 0.70322
 O853 O 0.69170 0.84215 0.65604
 O854 O 0.64303 0.80064 0.70671
 O855 O 0.80920 0.83393 0.84943
 O856 O 0.85775 0.79383 0.79798
 O857 O 0.74974 0.78716 0.59572
 O858 O 0.74788 0.70207 0.59744
 O859 O 0.75536 0.77786 0.90469
 O860 O 0.75181 0.69303 0.89892
 O861 O 0.80726 0.66061 0.64945
 O862 O 0.85688 0.70403 0.69642
 O863 O 0.69193 0.65238 0.83950
 O864 O 0.64272 0.70061 0.79717
 O865 O 0.80899 0.65540 0.84252
 O866 O 0.85772 0.70118 0.79626
 O867 O 0.80716 0.83948 0.65133
 O868 O 0.85664 0.79585 0.69828
 O869 O 0.75281 0.88314 0.83894
 O870 O 0.75057 0.88828 0.66616
 O871 O 0.75008 0.60847 0.66949
 O872 O 0.75016 0.60355 0.82238
 O873 O 0.71312 0.68281 0.74843
 O874 O 0.71562 0.81415 0.75246
 O875 O 0.78587 0.68209 0.74678
 O876 O 0.71379 0.74461 0.82251
 O877 O 0.64608 0.79315 0.80962
 O878 O 0.69691 0.83533 0.85530
 O879 O 0.78948 0.74397 0.82129
 O880 O 0.78747 0.74864 0.67581
 O881 O 0.78491 0.81238 0.75036
 O882 O 0.71137 0.74940 0.67872
 Zr883 Zr 0.75191 0.80587 0.82296
 Zr884 Zr 0.74901 0.68674 0.67894
 Zr885 Zr 0.67912 0.74987 0.75190
 Zr886 Zr 0.75059 0.68222 0.81637
 Zr887 Zr 0.74955 0.81046 0.67922
 Zr888 Zr 0.82118 0.74807 0.74790
 H889 H 0.80260 0.65119 0.74544
 H890 H 0.69636 0.74230 0.85535
 H891 H 0.80135 0.84357 0.75080
 H892 H 0.69240 0.75038 0.64724
 H893 H 0.74971 0.89945 0.80315
 H894 H 0.74965 0.90317 0.70277
 H895 H 0.76329 0.59090 0.78896
 H896 H 0.73650 0.59464 0.70220
 N897 N 0.00383 -0.01724 0.23230
 N898 N 0.00444 0.01987 0.26411
 N899 N 0.26986 0.25172 1.02364
 N900 N 0.28650 0.25716 0.97911
 N901 N 0.13028 0.10339 0.10643
 N902 N 0.12297 0.13747 0.14108
 N903 N 0.37933 0.35519 0.13925
 N904 N 0.37152 0.39223 0.10895
 N905 N 0.38002 0.14034 0.14456
 N906 N 0.37246 0.10333 0.11382
 N907 N 0.12135 0.36068 0.14290
 N908 N 0.12906 0.39801 0.11279
 N909 N 0.37786 0.14719 0.36224
 N910 N 0.36974 0.11020 0.39263
 N911 N 0.11988 0.35975 0.35268
 N912 N 0.12751 0.39260 0.38827
 N913 N 0.12181 0.14391 0.35751
 N914 N 0.12990 0.11112 0.39315
 N915 N 0.37827 0.36167 0.35627
 N916 N 0.37083 0.39812 0.38763
 N917 N 0.50161 -0.01601 0.23455
 N918 N 0.49839 0.02093 0.26586
 N919 N 0.75361 0.26721 1.01708
 N920 N 0.75361 0.23023 0.98565
 N921 N 0.62958 0.10599 0.10447
 N922 N 0.62211 0.14039 0.13895
 N923 N -0.11964 0.35613 0.14322
 N924 N -0.12748 0.39109 0.10981
 N925 N 0.87182 0.10781 0.10971
 N926 N 0.87895 0.14277 0.14331
 N927 N 0.62211 0.36027 0.14162
 N928 N 0.63025 0.39369 0.10701
 N929 N -0.13804 0.13111 0.35366
 N930 N -0.12112 0.09124 0.36492
 N931 N 0.61981 0.36447 0.35374
 N932 N 0.62757 0.39738 0.38934
 N933 N 0.61808 0.14733 0.35864
 N934 N 0.62638 0.11514 0.39490
 N935 N -0.12230 0.35202 0.36646
 N936 N -0.13003 0.38702 0.39932
 N937 N -0.00010 0.51901 0.23476
 N938 N -0.00055 0.48170 0.26641
 N939 N 0.24769 0.76472 1.01465
 N940 N 0.25152 0.72785 0.98337
 N941 N 0.12681 0.61079 0.11015
 N942 N 0.11899 0.64442 0.14490
 N943 N 0.38493 0.87335 0.09799
 N944 N 0.36800 0.83299 0.10576
 N945 N 0.37659 0.64286 0.14005
 N946 N 0.36990 0.60687 0.10750
 N947 N 0.12884 0.89460 0.10511
 N948 N 0.11986 0.86238 0.14112
 N949 N 0.37828 0.64982 0.35856
 N950 N 0.37058 0.61346 0.39024
 N951 N 0.12202 -0.13260 0.35457
 N952 N 0.13030 -0.09788 0.38769
 N953 N 0.12110 0.64271 0.35811
 N954 N 0.12837 0.60584 0.38952
 N955 N 0.37964 -0.13709 0.35261
 N956 N 0.37194 -0.10272 0.38647
 N957 N 0.49785 0.48590 0.23407
 N958 N 0.49781 0.52299 0.26536
 N959 N 0.75759 0.76326 1.01499
 N960 N 0.75514 0.72653 0.98327
 N961 N 0.62833 0.61043 0.10728
 N962 N 0.62156 0.64453 0.14206
 N963 N 0.87439 0.88606 0.10483
 N964 N 0.88341 0.85197 0.13844
 N965 N 0.87043 0.61166 0.10467
 N966 N 0.87854 0.64447 0.14030
 N967 N 0.61865 0.87439 0.09057
 N968 N 0.63787 0.83643 0.10240
 N969 N -0.12295 0.64444 0.36373
 N970 N -0.13021 0.60813 0.39576
 N971 N 0.62176 -0.13169 0.35072
 N972 N 0.62882 -0.10091 0.38870
 N973 N 0.62006 0.65096 0.35804
 N974 N 0.62771 0.61729 0.39324
 N975 N -0.11941 -0.14116 0.35973
 N976 N -0.12706 -0.10494 0.39106
 N977 N 0.01228 0.00205 0.77156
 N978 N 0.02913 -0.00086 0.72695
 N979 N 0.24945 0.26583 0.48478
 N980 N 0.24840 0.22881 0.51706
 N981 N 0.12702 0.10418 0.61842
 N982 N 0.11934 0.13651 0.65452
 N983 N 0.37781 0.35505 0.63647
 N984 N 0.37033 0.39220 0.60552
 N985 N 0.37698 0.13942 0.64280
 N986 N 0.36890 0.10337 0.61152
 N987 N 0.12060 0.35565 0.64623
 N988 N 0.12818 0.39060 0.61254
 N989 N 0.36987 0.10366 0.89384
 N990 N 0.37901 0.13930 0.86159
 N991 N 0.13056 0.39463 0.89391
 N992 N 0.12353 0.36049 0.85953
 N993 N 0.11279 0.12387 0.90169
 N994 N 0.13005 0.16427 0.89409
 N995 N 0.37296 0.39190 0.88821
 N996 N 0.38095 0.35712 0.85503
 N997 N 0.49336 -0.02347 0.76610
 N998 N 0.49567 0.01366 0.73462
 N999 N 0.74719 0.26840 0.48551
 N1000 N 0.74761 0.23141 0.51738
 N1001 N 0.62660 0.10878 0.61016
 N1002 N 0.61841 0.13958 0.64741
 N1003 N -0.12265 0.35253 0.64097
 N1004 N -0.12988 0.38872 0.60899
 N1005 N 0.86916 0.10857 0.60497
 N1006 N 0.87665 0.14251 0.63917
 N1007 N 0.61986 0.35781 0.64396
 N1008 N 0.62708 0.39175 0.60858
 N1009 N 0.86842 0.10833 0.89699
 N1010 N 0.87710 0.14177 0.86242
 N1011 N 0.63027 0.38907 0.89617
 N1012 N 0.62230 0.35570 0.86132
 N1013 N 0.61160 0.11664 0.89930
 N1014 N 0.62679 0.15757 0.88775
 N1015 N 0.87200 0.38631 0.89574
 N1016 N 0.87913 0.35199 0.86143
 N1017 N 0.01613 0.49713 0.77394
 N1018 N 0.03203 0.50030 0.72863
 N1019 N 0.25181 0.77432 0.48291
 N1020 N 0.24978 0.73738 0.51473
 N1021 N 0.12763 0.60570 0.60907
 N1022 N 0.11960 0.64029 0.64256
 N1023 N 0.37044 0.89219 0.60768
 N1024 N 0.37778 0.85660 0.64056
 N1025 N 0.37735 0.64446 0.63780
 N1026 N 0.36946 0.60715 0.60831
 N1027 N 0.12792 0.89380 0.60972
 N1028 N 0.12042 0.85988 0.64458
 N1029 N 0.37136 0.60264 0.88821
 N1030 N 0.37882 0.63862 0.85605
 N1031 N 0.11238 0.87879 0.89379
 N1032 N 0.12709 0.83719 0.88425
 N1033 N 0.12825 0.60199 0.88593
 N1034 N 0.12024 0.63608 0.85188
 N1035 N 0.36836 0.88684 0.89426
 N1036 N 0.37708 0.85197 0.86141
 N1037 N 0.49891 0.47994 0.76567
 N1038 N 0.49701 0.51676 0.73373
 N1039 N 0.74974 0.77587 0.48308
 N1040 N 0.74917 0.73890 0.51493
 N1041 N 0.62736 0.61157 0.60820
 N1042 N 0.61934 0.64461 0.64329
 N1043 N 0.87056 0.89155 0.60326
 N1044 N 0.87792 0.85682 0.63728
 N1045 N 0.87060 0.60828 0.60450
 N1046 N 0.87814 0.64470 0.63559
 N1047 N 0.62788 0.89350 0.60872
 N1048 N 0.62089 0.86130 0.64570
 N1049 N 0.87111 0.60607 0.89009
 N1050 N 0.87937 0.64068 0.85659
 N1051 N 0.61387 0.87095 0.90267
 N1052 N 0.63125 0.83129 0.89185
 N1053 N 0.62864 0.60503 0.89008
 N1054 N 0.62108 0.63773 0.85421
 N1055 N 0.86987 0.88786 0.89367
 N1056 N 0.87879 0.85355 0.86011
   
