data_POSCAR
  _audit_creation_date              2014-09-24
  _audit_creation_method            'ToBaCCo'
  _symmetry_space_group_name_H-M    'P1'
  _symmetry_Int_Tables_number       1
  _symmetry_cell_setting            triclinic
  loop_
  _symmetry_equiv_pos_as_xyz
 x,y,z
_cell_length_a 45.9897
_cell_length_b 45.9650
_cell_length_c 46.0207
_cell_angle_alpha 89.968200
_cell_angle_beta 90.018300
_cell_angle_gamma 90.057200
loop_
  _atom_site_label
  _atom_site_type_symbol
  _atom_site_fract_x
  _atom_site_fract_y
  _atom_site_fract_z
C1 C 0.25033 0.27202 0.22770
 C2 C 0.27201 0.27188 0.20627
 C3 C 0.29349 0.25030 0.20633
 C4 C 0.29348 0.22868 0.22780
 C5 C 0.27196 0.22847 0.24939
 C6 C 0.25026 0.25023 0.24938
 C7 C 0.22871 0.29353 0.22786
 C8 C 0.20716 0.29344 0.24937
 C9 C 0.20703 0.27187 0.27088
 C10 C 0.22849 0.25019 0.27106
 C11 C 0.22859 0.22849 0.29250
 C12 C 0.25012 0.20695 0.29245
 C13 C 0.27171 0.20692 0.27099
 H14 H 0.27222 0.28852 0.18954
 H15 H 0.31022 0.21207 0.22765
 H16 H 0.22861 0.31034 0.21131
 H17 H 0.19024 0.27199 0.28743
 H18 H 0.21198 0.22831 0.30922
 H19 H 0.28828 0.19014 0.27115
 C20 C 0.74992 -0.27242 0.22806
 C21 C 0.72823 -0.27231 0.20662
 C22 C 0.70662 -0.25082 0.20672
 C23 C 0.70655 -0.22927 0.22827
 C24 C 0.72810 -0.22905 0.24985
 C25 C 0.74990 -0.25070 0.24979
 C26 C 0.77163 -0.29384 0.22817
 C27 C 0.79322 -0.29373 0.24969
 C28 C 0.79324 -0.27221 0.27126
 C29 C 0.77167 -0.25064 0.27147
 C30 C 0.77148 -0.22901 0.29296
 C31 C 0.74986 -0.20757 0.29296
 C32 C 0.72825 -0.20758 0.27150
 H33 H 0.72815 -0.28893 0.18987
 H34 H 0.68976 -0.21270 0.22823
 H35 H 0.77173 -0.31057 0.21154
 H36 H 0.81001 -0.27225 0.28785
 H37 H 0.78811 -0.22881 0.30969
 H38 H 0.71161 -0.19087 0.27170
 C39 C 0.74994 0.27264 0.77155
 C40 C 0.72831 0.27250 0.79304
 C41 C 0.70674 0.25093 0.79304
 C42 C 0.70666 0.22932 0.77155
 C43 C 0.72815 0.22912 0.74992
 C44 C 0.74990 0.25086 0.74988
 C45 C 0.77161 0.29414 0.77134
 C46 C 0.79315 0.29406 0.74978
 C47 C 0.79315 0.27247 0.72827
 C48 C 0.77163 0.25083 0.72816
 C49 C 0.77142 0.22913 0.70673
 C50 C 0.74985 0.20760 0.70684
 C51 C 0.72829 0.20758 0.72834
 H52 H 0.72825 0.28917 0.80974
 H53 H 0.68990 0.21267 0.77168
 H54 H 0.77173 0.31091 0.78793
 H55 H 0.80989 0.27253 0.71165
 H56 H 0.78801 0.22894 0.68998
 H57 H 0.71169 0.19081 0.72822
 C58 C 0.24936 -0.27223 0.77257
 C59 C 0.27103 -0.27205 0.79403
 C60 C 0.29259 -0.25050 0.79392
 C61 C 0.29267 -0.22896 0.77238
 C62 C 0.27116 -0.22880 0.75076
 C63 C 0.24938 -0.25052 0.75081
 C64 C 0.22768 -0.29373 0.77246
 C65 C 0.20612 -0.29370 0.75091
 C66 C 0.20610 -0.27217 0.72932
 C67 C 0.22764 -0.25053 0.72911
 C68 C 0.22784 -0.22890 0.70759
 C69 C 0.24944 -0.20740 0.70759
 C70 C 0.27101 -0.20733 0.72908
 H71 H 0.27117 -0.28863 0.81082
 H72 H 0.30947 -0.21238 0.77249
 H73 H 0.22758 -0.31046 0.78911
 H74 H 0.18935 -0.27226 0.71270
 H75 H 0.21124 -0.22876 0.69083
 H76 H 0.28764 -0.19058 0.72888
 C77 C 0.75028 -0.27250 0.77229
 C78 C 0.72867 -0.27237 0.79380
 C79 C 0.70715 -0.25083 0.79376
 C80 C 0.70703 -0.22927 0.77225
 C81 C 0.72847 -0.22906 0.75058
 C82 C 0.75022 -0.25076 0.75056
 C83 C 0.77193 -0.29397 0.77211
 C84 C 0.79343 -0.29388 0.75051
 C85 C 0.79342 -0.27233 0.72895
 C86 C 0.77191 -0.25072 0.72881
 C87 C 0.77167 -0.22907 0.70732
 C88 C 0.75009 -0.20759 0.70741
 C89 C 0.72858 -0.20756 0.72894
 H90 H 0.72856 -0.28897 0.81056
 H91 H 0.69025 -0.21270 0.77242
 H92 H 0.77207 -0.31072 0.78873
 H93 H 0.81013 -0.27239 0.71230
 H94 H 0.78822 -0.22888 0.69054
 H95 H 0.71197 -0.19082 0.72881
 C96 C 0.25010 0.27179 0.77127
 C97 C 0.27180 0.27168 0.79269
 C98 C 0.29333 0.25015 0.79259
 C99 C 0.29336 0.22857 0.77112
 C100 C 0.27182 0.22835 0.74954
 C101 C 0.25006 0.25004 0.74958
 C102 C 0.22843 0.29325 0.77113
 C103 C 0.20686 0.29313 0.74964
 C104 C 0.20676 0.27159 0.72812
 C105 C 0.22827 0.24998 0.72791
 C106 C 0.22840 0.22832 0.70646
 C107 C 0.24999 0.20684 0.70650
 C108 C 0.27161 0.20683 0.72794
 H109 H 0.27198 0.28829 0.80943
 H110 H 0.31015 0.21201 0.77125
 H111 H 0.22830 0.31003 0.78769
 H112 H 0.18994 0.27171 0.71158
 H113 H 0.21177 0.22812 0.68975
 H114 H 0.28822 0.19009 0.72776
 C115 C 0.24975 -0.27220 0.22713
 C116 C 0.27149 -0.27207 0.20575
 C117 C 0.29313 -0.25058 0.20595
 C118 C 0.29320 -0.22906 0.22751
 C119 C 0.27161 -0.22887 0.24904
 C120 C 0.24977 -0.25052 0.24889
 C121 C 0.22801 -0.29363 0.22716
 C122 C 0.20639 -0.29355 0.24862
 C123 C 0.20635 -0.27205 0.27021
 C124 C 0.22795 -0.25049 0.27051
 C125 C 0.22814 -0.22889 0.29203
 C126 C 0.24981 -0.20746 0.29211
 C127 C 0.27146 -0.20742 0.27071
 H128 H 0.27157 -0.28867 0.18899
 H129 H 0.31003 -0.21248 0.22754
 H130 H 0.22791 -0.31034 0.21051
 H131 H 0.18955 -0.27212 0.28677
 H132 H 0.21148 -0.22871 0.30871
 H133 H 0.28813 -0.19072 0.27098
 C134 C 0.75060 0.27276 0.22880
 C135 C 0.72901 0.27260 0.20727
 C136 C 0.70750 0.25101 0.20725
 C137 C 0.70737 0.22941 0.22873
 C138 C 0.72881 0.22923 0.25041
 C139 C 0.75055 0.25099 0.25049
 C140 C 0.77225 0.29428 0.22903
 C141 C 0.79374 0.29421 0.25064
 C142 C 0.79374 0.27263 0.27217
 C143 C 0.77223 0.25096 0.27226
 C144 C 0.77201 0.22926 0.29371
 C145 C 0.75044 0.20773 0.29356
 C146 C 0.72893 0.20769 0.27201
 H147 H 0.72889 0.28922 0.19052
 H148 H 0.69061 0.21279 0.22851
 H149 H 0.77238 0.31105 0.21242
 H150 H 0.81045 0.27270 0.28883
 H151 H 0.78856 0.22908 0.31050
 H152 H 0.71234 0.19090 0.27210
 O153 O 0.22579 0.02767 0.47128
 O154 O 0.22571 -0.02892 0.52792
 O155 O 0.22576 0.02770 0.52783
 O156 O 0.22577 -0.02896 0.47135
 O157 O 0.27386 -0.02894 0.47140
 O158 O 0.27386 0.02771 0.52788
 O159 O 0.27380 -0.02891 0.52797
 O160 O 0.27388 0.02769 0.47133
 Cu161 Cu 0.22090 -0.00063 0.49959
 Cu162 Cu 0.27871 -0.00061 0.49965
 C163 C 0.24985 0.03723 0.46175
 C164 C 0.24974 -0.03845 0.53752
 C165 C 0.24981 0.03727 0.53738
 C166 C 0.24982 -0.03850 0.46184
 O167 O 0.77396 0.02808 0.52846
 O168 O 0.77395 -0.02855 0.47191
 O169 O 0.77400 0.02808 0.47191
 O170 O 0.77393 -0.02855 0.52847
 O171 O 0.72584 -0.02857 0.52844
 O172 O 0.72591 0.02807 0.47187
 O173 O 0.72586 -0.02857 0.47187
 O174 O 0.72586 0.02806 0.52842
 Cu175 Cu 0.77882 -0.00024 0.50019
 Cu176 Cu 0.72100 -0.00026 0.50014
 C177 C 0.74991 0.03763 0.53797
 C178 C 0.74990 -0.03812 0.46235
 C179 C 0.74997 0.03764 0.46236
 C180 C 0.74988 -0.03811 0.53800
 O181 O 0.47270 0.22663 0.02764
 O182 O 0.52930 0.22679 -0.02891
 O183 O 0.52929 0.22677 0.02766
 O184 O 0.47271 0.22665 -0.02891
 O185 O 0.47263 0.27477 -0.02892
 O186 O 0.52922 0.27489 0.02765
 O187 O 0.52924 0.27490 -0.02892
 O188 O 0.47263 0.27475 0.02763
 Cu189 Cu 0.50101 0.22184 -0.00063
 Cu190 Cu 0.50093 0.27969 -0.00064
 C191 C 0.46311 0.25066 0.03718
 C192 C 0.53881 0.25087 -0.03847
 C193 C 0.53879 0.25085 0.03721
 C194 C 0.46312 0.25069 -0.03845
 O195 O 0.52847 0.77325 0.02930
 O196 O 0.47188 0.77337 -0.02731
 O197 O 0.47186 0.77334 0.02924
 O198 O 0.52847 0.77327 -0.02726
 O199 O 0.52834 0.72515 -0.02726
 O200 O 0.47173 0.72522 0.02924
 O201 O 0.47175 0.72526 -0.02731
 O202 O 0.52834 0.72513 0.02930
 Cu203 Cu 0.50018 0.77817 0.00100
 Cu204 Cu 0.50003 0.72032 0.00100
 C205 C 0.53796 0.74917 0.03885
 C206 C 0.46226 0.74934 -0.03686
 C207 C 0.46223 0.74929 0.03876
 C208 C 0.53795 0.74920 -0.03680
 O209 O 0.02796 0.47226 0.22538
 O210 O -0.02868 0.52881 0.22545
 O211 O 0.02792 0.52888 0.22515
 O212 O -0.02864 0.47218 0.22568
 O213 O -0.02836 0.47235 0.27374
 O214 O 0.02819 0.52905 0.27321
 O215 O -0.02841 0.52898 0.27351
 O216 O 0.02823 0.47243 0.27344
 Cu217 Cu -0.00039 0.50052 0.22056
 Cu218 Cu -0.00006 0.50072 0.27833
 C219 C 0.03765 0.46280 0.24939
 C220 C -0.03811 0.53843 0.24949
 C221 C 0.03761 0.53852 0.24909
 C222 C -0.03804 0.46270 0.24980
 O223 O 0.02789 0.52844 0.77443
 O224 O -0.02877 0.47180 0.77414
 O225 O 0.02783 0.47182 0.77419
 O226 O -0.02871 0.52843 0.77435
 O227 O -0.02867 0.52865 0.72629
 O228 O 0.02786 0.47204 0.72613
 O229 O -0.02873 0.47202 0.72608
 O230 O 0.02793 0.52866 0.72637
 Cu231 Cu -0.00044 0.50010 0.77914
 Cu232 Cu -0.00040 0.50037 0.72136
 C233 C 0.03747 0.53811 0.75045
 C234 C -0.03831 0.46235 0.75007
 C235 C 0.03739 0.46238 0.75013
 C236 C -0.03823 0.53808 0.75035
 C237 C 0.40019 0.25051 0.09997
 C238 C 0.37057 0.25331 0.09204
 C239 C 0.34869 0.25327 0.11386
 C240 C 0.35656 0.25042 0.14348
 C241 C 0.38619 0.24762 0.15140
 C242 C 0.40807 0.24768 0.12959
 C243 C 0.43753 0.24487 0.13804
 C244 C 0.44517 0.24208 0.16721
 C245 C 0.42378 0.24200 0.18854
 C246 C 0.39460 0.24473 0.18086
 C247 C 0.31924 0.25612 0.10539
 C248 C 0.31161 0.25889 0.07621
 C249 C 0.33300 0.25890 0.05488
 C250 C 0.36217 0.25615 0.06257
 C251 C 0.33421 0.25036 0.16576
 C252 C 0.31564 0.25032 0.18426
 C253 C 0.42253 0.25055 0.07769
 C254 C 0.44108 0.25060 0.05919
 H255 H 0.45496 0.24481 0.12225
 H256 H 0.46782 0.23996 0.17329
 H257 H 0.42983 0.23982 0.21117
 H258 H 0.37875 0.24455 0.19823
 H259 H 0.30181 0.25623 0.12119
 H260 H 0.28897 0.26104 0.07012
 H261 H 0.32696 0.26106 0.03224
 H262 H 0.37802 0.25629 0.04519
 C263 C 0.60096 0.74907 0.10161
 C264 C 0.59315 0.75218 0.13121
 C265 C 0.61507 0.75219 0.15300
 C266 C 0.64465 0.74907 0.14507
 C267 C 0.65245 0.74594 0.11547
 C268 C 0.63054 0.74595 0.09367
 C269 C 0.63886 0.74282 0.06423
 C270 C 0.66800 0.73975 0.05653
 C271 C 0.68942 0.73972 0.07784
 C272 C 0.68186 0.74277 0.10701
 C273 C 0.60673 0.75537 0.18244
 C274 C 0.57758 0.75841 0.19013
 C275 C 0.55616 0.75837 0.16882
 C276 C 0.56373 0.75530 0.13967
 C277 C 0.66704 0.74909 0.16734
 C278 C 0.68563 0.74913 0.18583
 C279 C 0.57858 0.74909 0.07934
 C280 C 0.56001 0.74912 0.06085
 H281 H 0.62299 0.74271 0.04686
 H282 H 0.67398 0.73738 0.03390
 H283 H 0.71202 0.73732 0.07175
 H284 H 0.69931 0.74261 0.12279
 H285 H 0.62261 0.75553 0.19980
 H286 H 0.57160 0.76080 0.21275
 H287 H 0.53354 0.76073 0.17490
 H288 H 0.54628 0.75541 0.12389
 C289 C 0.60157 0.25099 -0.10143
 C290 C 0.63119 0.25414 -0.09363
 C291 C 0.65299 0.25416 -0.11552
 C292 C 0.64504 0.25099 -0.14509
 C293 C 0.61541 0.24784 -0.15288
 C294 C 0.59361 0.24785 -0.13099
 C295 C 0.56414 0.24470 -0.13931
 C296 C 0.55642 0.24161 -0.16843
 C297 C 0.57774 0.24157 -0.18983
 C298 C 0.60693 0.24464 -0.18228
 C299 C 0.68246 0.25736 -0.10719
 C300 C 0.69016 0.26045 -0.07806
 C301 C 0.66885 0.26042 -0.05666
 C302 C 0.63967 0.25731 -0.06422
 C303 C 0.66732 0.25096 -0.16745
 C304 C 0.68583 0.25094 -0.18601
 C305 C 0.57931 0.25096 -0.07907
 C306 C 0.56081 0.25093 -0.06051
 H307 H 0.54677 0.24460 -0.12346
 H308 H 0.53377 0.23923 -0.17441
 H309 H 0.57163 0.23915 -0.21242
 H310 H 0.62271 0.24447 -0.19971
 H311 H 0.69982 0.25753 -0.12305
 H312 H 0.71280 0.26288 -0.07208
 H313 H 0.67495 0.26281 -0.03406
 H314 H 0.62389 0.25743 -0.04679
 C315 C 0.39932 0.74948 -0.09967
 C316 C 0.40718 0.75233 -0.12929
 C317 C 0.38529 0.75236 -0.15111
 C318 C 0.35567 0.74952 -0.14318
 C319 C 0.34781 0.74667 -0.11356
 C320 C 0.36970 0.74667 -0.09174
 C321 C 0.36131 0.74382 -0.06228
 C322 C 0.33214 0.74106 -0.05459
 C323 C 0.31074 0.74104 -0.07592
 C324 C 0.31835 0.74381 -0.10510
 C325 C 0.39369 0.75526 -0.18056
 C326 C 0.42287 0.75803 -0.18824
 C327 C 0.44427 0.75798 -0.16691
 C328 C 0.43665 0.75517 -0.13774
 C329 C 0.33331 0.74950 -0.16548
 C330 C 0.31474 0.74950 -0.18399
 C331 C 0.42167 0.74943 -0.07739
 C332 C 0.44022 0.74939 -0.05888
 H333 H 0.37716 0.74371 -0.04490
 H334 H 0.32611 0.73891 -0.03195
 H335 H 0.28810 0.73888 -0.06984
 H336 H 0.30092 0.74368 -0.12090
 H337 H 0.37783 0.75542 -0.19794
 H338 H 0.42891 0.76022 -0.21087
 H339 H 0.46692 0.76013 -0.17298
 H340 H 0.45408 0.75525 -0.12194
 C341 C 0.10058 0.39998 0.24936
 C342 C 0.09260 0.37024 0.25043
 C343 C 0.11446 0.34840 0.25044
 C344 C 0.14418 0.35643 0.24935
 C345 C 0.15216 0.38618 0.24827
 C346 C 0.13029 0.40802 0.24828
 C347 C 0.13880 0.43761 0.24720
 C348 C 0.16806 0.44541 0.24614
 C349 C 0.18944 0.42406 0.24611
 C350 C 0.18171 0.39475 0.24716
 C351 C 0.10595 0.31881 0.25155
 C352 C 0.07667 0.31103 0.25260
 C353 C 0.05529 0.33238 0.25258
 C354 C 0.06304 0.36168 0.25151
 C355 C 0.16652 0.33411 0.24935
 C356 C 0.18506 0.31558 0.24936
 C357 C 0.07825 0.42229 0.24935
 C358 C 0.05970 0.44080 0.24936
 H359 H 0.12297 0.45502 0.24717
 H360 H 0.17418 0.46815 0.24532
 H361 H 0.21215 0.43023 0.24528
 H362 H 0.19913 0.37894 0.24709
 H363 H 0.12178 0.30141 0.25161
 H364 H 0.07054 0.28830 0.25343
 H365 H 0.03258 0.32623 0.25339
 H366 H 0.04562 0.37749 0.25155
 C367 C 0.10049 0.60097 0.75079
 C368 C 0.13013 0.59298 0.75305
 C369 C 0.15204 0.61482 0.75314
 C370 C 0.14418 0.64452 0.75094
 C371 C 0.11453 0.65251 0.74868
 C372 C 0.09262 0.63067 0.74862
 C373 C 0.06313 0.63919 0.74637
 C374 C 0.05550 0.66844 0.74423
 C375 C 0.07692 0.68979 0.74427
 C376 C 0.10613 0.68205 0.74646
 C377 C 0.18152 0.60629 0.75545
 C378 C 0.18914 0.57703 0.75758
 C379 C 0.16772 0.55567 0.75748
 C380 C 0.13852 0.56343 0.75525
 C381 C 0.16657 0.66683 0.75095
 C382 C 0.18515 0.68536 0.75095
 C383 C 0.07811 0.57866 0.75067
 C384 C 0.05954 0.56014 0.75056
 H385 H 0.04568 0.62338 0.74624
 H386 H 0.03283 0.67456 0.74252
 H387 H 0.07088 0.71249 0.74259
 H388 H 0.12200 0.69944 0.74640
 H389 H 0.19897 0.62210 0.75563
 H390 H 0.21180 0.57089 0.75932
 H391 H 0.17375 0.53297 0.75913
 H392 H 0.12266 0.54603 0.75526
 C393 C -0.10111 0.60118 0.24956
 C394 C -0.09318 0.63095 0.25014
 C395 C -0.11509 0.65274 0.25016
 C396 C -0.14481 0.64464 0.24960
 C397 C -0.15273 0.61486 0.24902
 C398 C -0.13082 0.59307 0.24901
 C399 C -0.13927 0.56345 0.24845
 C400 C -0.16854 0.55558 0.24790
 C401 C -0.18996 0.57689 0.24789
 C402 C -0.18228 0.60622 0.24844
 C403 C -0.10663 0.68236 0.25076
 C404 C -0.07735 0.69021 0.25130
 C405 C -0.05593 0.66891 0.25126
 C406 C -0.06362 0.63958 0.25069
 C407 C -0.16719 0.66691 0.24961
 C408 C -0.18578 0.68539 0.24964
 C409 C -0.07873 0.57892 0.24954
 C410 C -0.06017 0.56043 0.24952
 H411 H -0.12341 0.54608 0.24842
 H412 H -0.17461 0.53282 0.24747
 H413 H -0.21266 0.57066 0.24746
 H414 H -0.19973 0.62199 0.24841
 H415 H -0.12249 0.69973 0.25082
 H416 H -0.07127 0.71297 0.25175
 H417 H -0.03322 0.67512 0.25168
 H418 H -0.04617 0.62381 0.25069
 C419 C -0.10129 0.39946 0.74981
 C420 C -0.13094 0.40742 0.75209
 C421 C -0.15283 0.38556 0.75207
 C422 C -0.14495 0.35587 0.74974
 C423 C -0.11529 0.34793 0.74743
 C424 C -0.09340 0.36978 0.74748
 C425 C -0.06390 0.36131 0.74518
 C426 C -0.05625 0.33207 0.74289
 C427 C -0.07765 0.31070 0.74282
 C428 C -0.10687 0.31841 0.74506
 C429 C -0.18232 0.39405 0.75440
 C430 C -0.18997 0.42329 0.75666
 C431 C -0.16856 0.44466 0.75666
 C432 C -0.13936 0.43694 0.75441
 C433 C -0.16731 0.33354 0.74974
 C434 C -0.18588 0.31500 0.74975
 C435 C -0.07893 0.42178 0.74988
 C436 C -0.06037 0.44031 0.74996
 H437 H -0.04647 0.37713 0.74513
 H438 H -0.03358 0.32598 0.74115
 H439 H -0.07160 0.28802 0.74103
 H440 H -0.12272 0.30100 0.74491
 H441 H -0.19976 0.37822 0.75449
 H442 H -0.21263 0.42939 0.75842
 H443 H -0.17461 0.46735 0.75842
 H444 H -0.12351 0.45436 0.75452
 C445 C 0.24991 0.10017 0.39888
 C446 C 0.25186 0.09224 0.36922
 C447 C 0.25190 0.11413 0.34739
 C448 C 0.24997 0.14382 0.35534
 C449 C 0.24800 0.15175 0.38501
 C450 C 0.24798 0.12986 0.40685
 C451 C 0.24602 0.13831 0.43636
 C452 C 0.24411 0.16756 0.44409
 C453 C 0.24411 0.18896 0.42274
 C454 C 0.24603 0.18128 0.39351
 C455 C 0.25389 0.10566 0.31788
 C456 C 0.25576 0.07640 0.31017
 C457 C 0.25571 0.05500 0.33152
 C458 C 0.25379 0.06270 0.36074
 C459 C 0.25001 0.16619 0.33304
 C460 C 0.25005 0.18477 0.31453
 C461 C 0.24989 0.07782 0.42119
 C462 C 0.24987 0.05927 0.43971
 H463 H 0.24593 0.12246 0.45375
 H464 H 0.24263 0.17363 0.46676
 H465 H 0.24262 0.21165 0.42885
 H466 H 0.24594 0.19872 0.37770
 H467 H 0.25401 0.12151 0.30049
 H468 H 0.25726 0.07032 0.28750
 H469 H 0.25716 0.03230 0.32542
 H470 H 0.25383 0.04526 0.37655
 C471 C 0.74988 0.10068 0.60066
 C472 C 0.74789 0.09280 0.63034
 C473 C 0.74785 0.11473 0.65211
 C474 C 0.74984 0.14441 0.64407
 C475 C 0.75184 0.15229 0.61438
 C476 C 0.75185 0.13036 0.59261
 C477 C 0.75385 0.13876 0.56308
 C478 C 0.75580 0.16799 0.55527
 C479 C 0.75580 0.18943 0.57655
 C480 C 0.75385 0.18180 0.60580
 C481 C 0.74582 0.10632 0.68164
 C482 C 0.74389 0.07707 0.68943
 C483 C 0.74394 0.05563 0.66815
 C484 C 0.74591 0.06328 0.63891
 C485 C 0.74982 0.16682 0.66632
 C486 C 0.74983 0.18542 0.68479
 C487 C 0.74990 0.07828 0.57842
 C488 C 0.74991 0.05970 0.55995
 H489 H 0.75394 0.12288 0.54573
 H490 H 0.75731 0.17403 0.53257
 H491 H 0.75732 0.21211 0.57038
 H492 H 0.75394 0.19927 0.62156
 H493 H 0.74569 0.12220 0.69899
 H494 H 0.74235 0.07103 0.71212
 H495 H 0.74244 0.03295 0.67431
 H496 H 0.74586 0.04581 0.62315
 C497 C 0.24963 -0.10115 0.60062
 C498 C 0.25161 -0.09307 0.63024
 C499 C 0.25158 -0.11485 0.65219
 C500 C 0.24955 -0.14458 0.64439
 C501 C 0.24754 -0.15266 0.61476
 C502 C 0.24759 -0.13088 0.59281
 C503 C 0.24559 -0.13949 0.56334
 C504 C 0.24358 -0.16877 0.55577
 C505 C 0.24351 -0.19006 0.57722
 C506 C 0.24546 -0.18223 0.60641
 C507 C 0.25361 -0.10623 0.68165
 C508 C 0.25558 -0.07694 0.68921
 C509 C 0.25560 -0.05565 0.66775
 C510 C 0.25364 -0.06349 0.63857
 C511 C 0.24951 -0.16683 0.66681
 C512 C 0.24948 -0.18532 0.68541
 C513 C 0.24967 -0.07891 0.57820
 C514 C 0.24971 -0.06044 0.55961
 H515 H 0.24556 -0.12372 0.54587
 H516 H 0.24207 -0.17496 0.53312
 H517 H 0.24194 -0.21277 0.57123
 H518 H 0.24532 -0.19958 0.62231
 H519 H 0.25368 -0.12199 0.69912
 H520 H 0.25711 -0.07073 0.71185
 H521 H 0.25713 -0.03292 0.67374
 H522 H 0.25374 -0.04614 0.62268
 C523 C 0.74988 -0.10102 0.39951
 C524 C 0.75191 -0.13071 0.40745
 C525 C 0.75191 -0.15257 0.38560
 C526 C 0.74986 -0.14460 0.35594
 C527 C 0.74782 -0.11490 0.34800
 C528 C 0.74784 -0.09304 0.36985
 C529 C 0.74580 -0.06349 0.36138
 C530 C 0.74379 -0.05576 0.33217
 C531 C 0.74376 -0.07712 0.31081
 C532 C 0.74574 -0.10639 0.31851
 C533 C 0.75399 -0.18210 0.39408
 C534 C 0.75598 -0.18983 0.42330
 C535 C 0.75596 -0.16846 0.44466
 C536 C 0.75396 -0.13921 0.43696
 C537 C 0.74984 -0.16693 0.33362
 C538 C 0.74984 -0.18546 0.31508
 C539 C 0.74988 -0.07869 0.42182
 C540 C 0.74989 -0.06016 0.44034
 H541 H 0.74574 -0.04608 0.37720
 H542 H 0.74226 -0.03305 0.32608
 H543 H 0.74219 -0.07100 0.28815
 H544 H 0.74562 -0.12221 0.30111
 H545 H 0.75409 -0.19951 0.37826
 H546 H 0.75755 -0.21252 0.42940
 H547 H 0.75751 -0.17457 0.46733
 H548 H 0.75403 -0.12339 0.45436
 C549 C 0.60077 0.74913 -0.09965
 C550 C 0.59283 0.75208 -0.12924
 C551 C 0.61466 0.75209 -0.15110
 C552 C 0.64428 0.74911 -0.14324
 C553 C 0.65221 0.74614 -0.11364
 C554 C 0.63038 0.74617 -0.09178
 C555 C 0.63883 0.74319 -0.06234
 C556 C 0.66801 0.74027 -0.05472
 C557 C 0.68935 0.74023 -0.07610
 C558 C 0.68167 0.74312 -0.10526
 C559 C 0.60620 0.75509 -0.18053
 C560 C 0.57701 0.75799 -0.18814
 C561 C 0.55567 0.75796 -0.16676
 C562 C 0.56336 0.75506 -0.13762
 C563 C 0.66657 0.74912 -0.16557
 C564 C 0.68508 0.74913 -0.18411
 C565 C 0.57848 0.74915 -0.07733
 C566 C 0.55997 0.74917 -0.05881
 H567 H 0.62302 0.74310 -0.04493
 H568 H 0.67408 0.73802 -0.03210
 H569 H 0.71198 0.73794 -0.07007
 H570 H 0.69906 0.74296 -0.12109
 H571 H 0.62201 0.75523 -0.19794
 H572 H 0.57093 0.76026 -0.21075
 H573 H 0.53302 0.76021 -0.17278
 H574 H 0.54597 0.75517 -0.12178
 C575 C 0.40014 0.25053 -0.10118
 C576 C 0.37054 0.25334 -0.09322
 C577 C 0.34863 0.25327 -0.11501
 C578 C 0.35647 0.25037 -0.14463
 C579 C 0.38607 0.24755 -0.15258
 C580 C 0.40798 0.24765 -0.13079
 C581 C 0.43744 0.24483 -0.13926
 C582 C 0.44503 0.24199 -0.16843
 C583 C 0.42361 0.24188 -0.18974
 C584 C 0.39444 0.24462 -0.18203
 C585 C 0.31919 0.25613 -0.10653
 C586 C 0.31161 0.25896 -0.07735
 C587 C 0.33303 0.25900 -0.05604
 C588 C 0.36219 0.25624 -0.06375
 C589 C 0.33409 0.25028 -0.16688
 C590 C 0.31551 0.25021 -0.18536
 C591 C 0.42251 0.25059 -0.07892
 C592 C 0.44107 0.25064 -0.06044
 H593 H 0.45489 0.24479 -0.12348
 H594 H 0.46767 0.23986 -0.17452
 H595 H 0.42962 0.23966 -0.21237
 H596 H 0.37856 0.24441 -0.19939
 H597 H 0.30174 0.25622 -0.12231
 H598 H 0.28898 0.26112 -0.07125
 H599 H 0.32703 0.26120 -0.03340
 H600 H 0.37806 0.25640 -0.04639
 C601 C 0.39908 0.74933 0.10128
 C602 C 0.40681 0.75232 0.13091
 C603 C 0.38482 0.75234 0.15262
 C604 C 0.35525 0.74935 0.14455
 C605 C 0.34753 0.74635 0.11491
 C606 C 0.36951 0.74636 0.09320
 C607 C 0.36127 0.74336 0.06371
 C608 C 0.33214 0.74043 0.05589
 C609 C 0.31065 0.74040 0.07711
 C610 C 0.31812 0.74331 0.10632
 C611 C 0.39308 0.75538 0.18210
 C612 C 0.42221 0.75830 0.18991
 C613 C 0.44371 0.75826 0.16869
 C614 C 0.43622 0.75531 0.13949
 C615 C 0.33280 0.74936 0.16672
 C616 C 0.31417 0.74939 0.18514
 C617 C 0.42152 0.74932 0.07911
 C618 C 0.44013 0.74931 0.06069
 H619 H 0.37719 0.74325 0.04641
 H620 H 0.32622 0.73816 0.03323
 H621 H 0.28805 0.73810 0.07093
 H622 H 0.30063 0.74316 0.12203
 H623 H 0.37714 0.75554 0.19939
 H624 H 0.42814 0.76060 0.21256
 H625 H 0.46632 0.76052 0.17487
 H626 H 0.45372 0.75541 0.12378
 C627 C 0.60142 0.25097 0.10029
 C628 C 0.63106 0.25402 0.09255
 C629 C 0.65281 0.25405 0.11450
 C630 C 0.64478 0.25100 0.14405
 C631 C 0.61513 0.24794 0.15178
 C632 C 0.59338 0.24794 0.12983
 C633 C 0.56388 0.24488 0.13809
 C634 C 0.55609 0.24190 0.16720
 C635 C 0.57736 0.24188 0.18866
 C636 C 0.60658 0.24486 0.18117
 C637 C 0.68230 0.25715 0.10623
 C638 C 0.69008 0.26012 0.07711
 C639 C 0.66881 0.26007 0.05565
 C640 C 0.63961 0.25707 0.06315
 C641 C 0.66700 0.25100 0.16647
 C642 C 0.68546 0.25100 0.18507
 C643 C 0.57921 0.25093 0.07788
 C644 C 0.56075 0.25090 0.05928
 H645 H 0.54655 0.24476 0.12218
 H646 H 0.53343 0.23958 0.17312
 H647 H 0.57120 0.23955 0.21124
 H648 H 0.62232 0.24471 0.19865
 H649 H 0.69963 0.25732 0.12214
 H650 H 0.71273 0.26247 0.07118
 H651 H 0.67496 0.26238 0.03306
 H652 H 0.62386 0.25716 0.04567
 C653 C -0.10112 0.60090 0.75048
 C654 C -0.09319 0.63060 0.74838
 C655 C -0.11506 0.65242 0.74837
 C656 C -0.14473 0.64441 0.75049
 C657 C -0.15265 0.61470 0.75261
 C658 C -0.13077 0.59288 0.75259
 C659 C -0.13922 0.56332 0.75470
 C660 C -0.16843 0.55555 0.75679
 C661 C -0.18982 0.57689 0.75682
 C662 C -0.18215 0.60616 0.75477
 C663 C -0.10661 0.68197 0.74622
 C664 C -0.07738 0.68973 0.74416
 C665 C -0.05599 0.66839 0.74419
 C666 C -0.06367 0.63913 0.74626
 C667 C -0.16707 0.66670 0.75048
 C668 C -0.18562 0.68521 0.75049
 C669 C -0.07878 0.57861 0.75045
 C670 C -0.06025 0.56010 0.75041
 H671 H -0.12337 0.54593 0.75477
 H672 H -0.17450 0.53284 0.75838
 H673 H -0.21249 0.57074 0.75845
 H674 H -0.19958 0.62196 0.75489
 H675 H -0.12246 0.69936 0.74611
 H676 H -0.07131 0.71243 0.74254
 H677 H -0.03331 0.67453 0.74259
 H678 H -0.04625 0.62333 0.74619
 C679 C -0.10088 0.39972 0.25038
 C680 C -0.13060 0.40769 0.24964
 C681 C -0.15245 0.38580 0.24975
 C682 C -0.14445 0.35607 0.25064
 C683 C -0.11472 0.34810 0.25143
 C684 C -0.09287 0.36999 0.25129
 C685 C -0.06329 0.36150 0.25206
 C686 C -0.05552 0.33222 0.25295
 C687 C -0.07689 0.31081 0.25310
 C688 C -0.10618 0.31853 0.25235
 C689 C -0.18202 0.39431 0.24897
 C690 C -0.18977 0.42360 0.24811
 C691 C -0.16841 0.44500 0.24801
 C692 C -0.13913 0.43727 0.24876
 C693 C -0.16677 0.33371 0.25068
 C694 C -0.18531 0.31515 0.25068
 C695 C -0.07857 0.42207 0.25019
 C696 C -0.06005 0.44063 0.25001
 H697 H -0.04588 0.37736 0.25199
 H698 H -0.03280 0.32612 0.25353
 H699 H -0.07075 0.28810 0.25379
 H700 H -0.12200 0.30109 0.25250
 H701 H -0.19943 0.37846 0.24901
 H702 H -0.21249 0.42971 0.24752
 H703 H -0.17454 0.46773 0.24735
 H704 H -0.12330 0.45471 0.24865
 C705 C 0.10025 0.39954 0.74993
 C706 C 0.09231 0.36987 0.74755
 C707 C 0.11418 0.34803 0.74746
 C708 C 0.14384 0.35601 0.74978
 C709 C 0.15177 0.38570 0.75217
 C710 C 0.12990 0.40753 0.75223
 C711 C 0.13835 0.43706 0.75462
 C712 C 0.16756 0.44481 0.75689
 C713 C 0.18894 0.42346 0.75685
 C714 C 0.18127 0.39421 0.75453
 C715 C 0.10573 0.31851 0.74503
 C716 C 0.07650 0.31078 0.74277
 C717 C 0.05512 0.33213 0.74287
 C718 C 0.06281 0.36137 0.74522
 C719 C 0.16617 0.33371 0.74972
 C720 C 0.18472 0.31520 0.74967
 C721 C 0.07792 0.42184 0.74999
 C722 C 0.05940 0.44035 0.75006
 H723 H 0.12251 0.45446 0.75476
 H724 H 0.17363 0.46750 0.75870
 H725 H 0.21161 0.42958 0.75863
 H726 H 0.19868 0.37840 0.75459
 H727 H 0.12156 0.30112 0.74485
 H728 H 0.07042 0.28810 0.74093
 H729 H 0.03244 0.32602 0.74112
 H730 H 0.04539 0.37717 0.74520
 C731 C 0.10063 0.60132 0.24858
 C732 C 0.13031 0.59323 0.24764
 C733 C 0.15225 0.61504 0.24756
 C734 C 0.14436 0.64480 0.24844
 C735 C 0.11466 0.65289 0.24935
 C736 C 0.09273 0.63108 0.24941
 C737 C 0.06319 0.63968 0.25032
 C738 C 0.05554 0.66899 0.25115
 C739 C 0.07699 0.69032 0.25111
 C740 C 0.10624 0.68249 0.25022
 C741 C 0.18178 0.60643 0.24660
 C742 C 0.18941 0.57710 0.24576
 C743 C 0.16797 0.55578 0.24586
 C744 C 0.13872 0.56362 0.24678
 C745 C 0.16676 0.66707 0.24847
 C746 C 0.18537 0.68557 0.24852
 C747 C 0.07824 0.57905 0.24874
 C748 C 0.05966 0.56055 0.24889
 H749 H 0.04572 0.62389 0.25040
 H750 H 0.03284 0.67518 0.25184
 H751 H 0.07094 0.71306 0.25176
 H752 H 0.12213 0.69987 0.25023
 H753 H 0.19925 0.62221 0.24649
 H754 H 0.21210 0.57090 0.24504
 H755 H 0.17401 0.53303 0.24521
 H756 H 0.12283 0.54624 0.24681
 C757 C 0.74988 -0.10101 0.60086
 C758 C 0.75193 -0.13069 0.59293
 C759 C 0.75197 -0.15255 0.61478
 C760 C 0.74994 -0.14459 0.64444
 C761 C 0.74788 -0.11490 0.65236
 C762 C 0.74786 -0.09304 0.63051
 C763 C 0.74580 -0.06350 0.63895
 C764 C 0.74381 -0.05578 0.66816
 C765 C 0.74381 -0.07715 0.68953
 C766 C 0.74582 -0.10641 0.68185
 C767 C 0.75407 -0.18208 0.60632
 C768 C 0.75605 -0.18979 0.57710
 C769 C 0.75599 -0.16842 0.55573
 C770 C 0.75396 -0.13917 0.56342
 C771 C 0.74998 -0.16693 0.66676
 C772 C 0.75002 -0.18547 0.68529
 C773 C 0.74986 -0.07868 0.57855
 C774 C 0.74986 -0.06015 0.56002
 H775 H 0.74570 -0.04608 0.62313
 H776 H 0.74225 -0.03308 0.67423
 H777 H 0.74225 -0.07105 0.71219
 H778 H 0.74573 -0.12224 0.69927
 H779 H 0.75421 -0.19950 0.62215
 H780 H 0.75763 -0.21248 0.57102
 H781 H 0.75752 -0.17451 0.53306
 H782 H 0.75400 -0.12334 0.54601
 C783 C 0.24984 -0.10124 0.39889
 C784 C 0.24779 -0.13095 0.40675
 C785 C 0.24778 -0.15274 0.38484
 C786 C 0.24986 -0.14467 0.35521
 C787 C 0.25193 -0.11494 0.34736
 C788 C 0.25191 -0.09316 0.36927
 C789 C 0.25399 -0.06358 0.36090
 C790 C 0.25603 -0.05575 0.33171
 C791 C 0.25606 -0.07706 0.31029
 C792 C 0.25405 -0.10634 0.31789
 C793 C 0.24568 -0.18230 0.39323
 C794 C 0.24367 -0.19012 0.42242
 C795 C 0.24369 -0.16882 0.44385
 C796 C 0.24572 -0.13954 0.43623
 C797 C 0.24984 -0.16692 0.33283
 C798 C 0.24982 -0.18540 0.31426
 C799 C 0.24983 -0.07899 0.42126
 C800 C 0.24982 -0.06050 0.43981
 H801 H 0.25405 -0.04622 0.37677
 H802 H 0.25759 -0.03303 0.32570
 H803 H 0.25766 -0.07087 0.28765
 H804 H 0.25416 -0.12211 0.30044
 H805 H 0.24558 -0.19966 0.37736
 H806 H 0.24208 -0.21284 0.42845
 H807 H 0.24212 -0.17500 0.46650
 H808 H 0.24564 -0.12377 0.45368
 C809 C 0.75011 0.10074 0.39970
 C810 C 0.74816 0.09289 0.37002
 C811 C 0.74823 0.11485 0.34825
 C812 C 0.75027 0.14451 0.35631
 C813 C 0.75222 0.15235 0.38601
 C814 C 0.75213 0.13040 0.40777
 C815 C 0.75408 0.13876 0.43731
 C816 C 0.75608 0.16797 0.44513
 C817 C 0.75618 0.18944 0.42385
 C818 C 0.75428 0.18185 0.39460
 C819 C 0.74624 0.10647 0.31872
 C820 C 0.74426 0.07725 0.31091
 C821 C 0.74421 0.05578 0.33220
 C822 C 0.74613 0.06338 0.36144
 C823 C 0.75034 0.16693 0.33408
 C824 C 0.75039 0.18554 0.31561
 C825 C 0.75004 0.07832 0.42193
 C826 C 0.75000 0.05972 0.44039
 H827 H 0.75409 0.12285 0.45466
 H828 H 0.75755 0.17398 0.46783
 H829 H 0.75774 0.21211 0.43003
 H830 H 0.75445 0.19933 0.37884
 H831 H 0.74619 0.12238 0.30138
 H832 H 0.74276 0.07123 0.28822
 H833 H 0.74268 0.03310 0.32602
 H834 H 0.74601 0.04590 0.37720
 C835 C 0.24987 0.10020 0.60013
 C836 C 0.25181 0.09224 0.62980
 C837 C 0.25185 0.11411 0.65162
 C838 C 0.24992 0.14381 0.64364
 C839 C 0.24798 0.15176 0.61396
 C840 C 0.24797 0.12989 0.59214
 C841 C 0.24603 0.13836 0.56262
 C842 C 0.24415 0.16761 0.55488
 C843 C 0.24415 0.18900 0.57622
 C844 C 0.24603 0.18130 0.60545
 C845 C 0.25382 0.10563 0.68113
 C846 C 0.25569 0.07637 0.68886
 C847 C 0.25564 0.05498 0.66752
 C848 C 0.25373 0.06269 0.63830
 C849 C 0.24993 0.16615 0.66592
 C850 C 0.24995 0.18470 0.68443
 C851 C 0.24983 0.07786 0.57785
 C852 C 0.24981 0.05932 0.55936
 H853 H 0.24595 0.12252 0.54524
 H854 H 0.24269 0.17370 0.53220
 H855 H 0.24268 0.21169 0.57009
 H856 H 0.24595 0.19872 0.62125
 H857 H 0.25395 0.12147 0.69851
 H858 H 0.25719 0.07027 0.71153
 H859 H 0.25709 0.03228 0.67363
 H860 H 0.25377 0.04527 0.62250
   
