data_POSCAR
  _audit_creation_date              2014-09-24
  _audit_creation_method            'ToBaCCo'
  _symmetry_space_group_name_H-M    'P1'
  _symmetry_Int_Tables_number       1
  _symmetry_cell_setting            triclinic
  loop_
  _symmetry_equiv_pos_as_xyz
 x,y,z
_cell_length_a 26.3875
_cell_length_b 26.0093
_cell_length_c 26.0607
_cell_angle_alpha 101.466800
_cell_angle_beta 83.647300
_cell_angle_gamma 96.813100
loop_
  _atom_site_label
  _atom_site_type_symbol
  _atom_site_fract_x
  _atom_site_fract_y
  _atom_site_fract_z
O1 O 0.56528 0.48735 0.04745
 O2 O 0.43103 0.47493 0.01554
 O3 O 0.49428 0.41121 0.03227
 O4 O 0.50389 0.55348 0.03234
 O5 O 0.52965 0.53818 -0.05245
 O6 O 0.51705 0.39541 -0.05312
 O7 O 0.45751 0.46399 -0.06879
 O8 O 0.59097 0.47222 -0.03728
 Cu9 Cu 0.49578 0.48340 0.04037
 Cu10 Cu 0.52648 0.46558 -0.06141
 C11 C 0.60093 0.48120 0.01046
 C12 C 0.42136 0.46861 -0.03221
 C13 C 0.50451 0.37917 -0.01014
 C14 C 0.51822 0.56998 -0.01019
 O15 O 0.00436 0.58792 0.50724
 O16 O 0.02016 0.44600 0.48775
 O17 O 0.00616 0.51183 0.42800
 O18 O 0.02220 0.52338 0.56862
 O19 O -0.06097 0.50420 0.58490
 O20 O -0.07741 0.49545 0.44478
 O21 O -0.06338 0.42927 0.50401
 O22 O -0.07836 0.57072 0.52783
 Cu23 Cu 0.02166 0.51908 0.49659
 Cu24 Cu -0.07838 0.49834 0.51689
 C25 C -0.03997 0.60355 0.52021
 C26 C -0.01912 0.41341 0.49302
 C27 C -0.03852 0.50248 0.41253
 C28 C -0.01635 0.51452 0.60062
 O29 O 0.51340 0.05541 0.59379
 O30 O 0.52125 0.06943 0.45518
 O31 O 0.45037 0.07983 0.53380
 O32 O 0.58401 0.04741 0.51656
 O33 O 0.55757 -0.03682 0.49223
 O34 O 0.42404 -0.00450 0.51043
 O35 O 0.49352 -0.01465 0.43227
 O36 O 0.48618 -0.02860 0.57049
 Cu37 Cu 0.51983 0.07155 0.52705
 Cu38 Cu 0.48777 -0.02964 0.49916
 C39 C 0.49864 0.01068 0.60590
 C40 C 0.50841 0.02994 0.42012
 C41 C 0.41433 0.04318 0.52478
 C42 C 0.59362 -0.00023 0.50171
 C43 C 0.49583 -0.12917 -0.11381
 C44 C 0.48688 -0.07872 -0.11943
 C45 C 0.48328 -0.03899 -0.07452
 C46 C 0.49155 -0.04802 -0.02456
 C47 C 0.49810 -0.10014 -0.01993
 C48 C 0.49817 -0.14141 -0.06412
 C49 C 0.49256 -0.00303 0.02191
 C50 C 0.48400 -0.01174 0.07418
 C51 C 0.48562 0.03063 0.11711
 C52 C 0.49164 0.08224 0.10760
 C53 C 0.50154 0.09243 0.05647
 C54 C 0.50342 0.04964 0.01415
 H55 H 0.50078 -0.15938 -0.14859
 H56 H 0.47307 -0.00119 -0.07892
 H57 H 0.50258 -0.10924 0.01776
 H58 H 0.47685 -0.05119 0.08217
 H59 H 0.48870 0.11478 0.14056
 H60 H 0.51462 0.05796 -0.02472
 C61 C -0.08868 0.52322 1.09624
 C62 C -0.09852 0.51255 1.04318
 C63 C -0.05709 0.50521 1.00454
 C64 C -0.00599 0.51139 1.01793
 C65 C 0.00235 0.52122 1.07180
 C66 C -0.03893 0.52486 1.11101
 C67 C 0.03765 0.50544 0.97540
 C68 C 0.08521 0.49051 0.98433
 C69 C 0.12526 0.48234 0.94370
 C70 C 0.11518 0.48616 0.89262
 C71 C 0.06949 0.50384 0.88318
 C72 C 0.03173 0.51461 0.92503
 H73 H -0.11992 0.53020 1.12655
 H74 H -0.06518 0.49322 0.96390
 H75 H 0.04065 0.52510 1.08380
 H76 H 0.09103 0.48543 1.02305
 H77 H 0.14257 0.47506 0.85945
 H78 H -0.00220 0.53086 0.91809
 C79 C -0.09937 -0.08368 0.50344
 C80 C -0.04897 -0.09739 0.49969
 C81 C -0.00819 -0.05759 0.49734
 C82 C -0.01683 -0.00439 0.50115
 C83 C -0.06792 0.00815 0.50696
 C84 C -0.10930 -0.03117 0.50713
 C85 C 0.02729 0.03768 0.49903
 C86 C 0.02153 0.08524 0.48309
 C87 C 0.06219 0.12546 0.48281
 C88 C 0.11085 0.11558 0.49335
 C89 C 0.11836 0.06751 0.50662
 C90 C 0.07592 0.03043 0.51234
 H91 H -0.13123 -0.11389 0.50387
 H92 H 0.03043 -0.06838 0.49286
 H93 H -0.07601 0.04857 0.51114
 H94 H -0.01444 0.09137 0.47023
 H95 H 0.14296 0.14527 0.49115
 H96 H 0.08155 -0.00410 0.52735
 C97 C -0.33540 0.46855 1.06959
 C98 C -0.34566 0.48363 1.02325
 C99 C -0.30469 0.50044 0.98923
 C100 C -0.25394 0.50285 1.00181
 C101 C -0.24404 0.48671 1.04809
 C102 C -0.28501 0.46948 1.08162
 C103 C -0.19341 0.48852 1.06046
 C104 C -0.15214 0.50826 1.02835
 C105 C -0.16264 0.52477 0.98265
 C106 C -0.21294 0.52158 0.96925
 H107 H -0.31236 0.51253 0.95359
 H108 H -0.27811 0.45714 1.11737
 H109 H -0.18637 0.47438 1.09516
 H110 H -0.21981 0.53455 0.93382
 H111 H -0.36643 0.45515 1.09614
 H112 H -0.13205 0.54108 0.95755
 C113 C 0.36211 0.47777 0.90558
 C114 C 0.37092 0.46835 0.95511
 C115 C 0.32848 0.46060 0.99169
 C116 C 0.27838 0.46258 0.97894
 C117 C 0.27072 0.47579 0.93066
 C118 C 0.31277 0.48282 0.89406
 C119 C 0.22128 0.48228 0.91970
 C120 C 0.17789 0.47226 0.95465
 C121 C 0.18618 0.45514 1.00101
 C122 C 0.23575 0.45167 1.01353
 H123 H 0.33423 0.45208 1.02960
 H124 H 0.30751 0.49220 0.85642
 H125 H 0.21763 0.49662 0.88426
 H126 H 0.24068 0.43998 1.05019
 H127 H 0.39366 0.48388 0.87638
 H128 H 0.15481 0.44441 1.02833
 C129 C -0.09307 -0.32341 0.54875
 C130 C -0.04703 -0.34305 0.52448
 C131 C -0.00952 -0.30890 0.50184
 C132 C -0.01891 -0.25700 0.50129
 C133 C -0.06475 -0.23762 0.52676
 C134 C -0.10130 -0.27095 0.55092
 C135 C -0.07379 -0.18552 0.52693
 C136 C -0.03894 -0.15289 0.49948
 C137 C 0.00579 -0.17356 0.47266
 C138 C 0.01612 -0.22461 0.47441
 H139 H 0.02582 -0.32337 0.48209
 H140 H -0.13685 -0.25683 0.57036
 H141 H -0.10800 -0.17060 0.54882
 H142 H 0.05106 -0.23914 0.45376
 H143 H -0.12272 -0.34845 0.56668
 H144 H 0.03285 -0.15067 0.44968
 C145 C -0.05313 0.32428 0.51036
 C146 C -0.01342 0.35680 0.48882
 C147 C 0.03231 0.33546 0.46638
 C148 C 0.03875 0.28268 0.46688
 C149 C -0.00076 0.25115 0.49055
 C150 C -0.04678 0.27207 0.51147
 C151 C 0.00676 0.19963 0.49424
 C152 C 0.05313 0.17843 0.47401
 C153 C 0.09139 0.20945 0.44848
 C154 C 0.08437 0.26114 0.44521
 H155 H 0.06308 0.36005 0.44934
 H156 H -0.07757 0.24831 0.52950
 H157 H -0.02293 0.17685 0.51478
 H158 H 0.11488 0.28447 0.42630
 H159 H -0.08870 0.33969 0.52798
 H160 H 0.12703 0.19399 0.43134
 C161 C 0.51676 0.04519 -0.30285
 C162 C 0.49685 0.00429 -0.34164
 C163 C 0.47617 -0.04379 -0.32711
 C164 C 0.47638 -0.05129 -0.27537
 C165 C 0.49834 -0.01072 -0.23741
 C166 C 0.51794 0.03755 -0.25142
 C167 C 0.50102 -0.01941 -0.18635
 C168 C 0.48127 -0.06799 -0.17245
 C169 C 0.45746 -0.10711 -0.21014
 C170 C 0.45544 -0.09902 -0.26115
 H171 H 0.45994 -0.07565 -0.35600
 H172 H 0.53456 0.06928 -0.22271
 H173 H 0.51977 0.01110 -0.15802
 H174 H 0.43773 -0.13027 -0.28957
 H175 H 0.53279 0.08280 -0.31243
 H176 H 0.44048 -0.14430 -0.20031
 C177 C 0.54160 0.07799 0.34744
 C178 C 0.51046 0.03602 0.36477
 C179 C 0.48082 0.00040 0.32907
 C180 C 0.48181 0.00707 0.27678
 C181 C 0.51366 0.04917 0.25980
 C182 C 0.54354 0.08424 0.29529
 C183 C 0.51497 0.05583 0.20768
 C184 C 0.48384 0.02193 0.17209
 C185 C 0.45209 -0.01978 0.18942
 C186 C 0.45127 -0.02729 0.24125
 H187 H 0.45631 -0.03186 0.34219
 H188 H 0.56809 0.11679 0.28284
 H189 H 0.54064 0.08743 0.19477
 H190 H 0.42639 -0.05965 0.25366
 H191 H 0.56484 0.10578 0.37416
 H192 H 0.42734 -0.04619 0.16318
 C193 C 0.54270 -0.33481 0.02661
 C194 C 0.51962 -0.37365 -0.01156
 C195 C 0.49695 -0.35865 -0.05170
 C196 C 0.49693 -0.30530 -0.05379
 C197 C 0.52166 -0.26613 -0.01648
 C198 C 0.54445 -0.28137 0.02370
 C199 C 0.52288 -0.21262 -0.01995
 C200 C 0.49813 -0.19779 -0.05931
 C201 C 0.47177 -0.23763 -0.09450
 C202 C 0.47195 -0.29063 -0.09236
 H203 H 0.47832 -0.38864 -0.08068
 H204 H 0.56323 -0.25202 0.05300
 H205 H 0.54345 -0.18297 0.00761
 H206 H 0.45190 -0.32016 -0.12054
 H207 H 0.56021 -0.34592 0.05794
 H208 H 0.45031 -0.22801 -0.12378
 C209 C 0.48284 0.28377 -0.04829
 C210 C 0.50308 0.32280 -0.00843
 C211 C 0.52168 0.30798 0.03431
 C212 C 0.51943 0.25474 0.03788
 C213 C 0.49700 0.21559 -0.00108
 C214 C 0.47924 0.23050 -0.04433
 C215 C 0.49208 0.16247 0.00439
 C216 C 0.51013 0.14795 0.04793
 C217 C 0.53482 0.18732 0.08475
 C218 C 0.53891 0.24014 0.08010
 H219 H 0.53816 0.33803 0.06471
 H220 H 0.46231 0.20105 -0.07485
 H221 H 0.47286 0.13285 -0.02436
 H222 H 0.55709 0.26963 0.10974
 H223 H 0.46852 0.29463 -0.08163
 H224 H 0.55078 0.17742 0.11763
 C225 C -0.33873 -0.06047 0.46428
 C226 C -0.35278 -0.01316 0.49609
 C227 C -0.31543 0.02148 0.52332
 C228 C -0.26476 0.00878 0.51933
 C229 C -0.25087 -0.03861 0.48678
 C230 C -0.28810 -0.07288 0.45928
 C231 C -0.20010 -0.05110 0.48251
 C232 C -0.16302 -0.01744 0.51128
 C233 C -0.17762 0.02929 0.54407
 C234 C -0.22786 0.04245 0.54775
 H235 H -0.32599 0.05783 0.54841
 H236 H -0.27815 -0.10946 0.43425
 H237 H -0.18946 -0.08685 0.45642
 H238 H -0.23797 0.07872 0.57327
 H239 H -0.36685 -0.08771 0.44289
 H240 H -0.15034 0.05549 0.56753
 C241 C 0.34770 0.10723 0.55090
 C242 C 0.36061 0.05588 0.52971
 C243 C 0.32197 0.01673 0.51132
 C244 C 0.27149 0.02884 0.51262
 C245 C 0.25888 0.08066 0.53343
 C246 C 0.29719 0.11944 0.55303
 C247 C 0.20848 0.09297 0.53322
 C248 C 0.17076 0.05430 0.51149
 C249 C 0.18399 0.00281 0.49135
 C250 C 0.23368 -0.00987 0.49226
 H251 H 0.33135 -0.02300 0.49468
 H252 H 0.28829 0.15939 0.56917
 H253 H 0.19886 0.13265 0.54950
 H254 H 0.24280 -0.04972 0.47591
 H255 H 0.37673 0.13809 0.56548
 H256 H 0.15621 -0.02756 0.47338
 C257 C -0.08930 0.47357 1.33453
 C258 C -0.04536 0.50082 1.35670
 C259 C -0.00852 0.52767 1.32553
 C260 C -0.01577 0.52772 1.27296
 C261 C -0.05982 0.49961 1.25097
 C262 C -0.09626 0.47255 1.28198
 C263 C -0.06684 0.49902 1.19834
 C264 C -0.03103 0.52709 1.16720
 C265 C 0.01238 0.55551 1.18976
 C266 C 0.02005 0.55561 1.24207
 H267 H 0.02524 0.54936 1.34246
 H268 H -0.13032 0.45091 1.26570
 H269 H -0.09998 0.47593 1.18144
 H270 H 0.05388 0.57772 1.25842
 H271 H -0.11814 0.45264 1.35778
 H272 H 0.04027 0.57803 1.16714
 C273 C -0.05060 0.49686 0.68963
 C274 C -0.00926 0.51410 0.65619
 C275 C 0.03925 0.52791 0.67546
 C276 C 0.04656 0.52343 0.72693
 C277 C 0.00494 0.50484 0.75964
 C278 C -0.04356 0.49217 0.74077
 C279 C 0.01257 0.49861 0.81043
 C280 C 0.06129 0.51119 0.82948
 C281 C 0.10217 0.53066 0.79684
 C282 C 0.09493 0.53652 0.74606
 H283 H 0.07148 0.54134 0.65022
 H284 H -0.07596 0.47805 0.76537
 H285 H -0.01926 0.48294 0.83468
 H286 H 0.12723 0.55120 0.72171
 H287 H -0.08835 0.48584 0.67591
 H288 H 0.13985 0.54175 0.81069
   
