data_POSCAR
  _audit_creation_date              2014-09-24
  _audit_creation_method            'ToBaCCo'
  _symmetry_space_group_name_H-M    'P1'
  _symmetry_Int_Tables_number       1
  _symmetry_cell_setting            triclinic
  loop_
  _symmetry_equiv_pos_as_xyz
 x,y,z
_cell_length_a 45.4794
_cell_length_b 45.0895
_cell_length_c 43.8554
_cell_angle_alpha 90.040700
_cell_angle_beta 89.488200
_cell_angle_gamma 90.409500
loop_
  _atom_site_label
  _atom_site_type_symbol
  _atom_site_fract_x
  _atom_site_fract_y
  _atom_site_fract_z
C1 C 0.29293 0.29064 0.23872
 H2 H 0.29297 0.29343 0.26323
 C3 C 0.31139 0.30810 0.22044
 H4 H 0.32530 0.32464 0.23108
 C5 C 0.27425 0.26593 0.19523
 H6 H 0.26016 0.24909 0.18551
 C7 C 0.29245 0.28284 0.17609
 H8 H 0.29209 0.27880 0.15176
 N9 N 0.27449 0.27041 0.22590
 C10 C 0.20779 0.26089 0.29744
 H11 H 0.20853 0.23724 0.30144
 C12 C 0.18927 0.27865 0.31514
 H13 H 0.17636 0.26842 0.33317
 C14 C 0.22434 0.30274 0.26938
 H15 H 0.23759 0.31198 0.25112
 C16 C 0.20577 0.32124 0.28616
 H17 H 0.20501 0.34456 0.28044
 Zn18 Zn 0.25014 0.24789 0.25254
 N19 N 0.22536 0.27322 0.27557
 C20 C 0.27533 0.23005 0.30898
 N21 N 0.27536 0.22608 0.27822
 C22 C 0.29437 0.20701 0.26451
 C23 C 0.31367 0.19023 0.28192
 C24 C 0.29422 0.21367 0.32728
 C25 C 0.20655 0.23473 0.21018
 C26 C 0.18781 0.21710 0.19269
 C27 C 0.20736 0.17374 0.21743
 C28 C 0.22589 0.19221 0.23431
 N29 N 0.22544 0.22209 0.23010
 H30 H 0.26089 0.24608 0.31944
 H31 H 0.29429 0.20466 0.23995
 H32 H 0.32816 0.17467 0.27061
 H33 H 0.29395 0.21717 0.35171
 H34 H 0.20636 0.25859 0.20761
 H35 H 0.17359 0.22763 0.17633
 H36 H 0.20786 0.15004 0.22131
 H37 H 0.24040 0.18263 0.25093
 C38 C 0.18812 0.30935 0.30971
 C39 C 0.31121 0.30443 0.18863
 C40 C 0.18812 0.18612 0.19609
 C41 C 0.31362 0.19331 0.31378
 C42 C 0.79524 0.78912 0.23579
 H43 H 0.79618 0.79049 0.26039
 C44 C 0.81400 0.80668 0.21793
 H45 H 0.82844 0.82200 0.22958
 C46 C 0.77380 0.76820 0.19174
 H47 H 0.75863 0.75263 0.18157
 C48 C 0.79198 0.78549 0.17294
 H49 H 0.79049 0.78216 0.14858
 N50 N 0.77538 0.77067 0.22255
 C51 C 0.70771 0.76058 0.29294
 H52 H 0.70755 0.73675 0.29583
 C53 C 0.68922 0.77817 0.31083
 H54 H 0.67531 0.76765 0.32787
 C55 C 0.72663 0.80304 0.26753
 H56 H 0.74087 0.81262 0.25028
 C57 C 0.70824 0.82145 0.28465
 H58 H 0.70857 0.84506 0.28022
 Zn59 Zn 0.75087 0.74799 0.24890
 N60 N 0.72634 0.77324 0.27224
 C61 C 0.77517 0.72928 0.30533
 N62 N 0.77582 0.72580 0.27451
 C63 C 0.79504 0.70689 0.26088
 C64 C 0.81393 0.68976 0.27844
 C65 C 0.79365 0.71258 0.32375
 C66 C 0.70668 0.73506 0.20688
 C67 C 0.68769 0.71741 0.18969
 C68 C 0.70779 0.67406 0.21396
 C69 C 0.72656 0.69254 0.23051
 N70 N 0.72597 0.72243 0.22640
 H71 H 0.76050 0.74513 0.31573
 H72 H 0.79543 0.70491 0.23630
 H73 H 0.82857 0.67431 0.26719
 H74 H 0.79288 0.71571 0.34823
 H75 H 0.70630 0.75893 0.20445
 H76 H 0.67312 0.72793 0.17366
 H77 H 0.70840 0.65036 0.21783
 H78 H 0.74133 0.68295 0.24686
 C79 C 0.68938 0.80912 0.30691
 C80 C 0.81256 0.80541 0.18578
 C81 C 0.68814 0.68642 0.19303
 C82 C 0.81322 0.69233 0.31035
 C83 C 0.79303 0.29230 0.73917
 H84 H 0.79372 0.29427 0.76375
 C85 C 0.81154 0.30985 0.72101
 H86 H 0.82612 0.32565 0.73185
 C87 C 0.77264 0.26958 0.69537
 H88 H 0.75772 0.25358 0.68549
 C89 C 0.79090 0.28655 0.67635
 H90 H 0.78986 0.28328 0.65193
 N91 N 0.77382 0.27294 0.72615
 C92 C 0.70553 0.26190 0.79596
 H93 H 0.70545 0.23809 0.79900
 C94 C 0.68679 0.27950 0.81361
 H95 H 0.67298 0.26895 0.83070
 C96 C 0.72413 0.30429 0.77025
 H97 H 0.73829 0.31386 0.75292
 C98 C 0.70535 0.32265 0.78692
 H99 H 0.70535 0.34616 0.78199
 Zn100 Zn 0.74961 0.24975 0.75225
 N101 N 0.72429 0.27455 0.77537
 C102 C 0.77189 0.22820 0.80868
 N103 N 0.77477 0.22767 0.77785
 C104 C 0.79641 0.21178 0.76416
 C105 C 0.81570 0.19486 0.78147
 C106 C 0.79030 0.21123 0.82692
 C107 C 0.70380 0.23685 0.71256
 C108 C 0.68514 0.21943 0.69477
 C109 C 0.71165 0.17602 0.71090
 C110 C 0.72960 0.19426 0.72868
 N111 N 0.72561 0.22412 0.72889
 H112 H 0.75549 0.24197 0.81938
 H113 H 0.79844 0.21195 0.73956
 H114 H 0.83138 0.18151 0.76903
 H115 H 0.78754 0.21345 0.85131
 H116 H 0.70090 0.26063 0.71345
 H117 H 0.66766 0.23006 0.68235
 H118 H 0.71574 0.15241 0.71042
 H119 H 0.74682 0.18451 0.74208
 C120 C 0.68660 0.31041 0.80934
 C121 C 0.81060 0.30716 0.68911
 C122 C 0.68905 0.18856 0.69354
 C123 C 0.81283 0.19374 0.81367
 C124 C 0.29201 0.79409 0.73647
 H125 H 0.29112 0.79748 0.76089
 C126 C 0.31066 0.81161 0.71844
 H127 H 0.32367 0.82880 0.72921
 C128 C 0.27551 0.76787 0.69296
 H129 H 0.26220 0.75043 0.68319
 C130 C 0.29408 0.78468 0.67409
 H131 H 0.29478 0.77990 0.64991
 N132 N 0.27454 0.77310 0.72350
 C133 C 0.20716 0.76325 0.79433
 H134 H 0.20820 0.73963 0.79848
 C135 C 0.18846 0.78087 0.81195
 H136 H 0.17571 0.77059 0.83006
 C137 C 0.22319 0.80512 0.76601
 H138 H 0.23631 0.81441 0.74767
 C139 C 0.20441 0.82349 0.78269
 H140 H 0.20337 0.84677 0.77683
 Zn141 Zn 0.24994 0.75051 0.74981
 N142 N 0.22464 0.77567 0.77243
 C143 C 0.27449 0.73282 0.80667
 N144 N 0.27492 0.72888 0.77591
 C145 C 0.29399 0.70972 0.76244
 C146 C 0.31287 0.69271 0.78012
 C147 C 0.29294 0.71620 0.82524
 C148 C 0.20735 0.73671 0.70652
 C149 C 0.18874 0.71881 0.68918
 C150 C 0.20751 0.67591 0.71539
 C151 C 0.22591 0.69465 0.73211
 N152 N 0.22575 0.72442 0.72716
 H153 H 0.26003 0.74894 0.81694
 H154 H 0.29422 0.70738 0.73789
 H155 H 0.32735 0.67702 0.76901
 H156 H 0.29230 0.71960 0.84968
 H157 H 0.20737 0.76051 0.70336
 H158 H 0.17483 0.72904 0.67232
 H159 H 0.20771 0.65232 0.71994
 H160 H 0.24001 0.68536 0.74928
 C161 C 0.18697 0.81154 0.80637
 C162 C 0.31184 0.80709 0.68674
 C163 C 0.18867 0.68792 0.69345
 C164 C 0.31229 0.69565 0.81200
 C165 C 0.02581 0.05523 0.02058
 H166 H 0.01448 0.06544 0.00183
 C167 C 0.04324 0.07282 0.03953
 H168 H 0.04491 0.09643 0.03527
 C169 C 0.03870 0.01213 0.04808
 H170 H 0.03716 -0.01153 0.05126
 C171 C 0.05658 0.02886 0.06739
 H172 H 0.06826 0.01788 0.08554
 N173 N 0.02354 0.02546 0.02530
 C174 C 0.01063 -0.04240 -0.04437
 H175 H -0.01310 -0.04431 -0.04462
 C176 C 0.02767 -0.06058 -0.06318
 H177 H 0.01673 -0.07605 -0.07825
 C178 C 0.05340 -0.01914 -0.02492
 H179 H 0.06334 -0.00290 -0.01002
 C180 C 0.07130 -0.03721 -0.04294
 H181 H 0.09493 -0.03494 -0.04116
 Zn182 Zn -0.00051 0.00209 -0.00100
 N183 N 0.02365 -0.02197 -0.02600
 C184 C -0.02266 0.02559 -0.05649
 N185 N -0.02366 0.02762 -0.02555
 C186 C -0.04097 0.04802 -0.01141
 C187 C -0.05838 0.06714 -0.02843
 C188 C -0.04004 0.04399 -0.07439
 C189 C -0.01277 -0.04692 0.03668
 C190 C -0.02987 -0.06640 0.05424
 C191 C -0.07287 -0.03831 0.04092
 C192 C -0.05493 -0.01927 0.02374
 N193 N -0.02534 -0.02352 0.02234
 H194 H -0.00852 0.00961 -0.06745
 H195 H -0.04111 0.04953 0.01321
 H196 H -0.07154 0.08350 -0.01660
 H197 H -0.03946 0.04131 -0.09891
 H198 H 0.01053 -0.05083 0.03408
 H199 H -0.01945 -0.08493 0.06540
 H200 H -0.09628 -0.03422 0.04221
 H201 H -0.06480 -0.00117 0.01158
 C202 C 0.05852 -0.05819 -0.06263
 C203 C 0.05887 0.05964 0.06331
 C204 C -0.06032 -0.06210 0.05665
 C205 C -0.05830 0.06514 -0.06042
 C206 C 0.02594 0.55450 0.52086
 H207 H 0.01489 0.56453 0.50182
 C208 C 0.04330 0.57219 0.53974
 H209 H 0.04526 0.59571 0.53510
 C210 C 0.03805 0.51167 0.54921
 H211 H 0.03614 0.48805 0.55273
 C212 C 0.05587 0.52851 0.56850
 H213 H 0.06722 0.51770 0.58698
 N214 N 0.02337 0.52482 0.52599
 C215 C 0.01103 0.45702 0.45623
 H216 H -0.01270 0.45538 0.45551
 C217 C 0.02822 0.43870 0.43771
 H218 H 0.01739 0.42338 0.42239
 C219 C 0.05368 0.47976 0.47657
 H220 H 0.06352 0.49584 0.49172
 C221 C 0.07171 0.46155 0.45884
 H222 H 0.09532 0.46356 0.46108
 Zn223 Zn -0.00041 0.50143 0.49960
 N224 N 0.02394 0.47724 0.47492
 C225 C -0.02109 0.52550 0.44377
 N226 N -0.02315 0.52701 0.47470
 C227 C -0.04108 0.54706 0.48856
 C228 C -0.05847 0.56594 0.47125
 C229 C -0.03811 0.54397 0.42556
 C230 C -0.01307 0.45203 0.53648
 C231 C -0.03024 0.43252 0.55396
 C232 C -0.07278 0.46212 0.54269
 C233 C -0.05484 0.48094 0.52528
 N234 N -0.02543 0.47598 0.52292
 H235 H -0.00632 0.50994 0.43305
 H236 H -0.04183 0.54839 0.51319
 H237 H -0.07250 0.58177 0.48277
 H238 H -0.03663 0.54193 0.40100
 H239 H 0.01012 0.44778 0.53336
 H240 H -0.01996 0.41346 0.56428
 H241 H -0.09597 0.46702 0.54488
 H242 H -0.06462 0.49949 0.51381
 C243 C 0.05907 0.44074 0.43887
 C244 C 0.05854 0.55922 0.56392
 C245 C -0.06052 0.43757 0.55745
 C246 C -0.05730 0.56437 0.43929
 C247 C 0.54516 0.04344 0.51156
 H248 H 0.54736 0.04422 0.48699
 C249 C 0.56294 0.06148 0.52968
 H250 H 0.57914 0.07571 0.51876
 C251 C 0.52168 0.02329 0.55539
 H252 H 0.50528 0.00868 0.56529
 C253 C 0.53876 0.04122 0.57438
 H254 H 0.53513 0.04023 0.59878
 N255 N 0.52537 0.02450 0.52461
 C256 C 0.51336 -0.04190 0.45318
 H257 H 0.48973 -0.04152 0.45059
 C258 C 0.53038 -0.06039 0.43466
 H259 H 0.51963 -0.07372 0.41745
 C260 C 0.55589 -0.02456 0.47855
 H261 H 0.56574 -0.01107 0.49611
 C262 C 0.57370 -0.04297 0.46081
 H263 H 0.59710 -0.04333 0.46506
 Zn264 Zn 0.50211 0.00088 0.49839
 N265 N 0.52635 -0.02394 0.47411
 C266 C 0.48195 0.02645 0.44286
 N267 N 0.48010 0.02710 0.47383
 C268 C 0.46277 0.04712 0.48848
 C269 C 0.44541 0.06666 0.47192
 C270 C 0.46494 0.04558 0.42539
 C271 C 0.48951 -0.04554 0.53856
 C272 C 0.47223 -0.06486 0.55610
 C273 C 0.42893 -0.03993 0.53796
 C274 C 0.44705 -0.02125 0.52056
 N275 N 0.47678 -0.02410 0.52148
 H276 H 0.49648 0.01107 0.43155
 H277 H 0.46222 0.04764 0.51315
 H278 H 0.43168 0.08234 0.48404
 H279 H 0.46610 0.04412 0.40076
 H280 H 0.51320 -0.04760 0.53850
 H281 H 0.48286 -0.08198 0.56922
 H282 H 0.40538 -0.03674 0.53748
 H283 H 0.43725 -0.00449 0.50642
 C284 C 0.56106 -0.06098 0.43821
 C285 C 0.55990 0.06055 0.56159
 C286 C 0.44147 -0.06209 0.55614
 C287 C 0.44610 0.06583 0.43991
 C288 C 0.52318 0.55464 0.02136
 H289 H 0.51185 0.56485 0.00262
 C290 C 0.54061 0.57221 0.04030
 H291 H 0.54232 0.59581 0.03602
 C292 C 0.53601 0.51151 0.04887
 H293 H 0.53440 0.48784 0.05203
 C294 C 0.55393 0.52823 0.06817
 H295 H 0.56564 0.51725 0.08631
 N296 N 0.52097 0.52486 0.02603
 C297 C 0.50878 0.45791 -0.04469
 H298 H 0.48505 0.45642 -0.04564
 C299 C 0.52601 0.43972 -0.06332
 H300 H 0.51521 0.42473 -0.07898
 C301 C 0.55138 0.48006 -0.02361
 H302 H 0.56120 0.49584 -0.00813
 C303 C 0.56944 0.46192 -0.04137
 H304 H 0.59303 0.46369 -0.03878
 Zn305 Zn 0.49723 0.50161 -0.00058
 N306 N 0.52164 0.47777 -0.02557
 C307 C 0.47651 0.52640 -0.05605
 N308 N 0.47430 0.52735 -0.02510
 C309 C 0.45620 0.54706 -0.01095
 C310 C 0.43889 0.56625 -0.02798
 C311 C 0.45953 0.54516 -0.07398
 C312 C 0.48512 0.45191 0.03597
 C313 C 0.46823 0.43213 0.05338
 C314 C 0.42525 0.46107 0.04206
 C315 C 0.44295 0.48023 0.02477
 N316 N 0.47245 0.47573 0.02249
 H317 H 0.49141 0.51112 -0.06698
 H318 H 0.45533 0.54793 0.01370
 H319 H 0.42481 0.58187 -0.01623
 H320 H 0.46117 0.54358 -0.09857
 H321 H 0.50837 0.44798 0.03283
 H322 H 0.47877 0.41321 0.06369
 H323 H 0.40197 0.46556 0.04418
 H324 H 0.43293 0.49867 0.01332
 C325 C 0.55686 0.44147 -0.06178
 C326 C 0.55629 0.55900 0.06404
 C327 C 0.43788 0.43672 0.05682
 C328 C 0.44027 0.56533 -0.05997
 C329 C 0.13161 -0.13265 -0.13853
 C330 C 0.15842 -0.12145 -0.14986
 C331 C 0.17642 -0.13979 -0.16772
 C332 C 0.16760 -0.16906 -0.17477
 C333 C 0.14038 -0.17974 -0.16344
 C334 C 0.12246 -0.16173 -0.14508
 C335 C 0.11282 -0.11358 -0.11930
 C336 C 0.08628 -0.12495 -0.10748
 C337 C 0.06870 -0.10687 -0.08885
 C338 C 0.07724 -0.07738 -0.08240
 C339 C 0.10385 -0.06632 -0.09487
 C340 C 0.12183 -0.08439 -0.11305
 C341 C 0.09561 -0.17225 -0.13306
 C342 C 0.07790 -0.15423 -0.11445
 C343 C 0.16674 -0.09214 -0.14301
 C344 C 0.14869 -0.07387 -0.12505
 H345 H 0.08830 -0.19467 -0.13792
 H346 H 0.05744 -0.16326 -0.10551
 H347 H 0.18736 -0.08321 -0.15167
 H348 H 0.15590 -0.05139 -0.12037
 H349 H 0.19748 -0.13137 -0.17571
 H350 H 0.13297 -0.20195 -0.16904
 H351 H 0.04862 -0.11593 -0.07908
 H352 H 0.11050 -0.04357 -0.09070
 C353 C 0.13266 0.36556 0.36428
 C354 C 0.15972 0.37651 0.35336
 C355 C 0.17779 0.35802 0.33573
 C356 C 0.16878 0.32885 0.32849
 C357 C 0.14132 0.31841 0.33944
 C358 C 0.12333 0.33656 0.35755
 C359 C 0.11376 0.38480 0.38319
 C360 C 0.08693 0.37369 0.39455
 C361 C 0.06922 0.39196 0.41285
 C362 C 0.07793 0.42136 0.41944
 C363 C 0.10485 0.43216 0.40746
 C364 C 0.12294 0.41390 0.38960
 C365 C 0.09620 0.32630 0.36913
 C366 C 0.07838 0.34450 0.38744
 C367 C 0.16823 0.40573 0.36037
 C368 C 0.15008 0.42416 0.37805
 H369 H 0.08875 0.30396 0.36414
 H370 H 0.05770 0.33566 0.39603
 H371 H 0.18905 0.41447 0.35205
 H372 H 0.15743 0.44658 0.38286
 H373 H 0.19902 0.36626 0.32803
 H374 H 0.13378 0.29628 0.33368
 H375 H 0.04888 0.38310 0.42227
 H376 H 0.11165 0.45484 0.41176
 C377 C 0.63426 -0.13531 0.36241
 C378 C 0.66237 -0.12523 0.35371
 C379 C 0.68028 -0.14351 0.33568
 C380 C 0.67016 -0.17159 0.32599
 C381 C 0.64173 -0.18119 0.33479
 C382 C 0.62379 -0.16322 0.35315
 C383 C 0.61546 -0.11629 0.38167
 C384 C 0.58748 -0.12650 0.39070
 C385 C 0.56981 -0.10844 0.40926
 C386 C 0.57981 -0.08017 0.41853
 C387 C 0.60790 -0.07026 0.40894
 C388 C 0.62586 -0.08829 0.39072
 C389 C 0.59558 -0.17261 0.36249
 C390 C 0.57778 -0.15461 0.38103
 C391 C 0.67205 -0.09710 0.36330
 C392 C 0.65406 -0.07889 0.38139
 H393 H 0.58724 -0.19411 0.35551
 H394 H 0.55623 -0.16275 0.38782
 H395 H 0.69369 -0.08905 0.35671
 H396 H 0.66234 -0.05733 0.38824
 H397 H 0.70224 -0.13601 0.32959
 H398 H 0.63343 -0.20248 0.32713
 H399 H 0.54849 -0.11658 0.41680
 H400 H 0.61570 -0.04839 0.41538
 C401 C 0.63085 0.36643 -0.13615
 C402 C 0.65837 0.37708 -0.14606
 C403 C 0.67654 0.35861 -0.16358
 C404 C 0.66716 0.32981 -0.17184
 C405 C 0.63925 0.31968 -0.16189
 C406 C 0.62116 0.33778 -0.14380
 C407 C 0.61183 0.38564 -0.11733
 C408 C 0.58455 0.37481 -0.10690
 C409 C 0.56675 0.39302 -0.08863
 C410 C 0.57579 0.42215 -0.08122
 C411 C 0.60315 0.43269 -0.09234
 C412 C 0.62135 0.41445 -0.11008
 C413 C 0.59358 0.32780 -0.13316
 C414 C 0.57566 0.34593 -0.11488
 C415 C 0.66722 0.40599 -0.13819
 C416 C 0.64895 0.42442 -0.12066
 H417 H 0.58584 0.30572 -0.13886
 H418 H 0.55463 0.33731 -0.10701
 H419 H 0.68841 0.41448 -0.14575
 H420 H 0.65657 0.44660 -0.11519
 H421 H 0.69812 0.36659 -0.17043
 H422 H 0.63140 0.29786 -0.16841
 H423 H 0.54609 0.38431 -0.07988
 H424 H 0.61023 0.45517 -0.08746
 C425 C -0.13241 0.14035 -0.13295
 C426 C -0.12268 0.14971 -0.16178
 C427 C -0.14102 0.16745 -0.17961
 C428 C -0.16916 0.17651 -0.16884
 C429 C -0.17805 0.16680 -0.13929
 C430 C -0.16000 0.14868 -0.12158
 C431 C -0.11335 0.12132 -0.11432
 C432 C -0.12341 0.11138 -0.08574
 C433 C -0.10540 0.09297 -0.06830
 C434 C -0.07726 0.08480 -0.07903
 C435 C -0.06746 0.09531 -0.10770
 C436 C -0.08550 0.11335 -0.12551
 C437 C -0.16927 0.13838 -0.09277
 C438 C -0.15134 0.11997 -0.07521
 C439 C -0.09461 0.14131 -0.17221
 C440 C -0.07631 0.12353 -0.15435
 H441 H -0.19063 0.14454 -0.08374
 H442 H -0.15937 0.11246 -0.05318
 H443 H -0.08672 0.14852 -0.19440
 H444 H -0.05486 0.11756 -0.16327
 H445 H -0.13226 0.17528 -0.20117
 H446 H -0.19974 0.17157 -0.13034
 H447 H -0.11352 0.08469 -0.04660
 H448 H -0.04572 0.08969 -0.11608
 C449 C -0.13120 0.63842 0.36569
 C450 C -0.11976 0.65113 0.33884
 C451 C -0.13798 0.66883 0.32085
 C452 C -0.16744 0.67384 0.32957
 C453 C -0.17848 0.66094 0.35664
 C454 C -0.16047 0.64319 0.37477
 C455 C -0.11220 0.61965 0.38461
 C456 C -0.12370 0.60684 0.41138
 C457 C -0.10560 0.58889 0.42920
 C458 C -0.07619 0.58370 0.42044
 C459 C -0.06503 0.59681 0.39352
 C460 C -0.08295 0.61480 0.37551
 C461 C -0.17117 0.63000 0.40172
 C462 C -0.15310 0.61213 0.41972
 C463 C -0.09034 0.64586 0.33054
 C464 C -0.07225 0.62801 0.34856
 H465 H -0.19373 0.63350 0.40895
 H466 H -0.16223 0.60235 0.44031
 H467 H -0.08124 0.65558 0.30990
 H468 H -0.04971 0.62446 0.34130
 H469 H -0.12918 0.67895 0.30027
 H470 H -0.20121 0.66432 0.36333
 H471 H -0.11454 0.57857 0.44962
 H472 H -0.04234 0.59326 0.38676
 C473 C 0.37071 0.14031 0.36839
 C474 C 0.38154 0.15298 0.34125
 C475 C 0.36284 0.17043 0.32355
 C476 C 0.33351 0.17526 0.33283
 C477 C 0.32310 0.16249 0.36023
 C478 C 0.34159 0.14495 0.37806
 C479 C 0.39017 0.12165 0.38692
 C480 C 0.37925 0.10877 0.41390
 C481 C 0.39772 0.09076 0.43124
 C482 C 0.42694 0.08557 0.42179
 C483 C 0.43756 0.09887 0.39472
 C484 C 0.41925 0.11689 0.37717
 C485 C 0.33149 0.13177 0.40526
 C486 C 0.34999 0.11397 0.42287
 C487 C 0.41082 0.14785 0.33234
 C488 C 0.42936 0.13012 0.35000
 H489 H 0.30906 0.13517 0.41296
 H490 H 0.34131 0.10415 0.44364
 H491 H 0.41946 0.15754 0.31148
 H492 H 0.45176 0.12664 0.34225
 H493 H 0.37115 0.18046 0.30270
 H494 H 0.30047 0.16575 0.36736
 H495 H 0.38917 0.08031 0.45176
 H496 H 0.46010 0.09535 0.38744
 C497 C 0.36736 0.64117 -0.13273
 C498 C 0.33812 0.64618 -0.12366
 C499 C 0.32032 0.66424 -0.14168
 C500 C 0.33151 0.67715 -0.16868
 C501 C 0.36094 0.67195 -0.17737
 C502 C 0.37897 0.65399 -0.15945
 C503 C 0.38611 0.62200 -0.11398
 C504 C 0.41532 0.61691 -0.12309
 C505 C 0.43300 0.59851 -0.10527
 C506 C 0.42163 0.58515 -0.07857
 C507 C 0.39226 0.59058 -0.06979
 C508 C 0.37442 0.60900 -0.08740
 C509 C 0.40834 0.64849 -0.16775
 C510 C 0.42622 0.63029 -0.14986
 C511 C 0.32723 0.63284 -0.09686
 C512 C 0.34507 0.61455 -0.07905
 H513 H 0.41758 0.65829 -0.18829
 H514 H 0.44873 0.62657 -0.15712
 H515 H 0.30471 0.63651 -0.08964
 H516 H 0.33579 0.60464 -0.05859
 H517 H 0.29760 0.66779 -0.13503
 H518 H 0.36984 0.68207 -0.19790
 H519 H 0.45566 0.59482 -0.11202
 H520 H 0.38314 0.58009 -0.04955
 C521 C -0.13294 -0.13946 0.13044
 C522 C -0.16002 -0.14945 0.11921
 C523 C -0.17783 -0.16792 0.13744
 C524 C -0.16901 -0.17639 0.16710
 C525 C -0.14144 -0.16597 0.17771
 C526 C -0.12344 -0.14766 0.15954
 C527 C -0.11423 -0.11989 0.11141
 C528 C -0.08703 -0.11003 0.12261
 C529 C -0.06939 -0.09132 0.10449
 C530 C -0.07888 -0.08231 0.07546
 C531 C -0.10623 -0.09245 0.06459
 C532 C -0.12396 -0.11131 0.08245
 C533 C -0.09603 -0.13741 0.16993
 C534 C -0.07813 -0.11894 0.15177
 C535 C -0.16896 -0.14050 0.09004
 C536 C -0.15125 -0.12174 0.07199
 H537 H -0.08838 -0.14365 0.19233
 H538 H -0.05720 -0.11148 0.16068
 H539 H -0.18986 -0.14801 0.08111
 H540 H -0.15901 -0.11531 0.04968
 H541 H -0.19913 -0.17438 0.12877
 H542 H -0.13320 -0.17284 0.19965
 H543 H -0.04854 -0.08334 0.11317
 H544 H -0.11353 -0.08590 0.04213
 C545 C -0.13388 0.36158 0.63220
 C546 C -0.16272 0.35517 0.62302
 C547 C -0.18074 0.33735 0.64167
 C548 C -0.17007 0.32579 0.66928
 C549 C -0.14095 0.33232 0.67798
 C550 C -0.12281 0.35029 0.65959
 C551 C -0.11495 0.38063 0.61285
 C552 C -0.08621 0.38730 0.62219
 C553 C -0.06845 0.40577 0.60392
 C554 C -0.07921 0.41746 0.57640
 C555 C -0.10805 0.41023 0.56729
 C556 C -0.12605 0.39196 0.58549
 C557 C -0.09386 0.35729 0.66807
 C558 C -0.07589 0.37553 0.64972
 C559 C -0.17302 0.36686 0.59544
 C560 C -0.15497 0.38489 0.57696
 H561 H -0.08505 0.34871 0.68915
 H562 H -0.05374 0.38049 0.65718
 H563 H -0.19523 0.36206 0.58808
 H564 H -0.16378 0.39349 0.55589
 H565 H -0.20321 0.33289 0.63492
 H566 H -0.13231 0.32321 0.69891
 H567 H -0.04649 0.41147 0.61141
 H568 H -0.11643 0.41867 0.54596
 C569 C 0.36774 -0.13826 0.63039
 C570 C 0.34022 -0.14742 0.61944
 C571 C 0.32208 -0.16533 0.63790
 C572 C 0.33137 -0.17431 0.66705
 C573 C 0.35925 -0.16512 0.67746
 C574 C 0.37742 -0.14695 0.65932
 C575 C 0.38672 -0.11905 0.61126
 C576 C 0.41406 -0.10957 0.62238
 C577 C 0.43185 -0.09098 0.60429
 C578 C 0.42260 -0.08205 0.57510
 C579 C 0.39516 -0.09206 0.56425
 C580 C 0.37707 -0.11041 0.58231
 C581 C 0.40503 -0.13720 0.66957
 C582 C 0.42300 -0.11875 0.65146
 C583 C 0.33133 -0.13832 0.59032
 C584 C 0.34948 -0.12021 0.57203
 H585 H 0.41276 -0.14376 0.69186
 H586 H 0.44407 -0.11161 0.66029
 H587 H 0.31015 -0.14526 0.58159
 H588 H 0.34178 -0.11370 0.54973
 H589 H 0.30055 -0.17182 0.62976
 H590 H 0.36692 -0.17224 0.69959
 H591 H 0.45265 -0.08310 0.61315
 H592 H 0.38795 -0.08580 0.54169
 C593 C 0.36589 0.35946 0.13154
 C594 C 0.37697 0.34882 0.15920
 C595 C 0.35913 0.33060 0.17763
 C596 C 0.33031 0.32315 0.16868
 C597 C 0.31963 0.33398 0.14075
 C598 C 0.33734 0.35211 0.12209
 C599 C 0.38446 0.37886 0.11220
 C600 C 0.37332 0.38962 0.08461
 C601 C 0.39097 0.40827 0.06644
 C602 C 0.41953 0.41634 0.07577
 C603 C 0.43035 0.40518 0.10349
 C604 C 0.41292 0.38642 0.12177
 C605 C 0.32700 0.36322 0.09428
 C606 C 0.34470 0.38162 0.07583
 C607 C 0.40563 0.35673 0.16792
 C608 C 0.42329 0.37525 0.14954
 H609 H 0.30501 0.35770 0.08673
 H610 H 0.33586 0.38977 0.05459
 H611 H 0.41445 0.34864 0.18920
 H612 H 0.44522 0.38091 0.15718
 H613 H 0.36774 0.32207 0.19882
 H614 H 0.29738 0.32876 0.13382
 H615 H 0.38256 0.41633 0.04496
 H616 H 0.45210 0.41155 0.11112
 C617 C 0.13237 0.13133 0.14074
 C618 C 0.12169 0.15836 0.15203
 C619 C 0.13984 0.17599 0.17043
 C620 C 0.16864 0.16691 0.17734
 C621 C 0.17892 0.13962 0.16585
 C622 C 0.16085 0.12173 0.14760
 C623 C 0.11345 0.11281 0.12118
 C624 C 0.12412 0.08575 0.10991
 C625 C 0.10608 0.06830 0.09121
 C626 C 0.07767 0.07790 0.08354
 C627 C 0.06734 0.10512 0.09506
 C628 C 0.08511 0.12262 0.11398
 C629 C 0.17077 0.09452 0.13589
 C630 C 0.15269 0.07681 0.11742
 C631 C 0.09311 0.16730 0.14455
 C632 C 0.07515 0.14976 0.12580
 H633 H 0.19270 0.08685 0.14103
 H634 H 0.16119 0.05599 0.10884
 H635 H 0.08460 0.18811 0.15314
 H636 H 0.05330 0.15754 0.12046
 H637 H 0.13149 0.19667 0.17951
 H638 H 0.20114 0.13257 0.17060
 H639 H 0.11429 0.04754 0.08215
 H640 H 0.04539 0.11248 0.08952
 C641 C 0.13249 0.63211 0.63967
 C642 C 0.12209 0.65960 0.65005
 C643 C 0.14042 0.67759 0.66788
 C644 C 0.16910 0.66842 0.67514
 C645 C 0.17910 0.64069 0.66456
 C646 C 0.16086 0.62243 0.64688
 C647 C 0.11338 0.61320 0.62071
 C648 C 0.12379 0.58571 0.61031
 C649 C 0.10561 0.56793 0.59206
 C650 C 0.07735 0.57764 0.58399
 C651 C 0.06726 0.60525 0.59471
 C652 C 0.08517 0.62309 0.61315
 C653 C 0.17049 0.59477 0.63607
 C654 C 0.15225 0.57670 0.61814
 C655 C 0.09361 0.66860 0.64227
 C656 C 0.07548 0.65068 0.62407
 H657 H 0.19233 0.58704 0.64148
 H658 H 0.16054 0.55555 0.61024
 H659 H 0.08532 0.68975 0.65016
 H660 H 0.05373 0.65852 0.61845
 H661 H 0.13227 0.69863 0.67628
 H662 H 0.20123 0.63355 0.66960
 H663 H 0.11364 0.54686 0.58361
 H664 H 0.04542 0.61270 0.58886
 C665 C 0.63352 0.13405 0.63755
 C666 C 0.64173 0.16248 0.62745
 C667 C 0.65999 0.18009 0.64574
 C668 C 0.66978 0.16964 0.67419
 C669 C 0.66111 0.14107 0.68400
 C670 C 0.64314 0.12313 0.66569
 C671 C 0.61452 0.11533 0.61825
 C672 C 0.60660 0.08677 0.62817
 C673 C 0.58879 0.06894 0.60958
 C674 C 0.57863 0.07961 0.58135
 C675 C 0.58664 0.10851 0.57198
 C676 C 0.60473 0.12636 0.59023
 C677 C 0.63460 0.09448 0.67493
 C678 C 0.61673 0.07656 0.65644
 C679 C 0.63155 0.17271 0.59921
 C680 C 0.61327 0.15500 0.58097
 H681 H 0.64188 0.08578 0.69659
 H682 H 0.61075 0.05456 0.66437
 H683 H 0.63771 0.19463 0.59118
 H684 H 0.60587 0.16376 0.55938
 H685 H 0.66686 0.20176 0.63761
 H686 H 0.66803 0.13289 0.70600
 H687 H 0.58324 0.04663 0.61690
 H688 H 0.57860 0.11725 0.55064
 C689 C 0.63124 0.63119 0.13940
 C690 C 0.62080 0.65833 0.15067
 C691 C 0.63935 0.67614 0.16845
 C692 C 0.66831 0.66714 0.17474
 C693 C 0.67836 0.63978 0.16322
 C694 C 0.65989 0.62169 0.14563
 C695 C 0.61188 0.61247 0.12052
 C696 C 0.62232 0.58530 0.10927
 C697 C 0.60389 0.56769 0.09114
 C698 C 0.57535 0.57725 0.08400
 C699 C 0.56523 0.60453 0.09554
 C700 C 0.58338 0.62219 0.11390
 C701 C 0.66956 0.59437 0.13397
 C702 C 0.65107 0.57646 0.11615
 C703 C 0.59203 0.66717 0.14382
 C704 C 0.57366 0.64944 0.12569
 H705 H 0.69162 0.58678 0.13863
 H706 H 0.65940 0.55557 0.10757
 H707 H 0.58370 0.68806 0.15240
 H708 H 0.55170 0.65715 0.12080
 H709 H 0.63117 0.69688 0.17756
 H710 H 0.70069 0.63278 0.16749
 H711 H 0.61193 0.54687 0.08204
 H712 H 0.54318 0.61186 0.09038
   
