data_POSCAR
  _audit_creation_date              2014-09-24
  _audit_creation_method            'ToBaCCo'
  _symmetry_space_group_name_H-M    'P1'
  _symmetry_Int_Tables_number       1
  _symmetry_cell_setting            triclinic
  loop_
  _symmetry_equiv_pos_as_xyz
 x,y,z
_cell_length_a 45.0784
_cell_length_b 44.9461
_cell_length_c 44.9138
_cell_angle_alpha 89.951900
_cell_angle_beta 90.081900
_cell_angle_gamma 89.951300
loop_
  _atom_site_label
  _atom_site_type_symbol
  _atom_site_fract_x
  _atom_site_fract_y
  _atom_site_fract_z
C1 C 0.19126 1.23051 0.19184
 N2 N 0.21616 1.21821 0.18001
 C3 C 0.22912 1.19406 0.19276
 N4 N 0.21687 1.18209 0.21764
 C5 C 0.19197 1.19398 0.22989
 N6 N 0.17937 1.21820 0.21679
 C7 C 0.80948 0.77066 0.19237
 N8 N 0.78492 0.78358 0.18038
 C9 C 0.77314 0.80865 0.19242
 N10 N 0.78625 0.82092 0.21673
 C11 C 0.81082 0.80842 0.22912
 N12 N 0.82222 0.78329 0.21673
 C13 C 0.80617 1.22793 -0.19549
 N14 N 0.81882 1.21491 -0.21965
 C15 C 0.80694 1.18997 -0.23195
 N16 N 0.78206 1.17810 -0.21965
 C17 C 0.76911 1.19081 -0.19550
 N18 N 0.78135 1.21569 -0.18353
 C19 C 0.19107 0.77002 -0.18993
 N20 N 0.17957 0.78254 -0.21500
 C21 C 0.19221 0.80697 -0.22756
 N22 N 0.21677 0.81889 -0.21463
 C23 C 0.22865 0.80672 -0.18961
 N24 N 0.21564 0.78234 -0.17741
 C25 C 0.52260 1.05495 -0.02349
 H26 H 0.50696 1.06606 -0.00909
 C27 C 0.54184 1.07185 -0.04101
 H28 H 0.54036 1.09588 -0.04034
 C29 C 0.54400 1.01027 -0.04144
 H30 H 0.54498 0.98622 -0.04103
 C31 C 0.56363 1.02628 -0.05932
 H32 H 0.57981 1.01434 -0.07251
 N33 N 0.52395 1.02472 -0.02408
 C34 C 0.47726 1.02509 0.05530
 H35 H 0.49362 1.01131 0.06622
 C36 C 0.45775 1.04209 0.07244
 H37 H 0.45972 1.04164 0.09646
 C38 C 0.45439 1.04202 0.01086
 H39 H 0.45299 1.04144 -0.01318
 C40 C 0.43448 1.05936 0.02711
 H41 H 0.41765 1.07196 0.01536
 Zn42 Zn 0.49995 1.00118 0.00117
 N43 N 0.47533 1.02547 0.02507
 C44 C 0.54653 0.99326 0.04129
 N45 N 0.52593 0.97826 0.02507
 C46 C 0.52530 0.94800 0.02467
 C47 C 0.54585 0.93165 0.04129
 C48 C 0.56748 0.97781 0.05821
 C49 C 0.47465 0.97696 -0.05166
 C50 C 0.45440 0.95976 -0.06774
 C51 C 0.43432 0.94179 -0.02124
 C52 C 0.45492 0.95931 -0.00607
 N53 N 0.47459 0.97636 -0.02137
 H54 H 0.54678 1.01733 0.04087
 H55 H 0.50927 0.93646 0.01103
 H56 H 0.54537 0.90759 0.04025
 H57 H 0.58352 0.99021 0.07116
 H58 H 0.48992 0.99123 -0.06342
 H59 H 0.45436 0.96101 -0.09181
 H60 H 0.41898 0.92822 -0.00861
 H61 H 0.45510 0.95958 0.01802
 C62 C 0.43593 1.05946 0.05835
 C63 C 0.56282 1.05752 -0.05914
 C64 C 0.43374 0.94201 -0.05251
 C65 C 0.56742 0.94656 0.05824
 C66 C -0.01298 0.54349 1.04121
 H67 H 0.01100 0.54430 1.04117
 C68 C -0.02907 0.56334 1.05880
 H69 H -0.01724 0.57951 1.07214
 C70 C -0.05741 0.52230 1.02261
 H71 H -0.06838 0.50665 1.00807
 C72 C -0.07438 0.54178 1.03982
 H73 H -0.09834 0.54048 1.03878
 N74 N -0.02727 0.52344 1.02368
 C75 C 0.03790 0.45374 1.00701
 H76 H 0.03795 0.45380 0.98292
 C77 C 0.05515 0.43312 1.02255
 H78 H 0.06883 0.41764 1.01021
 C79 C 0.01974 0.47383 1.05222
 H80 H 0.00539 0.48927 1.06369
 C81 C 0.03667 0.45358 1.06866
 H82 H 0.03514 0.45370 1.09272
 Zn83 Zn -0.00356 0.49912 0.99890
 N84 N 0.02074 0.47361 1.02195
 C85 C 0.04994 0.52413 0.97628
 N86 N 0.01979 0.52495 0.97534
 C87 C 0.00517 0.54566 0.95881
 C88 C 0.02093 0.56651 0.94211
 C89 C 0.06660 0.54459 0.95990
 C90 C -0.04437 0.45367 0.98857
 C91 C -0.06145 0.43374 0.97204
 C92 C -0.04330 0.45677 0.92699
 C93 C -0.02658 0.47631 0.94441
 N94 N -0.02752 0.47451 0.97463
 H95 H 0.06116 0.50802 0.99016
 H96 H -0.01883 0.54606 0.95880
 H97 H 0.00885 0.58264 0.92891
 H98 H 0.09057 0.54396 0.96137
 H99 H -0.04423 0.45236 1.01263
 H100 H -0.07429 0.41698 0.98359
 H101 H -0.04241 0.45865 0.90298
 H102 H -0.01257 0.49259 0.93371
 C103 C 0.05456 0.43274 1.05381
 C104 C -0.06021 0.56276 1.05814
 C105 C -0.06097 0.43505 0.94080
 C106 C 0.05208 0.56626 0.94264
 C107 C 1.04450 -0.01036 0.54584
 H108 H 1.04402 0.01367 0.54716
 C109 C 1.06166 -0.02667 0.56595
 H110 H 1.07423 -0.01498 0.58284
 C111 C 1.02745 -0.05469 0.52303
 H112 H 1.01369 -0.06556 0.50663
 C113 C 1.04427 -0.07189 0.54274
 H114 H 1.04371 -0.09590 0.54086
 N115 N 1.02796 -0.02449 0.52485
 C116 C 1.01291 0.04188 0.45562
 H117 H 0.98893 0.04153 0.45463
 C118 C 1.02889 0.05965 0.43584
 H119 H 1.01699 0.07281 0.41953
 C120 C 1.05744 0.02388 0.47722
 H121 H 1.06850 0.00951 0.49300
 C122 C 1.07431 0.04129 0.45782
 H123 H 1.09827 0.04056 0.45932
 Zn124 Zn 1.00380 -0.00054 0.50004
 N125 N 1.02730 0.02455 0.47584
 C126 C 0.97964 0.05237 0.52513
 N127 N 0.97908 0.02212 0.52538
 C128 C 0.96210 0.00691 0.54521
 C129 C 0.94456 0.02216 0.56574
 C130 C 0.96242 0.06853 0.54529
 C131 C 0.99575 -0.04071 0.45345
 C132 C 0.98027 -0.05766 0.43256
 C133 C 0.93432 -0.04055 0.45427
 C134 C 0.95070 -0.02391 0.47476
 N135 N 0.98087 -0.02440 0.47407
 H136 H 0.99386 0.06406 0.50974
 H137 H 0.96240 -0.01716 0.54518
 H138 H 0.93102 0.00961 0.58117
 H139 H 0.96360 0.09259 0.54516
 H140 H 1.01975 -0.04037 0.45315
 H141 H 0.99257 -0.07070 0.41651
 H142 H 0.91033 -0.03944 0.45480
 H143 H 0.93925 -0.01020 0.49079
 C144 C 1.06003 0.05938 0.43666
 C145 C 1.06160 -0.05789 0.56464
 C146 C 0.94912 -0.05761 0.43269
 C147 C 0.94469 0.05340 0.56608
 C148 C 0.14870 0.30268 1.14885
 C149 C 0.17500 0.29099 1.13724
 C150 C 0.18934 0.26743 1.15164
 C151 C 0.17750 0.25504 1.17796
 C152 C 0.15120 0.26744 1.18966
 C153 C 0.13695 0.29100 1.17517
 C154 C 0.13323 0.32594 1.13317
 C155 C 0.12001 0.34499 1.11966
 C156 C 0.10393 0.36721 1.10311
 C157 C 0.10237 0.39653 1.11346
 C158 C 0.08642 0.41793 1.09741
 C159 C 0.07186 0.41023 1.07076
 C160 C 0.07365 0.38069 1.06055
 C161 C 0.08957 0.35937 1.07663
 H162 H 0.18426 0.29986 1.11683
 H163 H 0.20950 0.25877 1.14183
 H164 H 0.14130 0.25877 1.20984
 H165 H 0.11656 0.29988 1.18432
 H166 H 0.11345 0.40285 1.13392
 H167 H 0.08572 0.44054 1.10567
 H168 H 0.06231 0.37394 1.04039
 H169 H 0.09054 0.33670 1.06848
 C170 C -0.15139 0.69551 1.15150
 C171 C -0.13887 0.70755 1.17730
 C172 C -0.15200 0.73211 1.19111
 C173 C -0.17795 0.74515 1.17922
 C174 C -0.19060 0.73241 1.15344
 C175 C -0.17736 0.70785 1.13973
 C176 C -0.13698 0.67121 1.13649
 C177 C -0.12456 0.65127 1.12360
 C178 C -0.10931 0.62798 1.10782
 C179 C -0.08448 0.61423 1.12054
 C180 C -0.06877 0.59266 1.10460
 C181 C -0.07770 0.58458 1.07568
 C182 C -0.10297 0.59823 1.06328
 C183 C -0.11863 0.61981 1.07925
 H184 H -0.11871 0.69818 1.18658
 H185 H -0.14151 0.74101 1.21089
 H186 H -0.21053 0.74155 1.14352
 H187 H -0.18722 0.69871 1.11971
 H188 H -0.07707 0.62040 1.14264
 H189 H -0.04963 0.58230 1.11489
 H190 H -0.11018 0.59282 1.04092
 H191 H -0.13773 0.63043 1.06913
 C192 C -0.15253 0.30340 0.84616
 C193 C -0.14008 0.29092 0.82053
 C194 C -0.15373 0.26666 0.80668
 C195 C -0.18005 0.25450 0.81836
 C196 C -0.19261 0.26753 0.84391
 C197 C -0.17890 0.29179 0.85770
 C198 C -0.13771 0.32742 0.86122
 C199 C -0.12502 0.34715 0.87419
 C200 C -0.10955 0.37020 0.89009
 C201 C -0.08128 0.37912 0.88087
 C202 C -0.06565 0.40054 0.89709
 C203 C -0.07810 0.41329 0.92281
 C204 C -0.10671 0.40445 0.93166
 C205 C -0.12230 0.38304 0.91540
 H206 H -0.11963 0.29970 0.81145
 H207 H -0.14345 0.25724 0.78706
 H208 H -0.21283 0.25880 0.85351
 H209 H -0.18870 0.30125 0.87758
 H210 H -0.07114 0.36920 0.86140
 H211 H -0.04353 0.40655 0.88993
 H212 H -0.11704 0.41412 0.95114
 H213 H -0.14418 0.37630 0.92272
 C214 C 0.14804 0.69724 0.85127
 C215 C 0.17401 0.70890 0.86364
 C216 C 0.18854 0.73266 0.84984
 C217 C 0.17721 0.74526 0.82335
 C218 C 0.15125 0.73288 0.81087
 C219 C 0.13682 0.70913 0.82477
 C220 C 0.13228 0.67381 0.86631
 C221 C 0.11868 0.65464 0.87916
 C222 C 0.10199 0.63228 0.89481
 C223 C 0.11181 0.60274 0.89549
 C224 C 0.09558 0.58119 0.91096
 C225 C 0.06927 0.58896 0.92593
 C226 C 0.05961 0.61872 0.92505
 C227 C 0.07586 0.64020 0.90960
 H228 H 0.18286 0.69987 0.88420
 H229 H 0.20843 0.74131 0.86023
 H230 H 0.14173 0.74170 0.79054
 H231 H 0.11667 0.70028 0.81502
 H232 H 0.13199 0.59637 0.88407
 H233 H 0.10342 0.55842 0.91095
 H234 H 0.03973 0.62552 0.93672
 H235 H 0.06812 0.66303 0.90932
 C236 C 1.15162 0.15330 0.30452
 C237 C 1.17791 0.14167 0.29285
 C238 C 1.19152 0.15532 0.26846
 C239 C 1.17895 0.18090 0.25522
 C240 C 1.15266 0.19266 0.26759
 C241 C 1.13914 0.17891 0.29199
 C242 C 1.13690 0.13834 0.32868
 C243 C 1.12432 0.12541 0.34850
 C244 C 1.10901 0.10949 0.37165
 C245 C 1.11859 0.08107 0.38003
 C246 C 1.10295 0.06496 0.40152
 C247 C 1.07744 0.07707 0.41489
 C248 C 1.06822 0.10584 0.40659
 C249 C 1.08391 0.12192 0.38511
 H250 H 1.18773 0.12181 0.30238
 H251 H 1.21171 0.14551 0.25985
 H252 H 1.14221 0.21228 0.25829
 H253 H 1.11874 0.18807 0.30085
 H254 H 1.13789 0.07117 0.36963
 H255 H 1.11038 0.04273 0.40708
 H256 H 1.04889 0.11591 0.41673
 H257 H 1.07631 0.14391 0.37878
 C258 C 1.15270 -0.15177 0.69752
 C259 C 1.14031 -0.17765 0.70949
 C260 C 1.15357 -0.19157 0.73397
 C261 C 1.17951 -0.17974 0.74701
 C262 C 1.19203 -0.15389 0.73434
 C263 C 1.17868 -0.14005 0.70985
 C264 C 1.13817 -0.13668 0.67328
 C265 C 1.12562 -0.12376 0.65338
 C266 C 1.11021 -0.10802 0.63012
 C267 C 1.08215 -0.11758 0.62086
 C268 C 1.06652 -0.10155 0.59924
 C269 C 1.07876 -0.07566 0.58662
 C270 C 1.10717 -0.06645 0.59581
 C271 C 1.12276 -0.08254 0.61742
 H272 H 1.12016 -0.18688 0.70012
 H273 H 1.14317 -0.21141 0.74281
 H274 H 1.21197 -0.14401 0.74348
 H275 H 1.18843 -0.11998 0.70076
 H276 H 1.07215 -0.13719 0.63066
 H277 H 1.04455 -0.10899 0.59296
 H278 H 1.11734 -0.04683 0.58626
 H279 H 1.14448 -0.07494 0.62443
 C280 C 0.85407 -0.15015 0.30172
 C281 C 0.82808 -0.13782 0.28997
 C282 C 0.81350 -0.15170 0.26627
 C283 C 0.82477 -0.17822 0.25380
 C284 C 0.85075 -0.19065 0.26626
 C285 C 0.86525 -0.17667 0.28996
 C286 C 0.86984 -0.13504 0.32512
 C287 C 0.88338 -0.12207 0.34429
 C288 C 0.89992 -0.10626 0.36666
 C289 C 0.92586 -0.09114 0.35875
 C290 C 0.94190 -0.07544 0.38024
 C291 C 0.93220 -0.07464 0.41000
 C292 C 0.90610 -0.08996 0.41775
 C293 C 0.89008 -0.10568 0.39619
 H294 H 0.81926 -0.11725 0.29890
 H295 H 0.79359 -0.14134 0.25756
 H296 H 0.86023 -0.21101 0.25755
 H297 H 0.88539 -0.18639 0.29889
 H298 H 0.93361 -0.09134 0.33593
 H299 H 0.96163 -0.06351 0.37345
 H300 H 0.89824 -0.09003 0.44052
 H301 H 0.87005 -0.11734 0.40256
 C302 C 0.84952 0.14719 0.69591
 C303 C 0.86121 0.17352 0.70759
 C304 C 0.84695 0.18794 0.73114
 C305 C 0.82069 0.17615 0.74353
 C306 C 0.80891 0.14982 0.73114
 C307 C 0.82327 0.13549 0.70759
 C308 C 0.86503 0.13161 0.67267
 C309 C 0.87833 0.11824 0.65364
 C310 C 0.89457 0.10189 0.63145
 C311 C 0.90926 0.07562 0.63936
 C312 C 0.92542 0.05980 0.61808
 C313 C 0.92712 0.07006 0.58852
 C314 C 0.91221 0.09648 0.58075
 C315 C 0.89602 0.11228 0.60210
 H316 H 0.88157 0.18274 0.69872
 H317 H 0.85681 0.20813 0.73980
 H318 H 0.78878 0.13994 0.73980
 H319 H 0.81405 0.11507 0.69872
 H320 H 0.90839 0.06745 0.66205
 H321 H 0.93702 0.03981 0.62490
 H322 H 0.91283 0.10478 0.55812
 H323 H 0.88469 0.13258 0.59573
 C324 C 0.30451 1.15249 0.15152
 C325 C 0.29282 1.14082 0.17789
 C326 C 0.26859 1.15458 0.19159
 C327 C 0.25567 1.18022 0.17902
 C328 C 0.26791 1.19202 0.15271
 C329 C 0.29214 1.17821 0.13907
 C330 C 0.32850 1.13749 0.13667
 C331 C 0.34820 1.12461 0.12389
 C332 C 0.37121 1.10890 0.10825
 C333 C 0.38029 1.08076 0.11803
 C334 C 0.40167 1.06486 0.10208
 C335 C 0.41422 1.07690 0.07605
 C336 C 0.40521 1.10539 0.06663
 C337 C 0.38384 1.12125 0.08263
 H338 H 0.30219 1.12087 0.18768
 H339 H 0.25979 1.14489 0.21181
 H340 H 0.25858 1.21172 0.14242
 H341 H 0.30099 1.18739 0.11862
 H342 H 0.37054 1.07092 0.13775
 H343 H 0.40782 1.04283 0.10969
 H344 H 0.41472 1.11541 0.04690
 H345 H 0.37697 1.14303 0.07487
 C346 C 0.69382 1.14953 -0.15384
 C347 C 0.70544 1.17598 -0.14231
 C348 C 0.72963 1.18968 -0.15611
 C349 C 0.74260 1.17704 -0.18165
 C350 C 0.73043 1.15064 -0.19331
 C351 C 0.70624 1.13700 -0.17946
 C352 C 0.66988 1.13471 -0.13874
 C353 C 0.65024 1.12205 -0.12569
 C354 C 0.62729 1.10666 -0.10964
 C355 C 0.61911 1.11628 -0.08119
 C356 C 0.59781 1.10058 -0.06495
 C357 C 0.58443 1.07497 -0.07696
 C358 C 0.59253 1.06571 -0.10575
 C359 C 0.61383 1.08146 -0.12196
 H360 H 0.69603 1.18584 -0.12244
 H361 H 0.73836 1.20996 -0.14652
 H362 H 0.73981 1.14029 -0.21293
 H363 H 0.69745 1.11648 -0.18853
 H364 H 0.62951 1.13566 -0.07137
 H365 H 0.59238 1.10804 -0.04270
 H366 H 0.58238 1.04630 -0.11574
 H367 H 0.62001 1.07382 -0.14397
 C368 C 0.30280 0.84841 -0.14621
 C369 C 0.29159 0.86020 -0.17278
 C370 C 0.26779 0.84639 -0.18718
 C371 C 0.25480 0.82057 -0.17513
 C372 C 0.26657 0.80864 -0.14863
 C373 C 0.29038 0.82250 -0.13428
 C374 C 0.32627 0.86351 -0.13061
 C375 C 0.34549 0.87651 -0.11721
 C376 C 0.36787 0.89243 -0.10085
 C377 C 0.39705 0.89373 -0.11139
 C378 C 0.41857 0.90970 -0.09563
 C379 C 0.41115 0.92456 -0.06908
 C380 C 0.38176 0.92299 -0.05865
 C381 C 0.36031 0.90704 -0.07444
 H382 H 0.30100 0.88029 -0.18217
 H383 H 0.25935 0.85619 -0.20753
 H384 H 0.25718 0.78881 -0.13872
 H385 H 0.29885 0.81322 -0.11367
 H386 H 0.40315 0.88247 -0.13181
 H387 H 0.44105 0.91023 -0.10405
 H388 H 0.37521 0.93455 -0.03856
 H389 H 0.33776 0.90629 -0.06615
 C390 C 0.69895 0.85204 0.15057
 C391 C 0.71010 0.82548 0.13883
 C392 C 0.73392 0.81108 0.15269
 C393 C 0.74698 0.82313 0.17850
 C394 C 0.73527 0.84963 0.19037
 C395 C 0.71145 0.86398 0.17647
 C396 C 0.67544 0.86764 0.13546
 C397 C 0.65619 0.88107 0.12251
 C398 C 0.63373 0.89752 0.10671
 C399 C 0.60433 0.88753 0.10630
 C400 C 0.58269 0.90349 0.09063
 C401 C 0.59021 0.92969 0.07520
 C402 C 0.61984 0.93953 0.07582
 C403 C 0.64141 0.92355 0.09147
 H404 H 0.70063 0.81608 0.11875
 H405 H 0.74232 0.79073 0.14293
 H406 H 0.74472 0.85954 0.21019
 H407 H 0.70303 0.88457 0.18571
 H408 H 0.59815 0.86743 0.11807
 H409 H 0.56003 0.89552 0.09083
 H410 H 0.62644 0.95933 0.06379
 H411 H 0.66412 0.93141 0.09153
   
