data_POSCAR
  _audit_creation_date              2014-09-24
  _audit_creation_method            'ToBaCCo'
  _symmetry_space_group_name_H-M    'P1'
  _symmetry_Int_Tables_number       1
  _symmetry_cell_setting            triclinic
  loop_
  _symmetry_equiv_pos_as_xyz
 x,y,z
_cell_length_a 66.1467
_cell_length_b 65.5639
_cell_length_c 66.2066
_cell_angle_alpha 89.979300
_cell_angle_beta 89.942500
_cell_angle_gamma 90.032800
loop_
  _atom_site_label
  _atom_site_type_symbol
  _atom_site_fract_x
  _atom_site_fract_y
  _atom_site_fract_z
N1 N 0.60120 0.65690 0.61590
 N2 N 0.59300 0.64829 0.63184
 C3 C 0.57658 0.65907 0.63738
 C4 C 0.57433 0.67535 0.62420
 C5 C 0.59030 0.67343 0.61076
 H6 H 0.56709 0.65543 0.65018
 H7 H 0.59371 0.68320 0.59806
 Cu8 Cu 0.60460 0.62387 0.64388
 Cu9 Cu 0.62536 0.64609 0.60298
 Cu10 Cu 0.64692 0.60313 0.62455
 N11 N 0.61726 0.60010 0.65612
 N12 N 0.63377 0.59208 0.64850
 C13 C 0.63930 0.57595 0.65977
 C14 C 0.62551 0.57360 0.67545
 C15 C 0.61172 0.58934 0.67255
 H16 H 0.65244 0.56670 0.65664
 H17 H 0.59861 0.59281 0.68165
 N18 N 0.65799 0.61652 0.60029
 N19 N 0.64981 0.63289 0.59210
 C20 C 0.66078 0.63837 0.57583
 C21 C 0.67667 0.62479 0.57360
 C22 C 0.67437 0.61114 0.58942
 H23 H 0.65732 0.65120 0.56620
 H24 H 0.68400 0.59832 0.59289
 H25 H 0.62142 0.61616 0.61197
 H26 H 0.63705 0.63275 0.62876
 N27 N 0.89881 0.34248 0.11591
 N28 N 0.90667 0.35075 0.13216
 C29 C 0.92304 0.33994 0.13774
 C30 C 0.92567 0.32392 0.12423
 C31 C 0.90988 0.32614 0.11057
 H32 H 0.93228 0.34355 0.15068
 H33 H 0.90654 0.31666 0.09765
 Cu34 Cu 0.89468 0.37486 0.14442
 Cu35 Cu 0.87479 0.35346 0.10283
 Cu36 Cu 0.85316 0.39642 0.12443
 N37 N 0.88241 0.39897 0.15641
 N38 N 0.86616 0.40728 0.14853
 C39 C 0.86080 0.42359 0.15963
 C40 C 0.87442 0.42570 0.17539
 C41 C 0.88794 0.40975 0.17281
 H42 H 0.84800 0.43327 0.15633
 H43 H 0.90076 0.40615 0.18226
 N44 N 0.84226 0.38317 0.10004
 N45 N 0.85047 0.36681 0.09184
 C46 C 0.83960 0.36142 0.07550
 C47 C 0.82376 0.37505 0.07324
 C48 C 0.82598 0.38862 0.08912
 H49 H 0.84308 0.34861 0.06586
 H50 H 0.81634 0.40145 0.09259
 H51 H 0.87880 0.38323 0.11226
 H52 H 0.86252 0.36662 0.12841
 N53 N 0.39842 0.15764 -0.11605
 N54 N 0.40634 0.14932 -0.13228
 C55 C 0.42277 0.16011 -0.13782
 C56 C 0.42531 0.17610 -0.12435
 C57 C 0.40951 0.17399 -0.11074
 H58 H 0.43207 0.15667 -0.15080
 H59 H 0.40634 0.18351 -0.09780
 Cu60 Cu 0.39433 0.12523 -0.14455
 Cu61 Cu 0.37435 0.14670 -0.10298
 Cu62 Cu 0.35271 0.10374 -0.12459
 N63 N 0.38204 0.10114 -0.15654
 N64 N 0.36575 0.09285 -0.14867
 C65 C 0.36038 0.07654 -0.15977
 C66 C 0.37405 0.07441 -0.17552
 C67 C 0.38760 0.09035 -0.17293
 H68 H 0.34756 0.06688 -0.15647
 H69 H 0.40045 0.09393 -0.18237
 N70 N 0.34177 0.11701 -0.10021
 N71 N 0.34998 0.13337 -0.09201
 C72 C 0.33909 0.13876 -0.07567
 C73 C 0.32321 0.12515 -0.07341
 C74 C 0.32545 0.11157 -0.08929
 H75 H 0.34257 0.15157 -0.06603
 H76 H 0.31580 0.09875 -0.09276
 H77 H 0.37834 0.11691 -0.11239
 H78 H 0.36214 0.13353 -0.12858
 N79 N 0.10170 0.84190 0.38369
 N80 N 0.09410 0.84993 0.36719
 C81 C 0.07772 0.83911 0.36161
 C82 C 0.07483 0.82332 0.37535
 C83 C 0.09047 0.82570 0.38917
 H84 H 0.06865 0.84257 0.34850
 H85 H 0.09358 0.81643 0.40229
 Cu86 Cu 0.10629 0.87379 0.35461
 Cu87 Cu 0.12557 0.85301 0.39688
 Cu88 Cu 0.14715 0.89605 0.37539
 N89 N 0.11827 0.89831 0.34310
 N90 N 0.13423 0.90690 0.35127
 C91 C 0.13938 0.92346 0.34040
 C92 C 0.12590 0.92545 0.32450
 C93 C 0.11269 0.90917 0.32676
 H94 H 0.15192 0.93338 0.34396
 H95 H 0.10005 0.90540 0.31714
 N96 N 0.15801 0.88282 0.39980
 N97 N 0.14977 0.86647 0.40800
 C98 C 0.16058 0.86112 0.42440
 C99 C 0.17644 0.87474 0.42666
 C100 C 0.17428 0.88829 0.41075
 H101 H 0.15726 0.84812 0.43386
 H102 H 0.18376 0.90128 0.40744
 H103 H 0.12133 0.88265 0.38704
 H104 H 0.13820 0.86611 0.37143
 C105 C 0.11590 0.14253 0.11674
 C106 C 0.13324 0.13382 0.10812
 C107 C 0.14178 0.11663 0.11668
 C108 C 0.13315 0.10796 0.13403
 C109 C 0.11607 0.11654 0.14253
 C110 C 0.10740 0.13398 0.13385
 C111 C 0.10435 0.15920 0.11164
 N112 N 0.08903 0.16100 0.12523
 C113 C 0.09083 0.14559 0.13888
 C114 C 0.11103 0.10496 0.15912
 N115 N 0.12464 0.08953 0.16092
 C116 C 0.13824 0.09130 0.14559
 C117 C 0.15834 0.11152 0.10516
 N118 N 0.16009 0.12519 0.08980
 C119 C 0.14475 0.13889 0.09154
 H120 H 0.10711 0.16940 0.09908
 H121 H 0.08067 0.14281 0.15141
 H122 H 0.09850 0.10777 0.16928
 H123 H 0.15077 0.08106 0.14283
 H124 H 0.16851 0.09891 0.10797
 H125 H 0.14196 0.15148 0.08135
 C126 C 0.38354 0.85754 0.61665
 C127 C 0.36623 0.86626 0.60801
 C128 C 0.35767 0.88345 0.61655
 C129 C 0.36633 0.89219 0.63383
 C130 C 0.38341 0.88362 0.64233
 C131 C 0.39205 0.86614 0.63371
 C132 C 0.39509 0.84085 0.61159
 N133 N 0.41040 0.83908 0.62517
 C134 C 0.40862 0.85454 0.63875
 C135 C 0.38846 0.89525 0.65887
 N136 N 0.37485 0.91069 0.66065
 C137 C 0.36125 0.90888 0.64535
 C138 C 0.34109 0.88851 0.60508
 N139 N 0.33936 0.87482 0.58974
 C140 C 0.35473 0.86116 0.59146
 H141 H 0.39232 0.83061 0.59907
 H142 H 0.41878 0.85736 0.65125
 H143 H 0.40098 0.89246 0.66901
 H144 H 0.34871 0.91911 0.64260
 H145 H 0.33120 0.90140 0.60759
 H146 H 0.35725 0.84826 0.58158
 C147 C 0.88403 0.64232 0.38344
 C148 C 0.86672 0.63360 0.39211
 C149 C 0.85813 0.61642 0.38358
 C150 C 0.86677 0.60768 0.36627
 C151 C 0.88386 0.61626 0.35774
 C152 C 0.89252 0.63373 0.36635
 C153 C 0.89560 0.65900 0.38849
 N154 N 0.91092 0.66078 0.37488
 C155 C 0.90910 0.64534 0.36128
 C156 C 0.88888 0.60464 0.34118
 N157 N 0.87525 0.58920 0.33942
 C158 C 0.86167 0.59100 0.35475
 C159 C 0.84155 0.61134 0.39510
 N160 N 0.83986 0.62501 0.41046
 C161 C 0.85524 0.63867 0.40871
 H162 H 0.89286 0.66923 0.40102
 H163 H 0.91925 0.64253 0.34876
 H164 H 0.90140 0.60744 0.33101
 H165 H 0.84912 0.58077 0.35754
 H166 H 0.83165 0.59845 0.39260
 H167 H 0.85778 0.65157 0.41859
 C168 C 0.61652 0.35808 -0.11661
 C169 C 0.63383 0.36681 -0.10798
 C170 C 0.64238 0.38402 -0.11652
 C171 C 0.63371 0.39278 -0.13379
 C172 C 0.61663 0.38420 -0.14227
 C173 C 0.60800 0.36669 -0.13365
 C174 C 0.60498 0.34137 -0.11155
 N175 N 0.58966 0.33960 -0.12512
 C176 C 0.59143 0.35507 -0.13869
 C177 C 0.61157 0.39584 -0.15880
 N178 N 0.62518 0.41129 -0.16059
 C179 C 0.63878 0.40949 -0.14531
 C180 C 0.65898 0.38908 -0.10505
 N181 N 0.66072 0.37538 -0.08972
 C182 C 0.64535 0.36171 -0.09144
 H183 H 0.60775 0.33112 -0.09904
 H184 H 0.58127 0.35789 -0.15118
 H185 H 0.59905 0.39303 -0.16894
 H186 H 0.65133 0.41972 -0.14256
 H187 H 0.66888 0.40199 -0.10757
 H188 H 0.64284 0.34879 -0.08157
 C189 C -0.04345 0.27852 0.10958
 C190 C -0.02864 0.27860 0.12461
 C191 C -0.02894 0.29369 0.13951
 C192 C -0.04398 0.30866 0.13942
 C193 C -0.05909 0.30882 0.12435
 C194 C -0.05853 0.29345 0.10942
 C195 C -0.01314 0.26320 0.12475
 C196 C -0.00018 0.25029 0.12484
 C197 C 0.01499 0.23515 0.12494
 C198 C 0.02793 0.22222 0.12501
 C199 C 0.04338 0.20677 0.12507
 C200 C 0.04932 0.19770 0.14325
 C201 C 0.06430 0.18266 0.14332
 C202 C 0.07358 0.17651 0.12518
 C203 C 0.06750 0.18575 0.10698
 C204 C 0.05250 0.20077 0.10695
 H205 H -0.04336 0.26689 0.09796
 H206 H -0.01752 0.29389 0.15123
 H207 H -0.04359 0.32000 0.15125
 H208 H -0.06965 0.29275 0.09750
 H209 H 0.04240 0.20227 0.15738
 H210 H 0.06881 0.17607 0.15761
 H211 H 0.07412 0.18118 0.09274
 H212 H 0.04797 0.20765 0.09277
 C213 C 0.54507 0.72375 0.61237
 C214 C 0.52807 0.72147 0.62473
 C215 C 0.52616 0.70417 0.63695
 C216 C 0.54118 0.68918 0.63681
 C217 C 0.55837 0.69128 0.62441
 C218 C 0.56012 0.70878 0.61218
 C219 C 0.51258 0.73688 0.62487
 C220 C 0.49961 0.74979 0.62495
 C221 C 0.48444 0.76492 0.62502
 C222 C 0.47149 0.77784 0.62507
 C223 C 0.45604 0.79329 0.62510
 C224 C 0.45011 0.80244 0.64325
 C225 C 0.43513 0.81748 0.64329
 C226 C 0.42585 0.82356 0.62514
 C227 C 0.43192 0.81424 0.60697
 C228 C 0.44691 0.79922 0.60697
 H229 H 0.54672 0.73711 0.60287
 H230 H 0.51303 0.70223 0.64656
 H231 H 0.53917 0.67591 0.64630
 H232 H 0.57314 0.71107 0.60256
 H233 H 0.45704 0.79792 0.65739
 H234 H 0.43063 0.82412 0.65756
 H235 H 0.42529 0.81876 0.59273
 H236 H 0.45143 0.79228 0.59282
 C237 C 1.02948 0.79303 0.35999
 C238 C 1.02891 0.77819 0.37514
 C239 C 1.04353 0.77830 0.39036
 C240 C 1.05868 0.79317 0.39047
 C241 C 1.05951 0.80829 0.37529
 C242 C 1.04460 0.80794 0.36003
 C243 C 1.01335 0.76283 0.37505
 C244 C 1.00034 0.74996 0.37499
 C245 C 0.98512 0.73486 0.37494
 C246 C 0.97213 0.72196 0.37491
 C247 C 0.95664 0.70653 0.37490
 C248 C 0.94751 0.70058 0.39304
 C249 C 0.93248 0.68558 0.39305
 C250 C 0.92639 0.67629 0.37488
 C251 C 0.93568 0.68239 0.35672
 C252 C 0.95069 0.69741 0.35675
 H253 H 1.01822 0.79308 0.34812
 H254 H 1.04323 0.76686 0.40217
 H255 H 1.06965 0.79262 0.40254
 H256 H 1.04442 0.81909 0.34801
 H257 H 0.95205 0.70749 0.40719
 H258 H 0.92586 0.68105 0.40731
 H259 H 0.93116 0.67577 0.34246
 H260 H 0.95762 0.70194 0.34260
 C261 C 0.47343 0.20498 -0.13730
 C262 C 0.47181 0.22204 -0.12473
 C263 C 0.45502 0.22411 -0.11203
 C264 C 0.43991 0.20920 -0.11189
 C265 C 0.44136 0.19195 -0.12449
 C266 C 0.45833 0.19004 -0.13720
 C267 C 0.48735 0.23741 -0.12484
 C268 C 0.50035 0.25030 -0.12491
 C269 C 0.51556 0.26541 -0.12498
 C270 C 0.52853 0.27833 -0.12502
 C271 C 0.54400 0.29377 -0.12505
 C272 C 0.55314 0.29969 -0.10692
 C273 C 0.56814 0.31472 -0.10693
 C274 C 0.57421 0.32406 -0.12510
 C275 C 0.56492 0.31798 -0.14324
 C276 C 0.54994 0.30293 -0.14320
 H277 H 0.48639 0.20321 -0.14717
 H278 H 0.45359 0.23728 -0.10225
 H279 H 0.42706 0.21134 -0.10201
 H280 H 0.46012 0.17697 -0.14700
 H281 H 0.54862 0.29274 -0.09277
 H282 H 0.57477 0.31923 -0.09268
 H283 H 0.56943 0.32464 -0.15751
 H284 H 0.54300 0.29842 -0.15734
 C285 C 0.10883 -0.04151 0.28055
 C286 C 0.12527 -0.02826 0.27841
 C287 C 0.14191 -0.03009 0.29131
 C288 C 0.14212 -0.04512 0.30630
 C289 C 0.12567 -0.05856 0.30860
 C290 C 0.10901 -0.05656 0.29552
 C291 C 0.12509 -0.01279 0.26298
 C292 C 0.12497 0.00016 0.25005
 C293 C 0.12486 0.01533 0.23492
 C294 C 0.12480 0.02828 0.22200
 C295 C 0.12475 0.04376 0.20657
 C296 C 0.14289 0.04973 0.19744
 C297 C 0.14288 0.06475 0.18244
 C298 C 0.12468 0.07403 0.17639
 C299 C 0.10651 0.06790 0.18568
 C300 C 0.10657 0.05287 0.20066
 H301 H 0.09586 -0.04020 0.27066
 H302 H 0.15474 -0.01993 0.28976
 H303 H 0.15528 -0.04623 0.31592
 H304 H 0.09600 -0.06646 0.29687
 H305 H 0.15707 0.04282 0.20194
 H306 H 0.15714 0.06930 0.17581
 H307 H 0.09223 0.07452 0.18119
 H308 H 0.09242 0.04831 0.20759
 C309 C 0.61025 0.54346 -0.27907
 C310 C 0.62543 0.52865 -0.27851
 C311 C 0.64064 0.52874 -0.29316
 C312 C 0.64071 0.54355 -0.30835
 C313 C 0.62549 0.55864 -0.30918
 C314 C 0.61025 0.55831 -0.29422
 C315 C 0.62537 0.51334 -0.26292
 C316 C 0.62533 0.50049 -0.24989
 C317 C 0.62530 0.48542 -0.23467
 C318 C 0.62527 0.47252 -0.22168
 C319 C 0.62524 0.45710 -0.20621
 C320 C 0.60707 0.44797 -0.20025
 C321 C 0.60703 0.43293 -0.18527
 C322 C 0.62520 0.42683 -0.17602
 C323 C 0.64339 0.43614 -0.18212
 C324 C 0.64339 0.45116 -0.19711
 H325 H 0.59839 0.54353 -0.26777
 H326 H 0.65247 0.51732 -0.29287
 H327 H 0.65277 0.54299 -0.31935
 H328 H 0.59821 0.56944 -0.29404
 H329 H 0.59292 0.45250 -0.20715
 H330 H 0.59275 0.42629 -0.18074
 H331 H 0.65765 0.43161 -0.17552
 H332 H 0.65756 0.45808 -0.20166
 C333 C 0.35758 1.03061 0.79072
 C334 C 0.37439 1.02846 0.77807
 C335 C 0.39108 1.04132 0.78054
 C336 C 0.39099 1.05627 0.79560
 C337 C 0.37416 1.05857 0.80844
 C338 C 0.35744 1.04553 0.80580
 C339 C 0.37451 1.01305 0.76259
 C340 C 0.37460 1.00013 0.74965
 C341 C 0.37467 0.98498 0.73451
 C342 C 0.37472 0.97203 0.72159
 C343 C 0.37476 0.95655 0.70618
 C344 C 0.35661 0.95057 0.69709
 C345 C 0.35662 0.93553 0.68213
 C346 C 0.37482 0.92623 0.67606
 C347 C 0.39298 0.93236 0.68532
 C348 C 0.39293 0.94742 0.70026
 H349 H 0.34455 1.02075 0.78893
 H350 H 0.40420 1.03977 0.77085
 H351 H 0.40420 1.06586 0.79721
 H352 H 0.34416 1.04688 0.81523
 H353 H 0.34244 0.95750 0.70161
 H354 H 0.34236 0.93098 0.67553
 H355 H 0.40726 0.92573 0.68082
 H356 H 0.40708 0.95198 0.70716
 C357 C 0.85788 0.46940 0.20925
 C358 C 0.87472 0.47161 0.22182
 C359 C 0.89146 0.45884 0.21926
 C360 C 0.89138 0.44391 0.20419
 C361 C 0.87453 0.44154 0.19143
 C362 C 0.85777 0.45448 0.19416
 C363 C 0.87483 0.48700 0.23733
 C364 C 0.87490 0.49990 0.25029
 C365 C 0.87498 0.51502 0.26546
 C366 C 0.87504 0.52795 0.27840
 C367 C 0.87510 0.54340 0.29384
 C368 C 0.89328 0.55253 0.29972
 C369 C 0.89335 0.56757 0.31469
 C370 C 0.87520 0.57368 0.32400
 C371 C 0.85700 0.56438 0.31797
 C372 C 0.85696 0.54935 0.30299
 H373 H 0.84482 0.47918 0.21113
 H374 H 0.90460 0.46045 0.22889
 H375 H 0.90462 0.43439 0.20250
 H376 H 0.84446 0.45307 0.18480
 H377 H 0.90742 0.54799 0.29278
 H378 H 0.90764 0.57420 0.31915
 H379 H 0.84274 0.56891 0.32462
 H380 H 0.84278 0.54243 0.29851
 C381 C 0.28995 0.14197 -0.02967
 C382 C 0.27723 0.12508 -0.02738
 C383 C 0.27950 0.10821 -0.04011
 C384 C 0.29443 0.10821 -0.05507
 C385 C 0.30734 0.12512 -0.05752
 C386 C 0.30490 0.14201 -0.04461
 C387 C 0.26185 0.12506 -0.01199
 C388 C 0.24896 0.12505 0.00090
 C389 C 0.23388 0.12505 0.01599
 C390 C 0.22099 0.12507 0.02887
 C391 C 0.20560 0.12510 0.04426
 C392 C 0.19649 0.14342 0.05010
 C393 C 0.18154 0.14347 0.06504
 C394 C 0.17550 0.12516 0.07437
 C395 C 0.18478 0.10681 0.06838
 C396 C 0.19972 0.10680 0.05343
 H397 H 0.28830 0.15513 -0.01991
 H398 H 0.26975 0.09503 -0.03845
 H399 H 0.29590 0.09487 -0.06456
 H400 H 0.31438 0.15537 -0.04609
 H401 H 0.20097 0.15769 0.04315
 H402 H 0.17492 0.15787 0.06948
 H403 H 0.18031 0.09243 0.07505
 H404 H 0.20663 0.09251 0.04898
 C405 C 0.71009 0.64180 0.53003
 C406 C 0.72276 0.62489 0.52768
 C407 C 0.72041 0.60796 0.54033
 C408 C 0.70545 0.60791 0.55526
 C409 C 0.69259 0.62483 0.55776
 C410 C 0.69510 0.64179 0.54494
 C411 C 0.73816 0.62491 0.51231
 C412 C 0.75105 0.62493 0.49943
 C413 C 0.76614 0.62495 0.48434
 C414 C 0.77901 0.62496 0.47144
 C415 C 0.79438 0.62499 0.45603
 C416 C 0.79027 0.61677 0.43697
 C417 C 0.80519 0.61677 0.42200
 C418 C 0.82445 0.62501 0.42589
 C419 C 0.82841 0.63324 0.44512
 C420 C 0.81347 0.63321 0.46007
 H421 H 0.71180 0.65501 0.52034
 H422 H 0.73012 0.59477 0.53862
 H423 H 0.70392 0.59452 0.56468
 H424 H 0.68566 0.65516 0.54646
 H425 H 0.77552 0.61042 0.43366
 H426 H 0.80155 0.61057 0.40730
 H427 H 0.84314 0.63944 0.44871
 H428 H 0.81684 0.63956 0.47480
 C429 C 0.79051 0.35823 0.02954
 C430 C 0.77787 0.37516 0.02721
 C431 C 0.78021 0.39206 0.03988
 C432 C 0.79511 0.39205 0.05485
 C433 C 0.80792 0.37509 0.05735
 C434 C 0.80543 0.35817 0.04449
 C435 C 0.76251 0.37519 0.01182
 C436 C 0.74964 0.37522 -0.00105
 C437 C 0.73456 0.37525 -0.01612
 C438 C 0.72168 0.37528 -0.02898
 C439 C 0.70628 0.37530 -0.04432
 C440 C 0.71035 0.38357 -0.06339
 C441 C 0.69540 0.38361 -0.07830
 C442 C 0.67615 0.37536 -0.07435
 C443 C 0.67223 0.36707 -0.05512
 C444 C 0.68720 0.36707 -0.04022
 H445 H 0.78881 0.34504 0.01983
 H446 H 0.77052 0.40528 0.03818
 H447 H 0.79662 0.40541 0.06429
 H448 H 0.81484 0.34478 0.04600
 H449 H 0.72510 0.38993 -0.06675
 H450 H 0.69901 0.38984 -0.09300
 H451 H 0.65751 0.36086 -0.05149
 H452 H 0.68386 0.36068 -0.02550
 C453 C 0.20520 0.86240 0.47478
 C454 C 0.22229 0.87481 0.47273
 C455 C 0.22441 0.88720 0.45566
 C456 C 0.20952 0.88721 0.44069
 C457 C 0.19225 0.87478 0.44257
 C458 C 0.19028 0.86237 0.45983
 C459 C 0.23764 0.87480 0.48812
 C460 C 0.25050 0.87479 0.50100
 C461 C 0.26558 0.87478 0.51608
 C462 C 0.27845 0.87478 0.52894
 C463 C 0.29384 0.87479 0.54430
 C464 C 0.28976 0.88302 0.56337
 C465 C 0.30469 0.88305 0.57830
 C466 C 0.32394 0.87481 0.57435
 C467 C 0.32788 0.86655 0.55512
 C468 C 0.31292 0.86656 0.54021
 H469 H 0.20338 0.85277 0.48796
 H470 H 0.23761 0.89684 0.45390
 H471 H 0.21170 0.89684 0.42760
 H472 H 0.17718 0.85273 0.46195
 H473 H 0.27501 0.88937 0.56672
 H474 H 0.30108 0.88926 0.59300
 H475 H 0.34259 0.86035 0.55150
 H476 H 0.31626 0.86020 0.52548
   
