data_POSCAR
  _audit_creation_date              2014-09-24
  _audit_creation_method            'ToBaCCo'
  _symmetry_space_group_name_H-M    'P1'
  _symmetry_Int_Tables_number       1
  _symmetry_cell_setting            triclinic
  loop_
  _symmetry_equiv_pos_as_xyz
 x,y,z
_cell_length_a 36.9970
_cell_length_b 33.9536
_cell_length_c 33.8710
_cell_angle_alpha 89.514900
_cell_angle_beta 90.018500
_cell_angle_gamma 89.916800
loop_
  _atom_site_label
  _atom_site_type_symbol
  _atom_site_fract_x
  _atom_site_fract_y
  _atom_site_fract_z
C1 C 0.30404 0.30441 0.23388
 H2 H 0.30498 0.30518 0.26580
 C3 C 0.32791 0.32745 0.21171
 H4 H 0.34682 0.34639 0.22684
 C5 C 0.27798 0.27882 0.17559
 H6 H 0.25901 0.25925 0.16159
 C7 C 0.30137 0.30136 0.15226
 H8 H 0.30004 0.29885 0.12045
 N9 N 0.27943 0.28107 0.21564
 C10 C 0.19375 0.26447 0.30271
 H11 H 0.19229 0.23265 0.30349
 C12 C 0.17058 0.28670 0.32625
 H13 H 0.15163 0.27170 0.34550
 C14 C 0.22063 0.32250 0.27686
 H15 H 0.23971 0.33639 0.25709
 C16 C 0.19798 0.34587 0.29991
 H17 H 0.19994 0.37762 0.29756
 Zn18 Zn 0.24879 0.25009 0.24811
 N19 N 0.21848 0.28254 0.27906
 C20 C 0.27708 0.22083 0.32087
 N21 N 0.27899 0.21876 0.28084
 C22 C 0.30366 0.19527 0.26282
 C23 C 0.32715 0.17189 0.28521
 C24 C 0.30005 0.19792 0.34442
 C25 C 0.19427 0.23600 0.19271
 C26 C 0.17102 0.21380 0.16928
 C27 C 0.19727 0.15457 0.19710
 C28 C 0.22006 0.17792 0.21994
 N29 N 0.21850 0.21786 0.21700
 H30 H 0.25803 0.24048 0.33470
 H31 H 0.30493 0.19462 0.23091
 H32 H 0.34614 0.15285 0.27027
 H33 H 0.29836 0.20023 0.37622
 H34 H 0.19324 0.26783 0.19137
 H35 H 0.15249 0.22884 0.14952
 H36 H 0.19869 0.12285 0.20016
 H37 H 0.23873 0.16401 0.24023
 C38 C 0.17264 0.32800 0.32519
 C39 C 0.32672 0.32617 0.17029
 C40 C 0.17241 0.17247 0.17119
 C41 C 0.32547 0.17295 0.32661
 C42 C 0.80675 0.80404 0.23657
 H43 H 0.80912 0.80322 0.26841
 C44 C 0.83022 0.82747 0.21428
 H45 H 0.84961 0.84523 0.23001
 C46 C 0.77716 0.78258 0.17875
 H47 H 0.75708 0.76429 0.16486
 C48 C 0.79972 0.80594 0.15527
 H49 H 0.79655 0.80420 0.12360
 N50 N 0.78069 0.78247 0.21866
 C51 C 0.69574 0.76514 0.30614
 H52 H 0.69421 0.73332 0.30670
 C53 C 0.67225 0.78730 0.32936
 H54 H 0.65301 0.77224 0.34822
 C55 C 0.72297 0.82325 0.28090
 H56 H 0.74235 0.83717 0.26148
 C57 C 0.70000 0.84656 0.30363
 H58 H 0.70195 0.87831 0.30137
 Zn59 Zn 0.75064 0.75107 0.25142
 N60 N 0.72067 0.78330 0.28282
 C61 C 0.77949 0.72154 0.32372
 N62 N 0.78125 0.71971 0.28366
 C63 C 0.80591 0.69639 0.26540
 C64 C 0.82954 0.67295 0.28756
 C65 C 0.80259 0.69857 0.34703
 C66 C 0.69500 0.73687 0.19725
 C67 C 0.67136 0.71457 0.17437
 C68 C 0.69848 0.65548 0.20144
 C69 C 0.72171 0.67892 0.22364
 N70 N 0.71991 0.71886 0.22078
 H71 H 0.76041 0.74102 0.33773
 H72 H 0.80705 0.69591 0.23348
 H73 H 0.84852 0.65403 0.27243
 H74 H 0.80100 0.70069 0.37886
 H75 H 0.69369 0.76870 0.19609
 H76 H 0.65236 0.72955 0.15512
 H77 H 0.70012 0.62376 0.20450
 H78 H 0.74087 0.66509 0.24342
 C79 C 0.67422 0.82860 0.32832
 C80 C 0.82698 0.82911 0.17274
 C81 C 0.67299 0.67324 0.17617
 C82 C 0.82799 0.67375 0.32898
 C83 C 0.80206 0.30590 0.73512
 H84 H 0.80258 0.30671 0.76704
 C85 C 0.82568 0.32954 0.71326
 H86 H 0.84404 0.34894 0.72860
 C87 C 0.77731 0.27955 0.67647
 H88 H 0.75895 0.25945 0.66224
 C89 C 0.80041 0.30274 0.65345
 H90 H 0.79952 0.30022 0.62162
 N91 N 0.77833 0.28176 0.71653
 C92 C 0.69373 0.26240 0.80439
 H93 H 0.69406 0.23060 0.80671
 C94 C 0.67002 0.28419 0.82769
 H95 H 0.65219 0.26912 0.84817
 C96 C 0.71613 0.32078 0.77439
 H97 H 0.73386 0.33491 0.75330
 C98 C 0.69227 0.34365 0.79649
 H99 H 0.69219 0.37537 0.79275
 Zn100 Zn 0.74836 0.24956 0.74851
 N101 N 0.71679 0.28094 0.77910
 C102 C 0.77599 0.21843 0.82107
 N103 N 0.77917 0.21869 0.78116
 C104 C 0.80545 0.19759 0.76304
 C105 C 0.82940 0.17440 0.78508
 C106 C 0.79888 0.19517 0.84432
 C107 C 0.69411 0.23478 0.69343
 C108 C 0.67094 0.21241 0.67011
 C109 C 0.69927 0.15341 0.69592
 C110 C 0.72193 0.17694 0.71876
 N111 N 0.71914 0.21686 0.71687
 H112 H 0.75598 0.23663 0.83522
 H113 H 0.80758 0.19851 0.73119
 H114 H 0.84853 0.15689 0.76869
 H115 H 0.79577 0.19743 0.87593
 H116 H 0.69221 0.26658 0.69288
 H117 H 0.65159 0.22729 0.65119
 H118 H 0.70156 0.12168 0.69818
 H119 H 0.74140 0.16323 0.73827
 C120 C 0.66920 0.32532 0.82384
 C121 C 0.82504 0.32815 0.67183
 C122 C 0.67333 0.17112 0.67118
 C123 C 0.82648 0.17219 0.82678
 C124 C 0.30455 0.80437 0.73697
 H125 H 0.30589 0.80501 0.76887
 C126 C 0.32794 0.82775 0.71453
 H127 H 0.34692 0.84677 0.72944
 C128 C 0.27790 0.77883 0.67896
 H129 H 0.25886 0.75920 0.66517
 C130 C 0.30077 0.80173 0.65538
 H131 H 0.29901 0.79942 0.62357
 N132 N 0.27990 0.78088 0.71899
 C133 C 0.19457 0.76355 0.80632
 H134 H 0.19340 0.73173 0.80747
 C135 C 0.17099 0.78581 0.82938
 H136 H 0.15158 0.77088 0.84814
 C137 C 0.22063 0.82159 0.77948
 H138 H 0.23967 0.83547 0.75965
 C139 C 0.19744 0.84498 0.80185
 H140 H 0.19942 0.87673 0.79955
 Zn141 Zn 0.24986 0.74946 0.75169
 N142 N 0.21911 0.78164 0.78245
 C143 C 0.27780 0.71944 0.82444
 N144 N 0.28062 0.71873 0.78440
 C145 C 0.30667 0.69710 0.76631
 C146 C 0.33090 0.67453 0.78862
 C147 C 0.30126 0.69702 0.84787
 C148 C 0.19482 0.73450 0.69737
 C149 C 0.17163 0.71201 0.67417
 C150 C 0.20009 0.65314 0.70006
 C151 C 0.22277 0.67678 0.72276
 N152 N 0.22000 0.71670 0.72071
 H153 H 0.25759 0.73757 0.83837
 H154 H 0.30860 0.69747 0.73444
 H155 H 0.35122 0.65716 0.77370
 H156 H 0.29876 0.69804 0.87969
 H157 H 0.19293 0.76630 0.69668
 H158 H 0.15225 0.72682 0.65522
 H159 H 0.20246 0.62142 0.70239
 H160 H 0.24236 0.66315 0.74220
 C161 C 0.17232 0.82711 0.82737
 C162 C 0.32617 0.82668 0.67313
 C163 C 0.17412 0.67073 0.67527
 C164 C 0.32825 0.67421 0.82996
 Si165 Si -0.00049 0.00057 -0.00123
 Si166 Si 0.00205 0.49954 0.50111
 Si167 Si 0.49950 -0.00035 0.49964
 Si168 Si 0.50330 0.50006 0.00097
 C169 C 0.10088 -0.10202 -0.10194
 C170 C 0.11749 -0.13581 -0.08587
 C171 C 0.14053 -0.15887 -0.10884
 C172 C 0.14760 -0.14858 -0.14835
 C173 C 0.13103 -0.11482 -0.16444
 C174 C 0.10788 -0.09184 -0.14153
 C175 C 0.07636 -0.07749 -0.07754
 C176 C 0.07696 -0.03617 -0.08081
 C177 C 0.05382 -0.01316 -0.05793
 C178 C 0.02957 -0.03097 -0.03157
 C179 C 0.02918 -0.07209 -0.02774
 C180 C 0.05224 -0.09517 -0.05066
 H181 H 0.15333 -0.18439 -0.09547
 H182 H 0.13553 -0.10649 -0.19498
 H183 H 0.05486 0.01861 -0.06082
 H184 H 0.01130 -0.08656 -0.00701
 H185 H 0.09504 -0.06640 -0.15500
 H186 H 0.09566 -0.02158 -0.10066
 H187 H 0.11315 -0.14411 -0.05531
 H188 H 0.05090 -0.12690 -0.04761
 C189 C 0.10269 0.39838 0.39818
 C190 C 0.08946 0.36457 0.37941
 C191 C 0.11211 0.34179 0.35571
 C192 C 0.14851 0.35229 0.35024
 C193 C 0.16173 0.38612 0.36901
 C194 C 0.13909 0.40890 0.39270
 C195 C 0.07859 0.42259 0.42333
 C196 C 0.08041 0.46395 0.42198
 C197 C 0.05749 0.48665 0.44541
 C198 C 0.03220 0.46849 0.47035
 C199 C 0.03066 0.42730 0.47233
 C200 C 0.05355 0.40452 0.44891
 H201 H 0.10095 0.31626 0.34116
 H202 H 0.18979 0.39463 0.36590
 H203 H 0.05928 0.51847 0.44382
 H204 H 0.01202 0.41253 0.49203
 H205 H 0.15023 0.43443 0.40725
 H206 H 0.09919 0.47876 0.40238
 H207 H 0.06141 0.35605 0.38254
 H208 H 0.05200 0.37275 0.45120
 C209 C 0.60209 -0.10119 0.39884
 C210 C 0.63852 -0.09038 0.39435
 C211 C 0.66190 -0.11314 0.37151
 C212 C 0.64938 -0.14720 0.35261
 C213 C 0.61292 -0.15796 0.35707
 C214 C 0.58955 -0.13523 0.37995
 C215 C 0.57724 -0.07706 0.42315
 C216 C 0.55197 -0.09521 0.44839
 C217 C 0.52857 -0.07252 0.47127
 C218 C 0.52981 -0.03132 0.46903
 C219 C 0.55518 -0.01307 0.44427
 C220 C 0.57864 -0.03570 0.42142
 H221 H 0.68996 -0.10440 0.36915
 H222 H 0.60229 -0.18366 0.34236
 H223 H 0.50984 -0.08733 0.49083
 H224 H 0.55675 0.01875 0.44250
 H225 H 0.56150 -0.14396 0.38234
 H226 H 0.55071 -0.12699 0.45092
 H227 H 0.64910 -0.06465 0.40904
 H228 H 0.59758 -0.02085 0.40203
 C229 C 0.59919 0.39535 -0.10397
 C230 C 0.62264 0.36764 -0.08665
 C231 C 0.64493 0.34435 -0.11022
 C232 C 0.64469 0.34904 -0.15144
 C233 C 0.62132 0.37685 -0.16878
 C234 C 0.59843 0.39953 -0.14523
 C235 C 0.57615 0.42041 -0.07893
 C236 C 0.53874 0.42256 -0.08531
 C237 C 0.51707 0.44608 -0.06123
 C238 C 0.53250 0.46840 -0.03087
 C239 C 0.57007 0.46687 -0.02521
 C240 C 0.59163 0.44268 -0.04865
 H241 H 0.66289 0.32320 -0.09628
 H242 H 0.62066 0.38079 -0.20054
 H243 H 0.48839 0.44746 -0.06708
 H244 H 0.58313 0.48429 -0.00290
 H245 H 0.58065 0.42091 -0.15912
 H246 H 0.52628 0.40574 -0.10868
 H247 H 0.62353 0.36391 -0.05487
 H248 H 0.62054 0.44187 -0.04362
 C249 C -0.10329 0.10136 -0.10411
 C250 C -0.13722 0.11273 -0.08966
 C251 C -0.16036 0.13632 -0.11233
 C252 C -0.15075 0.14909 -0.15089
 C253 C -0.11655 0.13685 -0.16524
 C254 C -0.09328 0.11378 -0.14216
 C255 C -0.07840 0.07686 -0.07950
 C256 C -0.05582 0.04847 -0.09692
 C257 C -0.03223 0.02581 -0.07379
 C258 C -0.03088 0.03097 -0.03284
 C259 C -0.05385 0.05848 -0.01518
 C260 C -0.07705 0.08156 -0.03827
 H261 H -0.18662 0.14232 -0.09980
 H262 H -0.10618 0.14671 -0.19344
 H263 H -0.01550 0.00397 -0.08800
 H264 H -0.05352 0.06246 0.01652
 H265 H -0.06693 0.10649 -0.15393
 H266 H -0.05673 0.04328 -0.12839
 H267 H -0.14640 0.10272 -0.06095
 H268 H -0.09360 0.10342 -0.02378
 C269 C -0.10011 0.60192 0.39945
 C270 C -0.13647 0.60672 0.41046
 C271 C -0.15976 0.62999 0.38761
 C272 C -0.14724 0.64899 0.35322
 C273 C -0.11088 0.64417 0.34221
 C274 C -0.08759 0.62090 0.36505
 C275 C -0.07535 0.57724 0.42375
 C276 C -0.05019 0.55207 0.40570
 C277 C -0.02689 0.52883 0.42858
 C278 C -0.02813 0.53061 0.46987
 C279 C -0.05343 0.55528 0.48802
 C280 C -0.07676 0.57851 0.46521
 H281 H -0.18776 0.63260 0.39653
 H282 H -0.10027 0.65893 0.31624
 H283 H -0.00824 0.50934 0.41382
 H284 H -0.05501 0.55670 0.51991
 H285 H -0.05959 0.61827 0.35614
 H286 H -0.04892 0.54987 0.37386
 H287 H -0.14707 0.59197 0.43644
 H288 H -0.09561 0.59782 0.48001
 C289 C 0.39719 0.10145 0.39761
 C290 C 0.36082 0.10632 0.40852
 C291 C 0.33758 0.12950 0.38551
 C292 C 0.35018 0.14834 0.35107
 C293 C 0.38656 0.14348 0.34018
 C294 C 0.40979 0.12030 0.36318
 C295 C 0.42191 0.07682 0.42203
 C296 C 0.44711 0.05162 0.40407
 C297 C 0.47043 0.02851 0.42705
 C298 C 0.46916 0.03043 0.46833
 C299 C 0.44381 0.05510 0.48638
 C300 C 0.42045 0.07821 0.46348
 H301 H 0.30956 0.13216 0.39435
 H302 H 0.39723 0.15813 0.31418
 H303 H 0.48915 0.00903 0.41238
 H304 H 0.44222 0.05663 0.51827
 H305 H 0.43781 0.11763 0.35434
 H306 H 0.44841 0.04932 0.37224
 H307 H 0.35016 0.09167 0.43453
 H308 H 0.40157 0.09755 0.47820
 C309 C 0.40171 0.60453 -0.09947
 C310 C 0.41450 0.62719 -0.13148
 C311 C 0.39066 0.64970 -0.15444
 C312 C 0.35355 0.65032 -0.14572
 C313 C 0.34075 0.62791 -0.11364
 C314 C 0.36451 0.60515 -0.09087
 C315 C 0.42694 0.58012 -0.07531
 C316 C 0.42201 0.57622 -0.03427
 C317 C 0.44517 0.55250 -0.01176
 C318 C 0.47374 0.53236 -0.02975
 C319 C 0.47933 0.53676 -0.07045
 C320 C 0.45603 0.56024 -0.09308
 H321 H 0.40133 0.66713 -0.17868
 H322 H 0.31220 0.62744 -0.10659
 H323 H 0.44072 0.54981 0.01975
 H324 H 0.50160 0.52214 -0.08491
 H325 H 0.35362 0.58750 -0.06693
 H326 H 0.40039 0.59172 -0.01947
 H327 H 0.44303 0.62797 -0.13852
 H328 H 0.46047 0.56229 -0.12462
 C329 C -0.10284 -0.09951 0.10235
 C330 C -0.13770 -0.10894 0.08909
 C331 C -0.16064 -0.13242 0.11203
 C332 C -0.14966 -0.14698 0.14937
 C333 C -0.11465 -0.13697 0.16260
 C334 C -0.09163 -0.11385 0.13938
 C335 C -0.07821 -0.07506 0.07756
 C336 C -0.05475 -0.04760 0.09496
 C337 C -0.03131 -0.02502 0.07166
 C338 C -0.03091 -0.02946 0.03059
 C339 C -0.05475 -0.05608 0.01300
 C340 C -0.07794 -0.07896 0.03623
 H341 H -0.18759 -0.13753 0.10082
 H342 H -0.10397 -0.14836 0.19014
 H343 H -0.01391 -0.00387 0.08587
 H344 H -0.05512 -0.05951 -0.01876
 H345 H -0.06464 -0.10795 0.15015
 H346 H -0.05483 -0.04314 0.12657
 H347 H -0.14761 -0.09757 0.06115
 H348 H -0.09529 -0.10007 0.02182
 C349 C -0.10187 0.39900 0.60214
 C350 C -0.13803 0.39419 0.59041
 C351 C -0.16174 0.37129 0.61303
 C352 C -0.14984 0.35271 0.64793
 C353 C -0.11370 0.35760 0.65972
 C354 C -0.08999 0.38046 0.63707
 C355 C -0.07661 0.42318 0.57798
 C356 C -0.05144 0.44818 0.59618
 C357 C -0.02769 0.47093 0.57345
 C358 C -0.02852 0.46886 0.53216
 C359 C -0.05379 0.44434 0.51386
 C360 C -0.07753 0.42156 0.53652
 H361 H -0.18955 0.36857 0.60350
 H362 H -0.10357 0.34315 0.68612
 H363 H -0.00905 0.49032 0.58829
 H364 H -0.05505 0.44271 0.48196
 H365 H -0.06215 0.38308 0.64657
 H366 H -0.05052 0.45067 0.62802
 H367 H -0.14818 0.40862 0.56401
 H368 H -0.09633 0.40234 0.52159
 C369 C 0.39763 -0.10198 0.60195
 C370 C 0.36124 -0.10680 0.59112
 C371 C 0.33808 -0.12992 0.61419
 C372 C 0.35079 -0.14875 0.64862
 C373 C 0.38718 -0.14393 0.65944
 C374 C 0.41034 -0.12081 0.63638
 C375 C 0.42226 -0.07742 0.57746
 C376 C 0.44745 -0.05222 0.59534
 C377 C 0.47068 -0.02915 0.57230
 C378 C 0.46932 -0.03112 0.53103
 C379 C 0.44399 -0.05580 0.51304
 C380 C 0.42073 -0.07887 0.53602
 H381 H 0.31005 -0.13255 0.60540
 H382 H 0.39793 -0.15857 0.68544
 H383 H 0.48937 -0.00966 0.58692
 H384 H 0.44234 -0.05737 0.48116
 H385 H 0.43837 -0.11818 0.64516
 H386 H 0.44880 -0.04988 0.62717
 H387 H 0.35051 -0.09216 0.56511
 H388 H 0.40185 -0.09821 0.52135
 C389 C 0.39965 0.39693 0.10027
 C390 C 0.36351 0.39198 0.08854
 C391 C 0.33989 0.36900 0.11120
 C392 C 0.35188 0.35041 0.14607
 C393 C 0.38807 0.35525 0.15769
 C394 C 0.41167 0.37827 0.13507
 C395 C 0.42469 0.42165 0.07644
 C396 C 0.44903 0.44726 0.09500
 C397 C 0.47252 0.47065 0.07264
 C398 C 0.47250 0.46854 0.03130
 C399 C 0.44780 0.44353 0.01269
 C400 C 0.42421 0.42018 0.03499
 H401 H 0.31204 0.36634 0.10177
 H402 H 0.39831 0.34078 0.18402
 H403 H 0.49016 0.49069 0.08796
 H404 H 0.44628 0.44225 -0.01911
 H405 H 0.43950 0.38103 0.14453
 H406 H 0.44944 0.44978 0.12685
 H407 H 0.35330 0.40647 0.06220
 H408 H 0.40579 0.40073 0.01980
 C409 C 0.10161 0.10194 0.09947
 C410 C 0.08903 0.13683 0.11680
 C411 C 0.11194 0.15966 0.14007
 C412 C 0.14801 0.14818 0.14648
 C413 C 0.16059 0.11330 0.12908
 C414 C 0.13764 0.09042 0.10589
 C415 C 0.07720 0.07767 0.07485
 C416 C 0.07754 0.03636 0.07814
 C417 C 0.05425 0.01362 0.05522
 C418 C 0.03011 0.03172 0.02884
 C419 C 0.03016 0.07284 0.02486
 C420 C 0.05336 0.09564 0.04783
 H421 H 0.10123 0.18600 0.15359
 H422 H 0.18839 0.10397 0.13289
 H423 H 0.05487 -0.01815 0.05833
 H424 H 0.01261 0.08751 0.00388
 H425 H 0.14827 0.06400 0.09244
 H426 H 0.09543 0.02167 0.09885
 H427 H 0.06124 0.14614 0.11289
 H428 H 0.05302 0.12734 0.04404
 C429 C 0.10333 0.59997 0.60376
 C430 C 0.09029 0.63385 0.62260
 C431 C 0.11319 0.65668 0.64588
 C432 C 0.14970 0.64621 0.65081
 C433 C 0.16272 0.61224 0.63205
 C434 C 0.13979 0.58937 0.60881
 C435 C 0.07900 0.57589 0.57883
 C436 C 0.08057 0.53452 0.58033
 C437 C 0.05744 0.51197 0.55701
 C438 C 0.03227 0.53031 0.53200
 C439 C 0.03096 0.57152 0.52991
 C440 C 0.05401 0.59413 0.55325
 H441 H 0.10216 0.68227 0.66048
 H442 H 0.19082 0.60371 0.63476
 H443 H 0.05905 0.48014 0.55869
 H444 H 0.01241 0.58644 0.51016
 H445 H 0.15076 0.56375 0.59421
 H446 H 0.09933 0.51959 0.59993
 H447 H 0.06219 0.64241 0.61980
 H448 H 0.05264 0.62592 0.55087
 C449 C 0.60174 0.10052 0.60056
 C450 C 0.58895 0.13446 0.61951
 C451 C 0.61214 0.15728 0.64244
 C452 C 0.64868 0.14673 0.64692
 C453 C 0.66145 0.11273 0.62803
 C454 C 0.63824 0.08988 0.60512
 C455 C 0.57706 0.07637 0.57614
 C456 C 0.57866 0.03501 0.57779
 C457 C 0.55528 0.01237 0.55491
 C458 C 0.52980 0.03061 0.53018
 C459 C 0.52840 0.07181 0.52799
 C460 C 0.55172 0.09451 0.55090
 H461 H 0.60131 0.18290 0.65717
 H462 H 0.68957 0.10415 0.63042
 H463 H 0.55697 -0.01945 0.55664
 H464 H 0.50960 0.08662 0.50845
 H465 H 0.64900 0.06421 0.59041
 H466 H 0.59768 0.02017 0.59716
 H467 H 0.56083 0.14305 0.61708
 H468 H 0.55032 0.12629 0.54842
 C469 C 0.60155 0.60226 0.10567
 C470 C 0.63758 0.59069 0.11195
 C471 C 0.66071 0.61374 0.13472
 C472 C 0.64831 0.64880 0.15192
 C473 C 0.61220 0.66029 0.14567
 C474 C 0.58911 0.63733 0.12271
 C475 C 0.57715 0.57787 0.08121
 C476 C 0.55406 0.59555 0.05325
 C477 C 0.53180 0.57245 0.02947
 C478 C 0.53205 0.53130 0.03342
 C479 C 0.55474 0.51363 0.06163
 C480 C 0.57716 0.53664 0.08524
 H481 H 0.68852 0.60439 0.13831
 H482 H 0.60159 0.68676 0.15902
 H483 H 0.51482 0.58689 0.00774
 H484 H 0.55530 0.48190 0.06518
 H485 H 0.56134 0.64669 0.11876
 H486 H 0.55379 0.62722 0.04918
 H487 H 0.64806 0.56412 0.09866
 H488 H 0.59436 0.52222 0.10684
   
