data_POSCAR
  _audit_creation_date              2014-09-24
  _audit_creation_method            'ToBaCCo'
  _symmetry_space_group_name_H-M    'P1'
  _symmetry_Int_Tables_number       1
  _symmetry_cell_setting            triclinic
  loop_
  _symmetry_equiv_pos_as_xyz
 x,y,z
_cell_length_a 32.1209
_cell_length_b 31.7309
_cell_length_c 11.4291
_cell_angle_alpha 90.225000
_cell_angle_beta 88.783200
_cell_angle_gamma 119.081400
loop_
  _atom_site_label
  _atom_site_type_symbol
  _atom_site_fract_x
  _atom_site_fract_y
  _atom_site_fract_z
C1 C 0.13926 0.43344 0.50625
 C2 C 0.16429 0.44833 0.39762
 C3 C 0.21427 0.46714 0.39802
 C4 C 0.23964 0.47620 0.50404
 C5 C 0.21338 0.46571 0.60985
 C6 C 0.16365 0.44294 0.61277
 C7 C 0.29333 0.49932 0.50685
 C8 C 0.31716 0.49676 0.60831
 C9 C 0.36721 0.52030 0.61239
 C10 C 0.39385 0.54633 0.51376
 C11 C 0.37133 0.54721 0.41168
 C12 C 0.32165 0.52476 0.40866
 H13 H 0.10137 0.41943 0.51050
 H14 H 0.23300 0.47555 0.31454
 H15 H 0.23145 0.47613 0.69226
 H16 H 0.29753 0.47571 0.68411
 H17 H 0.43246 0.56497 0.51455
 H18 H 0.30603 0.52786 0.32871
 C19 C 0.55298 -0.29588 0.51126
 C20 C 0.54509 -0.28383 0.39760
 C21 C 0.52548 -0.25268 0.38888
 C22 C 0.51077 -0.23690 0.48942
 C23 C 0.51557 -0.25266 0.59953
 C24 C 0.53712 -0.28132 0.61229
 C25 C 0.48659 -0.20729 0.48096
 C26 C 0.49485 -0.17069 0.56349
 C27 C 0.47125 -0.14334 0.55450
 C28 C 0.43885 -0.15350 0.46527
 C29 C 0.43173 -0.18824 0.38145
 C30 C 0.45485 -0.21561 0.39005
 H31 H 0.56646 -0.32072 0.52229
 H32 H 0.52044 -0.24173 0.30303
 H33 H 0.50171 -0.24305 0.67644
 H34 H 0.52067 -0.16239 0.63135
 H35 H 0.42179 -0.13144 0.45509
 H36 H 0.44909 -0.24211 0.32333
 C37 C 1.30557 0.86720 0.48531
 C38 C 1.28229 0.84933 0.37870
 C39 C 1.24403 0.80154 0.37699
 C40 C 1.23074 0.77110 0.47761
 C41 C 1.25741 0.78969 0.57893
 C42 C 1.29321 0.83749 0.58459
 C43 C 1.19068 0.71980 0.47761
 C44 C 1.16874 0.69457 0.58384
 C45 C 1.13266 0.64591 0.58471
 C46 C 1.11634 0.62364 0.47547
 C47 C 1.13708 0.64797 0.37007
 C48 C 1.17499 0.69490 0.37151
 H49 H 1.33658 0.90246 0.48977
 H50 H 1.22503 0.78863 0.29637
 H51 H 1.25138 0.76710 0.65483
 H52 H 1.17909 0.71237 0.66732
 H53 H 1.09009 0.58601 0.46922
 H54 H 1.19215 0.71122 0.28892
 C55 C 0.87713 0.49378 0.47825
 C56 C 0.86819 0.51369 0.38025
 C57 C 0.83194 0.52629 0.38497
 C58 C 0.80403 0.51800 0.48883
 C59 C 0.81242 0.49539 0.58507
 C60 C 0.85018 0.48538 0.58142
 C61 C 0.76844 0.53538 0.50025
 C62 C 0.75871 0.54928 0.61025
 C63 C 0.72593 0.56617 0.62360
 C64 C 0.70300 0.57013 0.52359
 C65 C 0.71024 0.55411 0.41386
 C66 C 0.74364 0.53777 0.40269
 H67 H 0.90561 0.48464 0.47411
 H68 H 0.82703 0.54397 0.30993
 H69 H 0.79096 0.48700 0.66466
 H70 H 0.77733 0.54799 0.68682
 H71 H 0.67712 0.58248 0.53202
 H72 H 0.74867 0.52496 0.31844
 C73 C 0.51253 0.38676 0.46379
 C74 C 0.50769 0.35686 0.36889
 C75 C 0.50371 0.31152 0.38834
 C76 C 0.49963 0.29315 0.50340
 C77 C 0.50331 0.32397 0.59758
 C78 C 0.51255 0.37161 0.57929
 C79 C 0.49018 0.24211 0.52576
 C80 C 0.49297 0.22623 0.63979
 C81 C 0.47534 0.17717 0.66462
 C82 C 0.46125 0.14423 0.57162
 C83 C 0.46594 0.15998 0.45570
 C84 C 0.47728 0.20798 0.43416
 H85 H 0.51704 0.42204 0.44463
 H86 H 0.50341 0.29132 0.31207
 H87 H 0.49952 0.31182 0.68702
 H88 H 0.50682 0.25092 0.71189
 H89 H 0.44989 0.10675 0.58953
 H90 H 0.47656 0.21791 0.34454
 C91 C 0.62307 0.10735 0.45052
 C92 C 0.65908 0.12132 0.36522
 C93 C 0.70535 0.15595 0.39088
 C94 C 0.71627 0.17864 0.50125
 C95 C 0.67958 0.16290 0.58823
 C96 C 0.63279 0.12684 0.56205
 C97 C 0.76531 0.21997 0.51922
 C98 C 0.78731 0.23123 0.62923
 C99 C 0.83539 0.26746 0.63944
 C100 C 0.86110 0.29226 0.53664
 C101 C 0.83848 0.28365 0.42841
 C102 C 0.79075 0.24871 0.42200
 H103 H 0.58670 0.08131 0.42927
 H104 H 0.73252 0.16547 0.32299
 H105 H 0.68660 0.17985 0.67320
 H106 H 0.76768 0.21114 0.70644
 H107 H 0.89703 0.32196 0.54228
 H108 H 0.77332 0.24424 0.33924
 O109 O 0.97480 0.48432 -0.22390
 O110 O 1.01237 0.52649 0.16941
 O111 O 0.91081 0.46150 0.03269
 O112 O 1.07710 0.54614 -0.10074
 O113 O 0.93425 0.45826 0.20081
 O114 O 1.05499 0.49712 -0.23824
 O115 O 1.08185 0.54111 0.10798
 O116 O 0.90741 0.43160 -0.15297
 C117 C 0.93155 0.46880 -0.21384
 C118 C 1.05562 0.55469 0.16059
 C119 C 0.91234 0.47178 0.13641
 C120 C 1.07035 0.53914 -0.20682
 O121 O 1.02410 0.40558 -0.18304
 O122 O 0.97369 0.40054 0.21114
 O123 O 0.91976 0.35658 -0.06009
 O124 O 1.08318 0.45488 0.08568
 O125 O 1.05038 0.47153 0.22693
 O126 O 0.94441 0.39003 -0.22425
 O127 O 1.08951 0.46424 -0.12165
 O128 O 0.90694 0.37964 0.13177
 Co129 Co 0.99904 0.44513 -0.19617
 Co130 Co 0.99286 0.46297 0.18061
 Co131 Co 0.91934 0.41140 -0.01165
 Co132 Co 1.07485 0.49718 -0.00774
 O133 O 0.99652 0.45394 -0.00823
 C134 C 1.06793 0.42498 -0.17622
 C135 C 0.93086 0.37168 0.20551
 C136 C 0.92403 0.35234 -0.16649
 C137 C 1.07512 0.45359 0.19237
 O138 O 0.56705 0.52621 -0.24315
 O139 O 0.45454 0.51775 0.12141
 O140 O 0.54525 0.45538 0.09658
 O141 O 0.45963 0.53600 -0.08840
 O142 O 0.48160 0.45939 0.12435
 O143 O 0.51283 0.55860 -0.22992
 O144 O 0.45835 0.58646 0.08259
 O145 O 0.55014 0.46522 -0.12505
 C146 C 0.55191 0.48160 -0.22620
 C147 C 0.43943 0.54710 0.14447
 C148 C 0.50338 0.43662 0.13479
 C149 C 0.46968 0.53709 -0.19570
 O150 O 0.58238 0.63735 -0.11371
 O151 O 0.56246 0.52248 0.23794
 O152 O 0.63309 0.53951 -0.10661
 O153 O 0.54850 0.63096 0.09343
 O154 O 0.53442 0.58128 0.23413
 O155 O 0.63300 0.60545 -0.12384
 O156 O 0.51334 0.62584 -0.10574
 O157 O 0.62221 0.53690 0.11613
 Co158 Co 0.57185 0.57965 -0.16526
 Co159 Co 0.51122 0.52245 0.16452
 Co160 Co 0.58371 0.50406 -0.00437
 Co161 Co 0.50532 0.58109 0.00608
 O162 O 0.54597 0.54696 -0.00360
 C163 C 0.55427 0.65078 -0.14530
 C164 C 0.60601 0.53449 0.21879
 C165 C 0.65311 0.58174 -0.14349
 C166 C 0.55029 0.62373 0.19974
 O167 O 0.51131 0.05244 -0.20321
 O168 O 0.47952 -0.07552 0.13196
 O169 O 0.55585 0.07347 0.15753
 O170 O 0.45891 -0.08534 -0.07706
 O171 O 0.54101 0.00052 0.16528
 O172 O 0.47027 -0.03684 -0.21865
 O173 O 0.40700 -0.11786 0.10268
 O174 O 0.56078 0.08055 -0.05775
 C175 C 0.55347 0.07593 -0.16467
 C176 C 0.44361 -0.11568 0.14035
 C177 C 0.56979 0.04363 0.17433
 C178 C 0.47265 -0.07235 -0.17900
 O179 O 0.38835 -0.04093 -0.13530
 O180 O 0.48083 0.02860 0.27419
 O181 O 0.49209 0.10209 -0.05738
 O182 O 0.37168 -0.06270 0.07778
 O183 O 0.41428 -0.05116 0.23331
 O184 O 0.42711 0.04316 -0.11603
 O185 O 0.37163 -0.11371 -0.09500
 O186 O 0.48092 0.08463 0.16210
 Co187 Co 0.45092 0.00396 -0.15318
 Co188 Co 0.47787 -0.02290 0.18807
 Co189 Co 0.51716 0.07703 0.04865
 Co190 Co 0.41727 -0.07048 -0.00276
 O191 O 0.46880 -0.00076 0.02466
 C192 C 0.36802 -0.08438 -0.16703
 C193 C 0.47530 0.06538 0.26079
 C194 C 0.45354 0.08689 -0.10925
 C195 C 0.37492 -0.06131 0.18743
 C196 C 1.14223 0.45033 0.29177
 C197 C 1.09523 0.43517 0.28145
 H198 H 1.16526 0.46937 0.21746
 H199 H 1.07030 0.41558 0.35139
 C200 C 0.55006 0.69378 0.29381
 C201 C 0.56651 0.66196 0.28915
 H202 H 0.53485 0.69874 0.21460
 H203 H 0.58268 0.65575 0.36414
 C204 C 0.30070 -0.12463 0.27230
 C205 C 0.33339 -0.07748 0.26686
 H206 H 0.29272 -0.14524 0.19205
 H207 H 0.33924 -0.05494 0.34264
 C208 C 0.89911 0.52115 0.27723
 C209 C 0.88278 0.49121 0.18685
 H210 H 0.93696 0.53793 0.29419
 H211 H 0.84507 0.47257 0.16851
 C212 C 0.51197 0.37607 0.24913
 C213 C 0.48502 0.39547 0.21672
 H214 H 0.54295 0.38210 0.19689
 H215 H 0.45378 0.38831 0.26946
 C216 C 0.64574 0.10449 0.24528
 C217 C 0.61543 0.05793 0.22895
 H218 H 0.64642 0.13102 0.18465
 H219 H 0.61638 0.03151 0.28719
 C220 C 0.47569 0.16141 -0.22078
 C221 C 0.44289 0.11728 -0.18508
 H222 H 0.50438 0.18423 -0.16354
 H223 H 0.41066 0.09803 -0.23505
 C224 C 0.71196 0.57183 -0.26241
 C225 C 0.68942 0.59695 -0.23777
 H226 H 0.71623 0.55141 -0.19218
 H227 H 0.69042 0.62309 -0.30002
 C228 C 0.85509 0.28271 -0.24839
 C229 C 0.90228 0.30678 -0.23128
 H230 H 0.83122 0.27927 -0.17606
 H231 H 0.92555 0.30513 -0.29902
 C232 C 0.48037 -0.10208 -0.36946
 C233 C 0.48571 -0.10217 -0.25403
 H234 H 0.47335 -0.07481 -0.40669
 H235 H 0.48918 -0.13109 -0.21349
 C236 C 0.39216 0.51964 -0.27963
 C237 C 0.43337 0.51852 -0.28687
 H238 H 0.37921 0.52522 -0.19590
 H239 H 0.44524 0.51229 -0.37145
 C240 C 1.11726 0.61976 -0.30739
 C241 C 1.07899 0.57555 -0.29799
 H242 H 1.13890 0.63483 -0.23090
 H243 H 1.05473 0.56105 -0.36961
 C244 C 0.86420 0.46867 -0.31414
 C245 C 0.91033 0.49019 -0.28804
 H246 H 0.83804 0.43714 -0.26631
 H247 H 0.93518 0.52254 -0.33584
 C248 C 0.52259 0.40231 -0.32279
 C249 C 0.53825 0.45002 -0.32925
 H250 H 0.51976 0.38678 -0.23666
 H251 H 0.54339 0.46824 -0.41210
 C252 C 0.59193 0.10874 -0.35480
 C253 C 0.59543 0.09980 -0.24318
 H254 H 0.55688 0.09725 -0.38969
 H255 H 0.63010 0.11024 -0.20760
 C256 C 1.14050 0.43743 -0.27779
 C257 C 1.09353 0.41004 -0.25954
 H258 H 1.16145 0.45993 -0.20648
 H259 H 1.07210 0.38263 -0.32193
 C260 C 0.53639 0.70032 -0.27573
 C261 C 0.56578 0.68411 -0.24414
 H262 H 0.50993 0.69835 -0.21202
 H263 H 0.59684 0.69166 -0.29780
 C264 C 0.31993 -0.14583 -0.30662
 C265 C 0.33911 -0.10026 -0.27128
 H266 H 0.32301 -0.17224 -0.25289
 H267 H 0.33493 -0.07367 -0.32117
 C268 C 0.41268 -0.18378 0.27043
 C269 C 0.44556 -0.15661 0.19054
 H270 H 0.37914 -0.18327 0.27441
 H271 H 0.48081 -0.15325 0.19388
 C272 C 0.40034 0.56578 0.30428
 C273 C 0.39968 0.53408 0.22655
 H274 H 0.42914 0.60273 0.30205
 H275 H 0.37462 0.49603 0.23868
 C276 C 1.12173 0.62181 0.25889
 C277 C 1.07549 0.59764 0.23441
 H278 H 1.14768 0.61712 0.20647
 H279 H 1.05049 0.60358 0.28774
 C280 C 0.46236 0.12843 0.35511
 C281 C 0.46736 0.08876 0.36414
 H282 H 0.46086 0.14142 0.26856
 H283 H 0.47044 0.07529 0.44831
 C284 C 0.68162 0.55133 0.31073
 C285 C 0.63659 0.54318 0.32040
 H286 H 0.69660 0.55177 0.22457
 H287 H 0.62000 0.53953 0.40592
 C288 C 0.86156 0.31376 0.32260
 C289 C 0.90838 0.33504 0.29904
 H290 H 0.83883 0.31913 0.26258
 H291 H 0.93152 0.32934 0.35678
   
