data_POSCAR
  _audit_creation_date              2014-09-24
  _audit_creation_method            'ToBaCCo'
  _symmetry_space_group_name_H-M    'P1'
  _symmetry_Int_Tables_number       1
  _symmetry_cell_setting            triclinic
  loop_
  _symmetry_equiv_pos_as_xyz
 x,y,z
_cell_length_a 41.4071
_cell_length_b 46.6253
_cell_length_c 48.9264
_cell_angle_alpha 89.844500
_cell_angle_beta 89.929700
_cell_angle_gamma 89.774400
loop_
  _atom_site_label
  _atom_site_type_symbol
  _atom_site_fract_x
  _atom_site_fract_y
  _atom_site_fract_z
O1 O 0.37011 0.34350 -0.01978
 O2 O 0.35431 0.38874 0.04073
 O3 O 0.39331 0.34591 0.02874
 O4 O 0.33023 0.38602 -0.00912
 O5 O 0.29709 0.35010 -0.00094
 O6 O 0.35566 0.31748 0.04567
 O7 O 0.31326 0.36089 0.05140
 O8 O 0.33691 0.31082 -0.00315
 Cu9 Cu 0.36551 0.36953 0.00898
 Cu10 Cu 0.32164 0.33257 0.02571
 C11 C 0.35678 0.31899 -0.02139
 C12 C 0.33041 0.38285 0.05599
 C13 C 0.38509 0.32469 0.04350
 C14 C 0.30369 0.37321 -0.01350
 O15 O 0.65618 0.60517 0.01524
 O16 O 0.59816 0.64215 -0.03055
 O17 O 0.63811 0.60114 -0.03595
 O18 O 0.61112 0.64334 0.02212
 O19 O 0.64642 0.67731 0.01249
 O20 O 0.67675 0.63226 -0.04477
 O21 O 0.63553 0.67438 -0.03998
 O22 O 0.69211 0.63876 0.00627
 Cu23 Cu 0.62221 0.61978 -0.00612
 Cu24 Cu 0.66634 0.65899 -0.01734
 C25 C 0.68419 0.61583 0.01846
 C26 C 0.60759 0.66415 -0.04374
 C27 C 0.66161 0.60931 -0.05059
 C28 C 0.62377 0.66736 0.02733
 O29 O 0.63736 0.38335 0.97693
 O30 O 0.62254 0.34017 1.03943
 O31 O 0.65797 0.38422 1.02823
 O32 O 0.60045 0.33966 0.99045
 O33 O 0.64039 0.31107 0.97766
 O34 O 0.69791 0.35590 1.01542
 O35 O 0.66256 0.31151 1.02728
 O36 O 0.67712 0.35397 0.96547
 Cu37 Cu 0.62569 0.36513 1.00974
 Cu38 Cu 0.67352 0.33028 0.99531
 C39 C 0.65962 0.37568 0.96052
 C40 C 0.64003 0.31814 1.04376
 C41 C 0.68771 0.37747 1.02876
 C42 C 0.61058 0.31756 0.97800
 O43 O 0.38118 0.66768 1.02560
 O44 O 0.35333 0.61366 0.97674
 O45 O 0.38567 0.66082 0.97223
 O46 O 0.34202 0.62343 1.02852
 O47 O 0.29822 0.64726 1.01644
 O48 O 0.34050 0.68398 0.96214
 O49 O 0.30978 0.63933 0.96734
 O50 O 0.33828 0.69405 1.01639
 Cu51 Cu 0.36995 0.63906 1.00194
 Cu52 Cu 0.31797 0.66980 0.99104
 C53 C 0.36482 0.69036 1.02909
 C54 C 0.32731 0.61722 0.96340
 C55 C 0.36963 0.67784 0.95693
 C56 C 0.31182 0.62822 1.03098
 O57 O 0.02667 0.35620 0.38788
 O58 O -0.04039 0.39764 0.35778
 O59 O -0.03579 0.35052 0.38542
 O60 O 0.02295 0.40333 0.35964
 O61 O 0.02480 0.38071 0.32009
 O62 O -0.02672 0.32395 0.34900
 O63 O -0.03740 0.37105 0.32064
 O64 O 0.03448 0.33490 0.34809
 Cu65 Cu -0.00720 0.37955 0.37647
 Cu66 Cu -0.00106 0.35023 0.33051
 C67 C 0.04259 0.33915 0.37274
 C68 C -0.05096 0.39083 0.33433
 C69 C -0.04051 0.32764 0.37196
 C70 C 0.03401 0.40097 0.33549
 O71 O 0.02732 0.63144 0.60629
 O72 O -0.02465 0.59561 0.65720
 O73 O -0.03539 0.62903 0.61585
 O74 O 0.03678 0.59653 0.64642
 O75 O 0.04151 0.63338 0.67440
 O76 O -0.03023 0.66714 0.64198
 O77 O -0.01967 0.63313 0.68435
 O78 O 0.03193 0.66887 0.63355
 Cu79 Cu 0.00039 0.60958 0.62856
 Cu80 Cu 0.00622 0.65448 0.66121
 C81 C 0.03896 0.65602 0.61150
 C82 C -0.03043 0.60816 0.67970
 C83 C -0.04535 0.65352 0.62348
 C84 C 0.05128 0.60910 0.66579
 O85 O 1.02844 0.62998 0.34883
 O86 O 0.96465 0.64920 0.39825
 O87 O 0.97035 0.61383 0.35630
 O88 O 1.02382 0.66692 0.38822
 O89 O 1.00375 0.70021 0.36100
 O90 O 0.95130 0.64699 0.32819
 O91 O 0.94517 0.68104 0.36898
 O92 O 1.00938 0.66277 0.32037
 Cu93 Cu 0.99850 0.63687 0.37610
 Cu94 Cu 0.97588 0.67650 0.34204
 C95 C 1.02879 0.64231 0.32566
 C96 C 0.94380 0.66803 0.39172
 C97 C 0.95268 0.62111 0.33616
 C98 C 1.02282 0.69283 0.38013
 O99 O 0.97173 0.36257 0.59955
 O100 O 1.03538 0.39067 0.64417
 O101 O 1.03589 0.36387 0.59759
 O102 O 0.97373 0.38703 0.64756
 O103 O 0.97878 0.34517 0.66836
 O104 O 1.03716 0.32122 0.61705
 O105 O 1.04069 0.34778 0.66306
 O106 O 0.97455 0.32048 0.62019
 Cu107 Cu 1.00365 0.38012 0.61979
 Cu108 Cu 1.00789 0.32939 0.64410
 C109 C 0.96188 0.33701 0.60249
 C110 C 1.04887 0.37397 0.66122
 C111 C 1.04754 0.33857 0.59910
 C112 C 0.96680 0.37024 0.66722
 O113 O 0.38573 0.02527 0.32919
 O114 O 0.36165 -0.02696 0.38188
 O115 O 0.39856 -0.02872 0.33948
 O116 O 0.34813 0.02650 0.37223
 O117 O 0.30674 0.01315 0.34691
 O118 O 0.35738 -0.04132 0.31351
 O119 O 0.32005 -0.03981 0.35652
 O120 O 0.34464 0.01194 0.30353
 Cu121 Cu 0.37771 0.00054 0.35815
 Cu122 Cu 0.32803 -0.01515 0.32747
 C123 C 0.36967 0.02710 0.30715
 C124 C 0.33667 -0.04220 0.37824
 C125 C 0.38650 -0.04449 0.32103
 C126 C 0.31854 0.02859 0.36572
 O127 O 0.61178 0.03919 0.67809
 O128 O 0.63915 -0.01418 0.62789
 O129 O 0.61409 -0.01607 0.67639
 O130 O 0.63726 0.04262 0.63005
 O131 O 0.68653 0.04210 0.64733
 O132 O 0.66275 -0.01542 0.69486
 O133 O 0.68782 -0.01449 0.64617
 O134 O 0.66052 0.03918 0.69647
 Cu135 Cu 0.62086 0.01287 0.65090
 Cu136 Cu 0.67955 0.01307 0.67265
 C137 C 0.63128 0.04761 0.69634
 C138 C 0.66770 -0.02420 0.62898
 C139 C 0.63419 -0.02524 0.69400
 C140 C 0.66565 0.05267 0.63118
 O141 O 0.39745 0.98032 0.66197
 O142 O 0.36741 1.02757 0.60727
 O143 O 0.39978 1.03478 0.65170
 O144 O 0.36561 0.97171 0.61746
 O145 O 0.31937 0.97834 0.63918
 O146 O 0.35423 1.04062 0.67475
 O147 O 0.32174 1.03411 0.62972
 O148 O 0.35183 0.98680 0.68470
 Cu149 Cu 0.38694 1.00288 0.63205
 Cu150 Cu 0.33192 1.01040 0.65908
 C151 C 0.37999 0.97607 0.68292
 C152 C 0.34001 1.03973 0.60955
 C153 C 0.38300 1.04809 0.66934
 C154 C 0.33696 0.96398 0.62286
 O155 O 0.61614 0.95755 0.34402
 O156 O 0.63789 1.01563 0.39133
 O157 O 0.60235 1.01230 0.34926
 O158 O 0.65244 0.96130 0.38829
 O159 O 0.69459 0.97265 0.36286
 O160 O 0.64399 1.02208 0.32255
 O161 O 0.68032 1.02586 0.36583
 O162 O 0.65912 0.96726 0.31888
 Cu163 Cu 0.62292 0.98517 0.37066
 Cu164 Cu 0.67356 0.99781 0.33964
 C165 C 0.63400 0.95252 0.32348
 C166 C 0.66270 1.03087 0.38660
 C167 C 0.61495 1.02651 0.32986
 C168 C 0.68239 0.95918 0.38293
 C169 C 0.80705 0.77731 0.50682
 C170 C 0.80349 0.77587 0.53556
 C171 C 0.78648 0.79789 0.54909
 C172 C 0.77344 0.82116 0.53434
 C173 C 0.77935 0.82337 0.50602
 C174 C 0.79576 0.80135 0.49258
 H175 H 0.79955 0.80281 0.47067
 H176 H 0.78230 0.79632 0.57092
 C177 C 0.19543 0.22352 0.47103
 C178 C 0.20058 0.22826 0.49930
 C179 C 0.21943 0.20844 0.51424
 C180 C 0.23240 0.18391 0.50161
 C181 C 0.22489 0.17831 0.47406
 C182 C 0.20703 0.19829 0.45907
 H183 H 0.20180 0.19395 0.43775
 H184 H 0.22440 0.21235 0.53566
 C185 C 0.18084 0.78396 0.51581
 C186 C 0.17710 0.79356 0.48849
 C187 C 0.19844 0.81433 0.47826
 C188 C 0.22206 0.82691 0.49487
 C189 C 0.22315 0.81953 0.52294
 C190 C 0.20335 0.79747 0.53285
 H191 H 0.20522 0.79095 0.55408
 H192 H 0.19692 0.82031 0.45688
 C193 C 0.80588 0.22630 0.50415
 C194 C 0.80788 0.21800 0.47631
 C195 C 0.78594 0.19741 0.46656
 C196 C 0.76369 0.18375 0.48395
 C197 C 0.76357 0.19096 0.51205
 C198 C 0.78388 0.21264 0.52156
 H199 H 0.78311 0.21850 0.54300
 H200 H 0.78602 0.19213 0.44501
 C201 C 0.48538 0.83723 0.79709
 C202 C 0.51927 0.83317 0.79804
 C203 C 0.53183 0.80857 0.81092
 C204 C 0.51144 0.78846 0.82337
 C205 C 0.47768 0.79334 0.82343
 C206 C 0.46504 0.81724 0.80970
 H207 H 0.43917 0.82099 0.80982
 H208 H 0.55774 0.80517 0.81144
 C209 C 0.48790 0.16315 0.19945
 C210 C 0.51929 0.16626 0.21039
 C211 C 0.54106 0.18520 0.19805
 C212 C 0.53259 0.20119 0.17474
 C213 C 0.50069 0.19890 0.16426
 C214 C 0.47889 0.17999 0.17688
 H215 H 0.45479 0.17775 0.16853
 H216 H 0.56527 0.18693 0.20631
 C217 C 0.50467 0.17228 0.81073
 C218 C 0.47291 0.17675 0.80084
 C219 C 0.45158 0.19457 0.81532
 C220 C 0.46089 0.20807 0.83967
 C221 C 0.49311 0.20469 0.84897
 C222 C 0.51448 0.18722 0.83417
 H223 H 0.53898 0.18452 0.84158
 H224 H 0.42706 0.19726 0.80795
 C225 C 0.53205 0.82635 0.19550
 C226 C 0.49810 0.82987 0.19774
 C227 C 0.47798 0.81809 0.17761
 C228 C 0.49043 0.80047 0.15679
 C229 C 0.52394 0.79433 0.15662
 C230 C 0.54435 0.80818 0.17517
 H231 H 0.57011 0.80408 0.17414
 H232 H 0.45211 0.82148 0.17890
 C233 C 0.76885 0.46981 0.81403
 C234 C 0.76914 0.50020 0.81316
 C235 C 0.79382 0.51416 0.79869
 C236 C 0.81813 0.49861 0.78525
 C237 C 0.81726 0.46830 0.78543
 C238 C 0.79234 0.45433 0.79959
 H239 H 0.79201 0.43108 0.80037
 H240 H 0.79468 0.53740 0.79848
 C241 C 0.22692 0.50048 0.19059
 C242 C 0.21766 0.52765 0.18047
 C243 C 0.19508 0.54396 0.19505
 C244 C 0.17929 0.53303 0.21812
 C245 C 0.18787 0.50547 0.22789
 C246 C 0.21215 0.48972 0.21438
 H247 H 0.21841 0.46842 0.22161
 H248 H 0.18824 0.56494 0.18728
 C249 C 0.79458 0.51922 0.16478
 C250 C 0.78663 0.48989 0.16716
 C251 C 0.79320 0.47519 0.19150
 C252 C 0.81009 0.48851 0.21266
 C253 C 0.82187 0.51677 0.20887
 C254 C 0.81252 0.53236 0.18561
 H255 H 0.82072 0.55425 0.18299
 H256 H 0.78683 0.45272 0.19332
 C257 C 0.21632 0.50144 0.83187
 C258 C 0.20563 0.47274 0.83627
 C259 C 0.18292 0.46167 0.81775
 C260 C 0.17511 0.47567 0.79337
 C261 C 0.18432 0.50448 0.78978
 C262 C 0.20399 0.51735 0.80959
 H263 H 0.21157 0.53938 0.80661
 H264 H 0.17250 0.44068 0.82103
 C265 C 0.28374 0.42340 0.10985
 C266 C 0.30847 0.43697 0.12333
 C267 C 0.34067 0.43401 0.11565
 C268 C 0.34765 0.41629 0.09321
 C269 C 0.32262 0.40162 0.07933
 C270 C 0.29021 0.40517 0.08791
 O271 O 0.25472 0.43019 0.11947
 C272 C 0.26125 0.44833 0.13956
 C273 C 0.29381 0.45301 0.14296
 C274 C 0.30596 0.47150 0.16270
 C275 C 0.28361 0.48609 0.17928
 C276 C 0.25001 0.48236 0.17541
 C277 C 0.23865 0.46292 0.15558
 H278 H 0.35969 0.44520 0.12634
 H279 H 0.37255 0.41372 0.08684
 H280 H 0.27058 0.39459 0.07743
 H281 H 0.33165 0.47485 0.16501
 H282 H 0.29232 0.50101 0.19448
 H283 H 0.21304 0.45997 0.15220
 C284 C 0.72141 0.57330 0.07630
 C285 C 0.75363 0.57915 0.07222
 C286 C 0.76462 0.59603 0.05073
 C287 C 0.74146 0.60759 0.03289
 C288 C 0.70804 0.60193 0.03664
 C289 C 0.69797 0.58422 0.05854
 O290 O 0.71601 0.55758 0.09847
 C291 C 0.74542 0.55338 0.10853
 C292 C 0.76933 0.56605 0.09322
 C293 C 0.80185 0.56461 0.10033
 C294 C 0.81005 0.54924 0.12409
 C295 C 0.78580 0.53586 0.14006
 C296 C 0.75302 0.53832 0.13230
 H297 H 0.79005 0.60049 0.04802
 H298 H 0.74957 0.62108 0.01621
 H299 H 0.67266 0.57985 0.06218
 H300 H 0.82022 0.57488 0.08802
 H301 H 0.83520 0.54749 0.12994
 H302 H 0.73400 0.52899 0.14458
 C303 C 0.69900 0.42255 0.90790
 C304 C 0.68505 0.41199 0.88448
 C305 C 0.66057 0.39161 0.88499
 C306 C 0.65066 0.38120 0.91062
 C307 C 0.66526 0.39127 0.93491
 C308 C 0.68948 0.41248 0.93359
 O309 O 0.72296 0.44069 0.90293
 C310 C 0.72431 0.44148 0.87582
 C311 C 0.70178 0.42417 0.86353
 C312 C 0.70037 0.42038 0.83533
 C313 C 0.72289 0.43524 0.81917
 C314 C 0.74583 0.45368 0.83138
 C315 C 0.74660 0.45673 0.86013
 H316 H 0.65027 0.38331 0.86631
 H317 H 0.63271 0.36438 0.91155
 H318 H 0.70173 0.41968 0.95186
 H319 H 0.68281 0.40625 0.82613
 H320 H 0.72231 0.43274 0.79718
 H321 H 0.76427 0.47035 0.86990
 C322 C 0.27885 0.57641 0.91099
 C323 C 0.30096 0.55592 0.90313
 C324 C 0.33169 0.55400 0.91442
 C325 C 0.34000 0.57411 0.93452
 C326 C 0.31774 0.59569 0.94280
 C327 C 0.28668 0.59673 0.93076
 O328 O 0.25075 0.57416 0.89820
 C329 C 0.25521 0.55182 0.88187
 C330 C 0.28558 0.53992 0.88397
 C331 C 0.29527 0.51621 0.86873
 C332 C 0.27256 0.50404 0.85093
 C333 C 0.24081 0.51543 0.84916
 C334 C 0.23228 0.54001 0.86443
 H335 H 0.34863 0.53760 0.90803
 H336 H 0.36391 0.57299 0.94340
 H337 H 0.26905 0.61278 0.93665
 H338 H 0.31932 0.50727 0.87066
 H339 H 0.27928 0.48538 0.83904
 H340 H 0.20821 0.54910 0.86332
 C341 C 0.09845 0.29683 0.41828
 C342 C 0.12577 0.29628 0.40225
 C343 C 0.12736 0.30922 0.37666
 C344 C 0.09958 0.32327 0.36715
 C345 C 0.07133 0.32455 0.38348
 C346 C 0.07080 0.31139 0.40953
 O347 O 0.10152 0.28174 0.44121
 C348 C 0.13148 0.27159 0.43963
 C349 C 0.14738 0.28013 0.41629
 C350 C 0.17878 0.27177 0.41021
 C351 C 0.19446 0.25372 0.42891
 C352 C 0.17850 0.24415 0.45292
 C353 C 0.14643 0.25316 0.45830
 H354 H 0.14901 0.30812 0.36428
 H355 H 0.10006 0.33333 0.34717
 H356 H 0.04927 0.31171 0.42212
 H357 H 0.19071 0.27875 0.39167
 H358 H 0.21896 0.24687 0.42460
 H359 H 0.13344 0.24571 0.47615
 C360 C 0.08732 0.71129 0.57280
 C361 C 0.10980 0.69389 0.56031
 C362 C 0.10922 0.66414 0.56244
 C363 C 0.08472 0.65180 0.57841
 C364 C 0.06201 0.66930 0.59234
 C365 C 0.06324 0.69949 0.58933
 O366 O 0.09218 0.73903 0.56811
 C367 C 0.11847 0.73916 0.55252
 C368 C 0.13042 0.71208 0.54748
 C369 C 0.15889 0.70725 0.53311
 C370 C 0.17552 0.73130 0.52325
 C371 C 0.16281 0.75929 0.52690
 C372 C 0.13413 0.76337 0.54211
 H373 H 0.12716 0.65092 0.55237
 H374 H 0.08419 0.62870 0.58078
 H375 H 0.04623 0.71334 0.59980
 H376 H 0.16824 0.68580 0.52999
 H377 H 0.19800 0.72821 0.51227
 H378 H 0.12460 0.78465 0.54587
 C379 C 0.89645 0.70214 0.44841
 C380 C 0.86552 0.69624 0.43985
 C381 C 0.85890 0.67959 0.41701
 C382 C 0.88524 0.66905 0.40202
 C383 C 0.91724 0.67505 0.41029
 C384 C 0.92303 0.69135 0.43407
 O385 O 0.89743 0.72078 0.46888
 C386 C 0.86649 0.72687 0.47324
 C387 C 0.84603 0.71233 0.45602
 C388 C 0.81293 0.71729 0.45526
 C389 C 0.80040 0.73828 0.47276
 C390 C 0.82096 0.75368 0.49055
 C391 C 0.85444 0.74767 0.49110
 H392 H 0.83437 0.67591 0.41028
 H393 H 0.88082 0.65707 0.38346
 H394 H 0.94733 0.69711 0.44002
 H395 H 0.79746 0.70604 0.44110
 H396 H 0.77478 0.74303 0.47218
 H397 H 0.87061 0.75972 0.50406
 C398 C 0.90699 0.28875 0.56191
 C399 C 0.88281 0.30779 0.55515
 C400 C 0.88349 0.33656 0.56254
 C401 C 0.91016 0.34608 0.57763
 C402 C 0.93498 0.32672 0.58551
 C403 C 0.93335 0.29761 0.57749
 O404 O 0.90170 0.26239 0.55273
 C405 C 0.87345 0.26482 0.54010
 C406 C 0.86073 0.29211 0.54127
 C407 C 0.83050 0.29913 0.53081
 C408 C 0.81268 0.27711 0.51859
 C409 C 0.82584 0.24912 0.51615
 C410 C 0.85653 0.24278 0.52724
 H411 H 0.86419 0.35113 0.55692
 H412 H 0.91110 0.36837 0.58374
 H413 H 0.95205 0.28242 0.58314
 H414 H 0.82072 0.32061 0.53250
 H415 H 0.78879 0.28179 0.51072
 H416 H 0.86648 0.22129 0.52640
 C417 C 0.41124 0.08737 0.26967
 C418 C 0.40736 0.07861 0.24305
 C419 C 0.38992 0.05427 0.23605
 C420 C 0.37634 0.03811 0.25739
 C421 C 0.38104 0.04613 0.28506
 C422 C 0.39855 0.07129 0.29122
 O423 O 0.42894 0.11091 0.27195
 C424 C 0.43674 0.11693 0.24625
 C425 C 0.42440 0.09769 0.22779
 C426 C 0.43117 0.09909 0.19997
 C427 C 0.45187 0.12095 0.19092
 C428 C 0.46498 0.14105 0.20959
 C429 C 0.45638 0.13939 0.23755
 H430 H 0.38724 0.04776 0.21496
 H431 H 0.36324 0.01875 0.25243
 H432 H 0.40260 0.07786 0.31214
 H433 H 0.42153 0.08349 0.18584
 H434 H 0.45820 0.12194 0.16946
 H435 H 0.46470 0.15500 0.25215
 C436 C 0.58308 0.10274 0.73527
 C437 C 0.59100 0.09521 0.76163
 C438 C 0.61352 0.07396 0.76779
 C439 C 0.62805 0.05948 0.74586
 C440 C 0.61923 0.06597 0.71854
 C441 C 0.59659 0.08807 0.71316
 O442 O 0.56122 0.12363 0.73394
 C443 C 0.55492 0.12914 0.76004
 C444 C 0.57220 0.11206 0.77774
 C445 C 0.56810 0.11307 0.80588
 C446 C 0.54533 0.13256 0.81622
 C447 C 0.52768 0.15113 0.79854
 C448 C 0.53301 0.14946 0.76994
 H449 H 0.61939 0.06848 0.78872
 H450 H 0.64507 0.04235 0.75015
 H451 H 0.58936 0.09329 0.69247
 H452 H 0.58154 0.09902 0.81939
 H453 H 0.54136 0.13310 0.83809
 H454 H 0.52093 0.16368 0.75578
 C455 C 0.42205 0.91789 0.72280
 C456 C 0.42138 0.92948 0.74865
 C457 C 0.40632 0.95550 0.75444
 C458 C 0.39168 0.97029 0.73265
 C459 C 0.39307 0.95916 0.70574
 C460 C 0.40846 0.93260 0.70076
 O461 O 0.43663 0.89252 0.72178
 C462 C 0.44564 0.88811 0.74747
 C463 C 0.43728 0.91022 0.76469
 C464 C 0.44502 0.91019 0.79237
 C465 C 0.46192 0.88633 0.80269
 C466 C 0.47027 0.86317 0.78536
 C467 C 0.46159 0.86389 0.75747
 H468 H 0.40584 0.96409 0.77497
 H469 H 0.38008 0.99074 0.73652
 H470 H 0.40966 0.92366 0.68037
 H471 H 0.43827 0.92785 0.80553
 H472 H 0.46806 0.88557 0.82419
 H473 H 0.46699 0.84607 0.74405
 C474 C 0.59248 0.90913 0.26934
 C475 C 0.60963 0.88383 0.27105
 C476 C 0.63526 0.87993 0.28909
 C477 C 0.64348 0.90304 0.30607
 C478 C 0.62572 0.92903 0.30496
 C479 C 0.59989 0.93216 0.28636
 O480 O 0.56897 0.90839 0.25094
 C481 C 0.57116 0.88201 0.24094
 C482 C 0.59549 0.86603 0.25266
 C483 C 0.60105 0.83745 0.24602
 C484 C 0.58041 0.82470 0.22684
 C485 C 0.55501 0.84069 0.21450
 C486 C 0.55098 0.87002 0.22129
 H487 H 0.64841 0.85985 0.29009
 H488 H 0.66327 0.90063 0.32036
 H489 H 0.58606 0.95189 0.28524
 H490 H 0.62010 0.82519 0.25576
 H491 H 0.58365 0.80219 0.22217
 H492 H 0.53206 0.88291 0.21211
 C493 C 0.39720 0.28537 0.91691
 C494 C 0.37820 0.26151 0.91356
 C495 C 0.35188 0.25554 0.93023
 C496 C 0.34486 0.27489 0.95132
 C497 C 0.36412 0.29965 0.95544
 C498 C 0.39053 0.30505 0.93771
 O499 O 0.42225 0.28601 0.89990
 C500 C 0.41900 0.26198 0.88561
 C501 C 0.39238 0.24628 0.89320
 C502 C 0.38554 0.21946 0.88239
 C503 C 0.40755 0.20791 0.86358
 C504 C 0.43577 0.22317 0.85600
 C505 C 0.44087 0.25115 0.86641
 H506 H 0.33758 0.23640 0.92741
 H507 H 0.32454 0.27037 0.96458
 H508 H 0.40599 0.32348 0.94052
 H509 H 0.36469 0.20735 0.88902
 H510 H 0.40348 0.18644 0.85597
 H511 H 0.46226 0.26323 0.86111
 C512 C 0.57432 0.71735 0.90571
 C513 C 0.55438 0.70003 0.89058
 C514 C 0.54883 0.67143 0.89723
 C515 C 0.56519 0.66005 0.91999
 C516 C 0.58686 0.67726 0.93520
 C517 C 0.59110 0.70642 0.92808
 O518 O 0.57565 0.74409 0.89650
 C519 C 0.55631 0.74365 0.87493
 C520 C 0.54296 0.71714 0.87021
 C521 C 0.52209 0.71191 0.84856
 C522 C 0.51378 0.73521 0.83173
 C523 C 0.52566 0.76313 0.83731
 C524 C 0.54809 0.76714 0.85868
 H525 H 0.53280 0.65827 0.88517
 H526 H 0.56201 0.63762 0.92507
 H527 H 0.60747 0.72007 0.93933
 H528 H 0.51209 0.69083 0.84508
 H529 H 0.49683 0.73190 0.81520
 H530 H 0.55732 0.78823 0.86350
 C531 C 0.41504 0.72771 0.08261
 C532 C 0.40481 0.75560 0.07938
 C533 C 0.38058 0.76339 0.06106
 C534 C 0.36666 0.74160 0.04516
 C535 C 0.37743 0.71277 0.04759
 C536 C 0.40183 0.70583 0.06683
 O537 O 0.43823 0.72476 0.10115
 C538 C 0.44296 0.75142 0.10970
 C539 C 0.42327 0.77112 0.09691
 C540 C 0.42469 0.80032 0.10242
 C541 C 0.44726 0.80953 0.12190
 C542 C 0.46774 0.78965 0.13559
 C543 C 0.46519 0.76006 0.12948
 H544 H 0.37286 0.78548 0.05891
 H545 H 0.34818 0.74732 0.03047
 H546 H 0.41060 0.68406 0.06924
 H547 H 0.40910 0.81549 0.09202
 H548 H 0.44884 0.83223 0.12636
 H549 H 0.47950 0.74412 0.14006
 C550 C 0.59958 0.28372 0.10497
 C551 C 0.61943 0.26034 0.10878
 C552 C 0.64699 0.25552 0.09322
 C553 C 0.65421 0.27539 0.07258
 C554 C 0.63376 0.29939 0.06765
 C555 C 0.60631 0.30382 0.08451
 O556 O 0.57333 0.28307 0.12061
 C557 C 0.57657 0.25862 0.13437
 C558 C 0.60435 0.24391 0.12777
 C559 C 0.61105 0.21650 0.13746
 C560 C 0.58773 0.20333 0.15397
 C561 C 0.55846 0.21768 0.16065
 C562 C 0.55356 0.24631 0.15167
 H563 H 0.66194 0.23670 0.09635
 H564 H 0.67526 0.27154 0.05995
 H565 H 0.58987 0.32155 0.08100
 H566 H 0.63273 0.20511 0.13143
 H567 H 0.59178 0.18138 0.16046
 H568 H 0.53149 0.25782 0.15636
 C569 C 0.29032 0.09372 0.56949
 C570 C 0.31425 0.10664 0.55441
 C571 C 0.34633 0.09782 0.55531
 C572 C 0.35422 0.07498 0.57281
 C573 C 0.33023 0.06170 0.58925
 C574 C 0.29771 0.07117 0.58737
 O575 O 0.26131 0.10525 0.56528
 C576 C 0.26716 0.12601 0.54728
 C577 C 0.29926 0.12786 0.54018
 C578 C 0.31101 0.14839 0.52213
 C579 C 0.28867 0.16748 0.51049
 C580 C 0.25532 0.16533 0.51659
 C581 C 0.24439 0.14460 0.53558
 H582 H 0.36468 0.10829 0.54313
 H583 H 0.37923 0.06825 0.57412
 H584 H 0.27886 0.06154 0.59965
 H585 H 0.33643 0.14962 0.51712
 H586 H 0.29717 0.18363 0.49628
 H587 H 0.21900 0.14267 0.54057
 C588 C 0.70809 0.08889 0.42113
 C589 C 0.68450 0.09954 0.43812
 C590 C 0.65375 0.08781 0.43970
 C591 C 0.64697 0.06420 0.42295
 C592 C 0.67042 0.05351 0.40423
 C593 C 0.70148 0.06627 0.40342
 O594 O 0.73615 0.10231 0.42366
 C595 C 0.72998 0.12211 0.44243
 C596 C 0.69859 0.12163 0.45158
 C597 C 0.68650 0.14148 0.47010
 C598 C 0.70775 0.16244 0.47985
 C599 C 0.74090 0.16232 0.47222
 C600 C 0.75190 0.14196 0.45280
 H601 H 0.63572 0.09634 0.45353
 H602 H 0.62307 0.05489 0.42403
 H603 H 0.72022 0.05850 0.38983
 H604 H 0.66141 0.14128 0.47632
 H605 H 0.69822 0.17888 0.49315
 H606 H 0.77683 0.14140 0.44612
 C607 C 0.71670 0.91834 0.59315
 C608 C 0.69238 0.90323 0.58072
 C609 C 0.66013 0.91144 0.58205
 C610 C 0.65249 0.93603 0.59721
 C611 C 0.67694 0.95170 0.61091
 C612 C 0.70961 0.94276 0.60860
 O613 O 0.74577 0.90687 0.58914
 C614 C 0.73959 0.88394 0.57396
 C615 C 0.70722 0.88070 0.56844
 C616 C 0.69513 0.85792 0.55338
 C617 C 0.71736 0.83789 0.54319
 C618 C 0.75090 0.84123 0.54780
 C619 C 0.76223 0.86437 0.56370
 H620 H 0.64146 0.89920 0.57200
 H621 H 0.62738 0.94236 0.59886
 H622 H 0.72883 0.95416 0.61882
 H623 H 0.66954 0.85570 0.54955
 H624 H 0.70861 0.82003 0.53124
 H625 H 0.78777 0.86726 0.56744
 C626 C 0.28541 0.91093 0.42360
 C627 C 0.30883 0.89782 0.43921
 C628 C 0.34157 0.90366 0.43619
 C629 C 0.35051 0.92384 0.41624
 C630 C 0.32683 0.93717 0.39949
 C631 C 0.29381 0.93057 0.40328
 O632 O 0.25572 0.90236 0.42971
 C633 C 0.26053 0.88324 0.44946
 C634 C 0.29260 0.87953 0.45589
 C635 C 0.30319 0.85941 0.47489
 C636 C 0.27977 0.84233 0.48768
 C637 C 0.24637 0.84622 0.48203
 C638 C 0.23676 0.86710 0.46255
 H639 H 0.35956 0.89307 0.44872
 H640 H 0.37586 0.92870 0.41349
 H641 H 0.27522 0.94057 0.39091
 H642 H 0.32862 0.85635 0.47910
 H643 H 0.28779 0.82556 0.50141
 H644 H 0.21159 0.87037 0.45741
 C645 C 0.09511 0.42175 0.70902
 C646 C 0.12189 0.40494 0.71371
 C647 C 0.12622 0.37804 0.70201
 C648 C 0.10184 0.36797 0.68472
 C649 C 0.07428 0.38508 0.67913
 C650 C 0.07097 0.41246 0.69128
 O651 O 0.09491 0.44582 0.72355
 C652 C 0.12227 0.44418 0.73764
 C653 C 0.13970 0.41967 0.73207
 C654 C 0.16876 0.41312 0.74468
 C655 C 0.18024 0.43244 0.76412
 C656 C 0.16245 0.45754 0.77096
 C657 C 0.13308 0.46366 0.75732
 H658 H 0.14732 0.36507 0.70643
 H659 H 0.10445 0.34698 0.67553
 H660 H 0.04979 0.42564 0.68770
 H661 H 0.18198 0.39369 0.73991
 H662 H 0.20288 0.42765 0.77427
 H663 H 0.11886 0.48246 0.76233
 C664 C 0.09433 0.60107 0.28908
 C665 C 0.08324 0.60305 0.26266
 C666 C 0.05650 0.61942 0.25535
 C667 C 0.03995 0.63381 0.27625
 C668 C 0.04997 0.63114 0.30388
 C669 C 0.07786 0.61478 0.31031
 O670 O 0.12038 0.58453 0.29151
 C671 C 0.12559 0.57567 0.26609
 C672 C 0.10328 0.58614 0.24777
 C673 C 0.10343 0.57891 0.22027
 C674 C 0.12791 0.56046 0.21115
 C675 C 0.15196 0.55004 0.22937
 C676 C 0.15069 0.55781 0.25731
 H677 H 0.04835 0.62070 0.23437
 H678 H 0.01843 0.64590 0.27104
 H679 H 0.08594 0.61219 0.33121
 H680 H 0.08534 0.58716 0.20633
 H681 H 0.12850 0.55460 0.18975
 H682 H 0.16912 0.55100 0.27156
 C683 C 0.88556 0.41671 0.28478
 C684 C 0.86896 0.43606 0.30071
 C685 C 0.87700 0.44134 0.32783
 C686 C 0.90318 0.42604 0.33893
 C687 C 0.92076 0.40603 0.32283
 C688 C 0.91146 0.40118 0.29541
 O689 O 0.87606 0.41667 0.25891
 C690 C 0.85302 0.43648 0.25843
 C691 C 0.84760 0.44894 0.28351
 C692 C 0.82673 0.47209 0.28707
 C693 C 0.81188 0.48354 0.26367
 C694 C 0.81839 0.47185 0.23748
 C695 C 0.83810 0.44720 0.23503
 H696 H 0.86405 0.45712 0.33982
 H697 H 0.90996 0.43007 0.35993
 H698 H 0.92467 0.38650 0.28238
 H699 H 0.82336 0.48195 0.30688
 H700 H 0.79708 0.50263 0.26560
 H701 H 0.84434 0.43857 0.21517
 C702 C 0.90699 0.56293 0.71534
 C703 C 0.91809 0.56413 0.74182
 C704 C 0.94512 0.57986 0.74931
 C705 C 0.96149 0.59484 0.72862
 C706 C 0.95104 0.59328 0.70108
 C707 C 0.92345 0.57702 0.69433
 O708 O 0.88014 0.54769 0.71278
 C709 C 0.87432 0.53889 0.73815
 C710 C 0.89704 0.54810 0.75663
 C711 C 0.89579 0.54115 0.78427
 C712 C 0.87002 0.52407 0.79323
 C713 C 0.84611 0.51469 0.77464
 C714 C 0.84805 0.52251 0.74677
 H715 H 0.95318 0.58072 0.77032
 H716 H 0.98269 0.60717 0.73392
 H717 H 0.91485 0.57573 0.67348
 H718 H 0.91394 0.54865 0.79842
 H719 H 0.86831 0.51846 0.81468
 H720 H 0.82951 0.51635 0.73239
 C721 C 0.70812 0.57707 0.89217
 C722 C 0.68488 0.55942 0.88138
 C723 C 0.65412 0.55707 0.89234
 C724 C 0.64694 0.57357 0.91541
 C725 C 0.66999 0.59291 0.92650
 C726 C 0.70098 0.59495 0.91428
 O727 O 0.73684 0.57360 0.88048
 C728 C 0.73141 0.55353 0.86182
 C729 C 0.69983 0.54460 0.86122
 C730 C 0.68879 0.52352 0.84358
 C731 C 0.71146 0.51048 0.82633
 C732 C 0.74470 0.51759 0.82805
 C733 C 0.75459 0.54015 0.84545
 H734 H 0.63656 0.54239 0.88394
 H735 H 0.62304 0.57161 0.92425
 H736 H 0.71945 0.60881 0.92258
 H737 H 0.66369 0.51713 0.84331
 H738 H 0.70334 0.49410 0.81233
 H739 H 0.77975 0.54605 0.84727
 C740 C 0.26210 0.41965 0.93560
 C741 C 0.24979 0.39857 0.91912
 C742 C 0.25117 0.36963 0.92564
 C743 C 0.26673 0.36189 0.94991
 C744 C 0.28294 0.38278 0.96589
 C745 C 0.28034 0.41225 0.95869
 O746 O 0.25630 0.44595 0.92608
 C747 C 0.24092 0.44112 0.90265
 C748 C 0.23759 0.41246 0.89716
 C749 C 0.22691 0.40226 0.87230
 C750 C 0.21881 0.42245 0.85232
 C751 C 0.21829 0.45252 0.85801
 C752 C 0.22946 0.46172 0.88410
 H753 H 0.24060 0.35356 0.91250
 H754 H 0.26845 0.33928 0.95492
 H755 H 0.29204 0.42873 0.97063
 H756 H 0.22652 0.37952 0.86788
 H757 H 0.21314 0.41421 0.83226
 H758 H 0.22924 0.48392 0.89021
 C759 C 0.28534 0.58107 0.08831
 C760 C 0.25276 0.58034 0.08301
 C761 C 0.23850 0.59528 0.06166
 C762 C 0.25861 0.61165 0.04489
 C763 C 0.29267 0.61211 0.04898
 C764 C 0.30624 0.59616 0.07096
 O765 O 0.29316 0.56773 0.11148
 C766 C 0.26487 0.55826 0.12072
 C767 C 0.23958 0.56506 0.10368
 C768 C 0.20772 0.55823 0.10947
 C769 C 0.20145 0.54430 0.13422
 C770 C 0.22672 0.53813 0.15290
 C771 C 0.25905 0.54489 0.14590
 H772 H 0.21265 0.59493 0.05844
 H773 H 0.24750 0.62348 0.02827
 H774 H 0.33191 0.59653 0.07516
 H775 H 0.18830 0.56395 0.09569
 H776 H 0.17666 0.53924 0.13940
 H777 H 0.27865 0.54139 0.16011
 C778 C 0.71937 0.42759 0.08082
 C779 C 0.75197 0.42267 0.07820
 C780 C 0.76481 0.40355 0.05932
 C781 C 0.74313 0.38864 0.04261
 C782 C 0.70925 0.39348 0.04464
 C783 C 0.69743 0.41373 0.06387
 O784 O 0.71203 0.44516 0.10124
 C785 C 0.74067 0.45158 0.11165
 C786 C 0.76591 0.43858 0.09809
 C787 C 0.79796 0.44195 0.10577
 C788 C 0.80424 0.45947 0.12835
 C789 C 0.77863 0.47275 0.14286
 C790 C 0.74635 0.46861 0.13456
 H791 H 0.79056 0.39972 0.05795
 H792 H 0.75286 0.37330 0.02815
 H793 H 0.67182 0.41770 0.06650
 H794 H 0.81738 0.43138 0.09486
 H795 H 0.82900 0.46247 0.13485
 H796 H 0.72640 0.47803 0.14573
 C797 C 0.89202 0.70564 0.60020
 C798 C 0.87265 0.68777 0.58515
 C799 C 0.87906 0.65871 0.58207
 C800 C 0.90661 0.64756 0.59496
 C801 C 0.92686 0.66528 0.61123
 C802 C 0.91895 0.69480 0.61413
 O803 O 0.88338 0.73307 0.59823
 C804 C 0.85795 0.73240 0.58168
 C805 C 0.85015 0.70511 0.57343
 C806 C 0.82521 0.69946 0.55525
 C807 C 0.80820 0.72295 0.54447
 C808 C 0.81702 0.75141 0.55131
 C809 C 0.84157 0.75614 0.57089
 H810 H 0.86389 0.64524 0.56955
 H811 H 0.91194 0.62497 0.59232
 H812 H 0.93411 0.70920 0.62573
 H813 H 0.81958 0.67779 0.54904
 H814 H 0.78914 0.71910 0.52982
 H815 H 0.84902 0.77766 0.57618
 C816 C 0.89840 0.29084 0.41493
 C817 C 0.90088 0.26336 0.40502
 C818 C 0.92128 0.25608 0.38352
 C819 C 0.94011 0.27797 0.37192
 C820 C 0.93922 0.30631 0.38266
 C821 C 0.91788 0.31264 0.40457
 O822 O 0.87646 0.29356 0.43455
 C823 C 0.86519 0.26711 0.43739
 C824 C 0.87969 0.24774 0.42013
 C825 C 0.87234 0.21870 0.42047
 C826 C 0.84922 0.20929 0.43944
 C827 C 0.83313 0.22894 0.45709
 C828 C 0.84106 0.25844 0.45548
 H829 H 0.92247 0.23438 0.37578
 H830 H 0.95612 0.27254 0.35518
 H831 H 0.91597 0.33402 0.41304
 H832 H 0.88436 0.20375 0.40693
 H833 H 0.84386 0.18659 0.44041
 H834 H 0.82851 0.27444 0.46731
 C835 C 0.10906 0.29238 0.56586
 C836 C 0.12372 0.31165 0.54860
 C837 C 0.11350 0.34007 0.54641
 C838 C 0.08746 0.34899 0.56294
 C839 C 0.07240 0.32956 0.58144
 C840 C 0.08357 0.30076 0.58259
 O841 O 0.12121 0.26610 0.56421
 C842 C 0.14421 0.26875 0.54554
 C843 C 0.14702 0.29620 0.53542
 C844 C 0.16933 0.30339 0.51523
 C845 C 0.18874 0.28123 0.50457
 C846 C 0.18495 0.25252 0.51380
 C847 C 0.16303 0.24648 0.53516
 H848 H 0.12508 0.35483 0.53242
 H849 H 0.07946 0.37109 0.56156
 H850 H 0.07274 0.28504 0.59608
 H851 H 0.17124 0.32510 0.50754
 H852 H 0.20565 0.28610 0.48833
 H853 H 0.15939 0.22475 0.54237
 C854 C 0.08579 0.72592 0.42363
 C855 C 0.07934 0.75450 0.41928
 C856 C 0.05544 0.76400 0.40146
 C857 C 0.03720 0.74318 0.38778
 C858 C 0.04246 0.71342 0.39270
 C859 C 0.06735 0.70486 0.41095
 O860 O 0.11030 0.72140 0.44058
 C861 C 0.11927 0.74774 0.44735
 C862 C 0.10086 0.76875 0.43513
 C863 C 0.10569 0.79778 0.43984
 C864 C 0.13046 0.80543 0.45792
 C865 C 0.15022 0.78419 0.47050
 C866 C 0.14471 0.75490 0.46466
 H867 H 0.05107 0.78665 0.39813
 H868 H 0.01842 0.75038 0.37395
 H869 H 0.07251 0.68246 0.41504
 H870 H 0.09079 0.81396 0.43011
 H871 H 0.13443 0.82794 0.46207
 H872 H 0.16015 0.73817 0.47255
 C873 C 0.58772 0.91560 0.72873
 C874 C 0.60221 0.91540 0.75402
 C875 C 0.62803 0.93308 0.76053
 C876 C 0.63912 0.95197 0.74022
 C877 C 0.62395 0.95314 0.71423
 C878 C 0.59798 0.93452 0.70842
 O879 O 0.56361 0.89707 0.72670
 C880 C 0.56266 0.88511 0.75133
 C881 C 0.58560 0.89570 0.76888
 C882 C 0.58818 0.88676 0.79593
 C883 C 0.56606 0.86620 0.80527
 C884 C 0.54220 0.85491 0.78753
 C885 C 0.54100 0.86417 0.76001
 H886 H 0.63907 0.93252 0.78056
 H887 H 0.65887 0.96626 0.74501
 H888 H 0.58596 0.93491 0.68878
 H889 H 0.60628 0.89554 0.80943
 H890 H 0.56728 0.85918 0.82637
 H891 H 0.52403 0.85519 0.74568
 C892 C 0.42389 0.90698 0.26840
 C893 C 0.44375 0.89049 0.28465
 C894 C 0.44641 0.89453 0.31272
 C895 C 0.42772 0.91643 0.32453
 C896 C 0.40648 0.93317 0.30827
 C897 C 0.40447 0.92831 0.27982
 O898 O 0.42605 0.90054 0.24205
 C899 C 0.44758 0.87939 0.24167
 C900 C 0.45887 0.87222 0.26725
 C901 C 0.48130 0.85047 0.27162
 C902 C 0.49301 0.83585 0.24863
 C903 C 0.48308 0.84386 0.22187
 C904 C 0.45944 0.86555 0.21846
 H905 H 0.46253 0.88152 0.32503
 H906 H 0.42936 0.92006 0.34634
 H907 H 0.38876 0.94112 0.26695
 H908 H 0.48952 0.84497 0.29196
 H909 H 0.51037 0.81870 0.25158
 H910 H 0.45127 0.87201 0.19834
 C911 C 0.57789 0.07631 0.27766
 C912 C 0.56447 0.09655 0.29472
 C913 C 0.56549 0.09433 0.32304
 C914 C 0.58126 0.07038 0.33425
 C915 C 0.59627 0.04978 0.31713
 C916 C 0.59459 0.05274 0.28841
 O917 O 0.57362 0.08229 0.25135
 C918 C 0.55742 0.10694 0.25185
 C919 C 0.55165 0.11677 0.27791
 C920 C 0.53663 0.14291 0.28319
 C921 C 0.52679 0.15943 0.26067
 C922 C 0.53084 0.14899 0.23373
 C923 C 0.54682 0.12259 0.22919
 H924 H 0.55459 0.11045 0.33602
 H925 H 0.58271 0.06831 0.35628
 H926 H 0.60588 0.03724 0.27498
 H927 H 0.53302 0.15048 0.30387
 H928 H 0.51537 0.18005 0.26412
 H929 H 0.55091 0.11466 0.20869
 C930 C 0.41817 0.09363 0.72490
 C931 C 0.42386 0.11868 0.71076
 C932 C 0.41705 0.12181 0.68304
 C933 C 0.40380 0.09816 0.66939
 C934 C 0.39714 0.07245 0.68375
 C935 C 0.40435 0.07013 0.71186
 O936 O 0.42692 0.09490 0.75096
 C937 C 0.43821 0.12137 0.75339
 C938 C 0.43660 0.13690 0.72945
 C939 C 0.44614 0.16542 0.72764
 C940 C 0.45785 0.17842 0.75148
 C941 C 0.46056 0.16256 0.77612
 C942 C 0.45049 0.13369 0.77716
 H943 H 0.42193 0.14166 0.67231
 H944 H 0.39836 0.09988 0.64779
 H945 H 0.39966 0.05052 0.72308
 H946 H 0.44431 0.17730 0.70867
 H947 H 0.46524 0.20067 0.75077
 H948 H 0.45189 0.12140 0.79593
 C949 C 0.58832 0.72418 0.07343
 C950 C 0.58405 0.70812 0.09679
 C951 C 0.59358 0.67964 0.09902
 C952 C 0.60758 0.66690 0.07601
 C953 C 0.61221 0.68279 0.05159
 C954 C 0.60293 0.71203 0.05034
 O955 O 0.57639 0.75063 0.07557
 C956 C 0.56443 0.75117 0.10083
 C957 C 0.56868 0.72565 0.11458
 C958 C 0.55827 0.72119 0.14123
 C959 C 0.54309 0.74412 0.15445
 C960 C 0.53807 0.77058 0.14078
 C961 C 0.54887 0.77429 0.11356
 H962 H 0.58971 0.66748 0.11760
 H963 H 0.61448 0.64449 0.07704
 H964 H 0.60565 0.72438 0.03171
 H965 H 0.56201 0.70090 0.15156
 H966 H 0.53520 0.74142 0.17542
 H967 H 0.54570 0.79452 0.10296
 C968 C 0.42685 0.27789 0.09533
 C969 C 0.45349 0.26917 0.08062
 C970 C 0.46014 0.27938 0.05446
 C971 C 0.43814 0.29896 0.04287
 C972 C 0.40989 0.30727 0.05728
 C973 C 0.40431 0.29670 0.08394
 O974 O 0.42521 0.26615 0.12000
 C975 C 0.45117 0.24943 0.12083
 C976 C 0.46910 0.25013 0.09715
 C977 C 0.49648 0.23319 0.09335
 C978 C 0.50609 0.21529 0.11506
 C979 C 0.48910 0.21564 0.14030
 C980 C 0.46082 0.23252 0.14287
 H981 H 0.48134 0.27238 0.04331
 H982 H 0.44240 0.30675 0.02231
 H983 H 0.38288 0.30270 0.09532
 H984 H 0.50985 0.23360 0.07432
 H985 H 0.52717 0.20174 0.11252
 H986 H 0.44707 0.23287 0.16171
 C987 C 0.57003 0.27344 0.92408
 C988 C 0.54404 0.26293 0.93850
 C989 C 0.53814 0.27005 0.96566
 C990 C 0.56001 0.28865 0.97844
 C991 C 0.58739 0.29899 0.96411
 C992 C 0.59252 0.29122 0.93660
 O993 O 0.57062 0.26505 0.89823
 C994 C 0.54459 0.24872 0.89630
 C995 C 0.52767 0.24638 0.92041
 C996 C 0.50007 0.22964 0.92297
 C997 C 0.48931 0.21506 0.89962
 C998 C 0.50542 0.21847 0.87417
 C999 C 0.53381 0.23514 0.87275
 H1000 H 0.51734 0.26182 0.97652
 H1001 H 0.55604 0.29460 0.99957
 H1002 H 0.61309 0.29918 0.92522
 H1003 H 0.48742 0.22773 0.94226
 H1004 H 0.46818 0.20157 0.90120
 H1005 H 0.54683 0.23783 0.85371
 C1006 C 0.42000 0.72177 0.90862
 C1007 C 0.40287 0.71785 0.88480
 C1008 C 0.37629 0.69990 0.88309
 C1009 C 0.36651 0.68591 0.90706
 C1010 C 0.38359 0.68976 0.93187
 C1011 C 0.41108 0.70753 0.93263
 O1012 O 0.44360 0.74076 0.90602
 C1013 C 0.44128 0.74890 0.88007
 C1014 C 0.41682 0.73548 0.86617
 C1015 C 0.40992 0.74105 0.83883
 C1016 C 0.42959 0.76083 0.82505
 C1017 C 0.45535 0.77451 0.83881
 C1018 C 0.46069 0.76897 0.86692
 H1019 H 0.36302 0.69739 0.86421
 H1020 H 0.34519 0.67251 0.90651
 H1021 H 0.42394 0.71131 0.95153
 H1022 H 0.39039 0.73029 0.82841
 H1023 H 0.42537 0.76498 0.80355
 H1024 H 0.47991 0.77948 0.87799
 C1025 C 0.71242 0.90434 0.43409
 C1026 C 0.74427 0.91235 0.43609
 C1027 C 0.75744 0.93453 0.42075
 C1028 C 0.73687 0.94930 0.40280
 C1029 C 0.70371 0.94197 0.40078
 C1030 C 0.69133 0.91911 0.41671
 O1031 O 0.70518 0.88186 0.44966
 C1032 C 0.73304 0.87569 0.46183
 C1033 C 0.75762 0.89390 0.45438
 C1034 C 0.78893 0.89114 0.46430
 C1035 C 0.79529 0.86842 0.48237
 C1036 C 0.77055 0.84905 0.48993
 C1037 C 0.73894 0.85274 0.47955
 H1038 H 0.78268 0.94020 0.42247
 H1039 H 0.74665 0.96685 0.39088
 H1040 H 0.66620 0.91290 0.41546
 H1041 H 0.80788 0.90567 0.45802
 H1042 H 0.81963 0.86536 0.48994
 H1043 H 0.71994 0.83766 0.48432
 C1044 C 0.28532 0.91133 0.58443
 C1045 C 0.30232 0.88634 0.58904
 C1046 C 0.33081 0.88552 0.60406
 C1047 C 0.34218 0.91149 0.61479
 C1048 C 0.32464 0.93734 0.61087
 C1049 C 0.29570 0.93726 0.59561
 O1050 O 0.25975 0.90768 0.56850
 C1051 C 0.26050 0.87979 0.56309
 C1052 C 0.28583 0.86566 0.57543
 C1053 C 0.29099 0.83628 0.57261
 C1054 C 0.26938 0.82093 0.55610
 C1055 C 0.24391 0.83528 0.54233
 C1056 C 0.23921 0.86507 0.54615
 H1057 H 0.34401 0.86569 0.60712
 H1058 H 0.36439 0.91148 0.62648
 H1059 H 0.28216 0.95683 0.59208
 H1060 H 0.31101 0.82561 0.58261
 H1061 H 0.27308 0.79813 0.55321
 H1062 H 0.21985 0.87643 0.53587
 C1063 C 0.28932 0.08943 0.41002
 C1064 C 0.25737 0.08208 0.41307
 C1065 C 0.24374 0.05850 0.40024
 C1066 C 0.26400 0.04153 0.38389
 C1067 C 0.29726 0.04817 0.38104
 C1068 C 0.31003 0.07256 0.39427
 O1069 O 0.29712 0.11331 0.42311
 C1070 C 0.26953 0.12109 0.43484
 C1071 C 0.24455 0.10253 0.42954
 C1072 C 0.21347 0.10669 0.43957
 C1073 C 0.20781 0.13123 0.45538
 C1074 C 0.23298 0.15095 0.46061
 C1075 C 0.26430 0.14583 0.45020
 H1076 H 0.21844 0.05334 0.40274
 H1077 H 0.25397 0.02279 0.37405
 H1078 H 0.33527 0.07821 0.39233
 H1079 H 0.19420 0.09183 0.43504
 H1080 H 0.18365 0.13538 0.46297
 H1081 H 0.28359 0.16110 0.45304
 C1082 C 0.70926 0.10228 0.58292
 C1083 C 0.69013 0.12640 0.58497
 C1084 C 0.66234 0.12734 0.60094
 C1085 C 0.65405 0.10247 0.61553
 C1086 C 0.67396 0.07770 0.61439
 C1087 C 0.70199 0.07760 0.59790
 O1088 O 0.73403 0.10561 0.56598
 C1089 C 0.73062 0.13246 0.55733
 C1090 C 0.70438 0.14625 0.56862
 C1091 C 0.69695 0.17482 0.56310
 C1092 C 0.71724 0.18968 0.54498
 C1093 C 0.74357 0.17551 0.53225
 C1094 C 0.75053 0.14658 0.53868
 H1095 H 0.64752 0.14648 0.60206
 H1096 H 0.63261 0.10266 0.62824
 H1097 H 0.71741 0.05884 0.59663
 H1098 H 0.67640 0.18532 0.57249
 H1099 H 0.71202 0.21191 0.54020
 H1100 H 0.77079 0.13552 0.52942
 C1101 C 0.89398 0.58493 0.28869
 C1102 C 0.91003 0.55945 0.28444
 C1103 C 0.93822 0.55200 0.29815
 C1104 C 0.95090 0.57194 0.31659
 C1105 C 0.93571 0.59895 0.32042
 C1106 C 0.90661 0.60541 0.30647
 O1107 O 0.86737 0.58756 0.27368
 C1108 C 0.86686 0.56333 0.25944
 C1109 C 0.89274 0.54567 0.26505
 C1110 C 0.89820 0.52001 0.25150
 C1111 C 0.87555 0.51178 0.23188
 C1112 C 0.84729 0.52842 0.22710
 C1113 C 0.84335 0.55506 0.24053
 H1114 H 0.95028 0.53173 0.29449
 H1115 H 0.97340 0.56693 0.32685
 H1116 H 0.89467 0.62595 0.30891
 H1117 H 0.91925 0.50691 0.25572
 H1118 H 0.87958 0.49203 0.22081
 H1119 H 0.82237 0.56844 0.23686
 C1120 C 0.90553 0.41238 0.70826
 C1121 C 0.90992 0.40023 0.73365
 C1122 C 0.93135 0.37777 0.73836
 C1123 C 0.94926 0.36758 0.71605
 C1124 C 0.94584 0.38018 0.68974
 C1125 C 0.92355 0.40293 0.68583
 O1126 O 0.88337 0.43306 0.70813
 C1127 C 0.87379 0.43409 0.73404
 C1128 C 0.88949 0.41459 0.75051
 C1129 C 0.88338 0.41213 0.77836
 C1130 C 0.86002 0.43045 0.78969
 C1131 C 0.84317 0.45052 0.77309
 C1132 C 0.85004 0.45214 0.74480
 H1133 H 0.93423 0.36845 0.75850
 H1134 H 0.96638 0.35032 0.71944
 H1135 H 0.92034 0.41290 0.66601
 H1136 H 0.89611 0.39664 0.79091
 H1137 H 0.85481 0.42893 0.81134
 H1138 H 0.83671 0.46635 0.73144
 C1139 C 0.10893 0.57951 0.71856
 C1140 C 0.12843 0.56266 0.70234
 C1141 C 0.12480 0.56111 0.67414
 C1142 C 0.09983 0.57727 0.66221
 C1143 C 0.07936 0.59478 0.67848
 C1144 C 0.08439 0.59628 0.70703
 O1145 O 0.11461 0.57605 0.74508
 C1146 C 0.13817 0.55663 0.74561
 C1147 C 0.14765 0.54785 0.71999
 C1148 C 0.17066 0.52644 0.71586
 C1149 C 0.18401 0.51319 0.73908
 C1150 C 0.17380 0.52124 0.76566
 C1151 C 0.15114 0.54373 0.76895
 H1152 H 0.13999 0.54726 0.66185
 H1153 H 0.09606 0.57581 0.64036
 H1154 H 0.06853 0.60879 0.72001
 H1155 H 0.17745 0.51964 0.69551
 H1156 H 0.20133 0.49596 0.73644
 H1157 H 0.14259 0.54986 0.78904
 C1158 C 0.08907 0.44272 0.28856
 C1159 C 0.11027 0.45415 0.30717
 C1160 C 0.10670 0.45045 0.33524
 C1161 C 0.08053 0.43391 0.34445
 C1162 C 0.05897 0.42106 0.32559
 C1163 C 0.06326 0.42579 0.29723
 O1164 O 0.09661 0.44887 0.26283
 C1165 C 0.12330 0.46433 0.26522
 C1166 C 0.13292 0.46796 0.29190
 C1167 C 0.16101 0.48252 0.29892
 C1168 C 0.17966 0.49411 0.27757
 C1169 C 0.16945 0.49155 0.25007
 C1170 C 0.14108 0.47621 0.24380
 H1171 H 0.12363 0.45971 0.34953
 H1172 H 0.07775 0.43026 0.36619
 H1173 H 0.04727 0.41624 0.28234
 H1174 H 0.16837 0.48476 0.32002
 H1175 H 0.20158 0.50562 0.28239
 H1176 H 0.13309 0.47378 0.22286
   
