data_POSCAR
  _audit_creation_date              2014-09-24
  _audit_creation_method            'ToBaCCo'
  _symmetry_space_group_name_H-M    'P1'
  _symmetry_Int_Tables_number       1
  _symmetry_cell_setting            triclinic
  loop_
  _symmetry_equiv_pos_as_xyz
 x,y,z
_cell_length_a 30.6524
_cell_length_b 31.1406
_cell_length_c 38.7354
_cell_angle_alpha 90.206100
_cell_angle_beta 87.116800
_cell_angle_gamma 94.207400
loop_
  _atom_site_label
  _atom_site_type_symbol
  _atom_site_fract_x
  _atom_site_fract_y
  _atom_site_fract_z
C1 C -0.01895 0.54076 1.02069
 C2 C -0.02037 0.54066 0.98378
 C3 C -0.02255 0.50080 0.96640
 C4 C -0.02404 0.46146 0.98387
 C5 C -0.02256 0.46101 1.02042
 C6 C -0.01997 0.50074 1.03798
 H7 H -0.01812 0.50039 1.06582
 H8 H -0.02443 0.50000 0.93851
 C9 C 0.46357 -0.01083 0.51714
 C10 C 0.46587 -0.00315 0.48117
 C11 C 0.50677 -0.00050 0.46311
 C12 C 0.54610 -0.00511 0.47979
 C13 C 0.54355 -0.01145 0.51632
 C14 C 0.50236 -0.01443 0.53418
 H15 H 0.50044 -0.01915 0.56196
 H16 H 0.50743 0.00377 0.43534
 C17 C 0.11112 0.01080 0.25160
 H18 H 0.11284 0.01339 0.22371
 C19 C 0.14953 0.01061 0.26943
 H20 H 0.18085 0.01344 0.25509
 C21 C 0.06798 0.00426 0.30410
 H22 H 0.03613 0.00191 0.31749
 C23 C 0.10563 0.00422 0.32301
 H24 H 0.10234 0.00114 0.35087
 N25 N 0.07140 0.00678 0.26900
 C26 C -0.01160 -0.05008 0.19006
 H27 H -0.03573 -0.02663 0.18828
 C28 C -0.01344 -0.08643 0.16875
 H29 H -0.03894 -0.09081 0.15042
 C30 C 0.05016 -0.07383 0.21687
 H31 H 0.07444 -0.06930 0.23605
 C32 C 0.04893 -0.11102 0.19664
 H33 H 0.07276 -0.13449 0.20001
 Zn34 Zn 0.02139 0.00511 0.24223
 N35 N 0.02043 -0.04401 0.21305
 C36 C 0.02313 0.05739 0.18138
 N37 N 0.02451 0.05704 0.21643
 C38 C 0.02801 0.09438 0.23475
 C39 C 0.02781 0.13401 0.21808
 C40 C 0.02273 0.09634 0.16365
 C41 C -0.03947 -0.03609 0.29009
 C42 C -0.07765 -0.04135 0.31141
 C43 C -0.09694 0.02853 0.29306
 C44 C -0.05865 0.03228 0.27192
 N45 N -0.03053 0.00045 0.27111
 H46 H 0.02198 0.02759 0.16705
 H47 H 0.02974 0.09322 0.26256
 H48 H 0.02900 0.16324 0.23332
 H49 H 0.02113 0.09601 0.13579
 H50 H -0.01691 -0.06125 0.28853
 H51 H -0.08438 -0.07092 0.32593
 H52 H -0.11823 0.05479 0.29384
 H53 H -0.05165 0.06067 0.25616
 C54 C 0.01702 -0.11745 0.17210
 C55 C 0.14705 0.00684 0.30559
 C56 C -0.10700 -0.00869 0.31316
 C57 C 0.02442 0.13530 0.18209
 C58 C 0.02835 0.07734 0.78229
 H59 H 0.05672 0.06987 0.76641
 C60 C 0.03006 0.11495 0.80200
 H61 H 0.05985 0.13596 0.80104
 C62 C -0.04539 0.06027 0.80174
 H63 H -0.07471 0.03872 0.80136
 C64 C -0.04519 0.09772 0.82172
 H65 H -0.07440 0.10462 0.83702
 N66 N -0.00879 0.05054 0.78288
 C67 C 0.04414 -0.00187 0.69472
 H68 H 0.01467 0.00158 0.68114
 C69 C 0.08422 -0.00348 0.67605
 H70 H 0.08530 -0.00064 0.64817
 C71 C 0.07878 -0.00932 0.74750
 H72 H 0.07622 -0.01171 0.77539
 C73 C 0.11949 -0.01080 0.72991
 H74 H 0.14821 -0.01464 0.74445
 Zn75 Zn -0.01103 -0.00057 0.75611
 N76 N 0.04231 -0.00408 0.72983
 C77 C -0.06152 0.03721 0.70768
 N78 N -0.05850 0.00105 0.72673
 C79 C -0.08937 -0.03252 0.72566
 C80 C -0.12452 -0.03087 0.70431
 C81 C -0.09651 0.04047 0.68628
 C82 C -0.02422 -0.04598 0.82000
 C83 C -0.02880 -0.08271 0.84086
 C84 C -0.02064 -0.12639 0.78961
 C85 C -0.01610 -0.08888 0.76977
 N86 N -0.01845 -0.04972 0.78509
 H87 H -0.03686 0.06372 0.70939
 H88 H -0.08694 -0.06073 0.74133
 H89 H -0.14799 -0.05850 0.70332
 H90 H -0.09867 0.06992 0.67192
 H91 H -0.02485 -0.01458 0.83182
 H92 H -0.03279 -0.07904 0.86862
 H93 H -0.01947 -0.15726 0.77678
 H94 H -0.01083 -0.09091 0.74200
 C95 C 0.12263 -0.00745 0.69373
 C96 C -0.00696 0.12546 0.82217
 C97 C -0.02706 -0.12363 0.82570
 C98 C -0.12868 0.00607 0.68432
 C99 C -0.03608 -0.41834 0.07349
 C100 C -0.03178 -0.38091 0.09334
 C101 C -0.00558 -0.34510 0.08110
 C102 C 0.01795 -0.34759 0.04922
 C103 C 0.01463 -0.38546 0.02967
 C104 C -0.01366 -0.42110 0.04088
 N105 N -0.00336 -0.30679 0.10165
 N106 N 0.00913 -0.27001 0.08900
 C107 C 0.01148 -0.23215 0.11014
 C108 C 0.01305 -0.19160 0.09443
 C109 C 0.01426 -0.15418 0.11456
 C110 C 0.01503 -0.15687 0.15071
 C111 C 0.01418 -0.19752 0.16640
 C112 C 0.01201 -0.23490 0.14633
 H113 H -0.05852 -0.44449 0.08323
 H114 H -0.04991 -0.37939 0.11799
 H115 H 0.03935 -0.32055 0.03971
 H116 H 0.03469 -0.38686 0.00594
 H117 H 0.01273 -0.18907 0.06657
 H118 H 0.01519 -0.12312 0.10195
 H119 H 0.01461 -0.20030 0.19425
 H120 H 0.01107 -0.26588 0.15903
 C121 C -0.05100 0.38595 0.03214
 C122 C -0.04894 0.34719 0.04984
 C123 C -0.01927 0.34387 0.07576
 C124 C 0.00756 0.38031 0.08463
 C125 C 0.00553 0.41915 0.06702
 C126 C -0.02286 0.42230 0.03970
 N127 N -0.01654 0.30309 0.09221
 N128 N 0.01067 0.29756 0.11527
 C129 C 0.01384 0.25662 0.13135
 C130 C 0.04362 0.25325 0.15724
 C131 C 0.04742 0.21383 0.17357
 C132 C 0.02148 0.17694 0.16410
 C133 C -0.00817 0.18037 0.13786
 C134 C -0.01202 0.21984 0.12165
 H135 H -0.07522 0.38752 0.01289
 H136 H -0.07038 0.31953 0.04319
 H137 H 0.03066 0.37862 0.10474
 H138 H 0.02798 0.44604 0.07367
 H139 H 0.06389 0.28132 0.16483
 H140 H 0.07088 0.21211 0.19341
 H141 H -0.02901 0.15268 0.13033
 H142 H -0.03529 0.22161 0.10168
 C143 C 0.38767 -0.04572 0.52815
 C144 C 0.34730 -0.04871 0.54677
 C145 C 0.34004 -0.02200 0.57530
 C146 C 0.37390 0.00770 0.58525
 C147 C 0.41417 0.01090 0.56652
 C148 C 0.42123 -0.01543 0.53758
 N149 N 0.29799 -0.02516 0.59339
 N150 N 0.29017 -0.00321 0.62048
 C151 C 0.24810 -0.00543 0.63847
 C152 C 0.24306 0.01763 0.66927
 C153 C 0.20240 0.01673 0.68733
 C154 C 0.16587 -0.00716 0.67470
 C155 C 0.17096 -0.03028 0.64368
 C156 C 0.21178 -0.02956 0.62574
 H157 H 0.39265 -0.06679 0.50623
 H158 H 0.32154 -0.07181 0.53892
 H159 H 0.36911 0.02874 0.60721
 H160 H 0.43961 0.03446 0.57423
 H161 H 0.27076 0.03650 0.67924
 H162 H 0.19935 0.03532 0.71090
 H163 H 0.14348 -0.04924 0.63350
 H164 H 0.21488 -0.04763 0.60193
 C165 C -0.41397 -0.04436 0.56166
 C166 C -0.37791 -0.04407 0.58231
 C167 C -0.34438 -0.01118 0.57897
 C168 C -0.34747 0.02198 0.55489
 C169 C -0.38394 0.02211 0.53457
 C170 C -0.41730 -0.01137 0.53750
 N171 N -0.30809 -0.01201 0.60077
 N172 N -0.27327 0.01256 0.59604
 C173 C -0.23777 0.01141 0.61864
 C174 C -0.19699 0.03193 0.60867
 C175 C -0.16152 0.03032 0.62989
 C176 C -0.16646 0.00859 0.66184
 C177 C -0.20788 -0.01115 0.67203
 C178 C -0.24305 -0.01003 0.65059
 H179 H -0.43929 -0.07044 0.56445
 H180 H -0.37592 -0.06970 0.60086
 H181 H -0.32210 0.04799 0.55213
 H182 H -0.38620 0.04831 0.51659
 H183 H -0.19249 0.04856 0.58410
 H184 H -0.13007 0.04539 0.62093
 H185 H -0.21333 -0.02722 0.69677
 H186 H -0.27444 -0.02566 0.65910
 C187 C 0.00311 -0.41712 0.93204
 C188 C 0.00291 -0.37992 0.91217
 C189 C -0.02274 -0.34661 0.92279
 C190 C -0.04918 -0.35118 0.95344
 C191 C -0.04909 -0.38854 0.97347
 C192 C -0.02209 -0.42173 0.96347
 N193 N -0.02048 -0.30846 0.90211
 N194 N -0.04242 -0.27624 0.90953
 C195 C -0.03843 -0.23843 0.88826
 C196 C -0.06431 -0.20430 0.89656
 C197 C -0.06076 -0.16697 0.87630
 C198 C -0.03108 -0.16317 0.84735
 C199 C -0.00505 -0.19750 0.83921
 C200 C -0.00871 -0.23476 0.85939
 H201 H 0.02462 -0.44154 0.92344
 H202 H 0.02338 -0.37672 0.88857
 H203 H -0.06971 -0.32595 0.96194
 H204 H -0.07040 -0.39157 0.99662
 H205 H -0.08735 -0.20671 0.91871
 H206 H -0.08163 -0.14131 0.88303
 H207 H 0.01867 -0.19535 0.81750
 H208 H 0.01193 -0.26054 0.85252
 C209 C -0.05870 0.41166 0.94077
 C210 C -0.05975 0.37386 0.92123
 C211 C -0.02613 0.34600 0.92277
 C212 C 0.00908 0.35657 0.94393
 C213 C 0.01013 0.39439 0.96354
 C214 C -0.02407 0.42191 0.96243
 N215 N -0.02876 0.30718 0.90282
 N216 N 0.00100 0.28074 0.90235
 C217 C -0.00199 0.24187 0.88246
 C218 C 0.03305 0.21549 0.88153
 C219 C 0.03140 0.17758 0.86207
 C220 C -0.00560 0.16530 0.84331
 C221 C -0.04098 0.19164 0.84457
 C222 C -0.03918 0.22967 0.86390
 H223 H -0.08529 0.43259 0.93952
 H224 H -0.08696 0.36610 0.90497
 H225 H 0.03553 0.33557 0.94546
 H226 H 0.03734 0.40204 0.97983
 H227 H 0.06179 0.22444 0.89584
 H228 H 0.05892 0.15766 0.86193
 H229 H -0.06970 0.18323 0.83010
 H230 H -0.06674 0.24954 0.86424
 C231 C -0.40680 0.02389 0.43079
 C232 C -0.36816 0.02446 0.41011
 C233 C -0.33562 -0.00281 0.41729
 C234 C -0.34223 -0.03125 0.44539
 C235 C -0.38113 -0.03224 0.46600
 C236 C -0.41398 -0.00424 0.45937
 N237 N -0.29659 -0.00112 0.39529
 N238 N -0.26344 -0.02151 0.40174
 C239 C -0.22502 -0.01919 0.37895
 C240 C -0.18698 -0.03647 0.38950
 C241 C -0.14867 -0.03339 0.36814
 C242 C -0.14793 -0.01326 0.33561
 C243 C -0.18659 0.00318 0.32485
 C244 C -0.22465 0.00045 0.34633
 H245 H -0.43042 0.04665 0.42490
 H246 H -0.36336 0.04659 0.38852
 H247 H -0.31774 -0.05320 0.45106
 H248 H -0.38596 -0.05612 0.48630
 H249 H -0.18683 -0.05169 0.41458
 H250 H -0.11942 -0.04596 0.37744
 H251 H -0.18757 0.01799 0.29968
 H252 H -0.25377 0.01363 0.33737
 C253 C 0.39716 0.03353 0.47156
 C254 C 0.35944 0.03784 0.45339
 C255 C 0.35054 0.01157 0.42483
 C256 C 0.37993 -0.01922 0.41454
 C257 C 0.41745 -0.02374 0.43281
 C258 C 0.42623 0.00235 0.46163
 N259 N 0.31146 0.01646 0.40688
 N260 N 0.30310 -0.00479 0.37957
 C261 C 0.26400 -0.00080 0.36149
 C262 C 0.25881 -0.02330 0.33049
 C263 C 0.22097 -0.02057 0.31223
 C264 C 0.18743 0.00462 0.32486
 C265 C 0.19264 0.02714 0.35609
 C266 C 0.23070 0.02459 0.37423
 H267 H 0.40363 0.05441 0.49342
 H268 H 0.33713 0.06175 0.46152
 H269 H 0.37376 -0.03998 0.39257
 H270 H 0.43941 -0.04801 0.42475
 H271 H 0.28417 -0.04311 0.32051
 H272 H 0.21762 -0.03874 0.28851
 H273 H 0.16748 0.04706 0.36627
 H274 H 0.23398 0.04225 0.39820
   
