data_POSCAR
  _audit_creation_date              2014-09-24
  _audit_creation_method            'ToBaCCo'
  _symmetry_space_group_name_H-M    'P1'
  _symmetry_Int_Tables_number       1
  _symmetry_cell_setting            triclinic
  loop_
  _symmetry_equiv_pos_as_xyz
 x,y,z
_cell_length_a 58.9345
_cell_length_b 58.9684
_cell_length_c 17.6774
_cell_angle_alpha 89.922500
_cell_angle_beta 90.103200
_cell_angle_gamma 120.030400
loop_
  _atom_site_label
  _atom_site_type_symbol
  _atom_site_fract_x
  _atom_site_fract_y
  _atom_site_fract_z
C1 C 0.24864 0.49753 0.53354
 C2 C 0.24846 0.49792 0.45639
 C3 C 0.22612 0.49638 0.41297
 C4 C 0.27056 0.49961 0.41164
 C5 C 0.26971 0.49630 0.57638
 C6 C 0.22785 0.49831 0.57891
 C7 C 0.20040 0.47577 0.42489
 C8 C 0.17949 0.47484 0.38469
 C9 C 0.18412 0.49437 0.33155
 C10 C 0.20981 0.51466 0.31832
 C11 C 0.23069 0.51558 0.35859
 C12 C 0.26580 0.48023 0.35783
 C13 C 0.28660 0.48081 0.31833
 C14 C 0.31233 0.50090 0.33177
 C15 C 0.31714 0.52071 0.38378
 C16 C 0.29635 0.52017 0.42325
 C17 C 0.28447 0.51566 0.63021
 C18 C 0.30501 0.51528 0.66872
 C19 C 0.31085 0.49542 0.65426
 C20 C 0.29581 0.47570 0.60198
 C21 C 0.27524 0.47604 0.56350
 C22 C 0.22182 0.51834 0.56845
 C23 C 0.20172 0.51840 0.61020
 C24 C 0.18767 0.49862 0.66331
 C25 C 0.19400 0.47896 0.67519
 C26 C 0.21406 0.47886 0.63344
 H27 H 0.19653 0.46048 0.46549
 H28 H 0.15977 0.45894 0.39542
 H29 H 0.21377 0.52989 0.27733
 H30 H 0.25039 0.53151 0.34826
 H31 H 0.24605 0.46431 0.34786
 H32 H 0.28267 0.46542 0.27810
 H33 H 0.30036 0.53554 0.46360
 H34 H 0.28040 0.53135 0.64120
 H35 H 0.31647 0.53059 0.70923
 H36 H 0.30008 0.46017 0.59065
 H37 H 0.26378 0.46067 0.52318
 H38 H 0.23257 0.53380 0.52770
 H39 H 0.19705 0.53377 0.60078
 H40 H 0.18327 0.46358 0.71622
 H41 H 0.21852 0.46334 0.64264
 H42 H 0.33697 0.53639 0.39436
 C43 C 0.50115 -0.25001 0.54014
 C44 C 0.50105 -0.25009 0.46297
 C45 C 0.49975 -0.27217 0.41903
 C46 C 0.50247 -0.22799 0.41881
 C47 C 0.49963 -0.22930 0.58384
 C48 C 0.50295 -0.27052 0.58417
 C49 C 0.51903 -0.26724 0.36467
 C50 C 0.51861 -0.28793 0.32502
 C51 C 0.49878 -0.31373 0.33885
 C52 C 0.47913 -0.31873 0.39165
 C53 C 0.47952 -0.29804 0.43129
 C54 C 0.52301 -0.20222 0.43046
 C55 C 0.52360 -0.18145 0.39062
 C56 C 0.50385 -0.18627 0.33820
 C57 C 0.48371 -0.21197 0.32494
 C58 C 0.48308 -0.23275 0.36482
 C59 C 0.47915 -0.22402 0.57138
 C60 C 0.47880 -0.20344 0.60946
 C61 C 0.49873 -0.18812 0.66095
 C62 C 0.51874 -0.19379 0.67530
 C63 C 0.51913 -0.21435 0.63719
 C64 C 0.48364 -0.28543 0.63789
 C65 C 0.48433 -0.30579 0.67647
 C66 C 0.50448 -0.31128 0.66218
 C67 C 0.52424 -0.29594 0.61027
 C68 C 0.52356 -0.27557 0.57177
 H69 H 0.53471 -0.24742 0.35416
 H70 H 0.53388 -0.28385 0.28419
 H71 H 0.46364 -0.33862 0.40254
 H72 H 0.46420 -0.30220 0.47198
 H73 H 0.53841 -0.19821 0.47085
 H74 H 0.53934 -0.16165 0.40103
 H75 H 0.46719 -0.25250 0.35476
 H76 H 0.46368 -0.23561 0.53141
 H77 H 0.46314 -0.19931 0.59823
 H78 H 0.53421 -0.18212 0.71521
 H79 H 0.53501 -0.21820 0.64781
 H80 H 0.46768 -0.28173 0.64848
 H81 H 0.46896 -0.31744 0.71665
 H82 H 0.54002 -0.29986 0.59891
 H83 H 0.53889 -0.26397 0.53151
 H84 H 0.46837 -0.21590 0.28436
 C85 C 1.24843 0.75200 0.54129
 C86 C 1.24891 0.75204 0.46414
 C87 C 1.27138 0.77279 0.42114
 C88 C 1.22689 0.73158 0.41904
 C89 C 1.22728 0.73009 0.58497
 C90 C 1.26910 0.77400 0.58585
 C91 C 1.26704 0.78771 0.36718
 C92 C 1.28813 0.80813 0.32901
 C93 C 1.31378 0.81372 0.34394
 C94 C 1.31818 0.79845 0.39627
 C95 C 1.29708 0.77800 0.43439
 C96 C 1.20110 0.72644 0.42957
 C97 C 1.18048 0.70665 0.38818
 C98 C 1.18546 0.69201 0.33532
 C99 C 1.21118 0.69746 0.32332
 C100 C 1.23181 0.71722 0.36473
 C101 C 1.22132 0.70410 0.57349
 C102 C 1.20101 0.68365 0.61398
 C103 C 1.18663 0.68900 0.66691
 C104 C 1.19285 0.71493 0.67967
 C105 C 1.21313 0.73536 0.63915
 C106 C 1.28347 0.76906 0.64024
 C107 C 1.30369 0.78973 0.68032
 C108 C 1.30956 0.81553 0.66685
 C109 C 1.29484 0.82051 0.61402
 C110 C 1.27461 0.79984 0.57400
 H111 H 1.24736 0.78390 0.35594
 H112 H 1.28442 0.81972 0.28850
 H113 H 1.33790 0.80245 0.40812
 H114 H 1.30077 0.76642 0.47485
 H115 H 1.19697 0.73765 0.47012
 H116 H 1.16066 0.70267 0.39769
 H117 H 1.25158 0.72102 0.35545
 H118 H 1.23233 0.69967 0.53302
 H119 H 1.19649 0.66370 0.60373
 H120 H 1.18194 0.71938 0.72052
 H121 H 1.21753 0.75528 0.64913
 H122 H 1.27939 0.74925 0.65042
 H123 H 1.31487 0.78558 0.72117
 H124 H 1.29909 0.84036 0.60327
 H125 H 1.26341 0.80398 0.53325
 H126 H 1.21525 0.68628 0.28247
 C127 C 0.75191 0.50321 0.54177
 C128 C 0.75165 0.50280 0.46461
 C129 C 0.77230 0.50125 0.42057
 C130 C 0.73099 0.50428 0.42039
 C131 C 0.73013 0.50235 0.58634
 C132 C 0.77414 0.50461 0.58531
 C133 C 0.78686 0.52052 0.36633
 C134 C 0.80708 0.51992 0.32684
 C135 C 0.81280 0.49993 0.34070
 C136 C 0.79793 0.48027 0.39333
 C137 C 0.77767 0.48083 0.43281
 C138 C 0.72586 0.52489 0.43151
 C139 C 0.70599 0.52573 0.39054
 C140 C 0.69127 0.50615 0.33754
 C141 C 0.69667 0.48589 0.32505
 C142 C 0.71651 0.48501 0.36603
 C143 C 0.70408 0.48230 0.57518
 C144 C 0.68372 0.48217 0.61611
 C145 C 0.68922 0.50190 0.66921
 C146 C 0.71521 0.52158 0.68177
 C147 C 0.73555 0.52174 0.64080
 C148 C 0.76950 0.48517 0.63890
 C149 C 0.79042 0.48555 0.67741
 C150 C 0.81616 0.50551 0.66316
 C151 C 0.82084 0.52537 0.61128
 C152 C 0.79992 0.52501 0.57284
 H153 H 0.78294 0.53634 0.35583
 H154 H 0.81843 0.53520 0.28613
 H155 H 0.80211 0.46465 0.40426
 H156 H 0.76635 0.46552 0.47344
 H157 H 0.73717 0.54022 0.47209
 H158 H 0.70203 0.54155 0.40039
 H159 H 0.72030 0.46908 0.35631
 H160 H 0.69953 0.46688 0.53450
 H161 H 0.66372 0.46675 0.60599
 H162 H 0.71978 0.53695 0.72273
 H163 H 0.75551 0.53727 0.65056
 H164 H 0.74974 0.46939 0.64951
 H165 H 0.78651 0.47011 0.71757
 H166 H 0.84064 0.54100 0.59998
 H167 H 0.80383 0.54042 0.53267
 H168 H 0.68542 0.47068 0.28407
 C169 C 0.49598 0.24776 0.54325
 C170 C 0.49595 0.24782 0.46608
 C171 C 0.49467 0.26862 0.42189
 C172 C 0.49706 0.22699 0.42192
 C173 C 0.49467 0.22567 0.58744
 C174 C 0.49716 0.26971 0.58747
 C175 C 0.47432 0.27413 0.43342
 C176 C 0.47367 0.29410 0.39241
 C177 C 0.49317 0.30855 0.33894
 C178 C 0.51317 0.30278 0.32610
 C179 C 0.51386 0.28285 0.36712
 C180 C 0.47762 0.21268 0.36777
 C181 C 0.47795 0.19248 0.32748
 C182 C 0.49784 0.18654 0.34046
 C183 C 0.51763 0.20112 0.39315
 C184 C 0.51733 0.22135 0.43344
 C185 C 0.51389 0.23061 0.64221
 C186 C 0.51314 0.20999 0.68339
 C187 C 0.49302 0.18421 0.67070
 C188 C 0.47349 0.17920 0.61714
 C189 C 0.47423 0.19983 0.57600
 C190 C 0.51746 0.29561 0.57610
 C191 C 0.51787 0.31616 0.61660
 C192 C 0.49814 0.31097 0.66942
 C193 C 0.47821 0.28512 0.68222
 C194 C 0.47779 0.26460 0.64169
 H195 H 0.45904 0.26304 0.47433
 H196 H 0.45803 0.29832 0.40257
 H197 H 0.52832 0.31380 0.28478
 H198 H 0.52960 0.27878 0.35706
 H199 H 0.46192 0.21683 0.35781
 H200 H 0.46258 0.18135 0.28674
 H201 H 0.53277 0.23249 0.47395
 H202 H 0.52969 0.25041 0.65220
 H203 H 0.52835 0.21418 0.72472
 H204 H 0.45775 0.15938 0.60692
 H205 H 0.45893 0.19567 0.53509
 H206 H 0.53285 0.29989 0.53553
 H207 H 0.53346 0.33605 0.60632
 H208 H 0.46285 0.28082 0.72298
 H209 H 0.46208 0.24475 0.65153
 H210 H 0.53317 0.19674 0.40338
 C211 C 0.75203 0.24875 0.54055
 C212 C 0.75173 0.24881 0.46338
 C213 C 0.73101 0.22667 0.41918
 C214 C 0.77233 0.27098 0.41928
 C215 C 0.77427 0.26964 0.58408
 C216 C 0.73019 0.22789 0.58502
 C217 C 0.72575 0.20088 0.43054
 C218 C 0.70599 0.18023 0.38912
 C219 C 0.69149 0.18517 0.33543
 C220 C 0.69698 0.21088 0.32285
 C221 C 0.71671 0.23153 0.36427
 C222 C 0.78701 0.26629 0.36554
 C223 C 0.80725 0.28712 0.32611
 C224 C 0.81285 0.31280 0.33959
 C225 C 0.79784 0.31755 0.39166
 C226 C 0.77757 0.29673 0.43107
 C227 C 0.76959 0.28434 0.63778
 C228 C 0.79048 0.30489 0.67635
 C229 C 0.81626 0.31081 0.66210
 C230 C 0.82099 0.29574 0.61007
 C231 C 0.80010 0.27517 0.57156
 C232 C 0.70421 0.22209 0.57362
 C233 C 0.68372 0.20171 0.61375
 C234 C 0.68902 0.18714 0.66618
 C235 C 0.71492 0.19327 0.67919
 C236 C 0.73542 0.21362 0.63905
 H237 H 0.73691 0.19678 0.47152
 H238 H 0.70197 0.16043 0.39909
 H239 H 0.68592 0.21493 0.28136
 H240 H 0.72059 0.25129 0.35431
 H241 H 0.78316 0.24656 0.35543
 H242 H 0.81871 0.28324 0.28580
 H243 H 0.76615 0.30067 0.47135
 H244 H 0.74981 0.28028 0.64847
 H245 H 0.78650 0.31632 0.71660
 H246 H 0.84081 0.29999 0.59873
 H247 H 0.80406 0.26376 0.53134
 H248 H 0.69982 0.23319 0.53321
 H249 H 0.66376 0.19720 0.60352
 H250 H 0.71923 0.18215 0.71977
 H251 H 0.75532 0.21790 0.64892
 H252 H 0.80195 0.33735 0.40224
 O253 O 0.96433 0.52165 -0.14061
 O254 O 0.93526 0.48674 -0.06889
 C255 C 0.94068 0.50406 -0.12148
 O256 O 1.03784 0.47768 -0.13057
 O257 O 1.06631 0.51372 -0.06141
 C258 C 1.06134 0.49552 -0.11065
 O259 O 0.96438 0.44280 -0.14029
 O260 O 0.93528 0.44858 -0.06877
 C261 C 0.94071 0.43670 -0.12125
 O262 O 1.03777 0.56035 -0.13104
 O263 O 1.06628 0.55286 -0.06163
 C264 C 1.06129 0.56606 -0.11105
 Zr265 Zr 1.00086 0.52920 -0.09587
 O266 O 1.00383 0.53180 -0.21524
 O267 O 0.99964 0.56434 -0.08806
 Zr268 Zr 1.00091 0.47184 -0.09558
 O269 O 1.00388 0.47221 -0.21494
 O270 O 0.99974 0.43552 -0.08740
 O271 O 0.97757 0.48885 -0.11151
 O272 O 1.02362 0.51191 -0.10905
 O273 O 1.03681 0.56021 0.13068
 O274 O 1.06587 0.55275 0.06438
 C275 C 1.06048 0.56601 0.11239
 O276 O 0.96338 0.44234 0.13723
 O277 O 0.93485 0.44847 0.06358
 C278 C 0.93987 0.43649 0.11684
 O279 O 1.03689 0.47690 0.13121
 O280 O 1.06590 0.51342 0.06462
 C281 C 1.06055 0.49481 0.11286
 O282 O 0.96330 0.52113 0.13693
 O283 O 0.93480 0.48644 0.06351
 C284 C 0.93979 0.50344 0.11667
 Zr285 Zr 1.00015 0.52880 0.09478
 O286 O 1.00280 0.53001 0.21432
 O287 O 0.99759 0.56334 0.09408
 Zr288 Zr 1.00021 0.47156 0.09506
 O289 O 1.00284 0.47300 0.21461
 O290 O 0.99772 0.43449 0.09471
 Zr291 Zr 0.96131 0.48071 -0.00189
 Zr292 Zr 1.03947 0.51985 0.00077
 O293 O 1.02292 0.51157 0.10967
 O294 O 0.97671 0.48843 0.10895
 O295 O 1.02391 0.54513 0.00012
 O296 O 0.97762 0.45610 -0.00107
 O297 O 0.97757 0.52164 -0.00140
 O298 O 1.02397 0.47902 0.00044
 H299 H 1.03551 0.51786 -0.15333
 H300 H 0.96578 0.43685 -0.00130
 H301 H 1.03470 0.51748 0.15427
 H302 H 0.96570 0.52901 -0.00173
 H303 H 1.00009 0.42995 -0.14005
 H304 H 1.01019 0.43517 0.05611
 H305 H 0.98808 0.47479 0.23399
 H306 H 0.98807 0.51345 0.23381
 H307 H 1.01002 0.57513 0.05538
 H308 H 0.99997 0.57023 -0.14077
 H309 H 0.99058 0.51459 -0.23572
 H310 H 0.99062 0.47615 -0.23553
 O311 O 0.52169 0.55722 -0.14166
 O312 O 0.48650 0.55111 -0.07084
 C313 C 0.50394 0.56313 -0.12299
 O314 O 0.47794 0.43984 -0.13252
 O315 O 0.51389 0.44752 -0.06261
 C316 C 0.49578 0.43424 -0.11212
 O317 O 0.44304 0.47855 -0.14248
 O318 O 0.44887 0.51353 -0.07111
 C319 C 0.43701 0.49620 -0.12370
 O320 O 0.56063 0.52249 -0.13073
 O321 O 0.55287 0.48644 -0.06115
 C322 C 0.56624 0.50465 -0.11037
 Zr323 Zr 0.52942 0.52833 -0.09681
 O324 O 0.53235 0.52807 -0.21608
 O325 O 0.56455 0.56472 -0.08843
 Zr326 Zr 0.47198 0.47087 -0.09781
 O327 O 0.47370 0.46909 -0.21712
 O328 O 0.43469 0.43646 -0.09758
 O329 O 0.48909 0.51120 -0.11355
 O330 O 0.51210 0.48826 -0.11000
 O331 O 0.55987 0.52323 0.13082
 O332 O 0.55242 0.48669 0.06471
 C333 C 0.56563 0.50533 0.11288
 O334 O 0.44205 0.47931 0.13400
 O335 O 0.44851 0.51397 0.05982
 C336 C 0.43633 0.49700 0.11297
 O337 O 0.47659 0.44007 0.13070
 O338 O 0.51299 0.44732 0.06418
 C339 C 0.49440 0.43420 0.11255
 O340 O 0.52094 0.55767 0.13594
 O341 O 0.48649 0.55144 0.06130
 C342 C 0.50331 0.56345 0.11497
 Zr343 Zr 0.52865 0.52860 0.09384
 O344 O 0.52985 0.52742 0.21341
 O345 O 0.56323 0.56572 0.09277
 Zr346 Zr 0.47115 0.47121 0.09334
 O347 O 0.47216 0.46990 0.21293
 O348 O 0.43379 0.43691 0.09247
 Zr349 Zr 0.48077 0.51916 -0.00405
 Zr350 Zr 0.51968 0.48024 0.00024
 O351 O 0.51121 0.48857 0.10880
 O352 O 0.48819 0.51159 0.10718
 O353 O 0.54508 0.52109 -0.00028
 O354 O 0.45601 0.47824 -0.00354
 O355 O 0.52168 0.54400 -0.00268
 O356 O 0.47877 0.45487 -0.00106
 H357 H 0.51820 0.48238 -0.15402
 H358 H 0.43678 0.47094 -0.00426
 H359 H 0.51702 0.48272 0.15367
 H360 H 0.52898 0.56323 -0.00302
 H361 H 0.43619 0.42310 -0.06753
 H362 H 0.43525 0.42362 0.06211
 H363 H 0.47395 0.48645 0.23222
 H364 H 0.51295 0.52481 0.23250
 H365 H 0.57524 0.56483 0.05538
 H366 H 0.57049 0.57032 -0.14106
 H367 H 0.51510 0.52383 -0.23697
 H368 H 0.47590 0.48569 -0.23758
 O369 O 0.52194 -0.03689 0.13604
 O370 O 0.48644 -0.06566 0.06556
 C371 C 0.50411 -0.06045 0.11693
 O372 O 0.47804 0.03670 0.13725
 O373 O 0.51342 0.06538 0.06629
 C374 C 0.49563 0.06025 0.11700
 O375 O 0.44316 -0.03687 0.14454
 O376 O 0.44835 -0.06560 0.06949
 C377 C 0.43697 -0.06044 0.12401
 O378 O 0.56063 0.03652 0.12861
 O379 O 0.55265 0.06533 0.06274
 C380 C 0.56626 0.06011 0.11009
 Zr381 Zr 0.52916 -0.00025 0.09373
 O382 O 0.53210 0.00265 0.21309
 O383 O 0.56348 -0.00322 0.08841
 Zr384 Zr 0.47189 -0.00017 0.10006
 O385 O 0.47448 0.00276 0.21947
 O386 O 0.43461 -0.00307 0.10298
 O387 O 0.48894 -0.02361 0.11173
 O388 O 0.51206 0.02250 0.11094
 O389 O 0.55815 0.03673 -0.13381
 O390 O 0.55147 0.06539 -0.06284
 C391 C 0.56419 0.06028 -0.11343
 O392 O 0.44044 -0.03671 -0.13306
 O393 O 0.44701 -0.06558 -0.06265
 C394 C 0.43459 -0.06030 -0.11398
 O395 O 0.47537 0.03663 -0.12581
 O396 O 0.51239 0.06533 -0.06061
 C397 C 0.49349 0.06019 -0.10765
 O398 O 0.51923 -0.03692 -0.14130
 O399 O 0.48516 -0.06562 -0.06640
 C400 C 0.50178 -0.06048 -0.12073
 Zr401 Zr 0.52725 -0.00019 -0.09704
 O402 O 0.52751 0.00283 -0.21643
 O403 O 0.56159 -0.00314 -0.10042
 Zr404 Zr 0.46999 -0.00012 -0.09081
 O405 O 0.47014 0.00283 -0.21019
 O406 O 0.43275 -0.00300 -0.08576
 Zr407 Zr 0.47991 -0.03936 0.00148
 Zr408 Zr 0.51908 0.03875 0.00163
 O409 O 0.50989 0.02257 -0.10777
 O410 O 0.48672 -0.02357 -0.10879
 O411 O 0.54439 0.02317 -0.00206
 O412 O 0.45535 -0.02298 0.00504
 O413 O 0.52087 -0.02307 -0.00209
 O414 O 0.47820 0.02326 0.00510
 H415 H 0.51843 0.03432 0.15535
 H416 H 0.43611 -0.03481 0.00644
 H417 H 0.51543 0.03440 -0.15222
 H418 H 0.52825 -0.03491 -0.00346
 H419 H 0.43588 0.01185 0.07384
 H420 H 0.43467 0.01201 -0.05574
 H421 H 0.47233 -0.01150 -0.23110
 H422 H 0.51079 -0.01186 -0.23536
 H423 H 0.57520 0.01158 -0.07055
 H424 H 0.57668 0.01191 0.05894
 H425 H 0.51548 -0.01156 0.23408
 H426 H 0.47681 -0.01174 0.23837
 C427 C 1.12498 0.49353 0.22312
 C428 C 1.12976 0.51265 0.16864
 C429 C 1.10883 0.51297 0.13225
 C430 C 1.16454 0.49389 0.29516
 C431 C 1.07822 0.47485 0.20445
 C432 C 1.09918 0.47459 0.24073
 C433 C 1.14651 0.49364 0.26200
 C434 C 1.08278 0.49413 0.14999
 H435 H 1.14967 0.52743 0.15463
 H436 H 1.11309 0.52807 0.09060
 H437 H 1.05845 0.46005 0.21952
 H438 H 1.09527 0.45972 0.28289
 C439 C 0.50032 0.62614 0.22944
 C440 C 0.48211 0.61202 0.17265
 C441 C 0.48308 0.59164 0.13532
 C442 C 0.49896 0.66496 0.29991
 C443 C 0.52052 0.59942 0.21170
 C444 C 0.51950 0.61980 0.24888
 C445 C 0.49944 0.64721 0.26764
 C446 C 0.50233 0.58511 0.15438
 H447 H 0.46717 0.61677 0.15718
 H448 H 0.46873 0.58101 0.09164
 H449 H 0.53557 0.59493 0.22786
 H450 H 0.53370 0.63062 0.29279
 C451 C 0.37395 -0.12569 0.23970
 C452 C 0.38086 -0.10005 0.25960
 C453 C 0.40145 -0.07878 0.22237
 C454 C 0.33436 -0.16582 0.30847
 C455 C 0.40835 -0.10878 0.14533
 C456 C 0.38778 -0.12999 0.18266
 C457 C 0.35247 -0.14756 0.27719
 C458 C 0.41539 -0.08289 0.16455
 H459 H 0.37027 -0.09651 0.30369
 H460 H 0.40633 -0.05915 0.23864
 H461 H 0.41867 -0.11271 0.10126
 H462 H 0.38259 -0.14976 0.16682
 C463 C 0.87434 0.50097 0.23154
 C464 C 0.87011 0.48258 0.17531
 C465 C 0.89138 0.48338 0.13791
 C466 C 0.83426 0.49994 0.30192
 C467 C 0.92127 0.52099 0.21309
 C468 C 0.89995 0.52015 0.25036
 C469 C 0.85245 0.50028 0.26974
 C470 C 0.91724 0.50263 0.15630
 H471 H 0.85036 0.46764 0.16030
 H472 H 0.88752 0.46889 0.09466
 H473 H 0.94087 0.53605 0.22874
 H474 H 0.90345 0.53448 0.29382
 C475 C 0.49285 0.36866 0.22465
 C476 C 0.51210 0.38292 0.17043
 C477 C 0.51251 0.40410 0.13341
 C478 C 0.49288 0.32953 0.29798
 C479 C 0.47424 0.39671 0.20444
 C480 C 0.47389 0.37555 0.24133
 C481 C 0.49281 0.34728 0.26420
 C482 C 0.49364 0.41134 0.15025
 H483 H 0.52689 0.37777 0.15711
 H484 H 0.52770 0.41488 0.09201
 H485 H 0.45941 0.40169 0.21883
 H486 H 0.45892 0.36467 0.28326
 C487 C 0.63196 0.12455 0.22016
 C488 C 0.62562 0.09879 0.23607
 C489 C 0.60448 0.07785 0.19955
 C490 C 0.67074 0.16387 0.29399
 C491 C 0.59607 0.10840 0.13024
 C492 C 0.61723 0.12931 0.16689
 C493 C 0.65317 0.14599 0.25988
 C494 C 0.58932 0.08238 0.14654
 H495 H 0.63687 0.09488 0.27725
 H496 H 0.59988 0.05811 0.21348
 H497 H 0.58486 0.11262 0.08977
 H498 H 0.62196 0.14919 0.15420
 C499 C 0.49232 0.12472 -0.21729
 C500 C 0.51200 0.12944 -0.16473
 C501 C 0.51225 0.10850 -0.12830
 C502 C 0.49267 0.16407 -0.29044
 C503 C 0.47295 0.07802 -0.19651
 C504 C 0.47275 0.09899 -0.23279
 C505 C 0.49248 0.14619 -0.25663
 C506 C 0.49280 0.08250 -0.14412
 H507 H 0.52727 0.14930 -0.15236
 H508 H 0.52782 0.11268 -0.08832
 H509 H 0.45767 0.05830 -0.21006
 H510 H 0.45744 0.09511 -0.27343
 C511 C 0.63079 0.50364 -0.22013
 C512 C 0.62458 0.52300 -0.23835
 C513 C 0.60382 0.52357 -0.20200
 C514 C 0.66935 0.50225 -0.29246
 C515 C 0.59552 0.48547 -0.12830
 C516 C 0.61630 0.48496 -0.16479
 C517 C 0.65179 0.50279 -0.25909
 C518 C 0.58892 0.50471 -0.14680
 H519 H 0.63567 0.53757 -0.28110
 H520 H 0.59931 0.53864 -0.21769
 H521 H 0.58450 0.47065 -0.08614
 H522 H 0.62094 0.46989 -0.15022
 C523 C 0.87630 0.37172 -0.23397
 C524 C 0.87152 0.38594 -0.17922
 C525 C 0.89245 0.40719 -0.14292
 C526 C 0.83667 0.33140 -0.30220
 C527 C 0.92309 0.40018 -0.21645
 C528 C 0.90212 0.37894 -0.25263
 C529 C 0.85474 0.34975 -0.27099
 C530 C 0.91851 0.41453 -0.16093
 H531 H 0.85161 0.38055 -0.16442
 H532 H 0.88817 0.41777 -0.10058
 H533 H 0.94286 0.40526 -0.23173
 H534 H 0.90604 0.36809 -0.29503
 C535 C 0.49967 -0.12593 -0.23440
 C536 C 0.48141 -0.13013 -0.17783
 C537 C 0.48200 -0.10884 -0.14125
 C538 C 0.49892 -0.16630 -0.30198
 C539 C 0.51909 -0.07898 -0.21813
 C540 C 0.51846 -0.10033 -0.25462
 C541 C 0.49923 -0.14791 -0.27123
 C542 C 0.50092 -0.08299 -0.16076
 H543 H 0.46677 -0.14986 -0.16176
 H544 H 0.46767 -0.11270 -0.09750
 H545 H 0.53390 -0.05938 -0.23459
 H546 H 0.53268 -0.09687 -0.29840
 C547 C 0.37253 0.49599 -0.23838
 C548 C 0.37968 0.47734 -0.25677
 C549 C 0.40076 0.47748 -0.21989
 C550 C 0.33249 0.49550 -0.30767
 C551 C 0.40772 0.51510 -0.14623
 C552 C 0.38663 0.51490 -0.18322
 C553 C 0.35072 0.49570 -0.27603
 C554 C 0.41499 0.49633 -0.16397
 H555 H 0.36891 0.46263 -0.29947
 H556 H 0.40579 0.46276 -0.23499
 H557 H 0.41823 0.52991 -0.10360
 H558 H 0.38129 0.52946 -0.16865
 C559 C 1.12657 0.63046 -0.22230
 C560 C 1.10093 0.62409 -0.24048
 C561 C 1.07969 0.60335 -0.20368
 C562 C 1.16642 0.66907 -0.29490
 C563 C 1.10972 0.59543 -0.12970
 C564 C 1.13092 0.61618 -0.16662
 C565 C 1.14835 0.65148 -0.26148
 C566 C 1.08381 0.58867 -0.14810
 H567 H 1.09735 0.63504 -0.28348
 H568 H 1.06005 0.59872 -0.21930
 H569 H 1.11364 0.58457 -0.08724
 H570 H 1.15070 0.62096 -0.15208
 C571 C 0.87625 0.50462 -0.23368
 C572 C 0.87150 0.48557 -0.17903
 C573 C 0.89244 0.48524 -0.14293
 C574 C 0.83659 0.50534 -0.30138
 C575 C 0.92303 0.52297 -0.21655
 C576 C 0.90203 0.52326 -0.25254
 C577 C 0.85468 0.50505 -0.27040
 C578 C 0.91848 0.50401 -0.16109
 H579 H 0.85160 0.47102 -0.16415
 H580 H 0.88820 0.47034 -0.10062
 H581 H 0.94279 0.53771 -0.23190
 H582 H 0.90591 0.53806 -0.29489
 C583 C 0.49685 0.36979 -0.22158
 C584 C 0.51554 0.38429 -0.16626
 C585 C 0.51505 0.40509 -0.13000
 C586 C 0.49800 0.33101 -0.29285
 C587 C 0.47697 0.39680 -0.20402
 C588 C 0.47752 0.37601 -0.24014
 C589 C 0.49759 0.34869 -0.25998
 C590 C 0.49582 0.41168 -0.14874
 H591 H 0.53059 0.37962 -0.15146
 H592 H 0.52986 0.41611 -0.08775
 H593 H 0.46190 0.40130 -0.21984
 H594 H 0.46294 0.36489 -0.28289
 C595 C 0.62887 0.12554 -0.22374
 C596 C 0.62187 0.09991 -0.24394
 C597 C 0.60095 0.07864 -0.20776
 C598 C 0.66787 0.16560 -0.29439
 C599 C 0.59407 0.10864 -0.13061
 C600 C 0.61499 0.12985 -0.16688
 C601 C 0.65012 0.14739 -0.26192
 C602 C 0.58673 0.08275 -0.15081
 H603 H 0.63250 0.09637 -0.28792
 H604 H 0.59586 0.05902 -0.22473
 H605 H 0.58360 0.11255 -0.08701
 H606 H 0.62025 0.14962 -0.15081
 C607 C 1.12664 0.49662 -0.22197
 C608 C 1.13098 0.51526 -0.16644
 C609 C 1.10977 0.51471 -0.12943
 C610 C 1.16643 0.49816 -0.29544
 C611 C 1.07977 0.47666 -0.20298
 C612 C 1.10102 0.47726 -0.23986
 C613 C 1.14840 0.49754 -0.26152
 C614 C 1.08388 0.49549 -0.14761
 H615 H 1.15075 0.53033 -0.15215
 H616 H 1.11367 0.52950 -0.08713
 H617 H 1.06014 0.46160 -0.21842
 H618 H 1.09746 0.46274 -0.28277
 C619 C 0.50421 0.62799 -0.23505
 C620 C 0.48499 0.61340 -0.18118
 C621 C 0.48477 0.59217 -0.14518
 C622 C 0.50457 0.66823 -0.30250
 C623 C 0.52296 0.59995 -0.21731
 C624 C 0.52314 0.62118 -0.25322
 C625 C 0.50448 0.64993 -0.27168
 C626 C 0.50382 0.58524 -0.16262
 H627 H 0.47022 0.61847 -0.16682
 H628 H 0.46972 0.58129 -0.10348
 H629 H 0.53792 0.59519 -0.23210
 H630 H 0.53808 0.63234 -0.29497
 C631 C 0.36959 -0.12477 -0.22585
 C632 C 0.38407 -0.12950 -0.17170
 C633 C 0.40525 -0.10855 -0.13529
 C634 C 0.32983 -0.16426 -0.29599
 C635 C 0.39752 -0.07803 -0.20735
 C636 C 0.37636 -0.09902 -0.24362
 C637 C 0.34791 -0.14630 -0.26370
 C638 C 0.41222 -0.08254 -0.15268
 H639 H 0.37902 -0.14937 -0.15766
 H640 H 0.41614 -0.11275 -0.09362
 H641 H 0.40232 -0.05830 -0.22215
 H642 H 0.36529 -0.09516 -0.28557
 C643 C 0.50410 -0.12515 0.22895
 C644 C 0.48495 -0.12976 0.17471
 C645 C 0.48491 -0.10873 0.13826
 C646 C 0.50401 -0.16481 0.29902
 C647 C 0.52323 -0.07838 0.21042
 C648 C 0.52322 -0.09944 0.24674
 C649 C 0.50406 -0.14677 0.26680
 C650 C 0.50407 -0.08277 0.15567
 H651 H 0.47003 -0.14960 0.16065
 H652 H 0.46985 -0.11284 0.09653
 H653 H 0.53826 -0.05868 0.22523
 H654 H 0.53811 -0.09568 0.28876
 C655 C 0.37300 0.49960 0.22488
 C656 C 0.37932 0.48043 0.24467
 C657 C 0.39993 0.47956 0.20840
 C658 C 0.33379 0.50077 0.29358
 C659 C 0.40799 0.51711 0.13233
 C660 C 0.38738 0.51794 0.16873
 C661 C 0.35170 0.50035 0.26210
 C662 C 0.41449 0.49787 0.15168
 H663 H 0.36830 0.46614 0.28812
 H664 H 0.40439 0.46451 0.22475
 H665 H 0.41880 0.53156 0.08908
 H666 H 0.38266 0.53287 0.15301
 C667 C 1.12478 0.63188 0.22213
 C668 C 1.09897 0.62498 0.23951
 C669 C 1.07804 0.60371 0.20337
 C670 C 1.16414 0.67108 0.29452
 C671 C 1.10874 0.59623 0.13177
 C672 C 1.12963 0.61753 0.16802
 C673 C 1.14624 0.65331 0.26107
 C674 C 1.08267 0.58897 0.14931
 H675 H 1.09500 0.63594 0.28140
 H676 H 1.05826 0.59871 0.21827
 H677 H 1.11305 0.58537 0.09041
 H678 H 1.14956 0.62269 0.15422
 C679 C 0.49659 0.12534 0.22905
 C680 C 0.47778 0.09969 0.24855
 C681 C 0.47729 0.07849 0.21175
 C682 C 0.49764 0.16518 0.30067
 C683 C 0.51442 0.10860 0.13535
 C684 C 0.51485 0.12976 0.17226
 C685 C 0.49723 0.14710 0.26777
 C686 C 0.49568 0.08268 0.15487
 H687 H 0.46354 0.09607 0.29244
 H688 H 0.46261 0.05883 0.22821
 H689 H 0.52886 0.11258 0.09185
 H690 H 0.52949 0.14955 0.15672
 C691 C 0.63122 0.50679 0.22409
 C692 C 0.62435 0.52572 0.24126
 C693 C 0.60315 0.52540 0.20468
 C694 C 0.67034 0.50660 0.29684
 C695 C 0.59571 0.48722 0.13308
 C696 C 0.61693 0.48760 0.16978
 C697 C 0.65261 0.50676 0.26331
 C698 C 0.58849 0.50606 0.15038
 H699 H 0.63528 0.54064 0.28331
 H700 H 0.59817 0.54019 0.21938
 H701 H 0.58490 0.47208 0.09155
 H702 H 0.62208 0.47284 0.15613
 C703 C 0.87444 0.37339 0.23120
 C704 C 0.87022 0.38758 0.17499
 C705 C 0.89149 0.40812 0.13778
 C706 C 0.83434 0.33426 0.30107
 C707 C 0.92136 0.40035 0.21317
 C708 C 0.90003 0.37981 0.25025
 C709 C 0.85255 0.35215 0.26912
 C710 C 0.91734 0.41472 0.15637
 H711 H 0.85048 0.38277 0.15985
 H712 H 0.88766 0.41879 0.09451
 H713 H 0.94096 0.40490 0.22894
 H714 H 0.90350 0.36892 0.29372
   
