data_POSCAR
  _audit_creation_date              2014-09-24
  _audit_creation_method            'ToBaCCo'
  _symmetry_space_group_name_H-M    'P1'
  _symmetry_Int_Tables_number       1
  _symmetry_cell_setting            triclinic
  loop_
  _symmetry_equiv_pos_as_xyz
 x,y,z
_cell_length_a 26.5211
_cell_length_b 29.2900
_cell_length_c 15.2254
_cell_angle_alpha 89.002100
_cell_angle_beta 91.859800
_cell_angle_gamma 115.722500
loop_
  _atom_site_label
  _atom_site_type_symbol
  _atom_site_fract_x
  _atom_site_fract_y
  _atom_site_fract_z
C1 C 0.46323 0.85174 0.48154
 C2 C 0.45104 0.85365 0.56825
 C3 C 0.44492 0.89801 0.57788
 N4 N 0.45456 0.92355 0.50069
 C5 C 0.46638 0.89589 0.44225
 C6 C 0.43227 0.91700 0.65475
 C7 C 0.43692 0.96671 0.65252
 C8 C 0.40327 0.98334 0.69701
 C9 C 0.42917 1.03542 0.69343
 C10 C 0.47822 1.04867 0.64819
 N11 N 0.48140 1.00658 0.62026
 C12 C 0.52405 1.09705 0.64806
 C13 C 0.55442 1.11305 0.56946
 C14 C 0.60470 1.15528 0.55584
 C15 C 0.61703 1.15430 0.46869
 C16 C 0.57510 1.11065 0.43302
 N17 N 0.53695 1.08602 0.49410
 C18 C 0.57208 1.09373 0.34590
 C19 C 0.53833 1.04297 0.31973
 C20 C 0.52706 1.02667 0.23319
 C21 C 0.50046 0.97455 0.23527
 C22 C 0.49574 0.96023 0.32303
 N23 N 0.51838 1.00223 0.37412
 C24 C 0.47806 0.90981 0.35358
 H25 H 0.47085 0.82211 0.45188
 H26 H 0.44949 0.82628 0.61766
 H27 H 0.52657 1.00287 0.44148
 H28 H 0.36592 0.96033 0.73259
 H29 H 0.41598 1.06075 0.72624
 H30 H 0.63168 1.18275 0.60291
 H31 H 0.65396 1.18130 0.43641
 H32 H 0.48801 0.95005 0.17842
 H33 H 0.51668 1.00522 0.59425
 H34 H 0.53864 1.04984 0.17441
 C35 C -0.14720 0.38652 0.40513
 C36 C -0.16061 0.38857 0.49054
 C37 C -0.11972 0.43318 0.52554
 N38 N -0.08148 0.45843 0.46413
 C39 C -0.09870 0.43012 0.39000
 C40 C -0.11859 0.44973 0.61289
 C41 C -0.06916 0.48688 0.65373
 C42 C -0.06768 0.51399 0.72851
 C43 C -0.01238 0.54465 0.74836
 C44 C 0.01874 0.53646 0.68434
 N45 N -0.01621 0.50091 0.62716
 C46 C 0.07801 0.55981 0.68268
 C47 C 0.10783 0.55895 0.60799
 C48 C 0.16565 0.57761 0.60436
 C49 C 0.17785 0.57683 0.51790
 C50 C 0.12733 0.55854 0.47127
 N51 N 0.08461 0.54726 0.52633
 C52 C 0.12185 0.55961 0.37909
 C53 C 0.06968 0.53499 0.33411
 C54 C 0.05888 0.54489 0.24786
 C55 C 0.00452 0.51189 0.22791
 C56 C -0.01663 0.48296 0.30267
 N57 N 0.02313 0.49744 0.36749
 C58 C -0.07125 0.44363 0.30872
 H59 H -0.16996 0.35561 0.36033
 H60 H -0.19567 0.35963 0.52381
 H61 H 0.01990 0.47945 0.42812
 H62 H -0.10273 0.51249 0.76487
 H63 H 0.00286 0.57009 0.80380
 H64 H 0.19658 0.59221 0.65709
 H65 H 0.21939 0.59026 0.49191
 H66 H -0.01737 0.51008 0.16587
 H67 H -0.00456 0.48374 0.57751
 H68 H 0.08668 0.57338 0.20379
 C69 C 0.42379 0.58358 0.39299
 C70 C 0.41185 0.58620 0.47865
 C71 C 0.42169 0.54918 0.52393
 N72 N 0.43603 0.52206 0.46729
 C73 C 0.43856 0.54377 0.38743
 C74 C 0.41548 0.53990 0.61552
 C75 C 0.42159 0.49819 0.65413
 C76 C 0.39478 0.47107 0.72769
 C77 C 0.41974 0.43992 0.75067
 C78 C 0.46159 0.44909 0.69119
 N79 N 0.46150 0.48370 0.63130
 C80 C 0.50211 0.42963 0.69819
 C81 C 0.53076 0.42606 0.62322
 C82 C 0.57987 0.41992 0.62411
 C83 C 0.59284 0.41819 0.53823
 C84 C 0.55250 0.42509 0.48720
 N85 N 0.51430 0.42939 0.53916
 C86 C 0.55080 0.42623 0.39427
 C87 C 0.51706 0.44439 0.34471
 C88 C 0.50920 0.44128 0.25386
 C89 C 0.48234 0.47067 0.23034
 C90 C 0.47480 0.49139 0.30697
 N91 N 0.49542 0.47476 0.37642
 C92 C 0.45449 0.52859 0.30958
 H93 H 0.42207 0.60877 0.34152
 H94 H 0.39715 0.61239 0.50411
 H95 H 0.50206 0.48924 0.43965
 H96 H 0.36003 0.47198 0.76091
 H97 H 0.40890 0.41396 0.80591
 H98 H 0.60553 0.41890 0.67998
 H99 H 0.62886 0.41378 0.51632
 H100 H 0.47148 0.47750 0.16385
 H101 H 0.49245 0.50195 0.58562
 H102 H 0.52311 0.42192 0.20770
 O103 O 0.41054 0.68794 -0.13045
 O104 O 0.42105 0.77593 -0.07585
 C105 C 0.38264 0.78750 -0.10490
 O106 O 0.33226 0.76415 -0.08276
 O107 O 0.24155 0.68492 -0.03813
 C108 C 0.22665 0.64568 -0.08580
 O109 O 0.25327 0.61884 -0.08682
 O110 O 0.34689 0.60940 -0.09853
 C111 C 0.38407 0.64122 -0.14801
 O112 O 0.43493 0.66423 0.03052
 O113 O 0.43807 0.74928 0.08818
 C114 C 0.41693 0.77707 0.11765
 O115 O 0.37158 0.77671 0.08632
 O116 O 0.28397 0.69507 0.12769
 C117 C 0.25986 0.64808 0.14375
 O118 O 0.25867 0.61435 0.09074
 O119 O 0.35313 0.60769 0.07938
 C120 C 0.40578 0.62573 0.07651
 Cr121 Cr 0.42329 0.71819 -0.02132
 Cr122 Cr 0.30852 0.72860 0.02231
 Cr123 Cr 0.30442 0.61520 -0.00386
 O124 O 0.34517 0.68717 -0.00130
 O125 O 0.56737 0.32010 -0.05076
 O126 O 0.57670 0.23418 -0.04693
 C127 C 0.60192 0.22758 -0.11160
 O128 O 0.65333 0.25466 -0.12464
 O129 O 0.74746 0.33822 -0.11981
 C130 C 0.74291 0.37678 -0.15139
 O131 O 0.71764 0.39862 -0.11331
 O132 O 0.63343 0.39887 -0.02827
 C133 C 0.58626 0.36772 -0.06008
 O134 O 0.59702 0.33421 0.12230
 O135 O 0.61206 0.25141 0.12121
 C136 C 0.64091 0.22698 0.11063
 O137 O 0.67208 0.23381 0.04488
 O138 O 0.76293 0.31894 0.04976
 C139 C 0.78771 0.36554 0.06864
 O140 O 0.77098 0.39804 0.04152
 O141 O 0.68521 0.39348 0.12414
 C142 C 0.63806 0.37091 0.15909
 Cr143 Cr 0.59088 0.28634 0.03505
 Cr144 Cr 0.70745 0.28766 -0.03630
 Cr145 Cr 0.70064 0.39474 0.00561
 O146 O 0.66646 0.32295 0.00148
 N147 N 0.42157 0.87987 -0.11879
 N148 N 0.43460 0.91569 -0.18573
 C149 C 0.42054 0.89103 -0.26356
 C150 C 0.39698 0.83886 -0.24706
 C151 C 0.39896 0.83400 -0.15627
 H152 H 0.37925 0.80813 -0.29364
 H153 H 0.42957 0.88798 -0.05184
 H154 H 0.45610 0.95471 -0.17543
 N155 N 0.14920 0.65938 -0.16092
 N156 N 0.10965 0.63632 -0.22140
 C157 C 0.11021 0.59196 -0.24196
 C158 C 0.15176 0.58643 -0.19191
 C159 C 0.17605 0.63035 -0.14248
 H160 H 0.16487 0.55630 -0.19533
 H161 H 0.15910 0.69535 -0.13594
 H162 H 0.08461 0.65193 -0.25106
 N163 N 0.43837 0.65658 -0.28230
 N164 N 0.44730 0.62817 -0.34669
 C165 C 0.41423 0.57862 -0.33128
 C166 C 0.38425 0.57470 -0.25531
 C167 C 0.40030 0.62422 -0.22781
 H168 H 0.35338 0.54136 -0.22446
 H169 H 0.45958 0.69597 -0.27693
 H170 H 0.47823 0.64348 -0.39358
 N171 N 0.54181 0.13700 -0.12678
 N172 N 0.52207 0.10086 -0.19265
 C173 C 0.53863 0.12428 -0.27117
 C174 C 0.57083 0.17620 -0.25547
 C175 C 0.57139 0.18204 -0.16465
 H176 H 0.58899 0.20662 -0.30242
 H177 H 0.53680 0.12924 -0.05955
 H178 H 0.50202 0.06201 -0.17985
 N179 N 0.74148 0.40105 -0.30822
 N180 N 0.78023 0.41997 -0.37489
 C181 C 0.83115 0.42892 -0.33999
 C182 C 0.82565 0.41479 -0.25175
 C183 C 0.76931 0.39759 -0.23497
 H184 H 0.85825 0.41599 -0.20585
 H185 H 0.69858 0.39051 -0.31564
 H186 H 0.77090 0.42810 -0.43877
 N187 N 0.54275 0.42692 -0.07604
 N188 N 0.51891 0.44399 -0.14420
 C189 C 0.51602 0.41704 -0.21692
 C190 C 0.53530 0.38076 -0.19502
 C191 C 0.55221 0.38882 -0.10731
 H192 H 0.53954 0.35371 -0.23812
 H193 H 0.55471 0.44371 -0.01417
 H194 H 0.51193 0.47636 -0.14061
 N195 N 0.88724 0.38461 0.09756
 N196 N 0.92703 0.40777 0.16444
 C197 C 0.90126 0.41873 0.23045
 C198 C 0.84534 0.40392 0.20640
 C199 C 0.83864 0.38314 0.12345
 H200 H 0.81400 0.40947 0.24267
 H201 H 0.89509 0.37274 0.03736
 H202 H 0.96880 0.41375 0.16315
 N203 N 0.66255 0.15719 0.16863
 N204 N 0.64474 0.12232 0.23103
 C205 C 0.60719 0.12985 0.27888
 C206 C 0.60076 0.17140 0.24560
 C207 C 0.63636 0.18739 0.17509
 H208 H 0.57154 0.18566 0.26591
 H209 H 0.69058 0.15893 0.12060
 H210 H 0.65664 0.09282 0.23861
 N211 N 0.67011 0.43059 0.28491
 N212 N 0.64686 0.44505 0.34735
 C213 C 0.59157 0.41436 0.34675
 C214 C 0.57923 0.37803 0.28204
 C215 C 0.63001 0.39048 0.24303
 H216 H 0.53830 0.35011 0.26034
 H217 H 0.71204 0.44997 0.26795
 H218 H 0.66793 0.47750 0.38556
 N219 N 0.23728 0.66695 0.29099
 N220 N 0.20119 0.64377 0.35283
 C221 C 0.17125 0.59488 0.33009
 C222 C 0.18971 0.58633 0.25032
 C223 C 0.23113 0.63335 0.22747
 H224 H 0.17277 0.55193 0.21182
 H225 H 0.26414 0.70565 0.29108
 H226 H 0.19541 0.66193 0.40741
 N227 N 0.49621 0.81652 0.22585
 N228 N 0.51251 0.85166 0.28737
 C229 C 0.47443 0.87040 0.29101
 C230 C 0.43185 0.84621 0.22930
 C231 C 0.44737 0.81224 0.18931
 H232 H 0.39498 0.85240 0.21573
 H233 H 0.51833 0.79596 0.20941
 H234 H 0.54905 0.86249 0.32616
 N235 N 0.48941 0.61309 0.12516
 N236 N 0.50172 0.58618 0.18527
 C237 C 0.45467 0.55628 0.22718
 C238 C 0.41019 0.56360 0.19100
 C239 C 0.43426 0.60061 0.12778
 H240 H 0.36741 0.54739 0.21261
 H241 H 0.51871 0.64072 0.08550
 H242 H 0.54218 0.59035 0.20051
   
