data_POSCAR
  _audit_creation_date              2014-09-24
  _audit_creation_method            'ToBaCCo'
  _symmetry_space_group_name_H-M    'P1'
  _symmetry_Int_Tables_number       1
  _symmetry_cell_setting            triclinic
  loop_
  _symmetry_equiv_pos_as_xyz
 x,y,z
_cell_length_a 24.1633
_cell_length_b 24.8818
_cell_length_c 72.6927
_cell_angle_alpha 88.035300
_cell_angle_beta 90.817800
_cell_angle_gamma 118.793500
loop_
  _atom_site_label
  _atom_site_type_symbol
  _atom_site_fract_x
  _atom_site_fract_y
  _atom_site_fract_z
C1 C -0.10185 -0.07131 0.48720
 C2 C -0.05958 -0.04165 0.50145
 C3 C -0.05403 -0.07588 0.51631
 C4 C -0.09049 -0.14031 0.51726
 C5 C -0.13342 -0.16934 0.50280
 C6 C -0.13955 -0.13563 0.48755
 C7 C -0.02090 0.02575 0.50079
 C8 C -0.02465 0.06020 0.51511
 C9 C 0.01089 0.12448 0.51445
 C10 C 0.05103 0.15391 0.49932
 C11 C 0.05579 0.11977 0.48501
 C12 C 0.01939 0.05564 0.48581
 H13 H -0.10327 -0.04357 0.47560
 H14 H -0.02223 -0.05136 0.52736
 H15 H -0.05542 0.03678 0.52674
 H16 H 0.02212 0.02891 0.47473
 H17 H -0.16200 -0.21861 0.50336
 H18 H 0.07858 0.20351 0.49864
 C19 C 1.08845 0.01472 0.15296
 C20 C 1.05300 0.01406 0.16820
 C21 C 1.08362 0.05229 0.18292
 C22 C 1.14907 0.09098 0.18249
 C23 C 1.18385 0.09169 0.16708
 C24 C 1.15441 0.05356 0.15208
 C25 C 0.98365 -0.02606 0.16853
 C26 C 0.95358 -0.06329 0.18413
 C27 C 0.88779 -0.10080 0.18446
 C28 C 0.85215 -0.10107 0.16899
 C29 C 0.88148 -0.06441 0.15326
 C30 C 0.94731 -0.02700 0.15317
 H31 H 1.06357 -0.01405 0.14158
 H32 H 1.05655 0.05175 0.19476
 H33 H 0.98130 -0.06281 0.19604
 H34 H 0.97039 0.00155 0.14110
 H35 H 1.23455 0.12069 0.16730
 H36 H 0.80130 -0.12970 0.16927
 C37 C 0.04782 0.96655 0.84716
 C38 C 0.01332 0.96916 0.83180
 C39 C 0.00427 0.93134 0.81695
 C40 C 0.02895 0.89054 0.81748
 C41 C 0.06292 0.88797 0.83306
 C42 C 0.07383 0.92649 0.84805
 C43 C -0.01196 1.01278 0.83134
 C44 C 0.00362 1.05608 0.81682
 C45 C -0.01434 1.10177 0.81741
 C46 C -0.04989 1.10278 0.83239
 C47 C -0.06832 1.05824 0.84691
 C48 C -0.04801 1.01377 0.84616
 H49 H 0.05293 0.99537 0.85858
 H50 H -0.02146 0.93411 0.80494
 H51 H 0.03213 1.05594 0.80547
 H52 H -0.05760 0.98092 0.85743
 H53 H 0.08309 0.85749 0.83295
 H54 H -0.06561 1.13682 0.83199
 O55 O 0.58619 0.04438 -0.01936
 O56 O 0.48124 0.04372 0.01686
 O57 O 0.58892 0.04420 0.01655
 O58 O 0.47748 0.04210 -0.01896
 O59 O 0.42937 -0.05907 -0.01810
 O60 O 0.53887 -0.05697 0.01787
 O61 O 0.43092 -0.05748 0.01773
 O62 O 0.53800 -0.05678 -0.01803
 Cu63 Cu 0.53842 0.05373 -0.00135
 Cu64 Cu 0.47942 -0.06772 -0.00001
 C65 C 0.58007 -0.00600 -0.02495
 C66 C 0.43812 -0.00686 0.02351
 C67 C 0.58254 -0.00614 0.02342
 C68 C 0.43458 -0.00891 -0.02469
 O69 O -0.02081 0.54626 0.64899
 O70 O -0.01112 0.43647 0.68175
 O71 O -0.01136 0.54116 0.68486
 O72 O -0.01168 0.44702 0.64620
 O73 O 0.09237 0.49933 0.64562
 O74 O 0.09249 0.59349 0.68297
 O75 O 0.09310 0.48982 0.68144
 O76 O 0.08306 0.59887 0.64722
 Cu77 Cu -0.02416 0.48767 0.66563
 Cu78 Cu 0.10057 0.55070 0.66420
 C79 C 0.02889 0.59057 0.64217
 C80 C 0.04214 0.44397 0.68716
 C81 C 0.04134 0.58358 0.69050
 C82 C 0.04093 0.45733 0.63939
 O83 O 0.44676 0.43286 0.31562
 O84 O 0.54418 0.52318 0.35314
 O85 O 0.43388 0.42697 0.35136
 O86 O 0.55097 0.53683 0.31724
 O87 O 0.49952 0.58978 0.31706
 O88 O 0.38491 0.48229 0.35003
 O89 O 0.49508 0.57837 0.35303
 O90 O 0.39525 0.48577 0.31438
 Cu91 Cu 0.49893 0.47468 0.33437
 Cu92 Cu 0.43895 0.53956 0.33350
 C93 C 0.40447 0.44302 0.30848
 C94 C 0.53621 0.56525 0.35984
 C95 C 0.38935 0.43669 0.35654
 C96 C 0.54445 0.58228 0.31130
 C97 C -0.05706 0.17975 0.55149
 C98 C -0.00263 0.23020 0.55863
 C99 C 0.05655 0.24479 0.55075
 C100 C 0.06049 0.21041 0.53641
 C101 C 0.00618 0.16077 0.52955
 C102 C -0.05249 0.14582 0.53724
 C103 C 0.11181 0.29355 0.55722
 C104 C 0.11015 0.32844 0.57143
 C105 C 0.05270 0.31604 0.57986
 C106 C -0.00474 0.26638 0.57327
 C107 C -0.06223 0.25470 0.58153
 C108 C -0.06376 0.28985 0.59575
 C109 C -0.00828 0.33796 0.60244
 C110 C 0.05081 0.35177 0.59464
 C111 C 0.10565 0.40079 0.60207
 C112 C 0.10176 0.43437 0.61645
 C113 C 0.04334 0.42073 0.62407
 C114 C -0.01164 0.37234 0.61696
 H115 H -0.10397 0.16505 0.55657
 H116 H 0.10625 0.22180 0.53074
 H117 H -0.09532 0.10801 0.53205
 H118 H 0.15713 0.30494 0.55122
 H119 H 0.15526 0.36518 0.57542
 H120 H -0.10739 0.21859 0.57728
 H121 H -0.10908 0.27906 0.60162
 H122 H 0.15259 0.41456 0.59722
 H123 H 0.14519 0.47142 0.62163
 H124 H -0.05716 0.36121 0.62275
 C125 C 0.84275 0.78373 0.22444
 C126 C 0.78819 0.78330 0.23156
 C127 C 0.76991 0.82491 0.22335
 C128 C 0.80298 0.86262 0.20819
 C129 C 0.85550 0.86103 0.20101
 C130 C 0.87583 0.82219 0.20944
 C131 C 0.71825 0.82846 0.23011
 C132 C 0.68388 0.79169 0.24495
 C133 C 0.69924 0.74881 0.25354
 C134 C 0.75117 0.74330 0.24645
 C135 C 0.76306 0.69690 0.25414
 C136 C 0.72543 0.65711 0.26818
 C137 C 0.67554 0.66284 0.27551
 C138 C 0.66294 0.70993 0.26864
 C139 C 0.61433 0.71623 0.27719
 C140 C 0.57759 0.67545 0.29112
 C141 C 0.58776 0.62691 0.29727
 C142 C 0.63772 0.62145 0.28960
 H143 H 0.86134 0.75524 0.23019
 H144 H 0.78789 0.89361 0.20193
 H145 H 0.91670 0.82063 0.20415
 H146 H 0.70401 0.86003 0.22382
 H147 H 0.64399 0.79680 0.24895
 H148 H 0.80018 0.68887 0.24921
 H149 H 0.73562 0.62145 0.27337
 H150 H 0.60362 0.75256 0.27363
 H151 H 0.54035 0.68195 0.29699
 H152 H 0.64680 0.58473 0.29443
 C153 C 0.15249 -0.12711 -0.11661
 C154 C 0.18808 -0.07394 -0.10633
 C155 C 0.18455 -0.02042 -0.11167
 C156 C 0.14619 -0.02091 -0.12643
 C157 C 0.11102 -0.07399 -0.13666
 C158 C 0.11515 -0.12694 -0.13143
 C159 C 0.21999 0.03391 -0.10242
 C160 C 0.25996 0.03688 -0.08814
 C161 C 0.26569 -0.01492 -0.08231
 C162 C 0.22769 -0.07175 -0.09119
 C163 C 0.23032 -0.12449 -0.08455
 C164 C 0.26975 -0.12171 -0.07013
 C165 C 0.30884 -0.06632 -0.06184
 C166 C 0.30783 -0.01195 -0.06783
 C167 C 0.34991 0.04327 -0.05921
 C168 C 0.39054 0.04400 -0.04524
 C169 C 0.39069 -0.01003 -0.03929
 C170 C 0.34940 -0.06510 -0.04764
 H171 H 0.15280 -0.16971 -0.11375
 H172 H 0.14690 0.02172 -0.13046
 H173 H 0.08775 -0.16972 -0.13832
 H174 H 0.21724 0.07498 -0.10638
 H175 H 0.28520 0.08064 -0.08177
 H176 H 0.20173 -0.16923 -0.09006
 H177 H 0.27004 -0.16348 -0.06552
 H178 H 0.35360 0.08701 -0.06310
 H179 H 0.42215 0.08730 -0.03911
 H180 H 0.34940 -0.10722 -0.04328
 C181 C -0.12852 0.73470 0.55303
 C182 C -0.07051 0.75506 0.56243
 C183 C -0.01877 0.81109 0.55623
 C184 C -0.02589 0.84570 0.54160
 C185 C -0.08394 0.82512 0.53232
 C186 C -0.13488 0.76883 0.53832
 C187 C 0.04025 0.83215 0.56449
 C188 C 0.04958 0.79834 0.57861
 C189 C -0.00036 0.74221 0.58534
 C190 C -0.06188 0.72128 0.57752
 C191 C -0.11285 0.66760 0.58514
 C192 C -0.10398 0.63432 0.59945
 C193 C -0.04404 0.65247 0.60664
 C194 C 0.00888 0.70642 0.59972
 C195 C 0.06883 0.72146 0.60734
 C196 C 0.07540 0.68440 0.62117
 C197 C 0.02265 0.63148 0.62797
 C198 C -0.03694 0.61623 0.62068
 H199 H -0.17007 0.69209 0.55648
 H200 H 0.01533 0.88736 0.53693
 H201 H -0.18120 0.75149 0.53221
 H202 H 0.08005 0.87513 0.55985
 H203 H 0.09661 0.81812 0.58418
 H204 H -0.16084 0.65032 0.58057
 H205 H -0.14465 0.59336 0.60483
 H206 H 0.11182 0.76079 0.60268
 H207 H 0.12207 0.69711 0.62648
 H208 H -0.07821 0.57509 0.62568
 C209 C 0.26911 0.16653 0.22001
 C210 C 0.24899 0.20528 0.22808
 C211 C 0.19422 0.20522 0.22076
 C212 C 0.16090 0.16699 0.20618
 C213 C 0.18208 0.12943 0.19836
 C214 C 0.23620 0.12954 0.20544
 C215 C 0.17341 0.24377 0.22788
 C216 C 0.20614 0.28321 0.24196
 C217 C 0.26090 0.28511 0.24975
 C218 C 0.28179 0.24444 0.24295
 C219 C 0.33460 0.24389 0.25130
 C220 C 0.36683 0.28238 0.26548
 C221 C 0.34827 0.32330 0.27193
 C222 C 0.29535 0.32583 0.26423
 C223 C 0.27979 0.36936 0.27135
 C224 C 0.31505 0.40778 0.28559
 C225 C 0.36669 0.40404 0.29320
 C226 C 0.38284 0.36167 0.28617
 H227 H 0.31065 0.16415 0.22434
 H228 H 0.11931 0.16756 0.20060
 H229 H 0.25318 0.10056 0.19968
 H230 H 0.13153 0.24388 0.22237
 H231 H 0.18678 0.31137 0.24660
 H232 H 0.35218 0.21356 0.24741
 H233 H 0.40708 0.28012 0.27145
 H234 H 0.24102 0.37525 0.26616
 H235 H 0.30163 0.44027 0.29070
 H236 H 0.42297 0.35840 0.29179
 C237 C 0.85865 0.11246 -0.11807
 C238 C 0.81889 0.05784 -0.10797
 C239 C 0.81720 0.00302 -0.11346
 C240 C 0.85439 0.00353 -0.12820
 C241 C 0.89419 0.05817 -0.13814
 C242 C 0.89518 0.11247 -0.13278
 C243 C 0.77801 -0.05249 -0.10430
 C244 C 0.73991 -0.05520 -0.08982
 C245 C 0.73959 -0.00205 -0.08375
 C246 C 0.78049 0.05561 -0.09280
 C247 C 0.78177 0.10907 -0.08632
 C248 C 0.74393 0.10644 -0.07177
 C249 C 0.70291 0.05062 -0.06310
 C250 C 0.69986 -0.00456 -0.06892
 C251 C 0.65661 -0.05995 -0.05970
 C252 C 0.61838 -0.06016 -0.04544
 C253 C 0.62181 -0.00543 -0.03978
 C254 C 0.66453 0.04985 -0.04865
 H255 H 0.86286 0.15630 -0.11502
 H256 H 0.84964 -0.03988 -0.13235
 H257 H 0.92619 0.15630 -0.13940
 H258 H 0.77659 -0.09462 -0.10842
 H259 H 0.71146 -0.10002 -0.08358
 H260 H 0.81198 0.15419 -0.09211
 H261 H 0.74661 0.14878 -0.06732
 H262 H 0.65040 -0.10416 -0.06324
 H263 H 0.58573 -0.10362 -0.03887
 H264 H 0.66750 0.09258 -0.04447
 C265 C 0.28243 0.10746 0.11654
 C266 C 0.26381 0.05474 0.10601
 C267 C 0.20758 0.00115 0.11128
 C268 C 0.17124 0.00130 0.12619
 C269 C 0.19027 0.05398 0.13667
 C270 C 0.24662 0.10690 0.13150
 C271 C 0.18809 -0.05283 0.10181
 C272 C 0.22376 -0.05538 0.08741
 C273 C 0.28035 -0.00341 0.08163
 C274 C 0.29955 0.05310 0.09069
 C275 C 0.35355 0.10617 0.08404
 C276 C 0.38872 0.10395 0.06946
 C277 C 0.37229 0.04881 0.06104
 C278 C 0.31817 -0.00585 0.06701
 C279 C 0.30497 -0.06079 0.05825
 C280 C 0.34364 -0.06095 0.04416
 C281 C 0.39653 -0.00657 0.03823
 C282 C 0.41030 0.04819 0.04671
 H283 H 0.32495 0.14996 0.11380
 H284 H 0.12972 -0.04122 0.13013
 H285 H 0.26268 0.14944 0.13856
 H286 H 0.14492 -0.09396 0.10571
 H287 H 0.20498 -0.09888 0.08087
 H288 H 0.36963 0.15078 0.08961
 H289 H 0.42978 0.14596 0.06485
 H290 H 0.26587 -0.10472 0.06215
 H291 H 0.33201 -0.10402 0.03792
 H292 H 0.45145 0.09055 0.04237
 C293 C 0.75034 0.83461 0.44759
 C294 C 0.73552 0.77453 0.44281
 C295 C 0.76368 0.74521 0.45336
 C296 C 0.80378 0.77455 0.46814
 C297 C 0.81847 0.83440 0.47282
 C298 C 0.79100 0.86379 0.46219
 C299 C 0.75237 0.68670 0.44904
 C300 C 0.71494 0.65689 0.43418
 C301 C 0.68658 0.68432 0.42298
 C302 C 0.69487 0.74302 0.42779
 C303 C 0.66187 0.76780 0.41751
 C304 C 0.62336 0.73707 0.40280
 C305 C 0.61726 0.68123 0.39739
 C306 C 0.64957 0.65454 0.40726
 C307 C 0.64455 0.59952 0.40074
 C308 C 0.60800 0.57169 0.38545
 C309 C 0.57481 0.59716 0.37597
 C310 C 0.57948 0.65206 0.38206
 H311 H 0.73194 0.86081 0.44020
 H312 H 0.82619 0.75126 0.47528
 H313 H 0.79883 0.90903 0.46543
 H314 H 0.77316 0.66369 0.45719
 H315 H 0.70824 0.61153 0.43207
 H316 H 0.66389 0.81065 0.42071
 H317 H 0.59872 0.75776 0.39540
 H318 H 0.66934 0.57722 0.40683
 H319 H 0.60570 0.52947 0.38107
 H320 H 0.55459 0.67258 0.37471
 C321 C 0.05146 0.25611 0.79239
 C322 C 0.03684 0.23978 0.77378
 C323 C 0.00461 0.17637 0.76992
 C324 C -0.01003 0.13180 0.78411
 C325 C 0.00428 0.14896 0.80242
 C326 C 0.03487 0.21127 0.80644
 C327 C -0.01397 0.15768 0.75198
 C328 C -0.00425 0.20033 0.73786
 C329 C 0.02628 0.26385 0.74107
 C330 C 0.05091 0.28401 0.75902
 C331 C 0.08893 0.34757 0.76155
 C332 C 0.09933 0.39021 0.74733
 C333 C 0.07054 0.37145 0.73025
 C334 C 0.03304 0.30796 0.72692
 C335 C 0.00125 0.29130 0.70984
 C336 C 0.00590 0.33586 0.69687
 C337 C 0.04362 0.39820 0.70018
 C338 C 0.07709 0.41590 0.71670
 H339 H 0.07363 0.30301 0.79663
 H340 H -0.03463 0.08346 0.78101
 H341 H 0.04604 0.22533 0.82055
 H342 H -0.03777 0.10936 0.74889
 H343 H -0.02005 0.18212 0.72441
 H344 H 0.11246 0.36580 0.77436
 H345 H 0.12862 0.43856 0.74993
 H346 H -0.03018 0.24436 0.70647
 H347 H -0.02092 0.32155 0.68422
 H348 H 0.10516 0.46434 0.71942
 C349 C 0.75733 -0.12097 0.11579
 C350 C 0.76836 -0.06595 0.10630
 C351 C 0.81829 -0.01013 0.11266
 C352 C 0.85519 -0.01000 0.12779
 C353 C 0.84325 -0.06488 0.13704
 C354 C 0.79413 -0.12019 0.13086
 C355 C 0.83101 0.04548 0.10401
 C356 C 0.79484 0.04742 0.08927
 C357 C 0.74417 -0.00660 0.08245
 C358 C 0.73134 -0.06434 0.09092
 C359 C 0.68189 -0.11849 0.08374
 C360 C 0.64538 -0.11654 0.06911
 C361 C 0.65621 -0.06077 0.06101
 C362 C 0.70575 -0.00488 0.06746
 C363 C 0.71409 0.05034 0.05871
 C364 C 0.67466 0.04971 0.04438
 C365 C 0.62566 -0.00570 0.03819
 C366 C 0.61711 -0.06081 0.04653
 H367 H 0.72042 -0.16551 0.11208
 H368 H 0.89257 0.03318 0.13263
 H369 H 0.78434 -0.16332 0.13764
 H370 H 0.86929 0.08825 0.10878
 H371 H 0.80820 0.09242 0.08349
 H372 H 0.66998 -0.16364 0.08909
 H373 H 0.60778 -0.15941 0.06416
 H374 H 0.75009 0.09499 0.06268
 H375 H 0.68242 0.09305 0.03822
 H376 H 0.57931 -0.10409 0.04189
 C377 C 0.17999 0.16165 0.44796
 C378 C 0.18047 0.21328 0.43893
 C379 C 0.13711 0.23189 0.44519
 C380 C 0.09716 0.20146 0.46022
 C381 C 0.09812 0.15125 0.46912
 C382 C 0.13928 0.13120 0.46275
 C383 C 0.13373 0.28092 0.43651
 C384 C 0.17205 0.31201 0.42157
 C385 C 0.21634 0.29582 0.41478
 C386 C 0.22202 0.24685 0.42392
 C387 C 0.26993 0.23418 0.41802
 C388 C 0.31093 0.26815 0.40374
 C389 C 0.30499 0.31502 0.39441
 C390 C 0.25649 0.32835 0.39948
 C391 C 0.25009 0.37387 0.38897
 C392 C 0.29234 0.40718 0.37490
 C393 C 0.34242 0.39640 0.37056
 C394 C 0.34773 0.34922 0.38015
 H395 H 0.20986 0.14314 0.44382
 H396 H 0.06444 0.21640 0.46487
 H397 H 0.14058 0.09221 0.46942
 H398 H 0.10092 0.29550 0.44132
 H399 H 0.16688 0.34997 0.41598
 H400 H 0.27826 0.19922 0.42454
 H401 H 0.34772 0.25750 0.39995
 H402 H 0.21263 0.38474 0.39110
 H403 H 0.28587 0.44227 0.36750
 H404 H 0.38569 0.33978 0.37674
 C405 C -0.04341 0.78121 0.77817
 C406 C 0.00850 0.77534 0.77172
 C407 C 0.06769 0.81037 0.78038
 C408 C 0.07374 0.84787 0.79507
 C409 C 0.02173 0.85204 0.80152
 C410 C -0.03665 0.81904 0.79281
 C411 C 0.12083 0.80780 0.77446
 C412 C 0.11713 0.77148 0.76000
 C413 C 0.05958 0.73553 0.75082
 C414 C 0.00402 0.73641 0.75701
 C415 C -0.05407 0.69775 0.74845
 C416 C -0.05778 0.66005 0.73425
 C417 C -0.00385 0.65988 0.72774
 C418 C 0.05573 0.69816 0.73579
 C419 C 0.10929 0.69787 0.72831
 C420 C 0.10369 0.66065 0.71379
 C421 C 0.04478 0.62211 0.70605
 C422 C -0.00904 0.62183 0.71313
 H423 H -0.08979 0.75750 0.77220
 H424 H 0.11947 0.87440 0.80146
 H425 H -0.07756 0.82169 0.79754
 H426 H 0.16607 0.83428 0.78112
 H427 H 0.16056 0.77197 0.75660
 H428 H -0.09806 0.69479 0.75261
 H429 H -0.10350 0.63093 0.72820
 H430 H 0.15662 0.72646 0.73310
 H431 H 0.14627 0.66220 0.70861
 H432 H -0.05485 0.59264 0.70715
   
