data_POSCAR
  _audit_creation_date              2014-09-24
  _audit_creation_method            'ToBaCCo'
  _symmetry_space_group_name_H-M    'P1'
  _symmetry_Int_Tables_number       1
  _symmetry_cell_setting            triclinic
  loop_
  _symmetry_equiv_pos_as_xyz
 x,y,z
_cell_length_a 54.2121
_cell_length_b 53.6588
_cell_length_c 24.3443
_cell_angle_alpha 89.559900
_cell_angle_beta 92.750300
_cell_angle_gamma 117.844100
loop_
  _atom_site_label
  _atom_site_type_symbol
  _atom_site_fract_x
  _atom_site_fract_y
  _atom_site_fract_z
C1 C 0.07598 0.53361 -0.01755
 C2 C 0.06124 0.50451 -0.00842
 C3 C 0.03198 0.49144 -0.00966
 C4 C 0.01726 0.50680 -0.02141
 C5 C 0.03257 0.53584 -0.03195
 C6 C 0.06185 0.54943 -0.02935
 C7 C -0.01382 0.49280 -0.01904
 C8 C -0.02742 0.50783 -0.00071
 C9 C -0.05640 0.49448 0.00484
 C10 C -0.07186 0.46544 -0.00751
 C11 C -0.05897 0.44997 -0.02717
 C12 C -0.03002 0.46408 -0.03364
 H13 H 0.09843 0.54441 -0.01149
 H14 H 0.02079 0.46938 0.00071
 H15 H 0.02186 0.54818 -0.04132
 H16 H -0.01544 0.52992 0.01072
 H17 H -0.09429 0.45567 -0.00722
 H18 H -0.02007 0.45256 -0.05031
 C19 C 0.45560 0.54500 0.00083
 C20 C 0.48451 0.56074 -0.00298
 C21 C 0.50058 0.54670 -0.00796
 C22 C 0.48797 0.51697 -0.01150
 C23 C 0.45862 0.50167 -0.00865
 C24 C 0.44242 0.51539 -0.00066
 C25 C 0.50562 0.50222 -0.01510
 C26 C 0.49581 0.47411 0.00228
 C27 C 0.51296 0.46106 0.00184
 C28 C 0.54080 0.47667 -0.01171
 C29 C 0.55129 0.50464 -0.02946
 C30 C 0.53304 0.51651 -0.03394
 H31 H 0.44389 0.55627 0.00762
 H32 H 0.52293 0.55917 -0.00851
 H33 H 0.44797 0.47894 -0.01191
 H34 H 0.47514 0.46220 0.01736
 H35 H 0.55350 0.46600 -0.01187
 H36 H 0.54078 0.53734 -0.05097
 C37 C 0.47346 0.93193 -0.00701
 C38 C 0.46060 0.94689 0.01432
 C39 C 0.47482 0.97644 0.01495
 C40 C 0.50194 0.99131 -0.00527
 C41 C 0.51468 0.97548 -0.02457
 C42 C 0.50075 0.94597 -0.02408
 C43 C 0.51701 1.02301 -0.00485
 C44 C 0.54646 1.03799 -0.00530
 C45 C 0.56055 1.06748 -0.00672
 C46 C 0.54522 1.08242 -0.00351
 C47 C 0.51593 1.06824 -0.00145
 C48 C 0.50206 1.03865 -0.00477
 H49 H 0.46265 0.90910 -0.00862
 H50 H 0.46487 0.98754 0.03314
 H51 H 0.53524 0.98563 -0.04078
 H52 H 0.55888 1.02706 -0.00512
 H53 H 0.55587 1.10503 -0.00756
 H54 H 0.47947 1.02798 -0.00707
 C55 C 0.92637 0.46515 0.52013
 C56 C 0.94372 0.49433 0.52529
 C57 C 0.97087 0.50598 0.50656
 C58 C 0.98122 0.48841 0.48561
 C59 C 0.96363 0.45904 0.48238
 C60 C 0.93610 0.44735 0.49884
 C61 C 1.01067 0.50048 0.46943
 C62 C 1.02641 0.48623 0.48223
 C63 C 1.05434 0.49792 0.46872
 C64 C 1.06653 0.52348 0.44136
 C65 C 1.05105 0.53763 0.42568
 C66 C 1.02329 0.52632 0.44156
 H67 H 0.90536 0.45618 0.53441
 H68 H 0.98432 0.52848 0.51095
 H69 H 0.97120 0.44520 0.46651
 H70 H 1.01738 0.46664 0.50447
 H71 H 1.08851 0.53238 0.43380
 H72 H 1.01117 0.53710 0.43051
 C73 C 0.53401 0.46444 0.54863
 C74 C 0.50506 0.44955 0.53703
 C75 C 0.49034 0.46461 0.52415
 C76 C 0.50400 0.49434 0.52403
 C77 C 0.53313 0.50880 0.53563
 C78 C 0.54834 0.49400 0.54678
 C79 C 0.48774 0.51015 0.51346
 C80 C 0.49971 0.53641 0.48683
 C81 C 0.48432 0.55112 0.47674
 C82 C 0.45711 0.53990 0.49498
 C83 C 0.44452 0.51356 0.51954
 C84 C 0.45987 0.49886 0.52932
 H85 H 0.54518 0.45314 0.56236
 H86 H 0.46809 0.45291 0.51458
 H87 H 0.54404 0.53161 0.53719
 H88 H 0.52059 0.54500 0.47205
 H89 H 0.44517 0.55128 0.48851
 H90 H 0.45008 0.47892 0.55016
 C91 C 0.52725 0.06492 0.52868
 C92 C 0.54132 0.05160 0.50570
 C93 C 0.52708 0.02246 0.49596
 C94 C 0.49895 0.00632 0.50963
 C95 C 0.48541 0.02023 0.53375
 C96 C 0.49956 0.04942 0.54397
 C97 C 0.48408 -0.02494 0.49999
 C98 C 0.45496 -0.03931 0.48856
 C99 C 0.44095 -0.06858 0.48018
 C100 C 0.45637 -0.08356 0.48045
 C101 C 0.48558 -0.06978 0.49020
 C102 C 0.49901 -0.04060 0.50119
 H103 H 0.53821 0.08745 0.53620
 H104 H 0.53810 0.01264 0.47709
 H105 H 0.46423 0.00838 0.54667
 H106 H 0.44304 -0.02781 0.48531
 H107 H 0.44547 -0.10560 0.46903
 H108 H 0.52130 -0.03016 0.51075
 O109 O 0.20211 0.44244 0.20287
 O110 O 0.24195 0.42596 0.31172
 O111 O 0.19215 0.42395 0.30230
 O112 O 0.25136 0.44495 0.21164
 O113 O 0.26926 0.48852 0.24452
 O114 O 0.21061 0.46765 0.33452
 O115 O 0.25954 0.46955 0.34407
 O116 O 0.22091 0.48626 0.23486
 Cu117 Cu 0.22007 0.42981 0.25431
 Cu118 Cu 0.24188 0.48227 0.29309
 C119 C 0.20502 0.46733 0.20025
 C120 C 0.25777 0.44513 0.34605
 C121 C 0.19108 0.44244 0.33296
 C122 C 0.27020 0.47054 0.21232
 O123 O 0.58352 0.77097 0.18372
 O124 O 0.56151 0.80537 0.28837
 O125 O 0.56535 0.75852 0.28160
 O126 O 0.58108 0.81903 0.19020
 O127 O 0.53777 0.79749 0.15490
 O128 O 0.52257 0.73701 0.24362
 O129 O 0.51831 0.78288 0.25256
 O130 O 0.54051 0.75086 0.14670
 Cu131 Cu 0.57730 0.79087 0.23946
 Cu132 Cu 0.52551 0.76511 0.19583
 C133 C 0.56541 0.75456 0.14805
 C134 C 0.53590 0.79950 0.28845
 C135 C 0.54133 0.73718 0.27718
 C136 C 0.56199 0.81852 0.15714
 O137 O 0.26461 0.78364 0.16799
 O138 O 0.20914 0.72993 0.25140
 O139 O 0.25580 0.77740 0.27220
 O140 O 0.21729 0.73704 0.14679
 O141 O 0.24099 0.71291 0.15243
 O142 O 0.27875 0.75251 0.27797
 O143 O 0.23333 0.70628 0.25662
 O144 O 0.28712 0.75833 0.17394
 Cu145 Cu 0.23430 0.75949 0.20903
 Cu146 Cu 0.26234 0.73008 0.21583
 C147 C 0.28548 0.77996 0.15752
 C148 C 0.21197 0.70874 0.26751
 C149 C 0.27413 0.77201 0.29588
 C150 C 0.22243 0.71789 0.12873
 O151 O 0.75832 0.56298 0.83064
 O152 O 0.80360 0.55096 0.73566
 O153 O 0.75412 0.55007 0.72674
 O154 O 0.80801 0.56519 0.83883
 O155 O 0.78726 0.52009 0.86003
 O156 O 0.73446 0.50495 0.74777
 O157 O 0.78284 0.50596 0.75765
 O158 O 0.73905 0.51786 0.85184
 Cu159 Cu 0.78301 0.56189 0.78057
 Cu160 Cu 0.75882 0.50771 0.80611
 C161 C 0.74110 0.54219 0.85752
 C162 C 0.80109 0.52623 0.73176
 C163 C 0.73494 0.52491 0.71880
 C164 C 0.80671 0.54506 0.86845
 O165 O 0.45027 0.25101 0.72657
 O166 O 0.43567 0.19994 0.83917
 O167 O 0.43417 0.24833 0.82674
 O168 O 0.45146 0.20276 0.73990
 O169 O 0.49534 0.22589 0.77187
 O170 O 0.47836 0.27134 0.85656
 O171 O 0.47956 0.22406 0.87040
 O172 O 0.49447 0.27328 0.75678
 Cu173 Cu 0.43836 0.22327 0.78003
 Cu174 Cu 0.49128 0.25106 0.81695
 C175 C 0.47503 0.27077 0.72261
 C176 C 0.45545 0.20316 0.87335
 C177 C 0.45349 0.26774 0.85617
 C178 C 0.47639 0.20634 0.74230
 O179 O 0.78034 0.26313 0.77256
 O180 O 0.72946 0.21446 0.66732
 O181 O 0.77651 0.26190 0.66586
 O182 O 0.73329 0.21590 0.77495
 O183 O 0.71011 0.24053 0.77578
 O184 O 0.75251 0.28570 0.66726
 O185 O 0.70623 0.23904 0.66860
 O186 O 0.75617 0.28677 0.77390
 Cu187 Cu 0.75722 0.23631 0.71998
 Cu188 Cu 0.72884 0.26536 0.72137
 C189 C 0.77679 0.28327 0.79094
 C190 C 0.70919 0.21862 0.65009
 C191 C 0.77191 0.28184 0.64855
 C192 C 0.71445 0.22066 0.79408
 C193 C 0.07578 0.48791 0.00850
 C194 C 0.10406 0.49699 0.00093
 C195 C 0.11979 0.48442 0.03014
 N196 N 0.14803 0.49922 0.03535
 N197 N 0.16266 0.48962 0.06602
 C198 C 0.14961 0.46470 0.09227
 N199 N 0.12140 0.44947 0.08587
 N200 N 0.10671 0.45923 0.05559
 C201 C 0.16546 0.45532 0.13009
 C202 C 0.19019 0.47497 0.15686
 H203 H 0.11590 0.51551 -0.02297
 H204 H 0.15627 0.43334 0.14134
 H205 H 0.06409 0.46848 0.03020
 H206 H 0.19781 0.49720 0.14899
 C207 C 0.49706 0.59187 -0.00117
 C208 C 0.52435 0.60978 0.01848
 C209 C 0.53419 0.64023 0.02569
 N210 N 0.55711 0.65600 0.05885
 N211 N 0.56446 0.68293 0.07004
 C212 C 0.54929 0.69510 0.04795
 N213 N 0.52688 0.67954 0.01359
 N214 N 0.51948 0.65265 0.00261
 C215 C 0.55375 0.72289 0.06680
 C216 C 0.57242 0.73779 0.11035
 H217 H 0.53780 0.60122 0.03400
 H218 H 0.53810 0.72908 0.05313
 H219 H 0.48334 0.60096 -0.01172
 H220 H 0.58945 0.73336 0.12246
 C221 C 0.43258 0.93161 0.03713
 C222 C 0.42441 0.90577 0.06265
 C223 C 0.39592 0.88681 0.07840
 N224 N 0.39003 0.86048 0.09436
 N225 N 0.36438 0.84219 0.10756
 C226 C 0.34350 0.84944 0.10544
 N227 N 0.34938 0.87596 0.08998
 N228 N 0.37516 0.89432 0.07632
 C229 C 0.31533 0.82888 0.12149
 C230 C 0.30901 0.80071 0.12766
 H231 H 0.43955 0.89809 0.06958
 H232 H 0.30043 0.83605 0.13162
 H233 H 0.41851 0.94077 0.03412
 H234 H 0.32408 0.79406 0.11579
 C235 C 0.93346 0.51217 0.55211
 C236 C 0.91729 0.50222 0.59795
 C237 C 0.90017 0.51409 0.61985
 N238 N 0.88191 0.49937 0.65842
 N239 N 0.86438 0.50797 0.67657
 C240 C 0.86437 0.53170 0.65697
 N241 N 0.88310 0.54691 0.61914
 N242 N 0.90059 0.53814 0.60055
 C243 C 0.84403 0.54024 0.67649
 C244 C 0.81976 0.52005 0.69937
 H245 H 0.91511 0.48291 0.61651
 H246 H 0.84839 0.56207 0.67439
 H247 H 0.93810 0.53256 0.53537
 H248 H 0.81539 0.49817 0.69811
 C249 C 0.48946 0.41858 0.54380
 C250 C 0.50212 0.40120 0.54105
 C251 C 0.49004 0.37287 0.56463
 N252 N 0.50616 0.35980 0.57127
 N253 N 0.49697 0.33560 0.59795
 C254 C 0.47124 0.32343 0.61886
 N255 N 0.45479 0.33612 0.61104
 N256 N 0.46407 0.36048 0.58461
 C257 C 0.46224 0.29834 0.65344
 C258 C 0.48187 0.29155 0.67880
 H259 H 0.52291 0.40950 0.52600
 H260 H 0.44062 0.28720 0.66431
 H261 H 0.46788 0.40955 0.55479
 H262 H 0.50377 0.30424 0.67094
 C263 C 0.57171 0.06760 0.49806
 C264 C 0.58435 0.09624 0.48623
 C265 C 0.61273 0.11599 0.50711
 N266 N 0.62105 0.14403 0.50532
 N267 N 0.64471 0.16239 0.53140
 C268 C 0.66102 0.15342 0.56036
 N269 N 0.65314 0.12539 0.56094
 N270 N 0.62934 0.10697 0.53501
 C271 C 0.68539 0.17336 0.59453
 C272 C 0.68837 0.19980 0.60861
 H273 H 0.57146 0.10534 0.46987
 H274 H 0.69943 0.16618 0.61324
 H275 H 0.58453 0.05759 0.50915
 H276 H 0.67333 0.20616 0.59186
 C277 C 0.50028 0.08304 1.00026
 C278 C 0.51186 0.11119 1.01772
 C279 C 0.49806 0.12886 1.00802
 N280 N 0.47502 0.12045 0.97354
 N281 N 0.46526 0.13841 0.95941
 C282 C 0.47815 0.16534 0.97944
 N283 N 0.50073 0.17343 1.01481
 N284 N 0.51050 0.15554 1.02882
 C285 C 0.47127 0.18696 0.95703
 C286 C 0.45126 0.18144 0.91435
 H287 H 0.53244 0.12135 1.03813
 H288 H 0.48586 0.20869 0.96759
 H289 H 0.47811 0.07201 0.98912
 H290 H 0.43511 0.16009 0.90572
 C291 C 0.57919 0.52069 0.95588
 C292 C 0.60043 0.51397 0.97204
 C293 C 0.62874 0.52844 0.95176
 N294 N 0.64849 0.52215 0.97406
 N295 N 0.67354 0.53260 0.95320
 C296 C 0.67988 0.54974 0.90907
 N297 N 0.66028 0.55653 0.88731
 N298 N 0.63515 0.54610 0.90833
 C299 C 0.70608 0.55784 0.88129
 C300 C 0.72283 0.54531 0.89605
 H301 H 0.59666 0.49755 1.00150
 H302 H 0.70982 0.56994 0.84397
 H303 H 0.58488 0.53997 0.93337
 H304 H 0.71783 0.53179 0.93149
 C305 C 0.92556 0.42146 0.95587
 C306 C 0.89756 0.40437 0.96730
 C307 C 0.87941 0.37783 0.93756
 N308 N 0.85162 0.36515 0.94525
 N309 N 0.83414 0.34267 0.91518
 C310 C 0.84378 0.33189 0.87630
 N311 N 0.87170 0.34415 0.86936
 N312 N 0.88922 0.36683 0.89930
 C313 C 0.82415 0.30866 0.83971
 C314 C 0.79639 0.30314 0.83257
 H315 H 0.88757 0.41106 0.99700
 H316 H 0.83206 0.29775 0.81434
 H317 H 0.93574 0.41228 0.93193
 H318 H 0.78929 0.31580 0.85487
 C319 C 0.50193 0.91628 0.48486
 C320 C 0.49085 0.88705 0.47856
 C321 C 0.50603 0.87365 0.45380
 N322 N 0.49197 0.84582 0.44041
 N323 N 0.50401 0.83363 0.41235
 C324 C 0.53063 0.84875 0.39663
 N325 N 0.54501 0.87649 0.41116
 N326 N 0.53288 0.88877 0.43903
 C327 C 0.54292 0.83584 0.36099
 C328 C 0.52571 0.81160 0.33008
 H329 H 0.46944 0.87313 0.48767
 H330 H 0.56515 0.84678 0.35505
 H331 H 0.52436 0.92900 0.48300
 H332 H 0.50328 0.80210 0.33335
 C333 C 0.41475 0.50150 0.53122
 C334 C 0.39544 0.47461 0.51216
 C335 C 0.36623 0.46786 0.49799
 N336 N 0.35001 0.44540 0.46460
 N337 N 0.32515 0.44157 0.44445
 C338 C 0.31560 0.46006 0.45709
 N339 N 0.33146 0.48202 0.49172
 N340 N 0.35629 0.48586 0.51176
 C341 C 0.29061 0.45903 0.42861
 C342 C 0.27538 0.43948 0.38684
 H343 H 0.40281 0.46033 0.49775
 H344 H 0.28628 0.47647 0.43593
 H345 H 0.40722 0.51620 0.54218
 H346 H 0.27854 0.42122 0.38059
 C347 C 0.06313 0.56296 0.39614
 C348 C 0.08716 0.57084 0.36679
 C349 C 0.10487 0.59917 0.34639
 N350 N 0.12917 0.60402 0.32459
 N351 N 0.14725 0.62973 0.30965
 C352 C 0.14183 0.65177 0.31583
 N353 N 0.11715 0.64694 0.33654
 N354 N 0.09902 0.62105 0.35200
 C355 C 0.16283 0.68020 0.30023
 C356 C 0.19052 0.68559 0.29750
 H357 H 0.09456 0.55567 0.35953
 H358 H 0.15648 0.69592 0.28831
 H359 H 0.05319 0.57643 0.39477
 H360 H 0.19620 0.66980 0.31255
 C361 C 0.93036 0.51075 1.01751
 C362 C 0.90301 0.49898 1.03468
 C363 C 0.88441 0.51145 1.02200
 N364 N 0.89184 0.53359 0.98754
 N365 N 0.87293 0.54114 0.96802
 C366 C 0.84593 0.52679 0.98226
 N367 N 0.83878 0.50525 1.01792
 N368 N 0.85764 0.49771 1.03736
 C369 C 0.82368 0.53087 0.95345
 C370 C 0.82864 0.55014 0.91137
 H371 H 0.89353 0.47810 1.05196
 H372 H 0.80235 0.51531 0.96011
 H373 H 0.94140 0.53333 1.01155
 H374 H 0.84943 0.56728 0.90645
 C375 C 0.50232 0.43080 1.01315
 C376 C 0.47676 0.41038 0.99023
 C377 C 0.47170 0.38124 0.98054
 N378 N 0.45025 0.36373 0.94588
 N379 N 0.44776 0.33878 0.93081
 C380 C 0.46665 0.33044 0.95000
 N381 N 0.48767 0.34765 0.98563
 N382 N 0.49016 0.37255 1.00061
 C383 C 0.46689 0.30506 0.92831
 C384 C 0.44744 0.28715 0.88848
 H385 H 0.46225 0.41677 0.97089
 H386 H 0.48477 0.30198 0.94030
 H387 H 0.51727 0.42425 1.02964
 H388 H 0.42862 0.28882 0.87807
 C389 C 0.59060 0.08201 0.98118
 C390 C 0.60767 0.11079 0.99101
 C391 C 0.63245 0.12755 0.95944
 N392 N 0.64399 0.15605 0.96149
 N393 N 0.66413 0.17178 0.92829
 C394 C 0.67360 0.15963 0.89179
 N395 N 0.66259 0.13111 0.89066
 N396 N 0.64226 0.11534 0.92368
 C397 C 0.69392 0.17688 0.85146
 C398 C 0.69714 0.20352 0.83817
 H399 H 0.60086 0.12226 1.01747
 H400 H 0.70439 0.16769 0.82854
 H401 H 0.59862 0.07028 0.95852
 H402 H 0.68480 0.21149 0.85838
 C403 C 0.07190 0.48450 0.48357
 C404 C 0.06919 0.46121 0.45377
 C405 C 0.09348 0.45631 0.44672
 N406 N 0.09188 0.43690 0.40935
 N407 N 0.11465 0.43484 0.39753
 C408 C 0.13985 0.45215 0.42268
 N409 N 0.14132 0.47116 0.46077
 N410 N 0.11860 0.47318 0.47261
 C411 C 0.16583 0.45319 0.40461
 C412 C 0.16614 0.43495 0.36451
 H413 H 0.05036 0.44916 0.42820
 H414 H 0.18536 0.47077 0.41928
 H415 H 0.09140 0.49746 0.50646
 H416 H 0.14705 0.41626 0.35216
 C417 C 0.49626 0.57780 0.44586
 C418 C 0.47922 0.58438 0.41033
 C419 C 0.48837 0.61139 0.38233
 N420 N 0.51432 0.63344 0.39151
 N421 N 0.52140 0.65797 0.36667
 C422 C 0.50273 0.66125 0.33200
 N423 N 0.47692 0.63919 0.32293
 N424 N 0.46986 0.61477 0.34771
 C425 C 0.50966 0.68781 0.30357
 C426 C 0.53531 0.71204 0.31030
 H427 H 0.45758 0.56887 0.40264
 H428 H 0.49371 0.68802 0.27526
 H429 H 0.51852 0.59181 0.44982
 H430 H 0.55146 0.71224 0.33853
 C431 C 0.41054 0.91684 0.46588
 C432 C 0.39389 0.88864 0.47881
 C433 C 0.36672 0.87071 0.45051
 N434 N 0.35469 0.84242 0.45731
 N435 N 0.33186 0.82525 0.42735
 C436 C 0.32009 0.83573 0.38950
 N437 N 0.33170 0.86410 0.38361
 N438 N 0.35467 0.88130 0.41342
 C439 C 0.29686 0.81677 0.35185
 C440 C 0.29121 0.78888 0.34353
 H441 H 0.40242 0.87834 0.50641
 H442 H 0.28668 0.82579 0.32508
 H443 H 0.40151 0.92804 0.44227
 H444 H 0.30290 0.78054 0.36772
 C445 C 0.51472 0.92893 -0.03633
 C446 C 0.53944 0.93379 -0.00739
 C447 C 0.54497 0.91023 0.00839
 N448 N 0.56499 0.91419 0.04811
 N449 N 0.56735 0.89231 0.06900
 C450 C 0.54973 0.86565 0.05095
 N451 N 0.53019 0.86176 0.01035
 N452 N 0.52784 0.88361 -0.01051
 C453 C 0.54926 0.84094 0.07838
 C454 C 0.56766 0.84295 0.12222
 H455 H 0.55187 0.95390 0.01353
 H456 H 0.53226 0.82045 0.06647
 H457 H 0.50182 0.90833 -0.05508
 H458 H 0.58562 0.86298 0.13284
 C459 C 0.41253 0.49826 0.01192
 C460 C 0.39391 0.50941 0.01443
 C461 C 0.36806 0.49581 0.04440
 N462 N 0.35531 0.51125 0.05817
 N463 N 0.33332 0.50043 0.08941
 C464 C 0.32310 0.47367 0.10792
 N465 N 0.33546 0.45794 0.09319
 N466 N 0.35767 0.46888 0.06228
 C467 C 0.29959 0.46224 0.14465
 C468 C 0.29334 0.48029 0.17508
 H469 H 0.39944 0.53017 -0.00110
 H470 H 0.28805 0.43966 0.14984
 H471 H 0.40569 0.47672 0.02462
 H472 H 0.30643 0.50286 0.17255
 C473 C 0.07732 0.58061 -0.03135
 C474 C 0.10532 0.59497 -0.04432
 C475 C 0.12423 0.62351 -0.02295
 N476 N 0.15220 0.63345 -0.02510
 N477 N 0.16994 0.65729 0.00111
 C478 C 0.16037 0.67216 0.03035
 N479 N 0.13239 0.66268 0.03117
 N480 N 0.11462 0.63872 0.00519
 C481 C 0.17959 0.69629 0.06555
 C482 C 0.20627 0.70021 0.08111
 H483 H 0.11473 0.58360 -0.06367
 H484 H 0.17131 0.70850 0.08574
 H485 H 0.06727 0.59241 -0.01643
 H486 H 0.21385 0.68681 0.06318
 C487 C 0.48568 0.06374 0.57141
 C488 C 0.50102 0.08691 0.60651
 C489 C 0.49049 0.10546 0.62793
 N490 N 0.50852 0.12887 0.65700
 N491 N 0.50029 0.14692 0.67535
 C492 C 0.47365 0.14233 0.66536
 N493 N 0.45543 0.11877 0.63648
 N494 N 0.46373 0.10068 0.61782
 C495 C 0.46468 0.16232 0.68668
 C496 C 0.48406 0.18752 0.71243
 H497 H 0.52265 0.09272 0.61749
 H498 H 0.44271 0.15677 0.68400
 H499 H 0.46342 0.05602 0.56410
 H500 H 0.50598 0.19283 0.71461
 C501 C 0.57879 0.50966 0.56077
 C502 C 0.59648 0.49775 0.55330
 C503 C 0.62517 0.50973 0.57751
 N504 N 0.63893 0.49417 0.57645
 N505 N 0.66400 0.50334 0.60185
 C506 C 0.67638 0.52854 0.62911
 N507 N 0.66288 0.54442 0.62930
 N508 N 0.63766 0.53515 0.60411
 C509 C 0.70299 0.53764 0.66122
 C510 C 0.71236 0.51829 0.67669
 H511 H 0.58849 0.47766 0.53191
 H512 H 0.71362 0.55891 0.67810
 H513 H 0.58729 0.53068 0.57848
 H514 H 0.70040 0.49650 0.66313
 C515 C 0.91837 0.41640 0.49880
 C516 C 0.88939 0.40438 0.49123
 C517 C 0.87024 0.37646 0.51189
 N518 N 0.84251 0.36842 0.51038
 N519 N 0.82492 0.34504 0.53504
 C520 C 0.83437 0.32874 0.56227
 N521 N 0.86205 0.33639 0.56273
 N522 N 0.87972 0.35991 0.53815
 C523 C 0.81542 0.30470 0.59486
 C524 C 0.78922 0.30144 0.60716
 H525 H 0.88018 0.41730 0.47568
 H526 H 0.82323 0.29133 0.61414
 H527 H 0.92807 0.40322 0.50924
 H528 H 0.78224 0.31591 0.59010
   
