data_POSCAR
  _audit_creation_date              2014-09-24
  _audit_creation_method            'ToBaCCo'
  _symmetry_space_group_name_H-M    'P1'
  _symmetry_Int_Tables_number       1
  _symmetry_cell_setting            triclinic
  loop_
  _symmetry_equiv_pos_as_xyz
 x,y,z
_cell_length_a 31.9255
_cell_length_b 31.9680
_cell_length_c 31.8360
_cell_angle_alpha 94.633400
_cell_angle_beta 93.226200
_cell_angle_gamma 93.896800
loop_
  _atom_site_label
  _atom_site_type_symbol
  _atom_site_fract_x
  _atom_site_fract_y
  _atom_site_fract_z
C1 C 0.70309 0.70871 0.95569
 H2 H 0.73548 0.72121 0.95938
 C3 C 0.67323 0.73075 0.93453
 H4 H 0.68271 0.76025 0.92208
 C5 C 0.65100 0.65477 0.96649
 H6 H 0.64286 0.62469 0.97836
 C7 C 0.62011 0.67613 0.94645
 H8 H 0.58807 0.66225 0.94283
 N9 N 0.69151 0.67127 0.97080
 C10 C 0.79691 0.67661 1.05200
 H11 H 0.77772 0.66724 1.07697
 C12 C 0.83726 0.69556 1.06213
 H13 H 0.84778 0.70171 1.09506
 C14 C 0.80617 0.67998 0.97899
 H15 H 0.79405 0.67291 0.94659
 C16 C 0.84674 0.69893 0.98768
 H17 H 0.86561 0.70681 0.96182
 Zn18 Zn 0.73045 0.63788 0.99632
 N19 N 0.78229 0.66902 1.01098
 C20 C 0.72880 0.59567 0.91509
 N21 N 0.74231 0.59417 0.95628
 C22 C 0.77025 0.56638 0.96789
 C23 C 0.78611 0.53892 0.93744
 C24 C 0.74477 0.56952 0.88348
 C25 C 0.69245 0.64834 1.07226
 C26 C 0.67489 0.63792 1.10948
 C27 C 0.68743 0.56519 1.09138
 C28 C 0.70434 0.57711 1.05403
 N29 N 0.70709 0.61821 1.04553
 H30 H 0.70740 0.61872 0.90637
 H31 H 0.78173 0.56692 1.00056
 H32 H 0.80907 0.51756 0.94702
 H33 H 0.73461 0.57181 0.85077
 H34 H 0.69457 0.68074 1.06458
 H35 H 0.66359 0.66291 1.12999
 H36 H 0.68559 0.53216 1.09656
 H37 H 0.71515 0.55339 1.03193
 C38 C 0.86313 0.70604 1.02961
 C39 C 0.63118 0.71461 0.93020
 C40 C 0.67242 0.59594 1.12011
 C41 C 0.77443 0.54134 0.89464
 C42 C 0.71249 0.30833 0.48480
 H43 H 0.74255 0.29757 0.47647
 C44 C 0.68268 0.28051 0.50043
 H45 H 0.68977 0.24820 0.50351
 C46 C 0.66840 0.36451 0.49561
 H47 H 0.66409 0.39779 0.49567
 C48 C 0.63751 0.33770 0.51069
 H49 H 0.60961 0.35086 0.52236
 N50 N 0.70522 0.34968 0.48374
 C51 C 0.83448 0.37368 0.47177
 H52 H 0.83937 0.39346 0.50103
 C53 C 0.86900 0.35729 0.45299
 H54 H 0.90000 0.36493 0.46824
 C55 C 0.78845 0.34271 0.41504
 H56 H 0.75696 0.33760 0.40030
 C57 C 0.82209 0.32586 0.39507
 H58 H 0.81628 0.30767 0.36484
 Zn59 Zn 0.74898 0.39079 0.47667
 N60 N 0.79516 0.36601 0.45274
 C61 C 0.77667 0.38246 0.55669
 N62 N 0.76527 0.41355 0.53267
 C63 C 0.76409 0.45385 0.54993
 C64 C 0.77599 0.46404 0.59296
 C65 C 0.78805 0.39100 0.59937
 C66 C 0.69969 0.41197 0.40852
 C67 C 0.68502 0.43583 0.37680
 C68 C 0.73121 0.49467 0.40747
 C69 C 0.74576 0.46926 0.43827
 N70 N 0.72910 0.42897 0.43880
 H71 H 0.77691 0.35062 0.54246
 H72 H 0.75346 0.47794 0.53084
 H73 H 0.77481 0.49612 0.60626
 H74 H 0.79722 0.36551 0.61755
 H75 H 0.68785 0.37950 0.40866
 H76 H 0.66084 0.42177 0.35375
 H77 H 0.74395 0.52698 0.40784
 H78 H 0.77059 0.48159 0.46131
 C79 C 0.86295 0.33295 0.41407
 C80 C 0.64501 0.29531 0.51431
 C81 C 0.70079 0.47778 0.37600
 C82 C 0.78825 0.43211 0.61811
 C83 C 0.21807 -0.15482 0.03161
 H84 H 0.24961 -0.15030 0.04623
 C85 C 0.18762 -0.17905 0.05020
 H86 H 0.19629 -0.19374 0.07863
 C87 C 0.16772 -0.13818 -0.02088
 H88 H 0.15977 -0.12109 -0.04774
 C89 C 0.13612 -0.16225 -0.00324
 H90 H 0.10429 -0.16309 -0.01693
 N91 N 0.20777 -0.13485 -0.00319
 C92 C 0.30661 -0.11434 -0.08431
 H93 H 0.29650 -0.08562 -0.09592
 C94 C 0.33661 -0.13596 -0.10547
 H95 H 0.34895 -0.12408 -0.13357
 C96 C 0.30480 -0.16373 -0.03263
 H97 H 0.29244 -0.17448 -0.00427
 C98 C 0.33554 -0.18581 -0.05232
 H99 H 0.34634 -0.21361 -0.03907
 Zn100 Zn 0.25026 -0.09777 -0.02142
 N101 N 0.29090 -0.12871 -0.04886
 C102 C 0.31847 -0.06822 0.03509
 N103 N 0.27622 -0.06722 0.02771
 C104 C 0.25168 -0.05243 0.05836
 C105 C 0.26919 -0.04063 0.09926
 C106 C 0.33723 -0.05669 0.07535
 C107 C 0.21269 -0.08293 -0.09846
 C108 C 0.19649 -0.06036 -0.13042
 C109 C 0.20660 0.00267 -0.08253
 C110 C 0.22380 -0.02116 -0.05176
 N111 N 0.22640 -0.06317 -0.06030
 H112 H 0.33737 -0.08043 0.01044
 H113 H 0.21801 -0.05289 0.05190
 H114 H 0.24850 -0.03172 0.12366
 H115 H 0.37062 -0.05967 0.08108
 H116 H 0.21482 -0.11652 -0.10419
 H117 H 0.18536 -0.07789 -0.15982
 H118 H 0.20436 0.03608 -0.07490
 H119 H 0.23489 -0.00619 -0.02110
 C120 C 0.35174 -0.17170 -0.08913
 C121 C 0.14600 -0.18263 0.03315
 C122 C 0.19314 -0.01666 -0.12288
 C123 C 0.31243 -0.04400 0.10840
 C124 C 0.19582 0.20154 0.44925
 H125 H 0.22442 0.19973 0.43275
 C126 C 0.16430 0.22624 0.43475
 H127 H 0.16953 0.24380 0.40764
 C128 C 0.15431 0.18071 0.50432
 H129 H 0.14976 0.16239 0.53092
 C130 C 0.12236 0.20520 0.49123
 H131 H 0.09386 0.20549 0.50815
 N132 N 0.19007 0.17877 0.48312
 C133 C 0.31147 0.14494 0.53694
 H134 H 0.30120 0.11413 0.54567
 C135 C 0.35286 0.16067 0.54725
 H136 H 0.37414 0.14100 0.56273
 C137 C 0.29603 0.20723 0.50555
 H138 H 0.27384 0.22537 0.48946
 C139 C 0.33741 0.22414 0.51503
 H140 H 0.34673 0.25519 0.50595
 Zn141 Zn 0.22979 0.14078 0.50145
 N142 N 0.28408 0.16791 0.51599
 C143 C 0.22341 0.10094 0.41743
 N144 N 0.23593 0.09704 0.45846
 C145 C 0.25771 0.06399 0.46929
 C146 C 0.26996 0.03481 0.43826
 C147 C 0.23572 0.07284 0.38524
 C148 C 0.21540 0.14466 0.58663
 C149 C 0.19933 0.13232 0.62385
 C150 C 0.17506 0.06517 0.58712
 C151 C 0.19142 0.07896 0.55034
 N152 N 0.21082 0.11825 0.55076
 H153 H 0.20540 0.12673 0.40923
 H154 H 0.26678 0.06089 0.50200
 H155 H 0.28869 0.00965 0.44743
 H156 H 0.22668 0.07728 0.35272
 H157 H 0.23056 0.17588 0.58590
 H158 H 0.20230 0.15423 0.65183
 H159 H 0.15830 0.03448 0.58571
 H160 H 0.18734 0.05886 0.52121
 C161 C 0.36636 0.20080 0.53620
 C162 C 0.12658 0.22756 0.45549
 C163 C 0.17865 0.09231 0.62440
 C164 C 0.26058 0.04013 0.39561
 C165 C 0.21355 0.46315 0.20059
 H166 H 0.21732 0.45273 0.23193
 C167 C 0.23636 0.44537 0.16805
 H168 H 0.25805 0.42185 0.17483
 C169 C 0.17996 0.50524 0.15293
 H170 H 0.15663 0.52698 0.14610
 C171 C 0.20269 0.48923 0.12007
 H172 H 0.19716 0.49973 0.08884
 N173 N 0.18576 0.49249 0.19250
 C174 C 0.17631 0.57556 0.30116
 H175 H 0.16067 0.59708 0.28244
 C176 C 0.19221 0.59009 0.34171
 H177 H 0.18958 0.62271 0.35278
 C178 C 0.19594 0.50685 0.31134
 H179 H 0.19614 0.47414 0.29980
 C180 C 0.21171 0.52002 0.35262
 H181 H 0.22532 0.49739 0.37183
 Zn182 Zn 0.14969 0.51477 0.23357
 N183 N 0.17848 0.53458 0.28646
 C184 C 0.08015 0.48312 0.27323
 N185 N 0.10881 0.47231 0.24508
 C186 C 0.11065 0.43167 0.22915
 C187 C 0.08381 0.39975 0.24278
 C188 C 0.05215 0.45245 0.28688
 C189 C 0.15246 0.59261 0.20175
 C190 C 0.13851 0.62836 0.18507
 C191 C 0.06693 0.59899 0.18682
 C192 C 0.08241 0.56353 0.20382
 N193 N 0.12458 0.56116 0.21109
 H194 H 0.07982 0.51554 0.28588
 H195 H 0.13372 0.42371 0.20686
 H196 H 0.08608 0.36750 0.23038
 H197 H 0.02993 0.46151 0.30985
 H198 H 0.18585 0.58973 0.20738
 H199 H 0.16149 0.65283 0.17782
 H200 H 0.03338 0.59983 0.18065
 H201 H 0.06077 0.53785 0.21070
 C202 C 0.20927 0.56215 0.36837
 C203 C 0.23070 0.45844 0.12710
 C204 C 0.09536 0.63206 0.17732
 C205 C 0.05455 0.41010 0.27253
 C206 C -0.14061 -0.00606 0.16591
 H207 H -0.12216 -0.03225 0.15762
 C208 C -0.16501 0.01079 0.13446
 H209 H -0.16458 -0.00318 0.10248
 C210 C -0.16144 0.04453 0.21768
 H211 H -0.15949 0.05766 0.25019
 C212 C -0.18562 0.06273 0.18735
 H213 H -0.20233 0.08995 0.19704
 N214 N -0.13932 0.01103 0.20653
 C215 C -0.11732 -0.04992 0.32148
 H216 H -0.08329 -0.04764 0.32413
 C217 C -0.13985 -0.06992 0.35128
 H218 H -0.12288 -0.08335 0.37672
 C219 C -0.18061 -0.03678 0.28378
 H220 H -0.19628 -0.02430 0.25706
 C221 C -0.20444 -0.05718 0.31257
 H222 H -0.23843 -0.06001 0.30815
 Zn223 Zn -0.10453 -0.00735 0.25003
 N224 N -0.13788 -0.03308 0.28909
 C225 C -0.07699 0.05224 0.31791
 N226 N -0.07313 0.04128 0.27625
 C227 C -0.05248 0.06779 0.25167
 C228 C -0.03643 0.10792 0.26849
 C229 C -0.06112 0.09162 0.33602
 C230 C -0.02745 -0.04192 0.22942
 C231 C -0.00345 -0.07385 0.21340
 C232 C -0.06746 -0.11846 0.19713
 C233 C -0.09012 -0.08578 0.21338
 N234 N -0.07001 -0.04833 0.22853
 H235 H -0.09436 0.03152 0.33685
 H236 H -0.05062 0.05866 0.21839
 H237 H -0.02203 0.12905 0.24774
 H238 H -0.06600 0.10016 0.36892
 H239 H -0.01216 -0.01203 0.24220
 H240 H 0.03038 -0.06809 0.21338
 H241 H -0.08469 -0.14715 0.18369
 H242 H -0.12403 -0.09000 0.21346
 C243 C -0.18401 -0.07325 0.34720
 C244 C -0.18756 0.04621 0.14497
 C245 C -0.02342 -0.11271 0.19694
 C246 C -0.04169 0.12059 0.31111
 C247 C 0.34175 0.52475 0.73390
 H248 H 0.34187 0.53475 0.76720
 C249 C 0.31827 0.54527 0.70466
 H250 H 0.29997 0.57083 0.71567
 C251 C 0.36751 0.48088 0.67903
 H252 H 0.38799 0.45688 0.66915
 C253 C 0.34426 0.50041 0.64866
 H254 H 0.34741 0.49100 0.61566
 N255 N 0.36603 0.49351 0.72071
 C256 C 0.39305 0.43283 0.83601
 H257 H 0.42704 0.43706 0.83866
 C258 C 0.37161 0.41425 0.86753
 H259 H 0.38919 0.40383 0.89437
 C260 C 0.32874 0.44063 0.79740
 H261 H 0.31222 0.45081 0.76991
 C262 C 0.30613 0.42093 0.82755
 H263 H 0.27220 0.41610 0.82325
 Zn264 Zn 0.40261 0.47409 0.76247
 N265 N 0.37139 0.44678 0.80251
 C266 C 0.42861 0.53470 0.83009
 N267 N 0.43302 0.52338 0.78858
 C268 C 0.45175 0.55067 0.76345
 C269 C 0.46466 0.59197 0.77937
 C270 C 0.44141 0.57525 0.84731
 C271 C 0.41801 0.39714 0.72200
 C272 C 0.44088 0.36577 0.70324
 C273 C 0.50414 0.41162 0.71844
 C274 C 0.47999 0.44216 0.73713
 N275 N 0.43764 0.43455 0.73808
 H276 H 0.41246 0.51353 0.84945
 H277 H 0.45387 0.54132 0.73026
 H278 H 0.47705 0.61371 0.75807
 H279 H 0.43575 0.58404 0.87998
 H280 H 0.38428 0.39195 0.72328
 H281 H 0.42397 0.33708 0.68931
 H282 H 0.53771 0.41841 0.71707
 H283 H 0.49498 0.47201 0.75044
 C284 C 0.32760 0.40852 0.86351
 C285 C 0.31951 0.53341 0.66144
 C286 C 0.48466 0.37277 0.70125
 C287 C 0.45825 0.60497 0.82166
 C288 C 0.71270 0.94840 0.70329
 H289 H 0.72597 0.95271 0.73544
 C290 C 0.73405 0.92636 0.67232
 H291 H 0.76383 0.91392 0.68069
 C292 C 0.65756 0.95856 0.65288
 H293 H 0.62731 0.97053 0.64577
 C294 C 0.67817 0.93768 0.62095
 H295 H 0.66359 0.93365 0.58920
 N296 N 0.67503 0.96371 0.69304
 C297 C 0.67589 1.04939 0.79930
 H298 H 0.66397 1.07280 0.78012
 C299 C 0.69296 1.06177 0.84005
 H300 H 0.69472 1.09494 0.84992
 C301 C 0.68627 0.97809 0.80873
 H302 H 0.68225 0.94534 0.79673
 C303 C 0.70366 0.98904 0.84974
 H304 H 0.71357 0.96434 0.86863
 Zn305 Zn 0.64181 0.99088 0.73269
 N306 N 0.67255 1.00815 0.78453
 C307 C 0.57029 0.96497 0.77349
 N308 N 0.59861 0.95183 0.74592
 C309 C 0.60058 0.91026 0.73349
 C310 C 0.57428 0.87988 0.75012
 C311 C 0.54279 0.93575 0.79012
 C312 C 0.65103 1.06607 0.69530
 C313 C 0.63984 1.10216 0.67693
 C314 C 0.56678 1.08087 0.68419
 C315 C 0.57947 1.04496 0.70260
 N316 N 0.62108 1.03853 0.70820
 H317 H 0.57029 0.99803 0.78389
 H318 H 0.62397 0.90038 0.71229
 H319 H 0.57681 0.84692 0.74059
 H320 H 0.52094 0.94659 0.81272
 H321 H 0.68385 1.05994 0.69953
 H322 H 0.66440 1.12361 0.66703
 H323 H 0.53354 1.08486 0.67964
 H324 H 0.55601 1.02219 0.71203
 C325 C 0.70636 1.03127 0.86656
 C326 C 0.71693 0.92136 0.63055
 C327 C 0.59734 1.11025 0.67129
 C328 C 0.54556 0.89263 0.77949
 C329 C 0.03158 0.22246 -0.16037
 H330 H 0.04347 0.25500 -0.16004
 C331 C 0.04969 0.19149 -0.18500
 H332 H 0.07566 0.20038 -0.20371
 C333 C -0.01558 0.17131 -0.13474
 H334 H -0.04035 0.16371 -0.11423
 C335 C 0.00159 0.13915 -0.15915
 H336 H -0.01001 0.10691 -0.15675
 N337 N -0.00010 0.21191 -0.13564
 C338 C -0.05733 0.32987 -0.11350
 H339 H -0.05283 0.33528 -0.07951
 C340 C -0.07606 0.35948 -0.13670
 H341 H -0.08606 0.38789 -0.12054
 C342 C -0.05059 0.28583 -0.17605
 H343 H -0.04101 0.25684 -0.19115
 C344 C -0.07041 0.31406 -0.20035
 H345 H -0.07567 0.30701 -0.23416
 Zn346 Zn -0.01770 0.25637 -0.10026
 N347 N -0.04383 0.29456 -0.13353
 C348 C 0.04358 0.32324 -0.07566
 N349 N 0.03167 0.28246 -0.07038
 C350 C 0.05776 0.25808 -0.04947
 C351 C 0.09814 0.27420 -0.03421
 C352 C 0.08327 0.34065 -0.06067
 C353 C -0.09692 0.22564 -0.08328
 C354 C -0.12944 0.21027 -0.06012
 C355 C -0.08101 0.21627 0.00162
 C356 C -0.04958 0.23241 -0.02273
 N357 N -0.05799 0.23615 -0.06450
 H358 H 0.02345 0.34189 -0.09359
 H359 H 0.04809 0.22536 -0.04675
 H360 H 0.11884 0.25347 -0.01959
 H361 H 0.09251 0.37277 -0.06663
 H362 H -0.10259 0.22888 -0.11664
 H363 H -0.15936 0.20119 -0.07706
 H364 H -0.07332 0.21270 0.03468
 H365 H -0.01844 0.24133 -0.00840
 C366 C -0.08235 0.35169 -0.18064
 C367 C 0.03506 0.14925 -0.18432
 C368 C -0.12179 0.20486 -0.01685
 C369 C 0.11162 0.31591 -0.04065
 C370 C 0.45025 0.19482 0.20859
 H371 H 0.43357 0.22314 0.20830
 C372 C 0.43586 0.16220 0.23219
 H373 H 0.40856 0.16612 0.25039
 C374 C 0.50552 0.15499 0.18483
 H375 H 0.53202 0.15145 0.16560
 C376 C 0.49267 0.12209 0.20836
 H377 H 0.50968 0.09386 0.20708
 N378 N 0.48384 0.19021 0.18449
 C379 C 0.53150 0.31314 0.14760
 H380 H 0.53846 0.30308 0.11573
 C381 C 0.54170 0.35478 0.16318
 H382 H 0.55539 0.37648 0.14250
 C383 C 0.50491 0.29685 0.21277
 H384 H 0.49088 0.27415 0.23210
 C385 C 0.51432 0.33850 0.22960
 H386 H 0.50730 0.34756 0.26182
 Zn387 Zn 0.50020 0.23002 0.14570
 N388 N 0.51321 0.28513 0.17220
 C389 C 0.41573 0.22093 0.10967
 N390 N 0.45640 0.23332 0.10323
 C391 C 0.46623 0.25294 0.06835
 C392 C 0.43460 0.26271 0.03956
 C393 C 0.38298 0.23102 0.08215
 C394 C 0.58567 0.21964 0.14668
 C395 C 0.62313 0.20475 0.13331
 C396 C 0.58641 0.17707 0.06740
 C397 C 0.54939 0.19219 0.08227
 N398 N 0.54971 0.21281 0.12141
 H399 H 0.40823 0.20476 0.13697
 H400 H 0.49861 0.26219 0.06340
 H401 H 0.44297 0.27970 0.01278
 H402 H 0.35075 0.22234 0.08859
 H403 H 0.58488 0.23561 0.17788
 H404 H 0.65122 0.20944 0.15436
 H405 H 0.58520 0.15934 0.03688
 H406 H 0.52019 0.18609 0.06318
 C407 C 0.53327 0.36792 0.20480
 C408 C 0.45667 0.12478 0.23124
 C409 C 0.62380 0.18298 0.09339
 C410 C 0.39240 0.25332 0.04730
 C411 C 0.94997 0.70407 0.70638
 H412 H 0.95346 0.73666 0.71876
 C413 C 0.92831 0.67437 0.72870
 H414 H 0.91534 0.68416 0.75833
 C415 C 0.96183 0.65128 0.65251
 H416 H 0.97436 0.64274 0.62238
 C417 C 0.94134 0.62058 0.67413
 H418 H 0.93811 0.58831 0.66042
 N419 N 0.96593 0.69204 0.66887
 C420 C 1.04800 0.79817 0.67194
 H421 H 1.07290 0.77910 0.66212
 C422 C 1.05815 0.83884 0.69069
 H423 H 1.09100 0.84953 0.69630
 C424 C 0.97530 0.80700 0.67661
 H425 H 0.94300 0.79458 0.67020
 C426 C 0.98405 0.84797 0.69531
 H427 H 0.95832 0.86680 0.70364
 Zn428 Zn 0.99278 0.73008 0.63479
 N429 N 1.00712 0.78307 0.66518
 C430 C 0.91243 0.72804 0.59316
 N431 N 0.95384 0.74030 0.59036
 C432 C 0.96634 0.76614 0.56086
 C433 C 0.93658 0.78131 0.53321
 C434 C 0.88155 0.74329 0.56675
 C435 C 1.06870 0.69442 0.64771
 C436 C 1.10579 0.67585 0.63865
 C437 C 1.08822 0.67954 0.56439
 C438 C 1.05118 0.69824 0.57498
 N439 N 1.04237 0.70565 0.61618
 H440 H 0.90296 0.70830 0.61745
 H441 H 0.99922 0.77656 0.56016
 H442 H 0.94694 0.80272 0.51055
 H443 H 0.84875 0.73404 0.57014
 H444 H 1.06075 0.70001 0.68018
 H445 H 1.12613 0.66732 0.66451
 H446 H 1.09412 0.67364 0.53143
 H447 H 1.02945 0.70645 0.55023
 C448 C 1.02586 0.86474 0.70175
 C449 C 0.92436 0.63204 0.71276
 C450 C 1.11629 0.66820 0.59664
 C451 C 0.89358 0.77107 0.53698
 C452 C 0.47762 0.70716 0.31000
 H453 H 0.46432 0.73385 0.29691
 C454 C 0.49248 0.67537 0.28315
 H455 H 0.49000 0.67760 0.24934
 C456 C 0.50034 0.67345 0.36998
 H457 H 0.50468 0.67389 0.40397
 C458 C 0.51568 0.64126 0.34449
 H459 H 0.53206 0.61762 0.35980
 N460 N 0.48257 0.70588 0.35257
 C461 C 0.46840 0.83427 0.36761
 H462 H 0.49812 0.84081 0.38566
 C463 C 0.45028 0.86670 0.34786
 H464 H 0.46702 0.89737 0.35163
 C465 C 0.41049 0.78657 0.34360
 H466 H 0.39517 0.75521 0.34213
 C467 C 0.39092 0.81818 0.32377
 H468 H 0.36043 0.81063 0.30717
 Zn469 Zn 0.47376 0.75124 0.39191
 N470 N 0.44868 0.79499 0.36478
 C471 C 0.55371 0.77962 0.38130
 N472 N 0.52956 0.76982 0.41342
 C473 C 0.54685 0.76995 0.45359
 C474 C 0.59003 0.78128 0.46248
 C475 C 0.59650 0.79058 0.38859
 C476 C 0.40748 0.69966 0.41474
 C477 C 0.37736 0.68226 0.43954
 C478 C 0.40657 0.72908 0.49879
 C479 C 0.43586 0.74628 0.47247
 N480 N 0.43636 0.73069 0.43142
 H481 H 0.53958 0.77837 0.34950
 H482 H 0.52777 0.76035 0.47854
 H483 H 0.60322 0.78088 0.49446
 H484 H 0.61476 0.79823 0.36220
 H485 H 0.40778 0.68825 0.38186
 H486 H 0.35562 0.65679 0.42558
 H487 H 0.40701 0.74105 0.53164
 H488 H 0.45788 0.77207 0.48482
 C489 C 0.41082 0.85896 0.32533
 C490 C 0.51250 0.64223 0.30031
 C491 C 0.37664 0.69687 0.48223
 C492 C 0.61541 0.79170 0.42945
 C493 C 0.38232 -0.03700 0.28614
 C494 C 0.36025 -0.04852 0.24230
 C495 C 0.33659 -0.01794 0.22825
 C496 C 0.33680 0.02115 0.25961
 C497 C 0.40745 0.00510 0.28202
 C498 C 0.38365 0.03557 0.26763
 C499 C 0.34742 -0.02558 0.31504
 C500 C 0.32352 0.00502 0.30145
 H501 H 0.36398 -0.07782 0.22378
 H502 H 0.31724 0.04587 0.24814
 H503 H 0.44109 0.00945 0.28888
 H504 H 0.34529 -0.03783 0.34559
 C505 C 0.07366 1.04621 0.76438
 C506 C 0.09595 1.06155 0.72641
 C507 C 0.12373 1.03501 0.71038
 C508 C 0.12610 0.99482 0.73331
 C509 C 0.05295 1.00252 0.74821
 C510 C 0.08060 0.97562 0.73179
 C511 C 0.10668 1.03838 0.79528
 C512 C 0.13592 1.01014 0.77996
 H513 H 0.08845 1.09004 0.71229
 H514 H 0.14874 0.97303 0.72024
 H515 H 0.01956 0.99445 0.74898
 H516 H 0.10569 1.04898 0.82837
 C517 C 0.57893 0.54977 0.26205
 C518 C 0.60062 0.56681 0.22749
 C519 C 0.62992 0.53999 0.20924
 C520 C 0.63208 0.49891 0.23103
 C521 C 0.55877 0.50639 0.24447
 C522 C 0.58661 0.47973 0.22846
 C523 C 0.61402 0.53981 0.29391
 C524 C 0.64151 0.51273 0.27814
 H525 H 0.59367 0.59601 0.21500
 H526 H 0.65476 0.47726 0.21780
 H527 H 0.52532 0.49804 0.24428
 H528 H 0.61345 0.54912 0.32734
 C529 C 0.88832 0.45690 0.78054
 C530 C 0.86154 0.44552 0.73926
 C531 C 0.83958 0.47773 0.72588
 C532 C 0.84693 0.51856 0.75529
 C533 C 0.91652 0.49527 0.77161
 C534 C 0.89517 0.52757 0.75818
 C535 C 0.85817 0.47357 0.81211
 C536 C 0.83609 0.50573 0.79930
 H537 H 0.86414 0.41649 0.71993
 H538 H 0.82907 0.54468 0.74438
 H539 H 0.95049 0.49527 0.77195
 H540 H 0.85699 0.46192 0.84298
 C541 C 0.29139 0.37557 -0.02939
 C542 C 0.24652 0.35607 -0.04011
 C543 C 0.23029 0.33424 -0.00899
 C544 C 0.26072 0.33365 0.03006
 C545 C 0.28857 0.40231 0.01248
 C546 C 0.27189 0.38053 0.04363
 C547 C 0.31700 0.33921 -0.01782
 C548 C 0.30143 0.31718 0.01349
 H549 H 0.22867 0.36043 -0.06912
 H550 H 0.24753 0.31569 0.05535
 H551 H 0.29766 0.43568 0.01616
 H552 H 0.34741 0.33504 -0.03026
 C553 C 0.76538 0.08213 1.04346
 C554 C 0.72619 0.10260 1.05902
 C555 C 0.71080 0.13098 1.03369
 C556 C 0.73511 0.13554 0.99402
 C557 C 0.75232 0.06238 1.00139
 C558 C 0.73544 0.09058 0.97321
 C559 C 0.79589 0.11665 1.03733
 C560 C 0.78096 0.14642 1.01019
 H561 H 0.71072 0.09351 1.08666
 H562 H 0.72230 0.15846 0.97309
 H563 H 0.75556 0.02943 0.99249
 H564 H 0.82869 0.11641 1.04801
 C565 C 0.26682 0.57142 0.56000
 C566 C 0.22818 0.59313 0.57433
 C567 C 0.21177 0.61830 0.54587
 C568 C 0.23586 0.61878 0.50517
 C569 C 0.25207 0.54750 0.51749
 C570 C 0.23637 0.57214 0.48846
 C571 C 0.29798 0.60691 0.54884
 C572 C 0.28202 0.63164 0.51979
 H573 H 0.21419 0.58680 0.60352
 H574 H 0.22242 0.63946 0.48234
 H575 H 0.25531 0.51418 0.51045
 H576 H 0.33102 0.60850 0.55902
 C577 C 0.78315 0.88437 0.45212
 C578 C 0.74139 0.85824 0.44049
 C579 C 0.72662 0.83655 0.47261
 C580 C 0.75554 0.84306 0.51342
 C581 C 0.77431 0.91252 0.49123
 C582 C 0.75979 0.89124 0.52334
 C583 C 0.81324 0.85339 0.46810
 C584 C 0.79934 0.83149 0.50016
 H585 H 0.72212 0.86195 0.41227
 H586 H 0.74365 0.82537 0.53946
 H587 H 0.77581 0.94655 0.49195
 H588 H 0.84420 0.85172 0.45625
 C589 C -0.02921 0.29538 0.38314
 C590 C -0.04146 0.25369 0.35709
 C591 C -0.01063 0.23935 0.33312
 C592 C 0.02960 0.26902 0.33652
 C593 C 0.01147 0.28770 0.40852
 C594 C 0.04235 0.27334 0.38411
 C595 C -0.01537 0.32600 0.35148
 C596 C 0.01559 0.31270 0.32693
 H597 H -0.07123 0.23592 0.35952
 H598 H 0.05456 0.25759 0.31647
 H599 H 0.01444 0.29215 0.44260
 H600 H -0.02680 0.35707 0.35208
 C601 C 1.04391 0.76684 0.07273
 C602 C 1.05996 0.73035 0.09562
 C603 C 1.03431 0.71633 0.12498
 C604 C 0.99395 0.73965 0.12784
 C605 C 1.00031 0.75021 0.05339
 C606 C 0.97400 0.73594 0.08245
 C607 C 1.03508 0.80040 0.10747
 C608 C 1.00870 0.78650 0.13633
 H609 H 1.08803 0.71542 0.08695
 H610 H 0.97264 0.72800 0.15146
 H611 H 0.99185 0.74910 0.01992
 H612 H 1.04491 0.83323 0.10565
 C613 C 0.54951 0.25340 0.57267
 C614 C 0.56578 0.21575 0.59398
 C615 C 0.54113 0.20172 0.62428
 C616 C 0.50160 0.22619 0.62960
 C617 C 0.50485 0.23808 0.55533
 C618 C 0.47964 0.22389 0.58518
 C619 C 0.54307 0.28652 0.60882
 C620 C 0.51746 0.27274 0.63847
 H621 H 0.59167 0.19883 0.58282
 H622 H 0.48105 0.21451 0.65385
 H623 H 0.49476 0.23755 0.52224
 H624 H 0.55376 0.31920 0.60751
 C625 C 0.45544 0.77935 0.88894
 C626 C 0.44622 0.73855 0.86059
 C627 C 0.48026 0.72510 0.84084
 C628 C 0.52017 0.75488 0.85009
 C629 C 0.49244 0.77065 0.91881
 C630 C 0.52640 0.75784 0.89869
 C631 C 0.47371 0.81131 0.86057
 C632 C 0.50728 0.79866 0.83959
 H633 H 0.41642 0.72000 0.85950
 H634 H 0.54748 0.74408 0.83321
 H635 H 0.49064 0.77114 0.95273
 H636 H 0.46189 0.84211 0.85971
 C637 C 0.38996 -0.10969 0.30557
 C638 C 0.40723 -0.06873 0.30152
 H639 H 0.35799 -0.11763 0.29260
 H640 H 0.43956 -0.05970 0.31203
 C641 C 0.89760 0.38228 0.79439
 C642 C 0.91243 0.42261 0.79772
 H643 H 0.86991 0.37155 0.77422
 H644 H 0.94021 0.43215 0.81837
 C645 C 0.05855 1.11712 0.79316
 C646 C 0.04423 1.07705 0.78236
 H647 H 0.09028 1.12695 0.78572
 H648 H 0.01271 1.06582 0.78884
 C649 C 0.53433 0.61271 0.27210
 C650 C 0.54786 0.57637 0.28421
 H651 H 0.54076 0.62271 0.24139
 H652 H 0.53753 0.56497 0.31327
 C653 C 0.54313 0.41203 0.22250
 C654 C 0.57546 0.43621 0.21030
 H655 H 0.52468 0.42402 0.24773
 H656 H 0.59661 0.42294 0.18828
 C657 C 0.03460 0.90897 0.71986
 C658 C 0.07005 0.93196 0.71356
 H659 H 0.01068 0.92296 0.73799
 H660 H 0.09351 0.91832 0.69462
 C661 C 0.90209 0.60000 0.73590
 C662 C 0.91756 0.56259 0.73950
 H663 H 0.87352 0.60761 0.75070
 H664 H 0.94822 0.55716 0.72795
 C665 C 0.44121 0.08719 0.25169
 C666 C 0.40029 0.07727 0.25611
 H667 H 0.46400 0.06469 0.25819
 H668 H 0.37731 0.09865 0.24671
 C669 C 0.30408 0.38787 -0.10447
 C670 C 0.31112 0.39948 -0.06314
 H671 H 0.28052 0.36288 -0.11549
 H672 H 0.33492 0.42465 -0.05304
 C673 C 0.79114 0.90517 0.37780
 C674 C 0.80291 0.90911 0.41905
 H675 H 0.76332 0.88591 0.36568
 H676 H 0.83022 0.92996 0.43003
 C677 C 0.78969 0.06718 1.11514
 C678 C 0.78218 0.05414 1.07202
 H679 H 0.77767 0.09675 1.12633
 H680 H 0.79309 0.02478 1.05912
 C681 C 0.29750 0.55830 0.63088
 C682 C 0.28550 0.54364 0.59114
 H683 H 0.29090 0.59012 0.64154
 H684 H 0.29060 0.51158 0.58015
 C685 C 0.22343 0.57843 0.41211
 C686 C 0.22365 0.55467 0.44484
 H687 H 0.23227 0.61180 0.41748
 H688 H 0.21502 0.52124 0.43976
 C689 C 0.72126 0.04093 0.90908
 C690 C 0.72147 0.08090 0.93085
 H691 H 0.73195 0.01531 0.92609
 H692 H 0.70987 0.10673 0.91503
 C693 C 0.73902 0.89876 0.59713
 C694 C 0.74173 0.91379 0.55935
 H695 H 0.75387 0.87040 0.60398
 H696 H 0.73023 0.94430 0.55449
 C697 C 0.25208 0.44054 0.09046
 C698 C 0.26011 0.39993 0.08479
 H699 H 0.25579 0.46038 0.06476
 H700 H 0.25271 0.37909 0.10893
 C701 C -0.10170 0.31666 0.39112
 C702 C -0.06386 0.31078 0.40934
 H703 H -0.10724 0.30849 0.35744
 H704 H -0.05748 0.31723 0.44305
 C705 C 0.38530 0.80743 0.88961
 C706 C 0.41808 0.79380 0.91117
 H707 H 0.38567 0.80774 0.85560
 H708 H 0.41914 0.79548 0.94535
 C709 C 1.11394 0.79581 0.05704
 C710 C 1.07434 0.78367 0.04266
 H711 H 1.12335 0.79049 0.08935
 H712 H 1.06319 0.78793 0.01069
 C713 C 0.61755 0.26825 0.53840
 C714 C 0.57608 0.27215 0.54004
 H715 H 0.63311 0.24683 0.55754
 H716 H 0.56113 0.29356 0.52025
 C717 C 0.41055 0.21811 0.54470
 C718 C 0.43544 0.20722 0.57679
 H719 H 0.42230 0.24160 0.52477
 H720 H 0.42267 0.18699 0.59931
 C721 C 0.90707 0.72408 0.03807
 C722 C 0.93030 0.71816 0.07318
 H723 H 0.92076 0.74169 0.01397
 H724 H 0.91697 0.70002 0.09703
 C725 C 0.59925 0.73721 0.90775
 C726 C 0.56098 0.74003 0.92211
 H727 H 0.60764 0.75221 0.87978
 H728 H 0.55446 0.72837 0.95230
 C729 C 0.09035 0.25038 0.44069
 C730 C 0.08261 0.25825 0.40034
 H731 H 0.06710 0.25666 0.46333
 H732 H 0.10454 0.24942 0.37709
 C733 C 0.58714 0.14853 0.65024
 C734 C 0.54908 0.16409 0.64734
 H735 H 0.61324 0.16524 0.63707
 H736 H 0.52308 0.14992 0.66278
 C737 C 1.08272 0.66974 0.15705
 C738 C 1.04317 0.68020 0.14956
 H739 H 1.10823 0.69022 0.14746
 H740 H 1.01688 0.66268 0.16146
 C741 C 1.00192 0.85549 0.17601
 C742 C 0.98814 0.81502 0.16638
 H743 H 1.03247 0.86667 0.16664
 H744 H 0.95947 0.80253 0.17874
 C745 C 0.50995 0.34223 0.67802
 C746 C 0.49767 0.30119 0.66948
 H747 H 0.53908 0.35473 0.66654
 H748 H 0.47041 0.28795 0.68377
 C749 C 0.46352 0.64943 0.83947
 C750 C 0.48093 0.68187 0.82072
 H751 H 0.45098 0.65607 0.87009
 H752 H 0.49716 0.67704 0.79203
 C753 C -0.03187 0.16421 0.33038
 C754 C -0.01349 0.19630 0.31175
 H755 H -0.04195 0.17063 0.36207
 H756 H 0.00030 0.19138 0.28169
 C757 C 0.02683 0.37806 0.29039
 C758 C 0.03908 0.34022 0.29948
 H759 H -0.00284 0.38833 0.30038
 H760 H 0.06906 0.33039 0.28965
 C761 C 0.51874 0.86227 0.80046
 C762 C 0.53167 0.82559 0.81238
 H763 H 0.48876 0.87275 0.80926
 H764 H 0.56204 0.81573 0.80380
 C765 C 0.65496 0.58728 0.15658
 C766 C 0.65266 0.54803 0.17378
 H767 H 0.64264 0.61333 0.17461
 H768 H 0.66983 0.52267 0.16055
 C769 C 0.15796 1.08203 0.66309
 C770 C 0.14749 1.04285 0.67292
 H771 H 0.15148 1.10837 0.68477
 H772 H 0.15712 1.01596 0.65399
 C773 C 0.17561 1.00652 0.84807
 C774 C 0.16534 0.99199 0.80565
 H775 H 0.16908 1.03851 0.85808
 H776 H 0.18004 0.96525 0.79154
 C777 C 0.68313 0.50487 0.34487
 C778 C 0.66927 0.48984 0.30558
 H779 H 0.67984 0.53750 0.35536
 H780 H 0.67594 0.45837 0.29393
 C781 C 0.80206 0.43903 0.66351
 C782 C 0.81730 0.47586 0.68354
 H783 H 0.80287 0.41106 0.68054
 H784 H 0.81599 0.50474 0.66819
 C785 C 0.33219 -0.03914 0.15200
 C786 C 0.31542 -0.02012 0.18551
 H787 H 0.36256 -0.05190 0.15657
 H788 H 0.28720 -0.00359 0.18161
 C789 C 0.27985 0.01290 0.36343
 C790 C 0.29365 0.02712 0.32777
 H791 H 0.28762 -0.01772 0.37227
 H792 H 0.28616 0.05796 0.31925
 C793 C 0.79497 0.51502 0.86287
 C794 C 0.80768 0.52893 0.82657
 H795 H 0.80334 0.48481 0.87224
 H796 H 0.79931 0.55940 0.81769
 C797 C 0.15575 0.64708 0.58893
 C798 C 0.17289 0.64100 0.55144
 H799 H 0.17184 0.63658 0.61653
 H800 H 0.15882 0.65333 0.52379
 C801 C 0.66276 0.16345 1.08210
 C802 C 0.67289 0.15346 1.04243
 H803 H 0.68442 0.15750 1.10803
 H804 H 0.65397 0.16272 1.01595
 C805 C 0.84900 0.18696 1.00659
 C806 C 0.80667 0.17686 0.99284
 H807 H 0.85903 0.17932 1.03797
 H808 H 0.79276 0.19202 0.96688
 C809 C 0.34716 0.67652 0.51015
 C810 C 0.30860 0.66005 0.49605
 H811 H 0.35808 0.67409 0.54262
 H812 H 0.29648 0.66581 0.46474
 C813 C 0.66125 0.80407 0.43479
 C814 C 0.68303 0.81661 0.47145
 H815 H 0.67749 0.80514 0.40590
 H816 H 0.66845 0.81464 0.50113
 C817 C 0.15555 0.33392 -0.03165
 C818 C 0.18644 0.31557 -0.01140
 H819 H 0.16311 0.36412 -0.04366
 H820 H 0.17998 0.28732 0.00430
 C821 C 0.35969 0.27031 0.02029
 C822 C 0.32590 0.28721 0.03603
 H823 H 0.36720 0.27466 -0.01184
 H824 H 0.31849 0.28294 0.06825
 C825 C 0.86264 0.79113 0.51031
 C826 C 0.82578 0.80350 0.52367
 H827 H 0.87301 0.79928 0.48012
 H828 H 0.81579 0.79542 0.55410
   
