data_POSCAR
  _audit_creation_date              2014-09-24
  _audit_creation_method            'ToBaCCo'
  _symmetry_space_group_name_H-M    'P1'
  _symmetry_Int_Tables_number       1
  _symmetry_cell_setting            triclinic
  loop_
  _symmetry_equiv_pos_as_xyz
 x,y,z
_cell_length_a 35.7578
_cell_length_b 35.7297
_cell_length_c 35.7252
_cell_angle_alpha 66.753900
_cell_angle_beta 65.612800
_cell_angle_gamma 112.358300
loop_
  _atom_site_label
  _atom_site_type_symbol
  _atom_site_fract_x
  _atom_site_fract_y
  _atom_site_fract_z
O1 O 0.52018 0.47801 0.04583
 O2 O 0.41404 0.45837 0.04091
 O3 O 0.46381 0.42089 0.03335
 O4 O 0.46997 0.51581 0.05336
 O5 O 0.53301 0.58247 -0.03549
 O6 O 0.52580 0.48718 -0.05555
 O7 O 0.47611 0.52545 -0.04772
 O8 O 0.58231 0.54436 -0.04306
 Cu9 Cu 0.46085 0.46167 0.05226
 Cu10 Cu 0.53551 0.54147 -0.05436
 C11 C 0.56944 0.51434 0.00214
 C12 C 0.42674 0.48875 -0.00413
 C13 C 0.49371 0.43769 -0.01444
 C14 C 0.50238 0.56538 0.01234
 O15 O -0.05326 0.51560 0.52597
 O16 O -0.03372 0.41984 0.53264
 O17 O -0.04012 0.45763 0.58184
 O18 O -0.04732 0.47724 0.47660
 O19 O 0.04082 0.54358 0.41297
 O20 O 0.04799 0.52414 0.51821
 O21 O 0.05444 0.48605 0.46872
 O22 O 0.03479 0.58170 0.46186
 Cu23 Cu -0.05245 0.46099 0.53558
 Cu24 Cu 0.05335 0.54045 0.45909
 C25 C -0.01254 0.56514 0.49297
 C26 C 0.01371 0.43658 0.50171
 C27 C 0.00508 0.48769 0.56807
 C28 C -0.00441 0.51363 0.42675
 O29 O 0.51776 0.04118 0.52807
 O30 O 0.53973 0.03968 0.41857
 O31 O 0.47430 0.04202 0.48441
 O32 O 0.58306 0.03922 0.46175
 O33 O 0.52385 -0.04911 0.52156
 O34 O 0.41494 -0.04629 0.54475
 O35 O 0.47977 -0.04864 0.47852
 O36 O 0.45857 -0.04705 0.58765
 Cu37 Cu 0.53459 0.04939 0.46725
 Cu38 Cu 0.46340 -0.05660 0.53904
 C39 C 0.48470 -0.00273 0.57668
 C40 C 0.51324 -0.00476 0.42989
 C41 C 0.42603 -0.00165 0.51828
 C42 C 0.57206 -0.00539 0.48796
 C43 C 0.46022 0.09086 -0.06512
 C44 C 0.46329 0.07040 -0.09070
 C45 C 0.48430 0.04629 -0.08003
 N46 N 0.49444 0.05160 -0.04918
 C47 C 0.47935 0.07842 -0.03963
 C48 C 0.49578 0.02180 -0.10042
 C49 C 0.51252 -0.00677 -0.08469
 C50 C 0.53453 -0.02156 -0.11172
 C51 C 0.54111 -0.05225 -0.08170
 C52 C 0.52350 -0.05504 -0.03730
 N53 N 0.50590 -0.02737 -0.03934
 C54 C 0.52026 -0.08609 0.00560
 C55 C 0.51224 -0.08081 0.04477
 C56 C 0.50583 -0.11262 0.08894
 C57 C 0.50238 -0.09249 0.11481
 C58 C 0.50673 -0.04909 0.08562
 N59 N 0.51340 -0.04171 0.04253
 C60 C 0.50786 -0.01521 0.09698
 C61 C 0.50926 0.02701 0.06829
 C62 C 0.51994 0.06651 0.07187
 C63 C 0.51371 0.09730 0.04146
 C64 C 0.49884 0.07565 0.02041
 N65 N 0.49616 0.03277 0.03702
 C66 C 0.48451 0.09356 -0.00991
 H67 H 0.44551 0.11232 -0.06520
 H68 H 0.45142 0.07301 -0.11441
 H69 H 0.47971 0.00522 0.03302
 H70 H 0.54414 -0.01194 -0.14888
 H71 H 0.55645 -0.07095 -0.09133
 H72 H 0.50454 -0.14634 0.10087
 H73 H 0.49796 -0.10763 0.15055
 H74 H 0.51865 0.13128 0.03628
 H75 H 0.48426 -0.02834 -0.00820
 H76 H 0.53035 0.07232 0.09466
 C77 C -0.04988 0.50362 0.90735
 C78 C -0.08620 0.50239 0.94327
 C79 C -0.07517 0.50189 0.97633
 N80 N -0.03371 0.50198 0.96207
 C81 C -0.01823 0.50284 0.92002
 C82 C -0.10281 0.50252 1.01785
 C83 C -0.09061 0.50370 1.05063
 C84 C -0.11222 0.51240 1.08529
 C85 C -0.08969 0.51238 1.10846
 C86 C -0.05477 0.50370 1.08743
 N87 N -0.05624 0.49759 1.05285
 C88 C -0.02242 0.50258 1.10029
 C89 C 0.01930 0.50199 1.07322
 C90 C 0.05206 0.50288 1.08476
 C91 C 0.08835 0.50410 1.04882
 C92 C 0.07619 0.50290 1.01692
 N93 N 0.03410 0.50182 1.03185
 C94 C 0.10304 0.50111 0.97621
 C95 C 0.09019 0.49906 0.94409
 C96 C 0.11030 0.48842 0.91095
 C97 C 0.08779 0.48847 0.88777
 C98 C 0.05439 0.49911 0.90728
 N99 N 0.05677 0.50640 0.94093
 C100 C 0.02276 0.50118 0.89370
 H101 H -0.04751 0.50459 0.87576
 H102 H -0.11705 0.50215 0.94453
 H103 H 0.03991 0.51959 0.95738
 H104 H -0.14058 0.51913 1.09247
 H105 H -0.09746 0.51907 1.13685
 H106 H 0.05041 0.50293 1.11566
 H107 H 0.11989 0.50540 1.04683
 H108 H 0.09458 0.48056 0.86036
 H109 H -0.03773 0.48636 1.03474
 H110 H 0.13770 0.48047 0.90476
 C111 C 0.09434 -0.04869 0.49573
 C112 C 0.06309 -0.08094 0.49183
 C113 C 0.02967 -0.06995 0.49252
 N114 N 0.03920 -0.03246 0.49741
 C115 C 0.07862 -0.01943 0.49956
 C116 C -0.00737 -0.09347 0.48688
 C117 C -0.04113 -0.08190 0.48685
 C118 C -0.07053 -0.09821 0.47248
 C119 C -0.09681 -0.07832 0.47604
 C120 C -0.08287 -0.05027 0.49248
 N121 N -0.04959 -0.05341 0.49986
 C122 C -0.10085 -0.02248 0.49941
 C123 C -0.07992 0.01375 0.50689
 C124 C -0.09700 0.04156 0.51271
 C125 C -0.06547 0.07413 0.51617
 C126 C -0.03051 0.06476 0.51323
 N127 N -0.03941 0.02793 0.50742
 C128 C 0.00780 0.08963 0.51706
 C129 C 0.04229 0.07886 0.51619
 C130 C 0.07356 0.09720 0.52819
 C131 C 0.09950 0.07695 0.52513
 C132 C 0.08355 0.04670 0.51126
 N133 N 0.04936 0.04886 0.50499
 C134 C 0.10030 0.01761 0.50598
 H135 H 0.12502 -0.04730 0.49589
 H136 H 0.06518 -0.10903 0.48852
 H137 H 0.03448 0.03365 0.49058
 H138 H -0.07215 -0.12124 0.45970
 H139 H -0.12244 -0.08312 0.46648
 H140 H -0.12865 0.03912 0.51396
 H141 H -0.06836 0.10140 0.52062
 H142 H 0.12622 0.08296 0.53336
 H143 H -0.03669 -0.04034 0.51661
 H144 H 0.07651 0.12170 0.53927
 C145 C -0.33310 0.56544 0.95714
 C146 C -0.29262 0.57044 0.95760
 C147 C -0.30593 0.53124 1.00417
 C148 C -0.36056 0.48747 1.05118
 C149 C -0.40115 0.48264 1.05096
 C150 C -0.38783 0.52118 1.00365
 N151 N -0.26332 0.53563 1.00174
 N152 N -0.27238 0.49878 1.04047
 C153 C -0.22945 0.50247 1.03670
 C154 C -0.24189 0.45742 1.07704
 C155 C -0.20067 0.45795 1.07179
 C156 C -0.14643 0.50386 1.02619
 C157 C -0.13388 0.54991 0.98701
 C158 C -0.17509 0.54918 0.99201
 H159 H -0.32151 0.59593 0.92015
 H160 H -0.25067 0.60434 0.92112
 H161 H -0.37185 0.45669 1.08775
 H162 H -0.44292 0.44810 1.08744
 H163 H -0.28359 0.42125 1.11168
 H164 H -0.21096 0.42216 1.10242
 H165 H -0.09216 0.58571 0.95172
 H166 H -0.16445 0.58462 0.96045
 C167 C 0.33118 0.44075 1.04237
 C168 C 0.29085 0.43575 1.04166
 C169 C 0.30425 0.47212 0.99358
 C170 C 0.35873 0.51291 0.94540
 C171 C 0.39924 0.51771 0.94578
 C172 C 0.38609 0.48220 0.99453
 N173 N 0.26198 0.46803 0.99549
 N174 N 0.27138 0.50339 0.95525
 C175 C 0.22865 0.49981 0.95864
 C176 C 0.24147 0.54419 0.91697
 C177 C 0.20052 0.54401 0.92182
 C178 C 0.14620 0.49910 0.96831
 C179 C 0.13321 0.45355 1.00882
 C180 C 0.17414 0.45398 1.00424
 H181 H 0.31918 0.41236 1.08067
 H182 H 0.24897 0.40414 1.07905
 H183 H 0.37004 0.54142 0.90766
 H184 H 0.44089 0.55001 0.90805
 H185 H 0.28328 0.57968 0.88161
 H186 H 0.21113 0.57938 0.89017
 H187 H 0.09142 0.41848 1.04480
 H188 H 0.16321 0.41904 1.03680
 C189 C -0.07134 -0.41619 0.52841
 C190 C -0.07771 -0.38005 0.52887
 C191 C -0.03301 -0.32547 0.49200
 C192 C 0.01839 -0.30710 0.45392
 C193 C 0.02503 -0.34313 0.45377
 C194 C -0.01967 -0.39835 0.49141
 N195 N -0.04018 -0.29000 0.49602
 N196 N -0.00210 -0.23944 0.46041
 C197 C -0.00723 -0.20362 0.46574
 C198 C 0.03544 -0.14840 0.42309
 C199 C 0.03444 -0.11234 0.42904
 C200 C -0.00915 -0.13125 0.47815
 C201 C -0.05288 -0.18645 0.52024
 C202 C -0.05205 -0.22251 0.51410
 H203 H -0.10682 -0.45826 0.55801
 H204 H -0.11753 -0.39473 0.55855
 H205 H 0.05366 -0.26509 0.42516
 H206 H 0.06544 -0.32758 0.42445
 H207 H 0.07019 -0.13341 0.38572
 H208 H 0.06844 -0.06981 0.39616
 H209 H -0.08679 -0.20158 0.55835
 H210 H -0.08545 -0.26504 0.54768
 C211 C 0.07177 0.41668 0.46254
 C212 C 0.07811 0.38038 0.46258
 C213 C 0.03463 0.32522 0.50378
 C214 C -0.01539 0.30655 0.54562
 C215 C -0.02195 0.34276 0.54534
 C216 C 0.02144 0.39824 0.50353
 N217 N 0.04131 0.28924 0.50056
 N218 N 0.00470 0.23867 0.53871
 C219 C 0.00955 0.20237 0.53422
 C220 C -0.03149 0.14732 0.57880
 C221 C -0.03094 0.11050 0.57403
 C222 C 0.01055 0.12847 0.52430
 C223 C 0.05278 0.18361 0.48018
 C224 C 0.05240 0.22043 0.48506
 H225 H 0.10592 0.45916 0.42971
 H226 H 0.11678 0.39527 0.42999
 H227 H -0.04972 0.26407 0.57779
 H228 H -0.06116 0.32732 0.57758
 H229 H -0.06472 0.13294 0.61681
 H230 H -0.06379 0.06802 0.60842
 H231 H 0.08503 0.19798 0.44156
 H232 H 0.08451 0.26278 0.45000
 C233 C 0.44082 -0.05092 -0.32762
 C234 C 0.43568 -0.05090 -0.28670
 C235 C 0.46704 -0.00282 -0.29863
 C236 C 0.50300 0.04583 -0.35208
 C237 C 0.50807 0.04603 -0.39317
 C238 C 0.47759 -0.00246 -0.38168
 N239 N 0.46310 -0.00493 -0.25619
 N240 N 0.49244 0.03665 -0.26420
 C241 C 0.48925 0.03306 -0.22143
 C242 C 0.52592 0.07942 -0.23355
 C243 C 0.52693 0.07627 -0.19371
 C244 C 0.49101 0.02658 -0.14115
 C245 C 0.45296 -0.01957 -0.12844
 C246 C 0.45206 -0.01644 -0.16823
 H247 H 0.41639 -0.08912 -0.31683
 H248 H 0.40786 -0.08864 -0.24563
 H249 H 0.52766 0.08356 -0.36224
 H250 H 0.53669 0.08419 -0.43409
 H251 H 0.55482 0.11777 -0.27436
 H252 H 0.55668 0.11219 -0.20418
 H253 H 0.42501 -0.05822 -0.08807
 H254 H 0.42319 -0.05284 -0.15773
 C255 C 0.56500 0.04105 0.33124
 C256 C 0.57065 0.04119 0.29005
 C257 C 0.53194 -0.00455 0.30295
 C258 C 0.48807 -0.05130 0.35781
 C259 C 0.48274 -0.05175 0.39906
 C260 C 0.52073 -0.00532 0.38622
 N261 N 0.53699 -0.00176 0.25982
 N262 N 0.49915 -0.03867 0.26884
 C263 C 0.50351 -0.03501 0.22563
 C264 C 0.45690 -0.07086 0.23753
 C265 C 0.45865 -0.06528 0.19572
 C266 C 0.50738 -0.02420 0.14148
 C267 C 0.55470 0.01017 0.12965
 C268 C 0.55275 0.00516 0.17140
 H269 H 0.59507 0.07734 0.32007
 H270 H 0.60463 0.07745 0.24793
 H271 H 0.45768 -0.08725 0.36880
 H272 H 0.44818 -0.08805 0.44103
 H273 H 0.41878 -0.10197 0.27912
 H274 H 0.42182 -0.09215 0.20545
 H275 H 0.59262 0.04198 0.08793
 H276 H 0.58939 0.03311 0.16125
 C277 C 0.46082 -0.41530 0.06974
 C278 C 0.46027 -0.37918 0.07590
 C279 C 0.50281 -0.32398 0.03316
 C280 C 0.54651 -0.30513 -0.01594
 C281 C 0.54676 -0.34116 -0.02244
 C282 C 0.50369 -0.39662 0.02020
 N283 N 0.49913 -0.28801 0.03943
 N284 N 0.53882 -0.23791 0.00524
 C285 C 0.53385 -0.20162 0.00968
 C286 C 0.58033 -0.14808 -0.02536
 C287 C 0.57627 -0.11071 -0.02521
 C288 C 0.52544 -0.12642 0.00943
 C289 C 0.47896 -0.18026 0.04555
 C290 C 0.48307 -0.21775 0.04593
 H291 H 0.42697 -0.45777 0.10324
 H292 H 0.42623 -0.39418 0.11382
 H293 H 0.57971 -0.26259 -0.04970
 H294 H 0.58041 -0.32561 -0.06101
 H295 H 0.61964 -0.13513 -0.05356
 H296 H 0.61248 -0.06923 -0.05332
 H297 H 0.43947 -0.19288 0.07244
 H298 H 0.44654 -0.25884 0.07324
 C299 C 0.52915 0.41735 -0.07364
 C300 C 0.52886 0.38097 -0.07986
 C301 C 0.49099 0.32608 -0.03483
 C302 C 0.45254 0.30771 0.01665
 C303 C 0.45293 0.34397 0.02299
 C304 C 0.49160 0.39926 -0.02197
 N305 N 0.49406 0.29016 -0.04172
 N306 N 0.45998 0.23983 -0.00224
 C307 C 0.46396 0.20339 -0.00722
 C308 C 0.42541 0.14887 0.03891
 C309 C 0.43091 0.11275 0.03733
 C310 C 0.47516 0.13079 -0.01062
 C311 C 0.51280 0.18509 -0.05756
 C312 C 0.50729 0.22129 -0.05593
 H313 H 0.55946 0.45967 -0.10906
 H314 H 0.55880 0.39565 -0.11971
 H315 H 0.42288 0.26548 0.05217
 H316 H 0.42332 0.32870 0.06328
 H317 H 0.39197 0.13467 0.07666
 H318 H 0.40167 0.07099 0.07393
 H319 H 0.54734 0.19962 -0.09476
 H320 H 0.53764 0.26329 -0.09210
 C321 C -0.33006 0.04119 0.43807
 C322 C -0.28909 0.04110 0.43257
 C323 C -0.30151 -0.00609 0.46904
 C324 C -0.35557 -0.05393 0.51039
 C325 C -0.39661 -0.05402 0.51567
 C326 C -0.38435 -0.00626 0.48007
 N327 N -0.25884 -0.00361 0.46470
 N328 N -0.26752 -0.04350 0.49951
 C329 C -0.22461 -0.03959 0.49597
 C330 C -0.23738 -0.08225 0.53946
 C331 C -0.19685 -0.07744 0.53978
 C332 C -0.14295 -0.02990 0.49629
 C333 C -0.12973 0.01190 0.45145
 C334 C -0.17029 0.00726 0.45136
 H335 H -0.31925 0.07858 0.40984
 H336 H -0.24758 0.07820 0.40058
 H337 H -0.36616 -0.09096 0.53907
 H338 H -0.43803 -0.09120 0.54844
 H339 H -0.27903 -0.11854 0.57400
 H340 H -0.20762 -0.11007 0.57462
 H341 H -0.08824 0.04875 0.41749
 H342 H -0.15934 0.04069 0.41713
 C343 C 0.32814 -0.04795 0.56824
 C344 C 0.28730 -0.04761 0.57365
 C345 C 0.29995 -0.00032 0.53702
 C346 C 0.35410 0.04735 0.49557
 C347 C 0.39499 0.04719 0.49038
 C348 C 0.38252 -0.00064 0.52614
 N349 N 0.25744 -0.00245 0.54130
 N350 N 0.26650 0.03749 0.50606
 C351 C 0.22382 0.03409 0.50949
 C352 C 0.23697 0.07629 0.46521
 C353 C 0.19654 0.07174 0.46484
 C354 C 0.14237 0.02498 0.50911
 C355 C 0.12883 -0.01622 0.55472
 C356 C 0.16929 -0.01190 0.55482
 H357 H 0.31717 -0.08540 0.59660
 H358 H 0.24572 -0.08459 0.60573
 H359 H 0.36487 0.08445 0.46676
 H360 H 0.43646 0.08427 0.45756
 H361 H 0.27879 0.11193 0.43010
 H362 H 0.20753 0.10389 0.42943
 H363 H 0.08712 -0.05246 0.58926
 H364 H 0.15808 -0.04493 0.58967
 C365 C 0.03865 0.56537 1.32906
 C366 C 0.03743 0.57063 1.28878
 C367 C -0.00890 0.53128 1.30286
 C368 C -0.05491 0.48709 1.35806
 C369 C -0.05393 0.48199 1.39846
 C370 C -0.00684 0.52069 1.38434
 N371 N -0.00709 0.53585 1.26037
 N372 N -0.04548 0.49886 1.27001
 C373 C -0.04211 0.50267 1.22711
 C374 C -0.08156 0.45737 1.24000
 C375 C -0.07619 0.45790 1.19870
 C376 C -0.03140 0.50406 1.14397
 C377 C 0.00672 0.55038 1.13101
 C378 C 0.00162 0.54966 1.17227
 H379 H 0.07544 0.59598 1.31687
 H380 H 0.07314 0.60483 1.24638
 H381 H -0.09124 0.45616 1.36993
 H382 H -0.08961 0.44712 1.44067
 H383 H -0.11543 0.42097 1.28207
 H384 H -0.10596 0.42188 1.20929
 H385 H 0.04139 0.58635 1.08890
 H386 H 0.03247 0.58529 1.16130
 C387 C -0.03831 0.43647 0.66581
 C388 C -0.03725 0.43153 0.70607
 C389 C 0.00916 0.47079 0.69195
 C390 C 0.05543 0.51455 0.63673
 C391 C 0.05460 0.51934 0.59634
 C392 C 0.00741 0.48076 0.61050
 N393 N 0.00719 0.46659 0.73438
 N394 N 0.04583 0.50335 0.72468
 C395 C 0.04222 0.49983 0.76757
 C396 C 0.08241 0.54481 0.75446
 C397 C 0.07704 0.54465 0.79558
 C398 C 0.03146 0.49922 0.85035
 C399 C -0.00751 0.45316 0.86363
 C400 C -0.00237 0.45350 0.82253
 H401 H -0.07518 0.40594 0.67804
 H402 H -0.07315 0.39768 0.74848
 H403 H 0.09183 0.54541 0.62483
 H404 H 0.09047 0.55390 0.55411
 H405 H 0.11695 0.58068 0.71230
 H406 H 0.10749 0.58043 0.78477
 H407 H -0.04278 0.41773 0.90578
 H408 H -0.03382 0.41812 0.83369
   
