data_POSCAR
  _audit_creation_date              2014-09-24
  _audit_creation_method            'ToBaCCo'
  _symmetry_space_group_name_H-M    'P1'
  _symmetry_Int_Tables_number       1
  _symmetry_cell_setting            triclinic
  loop_
  _symmetry_equiv_pos_as_xyz
 x,y,z
_cell_length_a 36.5483
_cell_length_b 44.0896
_cell_length_c 37.6895
_cell_angle_alpha 90.026600
_cell_angle_beta 90.118500
_cell_angle_gamma 85.618800
loop_
  _atom_site_label
  _atom_site_type_symbol
  _atom_site_fract_x
  _atom_site_fract_y
  _atom_site_fract_z
C1 C 1.22651 0.22796 0.20644
 C2 C 1.25030 0.24847 0.18508
 C3 C 1.27104 0.26592 0.20581
 C4 C 1.26623 0.26124 0.24602
 C5 C 1.25324 0.20940 0.23078
 C6 C 1.27394 0.22674 0.25153
 C7 C 1.20381 0.24950 0.23127
 C8 C 1.22462 0.26688 0.25195
 H9 H 1.24982 0.24987 0.15630
 H10 H 1.28323 0.27539 0.26286
 H11 H 1.25449 0.18473 0.23263
 H12 H 1.17402 0.25086 0.23243
 C13 C 0.72746 -0.27287 0.20511
 C14 C 0.75108 -0.25230 0.18371
 C15 C 0.77163 -0.23471 0.20443
 C16 C 0.76682 -0.23930 0.24461
 C17 C 0.75428 -0.29127 0.22954
 C18 C 0.77476 -0.27372 0.25025
 C19 C 0.70456 -0.25141 0.22985
 C20 C 0.72522 -0.23390 0.25050
 H21 H 0.75058 -0.25090 0.15493
 H22 H 0.78369 -0.22500 0.26139
 H23 H 0.75545 -0.31591 0.23175
 H24 H 0.67479 -0.25040 0.23123
 C25 C 0.72795 0.22805 -0.29462
 C26 C 0.75021 0.24777 -0.31511
 C27 C 0.77193 0.26611 -0.29318
 C28 C 0.76725 0.26121 -0.25503
 C29 C 0.75354 0.21017 -0.27181
 C30 C 0.77520 0.22845 -0.24993
 C31 C 0.70594 0.24817 -0.27090
 C32 C 0.72771 0.26647 -0.24905
 H33 H 0.74933 0.24961 -0.34389
 H34 H 0.78422 0.27538 -0.23807
 H35 H 0.75461 0.18550 -0.26965
 H36 H 0.67611 0.24954 -0.26987
 C37 C 1.22756 -0.27176 -0.29425
 C38 C 1.25150 -0.25133 -0.31550
 C39 C 1.27209 -0.23391 -0.29462
 C40 C 1.26698 -0.23847 -0.25448
 C41 C 1.25408 -0.29032 -0.26971
 C42 C 1.27462 -0.27290 -0.24888
 C43 C 1.20469 -0.25019 -0.26963
 C44 C 1.22538 -0.23283 -0.24885
 H45 H 1.25130 -0.25001 -0.34429
 H46 H 1.28387 -0.22428 -0.23757
 H47 H 1.25529 -0.31498 -0.26776
 H48 H 1.17490 -0.24892 -0.26852
 C49 C 0.22867 0.22769 0.79554
 C50 C 0.25178 0.24662 0.81593
 C51 C 0.27348 0.26488 0.79423
 C52 C 0.26819 0.26093 0.75617
 C53 C 0.20573 0.24956 0.77111
 C54 C 0.22651 0.26695 0.75046
 C55 C 0.25463 0.20903 0.77052
 C56 C 0.27528 0.22645 0.74982
 H57 H 0.25132 0.24807 0.84472
 H58 H 0.28514 0.27507 0.73931
 H59 H 0.17593 0.25095 0.76998
 H60 H 0.25546 0.18440 0.76826
 C61 C 0.72715 0.72759 0.79439
 C62 C 0.74935 0.74729 0.81510
 C63 C 0.77123 0.76560 0.79338
 C64 C 0.76674 0.76069 0.75518
 C65 C 0.70531 0.74773 0.77048
 C66 C 0.72723 0.76600 0.74885
 C67 C 0.75284 0.70968 0.77178
 C68 C 0.77466 0.72791 0.75012
 H69 H 0.74832 0.74913 0.84387
 H70 H 0.78383 0.77483 0.73838
 H71 H 0.67548 0.74919 0.76925
 H72 H 0.75392 0.68500 0.76963
 C73 C 0.72747 0.22748 0.29462
 C74 C 0.75115 0.24804 0.31609
 C75 C 0.77167 0.26560 0.29543
 C76 C 0.76678 0.26102 0.25524
 C77 C 0.70453 0.24895 0.26985
 C78 C 0.72518 0.26644 0.24926
 C79 C 0.75422 0.20907 0.27024
 C80 C 0.77468 0.22661 0.24958
 H81 H 0.75072 0.24943 0.34488
 H82 H 0.78363 0.27531 0.23850
 H83 H 0.67476 0.24996 0.26839
 H84 H 0.75537 0.18443 0.26800
 C85 C 0.22700 0.72729 0.29361
 C86 C 0.25096 0.74783 0.31486
 C87 C 0.27150 0.76530 0.29405
 C88 C 0.26635 0.76059 0.25386
 C89 C 0.20407 0.74881 0.26887
 C90 C 0.22468 0.76621 0.24809
 C91 C 0.25354 0.70874 0.26916
 C92 C 0.27404 0.72608 0.24831
 H93 H 0.25064 0.74930 0.34364
 H94 H 0.28319 0.77474 0.23695
 H95 H 0.17427 0.75018 0.26787
 H96 H 0.25475 0.68408 0.26728
 N97 N 1.06152 0.02595 0.03694
 N98 N 1.08525 0.04666 0.04187
 N99 N 1.03519 -0.03572 0.06196
 N100 N 1.04276 -0.05609 0.08712
 N101 N 1.06068 -0.03773 0.03736
 N102 N 1.08626 -0.05951 0.04513
 N103 N 1.03602 0.02804 0.06148
 N104 N 1.04167 0.05028 0.08387
 C105 C 1.07236 0.06164 0.07108
 C106 C 1.07432 -0.07101 0.07588
 N107 N 0.93048 -0.02807 0.03669
 N108 N 0.90613 -0.04812 0.04260
 N109 N 0.95709 0.03380 0.06104
 N110 N 0.95190 0.05629 0.08400
 N111 N 0.93154 0.03571 0.03641
 N112 N 0.90818 0.05961 0.04197
 N113 N 0.95601 -0.02986 0.06137
 N114 N 0.94976 -0.05114 0.08473
 Mn115 Mn 0.99604 -0.00095 0.06183
 C116 C 0.91875 -0.06237 0.07248
 C117 C 0.92155 0.07225 0.07155
 N118 N 1.06075 -0.03790 -0.03914
 N119 N 1.08621 -0.05989 -0.04632
 N120 N 1.03631 0.02768 -0.06399
 N121 N 1.04195 0.04998 -0.08623
 N122 N 1.06164 0.02569 -0.03917
 N123 N 1.08522 0.04654 -0.04375
 N124 N 1.03544 -0.03603 -0.06402
 N125 N 1.04300 -0.05672 -0.08880
 Mn126 Mn 1.06148 -0.00607 -0.00102
 C127 C 1.07435 -0.07165 -0.07699
 C128 C 1.07245 0.06148 -0.07305
 N129 N 0.93163 0.03553 -0.04016
 N130 N 0.90818 0.05930 -0.04616
 N131 N 0.95621 -0.03027 -0.06452
 N132 N 0.94980 -0.05148 -0.08801
 N133 N 0.93056 -0.02833 -0.04006
 N134 N 0.90599 -0.04818 -0.04626
 N135 N 0.95731 0.03350 -0.06457
 N136 N 0.95208 0.05579 -0.08782
 Mn137 Mn 0.93060 0.00373 -0.00177
 Mn138 Mn 0.99630 -0.00130 -0.06466
 Cl139 Cl 0.99608 -0.00123 -0.00141
 C140 C 0.92157 0.07176 -0.07579
 C141 C 0.91858 -0.06253 -0.07608
 N142 N 1.06240 0.52537 0.54015
 N143 N 1.08578 0.54639 0.54466
 N144 N 1.03606 0.46368 0.56476
 N145 N 1.04374 0.44312 0.58967
 N146 N 1.06139 0.46179 0.53999
 N147 N 1.08695 0.43992 0.54739
 N148 N 1.03705 0.52737 0.56486
 N149 N 1.04247 0.54985 0.58695
 C150 C 1.07288 0.56141 0.57382
 C151 C 1.07516 0.42823 0.57807
 N152 N 0.93117 0.47167 0.54035
 N153 N 0.90651 0.45190 0.54644
 N154 N 0.95808 0.53338 0.56518
 N155 N 0.95278 0.55555 0.58859
 N156 N 0.93241 0.53551 0.54066
 N157 N 0.90891 0.55922 0.54675
 N158 N 0.95683 0.46964 0.56490
 N159 N 0.95035 0.44845 0.58833
 Mn160 Mn 0.99700 0.49850 0.56530
 C161 C 0.91907 0.43751 0.57627
 C162 C 0.92226 0.57155 0.57653
 N163 N 1.06128 0.46210 0.46346
 N164 N 1.08682 0.44031 0.45571
 N165 N 1.03683 0.52796 0.43942
 N166 N 1.04264 0.55012 0.41703
 N167 N 1.06234 0.52577 0.46404
 N168 N 1.08623 0.54635 0.45917
 N169 N 1.03580 0.46422 0.43876
 N170 N 1.04333 0.44390 0.41354
 Mn171 Mn 1.06218 0.49369 0.50193
 C172 C 1.07485 0.42891 0.42487
 C173 C 1.07343 0.56136 0.42990
 N174 N 0.93233 0.53581 0.46407
 N175 N 0.90893 0.55967 0.45838
 N176 N 0.95663 0.47024 0.43903
 N177 N 0.95035 0.44898 0.41562
 N178 N 0.93110 0.47204 0.46361
 N179 N 0.90672 0.45202 0.45757
 N180 N 0.95789 0.53389 0.43955
 N181 N 0.95265 0.55634 0.41653
 Mn182 Mn 0.93130 0.50378 0.50216
 Mn183 Mn 0.99674 0.49906 0.43882
 Cl184 Cl 0.99678 0.49868 0.50206
 C185 C 0.92229 0.57229 0.42885
 C186 C 0.91932 0.43778 0.42772
 N187 N 0.56542 0.02518 0.53877
 N188 N 0.58909 0.04601 0.54326
 N189 N 0.53916 -0.03629 0.56451
 N190 N 0.54682 -0.05652 0.58981
 N191 N 0.56452 -0.03850 0.53979
 N192 N 0.59009 -0.06027 0.54761
 N193 N 0.54003 0.02747 0.56341
 N194 N 0.54569 0.04996 0.58543
 C195 C 0.57628 0.06127 0.57233
 C196 C 0.57829 -0.07155 0.57852
 N197 N 0.43432 -0.02870 0.53965
 N198 N 0.41004 -0.04876 0.54573
 N199 N 0.46106 0.03330 0.56336
 N200 N 0.45573 0.05578 0.58634
 N201 N 0.43540 0.03506 0.53882
 N202 N 0.41186 0.05882 0.54446
 N203 N 0.45994 -0.03036 0.56425
 N204 N 0.45381 -0.05158 0.58773
 Mn205 Mn 0.50001 -0.00148 0.56425
 C206 C 0.42278 -0.06288 0.57563
 C207 C 0.42522 0.07157 0.57397
 N208 N 0.56422 -0.03920 0.46324
 N209 N 0.58963 -0.06123 0.45603
 N210 N 0.53966 0.02623 0.43798
 N211 N 0.54496 0.04855 0.41567
 N212 N 0.56515 0.02440 0.46265
 N213 N 0.58851 0.04539 0.45789
 N214 N 0.53874 -0.03745 0.43852
 N215 N 0.54612 -0.05827 0.41385
 Mn216 Mn 0.56517 -0.00710 0.50110
 C217 C 0.57755 -0.07314 0.42553
 C218 C 0.57544 0.06020 0.42861
 N219 N 0.43516 0.03437 0.46225
 N220 N 0.41161 0.05804 0.45605
 N221 N 0.45956 -0.03159 0.43838
 N222 N 0.45294 -0.05281 0.41499
 N223 N 0.43401 -0.02947 0.46293
 N224 N 0.40927 -0.04922 0.45687
 N225 N 0.46071 0.03214 0.43773
 N226 N 0.45530 0.05420 0.41420
 Mn227 Mn 0.43428 0.00283 0.50092
 Mn228 Mn 0.49966 -0.00269 0.43779
 Cl229 Cl 0.49975 -0.00219 0.50102
 C230 C 0.42483 0.07024 0.42619
 C231 C 0.42170 -0.06370 0.42708
 N232 N 0.56430 0.52440 0.03629
 N233 N 0.58768 0.54539 0.04106
 N234 N 0.53831 0.46251 0.06068
 N235 N 0.54584 0.44175 0.08539
 N236 N 0.56370 0.46077 0.03597
 N237 N 0.58919 0.43879 0.04322
 N238 N 0.53892 0.52622 0.06096
 N239 N 0.54431 0.54854 0.08329
 C240 C 0.57472 0.56021 0.07034
 C241 C 0.57725 0.42691 0.07374
 N242 N 0.43349 0.47001 0.03627
 N243 N 0.40887 0.45022 0.04243
 N244 N 0.45996 0.53184 0.06121
 N245 N 0.45446 0.55390 0.08473
 N246 N 0.43429 0.53388 0.03670
 N247 N 0.41056 0.55741 0.04291
 N248 N 0.45914 0.46809 0.06082
 N249 N 0.45270 0.44696 0.08433
 Mn250 Mn 0.49908 0.49715 0.06128
 C251 C 0.42147 0.43592 0.07230
 C252 C 0.42380 0.56974 0.07275
 N253 N 0.56368 0.46116 -0.04056
 N254 N 0.58936 0.43948 -0.04828
 N255 N 0.53878 0.52696 -0.06452
 N256 N 0.54432 0.54934 -0.08669
 N257 N 0.56426 0.52487 -0.03985
 N258 N 0.58784 0.54573 -0.04448
 N259 N 0.53822 0.46316 -0.06529
 N260 N 0.54592 0.44286 -0.09050
 Mn261 Mn 0.56432 0.49273 -0.00202
 C262 C 0.57752 0.42802 -0.07914
 C263 C 0.57492 0.56080 -0.07366
 N264 N 0.43428 0.53424 -0.03986
 N265 N 0.41098 0.55822 -0.04523
 N266 N 0.45896 0.46877 -0.06507
 N267 N 0.45272 0.44752 -0.08854
 N268 N 0.43344 0.47045 -0.04047
 N269 N 0.40913 0.45038 -0.04655
 N270 N 0.45981 0.53247 -0.06441
 N271 N 0.45465 0.55515 -0.08714
 Mn272 Mn 0.43343 0.50216 -0.00186
 Mn273 Mn 0.49890 0.49782 -0.06520
 Cl274 Cl 0.49891 0.49739 -0.00195
 C275 C 0.42434 0.57104 -0.07461
 C276 C 0.42174 0.43621 -0.07645
 C277 C 1.16431 0.17133 0.14964
 N278 N 1.17778 0.15664 0.12029
 N279 N 1.15871 0.13597 0.10427
 C280 C 1.12563 0.12933 0.11717
 N281 N 1.11212 0.14408 0.14647
 N282 N 1.13119 0.16475 0.16248
 C283 C 1.18584 0.19210 0.16823
 C284 C 1.20414 0.20876 0.18484
 C285 C 1.10601 0.10601 0.10092
 C286 C 1.09023 0.08596 0.08736
 C287 C 1.16491 0.67203 0.64938
 N288 N 1.17826 0.65675 0.62039
 N289 N 1.15892 0.63601 0.60488
 C290 C 1.12573 0.62992 0.61795
 N291 N 1.11233 0.64527 0.64688
 N292 N 1.13167 0.66601 0.66239
 C293 C 1.18677 0.69264 0.66763
 C294 C 1.20525 0.70916 0.68413
 C295 C 1.10604 0.60640 0.60248
 C296 C 1.09036 0.58608 0.58952
 C297 C 0.66743 0.17225 0.64928
 N298 N 0.63354 0.16668 0.66105
 N299 N 0.61467 0.14577 0.64524
 C300 C 0.62916 0.12975 0.61722
 N301 N 0.66301 0.13538 0.60539
 N302 N 0.68188 0.15629 0.62121
 C303 C 0.68873 0.19315 0.66793
 C304 C 0.70689 0.20984 0.68470
 C305 C 0.60973 0.10615 0.60132
 C306 C 0.59406 0.08586 0.58812
 C307 C 0.66558 0.67050 0.14832
 N308 N 0.63262 0.66371 0.16133
 N309 N 0.61363 0.64298 0.14536
 C310 C 0.62709 0.62842 0.11593
 N311 N 0.66000 0.63527 0.10286
 N312 N 0.67899 0.65600 0.11884
 C313 C 0.68704 0.69122 0.16691
 C314 C 0.70528 0.70787 0.18354
 C315 C 0.60772 0.60496 0.09984
 C316 C 0.59219 0.58474 0.08643
 C317 C 0.83088 -0.17052 0.15862
 N318 N 0.82489 -0.14075 0.16750
 N319 N 0.84245 -0.11967 0.15057
 C320 C 0.86645 -0.12771 0.12418
 N321 N 0.87247 -0.15749 0.11532
 N322 N 0.85490 -0.17857 0.13225
 C323 C 0.81084 -0.19309 0.17579
 C324 C 0.79337 -0.21205 0.18940
 C325 C 0.88495 -0.10493 0.10566
 C326 C 0.90038 -0.08562 0.09030
 C327 C 0.82957 0.32996 0.66242
 N328 N 0.81839 0.35989 0.66560
 N329 N 0.83619 0.38090 0.64876
 C330 C 0.86567 0.37264 0.62813
 N331 N 0.87687 0.34271 0.62498
 N332 N 0.85907 0.32170 0.64181
 C333 C 0.80951 0.30722 0.67942
 C334 C 0.79216 0.28801 0.69282
 C335 C 0.88458 0.39530 0.60964
 C336 C 0.90034 0.41445 0.59424
 C337 C 0.33325 -0.17059 0.66055
 N338 N 0.35527 -0.17838 0.63256
 N339 N 0.37343 -0.15744 0.61606
 C340 C 0.37005 -0.12806 0.62702
 N341 N 0.34806 -0.12027 0.65503
 N342 N 0.32990 -0.14122 0.67153
 C343 C 0.31250 -0.19289 0.67729
 C344 C 0.29445 -0.21159 0.69059
 C345 C 0.38891 -0.10536 0.60879
 C346 C 0.40448 -0.08609 0.59353
 C347 C 0.33139 0.32945 0.15964
 N348 N 0.35695 0.32080 0.13483
 N349 N 0.37494 0.34153 0.11772
 C350 C 0.36787 0.37157 0.12482
 N351 N 0.34234 0.38022 0.14966
 N352 N 0.32434 0.35949 0.16676
 C353 C 0.31092 0.30716 0.17700
 C354 C 0.29314 0.28841 0.19072
 C355 C 0.38689 0.39399 0.10605
 C356 C 0.40270 0.41300 0.09045
 C357 C 0.83562 0.18344 -0.17555
 N358 N 0.81857 0.17289 -0.14662
 N359 N 0.83618 0.15268 -0.12510
 C360 C 0.87136 0.14230 -0.13189
 N361 N 0.88848 0.15297 -0.16071
 N362 N 0.87087 0.17318 -0.18224
 C363 C 0.81514 0.20197 -0.20117
 C364 C 0.79694 0.21553 -0.22364
 C365 C 0.88916 0.11836 -0.11077
 C366 C 0.90393 0.09744 -0.09418
 C367 C 0.83641 0.68199 0.32696
 N368 N 0.87184 0.67196 0.32088
 N369 N 0.88944 0.65237 0.34312
 C370 C 0.87212 0.64215 0.37206
 N371 N 0.83675 0.65231 0.37824
 N372 N 0.81916 0.67191 0.35601
 C373 C 0.81604 0.69982 0.30075
 C374 C 0.79787 0.71296 0.27799
 C375 C 0.88981 0.61861 0.39370
 C376 C 0.90456 0.59788 0.41052
 C377 C 0.33742 0.18082 0.32588
 N378 N 0.37210 0.16970 0.31808
 N379 N 0.39008 0.14967 0.33956
 C380 C 0.37391 0.14005 0.36946
 N381 N 0.33930 0.15127 0.37736
 N382 N 0.32132 0.17130 0.35587
 C383 C 0.31642 0.19932 0.30062
 C384 C 0.29771 0.21299 0.27860
 C385 C 0.39201 0.11636 0.39073
 C386 C 0.40699 0.09567 0.40752
 C387 C 0.33760 0.68224 -0.17363
 N388 N 0.32101 0.67215 -0.14421
 N389 N 0.33896 0.65225 -0.12257
 C390 C 0.37401 0.64179 -0.12976
 N391 N 0.39067 0.65202 -0.15906
 N392 N 0.37272 0.67191 -0.18070
 C393 C 0.31671 0.70030 -0.19926
 C394 C 0.29813 0.71360 -0.22158
 C395 C 0.39192 0.61792 -0.10878
 C396 C 0.40672 0.59692 -0.09247
 C397 C 1.17445 -0.17347 -0.17877
 N398 N 1.14730 -0.18313 -0.15812
 N399 N 1.12791 -0.16366 -0.13711
 C400 C 1.13507 -0.13395 -0.13621
 N401 N 1.16226 -0.12430 -0.15680
 N402 N 1.18165 -0.14377 -0.17781
 C403 C 1.19383 -0.19409 -0.20277
 C404 C 1.20895 -0.21159 -0.22351
 C405 C 1.11340 -0.11271 -0.11468
 C406 C 1.09533 -0.09433 -0.09717
 C407 C 1.17398 0.32705 0.32170
 N408 N 1.17918 0.35716 0.32040
 N409 N 1.16000 0.37673 0.34148
 C410 C 1.13499 0.36681 0.36444
 N411 N 1.12982 0.33670 0.36578
 N412 N 1.14901 0.31712 0.34470
 C413 C 1.19321 0.30615 0.29777
 C414 C 1.20826 0.28841 0.27716
 C415 C 1.11360 0.38808 0.38632
 C416 C 1.09572 0.40640 0.40419
 C417 C 0.67510 -0.17512 0.32181
 N418 N 0.64601 -0.18402 0.34035
 N419 N 0.62727 -0.16461 0.36194
 C420 C 0.63707 -0.13573 0.36560
 N421 N 0.66621 -0.12686 0.34712
 N422 N 0.68495 -0.14626 0.32552
 C423 C 0.69401 -0.19557 0.29728
 C424 C 0.70887 -0.21289 0.27617
 C425 C 0.61601 -0.11441 0.38755
 C426 C 0.59831 -0.09594 0.40529
 C427 C 0.67771 0.32599 -0.18130
 N428 N 0.65423 0.31596 -0.15688
 N429 N 0.63481 0.33561 -0.13608
 C430 C 0.63821 0.36591 -0.13915
 N431 N 0.66173 0.37594 -0.16353
 N432 N 0.68114 0.35629 -0.18433
 C433 C 0.69707 0.30491 -0.20496
 C434 C 0.71216 0.28701 -0.22538
 C435 C 0.61660 0.38722 -0.11748
 C436 C 0.59855 0.40554 -0.09974
 C437 C 1.16573 0.17133 -0.14864
 N438 N 1.17891 0.15601 -0.11958
 N439 N 1.15941 0.13536 -0.10419
 C440 C 1.12619 0.12939 -0.11745
 N441 N 1.11295 0.14477 -0.14646
 N442 N 1.13246 0.16542 -0.16185
 C443 C 1.18770 0.19197 -0.16668
 C444 C 1.20626 0.20855 -0.18299
 C445 C 1.10620 0.10604 -0.10196
 C446 C 1.09025 0.08592 -0.08892
 C447 C 1.16542 0.67061 0.35082
 N448 N 1.13167 0.66472 0.33880
 N449 N 1.11270 0.64410 0.35495
 C450 C 1.12694 0.62871 0.38357
 N451 N 1.16065 0.63465 0.39563
 N452 N 1.17962 0.65527 0.37948
 C453 C 1.18673 0.69138 0.33205
 C454 C 1.20485 0.70806 0.31533
 C455 C 1.10733 0.60549 0.39997
 C456 C 1.09147 0.58555 0.41360
 C457 C 0.66574 0.17082 0.35117
 N458 N 0.63287 0.16388 0.33795
 N459 N 0.61397 0.14308 0.35382
 C460 C 0.62744 0.12860 0.38333
 N461 N 0.66026 0.13561 0.39661
 N462 N 0.67916 0.15641 0.38074
 C463 C 0.68713 0.19158 0.33268
 C464 C 0.70532 0.20823 0.31613
 C465 C 0.60819 0.10507 0.39929
 C466 C 0.59278 0.08479 0.41261
 C467 C 0.66619 0.67173 -0.15028
 N468 N 0.68000 0.65645 -0.12142
 N469 N 0.66105 0.63553 -0.10579
 C470 C 0.62776 0.62922 -0.11860
 N471 N 0.61391 0.64455 -0.14742
 N472 N 0.63286 0.66547 -0.16304
 C473 C 0.68765 0.69267 -0.16864
 C474 C 0.70594 0.70938 -0.18517
 C475 C 0.60827 0.60563 -0.10280
 C476 C 0.59260 0.58536 -0.08959
 C477 C 0.82898 -0.17052 -0.16197
 N478 N 0.85748 -0.17876 -0.14000
 N479 N 0.87535 -0.15768 -0.12326
 C480 C 0.86524 -0.12769 -0.12789
 N481 N 0.83676 -0.11945 -0.14989
 N482 N 0.81888 -0.14053 -0.16662
 C483 C 0.80884 -0.19330 -0.17897
 C484 C 0.79147 -0.21252 -0.19244
 C485 C 0.88418 -0.10492 -0.10948
 C486 C 0.89993 -0.08569 -0.09410
 C487 C 0.83118 0.32969 0.34135
 N488 N 0.82543 0.35944 0.33227
 N489 N 0.84307 0.38051 0.34923
 C490 C 0.86691 0.37248 0.37584
 N491 N 0.87269 0.34273 0.38490
 N492 N 0.85504 0.32166 0.36794
 C493 C 0.81105 0.30716 0.32415
 C494 C 0.79350 0.28823 0.31051
 C495 C 0.88547 0.39524 0.39441
 C496 C 0.90093 0.41454 0.40982
 C497 C 0.33156 -0.17070 0.34009
 N498 N 0.32364 -0.14065 0.33359
 N499 N 0.34157 -0.11980 0.35067
 C500 C 0.36791 -0.12833 0.37486
 N501 N 0.37586 -0.15838 0.38133
 N502 N 0.35793 -0.17923 0.36426
 C503 C 0.31120 -0.19315 0.32276
 C504 C 0.29351 -0.21204 0.30907
 C505 C 0.38694 -0.10579 0.39355
 C506 C 0.40280 -0.08670 0.40907
 C507 C 0.33223 0.32797 -0.16132
 N508 N 0.35644 0.32000 -0.13500
 N509 N 0.37448 0.34109 -0.11849
 C510 C 0.36880 0.37080 -0.12777
 N511 N 0.34462 0.37876 -0.15412
 N512 N 0.32658 0.35768 -0.17062
 C513 C 0.31179 0.30539 -0.17814
 C514 C 0.29410 0.28641 -0.19154
 C515 C 0.38770 0.39361 -0.10957
 C516 C 0.40333 0.41293 -0.09434
 C517 C 1.17353 -0.17336 0.17874
 N518 N 1.14808 -0.18310 0.15602
 N519 N 1.12886 -0.16343 0.13503
 C520 C 1.13447 -0.13339 0.13617
 N521 N 1.15996 -0.12365 0.15885
 N522 N 1.17918 -0.14333 0.17984
 C523 C 1.19289 -0.19437 0.20254
 C524 C 1.20808 -0.21219 0.22303
 C525 C 1.11308 -0.11200 0.11436
 C526 C 1.09521 -0.09360 0.09652
 C527 C 1.17564 0.32673 0.68051
 N528 N 1.15027 0.31669 0.65792
 N529 N 1.13081 0.33616 0.63687
 C530 C 1.13611 0.36625 0.63787
 N531 N 1.16153 0.37627 0.66042
 N532 N 1.18098 0.35681 0.68146
 C533 C 1.19503 0.30600 0.70449
 C534 C 1.21015 0.28838 0.72518
 C535 C 1.11439 0.38740 0.61616
 C536 C 1.09626 0.40569 0.59847
 C537 C 0.67769 -0.17411 0.68105
 N538 N 0.65448 -0.18400 0.65620
 N539 N 0.63524 -0.16423 0.63534
 C540 C 0.63856 -0.13394 0.63877
 N541 N 0.66182 -0.12405 0.66359
 N542 N 0.68105 -0.14382 0.68444
 C543 C 0.69688 -0.19533 0.70475
 C544 C 0.71182 -0.21333 0.72518
 C545 C 0.61712 -0.11251 0.61702
 C546 C 0.59921 -0.09411 0.59921
 C547 C 0.67504 0.32511 0.17773
 N548 N 0.64603 0.31615 0.15899
 N549 N 0.62727 0.33552 0.13733
 C550 C 0.63698 0.36443 0.13378
 N551 N 0.66604 0.37337 0.15246
 N552 N 0.68480 0.35400 0.17413
 C553 C 0.69395 0.30470 0.20235
 C554 C 0.70882 0.28741 0.22353
 C555 C 0.61587 0.38571 0.11178
 C556 C 0.59811 0.40416 0.09400
 C557 C 0.83610 0.18229 0.17297
 N558 N 0.81874 0.17213 0.14394
 N559 N 0.83625 0.15247 0.12177
 C560 C 0.87164 0.14234 0.12799
 N561 N 0.88907 0.15264 0.15690
 N562 N 0.87155 0.17228 0.17908
 C563 C 0.81581 0.20013 0.19915
 C564 C 0.79771 0.21328 0.22188
 C565 C 0.88923 0.11872 0.10645
 C566 C 0.90390 0.09792 0.08973
 C567 C 0.83562 0.68280 0.67635
 N568 N 0.81888 0.67249 0.64704
 N569 N 0.83664 0.65233 0.62560
 C570 C 0.87168 0.64176 0.63287
 N571 N 0.88849 0.65217 0.66208
 N572 N 0.87073 0.67233 0.68352
 C573 C 0.81495 0.70135 0.70177
 C574 C 0.79658 0.71495 0.72406
 C575 C 0.88963 0.61791 0.61173
 C576 C 0.90452 0.59710 0.59507
 C577 C 0.33778 0.18162 0.67427
 N578 N 0.32100 0.17132 0.64498
 N579 N 0.33895 0.15158 0.62320
 C580 C 0.37422 0.14147 0.63010
 N581 N 0.39107 0.15190 0.65927
 N582 N 0.37312 0.17163 0.68105
 C583 C 0.31701 0.19966 0.69998
 C584 C 0.29858 0.21298 0.72237
 C585 C 0.39231 0.11787 0.60882
 C586 C 0.40731 0.09714 0.59221
 C587 C 0.33664 0.68006 0.17352
 N588 N 0.32006 0.67016 0.14390
 N589 N 0.33787 0.65015 0.12231
 C590 C 0.37279 0.63934 0.12973
 N591 N 0.38943 0.64935 0.15925
 N592 N 0.37162 0.66935 0.18084
 C593 C 0.31593 0.69859 0.19893
 C594 C 0.29749 0.71231 0.22107
 C595 C 0.39082 0.61571 0.10833
 C596 C 0.40582 0.59508 0.09147
   
