data_POSCAR
  _audit_creation_date              2014-09-24
  _audit_creation_method            'ToBaCCo'
  _symmetry_space_group_name_H-M    'P1'
  _symmetry_Int_Tables_number       1
  _symmetry_cell_setting            triclinic
  loop_
  _symmetry_equiv_pos_as_xyz
 x,y,z
_cell_length_a 28.0231
_cell_length_b 29.9852
_cell_length_c 33.2415
_cell_angle_alpha 89.730800
_cell_angle_beta 87.729100
_cell_angle_gamma 90.229900
loop_
  _atom_site_label
  _atom_site_type_symbol
  _atom_site_fract_x
  _atom_site_fract_y
  _atom_site_fract_z
C1 C 0.26970 0.28753 0.20683
 C2 C 0.24690 0.26683 0.24025
 C3 C 0.22634 0.29283 0.27123
 C4 C 0.22801 0.33968 0.26876
 C5 C 0.25189 0.35994 0.23551
 C6 C 0.27259 0.33415 0.20420
 C7 C 0.24619 0.21784 0.24342
 C8 C 0.27410 0.19646 0.27172
 C9 C 0.27464 0.14966 0.27442
 C10 C 0.24655 0.12475 0.24857
 C11 C 0.21832 0.14568 0.22013
 C12 C 0.21843 0.19255 0.21768
 H13 H 0.28610 0.26719 0.18324
 H14 H 0.20993 0.27620 0.29725
 H15 H 0.29639 0.21657 0.29041
 H16 H 0.19638 0.20978 0.19667
 H17 H 0.25498 0.39593 0.23468
 H18 H 0.24683 0.08864 0.25051
 C19 C 0.76668 0.79512 0.23117
 C20 C 0.74413 0.77138 0.26296
 C21 C 0.72138 0.79429 0.29481
 C22 C 0.72017 0.84111 0.29534
 C23 C 0.74293 0.86467 0.26292
 C24 C 0.76702 0.84220 0.23099
 C25 C 0.74350 0.72223 0.26274
 C26 C 0.76660 0.69829 0.29259
 C27 C 0.76462 0.65140 0.29350
 C28 C 0.73765 0.62910 0.26510
 C29 C 0.71450 0.65261 0.23501
 C30 C 0.71798 0.69938 0.23376
 H31 H 0.78319 0.77614 0.20689
 H32 H 0.70399 0.77522 0.31907
 H33 H 0.78530 0.71655 0.31517
 H34 H 0.69913 0.71839 0.21168
 H35 H 0.74209 0.90065 0.26181
 H36 H 0.73500 0.59301 0.26618
 C37 C 0.78458 0.28829 0.72463
 C38 C 0.75716 0.26872 0.75613
 C39 C 0.73507 0.29549 0.78578
 C40 C 0.73957 0.34241 0.78392
 C41 C 0.76822 0.36133 0.75248
 C42 C 0.79118 0.33475 0.72303
 C43 C 0.75134 0.21991 0.75786
 C44 C 0.77529 0.19496 0.78650
 C45 C 0.77104 0.14803 0.78773
 C46 C 0.74155 0.12718 0.76002
 C47 C 0.71699 0.15189 0.73149
 C48 C 0.72229 0.19851 0.73054
 H49 H 0.80034 0.26701 0.70155
 H50 H 0.71447 0.27894 0.80963
 H51 H 0.79795 0.21275 0.80655
 H52 H 0.70320 0.21867 0.70948
 H53 H 0.77270 0.39726 0.75072
 H54 H 0.73753 0.09117 0.76058
 C55 C 0.27695 0.79050 0.71377
 C56 C 0.25537 0.76848 0.74706
 C57 C 0.23441 0.79324 0.77863
 C58 C 0.23428 0.84004 0.77697
 C59 C 0.25696 0.86181 0.74390
 C60 C 0.27839 0.83739 0.71168
 C61 C 0.25446 0.71935 0.74892
 C62 C 0.27754 0.69691 0.77969
 C63 C 0.27544 0.65011 0.78254
 C64 C 0.24841 0.62641 0.75510
 C65 C 0.22518 0.64838 0.72414
 C66 C 0.22879 0.69507 0.72096
 H67 H 0.29310 0.77077 0.68962
 H68 H 0.21856 0.77572 0.80442
 H69 H 0.29635 0.71629 0.80145
 H70 H 0.20991 0.71299 0.69819
 H71 H 0.25781 0.89780 0.74422
 H72 H 0.24566 0.59042 0.75768
 C73 C 0.06133 0.06055 0.01381
 H74 H 0.05948 0.06564 -0.01833
 C75 C 0.09021 0.08824 0.03637
 H76 H 0.11078 0.11454 0.02136
 C77 C 0.03610 0.02058 0.07255
 H78 H 0.01437 -0.00533 0.08671
 C79 C 0.06447 0.04739 0.09621
 H80 H 0.06342 0.04184 0.12839
 N81 N 0.03545 0.02717 0.03207
 C82 C 0.01129 -0.08015 -0.05286
 H83 H -0.02669 -0.08519 -0.04756
 C84 C 0.03685 -0.10790 -0.07947
 H85 H 0.01829 -0.13429 -0.09467
 C86 C 0.08160 -0.03969 -0.03935
 H87 H 0.09907 -0.01344 -0.02329
 C88 C 0.10850 -0.06649 -0.06593
 H89 H 0.14655 -0.06064 -0.06950
 Zn90 Zn -0.00397 -0.00931 0.00073
 N91 N 0.03373 -0.04638 -0.03391
 C92 C -0.04628 0.02102 -0.07038
 N93 N -0.04285 0.02825 -0.03022
 C94 C -0.06549 0.06319 -0.01190
 C95 C -0.09347 0.09212 -0.03407
 C96 C -0.07424 0.04878 -0.09353
 C97 C -0.02095 -0.08260 0.05173
 C98 C -0.04689 -0.11093 0.07796
 C99 C -0.11631 -0.06475 0.06977
 C100 C -0.08918 -0.03759 0.04324
 N101 N -0.04223 -0.04659 0.03519
 H102 H -0.02711 -0.00610 -0.08472
 H103 H -0.06151 0.06870 0.01993
 H104 H -0.11119 0.11987 -0.01912
 H105 H -0.07570 0.04271 -0.12552
 H106 H 0.01638 -0.08913 0.04465
 H107 H -0.02936 -0.13935 0.09104
 H108 H -0.15365 -0.05713 0.07559
 H109 H -0.10562 -0.00920 0.02937
 C110 C 0.08588 -0.10072 -0.08690
 C111 C 0.09258 0.08146 0.07803
 C112 C -0.09491 -0.10172 0.08783
 C113 C -0.09864 0.08469 -0.07528
 C114 C 0.08538 0.55986 0.51122
 H115 H 0.09068 0.55846 0.47895
 C116 C 0.11606 0.58595 0.53358
 H117 H 0.14505 0.60405 0.51830
 C118 C 0.04068 0.53944 0.57043
 H119 H 0.01040 0.52257 0.58473
 C120 C 0.07063 0.56481 0.59391
 H121 H 0.06272 0.56691 0.62597
 N122 N 0.04885 0.53672 0.52989
 C123 C 0.03926 0.41725 0.46953
 H124 H 0.01801 0.40297 0.49410
 C125 C 0.06339 0.38888 0.44255
 H126 H 0.06091 0.35313 0.44711
 C127 C 0.06648 0.48049 0.43229
 H128 H 0.06579 0.51611 0.42735
 C129 C 0.09117 0.45336 0.40458
 H130 H 0.10937 0.46889 0.37885
 Zn131 Zn 0.00679 0.50137 0.49941
 N132 N 0.04172 0.46228 0.46438
 C133 C -0.05674 0.51935 0.43882
 N134 N -0.03002 0.53885 0.46714
 C135 C -0.02868 0.58391 0.47146
 C136 C -0.05518 0.61126 0.44665
 C137 C -0.08386 0.54540 0.41347
 C138 C -0.01405 0.43972 0.56195
 C139 C -0.04261 0.41545 0.58962
 C140 C -0.11220 0.44982 0.56235
 C141 C -0.08227 0.47347 0.53519
 N142 N -0.03412 0.46791 0.53531
 H143 H -0.05657 0.48344 0.43574
 H144 H -0.00706 0.59869 0.49412
 H145 H -0.05367 0.64711 0.45033
 H146 H -0.10376 0.52898 0.39056
 H147 H 0.02440 0.43666 0.56207
 H148 H -0.02541 0.39433 0.61110
 H149 H -0.15044 0.45481 0.56199
 H150 H -0.09759 0.49662 0.51438
 C151 C 0.09015 0.40678 0.40979
 C152 C 0.10938 0.58798 0.57552
 C153 C -0.09254 0.42012 0.58983
 C154 C -0.08354 0.59210 0.41745
 C155 C 0.56225 0.08636 0.51930
 H156 H 0.56402 0.09075 0.48695
 C157 C 0.59091 0.11255 0.54342
 H158 H 0.61481 0.13708 0.52947
 C159 C 0.52898 0.04909 0.57686
 H160 H 0.50425 0.02496 0.58999
 C161 C 0.55698 0.07442 0.60202
 H162 H 0.55282 0.06948 0.63423
 N163 N 0.53302 0.05451 0.53621
 C164 C 0.51935 -0.05074 0.44682
 H165 H 0.48108 -0.05587 0.44830
 C166 C 0.54800 -0.07534 0.41974
 H167 H 0.53159 -0.09952 0.40046
 C168 C 0.58714 -0.01237 0.46960
 H169 H 0.60245 0.01184 0.48929
 C170 C 0.61707 -0.03606 0.44287
 H171 H 0.65515 -0.02994 0.44277
 Zn172 Zn 0.49740 0.01735 0.50220
 N173 N 0.53905 -0.01897 0.47015
 C174 C 0.46496 0.04937 0.42778
 N175 N 0.46120 0.05435 0.46844
 C176 C 0.43182 0.08560 0.48550
 C177 C 0.40291 0.11174 0.46152
 C178 C 0.43661 0.07457 0.40278
 C179 C 0.47638 -0.05196 0.55740
 C180 C 0.44798 -0.07754 0.58428
 C181 C 0.37840 -0.03973 0.56070
 C182 C 0.40810 -0.01500 0.53420
 N183 N 0.45629 -0.02040 0.53399
 H184 H 0.48973 0.02569 0.41451
 H185 H 0.43022 0.08959 0.51786
 H186 H 0.37897 0.13586 0.47557
 H187 H 0.44046 0.07000 0.37054
 H188 H 0.51474 -0.05613 0.55617
 H189 H 0.46468 -0.10146 0.60372
 H190 H 0.34022 -0.03451 0.56056
 H191 H 0.39253 0.00909 0.51445
 C192 C 0.59729 -0.06707 0.41661
 C193 C 0.58942 0.10587 0.58524
 C194 C 0.39852 -0.07049 0.58713
 C195 C 0.40418 0.10550 0.41972
 C196 C 0.58495 0.56922 0.01653
 H197 H 0.59292 0.56689 -0.01539
 C198 C 0.61410 0.59534 0.04025
 H199 H 0.64459 0.61261 0.02640
 C200 C 0.53527 0.55065 0.07348
 H201 H 0.50376 0.53439 0.08631
 C202 C 0.56363 0.57602 0.09830
 H203 H 0.55336 0.57878 0.12991
 N204 N 0.54678 0.54686 0.03349
 C205 C 0.54454 0.42567 -0.02327
 H206 H 0.52186 0.41208 0.00072
 C207 C 0.57157 0.39664 -0.04757
 H208 H 0.56974 0.36114 -0.04148
 C209 C 0.57293 0.48765 -0.06165
 H210 H 0.57186 0.52299 -0.06800
 C211 C 0.60040 0.45980 -0.08683
 H212 H 0.62020 0.47470 -0.11202
 Zn213 Zn 0.50785 0.51036 0.00129
 N214 N 0.54615 0.47042 -0.03024
 C215 C 0.45013 0.52572 -0.06384
 N216 N 0.47404 0.54644 -0.03441
 C217 C 0.47445 0.59162 -0.03115
 C218 C 0.44961 0.61785 -0.05810
 C219 C 0.42471 0.55060 -0.09129
 C220 C 0.48157 0.45085 0.06428
 C221 C 0.45068 0.42725 0.09060
 C222 C 0.38388 0.45938 0.05721
 C223 C 0.41611 0.48241 0.03149
 N224 N 0.46399 0.47780 0.03540
 H225 H 0.45103 0.48974 -0.06601
 H226 H 0.49388 0.60737 -0.00759
 H227 H 0.45018 0.65381 -0.05516
 H228 H 0.40689 0.53324 -0.11490
 H229 H 0.51977 0.44810 0.06712
 H230 H 0.46540 0.40619 0.11356
 H231 H 0.34607 0.46312 0.05289
 H232 H 0.40271 0.50415 0.00858
 C233 C 0.60024 0.41349 -0.07969
 C234 C 0.60418 0.59813 0.08180
 C235 C 0.40117 0.43172 0.08763
 C236 C 0.42385 0.59738 -0.08832
 C237 C 0.21169 -0.13265 -0.19047
 C238 C 0.17472 -0.14684 -0.16698
 C239 C 0.15200 -0.11731 -0.13657
 C240 C 0.11199 -0.12981 -0.11614
 H241 H 0.15970 -0.17975 -0.17110
 H242 H 0.16724 -0.08454 -0.13218
 H243 H 0.22423 -0.09864 -0.18721
 H244 H 0.09614 -0.16187 -0.12277
 C245 C 0.20676 0.36879 0.30060
 C246 C 0.17148 0.35603 0.32648
 C247 C 0.15037 0.38790 0.35564
 C248 C 0.11408 0.37588 0.38080
 H249 H 0.15664 0.32271 0.32537
 H250 H 0.16493 0.42135 0.35636
 H251 H 0.21914 0.40308 0.30146
 H252 H 0.10173 0.34156 0.38062
 C253 C 0.69532 -0.13797 0.32787
 C254 C 0.69432 -0.09377 0.33460
 C255 C 0.66667 -0.07301 0.36834
 C256 C 0.62672 -0.09075 0.38550
 H257 H 0.71590 -0.07096 0.31641
 H258 H 0.67789 -0.03989 0.37677
 H259 H 0.67644 -0.15945 0.34949
 H260 H 0.61270 -0.12173 0.37414
 C261 C 0.71655 0.37152 -0.18835
 C262 C 0.68520 0.35923 -0.15875
 C263 C 0.66158 0.39307 -0.13292
 C264 C 0.62720 0.38145 -0.10573
 H265 H 0.67514 0.32479 -0.15382
 H266 H 0.67252 0.42750 -0.13664
 H267 H 0.72372 0.40696 -0.19193
 H268 H 0.61830 0.34637 -0.10221
 C269 C -0.20418 0.12068 -0.18550
 C270 C -0.17751 0.13510 -0.15545
 C271 C -0.15074 0.10301 -0.13139
 C272 C -0.12774 0.11577 -0.09881
 H273 H -0.17470 0.17006 -0.14818
 H274 H -0.14995 0.06839 -0.14057
 H275 H -0.20688 0.08485 -0.18951
 H276 H -0.13124 0.14988 -0.08844
 C277 C -0.21093 0.62437 0.32389
 C278 C -0.17332 0.63863 0.34390
 C279 C -0.14904 0.60842 0.37146
 C280 C -0.11051 0.62173 0.39076
 H281 H -0.15893 0.67182 0.33890
 H282 H -0.16306 0.57498 0.37583
 H283 H -0.22291 0.59019 0.32841
 H284 H -0.09860 0.65605 0.38742
 C285 C 0.30582 0.12535 0.30202
 C286 C 0.32375 0.14291 0.33519
 C287 C 0.35573 0.11634 0.35991
 C288 C 0.37195 0.13179 0.39455
 H289 H 0.31485 0.17651 0.34447
 H290 H 0.36549 0.08324 0.34971
 H291 H 0.31386 0.09085 0.29487
 H292 H 0.35964 0.16385 0.40566
 C293 C 0.29967 0.62459 -0.18592
 C294 C 0.33676 0.63998 -0.16587
 C295 C 0.36047 0.61115 -0.13682
 C296 C 0.39801 0.62567 -0.11688
 H297 H 0.35103 0.67305 -0.17174
 H298 H 0.34670 0.57773 -0.13171
 H299 H 0.28781 0.59055 -0.18032
 H300 H 0.40963 0.66000 -0.12088
 C301 C -0.20989 -0.13196 0.20028
 C302 C -0.18072 -0.14789 0.17076
 C303 C -0.15718 -0.11741 0.14112
 C304 C -0.12155 -0.13155 0.11645
 H305 H -0.17205 -0.18289 0.16876
 H306 H -0.16780 -0.08271 0.14076
 H307 H -0.21474 -0.09607 0.20136
 H308 H -0.10938 -0.16569 0.11910
 C309 C -0.17928 0.35700 0.69074
 C310 C -0.14413 0.33653 0.66944
 C311 C -0.11276 0.35934 0.63894
 C312 C -0.12488 0.39663 0.61937
 H313 H -0.13510 0.30238 0.67629
 H314 H -0.07909 0.34328 0.63160
 H315 H -0.18497 0.39234 0.68635
 H316 H -0.16044 0.41006 0.62403
 C317 C 0.30216 -0.14236 0.67799
 C318 C 0.30236 -0.09836 0.66987
 C319 C 0.32926 -0.07773 0.63539
 C320 C 0.36936 -0.09481 0.61836
 H321 H 0.28066 -0.07557 0.68760
 H322 H 0.31754 -0.04492 0.62647
 H323 H 0.32082 -0.16413 0.65679
 H324 H 0.38383 -0.12541 0.63013
 C325 C 0.30036 0.35466 0.16998
 C326 C 0.29381 0.39671 0.15741
 C327 C 0.32392 0.41875 0.12560
 C328 C 0.36927 0.40704 0.11667
 H329 H 0.26447 0.41611 0.17004
 H330 H 0.30903 0.44810 0.11196
 H331 H 0.32658 0.33392 0.15439
 H332 H 0.38517 0.38020 0.13335
 C333 C 0.18822 0.11726 0.19484
 C334 C 0.17040 0.13025 0.15989
 C335 C 0.14039 0.09955 0.13721
 C336 C 0.12332 0.11116 0.10160
 H337 H 0.17811 0.16308 0.14760
 H338 H 0.13287 0.06680 0.14981
 H339 H 0.18126 0.08340 0.20519
 H340 H 0.13338 0.14325 0.08862
 C341 C 0.19506 0.62158 0.69766
 C342 C 0.18341 0.63407 0.66064
 C343 C 0.15163 0.60581 0.63731
 C344 C 0.14215 0.61543 0.59913
 H345 H 0.19723 0.66479 0.64739
 H346 H 0.13613 0.57636 0.65170
 H347 H 0.18248 0.58950 0.70909
 H348 H 0.16015 0.64341 0.58427
 C349 C 0.68488 0.12766 0.70455
 C350 C 0.66898 0.14413 0.67006
 C351 C 0.63656 0.11749 0.64582
 C352 C 0.62153 0.13228 0.61044
 H353 H 0.68001 0.17679 0.65920
 H354 H 0.62567 0.08486 0.65694
 H355 H 0.67443 0.09402 0.71335
 H356 H 0.63490 0.16393 0.59869
 C357 C 0.68463 0.62726 0.20728
 C358 C 0.67425 0.64131 0.17040
 C359 C 0.64295 0.61434 0.14549
 C360 C 0.63583 0.62482 0.10705
 H361 H 0.68897 0.67227 0.15835
 H362 H 0.62606 0.58495 0.15884
 H363 H 0.67138 0.59492 0.21749
 H364 H 0.65528 0.65259 0.09320
   
