data_POSCAR
  _audit_creation_date              2014-09-24
  _audit_creation_method            'ToBaCCo'
  _symmetry_space_group_name_H-M    'P1'
  _symmetry_Int_Tables_number       1
  _symmetry_cell_setting            triclinic
  loop_
  _symmetry_equiv_pos_as_xyz
 x,y,z
_cell_length_a 49.2751
_cell_length_b 48.7916
_cell_length_c 48.6540
_cell_angle_alpha 89.989500
_cell_angle_beta 90.007100
_cell_angle_gamma 89.939700
loop_
  _atom_site_label
  _atom_site_type_symbol
  _atom_site_fract_x
  _atom_site_fract_y
  _atom_site_fract_z
N1 N 0.18127 1.23695 0.16067
 N2 N 0.16240 1.23700 0.17982
 C3 C 0.14521 1.25802 0.17518
 C4 C 0.15396 1.27166 0.15202
 C5 C 0.17678 1.25790 0.14321
 H6 H 0.12749 1.26282 0.18741
 H7 H 0.18895 1.26251 0.12530
 Cu8 Cu 0.16177 1.20902 0.20834
 Cu9 Cu 0.20980 1.20934 0.15935
 Cu10 Cu 0.20894 1.15923 0.20995
 N11 N 0.16151 1.18087 0.23670
 N12 N 0.17999 1.16137 0.23712
 C13 C 0.17485 1.14426 0.25821
 C14 C 0.15201 1.15367 0.27156
 C15 C 0.14393 1.17682 0.25754
 H16 H 0.18659 1.12619 0.26318
 H17 H 0.12641 1.18943 0.26197
 N18 N 0.23658 1.16060 0.18071
 N19 N 0.23694 1.17972 0.16147
 C20 C 0.25802 1.17498 0.14447
 C21 C 0.27138 1.15190 0.15354
 C22 C 0.25741 1.14319 0.17642
 H23 H 0.26317 1.18718 0.12667
 H24 H 0.26199 1.12538 0.18881
 H25 H 0.18809 1.17865 0.17869
 H26 H 0.21003 1.20053 0.20090
 N27 N 0.81999 0.76308 0.16129
 N28 N 0.83888 0.76365 0.18041
 C29 C 0.85641 0.74287 0.17606
 C30 C 0.84790 0.72870 0.15314
 C31 C 0.82483 0.74194 0.14418
 H32 H 0.87417 0.73852 0.18837
 H33 H 0.81271 0.73679 0.12639
 Cu34 Cu 0.83899 0.79189 0.20864
 Cu35 Cu 0.79096 0.79013 0.15963
 Cu36 Cu 0.79084 0.84072 0.20979
 N37 N 0.83871 0.82031 0.23668
 N38 N 0.81979 0.83937 0.23700
 C39 C 0.82450 0.85665 0.25805
 C40 C 0.84751 0.84781 0.27148
 C41 C 0.85615 0.82482 0.25754
 H42 H 0.81232 0.87443 0.26299
 H43 H 0.87390 0.81258 0.26208
 N44 N 0.76327 0.83858 0.18051
 N45 N 0.76330 0.81929 0.16144
 C46 C 0.74227 0.82360 0.14425
 C47 C 0.72852 0.84656 0.15304
 C48 C 0.74222 0.85565 0.17594
 H49 H 0.73745 0.81121 0.12649
 H50 H 0.73737 0.87353 0.18812
 H51 H 0.81213 0.82141 0.17866
 H52 H 0.79061 0.79926 0.20110
 N53 N 0.81939 1.23577 -0.16043
 N54 N 0.83841 1.23506 -0.17940
 C55 C 0.85589 1.25586 -0.17505
 C56 C 0.84719 1.27016 -0.15227
 C57 C 0.82408 1.25699 -0.14340
 H58 H 0.87371 1.26014 -0.18727
 H59 H 0.81181 1.26227 -0.12574
 Cu60 Cu 0.83864 1.20671 -0.20752
 Cu61 Cu 0.79029 1.20886 -0.15885
 Cu62 Cu 0.78993 1.15857 -0.20924
 N63 N 0.83801 1.17866 -0.23595
 N64 N 0.81885 1.15989 -0.23649
 C65 C 0.82331 1.14282 -0.25777
 C66 C 0.84640 1.15150 -0.27113
 C67 C 0.85535 1.17418 -0.25690
 H68 H 0.81092 1.12527 -0.26292
 H69 H 0.87325 1.18622 -0.26130
 N70 N 0.76242 1.16070 -0.17991
 N71 N 0.76256 1.17986 -0.16072
 C72 C 0.74160 1.17555 -0.14347
 C73 C 0.72777 1.15271 -0.15234
 C74 C 0.74135 1.14369 -0.17535
 H75 H 0.73691 1.18783 -0.12560
 H76 H 0.73642 1.12588 -0.18759
 H77 H 0.81123 1.17739 -0.17790
 H78 H 0.79015 1.19996 -0.20037
 N79 N 0.18028 0.76423 -0.16152
 N80 N 0.16128 0.76490 -0.18053
 C81 C 0.14383 0.74410 -0.17617
 C82 C 0.15248 0.72985 -0.15333
 C83 C 0.17557 0.74305 -0.14444
 H84 H 0.12603 0.73976 -0.18843
 H85 H 0.18783 0.73779 -0.12675
 Cu86 Cu 0.16111 0.79315 -0.20879
 Cu87 Cu 0.20927 0.79127 -0.15990
 Cu88 Cu 0.20931 0.84179 -0.21009
 N89 N 0.16135 0.82159 -0.23686
 N90 N 0.18036 0.84050 -0.23728
 C91 C 0.17574 0.85777 -0.25837
 C92 C 0.15268 0.84906 -0.27175
 C93 C 0.14393 0.82615 -0.25774
 H94 H 0.18805 0.87543 -0.26341
 H95 H 0.12614 0.81401 -0.26226
 N96 N 0.23690 0.83965 -0.18083
 N97 N 0.23691 0.82041 -0.16172
 C98 C 0.25795 0.82474 -0.14455
 C99 C 0.27166 0.84767 -0.15341
 C100 C 0.25793 0.85671 -0.17632
 H101 H 0.26280 0.81239 -0.12676
 H102 H 0.26275 0.87457 -0.18853
 H103 H 0.18807 0.82259 -0.17891
 H104 H 0.20950 0.80036 -0.20137
 C105 C 0.54140 1.03759 -0.00658
 H106 H 0.54171 1.03697 0.01565
 C107 C 0.56061 1.05313 -0.02074
 H108 H 0.57572 1.06464 -0.00942
 C109 C 0.52213 1.02234 -0.04858
 H110 H 0.50757 1.00975 -0.05932
 C111 C 0.54102 1.03763 -0.06355
 H112 H 0.54078 1.03698 -0.08581
 N113 N 0.52271 1.02257 -0.02060
 C114 C 0.45839 1.00642 0.03865
 H115 H 0.45826 0.98425 0.03808
 C116 C 0.43909 1.02045 0.05423
 H117 H 0.42409 1.00909 0.06584
 C118 C 0.47733 1.04839 0.02322
 H119 H 0.49181 1.05918 0.01055
 C120 C 0.45835 1.06323 0.03854
 H121 H 0.45841 1.08543 0.03784
 Zn122 Zn 0.49988 0.99960 0.00044
 N123 N 0.47695 1.02049 0.02351
 C124 C 0.52269 0.97715 0.04935
 N125 N 0.52299 0.97673 0.02137
 C126 C 0.54159 0.96165 0.00727
 C127 C 0.56097 0.94618 0.02134
 C128 C 0.54176 0.96196 0.06423
 C129 C 0.45817 0.99271 -0.03753
 C130 C 0.43887 0.97866 -0.05308
 C131 C 0.45833 0.93590 -0.03749
 C132 C 0.47732 0.95076 -0.02220
 N133 N 0.47686 0.97866 -0.02249
 H134 H 0.50821 0.98981 0.06016
 H135 H 0.54170 0.96215 -0.01496
 H136 H 0.57598 0.93459 0.00995
 H137 H 0.54173 0.96274 0.08649
 H138 H 0.45795 1.01487 -0.03694
 H139 H 0.42379 0.99001 -0.06464
 H140 H 0.45848 0.91371 -0.03681
 H141 H 0.49188 0.93999 -0.00959
 C142 C 0.43893 1.04910 0.05399
 C143 C 0.56055 1.05297 -0.04947
 C144 C 0.43883 0.95001 -0.05290
 C145 C 0.56116 0.94650 0.05007
 C146 C -0.00615 0.54130 1.03804
 H147 H 0.01580 0.54148 1.03758
 C148 C -0.02015 0.56063 1.05374
 H149 H -0.00898 0.57568 1.06555
 C150 C -0.04759 0.52224 1.02224
 H151 H -0.05818 0.50771 1.00939
 C152 C -0.06239 0.54125 1.03766
 H153 H -0.08436 0.54116 1.03684
 N154 N -0.01997 0.52265 1.02270
 C155 C 0.03864 0.45774 1.00651
 H156 H 0.03819 0.45770 0.98428
 C157 C 0.05406 0.43825 1.02056
 H158 H 0.06566 0.42320 1.00914
 C159 C 0.02312 0.47664 1.04861
 H160 H 0.01049 0.49116 1.05943
 C161 C 0.03827 0.45746 1.06347
 H162 H 0.03749 0.45745 1.08572
 Zn163 Zn 0.00085 0.49961 0.99967
 N164 N 0.02356 0.47639 1.02063
 C165 C 0.04914 0.52255 0.97714
 N166 N 0.02151 0.52292 0.97679
 C167 C 0.00757 0.54170 0.96168
 C168 C 0.02144 0.56123 0.94614
 C169 C 0.06381 0.54174 0.96186
 C170 C -0.03668 0.45764 0.99258
 C171 C -0.05207 0.43825 0.97842
 C172 C -0.03650 0.45786 0.93561
 C173 C -0.02137 0.47693 0.95059
 N174 N -0.02173 0.47645 0.97857
 H175 H 0.05983 0.50790 0.98979
 H176 H -0.01438 0.54183 0.96221
 H177 H 0.01017 0.57639 0.93452
 H178 H 0.08579 0.54165 0.96257
 H179 H -0.03615 0.45741 1.01481
 H180 H -0.06358 0.42308 0.98975
 H181 H -0.03579 0.45803 0.91336
 H182 H -0.00884 0.49158 0.93985
 C183 C 0.05371 0.43799 1.04928
 C184 C -0.04851 0.56073 1.05336
 C185 C -0.05183 0.43824 0.94970
 C186 C 0.04981 0.56137 0.94641
 C187 C 1.03740 -0.00627 0.54153
 H188 H 1.03691 0.01589 0.54167
 C189 C 1.05287 -0.02035 0.56098
 H190 H 1.06446 -0.00903 0.57610
 C191 C 1.02193 -0.04818 0.52243
 H192 H 1.00930 -0.05893 0.50784
 C193 C 1.03712 -0.06308 0.54157
 H194 H 1.03636 -0.08527 0.54151
 N195 N 1.02232 -0.02028 0.52280
 C196 C 1.00614 0.03878 0.45757
 H197 H 0.98419 0.03829 0.45751
 C198 C 1.01998 0.05436 0.43802
 H199 H 1.00868 0.06604 0.42291
 C200 C 1.04774 0.02322 0.47657
 H201 H 1.05847 0.01051 0.49115
 C202 C 1.06238 0.03852 0.45734
 H203 H 1.08436 0.03777 0.45734
 Zn204 Zn 0.99952 0.00069 0.49967
 N205 N 1.02011 0.02361 0.47630
 C206 C 0.97712 0.04950 0.52261
 N207 N 0.97691 0.02160 0.52305
 C208 C 0.96208 0.00753 0.54195
 C209 C 0.94666 0.02155 0.56148
 C210 C 0.96196 0.06434 0.54183
 C211 C 0.99247 -0.03737 0.45764
 C212 C 0.97844 -0.05292 0.43823
 C213 C 0.93623 -0.03716 0.45803
 C214 C 0.95106 -0.02188 0.47712
 N215 N 0.97869 -0.02223 0.47653
 H216 H 0.98955 0.06030 0.50788
 H217 H 0.96271 -0.01464 0.54214
 H218 H 0.93525 0.01018 0.57670
 H219 H 0.96254 0.08653 0.54168
 H220 H 1.01442 -0.03686 0.45735
 H221 H 0.98958 -0.06456 0.42298
 H222 H 0.91425 -0.03643 0.45828
 H223 H 0.94049 -0.00921 0.49185
 C224 C 1.04834 0.05405 0.43778
 C225 C 1.05256 -0.04900 0.56113
 C226 C 0.95007 -0.05263 0.43829
 C227 C 0.94676 0.05020 0.56154
 C228 C 0.11742 0.33554 1.11459
 C229 C 0.09955 0.32663 1.09037
 C230 C 0.08695 0.34787 1.07742
 C231 C 0.09344 0.37598 1.08996
 C232 C 0.12453 0.37795 1.08950
 C233 C 0.13714 0.35668 1.10246
 C234 C 0.09853 0.35210 1.13342
 C235 C 0.08592 0.37337 1.12046
 C236 C 0.13090 0.31254 1.12844
 C237 C 0.14180 0.29341 1.13961
 C238 C 0.07971 0.39868 1.07589
 C239 C 0.06806 0.41689 1.06397
 H240 H 0.09708 0.30548 1.08388
 H241 H 0.07370 0.34492 1.05983
 H242 H 0.13565 0.39453 1.07980
 H243 H 0.15907 0.35505 1.10388
 H244 H 0.09536 0.34756 1.15502
 H245 H 0.07196 0.38704 1.13096
 C246 C -0.11386 0.66335 1.11658
 C247 C -0.10411 0.64121 1.13675
 C248 C -0.09114 0.61985 1.12432
 C249 C -0.08920 0.62275 1.09297
 C250 C -0.07544 0.65055 1.08818
 C251 C -0.08839 0.67188 1.10059
 C252 C -0.13154 0.64806 1.09563
 C253 C -0.11857 0.62671 1.08321
 C254 C -0.12773 0.68645 1.12983
 C255 C -0.13895 0.70564 1.14053
 C256 C -0.07511 0.59998 1.07940
 C257 C -0.06318 0.58178 1.06780
 H258 H -0.10714 0.64222 1.15883
 H259 H -0.08305 0.60256 1.13575
 H260 H -0.05711 0.65324 1.07609
 H261 H -0.08115 0.69284 1.09913
 H262 H -0.15240 0.65351 1.09097
 H263 H -0.12833 0.61387 1.06791
 C264 C -0.11546 0.33566 0.88481
 C265 C -0.13147 0.36264 0.88336
 C266 C -0.11886 0.38401 0.89612
 C267 C -0.09148 0.37628 0.90905
 C268 C -0.07486 0.36377 0.88549
 C269 C -0.08747 0.34242 0.87275
 C270 C -0.11039 0.33084 0.91556
 C271 C -0.09780 0.35218 0.92829
 C272 C -0.12893 0.31254 0.87124
 C273 C -0.13987 0.29330 0.86037
 C274 C -0.07777 0.39904 0.92297
 C275 C -0.06614 0.41723 0.93489
 H276 H -0.15100 0.36477 0.87325
 H277 H -0.12758 0.40444 0.89693
 H278 H -0.05495 0.37105 0.87935
 H279 H -0.07836 0.33140 0.85569
 H280 H -0.11623 0.31231 0.92639
 H281 H -0.09285 0.35192 0.95004
 C282 C 0.11469 0.66431 0.88332
 C283 C 0.11854 0.63686 0.86837
 C284 C 0.10569 0.61545 0.88082
 C285 C 0.09025 0.62362 0.90698
 C286 C 0.07101 0.64670 0.89800
 C287 C 0.08384 0.66807 0.88556
 C288 C 0.12432 0.65902 0.91286
 C289 C 0.11147 0.63764 0.92530
 C290 C 0.12841 0.68747 0.87003
 C291 C 0.13948 0.70672 0.85929
 C292 C 0.07625 0.60080 0.92052
 C293 C 0.06438 0.58253 0.93207
 H294 H 0.13041 0.63443 0.84974
 H295 H 0.10655 0.59469 0.87285
 H296 H 0.04920 0.64630 0.90117
 H297 H 0.07303 0.68600 0.87811
 H298 H 0.13988 0.67100 0.92310
 H299 H 0.11605 0.63128 0.94617
 C300 C 1.11385 0.11762 0.33532
 C301 C 1.10153 0.13774 0.35614
 C302 C 1.08845 0.12520 0.37739
 C303 C 1.08898 0.09378 0.37571
 C304 C 1.11915 0.08619 0.37362
 C305 C 1.13222 0.09873 0.35238
 C306 C 1.09010 0.09944 0.32617
 C307 C 1.07704 0.08692 0.34740
 C308 C 1.12787 0.13099 0.31235
 C309 C 1.13927 0.14174 0.29326
 C310 C 1.07479 0.08012 0.39840
 C311 C 1.06288 0.06848 0.41661
 H312 H 1.10298 0.15987 0.35438
 H313 H 1.07870 0.13658 0.39383
 H314 H 1.12934 0.07220 0.38758
 H315 H 1.15362 0.09548 0.34815
 H316 H 1.08410 0.09663 0.30489
 H317 H 1.05986 0.07335 0.34428
 C318 C 1.11611 -0.11404 0.66399
 C319 C 1.08773 -0.12535 0.65768
 C320 C 1.07518 -0.11250 0.63630
 C321 C 1.09224 -0.08959 0.62331
 C322 C 1.11917 -0.10331 0.61536
 C323 C 1.13172 -0.11618 0.63676
 C324 C 1.11191 -0.08320 0.66857
 C325 C 1.09937 -0.07036 0.64719
 C326 C 1.12954 -0.12774 0.68714
 C327 C 1.14046 -0.13875 0.70639
 C328 C 1.07856 -0.07561 0.60049
 C329 C 1.06692 -0.06372 0.58223
 H330 H 1.07831 -0.14198 0.66902
 H331 H 1.05501 -0.11813 0.62931
 H332 H 1.12766 -0.10289 0.59478
 H333 H 1.15098 -0.12678 0.63451
 H334 H 1.11829 -0.07238 0.68697
 H335 H 1.09502 -0.04854 0.64728
 C336 C 0.88477 -0.11589 0.33558
 C337 C 0.88935 -0.13476 0.36042
 C338 C 0.90228 -0.12226 0.38179
 C339 C 0.90934 -0.09213 0.37620
 C340 C 0.88230 -0.07854 0.36841
 C341 C 0.86938 -0.09103 0.34706
 C342 C 0.91304 -0.10499 0.32817
 C343 C 0.92595 -0.09251 0.34951
 C344 C 0.87098 -0.12924 0.31248
 C345 C 0.85985 -0.14007 0.29329
 C346 C 0.92341 -0.07853 0.39898
 C347 C 0.93536 -0.06696 0.41720
 H348 H 0.88297 -0.15603 0.36118
 H349 H 0.90697 -0.13282 0.40085
 H350 H 0.87402 -0.06069 0.37878
 H351 H 0.85003 -0.08389 0.33913
 H352 H 0.92213 -0.10690 0.30793
 H353 H 0.94609 -0.08372 0.34755
 C354 C 0.88298 0.11486 0.66448
 C355 C 0.88877 0.08439 0.66967
 C356 C 0.90140 0.07166 0.64829
 C357 C 0.90702 0.09063 0.62378
 C358 C 0.92326 0.11464 0.63578
 C359 C 0.91063 0.12738 0.65718
 C360 C 0.86663 0.11559 0.63761
 C361 C 0.87928 0.10284 0.61620
 C362 C 0.86949 0.12846 0.68765
 C363 C 0.85858 0.13939 0.70694
 C364 C 0.92076 0.07673 0.60095
 C365 C 0.93241 0.06488 0.58268
 H366 H 0.88338 0.07373 0.68848
 H367 H 0.90683 0.05009 0.64879
 H368 H 0.94295 0.12109 0.62814
 H369 H 0.91949 0.14474 0.66785
 H370 H 0.84687 0.12523 0.63559
 H371 H 0.87035 0.10156 0.59584
 C372 C 0.33668 1.11422 0.11711
 C373 C 0.35307 1.09575 0.13656
 C374 C 0.37434 1.08288 0.12412
 C375 C 0.37713 1.08975 0.09346
 C376 C 0.37883 1.12115 0.09225
 C377 C 0.35756 1.13402 0.10470
 C378 C 0.32822 1.09551 0.09326
 C379 C 0.34947 1.08266 0.08084
 C380 C 0.31364 1.12792 0.13037
 C381 C 0.29446 1.13895 0.14105
 C382 C 0.39981 1.07573 0.07990
 C383 C 0.41795 1.06380 0.06834
 H384 H 0.34842 1.09308 0.15820
 H385 H 0.38792 1.06919 0.13511
 H386 H 0.39531 1.13228 0.08254
 H387 H 0.35581 1.15618 0.10564
 H388 H 0.30736 1.09264 0.08667
 H389 H 0.34680 1.06878 0.06361
 C390 C 0.66259 1.11611 -0.11471
 C391 C 0.66353 1.08470 -0.11623
 C392 C 0.64230 1.07225 -0.10339
 C393 C 0.62218 1.09242 -0.09027
 C394 C 0.61353 1.11158 -0.11373
 C395 C 0.63480 1.12405 -0.12658
 C396 C 0.66068 1.12273 -0.08393
 C397 C 0.63945 1.11028 -0.07109
 C398 C 0.68559 1.12939 -0.12841
 C399 C 0.70473 1.14011 -0.13944
 C400 C 0.59953 1.07884 -0.07626
 C401 C 0.58144 1.06728 -0.06429
 H402 H 0.67949 1.07324 -0.12649
 H403 H 0.64006 1.05013 -0.10266
 H404 H 0.59258 1.11508 -0.11969
 H405 H 0.63206 1.13823 -0.14356
 H406 H 0.67477 1.13605 -0.07317
 H407 H 0.63533 1.11294 -0.04933
 C408 C 0.33682 0.88499 -0.11641
 C409 C 0.36423 0.87985 -0.13052
 C410 C 0.38548 0.89268 -0.11799
 C411 C 0.37719 0.90939 -0.09260
 C412 C 0.36228 0.88901 -0.07392
 C413 C 0.34107 0.87619 -0.08643
 C414 C 0.33390 0.91630 -0.11536
 C415 C 0.35511 0.92911 -0.10285
 C416 C 0.31384 0.87133 -0.12979
 C417 C 0.29470 0.86038 -0.14062
 C418 C 0.39982 0.92338 -0.07894
 C419 C 0.41791 0.93529 -0.06730
 H420 H 0.36674 0.86723 -0.14873
 H421 H 0.40617 0.89106 -0.12547
 H422 H 0.36792 0.88497 -0.05273
 H423 H 0.32852 0.86118 -0.07595
 H424 H 0.31669 0.92743 -0.12373
 H425 H 0.35607 0.95122 -0.10052
 C426 C 0.66327 0.88323 0.11538
 C427 C 0.67037 0.89437 0.08678
 C428 C 0.64916 0.90683 0.07388
 C429 C 0.62289 0.90697 0.09083
 C430 C 0.63063 0.92041 0.11826
 C431 C 0.65186 0.90793 0.13117
 C432 C 0.63883 0.86428 0.11075
 C433 C 0.61759 0.87676 0.09784
 C434 C 0.68627 0.86992 0.12913
 C435 C 0.70544 0.85917 0.14017
 C436 C 0.60026 0.92058 0.07677
 C437 C 0.58214 0.93217 0.06481
 H438 H 0.69031 0.89260 0.07746
 H439 H 0.65094 0.91574 0.05351
 H440 H 0.62031 0.93813 0.12682
 H441 H 0.65973 0.91497 0.15077
 H442 H 0.63825 0.84295 0.11709
 H443 H 0.59881 0.86614 0.09312
   
