data_POSCAR
  _audit_creation_date              2014-09-24
  _audit_creation_method            'ToBaCCo'
  _symmetry_space_group_name_H-M    'P1'
  _symmetry_Int_Tables_number       1
  _symmetry_cell_setting            triclinic
  loop_
  _symmetry_equiv_pos_as_xyz
 x,y,z
_cell_length_a 26.9716
_cell_length_b 26.9702
_cell_length_c 27.0077
_cell_angle_alpha 82.275800
_cell_angle_beta 98.483100
_cell_angle_gamma 97.984900
loop_
  _atom_site_label
  _atom_site_type_symbol
  _atom_site_fract_x
  _atom_site_fract_y
  _atom_site_fract_z
C1 C 0.60960 0.60959 -0.00040
 C2 C 0.61997 0.55979 0.00313
 C3 C 0.58053 0.52008 0.00485
 C4 C 0.52968 0.52964 0.00013
 C5 C 0.52006 0.58043 -0.00487
 C6 C 0.55977 0.61992 -0.00367
 C7 C 0.48715 0.48710 0.00042
 C8 C 0.43949 0.49379 0.01279
 C9 C 0.39965 0.45449 0.01168
 C10 C 0.40730 0.40722 0.00092
 C11 C 0.45427 0.39930 -0.01009
 C12 C 0.49352 0.43912 -0.01169
 H13 H 0.64027 0.64028 -0.00059
 H14 H 0.59017 0.48196 0.01021
 H15 H 0.48186 0.58999 -0.01002
 H16 H 0.43265 0.52915 0.02356
 H17 H 0.37665 0.37656 0.00110
 H18 H 0.52859 0.43201 -0.02266
 C19 C -0.00062 0.59372 0.40615
 C20 C -0.01118 0.60192 0.45322
 C21 C -0.01248 0.56228 0.49248
 C22 C -0.00044 0.51431 0.48605
 C23 C 0.01151 0.50735 0.43831
 C24 C 0.01003 0.54640 0.39841
 C25 C -0.00038 0.47203 0.52861
 C26 C -0.00516 0.42114 0.51914
 C27 C -0.00372 0.38196 0.55883
 C28 C -0.00038 0.39258 0.60850
 C29 C 0.00295 0.44241 0.61877
 C30 C 0.00440 0.48189 0.57938
 H31 H -0.00068 0.62423 0.37548
 H32 H -0.02316 0.56944 0.52766
 H33 H 0.02225 0.47195 0.43155
 H34 H -0.01035 0.41114 0.48114
 H35 H -0.00039 0.36211 0.63912
 H36 H 0.00957 0.52000 0.58912
 C37 C 0.59507 -0.00025 0.59296
 C38 C 0.54792 0.01045 0.60075
 C39 C 0.50831 0.01166 0.56094
 C40 C 0.51450 -0.00058 0.51307
 C41 C 0.56234 -0.01267 0.50645
 C42 C 0.60257 -0.01113 0.54575
 C43 C 0.47158 -0.00069 0.47057
 C44 C 0.48069 0.00406 0.41981
 C45 C 0.44066 0.00256 0.38040
 C46 C 0.39097 -0.00080 0.39066
 C47 C 0.38107 -0.00410 0.44039
 C48 C 0.42083 -0.00549 0.48009
 H49 H 0.62590 -0.00012 0.62374
 H50 H 0.47308 0.02240 0.56798
 H51 H 0.56893 -0.02356 0.47111
 H52 H 0.51867 0.00926 0.41009
 H53 H 0.36007 -0.00084 0.36000
 H54 H 0.41141 -0.01062 0.51812
 O55 O 0.46666 0.00471 -0.08565
 O56 O 0.45093 -0.00764 0.04838
 O57 O 0.45263 0.06600 -0.02429
 O58 O 0.46803 -0.06903 -0.01323
 O59 O 0.55014 -0.05028 0.00682
 O60 O 0.53493 0.08421 -0.00488
 O61 O 0.53304 0.01127 0.06827
 O62 O 0.54896 0.02297 -0.06629
 Cu63 Cu 0.45131 -0.00353 -0.02043
 Cu64 Cu 0.55001 0.01865 0.00314
 C65 C 0.51040 0.01603 -0.09901
 C66 C 0.48900 0.00061 0.08123
 C67 C 0.49127 0.09822 -0.01665
 C68 C 0.51198 -0.08264 -0.00207
 O69 O -0.05007 0.55030 0.99422
 O70 O 0.08468 0.53523 1.00722
 O71 O 0.01160 0.53381 0.93303
 O72 O 0.02326 0.54852 1.06835
 O73 O 0.00498 0.46630 1.08574
 O74 O -0.00735 0.45178 0.95095
 O75 O 0.06646 0.45300 1.02465
 O76 O -0.06885 0.46826 1.01231
 Cu77 Cu 0.01898 0.55019 0.99876
 Cu78 Cu -0.00322 0.45161 1.01994
 C79 C -0.08248 0.51216 1.00195
 C80 C 0.09873 0.49162 1.01818
 C81 C 0.00092 0.49001 0.91897
 C82 C 0.01625 0.50981 1.10021
 O83 O -0.02454 -0.06750 0.45158
 O84 O -0.01296 0.06768 0.46698
 O85 O 0.04860 0.00616 0.45020
 O86 O -0.08586 -0.00607 0.46527
 O87 O -0.06683 -0.02396 0.54745
 O88 O 0.06815 -0.01237 0.53218
 O89 O 0.00675 0.04932 0.54896
 O90 O -0.00547 -0.08534 0.53375
 Cu91 Cu -0.02038 0.00206 0.45028
 Cu92 Cu 0.00276 -0.01966 0.54882
 C93 C -0.01714 -0.09956 0.49015
 C94 C -0.00191 0.08151 0.51086
 C95 C 0.08135 -0.00192 0.48832
 C96 C -0.09945 -0.01716 0.50885
 C97 C -0.23730 0.53421 1.00185
 C98 C -0.20150 0.57526 0.99018
 C99 C -0.15136 0.56794 0.98933
 C100 C -0.33162 0.55011 1.00372
 C101 C -0.17266 0.47813 1.01126
 C102 C -0.22287 0.48558 1.01210
 C103 C -0.28873 0.54232 1.00323
 C104 C -0.13626 0.51931 1.00015
 H105 H -0.21226 0.61305 0.98205
 H106 H -0.12434 0.60047 0.98071
 H107 H -0.16226 0.44026 1.01988
 H108 H -0.25031 0.45350 1.02105
 C109 C 0.25572 0.47479 1.02609
 C110 C 0.23992 0.52280 1.01654
 C111 C 0.18894 0.52837 1.01489
 C112 C 0.34993 0.46281 1.01929
 C113 C 0.16946 0.43783 1.03320
 C114 C 0.22049 0.43237 1.03483
 C115 C 0.30734 0.46868 1.02349
 C116 C 0.15304 0.48587 1.02263
 H117 H 0.26685 0.55585 1.00942
 H118 H 0.17756 0.56588 1.00673
 H119 H 0.14280 0.40439 1.03936
 H120 H 0.23231 0.39499 1.04193
 C121 C -0.02476 -0.25649 0.47311
 C122 C -0.03442 -0.22146 0.43076
 C123 C -0.03285 -0.17045 0.43628
 C124 C -0.01807 -0.35080 0.46100
 C125 C -0.01270 -0.18953 0.52676
 C126 C -0.01430 -0.24050 0.52113
 C127 C -0.02221 -0.30815 0.46692
 C128 C -0.02140 -0.15383 0.48433
 H129 H -0.04224 -0.23344 0.39338
 H130 H -0.03976 -0.14396 0.40289
 H131 H -0.00384 -0.17800 0.56427
 H132 H -0.00645 -0.26728 0.55412
 C133 C -0.00233 0.23634 0.53295
 C134 C -0.01330 0.22165 0.48434
 C135 C -0.01233 0.17144 0.47688
 C136 C -0.00437 0.33074 0.54872
 C137 C 0.01118 0.15061 0.56665
 C138 C 0.01019 0.20076 0.57398
 C139 C -0.00380 0.28780 0.54103
 C140 C -0.00035 0.13527 0.51804
 H141 H -0.02292 0.24892 0.45226
 H142 H -0.02150 0.16085 0.43902
 H143 H 0.02048 0.12377 0.59917
 H144 H 0.01888 0.21172 0.61176
 C145 C 0.52786 0.02426 -0.25535
 C146 C 0.47969 0.01430 -0.24028
 C147 C 0.47393 0.01248 -0.18948
 C148 C 0.53993 0.01787 -0.34944
 C149 C 0.56460 0.03142 -0.16873
 C150 C 0.57025 0.03320 -0.21958
 C151 C 0.53412 0.02189 -0.30686
 C152 C 0.51639 0.02046 -0.15305
 H153 H 0.44668 0.00701 -0.26764
 H154 H 0.43630 0.00404 -0.17867
 H155 H 0.59800 0.03778 -0.14165
 H156 H 0.60774 0.04062 -0.23087
 C157 C 0.46637 0.00109 0.23532
 C158 C 0.51514 0.01157 0.22159
 C159 C 0.52278 0.01056 0.17161
 C160 C 0.45050 0.00318 0.32932
 C161 C 0.43285 -0.01200 0.14911
 C162 C 0.42534 -0.01097 0.19904
 C163 C 0.45816 0.00258 0.28654
 C164 C 0.48163 -0.00096 0.13473
 H165 H 0.54720 0.02082 0.24943
 H166 H 0.56076 0.01935 0.16176
 H167 H 0.40035 -0.02094 0.12169
 H168 H 0.38745 -0.01929 0.20928
 C169 C 0.53417 -0.23732 -0.00262
 C170 C 0.48548 -0.22290 -0.01377
 C171 C 0.47798 -0.17272 -0.01279
 C172 C 0.55011 -0.33166 -0.00441
 C173 C 0.56788 -0.15141 0.01105
 C174 C 0.57525 -0.20152 0.01005
 C175 C 0.54231 -0.28875 -0.00399
 C176 C 0.51919 -0.13633 -0.00063
 H177 H 0.45337 -0.25034 -0.02349
 H178 H 0.44006 -0.16234 -0.02207
 H179 H 0.60043 -0.12440 0.02049
 H180 H 0.61308 -0.21228 0.01888
 C181 C 0.47433 0.25504 -0.02409
 C182 C 0.43188 0.21983 -0.03386
 C183 C 0.43736 0.16884 -0.03231
 C184 C 0.46239 0.34939 -0.01751
 C185 C 0.52800 0.18831 -0.01195
 C186 C 0.52241 0.23926 -0.01353
 C187 C 0.46820 0.30671 -0.02159
 C188 C 0.48547 0.15244 -0.02078
 H189 H 0.39445 0.23165 -0.04177
 H190 H 0.40390 0.14220 -0.03933
 H191 H 0.56557 0.17695 -0.00303
 H192 H 0.55548 0.26618 -0.00560
 C193 C -0.25616 -0.02484 0.52576
 C194 C -0.24086 -0.01499 0.47777
 C195 C -0.18996 -0.01337 0.47217
 C196 C -0.35029 -0.01808 0.53789
 C197 C -0.16956 -0.03230 0.56264
 C198 C -0.22051 -0.03389 0.56813
 C199 C -0.30773 -0.02226 0.53194
 C200 C -0.15365 -0.02145 0.51462
 H201 H -0.26812 -0.00761 0.44477
 H202 H -0.17897 -0.00499 0.43468
 H203 H -0.14258 -0.03873 0.59604
 H204 H -0.23196 -0.04123 0.60549
 C205 C 0.23585 -0.00254 0.46633
 C206 C 0.19968 0.00941 0.42528
 C207 C 0.14964 0.01048 0.43259
 C208 C 0.33002 -0.00471 0.45055
 C209 C 0.17177 -0.01179 0.52235
 C210 C 0.22188 -0.01285 0.51492
 C211 C 0.28719 -0.00409 0.45826
 C212 C 0.13500 -0.00040 0.48118
 H213 H 0.21010 0.01760 0.38753
 H214 H 0.12232 0.01932 0.40007
 H215 H 0.16173 -0.02046 0.56020
 H216 H 0.24962 -0.02201 0.54700
 C217 C 0.02367 0.52618 1.25717
 C218 C 0.01348 0.47826 1.24093
 C219 C 0.01196 0.47284 1.18997
 C220 C 0.01691 0.53826 1.35134
 C221 C 0.03163 0.56332 1.17138
 C222 C 0.03314 0.56863 1.22238
 C223 C 0.02106 0.53224 1.30879
 C224 C 0.02046 0.51538 1.15451
 H225 H 0.00579 0.44519 1.26750
 H226 H 0.00331 0.43540 1.17824
 H227 H 0.03839 0.59679 1.14508
 H228 H 0.04074 0.60595 1.23453
 C229 C 0.00140 0.46855 0.76414
 C230 C 0.01203 0.51707 0.77906
 C231 C 0.01102 0.52434 0.82926
 C232 C 0.00356 0.45284 0.66984
 C233 C -0.01185 0.43455 0.84961
 C234 C -0.01082 0.42741 0.79948
 C235 C 0.00295 0.46060 0.71271
 C236 C -0.00065 0.48307 0.86519
 H237 H 0.02142 0.54923 0.75199
 H238 H 0.01995 0.56214 0.84003
 H239 H -0.02090 0.40195 0.87625
 H240 H -0.01925 0.38970 0.78836
   
