data_POSCAR
  _audit_creation_date              2014-09-24
  _audit_creation_method            'ToBaCCo'
  _symmetry_space_group_name_H-M    'P1'
  _symmetry_Int_Tables_number       1
  _symmetry_cell_setting            triclinic
  loop_
  _symmetry_equiv_pos_as_xyz
 x,y,z
_cell_length_a 23.6701
_cell_length_b 23.6363
_cell_length_c 23.8390
_cell_angle_alpha 89.343100
_cell_angle_beta 91.769900
_cell_angle_gamma 92.826000
loop_
  _atom_site_label
  _atom_site_type_symbol
  _atom_site_fract_x
  _atom_site_fract_y
  _atom_site_fract_z
C1 C 0.00075 0.44496 0.21918
 C2 C 0.05587 0.45160 0.25426
 C3 C 0.05996 0.49826 0.28728
 C4 C 0.00754 0.53449 0.28329
 C5 C -0.04475 0.44573 0.26331
 C6 C -0.04213 0.49199 0.29645
 C7 C -0.00315 0.50111 0.18695
 C8 C 0.00081 0.54806 0.22000
 H9 H 0.08841 0.42093 0.25471
 H10 H 0.01069 0.57220 0.31077
 H11 H -0.07647 0.41191 0.26920
 H12 H -0.00738 0.50333 0.14162
 C13 C 0.02636 0.45487 0.77907
 C14 C -0.01552 0.45008 0.73340
 C15 C -0.01924 0.49969 0.69897
 C16 C 0.02252 0.54481 0.71544
 C17 C 0.07935 0.47031 0.75297
 C18 C 0.07744 0.51845 0.71660
 C19 C 0.01331 0.50593 0.80945
 C20 C 0.01120 0.55628 0.77453
 H21 H -0.04783 0.41583 0.73171
 H22 H 0.02109 0.58130 0.68594
 H23 H 0.11733 0.44673 0.75882
 H24 H 0.01625 0.50853 0.85469
 C25 C 0.20949 -0.02709 0.44476
 C26 C 0.24959 0.02534 0.44342
 C27 C 0.28413 0.03428 0.48967
 C28 C 0.27488 -0.01320 0.53504
 C29 C 0.24801 -0.07593 0.45730
 C30 C 0.28136 -0.06999 0.50431
 C31 C 0.17717 -0.02126 0.49903
 C32 C 0.21055 -0.01381 0.54696
 H33 H 0.24614 0.05560 0.40937
 H34 H 0.30330 -0.00809 0.57261
 H35 H 0.24635 -0.11525 0.43475
 H36 H 0.13154 -0.02650 0.49904
 C37 C 0.78419 0.03125 0.43800
 C38 C 0.75916 -0.02578 0.43356
 C39 C 0.72484 -0.04369 0.47927
 C40 C 0.72080 0.00010 0.52116
 C41 C 0.73403 0.06878 0.44574
 C42 C 0.70044 0.05182 0.48854
 C43 C 0.81569 0.03344 0.49514
 C44 C 0.78223 0.01681 0.53826
 H45 H 0.77122 -0.05441 0.40133
 H46 H 0.69352 -0.01093 0.55706
 H47 H 0.72969 0.10980 0.42593
 H48 H 0.85982 0.04706 0.50100
 C49 C 0.44153 0.21964 1.00748
 C50 C 0.44454 0.25855 1.05437
 C51 C 0.49554 0.29356 1.05838
 C52 C 0.53427 0.28428 1.01217
 C53 C 0.44849 0.25721 0.95937
 C54 C 0.49910 0.29297 0.96091
 C55 C 0.49286 0.18845 1.01206
 C56 C 0.54463 0.22320 1.01409
 H57 H 0.41088 0.26194 1.08373
 H58 H 0.57275 0.31299 1.01481
 H59 H 0.41657 0.26101 0.92629
 H60 H 0.49180 0.14283 1.00770
 C61 C 0.41990 0.76867 0.99037
 C62 C 0.42704 0.72230 0.94745
 C63 C 0.47728 0.69682 0.95197
 C64 C 0.51269 0.71490 1.00496
 C65 C 0.42423 0.73758 1.04641
 C66 C 0.47281 0.70999 1.05527
 C67 C 0.47177 0.80502 0.98723
 C68 C 0.52318 0.77568 0.99656
 H69 H 0.40252 0.71961 0.90858
 H70 H 0.55079 0.68969 1.01039
 H71 H 0.39188 0.73924 1.07746
 H72 H 0.47129 0.85029 0.97991
 B73 B 0.98614 1.05699 0.02801
 B74 B 0.98573 1.05918 -0.04365
 B75 B 1.04393 1.03493 -0.00777
 B76 B 1.02051 0.99727 0.05030
 B77 B 0.94786 0.99685 0.05064
 B78 B 0.92461 1.03437 -0.00891
 B79 B 0.97931 0.94022 -0.04573
 B80 B 0.98166 0.93812 0.02701
 B81 B 0.92213 0.96108 -0.00969
 B82 B 0.94554 1.00014 -0.06705
 B83 B 1.01860 0.99994 -0.06750
 B84 B 1.04057 0.96257 -0.00905
 B85 B 0.57182 0.49252 0.47062
 B86 B 0.57650 0.49488 0.54285
 B87 B 0.55621 0.55428 0.50534
 B88 B 0.51452 0.53142 0.44806
 B89 B 0.50846 0.45886 0.45011
 B90 B 0.54542 0.43457 0.50957
 B91 B 0.45814 0.49894 0.54592
 B92 B 0.45367 0.49760 0.47364
 B93 B 0.47407 0.43762 0.51092
 B94 B 0.51575 0.46122 0.56884
 B95 B 0.52140 0.53421 0.56593
 B96 B 0.48299 0.55689 0.50712
 C97 C 0.99382 1.28532 0.13313
 C98 C 1.04420 1.31920 0.13317
 C99 C 1.04538 1.37291 0.15762
 C100 C 0.99659 1.39260 0.18212
 C101 C 0.94479 1.36077 0.17446
 C102 C 0.94360 1.30634 0.15205
 C103 C 0.99312 1.22748 0.11090
 C104 C 0.94261 1.19438 0.10903
 C105 C 0.94169 1.14086 0.08446
 C106 C 0.99003 1.11824 0.06172
 C107 C 1.03831 1.15621 0.05977
 C108 C 1.04132 1.20871 0.08631
 C109 C 0.89333 1.27219 0.14896
 C110 C 0.89285 1.21708 0.12776
 C111 C 1.09242 1.29833 0.10931
 C112 C 1.09068 1.24434 0.08527
 H113 H 0.85415 1.28808 0.16324
 H114 H 0.85315 1.19225 0.12554
 H115 H 1.13152 1.32413 0.10859
 H116 H 1.12835 1.23018 0.06606
 H117 H 1.08463 1.39851 0.15918
 H118 H 0.90540 1.37721 0.18723
 H119 H 0.90127 1.12381 0.07248
 H120 H 1.07025 1.15113 0.03043
 C121 C 0.99991 0.71446 0.14638
 C122 C 1.03285 0.67345 0.12303
 C123 C 1.03359 0.61934 0.14780
 C124 C 1.00240 0.60640 0.19612
 C125 C 0.97149 0.64885 0.22016
 C126 C 0.96873 0.70247 0.19454
 C127 C 0.99642 0.77037 0.11869
 C128 C 0.95985 0.80955 0.13872
 C129 C 0.95342 0.86072 0.10921
 C130 C 0.98560 0.87625 0.06172
 C131 C 1.02179 0.83459 0.04347
 C132 C 1.02694 0.78220 0.07054
 C133 C 0.93402 0.74376 0.21490
 C134 C 0.92896 0.79605 0.18694
 C135 C 1.06333 0.68707 0.07466
 C136 C 1.06063 0.74065 0.04898
 H137 H 0.90946 0.73504 0.25190
 H138 H 0.90068 0.82616 0.20320
 H139 H 1.08903 0.65592 0.05620
 H140 H 1.08434 0.74930 0.01140
 H141 H 1.05835 0.58728 0.12952
 H142 H 0.94800 0.63977 0.25745
 H143 H 0.91902 0.88545 0.12101
 H144 H 1.04219 0.83962 0.00487
 C145 C 1.01828 1.29265 -0.14176
 C146 C 0.99506 1.33823 -0.11479
 C147 C 0.99967 1.39245 -0.13907
 C148 C 1.02774 1.40162 -0.19019
 C149 C 1.05021 1.35434 -0.21649
 C150 C 1.04611 1.30033 -0.19234
 C151 C 1.01092 1.23521 -0.11796
 C152 C 1.03213 1.18932 -0.14550
 C153 C 1.02374 1.13467 -0.12280
 C154 C 0.99369 1.12364 -0.07318
 C155 C 0.97236 1.17206 -0.04819
 C156 C 0.98096 1.22691 -0.06914
 C157 C 1.06774 1.25349 -0.21877
 C158 C 1.06109 1.19885 -0.19557
 C159 C 0.96586 1.32826 -0.06498
 C160 C 0.95880 1.27341 -0.04255
 H161 H 1.08948 1.25903 -0.25794
 H162 H 1.07799 1.16374 -0.21740
 H163 H 0.94766 1.36292 -0.04361
 H164 H 0.93542 1.26730 -0.00439
 H165 H 0.97882 1.42625 -0.11919
 H166 H 1.06913 1.35918 -0.25723
 H167 H 1.04195 1.10234 -0.14479
 H168 H 0.94523 1.16837 -0.01375
 C169 C 0.98368 0.71770 -0.15906
 C170 C 0.96590 0.66876 -0.12951
 C171 C 0.97483 0.61555 -0.15198
 C172 C 1.00145 0.61053 -0.20396
 C173 C 1.01804 0.66080 -0.23332
 C174 C 1.00939 0.71424 -0.21099
 C175 C 0.97648 0.77369 -0.13443
 C176 C 0.99563 0.82259 -0.16283
 C177 C 0.99214 0.87530 -0.13712
 C178 C 0.97316 0.88028 -0.08159
 C179 C 0.94780 0.83045 -0.05798
 C180 C 0.95134 0.77730 -0.08250
 C181 C 1.02690 0.76443 -0.23910
 C182 C 1.02000 0.81773 -0.21549
 C183 C 0.93982 0.67402 -0.07776
 C184 C 0.93245 0.72744 -0.05473
 H185 H 1.04673 0.76248 -0.27935
 H186 H 1.03501 0.85533 -0.23804
 H187 H 0.92562 0.63657 -0.05455
 H188 H 0.91307 0.72966 -0.01426
 H189 H 0.95955 0.57829 -0.12918
 H190 H 1.04024 0.65933 -0.27216
 H191 H 1.00606 0.91103 -0.16076
 H192 H 0.92854 0.83113 -0.01838
 C193 C 1.12191 0.97701 0.28194
 C194 C 1.14934 0.92792 0.29778
 C195 C 1.17428 0.92405 0.35185
 C196 C 1.17242 0.96920 0.39044
 C197 C 1.14051 1.01617 0.37463
 C198 C 1.11633 1.02083 0.32028
 C199 C 1.09935 0.98299 0.22377
 C200 C 1.07302 1.03241 0.20765
 C201 C 1.05107 1.03767 0.15269
 C202 C 1.05458 0.99416 0.11220
 C203 C 1.08084 0.94427 0.13098
 C204 C 1.10368 0.93881 0.18578
 C205 C 1.08850 1.06941 0.30276
 C206 C 1.06731 1.07515 0.24740
 C207 C 1.15285 0.88430 0.25852
 C208 C 1.13008 0.88948 0.20365
 H209 H 1.08369 1.10361 0.33184
 H210 H 1.04630 1.11342 0.23561
 H211 H 1.17370 0.84591 0.27019
 H212 H 1.13358 0.85477 0.17485
 H213 H 1.19631 0.88633 0.36182
 H214 H 1.13777 1.05086 0.40362
 H215 H 1.02851 1.07474 0.14376
 H216 H 1.08341 0.90885 0.10349
 C217 C 1.13475 0.99294 -0.28997
 C218 C 1.19111 0.97778 -0.29273
 C219 C 1.21643 0.97588 -0.34578
 C220 C 1.18585 0.99021 -0.39569
 C221 C 1.12988 1.00744 -0.39082
 C222 C 1.10404 1.00791 -0.33872
 C223 C 1.10729 0.99390 -0.23489
 C224 C 1.05131 1.00893 -0.23273
 C225 C 1.02559 1.01063 -0.18086
 C226 C 1.05349 0.99863 -0.12868
 C227 C 1.11139 0.98504 -0.13304
 C228 C 1.13787 0.98170 -0.18546
 C229 C 1.04772 1.02307 -0.33455
 C230 C 1.02176 1.02334 -0.28255
 C231 C 1.22057 0.96485 -0.24222
 C232 C 1.19468 0.96734 -0.18966
 H233 H 1.02341 1.03465 -0.37183
 H234 H 0.97819 1.03529 -0.28134
 H235 H 1.26419 0.95315 -0.24324
 H236 H 1.21930 0.95759 -0.15201
 H237 H 1.25930 0.96233 -0.34795
 H238 H 1.10589 1.02083 -0.42756
 H239 H 0.98481 1.02582 -0.18266
 H240 H 1.13799 0.98099 -0.09612
 C241 C 0.86628 1.03367 0.28254
 C242 C 0.89195 1.00706 0.32881
 C243 C 0.86959 1.01350 0.38185
 C244 C 0.82058 1.04442 0.38805
 C245 C 0.79857 1.07441 0.34157
 C246 C 0.82086 1.06873 0.28883
 C247 C 0.88458 1.02156 0.22598
 C248 C 0.85737 1.04582 0.18003
 C249 C 0.87493 1.03419 0.12658
 C250 C 0.91974 0.99944 0.11502
 C251 C 0.94451 0.97415 0.16396
 C252 C 0.92781 0.98486 0.21857
 C253 C 0.79537 1.09380 0.24155
 C254 C 0.81338 1.08253 0.18787
 C255 C 0.93642 0.97111 0.32028
 C256 C 0.95405 0.96011 0.26593
 H257 H 0.76028 1.12103 0.24594
 H258 H 0.79211 1.10193 0.15217
 H259 H 0.95672 0.95025 0.35566
 H260 H 0.98794 0.93156 0.26093
 H261 H 0.88630 0.98945 0.41706
 H262 H 0.76059 1.09754 0.34412
 H263 H 0.85427 1.05727 0.09627
 H264 H 0.97839 0.94644 0.16160
 C265 C 0.83785 1.00985 -0.29193
 C266 C 0.82408 0.95919 -0.32055
 C267 C 0.80610 0.96189 -0.37675
 C268 C 0.80266 1.01457 -0.40382
 C269 C 0.81658 1.06495 -0.37516
 C270 C 0.83401 1.06287 -0.31874
 C271 C 0.85816 1.00728 -0.23332
 C272 C 0.87247 1.05761 -0.20492
 C273 C 0.89580 1.05475 -0.15067
 C274 C 0.90753 1.00239 -0.12477
 C275 C 0.88837 0.95250 -0.15311
 C276 C 0.86480 0.95454 -0.20738
 C277 C 0.84796 1.11255 -0.28869
 C278 C 0.86681 1.10996 -0.23251
 C279 C 0.82919 0.90701 -0.29259
 C280 C 0.84935 0.90472 -0.23678
 H281 H 0.84486 1.15363 -0.30889
 H282 H 0.87819 1.14916 -0.21087
 H283 H 0.81840 0.86772 -0.31427
 H284 H 0.85404 0.86368 -0.21689
 H285 H 0.79573 0.92328 -0.39974
 H286 H 0.81318 1.10539 -0.39667
 H287 H 0.91118 1.09363 -0.13283
 H288 H 0.88954 0.91178 -0.13294
 C289 C 1.28122 1.13047 0.00014
 C290 C 1.30882 1.14270 -0.04995
 C291 C 1.36423 1.16624 -0.04743
 C292 C 1.39036 1.18267 0.00474
 C293 C 1.36409 1.16323 0.05444
 C294 C 1.30898 1.13898 0.05242
 C295 C 1.22166 1.10964 -0.00213
 C296 C 1.19385 1.09854 0.04773
 C297 C 1.13727 1.07930 0.04515
 C298 C 1.10740 1.06784 -0.00627
 C299 C 1.13569 1.08491 -0.05536
 C300 C 1.19291 1.10345 -0.05397
 C301 C 1.27996 1.12595 0.10176
 C302 C 1.22312 1.10632 0.09946
 C303 C 1.27940 1.13398 -0.10153
 C304 C 1.22215 1.11525 -0.10351
 H305 H 1.30090 1.13224 0.14243
 H306 H 1.20188 1.09730 0.13842
 H307 H 1.30030 1.14325 -0.14062
 H308 H 1.20064 1.10996 -0.14404
 H309 H 1.38556 1.17413 -0.08648
 H310 H 1.38514 1.16979 0.09503
 H311 H 1.11705 1.07441 0.08396
 H312 H 1.11471 1.08330 -0.09529
 C313 C 0.70148 1.14558 0.00161
 C314 C 0.65625 1.11635 0.02747
 C315 C 0.60501 1.14287 0.03248
 C316 C 0.59852 1.19915 0.01306
 C317 C 0.64612 1.22880 -0.00974
 C318 C 0.69684 1.20150 -0.01747
 C319 C 0.75488 1.11702 -0.00541
 C320 C 0.79933 1.14461 -0.03342
 C321 C 0.84992 1.11667 -0.03981
 C322 C 0.86095 1.06465 -0.01211
 C323 C 0.81253 1.03741 0.01253
 C324 C 0.76042 1.06245 0.01586
 C325 C 0.74265 1.22836 -0.04518
 C326 C 0.79259 1.20006 -0.05391
 C327 C 0.66303 1.06084 0.04747
 C328 C 0.71446 1.03454 0.04227
 H329 H 0.73965 1.27135 -0.06084
 H330 H 0.82670 1.22227 -0.07567
 H331 H 0.62848 1.03769 0.06765
 H332 H 0.71822 0.99199 0.05891
 H333 H 0.57072 1.11967 0.05295
 H334 H 0.64350 1.27187 -0.02444
 H335 H 0.87862 1.13667 -0.06750
 H336 H 0.81620 0.99827 0.03559
 C337 C 1.26226 0.85445 -0.01611
 C338 C 1.30643 0.87293 0.02093
 C339 C 1.35779 0.84597 0.02098
 C340 C 1.36519 0.80020 -0.01511
 C341 C 1.31957 0.78215 -0.05161
 C342 C 1.26863 0.80964 -0.05285
 C343 C 1.20759 0.88128 -0.01513
 C344 C 1.16336 0.86285 -0.05173
 C345 C 1.11141 0.88849 -0.05001
 C346 C 1.10124 0.93083 -0.01044
 C347 C 1.14768 0.94809 0.02509
 C348 C 1.20027 0.92426 0.02308
 C349 C 1.22342 0.79229 -0.08937
 C350 C 1.17174 0.81883 -0.08916
 C351 C 1.29784 0.91719 0.05803
 C352 C 1.24549 0.94235 0.05922
 H353 H 1.22794 0.75779 -0.11818
 H354 H 1.13784 0.80419 -0.11784
 H355 H 1.33155 0.93197 0.08682
 H356 H 1.24024 0.97593 0.08892
 H357 H 1.39165 0.85943 0.05024
 H358 H 1.32157 0.74568 -0.07798
 H359 H 1.07948 0.87477 -0.07976
 H360 H 1.14388 0.97937 0.05599
 C361 C 0.68950 0.84833 -0.01145
 C362 C 0.64588 0.87224 -0.04353
 C363 C 0.59006 0.84973 -0.03894
 C364 C 0.57821 0.80166 -0.00464
 C365 C 0.62306 0.77861 0.02731
 C366 C 0.67836 0.80225 0.02470
 C367 C 0.74795 0.87257 -0.01505
 C368 C 0.79059 0.85171 0.01992
 C369 C 0.84498 0.87794 0.01937
 C370 C 0.85956 0.92429 -0.01604
 C371 C 0.81521 0.94121 -0.05372
 C372 C 0.75980 0.91724 -0.05216
 C373 C 0.72276 0.78094 0.05788
 C374 C 0.77784 0.80561 0.05593
 C375 C 0.65926 0.91773 -0.08006
 C376 C 0.71531 0.93948 -0.08470
 H377 H 0.71473 0.74542 0.08614
 H378 H 0.81064 0.78866 0.08305
 H379 H 0.62621 0.93656 -0.10538
 H380 H 0.72371 0.97472 -0.11321
 H381 H 0.55672 0.86772 -0.06455
 H382 H 0.61493 0.74363 0.05616
 H383 H 0.87518 0.86022 0.04619
 H384 H 0.81995 0.97878 -0.07897
 C385 C 0.80493 0.49683 0.38244
 C386 C 0.82591 0.54599 0.35481
 C387 C 0.88024 0.54713 0.33292
 C388 C 0.91268 0.49909 0.33699
 C389 C 0.89253 0.45157 0.36834
 C390 C 0.83802 0.44963 0.38986
 C391 C 0.74580 0.49324 0.40027
 C392 C 0.72298 0.44298 0.42358
 C393 C 0.66632 0.44046 0.44010
 C394 C 0.63234 0.48837 0.43665
 C395 C 0.65540 0.53426 0.40533
 C396 C 0.71171 0.53863 0.38952
 C397 C 0.81423 0.39997 0.41451
 C398 C 0.75745 0.39648 0.43042
 C399 C 0.79041 0.59126 0.34560
 C400 C 0.73408 0.58747 0.36231
 H401 H 0.83917 0.36298 0.42001
 H402 H 0.74040 0.35707 0.44815
 H403 H 0.80582 0.62927 0.32399
 H404 H 0.70777 0.62295 0.35370
 H405 H 0.89455 0.58299 0.30798
 H406 H 0.91727 0.41418 0.37132
 H407 H 0.64978 0.40061 0.45614
 H408 H 0.62966 0.56495 0.38825
 C409 C 0.21834 0.50866 0.37491
 C410 C 0.17884 0.46416 0.38668
 C411 C 0.12459 0.46465 0.36208
 C412 C 0.10998 0.50833 0.32476
 C413 C 0.14888 0.55422 0.31519
 C414 C 0.20364 0.55443 0.34024
 C415 C 0.27683 0.50596 0.39758
 C416 C 0.31701 0.54929 0.38565
 C417 C 0.37254 0.54598 0.40818
 C418 C 0.38929 0.50037 0.44316
 C419 C 0.34679 0.45753 0.45234
 C420 C 0.29161 0.45966 0.43050
 C421 C 0.24496 0.59774 0.32945
 C422 C 0.30057 0.59539 0.35203
 C423 C 0.19526 0.41842 0.42034
 C424 C 0.25084 0.41606 0.44165
 H425 H 0.23444 0.63342 0.30286
 H426 H 0.33109 0.62958 0.34255
 H427 H 0.16524 0.38367 0.42941
 H428 H 0.26211 0.37952 0.46663
 H429 H 0.09476 0.42906 0.36879
 H430 H 0.13788 0.58732 0.28555
 H431 H 0.40034 0.58140 0.40145
 H432 H 0.35421 0.42228 0.47811
 C433 C 0.81983 0.50578 0.62270
 C434 C 0.84321 0.55440 0.64970
 C435 C 0.90010 0.55546 0.66916
 C436 C 0.93158 0.50643 0.66539
 C437 C 0.90776 0.45921 0.63587
 C438 C 0.85221 0.45868 0.61443
 C439 C 0.75941 0.50278 0.60538
 C440 C 0.73612 0.45428 0.57934
 C441 C 0.67909 0.45228 0.56220
 C442 C 0.64239 0.49627 0.57151
 C443 C 0.66721 0.54214 0.60301
 C444 C 0.72531 0.54711 0.61764
 C445 C 0.82736 0.41052 0.58786
 C446 C 0.77024 0.40839 0.57054
 C447 C 0.80796 0.59917 0.65994
 C448 C 0.74987 0.59527 0.64488
 H449 H 0.85195 0.37381 0.58136
 H450 H 0.75236 0.37009 0.55112
 H451 H 0.82502 0.63683 0.68117
 H452 H 0.72403 0.63028 0.65450
 H453 H 0.91733 0.59176 0.69250
 H454 H 0.93193 0.42173 0.63170
 H455 H 0.66504 0.41582 0.54046
 H456 H 0.64242 0.57314 0.61955
 C457 C 0.22773 0.52021 0.63409
 C458 C 0.21333 0.57023 0.66044
 C459 C 0.15850 0.57367 0.68142
 C460 C 0.11967 0.52665 0.67724
 C461 C 0.13387 0.47890 0.64676
 C462 C 0.18796 0.47487 0.62628
 C463 C 0.28643 0.51363 0.61737
 C464 C 0.30115 0.46276 0.59399
 C465 C 0.35655 0.45716 0.57742
 C466 C 0.39777 0.50253 0.57946
 C467 C 0.38287 0.55060 0.60966
 C468 C 0.32734 0.55723 0.62717
 C469 C 0.20424 0.42444 0.60233
 C470 C 0.26016 0.41825 0.58706
 C471 C 0.25541 0.61372 0.66884
 C472 C 0.31142 0.60734 0.65250
 H473 H 0.17390 0.38897 0.59673
 H474 H 0.27138 0.37836 0.56958
 H475 H 0.24524 0.65256 0.68912
 H476 H 0.34253 0.64186 0.65983
 H477 H 0.14842 0.60992 0.70606
 H478 H 0.10422 0.44242 0.64391
 H479 H 0.36726 0.41604 0.56495
 H480 H 0.41152 0.58595 0.61455
 C481 C 0.50352 0.64072 0.21971
 C482 C 0.52347 0.61252 0.17318
 C483 C 0.51556 0.63602 0.11898
 C484 C 0.48785 0.68714 0.11184
 C485 C 0.47122 0.71607 0.15964
 C486 C 0.47807 0.69275 0.21335
 C487 C 0.50857 0.61499 0.27620
 C488 C 0.48778 0.64255 0.32218
 C489 C 0.49098 0.61693 0.37533
 C490 C 0.51345 0.56307 0.38469
 C491 C 0.53869 0.53961 0.33735
 C492 C 0.53461 0.56370 0.28334
 C493 C 0.45876 0.71993 0.26071
 C494 C 0.46344 0.69518 0.31425
 C495 C 0.54989 0.56102 0.18204
 C496 C 0.55597 0.53739 0.23626
 H497 H 0.43913 0.76025 0.25624
 H498 H 0.44735 0.71713 0.34963
 H499 H 0.56582 0.53872 0.14684
 H500 H 0.57663 0.49767 0.24118
 H501 H 0.52895 0.61375 0.08259
 H502 H 0.45179 0.75650 0.15501
 H503 H 0.47487 0.63984 0.40859
 H504 H 0.56399 0.50359 0.34182
 C505 C 0.52348 0.64255 0.79121
 C506 C 0.54079 0.61076 0.83845
 C507 C 0.52937 0.62989 0.89252
 C508 C 0.50294 0.68132 0.89848
 C509 C 0.49387 0.71610 0.85061
 C510 C 0.50082 0.69557 0.79691
 C511 C 0.52714 0.61899 0.73472
 C512 C 0.50538 0.64809 0.68814
 C513 C 0.50467 0.62259 0.63530
 C514 C 0.52635 0.56856 0.62702
 C515 C 0.55556 0.54610 0.67421
 C516 C 0.55274 0.56798 0.72818
 C517 C 0.48233 0.72548 0.74899
 C518 C 0.48373 0.70168 0.69545
 C519 C 0.56708 0.55966 0.83013
 C520 C 0.57465 0.53961 0.77572
 H521 H 0.46458 0.76656 0.75313
 H522 H 0.46727 0.72508 0.65968
 H523 H 0.58177 0.53501 0.86580
 H524 H 0.59578 0.50050 0.77105
 H525 H 0.53811 0.60382 0.92916
 H526 H 0.47642 0.75734 0.85498
 H527 H 0.48643 0.64563 0.60169
 H528 H 0.58432 0.51412 0.66925
 C529 C 0.50758 0.37529 0.21340
 C530 C 0.45952 0.38138 0.17864
 C531 C 0.45821 0.35858 0.12468
 C532 C 0.50461 0.33000 0.10465
 C533 C 0.55479 0.32918 0.13811
 C534 C 0.55568 0.35012 0.19350
 C535 C 0.50645 0.39345 0.27254
 C536 C 0.55282 0.38461 0.30840
 C537 C 0.55098 0.40118 0.36466
 C538 C 0.50425 0.42833 0.38680
 C539 C 0.45820 0.43643 0.34830
 C540 C 0.45867 0.41864 0.29223
 C541 C 0.60218 0.34333 0.23071
 C542 C 0.60064 0.35993 0.28718
 C543 C 0.41250 0.40751 0.19950
 C544 C 0.41229 0.42630 0.25516
 H545 H 0.63958 0.32386 0.21644
 H546 H 0.63719 0.35328 0.31451
 H547 H 0.37520 0.41278 0.17282
 H548 H 0.37509 0.44608 0.26956
 H549 H 0.41988 0.36103 0.09880
 H550 H 0.59047 0.30680 0.12377
 H551 H 0.58633 0.39205 0.39087
 H552 H 0.42183 0.45757 0.36025
 C553 C 0.51488 0.37856 0.80802
 C554 C 0.56456 0.36112 0.83544
 C555 C 0.56163 0.33864 0.89059
 C556 C 0.50886 0.33217 0.91665
 C557 C 0.46146 0.35662 0.89040
 C558 C 0.46365 0.37792 0.83581
 C559 C 0.51581 0.39599 0.74844
 C560 C 0.46592 0.41138 0.72112
 C561 C 0.46675 0.42695 0.66456
 C562 C 0.51661 0.43133 0.63335
 C563 C 0.56677 0.41662 0.66385
 C564 C 0.56640 0.39724 0.71998
 C565 C 0.41452 0.39509 0.80736
 C566 C 0.41552 0.41111 0.75074
 C567 C 0.61509 0.36348 0.80567
 C568 C 0.61611 0.38186 0.74916
 H569 H 0.37465 0.39462 0.82857
 H570 H 0.37653 0.42331 0.72996
 H571 H 0.65399 0.35047 0.82596
 H572 H 0.65597 0.38322 0.72791
 H573 H 0.59872 0.32108 0.90995
 H574 H 0.42131 0.35555 0.91124
 H575 H 0.42705 0.43319 0.64578
 H576 H 0.60775 0.42781 0.64805
 C577 C 0.66661 0.78601 0.49230
 C578 C 0.67447 0.81074 0.43927
 C579 C 0.69266 0.86748 0.43549
 C580 C 0.70251 0.90034 0.48420
 C581 C 0.69164 0.87529 0.53715
 C582 C 0.67437 0.81795 0.54137
 C583 C 0.64682 0.72631 0.49624
 C584 C 0.63545 0.70221 0.54848
 C585 C 0.61061 0.64730 0.55105
 C586 C 0.59676 0.61413 0.50279
 C587 C 0.60732 0.64254 0.45133
 C588 C 0.63347 0.69639 0.44733
 C589 C 0.66428 0.79189 0.59361
 C590 C 0.64494 0.73494 0.59711
 C591 C 0.66276 0.77864 0.39081
 C592 C 0.64178 0.72250 0.39477
 H593 H 0.67038 0.81594 0.63193
 H594 H 0.63613 0.71677 0.63805
 H595 H 0.66844 0.79745 0.34958
 H596 H 0.63118 0.69961 0.35642
 H597 H 0.69713 0.88624 0.39411
 H598 H 0.69880 0.89896 0.57545
 H599 H 0.59630 0.63554 0.59088
 H600 H 0.58814 0.62878 0.41353
 C601 C 0.60631 0.19114 0.51755
 C602 C 0.64290 0.17259 0.56078
 C603 C 0.66741 0.12030 0.55563
 C604 C 0.65685 0.08855 0.50675
 C605 C 0.61561 0.10461 0.46686
 C606 C 0.59073 0.15658 0.47159
 C607 C 0.58889 0.24988 0.51737
 C608 C 0.55688 0.27010 0.47217
 C609 C 0.54470 0.32728 0.47029
 C610 C 0.56460 0.36686 0.51162
 C611 C 0.59375 0.34263 0.55791
 C612 C 0.60721 0.28576 0.56079
 C613 C 0.55515 0.17709 0.42858
 C614 C 0.53826 0.23305 0.42898
 C615 C 0.65843 0.20906 0.60531
 C616 C 0.64057 0.26475 0.60549
 H617 H 0.54239 0.15057 0.39318
 H618 H 0.51239 0.24807 0.39412
 H619 H 0.68636 0.19522 0.63907
 H620 H 0.65474 0.29220 0.63976
 H621 H 0.69981 0.10790 0.58584
 H622 H 0.60822 0.07993 0.42902
 H623 H 0.51658 0.33856 0.43725
 H624 H 0.61035 0.36732 0.59088
 C625 C 0.36662 0.77701 0.52393
 C626 C 0.30787 0.77619 0.52950
 C627 C 0.28101 0.82783 0.53112
 C628 C 0.31211 0.88009 0.52484
 C629 C 0.37136 0.88022 0.52206
 C630 C 0.39886 0.82864 0.52136
 C631 C 0.39454 0.72283 0.51756
 C632 C 0.45265 0.72363 0.51036
 C633 C 0.47887 0.67233 0.50422
 C634 C 0.44939 0.61833 0.50661
 C635 C 0.38959 0.62025 0.50980
 C636 C 0.36239 0.67151 0.51656
 C637 C 0.45752 0.82743 0.51460
 C638 C 0.48395 0.77589 0.50935
 C639 C 0.27685 0.72379 0.52960
 C640 C 0.30355 0.67246 0.52288
 H641 H 0.48310 0.86663 0.51244
 H642 H 0.52927 0.77704 0.50389
 H643 H 0.23134 0.72251 0.53366
 H644 H 0.27788 0.63321 0.52256
 H645 H 0.23521 0.82746 0.53211
 H646 H 0.39529 0.91995 0.51572
 H647 H 0.52225 0.67666 0.49702
 H648 H 0.36324 0.58187 0.50899
 C649 C 0.37117 0.19968 0.50191
 C650 C 0.36523 0.16672 0.55100
 C651 C 0.33859 0.11162 0.54765
 C652 C 0.32038 0.08875 0.49505
 C653 C 0.33275 0.12139 0.44616
 C654 C 0.35506 0.17728 0.44948
 C655 C 0.39453 0.25898 0.50525
 C656 C 0.39653 0.29271 0.45675
 C657 C 0.41696 0.34935 0.46041
 C658 C 0.43999 0.37332 0.51105
 C659 C 0.43957 0.33624 0.55868
 C660 C 0.41484 0.28060 0.55664
 C661 C 0.35994 0.21181 0.40124
 C662 C 0.37920 0.26882 0.40496
 C663 C 0.38524 0.19034 0.60229
 C664 C 0.41066 0.24568 0.60485
 H665 H 0.34740 0.19503 0.36038
 H666 H 0.38131 0.29417 0.36685
 H667 H 0.38167 0.16573 0.64073
 H668 H 0.42614 0.26165 0.64518
 H669 H 0.33079 0.08766 0.58582
 H670 H 0.32359 0.10439 0.40480
 H671 H 0.41555 0.37431 0.42282
 H672 H 0.45953 0.34861 0.59737
   
