data_POSCAR
  _audit_creation_date              2014-09-24
  _audit_creation_method            'ToBaCCo'
  _symmetry_space_group_name_H-M    'P1'
  _symmetry_Int_Tables_number       1
  _symmetry_cell_setting            triclinic
  loop_
  _symmetry_equiv_pos_as_xyz
 x,y,z
_cell_length_a 38.2494
_cell_length_b 38.2809
_cell_length_c 34.4924
_cell_angle_alpha 90.116700
_cell_angle_beta 89.957300
_cell_angle_gamma 90.955000
loop_
  _atom_site_label
  _atom_site_type_symbol
  _atom_site_fract_x
  _atom_site_fract_y
  _atom_site_fract_z
O1 O -0.02668 0.28498 0.05440
 O2 O 0.03363 0.29192 -0.02819
 O3 O -0.03461 0.28898 -0.01993
 O4 O 0.04026 0.28600 0.04677
 O5 O 0.03987 0.22848 0.04231
 O6 O -0.03324 0.23164 -0.02643
 O7 O 0.03420 0.23453 -0.03332
 O8 O -0.02815 0.22753 0.04806
 Cu9 Cu 0.00330 0.29378 0.01349
 Cu10 Cu 0.00346 0.22476 0.00712
 C11 C -0.03794 0.25517 0.06512
 C12 C 0.04430 0.26453 -0.04500
 C13 C -0.04689 0.26075 -0.03430
 C14 C 0.05225 0.25662 0.05671
 O15 O 0.45826 0.80094 0.51976
 O16 O 0.53401 0.79367 0.45513
 O17 O 0.46656 0.79548 0.44517
 O18 O 0.52567 0.79787 0.52942
 O19 O 0.52035 0.74062 0.53496
 O20 O 0.46461 0.73788 0.44778
 O21 O 0.53173 0.73624 0.46039
 O22 O 0.45296 0.74347 0.52159
 Cu23 Cu 0.49645 0.80274 0.48697
 Cu24 Cu 0.49211 0.73376 0.49168
 C25 C 0.44227 0.77353 0.53118
 C26 C 0.54615 0.76387 0.44706
 C27 C 0.45565 0.76627 0.43192
 C28 C 0.53303 0.76966 0.54670
 O29 O 0.95891 0.71219 -0.04991
 O30 O 1.02884 0.71081 0.02352
 O31 O 0.96078 0.70940 0.02571
 O32 O 1.02652 0.71224 -0.05190
 O33 O 1.02682 0.76982 -0.05026
 O34 O 0.96183 0.76699 0.02880
 O35 O 1.02986 0.76846 0.02489
 O36 O 0.95868 0.76972 -0.04707
 Cu37 Cu 0.99363 0.70541 -0.01327
 Cu38 Cu 0.99419 0.77452 -0.01068
 C39 C 0.94700 0.74120 -0.06137
 C40 C 1.04152 0.73943 0.03649
 C41 C 0.95034 0.73762 0.04085
 C42 C 1.03793 0.74142 -0.06455
 O43 O 0.46778 0.20756 0.47672
 O44 O 0.53473 0.21444 0.55234
 O45 O 0.46679 0.21482 0.55180
 O46 O 0.53525 0.20944 0.47697
 O47 O 0.53546 0.26689 0.47154
 O48 O 0.46725 0.27226 0.54635
 O49 O 0.53562 0.27188 0.54691
 O50 O 0.46757 0.26504 0.47146
 Cu51 Cu 0.50113 0.20582 0.51518
 Cu52 Cu 0.50155 0.27483 0.50864
 C53 C 0.45641 0.23503 0.46093
 C54 C 0.54676 0.24415 0.56248
 C55 C 0.45520 0.24446 0.56167
 C56 C 0.54674 0.23730 0.46113
 O57 O 0.70988 0.03588 -0.02729
 O58 O 0.71024 -0.03631 0.04279
 O59 O 0.71349 0.03133 0.04822
 O60 O 0.70689 -0.03145 -0.03219
 O61 O 0.76449 -0.03307 -0.03550
 O62 O 0.77108 0.03020 0.04489
 O63 O 0.76774 -0.03801 0.03921
 O64 O 0.76746 0.03459 -0.03066
 Cu65 Cu 0.70437 0.00013 0.00838
 Cu66 Cu 0.77351 -0.00158 0.00431
 C67 C 0.73854 0.04719 -0.04147
 C68 C 0.73898 -0.04986 0.05272
 C69 C 0.74330 0.04147 0.06036
 C70 C 0.73457 -0.04295 -0.04764
 O71 O 0.21384 0.46914 0.53060
 O72 O 0.21414 0.52934 0.44769
 O73 O 0.21600 0.46188 0.45556
 O74 O 0.21322 0.53639 0.52277
 O75 O 0.27090 0.53816 0.52482
 O76 O 0.27368 0.46538 0.45460
 O77 O 0.27178 0.53272 0.44960
 O78 O 0.27156 0.46977 0.53054
 Cu79 Cu 0.20855 0.49893 0.48906
 Cu80 Cu 0.27781 0.50162 0.49022
 C81 C 0.24260 0.45908 0.54468
 C82 C 0.24291 0.54140 0.43449
 C83 C 0.24523 0.45141 0.44294
 C84 C 0.24153 0.54998 0.53539
 O85 O 0.29108 1.03140 0.03003
 O86 O 0.28694 0.97191 -0.05365
 O87 O 0.28678 1.03915 -0.04482
 O88 O 0.29057 0.96369 0.02079
 O89 O 0.23290 0.96151 0.02309
 O90 O 0.22931 1.03899 -0.03991
 O91 O 0.22927 0.97176 -0.05110
 O92 O 0.23366 1.02890 0.03513
 Cu93 Cu 0.29460 1.00176 -0.01216
 Cu94 Cu 0.22550 1.00033 -0.00770
 C95 C 0.26318 1.04011 0.04726
 C96 C 0.25747 0.96179 -0.06684
 C97 C 0.25744 1.05194 -0.05384
 C98 C 0.26235 0.94927 0.03255
 O99 O 0.78620 0.53502 0.54548
 O100 O 0.79195 0.46759 0.46969
 O101 O 0.78865 0.53568 0.47027
 O102 O 0.79004 0.46769 0.54526
 O103 O 0.73234 0.46497 0.54474
 O104 O 0.73117 0.53042 0.46668
 O105 O 0.73439 0.46248 0.46919
 O106 O 0.72858 0.53225 0.54227
 Cu107 Cu 0.79502 0.50184 0.50769
 Cu108 Cu 0.72582 0.49710 0.50534
 C109 C 0.75643 0.54505 0.55695
 C110 C 0.76411 0.45329 0.45673
 C111 C 0.75972 0.54457 0.45556
 C112 C 0.76143 0.45537 0.55852
 C113 C 0.24714 0.24830 0.25353
 C114 C 0.26981 0.22134 0.25617
 C115 C 0.26957 0.19303 0.22682
 C116 C 0.29658 0.21931 0.28712
 C117 C 0.24795 0.27877 0.28055
 C118 C 0.21941 0.24813 0.22349
 C119 C 0.25632 0.15981 0.23643
 C120 C 0.25504 0.13331 0.20852
 C121 C 0.26809 0.13941 0.17107
 C122 C 0.28194 0.17250 0.16167
 C123 C 0.28229 0.19930 0.18927
 C124 C 0.28758 0.22273 0.32646
 C125 C 0.31365 0.22418 0.35482
 C126 C 0.34888 0.22130 0.34423
 C127 C 0.35771 0.21591 0.30528
 C128 C 0.33177 0.21499 0.27691
 C129 C 0.27909 0.29729 0.28889
 C130 C 0.27912 0.32537 0.31494
 C131 C 0.24774 0.33657 0.33206
 C132 C 0.21652 0.31850 0.32258
 C133 C 0.21669 0.28992 0.29745
 C134 C 0.21760 0.27571 0.19695
 C135 C 0.19058 0.27661 0.16978
 C136 C 0.16481 0.24999 0.16888
 C137 C 0.16700 0.22216 0.19524
 C138 C 0.19386 0.22142 0.22254
 H139 H 0.24643 0.15465 0.26533
 H140 H 0.24440 0.10787 0.21628
 H141 H 0.29204 0.17766 0.13286
 H142 H 0.29264 0.22486 0.18153
 H143 H 0.26049 0.22521 0.33504
 H144 H 0.30637 0.22763 0.38490
 H145 H 0.33931 0.21207 0.24682
 H146 H 0.30346 0.28989 0.27546
 H147 H 0.30388 0.33798 0.32165
 H148 H 0.19166 0.32659 0.33422
 H149 H 0.19222 0.27640 0.29120
 H150 H 0.23706 0.29659 0.19743
 H151 H 0.18986 0.29815 0.14953
 H152 H 0.14728 0.20153 0.19556
 H153 H 0.19432 0.20040 0.24347
 H154 H 0.38483 0.21347 0.29674
 C155 C 0.76390 0.73001 0.24725
 C156 C 0.73935 0.75522 0.24797
 C157 C 0.73979 0.78420 0.21965
 C158 C 0.71177 0.75590 0.27816
 C159 C 0.76484 0.70272 0.27745
 C160 C 0.79162 0.72946 0.21727
 C161 C 0.76774 0.80829 0.21848
 C162 C 0.76790 0.83553 0.19157
 C163 C 0.74006 0.83926 0.16526
 C164 C 0.71215 0.81475 0.16673
 C165 C 0.71187 0.78779 0.19389
 C166 C 0.70984 0.78467 0.30317
 C167 C 0.68467 0.78540 0.33243
 C168 C 0.66066 0.75747 0.33710
 C169 C 0.66231 0.72888 0.31148
 C170 C 0.68761 0.72815 0.28221
 C171 C 0.75529 0.66821 0.26817
 C172 C 0.75390 0.64273 0.29708
 C173 C 0.76287 0.65128 0.33546
 C174 C 0.77334 0.68569 0.34446
 C175 C 0.77407 0.71131 0.31568
 C176 C 0.78319 0.72604 0.17781
 C177 C 0.80958 0.72701 0.14973
 C178 C 0.84465 0.73146 0.16084
 C179 C 0.85306 0.73466 0.20026
 C180 C 0.82674 0.73336 0.22831
 H181 H 0.78934 0.80606 0.23856
 H182 H 0.78970 0.85367 0.19209
 H183 H 0.69070 0.81588 0.14637
 H184 H 0.69015 0.76926 0.19436
 H185 H 0.72828 0.80631 0.30045
 H186 H 0.68434 0.80769 0.35180
 H187 H 0.68832 0.70602 0.26264
 H188 H 0.74809 0.66128 0.23874
 H189 H 0.74603 0.61628 0.28948
 H190 H 0.78011 0.69290 0.37391
 H191 H 0.78149 0.73791 0.32318
 H192 H 0.75619 0.72290 0.16883
 H193 H 0.80260 0.72488 0.11941
 H194 H 0.88003 0.73809 0.20925
 H195 H 0.83369 0.73615 0.25862
 H196 H 0.64379 0.70729 0.31364
 C197 C 0.74779 0.22542 0.27181
 C198 C 0.77363 0.25040 0.27080
 C199 C 0.80195 0.24986 0.24119
 C200 C 0.77414 0.28048 0.29820
 C201 C 0.71752 0.22785 0.29854
 C202 C 0.74700 0.19565 0.24419
 C203 C 0.83699 0.25307 0.25296
 C204 C 0.86389 0.25321 0.22555
 C205 C 0.85620 0.24972 0.18596
 C206 C 0.82121 0.24680 0.17406
 C207 C 0.79427 0.24751 0.20140
 C208 C 0.77164 0.27555 0.33851
 C209 C 0.77064 0.30434 0.36350
 C210 C 0.77290 0.33833 0.34855
 C211 C 0.77671 0.34328 0.30854
 C212 C 0.77724 0.31459 0.28355
 C213 C 0.69528 0.25659 0.29734
 C214 C 0.66635 0.25810 0.32200
 C215 C 0.65893 0.23076 0.34814
 C216 C 0.68142 0.20205 0.34922
 C217 C 0.71025 0.20052 0.32444
 C218 C 0.71832 0.19148 0.21925
 C219 C 0.71820 0.16560 0.19076
 C220 C 0.74656 0.14299 0.18691
 C221 C 0.77487 0.14652 0.21274
 C222 C 0.77503 0.17257 0.24126
 H223 H 0.84348 0.25538 0.28343
 H224 H 0.89074 0.25569 0.23525
 H225 H 0.81473 0.24490 0.14357
 H226 H 0.76743 0.24637 0.19148
 H227 H 0.77019 0.24947 0.35056
 H228 H 0.76828 0.30010 0.39442
 H229 H 0.77942 0.31903 0.25263
 H230 H 0.70015 0.27766 0.27703
 H231 H 0.64939 0.28039 0.32007
 H232 H 0.67700 0.18085 0.36943
 H233 H 0.72714 0.17811 0.32567
 H234 H 0.69655 0.20917 0.22091
 H235 H 0.69640 0.16420 0.17087
 H236 H 0.79689 0.12919 0.21087
 H237 H 0.79723 0.17517 0.26058
 H238 H 0.77859 0.36941 0.29663
 C239 C 0.26520 0.75702 0.23086
 C240 C 0.23916 0.73231 0.23297
 C241 C 0.20865 0.73285 0.20632
 C242 C 0.24038 0.70302 0.26112
 C243 C 0.29434 0.75835 0.25931
 C244 C 0.26607 0.78379 0.19967
 C245 C 0.18698 0.76201 0.20447
 C246 C 0.15961 0.76300 0.17764
 C247 C 0.15336 0.73483 0.15212
 C248 C 0.17465 0.70532 0.15484
 C249 C 0.20183 0.70425 0.18186
 C250 C 0.21187 0.69646 0.28579
 C251 C 0.21248 0.66872 0.31204
 C252 C 0.24156 0.64676 0.31391
 C253 C 0.27006 0.65335 0.28903
 C254 C 0.26936 0.68104 0.26271
 C255 C 0.32904 0.75704 0.24615
 C256 C 0.35674 0.75826 0.27251
 C257 C 0.35018 0.76138 0.31232
 C258 C 0.31558 0.76300 0.32561
 C259 C 0.28780 0.76152 0.29926
 C260 C 0.26445 0.77398 0.16041
 C261 C 0.26442 0.79941 0.13142
 C262 C 0.26686 0.83491 0.14120
 C263 C 0.26930 0.84479 0.18027
 C264 C 0.26900 0.81937 0.20932
 H265 H 0.19152 0.78413 0.22354
 H266 H 0.14333 0.78584 0.17699
 H267 H 0.17110 0.68344 0.13532
 H268 H 0.21832 0.68154 0.18282
 H269 H 0.18923 0.71308 0.28495
 H270 H 0.19033 0.66476 0.33117
 H271 H 0.29133 0.68514 0.24333
 H272 H 0.33460 0.75470 0.21547
 H273 H 0.38335 0.75700 0.26186
 H274 H 0.31010 0.76520 0.35631
 H275 H 0.26122 0.76296 0.30992
 H276 H 0.26306 0.74667 0.15225
 H277 H 0.26266 0.79143 0.10132
 H278 H 0.27086 0.87212 0.18830
 H279 H 0.27047 0.82747 0.23939
 H280 H 0.29265 0.63669 0.28941
 C281 C 0.76192 0.27214 0.76715
 C282 C 0.73666 0.24677 0.76707
 C283 C 0.70782 0.24671 0.73846
 C284 C 0.73740 0.21729 0.79486
 C285 C 0.78920 0.27319 0.79737
 C286 C 0.76356 0.29960 0.73706
 C287 C 0.68540 0.27523 0.73544
 C288 C 0.65921 0.27540 0.70723
 C289 C 0.65489 0.24696 0.68172
 C290 C 0.67712 0.21826 0.68530
 C291 C 0.70318 0.21806 0.71356
 C292 C 0.70937 0.21163 0.82038
 C293 C 0.70965 0.18356 0.84623
 C294 C 0.73784 0.16040 0.84667
 C295 C 0.76590 0.16628 0.82098
 C296 C 0.76558 0.19433 0.79520
 C297 C 0.82354 0.26418 0.78800
 C298 C 0.84874 0.26193 0.81709
 C299 C 0.84007 0.26961 0.85569
 C300 C 0.80603 0.28011 0.86473
 C301 C 0.78061 0.28151 0.83577
 C302 C 0.76732 0.29078 0.69775
 C303 C 0.76760 0.31685 0.66944
 C304 C 0.76413 0.35195 0.68020
 C305 C 0.76073 0.36079 0.71946
 C306 C 0.76076 0.33479 0.74777
 H307 H 0.68831 0.29737 0.75484
 H308 H 0.64216 0.29765 0.70561
 H309 H 0.67500 0.19631 0.66564
 H310 H 0.72035 0.19591 0.71539
 H311 H 0.68740 0.22912 0.82044
 H312 H 0.68788 0.18020 0.86601
 H313 H 0.78711 0.19787 0.77511
 H314 H 0.83044 0.25770 0.75841
 H315 H 0.87496 0.25405 0.80955
 H316 H 0.79889 0.28607 0.89438
 H317 H 0.75414 0.28857 0.84329
 H318 H 0.76976 0.26372 0.68906
 H319 H 0.76994 0.30961 0.63921
 H320 H 0.75804 0.38783 0.72812
 H321 H 0.75785 0.34200 0.77797
 H322 H 0.78779 0.14871 0.82018
 C323 C 0.22903 0.74396 0.73446
 C324 C 0.25142 0.77188 0.73103
 C325 C 0.27722 0.77488 0.69881
 C326 C 0.25126 0.80087 0.75970
 C327 C 0.20076 0.74352 0.76391
 C328 C 0.23048 0.71353 0.70776
 C329 C 0.31228 0.78348 0.70707
 C330 C 0.33696 0.78580 0.67729
 C331 C 0.32706 0.77913 0.63879
 C332 C 0.29197 0.77110 0.63034
 C333 C 0.26711 0.76975 0.65999
 C334 C 0.25744 0.79450 0.79918
 C335 C 0.25794 0.82210 0.82579
 C336 C 0.25238 0.85638 0.81322
 C337 C 0.24599 0.86274 0.77387
 C338 C 0.24572 0.83520 0.74723
 C339 C 0.17515 0.76927 0.76393
 C340 C 0.14866 0.76878 0.79182
 C341 C 0.14725 0.74260 0.82049
 C342 C 0.17290 0.71662 0.81987
 C343 C 0.19922 0.71698 0.79174
 C344 C 0.20106 0.70453 0.68549
 C345 C 0.20292 0.67836 0.65738
 C346 C 0.23418 0.66023 0.65120
 C347 C 0.26319 0.66825 0.67492
 C348 C 0.26133 0.69463 0.70296
 H349 H 0.32065 0.78791 0.73670
 H350 H 0.36394 0.79200 0.68437
 H351 H 0.28378 0.76634 0.60071
 H352 H 0.24004 0.76443 0.65264
 H353 H 0.26210 0.76822 0.80927
 H354 H 0.26252 0.81668 0.85613
 H355 H 0.24101 0.84059 0.71688
 H356 H 0.17555 0.78959 0.74212
 H357 H 0.12889 0.78863 0.79036
 H358 H 0.17332 0.69616 0.84122
 H359 H 0.21877 0.69683 0.79203
 H360 H 0.17700 0.71879 0.68877
 H361 H 0.18011 0.67313 0.63961
 H362 H 0.28741 0.65430 0.67181
 H363 H 0.28417 0.70084 0.72036
 H364 H 0.24168 0.88909 0.76377
 C365 C 0.25762 0.25137 0.75740
 C366 C 0.23227 0.27568 0.75421
 C367 C 0.23286 0.30294 0.72356
 C368 C 0.20268 0.27587 0.78180
 C369 C 0.25579 0.22383 0.78746
 C370 C 0.28809 0.25060 0.73089
 C371 C 0.23029 0.33828 0.73392
 C372 C 0.23203 0.36428 0.70560
 C373 C 0.23654 0.35542 0.66647
 C374 C 0.23824 0.32010 0.65585
 C375 C 0.23608 0.29402 0.68415
 C376 C 0.20653 0.29119 0.81854
 C377 C 0.17869 0.29047 0.84482
 C378 C 0.14702 0.27362 0.83497
 C379 C 0.14338 0.25805 0.79828
 C380 C 0.17088 0.25964 0.77164
 C381 C 0.23051 0.19699 0.78534
 C382 C 0.22992 0.17030 0.81291
 C383 C 0.25473 0.16983 0.84305
 C384 C 0.27981 0.19709 0.84512
 C385 C 0.28040 0.22373 0.81748
 C386 C 0.29383 0.22072 0.70838
 C387 C 0.32129 0.22006 0.68177
 C388 C 0.34389 0.24913 0.67749
 C389 C 0.33858 0.27877 0.70083
 C390 C 0.31097 0.27946 0.72740
 H391 H 0.22758 0.34584 0.76402
 H392 H 0.23039 0.39142 0.71427
 H393 H 0.24069 0.31265 0.62571
 H394 H 0.23708 0.26689 0.67534
 H395 H 0.23107 0.30363 0.82676
 H396 H 0.18203 0.30243 0.87309
 H397 H 0.16766 0.24763 0.74338
 H398 H 0.21174 0.19631 0.76186
 H399 H 0.21070 0.14939 0.80986
 H400 H 0.29894 0.19817 0.86803
 H401 H 0.30011 0.24431 0.81943
 H402 H 0.27638 0.19824 0.71063
 H403 H 0.32413 0.19715 0.66376
 H404 H 0.35585 0.30138 0.69870
 H405 H 0.30722 0.30257 0.74498
 H406 H 0.11911 0.24504 0.79014
 C407 C 0.71993 0.76594 0.75232
 C408 C 0.74573 0.74193 0.75136
 C409 C 0.74556 0.71314 0.72255
 C410 C 0.77577 0.74316 0.77865
 C411 C 0.71954 0.79457 0.78140
 C412 C 0.69161 0.76562 0.72304
 C413 C 0.71787 0.68867 0.72102
 C414 C 0.71894 0.66068 0.69502
 C415 C 0.74795 0.65640 0.67048
 C416 C 0.77543 0.68124 0.67183
 C417 C 0.77427 0.70924 0.69775
 C418 C 0.78219 0.71432 0.80241
 C419 C 0.81080 0.71449 0.82753
 C420 C 0.83404 0.74337 0.82899
 C421 C 0.82734 0.77240 0.80526
 C422 C 0.79855 0.77225 0.78024
 C423 C 0.71713 0.82933 0.76891
 C424 C 0.71861 0.85671 0.79564
 C425 C 0.72264 0.84974 0.83521
 C426 C 0.72399 0.81507 0.84802
 C427 C 0.72208 0.78760 0.82130
 C428 C 0.69835 0.77620 0.68481
 C429 C 0.67112 0.77749 0.65782
 C430 C 0.63695 0.76750 0.66853
 C431 C 0.63047 0.75615 0.70660
 C432 C 0.65752 0.75576 0.73382
 H433 H 0.69583 0.69082 0.74054
 H434 H 0.69754 0.64180 0.69491
 H435 H 0.79784 0.67909 0.65285
 H436 H 0.79588 0.72789 0.69856
 H437 H 0.76482 0.69168 0.80165
 H438 H 0.81455 0.69200 0.84592
 H439 H 0.79429 0.79460 0.76173
 H440 H 0.71496 0.83533 0.73834
 H441 H 0.71735 0.88340 0.78542
 H442 H 0.72645 0.80929 0.87860
 H443 H 0.72303 0.76096 0.83168
 H444 H 0.72456 0.78403 0.67616
 H445 H 0.67671 0.78614 0.62856
 H446 H 0.60429 0.74848 0.71549
 H447 H 0.65195 0.74763 0.76327
 H448 H 0.84481 0.79494 0.80536
 C449 C 0.23518 0.07002 0.10161
 C450 C 0.26511 0.06179 0.08007
 C451 C 0.29744 0.07586 0.09330
 C452 C 0.29861 0.10051 0.12367
 C453 C 0.26767 0.11104 0.14211
 C454 C 0.23652 0.09370 0.13213
 C455 C 0.20178 0.10840 0.12217
 C456 C 0.20030 0.08255 0.08865
 H457 H 0.32169 0.06939 0.07895
 H458 H 0.32350 0.11227 0.13180
 H459 H 0.20362 0.13613 0.11270
 H460 H 0.18188 0.10286 0.14493
 H461 H 0.20132 0.09529 0.05971
 H462 H 0.17947 0.06219 0.09211
 C463 C 0.72196 0.58437 0.60013
 C464 C 0.75418 0.57113 0.58836
 C465 C 0.78422 0.58254 0.60877
 C466 C 0.78214 0.60939 0.63657
 C467 C 0.74998 0.62555 0.64453
 C468 C 0.71993 0.61085 0.62752
 C469 C 0.69073 0.62808 0.60666
 C470 C 0.69297 0.59908 0.57661
 H471 H 0.80954 0.57171 0.60228
 H472 H 0.80590 0.61816 0.65085
 H473 H 0.69830 0.65427 0.59520
 H474 H 0.66599 0.62721 0.62359
 H475 H 0.70187 0.60842 0.54766
 H476 H 0.66951 0.58157 0.57624
 C477 C 0.76980 0.90487 0.08834
 C478 C 0.73886 0.92169 0.07825
 C479 C 0.70752 0.90846 0.09465
 C480 C 0.70807 0.88206 0.12297
 C481 C 0.73990 0.86772 0.13573
 C482 C 0.77045 0.87893 0.11643
 C483 C 0.80517 0.89191 0.13114
 C484 C 0.80453 0.91966 0.09980
 H485 H 0.68255 0.91947 0.08701
 H486 H 0.68348 0.87408 0.13601
 H487 H 0.82615 0.87252 0.12680
 H488 H 0.80380 0.90353 0.16065
 H489 H 0.82461 0.91583 0.07694
 H490 H 0.80293 0.94671 0.11144
 C491 C 0.27155 0.41587 0.58828
 C492 C 0.24218 0.43520 0.57823
 C493 C 0.21208 0.43124 0.60164
 C494 C 0.21060 0.40582 0.63110
 C495 C 0.23883 0.38331 0.63712
 C496 C 0.26984 0.39032 0.61676
 C497 C 0.29357 0.36683 0.59479
 C498 C 0.29547 0.39490 0.56363
 H499 H 0.18926 0.44690 0.59634
 H500 H 0.18679 0.40256 0.64782
 H501 H 0.28043 0.34241 0.58460
 H502 H 0.31885 0.36312 0.61000
 H503 H 0.28324 0.38671 0.53573
 H504 H 0.32182 0.40735 0.56099
 C505 C 0.91285 0.22566 0.10088
 C506 C 0.93722 0.25289 0.09760
 C507 C 0.93574 0.27917 0.12654
 C508 C 0.91003 0.27767 0.15623
 C509 C 0.88461 0.25037 0.15710
 C510 C 0.88755 0.22481 0.12858
 C511 C 0.86982 0.19334 0.11178
 C512 C 0.89833 0.19451 0.08015
 H513 H 0.95412 0.30099 0.12604
 H514 H 0.90931 0.29843 0.17758
 H515 H 0.84330 0.19903 0.10055
 H516 H 0.87140 0.17027 0.13118
 H517 H 0.88812 0.20118 0.05097
 H518 H 0.91629 0.17201 0.08109
 C519 C 0.38487 0.75055 0.55646
 C520 C 0.41068 0.77692 0.55531
 C521 C 0.40484 0.80744 0.57723
 C522 C 0.37668 0.80893 0.60349
 C523 C 0.35332 0.78031 0.60749
 C524 C 0.35663 0.75242 0.58158
 C525 C 0.35664 0.71404 0.58911
 C526 C 0.38771 0.71199 0.56166
 H527 H 0.42324 0.82922 0.57603
 H528 H 0.37408 0.83172 0.62186
 H529 H 0.33271 0.70074 0.57770
 H530 H 0.36322 0.70770 0.61967
 H531 H 0.38167 0.69740 0.53452
 H532 H 0.41233 0.70451 0.57636
 C533 C 0.08055 0.70827 0.08296
 C534 C 0.07020 0.73896 0.06513
 C535 C 0.08902 0.76962 0.07609
 C536 C 0.11622 0.76844 0.10411
 C537 C 0.12539 0.73657 0.12223
 C538 C 0.10659 0.70705 0.10978
 C539 C 0.10028 0.66915 0.11767
 C540 C 0.07088 0.67069 0.08727
 H541 H 0.08283 0.79449 0.06312
 H542 H 0.13011 0.79246 0.11120
 H543 H 0.09054 0.66440 0.14760
 H544 H 0.12241 0.65266 0.10840
 H545 H 0.04430 0.66690 0.09978
 H546 H 0.07629 0.65545 0.06053
 C547 C 0.58393 0.21658 0.61292
 C548 C 0.57408 0.24610 0.59249
 C549 C 0.59218 0.27754 0.60206
 C550 C 0.61857 0.27811 0.63109
 C551 C 0.62757 0.24724 0.65130
 C552 C 0.60922 0.21702 0.64050
 C553 C 0.60359 0.17937 0.65018
 C554 C 0.57499 0.17899 0.61880
 H555 H 0.58615 0.30157 0.58716
 H556 H 0.63207 0.30256 0.63727
 H557 H 0.59319 0.17565 0.68001
 H558 H 0.62633 0.16305 0.64249
 H559 H 0.54816 0.17506 0.63059
 H560 H 0.58148 0.16283 0.59305
 C561 C 0.76926 0.08938 0.91421
 C562 C 0.73815 0.07441 0.92828
 C563 C 0.70664 0.08475 0.91081
 C564 C 0.70645 0.11198 0.88340
 C565 C 0.73776 0.12966 0.87294
 C566 C 0.76905 0.11629 0.88733
 C567 C 0.79921 0.13476 0.90622
 C568 C 0.79943 0.10530 0.93572
 H569 H 0.68201 0.07257 0.91908
 H570 H 0.68167 0.11963 0.87121
 H571 H 0.79194 0.16040 0.91884
 H572 H 0.82281 0.13539 0.88739
 H573 H 0.79227 0.11380 0.96550
 H574 H 0.82315 0.08900 0.93384
 C575 C 0.27374 0.58103 0.38731
 C576 C 0.24281 0.56524 0.40084
 C577 C 0.21172 0.57243 0.38058
 C578 C 0.21138 0.59788 0.35112
 C579 C 0.24213 0.61683 0.34128
 C580 C 0.27340 0.60611 0.35831
 C581 C 0.30178 0.62726 0.37720
 C582 C 0.30213 0.59981 0.40901
 H583 H 0.18735 0.55953 0.38853
 H584 H 0.18681 0.60351 0.33711
 H585 H 0.29271 0.65319 0.38731
 H586 H 0.32613 0.62792 0.35960
 H587 H 0.29326 0.60979 0.43761
 H588 H 0.32670 0.58472 0.40969
 C589 C 0.28671 0.92338 0.88460
 C590 C 0.25619 0.93828 0.89917
 C591 C 0.22444 0.92972 0.88023
 C592 C 0.22330 0.90385 0.85103
 C593 C 0.25374 0.88575 0.84081
 C594 C 0.28551 0.89766 0.85632
 C595 C 0.31514 0.87842 0.87397
 C596 C 0.31646 0.90668 0.90505
 H597 H 0.20030 0.94176 0.88914
 H598 H 0.19842 0.89659 0.83810
 H599 H 0.33862 0.87860 0.85496
 H600 H 0.30730 0.85239 0.88554
 H601 H 0.34070 0.92307 0.90390
 H602 H 0.30914 0.89698 0.93438
 C603 C 0.73647 0.40662 0.41556
 C604 C 0.76617 0.42609 0.42650
 C605 C 0.79777 0.41917 0.40694
 C606 C 0.79988 0.39097 0.38071
 C607 C 0.77064 0.36891 0.37421
 C608 C 0.73867 0.37867 0.39016
 C609 C 0.71163 0.35790 0.41166
 C610 C 0.70925 0.38855 0.43963
 H611 H 0.82111 0.43465 0.41290
 H612 H 0.82466 0.38541 0.36700
 H613 H 0.72215 0.33399 0.42531
 H614 H 0.68754 0.35380 0.39418
 H615 H 0.71865 0.38246 0.46933
 H616 H 0.68369 0.40189 0.43836
 C617 C 0.07679 0.23807 0.90165
 C618 C 0.06687 0.26750 0.92306
 C619 C 0.08005 0.30035 0.91049
 C620 C 0.10551 0.30258 0.88100
 C621 C 0.11774 0.27217 0.86280
 C622 C 0.10123 0.24042 0.87199
 C623 C 0.11681 0.20616 0.88213
 C624 C 0.09012 0.20358 0.91474
 H625 H 0.07225 0.32424 0.92472
 H626 H 0.11654 0.32790 0.87342
 H627 H 0.14424 0.20883 0.89254
 H628 H 0.11251 0.18630 0.85899
 H629 H 0.10206 0.20482 0.94411
 H630 H 0.07053 0.18215 0.91041
 C631 C 0.59336 0.79200 0.40736
 C632 C 0.57765 0.76170 0.42245
 C633 C 0.59349 0.72957 0.41385
 C634 C 0.62144 0.72801 0.38718
 C635 C 0.63408 0.75857 0.36853
 C636 C 0.62079 0.79047 0.38122
 C637 C 0.60760 0.82061 0.35841
 C638 C 0.57748 0.82228 0.38708
 H639 H 0.58342 0.70550 0.42635
 H640 H 0.63226 0.70280 0.38032
 H641 H 0.59929 0.81301 0.32863
 H642 H 0.62553 0.84372 0.36006
 H643 H 0.55165 0.81565 0.37395
 H644 H 0.57811 0.84632 0.40520
 C645 C 0.90711 0.77318 0.89666
 C646 C 0.92146 0.74175 0.90943
 C647 C 0.91005 0.71083 0.89047
 C648 C 0.88267 0.71143 0.86317
 C649 C 0.86557 0.74287 0.85431
 C650 C 0.88001 0.77370 0.86990
 C651 C 0.86269 0.80341 0.88981
 C652 C 0.89226 0.80281 0.91922
 H653 H 0.92144 0.68591 0.89746
 H654 H 0.87435 0.68702 0.84997
 H655 H 0.83679 0.79597 0.90223
 H656 H 0.86298 0.82741 0.87173
 H657 H 0.88356 0.79492 0.94875
 H658 H 0.90939 0.82654 0.91814
 C659 C 0.41174 0.26075 0.41691
 C660 C 0.43064 0.23189 0.42938
 C661 C 0.42503 0.19988 0.40975
 C662 C 0.39860 0.19649 0.38156
 C663 C 0.37684 0.22476 0.37319
 C664 C 0.38531 0.25723 0.38962
 C665 C 0.36293 0.28317 0.40983
 C666 C 0.39197 0.28706 0.43972
 H667 H 0.44035 0.17725 0.41690
 H668 H 0.39421 0.17147 0.36751
 H669 H 0.33854 0.27139 0.42197
 H670 H 0.35921 0.30711 0.39222
 H671 H 0.38441 0.27741 0.46899
 H672 H 0.40499 0.31324 0.43926
 C673 C 0.76128 0.91449 0.90633
 C674 C 0.73194 0.93232 0.91964
 C675 C 0.69993 0.92606 0.90025
 C676 C 0.69704 0.89974 0.87175
 C677 C 0.72592 0.87891 0.86274
 C678 C 0.75831 0.88832 0.87868
 C679 C 0.78552 0.86675 0.89768
 C680 C 0.78875 0.89545 0.92813
 H681 H 0.67684 0.94046 0.90811
 H682 H 0.67193 0.89446 0.85828
 H683 H 0.80926 0.86441 0.87935
 H684 H 0.77499 0.84172 0.90949
 H685 H 0.81443 0.90946 0.92739
 H686 H 0.77984 0.88709 0.95743
 C687 C 0.21802 0.39943 0.41068
 C688 C 0.24579 0.42340 0.41362
 C689 C 0.27284 0.42125 0.38602
 C690 C 0.27323 0.39379 0.35870
 C691 C 0.24694 0.36729 0.35888
 C692 C 0.21877 0.37197 0.38439
 C693 C 0.20258 0.34711 0.41281
 C694 C 0.20170 0.37725 0.44150
 H695 H 0.29389 0.44052 0.38583
 H696 H 0.29448 0.39330 0.33805
 H697 H 0.22061 0.32602 0.42148
 H698 H 0.17606 0.33806 0.40371
 H699 H 0.21917 0.37367 0.46690
 H700 H 0.17475 0.38559 0.44864
 C701 C 0.28682 0.09390 0.90350
 C702 C 0.25619 0.07994 0.92005
 C703 C 0.22424 0.09460 0.90826
 C704 C 0.22380 0.12400 0.88370
 C705 C 0.25523 0.13987 0.87046
 C706 C 0.28646 0.12313 0.87979
 C707 C 0.32015 0.13667 0.89659
 C708 C 0.32068 0.10427 0.92187
 H709 H 0.19954 0.08409 0.91878
 H710 H 0.19881 0.13500 0.87616
 H711 H 0.31711 0.16084 0.91407
 H712 H 0.34159 0.13753 0.87481
 H713 H 0.31803 0.11002 0.95335
 H714 H 0.34199 0.08611 0.91416
 C715 C 0.78757 0.59455 0.41986
 C716 C 0.75939 0.57162 0.42530
 C717 C 0.73065 0.57586 0.39991
 C718 C 0.73160 0.60171 0.37038
 C719 C 0.76099 0.62443 0.36606
 C720 C 0.78813 0.61980 0.39226
 C721 C 0.82410 0.63207 0.40250
 C722 C 0.82337 0.60356 0.43399
 H723 H 0.70777 0.55897 0.40240
 H724 H 0.70935 0.60406 0.35123
 H725 H 0.82456 0.65906 0.41442
 H726 H 0.84318 0.62705 0.37890
 H727 H 0.82318 0.61410 0.46404
 H728 H 0.84214 0.58223 0.42858
 C729 C 0.07465 0.71122 0.88855
 C730 C 0.06264 0.74215 0.90536
 C731 C 0.07662 0.77385 0.89069
 C732 C 0.10405 0.77390 0.86337
 C733 C 0.11844 0.74232 0.84974
 C734 C 0.10191 0.71119 0.86195
 C735 C 0.11595 0.67811 0.87856
 C736 C 0.08561 0.67798 0.90691
 H737 H 0.06755 0.79870 0.90146
 H738 H 0.11498 0.79884 0.85434
 H739 H 0.14144 0.68187 0.89359
 H740 H 0.11469 0.65607 0.85754
 H741 H 0.09387 0.68149 0.93761
 H742 H 0.06643 0.65635 0.90169
 C743 C 0.58798 0.26562 0.41391
 C744 C 0.57284 0.23531 0.42968
 C745 C 0.58247 0.20307 0.41332
 C746 C 0.60946 0.20148 0.38556
 C747 C 0.62762 0.23211 0.37368
 C748 C 0.61460 0.26405 0.38668
 C749 C 0.63333 0.29500 0.40359
 C750 C 0.60422 0.29665 0.43354
 H751 H 0.57012 0.17895 0.42295
 H752 H 0.61673 0.17616 0.37446
 H753 H 0.63363 0.31762 0.38345
 H754 H 0.65916 0.28833 0.41612
 H755 H 0.58795 0.32030 0.43069
 H756 H 0.61309 0.29083 0.46351
 C757 C 0.90013 0.29029 0.93962
 C758 C 0.92220 0.26147 0.94027
 C759 C 0.91297 0.23249 0.91686
 C760 C 0.88540 0.23463 0.89003
 C761 C 0.86612 0.26551 0.88670
 C762 C 0.87250 0.29210 0.91374
 C763 C 0.87807 0.33035 0.90757
 C764 C 0.90844 0.32837 0.93587
 H765 H 0.92822 0.20892 0.91765
 H766 H 0.88005 0.21272 0.87090
 H767 H 0.85589 0.34581 0.91881
 H768 H 0.88630 0.33671 0.87744
 H769 H 0.90377 0.34278 0.96335
 H770 H 0.93432 0.33354 0.92212
 C771 C 0.41666 0.79584 0.38425
 C772 C 0.43228 0.76539 0.39784
 C773 C 0.42426 0.73386 0.37816
 C774 C 0.39831 0.73273 0.34911
 C775 C 0.37963 0.76293 0.33972
 C776 C 0.39087 0.79462 0.35600
 C777 C 0.37070 0.82306 0.37484
 C778 C 0.39896 0.82440 0.40585
 H779 H 0.43677 0.70983 0.38639
 H780 H 0.39149 0.70796 0.33562
 H781 H 0.34487 0.81397 0.38606
 H782 H 0.37010 0.84702 0.35672
 H783 H 0.38951 0.81597 0.43492
 H784 H 0.41457 0.84915 0.40557
 C785 C 0.29550 0.90683 0.07295
 C786 C 0.26388 0.91767 0.05689
 C787 C 0.23380 0.89682 0.06426
 C788 C 0.23506 0.86878 0.09065
 C789 C 0.26624 0.86149 0.11050
 C790 C 0.29663 0.87958 0.09930
 C791 C 0.32449 0.89726 0.12283
 C792 C 0.32326 0.92718 0.09392
 H793 H 0.20903 0.90301 0.05097
 H794 H 0.21131 0.85413 0.09717
 H795 H 0.34950 0.88290 0.12194
 H796 H 0.31551 0.90478 0.15228
 H797 H 0.34757 0.93002 0.07645
 H798 H 0.31340 0.95187 0.10661
 C799 C 0.79348 0.41569 0.60308
 C800 C 0.76209 0.43053 0.59110
 C801 C 0.73169 0.42245 0.61274
 C802 C 0.73251 0.39737 0.64256
 C803 C 0.76355 0.37957 0.65073
 C804 C 0.79417 0.39065 0.63202
 C805 C 0.82171 0.37031 0.61178
 C806 C 0.82097 0.39781 0.58002
 H807 H 0.70712 0.43470 0.60597
 H808 H 0.70864 0.39076 0.65799
 H809 H 0.81228 0.34419 0.60182
 H810 H 0.84670 0.37035 0.62820
 H811 H 0.81099 0.38762 0.55184
 H812 H 0.84554 0.41365 0.57821
 C813 C 0.71591 0.07558 0.11379
 C814 C 0.74542 0.06666 0.09267
 C815 C 0.77709 0.08355 0.10389
 C816 C 0.77780 0.10821 0.13481
 C817 C 0.74686 0.11660 0.15539
 C818 C 0.71649 0.09917 0.14325
 C819 C 0.67846 0.09409 0.15167
 C820 C 0.67796 0.06741 0.11822
 H821 H 0.80116 0.07809 0.08866
 H822 H 0.80238 0.12108 0.14197
 H823 H 0.66290 0.11764 0.14532
 H824 H 0.67377 0.08212 0.18058
 H825 H 0.66254 0.07586 0.09270
 H826 H 0.67304 0.04008 0.12786
 C827 C 0.20814 0.58979 0.57864
 C828 C 0.23995 0.58002 0.56224
 C829 C 0.26983 0.60045 0.57157
 C830 C 0.26803 0.62723 0.59968
 C831 C 0.23639 0.63394 0.61941
 C832 C 0.20643 0.61589 0.60644
 C833 C 0.17893 0.59660 0.62895
 C834 C 0.18080 0.56799 0.59844
 H835 H 0.29476 0.59511 0.55811
 H836 H 0.29163 0.64199 0.60644
 H837 H 0.15357 0.61036 0.62891
 H838 H 0.18823 0.58829 0.65800
 H839 H 0.15656 0.56537 0.58085
 H840 H 0.19117 0.54302 0.60975
 C841 C 0.90859 0.70447 0.08341
 C842 C 0.92523 0.73602 0.07333
 C843 C 0.91810 0.76561 0.09634
 C844 C 0.89229 0.76397 0.12554
 C845 C 0.87274 0.73296 0.13169
 C846 C 0.88286 0.70300 0.11169
 C847 C 0.86183 0.67642 0.08970
 C848 C 0.89012 0.67799 0.05870
 H849 H 0.93161 0.79022 0.09104
 H850 H 0.88652 0.78727 0.14205
 H851 H 0.83635 0.68641 0.07947
 H852 H 0.86041 0.65089 0.10497
 H853 H 0.88101 0.68903 0.03074
 H854 H 0.90498 0.65339 0.05619
 C855 C 0.41661 0.21763 0.61250
 C856 C 0.42725 0.24657 0.59097
 C857 C 0.40923 0.27791 0.59856
 C858 C 0.38212 0.27899 0.62672
 C859 C 0.37228 0.24876 0.64817
 C860 C 0.39064 0.21856 0.63938
 C861 C 0.39550 0.18137 0.65076
 C862 C 0.42485 0.18046 0.62022
 H863 H 0.41580 0.30149 0.58269
 H864 H 0.36866 0.30332 0.63116
 H865 H 0.37272 0.16434 0.64311
 H866 H 0.40510 0.17885 0.68101
 H867 H 0.41876 0.16330 0.59501
 H868 H 0.45134 0.17748 0.63291
 C869 C 0.09291 0.22314 0.09894
 C870 C 0.07988 0.25514 0.08642
 C871 C 0.09215 0.28565 0.10537
 C872 C 0.11930 0.28404 0.13277
 C873 C 0.13480 0.25189 0.14189
 C874 C 0.11962 0.22157 0.12602
 C875 C 0.13642 0.19169 0.10582
 C876 C 0.10720 0.19345 0.07605
 H877 H 0.08152 0.31089 0.09829
 H878 H 0.12856 0.30806 0.14617
 H879 H 0.13544 0.16742 0.12346
 H880 H 0.16261 0.19869 0.09384
 H881 H 0.08946 0.17016 0.07654
 H882 H 0.11639 0.20152 0.04676
 C883 C 0.55953 0.74220 0.60571
 C884 C 0.55654 0.77081 0.58072
 C885 C 0.57703 0.80089 0.58919
 C886 C 0.60266 0.80025 0.61852
 C887 C 0.60786 0.76978 0.64050
 C888 C 0.58427 0.74187 0.63516
 C889 C 0.59118 0.70396 0.62944
 C890 C 0.56417 0.70432 0.59711
 H891 H 0.57480 0.82421 0.57172
 H892 H 0.61926 0.82309 0.62301
 H893 H 0.58279 0.68809 0.65484
 H894 H 0.61820 0.69908 0.61902
 H895 H 0.54028 0.68856 0.60388
 H896 H 0.57555 0.69969 0.56790
   
