data_POSCAR
  _audit_creation_date              2014-09-24
  _audit_creation_method            'ToBaCCo'
  _symmetry_space_group_name_H-M    'P1'
  _symmetry_Int_Tables_number       1
  _symmetry_cell_setting            triclinic
  loop_
  _symmetry_equiv_pos_as_xyz
 x,y,z
_cell_length_a 69.3167
_cell_length_b 69.3465
_cell_length_c 20.6936
_cell_angle_alpha 89.950200
_cell_angle_beta 90.023500
_cell_angle_gamma 120.023400
loop_
  _atom_site_label
  _atom_site_type_symbol
  _atom_site_fract_x
  _atom_site_fract_y
  _atom_site_fract_z
C1 C 0.24614 0.49287 0.52808
 C2 C 0.24596 0.49284 0.46215
 C3 C 0.22683 0.49121 0.42513
 C4 C 0.26470 0.49405 0.42403
 C5 C 0.26363 0.49124 0.56513
 C6 C 0.22865 0.49413 0.56621
 C7 C 0.20507 0.47363 0.43628
 C8 C 0.18708 0.47268 0.40295
 C9 C 0.19068 0.48917 0.35754
 C10 C 0.21243 0.50643 0.34501
 C11 C 0.23042 0.50737 0.37844
 C12 C 0.26051 0.47768 0.37750
 C13 C 0.27812 0.47800 0.34372
 C14 C 0.30008 0.49480 0.35568
 C15 C 0.30432 0.51154 0.40067
 C16 C 0.28671 0.51125 0.43443
 C17 C 0.27625 0.50741 0.61171
 C18 C 0.29324 0.50641 0.64525
 C19 C 0.29763 0.48913 0.63294
 C20 C 0.28476 0.47265 0.58769
 C21 C 0.26775 0.47362 0.55419
 C22 C 0.22387 0.51134 0.55562
 C23 C 0.20661 0.51171 0.58953
 C24 C 0.19415 0.49505 0.63483
 C25 C 0.19926 0.47823 0.64693
 C26 C 0.21648 0.47783 0.61301
 H27 H 0.20202 0.46077 0.47121
 H28 H 0.17038 0.45916 0.41305
 H29 H 0.21553 0.51929 0.30994
 H30 H 0.24710 0.52096 0.36890
 H31 H 0.24365 0.46434 0.36857
 H32 H 0.27466 0.46498 0.30898
 H33 H 0.29025 0.52426 0.46928
 H34 H 0.27321 0.52103 0.62111
 H35 H 0.30308 0.51922 0.68027
 H36 H 0.28796 0.45915 0.57800
 H37 H 0.25792 0.46074 0.51936
 H38 H 0.23332 0.52430 0.52057
 H39 H 0.20284 0.52484 0.57994
 H40 H 0.18973 0.46527 0.68193
 H41 H 0.21998 0.46449 0.62209
 H42 H 0.32124 0.52465 0.41016
 C43 C 0.50709 -0.24693 0.53368
 C44 C 0.50722 -0.24698 0.46775
 C45 C 0.50884 -0.26444 0.43060
 C46 C 0.50611 -0.22938 0.42968
 C47 C 0.50865 -0.22788 0.57080
 C48 C 0.50578 -0.26574 0.57168
 C49 C 0.52639 -0.26867 0.44174
 C50 C 0.52736 -0.28561 0.40799
 C51 C 0.51096 -0.29831 0.36231
 C52 C 0.49375 -0.29380 0.34984
 C53 C 0.49274 -0.27688 0.38362
 C54 C 0.52257 -0.21714 0.38336
 C55 C 0.52230 -0.19984 0.34946
 C56 C 0.50546 -0.19474 0.36110
 C57 C 0.48864 -0.20727 0.40594
 C58 C 0.48888 -0.22460 0.43982
 C59 C 0.49233 -0.23152 0.61702
 C60 C 0.49321 -0.21358 0.65038
 C61 C 0.51050 -0.19186 0.63828
 C62 C 0.52713 -0.18818 0.59346
 C63 C 0.52629 -0.20610 0.56013
 C64 C 0.48859 -0.28772 0.56086
 C65 C 0.48824 -0.30540 0.59437
 C66 C 0.50493 -0.30127 0.63958
 C67 C 0.52172 -0.27934 0.65199
 C68 C 0.52208 -0.26166 0.61842
 H69 H 0.53920 -0.25897 0.47688
 H70 H 0.54081 -0.28890 0.41780
 H71 H 0.48100 -0.30350 0.31449
 H72 H 0.47918 -0.27376 0.37407
 H73 H 0.53592 -0.22065 0.37463
 H74 H 0.53538 -0.19026 0.31484
 H75 H 0.47581 -0.23411 0.47450
 H76 H 0.47869 -0.24820 0.62619
 H77 H 0.48028 -0.21660 0.68507
 H78 H 0.54064 -0.17146 0.58394
 H79 H 0.53926 -0.20300 0.52558
 H80 H 0.47564 -0.29117 0.52583
 H81 H 0.47511 -0.32228 0.58441
 H82 H 0.53472 -0.27589 0.68687
 H83 H 0.53541 -0.24483 0.62767
 H84 H 0.47550 -0.20350 0.41517
 C85 C 1.24656 0.75399 0.53586
 C86 C 1.24684 0.75417 0.46993
 C87 C 1.26441 0.77329 0.43304
 C88 C 1.22937 0.73544 0.43163
 C89 C 1.22739 0.73647 0.57270
 C90 C 1.26525 0.77150 0.57416
 C91 C 1.26857 0.79505 0.44391
 C92 C 1.28565 0.81301 0.41056
 C93 C 1.29857 0.80939 0.36548
 C94 C 1.29413 0.78767 0.35326
 C95 C 1.27706 0.76970 0.38667
 C96 C 1.21728 0.73964 0.38472
 C97 C 1.20007 0.72204 0.35066
 C98 C 1.19491 0.70010 0.36273
 C99 C 1.20730 0.69585 0.40814
 C100 C 1.22454 0.71344 0.44218
 C101 C 1.23091 0.72387 0.61946
 C102 C 1.21287 0.70683 0.65275
 C103 C 1.19116 0.70236 0.64000
 C104 C 1.18761 0.71525 0.59454
 C105 C 1.20563 0.73230 0.56132
 C106 C 1.28727 0.77629 0.56408
 C107 C 1.30485 0.79359 0.59800
 C108 C 1.30056 0.80611 0.64287
 C109 C 1.27858 0.80096 0.65451
 C110 C 1.26101 0.78368 0.62054
 H111 H 1.25871 0.79810 0.47858
 H112 H 1.28883 0.82971 0.42030
 H113 H 1.30396 0.78461 0.31840
 H114 H 1.27399 0.75303 0.37734
 H115 H 1.22082 0.75648 0.37567
 H116 H 1.19059 0.72551 0.31559
 H117 H 1.23394 0.70990 0.47732
 H118 H 1.24757 0.72695 0.62918
 H119 H 1.21588 0.69703 0.68789
 H120 H 1.17092 0.71205 0.58439
 H121 H 1.20263 0.74212 0.52634
 H122 H 1.29085 0.76682 0.52935
 H123 H 1.32176 0.79734 0.58863
 H124 H 1.27501 0.81048 0.68913
 H125 H 1.24415 0.78017 0.62922
 H126 H 1.20349 0.67894 0.41771
 C127 C 0.75380 0.50719 0.53510
 C128 C 0.75366 0.50717 0.46917
 C129 C 0.77120 0.50596 0.43119
 C130 C 0.73614 0.50873 0.43197
 C131 C 0.73499 0.50588 0.57307
 C132 C 0.77294 0.50889 0.57227
 C133 C 0.78338 0.52228 0.38445
 C134 C 0.80065 0.52192 0.35069
 C135 C 0.80579 0.50514 0.36289
 C136 C 0.79331 0.48845 0.40812
 C137 C 0.77601 0.48877 0.44186
 C138 C 0.73190 0.52628 0.44284
 C139 C 0.71492 0.52719 0.40906
 C140 C 0.70218 0.51074 0.36359
 C141 C 0.70668 0.49352 0.35140
 C142 C 0.72365 0.49257 0.38521
 C143 C 0.71302 0.48861 0.56251
 C144 C 0.69533 0.48824 0.59601
 C145 C 0.69945 0.50497 0.64095
 C146 C 0.72138 0.52184 0.65311
 C147 C 0.73907 0.52223 0.61954
 C148 C 0.76938 0.49277 0.61908
 C149 C 0.78737 0.49381 0.65271
 C150 C 0.80909 0.51110 0.64027
 C151 C 0.81268 0.52755 0.59477
 C152 C 0.79469 0.52652 0.56120
 H153 H 0.77985 0.53559 0.37531
 H154 H 0.81020 0.53491 0.31576
 H155 H 0.79711 0.47535 0.41778
 H156 H 0.76654 0.47580 0.47687
 H157 H 0.74164 0.53914 0.47779
 H158 H 0.71164 0.54064 0.41866
 H159 H 0.72677 0.47900 0.37586
 H160 H 0.70958 0.47563 0.52769
 H161 H 0.67846 0.47505 0.58625
 H162 H 0.72482 0.53488 0.68778
 H163 H 0.75589 0.53561 0.62859
 H164 H 0.75272 0.47914 0.62857
 H165 H 0.78434 0.48100 0.68788
 H166 H 0.82937 0.54108 0.58484
 H167 H 0.79773 0.53935 0.52619
 H168 H 0.69694 0.48073 0.31622
 C169 C 0.49246 0.24589 0.53566
 C170 C 0.49250 0.24613 0.46973
 C171 C 0.49100 0.26373 0.43283
 C172 C 0.49365 0.22863 0.43143
 C173 C 0.49086 0.22675 0.57253
 C174 C 0.49366 0.26458 0.57394
 C175 C 0.47344 0.26795 0.44375
 C176 C 0.47262 0.28505 0.41037
 C177 C 0.48918 0.29792 0.36527
 C178 C 0.50641 0.29343 0.35300
 C179 C 0.50727 0.27634 0.38641
 C180 C 0.47728 0.21654 0.38475
 C181 C 0.47758 0.19930 0.35065
 C182 C 0.49435 0.19411 0.36245
 C183 C 0.51108 0.20649 0.40763
 C184 C 0.51082 0.22376 0.44171
 C185 C 0.50708 0.23031 0.61899
 C186 C 0.50616 0.21231 0.65223
 C187 C 0.48890 0.19059 0.63974
 C188 C 0.47236 0.18701 0.59461
 C189 C 0.47326 0.20500 0.56144
 C190 C 0.51090 0.28659 0.56377
 C191 C 0.51115 0.30416 0.59759
 C192 C 0.49433 0.29988 0.64245
 C193 C 0.47750 0.27791 0.65419
 C194 C 0.47722 0.26034 0.62033
 H195 H 0.46050 0.25812 0.47846
 H196 H 0.45916 0.28832 0.42001
 H197 H 0.51928 0.30326 0.31808
 H198 H 0.52084 0.27323 0.37704
 H199 H 0.46398 0.22011 0.37591
 H200 H 0.46456 0.18983 0.31576
 H201 H 0.52383 0.23315 0.47667
 H202 H 0.52068 0.24697 0.62848
 H203 H 0.51905 0.21534 0.68712
 H204 H 0.45884 0.17031 0.58466
 H205 H 0.46035 0.20197 0.52668
 H206 H 0.52395 0.29015 0.52903
 H207 H 0.52432 0.32107 0.58813
 H208 H 0.46439 0.27434 0.68879
 H209 H 0.46386 0.24348 0.62907
 H210 H 0.52417 0.20265 0.41699
 C211 C 0.75388 0.24724 0.53516
 C212 C 0.75366 0.24686 0.46923
 C213 C 0.73608 0.22768 0.43265
 C214 C 0.77120 0.26543 0.43061
 C215 C 0.77301 0.26488 0.57177
 C216 C 0.73518 0.22981 0.57370
 C217 C 0.73186 0.20592 0.44417
 C218 C 0.71479 0.18792 0.41102
 C219 C 0.70193 0.19149 0.36555
 C220 C 0.70642 0.21318 0.35270
 C221 C 0.72348 0.23120 0.38588
 C222 C 0.78331 0.26103 0.38436
 C223 C 0.80058 0.27848 0.34997
 C224 C 0.80578 0.30048 0.36105
 C225 C 0.79337 0.30493 0.40580
 C226 C 0.77607 0.28749 0.44017
 C227 C 0.76944 0.27766 0.61769
 C228 C 0.78744 0.29484 0.65065
 C229 C 0.80917 0.29927 0.63842
 C230 C 0.81277 0.28620 0.59384
 C231 C 0.79478 0.26901 0.56094
 C232 C 0.71315 0.22494 0.56329
 C233 C 0.69558 0.20766 0.59732
 C234 C 0.69988 0.19526 0.64259
 C235 C 0.72185 0.20048 0.65460
 C236 C 0.73943 0.21773 0.62055
 H237 H 0.74168 0.20291 0.47916
 H238 H 0.71152 0.17121 0.42112
 H239 H 0.69660 0.21612 0.31750
 H240 H 0.72659 0.24786 0.37605
 H241 H 0.77975 0.24414 0.37608
 H242 H 0.81008 0.27485 0.31543
 H243 H 0.76666 0.29119 0.47479
 H244 H 0.75277 0.27461 0.62697
 H245 H 0.78440 0.30478 0.68513
 H246 H 0.82947 0.28936 0.58411
 H247 H 0.79782 0.25905 0.52661
 H248 H 0.70957 0.23432 0.52819
 H249 H 0.67865 0.20379 0.58779
 H250 H 0.72535 0.19100 0.68956
 H251 H 0.75630 0.22130 0.62949
 H252 H 0.79721 0.32189 0.41461
 N253 N 0.97699 0.52265 0.07175
 N254 N 0.96010 0.52610 0.08085
 N255 N 1.02398 0.53254 0.11524
 N256 N 1.04088 0.54329 0.15533
 N257 N 1.02391 0.54612 0.07106
 N258 N 1.04076 0.56650 0.07985
 N259 N 0.97710 0.50910 0.11597
 N260 N 0.96029 0.50295 0.15642
 C261 C 0.94992 0.51370 0.13375
 C262 C 1.05112 0.56439 0.13249
 N263 N 1.02387 0.47776 0.06784
 N264 N 1.04044 0.47378 0.07620
 N265 N 0.97708 0.46760 0.11398
 N266 N 0.96028 0.45660 0.15422
 N267 N 0.97696 0.45433 0.06852
 N268 N 0.96006 0.43392 0.07654
 N269 N 1.02396 0.49101 0.11332
 N270 N 1.04059 0.49641 0.15392
 Mn271 Mn 1.00054 0.50007 0.11538
 C272 C 1.05068 0.48558 0.12990
 C273 C 0.94989 0.43569 0.13012
 N274 N 1.02362 0.54663 -0.06814
 N275 N 1.04022 0.56716 -0.07683
 N276 N 0.97666 0.50993 -0.11293
 N277 N 0.96002 0.50450 -0.15351
 N278 N 0.97674 0.52317 -0.06746
 N279 N 0.96015 0.52713 -0.07581
 N280 N 1.02354 0.53339 -0.11365
 N281 N 1.04007 0.54454 -0.15461
 Mn282 Mn 1.00031 0.53487 0.00183
 C283 C 1.05028 0.56549 -0.13079
 C284 C 0.94991 0.51532 -0.12949
 N285 N 0.97677 0.45484 -0.07069
 N286 N 0.96019 0.43436 -0.08012
 N287 N 1.02356 0.49187 -0.11557
 N288 N 1.04033 0.49798 -0.15613
 N289 N 1.02366 0.47831 -0.07136
 N290 N 1.04051 0.47481 -0.08059
 N291 N 0.97667 0.46838 -0.11492
 N292 N 0.96002 0.45750 -0.15572
 Mn293 Mn 1.00032 0.46608 -0.00144
 Mn294 Mn 1.00010 0.50089 -0.11502
 Cl295 Cl 1.00032 0.50048 0.00017
 C296 C 0.94994 0.43637 -0.13313
 C297 C 1.05068 0.48720 -0.13353
 N298 N 0.47766 0.45394 0.06730
 N299 N 0.47368 0.43344 0.07700
 N300 N 0.46779 0.49092 0.11140
 N301 N 0.45702 0.49703 0.15147
 N302 N 0.45425 0.47739 0.06698
 N303 N 0.43388 0.47391 0.07557
 N304 N 0.49119 0.46746 0.11173
 N305 N 0.49681 0.45656 0.15293
 C306 C 0.48579 0.43544 0.13038
 C307 C 0.43595 0.48628 0.12836
 N308 N 0.52266 0.54573 0.06486
 N309 N 0.52667 0.56627 0.07365
 N310 N 0.53279 0.50902 0.11038
 N311 N 0.54390 0.50361 0.15141
 N312 N 0.54609 0.52231 0.06512
 N313 N 0.56664 0.52631 0.07406
 N314 N 0.50937 0.53245 0.11015
 N315 N 0.50396 0.54357 0.15105
 Mn316 Mn 0.50028 0.49996 0.11167
 C317 C 0.51484 0.56456 0.12741
 C318 C 0.56491 0.51448 0.12788
 N319 N 0.45390 0.47693 -0.07223
 N320 N 0.43337 0.47300 -0.08100
 N321 N 0.49066 0.46682 -0.11718
 N322 N 0.49657 0.45584 -0.15709
 N323 N 0.47737 0.45353 -0.07190
 N324 N 0.47386 0.43312 -0.07973
 N325 N 0.46719 0.49021 -0.11751
 N326 N 0.45610 0.49569 -0.15839
 Mn327 Mn 0.46556 0.46522 -0.00245
 C328 C 0.43510 0.48485 -0.13476
 C329 C 0.48595 0.43492 -0.13298
 N330 N 0.54572 0.52188 -0.07409
 N331 N 0.56609 0.52536 -0.08263
 N332 N 0.50874 0.53177 -0.11877
 N333 N 0.50260 0.54251 -0.15894
 N334 N 0.52226 0.54531 -0.07435
 N335 N 0.52571 0.56567 -0.08304
 N336 N 0.53219 0.50836 -0.11852
 N337 N 0.54297 0.50224 -0.15857
 Mn338 Mn 0.53441 0.53404 -0.00465
 Mn339 Mn 0.49969 0.49929 -0.11875
 Cl340 Cl 0.49999 0.49963 -0.00353
 C341 C 0.56403 0.51300 -0.13542
 C342 C 0.51334 0.56357 -0.13590
 N343 N 0.45388 -0.02367 0.07059
 N344 N 0.43336 -0.04022 0.07984
 N345 N 0.49074 0.02319 0.11541
 N346 N 0.49672 0.04002 0.15559
 N347 N 0.47732 0.02320 0.07061
 N348 N 0.47378 0.04006 0.07905
 N349 N 0.46730 -0.02367 0.11543
 N350 N 0.45629 -0.04022 0.15647
 C351 C 0.43523 -0.05035 0.13340
 C352 C 0.48600 0.05031 0.13215
 N353 N 0.54571 0.02326 0.07050
 N354 N 0.56622 0.03984 0.07965
 N355 N 0.50887 -0.02364 0.11524
 N356 N 0.50291 -0.04049 0.15537
 N357 N 0.52228 -0.02361 0.07038
 N358 N 0.52584 -0.04046 0.07873
 N359 N 0.53230 0.02322 0.11540
 N360 N 0.54331 0.03977 0.15639
 Mn361 Mn 0.49980 -0.00023 0.11612
 C362 C 0.56436 0.04993 0.13321
 C363 C 0.51363 -0.05076 0.13183
 N364 N 0.47724 0.02320 -0.06861
 N365 N 0.47328 0.03975 -0.07765
 N366 N 0.46731 -0.02361 -0.11351
 N367 N 0.45645 -0.04046 -0.15365
 N368 N 0.45387 -0.02368 -0.06864
 N369 N 0.43348 -0.04058 -0.07699
 N370 N 0.49065 0.02325 -0.11352
 N371 N 0.49620 0.03984 -0.15441
 Mn372 Mn 0.46535 -0.00024 0.00099
 C373 C 0.48526 0.04993 -0.13117
 C374 C 0.43544 -0.05081 -0.13012
 N375 N 0.52233 -0.02349 -0.06882
 N376 N 0.52626 -0.04006 -0.07788
 N377 N 0.53226 0.02337 -0.11352
 N378 N 0.54311 0.04028 -0.15354
 N379 N 0.54570 0.02339 -0.06871
 N380 N 0.56608 0.04033 -0.07697
 N381 N 0.50892 -0.02350 -0.11368
 N382 N 0.50333 -0.04008 -0.15455
 Mn383 Mn 0.53424 -0.00011 0.00083
 Mn384 Mn 0.49978 -0.00012 -0.11431
 Cl385 Cl 0.49979 -0.00017 0.00091
 C386 C 0.51425 -0.05021 -0.13136
 C387 C 0.56411 0.05063 -0.12999
 C388 C 1.13894 0.48784 0.26978
 C389 C 1.11877 0.48010 0.31467
 C390 C 1.10091 0.47969 0.28572
 C391 C 1.10497 0.48705 0.21469
 C392 C 1.11224 0.47182 0.18219
 C393 C 1.13010 0.47223 0.21116
 C394 C 1.14379 0.51064 0.24430
 C395 C 1.12593 0.51022 0.21533
 C396 C 1.15811 0.48828 0.30128
 C397 C 1.17378 0.48868 0.32793
 C398 C 1.08569 0.48659 0.18379
 C399 C 1.06975 0.48616 0.15893
 H400 H 1.11853 0.47536 0.36481
 H401 H 1.08538 0.47459 0.31107
 H402 H 1.10408 0.46162 0.14011
 H403 H 1.13726 0.46238 0.19391
 H404 H 1.15985 0.52576 0.24859
 H405 H 1.12668 0.52500 0.19482
 C406 C 0.51250 0.65004 0.26995
 C407 C 0.53080 0.64576 0.29564
 C408 C 0.53124 0.62844 0.26609
 C409 C 0.51334 0.61708 0.21374
 C410 C 0.51697 0.63587 0.16722
 C411 C 0.51653 0.65320 0.19679
 C412 C 0.49076 0.62771 0.27742
 C413 C 0.49120 0.61039 0.24786
 C414 C 0.51202 0.66863 0.30208
 C415 C 0.51158 0.68379 0.32916
 C416 C 0.51383 0.59840 0.18222
 C417 C 0.51427 0.58298 0.15690
 H418 H 0.54240 0.65548 0.33368
 H419 H 0.54322 0.62332 0.27883
 H420 H 0.51965 0.63558 0.11562
 H421 H 0.51883 0.66777 0.17053
 H422 H 0.47629 0.62569 0.30357
 H423 H 0.47711 0.59352 0.24871
 C424 C 0.34959 -0.13829 0.27578
 C425 C 0.34289 -0.12309 0.24023
 C426 C 0.36030 -0.10529 0.21086
 C427 C 0.38269 -0.10444 0.21994
 C428 C 0.37876 -0.12701 0.19531
 C429 C 0.36135 -0.14481 0.22468
 C430 C 0.36808 -0.12290 0.32270
 C431 C 0.38548 -0.10511 0.29335
 C432 C 0.33090 -0.15740 0.30766
 C433 C 0.31565 -0.17303 0.33449
 C434 C 0.40144 -0.08524 0.18856
 C435 C 0.41686 -0.06936 0.16318
 H436 H 0.32597 -0.12605 0.23825
 H437 H 0.35828 -0.09301 0.18372
 H438 H 0.38876 -0.12884 0.15808
 H439 H 0.35643 -0.16189 0.21261
 H440 H 0.36755 -0.12573 0.37445
 H441 H 0.39986 -0.09270 0.31995
 C442 C 0.85966 0.50728 0.27287
 C443 C 0.86123 0.48611 0.28132
 C444 C 0.87949 0.48731 0.25256
 C445 C 0.89438 0.50956 0.21818
 C446 C 0.90008 0.52743 0.27005
 C447 C 0.88183 0.52623 0.29878
 C448 C 0.86060 0.51111 0.19958
 C449 C 0.87886 0.51231 0.17082
 C450 C 0.84012 0.50612 0.30413
 C451 C 0.82432 0.50549 0.33052
 C452 C 0.91410 0.51094 0.18749
 C453 C 0.93041 0.51217 0.16274
 H454 H 0.84907 0.47147 0.30753
 H455 H 0.88297 0.47369 0.25413
 H456 H 0.91696 0.53993 0.28306
 H457 H 0.88309 0.53770 0.33642
 H458 H 0.84803 0.51271 0.17265
 H459 H 0.88194 0.51495 0.11924
 C460 C 0.48800 0.34993 0.27367
 C461 C 0.49785 0.35470 0.20519
 C462 C 0.49749 0.37210 0.17571
 C463 C 0.48733 0.38302 0.21761
 C464 C 0.50085 0.38947 0.28057
 C465 C 0.50120 0.37207 0.31004
 C466 C 0.46449 0.34656 0.26588
 C467 C 0.46414 0.36396 0.23641
 C468 C 0.48838 0.33124 0.30564
 C469 C 0.48871 0.31598 0.33249
 C470 C 0.48691 0.40176 0.18608
 C471 C 0.48646 0.41715 0.16050
 H472 H 0.50450 0.34524 0.18192
 H473 H 0.50384 0.37755 0.12717
 H474 H 0.50940 0.40622 0.30026
 H475 H 0.51005 0.37392 0.35498
 H476 H 0.44944 0.33180 0.28205
 H477 H 0.44878 0.36411 0.22734
 C478 C 0.64996 0.13805 0.27471
 C479 C 0.65293 0.13709 0.20150
 C480 C 0.63553 0.11924 0.17232
 C481 C 0.61687 0.10413 0.21925
 C482 C 0.61023 0.11958 0.25345
 C483 C 0.62763 0.13742 0.28261
 C484 C 0.64578 0.11553 0.30056
 C485 C 0.62839 0.09769 0.27140
 C486 C 0.66865 0.15721 0.30637
 C487 C 0.68390 0.17287 0.33301
 C488 C 0.59813 0.08488 0.18807
 C489 C 0.58271 0.06897 0.16285
 H490 H 0.66742 0.14934 0.17491
 H491 H 0.63510 0.11621 0.12074
 H492 H 0.59336 0.11677 0.25462
 H493 H 0.62566 0.14989 0.30877
 H494 H 0.65563 0.11374 0.33842
 H495 H 0.62333 0.08063 0.28429
 C496 C 0.48763 0.13814 -0.27164
 C497 C 0.48387 0.13715 -0.19833
 C498 C 0.48348 0.11929 -0.16939
 C499 C 0.48688 0.10418 -0.21662
 C500 C 0.50890 0.11964 -0.25128
 C501 C 0.50930 0.13750 -0.28021
 C502 C 0.46919 0.11563 -0.29724
 C503 C 0.46879 0.09778 -0.26832
 C504 C 0.48805 0.15731 -0.30307
 C505 C 0.48842 0.17298 -0.32957
 C506 C 0.48641 0.08492 -0.18570
 C507 C 0.48594 0.06899 -0.16065
 H508 H 0.48172 0.14939 -0.17151
 H509 H 0.48099 0.11623 -0.11777
 H510 H 0.52295 0.11682 -0.25293
 H511 H 0.52369 0.14997 -0.30665
 H512 H 0.45746 0.11386 -0.33478
 H513 H 0.45673 0.08072 -0.28109
 C514 C 0.64841 0.50692 -0.27201
 C515 C 0.64448 0.52510 -0.30061
 C516 C 0.62732 0.52623 -0.27239
 C517 C 0.61576 0.50907 -0.21830
 C518 C 0.63446 0.51300 -0.17103
 C519 C 0.65163 0.51187 -0.19928
 C520 C 0.62589 0.48531 -0.27792
 C521 C 0.60872 0.48644 -0.24967
 C522 C 0.66691 0.50585 -0.30275
 C523 C 0.68216 0.50527 -0.32879
 C524 C 0.59730 0.51036 -0.18817
 C525 C 0.58212 0.51153 -0.16387
 H526 H 0.65430 0.53612 -0.33964
 H527 H 0.62245 0.53821 -0.28723
 H528 H 0.63423 0.51635 -0.11988
 H529 H 0.66611 0.51426 -0.17234
 H530 H 0.62364 0.47043 -0.30212
 H531 H 0.59175 0.47252 -0.24967
 C532 C 0.86163 0.35061 -0.27354
 C533 C 0.88413 0.35525 -0.30093
 C534 C 0.90200 0.37272 -0.27213
 C535 C 0.89562 0.38386 -0.21875
 C536 C 0.88099 0.36497 -0.17180
 C537 C 0.86312 0.34749 -0.20062
 C538 C 0.86182 0.37276 -0.28009
 C539 C 0.87968 0.39024 -0.25128
 C540 C 0.84245 0.33183 -0.30480
 C541 C 0.82678 0.31648 -0.33113
 C542 C 0.91490 0.40267 -0.18791
 C543 C 0.93085 0.41809 -0.16281
 H544 H 0.88588 0.34564 -0.33955
 H545 H 0.91905 0.37809 -0.28609
 H546 H 0.88437 0.36531 -0.12046
 H547 H 0.85119 0.33284 -0.17396
 H548 H 0.84903 0.37455 -0.30512
 H549 H 0.88221 0.40701 -0.25163
 C550 C 0.51173 -0.13848 -0.27145
 C551 C 0.51571 -0.13737 -0.19822
 C552 C 0.51613 -0.11950 -0.16939
 C553 C 0.51251 -0.10451 -0.21662
 C554 C 0.49040 -0.12007 -0.25069
 C555 C 0.48999 -0.13794 -0.27951
 C556 C 0.53004 -0.11598 -0.29759
 C557 C 0.53045 -0.09812 -0.26877
 C558 C 0.51131 -0.15765 -0.30278
 C559 C 0.51096 -0.17330 -0.32923
 C560 C 0.51300 -0.08523 -0.18579
 C561 C 0.51351 -0.06928 -0.16081
 H562 H 0.51800 -0.14954 -0.17139
 H563 H 0.51876 -0.11636 -0.11784
 H564 H 0.47631 -0.11732 -0.25202
 H565 H 0.47554 -0.15049 -0.30554
 H566 H 0.54167 -0.11422 -0.33540
 H567 H 0.54243 -0.08107 -0.28190
 C568 C 0.34949 0.48754 -0.27580
 C569 C 0.34637 0.48325 -0.20273
 C570 C 0.36376 0.48275 -0.17356
 C571 C 0.38255 0.48660 -0.22034
 C572 C 0.38917 0.50884 -0.25375
 C573 C 0.37180 0.50933 -0.28291
 C574 C 0.35382 0.46938 -0.30229
 C575 C 0.37120 0.46889 -0.27314
 C576 C 0.33084 0.48807 -0.30750
 C577 C 0.31562 0.48852 -0.33425
 C578 C 0.40127 0.48604 -0.18921
 C579 C 0.41670 0.48553 -0.16412
 H580 H 0.33180 0.48082 -0.17624
 H581 H 0.36408 0.47990 -0.12207
 H582 H 0.40602 0.52295 -0.25442
 H583 H 0.37376 0.52387 -0.30856
 H584 H 0.34410 0.45791 -0.34057
 H585 H 0.37635 0.45700 -0.28646
 C586 C 1.13862 0.65130 -0.27116
 C587 C 1.13749 0.65425 -0.19799
 C588 C 1.11960 0.63682 -0.16900
 C589 C 1.10460 0.61816 -0.21603
 C590 C 1.12017 0.61159 -0.24986
 C591 C 1.13805 0.62901 -0.27885
 C592 C 1.11612 0.64708 -0.29741
 C593 C 1.09824 0.62966 -0.26843
 C594 C 1.15782 0.67001 -0.30265
 C595 C 1.17352 0.68527 -0.32923
 C596 C 1.08530 0.59938 -0.18508
 C597 C 1.06936 0.58392 -0.16009
 H598 H 1.14967 0.66874 -0.17132
 H599 H 1.11646 0.63637 -0.11747
 H600 H 1.11740 0.59473 -0.25093
 H601 H 1.15060 0.62708 -0.30474
 H602 H 1.11438 0.65691 -0.33541
 H603 H 1.08118 0.62457 -0.28162
 C604 C 0.86157 0.51273 -0.27006
 C605 C 0.88408 0.53180 -0.29362
 C606 C 0.90195 0.53230 -0.26445
 C607 C 0.89557 0.51367 -0.21457
 C608 C 0.88073 0.49199 -0.25149
 C609 C 0.86286 0.49149 -0.28066
 C610 C 0.86196 0.51556 -0.19641
 C611 C 0.87984 0.51605 -0.16723
 C612 C 0.84239 0.51219 -0.30180
 C613 C 0.82671 0.51171 -0.32863
 C614 C 0.91486 0.51422 -0.18348
 C615 C 0.93082 0.51470 -0.15853
 H616 H 0.88584 0.54387 -0.33000
 H617 H 0.91901 0.54479 -0.27585
 H618 H 0.88396 0.47822 -0.25442
 H619 H 0.85079 0.47731 -0.30859
 H620 H 0.84931 0.51703 -0.16957
 H621 H 0.88250 0.51795 -0.11537
 C622 C 0.49209 0.35062 -0.26965
 C623 C 0.50193 0.37182 -0.31103
 C624 C 0.50073 0.38890 -0.28259
 C625 C 0.48980 0.38311 -0.21553
 C626 C 0.50332 0.37511 -0.17647
 C627 C 0.50452 0.35802 -0.20494
 C628 C 0.46819 0.34513 -0.25444
 C629 C 0.46699 0.36221 -0.22600
 C630 C 0.49326 0.33222 -0.30066
 C631 C 0.49392 0.31705 -0.32697
 C632 C 0.48846 0.40152 -0.18525
 C633 C 0.48730 0.41672 -0.16104
 H634 H 0.50923 0.37330 -0.35849
 H635 H 0.50700 0.40501 -0.30569
 H636 H 0.51124 0.38224 -0.13052
 H637 H 0.51348 0.35050 -0.18340
 H638 H 0.45350 0.32921 -0.26502
 H639 H 0.45128 0.36092 -0.21221
 C640 C 0.64820 0.14123 -0.26744
 C641 C 0.64707 0.11931 -0.28666
 C642 C 0.63002 0.10100 -0.25812
 C643 C 0.61575 0.10639 -0.21313
 C644 C 0.60804 0.11953 -0.25511
 C645 C 0.62510 0.13785 -0.28367
 C646 C 0.64935 0.14175 -0.19333
 C647 C 0.63229 0.12343 -0.16475
 C648 C 0.66658 0.16083 -0.29856
 C649 C 0.68173 0.17668 -0.32493
 C650 C 0.59738 0.08659 -0.18271
 C651 C 0.58223 0.07021 -0.15834
 H652 H 0.65865 0.11826 -0.31978
 H653 H 0.62700 0.08428 -0.26679
 H654 H 0.59070 0.11487 -0.26177
 H655 H 0.62238 0.14888 -0.31480
 H656 H 0.66241 0.15532 -0.16573
 H657 H 0.63072 0.12129 -0.11268
 C658 C 1.14051 0.49314 -0.27426
 C659 C 1.14065 0.51534 -0.27459
 C660 C 1.12248 0.51423 -0.24547
 C661 C 1.10597 0.49103 -0.21890
 C662 C 1.11983 0.48511 -0.17378
 C663 C 1.13800 0.48622 -0.20289
 C664 C 1.11833 0.47637 -0.30589
 C665 C 1.10018 0.47526 -0.27680
 C666 C 1.15996 0.49420 -0.30588
 C667 C 1.17569 0.49477 -0.33254
 C668 C 1.08635 0.48976 -0.18782
 C669 C 1.07011 0.48861 -0.16279
 H670 H 1.15384 0.53059 -0.29578
 H671 H 1.12011 0.52853 -0.24172
 H672 H 1.11575 0.48047 -0.12341
 H673 H 1.14948 0.48253 -0.17746
 H674 H 1.11700 0.46625 -0.34751
 H675 H 1.08330 0.46419 -0.29350
 C676 C 0.50702 0.64777 -0.27316
 C677 C 0.51263 0.65132 -0.20082
 C678 C 0.51381 0.63419 -0.17244
 C679 C 0.50927 0.61520 -0.21920
 C680 C 0.52599 0.62635 -0.27455
 C681 C 0.52480 0.64346 -0.30290
 C682 C 0.48523 0.62535 -0.27735
 C683 C 0.48641 0.60822 -0.24897
 C684 C 0.50589 0.66622 -0.30402
 C685 C 0.50527 0.68146 -0.33012
 C686 C 0.51062 0.59678 -0.18892
 C687 C 0.51184 0.58163 -0.16450
 H688 H 0.51540 0.66598 -0.17422
 H689 H 0.51760 0.63418 -0.12153
 H690 H 0.53772 0.62126 -0.29012
 H691 H 0.53553 0.65302 -0.34276
 H692 H 0.47019 0.62313 -0.30051
 H693 H 0.47238 0.59133 -0.24783
 C694 C 0.35129 -0.14102 -0.26855
 C695 C 0.37375 -0.14029 -0.27297
 C696 C 0.39083 -0.12205 -0.24419
 C697 C 0.38376 -0.10634 -0.21384
 C698 C 0.36474 -0.12101 -0.16733
 C699 C 0.34766 -0.13926 -0.19611
 C700 C 0.35555 -0.11886 -0.29763
 C701 C 0.37261 -0.10063 -0.26889
 C702 C 0.33290 -0.16054 -0.29986
 C703 C 0.31773 -0.17634 -0.32637
 C704 C 0.40215 -0.08663 -0.18319
 C705 C 0.41730 -0.07032 -0.15864
 H706 H 0.37604 -0.15298 -0.29657
 H707 H 0.40775 -0.11912 -0.24315
 H708 H 0.36469 -0.11741 -0.11630
 H709 H 0.33298 -0.15128 -0.16974
 H710 H 0.34601 -0.11759 -0.33735
 H711 H 0.37768 -0.08375 -0.28397
 C712 C 0.50765 -0.14091 0.27055
 C713 C 0.53007 -0.11947 0.28050
 C714 C 0.53124 -0.10125 0.25166
 C715 C 0.50987 -0.10624 0.21567
 C716 C 0.49124 -0.11716 0.26622
 C717 C 0.49007 -0.13539 0.29507
 C718 C 0.50438 -0.14321 0.19700
 C719 C 0.50555 -0.12497 0.16813
 C720 C 0.50651 -0.16042 0.30195
 C721 C 0.50586 -0.17621 0.32851
 C722 C 0.51118 -0.08655 0.18494
 C723 C 0.51231 -0.07025 0.16036
 H724 H 0.54384 -0.11867 0.30779
 H725 H 0.54600 -0.08485 0.25425
 H726 H 0.47994 -0.11113 0.27825
 H727 H 0.47778 -0.14497 0.33182
 H728 H 0.50140 -0.15786 0.16999
 H729 H 0.50357 -0.12400 0.11639
 C730 C 0.35184 0.49260 0.26604
 C731 C 0.35583 0.47447 0.29472
 C732 C 0.37291 0.47327 0.26621
 C733 C 0.38434 0.49032 0.21178
 C734 C 0.39147 0.51301 0.24283
 C735 C 0.37438 0.51421 0.27137
 C736 C 0.34843 0.48750 0.19340
 C737 C 0.36552 0.48630 0.16487
 C738 C 0.33343 0.49376 0.29709
 C739 C 0.31825 0.49441 0.32337
 C740 C 0.40273 0.48895 0.18136
 C741 C 0.41787 0.48775 0.15691
 H742 H 0.34609 0.46352 0.33400
 H743 H 0.37779 0.46130 0.28106
 H744 H 0.40844 0.52692 0.24241
 H745 H 0.37671 0.52914 0.29538
 H746 H 0.33389 0.48506 0.16674
 H747 H 0.36562 0.48284 0.11375
 C748 C 1.14120 0.64840 0.27193
 C749 C 1.13902 0.65247 0.20004
 C750 C 1.12081 0.63540 0.17108
 C751 C 1.10657 0.61596 0.21688
 C752 C 1.10082 0.62647 0.27349
 C753 C 1.11901 0.64352 0.30242
 C754 C 1.14093 0.62615 0.27416
 C755 C 1.12272 0.60908 0.24520
 C756 C 1.16068 0.66678 0.30343
 C757 C 1.17643 0.68194 0.33006
 C758 C 1.08690 0.59759 0.18603
 C759 C 1.07061 0.58246 0.16128
 H760 H 1.15075 0.66741 0.17415
 H761 H 1.11694 0.63573 0.12039
 H762 H 1.08394 0.62100 0.28947
 H763 H 1.11771 0.65265 0.34318
 H764 H 1.15390 0.62398 0.29646
 H765 H 1.12010 0.59230 0.24270
 C766 C 0.49212 0.14037 0.27145
 C767 C 0.47370 0.11816 0.29889
 C768 C 0.47250 0.09997 0.26992
 C769 C 0.48985 0.10574 0.21631
 C770 C 0.51241 0.12103 0.24863
 C771 C 0.51360 0.13923 0.27763
 C772 C 0.48746 0.13909 0.19858
 C773 C 0.48626 0.12088 0.16958
 C774 C 0.49329 0.15985 0.30301
 C775 C 0.49395 0.17562 0.32970
 C776 C 0.48851 0.08607 0.18544
 C777 C 0.48735 0.06979 0.16076
 H778 H 0.46256 0.11684 0.33770
 H779 H 0.46034 0.08307 0.28389
 H780 H 0.52623 0.11784 0.24869
 H781 H 0.52844 0.15164 0.30253
 H782 H 0.48530 0.15140 0.17210
 H783 H 0.48308 0.11759 0.11825
 C784 C 0.65044 0.51219 0.27099
 C785 C 0.65281 0.51450 0.19721
 C786 C 0.63546 0.51493 0.16754
 C787 C 0.61746 0.51301 0.21459
 C788 C 0.62989 0.53196 0.26335
 C789 C 0.64722 0.53153 0.29300
 C790 C 0.62783 0.49113 0.28261
 C791 C 0.61049 0.49156 0.25296
 C792 C 0.66906 0.51173 0.30322
 C793 C 0.68423 0.51131 0.33037
 C794 C 0.59876 0.51349 0.18296
 C795 C 0.58333 0.51392 0.15753
 H796 H 0.66686 0.51568 0.17062
 H797 H 0.63465 0.51648 0.11553
 H798 H 0.62547 0.54462 0.27368
 H799 H 0.65765 0.54382 0.32871
 H800 H 0.62563 0.47710 0.31155
 H801 H 0.59345 0.47790 0.25650
 C802 C 0.85963 0.35179 0.26944
 C803 C 0.86038 0.37427 0.27301
 C804 C 0.87863 0.39123 0.24389
 C805 C 0.89434 0.38406 0.21408
 C806 C 0.87966 0.36490 0.16805
 C807 C 0.86140 0.34793 0.19717
 C808 C 0.88181 0.35615 0.29874
 C809 C 0.90004 0.37310 0.26965
 C810 C 0.84010 0.33353 0.30116
 C811 C 0.82430 0.31849 0.32804
 C812 C 0.91406 0.40236 0.18313
 C813 C 0.93038 0.41750 0.15850
 H814 H 0.84769 0.37664 0.29629
 H815 H 0.88157 0.40815 0.24225
 H816 H 0.88327 0.36469 0.11709
 H817 H 0.84937 0.33317 0.17116
 H818 H 0.88307 0.34673 0.33884
 H819 H 0.91693 0.37821 0.28483
   
