data_POSCAR
  _audit_creation_date              2014-09-24
  _audit_creation_method            'ToBaCCo'
  _symmetry_space_group_name_H-M    'P1'
  _symmetry_Int_Tables_number       1
  _symmetry_cell_setting            triclinic
  loop_
  _symmetry_equiv_pos_as_xyz
 x,y,z
_cell_length_a 28.4980
_cell_length_b 29.5885
_cell_length_c 35.2847
_cell_angle_alpha 89.978400
_cell_angle_beta 90.628200
_cell_angle_gamma 89.930600
loop_
  _atom_site_label
  _atom_site_type_symbol
  _atom_site_fract_x
  _atom_site_fract_y
  _atom_site_fract_z
B1 B 0.26701 0.21986 0.20892
 B2 B 0.28979 0.26910 0.22468
 B3 B 0.23421 0.26665 0.20686
 B4 B 0.21015 0.21691 0.22052
 B5 B 0.25144 0.18945 0.24697
 B6 B 0.30050 0.22178 0.24924
 B7 B 0.22907 0.26921 0.28307
 B8 B 0.20834 0.21858 0.26811
 B9 B 0.26326 0.22198 0.28558
 B10 B 0.28695 0.27147 0.27219
 B11 B 0.24593 0.29910 0.24515
 B12 B 0.19664 0.26600 0.24283
 B13 B 0.74026 0.78886 0.20677
 B14 B 0.70894 0.74285 0.21869
 B15 B 0.76617 0.73772 0.20785
 B16 B 0.79497 0.78340 0.22487
 B17 B 0.75435 0.81639 0.24698
 B18 B 0.70096 0.79105 0.24264
 B19 B 0.75858 0.73490 0.28400
 B20 B 0.78961 0.78107 0.27209
 B21 B 0.73222 0.78562 0.28307
 B22 B 0.70377 0.74020 0.26582
 B23 B 0.74424 0.70738 0.24397
 B24 B 0.79766 0.73269 0.24814
 B25 B 0.71051 0.24239 -0.29176
 B26 B 0.76417 0.22025 -0.28318
 B27 B 0.75853 0.27310 -0.30113
 B28 B 0.71154 0.29752 -0.28107
 B29 B 0.68861 0.25948 -0.25011
 B30 B 0.72103 0.21134 -0.25210
 B31 B 0.77778 0.27959 -0.22606
 B32 B 0.72377 0.30128 -0.23453
 B33 B 0.72960 0.24860 -0.21658
 B34 B 0.77664 0.22400 -0.23668
 B35 B 0.79963 0.26223 -0.26757
 B36 B 0.76669 0.31034 -0.26574
 B37 B 0.27796 0.75299 -0.28750
 B38 B 0.22191 0.76166 -0.27359
 B39 B 0.24052 0.70919 -0.28490
 B40 B 0.29615 0.70249 -0.26937
 B41 B 0.31256 0.75194 -0.24890
 B42 B 0.26684 0.78924 -0.25195
 B43 B 0.23876 0.71795 -0.20853
 B44 B 0.29438 0.70828 -0.22168
 B45 B 0.27764 0.76157 -0.21148
 B46 B 0.22137 0.76794 -0.22635
 B47 B 0.20460 0.71795 -0.24730
 B48 B 0.25043 0.68122 -0.24418
 B49 B 1.23367 1.28216 0.71057
 B50 B 1.20792 1.23461 0.72635
 B51 B 1.26444 1.23353 0.71213
 B52 B 1.29004 1.28261 0.72556
 B53 B 1.24836 1.31347 0.74873
 B54 B 1.19761 1.28351 0.74866
 B55 B 1.26350 1.23526 0.78880
 B56 B 1.28904 1.28332 0.77321
 B57 B 1.23244 1.28344 0.78739
 B58 B 1.20719 1.23468 0.77362
 B59 B 1.24853 1.20405 0.75075
 B60 B 1.29963 1.23405 0.75089
 B61 B 0.75685 0.71264 0.71614
 B62 B 0.78617 0.76079 0.72637
 B63 B 0.72989 0.76323 0.71119
 B64 B 0.70059 0.71914 0.72980
 B65 B 0.73980 0.68987 0.75724
 B66 B 0.79309 0.71567 0.75456
 B67 B 0.73148 0.77447 0.78754
 B68 B 0.70200 0.72655 0.77704
 B69 B 0.75852 0.72429 0.79211
 B70 B 0.78760 0.76845 0.77351
 B71 B 0.74828 0.79783 0.74648
 B72 B 0.69509 0.77200 0.74902
 B73 B 1.23581 0.74093 0.20047
 B74 B 1.28762 0.72466 0.22013
 B75 B 1.27769 0.77969 0.20985
 B76 B 1.22091 0.79151 0.21878
 B77 B 1.19594 0.74315 0.23519
 B78 B 1.23721 0.70167 0.23547
 B79 B 1.26567 0.76757 0.28526
 B80 B 1.21347 0.78290 0.26565
 B81 B 1.22402 0.72809 0.27602
 B82 B 1.28066 0.71646 0.26702
 B83 B 1.30556 0.76483 0.25083
 B84 B 1.26379 0.80644 0.25021
 B85 B 0.76146 1.25695 0.29890
 B86 B 0.77294 1.20606 0.27921
 B87 B 0.71697 1.22198 0.28698
 B88 B 0.71211 1.27742 0.27873
 B89 B 0.76556 1.29660 0.26511
 B90 B 0.80369 1.25214 0.26580
 B91 B 0.73548 1.23467 0.21263
 B92 B 0.72371 1.28529 0.23282
 B93 B 0.77983 1.26975 0.22443
 B94 B 0.78515 1.21370 0.23289
 B95 B 0.73144 1.19466 0.24641
 B96 B 0.69355 1.23914 0.24572
 O97 O 0.56942 1.09251 0.06300
 O98 O 0.62459 1.05642 0.02681
 C99 C 0.61246 1.08467 0.05321
 O100 O 0.45250 0.92071 0.05721
 O101 O 0.39468 0.96013 0.02559
 C102 C 0.40878 0.92946 0.04964
 O103 O 0.58135 0.93354 0.05997
 O104 O 0.63008 0.98054 0.02659
 C105 C 0.62234 0.94960 0.05210
 O106 O 0.43915 1.08569 0.06198
 O107 O 0.38885 1.03891 0.02909
 C108 C 0.39770 1.07010 0.05408
 Zr109 Zr 0.50552 1.06404 0.04344
 O110 O 0.50401 1.05438 0.10295
 O111 O 0.50043 1.13457 0.05225
 Zr112 Zr 0.51473 0.95107 0.03824
 O113 O 0.51217 0.94479 0.09793
 O114 O 0.52560 0.88055 0.03246
 O115 O 0.55241 1.01043 0.04800
 O116 O 0.46933 1.00412 0.04823
 O117 O 0.43505 1.09278 -0.06829
 O118 O 0.38675 1.04332 -0.03707
 C119 C 0.39404 1.07686 -0.06020
 O120 O 0.57662 0.94065 -0.08021
 O121 O 0.62798 0.98185 -0.04331
 C122 C 0.61843 0.95374 -0.07084
 O123 O 0.44811 0.92784 -0.07446
 O124 O 0.39220 0.96336 -0.03898
 C125 C 0.40494 0.93415 -0.06442
 O126 O 0.56484 1.09924 -0.07177
 O127 O 0.62230 1.05922 -0.04011
 C128 C 0.60848 1.09033 -0.06385
 Zr129 Zr 0.50231 1.07014 -0.05150
 O130 O 0.49572 1.07228 -0.11134
 O131 O 0.50051 1.14161 -0.04840
 Zr132 Zr 0.51160 0.95716 -0.05644
 O133 O 0.50424 0.96072 -0.11616
 O134 O 0.52263 0.88646 -0.05945
 Zr135 Zr 0.57951 1.01593 -0.00726
 Zr136 Zr 0.43756 1.00514 -0.00599
 O137 O 0.46569 1.01087 -0.06070
 O138 O 0.54886 1.01732 -0.06197
 O139 O 0.46104 1.07279 -0.00326
 O140 O 0.55521 0.94893 -0.00976
 O141 O 0.54422 1.07845 -0.00416
 O142 O 0.47167 0.94188 -0.00908
 H143 H 0.44935 1.00147 0.07092
 H144 H 0.57861 0.92417 -0.01078
 H145 H 0.44410 1.01046 -0.08290
 H146 H 0.56270 1.10677 -0.00359
 H147 H 0.49691 0.86734 0.02097
 H148 H 0.49837 0.87170 -0.04392
 H149 H 0.52791 0.98233 -0.12549
 H150 H 0.52463 1.05921 -0.12209
 H151 H 0.47523 1.15004 -0.03072
 H152 H 0.50927 1.14953 0.02836
 H153 H 0.53625 1.04718 0.11176
 H154 H 0.53220 0.96884 0.10886
 O155 O 1.05287 0.57473 0.56973
 O156 O 1.10801 0.53974 0.53267
 C157 C 1.09566 0.56407 0.56177
 O158 O 0.92681 0.41722 0.55752
 O159 O 0.87308 0.46142 0.52563
 C160 C 0.88415 0.42863 0.54855
 O161 O 1.05714 0.42296 0.56341
 O162 O 1.10975 0.46591 0.52997
 C163 C 1.09945 0.43592 0.55566
 O164 O 0.92429 0.58373 0.56091
 O165 O 0.87181 0.54233 0.52535
 C166 C 0.88199 0.57310 0.55050
 Zr167 Zr 0.98962 0.55907 0.54216
 O168 O 0.98430 0.56562 0.60160
 O169 O 0.99643 0.63023 0.53805
 Zr170 Zr 0.99164 0.44529 0.54148
 O171 O 0.98659 0.44588 0.60133
 O172 O 0.99749 0.37392 0.54151
 O173 O 1.03227 0.50239 0.54959
 O174 O 0.94946 0.50153 0.54868
 O175 O 0.92400 0.58458 0.42771
 O176 O 0.87175 0.53979 0.45970
 C177 C 0.88177 0.57127 0.43529
 O178 O 1.05642 0.42500 0.42666
 O179 O 1.11050 0.46446 0.46169
 C180 C 1.09933 0.43477 0.43568
 O181 O 0.92763 0.41513 0.43263
 O182 O 0.87328 0.45961 0.46245
 C183 C 0.88476 0.42584 0.44081
 O184 O 1.05336 0.58211 0.42556
 O185 O 1.10839 0.54414 0.46137
 C186 C 1.09637 0.57210 0.43423
 Zr187 Zr 0.98962 0.56049 0.44789
 O188 O 0.98479 0.56484 0.38814
 O189 O 0.99386 0.63183 0.45216
 Zr190 Zr 0.99148 0.44725 0.44643
 O191 O 0.98480 0.45367 0.38677
 O192 O 0.99609 0.37659 0.43846
 Zr193 Zr 1.06236 0.50351 0.49506
 Zr194 Zr 0.91955 0.50193 0.49390
 O195 O 0.94926 0.50305 0.43959
 O196 O 1.03296 0.50436 0.43981
 O197 O 0.94684 0.56818 0.49470
 O198 O 1.03296 0.43825 0.49423
 O199 O 1.03181 0.56840 0.49564
 O200 O 0.94997 0.43678 0.49361
 H201 H 0.92828 0.50100 0.57076
 H202 H 1.05414 0.41168 0.49450
 H203 H 0.92793 0.50199 0.41724
 H204 H 1.05359 0.59448 0.49661
 H205 H 0.97334 0.36199 0.52381
 H206 H 1.00040 0.36298 0.46382
 H207 H 1.01555 0.46322 0.37679
 H208 H 1.00466 0.54052 0.37775
 H209 H 0.96391 0.64302 0.46257
 H210 H 0.96611 0.64254 0.52880
 H211 H 0.98738 0.53490 0.61228
 H212 H 1.01418 0.46234 0.61154
 O213 O 0.91464 0.43805 -0.06736
 O214 O 0.95776 0.38707 -0.03214
 C215 C 0.92736 0.39723 -0.05866
 O216 O 1.07835 0.56516 -0.06519
 O217 O 1.03635 0.61662 -0.03086
 C218 C 1.06870 0.60613 -0.05521
 O219 O 1.07728 0.44199 -0.06853
 O220 O 1.03855 0.38922 -0.03287
 C221 C 1.06884 0.40080 -0.05857
 O222 O 0.90509 0.56283 -0.06034
 O223 O 0.95086 0.61502 -0.02918
 C224 C 0.91619 0.60400 -0.05155
 Zr225 Zr 0.93575 0.50077 -0.04500
 O226 O 0.93837 0.50453 -0.10477
 O227 O 0.86182 0.49381 -0.04626
 Zr228 Zr 1.05236 0.50300 -0.04721
 O229 O 1.04618 0.50712 -0.10700
 O230 O 1.12637 0.49976 -0.05106
 O231 O 0.99466 0.46091 -0.05346
 O232 O 0.99297 0.54216 -0.05314
 O233 O 0.91106 0.56294 0.06709
 O234 O 0.95366 0.61505 0.03376
 C235 C 0.92125 0.60409 0.05768
 O236 O 1.08296 0.44066 0.06796
 O237 O 1.04018 0.38864 0.03377
 C238 C 1.07233 0.39950 0.05853
 O239 O 1.08555 0.56655 0.06406
 O240 O 1.03734 0.61663 0.03248
 C241 C 1.07206 0.60726 0.05542
 O242 O 0.91953 0.43845 0.07306
 O243 O 0.95891 0.38738 0.03607
 C244 C 0.93063 0.39756 0.06361
 Zr245 Zr 0.94002 0.50082 0.05030
 O246 O 0.94859 0.50403 0.10982
 O247 O 0.86630 0.49456 0.05481
 Zr248 Zr 1.05709 0.50310 0.04816
 O249 O 1.05577 0.50770 0.10805
 O250 O 1.13125 0.49942 0.04982
 Zr251 Zr 0.99752 0.43324 0.00154
 Zr252 Zr 0.99524 0.57032 0.00152
 O253 O 0.99798 0.54207 0.05622
 O254 O 0.99967 0.46098 0.05660
 O255 O 0.92776 0.54091 0.00285
 O256 O 1.06428 0.46386 0.00030
 O257 O 0.92963 0.46100 0.00279
 O258 O 1.06371 0.54340 0.00021
 H259 H 0.99164 0.56301 -0.07513
 H260 H 1.09300 0.44499 -0.00028
 H261 H 0.99851 0.56286 0.07824
 H262 H 0.90229 0.44034 0.00317
 H263 H 1.13959 0.52179 -0.03281
 H264 H 1.14310 0.52050 0.03042
 H265 H 1.03819 0.48125 0.11755
 H266 H 0.91656 0.50367 0.12046
 H267 H 0.85195 0.51523 0.03596
 H268 H 0.84901 0.51491 -0.02728
 H269 H 0.90535 0.50417 -0.11387
 H270 H 1.02617 0.48171 -0.11563
 O271 O 0.58614 0.93558 0.56536
 O272 O 0.54384 0.88286 0.53168
 C273 C 0.57616 0.89416 0.55611
 O274 O 0.40875 1.05283 0.56983
 O275 O 0.44890 1.10651 0.53626
 C276 C 0.41769 1.09452 0.56091
 O277 O 0.42101 0.92782 0.57285
 O278 O 0.46499 0.87918 0.53676
 C279 C 0.43489 0.88769 0.56329
 O280 O 0.58578 1.06153 0.56026
 O281 O 0.53316 1.11057 0.53230
 C282 C 0.57019 1.10178 0.55274
 Zr283 Zr 0.55677 0.99774 0.54735
 O284 O 0.55480 1.00217 0.60724
 O285 O 0.63080 0.99796 0.55130
 Zr286 Zr 0.44025 0.99187 0.55216
 O287 O 0.45344 0.99352 0.61118
 O288 O 0.36727 0.98690 0.56157
 O289 O 0.50134 0.95370 0.55665
 O290 O 0.49684 1.03508 0.55712
 O291 O 0.57138 1.06262 0.43351
 O292 O 0.52820 1.11146 0.46978
 C293 C 0.55874 1.10279 0.44368
 O294 O 0.41158 0.92953 0.43568
 O295 O 0.45792 0.87954 0.46886
 C296 C 0.42480 0.88883 0.44427
 O297 O 0.40112 1.05377 0.44055
 O298 O 0.44513 1.10719 0.47167
 C299 C 0.41116 1.09534 0.44881
 O300 O 0.57549 0.93889 0.42971
 O301 O 0.53964 0.88446 0.46555
 C302 C 0.56872 0.89733 0.43943
 Zr303 Zr 0.54933 0.99883 0.45206
 O304 O 0.53907 1.00065 0.39265
 O305 O 0.62330 0.99953 0.44687
 Zr306 Zr 0.43268 0.99262 0.45693
 O307 O 0.42844 0.99746 0.39712
 O308 O 0.35899 0.98465 0.45992
 Zr309 Zr 0.49862 0.92675 0.50119
 Zr310 Zr 0.49092 1.06354 0.50262
 O311 O 0.48827 1.03563 0.44783
 O312 O 0.49283 0.95490 0.44650
 O313 O 0.56026 1.03881 0.49957
 O314 O 0.42982 0.95223 0.50450
 O315 O 0.56416 0.95947 0.49891
 O316 O 0.42465 1.03204 0.50521
 H317 H 0.49758 1.05606 0.57902
 H318 H 0.40329 0.93068 0.50531
 H319 H 0.48554 1.05599 0.42560
 H320 H 0.59347 0.94154 0.49751
 H321 H 0.35249 0.97826 0.53720
 H322 H 0.34701 1.00810 0.47734
 H323 H 0.45209 0.97653 0.38663
 H324 H 0.57071 1.00317 0.38145
 H325 H 0.63568 1.02279 0.46446
 H326 H 0.64252 0.99915 0.52508
 H327 H 0.54442 0.97249 0.61699
 H328 H 0.42233 0.99208 0.62336
 O329 O 1.08690 1.08142 0.46358
 O330 O 1.05277 1.03861 0.41685
 C331 C 1.08032 1.07089 0.42838
 O332 O 1.08647 0.91891 0.56688
 O333 O 1.03689 0.95865 0.60545
 C334 C 1.06993 0.92951 0.59972
 O335 O 1.10158 0.92290 0.46259
 O336 O 1.05857 0.95945 0.41668
 C337 C 1.09034 0.93053 0.42753
 O338 O 1.06764 1.08533 0.56747
 O339 O 1.02787 1.03600 0.60557
 C340 C 1.05382 1.07117 0.60029
 Zr341 Zr 1.05661 1.05722 0.51315
 O342 O 1.12920 1.06656 0.52357
 O343 O 1.04519 1.12780 0.51044
 Zr344 Zr 1.06916 0.94402 0.51268
 O345 O 1.14215 0.95178 0.52227
 O346 O 1.07435 0.87277 0.51141
 O347 O 1.07634 1.00210 0.47983
 O348 O 1.06807 1.00101 0.54646
 O349 O 0.90999 1.06861 0.55441
 O350 O 0.95247 1.02907 0.59924
 C351 C 0.92078 1.05812 0.58922
 O352 O 0.93458 0.90913 0.44784
 O353 O 0.97787 0.95621 0.41000
 C354 C 0.94812 0.92386 0.41507
 O355 O 0.92951 0.90235 0.55437
 O356 O 0.96015 0.95108 0.59872
 C357 C 0.93583 0.91608 0.58906
 O358 O 0.91745 1.06461 0.44772
 O359 O 0.97246 1.03080 0.40969
 C360 C 0.93573 1.05585 0.41493
 Zr361 Zr 0.93951 1.04550 0.50298
 O362 O 0.86572 1.03713 0.50123
 O363 O 0.93141 1.11644 0.49930
 Zr364 Zr 0.95189 0.93244 0.50297
 O365 O 0.87779 0.92710 0.50162
 O366 O 0.95809 0.86132 0.49924
 Zr367 Zr 1.01128 0.99597 0.45141
 Zr368 Zr 0.99827 0.99401 0.56385
 O369 O 0.93346 0.98764 0.53525
 O370 O 0.94080 0.98866 0.46836
 O371 O 0.99331 1.05972 0.54145
 O372 O 1.01493 0.93060 0.47506
 O373 O 1.00112 1.06031 0.47520
 O374 O 1.00778 0.92894 0.54128
 H375 H 1.09335 1.00362 0.56586
 H376 H 1.01864 0.90368 0.45867
 H377 H 0.90457 0.98468 0.55042
 H378 H 1.00031 1.08715 0.45840
 H379 H 1.10801 0.86525 0.51512
 H380 H 0.98520 0.85259 0.51543
 H381 H 0.86649 0.94178 0.47804
 H382 H 0.85793 1.01888 0.47854
 H383 H 0.95368 1.12992 0.51779
 H384 H 1.07635 1.14218 0.51380
 H385 H 1.14608 1.04552 0.50674
 H386 H 1.15499 0.96850 0.50043
 O387 O 0.45702 0.38446 -0.04108
 O388 O 0.48343 0.43458 -0.08568
 C389 C 0.46323 0.39714 -0.07586
 O390 O 0.40339 0.54799 0.05401
 O391 O 0.45840 0.52507 0.09817
 C392 C 0.41965 0.54504 0.08846
 O393 O 0.40224 0.53234 -0.05229
 O394 O 0.45986 0.50701 -0.09186
 C395 C 0.41992 0.52614 -0.08571
 O396 O 0.45914 0.39383 0.06506
 O397 O 0.48327 0.45249 0.10305
 C398 C 0.46387 0.41356 0.09786
 Zr399 Zr 0.47480 0.41820 0.00979
 O400 O 0.40724 0.38921 0.01333
 O401 O 0.50577 0.35309 0.01115
 Zr402 Zr 0.43238 0.52477 0.00243
 O403 O 0.36288 0.50015 0.00673
 O404 O 0.40809 0.59191 -0.00401
 O405 O 0.44514 0.46548 -0.02755
 O406 O 0.44494 0.47169 0.03874
 O407 O 0.61702 0.45101 0.06182
 O408 O 0.55979 0.47626 0.10182
 C409 C 0.60083 0.45913 0.09517
 O410 O 0.55880 0.58990 -0.05314
 O411 O 0.53391 0.53193 -0.09176
 C412 C 0.55295 0.57113 -0.08618
 O413 O 0.55410 0.60125 0.05337
 O414 O 0.52958 0.54918 0.09697
 C415 C 0.54786 0.58746 0.08795
 O416 O 0.62067 0.44917 -0.04213
 O417 O 0.56296 0.46346 -0.08618
 C418 C 0.60519 0.45122 -0.07667
 Zr419 Zr 0.58477 0.45895 0.00871
 O420 O 0.65632 0.47744 0.01129
 O421 O 0.60516 0.39005 0.00879
 Zr422 Zr 0.54263 0.56563 0.00178
 O423 O 0.61178 0.59165 0.00449
 O424 O 0.51547 0.63173 -0.00535
 Zr425 Zr 0.50930 0.48699 -0.05070
 Zr426 Zr 0.50823 0.49666 0.06181
 O427 O 0.57167 0.51809 0.03780
 O428 O 0.57275 0.51271 -0.02824
 O429 O 0.53289 0.43311 0.04393
 O430 O 0.48494 0.55003 -0.03116
 O431 O 0.53329 0.42797 -0.02362
 O432 O 0.48401 0.55608 0.03519
 H433 H 0.41824 0.46492 0.05556
 H434 H 0.47566 0.57408 -0.04931
 H435 H 0.59756 0.52935 0.05420
 H436 H 0.54333 0.40241 -0.03979
 H437 H 0.37335 0.59029 -0.00419
 H438 H 0.48833 0.63464 0.01175
 H439 H 0.62977 0.57745 -0.01619
 H440 H 0.65747 0.51042 0.00708
 H441 H 0.59927 0.37778 0.03440
 H442 H 0.52049 0.34897 0.03646
 H443 H 0.38583 0.40886 -0.00151
 H444 H 0.35729 0.47955 -0.01494
 C445 C 0.29520 1.22075 0.13827
 C446 C 0.28377 1.19521 0.17064
 C447 C 0.28879 1.14781 0.16888
 C448 C 0.30863 1.12708 0.13691
 C449 C 0.32406 1.15401 0.10639
 C450 C 0.31583 1.20057 0.10687
 C451 C 0.34975 1.13431 0.07696
 C452 C 0.35947 1.08786 0.07732
 C453 C 0.34081 1.06064 0.10600
 C454 C 0.31563 1.08012 0.13569
 H455 H 0.27895 1.12706 0.19280
 H456 H 0.32678 1.22169 0.08348
 H457 H 0.36462 1.15540 0.05500
 H458 H 0.30364 1.05877 0.15858
 H459 H 0.29136 1.25703 0.13790
 H460 H 0.34876 1.02483 0.10693
 C461 C 0.78401 0.63228 0.69478
 C462 C 0.77048 0.67634 0.68345
 C463 C 0.77344 0.68724 0.64447
 C464 C 0.79376 0.65632 0.61861
 C465 C 0.80885 0.61336 0.63150
 C466 C 0.80233 0.60131 0.66925
 C467 C 0.83325 0.58412 0.60727
 C468 C 0.84419 0.59741 0.57034
 C469 C 0.82784 0.63940 0.55696
 C470 C 0.80225 0.66838 0.58072
 H471 H 0.76365 0.72068 0.63480
 H472 H 0.81359 0.56849 0.67958
 H473 H 0.84696 0.55233 0.61806
 H474 H 0.79137 0.70115 0.57009
 H475 H 0.78248 0.62160 0.72405
 H476 H 0.83707 0.65079 0.52883
 C477 C 0.72684 0.79590 0.13266
 C478 C 0.73118 0.81750 0.16818
 C479 C 0.72301 0.86460 0.16965
 C480 C 0.70672 0.88841 0.13747
 C481 C 0.69857 0.86512 0.10310
 C482 C 0.71040 0.81927 0.10068
 C483 C 0.67562 0.88719 0.07270
 C484 C 0.66097 0.93238 0.07625
 C485 C 0.67240 0.95617 0.10949
 C486 C 0.69530 0.93450 0.13978
 H487 H 0.72665 0.88251 0.19628
 H488 H 0.70475 0.80084 0.07450
 H489 H 0.66584 0.86831 0.04750
 H490 H 0.70145 0.95308 0.16581
 H491 H 0.73204 0.76000 0.12982
 H492 H 0.66001 0.99048 0.11328
 C493 C 1.20813 0.28282 0.63825
 C494 C 1.21849 0.30748 0.67150
 C495 C 1.21129 0.35476 0.67068
 C496 C 1.19012 0.37595 0.63903
 C497 C 1.17484 0.34969 0.60784
 C498 C 1.18547 0.30339 0.60725
 C499 C 1.14757 0.36990 0.57874
 C500 C 1.13723 0.41646 0.57978
 C501 C 1.15616 0.44277 0.60921
 C502 C 1.18189 0.42274 0.63880
 H503 H 1.22016 0.37511 0.69522
 H504 H 1.17495 0.28272 0.58329
 H505 H 1.13277 0.34924 0.55625
 H506 H 1.19386 0.44363 0.66218
 H507 H 1.21385 0.24674 0.63717
 H508 H 1.14843 0.47846 0.61057
 C509 C 0.67119 1.25194 -0.16004
 C510 C 0.71113 1.23183 -0.17606
 C511 C 0.72784 1.19080 -0.16027
 C512 C 0.70235 1.16821 -0.13206
 C513 C 0.66055 1.18761 -0.11847
 C514 C 0.64650 1.23033 -0.13134
 C515 C 0.63176 1.16279 -0.09417
 C516 C 0.64366 1.11837 -0.08352
 C517 C 0.68681 1.10033 -0.09503
 C518 C 0.71599 1.12511 -0.11915
 H519 H 0.75847 1.17445 -0.17198
 H520 H 0.61461 1.24577 -0.12098
 H521 H 0.59881 1.17729 -0.08498
 H522 H 0.74813 1.10974 -0.12905
 H523 H 0.65646 1.28272 -0.17141
 H524 H 0.69673 1.06625 -0.08707
 C525 C 1.14964 0.68288 0.29482
 C526 C 1.19507 0.69730 0.30551
 C527 C 1.21411 0.68143 0.34040
 C528 C 1.18785 0.65177 0.36369
 C529 C 1.14309 0.63746 0.35125
 C530 C 1.12444 0.65314 0.31703
 C531 C 1.11641 0.60853 0.37354
 C532 C 1.13162 0.59492 0.40982
 C533 C 1.17661 0.60821 0.42227
 C534 C 1.20473 0.63612 0.39916
 H535 H 1.24894 0.69194 0.34926
 H536 H 1.08989 0.64256 0.30741
 H537 H 1.08225 0.59799 0.36296
 H538 H 1.23898 0.64651 0.40947
 H539 H 1.13306 0.69368 0.26865
 H540 H 1.18919 0.59855 0.45018
 C541 C 0.35329 0.78399 -0.17465
 C542 C 0.30428 0.79058 -0.17879
 C543 C 0.28295 0.82480 -0.15673
 C544 C 0.31062 0.85109 -0.13119
 C545 C 0.35895 0.84148 -0.12717
 C546 C 0.37962 0.80776 -0.14857
 C547 C 0.38734 0.86701 -0.10322
 C548 C 0.36997 0.90491 -0.08419
 C549 C 0.32166 0.91463 -0.08720
 C550 C 0.29205 0.88754 -0.11029
 H551 H 0.24583 0.83176 -0.16020
 H552 H 0.41690 0.80073 -0.14618
 H553 H 0.42418 0.85808 -0.10077
 H554 H 0.25514 0.89594 -0.11272
 H555 H 0.37230 0.75965 -0.19141
 H556 H 0.30716 0.94362 -0.07271
 C557 C 0.81519 0.25498 0.35984
 C558 C 0.77739 0.27507 0.34017
 C559 C 0.76145 0.31786 0.35271
 C560 C 0.78717 0.34265 0.37982
 C561 C 0.82788 0.32350 0.39625
 C562 C 0.84001 0.27880 0.38771
 C563 C 0.85768 0.35033 0.41867
 C564 C 0.84787 0.39644 0.42441
 C565 C 0.80549 0.41442 0.41049
 C566 C 0.77526 0.38765 0.38835
 H567 H 0.73199 0.33414 0.33862
 H568 H 0.87071 0.26331 0.40066
 H569 H 0.89003 0.33599 0.42985
 H570 H 0.74395 0.40286 0.37618
 H571 H 0.82818 0.22222 0.35219
 H572 H 0.79722 0.44979 0.41472
 C573 C 1.23502 0.33176 0.15716
 C574 C 1.21507 0.29087 0.16912
 C575 C 1.17355 0.27572 0.15085
 C576 C 1.15060 0.30299 0.12377
 C577 C 1.17051 0.34485 0.11366
 C578 C 1.21354 0.35805 0.12932
 C579 C 1.14570 0.37444 0.09008
 C580 C 1.10027 0.36378 0.07723
 C581 C 1.08150 0.32106 0.08535
 C582 C 1.10667 0.29069 0.10842
 H583 H 1.15714 0.24443 0.15948
 H584 H 1.22922 0.39014 0.12177
 H585 H 1.16091 0.40701 0.08330
 H586 H 1.09087 0.25859 0.11566
 H587 H 1.26586 0.34518 0.17057
 H588 H 1.04662 0.31209 0.07548
 C589 C 0.73352 0.82733 0.66085
 C590 C 0.71326 0.78616 0.67206
 C591 C 0.67323 0.77056 0.65202
 C592 C 0.65197 0.79763 0.62373
 C593 C 0.67198 0.83983 0.61461
 C594 C 0.71372 0.85339 0.63212
 C595 C 0.64834 0.86952 0.59023
 C596 C 0.60407 0.85843 0.57520
 C597 C 0.58572 0.81512 0.58192
 C598 C 0.60952 0.78488 0.60609
 H599 H 0.65670 0.73909 0.66009
 H600 H 0.72944 0.88574 0.62544
 H601 H 0.66337 0.90248 0.58460
 H602 H 0.59369 0.75248 0.61231
 H603 H 0.76272 0.84173 0.67596
 H604 H 0.55202 0.80551 0.57005
 C605 C 1.22701 0.65205 -0.16084
 C606 C 1.21509 0.69665 -0.17121
 C607 C 1.17742 0.71783 -0.15208
 C608 C 1.15240 0.69420 -0.12379
 C609 C 1.16761 0.65068 -0.11300
 C610 C 1.20544 0.63043 -0.13100
 C611 C 1.14244 0.62575 -0.08675
 C612 C 1.09878 0.64069 -0.07353
 C613 C 1.08380 0.68459 -0.08305
 C614 C 1.11104 0.71159 -0.10750
 H615 H 1.16582 0.75121 -0.16065
 H616 H 1.21629 0.59632 -0.12382
 H617 H 1.15528 0.59241 -0.07905
 H618 H 1.09842 0.74488 -0.11535
 H619 H 1.25258 0.63267 -0.17631
 H620 H 1.05035 0.69707 -0.07319
 C621 C 0.64742 1.16807 0.29919
 C622 C 0.67981 1.19915 0.31481
 C623 C 0.67670 1.20998 0.35369
 C624 C 0.64277 1.18882 0.37650
 C625 C 0.61135 1.15749 0.35989
 C626 C 0.61357 1.14784 0.32133
 C627 C 0.57972 1.13401 0.38233
 C628 C 0.58009 1.13930 0.42169
 C629 C 0.60954 1.17182 0.43841
 C630 C 0.64044 1.19692 0.41579
 H631 H 0.70071 1.23400 0.36634
 H632 H 0.58970 1.12375 0.30835
 H633 H 0.55722 1.10854 0.36949
 H634 H 0.66409 1.22085 0.42921
 H635 H 0.64797 1.15897 0.26949
 H636 H 0.61083 1.17565 0.46893
 C637 C 0.76553 0.66961 0.16146
 C638 C 0.78536 0.71136 0.17180
 C639 C 0.82514 0.72690 0.15221
 C640 C 0.84634 0.69970 0.12464
 C641 C 0.82659 0.65723 0.11578
 C642 C 0.78546 0.64316 0.13339
 C643 C 0.84982 0.62803 0.09132
 C644 C 0.89368 0.63963 0.07645
 C645 C 0.91202 0.68290 0.08337
 C646 C 0.88832 0.71290 0.10726
 H647 H 0.84102 0.75901 0.15955
 H648 H 0.77003 0.61057 0.12688
 H649 H 0.83487 0.59500 0.08557
 H650 H 0.90387 0.74548 0.11351
 H651 H 0.73583 0.65596 0.17618
 H652 H 0.94566 0.69261 0.07196
 C653 C 0.26508 1.16234 0.66865
 C654 C 0.28310 1.20571 0.67614
 C655 C 0.32179 1.22078 0.65480
 C656 C 0.34332 1.19190 0.62829
 C657 C 0.32506 1.14812 0.62230
 C658 C 0.28520 1.13426 0.64174
 C659 C 0.34828 1.11776 0.59856
 C660 C 0.39051 1.12977 0.58103
 C661 C 0.40757 1.17403 0.58562
 C662 C 0.38409 1.20491 0.60901
 H663 H 0.33674 1.25384 0.66013
 H664 H 0.27095 1.10065 0.63759
 H665 H 0.33427 1.08396 0.59491
 H666 H 0.39873 1.23836 0.61306
 H667 H 0.23699 1.14850 0.68499
 H668 H 0.44002 1.18418 0.57240
 C669 C 0.84937 0.33055 -0.20985
 C670 C 0.81604 0.29933 -0.19638
 C671 C 0.81714 0.28813 -0.15736
 C672 C 0.84866 0.31031 -0.13228
 C673 C 0.88013 0.34274 -0.14670
 C674 C 0.88091 0.35175 -0.18547
 C675 C 0.90887 0.36762 -0.12206
 C676 C 0.90637 0.36171 -0.08276
 C677 C 0.87677 0.32813 -0.06822
 C678 C 0.84823 0.30238 -0.09289
 H679 H 0.79244 0.26400 -0.14621
 H680 H 0.90509 0.37636 -0.19691
 H681 H 0.93138 0.39384 -0.13335
 H682 H 0.82441 0.27774 -0.08106
 H683 H 0.85087 0.33966 -0.23951
 H684 H 0.87373 0.32370 -0.03788
 C685 C 0.26828 0.82961 0.33792
 C686 C 0.28518 0.78738 0.32543
 C687 C 0.32580 0.76976 0.34397
 C688 C 0.34886 0.79483 0.37310
 C689 C 0.32898 0.83588 0.38540
 C690 C 0.28798 0.85203 0.36855
 C691 C 0.35250 0.86305 0.41171
 C692 C 0.39803 0.85245 0.42440
 C693 C 0.41760 0.81076 0.41357
 C694 C 0.39283 0.78182 0.38848
 H695 H 0.34152 0.73876 0.33379
 H696 H 0.27352 0.88450 0.37666
 H697 H 0.33645 0.89469 0.42019
 H698 H 0.40919 0.75060 0.37951
 H699 H 0.24212 0.84832 0.32243
 H700 H 0.45268 0.80166 0.42290
 C701 C 1.14107 1.15752 0.27512
 C702 C 1.17054 1.19036 0.29175
 C703 C 1.17199 1.19360 0.33137
 C704 C 1.14874 1.16298 0.35403
 C705 C 1.11994 1.12935 0.33769
 C706 C 1.11536 1.12764 0.29797
 C707 C 1.09746 1.09799 0.36156
 C708 C 1.10509 1.10003 0.40113
 C709 C 1.13535 1.13331 0.41615
 C710 C 1.15635 1.16461 0.39299
 H711 H 1.19490 1.21760 0.34531
 H712 H 1.09353 1.10217 0.28460
 H713 H 1.07431 1.07256 0.34961
 H714 H 1.17916 1.18986 0.40565
 H715 H 1.13920 1.15382 0.24463
 H716 H 1.14248 1.13608 0.44628
 C717 C 0.63268 0.73254 -0.17454
 C718 C 0.65889 0.70630 -0.19988
 C719 C 0.64752 0.66021 -0.20383
 C720 C 0.61816 0.63911 -0.17789
 C721 C 0.59785 0.66472 -0.14857
 C722 C 0.60325 0.71179 -0.14834
 C723 C 0.57421 0.64258 -0.11936
 C724 C 0.57064 0.59523 -0.11944
 C725 C 0.58770 0.57048 -0.15032
 C726 C 0.61144 0.59227 -0.17933
 H727 H 0.66438 0.63963 -0.22512
 H728 H 0.58602 0.73233 -0.12721
 H729 H 0.56023 0.66189 -0.09593
 H730 H 0.62639 0.57227 -0.20193
 H731 H 0.63583 0.76886 -0.17399
 H732 H 0.58500 0.53396 -0.15099
 C733 C 0.75837 1.14664 0.67548
 C734 C 0.78630 1.17804 0.69533
 C735 C 0.83525 1.17170 0.69609
 C736 C 0.85613 1.13977 0.67257
 C737 C 0.82779 1.11286 0.64844
 C738 C 0.77890 1.11518 0.65128
 C739 C 0.84894 1.08489 0.62155
 C740 C 0.89792 1.08295 0.61948
 C741 C 0.92581 1.10730 0.64526
 C742 C 0.90505 1.13588 0.67151
 H743 H 0.85759 1.19335 0.71322
 H744 H 0.75659 1.09322 0.63439
 H745 H 0.82762 1.06534 0.60191
 H746 H 0.92721 1.15586 0.69017
 H747 H 0.72066 1.14679 0.67788
 H748 H 0.96374 1.10577 0.64387
 C749 C 0.36497 0.71104 0.18244
 C750 C 0.32430 0.69297 0.19872
 C751 C 0.31471 0.64649 0.19371
 C752 C 0.34247 0.61994 0.16991
 C753 C 0.38152 0.63949 0.15187
 C754 C 0.39317 0.68466 0.15907
 C755 C 0.40748 0.61388 0.12614
 C756 C 0.39443 0.56930 0.11791
 C757 C 0.35649 0.54948 0.13646
 C758 C 0.33073 0.57463 0.16257
 H759 H 0.28425 0.63124 0.20659
 H760 H 0.42341 0.69994 0.14583
 H761 H 0.43695 0.62896 0.11158
 H762 H 0.30099 0.55906 0.17630
 H763 H 0.37477 0.74578 0.18696
 H764 H 0.34650 0.51491 0.13030
 C765 C 1.14876 0.76467 0.68147
 C766 C 1.18179 0.78797 0.70402
 C767 C 1.17877 0.83532 0.70668
 C768 C 1.14682 0.85917 0.68401
 C769 C 1.11671 0.83537 0.65898
 C770 C 1.11681 0.78817 0.65884
 C771 C 1.08864 0.85917 0.63323
 C772 C 1.09063 0.90631 0.63209
 C773 C 1.11849 0.93002 0.65821
 C774 C 1.14630 0.90654 0.68434
 H775 H 1.20268 0.85389 0.72496
 H776 H 1.09301 0.76946 0.64055
 H777 H 1.06719 0.84111 0.61265
 H778 H 1.16906 0.92529 0.70344
 H779 H 1.14758 0.72828 0.68073
 H780 H 1.12114 0.96637 0.65672
 C781 C 0.64663 0.33050 0.22229
 C782 C 0.69496 0.32602 0.21438
 C783 C 0.71603 0.35769 0.19043
 C784 C 0.68867 0.39052 0.17206
 C785 C 0.63981 0.39269 0.17863
 C786 C 0.61949 0.36357 0.20476
 C787 C 0.61139 0.42112 0.15663
 C788 C 0.63102 0.44525 0.12675
 C789 C 0.67998 0.44603 0.12235
 C790 C 0.70878 0.41920 0.14523
 H791 H 0.75300 0.35602 0.18457
 H792 H 0.58220 0.36500 0.21040
 H793 H 0.57357 0.42021 0.15977
 H794 H 0.74618 0.41838 0.14002
 H795 H 0.62906 0.30766 0.24143
 H796 H 0.69558 0.46484 0.09935
 C797 C 0.86082 0.77259 0.31890
 C798 C 0.83165 0.80100 0.29699
 C799 C 0.84069 0.84768 0.29701
 C800 C 0.87225 0.86628 0.32316
 C801 C 0.89627 0.83771 0.34898
 C802 C 0.89195 0.79081 0.34552
 C803 C 0.92302 0.85667 0.37835
 C804 C 0.92664 0.90370 0.38149
 C805 C 0.90570 0.93180 0.35413
 C806 C 0.87840 0.91317 0.32515
 H807 H 0.82165 0.87005 0.27800
 H808 H 0.91170 0.76828 0.36394
 H809 H 0.93977 0.83510 0.39938
 H810 H 0.86075 0.93544 0.30521
 H811 H 0.85829 0.73621 0.31676
 H812 H 0.90828 0.96824 0.35647
 C813 C 0.33712 0.35687 -0.21310
 C814 C 0.33097 0.31029 -0.20613
 C815 C 0.36246 0.28876 -0.18097
 C816 C 0.39240 0.31444 -0.15760
 C817 C 0.39515 0.36172 -0.16279
 C818 C 0.36903 0.38224 -0.19180
 C819 C 0.42196 0.38804 -0.13769
 C820 C 0.44378 0.36808 -0.10604
 C821 C 0.44201 0.32093 -0.10151
 C822 C 0.41734 0.29415 -0.12760
 H823 H 0.36219 0.25239 -0.17810
 H824 H 0.37144 0.41832 -0.19673
 H825 H 0.42279 0.42445 -0.14111
 H826 H 0.41555 0.25797 -0.12307
 H827 H 0.31591 0.37450 -0.23400
 H828 H 0.45882 0.30497 -0.07729
 C829 C 1.22947 0.34877 -0.16295
 C830 C 1.21177 0.30711 -0.17553
 C831 C 1.17237 0.28857 -0.15691
 C832 C 1.14937 0.31269 -0.12837
 C833 C 1.16720 0.35496 -0.11699
 C834 C 1.20798 0.37207 -0.13352
 C835 C 1.14230 0.38099 -0.09112
 C836 C 1.09818 0.36690 -0.07789
 C837 C 1.08166 0.32379 -0.08756
 C838 C 1.10741 0.29660 -0.11248
 H839 H 1.15773 0.25649 -0.16576
 H840 H 1.22188 0.40467 -0.12506
 H841 H 1.15601 0.41386 -0.08314
 H842 H 1.09333 0.26406 -0.12084
 H843 H 1.25881 0.36449 -0.17662
 H844 H 1.04793 0.31224 -0.07758
 C845 C 0.72698 0.85171 0.33144
 C846 C 0.71135 0.80883 0.32006
 C847 C 0.67402 0.78842 0.33994
 C848 C 0.65075 0.81190 0.36868
 C849 C 0.66660 0.85529 0.37898
 C850 C 0.70551 0.87431 0.36116
 C851 C 0.64140 0.88053 0.40507
 C852 C 0.59865 0.86460 0.41950
 C853 C 0.58408 0.82052 0.41091
 C854 C 0.61038 0.79404 0.38584
 H855 H 0.66134 0.75523 0.33203
 H856 H 0.71773 0.90780 0.36877
 H857 H 0.65369 0.91417 0.41227
 H858 H 0.59783 0.76063 0.37835
 H859 H 0.75450 0.86891 0.31655
 H860 H 0.55144 0.80754 0.42194
 C861 C 0.75624 0.66264 -0.15535
 C862 C 0.77648 0.70273 -0.16885
 C863 C 0.81636 0.72028 -0.14981
 C864 C 0.83785 0.69594 -0.12020
 C865 C 0.81787 0.65479 -0.10831
 C866 C 0.77613 0.63941 -0.12493
 C867 C 0.84189 0.62756 -0.08233
 C868 C 0.88708 0.63934 -0.06956
 C869 C 0.90553 0.68173 -0.07917
 C870 C 0.88074 0.71015 -0.10413
 H871 H 0.83262 0.75121 -0.15947
 H872 H 0.76054 0.60776 -0.11611
 H873 H 0.82690 0.59526 -0.07442
 H874 H 0.89645 0.74183 -0.11268
 H875 H 0.72654 0.64747 -0.16941
 H876 H 0.94021 0.69156 -0.06941
 C877 C 0.26771 1.15066 0.32843
 C878 C 0.28110 1.19606 0.32310
 C879 C 0.31457 1.21503 0.34836
 C880 C 0.33533 1.18826 0.37718
 C881 C 0.32043 1.14317 0.38185
 C882 C 0.28578 1.12519 0.35813
 C883 C 0.34267 1.11521 0.40826
 C884 C 0.38241 1.12992 0.42866
 C885 C 0.39628 1.17535 0.42532
 C886 C 0.37242 1.20454 0.40009
 H887 H 0.32632 1.24949 0.34438
 H888 H 0.27454 1.09039 0.36113
 H889 H 0.33073 1.08057 0.41086
 H890 H 0.38446 1.23905 0.39713
 H891 H 0.24351 1.13400 0.30920
 H892 H 0.42661 1.18774 0.44085
 C893 C 1.24133 0.69948 0.13408
 C894 C 1.21504 0.72565 0.15951
 C895 C 1.16658 0.73142 0.15154
 C896 C 1.14391 0.70578 0.12326
 C897 C 1.17005 0.67477 0.10165
 C898 C 1.21904 0.67366 0.10590
 C899 C 1.14654 0.64414 0.07755
 C900 C 1.09724 0.64475 0.07442
 C901 C 1.07192 0.67816 0.09366
 C902 C 1.09502 0.70829 0.11808
 H903 H 1.14549 0.75319 0.16925
 H904 H 1.23997 0.65144 0.08845
 H905 H 1.16631 0.61865 0.06245
 H906 H 1.07441 0.73216 0.13422
 H907 H 1.27890 0.69727 0.13650
 H908 H 1.03397 0.67905 0.09168
 C909 C 0.62627 1.21839 0.68682
 C910 C 0.67354 1.22536 0.67680
 C911 C 0.68723 1.21510 0.63953
 C912 C 0.65602 1.19307 0.61460
 C913 C 0.60941 1.18452 0.62597
 C914 C 0.59450 1.19886 0.66153
 C915 C 0.57949 1.15868 0.60294
 C916 C 0.59637 1.13917 0.56972
 C917 C 0.64210 1.14866 0.55776
 C918 C 0.67150 1.17632 0.57968
 H919 H 0.72312 1.22041 0.63097
 H920 H 0.55886 1.19276 0.67060
 H921 H 0.54452 1.15027 0.61251
 H922 H 0.70716 1.18218 0.57054
 H923 H 0.61356 1.22661 0.71475
 H924 H 0.65565 1.13300 0.53238
 C925 C 0.84314 0.33041 0.21066
 C926 C 0.81524 0.29497 0.19601
 C927 C 0.82031 0.28319 0.15737
 C928 C 0.85136 0.30768 0.13389
 C929 C 0.87753 0.34381 0.14946
 C930 C 0.87359 0.35443 0.18778
 C931 C 0.90622 0.37013 0.12634
 C932 C 0.90908 0.36196 0.08729
 C933 C 0.88484 0.32483 0.07183
 C934 C 0.85622 0.29777 0.09503
 H935 H 0.80005 0.25567 0.14546
 H936 H 0.89369 0.38194 0.20009
 H937 H 0.92484 0.39870 0.13853
 H938 H 0.83672 0.27014 0.08235
 H939 H 0.84144 0.34035 0.24011
 H940 H 0.88602 0.31827 0.04166
 C941 C 0.27393 0.80236 0.65039
 C942 C 0.30064 0.77457 0.67489
 C943 C 0.34895 0.76906 0.66722
 C944 C 0.37030 0.79347 0.63776
 C945 C 0.34291 0.82318 0.61533
 C946 C 0.29470 0.82632 0.62114
 C947 C 0.36436 0.85108 0.58866
 C948 C 0.41312 0.85030 0.58415
 C949 C 0.44019 0.81898 0.60475
 C950 C 0.41887 0.79058 0.63139
 H951 H 0.37041 0.74738 0.68510
 H952 H 0.27310 0.84839 0.60367
 H953 H 0.34342 0.87538 0.57279
 H954 H 0.44058 0.76791 0.64816
 H955 H 0.23684 0.80625 0.65318
 H956 H 0.47795 0.81850 0.60200
 C957 C 0.28858 1.23309 -0.13881
 C958 C 0.27783 1.20923 -0.17236
 C959 C 0.28261 1.16166 -0.17180
 C960 C 0.30242 1.13930 -0.14024
 C961 C 0.31854 1.16464 -0.10882
 C962 C 0.30987 1.21129 -0.10782
 C963 C 0.34520 1.14321 -0.08010
 C964 C 0.35450 1.09652 -0.08196
 C965 C 0.33444 1.07102 -0.11144
 C966 C 0.30889 1.09224 -0.14052
 H967 H 0.27300 1.14185 -0.19647
 H968 H 0.32099 1.23124 -0.08360
 H969 H 0.36107 1.16315 -0.05760
 H970 H 0.29623 1.07215 -0.16416
 H971 H 0.28412 1.26931 -0.13739
 H972 H 0.34188 1.03519 -0.11366
 C973 C 0.77783 0.72884 0.35728
 C974 C 0.76902 0.70658 0.32257
 C975 C 0.77504 0.65916 0.32149
 C976 C 0.79398 0.63558 0.35287
 C977 C 0.80731 0.65951 0.38590
 C978 C 0.79737 0.70578 0.38830
 C979 C 0.83280 0.63734 0.41493
 C980 C 0.84406 0.59125 0.41164
 C981 C 0.82732 0.56694 0.38015
 C982 C 0.80261 0.58890 0.35094
 H983 H 0.76764 0.64073 0.29560
 H984 H 0.80670 0.72464 0.41359
 H985 H 0.84621 0.65640 0.43894
 H986 H 0.79227 0.56979 0.32603
 H987 H 0.77376 0.76497 0.35980
 H988 H 0.83634 0.53157 0.37687
 C989 C 0.68193 1.24210 0.15188
 C990 C 0.71841 1.21897 0.17093
 C991 C 0.73280 1.17667 0.15629
 C992 C 0.70783 1.15602 0.12625
 C993 C 0.66883 1.17842 0.10993
 C994 C 0.65762 1.22219 0.12171
 C995 C 0.63978 1.15569 0.08390
 C996 C 0.64897 1.11061 0.07385
 C997 C 0.68987 1.08963 0.08776
 C998 C 0.71902 1.11211 0.11396
 H999 H 0.76091 1.15807 0.17014
 H1000 H 0.62818 1.24011 0.10905
 H1001 H 0.60853 1.17229 0.07287
 H1002 H 0.74904 1.09440 0.12586
 H1003 H 0.66951 1.27438 0.16140
 H1004 H 0.69773 1.05502 0.08015
 C1005 C 1.23755 0.68959 0.64162
 C1006 C 1.22309 0.68016 0.67892
 C1007 C 1.19218 0.64373 0.68434
 C1008 C 1.17404 0.61940 0.65340
 C1009 C 1.18646 0.63136 0.61600
 C1010 C 1.21907 0.66594 0.61057
 C1011 C 1.16442 0.60993 0.58485
 C1012 C 1.12987 0.57718 0.59120
 C1013 C 1.11991 0.56392 0.62852
 C1014 C 1.14201 0.58449 0.65931
 H1015 H 1.18097 0.63491 0.71266
 H1016 H 1.22988 0.67517 0.58226
 H1017 H 1.17150 0.62095 0.55617
 H1018 H 1.13234 0.57455 0.68774
 H1019 H 1.26288 0.71519 0.63560
 H1020 H 1.09285 0.53907 0.63388
 C1021 C 0.71484 0.78943 -0.13987
 C1022 C 0.71990 0.80708 -0.17675
 C1023 C 0.71269 0.85402 -0.18191
 C1024 C 0.69773 0.88167 -0.15175
 C1025 C 0.68991 0.86244 -0.11574
 C1026 C 0.69979 0.81658 -0.10992
 C1027 C 0.66929 0.88857 -0.08696
 C1028 C 0.65609 0.93367 -0.09379
 C1029 C 0.66682 0.95336 -0.12883
 C1030 C 0.68780 0.92772 -0.15749
 H1031 H 0.71677 0.86895 -0.20971
 H1032 H 0.69409 0.80119 -0.08248
 H1033 H 0.65982 0.87276 -0.06038
 H1034 H 0.69370 0.94323 -0.18484
 H1035 H 0.71919 0.75388 -0.13424
 H1036 H 0.65568 0.98762 -0.13504
 C1037 C 1.15281 0.29301 0.31748
 C1038 C 1.20221 0.29723 0.31638
 C1039 C 1.22353 0.32923 0.34133
 C1040 C 1.19540 0.35526 0.36667
 C1041 C 1.14662 0.34768 0.36736
 C1042 C 1.12598 0.31642 0.34309
 C1043 C 1.11779 0.37250 0.39117
 C1044 C 1.13508 0.40771 0.41418
 C1045 C 1.18390 0.41562 0.41412
 C1046 C 1.21385 0.38933 0.39077
 H1047 H 1.26106 0.33472 0.34028
 H1048 H 1.08833 0.31108 0.34288
 H1049 H 1.08068 0.36453 0.39067
 H1050 H 1.25116 0.39626 0.39101
 H1051 H 1.13360 0.27140 0.29816
 H1052 H 1.19872 0.44224 0.43153
 C1053 C 0.34848 0.83097 0.19359
 C1054 C 0.30694 0.80996 0.18030
 C1055 C 0.29151 0.81949 0.14285
 C1056 C 0.31804 0.84850 0.11928
 C1057 C 0.36011 0.86753 0.13349
 C1058 C 0.37476 0.85878 0.17052
 C1059 C 0.38763 0.89499 0.11056
 C1060 C 0.37463 0.90427 0.07295
 C1061 C 0.33188 0.88708 0.05887
 C1062 C 0.30382 0.85916 0.08188
 H1063 H 0.25908 0.80498 0.13225
 H1064 H 0.40676 0.87362 0.18184
 H1065 H 0.42000 0.90891 0.12207
 H1066 H 0.27145 0.84548 0.07033
 H1067 H 0.36149 0.82612 0.22221
 H1068 H 0.32103 0.89399 0.02993
 C1069 C 0.81072 0.26734 0.63828
 C1070 C 0.77547 0.29047 0.65805
 C1071 C 0.76182 0.33376 0.64487
 C1072 C 0.78684 0.35540 0.61596
 C1073 C 0.82472 0.33281 0.59885
 C1074 C 0.83481 0.28808 0.60885
 C1075 C 0.85409 0.35629 0.57415
 C1076 C 0.84669 0.40242 0.56679
 C1077 C 0.80694 0.42390 0.58151
 C1078 C 0.77709 0.40048 0.60594
 H1079 H 0.73452 0.35242 0.65918
 H1080 H 0.86334 0.27004 0.59552
 H1081 H 0.88450 0.33942 0.56248
 H1082 H 0.74799 0.41833 0.61862
 H1083 H 0.82198 0.23418 0.64657
 H1084 H 0.80075 0.45948 0.57616
 C1085 C 1.13274 1.23560 0.68319
 C1086 C 1.16447 1.21074 0.70587
 C1087 C 1.15593 1.16442 0.71131
 C1088 C 1.12337 1.14190 0.68829
 C1089 C 1.09785 1.16635 0.66048
 C1090 C 1.10070 1.21347 0.65964
 C1091 C 1.07188 1.14307 0.63298
 C1092 C 1.07070 1.09580 0.63353
 C1093 C 1.09132 1.07208 0.66378
 C1094 C 1.11811 1.09496 0.69088
 H1095 H 1.17675 1.14515 0.73150
 H1096 H 1.07937 1.23304 0.64001
 H1097 H 1.05471 1.16140 0.61008
 H1098 H 1.13654 1.07582 0.71260
 H1099 H 1.13380 1.27208 0.68231
 H1100 H 1.08938 1.03568 0.66491
 C1101 C 0.64094 0.74950 0.16800
 C1102 C 0.66638 0.72307 0.19431
 C1103 C 0.65271 0.67806 0.19979
 C1104 C 0.62075 0.65773 0.17509
 C1105 C 0.60109 0.68278 0.14469
 C1106 C 0.60970 0.72923 0.14244
 C1107 C 0.57459 0.66052 0.11669
 C1108 C 0.56722 0.61383 0.11954
 C1109 C 0.58350 0.59027 0.15176
 C1110 C 0.61030 0.61199 0.17920
 H1111 H 0.66875 0.65778 0.22200
 H1112 H 0.59306 0.74964 0.12061
 H1113 H 0.56140 0.67894 0.09222
 H1114 H 0.62459 0.59253 0.20267
 H1115 H 0.64564 0.78561 0.16643
 H1116 H 0.57820 0.55418 0.15466
 C1117 C 1.15936 0.85414 0.27341
 C1118 C 1.17565 0.81250 0.28800
 C1119 C 1.16508 0.80144 0.32562
 C1120 C 1.14470 0.83316 0.34956
 C1121 C 1.13036 0.87573 0.33542
 C1122 C 1.13626 0.88518 0.29680
 C1123 C 1.11230 0.90837 0.36054
 C1124 C 1.11090 0.89912 0.39967
 C1125 C 1.12565 0.85642 0.41290
 C1126 C 1.14180 0.82374 0.38816
 H1127 H 1.17821 0.77071 0.33820
 H1128 H 1.12557 0.91754 0.28520
 H1129 H 1.10048 0.94087 0.34992
 H1130 H 1.15304 0.79134 0.39942
 H1131 H 1.16676 0.86398 0.24455
 H1132 H 1.12374 0.84753 0.44261
 C1133 C 0.65437 0.35658 -0.22421
 C1134 C 0.69968 0.34221 -0.21286
 C1135 C 0.72032 0.36174 -0.18059
 C1136 C 0.69448 0.39078 -0.15766
 C1137 C 0.64783 0.40202 -0.16787
 C1138 C 0.62883 0.38638 -0.20202
 C1139 C 0.61982 0.42581 -0.14252
 C1140 C 0.63741 0.43684 -0.10649
 C1141 C 0.68497 0.42876 -0.09772
 C1142 C 0.71344 0.40614 -0.12329
 H1143 H 0.75515 0.35272 -0.17161
 H1144 H 0.59332 0.39514 -0.21053
 H1145 H 0.58333 0.43230 -0.14970
 H1146 H 0.74938 0.39836 -0.11526
 H1147 H 0.63733 0.34310 -0.24932
 H1148 H 0.69963 0.43794 -0.07035
 C1149 C 0.77191 1.13394 0.32229
 C1150 C 0.79807 1.16530 0.30127
 C1151 C 0.84743 1.16134 0.30147
 C1152 C 0.87000 1.13083 0.32609
 C1153 C 0.84289 1.10296 0.34989
 C1154 C 0.79403 1.10344 0.34664
 C1155 C 0.86493 1.07639 0.37762
 C1156 C 0.91379 1.07724 0.38181
 C1157 C 0.94094 1.10232 0.35644
 C1158 C 0.91916 1.12924 0.32881
 H1159 H 0.86846 1.18395 0.28448
 H1160 H 0.77280 1.08123 0.36383
 H1161 H 0.84406 1.05618 0.39679
 H1162 H 0.94064 1.14991 0.31052
 H1163 H 0.73427 1.13308 0.32094
 H1164 H 0.97882 1.10285 0.35932
 C1165 C 0.32396 0.69019 -0.15350
 C1166 C 0.32651 0.67982 -0.19253
 C1167 C 0.34917 0.63937 -0.20329
 C1168 C 0.36624 0.60927 -0.17527
 C1169 C 0.36076 0.62040 -0.13667
 C1170 C 0.34116 0.66130 -0.12617
 C1171 C 0.37469 0.59058 -0.10848
 C1172 C 0.39690 0.54998 -0.11738
 C1173 C 0.40389 0.53878 -0.15567
 C1174 C 0.38773 0.56792 -0.18455
 H1175 H 0.35109 0.63013 -0.23294
 H1176 H 0.33678 0.67006 -0.09658
 H1177 H 0.37049 0.60057 -0.07914
 H1178 H 0.39282 0.55862 -0.21391
 H1179 H 0.30407 0.71833 -0.14292
 H1180 H 0.42231 0.50809 -0.16316
 C1181 C 0.85301 0.75417 0.67577
 C1182 C 0.82903 0.78022 0.70267
 C1183 C 0.84120 0.82598 0.70670
 C1184 C 0.86805 0.84736 0.67925
 C1185 C 0.88618 0.82207 0.64874
 C1186 C 0.88064 0.77505 0.64841
 C1187 C 0.90866 0.84444 0.61901
 C1188 C 0.91337 0.89160 0.61996
 C1189 C 0.89702 0.91609 0.65125
 C1190 C 0.87441 0.89415 0.68065
 H1191 H 0.82607 0.84627 0.72904
 H1192 H 0.89636 0.75466 0.62641
 H1193 H 0.92217 0.82544 0.59523
 H1194 H 0.86069 0.91392 0.70390
 H1195 H 0.84988 0.71794 0.67514
 H1196 H 0.90065 0.95252 0.65248
 C1197 C 0.36913 0.26312 0.18850
 C1198 C 0.33492 0.29103 0.20528
 C1199 C 0.34265 0.33789 0.20567
 C1200 C 0.37813 0.35668 0.18337
 C1201 C 0.40732 0.32811 0.16169
 C1202 C 0.40405 0.28138 0.16596
 C1203 C 0.43792 0.34668 0.13509
 C1204 C 0.44033 0.39355 0.13058
 C1205 C 0.41443 0.42187 0.15462
 C1206 C 0.38326 0.40358 0.18066
 H1207 H 0.31930 0.35991 0.22122
 H1208 H 0.42753 0.25891 0.15102
 H1209 H 0.45831 0.32480 0.11689
 H1210 H 0.36172 0.42608 0.19736
 H1211 H 0.36781 0.22673 0.19110
 H1212 H 0.41590 0.45826 0.15149
   
