data_POSCAR
  _audit_creation_date              2014-09-24
  _audit_creation_method            'ToBaCCo'
  _symmetry_space_group_name_H-M    'P1'
  _symmetry_Int_Tables_number       1
  _symmetry_cell_setting            triclinic
  loop_
  _symmetry_equiv_pos_as_xyz
 x,y,z
_cell_length_a 64.2070
_cell_length_b 60.1632
_cell_length_c 65.7962
_cell_angle_alpha 89.913000
_cell_angle_beta 90.012100
_cell_angle_gamma 90.367000
loop_
  _atom_site_label
  _atom_site_type_symbol
  _atom_site_fract_x
  _atom_site_fract_y
  _atom_site_fract_z
N1 N 0.60342 0.65829 0.61366
 N2 N 0.59656 0.65039 0.63105
 C3 C 0.57943 0.66169 0.63655
 C4 C 0.57531 0.67760 0.62184
 C5 C 0.59094 0.67488 0.60753
 H6 H 0.57074 0.65868 0.65035
 H7 H 0.59310 0.68420 0.59363
 Cu8 Cu 0.61066 0.62616 0.64489
 Cu9 Cu 0.62814 0.64667 0.60039
 Cu10 Cu 0.65329 0.60301 0.62427
 N11 N 0.62452 0.60107 0.65763
 N12 N 0.64115 0.59210 0.64953
 C13 C 0.64740 0.57503 0.66122
 C14 C 0.63393 0.57304 0.67768
 C15 C 0.61960 0.58998 0.67478
 H16 H 0.66073 0.56483 0.65780
 H17 H 0.60644 0.59396 0.68428
 N18 N 0.66315 0.61630 0.59860
 N19 N 0.65341 0.63272 0.58937
 C20 C 0.66375 0.63794 0.57219
 C21 C 0.68089 0.62421 0.57052
 C22 C 0.67999 0.61072 0.58757
 H23 H 0.65933 0.65101 0.56180
 H24 H 0.69071 0.59764 0.59153
 H25 H 0.62568 0.61499 0.61248
 H26 H 0.64257 0.63524 0.62643
 N27 N 0.89746 0.34119 0.11346
 N28 N 0.90470 0.34957 0.13049
 C29 C 0.92195 0.33843 0.13594
 C30 C 0.92578 0.32202 0.12158
 C31 C 0.90978 0.32441 0.10752
 H32 H 0.93088 0.34199 0.14947
 H33 H 0.90713 0.31473 0.09394
 Cu34 Cu 0.89069 0.37402 0.14401
 Cu35 Cu 0.87250 0.35254 0.10032
 Cu36 Cu 0.84743 0.39637 0.12396
 N37 N 0.87680 0.39900 0.15682
 N38 N 0.85985 0.40760 0.14896
 C39 C 0.85351 0.42456 0.16070
 C40 C 0.86723 0.42680 0.17687
 C41 C 0.88182 0.41023 0.17384
 H42 H 0.83991 0.43448 0.15761
 H43 H 0.89520 0.40667 0.18321
 N44 N 0.83733 0.38274 0.09854
 N45 N 0.84703 0.36626 0.08941
 C46 C 0.83659 0.36091 0.07233
 C47 C 0.81944 0.37461 0.07063
 C48 C 0.82042 0.38822 0.08756
 H49 H 0.84100 0.34782 0.06200
 H50 H 0.80974 0.40136 0.09143
 H51 H 0.87483 0.38447 0.11175
 H52 H 0.85847 0.36430 0.12640
 N53 N 0.39320 0.16111 -0.11387
 N54 N 0.39837 0.15515 -0.13239
 C55 C 0.41532 0.16676 -0.13824
 C56 C 0.42111 0.18088 -0.12256
 C57 C 0.40665 0.17679 -0.10733
 H58 H 0.42273 0.16514 -0.15291
 H59 H 0.40599 0.18449 -0.09252
 Cu60 Cu 0.38249 0.13294 -0.14726
 Cu61 Cu 0.36934 0.14822 -0.09978
 Cu62 Cu 0.34507 0.10359 -0.12317
 N63 N 0.37141 0.10544 -0.15839
 N64 N 0.35699 0.09387 -0.14885
 C65 C 0.35250 0.07552 -0.15973
 C66 C 0.36474 0.07562 -0.17708
 C67 C 0.37655 0.09491 -0.17569
 H68 H 0.34105 0.06315 -0.15540
 H69 H 0.38828 0.10069 -0.18626
 N70 N 0.33546 0.11607 -0.09717
 N71 N 0.34488 0.13290 -0.08811
 C72 C 0.33471 0.13762 -0.07077
 C73 C 0.31798 0.12314 -0.06885
 C74 C 0.31896 0.10972 -0.08589
 H75 H 0.33886 0.15097 -0.06054
 H76 H 0.30845 0.09627 -0.08976
 H77 H 0.37294 0.11799 -0.11426
 H78 H 0.35263 0.13707 -0.12472
 N79 N 0.10638 0.83848 0.38651
 N80 N 0.10143 0.84423 0.36788
 C81 C 0.08461 0.83248 0.36194
 C82 C 0.07859 0.81842 0.37771
 C83 C 0.09292 0.82282 0.39308
 H84 H 0.07742 0.83418 0.34718
 H85 H 0.09367 0.81527 0.40796
 Cu86 Cu 0.11733 0.86643 0.35297
 Cu87 Cu 0.13012 0.85153 0.40069
 Cu88 Cu 0.15436 0.89617 0.37716
 N89 N 0.12827 0.89400 0.34178
 N90 N 0.14253 0.90572 0.35135
 C91 C 0.14695 0.92408 0.34041
 C92 C 0.13482 0.92383 0.32299
 C93 C 0.12316 0.90444 0.32440
 H94 H 0.15827 0.93657 0.34476
 H95 H 0.11154 0.89853 0.31378
 N96 N 0.16388 0.88383 0.40329
 N97 N 0.15447 0.86699 0.41239
 C98 C 0.16462 0.86234 0.42978
 C99 C 0.18131 0.87687 0.43168
 C100 C 0.18034 0.89025 0.41458
 H101 H 0.16049 0.84899 0.44005
 H102 H 0.19084 0.90370 0.41065
 H103 H 0.12649 0.88164 0.38593
 H104 H 0.14700 0.86261 0.37580
 C105 C 0.11695 0.14150 0.11570
 C106 C 0.13485 0.13215 0.10711
 C107 C 0.14440 0.11435 0.11648
 C108 C 0.13618 0.10561 0.13457
 C109 C 0.11853 0.11480 0.14303
 C110 C 0.10883 0.13286 0.13352
 C111 C 0.10445 0.15890 0.10995
 N112 N 0.08888 0.16101 0.12381
 C113 C 0.09147 0.14509 0.13827
 C114 C 0.11405 0.10297 0.16041
 N115 N 0.12853 0.08674 0.16273
 C116 C 0.14212 0.08830 0.14692
 C117 C 0.16142 0.10883 0.10488
 N118 N 0.16246 0.12283 0.08864
 C119 C 0.14618 0.13713 0.08994
 H120 H 0.10641 0.16908 0.09650
 H121 H 0.08163 0.14275 0.15147
 H122 H 0.10128 0.10620 0.17070
 H123 H 0.15520 0.07743 0.14430
 H124 H 0.17241 0.09579 0.10830
 H125 H 0.14260 0.15009 0.07910
 C126 C 0.38274 0.85832 0.61594
 C127 C 0.36484 0.86770 0.60734
 C128 C 0.35518 0.88535 0.61680
 C129 C 0.36329 0.89389 0.63500
 C130 C 0.38092 0.88464 0.64348
 C131 C 0.39072 0.86673 0.63388
 C132 C 0.39535 0.84106 0.61010
 N133 N 0.41084 0.83880 0.62404
 C134 C 0.40808 0.85449 0.63864
 C135 C 0.38532 0.89631 0.66094
 N136 N 0.37082 0.91251 0.66328
 C137 C 0.35728 0.91107 0.64741
 C138 C 0.33818 0.89092 0.60518
 N139 N 0.33724 0.87710 0.58884
 C140 C 0.35358 0.86287 0.59009
 H141 H 0.39350 0.83112 0.59651
 H142 H 0.41780 0.85669 0.65193
 H143 H 0.39807 0.89302 0.67124
 H144 H 0.34422 0.92198 0.64477
 H145 H 0.32711 0.90385 0.60866
 H146 H 0.35723 0.85004 0.57918
 C147 C 0.88185 0.64194 0.38538
 C148 C 0.86347 0.63318 0.39380
 C149 C 0.85316 0.61588 0.38423
 C150 C 0.86109 0.60706 0.36611
 C151 C 0.87919 0.61569 0.35782
 C152 C 0.88966 0.63322 0.36754
 C153 C 0.89509 0.65880 0.39130
 N154 N 0.91078 0.66053 0.37749
 C155 C 0.90753 0.64488 0.36291
 C156 C 0.88330 0.60387 0.34042
 N157 N 0.86815 0.58821 0.33793
 C158 C 0.85449 0.59009 0.35362
 C159 C 0.83593 0.61075 0.39579
 N160 N 0.83550 0.62449 0.41219
 C161 C 0.85235 0.63827 0.41103
 H162 H 0.89350 0.66889 0.40481
 H163 H 0.91724 0.64238 0.34967
 H164 H 0.89662 0.60624 0.33056
 H165 H 0.84064 0.58001 0.35576
 H166 H 0.82444 0.59810 0.39229
 H167 H 0.85650 0.65087 0.42206
 C168 C 0.61912 0.35726 -0.11524
 C169 C 0.63741 0.36607 -0.10671
 C170 C 0.64764 0.38352 -0.11614
 C171 C 0.63973 0.39246 -0.13425
 C172 C 0.62171 0.38378 -0.14266
 C173 C 0.61131 0.36608 -0.13307
 C174 C 0.60595 0.34028 -0.10942
 N175 N 0.59029 0.33859 -0.12328
 C176 C 0.59349 0.35437 -0.13778
 C177 C 0.61759 0.39573 -0.16002
 N178 N 0.63265 0.41152 -0.16236
 C179 C 0.64626 0.40960 -0.14662
 C180 C 0.66480 0.38867 -0.10449
 N181 N 0.66525 0.37477 -0.08816
 C182 C 0.64849 0.36090 -0.08946
 H183 H 0.60754 0.33010 -0.09595
 H184 H 0.58377 0.35696 -0.15101
 H185 H 0.60435 0.39335 -0.16997
 H186 H 0.66002 0.41978 -0.14437
 H187 H 0.67623 0.40143 -0.10788
 H188 H 0.64437 0.34816 -0.07852
 C189 C -0.02539 0.27465 0.12133
 C190 C -0.02653 0.29076 0.13668
 C191 C -0.04256 0.30636 0.13677
 C192 C -0.05791 0.30636 0.12142
 C193 C -0.05656 0.29019 0.10597
 C194 C -0.04056 0.27455 0.10598
 C195 C -0.00849 0.25793 0.12141
 C196 C -0.01282 0.23555 0.11687
 C197 C 0.00304 0.21976 0.11717
 C198 C 0.02360 0.22601 0.12191
 C199 C 0.02795 0.24841 0.12634
 C200 C 0.01207 0.26419 0.12614
 C201 C 0.04043 0.20922 0.12233
 C202 C 0.06009 0.21408 0.11401
 C203 C 0.07594 0.19826 0.11443
 C204 C 0.07251 0.17728 0.12328
 C205 C 0.05284 0.17244 0.13162
 C206 C 0.03697 0.18821 0.13111
 H207 H -0.01518 0.29109 0.14886
 H208 H -0.04274 0.31831 0.14901
 H209 H -0.06781 0.28937 0.09378
 H210 H -0.03993 0.26249 0.09380
 H211 H -0.02854 0.23020 0.11336
 H212 H -0.00074 0.20266 0.11350
 H213 H 0.04361 0.25368 0.13024
 H214 H 0.01591 0.28134 0.12952
 H215 H 0.06316 0.23005 0.10698
 H216 H 0.09097 0.20257 0.10807
 H217 H 0.04965 0.15635 0.13835
 H218 H 0.02204 0.18406 0.13781
 C219 C 0.52563 0.72560 0.62144
 C220 C 0.54194 0.72705 0.60725
 C221 C 0.55799 0.71146 0.60733
 C222 C 0.55814 0.69405 0.62161
 C223 C 0.54177 0.69259 0.63576
 C224 C 0.52571 0.70817 0.63566
 C225 C 0.50867 0.74227 0.62148
 C226 C 0.48789 0.73570 0.62478
 C227 C 0.47196 0.75142 0.62502
 C228 C 0.47644 0.77408 0.62198
 C229 C 0.49721 0.78065 0.61862
 C230 C 0.51314 0.76493 0.61837
 C231 C 0.45954 0.79081 0.62242
 C232 C 0.46261 0.81142 0.63203
 C233 C 0.44668 0.82713 0.63255
 C234 C 0.42730 0.82261 0.62345
 C235 C 0.42425 0.80201 0.61381
 C236 C 0.44017 0.78629 0.61331
 H237 H 0.54219 0.74013 0.59593
 H238 H 0.57030 0.71324 0.59623
 H239 H 0.54121 0.67941 0.64694
 H240 H 0.51350 0.70674 0.64695
 H241 H 0.48392 0.71835 0.62702
 H242 H 0.45616 0.74585 0.62784
 H243 H 0.50113 0.79795 0.61602
 H244 H 0.52900 0.77055 0.61600
 H245 H 0.47727 0.81532 0.63938
 H246 H 0.44963 0.84291 0.63990
 H247 H 0.40945 0.79790 0.60685
 H248 H 0.43739 0.77065 0.60561
 C249 C 1.02850 0.77188 0.37837
 C250 C 1.04144 0.77440 0.39541
 C251 C 1.05789 0.78974 0.39524
 C252 C 1.06186 0.80305 0.37799
 C253 C 1.04870 0.80051 0.36097
 C254 C 1.03228 0.78514 0.36118
 C255 C 1.01118 0.75540 0.37846
 C256 C 1.00699 0.74245 0.36115
 C257 C 0.99072 0.72692 0.36121
 C258 C 0.97824 0.72398 0.37856
 C259 C 0.98241 0.73693 0.39587
 C260 C 0.99871 0.75245 0.39582
 C261 C 0.96091 0.70750 0.37856
 C262 C 0.94171 0.71254 0.38764
 C263 C 0.92533 0.69713 0.38739
 C264 C 0.92777 0.67631 0.37804
 C265 C 0.94702 0.67123 0.36907
 C266 C 0.96340 0.68663 0.36933
 H267 H 1.03908 0.76422 0.40881
 H268 H 1.06744 0.79090 0.40873
 H269 H 1.05087 0.81029 0.34734
 H270 H 1.02238 0.78382 0.34790
 H271 H 1.01645 0.74415 0.34761
 H272 H 0.98776 0.71737 0.34756
 H273 H 0.97320 0.73491 0.40954
 H274 H 1.00141 0.76233 0.40932
 H275 H 0.93921 0.72860 0.39461
 H276 H 0.91061 0.70170 0.39416
 H277 H 0.94954 0.65521 0.36206
 H278 H 0.97812 0.68210 0.36251
 C279 C 0.47218 0.22780 -0.12178
 C280 C 0.45646 0.22873 -0.10697
 C281 C 0.43996 0.21347 -0.10716
 C282 C 0.43875 0.19695 -0.12222
 C283 C 0.45452 0.19602 -0.13702
 C284 C 0.47105 0.21124 -0.13678
 C285 C 0.48963 0.24412 -0.12166
 C286 C 0.51011 0.23729 -0.12572
 C287 C 0.52650 0.25268 -0.12574
 C288 C 0.52278 0.27525 -0.12178
 C289 C 0.50232 0.28208 -0.11769
 C290 C 0.48593 0.26667 -0.11760
 C291 C 0.54017 0.29165 -0.12202
 C292 C 0.53756 0.31263 -0.13105
 C293 C 0.55397 0.32800 -0.13144
 C294 C 0.57334 0.32277 -0.12276
 C295 C 0.57591 0.30181 -0.11366
 C296 C 0.55952 0.28641 -0.11333
 H297 H 0.45702 0.24116 -0.09509
 H298 H 0.42808 0.21482 -0.09558
 H299 H 0.45423 0.18348 -0.14877
 H300 H 0.48282 0.21024 -0.14852
 H301 H 0.51348 0.21998 -0.12871
 H302 H 0.54207 0.24695 -0.12914
 H303 H 0.49899 0.29932 -0.11438
 H304 H 0.47030 0.27248 -0.11462
 H305 H 0.52290 0.31707 -0.13805
 H306 H 0.55141 0.34408 -0.13836
 H307 H 0.59069 0.29719 -0.10704
 H308 H 0.56194 0.27046 -0.10609
 C309 C 0.13318 -0.02718 0.27514
 C310 C 0.12564 -0.04886 0.27181
 C311 C 0.12613 -0.06472 0.28734
 C312 C 0.13432 -0.05933 0.30653
 C313 C 0.14197 -0.03771 0.30984
 C314 C 0.14135 -0.02180 0.29435
 C315 C 0.13251 -0.01026 0.25865
 C316 C 0.14892 0.00508 0.25610
 C317 C 0.14827 0.02098 0.24061
 C318 C 0.13122 0.02188 0.22722
 C319 C 0.11483 0.00652 0.22974
 C320 C 0.11544 -0.00931 0.24529
 C321 C 0.13056 0.03873 0.21066
 C322 C 0.11174 0.04906 0.20539
 C323 C 0.11107 0.06474 0.18973
 C324 C 0.12923 0.07059 0.17898
 C325 C 0.14808 0.06033 0.18433
 C326 C 0.14872 0.04456 0.19994
 H327 H 0.11960 -0.05369 0.25709
 H328 H 0.12036 -0.08129 0.28417
 H329 H 0.14815 -0.03291 0.32450
 H330 H 0.14697 -0.00516 0.29755
 H331 H 0.16242 0.00465 0.26596
 H332 H 0.16104 0.03273 0.23926
 H333 H 0.10159 0.00656 0.21955
 H334 H 0.10241 -0.02067 0.24697
 H335 H 0.09750 0.04517 0.21351
 H336 H 0.09623 0.07206 0.18591
 H337 H 0.16242 0.06459 0.17660
 H338 H 0.16344 0.03675 0.20343
 C339 C 0.63550 0.52542 -0.27454
 C340 C 0.62004 0.54180 -0.27505
 C341 C 0.61954 0.55748 -0.29071
 C342 C 0.63453 0.55727 -0.30639
 C343 C 0.65007 0.54082 -0.30572
 C344 C 0.65051 0.52512 -0.29004
 C345 C 0.63585 0.50863 -0.25798
 C346 C 0.64015 0.48624 -0.26224
 C347 C 0.64008 0.47037 -0.24670
 C348 C 0.63577 0.47654 -0.22655
 C349 C 0.63164 0.49897 -0.22227
 C350 C 0.63166 0.51482 -0.23781
 C351 C 0.63532 0.45963 -0.21008
 C352 C 0.64387 0.46437 -0.19090
 C353 C 0.64313 0.44857 -0.17532
 C354 C 0.63377 0.42769 -0.17854
 C355 C 0.62532 0.42292 -0.19777
 C356 C 0.62610 0.43869 -0.21336
 H357 H 0.60809 0.54228 -0.26345
 H358 H 0.60723 0.56964 -0.29038
 H359 H 0.66202 0.53985 -0.31724
 H360 H 0.66279 0.51286 -0.28993
 H361 H 0.64324 0.48091 -0.27765
 H362 H 0.64353 0.45326 -0.25044
 H363 H 0.62806 0.50421 -0.20693
 H364 H 0.62851 0.53198 -0.23401
 H365 H 0.65126 0.48027 -0.18797
 H366 H 0.64960 0.45286 -0.16064
 H367 H 0.61822 0.40691 -0.20082
 H368 H 0.61920 0.43462 -0.22791
 C369 C 0.36628 1.02649 0.77532
 C370 C 0.35800 1.02122 0.79453
 C371 C 0.35741 1.03717 0.80993
 C372 C 0.36521 1.05874 0.80655
 C373 C 0.37351 1.06402 0.78737
 C374 C 0.37397 1.04812 0.77192
 C375 C 0.36693 1.00953 0.75891
 C376 C 0.38404 1.00845 0.74563
 C377 C 0.38462 0.99258 0.73016
 C378 C 0.36816 0.97731 0.72764
 C379 C 0.35108 0.97833 0.74097
 C380 C 0.35045 0.99428 0.75638
 C381 C 0.36880 0.96043 0.71116
 C382 C 0.35065 0.95467 0.70039
 C383 C 0.35128 0.93891 0.68482
 C384 C 0.37011 0.92859 0.67954
 C385 C 0.38826 0.93435 0.69034
 C386 C 0.38760 0.95002 0.70598
 H387 H 0.35227 1.00463 0.79778
 H388 H 0.35114 1.03245 0.82459
 H389 H 0.37939 1.08054 0.78415
 H390 H 0.38010 1.05287 0.75721
 H391 H 0.39712 1.01974 0.74730
 H392 H 0.39790 0.99245 0.72002
 H393 H 0.33826 0.96666 0.73962
 H394 H 0.33692 0.99480 0.76618
 H395 H 0.33595 0.96254 0.70382
 H396 H 0.33695 0.93472 0.67705
 H397 H 0.40308 0.92699 0.68658
 H398 H 0.40183 0.95384 0.71413
 C399 C 0.86550 0.47503 0.22539
 C400 C 0.85106 0.47595 0.20938
 C401 C 0.85157 0.46032 0.19370
 C402 C 0.86656 0.44336 0.19362
 C403 C 0.88097 0.44245 0.20971
 C404 C 0.88045 0.45808 0.22538
 C405 C 0.86510 0.49174 0.24199
 C406 C 0.86859 0.48533 0.26225
 C407 C 0.86857 0.50110 0.27782
 C408 C 0.86507 0.52366 0.27349
 C409 C 0.86145 0.53005 0.25325
 C410 C 0.86145 0.51427 0.23767
 C411 C 0.86549 0.54047 0.29000
 C412 C 0.87509 0.56126 0.28695
 C413 C 0.87585 0.57692 0.30259
 C414 C 0.86701 0.57218 0.32167
 C415 C 0.85726 0.55145 0.32467
 C416 C 0.85652 0.53577 0.30903
 H417 H 0.83918 0.48865 0.20908
 H418 H 0.84019 0.46166 0.18165
 H419 H 0.89275 0.42971 0.21031
 H420 H 0.89197 0.45708 0.23736
 H421 H 0.87121 0.46807 0.26610
 H422 H 0.87163 0.49567 0.29322
 H423 H 0.85848 0.54726 0.24945
 H424 H 0.85892 0.51978 0.22220
 H425 H 0.88233 0.56530 0.27253
 H426 H 0.88325 0.59282 0.29968
 H427 H 0.85049 0.54716 0.33922
 H428 H 0.84881 0.52000 0.31179
 C429 C 0.27191 0.12200 -0.02121
 C430 C 0.26773 0.11216 -0.04016
 C431 C 0.28273 0.11236 -0.05554
 C432 C 0.30221 0.12255 -0.05241
 C433 C 0.30643 0.13235 -0.03347
 C434 C 0.29149 0.13201 -0.01803
 C435 C 0.25586 0.12199 -0.00490
 C436 C 0.25343 0.14060 0.00777
 C437 C 0.23831 0.14065 0.02304
 C438 C 0.22515 0.12214 0.02595
 C439 C 0.22758 0.10354 0.01328
 C440 C 0.24278 0.10344 -0.00191
 C441 C 0.20894 0.12229 0.04210
 C442 C 0.20451 0.10299 0.05341
 C443 C 0.18927 0.10314 0.06857
 C444 C 0.17813 0.12263 0.07289
 C445 C 0.18260 0.14193 0.06158
 C446 C 0.19776 0.14175 0.04635
 H447 H 0.25269 0.10464 -0.04325
 H448 H 0.27886 0.10489 -0.07002
 H449 H 0.32138 0.14007 -0.03043
 H450 H 0.29537 0.13938 -0.00350
 H451 H 0.26305 0.15527 0.00574
 H452 H 0.23705 0.15514 0.03268
 H453 H 0.21755 0.08911 0.01495
 H454 H 0.24439 0.08873 -0.01122
 H455 H 0.21300 0.08778 0.05071
 H456 H 0.18611 0.08789 0.07676
 H457 H 0.17456 0.15731 0.06461
 H458 H 0.20057 0.15683 0.03776
 C459 C 0.72710 0.62405 0.52298
 C460 C 0.73125 0.61419 0.54193
 C461 C 0.71624 0.61416 0.55731
 C462 C 0.69676 0.62410 0.55416
 C463 C 0.69260 0.63397 0.53523
 C464 C 0.70756 0.63389 0.51981
 C465 C 0.74307 0.62409 0.50661
 C466 C 0.74570 0.64274 0.49395
 C467 C 0.76069 0.64279 0.47855
 C468 C 0.77349 0.62421 0.47549
 C469 C 0.77088 0.60558 0.48818
 C470 C 0.75583 0.60550 0.50352
 C471 C 0.78949 0.62429 0.45915
 C472 C 0.79328 0.60503 0.44770
 C473 C 0.80835 0.60509 0.43237
 C474 C 0.81995 0.62443 0.42804
 C475 C 0.81611 0.64370 0.43948
 C476 C 0.80110 0.64362 0.45486
 H477 H 0.74626 0.60679 0.54500
 H478 H 0.72009 0.60665 0.57177
 H479 H 0.67767 0.64152 0.53217
 H480 H 0.70371 0.64128 0.50529
 H481 H 0.73631 0.65744 0.49606
 H482 H 0.76211 0.65731 0.46891
 H483 H 0.78064 0.59110 0.48640
 H484 H 0.75406 0.59076 0.51284
 H485 H 0.78445 0.58993 0.45043
 H486 H 0.81103 0.58987 0.42407
 H487 H 0.82454 0.65896 0.43644
 H488 H 0.79876 0.65866 0.46355
 C489 C 0.77325 0.37480 0.02306
 C490 C 0.76907 0.38461 0.04200
 C491 C 0.78407 0.38461 0.05740
 C492 C 0.80356 0.37470 0.05427
 C493 C 0.80774 0.36486 0.03537
 C494 C 0.79279 0.36496 0.01993
 C495 C 0.75731 0.37481 0.00666
 C496 C 0.75474 0.35622 -0.00605
 C497 C 0.73980 0.35624 -0.02150
 C498 C 0.72700 0.37481 -0.02458
 C499 C 0.72954 0.39338 -0.01185
 C500 C 0.74453 0.39340 0.00355
 C501 C 0.71107 0.37481 -0.04099
 C502 C 0.70727 0.39413 -0.05241
 C503 C 0.69227 0.39413 -0.06780
 C504 C 0.68074 0.37478 -0.07224
 C505 C 0.68459 0.35545 -0.06084
 C506 C 0.69952 0.35547 -0.04539
 H507 H 0.75406 0.39199 0.04504
 H508 H 0.78022 0.39210 0.07184
 H509 H 0.82268 0.35733 0.03233
 H510 H 0.79667 0.35761 0.00541
 H511 H 0.76413 0.34152 -0.00392
 H512 H 0.73844 0.34177 -0.03117
 H513 H 0.71977 0.40786 -0.01364
 H514 H 0.74626 0.40809 0.01289
 H515 H 0.71605 0.40924 -0.04959
 H516 H 0.68958 0.40940 -0.07607
 H517 H 0.67622 0.34017 -0.06396
 H518 H 0.70187 0.34038 -0.03674
 C519 C 0.22746 0.87807 0.47928
 C520 C 0.20792 0.86797 0.48248
 C521 C 0.19295 0.86762 0.46706
 C522 C 0.19710 0.87749 0.44812
 C523 C 0.21654 0.88778 0.44496
 C524 C 0.23156 0.88799 0.46033
 C525 C 0.24354 0.87808 0.49556
 C526 C 0.25655 0.89667 0.49854
 C527 C 0.27181 0.89656 0.51369
 C528 C 0.27437 0.87790 0.52631
 C529 C 0.26128 0.85935 0.52340
 C530 C 0.24609 0.85942 0.50819
 C531 C 0.29065 0.87774 0.54240
 C532 C 0.30194 0.85831 0.54655
 C533 C 0.31716 0.85810 0.56174
 C534 C 0.32156 0.87735 0.57310
 C535 C 0.31032 0.89681 0.56887
 C536 C 0.29503 0.89698 0.55375
 H537 H 0.20409 0.86053 0.49701
 H538 H 0.17804 0.85982 0.47011
 H539 H 0.22036 0.89531 0.43048
 H540 H 0.24656 0.89559 0.45722
 H541 H 0.25484 0.91142 0.48926
 H542 H 0.28178 0.91103 0.51535
 H543 H 0.26263 0.84481 0.53301
 H544 H 0.23652 0.84471 0.50616
 H545 H 0.29917 0.84327 0.53792
 H546 H 0.32528 0.84274 0.56469
 H547 H 0.31343 0.91201 0.57711
 H548 H 0.28646 0.91216 0.55112
   
