data_POSCAR
  _audit_creation_date              2014-09-24
  _audit_creation_method            'ToBaCCo'
  _symmetry_space_group_name_H-M    'P1'
  _symmetry_Int_Tables_number       1
  _symmetry_cell_setting            triclinic
  loop_
  _symmetry_equiv_pos_as_xyz
 x,y,z
_cell_length_a 19.7147
_cell_length_b 20.2561
_cell_length_c 8.1184
_cell_angle_alpha 90.000600
_cell_angle_beta 89.779200
_cell_angle_gamma 90.073200
loop_
  _atom_site_label
  _atom_site_type_symbol
  _atom_site_fract_x
  _atom_site_fract_y
  _atom_site_fract_z
C1 C 0.09023 0.28421 -0.09739
 C2 C 0.09106 0.21671 -0.10269
 C3 C 0.13107 0.19534 0.02735
 N4 N 0.15459 0.24860 0.11058
 C5 C 0.12984 0.30313 0.03534
 C6 C 0.13819 0.12887 0.08308
 C7 C 0.19487 0.10802 0.17834
 C8 C 0.20876 0.04291 0.22089
 C9 C 0.27215 0.04206 0.29015
 C10 C 0.29559 0.10660 0.29160
 N11 N 0.24897 0.14598 0.21944
 C12 C 0.35865 0.12720 0.35885
 C13 C 0.37766 0.19429 0.37966
 C14 C 0.44358 0.21481 0.40795
 C15 C 0.44286 0.28206 0.41189
 C16 C 0.37662 0.30125 0.38526
 N17 N 0.33642 0.24745 0.36591
 C18 C 0.35596 0.36800 0.37534
 C19 C 0.29259 0.38890 0.31307
 C20 C 0.26996 0.45362 0.31235
 C21 C 0.20762 0.45368 0.23767
 C22 C 0.19398 0.38898 0.19139
 N23 N 0.24670 0.35029 0.23596
 C24 C 0.13781 0.36883 0.09479
 H25 H 0.06286 0.31455 -0.18361
 H26 H 0.06426 0.18814 -0.19375
 H27 H 0.25418 0.30178 0.20179
 H28 H 0.17885 -0.00069 0.19583
 H29 H 0.29850 -0.00176 0.33051
 H30 H 0.48821 0.18438 0.41532
 H31 H 0.48669 0.31349 0.42414
 H32 H 0.17832 0.49752 0.21171
 H33 H 0.25684 0.19460 0.18582
 H34 H 0.29675 0.49703 0.35397
 C35 C 0.59677 0.21338 0.60456
 C36 C 0.59660 0.28105 0.60677
 C37 C 0.63208 0.30160 0.46845
 N38 N 0.65358 0.24851 0.38203
 C39 C 0.63204 0.19413 0.46381
 C40 C 0.63860 0.36751 0.41261
 C41 C 0.69453 0.38846 0.31562
 C42 C 0.70589 0.45261 0.26129
 C43 C 0.76932 0.45359 0.19017
 C44 C 0.79471 0.39001 0.20028
 N45 N 0.74951 0.35118 0.27991
 C46 C 0.85992 0.37027 0.14710
 C47 C 0.88135 0.30384 0.14390
 C48 C 0.94833 0.28416 0.13441
 C49 C 0.94809 0.21657 0.13228
 C50 C 0.88091 0.19709 0.14031
 N51 N 0.83994 0.25054 0.14716
 C52 C 0.85885 0.13078 0.13697
 C53 C 0.79240 0.11086 0.18067
 C54 C 0.76617 0.04810 0.15891
 C55 C 0.70205 0.04808 0.22658
 C56 C 0.69086 0.11089 0.29092
 N57 N 0.74683 0.14824 0.26307
 C58 C 0.63624 0.12925 0.39678
 H59 H 0.57275 0.18318 0.69745
 H60 H 0.57273 0.31080 0.70082
 H61 H 0.75737 0.19357 0.31645
 H62 H 0.67409 0.49547 0.27893
 H63 H 0.79490 0.49696 0.14347
 H64 H 0.99261 0.31547 0.13551
 H65 H 0.99222 0.18513 0.13062
 H66 H 0.67030 0.00478 0.23734
 H67 H 0.75895 0.30405 0.32387
 H68 H 0.79182 0.00561 0.10803
 C69 C 0.94387 0.78517 0.91609
 C70 C 0.94297 0.71792 0.91955
 C71 C 0.87731 0.69862 0.88496
 N72 N 0.83768 0.75243 0.86119
 C73 C 0.87868 0.80567 0.87969
 C74 C 0.85665 0.63180 0.87319
 C75 C 0.79307 0.61081 0.81221
 C76 C 0.76964 0.54630 0.81573
 C77 C 0.70693 0.54620 0.74258
 C78 C 0.69393 0.61062 0.69329
 N79 N 0.74734 0.64919 0.73433
 C80 C 0.63718 0.63064 0.59883
 C81 C 0.62804 0.69621 0.54114
 C82 C 0.58406 0.71524 0.41690
 C83 C 0.58475 0.78262 0.41239
 C84 C 0.62922 0.80352 0.53371
 N85 N 0.65562 0.75047 0.61153
 C86 C 0.63955 0.86997 0.58271
 C87 C 0.69797 0.89161 0.66902
 C88 C 0.71156 0.95680 0.71018
 C89 C 0.77478 0.95793 0.78073
 C90 C 0.79816 0.89332 0.78373
 N91 N 0.75177 0.85372 0.71113
 C92 C 0.86030 0.87277 0.85567
 H93 H 0.98832 0.81553 0.93009
 H94 H 0.98641 0.68666 0.93839
 H95 H 0.75894 0.80471 0.68045
 H96 H 0.79585 0.50315 0.86078
 H97 H 0.67651 0.50262 0.72093
 H98 H 0.55293 0.68507 0.33794
 H99 H 0.55439 0.81164 0.32926
 H100 H 0.80055 1.00174 0.82378
 H101 H 0.75546 0.69729 0.69721
 H102 H 0.68057 0.99980 0.68706
 C103 C 0.44655 0.71583 0.64421
 C104 C 0.44667 0.78346 0.64198
 C105 C 0.37955 0.80296 0.63826
 N106 N 0.33822 0.74962 0.63812
 C107 C 0.37941 0.69631 0.64163
 C108 C 0.35785 0.86920 0.63248
 C109 C 0.29150 0.88918 0.67650
 C110 C 0.26605 0.95236 0.65889
 C111 C 0.20211 0.95239 0.72732
 C112 C 0.19023 0.88913 0.78838
 N113 N 0.24562 0.85152 0.75743
 C114 C 0.13602 0.87051 0.89541
 C115 C 0.13248 0.80538 0.96228
 C116 C 0.10097 0.78612 1.10808
 C117 C 0.10090 0.71830 1.11072
 C118 C 0.13257 0.69746 0.96699
 N119 N 0.15158 0.75086 0.87752
 C120 C 0.13646 0.63159 0.90632
 C121 C 0.19065 0.61170 0.80107
 C122 C 0.20250 0.54761 0.74580
 C123 C 0.26617 0.54692 0.67628
 C124 C 0.29147 0.61045 0.68758
 N125 N 0.24582 0.64909 0.76598
 C126 C 0.35756 0.63002 0.64045
 H127 H 0.49048 0.68437 0.65427
 H128 H 0.49076 0.81498 0.64958
 H129 H 0.25579 0.69574 0.81238
 H130 H 0.29238 0.99524 0.61199
 H131 H 0.17134 0.99610 0.74193
 H132 H 0.08002 0.81655 1.20475
 H133 H 0.07983 0.68874 1.20911
 H134 H 0.29246 0.50345 0.63319
 H135 H 0.25563 0.80565 0.80827
 H136 H 0.17190 0.50400 0.76520
 O137 O 1.06139 -0.08080 0.08035
 O138 O 0.93009 0.03891 0.19041
 O139 O 0.93232 -0.07939 0.04760
 O140 O 1.06476 0.04270 0.15592
 O141 O 1.06180 0.08064 -0.09758
 O142 O 0.92732 -0.03640 -0.20172
 O143 O 0.93109 0.08005 -0.06148
 O144 O 1.06204 -0.04329 -0.17361
 Cu145 Cu 0.99614 -0.02255 0.14384
 Cu146 Cu 0.99487 0.02356 -0.15837
 C147 C 1.08511 -0.08277 -0.06431
 C148 C 0.90861 0.08013 0.08564
 C149 C 0.90758 -0.07875 -0.09725
 C150 C 1.08683 0.08232 0.04540
 O151 O 0.56263 0.42107 0.59876
 O152 O 0.42659 0.53739 0.70015
 O153 O 0.43030 0.41954 0.56882
 O154 O 0.55891 0.54542 0.67599
 O155 O 0.56357 0.57437 0.41457
 O156 O 0.42633 0.45999 0.31635
 O157 O 0.43214 0.57816 0.44798
 O158 O 0.55905 0.45121 0.33820
 Cu159 Cu 0.49438 0.47730 0.66120
 Cu160 Cu 0.49486 0.51917 0.35398
 C161 C 0.58421 0.41580 0.45240
 C162 C 0.40749 0.57884 0.59333
 C163 C 0.40604 0.41905 0.42352
 C164 C 0.58415 0.58072 0.56095
 O165 O -0.07042 0.57955 0.06735
 O166 O 0.06175 0.45673 0.16874
 O167 O 0.06130 0.58306 0.09218
 O168 O -0.06982 0.46246 0.20332
 O169 O -0.06813 0.42284 -0.05030
 O170 O 0.06215 0.54648 -0.16267
 O171 O 0.06239 0.42330 -0.08931
 O172 O -0.07186 0.54085 -0.18698
 Cu173 Cu -0.00428 0.52412 0.15761
 Cu174 Cu -0.00461 0.48042 -0.14754
 C175 C -0.09343 0.58078 -0.07893
 C176 C 0.08488 0.41896 0.05570
 C177 C 0.08516 0.58542 -0.05263
 C178 C -0.09063 0.42153 0.09707
 O179 O 0.43245 1.08044 0.54793
 O180 O 0.56082 0.95511 0.65815
 O181 O 0.56221 1.07886 0.58005
 O182 O 0.42729 0.96236 0.68646
 O183 O 0.43294 0.91888 0.43730
 O184 O 0.56046 1.04552 0.32244
 O185 O 0.56406 0.92353 0.39844
 O186 O 0.42485 1.03592 0.30072
 Cu187 Cu 0.49499 1.02239 0.64339
 Cu188 Cu 0.49472 0.97788 0.33939
 C189 C 0.40620 1.07889 0.40474
 C190 C 0.58578 0.91899 0.54423
 C191 C 0.58493 1.08273 0.43458
 C192 C 0.40809 0.91980 0.58239
   
