data_POSCAR
  _audit_creation_date              2014-09-24
  _audit_creation_method            'ToBaCCo'
  _symmetry_space_group_name_H-M    'P1'
  _symmetry_Int_Tables_number       1
  _symmetry_cell_setting            triclinic
  loop_
  _symmetry_equiv_pos_as_xyz
 x,y,z
_cell_length_a 12.1719
_cell_length_b 21.3360
_cell_length_c 12.7784
_cell_angle_alpha 88.616800
_cell_angle_beta 90.955800
_cell_angle_gamma 90.825100
loop_
  _atom_site_label
  _atom_site_type_symbol
  _atom_site_fract_x
  _atom_site_fract_y
  _atom_site_fract_z
N1 N 0.19953 0.02352 0.15328
 N2 N 0.28322 0.06038 0.17807
 N3 N 0.04999 -0.09221 0.18545
 N4 N 0.02312 -0.14452 0.23601
 N5 N 0.13218 -0.10138 0.12246
 N6 N 0.16395 -0.16046 0.12937
 N7 N 0.11556 0.03388 0.21334
 N8 N 0.13975 0.07886 0.27984
 C9 C 0.24530 0.09419 0.25746
 C10 C 0.09476 -0.18651 0.20089
 N11 N -0.23607 -0.03858 0.07692
 N12 N -0.31542 -0.08048 0.06238
 N13 N -0.10932 0.07141 0.18478
 N14 N -0.09549 0.11710 0.25150
 N15 N -0.17590 0.08734 0.10670
 N16 N -0.21481 0.14799 0.11914
 N17 N -0.17383 -0.05466 0.15782
 N18 N -0.20918 -0.10800 0.20023
 Mn19 Mn -0.02958 -0.01025 0.18662
 C20 C -0.29809 -0.12303 0.14074
 C21 C -0.15891 0.16415 0.21432
 N22 N 0.16803 -0.08400 -0.10069
 N23 N 0.20470 -0.14497 -0.11453
 N24 N 0.16995 0.05934 -0.14705
 N25 N 0.20495 0.11332 -0.18715
 N26 N 0.23258 0.04168 -0.06730
 N27 N 0.31151 0.08382 -0.05082
 N28 N 0.10337 -0.06623 -0.17914
 N29 N 0.08823 -0.11128 -0.24716
 Mn30 Mn 0.18435 -0.03055 0.02702
 C31 C 0.14928 -0.15962 -0.21063
 C32 C 0.29374 0.12771 -0.12736
 N33 N -0.14019 0.10423 -0.11529
 N34 N -0.17436 0.16295 -0.12115
 N35 N -0.11890 -0.02572 -0.20916
 N36 N -0.13587 -0.06644 -0.28327
 N37 N -0.20137 -0.02454 -0.14422
 N38 N -0.28001 -0.07089 -0.16952
 N39 N -0.05420 0.09762 -0.17458
 N40 N -0.02777 0.15090 -0.22227
 Mn41 Mn -0.19006 0.03227 -0.01936
 Mn42 Mn 0.02547 0.01647 -0.17818
 Cl43 Cl -0.00250 0.00198 0.00416
 C44 C -0.10322 0.19117 -0.18875
 C45 C -0.23264 -0.09484 -0.26226
 N46 N 0.66214 0.60442 0.56739
 N47 N 0.69960 0.66121 0.54825
 N48 N 0.66321 0.47498 0.68387
 N49 N 0.69783 0.42900 0.74702
 N50 N 0.72641 0.48051 0.60174
 N51 N 0.80685 0.43991 0.60827
 N52 N 0.59992 0.60257 0.65037
 N53 N 0.59532 0.65944 0.69099
 C54 C 0.65862 0.69532 0.62506
 C55 C 0.78867 0.40851 0.69938
 N56 N 0.35878 0.41879 0.65572
 N57 N 0.32799 0.36119 0.68243
 N58 N 0.37252 0.56360 0.68473
 N59 N 0.34821 0.61778 0.72607
 N60 N 0.29166 0.54398 0.62362
 N61 N 0.21135 0.58490 0.62066
 N62 N 0.43875 0.43844 0.71765
 N63 N 0.46460 0.39433 0.78796
 Mn64 Mn 0.51867 0.52033 0.68598
 C65 C 0.39413 0.34672 0.76527
 C66 C 0.24711 0.63019 0.68564
 N67 N 0.69762 0.45904 0.38159
 N68 N 0.77732 0.41797 0.38380
 N69 N 0.55168 0.56688 0.28917
 N70 N 0.52598 0.61196 0.22081
 N71 N 0.63438 0.58426 0.34938
 N72 N 0.66730 0.64162 0.32370
 N73 N 0.61761 0.44142 0.31822
 N74 N 0.64161 0.38775 0.27481
 Mn75 Mn 0.68102 0.53199 0.47509
 C76 C 0.74185 0.37412 0.31636
 C77 C 0.59950 0.65802 0.24317
 N78 N 0.26239 0.52179 0.40371
 N79 N 0.18087 0.56174 0.39874
 N80 N 0.39340 0.40441 0.35164
 N81 N 0.40958 0.35033 0.30747
 N82 N 0.33056 0.39699 0.43377
 N83 N 0.30086 0.33730 0.44632
 N84 N 0.32694 0.53020 0.32305
 N85 N 0.29171 0.57708 0.26227
 Mn86 Mn 0.30957 0.46992 0.52964
 Mn87 Mn 0.47190 0.48575 0.31916
 Cl88 Cl 0.49514 0.50197 0.50260
 C89 C 0.19942 0.59541 0.30991
 C90 C 0.35050 0.30915 0.36598
 N91 N 0.44278 0.21403 0.30999
 N92 N 0.41517 0.15691 0.28147
 C93 C 0.30802 0.14689 0.30131
 C94 C 0.26560 0.19977 0.34663
 C95 C 0.35406 0.24152 0.34920
 H96 H 0.18052 0.20927 0.36265
 H97 H 0.51962 0.23498 0.29704
 H98 H 0.46734 0.12702 0.24281
 N99 N 0.53267 0.73954 0.11473
 N100 N 0.55877 0.79820 0.08868
 C101 C 0.64312 0.81690 0.15060
 C102 C 0.67219 0.76852 0.21854
 C103 C 0.60071 0.72034 0.19295
 H104 H 0.73800 0.76792 0.27657
 H105 H 0.47032 0.71322 0.07876
 H106 H 0.52061 0.82430 0.02854
 N107 N 0.95057 0.34083 0.69148
 N108 N 0.97823 0.28335 0.71986
 C109 C 0.89743 0.25756 0.77810
 C110 C 0.81479 0.30106 0.78897
 C111 C 0.85191 0.35314 0.73156
 H112 H 0.73565 0.29400 0.82515
 H113 H 0.99653 0.36999 0.64152
 H114 H 1.04948 0.26146 0.69590
 N115 N 0.10568 0.70429 0.63834
 N116 N 0.08083 0.76543 0.66469
 C117 C 0.15086 0.78241 0.74204
 C118 C 0.22239 0.73380 0.76582
 C119 C 0.19223 0.68620 0.69826
 H120 H 0.28952 0.73376 0.82251
 H121 H 0.06704 0.67936 0.57837
 H122 H 0.01781 0.79203 0.63040
 N123 N 0.45931 0.26712 0.89908
 N124 N 0.43379 0.20853 0.92673
 C125 C 0.35171 0.18833 0.86340
 C126 C 0.32372 0.23576 0.79292
 C127 C 0.39330 0.28489 0.81827
 H128 H 0.25986 0.23507 0.73295
 H129 H 0.51997 0.29437 0.93567
 H130 H 0.47079 0.18349 0.98877
 N131 N 0.74117 0.78736 0.55111
 N132 N 0.77153 0.84679 0.58237
 C133 C 0.73064 0.85513 0.67803
 C134 C 0.67008 0.80168 0.70961
 C135 C 0.68322 0.75940 0.62860
 H136 H 0.63506 0.79194 0.78569
 H137 H 0.76775 0.76740 0.48224
 H138 H 0.82425 0.87691 0.54064
 N139 N 0.04150 0.66553 0.32696
 N140 N 0.01489 0.72335 0.29946
 C141 C 0.09298 0.74757 0.23632
 C142 C 0.17257 0.70286 0.22151
 C143 C 0.13679 0.65164 0.28152
 H144 H 0.24929 0.70853 0.18046
 H145 H -0.00260 0.63724 0.37974
 H146 H -0.05362 0.74643 0.32698
 N147 N 0.88240 0.30033 0.36421
 N148 N 0.90772 0.23932 0.33826
 C149 C 0.83838 0.22222 0.26052
 C150 C 0.76673 0.27061 0.23585
 C151 C 0.79631 0.31821 0.30353
 H152 H 0.69997 0.27047 0.17876
 H153 H 0.92038 0.32529 0.42451
 H154 H 0.97006 0.21271 0.37365
   
