data_POSCAR
  _audit_creation_date              2014-09-24
  _audit_creation_method            'ToBaCCo'
  _symmetry_space_group_name_H-M    'P1'
  _symmetry_Int_Tables_number       1
  _symmetry_cell_setting            triclinic
  loop_
  _symmetry_equiv_pos_as_xyz
 x,y,z
_cell_length_a 28.5468
_cell_length_b 20.2340
_cell_length_c 13.2595
_cell_angle_alpha 89.718900
_cell_angle_beta 89.891300
_cell_angle_gamma 89.517900
loop_
  _atom_site_label
  _atom_site_type_symbol
  _atom_site_fract_x
  _atom_site_fract_y
  _atom_site_fract_z
O1 O 0.73467 0.34630 0.59323
 O2 O 0.80844 0.25902 0.40843
 O3 O 0.73701 0.34163 0.40109
 O4 O 0.80712 0.26554 0.60413
 O5 O 0.76003 0.17941 0.60573
 O6 O 0.68992 0.25551 0.40255
 O7 O 0.76146 0.17293 0.41347
 O8 O 0.68767 0.26011 0.59766
 Cu9 Cu 0.77685 0.31149 0.50128
 Cu10 Cu 0.71981 0.20858 0.50526
 C11 C 0.69781 0.31841 0.62480
 C12 C 0.79832 0.20057 0.38145
 C13 C 0.70076 0.31248 0.36950
 C14 C 0.79618 0.20876 0.63757
 O15 O 0.18978 0.74999 0.39245
 O16 O 0.26815 0.66491 0.57182
 O17 O 0.18561 0.72299 0.58490
 O18 O 0.27267 0.69474 0.38263
 O19 O 0.30647 0.78966 0.41734
 O20 O 0.21940 0.81810 0.61842
 O21 O 0.30119 0.75993 0.60923
 O22 O 0.22332 0.84496 0.42857
 Cu23 Cu 0.22565 0.69866 0.47949
 Cu24 Cu 0.26609 0.81258 0.52189
 C25 C 0.19288 0.81214 0.38094
 C26 C 0.29836 0.69761 0.62027
 C27 C 0.18715 0.77644 0.63470
 C28 C 0.30482 0.73670 0.36664
 O29 O 0.28297 0.30897 -0.59430
 O30 O 0.20064 0.24004 -0.40694
 O31 O 0.27885 0.30690 -0.39794
 O32 O 0.19756 0.26531 -0.59965
 O33 O 0.22917 0.16567 -0.61179
 O34 O 0.31467 0.21050 -0.41310
 O35 O 0.23443 0.14219 -0.42620
 O36 O 0.31307 0.20929 -0.61682
 Cu37 Cu 0.23693 0.28994 -0.49784
 Cu38 Cu 0.27736 0.17337 -0.51603
 C39 C 0.31179 0.27023 -0.63858
 C40 C 0.20313 0.17839 -0.38684
 C41 C 0.31118 0.26718 -0.37201
 C42 C 0.19832 0.20831 -0.63856
 O43 O -0.29412 0.72502 -0.40613
 O44 O -0.21482 0.78867 -0.60317
 O45 O -0.29235 0.72161 -0.60057
 O46 O -0.21621 0.79338 -0.40768
 O47 O -0.17597 0.69986 -0.39956
 O48 O -0.25216 0.62786 -0.59388
 O49 O -0.17437 0.69534 -0.59884
 O50 O -0.25404 0.63116 -0.40231
 Cu51 Cu -0.25824 0.76661 -0.50475
 Cu52 Cu -0.20944 0.65459 -0.49767
 C53 C -0.28859 0.66626 -0.37356
 C54 C -0.18100 0.75301 -0.63476
 C55 C -0.28605 0.66213 -0.62806
 C56 C -0.18285 0.75905 -0.37123
 N57 N -0.05034 1.09121 -0.16672
 N58 N -0.08483 1.10660 -0.22870
 N59 N 0.05127 1.12407 -0.09713
 N60 N 0.08508 1.16675 -0.11482
 N61 N 0.04832 1.08106 -0.17053
 N62 N 0.08075 1.09244 -0.23926
 N63 N -0.04640 1.13600 -0.09595
 N64 N -0.07778 1.18371 -0.10875
 C65 C -0.10179 1.16413 -0.19120
 C66 C 0.10360 1.14562 -0.20292
 N67 N 0.04818 1.06447 0.18469
 N68 N 0.08492 1.06144 0.24450
 N69 N -0.04600 1.12730 0.11981
 N70 N -0.07536 1.17575 0.14170
 N71 N -0.05059 1.07783 0.18328
 N72 N -0.08393 1.09099 0.24968
 N73 N 0.05180 1.11385 0.12063
 N74 N 0.09084 1.14693 0.13697
 Mn75 Mn 0.00288 1.12597 0.01201
 C76 C 0.11102 1.11316 0.21448
 C77 C -0.09922 1.15203 0.22172
 N78 N 0.04160 0.94039 -0.18298
 N79 N 0.07768 0.93529 -0.24436
 N80 N -0.05786 0.89879 -0.11781
 N81 N -0.08997 0.85586 -0.14551
 N82 N -0.05686 0.94918 -0.18071
 N83 N -0.08866 0.94227 -0.25190
 N84 N 0.04050 0.89034 -0.11947
 N85 N 0.07568 0.84886 -0.13790
 Mn86 Mn -0.00452 1.01547 -0.17615
 C87 C 0.09834 0.87796 -0.21649
 C88 C -0.10925 0.88425 -0.22853
 N89 N -0.05776 0.93592 0.17106
 N90 N -0.09109 0.92644 0.23825
 N91 N 0.03965 0.88110 0.09997
 N92 N 0.07221 0.83509 0.11395
 N93 N 0.04060 0.92465 0.17298
 N94 N 0.07427 0.91032 0.23746
 N95 N -0.05853 0.88993 0.10137
 N96 N -0.09216 0.84694 0.12097
 Mn97 Mn -0.00515 1.00074 0.17898
 Mn98 Mn -0.00900 0.88907 -0.00910
 Cl99 Cl -0.00403 1.00766 0.00133
 C100 C -0.11237 0.87117 0.20610
 C101 C 0.09379 0.85462 0.19958
 N102 N 0.54255 0.43468 -0.17660
 N103 N 0.57710 0.42261 -0.24044
 N104 N 0.44153 0.39633 -0.10804
 N105 N 0.40845 0.35376 -0.13256
 N106 N 0.44384 0.44403 -0.17546
 N107 N 0.41168 0.43648 -0.24543
 N108 N 0.53913 0.38647 -0.11037
 N109 N 0.57078 0.34008 -0.12765
 C110 C 0.59442 0.36360 -0.20820
 C111 C 0.38986 0.38029 -0.21793
 N112 N 0.44852 0.43997 0.18267
 N113 N 0.41470 0.43569 0.24992
 N114 N 0.54191 0.38352 0.10531
 N115 N 0.57303 0.33577 0.12003
 N116 N 0.54703 0.43050 0.17219
 N117 N 0.58205 0.41640 0.23363
 N118 N 0.44396 0.39465 0.11289
 N119 N 0.40745 0.35687 0.13263
 Mn120 Mn 0.49124 0.38949 0.00004
 C121 C 0.38948 0.38389 0.21802
 C122 C 0.59816 0.35745 0.19948
 N123 N 0.44881 0.58523 -0.17201
 N124 N 0.41546 0.59880 -0.23781
 N125 N 0.54804 0.62485 -0.10624
 N126 N 0.58283 0.66611 -0.12318
 N127 N 0.54783 0.57772 -0.17399
 N128 N 0.58283 0.58520 -0.23821
 N129 N 0.45000 0.63056 -0.10151
 N130 N 0.41827 0.67711 -0.11889
 Mn131 Mn 0.49600 0.51044 -0.17568
 C132 C 0.39655 0.65595 -0.20329
 C133 C 0.60448 0.64034 -0.20506
 N134 N 0.55221 0.57289 0.17503
 N135 N 0.58858 0.57897 0.23542
 N136 N 0.45210 0.62717 0.11819
 N137 N 0.41552 0.66654 0.13458
 N138 N 0.45365 0.57973 0.18605
 N139 N 0.41800 0.58441 0.24863
 N140 N 0.55060 0.62180 0.10974
 N141 N 0.58559 0.66286 0.12426
 Mn142 Mn 0.50072 0.50576 0.17993
 Mn143 Mn 0.49991 0.62696 0.00513
 Cl144 Cl 0.49684 0.50815 0.00215
 C145 C 0.60919 0.63506 0.20209
 C146 C 0.39487 0.63889 0.21686
 C147 C 0.34350 0.29434 0.29047
 C148 C 0.34944 0.35898 0.27517
 H149 H 0.36671 0.25945 0.25311
 H150 H 0.32908 0.39478 0.31764
 C151 C -0.14974 0.77772 0.29297
 C152 C -0.15104 0.84100 0.26260
 H153 H -0.12142 0.74596 0.26718
 H154 H -0.17694 0.87466 0.29377
 C155 C 0.67986 0.63078 0.30522
 C156 C 0.64906 0.66624 0.25157
 H157 H 0.67825 0.57727 0.30500
 H158 H 0.65208 0.71950 0.24656
 C159 C 0.16334 1.19257 0.29243
 C160 C 0.15489 1.13046 0.26472
 H161 H 0.13905 1.23134 0.26957
 H162 H 0.17613 1.09014 0.29418
 C163 C 0.66512 0.35591 -0.31153
 C164 C 0.63135 0.32604 -0.25937
 H165 H 0.66768 0.40934 -0.31093
 H166 H 0.63041 0.27260 -0.25437
 C167 C 0.14947 0.79218 -0.29230
 C168 C 0.14170 0.85486 -0.26496
 H169 H 0.12463 0.75422 -0.27163
 H170 H 0.16447 0.89325 -0.29355
 C171 C 0.32950 0.66351 -0.31708
 C172 C 0.36014 0.69376 -0.25688
 H173 H 0.32917 0.60991 -0.31907
 H174 H 0.35916 0.74694 -0.24758
 C175 C -0.17254 1.17336 -0.29247
 C176 C -0.13884 1.20326 -0.24043
 H177 H -0.17536 1.11998 -0.28914
 H178 H -0.13713 1.25668 -0.23768
 C179 C 0.67591 0.63614 -0.30741
 C180 C 0.64413 0.67185 -0.25685
 H181 H 0.67463 0.58263 -0.30390
 H182 H 0.64678 0.72519 -0.25427
 C183 C 0.16814 1.14653 -0.32237
 C184 C 0.14138 1.17950 -0.25695
 H185 H 0.16394 1.09358 -0.33024
 H186 H 0.14711 1.23152 -0.24305
 C187 C 0.34597 0.28863 -0.29656
 C188 C 0.35120 0.35313 -0.27725
 H189 H 0.36991 0.25259 -0.26409
 H190 H 0.32965 0.38907 -0.31696
 C191 C -0.15086 0.78850 -0.29722
 C192 C -0.14517 0.85400 -0.29224
 H193 H -0.12894 0.75584 -0.25224
 H194 H -0.16447 0.88630 -0.34297
 C195 C 0.34231 0.72217 0.29279
 C196 C 0.35083 0.65998 0.26438
 H197 H 0.36673 0.76081 0.27269
 H198 H 0.32869 0.62075 0.29269
 C199 C -0.17132 1.16472 0.31965
 C200 C -0.13342 1.19168 0.27772
 H201 H -0.17846 1.11283 0.30701
 H202 H -0.12740 1.24439 0.28255
 C203 C 0.66931 0.34818 0.30015
 C204 C 0.63500 0.31849 0.24978
 H205 H 0.67263 0.40147 0.29570
 H206 H 0.63280 0.26508 0.24845
 C207 C 0.15945 0.84796 0.31637
 C208 C 0.13178 0.81787 0.24982
 H209 H 0.15634 0.90092 0.32698
 H210 H 0.13611 0.76567 0.23419
   
