data_POSCAR
  _audit_creation_date              2014-09-24
  _audit_creation_method            'ToBaCCo'
  _symmetry_space_group_name_H-M    'P1'
  _symmetry_Int_Tables_number       1
  _symmetry_cell_setting            triclinic
  loop_
  _symmetry_equiv_pos_as_xyz
 x,y,z
_cell_length_a 40.6916
_cell_length_b 40.6329
_cell_length_c 13.4559
_cell_angle_alpha 90.044600
_cell_angle_beta 89.972500
_cell_angle_gamma 119.960500
loop_
  _atom_site_label
  _atom_site_type_symbol
  _atom_site_fract_x
  _atom_site_fract_y
  _atom_site_fract_z
C1 C 0.15362 0.48461 0.49971
 C2 C 0.17014 0.48324 0.40879
 C3 C 0.20426 0.48226 0.41127
 C4 C 0.22453 0.48742 0.50043
 C5 C 0.20904 0.49295 0.58831
 C6 C 0.17309 0.49008 0.59023
 C7 C 0.26184 0.48763 0.50204
 C8 C 0.27741 0.48344 0.59209
 C9 C 0.31295 0.48579 0.59466
 C10 C 0.33199 0.48888 0.50566
 C11 C 0.31718 0.49230 0.41508
 C12 C 0.28292 0.49282 0.41400
 H13 H 0.12713 0.48470 0.49949
 H14 H 0.21430 0.47648 0.34311
 H15 H 0.22465 0.49878 0.65645
 H16 H 0.26241 0.47817 0.66157
 H17 H 0.35956 0.49095 0.50732
 H18 H 0.27325 0.49753 0.34376
 C19 C 0.51216 -0.33316 0.49696
 C20 C 0.51457 -0.31486 0.40640
 C21 C 0.51577 -0.27964 0.40872
 C22 C 0.50994 -0.26478 0.49759
 C23 C 0.50362 -0.28608 0.58533
 C24 C 0.50610 -0.31943 0.58703
 C25 C 0.50971 -0.22770 0.49864
 C26 C 0.51432 -0.20751 0.58808
 C27 C 0.51205 -0.17417 0.59009
 C28 C 0.50874 -0.15854 0.50043
 C29 C 0.50487 -0.17742 0.41024
 C30 C 0.50411 -0.21233 0.41040
 H31 H 0.51162 -0.35997 0.49653
 H32 H 0.52215 -0.26360 0.34079
 H33 H 0.49735 -0.27640 0.65320
 H34 H 0.51987 -0.21713 0.65742
 H35 H 0.50703 -0.13280 0.50125
 H36 H 0.49903 -0.22723 0.34079
 C37 C 1.32939 0.84260 0.49384
 C38 C 1.31420 0.82302 0.40405
 C39 C 1.28063 0.78732 0.40806
 C40 C 1.26037 0.77248 0.49776
 C41 C 1.27641 0.79343 0.58547
 C42 C 1.31163 0.82697 0.58482
 C43 C 1.22317 0.73523 0.49994
 C44 C 1.20816 0.71490 0.58950
 C45 C 1.17269 0.68099 0.59284
 C46 C 1.15346 0.66576 0.50264
 C47 C 1.16918 0.68380 0.41201
 C48 C 1.20246 0.71919 0.41200
 H49 H 1.35645 0.86866 0.49423
 H50 H 1.27009 0.77141 0.34048
 H51 H 1.26200 0.78419 0.65584
 H52 H 1.22377 0.72562 0.65741
 H53 H 1.12762 0.63850 0.50162
 H54 H 1.21167 0.73372 0.34176
 C55 C 0.84219 0.50905 0.49915
 C56 C 0.82642 0.51171 0.40937
 C57 C 0.79313 0.51391 0.41034
 C58 C 0.77313 0.51006 0.49958
 C59 C 0.78883 0.50524 0.58864
 C60 C 0.82368 0.50588 0.58912
 C61 C 0.73589 0.51003 0.49928
 C62 C 0.71978 0.51406 0.58826
 C63 C 0.68423 0.51211 0.58986
 C64 C 0.66645 0.51033 0.49869
 C65 C 0.68178 0.50660 0.40892
 C66 C 0.71556 0.50526 0.41028
 H67 H 0.86774 0.50706 0.49860
 H68 H 0.78346 0.51867 0.34017
 H69 H 0.77433 0.50071 0.65858
 H70 H 0.73514 0.51977 0.65706
 H71 H 0.63931 0.50915 0.49715
 H72 H 0.72554 0.50049 0.34066
 C73 C 0.48558 0.33031 0.50337
 C74 C 0.49022 0.31578 0.41313
 C75 C 0.49189 0.28212 0.41325
 C76 C 0.48661 0.26120 0.50124
 C77 C 0.48144 0.27632 0.59064
 C78 C 0.48306 0.31176 0.59380
 C79 C 0.48704 0.22422 0.50020
 C80 C 0.49354 0.20937 0.58822
 C81 C 0.49196 0.17391 0.58978
 C82 C 0.48671 0.15449 0.49954
 C83 C 0.48346 0.17007 0.40990
 C84 C 0.48177 0.20368 0.41125
 H85 H 0.48652 0.35737 0.50292
 H86 H 0.49729 0.27253 0.34372
 H87 H 0.47502 0.26017 0.65838
 H88 H 0.49945 0.22517 0.65627
 H89 H 0.48811 0.12863 0.49748
 H90 H 0.47631 0.21331 0.34180
 C91 C 0.66545 0.15408 0.50584
 C92 C 0.68054 0.17218 0.41531
 C93 C 0.71486 0.20695 0.41451
 C94 C 0.73557 0.22309 0.50295
 C95 C 0.71971 0.20342 0.59288
 C96 C 0.68421 0.17015 0.59504
 C97 C 0.77274 0.26039 0.50190
 C98 C 0.78831 0.28126 0.59040
 C99 C 0.82370 0.31511 0.59183
 C100 C 0.84257 0.32965 0.50129
 C101 C 0.82643 0.31135 0.41144
 C102 C 0.79274 0.27617 0.41256
 H103 H 0.63787 0.12859 0.50728
 H104 H 0.72477 0.22106 0.34410
 H105 H 0.73439 0.21323 0.66271
 H106 H 0.77319 0.27112 0.65911
 H107 H 0.86844 0.35684 0.49936
 H108 H 0.78272 0.26167 0.34253
 O109 O 0.94555 0.41396 0.18427
 O110 O 0.90393 0.42233 0.08715
 C111 C 0.91155 0.40509 0.15664
 O112 O 1.05148 0.58357 0.17686
 O113 O 1.09340 0.57359 0.08514
 C114 C 1.08553 0.59197 0.15110
 O115 O 0.94543 0.52814 0.18329
 O116 O 0.90390 0.47787 0.08678
 C117 C 0.91148 0.50290 0.15574
 O118 O 1.05174 0.46496 0.17815
 O119 O 1.09360 0.51628 0.08461
 C120 C 1.08579 0.49030 0.15140
 Zr121 Zr 0.99864 0.45583 0.12680
 O122 O 1.00223 0.45630 0.28376
 O123 O 0.99537 0.40219 0.12133
 Zr124 Zr 0.99852 0.53918 0.12658
 O125 O 1.00222 0.54201 0.28359
 O126 O 0.99519 0.58952 0.12221
 O127 O 0.96483 0.48061 0.14653
 O128 O 1.03133 0.51393 0.14515
 O129 O 1.05211 0.46595 -0.17803
 O130 O 1.09340 0.51685 -0.08249
 C131 C 1.08605 0.49163 -0.15087
 O132 O 0.94492 0.52688 -0.18204
 O133 O 0.90369 0.47692 -0.08419
 C134 C 0.91096 0.50126 -0.15458
 O135 O 1.05205 0.58314 -0.17605
 O136 O 1.09348 0.57356 -0.08112
 C137 C 1.08604 0.59158 -0.14886
 O138 O 0.94524 0.41542 -0.18466
 O139 O 0.90385 0.42282 -0.08379
 C140 C 0.91125 0.40638 -0.15560
 Zr141 Zr 0.99875 0.45572 -0.12375
 O142 O 0.99942 0.45062 -0.28003
 O143 O 0.99780 0.40361 -0.10619
 Zr144 Zr 0.99865 0.53921 -0.12418
 O145 O 1.00140 0.54287 -0.28118
 O146 O 0.99733 0.59036 -0.11188
 Zr147 Zr 0.94231 0.46927 0.00154
 Zr148 Zr 1.05500 0.52573 0.00165
 O149 O 1.03140 0.51389 -0.14202
 O150 O 0.96517 0.48067 -0.14342
 O151 O 1.03278 0.46647 0.00146
 O152 O 0.96548 0.52858 0.00097
 O153 O 0.96551 0.43316 0.00124
 O154 O 1.03259 0.56257 0.00120
 H155 H 1.04820 0.52243 0.20402
 H156 H 0.94819 0.53916 0.00056
 H157 H 1.04810 0.52246 -0.20120
 H158 H 0.94811 0.40530 0.00071
 H159 H 1.01550 0.60750 0.07726
 H160 H 0.99683 0.59856 -0.18091
 H161 H 0.98326 0.51734 -0.30730
 H162 H 1.00469 0.47523 -0.30807
 H163 H 0.99662 0.39379 -0.17427
 H164 H 1.01706 0.40515 0.08115
 H165 H 0.98304 0.46220 0.30997
 H166 H 0.98202 0.51743 0.30979
 O167 O 0.41799 0.47112 0.18795
 O168 O 0.42637 0.52082 0.08951
 C169 C 0.40968 0.49682 0.16066
 O170 O 0.58590 0.53069 0.17109
 O171 O 0.57493 0.47893 0.07744
 C172 C 0.59352 0.50448 0.14447
 O173 O 0.53144 0.58281 0.18040
 O174 O 0.48157 0.57534 0.08419
 C175 C 0.50675 0.59234 0.15312
 O176 O 0.46813 0.41405 0.17873
 O177 O 0.51833 0.42296 0.08137
 C178 C 0.49351 0.40545 0.15070
 Zr179 Zr 0.45858 0.45804 0.12749
 O180 O 0.45902 0.45472 0.28442
 O181 O 0.40587 0.40713 0.11850
 Zr182 Zr 0.54243 0.54106 0.12037
 O183 O 0.54906 0.54371 0.27655
 O184 O 0.59260 0.59444 0.10633
 O185 O 0.48418 0.51682 0.14458
 O186 O 0.51671 0.48307 0.14121
 O187 O 0.46390 0.41150 -0.17413
 O188 O 0.51615 0.42132 -0.08464
 C189 C 0.48939 0.40277 -0.14905
 O190 O 0.52641 0.58008 -0.18928
 O191 O 0.47831 0.57310 -0.08650
 C192 C 0.50160 0.58921 -0.15943
 O193 O 0.58280 0.52946 -0.18338
 O194 O 0.57408 0.47874 -0.08812
 C195 C 0.59180 0.50435 -0.15587
 O196 O 0.41387 0.46776 -0.17756
 O197 O 0.42345 0.51850 -0.08140
 C198 C 0.40553 0.49330 -0.14976
 Zr199 Zr 0.45596 0.45635 -0.12314
 O200 O 0.45486 0.45214 -0.28007
 O201 O 0.40229 0.40633 -0.11379
 Zr202 Zr 0.53939 0.53930 -0.13040
 O203 O 0.54164 0.53804 -0.28738
 O204 O 0.58938 0.59319 -0.12907
 Zr205 Zr 0.47134 0.52733 0.00034
 Zr206 Zr 0.52690 0.47009 -0.00309
 O207 O 0.51370 0.48104 -0.14602
 O208 O 0.48078 0.51474 -0.14534
 O209 O 0.46771 0.43362 0.00181
 O210 O 0.53061 0.56296 -0.00450
 O211 O 0.43497 0.46809 0.00374
 O212 O 0.56413 0.52930 -0.00653
 H213 H 0.52534 0.47495 0.20032
 H214 H 0.54116 0.59084 -0.00598
 H215 H 0.52148 0.47206 -0.20516
 H216 H 0.40718 0.45778 0.00606
 H217 H 0.61261 0.58986 0.07948
 H218 H 0.60936 0.59019 -0.09560
 H219 H 0.51608 0.53084 -0.31242
 H220 H 0.45946 0.47670 -0.30713
 H221 H 0.40521 0.38827 -0.07050
 H222 H 0.39775 0.39928 0.18804
 H223 H 0.46664 0.48030 0.31056
 H224 H 0.52352 0.53379 0.30564
 O225 O 0.58243 0.05151 -0.17789
 O226 O 0.57362 0.09295 -0.08077
 C227 C 0.59119 0.08546 -0.14966
 O228 O 0.41343 -0.05423 -0.18280
 O229 O 0.42201 -0.09663 -0.08915
 C230 C 0.40438 -0.08847 -0.15648
 O231 O 0.47085 0.05273 -0.18768
 O232 O 0.51920 0.09342 -0.08491
 C233 C 0.49591 0.08655 -0.15765
 O234 O 0.53153 -0.05489 -0.17456
 O235 O 0.47910 -0.09697 -0.08513
 C236 C 0.50572 -0.08905 -0.14973
 Zr237 Zr 0.54014 -0.00188 -0.12308
 O238 O 0.54259 -0.00449 -0.27984
 O239 O 0.59230 -0.00081 -0.10657
 Zr240 Zr 0.45714 -0.00125 -0.12892
 O241 O 0.45416 -0.00426 -0.28583
 O242 O 0.40753 0.00331 -0.12502
 O243 O 0.51582 0.03220 -0.14444
 O244 O 0.48235 -0.03426 -0.14572
 O245 O 0.52771 -0.05685 0.17735
 O246 O 0.47679 -0.09769 0.08137
 C247 C 0.50188 -0.09070 0.14961
 O248 O 0.46586 0.05032 0.18092
 O249 O 0.51639 0.09233 0.08589
 C250 C 0.49114 0.08447 0.15437
 O251 O 0.41068 -0.05628 0.17261
 O252 O 0.42051 -0.09736 0.07685
 C253 C 0.40233 -0.09018 0.14462
 O254 O 0.57900 0.05044 0.18783
 O255 O 0.57107 0.09222 0.09014
 C256 C 0.58768 0.08459 0.16086
 Zr257 Zr 0.53778 -0.00298 0.12750
 O258 O 0.53590 -0.00749 0.28436
 O259 O 0.59125 0.00005 0.12570
 Zr260 Zr 0.45454 -0.00270 0.12173
 O261 O 0.44878 -0.00664 0.27817
 O262 O 0.40460 0.00102 0.10967
 Zr263 Zr 0.52573 0.05419 0.00128
 Zr264 Zr 0.46905 -0.05865 -0.00310
 O265 O 0.47961 -0.03561 0.14147
 O266 O 0.51286 0.03079 0.14549
 O267 O 0.52815 -0.03654 0.00130
 O268 O 0.46654 0.03120 -0.00283
 O269 O 0.56156 0.03071 0.00370
 O270 O 0.43233 -0.03605 -0.00532
 H271 H 0.47451 -0.05082 -0.20526
 H272 H 0.45629 0.04878 -0.00398
 H273 H 0.47079 -0.05252 0.20028
 H274 H 0.58940 0.04795 0.00580
 H275 H 0.38714 -0.02021 -0.09447
 H276 H 0.38459 -0.02314 0.08077
 H277 H 0.47419 0.01026 0.30654
 H278 H 0.53054 0.01208 0.31063
 H279 H 0.58882 -0.02085 0.08281
 H280 H 0.60166 -0.00033 -0.17484
 H281 H 0.53631 0.01427 -0.30727
 H282 H 0.48013 0.01244 -0.31107
 N283 N 1.15081 0.49922 0.15863
 N284 N 1.17374 0.49573 0.22998
 C285 C 1.15425 0.48502 0.31666
 C286 C 1.11833 0.48057 0.30081
 C287 C 1.11751 0.48977 0.20188
 H288 H 1.09571 0.47258 0.35419
 H289 H 1.15875 0.50799 0.08536
 H290 H 1.20210 0.50376 0.21780
 N291 N 0.49917 0.64925 0.15734
 N292 N 0.50307 0.67626 0.22744
 C293 C 0.51321 0.66742 0.31484
 C294 C 0.51705 0.63545 0.30070
 C295 C 0.50781 0.62504 0.20228
 H296 H 0.52457 0.62065 0.35481
 H297 H 0.49073 0.64832 0.08365
 H298 H 0.49555 0.69694 0.21414
 N299 N 0.35095 -0.15751 0.15483
 N300 N 0.32626 -0.18180 0.22727
 C301 C 0.33266 -0.16167 0.31232
 C302 C 0.36086 -0.12414 0.29432
 C303 C 0.37128 -0.12287 0.19564
 H304 H 0.37297 -0.10062 0.34608
 H305 H 0.35343 -0.16559 0.08280
 H306 H 0.30848 -0.21087 0.21614
 N307 N 0.84407 0.48676 0.16774
 N308 N 0.82191 0.49028 0.23351
 C309 C 0.84276 0.50852 0.31421
 C310 C 0.87998 0.51748 0.29826
 C311 C 0.87944 0.50294 0.20507
 H312 H 0.90372 0.53087 0.34907
 H313 H 0.83483 0.47280 0.09957
 H314 H 0.79265 0.47852 0.22492
 N315 N 0.51644 0.35952 0.17186
 N316 N 0.51590 0.33620 0.24097
 C317 C 0.49520 0.33665 0.31879
 C318 C 0.48162 0.36116 0.29731
 C319 C 0.49581 0.37504 0.20352
 H320 H 0.46501 0.36892 0.34449
 H321 H 0.53161 0.36538 0.10535
 H322 H 0.53087 0.32158 0.23579
 N323 N 0.63496 0.15317 0.17706
 N324 N 0.65965 0.17631 0.24322
 C325 C 0.65914 0.15573 0.32233
 C326 C 0.63317 0.11763 0.30493
 C327 C 0.61843 0.11738 0.21223
 H328 H 0.62515 0.09369 0.35392
 H329 H 0.62910 0.16200 0.10977
 H330 H 0.67528 0.20579 0.23527
 N331 N 0.51290 0.15414 -0.16600
 N332 N 0.51138 0.17857 -0.23604
 C333 C 0.49661 0.15858 -0.32068
 C334 C 0.48782 0.12107 -0.30499
 C335 C 0.49838 0.11965 -0.20811
 H336 H 0.47536 0.09754 -0.35667
 H337 H 0.52370 0.16190 -0.09408
 H338 H 0.52239 0.20756 -0.22381
 N339 N 0.64817 0.49598 -0.16094
 N340 N 0.67491 0.49965 -0.23147
 C341 C 0.66609 0.50994 -0.31872
 C342 C 0.63429 0.51392 -0.30424
 C343 C 0.62412 0.50488 -0.20549
 H344 H 0.61966 0.52166 -0.35828
 H345 H 0.64740 0.48768 -0.08715
 H346 H 0.69558 0.49213 -0.21829
 N347 N 0.84422 0.35503 -0.16297
 N348 N 0.81971 0.32915 -0.23294
 C349 C 0.83938 0.33473 -0.31831
 C350 C 0.87681 0.36362 -0.30311
 C351 C 0.87846 0.37534 -0.20577
 H352 H 0.90007 0.37513 -0.35556
 H353 H 0.83661 0.35797 -0.09076
 H354 H 0.79083 0.31113 -0.22018
 N355 N 0.49020 -0.15641 -0.16396
 N356 N 0.49273 -0.17856 -0.23184
 C357 C 0.50981 -0.15769 -0.31351
 C358 C 0.51908 -0.12036 -0.29581
 C359 C 0.50602 -0.12090 -0.20042
 H360 H 0.53157 -0.09661 -0.34682
 H361 H 0.47699 -0.16577 -0.09497
 H362 H 0.48105 -0.20787 -0.22378
 N363 N 0.35452 0.51003 -0.16244
 N364 N 0.32916 0.50683 -0.22885
 C365 C 0.33185 0.48850 -0.30939
 C366 C 0.35978 0.47912 -0.29256
 C367 C 0.37355 0.49352 -0.19912
 H368 H 0.37017 0.46565 -0.34313
 H369 H 0.35920 0.52407 -0.09438
 H370 H 0.31188 0.51889 -0.22091
 N371 N 1.15304 0.64360 -0.15858
 N372 N 1.17725 0.66869 -0.23048
 C373 C 1.15731 0.66219 -0.31579
 C374 C 1.11994 0.63347 -0.29847
 C375 C 1.11859 0.62286 -0.19990
 H376 H 1.09658 0.62121 -0.35057
 H377 H 1.16101 0.64123 -0.08638
 H378 H 1.20619 0.68684 -0.21886
 N379 N 0.84226 0.47943 -0.17168
 N380 N 0.81921 0.48078 -0.23850
 C381 C 0.83990 0.50108 -0.31720
 C382 C 0.87796 0.51359 -0.29875
 C383 C 0.87811 0.49908 -0.20597
 H384 H 0.90198 0.52973 -0.34726
 H385 H 0.83335 0.46455 -0.10467
 H386 H 0.78972 0.46661 -0.23136
 N387 N 0.49686 0.34574 -0.15491
 N388 N 0.49374 0.31950 -0.22655
 C389 C 0.48419 0.32902 -0.31391
 C390 C 0.48003 0.36071 -0.29835
 C391 C 0.48827 0.37013 -0.19889
 H392 H 0.47299 0.37594 -0.35228
 H393 H 0.50495 0.34618 -0.08106
 H394 H 0.50127 0.29878 -0.21392
 N395 N 0.64229 0.15311 -0.16257
 N396 N 0.66772 0.17519 -0.22893
 C397 C 0.66509 0.15408 -0.30921
 C398 C 0.63709 0.11680 -0.29232
 C399 C 0.62326 0.11754 -0.19905
 H400 H 0.62673 0.09288 -0.34270
 H401 H 0.63757 0.16255 -0.09469
 H402 H 0.68502 0.20455 -0.22113
 N403 N 1.15361 0.50938 -0.16290
 N404 N 1.17797 0.50900 -0.23498
 C405 C 1.15761 0.49369 -0.31888
 C406 C 1.11987 0.48343 -0.30053
 C407 C 1.11873 0.49360 -0.20262
 H408 H 1.09617 0.47075 -0.35155
 H409 H 1.16186 0.52116 -0.09207
 H410 H 1.20719 0.52154 -0.22468
 N411 N 0.48404 0.63932 -0.16940
 N412 N 0.48568 0.66525 -0.23964
 C413 C 0.50135 0.66058 -0.32332
 C414 C 0.51061 0.63224 -0.30671
 C415 C 0.49937 0.61990 -0.21032
 H416 H 0.52368 0.62154 -0.35755
 H417 H 0.47234 0.63572 -0.09843
 H418 H 0.47396 0.68267 -0.22840
 N419 N 0.35311 -0.15581 -0.17186
 N420 N 0.32810 -0.17777 -0.23910
 C421 C 0.33126 -0.15666 -0.31981
 C422 C 0.35935 -0.11939 -0.30223
 C423 C 0.37248 -0.12022 -0.20777
 H424 H 0.37007 -0.09548 -0.35259
 H425 H 0.35736 -0.16539 -0.10369
 H426 H 0.31063 -0.20711 -0.23131
 N427 N 0.47905 -0.15963 0.16904
 N428 N 0.47956 -0.18255 0.23778
 C429 C 0.49999 -0.16153 0.31605
 C430 C 0.51347 -0.12343 0.29535
 C431 C 0.49947 -0.12356 0.20157
 H432 H 0.52989 -0.09918 0.34306
 H433 H 0.46411 -0.16876 0.10219
 H434 H 0.46481 -0.21213 0.23204
 N435 N 0.36313 0.51906 0.17728
 N436 N 0.33854 0.51772 0.24348
 C437 C 0.33875 0.49739 0.32235
 C438 C 0.36438 0.48487 0.30478
 C439 C 0.37927 0.49939 0.21223
 H440 H 0.37203 0.46858 0.35348
 H441 H 0.36914 0.53381 0.11006
 H442 H 0.32314 0.53181 0.23566
 N443 N 1.15298 0.64277 0.16807
 N444 N 1.17472 0.66748 0.23622
 C445 C 1.15329 0.66438 0.31616
 C446 C 1.11607 0.63671 0.29718
 C447 C 1.11722 0.62375 0.20266
 H448 H 1.09194 0.62612 0.34671
 H449 H 1.16278 0.63848 0.10030
 H450 H 1.20410 0.68471 0.22958
 N451 N 0.50694 0.15188 0.16697
 N452 N 0.50365 0.17412 0.23305
 C453 C 0.48582 0.15336 0.31423
 C454 C 0.47685 0.11604 0.29807
 C455 C 0.49098 0.11648 0.20429
 H456 H 0.46384 0.09234 0.34914
 H457 H 0.52071 0.16113 0.09862
 H458 H 0.51538 0.20341 0.22438
 N459 N 0.63900 0.48097 0.16637
 N460 N 0.66198 0.48125 0.23610
 C461 C 0.66157 0.50211 0.31368
 C462 C 0.63751 0.51611 0.29134
 C463 C 0.62380 0.50199 0.19733
 H464 H 0.62977 0.53281 0.33832
 H465 H 0.63306 0.46566 0.10005
 H466 H 0.67627 0.46594 0.23168
 N467 N 0.84396 0.35415 0.17002
 N468 N 0.82183 0.32851 0.23587
 C469 C 0.84278 0.33084 0.31606
 C470 C 0.88009 0.35893 0.29952
 C471 C 0.87947 0.37310 0.20656
 H472 H 0.90395 0.36908 0.34982
 H473 H 0.83459 0.35907 0.10236
 H474 H 0.79252 0.31126 0.22775
   
