data_POSCAR
  _audit_creation_date              2014-09-24
  _audit_creation_method            'ToBaCCo'
  _symmetry_space_group_name_H-M    'P1'
  _symmetry_Int_Tables_number       1
  _symmetry_cell_setting            triclinic
  loop_
  _symmetry_equiv_pos_as_xyz
 x,y,z
_cell_length_a 27.5080
_cell_length_b 26.5989
_cell_length_c 26.9710
_cell_angle_alpha 89.990000
_cell_angle_beta 90.018200
_cell_angle_gamma 90.155800
loop_
  _atom_site_label
  _atom_site_type_symbol
  _atom_site_fract_x
  _atom_site_fract_y
  _atom_site_fract_z
O1 O 0.21888 1.03011 0.44281
 O2 O 0.23625 0.95374 0.55091
 O3 O 0.24987 1.05766 0.53811
 O4 O 0.24593 0.94197 0.46244
 O5 O 0.32603 0.94368 0.45663
 O6 O 0.32953 1.05710 0.53393
 O7 O 0.31644 0.95571 0.54644
 O8 O 0.29840 1.03812 0.43575
 Cu9 Cu 0.23143 0.99911 0.50144
 Cu10 Cu 0.32482 1.00203 0.49198
 C11 C 0.25518 1.04618 0.41911
 C12 C 0.27713 0.93683 0.56415
 C13 C 0.29095 1.07740 0.54941
 C14 C 0.28585 0.92253 0.44758
 O15 O 0.70278 -0.04359 0.43486
 O16 O 0.68161 0.04743 0.53433
 O17 O 0.69758 0.04635 0.44304
 O18 O 0.67493 -0.05700 0.53259
 O19 O 0.75398 -0.06110 0.54261
 O20 O 0.77710 0.04286 0.45679
 O21 O 0.76087 0.04477 0.54679
 O22 O 0.78229 -0.04278 0.44730
 Cu23 Cu 0.68073 -0.00385 0.48703
 Cu24 Cu 0.77545 -0.00675 0.50451
 C25 C 0.74593 -0.05396 0.42082
 C26 C 0.71979 0.06480 0.55449
 C27 C 0.74088 0.05966 0.43292
 C28 C 0.71158 -0.07793 0.55208
 O29 O 0.28205 0.47264 0.94032
 O30 O 0.27808 0.52485 1.06179
 O31 O 0.25134 0.43198 1.03024
 O32 O 0.26049 0.55681 0.97386
 O33 O 0.18019 0.55792 0.96934
 O34 O 0.17146 0.43661 1.02876
 O35 O 0.19791 0.52915 1.06060
 O36 O 0.20204 0.46774 0.93709
 Cu37 Cu 0.27449 0.49357 1.00314
 Cu38 Cu 0.18121 0.49717 0.99892
 C39 C 0.24400 0.46129 0.91702
 C40 C 0.23891 0.53901 1.08122
 C41 C 0.20949 0.41363 1.04116
 C42 C 0.22087 0.57762 0.95989
 O43 O 0.46198 0.23348 1.04895
 O44 O 0.54337 0.24269 0.94259
 O45 O 0.55748 0.22558 1.03777
 O46 O 0.45234 0.23412 0.95508
 O47 O 0.45317 0.31734 0.95727
 O48 O 0.55940 0.30827 1.04300
 O49 O 0.54277 0.32568 0.94534
 O50 O 0.45871 0.31647 1.05059
 Cu51 Cu 0.50454 0.22587 0.99621
 Cu52 Cu 0.50542 0.32497 1.00202
 C53 C 0.44387 0.27394 1.06556
 C54 C 0.55574 0.28513 0.92479
 C55 C 0.57710 0.26532 1.05407
 C56 C 0.43534 0.27612 0.94135
 O57 O 0.46269 0.66983 -0.05397
 O58 O 0.53874 0.66549 0.05607
 O59 O 0.45014 0.68351 0.04348
 O60 O 0.55944 0.68917 -0.03787
 O61 O 0.56080 0.77164 -0.02860
 O62 O 0.45232 0.76667 0.04573
 O63 O 0.53885 0.74863 0.05923
 O64 O 0.46571 0.75259 -0.05342
 Cu65 Cu 0.50324 0.66942 -0.00035
 Cu66 Cu 0.50312 0.76703 0.00334
 C67 C 0.45059 0.71152 -0.07242
 C68 C 0.55026 0.70603 0.07733
 C69 C 0.43479 0.72545 0.06075
 C70 C 0.57954 0.73205 -0.04571
 O71 O 1.05494 0.46631 0.23002
 O72 O 0.94186 0.53915 0.22421
 O73 O 1.02702 0.56237 0.20703
 O74 O 0.95398 0.45268 0.24013
 O75 O 0.95632 0.46749 0.32047
 O76 O 1.03398 0.57691 0.28737
 O77 O 0.94862 0.55425 0.30482
 O78 O 1.06042 0.47823 0.31031
 Cu79 Cu 0.99727 0.50090 0.21798
 Cu80 Cu 1.00446 0.51844 0.31363
 C81 C 1.07759 0.46001 0.27057
 C82 C 0.92561 0.55776 0.26422
 C83 C 1.04088 0.59036 0.24230
 C84 C 0.93632 0.44612 0.28340
 O85 O -0.05559 0.46464 0.68794
 O86 O 0.05621 0.53558 0.69556
 O87 O 0.03346 0.43922 0.71556
 O88 O -0.03625 0.55956 0.71410
 O89 O -0.03781 0.55689 0.79582
 O90 O 0.02948 0.43956 0.79724
 O91 O 0.05409 0.53510 0.77736
 O92 O -0.05968 0.46224 0.76962
 Cu93 Cu 0.00001 0.50002 0.69668
 Cu94 Cu -0.00388 0.49837 0.79185
 C95 C -0.07630 0.44982 0.72691
 C96 C 0.07405 0.54872 0.73659
 C97 C 0.04295 0.41865 0.75759
 C98 C -0.04932 0.57850 0.75586
 O99 O 0.43748 0.97126 0.27482
 O100 O 0.54390 1.05721 0.29135
 O101 O 0.45850 1.06500 0.30093
 O102 O 0.53689 0.95488 0.29043
 O103 O 0.53770 0.95886 0.20902
 O104 O 0.45953 1.07206 0.21921
 O105 O 0.54526 1.06394 0.20974
 O106 O 0.43988 0.98081 0.19379
 Cu107 Cu 0.49393 1.00768 0.29697
 Cu108 Cu 0.49746 1.01658 0.19988
 C109 C 0.41918 0.96287 0.23173
 C110 C 0.55849 1.07961 0.25210
 C111 C 0.44842 1.08925 0.26205
 C112 C 0.55101 0.93759 0.24922
 O113 O 1.04351 0.26880 0.54871
 O114 O 0.96094 0.25816 0.44463
 O115 O 0.95165 0.26558 0.54699
 O116 O 1.05076 0.27811 0.45937
 O117 O 1.05726 0.19504 0.45550
 O118 O 0.95606 0.18288 0.54585
 O119 O 0.97054 0.17597 0.44170
 O120 O 1.05395 0.18625 0.54594
 Cu121 Cu 0.99780 0.27527 0.49945
 Cu122 Cu 1.00714 0.17624 0.49891
 C123 C 1.06488 0.22919 0.56287
 C124 C 0.95517 0.21634 0.42262
 C125 C 0.93867 0.22330 0.56393
 C126 C 1.07102 0.23898 0.44269
 O127 O -0.04542 0.72742 0.55298
 O128 O 0.04867 0.73016 0.45784
 O129 O 0.04418 0.72897 0.55810
 O130 O -0.04980 0.71896 0.46158
 O131 O -0.05213 0.80174 0.45560
 O132 O 0.04305 0.81191 0.55456
 O133 O 0.04548 0.81296 0.45578
 O134 O -0.05031 0.81051 0.55001
 Cu135 Cu 0.00188 0.71853 0.50591
 Cu136 Cu -0.00304 0.81769 0.50276
 C137 C -0.06406 0.76851 0.56708
 C138 C 0.06339 0.77191 0.44077
 C139 C 0.05821 0.77139 0.57443
 C140 C -0.06896 0.75849 0.44394
 O141 O 0.82519 0.46273 1.03823
 O142 O 0.79458 0.53266 0.92548
 O143 O 0.81976 0.56841 1.02093
 O144 O 0.82184 0.44873 0.94992
 O145 O 0.74293 0.43954 0.96438
 O146 O 0.74075 0.56161 1.02933
 O147 O 0.71596 0.52138 0.93696
 O148 O 0.74606 0.45875 1.05187
 Cu149 Cu 0.82273 0.50800 0.98460
 Cu150 Cu 0.72894 0.49833 0.99962
 C151 C 0.78881 0.44330 1.06024
 C152 C 0.75074 0.53489 0.90943
 C153 C 0.78005 0.58595 1.03729
 C154 C 0.78258 0.42407 0.94523
 O155 O 0.44418 1.04658 0.82307
 O156 O 0.54477 0.95430 0.81961
 O157 O 0.54384 1.05089 0.82029
 O158 O 0.44925 0.95314 0.82611
 O159 O 0.44749 0.95346 0.74404
 O160 O 0.54136 1.04805 0.73844
 O161 O 0.54133 0.95358 0.73766
 O162 O 0.44440 1.04598 0.74128
 Cu163 Cu 0.49643 1.00215 0.83088
 Cu164 Cu 0.49355 1.00078 0.73206
 C165 C 0.42483 1.05873 0.78196
 C166 C 0.56049 0.93922 0.77784
 C167 C 0.56074 1.06331 0.77822
 C168 C 0.43073 0.93912 0.78539
 C169 C 0.25167 0.21575 0.28506
 C170 C 0.21820 0.25870 0.29263
 C171 C 0.21703 0.29869 0.25425
 C172 C 0.24174 0.28882 0.20634
 C173 C 0.28485 0.25556 0.20593
 C174 C 0.29246 0.22329 0.25018
 C175 C 0.74058 0.78360 0.28680
 C176 C 0.77516 0.74090 0.29513
 C177 C 0.77477 0.70081 0.25681
 C178 C 0.74406 0.70600 0.21279
 C179 C 0.69858 0.73365 0.21939
 C180 C 0.69649 0.77603 0.25480
 C181 C 0.74087 0.21285 0.70730
 C182 C 0.78381 0.24606 0.70705
 C183 C 0.78528 0.28852 0.74168
 C184 C 0.75256 0.28846 0.78459
 C185 C 0.70895 0.25712 0.78363
 C186 C 0.70747 0.21407 0.74980
 C187 C 0.25556 0.78642 0.71774
 C188 C 0.28949 0.78521 0.75996
 C189 C 0.28995 0.74207 0.79360
 C190 C 0.24687 0.71022 0.79555
 C191 C 0.21298 0.70988 0.75352
 C192 C 0.21336 0.75220 0.71818
 C193 C 0.21826 0.25231 0.70495
 C194 C 0.26121 0.21853 0.70689
 C195 C 0.28597 0.21251 0.75559
 C196 C 0.28441 0.25453 0.79214
 C197 C 0.24908 0.29568 0.78271
 C198 C 0.20874 0.28630 0.74772
 C199 C 0.77968 0.74974 0.70788
 C200 C 0.73546 0.78262 0.71099
 C201 C 0.71013 0.78775 0.75996
 C202 C 0.71717 0.74732 0.79755
 C203 C 0.74943 0.70497 0.78470
 C204 C 0.78900 0.71364 0.74910
 C205 C 0.20401 0.76306 0.28016
 C206 C 0.25042 0.79160 0.28423
 C207 C 0.28411 0.79307 0.24167
 C208 C 0.28672 0.74688 0.21100
 C209 C 0.24554 0.71000 0.21288
 C210 C 0.20003 0.72485 0.23994
 C211 C 0.80933 0.23486 0.27288
 C212 C 0.80509 0.28235 0.24566
 C213 C 0.77476 0.28244 0.20060
 C214 C 0.73205 0.24786 0.19748
 C215 C 0.72433 0.21233 0.24002
 C216 C 0.76696 0.20023 0.27293
 C217 C 0.26774 0.11031 0.30232
 C218 C 0.29105 0.10783 0.35509
 C219 C 0.24697 0.08111 0.37540
 C220 C 0.22347 0.08203 0.32328
 C221 C 0.22272 0.13099 0.38685
 C222 C 0.26811 0.15895 0.36773
 C223 C 0.24591 0.16299 0.31491
 C224 C 0.20015 0.13357 0.33368
 H225 H 0.27846 0.09565 0.26568
 H226 H 0.32825 0.09612 0.36600
 H227 H 0.20505 0.04995 0.30474
 H228 H 0.20420 0.13768 0.42284
 H229 H 0.28730 0.18867 0.38902
 H230 H 0.16265 0.13706 0.31934
 C231 C 0.72515 0.84047 0.36530
 C232 C 0.77193 0.86354 0.38679
 C233 C 0.75280 0.91515 0.37554
 C234 C 0.70740 0.89369 0.35245
 C235 C 0.77819 0.91380 0.32472
 C236 C 0.79652 0.86042 0.33484
 C237 C 0.74943 0.83585 0.31382
 C238 C 0.73283 0.89016 0.30092
 H239 H 0.70297 0.81126 0.38421
 H240 H 0.78830 0.85607 0.42375
 H241 H 0.67143 0.91056 0.36077
 H242 H 0.80011 0.94464 0.30821
 H243 H 0.83364 0.85640 0.31999
 H244 H 0.72692 0.90531 0.26331
 C245 C 0.74448 0.18411 0.60598
 C246 C 0.76627 0.13034 0.60635
 C247 C 0.71796 0.10848 0.58927
 C248 C 0.69621 0.16147 0.58754
 C249 C 0.70139 0.10200 0.64232
 C250 C 0.75039 0.12355 0.66061
 C251 C 0.72929 0.17751 0.66121
 C252 C 0.67980 0.15616 0.64192
 H253 H 0.75526 0.21806 0.58538
 H254 H 0.80151 0.11754 0.59095
 H255 H 0.67356 0.17688 0.55707
 H256 H 0.68460 0.06635 0.65524
 H257 H 0.77339 0.10581 0.68950
 H258 H 0.64232 0.16930 0.64757
 C259 C 0.24383 0.87689 0.67106
 C260 C 0.29276 0.89942 0.65351
 C261 C 0.27708 0.89348 0.60020
 C262 C 0.22862 0.87068 0.61642
 C263 C 0.29917 0.84058 0.59822
 C264 C 0.31500 0.84543 0.65272
 C265 C 0.26571 0.82307 0.67153
 C266 C 0.25100 0.81705 0.61597
 H267 H 0.22018 0.89416 0.69966
 H268 H 0.30830 0.93538 0.66717
 H269 H 0.19317 0.88267 0.60080
 H270 H 0.32231 0.82568 0.56789
 H271 H 0.35265 0.83261 0.65768
 H272 H 0.24052 0.78308 0.59518
 C273 C 0.32420 0.27508 0.10533
 C274 C 0.36678 0.31197 0.11475
 C275 C 0.40230 0.27058 0.10083
 C276 C 0.36050 0.23450 0.09152
 C277 C 0.40525 0.25261 0.15368
 C278 C 0.36881 0.29440 0.16946
 C279 C 0.32479 0.25793 0.16130
 C280 C 0.36114 0.21648 0.14487
 H281 H 0.30314 0.27318 0.07064
 H282 H 0.36866 0.35172 0.10234
 H283 H 0.35761 0.20915 0.05880
 H284 H 0.44148 0.24457 0.16996
 H285 H 0.37386 0.32012 0.20147
 H286 H 0.35518 0.17553 0.14330
 C287 C 0.34477 0.75087 0.87889
 C288 C 0.36164 0.69968 0.89864
 C289 C 0.41379 0.71346 0.88667
 C290 C 0.39790 0.76394 0.86680
 C291 C 0.40856 0.69010 0.83490
 C292 C 0.35506 0.67666 0.84590
 C293 C 0.33721 0.72873 0.82602
 C294 C 0.39150 0.74102 0.81402
 H295 H 0.32161 0.77604 0.90134
 H296 H 0.35199 0.68576 0.93612
 H297 H 0.41566 0.79909 0.87956
 H298 H 0.43527 0.66484 0.81681
 H299 H 0.34561 0.63788 0.83554
 H300 H 0.40924 0.75151 0.77893
 C301 C 0.64636 0.67165 0.15308
 C302 C 0.59183 0.66978 0.16426
 C303 C 0.58237 0.70529 0.12087
 C304 C 0.63593 0.70700 0.10866
 C305 C 0.58724 0.75036 0.15469
 C306 C 0.59873 0.71453 0.19936
 C307 C 0.65360 0.71861 0.18674
 C308 C 0.64178 0.75333 0.14239
 H309 H 0.65775 0.63241 0.15539
 H310 H 0.57048 0.63538 0.17290
 H311 H 0.64950 0.70440 0.06996
 H312 H 0.55991 0.78086 0.15240
 H313 H 0.58408 0.71039 0.23751
 H314 H 0.66142 0.78837 0.13226
 C315 C 0.60845 0.25947 0.80776
 C316 C 0.60461 0.23550 0.86023
 C317 C 0.59011 0.28564 0.88209
 C318 C 0.59266 0.30993 0.83057
 C319 C 0.64275 0.29883 0.89163
 C320 C 0.65828 0.24797 0.86996
 C321 C 0.66322 0.27114 0.81737
 C322 C 0.64669 0.32292 0.83907
 H323 H 0.58934 0.25007 0.77309
 H324 H 0.58717 0.20004 0.87263
 H325 H 0.56520 0.33575 0.81452
 H326 H 0.65438 0.31212 0.92878
 H327 H 0.68302 0.22202 0.88971
 H328 H 0.65510 0.36194 0.82869
 C329 C 0.17854 0.38274 0.30958
 C330 C 0.17751 0.43188 0.27983
 C331 C 0.12235 0.42643 0.27095
 C332 C 0.12209 0.37849 0.30155
 C333 C 0.13267 0.39662 0.22408
 C334 C 0.18849 0.40053 0.23334
 C335 C 0.18680 0.34987 0.26248
 C336 C 0.13104 0.34722 0.25434
 H337 H 0.20307 0.38305 0.34229
 H338 H 0.19677 0.46702 0.29045
 H339 H 0.09346 0.37230 0.32984
 H340 H 0.11352 0.40431 0.18864
 H341 H 0.22020 0.41704 0.21439
 H342 H 0.10985 0.31319 0.24412
 C343 C 0.87155 0.33802 0.75316
 C344 C 0.89168 0.35944 0.70419
 C345 C 0.88300 0.41249 0.72342
 C346 C 0.86286 0.39197 0.77146
 C347 C 0.83201 0.41235 0.70038
 C348 C 0.83944 0.35801 0.68173
 C349 C 0.81940 0.33584 0.73134
 C350 C 0.81092 0.39097 0.74884
 H351 H 0.89064 0.30916 0.77545
 H352 H 0.92650 0.34797 0.68684
 H353 H 0.87655 0.40564 0.80769
 H354 H 0.81580 0.44341 0.67846
 H355 H 0.82774 0.35107 0.64325
 H356 H 0.77781 0.41088 0.76006
 C357 C 0.18741 0.60697 0.76263
 C358 C 0.13540 0.60584 0.78535
 C359 C 0.11534 0.58553 0.73703
 C360 C 0.16633 0.58567 0.71405
 C361 C 0.10682 0.63859 0.71788
 C362 C 0.12688 0.65996 0.76696
 C363 C 0.17895 0.66214 0.74487
 C364 C 0.15896 0.63991 0.69541
 H365 H 0.22035 0.58690 0.77406
 H366 H 0.12239 0.59157 0.82162
 H367 H 0.18255 0.55456 0.69223
 H368 H 0.07198 0.64997 0.70048
 H369 H 0.10804 0.68909 0.78914
 H370 H 0.17095 0.64688 0.65703
 C371 C 0.82161 0.62048 0.30546
 C372 C 0.82741 0.57376 0.27330
 C373 C 0.88043 0.58675 0.26318
 C374 C 0.87663 0.63215 0.29637
 C375 C 0.86682 0.61712 0.21803
 C376 C 0.81241 0.60517 0.22827
 C377 C 0.80894 0.65383 0.26035
 C378 C 0.86350 0.66436 0.25096
 H379 H 0.79726 0.61599 0.33798
 H380 H 0.81347 0.53564 0.28255
 H381 H 0.90557 0.63695 0.32439
 H382 H 0.88634 0.61442 0.18212
 H383 H 0.78633 0.58006 0.21020
 H384 H 0.87996 0.70143 0.24208
 C385 C 0.18247 0.23024 0.60464
 C386 C 0.13997 0.19336 0.61407
 C387 C 0.10503 0.23423 0.59821
 C388 C 0.14650 0.27052 0.58911
 C389 C 0.10006 0.25320 0.65035
 C390 C 0.13623 0.21215 0.66808
 C391 C 0.18002 0.24873 0.66003
 C392 C 0.14389 0.28964 0.64209
 H393 H 0.20347 0.22929 0.56989
 H394 H 0.13741 0.15335 0.60271
 H395 H 0.14995 0.29503 0.55584
 H396 H 0.06296 0.26090 0.66466
 H397 H 0.13075 0.18717 0.70059
 H398 H 0.14875 0.33069 0.64073
 C399 C 0.81897 0.77592 0.60814
 C400 C 0.86354 0.80904 0.61987
 C401 C 0.89562 0.76634 0.60253
 C402 C 0.85195 0.73363 0.59158
 C403 C 0.89859 0.74497 0.65390
 C404 C 0.86492 0.78765 0.67313
 C405 C 0.81877 0.75469 0.66299
 C406 C 0.85250 0.71216 0.64368
 H407 H 0.80012 0.78141 0.57236
 H408 H 0.86859 0.84920 0.60994
 H409 H 0.84709 0.71089 0.55729
 H410 H 0.93522 0.73473 0.66788
 H411 H 0.87171 0.81073 0.70672
 H412 H 0.84536 0.67162 0.64025
 C413 C 0.10443 0.76123 0.32150
 C414 C 0.10899 0.72685 0.36757
 C415 C 0.10047 0.77217 0.40044
 C416 C 0.09651 0.80603 0.35543
 C417 C 0.15445 0.78238 0.40329
 C418 C 0.16422 0.73657 0.36890
 C419 C 0.16114 0.77034 0.32149
 C420 C 0.15102 0.81631 0.35598
 H421 H 0.07034 0.76341 0.30027
 H422 H 0.09305 0.68946 0.37584
 H423 H 0.06831 0.83545 0.35018
 H424 H 0.17222 0.78918 0.43963
 H425 H 0.19122 0.70643 0.37581
 H426 H 0.15534 0.85695 0.34984
 C427 C 0.85144 0.23349 0.36193
 C428 C 0.88035 0.18530 0.37357
 C429 C 0.92650 0.21560 0.37558
 C430 C 0.89943 0.26328 0.36278
 C431 C 0.93522 0.20535 0.32031
 C432 C 0.88749 0.17609 0.31648
 C433 C 0.85714 0.22434 0.30545
 C434 C 0.90679 0.25284 0.30657
 H435 H 0.81779 0.24525 0.38138
 H436 H 0.87449 0.15665 0.40284
 H437 H 0.90552 0.29908 0.38301
 H438 H 0.97025 0.19359 0.30349
 H439 H 0.88854 0.14229 0.29232
 H440 H 0.92832 0.27004 0.27683
 C441 C 0.23062 0.35211 0.86352
 C442 C 0.27534 0.38152 0.88176
 C443 C 0.24947 0.43048 0.87072
 C444 C 0.20589 0.40243 0.85114
 C445 C 0.27266 0.43031 0.81855
 C446 C 0.29756 0.37964 0.82877
 C447 C 0.25257 0.34891 0.81072
 C448 C 0.22876 0.40070 0.79813
 H449 H 0.21298 0.32129 0.88471
 H450 H 0.29454 0.37628 0.91766
 H451 H 0.16858 0.41350 0.86229
 H452 H 0.28969 0.46309 0.79980
 H453 H 0.33509 0.37706 0.81444
 H454 H 0.21706 0.41524 0.76180
 C455 C 0.75265 0.36804 0.15430
 C456 C 0.79690 0.40370 0.14891
 C457 C 0.79409 0.39859 0.09334
 C458 C 0.75111 0.36246 0.09747
 C459 C 0.82860 0.35366 0.09428
 C460 C 0.83159 0.35740 0.15081
 C461 C 0.78683 0.32198 0.15797
 C462 C 0.78648 0.31669 0.10070
 H463 H 0.72035 0.37523 0.17789
 H464 H 0.80157 0.44061 0.16755
 H465 H 0.71969 0.36668 0.07220
 H466 H 0.86010 0.34819 0.06910
 H467 H 0.87051 0.35188 0.15734
 H468 H 0.79161 0.28046 0.08099
 C469 C 0.76084 0.59793 0.79086
 C470 C 0.78514 0.59021 0.84223
 C471 C 0.74043 0.56411 0.86257
 C472 C 0.71533 0.57046 0.81111
 C473 C 0.71877 0.61390 0.87758
 C474 C 0.76521 0.64087 0.85970
 C475 C 0.74195 0.65032 0.80853
 C476 C 0.69502 0.62232 0.82619
 H477 H 0.77232 0.58598 0.75355
 H478 H 0.82207 0.57598 0.85070
 H479 H 0.69487 0.54097 0.79071
 H480 H 0.69981 0.61719 0.91387
 H481 H 0.78633 0.66776 0.88267
 H482 H 0.65717 0.63212 0.81626
 C483 C 0.22326 0.60543 0.19629
 C484 C 0.19992 0.60355 0.14324
 C485 C 0.24244 0.57497 0.12360
 C486 C 0.26547 0.57451 0.17518
 C487 C 0.26886 0.62366 0.11136
 C488 C 0.22588 0.65405 0.13091
 C489 C 0.24883 0.65640 0.18368
 C490 C 0.29232 0.62371 0.16358
 H491 H 0.21184 0.59383 0.23391
 H492 H 0.16297 0.59034 0.13269
 H493 H 0.28141 0.54101 0.19360
 H494 H 0.28408 0.63065 0.07393
 H495 H 0.21031 0.68607 0.10987
 H496 H 0.33000 0.61297 0.17140
 C497 C 0.32643 0.13436 0.81622
 C498 C 0.32799 0.08291 0.79096
 C499 C 0.38263 0.08952 0.78021
 C500 C 0.38264 0.13959 0.80627
 C501 C 0.37046 0.11413 0.73118
 C502 C 0.31498 0.10970 0.74230
 C503 C 0.31647 0.16272 0.76684
 C504 C 0.37180 0.16605 0.75681
 H505 H 0.30208 0.13655 0.84901
 H506 H 0.31024 0.04826 0.80522
 H507 H 0.41242 0.14824 0.83267
 H508 H 0.38904 0.10281 0.69638
 H509 H 0.28242 0.09203 0.72600
 H510 H 0.39177 0.19955 0.74295
 C511 C 0.37029 0.84849 0.25046
 C512 C 0.38666 0.87549 0.20230
 C513 C 0.37650 0.92609 0.22588
 C514 C 0.35930 0.90033 0.27283
 C515 C 0.32415 0.92358 0.20456
 C516 C 0.33359 0.87092 0.18207
 C517 C 0.31710 0.84346 0.23105
 C518 C 0.30641 0.89714 0.25224
 H519 H 0.39271 0.81900 0.26842
 H520 H 0.42046 0.86937 0.18053
 H521 H 0.37337 0.91197 0.30960
 H522 H 0.30460 0.95463 0.18569
 H523 H 0.32309 0.86129 0.14355
 H524 H 0.27232 0.91322 0.26617
 C525 C 0.61927 0.19861 0.23206
 C526 C 0.61400 0.14581 0.20696
 C527 C 0.59330 0.12363 0.25448
 C528 C 0.59645 0.17581 0.27893
 C529 C 0.64317 0.11175 0.27328
 C530 C 0.66561 0.13227 0.22474
 C531 C 0.67208 0.18509 0.24852
 C532 C 0.64801 0.16524 0.29707
 H533 H 0.60443 0.23686 0.22801
 H534 H 0.59821 0.13768 0.16991
 H535 H 0.56744 0.19374 0.30139
 H536 H 0.64926 0.07450 0.29092
 H537 H 0.69278 0.11203 0.20182
 H538 H 0.65263 0.18248 0.33404
 C539 C 0.65139 0.85917 0.81845
 C540 C 0.65355 0.91127 0.79461
 C541 C 0.60211 0.90377 0.77534
 C542 C 0.59917 0.85199 0.79794
 C543 C 0.62201 0.88267 0.72772
 C544 C 0.67510 0.88812 0.74759
 C545 C 0.67296 0.83410 0.77007
 C546 C 0.61989 0.82890 0.75012
 H547 H 0.65753 0.86987 0.85726
 H548 H 0.66720 0.94609 0.81273
 H549 H 0.56469 0.83911 0.81497
 H550 H 0.60653 0.89653 0.69223
 H551 H 0.70764 0.90832 0.73419
 H552 H 0.60406 0.79514 0.73202
 C553 C 0.66942 0.84090 0.64741
 C554 C 0.69632 0.89275 0.64189
 C555 C 0.70679 0.88182 0.58772
 C556 C 0.67902 0.83152 0.59199
 C557 C 0.75347 0.85496 0.60192
 C558 C 0.74459 0.86674 0.65670
 C559 C 0.71828 0.81558 0.66366
 C560 C 0.72518 0.80397 0.60776
 H561 H 0.63233 0.82746 0.65585
 H562 H 0.68344 0.93007 0.65477
 H563 H 0.65173 0.81680 0.56531
 H564 H 0.78801 0.86321 0.58237
 H565 H 0.77298 0.88279 0.68137
 H566 H 0.72826 0.76507 0.59306
 C567 C 0.17414 0.34040 0.14274
 C568 C 0.20136 0.39004 0.12922
 C569 C 0.20704 0.37318 0.07583
 C570 C 0.17858 0.32450 0.08798
 C571 C 0.25426 0.34721 0.08834
 C572 C 0.25039 0.36499 0.14217
 C573 C 0.22380 0.31589 0.15676
 C574 C 0.22611 0.29774 0.10201
 H575 H 0.13845 0.33063 0.15878
 H576 H 0.18975 0.42897 0.13835
 H577 H 0.14896 0.30770 0.06539
 H578 H 0.28651 0.35277 0.06418
 H579 H 0.28094 0.38288 0.16256
 H580 H 0.23006 0.25781 0.09068
 C581 C 0.27685 0.19835 0.60226
 C582 C 0.32281 0.16797 0.59101
 C583 C 0.29257 0.11954 0.58324
 C584 C 0.24640 0.14918 0.59265
 C585 C 0.29726 0.10782 0.63796
 C586 C 0.32642 0.15767 0.64697
 C587 C 0.27788 0.18574 0.65878
 C588 C 0.24926 0.13645 0.64824
 H589 H 0.27680 0.23719 0.58709
 H590 H 0.35328 0.18116 0.56730
 H591 H 0.21447 0.14423 0.56800
 H592 H 0.30726 0.06952 0.65085
 H593 H 0.36251 0.17002 0.66006
 H594 H 0.21818 0.12164 0.67011
 C595 C 0.25694 0.80497 0.38953
 C596 C 0.30673 0.82653 0.40521
 C597 C 0.28391 0.87873 0.41314
 C598 C 0.23467 0.85793 0.39932
 C599 C 0.29415 0.89225 0.35976
 C600 C 0.31647 0.83937 0.35044
 C601 C 0.26541 0.81969 0.33420
 C602 C 0.24397 0.87236 0.34486
 H603 H 0.24759 0.76753 0.40460
 H604 H 0.33279 0.80777 0.43057
 H605 H 0.20212 0.86790 0.42152
 H606 H 0.30685 0.93058 0.34976
 H607 H 0.35290 0.82742 0.33865
 H608 H 0.21852 0.89447 0.32164
 C609 C 0.73582 0.10484 0.31157
 C610 C 0.77382 0.07720 0.34198
 C611 C 0.74985 0.09286 0.39025
 C612 C 0.71044 0.11861 0.36177
 C613 C 0.78003 0.14022 0.39248
 C614 C 0.80464 0.12472 0.34299
 C615 C 0.76512 0.15477 0.31290
 C616 C 0.74037 0.16816 0.36327
 H617 H 0.72798 0.08297 0.27765
 H618 H 0.78715 0.03867 0.33374
 H619 H 0.67214 0.11244 0.37342
 H620 H 0.79655 0.15479 0.42717
 H621 H 0.84030 0.10640 0.33987
 H622 H 0.72615 0.20561 0.37409
 C623 C 0.63209 0.73235 0.84288
 C624 C 0.63532 0.69520 0.88695
 C625 C 0.62014 0.73677 0.92180
 C626 C 0.61796 0.77451 0.87951
 C627 C 0.67306 0.75120 0.93062
 C628 C 0.68966 0.71036 0.89462
 C629 C 0.68673 0.74608 0.84878
 C630 C 0.67300 0.78761 0.88699
 H631 H 0.61303 0.72465 0.80739
 H632 H 0.61971 0.65669 0.88823
 H633 H 0.58707 0.80083 0.87940
 H634 H 0.68957 0.75896 0.96748
 H635 H 0.72126 0.69647 0.91531
 H636 H 0.69704 0.81994 0.89580
 C637 C 0.13178 0.23134 0.33040
 C638 C 0.13720 0.20335 0.38063
 C639 C 0.11051 0.24527 0.40620
 C640 C 0.10407 0.27341 0.35763
 C641 C 0.15800 0.27229 0.41616
 C642 C 0.18638 0.23137 0.38930
 C643 C 0.18114 0.25913 0.33878
 C644 C 0.15252 0.30118 0.36760
 H645 H 0.11937 0.21402 0.29514
 H646 H 0.12694 0.16386 0.38902
 H647 H 0.06926 0.28984 0.34468
 H648 H 0.16859 0.28887 0.45245
 H649 H 0.21910 0.22343 0.41134
 H650 H 0.15353 0.33984 0.38203
 C651 C 0.66016 0.20798 0.13127
 C652 C 0.61365 0.24089 0.13820
 C653 C 0.61832 0.26113 0.08618
 C654 C 0.66282 0.22795 0.07809
 C655 C 0.65024 0.30414 0.10425
 C656 C 0.64654 0.28430 0.15793
 C657 C 0.69311 0.25132 0.15135
 C658 C 0.69578 0.27083 0.09588
 H659 H 0.66766 0.16733 0.13405
 H660 H 0.57708 0.22916 0.15146
 H661 H 0.66959 0.20437 0.04479
 H662 H 0.64462 0.34402 0.09376
 H663 H 0.63824 0.30880 0.19013
 H664 H 0.71893 0.27651 0.06314
 C665 C 0.31756 0.28648 0.88860
 C666 C 0.34756 0.24727 0.91591
 C667 C 0.39452 0.27513 0.90495
 C668 C 0.36611 0.31599 0.87899
 C669 C 0.40037 0.24638 0.85663
 C670 C 0.35300 0.21758 0.86820
 C671 C 0.32261 0.25778 0.83847
 C672 C 0.37112 0.28705 0.82898
 H673 H 0.28448 0.29275 0.91077
 H674 H 0.33762 0.23131 0.95269
 H675 H 0.37463 0.35621 0.88583
 H676 H 0.43524 0.23067 0.84301
 H677 H 0.35417 0.17990 0.88513
 H678 H 0.38285 0.30374 0.79319
 C679 C 0.32147 0.73663 0.11753
 C680 C 0.36463 0.77279 0.10800
 C681 C 0.39781 0.72752 0.10140
 C682 C 0.35665 0.69121 0.11134
 C683 C 0.40979 0.72821 0.15636
 C684 C 0.37601 0.77316 0.16420
 C685 C 0.33182 0.73817 0.17432
 C686 C 0.36763 0.69331 0.16834
 H687 H 0.28539 0.74027 0.09952
 H688 H 0.36338 0.80625 0.08343
 H689 H 0.35574 0.65705 0.08805
 H690 H 0.44714 0.72365 0.17163
 H691 H 0.40116 0.79131 0.18906
 H692 H 0.37698 0.66604 0.19797
 C693 C 0.85866 0.65292 0.80168
 C694 C 0.86523 0.60495 0.76922
 C695 C 0.91726 0.61964 0.75768
 C696 C 0.91180 0.66652 0.79063
 C697 C 0.90094 0.64943 0.71300
 C698 C 0.84756 0.63421 0.72360
 C699 C 0.83944 0.68233 0.75540
 C700 C 0.89365 0.69749 0.74616
 H701 H 0.85217 0.65825 0.84151
 H702 H 0.85492 0.56520 0.77638
 H703 H 0.93865 0.68005 0.81837
 H704 H 0.91998 0.64651 0.67681
 H705 H 0.82233 0.61738 0.69609
 H706 H 0.90840 0.73622 0.74571
 C707 C 0.36137 0.16873 0.30771
 C708 C 0.36717 0.11895 0.27804
 C709 C 0.41886 0.13216 0.26560
 C710 C 0.41462 0.18096 0.29587
 C711 C 0.40342 0.15971 0.21951
 C712 C 0.35015 0.14537 0.23065
 C713 C 0.34264 0.19493 0.25971
 C714 C 0.39675 0.20949 0.24963
 H715 H 0.35411 0.17792 0.34674
 H716 H 0.35737 0.07974 0.28839
 H717 H 0.44189 0.19537 0.32273
 H718 H 0.42389 0.15475 0.18434
 H719 H 0.32456 0.12802 0.20376
 H720 H 0.41117 0.24821 0.24653
 C721 C 0.13869 0.65295 0.26832
 C722 C 0.08511 0.66920 0.27310
 C723 C 0.07142 0.63273 0.23234
 C724 C 0.12389 0.61777 0.22545
 C725 C 0.07822 0.67472 0.19376
 C726 C 0.09435 0.71190 0.23388
 C727 C 0.14895 0.69590 0.23080
 C728 C 0.13185 0.66141 0.18759
 H729 H 0.16220 0.64182 0.29991
 H730 H 0.06043 0.67133 0.30536
 H731 H 0.13406 0.57758 0.22108
 H732 H 0.05273 0.68383 0.16311
 H733 H 0.08165 0.75078 0.22648
 H734 H 0.13867 0.66823 0.14789
 C735 C 0.84959 0.34825 0.31818
 C736 C 0.90222 0.35750 0.29824
 C737 C 0.89163 0.41198 0.28783
 C738 C 0.83908 0.40454 0.30848
 C739 C 0.87170 0.39867 0.23669
 C740 C 0.88478 0.34332 0.24575
 C741 C 0.83274 0.33256 0.26486
 C742 C 0.81980 0.38916 0.25681
 H743 H 0.83572 0.33284 0.35356
 H744 H 0.93722 0.34665 0.31576
 H745 H 0.82010 0.42974 0.33489
 H746 H 0.87993 0.42166 0.20334
 H747 H 0.90677 0.32060 0.21961
 H748 H 0.78448 0.40442 0.24433
 C749 C 0.13631 0.34014 0.80340
 C750 C 0.12827 0.38962 0.77369
 C751 C 0.07690 0.37407 0.76047
 C752 C 0.08374 0.32546 0.79094
 C753 C 0.09480 0.34726 0.71457
 C754 C 0.14738 0.36393 0.72656
 C755 C 0.15700 0.31452 0.75572
 C756 C 0.10347 0.29777 0.74501
 H757 H 0.14405 0.33186 0.84260
 H758 H 0.13667 0.42899 0.78456
 H759 H 0.05712 0.30932 0.81751
 H760 H 0.07561 0.35116 0.67854
 H761 H 0.17221 0.38287 0.69999
 H762 H 0.09023 0.25858 0.74229
 C763 C 0.81109 0.76695 0.39286
 C764 C 0.84041 0.72597 0.41894
 C765 C 0.88829 0.75332 0.40866
 C766 C 0.86046 0.79544 0.38416
 C767 C 0.89306 0.72616 0.35941
 C768 C 0.84446 0.69814 0.36968
 C769 C 0.81511 0.74053 0.34127
 C770 C 0.86472 0.76838 0.33311
 H771 H 0.77696 0.77425 0.41319
 H772 H 0.83009 0.70853 0.45489
 H773 H 0.86980 0.83515 0.39270
 H774 H 0.92844 0.71195 0.34565
 H775 H 0.84301 0.65874 0.38211
 H776 H 0.87748 0.78572 0.29799
 C777 C 0.83173 0.25754 0.61890
 C778 C 0.88515 0.27300 0.62684
 C779 C 0.90160 0.22286 0.60516
 C780 C 0.84927 0.20678 0.59743
 C781 C 0.90146 0.19979 0.65732
 C782 C 0.88383 0.24980 0.67964
 C783 C 0.82942 0.23488 0.67192
 C784 C 0.84798 0.18379 0.65075
 H785 H 0.80450 0.28229 0.60097
 H786 H 0.90076 0.30962 0.61516
 H787 H 0.83668 0.19014 0.56193
 H788 H 0.93046 0.17568 0.67317
 H789 H 0.90440 0.26031 0.71299
 H790 H 0.84079 0.14518 0.66365
 C791 C 0.16567 0.73933 0.63007
 C792 C 0.11248 0.72274 0.63815
 C793 C 0.09494 0.77226 0.61614
 C794 C 0.14705 0.78954 0.60826
 C795 C 0.09483 0.79594 0.66804
 C796 C 0.11343 0.74650 0.69080
 C797 C 0.16752 0.76237 0.68296
 C798 C 0.14803 0.81294 0.66132
 H799 H 0.19368 0.71537 0.61236
 H800 H 0.09751 0.68571 0.62684
 H801 H 0.15930 0.80664 0.57285
 H802 H 0.06538 0.81954 0.68375
 H803 H 0.09335 0.73622 0.72453
 H804 H 0.15455 0.85182 0.67367
 C805 C 0.74504 0.62685 0.14611
 C806 C 0.72863 0.64316 0.09409
 C807 C 0.77882 0.63061 0.07365
 C808 C 0.79620 0.61653 0.12528
 C809 C 0.79477 0.68596 0.08426
 C810 C 0.74400 0.69820 0.10607
 C811 C 0.75936 0.68169 0.15955
 C812 C 0.81114 0.67166 0.13741
 H813 H 0.72488 0.59861 0.16833
 H814 H 0.69460 0.63086 0.07554
 H815 H 0.81847 0.58236 0.13176
 H816 H 0.81537 0.71087 0.05875
 H817 H 0.72650 0.73393 0.09514
 H818 H 0.84622 0.68616 0.15166
 C819 C 0.25519 0.62533 0.85125
 C820 C 0.27166 0.63746 0.90435
 C821 C 0.22303 0.61988 0.92391
 C822 C 0.20588 0.60788 0.87169
 C823 C 0.20233 0.67310 0.91949
 C824 C 0.25146 0.69176 0.89880
 C825 C 0.23550 0.67946 0.84458
 C826 C 0.18560 0.66207 0.86601
 H827 H 0.27703 0.60222 0.82545
 H828 H 0.30570 0.62255 0.92048
 H829 H 0.18917 0.57104 0.86247
 H830 H 0.18056 0.69270 0.94820
 H831 H 0.26346 0.72697 0.91616
 H832 H 0.14838 0.67450 0.85760
 C833 C 0.75131 0.30842 0.88808
 C834 C 0.80096 0.32774 0.90678
 C835 C 0.78047 0.38109 0.91036
 C836 C 0.73125 0.36279 0.89297
 C837 C 0.79572 0.39181 0.85755
 C838 C 0.81598 0.33744 0.85260
 C839 C 0.76548 0.31947 0.83309
 C840 C 0.74591 0.37370 0.83916
 H841 H 0.73951 0.27374 0.90671
 H842 H 0.82374 0.30900 0.93528
 H843 H 0.69749 0.37764 0.90981
 H844 H 0.81131 0.42888 0.84725
 H845 H 0.85295 0.32432 0.84419
 H846 H 0.72320 0.39614 0.81355
 C847 C 0.63218 0.84865 0.29838
 C848 C 0.63689 0.89701 0.26562
 C849 C 0.58457 0.89217 0.24907
 C850 C 0.57915 0.84575 0.28202
 C851 C 0.59969 0.85905 0.20557
 C852 C 0.65357 0.86337 0.22159
 C853 C 0.64984 0.81512 0.25467
 C854 C 0.59434 0.81177 0.23904
 H855 H 0.63514 0.83937 0.33817
 H856 H 0.65135 0.93465 0.27583
 H857 H 0.54809 0.83826 0.30735
 H858 H 0.58662 0.86333 0.16688
 H859 H 0.68342 0.87252 0.19540
 H860 H 0.56290 0.78618 0.23737
 C861 C 0.62008 0.16742 0.73821
 C862 C 0.62531 0.11147 0.72451
 C863 C 0.60350 0.09729 0.77431
 C864 C 0.59827 0.15167 0.78847
 C865 C 0.65432 0.09531 0.79730
 C866 C 0.67722 0.11117 0.74765
 C867 C 0.67199 0.16801 0.76084
 C868 C 0.65024 0.15100 0.81156
 H869 H 0.60347 0.19593 0.71349
 H870 H 0.61270 0.09436 0.68924
 H871 H 0.56299 0.16586 0.80258
 H872 H 0.66809 0.06500 0.82185
 H873 H 0.70968 0.08908 0.73799
 H874 H 0.66264 0.15651 0.84986
 C875 C 0.34546 0.84860 0.82222
 C876 C 0.39683 0.85009 0.79792
 C877 C 0.38922 0.90427 0.78449
 C878 C 0.33901 0.90432 0.80872
 C879 C 0.36687 0.88993 0.73516
 C880 C 0.37447 0.83425 0.74804
 C881 C 0.32321 0.83172 0.77167
 C882 C 0.31560 0.88830 0.75938
 H883 H 0.33428 0.84212 0.86072
 H884 H 0.43316 0.83746 0.81059
 H885 H 0.32498 0.93390 0.83396
 H886 H 0.37874 0.90772 0.69997
 H887 H 0.39155 0.80675 0.72261
 H888 H 0.28214 0.90904 0.75041
   
