data_POSCAR
  _audit_creation_date              2014-09-24
  _audit_creation_method            'ToBaCCo'
  _symmetry_space_group_name_H-M    'P1'
  _symmetry_Int_Tables_number       1
  _symmetry_cell_setting            triclinic
  loop_
  _symmetry_equiv_pos_as_xyz
 x,y,z
_cell_length_a 26.3884
_cell_length_b 26.1617
_cell_length_c 26.0976
_cell_angle_alpha 88.480400
_cell_angle_beta 100.918200
_cell_angle_gamma 96.845500
loop_
  _atom_site_label
  _atom_site_type_symbol
  _atom_site_fract_x
  _atom_site_fract_y
  _atom_site_fract_z
C1 C 0.63348 0.59693 -0.00057
 C2 C 0.64538 0.54579 0.00748
 C3 C 0.60437 0.50736 0.01288
 C4 C 0.55252 0.51816 0.00614
 C5 C 0.54257 0.57000 -0.00177
 C6 C 0.58304 0.61053 -0.00207
 C7 C 0.50906 0.47539 0.00805
 C8 C 0.46140 0.48594 0.01975
 C9 C 0.41884 0.44770 0.01669
 C10 C 0.42589 0.39650 0.00803
 C11 C 0.47390 0.38371 -0.00047
 C12 C 0.51428 0.42375 -0.00278
 H13 H 0.66290 0.62627 -0.00944
 H14 H 0.61300 0.46901 0.02448
 H15 H 0.50329 0.57882 -0.00602
 H16 H 0.45660 0.52404 0.03150
 H17 H 0.39385 0.36659 0.00784
 H18 H 0.54942 0.41422 -0.01387
 C19 C -0.00170 0.60525 0.41762
 C20 C -0.01790 0.61888 0.46352
 C21 C -0.02477 0.58009 0.50099
 C22 C -0.01235 0.53024 0.49493
 C23 C 0.00644 0.51895 0.45030
 C24 C 0.00964 0.55500 0.40993
 C25 C -0.01788 0.48963 0.53520
 C26 C -0.02918 0.43761 0.52042
 C27 C -0.02772 0.39839 0.55790
 C28 C -0.01847 0.41133 0.61083
 C29 C -0.00987 0.46302 0.62661
 C30 C -0.00897 0.50197 0.58853
 H31 H 0.00232 0.63391 0.38782
 H32 H -0.04154 0.58804 0.53422
 H33 H 0.02054 0.48211 0.44793
 H34 H -0.03705 0.42726 0.47957
 H35 H -0.01696 0.38087 0.63982
 H36 H -0.00049 0.54179 0.60057
 C37 C 0.59192 -0.00742 0.58370
 C38 C 0.54283 -0.00674 0.59678
 C39 C 0.49923 -0.00688 0.55636
 C40 C 0.50453 -0.00288 0.50338
 C41 C 0.55516 0.00156 0.49229
 C42 C 0.59937 -0.00282 0.53157
 C43 C 0.45781 -0.00315 0.45969
 C44 C 0.46048 -0.01565 0.40784
 C45 C 0.41695 -0.01595 0.36707
 C46 C 0.36886 -0.00793 0.37931
 C47 C 0.36448 0.00243 0.43071
 C48 C 0.40951 0.00762 0.46959
 H49 H 0.62386 -0.01345 0.61496
 H50 H 0.46147 -0.00951 0.56691
 H51 H 0.56034 0.01081 0.45301
 H52 H 0.49595 -0.02644 0.39864
 H53 H 0.33462 -0.01015 0.34884
 H54 H 0.40603 0.02015 0.50769
 O55 O 0.43967 -0.02619 -0.09763
 O56 O 0.43472 -0.02620 0.04304
 O57 O 0.42971 0.04388 -0.03146
 O58 O 0.44729 -0.09456 -0.02405
 O59 O 0.53218 -0.07384 -0.00509
 O60 O 0.51463 0.06413 -0.01192
 O61 O 0.51958 -0.00523 0.06167
 O62 O 0.52450 -0.00470 -0.07898
 Cu63 Cu 0.42936 -0.02763 -0.02913
 Cu64 Cu 0.53111 -0.00295 -0.00662
 C65 C 0.48301 -0.01595 -0.11233
 C66 C 0.47624 -0.01554 0.07645
 C67 C 0.46918 0.07771 -0.02298
 C68 C 0.49297 -0.10782 -0.01415
 O69 O -0.01799 0.55856 1.01753
 O70 O 0.11563 0.52669 1.02556
 O71 O 0.03581 0.53108 0.95070
 O72 O 0.06293 0.55890 1.09073
 O73 O 0.03579 0.47803 1.10671
 O74 O 0.00984 0.44984 0.96664
 O75 O 0.08981 0.44577 1.04270
 O76 O -0.04406 0.47701 1.03207
 Cu77 Cu 0.05185 0.55190 1.01934
 Cu78 Cu 0.02059 0.45438 1.03866
 C79 C -0.05384 0.52317 1.02368
 C80 C 0.12558 0.48075 1.03575
 C81 C 0.01796 0.48596 0.93468
 C82 C 0.05282 0.52346 1.12262
 O83 O -0.04060 -0.04924 0.43142
 O84 O -0.02493 0.08940 0.46081
 O85 O 0.03254 0.02698 0.42788
 O86 O -0.09835 0.01448 0.45983
 O87 O -0.06475 0.00236 0.54277
 O88 O 0.06524 0.00770 0.50929
 O89 O 0.01194 0.07305 0.54187
 O90 O -0.01028 -0.06470 0.51438
 Cu91 Cu -0.03594 0.02200 0.43657
 Cu92 Cu 0.00397 0.00280 0.53523
 C93 C -0.02873 -0.08076 0.46844
 C94 C -0.00400 0.10471 0.50661
 C95 C 0.07125 0.01890 0.46295
 C96 C -0.10379 0.00751 0.50691
 C97 C -0.29336 0.48308 0.99865
 C98 C -0.30291 0.53343 1.00961
 C99 C -0.25929 0.57124 1.02180
 C100 C -0.20875 0.55963 1.02168
 C101 C -0.20045 0.50904 1.01105
 C102 C -0.24296 0.47109 0.99979
 C103 C -0.14979 0.49728 1.01170
 C104 C -0.10727 0.53582 1.02189
 C105 C -0.11603 0.58628 1.03161
 C106 C -0.16625 0.59799 1.03200
 H107 H -0.26366 0.60971 1.03310
 H108 H -0.23735 0.43216 0.99091
 H109 H -0.14351 0.45827 1.00384
 H110 H -0.17186 0.63711 1.04015
 H111 H -0.32466 0.45272 0.98691
 H112 H -0.08388 0.61655 1.03988
 C113 C 0.35113 0.50865 0.99690
 C114 C 0.36655 0.46222 1.01976
 C115 C 0.33098 0.42936 1.04302
 C116 C 0.28068 0.44225 1.04249
 C117 C 0.26602 0.48910 1.01948
 C118 C 0.30164 0.52214 0.99717
 C119 C 0.21569 0.50182 1.01833
 C120 C 0.17918 0.46788 1.03896
 C121 C 0.19403 0.42132 1.06173
 C122 C 0.24445 0.40879 1.06383
 H123 H 0.34222 0.39375 1.06136
 H124 H 0.29092 0.55801 0.97901
 H125 H 0.20464 0.53768 1.00033
 H126 H 0.25490 0.37266 1.08157
 H127 H 0.37698 0.53425 0.97756
 H128 H 0.16667 0.39459 1.07806
 C129 C -0.01645 -0.31006 0.52390
 C130 C -0.02530 -0.32945 0.47252
 C131 C -0.03869 -0.29508 0.43068
 C132 C -0.03977 -0.24270 0.43972
 C133 C -0.02849 -0.22399 0.49129
 C134 C -0.01804 -0.25809 0.53306
 C135 C -0.02653 -0.17127 0.50030
 C136 C -0.03532 -0.13663 0.45835
 C137 C -0.04834 -0.15573 0.40714
 C138 C -0.05066 -0.20841 0.39790
 H139 H -0.04895 -0.30866 0.39083
 H140 H -0.00938 -0.24426 0.57291
 H141 H -0.01699 -0.15715 0.54006
 H142 H -0.05972 -0.22213 0.35803
 H143 H -0.00482 -0.33396 0.55752
 H144 H -0.05556 -0.12987 0.37417
 C145 C -0.06792 0.32471 0.49841
 C146 C -0.03120 0.34412 0.54178
 C147 C 0.00447 0.31226 0.56835
 C148 C 0.00358 0.26165 0.55200
 C149 C -0.03326 0.24246 0.50816
 C150 C -0.06893 0.27427 0.48169
 C151 C -0.03422 0.19162 0.49205
 C152 C 0.00045 0.15951 0.51999
 C153 C 0.03707 0.17909 0.56331
 C154 C 0.03890 0.22988 0.57895
 H155 H 0.03363 0.32718 0.60120
 H156 H -0.09760 0.26013 0.44817
 H157 H -0.06298 0.17657 0.45895
 H158 H 0.06742 0.24407 0.61258
 H159 H -0.09592 0.34859 0.47751
 H160 H 0.06413 0.15492 0.58534
 C161 C 0.57771 0.02458 -0.31165
 C162 C 0.53822 -0.00412 -0.34702
 C163 C 0.49475 -0.02878 -0.32828
 C164 C 0.49115 -0.02498 -0.27534
 C165 C 0.53182 0.00302 -0.24038
 C166 C 0.57480 0.02771 -0.25900
 C167 C 0.52891 0.00598 -0.18733
 C168 C 0.48536 -0.01797 -0.16862
 C169 C 0.44460 -0.04489 -0.20391
 C170 C 0.44761 -0.04867 -0.25665
 H171 H 0.46402 -0.05141 -0.35450
 H172 H 0.60608 0.04985 -0.23291
 H173 H 0.56046 0.02718 -0.16068
 H174 H 0.41589 -0.07016 -0.28279
 H175 H 0.61095 0.04535 -0.32476
 H176 H 0.41068 -0.06387 -0.19053
 C177 C 0.38094 -0.05157 0.27668
 C178 C 0.42173 -0.02419 0.31169
 C179 C 0.46632 -0.00272 0.29284
 C180 C 0.46954 -0.00744 0.23998
 C181 C 0.42757 -0.03364 0.20507
 C182 C 0.38372 -0.05603 0.22400
 C183 C 0.42997 -0.03659 0.15179
 C184 C 0.47416 -0.01418 0.13294
 C185 C 0.51615 0.01070 0.16839
 C186 C 0.51377 0.01428 0.22126
 H187 H 0.49797 0.01896 0.31890
 H188 H 0.35138 -0.07679 0.19798
 H189 H 0.39744 -0.05624 0.12505
 H190 H 0.54643 0.03438 0.24744
 H191 H 0.34663 -0.06965 0.28995
 H192 H 0.55062 0.02836 0.15506
 C193 C 0.61532 -0.29792 0.01704
 C194 C 0.57419 -0.33640 -0.00267
 C195 C 0.52438 -0.32017 -0.02053
 C196 C 0.51624 -0.26807 -0.01835
 C197 C 0.55822 -0.23084 0.00107
 C198 C 0.60750 -0.24620 0.01850
 C199 C 0.55035 -0.17878 0.00286
 C200 C 0.50071 -0.16315 -0.01427
 C201 C 0.45896 -0.20063 -0.03308
 C202 C 0.46667 -0.25250 -0.03531
 H203 H 0.49172 -0.34712 -0.03778
 H204 H 0.64007 -0.21823 0.03417
 H205 H 0.58297 -0.15045 0.01756
 H206 H 0.43382 -0.28042 -0.05033
 H207 H 0.65375 -0.30737 0.03391
 H208 H 0.42033 -0.18978 -0.04678
 C209 C 0.53075 0.31191 0.01610
 C210 C 0.48232 0.32855 -0.00532
 C211 C 0.44154 0.29159 -0.02842
 C212 C 0.44850 0.23908 -0.02840
 C213 C 0.49725 0.22313 -0.00637
 C214 C 0.53823 0.25994 0.01524
 C215 C 0.50399 0.17057 -0.00550
 C216 C 0.46231 0.13336 -0.02556
 C217 C 0.41399 0.14975 -0.04745
 C218 C 0.40725 0.20208 -0.04919
 H219 H 0.40420 0.30343 -0.04609
 H220 H 0.57584 0.24840 0.03253
 H221 H 0.54144 0.15859 0.01174
 H222 H 0.36954 0.21354 -0.06622
 H223 H 0.56270 0.33889 0.03503
 H224 H 0.38131 0.12205 -0.06337
 C225 C -0.34412 -0.01644 0.46855
 C226 C -0.35023 -0.00270 0.51898
 C227 C -0.30447 0.01030 0.55663
 C228 C -0.25503 0.00868 0.54472
 C229 C -0.25021 -0.00444 0.49395
 C230 C -0.29494 -0.01683 0.45620
 C231 C -0.20071 -0.00499 0.48177
 C232 C -0.15586 0.00647 0.52014
 C233 C -0.16108 0.01851 0.57087
 C234 C -0.21021 0.02008 0.58295
 H235 H -0.30635 0.02349 0.59505
 H236 H -0.29195 -0.02768 0.41719
 H237 H -0.19710 -0.01464 0.44257
 H238 H -0.21313 0.03011 0.62222
 H239 H -0.37706 -0.02908 0.43847
 H240 H -0.12706 0.02779 0.60099
 C241 C 0.30252 -0.01670 0.49251
 C242 C 0.31269 0.00485 0.44494
 C243 C 0.27263 0.02635 0.41083
 C244 C 0.22319 0.02561 0.42377
 C245 C 0.21383 0.00395 0.47178
 C246 C 0.25382 -0.01680 0.50594
 C247 C 0.16444 0.00265 0.48461
 C248 C 0.12369 0.02198 0.44974
 C249 C 0.13330 0.04344 0.40204
 C250 C 0.18268 0.04553 0.38930
 H251 H 0.27979 0.04358 0.37428
 H252 H 0.24721 -0.03390 0.54273
 H253 H 0.15755 -0.01429 0.52140
 H254 H 0.18902 0.06225 0.35228
 H255 H 0.33198 -0.03467 0.51909
 H256 H 0.10262 0.05874 0.37453
 C257 C 0.00959 0.48878 1.34476
 C258 C 0.02233 0.54025 1.36236
 C259 C 0.04543 0.57650 1.33001
 C260 C 0.05255 0.56249 1.28062
 C261 C 0.03759 0.51133 1.26328
 C262 C 0.01732 0.47459 1.29605
 C263 C 0.04098 0.49810 1.21259
 C264 C 0.05804 0.53569 1.17833
 C265 C 0.07517 0.58605 1.19661
 C266 C 0.07276 0.59927 1.24750
 H267 H 0.05845 0.61565 1.34290
 H268 H 0.00551 0.43517 1.28321
 H269 H 0.02784 0.45906 1.19910
 H270 H 0.08484 0.63866 1.26026
 H271 H -0.00964 0.45951 1.36682
 H272 H 0.08880 0.61569 1.17105
 C273 C 0.03659 0.51718 0.70331
 C274 C -0.00018 0.47582 0.68296
 C275 C -0.02688 0.44562 0.71702
 C276 C -0.01615 0.45560 0.77062
 C277 C 0.02062 0.49743 0.79055
 C278 C 0.04657 0.52816 0.75657
 C279 C 0.03123 0.50748 0.84420
 C280 C 0.00642 0.47548 0.87831
 C281 C -0.02961 0.43362 0.85823
 C282 C -0.04119 0.42403 0.80471
 H283 H -0.05602 0.41418 0.70191
 H284 H 0.07517 0.56015 0.77128
 H285 H 0.05941 0.53962 0.85949
 H286 H -0.06938 0.39170 0.79004
 H287 H 0.05852 0.54051 0.67829
 H288 H -0.04935 0.40867 0.88388
   
