data_POSCAR
  _audit_creation_date              2014-09-24
  _audit_creation_method            'ToBaCCo'
  _symmetry_space_group_name_H-M    'P1'
  _symmetry_Int_Tables_number       1
  _symmetry_cell_setting            triclinic
  loop_
  _symmetry_equiv_pos_as_xyz
 x,y,z
_cell_length_a 36.3718
_cell_length_b 34.2525
_cell_length_c 47.8887
_cell_angle_alpha 90.161700
_cell_angle_beta 90.017200
_cell_angle_gamma 89.982100
loop_
  _atom_site_label
  _atom_site_type_symbol
  _atom_site_fract_x
  _atom_site_fract_y
  _atom_site_fract_z
B1 B 0.27039 0.24155 0.27998
 B2 B 0.22653 0.23007 0.27284
 B3 B 0.23866 0.27673 0.27794
 B4 B 0.28065 0.28425 0.26433
 B5 B 0.29448 0.24084 0.25012
 B6 B 0.26076 0.20699 0.25586
 B7 B 0.23226 0.26446 0.22278
 B8 B 0.27609 0.27583 0.23002
 B9 B 0.26410 0.22918 0.22473
 B10 B 0.22198 0.22159 0.23841
 B11 B 0.20821 0.26511 0.25265
 B12 B 0.24191 0.29879 0.24692
 B13 B 0.72988 0.76128 0.28153
 B14 B 0.77333 0.77066 0.27177
 B15 B 0.76013 0.72481 0.27832
 B16 B 0.71669 0.71845 0.26729
 B17 B 0.70287 0.76185 0.25317
 B18 B 0.73822 0.79453 0.25635
 B19 B 0.76129 0.73459 0.22280
 B20 B 0.71797 0.72531 0.23269
 B21 B 0.73097 0.77120 0.22590
 B22 B 0.77460 0.77764 0.23703
 B23 B 0.78835 0.73418 0.25115
 B24 B 0.75302 0.70163 0.24806
 B25 B 0.73181 0.22848 -0.22477
 B26 B 0.71741 0.27339 -0.23311
 B27 B 0.76094 0.26625 -0.22277
 B28 B 0.77573 0.22286 -0.23556
 B29 B 0.74004 0.20355 -0.25433
 B30 B 0.70360 0.23509 -0.25246
 B31 B 0.75989 0.27243 -0.27860
 B32 B 0.77439 0.22755 -0.27050
 B33 B 0.73081 0.23481 -0.28065
 B34 B 0.71616 0.27801 -0.26792
 B35 B 0.75184 0.29727 -0.24911
 B36 B 0.78818 0.26583 -0.25105
 B37 B 0.26507 0.76985 -0.22486
 B38 B 0.27768 0.72327 -0.22973
 B39 B 0.23357 0.73421 -0.22309
 B40 B 0.22315 0.77680 -0.23907
 B41 B 0.26209 0.79168 -0.25615
 B42 B 0.29607 0.75829 -0.24984
 B43 B 0.24117 0.72148 -0.27812
 B44 B 0.22843 0.76805 -0.27339
 B45 B 0.27255 0.75703 -0.27999
 B46 B 0.28299 0.71456 -0.26397
 B47 B 0.24407 0.69975 -0.24694
 B48 B 0.21012 0.73301 -0.25324
 B49 B 1.23868 1.27905 0.72471
 B50 B 1.22291 1.23411 0.73151
 B51 B 1.26692 1.24060 0.72204
 B52 B 1.28245 1.28281 0.73618
 B53 B 1.24683 1.30216 0.75502
 B54 B 1.20969 1.27175 0.75183
 B55 B 1.26450 1.23145 0.77765
 B56 B 1.28031 1.27636 0.77096
 B57 B 1.23633 1.26984 0.78036
 B58 B 1.22082 1.22765 0.76621
 B59 B 1.25642 1.20837 0.74734
 B60 B 1.29350 1.23870 0.75064
 B61 B 0.76831 0.73781 0.77937
 B62 B 0.72371 0.73386 0.77091
 B63 B 0.74191 0.77766 0.77806
 B64 B 0.78528 0.77943 0.76564
 B65 B 0.79354 0.73519 0.75018
 B66 B 0.75516 0.70682 0.75374
 B67 B 0.73666 0.77029 0.72243
 B68 B 0.78129 0.77410 0.73090
 B69 B 0.76313 0.73035 0.72368
 B70 B 0.71973 0.72855 0.73612
 B71 B 0.71146 0.77278 0.75165
 B72 B 0.74989 0.80114 0.74805
 B73 B 1.23798 0.72025 0.27544
 B74 B 1.22344 0.76585 0.26938
 B75 B 1.26731 0.75770 0.27865
 B76 B 1.28159 0.71547 0.26380
 B77 B 1.24538 0.69783 0.24473
 B78 B 1.20912 0.72928 0.24850
 B79 B 1.26486 0.76873 0.22321
 B80 B 1.27952 0.72311 0.22912
 B81 B 1.23572 0.73125 0.21994
 B82 B 1.22138 0.77344 0.23481
 B83 B 1.25754 0.79103 0.25391
 B84 B 1.29379 0.75967 0.25000
 B85 B 0.76862 1.26036 0.21972
 B86 B 0.72424 1.26827 0.22766
 B87 B 0.73981 1.22264 0.22306
 B88 B 0.78281 1.21921 0.23585
 B89 B 0.79376 1.26424 0.24896
 B90 B 0.75730 1.29485 0.24348
 B91 B 0.73470 1.23627 0.27814
 B92 B 0.77908 1.22848 0.27018
 B93 B 0.76356 1.27409 0.27486
 B94 B 0.72050 1.27753 0.26203
 B95 B 0.70958 1.23249 0.24889
 B96 B 0.74607 1.20193 0.25438
 O97 O 0.47651 1.06550 0.03480
 O98 O 0.52104 0.93222 0.03312
 O99 O 0.43548 0.98164 0.03522
 O100 O 0.56193 1.01577 0.03576
 O101 O 0.45858 0.92692 0.02198
 O102 O 0.53921 1.07113 0.02394
 O103 O 0.57023 0.95169 0.01507
 O104 O 0.42747 1.04671 0.01600
 C105 C 0.44279 1.06318 0.03583
 C106 C 0.55472 0.93460 0.03449
 C107 C 0.44003 0.94629 0.03928
 C108 C 0.55777 1.05094 0.04066
 O109 O 0.52171 1.06665 -0.03283
 O110 O 0.47614 0.93376 -0.03464
 O111 O 0.43573 1.01803 -0.03518
 O112 O 0.56191 0.98266 -0.03546
 O113 O 0.53875 0.92751 -0.02363
 O114 O 0.45923 1.07252 -0.02187
 O115 O 0.57073 1.04671 -0.01471
 O116 O 0.42718 0.95304 -0.01597
 Co117 Co 0.49914 1.06257 0.00094
 Co118 Co 0.49866 0.93648 -0.00073
 Co119 Co 0.43846 0.99982 0.00003
 Co120 Co 0.55917 0.99924 0.00015
 O121 O 0.49885 0.99953 0.00009
 C122 C 0.55539 1.06421 -0.03404
 C123 C 0.44245 0.93643 -0.03576
 C124 C 0.44054 1.05335 -0.03919
 C125 C 0.55767 0.94746 -0.04026
 O126 O 0.97557 0.56571 0.53491
 O127 O 1.02239 0.43284 0.53329
 O128 O 0.93572 0.48186 0.53596
 O129 O 1.06189 0.51562 0.53600
 O130 O 0.95980 0.42730 0.52312
 O131 O 1.03822 0.57100 0.52483
 O132 O 1.07082 0.45201 0.51423
 O133 O 0.92686 0.54662 0.51593
 C134 C 0.94185 0.56345 0.53572
 C135 C 1.05611 0.43513 0.53404
 C136 C 0.94091 0.44664 0.54023
 C137 C 1.05701 0.55060 0.54132
 O138 O 1.02178 0.56690 0.46749
 O139 O 0.97581 0.43386 0.46602
 O140 O 0.93518 0.51705 0.46537
 O141 O 1.06157 0.48415 0.46453
 O142 O 1.03836 0.42870 0.47591
 O143 O 0.95912 0.57185 0.47793
 O144 O 1.07042 0.54779 0.48629
 O145 O 0.92714 0.45221 0.48534
 Co146 Co 0.99872 0.56264 0.50121
 Co147 Co 0.99908 0.43687 0.49968
 Co148 Co 0.93829 0.49945 0.50064
 Co149 Co 1.05912 0.49986 0.50028
 O150 O 0.99877 0.49971 0.50046
 C151 C 1.05549 0.56458 0.46653
 C152 C 0.94209 0.43613 0.46523
 C153 C 0.94020 0.55225 0.46097
 C154 C 1.05669 0.44917 0.45922
 O155 O 1.04358 0.47948 0.04817
 O156 O 1.04416 0.52048 -0.04767
 O157 O 1.04314 0.43298 -0.01565
 O158 O 1.04354 0.56699 0.01598
 O159 O 1.02182 0.45485 -0.05362
 O160 O 1.02189 0.54535 0.05392
 O161 O 1.02475 0.57452 -0.03124
 O162 O 1.02390 0.42567 0.03153
 C163 C 1.04742 0.44378 0.04546
 C164 C 1.04820 0.55618 -0.04510
 C165 C 1.04630 0.43650 -0.04116
 C166 C 1.04647 0.56362 0.04152
 O167 O 0.95167 0.52046 0.04809
 O168 O 0.95187 0.48057 -0.04805
 O169 O 0.95199 0.43310 0.01522
 O170 O 0.95257 0.56758 -0.01517
 O171 O 0.97423 0.54609 -0.05323
 O172 O 0.97336 0.45464 0.05340
 O173 O 0.97148 0.57446 0.03217
 O174 O 0.97102 0.42627 -0.03212
 Co175 Co 0.99765 0.50002 0.04573
 Co176 Co 0.99801 0.50046 -0.04549
 Co177 Co 0.99755 0.43652 -0.00024
 Co178 Co 0.99805 0.56387 0.00040
 O179 O 0.99781 0.50021 0.00010
 C180 C 0.94778 0.55617 0.04571
 C181 C 0.94756 0.44492 -0.04571
 C182 C 0.94902 0.43617 0.04080
 C183 C 0.94969 0.56438 -0.04074
 O184 O 0.54456 0.98061 0.54741
 O185 O 0.54382 1.02147 0.45139
 O186 O 0.54501 0.93328 0.48538
 O187 O 0.54414 1.06831 0.51367
 O188 O 0.52456 0.95515 0.44689
 O189 O 0.52405 1.04633 0.55216
 O190 O 0.52259 1.07512 0.46663
 O191 O 0.52420 0.92641 0.53254
 C192 C 0.54825 0.94487 0.54553
 C193 C 0.54678 1.05730 0.45333
 C194 C 0.54873 0.93689 0.45987
 C195 C 0.54810 1.06465 0.53915
 O196 O 0.45290 1.02226 0.54727
 O197 O 0.45299 0.97769 0.45191
 O198 O 0.45329 0.93296 0.51501
 O199 O 0.45212 1.06719 0.48457
 O200 O 0.47215 1.04380 0.44632
 O201 O 0.47346 0.95666 0.55308
 O202 O 0.47331 1.07584 0.53148
 O203 O 0.47433 0.92461 0.46792
 Co204 Co 0.49872 1.00136 0.54498
 Co205 Co 0.49840 0.99963 0.45414
 Co206 Co 0.49913 0.93654 0.50015
 Co207 Co 0.49811 1.06438 0.49916
 O208 O 0.49855 1.00047 0.49960
 C209 C 0.44942 1.05798 0.54501
 C210 C 0.45009 0.94194 0.45438
 C211 C 0.44978 0.93707 0.54051
 C212 C 0.44833 1.06295 0.45911
 O213 O 1.06536 1.04850 0.48390
 O214 O 0.93918 1.04597 0.51960
 O215 O 0.98639 1.05239 0.45395
 O216 O 1.01775 1.04757 0.54956
 O217 O 0.93446 1.03484 0.47155
 O218 O 1.07000 1.03271 0.53113
 O219 O 0.95767 1.01655 0.55493
 O220 O 1.04685 1.02287 0.44694
 C221 C 1.06190 1.05072 0.45844
 C222 C 0.94254 1.04552 0.54515
 C223 C 0.95307 1.05853 0.45722
 C224 C 1.05093 1.05474 0.54655
 O225 O 1.06586 0.95252 0.51683
 O226 O 0.93956 0.95358 0.48113
 O227 O 1.01826 0.95297 0.45103
 O228 O 0.98733 0.94771 0.54662
 O229 O 0.93506 0.96449 0.52918
 O230 O 1.07032 0.96844 0.46955
 O231 O 1.04732 0.97806 0.55379
 O232 O 0.95776 0.98307 0.44570
 Co233 Co 1.06200 1.00050 0.50035
 Co234 Co 0.94294 0.99977 0.50038
 Co235 Co 1.00233 1.00256 0.45462
 Co236 Co 1.00251 0.99775 0.54602
 O237 O 1.00244 1.00015 0.50033
 C238 C 1.06272 0.95040 0.54232
 C239 C 0.94263 0.95414 0.45556
 C240 C 1.05151 0.94620 0.45410
 C241 C 0.95413 0.94096 0.54331
 O242 O 0.57750 0.54007 -0.02633
 O243 O 0.44603 0.54112 0.02055
 O244 O 0.46453 0.55823 -0.02874
 O245 O 0.53993 0.50148 0.05613
 O246 O 0.42240 0.51765 -0.02627
 O247 O 0.57223 0.53632 0.02641
 O248 O 0.47451 0.51523 0.05491
 O249 O 0.52679 0.56936 -0.03202
 C250 C 0.56034 0.56900 -0.03493
 C251 C 0.45429 0.54170 0.04574
 C252 C 0.43265 0.54964 -0.03507
 C253 C 0.56159 0.52949 0.05085
 O254 O 0.57700 0.46091 0.02304
 O255 O 0.45161 0.45132 -0.02059
 O256 O 0.53773 0.49916 -0.05877
 O257 O 0.46195 0.44541 0.02962
 O258 O 0.41206 0.47648 0.01935
 O259 O 0.57252 0.46554 -0.02981
 O260 O 0.52611 0.43184 0.03023
 O261 O 0.47229 0.48625 -0.05516
 Co262 Co 0.56832 0.50080 -0.00158
 Co263 Co 0.45133 0.49579 0.00083
 Co264 Co 0.50063 0.52628 -0.04058
 Co265 Co 0.50106 0.47572 0.03917
 O266 O 0.50750 0.50117 -0.00151
 C267 C 0.55992 0.43209 0.03224
 C268 C 0.45747 0.45521 -0.04630
 C269 C 0.56046 0.47187 -0.05396
 C270 C 0.42851 0.45151 0.03532
 N271 N 0.31838 1.15529 0.18345
 C272 C 0.31569 1.16880 0.15700
 N273 N 0.29410 1.20027 0.15178
 N274 N 0.27633 1.21815 0.17256
 C275 C 0.27953 1.20507 0.19920
 N276 N 0.30068 1.17316 0.20416
 C277 C 0.33729 1.15120 0.13529
 C278 C 0.35621 1.13607 0.11767
 C279 C 0.37872 1.11754 0.09690
 N280 N 0.41594 1.12023 0.09798
 N281 N 0.43670 1.10275 0.07867
 C282 C 0.42080 1.08194 0.05772
 N283 N 0.38356 1.07927 0.05681
 N284 N 0.36288 1.09671 0.07607
 N285 N 0.80984 0.65306 0.68036
 C286 C 0.81229 0.67016 0.65497
 N287 N 0.79589 0.70526 0.65084
 N288 N 0.77835 0.72314 0.67173
 C289 C 0.77655 0.70643 0.69739
 N290 N 0.79238 0.67093 0.70120
 C291 C 0.83439 0.65249 0.63357
 C292 C 0.85371 0.63726 0.61622
 C293 C 0.87665 0.61855 0.59579
 N294 N 0.91385 0.62142 0.59718
 N295 N 0.93498 0.60372 0.57820
 C296 C 0.91949 0.58250 0.55729
 N297 N 0.88228 0.57965 0.55607
 N298 N 0.86122 0.59731 0.57499
 N299 N 0.67419 0.84262 0.18441
 C300 C 0.67825 0.82959 0.15787
 N301 N 0.70105 0.79901 0.15279
 N302 N 0.71879 0.78163 0.17373
 C303 C 0.71438 0.79435 0.20042
 N304 N 0.69187 0.82526 0.20530
 C305 C 0.65727 0.84703 0.13577
 C306 C 0.63898 0.86201 0.11771
 C307 C 0.61716 0.88030 0.09645
 N308 N 0.63362 0.90098 0.07589
 N309 N 0.61352 0.91831 0.05626
 C310 C 0.57626 0.91562 0.05652
 N311 N 0.55977 0.89494 0.07717
 N312 N 0.57992 0.87759 0.09683
 N313 N 1.18344 0.35114 0.68274
 C314 C 1.18636 0.33696 0.65641
 N315 N 1.20868 0.30592 0.65151
 N316 N 1.22685 0.28905 0.67246
 C317 C 1.22339 0.30277 0.69899
 N318 N 1.20155 0.33428 0.70364
 C319 C 1.16416 0.35320 0.63452
 C320 C 1.14477 0.36704 0.61665
 C321 C 1.12173 0.38400 0.59554
 N322 N 1.08455 0.38070 0.59685
 N323 N 1.06332 0.39693 0.57733
 C324 C 1.07867 0.41702 0.55588
 N325 N 1.11585 0.42025 0.55469
 N326 N 1.13701 0.40407 0.57417
 N327 N 0.69992 1.20438 -0.15143
 C328 C 0.67973 1.17160 -0.15582
 N329 N 0.67820 1.15609 -0.18182
 N330 N 0.69576 1.17311 -0.20290
 C331 C 0.71564 1.20618 -0.19875
 N332 N 0.71756 1.22142 -0.17256
 C333 C 0.65870 1.15430 -0.13369
 C334 C 0.64034 1.13915 -0.11577
 C335 C 0.61836 1.12040 -0.09480
 N336 N 0.58112 1.12299 -0.09541
 N337 N 0.56081 1.10501 -0.07614
 C338 C 0.57714 1.08376 -0.05569
 N339 N 0.61440 1.08121 -0.05521
 N340 N 0.63466 1.09916 -0.07444
 N341 N 1.18083 0.64892 0.31663
 C342 C 1.18469 0.66200 0.34318
 N343 N 1.20811 0.69199 0.34841
 N344 N 1.22649 0.70890 0.32759
 C345 C 1.22215 0.69628 0.30086
 N346 N 1.19914 0.66583 0.29586
 C347 C 1.16250 0.64568 0.36507
 C348 C 1.14322 0.63188 0.38302
 C349 C 1.12039 0.61504 0.40432
 N350 N 1.13593 0.59520 0.42571
 N351 N 1.11500 0.57924 0.44541
 C352 C 1.07780 0.58250 0.44446
 N353 N 1.06220 0.60237 0.42299
 N354 N 1.08320 0.61837 0.40323
 N355 N 0.31812 0.84463 -0.18353
 C356 C 0.31526 0.83130 -0.15705
 N357 N 0.29381 0.79974 -0.15183
 N358 N 0.27637 0.78158 -0.17265
 C359 C 0.27978 0.79444 -0.19933
 N360 N 0.30076 0.82648 -0.20429
 C361 C 0.33673 0.84900 -0.13533
 C362 C 0.35563 0.86414 -0.11769
 C363 C 0.37818 0.88259 -0.09693
 N364 N 0.41538 0.87946 -0.09787
 N365 N 0.43620 0.89680 -0.07854
 C366 C 0.42040 0.91789 -0.05771
 N367 N 0.38319 0.92102 -0.05693
 N368 N 0.36243 0.90372 -0.07622
 N369 N 0.79100 0.30581 0.34767
 C370 C 0.81354 0.33644 0.34227
 N371 N 0.81736 0.34888 0.31562
 N372 N 0.79990 0.33071 0.29490
 C373 C 0.77786 0.29957 0.30008
 N374 N 0.77348 0.28763 0.32690
 C375 C 0.83529 0.35374 0.36403
 C376 C 0.85439 0.36819 0.38185
 C377 C 0.87718 0.38554 0.40298
 N378 N 0.86164 0.40535 0.42444
 N379 N 0.88258 0.42148 0.44412
 C380 C 0.91979 0.41843 0.44304
 N381 N 0.93538 0.39864 0.42148
 N382 N 0.91437 0.38246 0.40175
 N383 N 1.21402 0.31131 0.15231
 C384 C 1.17686 0.31470 0.15233
 N385 N 1.15752 0.29904 0.17374
 N386 N 1.17478 0.28136 0.19476
 C387 C 1.21204 0.27846 0.19513
 N388 N 1.23126 0.29358 0.17335
 C389 C 1.15823 0.33715 0.13118
 C390 C 1.14159 0.35653 0.11428
 C391 C 1.12031 0.37948 0.09493
 N392 N 1.09913 0.36159 0.07544
 N393 N 1.07696 0.38241 0.05907
 C394 C 1.07513 0.42190 0.06153
 N395 N 1.09666 0.43986 0.08088
 N396 N 1.11885 0.41899 0.09730
 N397 N 0.68325 0.78495 0.65502
 C398 C 0.68564 0.82421 0.65147
 N399 N 0.70557 0.84551 0.66988
 N400 N 0.72239 0.82826 0.69122
 C401 C 0.72015 0.78903 0.69495
 N402 N 0.70020 0.76763 0.67642
 C403 C 0.66490 0.84381 0.63007
 C404 C 0.64676 0.86152 0.61317
 C405 C 0.62402 0.88320 0.59410
 N406 N 0.62287 0.92281 0.59526
 N407 N 0.59957 0.94276 0.57917
 C408 C 0.57660 0.92374 0.56137
 N409 N 0.57809 0.88413 0.56010
 N410 N 0.60136 0.86421 0.57617
 N411 N 1.15843 0.69752 -0.17519
 C412 C 1.17749 0.68396 -0.15290
 N413 N 1.21441 0.68946 -0.15199
 N414 N 1.23174 0.70718 -0.17299
 C415 C 1.21284 0.72019 -0.19563
 N416 N 1.17578 0.71518 -0.19617
 C417 C 1.15891 0.66168 -0.13161
 C418 C 1.14232 0.64249 -0.11458
 C419 C 1.12107 0.61976 -0.09505
 N420 N 1.11945 0.58024 -0.09725
 N421 N 1.09730 0.55959 -0.08066
 C422 C 1.07597 0.57780 -0.06130
 N423 N 1.07797 0.61730 -0.05901
 N424 N 1.10009 0.63789 -0.07555
 N425 N 0.71621 1.17789 0.34376
 C426 C 0.68034 1.18589 0.34888
 N427 N 0.66288 1.21261 0.33275
 N428 N 0.68051 1.23015 0.31183
 C429 C 0.71631 1.22174 0.30632
 N430 N 0.73378 1.19543 0.32284
 C431 C 0.66019 1.16373 0.36935
 C432 C 0.64256 1.14452 0.38574
 C433 C 0.62036 1.12171 0.40457
 N434 N 0.59780 1.13973 0.42306
 N435 N 0.57525 1.11893 0.43912
 C436 C 0.57440 1.07934 0.43732
 N437 N 0.59726 1.06126 0.41894
 N438 N 0.61984 1.08211 0.40284
 N439 N 0.77921 0.67033 0.15971
 C440 C 0.81290 0.68239 0.15127
 N441 N 0.82875 0.71324 0.16443
 N442 N 0.81174 0.73100 0.18564
 C443 C 0.77817 0.71867 0.19440
 N444 N 0.76224 0.68808 0.18090
 C445 C 0.83299 0.66053 0.13048
 C446 C 0.85071 0.64166 0.11383
 C447 C 0.87309 0.61924 0.09475
 N448 N 0.89495 0.63764 0.07603
 N449 N 0.91779 0.61726 0.05982
 C450 C 0.91964 0.57773 0.06170
 N451 N 0.89747 0.55928 0.08030
 N452 N 0.87460 0.57970 0.09654
 N453 N 0.28420 1.17460 0.65983
 C454 C 0.31753 1.18682 0.65074
 N455 N 0.33343 1.21816 0.66325
 N456 N 0.31677 1.23630 0.68445
 C457 C 0.28354 1.22385 0.69384
 N458 N 0.26762 1.19274 0.68101
 C459 C 0.33717 1.16462 0.62995
 C460 C 0.35441 1.14536 0.61330
 C461 C 0.37618 1.12245 0.59419
 N462 N 0.39800 1.14035 0.57522
 N463 N 0.42037 1.11949 0.55896
 C464 C 0.42175 1.07997 0.56105
 N465 N 0.39960 1.06200 0.57990
 N466 N 0.37721 1.08291 0.59619
 N467 N 0.82513 0.28729 -0.16221
 C468 C 0.81137 0.32114 -0.15174
 N469 N 0.78002 0.33587 -0.16285
 N470 N 0.76332 0.31766 -0.18398
 C471 C 0.77719 0.28398 -0.19474
 N472 N 0.80840 0.26909 -0.18334
 C473 C 0.83150 0.34286 -0.13089
 C474 C 0.84938 0.36142 -0.11417
 C475 C 0.87205 0.38334 -0.09499
 N476 N 0.87403 0.42287 -0.09658
 N477 N 0.89719 0.44280 -0.08027
 C478 C 0.91919 0.42386 -0.06179
 N479 N 0.91688 0.38434 -0.06010
 N480 N 0.89375 0.36445 -0.07638
 N481 N 0.28342 0.81851 0.34373
 C482 C 0.31885 0.81006 0.35008
 N483 N 0.33670 0.78242 0.33492
 N484 N 0.31989 0.76438 0.31375
 C485 C 0.28456 0.77321 0.30702
 N486 N 0.26667 0.80047 0.32257
 C487 C 0.33829 0.83273 0.37072
 C488 C 0.35542 0.85241 0.38720
 C489 C 0.37712 0.87584 0.40604
 N490 N 0.39951 0.85845 0.42490
 N491 N 0.42182 0.87981 0.44087
 C492 C 0.42257 0.91934 0.43861
 N493 N 0.39986 0.93678 0.41988
 N494 N 0.37752 0.91537 0.40387
 N495 N 1.15337 1.21092 0.32680
 C496 C 1.16629 1.17850 0.33962
 N497 N 1.19664 1.16054 0.32936
 N498 N 1.21439 1.17543 0.30753
 C499 C 1.20222 1.20863 0.29517
 N500 N 1.17112 1.22580 0.30498
 C501 C 1.14774 1.16295 0.36344
 C502 C 1.13168 1.14853 0.38278
 C503 C 1.11147 1.12861 0.40400
 N504 N 1.12452 1.12530 0.43048
 N505 N 1.10763 1.10216 0.44886
 C506 C 1.07734 1.08163 0.44112
 N507 N 1.06418 1.08567 0.41479
 N508 N 1.08086 1.10880 0.39658
 N509 N 0.64867 0.72080 -0.17520
 C510 C 0.65644 0.68493 -0.16485
 N511 N 0.68355 0.66351 -0.17680
 N512 N 0.70304 0.67793 -0.19791
 C513 C 0.69614 0.71427 -0.20785
 N514 N 0.66818 0.73521 -0.19637
 C515 C 0.63818 0.67060 -0.14036
 C516 C 0.62431 0.65726 -0.11960
 C517 C 0.60899 0.63919 -0.09522
 N518 N 0.62961 0.61394 -0.08010
 N519 N 0.61456 0.59338 -0.05950
 C520 C 0.57838 0.59751 -0.05318
 N521 N 0.55795 0.62346 -0.06799
 N522 N 0.57301 0.64401 -0.08864
 N523 N 0.85138 1.20903 0.67824
 C524 C 0.84141 1.17432 0.66689
 N525 N 0.81217 1.15497 0.67758
 N526 N 0.79264 1.17050 0.69833
 C527 C 0.80176 1.20581 0.70920
 N528 N 0.83182 1.22455 0.69901
 C529 C 0.86098 1.15829 0.64355
 C530 C 0.87692 1.14312 0.62432
 C531 C 0.89603 1.12211 0.60287
 N532 N 0.92298 1.09705 0.61032
 N533 N 0.93842 1.07390 0.59137
 C534 C 0.92759 1.07492 0.56427
 N535 N 0.90091 1.10051 0.55660
 N536 N 0.88528 1.12370 0.57569
 N537 N 0.32358 0.64749 0.18180
 C538 C 0.34883 0.66883 0.16766
 N539 N 0.35357 0.70693 0.17453
 N540 N 0.33307 0.72334 0.19443
 C541 C 0.30708 0.70233 0.20816
 N542 N 0.30308 0.66393 0.20169
 C543 C 0.36945 0.65146 0.14516
 C544 C 0.38625 0.63593 0.12640
 C545 C 0.40603 0.61558 0.10476
 N546 N 0.39425 0.61618 0.07782
 N547 N 0.41066 0.59412 0.05845
 C548 C 0.43942 0.57075 0.06541
 N549 N 0.45135 0.57069 0.09229
 N550 N 0.43503 0.59272 0.11159
 N551 N 1.15640 0.78658 0.67148
 C552 C 1.16845 0.82011 0.65968
 N553 N 1.19792 0.83868 0.67085
 N554 N 1.21562 0.82343 0.69259
 C555 C 1.20430 0.78923 0.70396
 N556 N 1.17410 0.77134 0.69321
 C557 C 1.14975 0.83636 0.63612
 C558 C 1.13358 0.85145 0.61707
 C559 C 1.11324 0.87218 0.59627
 N560 N 1.12521 0.87482 0.56945
 N561 N 1.10812 0.89824 0.55134
 C562 C 1.07870 0.91975 0.55967
 N563 N 1.06664 0.91644 0.58636
 N564 N 1.08352 0.89304 0.60431
 N565 N 0.65296 0.28046 0.17068
 C566 C 0.65852 0.31783 0.16246
 N567 N 0.68293 0.34025 0.17669
 N568 N 0.70198 0.32545 0.19795
 C569 C 0.69732 0.28767 0.20573
 N570 N 0.67200 0.26568 0.19196
 C571 C 0.64059 0.33284 0.13797
 C572 C 0.62652 0.34619 0.11725
 C573 C 0.61048 0.36378 0.09288
 N574 N 0.63060 0.38863 0.07706
 N575 N 0.61492 0.40848 0.05634
 C576 C 0.57859 0.40403 0.05059
 N577 N 0.55867 0.37849 0.06612
 N578 N 0.57436 0.35864 0.08687
 N579 N 0.81402 0.84649 0.32012
 C580 C 0.83957 0.82553 0.33424
 N581 N 0.84630 0.78816 0.32648
 N582 N 0.82708 0.77182 0.30586
 C583 C 0.80056 0.79226 0.29228
 N584 N 0.79478 0.83012 0.29951
 C585 C 0.85863 0.84253 0.35748
 C586 C 0.87453 0.85802 0.37660
 C587 C 0.89397 0.87896 0.39793
 N588 N 0.92106 0.90372 0.39032
 N589 N 0.93720 0.92639 0.40923
 C590 C 0.92699 0.92512 0.43646
 N591 N 0.90016 0.89983 0.44428
 N592 N 0.88383 0.87711 0.42523
 N593 N 0.32423 0.34996 -0.18012
 C594 C 0.35221 0.32925 -0.16870
 N595 N 0.35854 0.29235 -0.17784
 N596 N 0.33704 0.27642 -0.19735
 C597 C 0.30845 0.29679 -0.20840
 N598 N 0.30274 0.33402 -0.19960
 C599 C 0.37406 0.34605 -0.14666
 C600 C 0.39155 0.36139 -0.12819
 C601 C 0.41157 0.38180 -0.10671
 N602 N 0.40378 0.37617 -0.07926
 N603 N 0.41969 0.39823 -0.05965
 C604 C 0.44389 0.42668 -0.06688
 N605 N 0.45191 0.43180 -0.09432
 N606 N 0.43611 0.40976 -0.11386
 N607 N 1.18212 0.27849 -0.15214
 C608 C 1.18698 0.31665 -0.14533
 N609 N 1.20883 0.33905 -0.16164
 N610 N 1.22518 0.32392 -0.18406
 C611 C 1.22040 0.28582 -0.19105
 N612 N 1.19860 0.26332 -0.17460
 C613 C 1.16574 0.33470 -0.12346
 C614 C 1.14675 0.35186 -0.10676
 C615 C 1.12253 0.37427 -0.08915
 N616 N 1.09954 0.40053 -0.10102
 N617 N 1.07600 0.42081 -0.08544
 C618 C 1.07460 0.41575 -0.05736
 N619 N 1.09786 0.38959 -0.04537
 N620 N 1.12148 0.36919 -0.06103
 N621 N 0.66084 0.78506 0.33818
 C622 C 0.68084 0.80679 0.35637
 N623 N 0.71719 0.81210 0.35144
 N624 N 0.73289 0.79649 0.32887
 C625 C 0.71286 0.77522 0.31035
 N626 N 0.67657 0.76951 0.31562
 C627 C 0.66262 0.82811 0.37827
 C628 C 0.64578 0.84753 0.39500
 C629 C 0.62363 0.87213 0.41262
 N630 N 0.60298 0.90050 0.40078
 N631 N 0.58016 0.92188 0.41622
 C632 C 0.57720 0.91582 0.44412
 N633 N 0.59825 0.88765 0.45612
 N634 N 0.62111 0.86612 0.44059
 N635 N 0.81683 0.72675 -0.15078
 C636 C 0.81546 0.68754 -0.14680
 N637 N 0.79846 0.66492 -0.16610
 N638 N 0.78322 0.68086 -0.18861
 C639 C 0.78433 0.72004 -0.19270
 N640 N 0.80145 0.74275 -0.17334
 C641 C 0.83511 0.66925 -0.12429
 C642 C 0.85285 0.65162 -0.10714
 C643 C 0.87576 0.62838 -0.08923
 N644 N 0.89781 0.60096 -0.10084
 N645 N 0.92047 0.58002 -0.08506
 C646 C 0.92186 0.58554 -0.05701
 N647 N 0.89948 0.61282 -0.04524
 N648 N 0.87674 0.63390 -0.06112
 N649 N 0.28828 1.20790 0.35435
 C650 C 0.32373 1.19582 0.35289
 N651 N 0.34250 1.20069 0.32871
 N652 N 0.32625 1.21657 0.30656
 C653 C 0.29060 1.22824 0.30773
 N654 N 0.27206 1.22387 0.33216
 C655 C 0.34039 1.17448 0.37540
 C656 C 0.35587 1.15474 0.39262
 C657 C 0.37643 1.12946 0.41076
 N658 N 0.37930 1.13655 0.43861
 N659 N 0.40101 1.11437 0.45454
 C660 C 0.42050 1.08446 0.44309
 N661 N 0.41714 1.07733 0.41532
 N662 N 0.39547 1.09934 0.39948
 N663 N 1.21317 0.66701 0.15786
 C664 C 1.18518 0.68647 0.14547
 N665 N 1.17450 0.72143 0.15615
 N666 N 1.19123 0.73633 0.17858
 C667 C 1.21915 0.71671 0.19116
 N668 N 1.22980 0.68186 0.18027
 C669 C 1.16412 0.66764 0.12385
 C670 C 1.14543 0.64992 0.10725
 C671 C 1.12167 0.62698 0.08965
 N672 N 1.12089 0.63172 0.06149
 N673 N 1.09764 0.61090 0.04579
 C674 C 1.07452 0.58464 0.05778
 N675 N 1.07567 0.57989 0.08589
 N676 N 1.09884 0.60059 0.10151
 N677 N 0.68607 1.22535 0.64788
 C678 C 0.68466 1.18599 0.64451
 N679 N 0.69861 1.16277 0.66473
 N680 N 0.71360 1.17823 0.68755
 C681 C 0.71530 1.21752 0.69105
 N682 N 0.70123 1.24086 0.67077
 C683 C 0.66504 1.16843 0.62164
 C684 C 0.64714 1.15109 0.60438
 C685 C 0.62391 1.12790 0.58660
 N686 N 0.60300 1.09964 0.59826
 N687 N 0.57980 1.07889 0.58274
 C688 C 0.57672 1.08544 0.55491
 N689 N 0.59799 1.11353 0.54307
 N690 N 0.62127 1.13445 0.55869
 N691 N 0.83990 0.28601 0.16518
 C692 C 0.81978 0.30470 0.14547
 N693 N 0.78282 0.30711 0.14870
 N694 N 0.76663 0.29171 0.17108
 C695 C 0.78673 0.27349 0.19110
 N696 N 0.82368 0.27065 0.18755
 C697 C 0.83801 0.32588 0.12355
 C698 C 0.85467 0.34527 0.10673
 C699 C 0.87643 0.36996 0.08894
 N700 N 0.87779 0.36453 0.06083
 N701 N 0.89996 0.38643 0.04506
 C702 C 0.92141 0.41444 0.05694
 N703 N 0.91962 0.41988 0.08499
 N704 N 0.89752 0.39814 0.10067
 N705 N 0.29086 0.79208 0.64602
 C706 C 0.32664 0.80300 0.64745
 N707 N 0.34548 0.79685 0.67147
 N708 N 0.32900 0.78086 0.69348
 C709 C 0.29302 0.77034 0.69234
 N710 N 0.27441 0.77601 0.66807
 C711 C 0.34360 0.82446 0.62509
 C712 C 0.35910 0.84424 0.60787
 C713 C 0.37946 0.86955 0.58958
 N714 N 0.38178 0.86266 0.56167
 N715 N 0.40302 0.88507 0.54553
 C716 C 0.42255 0.91507 0.55682
 N717 N 0.41975 0.92198 0.58466
 N718 N 0.39856 0.89973 0.60071
 N719 N 0.29808 1.20305 -0.15040
 C720 C 0.31370 1.16776 -0.15549
 N721 N 0.31134 1.15210 -0.18140
 N722 N 0.29446 1.17138 -0.20177
 C723 C 0.27925 1.20696 -0.19696
 N724 N 0.28111 1.22236 -0.17082
 C725 C 0.33494 1.14835 -0.13453
 C726 C 0.35386 1.13164 -0.11775
 C727 C 0.37693 1.11149 -0.09830
 N728 N 0.40087 1.13156 -0.08200
 N729 N 0.42200 1.11284 -0.06368
 C730 C 0.42006 1.07341 -0.06122
 N731 N 0.39628 1.05336 -0.07776
 N732 N 0.37515 1.07209 -0.09607
 N733 N 0.81350 0.64947 0.31820
 C734 C 0.81140 0.66268 0.34478
 N735 N 0.79101 0.69488 0.35053
 N736 N 0.77359 0.71363 0.33007
 C737 C 0.77614 0.70074 0.30330
 N738 N 0.79618 0.66820 0.29781
 C739 C 0.83280 0.64422 0.36592
 C740 C 0.85203 0.62820 0.38273
 C741 C 0.87553 0.60872 0.40204
 N742 N 0.89951 0.62933 0.41794
 N743 N 0.92112 0.61112 0.43617
 C744 C 0.91959 0.57172 0.43889
 N745 N 0.89581 0.55114 0.42272
 N746 N 0.87421 0.56936 0.40449
 N747 N 0.68933 1.14419 0.18368
 C748 C 0.69110 1.15687 0.15698
 N749 N 0.71112 1.18920 0.15101
 N750 N 0.72825 1.20871 0.17132
 C751 C 0.72584 1.19651 0.19821
 N752 N 0.70636 1.16370 0.20393
 C753 C 0.66906 1.13838 0.13606
 C754 C 0.64916 1.12288 0.11932
 C755 C 0.62476 1.10442 0.09994
 N756 N 0.60126 1.12606 0.08438
 N757 N 0.57891 1.10888 0.06605
 C758 C 0.57917 1.06948 0.06289
 N759 N 0.60248 1.04788 0.07872
 N760 N 0.62482 1.06507 0.09703
 N761 N 1.20742 0.69151 0.65041
 C762 C 1.19201 0.65633 0.65583
 N763 N 1.19503 0.64092 0.68170
 N764 N 1.21229 0.66051 0.70178
 C765 C 1.22712 0.69614 0.69669
 N766 N 1.22475 0.71108 0.67054
 C767 C 1.16926 0.63761 0.63560
 C768 C 1.14881 0.62205 0.61937
 C769 C 1.12391 0.60364 0.60050
 N770 N 1.12418 0.56434 0.59741
 N771 N 1.10167 0.54723 0.57922
 C772 C 1.07803 0.56888 0.56373
 N773 N 1.07751 0.60822 0.56713
 N774 N 1.10003 0.62533 0.58534
 N775 N 0.70841 0.80413 -0.14964
 C776 C 0.69409 0.84019 -0.15394
 N777 N 0.69819 0.85727 -0.17919
 N778 N 0.71528 0.83850 -0.19979
 C779 C 0.72895 0.80205 -0.19585
 N780 N 0.72559 0.78536 -0.17028
 C781 C 0.67138 0.85843 -0.13329
 C782 C 0.65097 0.87401 -0.11693
 C783 C 0.62604 0.89284 -0.09811
 N784 N 0.62608 0.93224 -0.09553
 N785 N 0.60328 0.94979 -0.07774
 C786 C 0.57947 0.92853 -0.06211
 N787 N 0.57923 0.88908 -0.06496
 N788 N 0.60204 0.87152 -0.08277
 N789 N 1.20286 0.30609 0.34896
 C790 C 1.18906 0.34208 0.34373
 N791 N 1.19360 0.35803 0.31816
 N792 N 1.21084 0.33822 0.29817
 C793 C 1.22413 0.30183 0.30308
 N794 N 1.22016 0.28630 0.32893
 C795 C 1.16657 0.36133 0.36384
 C796 C 1.14644 0.37726 0.38010
 C797 C 1.12196 0.39590 0.39915
 N798 N 1.12274 0.43517 0.40241
 N799 N 1.10075 0.45242 0.42090
 C800 C 1.07717 0.43091 0.43654
 N801 N 1.07615 0.39163 0.43296
 N802 N 1.09814 0.37439 0.41445
 N803 N 0.31560 0.84640 0.18334
 C804 C 0.31412 0.83313 0.15672
 N805 N 0.29488 0.80013 0.15097
 N806 N 0.27804 0.78069 0.17139
 C807 C 0.27998 0.79366 0.19819
 N808 N 0.29886 0.82698 0.20370
 C809 C 0.33496 0.85248 0.13551
 C810 C 0.35363 0.86904 0.11851
 C811 C 0.37651 0.88893 0.09881
 N812 N 0.37495 0.92832 0.09647
 N813 N 0.39601 0.94679 0.07799
 C814 C 0.41951 0.92648 0.06139
 N815 N 0.42122 0.88705 0.06395
 N816 N 0.40016 0.86859 0.08243
 N817 N 0.79705 0.29713 0.64987
 C818 C 0.81093 0.33338 0.65427
 N819 N 0.80630 0.35071 0.67943
 N820 N 0.78887 0.33212 0.69982
 C821 C 0.77542 0.29559 0.69576
 N822 N 0.77951 0.27852 0.67032
 C823 C 0.83294 0.35214 0.63361
 C824 C 0.85251 0.36860 0.61724
 C825 C 0.87626 0.38868 0.59840
 N826 N 0.90066 0.36858 0.58255
 N827 N 0.92231 0.38731 0.56463
 C828 C 0.92041 0.42673 0.56218
 N829 N 0.89621 0.44681 0.57832
 N830 N 0.87457 0.42808 0.59624
 N831 N 1.14984 1.21778 0.67640
 C832 C 1.15323 1.17910 0.67096
 N833 N 1.17683 1.15750 0.68647
 N834 N 1.19719 1.17426 0.70629
 C835 C 1.19472 1.21323 0.71123
 N836 N 1.17018 1.23451 0.69623
 C837 C 1.13401 1.16168 0.64789
 C838 C 1.11880 1.14644 0.62831
 C839 C 1.10132 1.12695 0.60529
 N840 N 1.12180 1.10795 0.58587
 N841 N 1.10567 1.08656 0.56606
 C842 C 1.06847 1.08359 0.56495
 N843 N 1.04803 1.10320 0.58416
 N844 N 1.06417 1.12457 0.60396
 N845 N 0.64496 0.70056 0.17947
 C846 C 0.64769 0.66116 0.17799
 N847 N 0.67176 0.64236 0.19481
 N848 N 0.69284 0.66240 0.21242
 C849 C 0.69071 0.70192 0.21364
 N850 N 0.66604 0.72062 0.19714
 C851 C 0.62846 0.63992 0.15694
 C852 C 0.61424 0.62146 0.13857
 C853 C 0.59941 0.59900 0.11614
 N854 N 0.57610 0.56903 0.12128
 N855 N 0.56398 0.54680 0.10038
 C856 C 0.57502 0.55371 0.07377
 N857 N 0.59831 0.58379 0.06871
 N858 N 0.61041 0.60601 0.08960
 N859 N 1.15080 0.78300 0.32468
 C860 C 1.15492 0.82152 0.33038
 N861 N 1.17899 0.84280 0.31507
 N862 N 1.19906 0.82585 0.29517
 C863 C 1.19581 0.78702 0.28993
 N864 N 1.17087 0.76608 0.30476
 C865 C 1.13574 0.83913 0.35339
 C866 C 1.12045 0.85449 0.37287
 C867 C 1.10275 0.87407 0.39575
 N868 N 1.06558 0.87608 0.39700
 N869 N 1.04919 0.89746 0.41667
 C870 C 1.06939 0.91745 0.43582
 N871 N 1.10662 0.91486 0.43479
 N872 N 1.12302 0.89347 0.41511
 N873 N 0.64248 0.29918 -0.18171
 C874 C 0.64488 0.33864 -0.18079
 N875 N 0.66940 0.35710 -0.19739
 N876 N 0.69121 0.33669 -0.21427
 C877 C 0.68941 0.29713 -0.21489
 N878 N 0.66428 0.27875 -0.19864
 C879 C 0.62525 0.36032 -0.16018
 C880 C 0.61099 0.37910 -0.14198
 C881 C 0.59655 0.40176 -0.11950
 N882 N 0.57248 0.43117 -0.12438
 N883 N 0.56087 0.45363 -0.10342
 C884 C 0.57324 0.44752 -0.07703
 N885 N 0.59728 0.41800 -0.07225
 N886 N 0.60884 0.39556 -0.09319
 N887 N 0.85129 1.21635 0.32636
 C888 C 0.84731 1.17836 0.33354
 N889 N 0.82334 1.15572 0.31907
 N890 N 0.80322 1.17087 0.29852
 C891 C 0.80633 1.20921 0.29180
 N892 N 0.83119 1.23146 0.30581
 C893 C 0.86679 1.16271 0.35702
 C894 C 0.88240 1.14879 0.37684
 C895 C 0.90047 1.13052 0.40000
 N896 N 0.88063 1.11049 0.41918
 N897 N 0.89748 1.08944 0.43873
 C898 C 0.93476 1.08784 0.43982
 N899 N 0.95453 1.10860 0.42092
 N900 N 0.93768 1.12963 0.40137
 N901 N 0.30867 0.64537 -0.17979
 C902 C 0.33436 0.66433 -0.16445
 N903 N 0.34403 0.70123 -0.17144
 N904 N 0.32769 0.71906 -0.19275
 C905 C 0.30117 0.70056 -0.20769
 N906 N 0.29233 0.66321 -0.20108
 C907 C 0.34961 0.64629 -0.14030
 C908 C 0.36213 0.63098 -0.11990
 C909 C 0.37768 0.61238 -0.09607
 N910 N 0.40892 0.62660 -0.08454
 N911 N 0.42546 0.60737 -0.06398
 C912 C 0.41120 0.57344 -0.05425
 N913 N 0.37955 0.55957 -0.06551
 N914 N 0.36300 0.57881 -0.08611
 N915 N 0.85797 0.78631 0.67841
 C916 C 0.85059 0.82200 0.66762
 N917 N 0.82294 0.84355 0.67871
 N918 N 0.80258 0.82943 0.69944
 C919 C 0.80918 0.79329 0.70983
 N920 N 0.83759 0.77220 0.69918
 C921 C 0.87032 0.83620 0.64384
 C922 C 0.88578 0.84943 0.62374
 C923 C 0.90332 0.86745 0.60030
 N924 N 0.88297 0.88722 0.58128
 N925 N 0.89928 0.90870 0.56172
 C926 C 0.93650 0.91104 0.56051
 N927 N 0.95679 0.89049 0.57922
 N928 N 0.94049 0.86902 0.59877
 N929 N 0.34341 0.30026 0.17300
 C930 C 0.33419 0.33764 0.16703
 N931 N 0.30830 0.35596 0.18255
 N932 N 0.29139 0.33708 0.20307
 C933 C 0.29983 0.29930 0.20867
 N934 N 0.32650 0.28137 0.19355
 C935 C 0.34983 0.35672 0.14354
 C936 C 0.36259 0.37262 0.12351
 C937 C 0.37826 0.39134 0.09986
 N938 N 0.35942 0.41936 0.08593
 N939 N 0.37497 0.43801 0.06462
 C940 C 0.40974 0.42901 0.05667
 N941 N 0.42831 0.40069 0.07050
 N942 N 0.41280 0.38208 0.09175
   
