data_POSCAR
  _audit_creation_date              2014-09-24
  _audit_creation_method            'ToBaCCo'
  _symmetry_space_group_name_H-M    'P1'
  _symmetry_Int_Tables_number       1
  _symmetry_cell_setting            triclinic
  loop_
  _symmetry_equiv_pos_as_xyz
 x,y,z
_cell_length_a 49.9213
_cell_length_b 49.4463
_cell_length_c 50.0717
_cell_angle_alpha 87.499600
_cell_angle_beta 91.500200
_cell_angle_gamma 86.185800
loop_
  _atom_site_label
  _atom_site_type_symbol
  _atom_site_fract_x
  _atom_site_fract_y
  _atom_site_fract_z
N1 N 0.30971 0.23004 0.18592
 N2 N 0.30427 0.25605 0.18023
 C3 C 0.31907 0.26375 0.15945
 C4 C 0.33438 0.24119 0.15158
 C5 C 0.32781 0.22017 0.16883
 H6 H 0.31816 0.28400 0.15026
 H7 H 0.33574 0.19927 0.16915
 Cu8 Cu 0.27698 0.27662 0.19943
 Cu9 Cu 0.29269 0.21072 0.21473
 Cu10 Cu 0.25631 0.25078 0.25788
 N11 N 0.24474 0.29167 0.21594
 N12 N 0.23691 0.28178 0.23902
 C13 C 0.21443 0.29597 0.24594
 C14 C 0.20755 0.31576 0.22598
 C15 C 0.22736 0.31236 0.20725
 H16 H 0.20360 0.29163 0.26388
 H17 H 0.22908 0.32398 0.18866
 N18 N 0.26937 0.21307 0.26737
 N19 N 0.28283 0.19781 0.25064
 C20 C 0.28967 0.17346 0.26277
 C21 C 0.27986 0.17321 0.28835
 C22 C 0.26692 0.19865 0.29055
 H23 H 0.30120 0.15718 0.25370
 H24 H 0.25700 0.20632 0.30790
 H25 H 0.25899 0.23678 0.22107
 H26 H 0.29189 0.24474 0.23638
 N27 N 0.69859 -0.24843 0.22197
 N28 N 0.71305 -0.26969 0.21428
 C29 C 0.70163 -0.27861 0.19195
 C30 C 0.67871 -0.26193 0.18509
 C31 C 0.67758 -0.24298 0.20479
 H32 H 0.70968 -0.29577 0.18139
 H33 H 0.66256 -0.22650 0.20681
 Cu34 Cu 0.74574 -0.28309 0.23399
 Cu35 Cu 0.70779 -0.22944 0.25384
 Cu36 Cu 0.76530 -0.25374 0.28989
 N37 N 0.77803 -0.29660 0.25430
 N38 N 0.78549 -0.28502 0.27613
 C39 C 0.80856 -0.29770 0.28594
 C40 C 0.81625 -0.31850 0.26934
 C41 C 0.79616 -0.31710 0.24945
 H42 H 0.81897 -0.29183 0.30373
 H43 H 0.79487 -0.32975 0.23248
 N44 N 0.74216 -0.22231 0.30047
 N45 N 0.72037 -0.21304 0.28663
 C46 C 0.70926 -0.19128 0.29847
 C47 C 0.72474 -0.18647 0.32092
 C48 C 0.74545 -0.20665 0.32151
 H49 H 0.69141 -0.17954 0.29099
 H50 H 0.76182 -0.20967 0.33610
 H51 H 0.74875 -0.23898 0.25349
 H52 H 0.72846 -0.26220 0.27379
 N53 N 0.75281 0.23101 0.78805
 N54 N 0.75156 0.25764 0.78818
 C55 C 0.73553 0.26590 0.80788
 C56 C 0.72647 0.24312 0.82098
 C57 C 0.73803 0.22134 0.80794
 H58 H 0.73103 0.28685 0.81249
 H59 H 0.73527 0.20006 0.81203
 Cu60 Cu 0.77172 0.27870 0.76297
 Cu61 Cu 0.77268 0.21106 0.76132
 Cu62 Cu 0.78705 0.25043 0.70537
 N63 N 0.79701 0.29457 0.73890
 N64 N 0.80258 0.28376 0.71603
 C65 C 0.82118 0.29792 0.70376
 C66 C 0.82810 0.31869 0.71998
 C67 C 0.81198 0.31591 0.74210
 H68 H 0.82964 0.29258 0.68490
 H69 H 0.81164 0.32779 0.75971
 N70 N 0.78356 0.21112 0.70450
 N71 N 0.78065 0.19585 0.72639
 C72 C 0.78127 0.16968 0.71997
 C73 C 0.78423 0.16857 0.69268
 C74 C 0.78551 0.19517 0.68342
 H75 H 0.77873 0.15277 0.73391
 H76 H 0.78830 0.20231 0.66301
 H77 H 0.79602 0.23987 0.74391
 H78 H 0.75935 0.24176 0.73530
 N79 N 0.27333 -0.22936 0.78748
 N80 N 0.26640 -0.25208 0.79908
 C81 C 0.28105 -0.25695 0.82200
 C82 C 0.29799 -0.23599 0.82496
 C83 C 0.29241 -0.21891 0.80253
 H84 H 0.27894 -0.27403 0.83582
 H85 H 0.30125 -0.20006 0.79748
 Cu86 Cu 0.23736 -0.27143 0.78360
 Cu87 Cu 0.25584 -0.21383 0.75466
 Cu88 Cu 0.22021 -0.25880 0.71876
 N89 N 0.21001 -0.29131 0.76600
 N90 N 0.20342 -0.28622 0.74062
 C91 C 0.18416 -0.30244 0.73338
 C92 C 0.17797 -0.31861 0.75552
 C93 C 0.19500 -0.31086 0.77586
 H94 H 0.17521 -0.30197 0.71347
 H95 H 0.19632 -0.31855 0.79640
 N96 N 0.23145 -0.22420 0.70300
 N97 N 0.24495 -0.20722 0.71685
 C98 C 0.24968 -0.18556 0.70098
 C99 C 0.23837 -0.18878 0.67593
 C100 C 0.22680 -0.21347 0.67794
 H101 H 0.26020 -0.16843 0.70734
 H102 H 0.21584 -0.22290 0.66236
 H103 H 0.22121 -0.23556 0.75089
 H104 H 0.25434 -0.25213 0.74224
 N105 N 0.68264 -0.24852 0.80760
 N106 N 0.69156 -0.27393 0.81222
 C107 C 0.67875 -0.28455 0.83306
 C108 C 0.66081 -0.26471 0.84220
 C109 C 0.66381 -0.24206 0.82545
 H110 H 0.68268 -0.30506 0.84124
 H111 H 0.65378 -0.22210 0.82665
 Cu112 Cu 0.72058 -0.29035 0.79228
 Cu113 Cu 0.69781 -0.22550 0.78004
 Cu114 Cu 0.74001 -0.25903 0.73630
 N115 N 0.75404 -0.30147 0.77585
 N116 N 0.76128 -0.28976 0.75340
 C117 C 0.78444 -0.30220 0.74577
 C118 C 0.79246 -0.32277 0.76474
 C119 C 0.77248 -0.32152 0.78356
 H120 H 0.79469 -0.29620 0.72795
 H121 H 0.77103 -0.33436 0.80142
 N122 N 0.72454 -0.22174 0.72915
 N123 N 0.70884 -0.20876 0.74587
 C124 C 0.70226 -0.18351 0.73553
 C125 C 0.71470 -0.18036 0.71128
 C126 C 0.72863 -0.20507 0.70792
 H127 H 0.68970 -0.16840 0.74516
 H128 H 0.74095 -0.21057 0.69129
 H129 H 0.70342 -0.25772 0.75664
 H130 H 0.73431 -0.24716 0.77396
 N131 N 0.30498 0.25798 0.76994
 N132 N 0.28941 0.27918 0.77595
 C133 C 0.30112 0.29173 0.79603
 C134 C 0.32544 0.27771 0.80305
 C135 C 0.32716 0.25635 0.78598
 H136 H 0.29232 0.30946 0.80518
 H137 H 0.34324 0.24068 0.78527
 Cu138 Cu 0.25501 0.28820 0.75750
 Cu139 Cu 0.29500 0.23379 0.74221
 Cu140 Cu 0.23315 0.24843 0.70990
 N141 N 0.22005 0.29556 0.73966
 N142 N 0.21165 0.27995 0.72107
 C143 C 0.18708 0.28956 0.71202
 C144 C 0.17955 0.31251 0.72568
 C145 C 0.20105 0.31564 0.74311
 H146 H 0.17555 0.28035 0.69672
 H147 H 0.20288 0.33151 0.75708
 N148 N 0.25771 0.21742 0.70135
 N149 N 0.28126 0.21179 0.71359
 C150 C 0.29310 0.18942 0.70334
 C151 C 0.27620 0.18046 0.68364
 C152 C 0.25396 0.19883 0.68302
 H153 H 0.31258 0.18033 0.70984
 H154 H 0.23625 0.19875 0.67019
 H155 H 0.27029 0.26193 0.72000
 H156 H 0.25406 0.24087 0.74604
 N157 N 0.27357 -0.25661 0.24117
 N158 N 0.26211 -0.27858 0.23446
 C159 C 0.27398 -0.28853 0.21285
 C160 C 0.29414 -0.27197 0.20553
 C161 C 0.29326 -0.25184 0.22405
 H162 H 0.26797 -0.30627 0.20299
 H163 H 0.30595 -0.23500 0.22510
 Cu164 Cu 0.23258 -0.29225 0.25423
 Cu165 Cu 0.26195 -0.23640 0.27191
 Cu166 Cu 0.19770 -0.24881 0.29202
 N167 N 0.19684 -0.29921 0.26571
 N168 N 0.18315 -0.28196 0.28022
 C169 C 0.15919 -0.29158 0.28544
 C170 C 0.15770 -0.31618 0.27346
 C171 C 0.18200 -0.32035 0.26102
 H172 H 0.14394 -0.28136 0.29701
 H173 H 0.18856 -0.33757 0.24969
 N174 N 0.21624 -0.21670 0.30213
 N175 N 0.24115 -0.21259 0.29559
 C176 C 0.24855 -0.18983 0.30677
 C177 C 0.22715 -0.17902 0.32080
 C178 C 0.20705 -0.19655 0.31737
 H179 H 0.26790 -0.18150 0.30453
 H180 H 0.18741 -0.19506 0.32599
 H181 H 0.23729 -0.26251 0.29202
 H182 H 0.22382 -0.24415 0.26072
 N183 N 0.71114 0.23670 0.22391
 N184 N 0.71829 0.26026 0.21447
 C185 C 0.70391 0.26747 0.19191
 C186 C 0.68664 0.24734 0.18680
 C187 C 0.69185 0.22811 0.20766
 H188 H 0.70647 0.28571 0.17984
 H189 H 0.68264 0.20909 0.21067
 Cu190 Cu 0.74644 0.27900 0.23166
 Cu191 Cu 0.72829 0.21854 0.25590
 Cu192 Cu 0.78443 0.24723 0.28140
 N193 N 0.78060 0.29203 0.24271
 N194 N 0.79522 0.27976 0.26241
 C195 C 0.81779 0.29276 0.26583
 C196 C 0.81740 0.31430 0.24715
 C197 C 0.79345 0.31317 0.23277
 H198 H 0.83363 0.28652 0.28038
 H199 H 0.78590 0.32665 0.21630
 N200 N 0.77020 0.21438 0.29765
 N201 N 0.74870 0.20351 0.28809
 C202 C 0.74428 0.18121 0.30331
 C203 C 0.76402 0.17778 0.32338
 C204 C 0.78006 0.19924 0.31913
 H205 H 0.72822 0.16810 0.29970
 H206 H 0.79762 0.20356 0.33085
 H207 H 0.74342 0.25176 0.27314
 H208 H 0.76460 0.23438 0.24787
 C209 C 0.26146 0.02760 0.55180
 C210 C 0.26460 0.00281 0.56642
 C211 C 0.26688 -0.02189 0.55381
 C212 C 0.26592 -0.02198 0.52553
 C213 C 0.26307 0.00305 0.51036
 C214 C 0.26120 0.02792 0.52352
 C215 C 0.25991 0.05244 0.50809
 C216 C 0.25946 0.05260 0.48029
 C217 C 0.26004 0.02827 0.46676
 C218 C 0.26245 0.00323 0.48195
 C219 C 0.26837 -0.04632 0.51201
 C220 C 0.26740 -0.04615 0.48420
 C221 C 0.26453 -0.02162 0.46880
 C222 C 0.26363 -0.02127 0.44056
 C223 C 0.26073 0.00346 0.42588
 C224 C 0.25906 0.02820 0.43845
 H225 H 0.25965 0.07181 0.51735
 H226 H 0.25889 0.07210 0.46957
 H227 H 0.27118 -0.06579 0.52276
 H228 H 0.26905 -0.06550 0.47486
 H229 H 0.26481 0.00272 0.58810
 H230 H 0.25987 0.00342 0.40420
 C231 C 0.74994 0.01744 0.56387
 C232 C 0.75024 -0.00670 0.57964
 C233 C 0.75004 -0.03202 0.56828
 C234 C 0.74897 -0.03350 0.54010
 C235 C 0.74876 -0.00932 0.52373
 C236 C 0.74951 0.01622 0.53558
 C237 C 0.75013 0.03973 0.51878
 C238 C 0.74805 0.03847 0.49110
 C239 C 0.74663 0.01350 0.47900
 C240 C 0.74763 -0.01069 0.49541
 C241 C 0.74743 -0.05845 0.52786
 C242 C 0.74668 -0.05980 0.50017
 C243 C 0.74706 -0.03621 0.48354
 C244 C 0.74602 -0.03737 0.45533
 C245 C 0.74385 -0.01326 0.43955
 C246 C 0.74392 0.01203 0.45092
 H247 H 0.75219 0.05946 0.52674
 H248 H 0.74774 0.05734 0.47930
 H249 H 0.74646 -0.07726 0.53954
 H250 H 0.74522 -0.07953 0.49192
 H251 H 0.75063 -0.00579 0.60126
 H252 H 0.74245 -0.01417 0.41794
 C253 C 0.46938 0.27071 -0.04579
 C254 C 0.45476 0.27225 -0.02239
 C255 C 0.46729 0.27578 0.00237
 C256 C 0.49544 0.27744 0.00409
 C257 C 0.51058 0.27615 -0.01948
 C258 C 0.49751 0.27298 -0.04456
 C259 C 0.51283 0.27258 -0.06772
 C260 C 0.54049 0.27475 -0.06627
 C261 C 0.55390 0.27759 -0.04161
 C262 C 0.53885 0.27806 -0.01796
 C263 C 0.50887 0.28007 0.02877
 C264 C 0.53659 0.28162 0.03029
 C265 C 0.55199 0.28049 0.00721
 C266 C 0.58018 0.28210 0.00856
 C267 C 0.59470 0.28179 -0.01493
 C268 C 0.58202 0.27974 -0.03991
 H269 H 0.50356 0.27077 -0.08728
 H270 H 0.55129 0.27404 -0.08471
 H271 H 0.49808 0.28081 0.04721
 H272 H 0.54579 0.28388 0.04980
 H273 H 0.43319 0.27066 -0.02346
 H274 H 0.61629 0.28327 -0.01375
 C275 C 0.52966 0.76704 0.04050
 C276 C 0.54142 0.76734 0.01547
 C277 C 0.52626 0.76482 -0.00805
 C278 C 0.49840 0.76145 -0.00666
 C279 C 0.48603 0.76156 0.01854
 C280 C 0.50169 0.76431 0.04222
 C281 C 0.48914 0.76329 0.06702
 C282 C 0.46165 0.76065 0.06850
 C283 C 0.44565 0.75843 0.04529
 C284 C 0.45803 0.75823 0.02011
 C285 C 0.48280 0.75702 -0.02963
 C286 C 0.45549 0.75329 -0.02802
 C287 C 0.44260 0.75418 -0.00341
 C288 C 0.41484 0.75030 -0.00154
 C289 C 0.40287 0.75103 0.02339
 C290 C 0.41772 0.75550 0.04668
 H291 H 0.50043 0.76424 0.08563
 H292 H 0.45319 0.75977 0.08817
 H293 H 0.49164 0.75586 -0.04908
 H294 H 0.44469 0.74945 -0.04631
 H295 H 0.56281 0.76972 0.01426
 H296 H 0.38149 0.74860 0.02460
 C297 C -0.02832 0.54047 0.24303
 C298 C -0.00528 0.55481 0.24036
 C299 C 0.02042 0.54167 0.24180
 C300 C 0.02340 0.51311 0.24597
 C301 C 0.00021 0.49820 0.24869
 C302 C -0.02574 0.51193 0.24743
 C303 C -0.04830 0.49691 0.25164
 C304 C -0.04554 0.46895 0.25659
 C305 C -0.02012 0.45481 0.25740
 C306 C 0.00301 0.46959 0.25362
 C307 C 0.04890 0.49920 0.24854
 C308 C 0.05163 0.47118 0.25309
 C309 C 0.02898 0.45594 0.25552
 C310 C 0.03160 0.42753 0.26079
 C311 C 0.00862 0.41330 0.26452
 C312 C -0.01709 0.42642 0.26286
 H313 H -0.06834 0.50667 0.25165
 H314 H -0.06361 0.45862 0.26022
 H315 H 0.06710 0.50983 0.24746
 H316 H 0.07177 0.46167 0.25519
 H317 H -0.00740 0.57672 0.23722
 H318 H 0.01078 0.39151 0.26860
 C319 C -0.03191 0.57019 0.72408
 C320 C -0.00780 0.58286 0.72166
 C321 C 0.01706 0.56805 0.72369
 C322 C 0.01807 0.53955 0.72824
 C323 C -0.00620 0.52630 0.73039
 C324 C -0.03129 0.54161 0.72799
 C325 C -0.05506 0.52786 0.72878
 C326 C -0.05427 0.49979 0.73273
 C327 C -0.02968 0.48429 0.73599
 C328 C -0.00540 0.49762 0.73455
 C329 C 0.04265 0.52390 0.72994
 C330 C 0.04343 0.49585 0.73417
 C331 C 0.01968 0.48231 0.73685
 C332 C 0.02028 0.45376 0.74102
 C333 C -0.00382 0.44092 0.74214
 C334 C -0.02870 0.45571 0.73986
 H335 H -0.07458 0.53860 0.72591
 H336 H -0.07320 0.49034 0.73288
 H337 H 0.06155 0.53317 0.72776
 H338 H 0.06293 0.48486 0.73490
 H339 H -0.00837 0.60476 0.71866
 H340 H -0.00321 0.41904 0.74539
 C341 C 0.36577 0.26250 0.11984
 C342 C 0.38386 0.26067 0.09885
 C343 C 0.38906 0.23557 0.08683
 C344 C 0.37639 0.21270 0.09619
 C345 C 0.35873 0.21462 0.11727
 C346 C 0.35316 0.23948 0.12923
 C347 C 0.40681 0.23367 0.06566
 C348 C 0.41966 0.25650 0.05646
 C349 C 0.41483 0.28155 0.06871
 C350 C 0.39688 0.28349 0.08977
 C351 C 0.42792 0.30427 0.05952
 C352 C 0.44542 0.30226 0.03825
 C353 C 0.45009 0.27752 0.02592
 C354 C 0.43717 0.25471 0.03506
 H355 H 0.36186 0.28171 0.12911
 H356 H 0.38016 0.19331 0.08722
 H357 H 0.34913 0.19663 0.12393
 H358 H 0.41063 0.21444 0.05635
 H359 H 0.39305 0.30273 0.09905
 H360 H 0.42448 0.32362 0.06865
 H361 H 0.45511 0.32006 0.03114
 H362 H 0.44072 0.23566 0.02537
 C363 C 0.63926 0.75602 0.15787
 C364 C 0.62147 0.75430 0.13592
 C365 C 0.62484 0.73237 0.11889
 C366 C 0.64600 0.71265 0.12400
 C367 C 0.66376 0.71459 0.14573
 C368 C 0.66071 0.73623 0.16309
 C369 C 0.60710 0.73052 0.09699
 C370 C 0.58613 0.75049 0.09173
 C371 C 0.58284 0.77261 0.10859
 C372 C 0.60046 0.77431 0.13066
 C373 C 0.56206 0.79275 0.10298
 C374 C 0.54469 0.79098 0.08086
 C375 C 0.54760 0.76885 0.06431
 C376 C 0.56846 0.74877 0.06973
 H377 H 0.63631 0.77305 0.17055
 H378 H 0.64887 0.69570 0.11113
 H379 H 0.67971 0.69881 0.14881
 H380 H 0.60968 0.71362 0.08397
 H381 H 0.59791 0.79124 0.14363
 H382 H 0.55934 0.80992 0.11559
 H383 H 0.52897 0.80686 0.07660
 H384 H 0.57088 0.73183 0.05675
 C385 C 0.68910 0.26388 -0.15251
 C386 C 0.67110 0.26258 -0.13145
 C387 C 0.67231 0.23938 -0.11379
 C388 C 0.69119 0.21776 -0.11771
 C389 C 0.70871 0.21904 -0.13894
 C390 C 0.70794 0.24209 -0.15645
 C391 C 0.65463 0.23813 -0.09252
 C392 C 0.63555 0.25966 -0.08882
 C393 C 0.63399 0.28267 -0.10674
 C394 C 0.65185 0.28403 -0.12788
 C395 C 0.61469 0.30405 -0.10308
 C396 C 0.59734 0.30279 -0.08167
 C397 C 0.59901 0.28016 -0.06367
 C398 C 0.61811 0.25863 -0.06732
 H399 H 0.68808 0.28161 -0.16609
 H400 H 0.69236 0.19982 -0.10440
 H401 H 0.72312 0.20206 -0.14145
 H402 H 0.65572 0.22041 -0.07887
 H403 H 0.65077 0.30176 -0.14151
 H404 H 0.61318 0.32182 -0.11662
 H405 H 0.58284 0.31964 -0.07885
 H406 H 0.61946 0.24124 -0.05327
 C407 C 0.32291 0.74765 -0.13233
 C408 C 0.34041 0.75191 -0.11069
 C409 C 0.35218 0.77703 -0.10903
 C410 C 0.34640 0.79737 -0.12906
 C411 C 0.32897 0.79301 -0.15046
 C412 C 0.31692 0.76819 -0.15238
 C413 C 0.36943 0.78152 -0.08733
 C414 C 0.37503 0.76120 -0.06717
 C415 C 0.36337 0.73600 -0.06885
 C416 C 0.34618 0.73150 -0.09061
 C417 C 0.36895 0.71576 -0.04860
 C418 C 0.38584 0.72046 -0.02684
 C419 C 0.39756 0.74535 -0.02509
 C420 C 0.39199 0.76574 -0.04523
 H421 H 0.31405 0.72833 -0.13347
 H422 H 0.35524 0.81675 -0.12811
 H423 H 0.32480 0.80937 -0.16532
 H424 H 0.37839 0.80084 -0.08608
 H425 H 0.33720 0.71219 -0.09184
 H426 H 0.36016 0.69635 -0.04952
 H427 H 0.38983 0.70466 -0.01131
 H428 H 0.40080 0.78510 -0.04367
 C429 C 0.16829 0.33984 0.24731
 C430 C 0.14513 0.35764 0.24585
 C431 C 0.13719 0.37144 0.22131
 C432 C 0.15277 0.36745 0.19876
 C433 C 0.17577 0.34964 0.20037
 C434 C 0.18368 0.33545 0.22456
 C435 C 0.11367 0.38873 0.21965
 C436 C 0.09791 0.39225 0.24220
 C437 C 0.10605 0.37866 0.26682
 C438 C 0.12965 0.36155 0.26851
 C439 C 0.09021 0.38204 0.28930
 C440 C 0.06627 0.39837 0.28733
 C441 C 0.05794 0.41180 0.26297
 C442 C 0.07386 0.40878 0.24045
 H443 H 0.17419 0.32940 0.26622
 H444 H 0.14702 0.37788 0.17979
 H445 H 0.18705 0.34670 0.18245
 H446 H 0.10748 0.39917 0.20076
 H447 H 0.13576 0.35100 0.28736
 H448 H 0.09613 0.37176 0.30830
 H449 H 0.05405 0.40041 0.30479
 H450 H 0.06721 0.41889 0.22155
 C451 C 0.14227 0.65686 0.73454
 C452 C 0.12193 0.63862 0.73640
 C453 C 0.11742 0.62510 0.76114
 C454 C 0.13362 0.62975 0.78349
 C455 C 0.15377 0.64800 0.78156
 C456 C 0.15827 0.66213 0.75716
 C457 C 0.09659 0.60745 0.76323
 C458 C 0.08001 0.60337 0.74090
 C459 C 0.08474 0.61667 0.71603
 C460 C 0.10574 0.63406 0.71391
 C461 C 0.06800 0.61281 0.69379
 C462 C 0.04640 0.59643 0.69626
 C463 C 0.04140 0.58337 0.72087
 C464 C 0.05837 0.58670 0.74313
 H465 H 0.14518 0.66706 0.71540
 H466 H 0.13054 0.61947 0.80262
 H467 H 0.16551 0.65106 0.79948
 H468 H 0.09302 0.59726 0.78230
 H469 H 0.10919 0.64440 0.69488
 H470 H 0.07132 0.62285 0.67460
 H471 H 0.03330 0.59416 0.67902
 H472 H 0.05426 0.57686 0.76222
 C473 C -0.15526 0.64346 0.25304
 C474 C -0.13180 0.62605 0.25524
 C475 C -0.11316 0.62852 0.27656
 C476 C -0.11838 0.64810 0.29542
 C477 C -0.14170 0.66534 0.29314
 C478 C -0.16049 0.66351 0.27185
 C479 C -0.08949 0.61155 0.27861
 C480 C -0.08413 0.59213 0.25954
 C481 C -0.10285 0.58940 0.23829
 C482 C -0.12660 0.60635 0.23630
 C483 C -0.09729 0.56996 0.21922
 C484 C -0.07326 0.55365 0.22100
 C485 C -0.05459 0.55638 0.24198
 C486 C -0.06015 0.57561 0.26122
 H487 H -0.16919 0.64127 0.23648
 H488 H -0.10432 0.65021 0.31194
 H489 H -0.14464 0.68017 0.30818
 H490 H -0.07513 0.61361 0.29492
 H491 H -0.14088 0.60436 0.21992
 H492 H -0.11135 0.56761 0.20277
 H493 H -0.06903 0.53912 0.20584
 H494 H -0.04561 0.57783 0.27732
 C495 C -0.14629 0.35651 0.73476
 C496 C -0.12516 0.37365 0.73132
 C497 C -0.10921 0.37166 0.70851
 C498 C -0.11501 0.35305 0.68927
 C499 C -0.13599 0.33604 0.69281
 C500 C -0.15175 0.33711 0.71578
 C501 C -0.08753 0.38806 0.70541
 C502 C -0.08150 0.40642 0.72491
 C503 C -0.09772 0.40881 0.74755
 C504 C -0.11947 0.39245 0.75058
 C505 C -0.09164 0.42726 0.76698
 C506 C -0.06946 0.44290 0.76421
 C507 C -0.05315 0.44041 0.74194
 C508 C -0.05926 0.42219 0.72232
 H509 H -0.15808 0.35822 0.75250
 H510 H -0.10309 0.35139 0.67156
 H511 H -0.13938 0.32184 0.67748
 H512 H -0.07516 0.38631 0.68799
 H513 H -0.13173 0.39410 0.76808
 H514 H -0.10383 0.42937 0.78445
 H515 H -0.06476 0.45670 0.77961
 H516 H -0.04653 0.42018 0.70520
 C517 C 0.26460 0.14767 0.32901
 C518 C 0.26761 0.12556 0.34774
 C519 C 0.29009 0.10668 0.34662
 C520 C 0.30904 0.11010 0.32685
 C521 C 0.30565 0.13180 0.30807
 C522 C 0.28343 0.15073 0.30888
 C523 C 0.29314 0.08447 0.36504
 C524 C 0.27376 0.08053 0.38430
 C525 C 0.25113 0.09920 0.38539
 C526 C 0.24832 0.12176 0.36724
 C527 C 0.23149 0.09470 0.40435
 C528 C 0.23414 0.07178 0.42185
 C529 C 0.25672 0.05335 0.42104
 C530 C 0.27645 0.05786 0.40221
 H531 H 0.24728 0.16203 0.32968
 H532 H 0.32638 0.09584 0.32574
 H533 H 0.32062 0.13387 0.29300
 H534 H 0.31039 0.07002 0.36412
 H535 H 0.23097 0.13609 0.36804
 H536 H 0.21391 0.10865 0.40535
 H537 H 0.21847 0.06826 0.43590
 H538 H 0.29372 0.04345 0.40134
 C539 C 0.76780 0.14233 0.65487
 C540 C 0.76808 0.11848 0.64060
 C541 C 0.78707 0.09668 0.64783
 C542 C 0.80481 0.09878 0.66972
 C543 C 0.80365 0.12216 0.68443
 C544 C 0.78540 0.14412 0.67694
 C545 C 0.78777 0.07301 0.63335
 C546 C 0.76905 0.07040 0.61239
 C547 C 0.74936 0.09172 0.60586
 C548 C 0.74932 0.11583 0.61967
 C549 C 0.72976 0.08836 0.58591
 C550 C 0.72973 0.06416 0.57249
 C551 C 0.74995 0.04336 0.57795
 C552 C 0.76943 0.04656 0.59815
 H553 H 0.75340 0.15918 0.64938
 H554 H 0.81932 0.08219 0.67567
 H555 H 0.81727 0.12330 0.70149
 H556 H 0.80255 0.05645 0.63869
 H557 H 0.73440 0.13231 0.61445
 H558 H 0.71422 0.10428 0.58098
 H559 H 0.71397 0.06170 0.55770
 H560 H 0.78476 0.03036 0.60287
 C561 C 0.25850 -0.15112 0.65039
 C562 C 0.25736 -0.13083 0.62988
 C563 C 0.23539 -0.12842 0.61134
 C564 C 0.21545 -0.14710 0.61312
 C565 C 0.21683 -0.16738 0.63360
 C566 C 0.23804 -0.16917 0.65273
 C567 C 0.23350 -0.10712 0.59173
 C568 C 0.25329 -0.08822 0.59053
 C569 C 0.27567 -0.09126 0.60862
 C570 C 0.27759 -0.11256 0.62809
 C571 C 0.29551 -0.07252 0.60739
 C572 C 0.29290 -0.05052 0.58891
 C573 C 0.27054 -0.04695 0.57125
 C574 C 0.25082 -0.06595 0.57199
 H575 H 0.27523 -0.15265 0.66473
 H576 H 0.19855 -0.14570 0.59899
 H577 H 0.20083 -0.18107 0.63500
 H578 H 0.21642 -0.10496 0.57778
 H579 H 0.29453 -0.11457 0.64221
 H580 H 0.31278 -0.07459 0.62107
 H581 H 0.30814 -0.03590 0.58866
 H582 H 0.23334 -0.06298 0.55862
 C583 C 0.74026 -0.15919 0.35901
 C584 C 0.73674 -0.13724 0.37576
 C585 C 0.71310 -0.11983 0.37307
 C586 C 0.69325 -0.12490 0.35402
 C587 C 0.69691 -0.14672 0.33742
 C588 C 0.72053 -0.16398 0.33948
 C589 C 0.70982 -0.09743 0.38919
 C590 C 0.72999 -0.09205 0.40785
 C591 C 0.75351 -0.10965 0.41084
 C592 C 0.75668 -0.13220 0.39486
 C593 C 0.77371 -0.10406 0.42941
 C594 C 0.77090 -0.08094 0.44444
 C595 C 0.74775 -0.06323 0.44137
 C596 C 0.72727 -0.06899 0.42316
 H597 H 0.75863 -0.17212 0.36097
 H598 H 0.67495 -0.11183 0.35177
 H599 H 0.68113 -0.14988 0.32293
 H600 H 0.69177 -0.08395 0.38692
 H601 H 0.77483 -0.14554 0.39698
 H602 H 0.79188 -0.11728 0.43194
 H603 H 0.78705 -0.07650 0.45810
 H604 H 0.70949 -0.05518 0.42061
 C605 C 0.62248 0.75260 -0.13025
 C606 C 0.60674 0.75078 -0.10747
 C607 C 0.61234 0.72918 -0.08825
 C608 C 0.63333 0.70971 -0.09223
 C609 C 0.64884 0.71165 -0.11491
 C610 C 0.64372 0.73312 -0.13411
 C611 C 0.59702 0.72747 -0.06526
 C612 C 0.57617 0.74710 -0.06116
 C613 C 0.57034 0.76860 -0.08044
 C614 C 0.58564 0.77028 -0.10351
 C615 C 0.54947 0.78823 -0.07613
 C616 C 0.53476 0.78675 -0.05279
 C617 C 0.54056 0.76552 -0.03358
 C618 C 0.56125 0.74573 -0.03787
 H619 H 0.61809 0.76914 -0.14494
 H620 H 0.63791 0.69306 -0.07768
 H621 H 0.66515 0.69646 -0.11705
 H622 H 0.60147 0.71097 -0.05048
 H623 H 0.58127 0.78684 -0.11823
 H624 H 0.54474 0.80489 -0.09064
 H625 H 0.51906 0.80235 -0.04951
 H626 H 0.56584 0.72946 -0.02289
 C627 C 0.36618 0.26509 -0.16717
 C628 C 0.38378 0.27055 -0.14602
 C629 C 0.38000 0.29518 -0.13286
 C630 C 0.35901 0.31405 -0.14128
 C631 C 0.34159 0.30846 -0.16226
 C632 C 0.34475 0.28386 -0.17531
 C633 C 0.39702 0.30044 -0.11127
 C634 C 0.41769 0.28130 -0.10249
 C635 C 0.42176 0.25678 -0.11582
 C636 C 0.40484 0.25160 -0.13758
 C637 C 0.44240 0.23763 -0.10680
 C638 C 0.45843 0.24248 -0.08442
 C639 C 0.45426 0.26663 -0.07097
 C640 C 0.43399 0.28605 -0.08019
 H641 H 0.36898 0.24600 -0.17685
 H642 H 0.35592 0.33308 -0.13149
 H643 H 0.32562 0.32355 -0.16815
 H644 H 0.39393 0.31925 -0.10105
 H645 H 0.40780 0.23270 -0.14765
 H646 H 0.44580 0.21872 -0.11672
 H647 H 0.47377 0.22717 -0.07725
 H648 H 0.43063 0.30460 -0.06962
 C649 C 0.32690 0.74656 0.17325
 C650 C 0.34318 0.74378 0.15092
 C651 C 0.34491 0.71897 0.13784
 C652 C 0.33061 0.69733 0.14743
 C653 C 0.31440 0.70029 0.16953
 C654 C 0.31217 0.72493 0.18259
 C655 C 0.36066 0.71623 0.11522
 C656 C 0.37452 0.73808 0.10528
 C657 C 0.37305 0.76284 0.11848
 C658 C 0.35747 0.76550 0.14128
 C659 C 0.38689 0.78467 0.10839
 C660 C 0.40171 0.78211 0.08523
 C661 C 0.40312 0.75765 0.07197
 C662 C 0.38953 0.73567 0.08211
 H663 H 0.32532 0.76574 0.18293
 H664 H 0.33181 0.67815 0.13772
 H665 H 0.30365 0.68313 0.17635
 H666 H 0.36187 0.69721 0.10517
 H667 H 0.35623 0.78453 0.15130
 H668 H 0.38598 0.80380 0.11818
 H669 H 0.41187 0.79933 0.07742
 H670 H 0.39053 0.71682 0.07177
 C671 C 0.66340 0.26862 0.14522
 C672 C 0.64659 0.26732 0.12250
 C673 C 0.63366 0.24332 0.11788
 C674 C 0.63762 0.22111 0.13625
 C675 C 0.65455 0.22251 0.15877
 C676 C 0.66782 0.24616 0.16343
 C677 C 0.61726 0.24181 0.09486
 C678 C 0.61387 0.26394 0.07628
 C679 C 0.62671 0.28802 0.08103
 C680 C 0.64284 0.28960 0.10416
 C681 C 0.62352 0.31004 0.06234
 C682 C 0.60806 0.30813 0.03896
 C683 C 0.59532 0.28433 0.03407
 C684 C 0.59819 0.26229 0.05279
 H685 H 0.67311 0.28716 0.14847
 H686 H 0.62786 0.20254 0.13307
 H687 H 0.65744 0.20483 0.17228
 H688 H 0.60744 0.22334 0.09124
 H689 H 0.65277 0.30802 0.10770
 H690 H 0.63325 0.32860 0.06565
 H691 H 0.60609 0.32518 0.02455
 H692 H 0.58854 0.24381 0.04879
 C693 C -0.16697 0.65902 0.74320
 C694 C -0.14391 0.64113 0.74344
 C695 C -0.13776 0.62325 0.76586
 C696 C -0.15496 0.62329 0.78747
 C697 C -0.17802 0.64092 0.78701
 C698 C -0.18437 0.65920 0.76497
 C699 C -0.11453 0.60563 0.76634
 C700 C -0.09747 0.60551 0.74454
 C701 C -0.10381 0.62312 0.72191
 C702 C -0.12693 0.64088 0.72154
 C703 C -0.08681 0.62278 0.70006
 C704 C -0.06367 0.60524 0.70066
 C705 C -0.05720 0.58775 0.72306
 C706 C -0.07407 0.58812 0.74505
 H707 H -0.17127 0.67251 0.72580
 H708 H -0.15059 0.60966 0.80481
 H709 H -0.19054 0.64024 0.80427
 H710 H -0.10975 0.59203 0.78365
 H711 H -0.13169 0.65450 0.70425
 H712 H -0.09135 0.63614 0.68256
 H713 H -0.05070 0.60533 0.68365
 H714 H -0.06883 0.57495 0.76256
 C715 C -0.14259 0.33731 0.26362
 C716 C -0.12208 0.35500 0.25968
 C717 C -0.12037 0.36928 0.23476
 C718 C -0.13947 0.36589 0.21437
 C719 C -0.15990 0.34829 0.21850
 C720 C -0.16153 0.33366 0.24305
 C721 C -0.09951 0.38654 0.23061
 C722 C -0.08040 0.38970 0.25108
 C723 C -0.08237 0.37567 0.27612
 C724 C -0.10320 0.35844 0.28025
 C725 C -0.06331 0.37891 0.29659
 C726 C -0.04233 0.39572 0.29225
 C727 C -0.04016 0.40965 0.26747
 C728 C -0.05918 0.40651 0.24688
 H729 H -0.14380 0.32650 0.28279
 H730 H -0.13849 0.37668 0.19515
 H731 H -0.17410 0.34578 0.20224
 H732 H -0.09808 0.39735 0.21143
 H733 H -0.10458 0.34755 0.29940
 H734 H -0.06453 0.36832 0.31588
 H735 H -0.02767 0.39786 0.30823
 H736 H -0.05727 0.41702 0.22763
 C737 C 0.14741 0.34975 0.74069
 C738 C 0.12362 0.36647 0.73724
 C739 C 0.10626 0.36342 0.71497
 C740 C 0.11297 0.34369 0.69659
 C741 C 0.13670 0.32716 0.70014
 C742 C 0.15422 0.32999 0.72216
 C743 C 0.08252 0.38014 0.71138
 C744 C 0.07590 0.39991 0.72979
 C745 C 0.09322 0.40294 0.75213
 C746 C 0.11695 0.38619 0.75571
 C747 C 0.08646 0.42269 0.77054
 C748 C 0.06279 0.43930 0.76684
 C749 C 0.04566 0.43656 0.74459
 C750 C 0.05219 0.41670 0.72623
 H751 H 0.16045 0.35212 0.75792
 H752 H 0.09992 0.34109 0.67939
 H753 H 0.14133 0.31235 0.68539
 H754 H 0.06923 0.37779 0.69427
 H755 H 0.13023 0.38853 0.77284
 H756 H 0.09942 0.42522 0.78782
 H757 H 0.05774 0.45430 0.78135
 H758 H 0.03881 0.41447 0.70918
 C759 C 0.13228 0.64638 0.25493
 C760 C 0.11091 0.62930 0.25589
 C761 C 0.09237 0.63151 0.27670
 C762 C 0.09532 0.65086 0.29597
 C763 C 0.11648 0.66788 0.29475
 C764 C 0.13521 0.66578 0.27435
 C765 C 0.07116 0.61437 0.27795
 C766 C 0.06810 0.59514 0.25857
 C767 C 0.08640 0.59304 0.23755
 C768 C 0.10776 0.61010 0.23638
 C769 C 0.08291 0.57396 0.21801
 C770 C 0.06152 0.55711 0.21935
 C771 C 0.04357 0.55887 0.24041
 C772 C 0.04688 0.57802 0.25986
 H773 H 0.14638 0.64476 0.23891
 H774 H 0.08128 0.65281 0.31203
 H775 H 0.11834 0.68244 0.31009
 H776 H 0.05703 0.61603 0.29399
 H777 H 0.12186 0.60846 0.22032
 H778 H 0.09660 0.57219 0.20165
 H779 H 0.05890 0.54269 0.20397
 H780 H 0.03283 0.57955 0.27597
 C781 C 0.73416 -0.15239 0.67459
 C782 C 0.73345 -0.12921 0.65732
 C783 C 0.71195 -0.10920 0.65835
 C784 C 0.69172 -0.11261 0.67687
 C785 C 0.69271 -0.13565 0.69416
 C786 C 0.71382 -0.15581 0.69311
 C787 C 0.71104 -0.08615 0.64091
 C788 C 0.73146 -0.08275 0.62256
 C789 C 0.75315 -0.10260 0.62178
 C790 C 0.75395 -0.12573 0.63909
 C791 C 0.77373 -0.09895 0.60369
 C792 C 0.77276 -0.07595 0.58640
 C793 C 0.75102 -0.05645 0.58663
 C794 C 0.73056 -0.05980 0.60497
 H795 H 0.75078 -0.16755 0.67380
 H796 H 0.67512 -0.09747 0.67798
 H797 H 0.67671 -0.13781 0.70810
 H798 H 0.69447 -0.07086 0.64162
 H799 H 0.77053 -0.14100 0.63840
 H800 H 0.79059 -0.11385 0.60295
 H801 H 0.78891 -0.07336 0.57268
 H802 H 0.71392 -0.04457 0.60536
 C803 C 0.24916 -0.14557 0.34882
 C804 C 0.24763 -0.12285 0.36473
 C805 C 0.22254 -0.10843 0.36787
 C806 C 0.19943 -0.11712 0.35531
 C807 C 0.20106 -0.14002 0.33996
 C808 C 0.22587 -0.15442 0.33656
 C809 C 0.22089 -0.08569 0.38364
 C810 C 0.24393 -0.07734 0.39663
 C811 C 0.26899 -0.09194 0.39384
 C812 C 0.27070 -0.11451 0.37778
 C813 C 0.29192 -0.08362 0.40715
 C814 C 0.29008 -0.06092 0.42285
 C815 C 0.26533 -0.04628 0.42543
 C816 C 0.24232 -0.05452 0.41232
 H817 H 0.26833 -0.15674 0.34656
 H818 H 0.18006 -0.10632 0.35749
 H819 H 0.18288 -0.14633 0.33053
 H820 H 0.20166 -0.07457 0.38590
 H821 H 0.28993 -0.12562 0.37552
 H822 H 0.31127 -0.09457 0.40528
 H823 H 0.30800 -0.05453 0.43275
 H824 H 0.22325 -0.04303 0.41428
 C825 C 0.74632 0.13950 0.35065
 C826 C 0.74982 0.11813 0.37007
 C827 C 0.77505 0.11264 0.38338
 C828 C 0.79624 0.12883 0.37722
 C829 C 0.79257 0.15011 0.35791
 C830 C 0.76766 0.15558 0.34431
 C831 C 0.77874 0.09098 0.40247
 C832 C 0.75749 0.07472 0.40840
 C833 C 0.73217 0.08043 0.39524
 C834 C 0.72850 0.10209 0.37622
 C835 C 0.71096 0.06414 0.40111
 C836 C 0.71485 0.04221 0.41961
 C837 C 0.73989 0.03635 0.43265
 C838 C 0.76120 0.05262 0.42703
 H839 H 0.72690 0.14363 0.34062
 H840 H 0.81573 0.12493 0.38721
 H841 H 0.80946 0.16196 0.35336
 H842 H 0.79815 0.08667 0.41256
 H843 H 0.70912 0.10633 0.36605
 H844 H 0.69146 0.06820 0.39121
 H845 H 0.69836 0.02960 0.42365
 H846 H 0.78062 0.04782 0.43692
 C847 C 0.26108 0.14999 0.64806
 C848 C 0.26523 0.12741 0.63228
 C849 C 0.28943 0.11092 0.63535
 C850 C 0.30905 0.11735 0.65412
 C851 C 0.30477 0.13988 0.66974
 C852 C 0.28076 0.15650 0.66695
 C853 C 0.29359 0.08825 0.61968
 C854 C 0.27380 0.08186 0.60101
 C855 C 0.24959 0.09840 0.59792
 C856 C 0.24548 0.12107 0.61355
 C857 C 0.22978 0.09185 0.57936
 C858 C 0.23383 0.06903 0.56411
 C859 C 0.25784 0.05259 0.56697
 C860 C 0.27774 0.05904 0.58552
 H861 H 0.24241 0.16235 0.64549
 H862 H 0.32773 0.10492 0.65675
 H863 H 0.32039 0.14416 0.68399
 H864 H 0.31215 0.07556 0.62209
 H865 H 0.22687 0.13370 0.61121
 H866 H 0.21107 0.10423 0.57682
 H867 H 0.21813 0.06399 0.55021
 H868 H 0.29617 0.04617 0.58791
   
