data_POSCAR
  _audit_creation_date              2014-09-24
  _audit_creation_method            'ToBaCCo'
  _symmetry_space_group_name_H-M    'P1'
  _symmetry_Int_Tables_number       1
  _symmetry_cell_setting            triclinic
  loop_
  _symmetry_equiv_pos_as_xyz
 x,y,z
_cell_length_a 44.4163
_cell_length_b 44.2824
_cell_length_c 44.2825
_cell_angle_alpha 89.998700
_cell_angle_beta 89.944300
_cell_angle_gamma 89.939400
loop_
  _atom_site_label
  _atom_site_type_symbol
  _atom_site_fract_x
  _atom_site_fract_y
  _atom_site_fract_z
C1 C 0.17640 1.21676 0.21618
 C2 C 0.16365 1.24240 0.20264
 C3 C 0.17668 1.25492 0.17666
 C4 C 0.20271 1.24203 0.16417
 C5 C 0.21574 1.21638 0.17742
 C6 C 0.20255 1.20364 0.20353
 C7 C 0.16316 1.20367 0.24179
 C8 C 0.17569 1.17765 0.25475
 C9 C 0.20172 1.16470 0.24233
 C10 C 0.21524 1.17751 0.21672
 C11 C 0.24090 1.16433 0.20372
 C12 C 0.25384 1.17692 0.17775
 C13 C 0.24140 1.20291 0.16472
 H14 H 0.14341 1.25239 0.21210
 H15 H 0.21259 1.25171 0.14395
 H16 H 0.14290 1.21349 0.25141
 H17 H 0.21121 1.14446 0.25236
 H18 H 0.25060 1.14410 0.21352
 H19 H 0.25148 1.21237 0.14451
 C20 C 0.82419 0.78328 0.21655
 C21 C 0.83734 0.75770 0.20327
 C22 C 0.82465 0.74485 0.17730
 C23 C 0.79856 0.75736 0.16458
 C24 C 0.78514 0.78294 0.17759
 C25 C 0.79799 0.79601 0.20367
 C26 C 0.83710 0.79670 0.24214
 C27 C 0.82418 0.82267 0.25485
 C28 C 0.79810 0.83524 0.24220
 C29 C 0.78491 0.82209 0.21661
 C30 C 0.75919 0.83488 0.20337
 C31 C 0.74659 0.82196 0.17743
 C32 C 0.75943 0.79602 0.16465
 H33 H 0.85763 0.74802 0.21290
 H34 H 0.78895 0.74741 0.14438
 H35 H 0.85739 0.78718 0.25194
 H36 H 0.78830 0.85544 0.25203
 H37 H 0.74919 0.85507 0.21297
 H38 H 0.74960 0.78631 0.14445
 C39 C 0.82233 1.21610 -0.21647
 C40 C 0.83536 1.24172 -0.20322
 C41 C 0.82271 1.25444 -0.17716
 C42 C 0.79679 1.24182 -0.16429
 C43 C 0.78347 1.21621 -0.17723
 C44 C 0.79627 1.20323 -0.20343
 C45 C 0.83520 1.20278 -0.24217
 C46 C 0.82238 1.17679 -0.25483
 C47 C 0.79644 1.16408 -0.24203
 C48 C 0.78329 1.17712 -0.21632
 C49 C 0.75773 1.16420 -0.20293
 C50 C 0.74518 1.17701 -0.17687
 C51 C 0.75791 1.20298 -0.16414
 H52 H 0.85554 1.25156 -0.21290
 H53 H 0.78728 1.25173 -0.14400
 H54 H 0.85538 1.21241 -0.25209
 H55 H 0.78673 1.14386 -0.25183
 H56 H 0.74781 1.14398 -0.21250
 H57 H 0.74812 1.21262 -0.14386
 C58 C 0.17707 0.78374 -0.21664
 C59 C 0.16405 0.75808 -0.20344
 C60 C 0.17676 0.74523 -0.17747
 C61 C 0.20275 0.75781 -0.16467
 C62 C 0.21605 0.78346 -0.17760
 C63 C 0.20317 0.79654 -0.20369
 C64 C 0.16414 0.79718 -0.24224
 C65 C 0.17695 0.82319 -0.25484
 C66 C 0.20291 0.83583 -0.24214
 C67 C 0.21613 0.82269 -0.21655
 C68 C 0.24174 0.83555 -0.20324
 C69 C 0.25437 0.82264 -0.17730
 C70 C 0.24166 0.79663 -0.16459
 H71 H 0.14383 0.74835 -0.21313
 H72 H 0.21238 0.74786 -0.14447
 H73 H 0.14394 0.78768 -0.25214
 H74 H 0.21254 0.85608 -0.25196
 H75 H 0.25164 0.85580 -0.21279
 H76 H 0.25151 0.78691 -0.14439
 C77 C 0.54595 1.04093 -0.00851
 H78 H 0.54667 1.04085 0.01591
 C79 C 0.56638 1.05847 -0.02483
 H80 H 0.58285 1.07206 -0.01298
 C81 C 0.52422 1.02264 -0.05387
 H82 H 0.50819 1.00819 -0.06511
 C83 C 0.54427 1.03985 -0.07106
 H84 H 0.54345 1.03880 -0.09549
 N85 N 0.52532 1.02361 -0.02316
 C86 C 0.45401 1.00835 0.04283
 H87 H 0.45334 0.98393 0.04277
 C88 C 0.43352 1.02465 0.06035
 H89 H 0.41705 1.01279 0.07396
 C90 C 0.47566 1.05374 0.02446
 H91 H 0.49168 1.06499 0.00997
 C92 C 0.45554 1.07091 0.04165
 H93 H 0.45631 1.09534 0.04056
 Zn94 Zn 0.49999 0.99904 0.00086
 N95 N 0.47462 1.02303 0.02546
 C96 C 0.52436 0.97545 0.05551
 N97 N 0.52540 0.97447 0.02479
 C98 C 0.54605 0.95715 0.01006
 C99 C 0.56657 0.93964 0.02631
 C100 C 0.54450 0.95828 0.07262
 C101 C 0.45397 0.98979 -0.04095
 C102 C 0.43351 0.97353 -0.05847
 C103 C 0.45565 0.92723 -0.03992
 C104 C 0.47574 0.94436 -0.02273
 N105 N 0.47463 0.97508 -0.02368
 H106 H 0.50832 0.98991 0.06680
 H107 H 0.54671 0.95722 -0.01436
 H108 H 0.58305 0.92607 0.01440
 H109 H 0.54373 0.95935 0.09705
 H110 H 0.45326 1.01421 -0.04085
 H111 H 0.41703 0.98542 -0.07202
 H112 H 0.45648 0.90280 -0.03889
 H113 H 0.49179 0.93308 -0.00831
 C114 C 0.43425 1.05621 0.05969
 C115 C 0.56557 1.05786 -0.05638
 C116 C 0.43433 0.94197 -0.05788
 C117 C 0.56583 0.94029 0.05786
 C118 C -0.00830 0.54633 1.04152
 H119 H 0.01605 0.54701 1.04140
 C120 C -0.02453 0.56685 1.05910
 H121 H -0.01268 0.58335 1.07268
 C122 C -0.05357 0.52459 1.02329
 H123 H -0.06480 0.50852 1.00884
 C124 C -0.07067 0.54473 1.04053
 H125 H -0.09502 0.54394 1.03953
 N126 N -0.02294 0.52565 1.02421
 C127 C 0.04272 0.45398 1.00884
 H128 H 0.04265 0.45329 0.98442
 C129 C 0.06018 0.43342 1.02511
 H130 H 0.07372 0.41688 1.01322
 C131 C 0.02446 0.47578 1.05426
 H132 H 0.01005 0.49188 1.06553
 C133 C 0.04159 0.45560 1.07140
 H134 H 0.04052 0.45640 1.09583
 Zn135 Zn 0.00095 0.50018 0.99960
 N136 N 0.02545 0.47470 1.02354
 C137 C 0.05547 0.52449 0.97593
 N138 N 0.02485 0.52561 0.97500
 C139 C 0.01020 0.54634 0.95772
 C140 C 0.02642 0.56686 0.94018
 C141 C 0.07257 0.54464 0.95872
 C142 C -0.04082 0.45410 0.99036
 C143 C -0.05834 0.43361 0.97410
 C144 C -0.03981 0.45578 0.92780
 C145 C -0.02263 0.47588 0.94493
 N146 N -0.02356 0.47478 0.97565
 H147 H 0.06670 0.50838 0.99036
 H148 H -0.01415 0.54706 0.95783
 H149 H 0.01458 0.58340 0.92662
 H150 H 0.09692 0.54380 0.95974
 H151 H -0.04072 0.45338 1.01478
 H152 H -0.07188 0.41711 0.98599
 H153 H -0.03880 0.45661 0.90337
 H154 H -0.00822 0.49196 0.93365
 C155 C 0.05954 0.43420 1.05667
 C156 C -0.05599 0.56608 1.05854
 C157 C -0.05776 0.43443 0.94254
 C158 C 0.05788 0.56604 0.94075
 C159 C 1.04081 -0.00840 0.54567
 H160 H 1.04066 0.01602 0.54641
 C161 C 1.05833 -0.02469 0.56615
 H162 H 1.07184 -0.01282 0.58269
 C163 C 1.02272 -0.05379 0.52381
 H164 H 1.00834 -0.06505 0.50771
 C165 C 1.03991 -0.07095 0.54391
 H166 H 1.03894 -0.09538 0.54306
 N167 N 1.02359 -0.02308 0.52495
 C168 C 1.00826 0.04287 0.45345
 H169 H 0.98391 0.04278 0.45276
 C170 C 1.02448 0.06044 0.43294
 H171 H 1.01264 0.07403 0.41643
 C172 C 1.05354 0.02459 0.47521
 H173 H 1.06478 0.01012 0.49128
 C174 C 1.07063 0.04182 0.45508
 H175 H 1.09499 0.04078 0.45588
 Zn176 Zn 0.99905 0.00090 0.49954
 N177 N 1.02292 0.02554 0.47413
 C178 C 0.97536 0.05551 0.52399
 N179 N 0.97447 0.02479 0.52502
 C180 C 0.95723 0.01005 0.54571
 C181 C 0.93971 0.02627 0.56628
 C182 C 0.95817 0.07261 0.54418
 C183 C 0.98996 -0.04094 0.45335
 C184 C 0.97380 -0.05852 0.43282
 C185 C 0.92759 -0.04005 0.45503
 C186 C 0.94462 -0.02281 0.47517
 N187 N 0.97524 -0.02369 0.47407
 H188 H 0.98975 0.06682 0.50791
 H189 H 0.95737 -0.01437 0.54637
 H190 H 0.92620 0.01435 0.58280
 H191 H 0.95916 0.09704 0.54342
 H192 H 1.01431 -0.04080 0.45264
 H193 H 0.98570 -0.07206 0.41629
 H194 H 0.90323 -0.03908 0.45586
 H195 H 0.93332 -0.00840 0.49128
 C196 C 1.05595 0.05984 0.43373
 C197 C 1.05781 -0.05624 0.56530
 C198 C 0.94234 -0.05800 0.43364
 C199 C 0.94025 0.05783 0.56555
 C200 C 0.16344 0.27904 1.16292
 C201 C 0.15143 0.30006 1.15048
 C202 C 0.13673 0.32470 1.13527
 C203 C 0.11104 0.33804 1.14793
 C204 C 0.09599 0.36111 1.13251
 C205 C 0.10657 0.37094 1.10436
 C206 C 0.13245 0.35782 1.09185
 C207 C 0.14750 0.33475 1.10727
 C208 C 0.09033 0.39372 1.08787
 C209 C 0.07645 0.41240 1.07379
 H210 H 0.10246 0.33037 1.16952
 H211 H 0.07594 0.37103 1.14234
 H212 H 0.14077 0.36517 1.07005
 H213 H 0.16729 0.32452 1.09722
 C214 C -0.16173 0.72080 1.16381
 C215 C -0.14938 0.69983 1.15159
 C216 C -0.13427 0.67525 1.13665
 C217 C -0.10660 0.66473 1.14761
 C218 C -0.09126 0.64172 1.13235
 C219 C -0.10352 0.62915 1.10607
 C220 C -0.13134 0.63946 1.09528
 C221 C -0.14668 0.66247 1.11054
 C222 C -0.08710 0.60644 1.08963
 C223 C -0.07307 0.58781 1.07560
 H224 H -0.09674 0.67453 1.16772
 H225 H -0.06971 0.63399 1.14083
 H226 H -0.14098 0.62997 1.07492
 H227 H -0.16801 0.67052 1.10181
 C228 C -0.16300 0.27988 0.83706
 C229 C -0.15074 0.30083 0.84932
 C230 C -0.13578 0.32540 0.86434
 C231 C -0.10937 0.33764 0.85211
 C232 C -0.09411 0.36063 0.86740
 C233 C -0.10519 0.37146 0.89499
 C234 C -0.13177 0.35944 0.90706
 C235 C -0.14703 0.33646 0.89177
 C236 C -0.08878 0.39415 0.91139
 C237 C -0.07478 0.41274 0.92544
 H238 H -0.10042 0.32919 0.83097
 H239 H -0.07352 0.36969 0.85791
 H240 H -0.14048 0.36757 0.92843
 H241 H -0.16738 0.32708 0.90149
 C242 C 0.16324 0.72111 0.83595
 C243 C 0.15098 0.70008 0.84810
 C244 C 0.13595 0.67543 0.86296
 C245 C 0.14832 0.66270 0.88913
 C246 C 0.13304 0.63963 0.90432
 C247 C 0.10534 0.62920 0.89340
 C248 C 0.09314 0.64171 0.86704
 C249 C 0.10841 0.66478 0.85186
 C250 C 0.08897 0.60644 0.90976
 C251 C 0.07495 0.58779 0.92375
 H252 H 0.16955 0.67084 0.89797
 H253 H 0.14263 0.63019 0.92474
 H254 H 0.07168 0.63389 0.85846
 H255 H 0.09860 0.67454 0.83170
 C256 C 1.16196 0.16434 0.27884
 C257 C 1.14954 0.15227 0.29983
 C258 C 1.13436 0.13749 0.32444
 C259 C 1.14703 0.11176 0.33777
 C260 C 1.13164 0.09662 0.36080
 C261 C 1.10352 0.10716 0.37060
 C262 C 1.09100 0.13308 0.35748
 C263 C 1.10639 0.14822 0.33445
 C264 C 1.08707 0.09082 0.39333
 C265 C 1.07302 0.07685 0.41198
 H266 H 1.16859 0.10321 0.33012
 H267 H 1.14147 0.07654 0.37072
 H268 H 1.06922 0.14136 0.36481
 H269 H 1.09634 0.16803 0.32422
 C270 C 1.16276 -0.16240 0.71975
 C271 C 1.15058 -0.15000 0.69882
 C272 C 1.13569 -0.13482 0.67428
 C273 C 1.14654 -0.10699 0.66389
 C274 C 1.13132 -0.09159 0.64093
 C275 C 1.10520 -0.10395 0.62825
 C276 C 1.09454 -0.13194 0.63842
 C277 C 1.10975 -0.14734 0.66139
 C278 C 1.08882 -0.08747 0.60558
 C279 C 1.07483 -0.07338 0.58699
 H280 H 1.16651 -0.09706 0.67377
 H281 H 1.13971 -0.06992 0.63331
 H282 H 1.07430 -0.14165 0.62885
 H283 H 1.10111 -0.16880 0.66933
 C284 C 0.83758 -0.16371 0.27891
 C285 C 0.84976 -0.15139 0.29988
 C286 C 0.86468 -0.13636 0.32447
 C287 C 0.85237 -0.10995 0.33680
 C288 C 0.86755 -0.09461 0.35981
 C289 C 0.89511 -0.10563 0.37058
 C290 C 0.90726 -0.13222 0.35847
 C291 C 0.89208 -0.14755 0.33546
 C292 C 0.91140 -0.08914 0.39330
 C293 C 0.92534 -0.07508 0.41191
 H294 H 0.83125 -0.10104 0.32840
 H295 H 0.85800 -0.07402 0.36895
 H296 H 0.92860 -0.14088 0.36655
 H297 H 0.90185 -0.16789 0.32601
 C298 C 0.83574 0.16325 0.72099
 C299 C 0.84785 0.15097 0.69992
 C300 C 0.86265 0.13593 0.67521
 C301 C 0.88860 0.14847 0.66232
 C302 C 0.90375 0.13318 0.63920
 C303 C 0.89300 0.10530 0.62888
 C304 C 0.86686 0.09292 0.64155
 C305 C 0.85172 0.10820 0.66467
 C306 C 0.90932 0.08892 0.60606
 C307 C 0.92328 0.07490 0.58736
 H308 H 0.89731 0.16985 0.67037
 H309 H 0.92400 0.14291 0.62963
 H310 H 0.85841 0.07132 0.63382
 H311 H 0.83173 0.09825 0.67455
 C312 C 0.27933 1.16247 0.16378
 C313 C 0.30033 1.15005 0.15177
 C314 C 0.32495 1.13485 0.13705
 C315 C 0.33820 1.14747 0.11125
 C316 C 0.36124 1.13205 0.09618
 C317 C 0.37113 1.10395 0.10685
 C318 C 0.35810 1.09149 0.13283
 C319 C 0.33506 1.10690 0.14791
 C320 C 0.39387 1.08746 0.09057
 C321 C 0.41251 1.07336 0.07664
 H322 H 0.33048 1.16902 0.10261
 H323 H 0.37109 1.14185 0.07605
 H324 H 0.36550 1.06973 0.14121
 H325 H 0.32490 1.09689 0.16777
 C326 C 0.71979 1.16282 -0.16250
 C327 C 0.69888 1.15064 -0.15014
 C328 C 0.67437 1.13574 -0.13499
 C329 C 0.66185 1.10945 -0.14728
 C330 C 0.63891 1.09423 -0.13189
 C331 C 0.62841 1.10525 -0.10415
 C332 C 0.64071 1.13172 -0.09202
 C333 C 0.66364 1.14693 -0.10741
 C334 C 0.60577 1.08886 -0.08765
 C335 C 0.58722 1.07487 -0.07355
 H336 H 0.67005 1.10054 -0.16854
 H337 H 0.62963 1.07372 -0.14142
 H338 H 0.63283 1.14038 -0.07053
 H339 H 0.67324 1.16719 -0.09765
 C340 C 0.27981 0.83678 -0.16302
 C341 C 0.30076 0.84897 -0.15078
 C342 C 0.32533 0.86392 -0.13583
 C343 C 0.33655 0.89117 -0.14730
 C344 C 0.35954 0.90641 -0.13205
 C345 C 0.37139 0.89447 -0.10528
 C346 C 0.36039 0.86705 -0.09399
 C347 C 0.33740 0.85181 -0.10923
 C348 C 0.39407 0.91084 -0.08888
 C349 C 0.41265 0.92487 -0.07488
 H350 H 0.32731 0.90080 -0.16779
 H351 H 0.36780 0.92765 -0.14092
 H352 H 0.36932 0.85767 -0.07325
 H353 H 0.32881 0.83081 -0.10012
 C354 C 0.72104 0.83601 0.16321
 C355 C 0.70000 0.84809 0.15097
 C356 C 0.67532 0.86286 0.13597
 C357 C 0.66447 0.85153 0.10852
 C358 C 0.64138 0.86664 0.09325
 C359 C 0.62904 0.89313 0.10537
 C360 C 0.63967 0.90429 0.13298
 C361 C 0.66276 0.88918 0.14825
 C362 C 0.60626 0.90942 0.08898
 C363 C 0.58760 0.92334 0.07495
 H364 H 0.67409 0.83126 0.09877
 H365 H 0.63341 0.85788 0.07186
 H366 H 0.63036 0.92482 0.14250
 H367 H 0.67106 0.89820 0.16941
   
