data_POSCAR
  _audit_creation_date              2014-09-24
  _audit_creation_method            'ToBaCCo'
  _symmetry_space_group_name_H-M    'P1'
  _symmetry_Int_Tables_number       1
  _symmetry_cell_setting            triclinic
  loop_
  _symmetry_equiv_pos_as_xyz
 x,y,z
_cell_length_a 33.3784
_cell_length_b 32.8941
_cell_length_c 45.2048
_cell_angle_alpha 90.613400
_cell_angle_beta 89.808500
_cell_angle_gamma 123.115000
loop_
  _atom_site_label
  _atom_site_type_symbol
  _atom_site_fract_x
  _atom_site_fract_y
  _atom_site_fract_z
C1 C 0.01885 0.49675 1.28396
 C2 C -0.02932 0.48425 1.28199
 C3 C -0.05284 0.47028 1.25433
 C4 C -0.03136 0.46553 1.22876
 C5 C 0.01647 0.47825 1.23091
 C6 C 0.04027 0.49261 1.25812
 H7 H 0.07765 0.50481 1.25804
 H8 H -0.08985 0.45924 1.25361
 C9 C 0.52662 0.49935 1.21975
 C10 C 0.49543 0.51573 1.22024
 C11 C 0.48006 0.52306 1.24757
 C12 C 0.49669 0.51706 1.27482
 C13 C 0.53078 0.50358 1.27402
 C14 C 0.54472 0.49466 1.24658
 H15 H 0.56860 0.48194 1.24631
 H16 H 0.45638 0.53603 1.24763
 C17 C 0.49229 0.97395 1.27192
 C18 C 0.51597 1.02553 1.27286
 C19 C 0.52697 1.05093 1.24601
 C20 C 0.51569 1.02694 1.21850
 C21 C 0.49123 0.97593 1.21761
 C22 C 0.48083 0.95027 1.24415
 H23 H 0.46194 0.91115 1.24287
 H24 H 0.54585 1.09007 1.24620
 C25 C 0.98277 0.51103 0.71223
 C26 C 1.03266 0.53253 0.71160
 C27 C 1.05867 0.54842 0.73818
 C28 C 1.03627 0.54197 0.76571
 C29 C 0.98575 0.51958 0.76631
 C30 C 0.95993 0.50453 0.73955
 H31 H 0.92195 0.49007 0.73997
 H32 H 1.09687 0.56390 0.73757
 C33 C 0.51527 0.49362 0.72560
 C34 C 0.50184 0.52750 0.72731
 C35 C 0.49376 0.54093 0.75518
 C36 C 0.49812 0.52087 0.78127
 C37 C 0.51204 0.48736 0.77958
 C38 C 0.51991 0.47378 0.75170
 H39 H 0.52783 0.44600 0.75017
 H40 H 0.48558 0.56854 0.75670
 C41 C 0.49076 0.02177 0.72752
 C42 C 0.45877 -0.02936 0.72421
 C43 C 0.43955 -0.05713 0.75016
 C44 C 0.45409 -0.03620 0.77851
 C45 C 0.48836 0.01417 0.78150
 C46 C 0.50593 0.04239 0.75587
 H47 H 0.53059 0.08138 0.75796
 H48 H 0.41271 -0.09562 0.74880
 O49 O 0.37879 0.62447 0.97670
 O50 O 0.39133 0.70834 0.96606
 C51 C 0.37421 0.73307 0.95903
 O52 O 0.33937 0.73029 0.97257
 O53 O 0.25451 0.65199 0.96446
 C54 C 0.22691 0.60658 0.96044
 O55 O 0.22802 0.57573 0.97639
 O56 O 0.30136 0.56896 0.96817
 C57 C 0.34522 0.58873 0.96213
 O58 O 0.37922 0.64192 1.03554
 O59 O 0.39481 0.72701 1.02468
 C60 C 0.36861 0.73824 1.03810
 O61 O 0.32512 0.72029 1.03154
 O62 O 0.23896 0.64450 1.02345
 C63 C 0.22728 0.60794 1.03930
 O64 O 0.24323 0.58114 1.03507
 O65 O 0.31335 0.56898 1.02708
 C66 C 0.35094 0.59755 1.04185
 Cr67 Cr 0.38342 0.67427 1.00073
 Cr68 Cr 0.29049 0.68525 0.99807
 Cr69 Cr 0.27319 0.57637 1.00162
 O70 O 0.31578 0.64540 1.00011
 O71 O 0.61846 0.36396 0.97035
 O72 O 0.60554 0.27856 0.96604
 C73 C 0.62347 0.25403 0.96003
 O74 O 0.65949 0.25938 0.97360
 O75 O 0.74464 0.33505 0.96440
 C76 C 0.76922 0.37843 0.95560
 O77 O 0.76851 0.41276 0.96809
 O78 O 0.69518 0.41845 0.96014
 C79 C 0.65112 0.39767 0.95459
 O80 O 0.62214 0.35893 1.03013
 O81 O 0.60495 0.27191 1.02546
 C82 C 0.63099 0.26164 1.03962
 O83 O 0.67379 0.27749 1.03264
 O84 O 0.75953 0.35165 1.02381
 C85 C 0.77278 0.39228 1.03593
 O86 O 0.75979 0.41967 1.02706
 O87 O 0.68884 0.42958 1.01895
 C88 C 0.65185 0.40389 1.03470
 Cr89 Cr 0.61557 0.31958 0.99794
 Cr90 Cr 0.70841 0.30758 0.99851
 Cr91 Cr 0.72633 0.41726 0.99369
 O92 O 0.68346 0.34805 0.99668
 O93 O 0.65578 0.40687 0.52445
 O94 O 0.72925 0.39905 0.52830
 C95 C 0.74527 0.37252 0.53333
 O96 O 0.73218 0.33377 0.51890
 O97 O 0.64932 0.25820 0.53208
 C98 C 0.60710 0.23980 0.54124
 O99 O 0.57795 0.24835 0.52951
 O100 O 0.59451 0.33458 0.53905
 C101 C 0.62241 0.38010 0.54243
 O102 O 0.65604 0.39705 0.46490
 O103 O 0.73339 0.39472 0.46888
 C104 C 0.73396 0.36157 0.45461
 O105 O 0.70760 0.31720 0.46104
 O106 O 0.62537 0.24043 0.47406
 C107 C 0.58916 0.23679 0.46196
 O108 O 0.57085 0.25974 0.47095
 O109 O 0.58224 0.34344 0.48114
 C110 C 0.61093 0.37635 0.46339
 Cr111 Cr 0.69203 0.39682 0.49667
 Cr112 Cr 0.67752 0.28886 0.49662
 Cr113 Cr 0.58394 0.29762 0.50496
 O114 O 0.65124 0.32771 0.49940
 O115 O 0.35923 0.60034 0.52945
 O116 O 0.28236 0.60256 0.52981
 C117 C 0.26352 0.62718 0.53165
 O118 O 0.27397 0.66191 0.51451
 O119 O 0.35495 0.74255 0.52526
 C120 C 0.39753 0.76371 0.53475
 O121 O 0.42836 0.75702 0.52351
 O122 O 0.41930 0.67651 0.53907
 C123 C 0.39320 0.63200 0.54570
 O124 O 0.35708 0.59678 0.46960
 O125 O 0.27753 0.59454 0.47022
 C126 C 0.27389 0.62253 0.45296
 O127 O 0.29656 0.66815 0.45678
 O128 O 0.37697 0.75095 0.46680
 C129 C 0.41412 0.75547 0.45548
 O130 O 0.43483 0.73619 0.46627
 O131 O 0.43032 0.65814 0.48244
 C132 C 0.40232 0.62032 0.46724
 Cr133 Cr 0.32045 0.60119 0.49966
 Cr134 Cr 0.32696 0.70470 0.49106
 Cr135 Cr 0.42557 0.70567 0.50260
 O136 O 0.35760 0.67047 0.49767
 C137 C 0.47715 0.52491 0.30050
 C138 C 0.49502 0.53387 0.32945
 C139 C 0.46960 0.53927 0.35477
 C140 C 0.49566 0.56452 0.38022
 C141 C 0.47348 0.57234 0.40391
 C142 C 0.42448 0.55523 0.40262
 C143 C 0.39789 0.52765 0.37787
 C144 C 0.42001 0.51951 0.35427
 C145 C 0.40024 0.56604 0.42620
 C146 C 0.42522 0.60473 0.44614
 H147 H 0.53071 0.54266 0.33361
 H148 H 0.53357 0.57896 0.38162
 H149 H 0.49507 0.59177 0.42307
 H150 H 0.35994 0.51302 0.37652
 H151 H 0.39799 0.49769 0.33578
 H152 H 0.36150 0.54546 0.42634
 H153 H 0.44640 0.52730 0.29711
 H154 H 0.46382 0.62734 0.44523
 C155 C 0.47661 0.94631 0.29813
 C156 C 0.46643 0.89921 0.30082
 C157 C 0.45117 0.87352 0.32937
 C158 C 0.46622 0.84275 0.33721
 C159 C 0.45376 0.81968 0.36464
 C160 C 0.42555 0.82671 0.38459
 C161 C 0.40917 0.85615 0.37623
 C162 C 0.42187 0.87941 0.34896
 C163 C 0.41042 0.80228 0.41354
 C164 C 0.43390 0.78398 0.42832
 H165 H 0.47518 0.88304 0.28307
 H166 H 0.48822 0.83711 0.32225
 H167 H 0.46563 0.79587 0.36982
 H168 H 0.38658 0.86135 0.39093
 H169 H 0.40830 0.90158 0.34315
 H170 H 0.37939 0.79896 0.42381
 H171 H 0.47336 0.96262 0.31807
 H172 H 0.46634 0.78887 0.41937
 C173 C 0.04727 0.51860 0.30965
 C174 C 0.08912 0.51964 0.31538
 C175 C 0.12256 0.54629 0.34024
 C176 C 0.15596 0.53458 0.34733
 C177 C 0.18942 0.55938 0.36985
 C178 C 0.19026 0.59660 0.38599
 C179 C 0.15775 0.60935 0.37847
 C180 C 0.12403 0.58436 0.35585
 C181 C 0.22480 0.62243 0.41050
 C182 C 0.24132 0.59944 0.42763
 H183 H 0.09686 0.49732 0.30196
 H184 H 0.15633 0.50613 0.33529
 H185 H 0.21505 0.54972 0.37421
 H186 H 0.15817 0.63840 0.39030
 H187 H 0.09993 0.59555 0.35043
 H188 H 0.23481 0.65883 0.41645
 H189 H 0.03599 0.53459 0.32593
 H190 H 0.22743 0.56146 0.42361
 C191 C 0.55327 0.49742 0.30018
 C192 C 0.52740 0.46121 0.32100
 C193 C 0.55072 0.45276 0.34591
 C194 C 0.52529 0.43325 0.37225
 C195 C 0.54602 0.42427 0.39606
 C196 C 0.59253 0.43377 0.39380
 C197 C 0.61805 0.45366 0.36749
 C198 C 0.59740 0.46284 0.34375
 C199 C 0.61539 0.42323 0.41812
 C200 C 0.58931 0.39019 0.44052
 H201 H 0.48869 0.44008 0.31978
 H202 H 0.48941 0.42542 0.37454
 H203 H 0.52549 0.41042 0.41618
 H204 H 0.65385 0.46131 0.36508
 H205 H 0.61774 0.47673 0.32354
 H206 H 0.65371 0.43965 0.41730
 H207 H 0.59192 0.51928 0.30119
 H208 H 0.55074 0.37116 0.44068
 C209 C 0.53165 0.05151 0.29997
 C210 C 0.54111 0.09807 0.30466
 C211 C 0.55499 0.12158 0.33415
 C212 C 0.53938 0.15160 0.34313
 C213 C 0.55036 0.17263 0.37139
 C214 C 0.57752 0.16416 0.39113
 C215 C 0.59444 0.13543 0.38172
 C216 C 0.58331 0.11429 0.35354
 C217 C 0.59153 0.18706 0.42080
 C218 C 0.56799 0.20550 0.43568
 H219 H 0.53227 0.11509 0.28782
 H220 H 0.51814 0.15831 0.32836
 H221 H 0.53827 0.19613 0.37735
 H222 H 0.61635 0.12931 0.39625
 H223 H 0.59735 0.09271 0.34690
 H224 H 0.62260 0.19056 0.43104
 H225 H 0.53502 0.03405 0.31900
 H226 H 0.53555 0.20044 0.42668
 C227 C 0.94297 0.48215 0.30631
 C228 C 0.94616 0.46774 0.33472
 C229 C 0.91063 0.45818 0.35781
 C230 C 0.89628 0.41999 0.37750
 C231 C 0.86057 0.40808 0.39832
 C232 C 0.83896 0.43468 0.40009
 C233 C 0.85495 0.47439 0.38136
 C234 C 0.89024 0.48587 0.36021
 C235 C 0.80074 0.42228 0.42177
 C236 C 0.76801 0.37451 0.43024
 H237 H 0.97008 0.45577 0.33880
 H238 H 0.91199 0.39862 0.37632
 H239 H 0.85024 0.37834 0.41318
 H240 H 0.83947 0.49595 0.38274
 H241 H 0.90159 0.51641 0.34583
 H242 H 0.79774 0.45118 0.43075
 H243 H 0.91180 0.48342 0.30174
 H244 H 0.76862 0.34530 0.41943
 C245 C 0.53610 0.48254 1.19149
 C246 C 0.57811 0.48436 1.18549
 C247 C 0.58466 0.46410 1.15778
 C248 C 0.63088 0.48384 1.14651
 C249 C 0.63805 0.46501 1.12057
 C250 C 0.59900 0.42559 1.10554
 C251 C 0.55294 0.40518 1.11722
 C252 C 0.54573 0.42426 1.14297
 C253 C 0.60516 0.40324 1.07870
 C254 C 0.64412 0.42812 1.05961
 H255 H 0.60791 0.50323 1.20077
 H256 H 0.66151 0.51398 1.15779
 H257 H 0.67427 0.48067 1.11284
 H258 H 0.52238 0.37426 1.10639
 H259 H 0.50977 0.40698 1.15155
 H260 H 0.57742 0.36587 1.07354
 H261 H 0.50883 0.46874 1.17448
 H262 H 0.67053 0.46634 1.06328
 C263 C 0.94283 0.44617 1.20196
 C264 C 0.89969 0.44161 1.19503
 C265 C 0.87631 0.42389 1.16575
 C266 C 0.84931 0.44134 1.15474
 C267 C 0.82805 0.42691 1.12682
 C268 C 0.83313 0.39438 1.10929
 C269 C 0.85836 0.37522 1.12078
 C270 C 0.88000 0.38998 1.14872
 C271 C 0.81084 0.37884 1.07958
 C272 C 0.80405 0.40923 1.06208
 H273 H 0.88525 0.45667 1.20967
 H274 H 0.84516 0.46676 1.16764
 H275 H 0.80707 0.44080 1.11925
 H276 H 0.86178 0.34924 1.10799
 H277 H 0.89907 0.37438 1.15699
 H278 H 0.79899 0.34275 1.07162
 H279 H 0.95829 0.43581 1.18481
 H280 H 0.81856 0.44623 1.06937
 C281 C 0.52838 0.05554 1.19091
 C282 C 0.57177 0.10021 1.18799
 C283 C 0.58673 0.12960 1.16077
 C284 C 0.55379 0.12470 1.13937
 C285 C 0.56962 0.15372 1.11414
 C286 C 0.61868 0.18845 1.10994
 C287 C 0.65138 0.19318 1.13132
 C288 C 0.63556 0.16438 1.15655
 C289 C 0.63739 0.21952 1.08345
 C290 C 0.61004 0.22952 1.06533
 H291 H 0.59742 0.11297 1.20597
 H292 H 0.51577 0.09903 1.14211
 H293 H 0.54335 0.14826 1.09792
 H294 H 0.68936 0.21952 1.12860
 H295 H 0.66167 0.16907 1.17274
 H296 H 0.67519 0.23707 1.07875
 H297 H 0.50455 0.03965 1.17212
 H298 H 0.57296 0.21507 1.07047
 C299 C 0.48298 0.52996 1.19232
 C300 C 0.44079 0.52852 1.18821
 C301 C 0.43149 0.54759 1.16135
 C302 C 0.38409 0.52894 1.15283
 C303 C 0.37412 0.54670 1.12785
 C304 C 0.41154 0.58390 1.11099
 C305 C 0.45891 0.60346 1.11999
 C306 C 0.46888 0.58543 1.14483
 C307 C 0.40232 0.60409 1.08466
 C308 C 0.36116 0.57717 1.06737
 H309 H 0.41275 0.51110 1.20461
 H310 H 0.35466 0.50046 1.16551
 H311 H 0.33710 0.53190 1.12223
 H312 H 0.48832 0.63270 1.10770
 H313 H 0.50584 0.60197 1.15134
 H314 H 0.42964 0.64064 1.07803
 H315 H 0.50825 0.54200 1.17427
 H316 H 0.33532 0.53945 1.07244
 C317 C 0.04520 0.48183 1.20485
 C318 C 0.04878 0.50910 1.18035
 C319 C 0.08059 0.51922 1.15476
 C320 C 0.08547 0.55278 1.13380
 C321 C 0.11576 0.56460 1.10956
 C322 C 0.14226 0.54324 1.10585
 C323 C 0.13636 0.50864 1.12633
 C324 C 0.10583 0.49660 1.15053
 C325 C 0.17577 0.55545 1.08092
 C326 C 0.19322 0.59650 1.06342
 H327 H 0.02834 0.52579 1.18058
 H328 H 0.06585 0.57014 1.13624
 H329 H 0.11769 0.59009 1.09383
 H330 H 0.15575 0.49106 1.12374
 H331 H 0.10228 0.46955 1.16558
 H332 H 0.18861 0.53193 1.07685
 H333 H 0.06869 0.46900 1.20719
 H334 H 0.18270 0.62181 1.06753
 C335 C 0.47715 0.94888 1.18911
 C336 C 0.43285 0.90528 1.18557
 C337 C 0.41670 0.87672 1.15770
 C338 C 0.44885 0.88140 1.13572
 C339 C 0.43206 0.85249 1.11014
 C340 C 0.38283 0.81798 1.10621
 C341 C 0.35083 0.81385 1.12799
 C342 C 0.36761 0.84263 1.15356
 C343 C 0.36346 0.78574 1.07989
 C344 C 0.39029 0.77384 1.06246
 H345 H 0.40774 0.89254 1.20378
 H346 H 0.48702 0.90658 1.13832
 H347 H 0.45778 0.85760 1.09355
 H348 H 0.31273 0.78771 1.12543
 H349 H 0.34211 0.83821 1.17020
 H350 H 0.32559 0.76803 1.07527
 H351 H 0.50067 0.96515 1.17035
 H352 H 0.42746 0.78870 1.06762
 C353 C 0.52135 0.47602 0.69674
 C354 C 0.55686 0.46655 0.69233
 C355 C 0.56140 0.44537 0.66462
 C356 C 0.60661 0.45615 0.65614
 C357 C 0.61190 0.43559 0.63047
 C358 C 0.57180 0.40321 0.61306
 C359 C 0.52642 0.39148 0.62191
 C360 C 0.52122 0.41268 0.64735
 C361 C 0.57634 0.38000 0.58630
 C362 C 0.61653 0.40378 0.56823
 H363 H 0.58346 0.47674 0.70947
 H364 H 0.63790 0.48061 0.66941
 H365 H 0.64719 0.44418 0.62467
 H366 H 0.49499 0.36605 0.60904
 H367 H 0.48568 0.40250 0.65384
 H368 H 0.54645 0.34420 0.57998
 H369 H 0.49834 0.47169 0.67851
 H370 H 0.64438 0.44132 0.57279
 C371 C 0.51121 0.05548 0.70226
 C372 C 0.48227 0.05875 0.68142
 C373 C 0.50084 0.09262 0.65607
 C374 C 0.54931 0.11885 0.64777
 C375 C 0.56513 0.14993 0.62355
 C376 C 0.53276 0.15497 0.60663
 C377 C 0.48445 0.12887 0.61498
 C378 C 0.46866 0.09795 0.63933
 C379 C 0.54794 0.18738 0.58060
 C380 C 0.59194 0.20665 0.56647
 H381 H 0.44382 0.03537 0.68407
 H382 H 0.57539 0.11544 0.65957
 H383 H 0.60287 0.17008 0.61858
 H384 H 0.45871 0.13216 0.60251
 H385 H 0.43109 0.07810 0.64510
 H386 H 0.52304 0.19570 0.57187
 H387 H 0.54933 0.08198 0.70262
 H388 H 0.61682 0.19757 0.57389
 C389 C 0.95542 0.50031 0.68429
 C390 C 0.90783 0.46194 0.68120
 C391 C 0.88041 0.45356 0.65369
 C392 C 0.84457 0.40599 0.64545
 C393 C 0.81791 0.39705 0.61964
 C394 C 0.82615 0.43572 0.60184
 C395 C 0.86101 0.48340 0.61056
 C396 C 0.88824 0.49230 0.63612
 C397 C 0.79732 0.42715 0.57497
 C398 C 0.77989 0.38569 0.55741
 H399 H 0.89101 0.43574 0.69879
 H400 H 0.83740 0.37567 0.65891
 H401 H 0.79016 0.35994 0.61404
 H402 H 0.86736 0.51377 0.59746
 H403 H 0.91465 0.52952 0.64241
 H404 H 0.79021 0.45434 0.56872
 H405 H 0.97378 0.52282 0.66533
 H406 H 0.79045 0.36062 0.56224
 C407 C 0.49861 0.55087 0.70038
 C408 C 0.46473 0.56293 0.69752
 C409 C 0.46013 0.58509 0.67060
 C410 C 0.41504 0.57547 0.66303
 C411 C 0.40901 0.59466 0.63731
 C412 C 0.44823 0.62444 0.61889
 C413 C 0.49377 0.63598 0.62715
 C414 C 0.49970 0.61616 0.65270
 C415 C 0.44200 0.64331 0.59100
 C416 C 0.40149 0.61504 0.57347
 H417 H 0.43806 0.55214 0.71464
 H418 H 0.38422 0.55233 0.67678
 H419 H 0.37369 0.58636 0.63194
 H420 H 0.52456 0.65946 0.61347
 H421 H 0.53523 0.62551 0.65850
 H422 H 0.47094 0.67829 0.58317
 H423 H 0.52159 0.55624 0.68186
 H424 H 0.37500 0.57816 0.57997
 C425 C 0.44748 0.94818 0.69580
 C426 C 0.42589 0.89833 0.69060
 C427 C 0.41624 0.87730 0.66037
 C428 C 0.42307 0.83962 0.65427
 C429 C 0.41362 0.81848 0.62606
 C430 C 0.39600 0.83385 0.60357
 C431 C 0.38796 0.87071 0.60983
 C432 C 0.39864 0.89280 0.63790
 C433 C 0.38388 0.80999 0.57409
 C434 C 0.41255 0.79634 0.56069
 H435 H 0.42061 0.87439 0.70850
 H436 H 0.43606 0.82672 0.67134
 H437 H 0.41900 0.78927 0.62207
 H438 H 0.37378 0.88262 0.59292
 H439 H 0.39210 0.92113 0.64224
 H440 H 0.35202 0.80299 0.56291
 H441 H 0.45935 0.97048 0.67633
 H442 H 0.44665 0.80781 0.57074
 C443 C 0.05740 0.53497 0.68366
 C444 C 0.10427 0.57282 0.67775
 C445 C 0.13083 0.57380 0.65125
 C446 C 0.16709 0.61882 0.64016
 C447 C 0.19376 0.62130 0.61561
 C448 C 0.18510 0.57864 0.60185
 C449 C 0.14981 0.53354 0.61343
 C450 C 0.12252 0.53104 0.63779
 C451 C 0.21362 0.58105 0.57603
 C452 C 0.22862 0.61715 0.55497
 H453 H 0.12156 0.60411 0.69247
 H454 H 0.17472 0.65222 0.65049
 H455 H 0.22181 0.65667 0.60778
 H456 H 0.14310 0.50027 0.60346
 H457 H 0.09579 0.49576 0.64641
 H458 H 0.22243 0.55403 0.57345
 H459 H 0.03788 0.50661 0.66721
 H460 H 0.21587 0.64116 0.55645
 C461 C 0.48982 0.53663 0.81015
 C462 C 0.45239 0.54335 0.81418
 C463 C 0.44075 0.55574 0.84306
 C464 C 0.39420 0.54441 0.84769
 C465 C 0.38157 0.55543 0.87463
 C466 C 0.41547 0.57821 0.89753
 C467 C 0.46236 0.59061 0.89267
 C468 C 0.47497 0.57942 0.86573
 C469 C 0.40380 0.59202 0.92592
 C470 C 0.35724 0.56934 0.93668
 H471 H 0.42831 0.53558 0.79583
 H472 H 0.36744 0.52690 0.83039
 H473 H 0.34558 0.54706 0.87705
 H474 H 0.48934 0.60909 0.90976
 H475 H 0.51165 0.59025 0.86262
 H476 H 0.43290 0.62146 0.93862
 H477 H 0.51121 0.53933 0.82889
 H478 H 0.32813 0.53791 0.92533
 C479 C 0.06645 0.55871 0.79083
 C480 C 0.05269 0.54136 0.81961
 C481 C 0.08626 0.56192 0.84495
 C482 C 0.07720 0.53297 0.86978
 C483 C 0.10877 0.55074 0.89379
 C484 C 0.15018 0.59803 0.89340
 C485 C 0.15808 0.62774 0.86915
 C486 C 0.12648 0.60997 0.84514
 C487 C 0.18548 0.61747 0.91786
 C488 C 0.19114 0.58758 0.93662
 H489 H 0.01816 0.50853 0.82346
 H490 H 0.04586 0.49626 0.87049
 H491 H 0.10024 0.52739 0.91262
 H492 H 0.18915 0.66463 0.86860
 H493 H 0.13354 0.63408 0.82694
 H494 H 0.20956 0.65649 0.92010
 H495 H 0.10443 0.58376 0.78710
 H496 H 0.16945 0.54861 0.93351
 C497 C 0.43214 0.93128 0.80421
 C498 C 0.45943 0.93009 0.82712
 C499 C 0.43830 0.89524 0.85183
 C500 C 0.46699 0.88341 0.86722
 C501 C 0.44815 0.85040 0.89053
 C502 C 0.40011 0.82872 0.89905
 C503 C 0.37183 0.84160 0.88416
 C504 C 0.39059 0.87438 0.86078
 C505 C 0.37869 0.79406 0.92385
 C506 C 0.39659 0.76709 0.93425
 H507 H 0.49805 0.95356 0.82585
 H508 H 0.50408 0.89959 0.86108
 H509 H 0.47162 0.84275 0.90206
 H510 H 0.33497 0.82609 0.89060
 H511 H 0.36779 0.88382 0.85015
 H512 H 0.34622 0.78814 0.93360
 H513 H 0.39430 0.90354 0.80294
 H514 H 0.42710 0.76989 0.92366
 C515 C 0.51628 0.46478 0.80661
 C516 C 0.55066 0.45334 0.80927
 C517 C 0.55925 0.43534 0.83681
 C518 C 0.60361 0.44076 0.84047
 C519 C 0.61425 0.42610 0.86648
 C520 C 0.58062 0.40568 0.88951
 C521 C 0.53544 0.39819 0.88539
 C522 C 0.52476 0.41296 0.85931
 C523 C 0.59165 0.39117 0.91762
 C524 C 0.63828 0.41408 0.92837
 H525 H 0.57540 0.46210 0.79118
 H526 H 0.63044 0.45696 0.82326
 H527 H 0.64870 0.43044 0.86828
 H528 H 0.50859 0.38152 0.90256
 H529 H 0.48948 0.40643 0.85689
 H530 H 0.56239 0.36275 0.93045
 H531 H 0.49429 0.46048 0.82543
 H532 H 0.66721 0.44471 0.91668
 C533 C 0.95955 0.51605 0.79368
 C534 C 0.91789 0.47240 0.80164
 C535 C 0.89400 0.46364 0.83078
 C536 C 0.86104 0.41551 0.83923
 C537 C 0.83793 0.40513 0.86657
 C538 C 0.84732 0.44285 0.88621
 C539 C 0.87960 0.49105 0.87754
 C540 C 0.90279 0.50145 0.85018
 C541 C 0.82240 0.43349 0.91503
 C542 C 0.79932 0.38870 0.92926
 H543 H 0.90437 0.44170 0.78659
 H544 H 0.85311 0.38567 0.82460
 H545 H 0.81208 0.36754 0.87178
 H546 H 0.88686 0.52083 0.89200
 H547 H 0.92688 0.53908 0.84431
 H548 H 0.82191 0.46311 0.92533
 H549 H 0.97614 0.54663 0.80883
 H550 H 0.80129 0.35926 0.92025
 C551 C 0.50314 0.03850 0.81097
 C552 C 0.55017 0.07676 0.81682
 C553 C 0.56638 0.10389 0.84531
 C554 C 0.53490 0.10670 0.86472
 C555 C 0.55225 0.13541 0.89044
 C556 C 0.60142 0.16200 0.89724
 C557 C 0.63251 0.15809 0.87825
 C558 C 0.61526 0.12980 0.85242
 C559 C 0.62151 0.19437 0.92361
 C560 C 0.60072 0.21765 0.93598
 H561 H 0.57694 0.08639 0.79990
 H562 H 0.49712 0.08790 0.85979
 H563 H 0.52703 0.13660 0.90492
 H564 H 0.67047 0.17797 0.88302
 H565 H 0.64030 0.12838 0.83784
 H566 H 0.65597 0.20356 0.93187
 H567 H 0.47704 0.02456 0.82859
 H568 H 0.56828 0.21184 0.92641
   
